# Generated by pormake.
# Topology deh, (3)-cn, num edge types: 1
# Building blocks:
#     Node 0, Type 0, BuildingBlock: OLANEW_clean_sbu_2, # of connection points: 3
#     Node 1, Type 0, BuildingBlock: OLANEW_clean_sbu_2, # of connection points: 3
#     Node 2, Type 0, BuildingBlock: OLANEW_clean_sbu_2, # of connection points: 3
#     Node 3, Type 0, BuildingBlock: OLANEW_clean_sbu_2, # of connection points: 3
#     Node 4, Type 0, BuildingBlock: OLANEW_clean_sbu_2, # of connection points: 3
#     Node 5, Type 0, BuildingBlock: OLANEW_clean_sbu_2, # of connection points: 3
#     Node 6, Type 0, BuildingBlock: OLANEW_clean_sbu_2, # of connection points: 3
#     Node 7, Type 0, BuildingBlock: OLANEW_clean_sbu_2, # of connection points: 3
#     Node 8, Type 0, BuildingBlock: OLANEW_clean_sbu_2, # of connection points: 3
#     Node 9, Type 0, BuildingBlock: OLANEW_clean_sbu_2, # of connection points: 3
#     Node 10, Type 0, BuildingBlock: OLANEW_clean_sbu_2, # of connection points: 3
#     Node 11, Type 0, BuildingBlock: OLANEW_clean_sbu_2, # of connection points: 3
#     Node 12, Type 0, BuildingBlock: OLANEW_clean_sbu_2, # of connection points: 3
#     Node 13, Type 0, BuildingBlock: OLANEW_clean_sbu_2, # of connection points: 3
#     Node 14, Type 0, BuildingBlock: OLANEW_clean_sbu_2, # of connection points: 3
#     Node 15, Type 0, BuildingBlock: OLANEW_clean_sbu_2, # of connection points: 3
#     Node 16, Type 0, BuildingBlock: OLANEW_clean_sbu_2, # of connection points: 3
#     Node 17, Type 0, BuildingBlock: OLANEW_clean_sbu_2, # of connection points: 3
#     Node 18, Type 0, BuildingBlock: OLANEW_clean_sbu_2, # of connection points: 3
#     Node 19, Type 0, BuildingBlock: OLANEW_clean_sbu_2, # of connection points: 3
#     Node 20, Type 0, BuildingBlock: OLANEW_clean_sbu_2, # of connection points: 3
#     Node 21, Type 0, BuildingBlock: OLANEW_clean_sbu_2, # of connection points: 3
#     Node 22, Type 0, BuildingBlock: OLANEW_clean_sbu_2, # of connection points: 3
#     Node 23, Type 0, BuildingBlock: OLANEW_clean_sbu_2, # of connection points: 3
#     Node 24, Type 0, BuildingBlock: OLANEW_clean_sbu_2, # of connection points: 3
#     Node 25, Type 0, BuildingBlock: OLANEW_clean_sbu_2, # of connection points: 3
#     Node 26, Type 0, BuildingBlock: OLANEW_clean_sbu_2, # of connection points: 3
#     Node 27, Type 0, BuildingBlock: OLANEW_clean_sbu_2, # of connection points: 3
#     Node 28, Type 0, BuildingBlock: OLANEW_clean_sbu_2, # of connection points: 3
#     Node 29, Type 0, BuildingBlock: OLANEW_clean_sbu_2, # of connection points: 3
#     Node 30, Type 0, BuildingBlock: OLANEW_clean_sbu_2, # of connection points: 3
#     Node 31, Type 0, BuildingBlock: OLANEW_clean_sbu_2, # of connection points: 3
#     Edge 32, Type (0, 0), BuildingBlock: TEMPAE_clean_linker_10, # of connection points: 2
#     Edge 33, Type (0, 0), BuildingBlock: TEMPAE_clean_linker_10, # of connection points: 2
#     Edge 34, Type (0, 0), BuildingBlock: TEMPAE_clean_linker_10, # of connection points: 2
#     Edge 35, Type (0, 0), BuildingBlock: TEMPAE_clean_linker_10, # of connection points: 2
#     Edge 36, Type (0, 0), BuildingBlock: TEMPAE_clean_linker_10, # of connection points: 2
#     Edge 37, Type (0, 0), BuildingBlock: TEMPAE_clean_linker_10, # of connection points: 2
#     Edge 38, Type (0, 0), BuildingBlock: TEMPAE_clean_linker_10, # of connection points: 2
#     Edge 39, Type (0, 0), BuildingBlock: TEMPAE_clean_linker_10, # of connection points: 2
#     Edge 40, Type (0, 0), BuildingBlock: TEMPAE_clean_linker_10, # of connection points: 2
#     Edge 41, Type (0, 0), BuildingBlock: TEMPAE_clean_linker_10, # of connection points: 2
#     Edge 42, Type (0, 0), BuildingBlock: TEMPAE_clean_linker_10, # of connection points: 2
#     Edge 43, Type (0, 0), BuildingBlock: TEMPAE_clean_linker_10, # of connection points: 2
#     Edge 44, Type (0, 0), BuildingBlock: TEMPAE_clean_linker_10, # of connection points: 2
#     Edge 45, Type (0, 0), BuildingBlock: TEMPAE_clean_linker_10, # of connection points: 2
#     Edge 46, Type (0, 0), BuildingBlock: TEMPAE_clean_linker_10, # of connection points: 2
#     Edge 47, Type (0, 0), BuildingBlock: TEMPAE_clean_linker_10, # of connection points: 2
#     Edge 48, Type (0, 0), BuildingBlock: TEMPAE_clean_linker_10, # of connection points: 2
#     Edge 49, Type (0, 0), BuildingBlock: TEMPAE_clean_linker_10, # of connection points: 2
#     Edge 50, Type (0, 0), BuildingBlock: TEMPAE_clean_linker_10, # of connection points: 2
#     Edge 51, Type (0, 0), BuildingBlock: TEMPAE_clean_linker_10, # of connection points: 2
#     Edge 52, Type (0, 0), BuildingBlock: TEMPAE_clean_linker_10, # of connection points: 2
#     Edge 53, Type (0, 0), BuildingBlock: TEMPAE_clean_linker_10, # of connection points: 2
#     Edge 54, Type (0, 0), BuildingBlock: TEMPAE_clean_linker_10, # of connection points: 2
#     Edge 55, Type (0, 0), BuildingBlock: TEMPAE_clean_linker_10, # of connection points: 2
#     Edge 56, Type (0, 0), BuildingBlock: TEMPAE_clean_linker_10, # of connection points: 2
#     Edge 57, Type (0, 0), BuildingBlock: TEMPAE_clean_linker_10, # of connection points: 2
#     Edge 58, Type (0, 0), BuildingBlock: TEMPAE_clean_linker_10, # of connection points: 2
#     Edge 59, Type (0, 0), BuildingBlock: TEMPAE_clean_linker_10, # of connection points: 2
#     Edge 60, Type (0, 0), BuildingBlock: TEMPAE_clean_linker_10, # of connection points: 2
#     Edge 61, Type (0, 0), BuildingBlock: TEMPAE_clean_linker_10, # of connection points: 2
#     Edge 62, Type (0, 0), BuildingBlock: TEMPAE_clean_linker_10, # of connection points: 2
#     Edge 63, Type (0, 0), BuildingBlock: TEMPAE_clean_linker_10, # of connection points: 2
#     Edge 64, Type (0, 0), BuildingBlock: TEMPAE_clean_linker_10, # of connection points: 2
#     Edge 65, Type (0, 0), BuildingBlock: TEMPAE_clean_linker_10, # of connection points: 2
#     Edge 66, Type (0, 0), BuildingBlock: TEMPAE_clean_linker_10, # of connection points: 2
#     Edge 67, Type (0, 0), BuildingBlock: TEMPAE_clean_linker_10, # of connection points: 2
#     Edge 68, Type (0, 0), BuildingBlock: TEMPAE_clean_linker_10, # of connection points: 2
#     Edge 69, Type (0, 0), BuildingBlock: TEMPAE_clean_linker_10, # of connection points: 2
#     Edge 70, Type (0, 0), BuildingBlock: TEMPAE_clean_linker_10, # of connection points: 2
#     Edge 71, Type (0, 0), BuildingBlock: TEMPAE_clean_linker_10, # of connection points: 2
#     Edge 72, Type (0, 0), BuildingBlock: TEMPAE_clean_linker_10, # of connection points: 2
#     Edge 73, Type (0, 0), BuildingBlock: TEMPAE_clean_linker_10, # of connection points: 2
#     Edge 74, Type (0, 0), BuildingBlock: TEMPAE_clean_linker_10, # of connection points: 2
#     Edge 75, Type (0, 0), BuildingBlock: TEMPAE_clean_linker_10, # of connection points: 2
#     Edge 76, Type (0, 0), BuildingBlock: TEMPAE_clean_linker_10, # of connection points: 2
#     Edge 77, Type (0, 0), BuildingBlock: TEMPAE_clean_linker_10, # of connection points: 2
#     Edge 78, Type (0, 0), BuildingBlock: TEMPAE_clean_linker_10, # of connection points: 2
#     Edge 79, Type (0, 0), BuildingBlock: TEMPAE_clean_linker_10, # of connection points: 2
# Relax obj value: 0.000
# Max RMSD: 0.046
# Mean RMSD: 0.046
data_MOF--net-deh--node1-OLANEW_clean_sbu_2--edge1-TEMPAE_clean_linker_10
_symmetry_space_group_name_H-M    P1
_symmetry_Int_Tables_number       1
_symmetry_cell_setting            triclinic
loop_
_symmetry_equiv_pos_as_xyz
'x, y, z'
_cell_length_a     60.514498
_cell_length_b     60.488388
_cell_length_c     100.54367
_cell_angle_alpha  90.0054
_cell_angle_beta   90.095078
_cell_angle_gamma 89.992611
loop_
_atom_site_label
_atom_site_type_symbol
_atom_site_fract_x
_atom_site_fract_y
_atom_site_fract_z
_atom_type_partial_charge
O0 O 0.18098 0.10738 0.30468 0.0
Cd1 Cd 0.18375 0.11276 0.28061 0.0
O2 O 0.14943 0.09026 0.30177 0.0
Cd3 Cd 0.11732 0.07729 0.30804 0.0
O4 O 0.0824 0.06905 0.31071 0.0
C5 C 0.06818 0.08394 0.30817 0.0
O6 O 0.0751 0.10349 0.30428 0.0
C7 C 0.16402 0.09806 0.30959 0.0
C8 C 0.22438 0.10279 0.26898 0.0
O9 O 0.22143 0.12104 0.27521 0.0
O10 O 0.20834 0.08897 0.26855 0.0
O11 O 0.17237 0.93124 0.55203 0.0
Cd12 Cd 0.16371 0.92859 0.52826 0.0
O13 O 0.18587 0.89787 0.55004 0.0
Cd14 Cd 0.197 0.86544 0.55694 0.0
O15 O 0.19994 0.82953 0.55855 0.0
C16 C 0.18449 0.81817 0.55338 0.0
O17 O 0.16795 0.82855 0.54763 0.0
C18 C 0.1811 0.9143 0.55738 0.0
C19 C 0.15716 0.96828 0.51462 0.0
O20 O 0.14168 0.95966 0.52159 0.0
O21 O 0.17594 0.95847 0.5144 0.0
O22 O 0.32512 0.88503 0.82544 0.0
Cd23 Cd 0.34065 0.89169 0.80322 0.0
O24 O 0.3158 0.92001 0.8276 0.0
Cd25 Cd 0.33829 0.92987 0.81174 0.0
O26 O 0.3732 0.93684 0.80807 0.0
C27 C 0.38642 0.92763 0.8162 0.0
O28 O 0.37822 0.91448 0.82536 0.0
C29 C 0.31545 0.90027 0.83194 0.0
C30 C 0.30934 0.89073 0.78266 0.0
O31 O 0.32139 0.87381 0.78519 0.0
O32 O 0.31189 0.90797 0.78991 0.0
O33 O 0.33044 0.11276 0.06306 0.0
Cd34 Cd 0.32029 0.12645 0.04097 0.0
O35 O 0.30386 0.13144 0.07286 0.0
Cd36 Cd 0.29786 0.15314 0.05583 0.0
O37 O 0.29976 0.18699 0.0482 0.0
C38 C 0.31687 0.19773 0.0517 0.0
O39 O 0.33208 0.18749 0.05873 0.0
C40 C 0.31937 0.11729 0.07345 0.0
C41 C 0.30948 0.09129 0.02412 0.0
O42 O 0.32903 0.09946 0.02423 0.0
O43 O 0.29505 0.09988 0.03187 0.0
O44 O 0.17807 0.89742 0.66416 0.0
Cd45 Cd 0.16668 0.90129 0.68752 0.0
O46 O 0.17777 0.93348 0.66122 0.0
Cd47 Cd 0.15837 0.93876 0.67921 0.0
O48 O 0.12406 0.93859 0.686 0.0
C49 C 0.11002 0.94328 0.677 0.0
O50 O 0.11727 0.94841 0.66508 0.0
C51 C 0.18182 0.91418 0.65683 0.0
C52 C 0.20003 0.89634 0.70665 0.0
O53 O 0.1871 0.88026 0.70374 0.0
O54 O 0.19757 0.91456 0.70031 0.0
O55 O 0.26746 0.91608 0.93256 0.0
Cd56 Cd 0.25312 0.92092 0.95514 0.0
O57 O 0.26428 0.88015 0.93475 0.0
Cd58 Cd 0.269 0.84578 0.92849 0.0
O59 O 0.27752 0.81084 0.92607 0.0
C60 C 0.29198 0.80251 0.93378 0.0
O61 O 0.30127 0.81522 0.9428 0.0
C62 C 0.26921 0.8968 0.92763 0.0
C63 C 0.26833 0.95871 0.96829 0.0
O64 O 0.27794 0.94 0.96986 0.0
O65 O 0.25178 0.95963 0.96033 0.0
O66 O 0.3814 0.0888 0.17143 0.0
Cd67 Cd 0.39547 0.08584 0.1942 0.0
O68 O 0.37434 0.05345 0.16868 0.0
Cd69 Cd 0.39418 0.04577 0.18626 0.0
O70 O 0.427 0.04247 0.19516 0.0
C71 C 0.44175 0.05446 0.18979 0.0
O72 O 0.43586 0.06788 0.18013 0.0
C73 C 0.37341 0.07322 0.16441 0.0
C74 C 0.36049 0.08822 0.21221 0.0
O75 O 0.36889 0.10571 0.20712 0.0
O76 O 0.36881 0.0695 0.20896 0.0
O77 O 0.11847 0.11898 0.41228 0.0
Cd78 Cd 0.1097 0.1288 0.43536 0.0
O79 O 0.15452 0.12155 0.41465 0.0
Cd80 Cd 0.15035 0.14069 0.43289 0.0
O81 O 0.14448 0.17343 0.44141 0.0
C82 C 0.12964 0.18484 0.43565 0.0
O83 O 0.11839 0.17573 0.42589 0.0
C84 C 0.13782 0.11643 0.4076 0.0
C85 C 0.1206 0.09511 0.45329 0.0
O86 O 0.10254 0.09455 0.44662 0.0
O87 O 0.13355 0.1116 0.45152 0.0
O88 O 0.82938 0.90143 0.69168 0.0
Cd89 Cd 0.82989 0.89755 0.71591 0.0
O90 O 0.86535 0.90195 0.69359 0.0
Cd91 Cd 0.8999 0.9061 0.68757 0.0
O92 O 0.93559 0.90978 0.68499 0.0
C93 C 0.94523 0.92699 0.68937 0.0
O94 O 0.93334 0.94241 0.69515 0.0
C95 C 0.84825 0.90274 0.68621 0.0
C96 C 0.79653 0.9205 0.72915 0.0
O97 O 0.8142 0.93032 0.72535 0.0
O98 O 0.79444 0.89988 0.72649 0.0
O99 O 0.76869 0.09944 0.43773 0.0
Cd100 Cd 0.76381 0.11505 0.46003 0.0
O101 O 0.8033 0.11057 0.43707 0.0
Cd102 Cd 0.79986 0.13302 0.45396 0.0
O103 O 0.79535 0.16583 0.46262 0.0
C104 C 0.77921 0.1771 0.4582 0.0
O105 O 0.76579 0.1679 0.44952 0.0
C106 C 0.78734 0.09987 0.43191 0.0
C107 C 0.78123 0.08691 0.47948 0.0
O108 O 0.76058 0.08654 0.47664 0.0
O109 O 0.79354 0.10063 0.47322 0.0
O110 O 0.67668 0.02235 0.17602 0.0
Cd111 Cd 0.66365 0.01149 0.19816 0.0
O112 O 0.67136 0.05794 0.17911 0.0
Cd113 Cd 0.65171 0.05239 0.19699 0.0
O114 O 0.61776 0.04982 0.20421 0.0
C115 C 0.60558 0.03588 0.19823 0.0
O116 O 0.61459 0.02313 0.18914 0.0
C117 C 0.6783 0.04216 0.17188 0.0
C118 C 0.69595 0.01512 0.21799 0.0
O119 O 0.69485 0.99801 0.21051 0.0
O120 O 0.68192 0.03066 0.21604 0.0
O121 O 0.67269 0.92341 0.92056 0.0
Cd122 Cd 0.68384 0.90743 0.94193 0.0
O123 O 0.63688 0.92011 0.92368 0.0
Cd124 Cd 0.64262 0.89834 0.94071 0.0
O125 O 0.6499 0.86604 0.94952 0.0
C126 C 0.66245 0.85361 0.94268 0.0
O127 O 0.67055 0.86133 0.93148 0.0
C128 C 0.65298 0.92688 0.91666 0.0
C129 C 0.69147 0.94025 0.96098 0.0
O130 O 0.7064 0.93484 0.95257 0.0
O131 O 0.67289 0.93011 0.96044 0.0
O132 O 0.82208 0.02898 0.33535 0.0
Cd133 Cd 0.83747 0.0167 0.31407 0.0
O134 O 0.83391 0.06316 0.33313 0.0
Cd135 Cd 0.85632 0.05563 0.31675 0.0
O136 O 0.89119 0.05584 0.31103 0.0
C137 C 0.90438 0.05988 0.32059 0.0
O138 O 0.89608 0.06301 0.33252 0.0
C139 C 0.82293 0.04879 0.33956 0.0
C140 C 0.80647 0.01807 0.29341 0.0
O141 O 0.80757 0.00149 0.30132 0.0
O142 O 0.81998 0.0341 0.29528 0.0
O143 O 0.72726 0.07966 0.07065 0.0
Cd144 Cd 0.73512 0.09114 0.04779 0.0
O145 O 0.69377 0.09379 0.07088 0.0
Cd146 Cd 0.69871 0.11303 0.05271 0.0
O147 O 0.70242 0.14607 0.04411 0.0
C148 C 0.71165 0.15998 0.0518 0.0
O149 O 0.71871 0.15313 0.06346 0.0
C150 C 0.7089 0.08259 0.07652 0.0
C151 C 0.72422 0.0582 0.02938 0.0
O152 O 0.74272 0.05791 0.03559 0.0
O153 O 0.7108 0.07407 0.03185 0.0
O154 O 0.65568 0.01252 0.82477 0.0
Cd155 Cd 0.66174 0.02978 0.80308 0.0
O156 O 0.62593 0.99534 0.81783 0.0
Cd157 Cd 0.59576 0.97564 0.81977 0.0
O158 O 0.56222 0.9624 0.8182 0.0
C159 C 0.5464 0.97341 0.82322 0.0
O160 O 0.55089 0.99194 0.82949 0.0
C161 C 0.6396 0.99959 0.8271 0.0
C162 C 0.68952 0.00479 0.78683 0.0
O163 O 0.69738 0.01777 0.79573 0.0
O164 O 0.66847 0.00353 0.78561 0.0
O165 O 0.86842 0.94978 0.58372 0.0
Cd166 Cd 0.88049 0.95687 0.56087 0.0
O167 O 0.87085 0.91427 0.57979 0.0
Cd168 Cd 0.87248 0.8789 0.58444 0.0
O169 O 0.87604 0.84293 0.58516 0.0
C170 C 0.86698 0.83136 0.59418 0.0
O171 O 0.85529 0.8413 0.60342 0.0
C172 C 0.86707 0.92998 0.58789 0.0
C173 C 0.85351 0.98446 0.54561 0.0
O174 O 0.85165 0.96337 0.54492 0.0
O175 O 0.8677 0.99248 0.55377 0.0
O176 O 0.64299 0.58488 0.8303 0.0
Cd177 Cd 0.6264 0.57877 0.8084 0.0
O178 O 0.65044 0.54986 0.83403 0.0
Cd179 Cd 0.62898 0.53992 0.81763 0.0
O180 O 0.59578 0.5318 0.81057 0.0
C181 C 0.58391 0.52093 0.81869 0.0
O182 O 0.59263 0.51485 0.8301 0.0
C183 C 0.65175 0.57001 0.83754 0.0
C184 C 0.65587 0.59063 0.78828 0.0
O185 O 0.64305 0.60494 0.79363 0.0
O186 O 0.65463 0.57059 0.79236 0.0
O187 O 0.69873 0.39895 0.06499 0.0
Cd188 Cd 0.69497 0.39113 0.04126 0.0
O189 O 0.73268 0.38667 0.06754 0.0
Cd190 Cd 0.73179 0.36903 0.04857 0.0
O191 O 0.72918 0.33564 0.04034 0.0
C192 C 0.71175 0.3249 0.04316 0.0
O193 O 0.69593 0.33506 0.0497 0.0
C194 C 0.71575 0.39633 0.07225 0.0
C195 C 0.69154 0.43089 0.02725 0.0
O196 O 0.67479 0.4225 0.03317 0.0
O197 O 0.70991 0.42037 0.02776 0.0
O198 O 0.82616 0.42217 0.33705 0.0
Cd199 Cd 0.84288 0.41717 0.31508 0.0
O200 O 0.84494 0.452 0.34246 0.0
Cd201 Cd 0.86709 0.44948 0.32541 0.0
O202 O 0.90066 0.44486 0.31788 0.0
C203 C 0.91594 0.44975 0.32607 0.0
O204 O 0.9104 0.45744 0.33782 0.0
C205 C 0.83021 0.43773 0.34521 0.0
C206 C 0.81162 0.4167 0.29457 0.0
O207 O 0.81516 0.39951 0.30171 0.0
O208 O 0.82277 0.43421 0.29713 0.0
O209 O 0.89531 0.5511 0.59889 0.0
Cd210 Cd 0.91472 0.53729 0.57921 0.0
O211 O 0.89045 0.58312 0.58917 0.0
Cd212 Cd 0.87918 0.61739 0.58686 0.0
O213 O 0.87272 0.65294 0.58717 0.0
C214 C 0.88626 0.66542 0.59328 0.0
O215 O 0.90353 0.65646 0.5991 0.0
C216 C 0.88837 0.57091 0.59942 0.0
C217 C 0.88925 0.51313 0.56114 0.0
O218 O 0.89813 0.50379 0.57127 0.0
O219 O 0.89197 0.53402 0.55973 0.0
O220 O 0.68718 0.40291 0.17662 0.0
Cd221 Cd 0.67059 0.40238 0.19881 0.0
O222 O 0.68164 0.4383 0.1729 0.0
Cd223 Cd 0.65821 0.44109 0.18928 0.0
O224 O 0.62251 0.44495 0.19165 0.0
C225 C 0.61161 0.44094 0.18109 0.0
O226 O 0.62245 0.43445 0.17046 0.0
C227 C 0.68975 0.41987 0.1693 0.0
C228 C 0.7019 0.40717 0.21908 0.0
O229 O 0.69877 0.38848 0.21338 0.0
O230 O 0.6903 0.42369 0.21519 0.0
O231 O 0.80565 0.40664 0.44771 0.0
Cd232 Cd 0.80228 0.39088 0.47006 0.0
O233 O 0.76994 0.40968 0.44405 0.0
Cd234 Cd 0.76326 0.3891 0.46142 0.0
O235 O 0.7643 0.35469 0.46801 0.0
C236 C 0.77746 0.34275 0.46126 0.0
O237 O 0.78918 0.3522 0.45185 0.0
C238 C 0.78975 0.41285 0.44029 0.0
C239 C 0.81975 0.41852 0.4897 0.0
O240 O 0.83202 0.40481 0.4834 0.0
O241 O 0.79917 0.41923 0.48669 0.0
O242 O 0.80947 0.64396 0.68442 0.0
Cd243 Cd 0.79561 0.66504 0.70343 0.0
O244 O 0.83488 0.62794 0.69661 0.0
Cd245 Cd 0.86299 0.60627 0.7011 0.0
O246 O 0.89532 0.59025 0.70216 0.0
C247 C 0.91203 0.60168 0.69879 0.0
O248 O 0.90899 0.62229 0.69509 0.0
C249 C 0.82601 0.63107 0.68526 0.0
C250 C 0.76619 0.64295 0.72013 0.0
O251 O 0.75941 0.65269 0.70956 0.0
O252 O 0.78698 0.64318 0.72261 0.0
O253 O 0.67611 0.60533 0.94029 0.0
Cd254 Cd 0.67541 0.61523 0.96383 0.0
O255 O 0.70349 0.62682 0.93394 0.0
Cd256 Cd 0.70303 0.64674 0.95208 0.0
O257 O 0.69748 0.68079 0.95864 0.0
C258 C 0.67993 0.68983 0.95428 0.0
O259 O 0.66612 0.67778 0.94725 0.0
C260 C 0.68946 0.61178 0.93134 0.0
C261 C 0.67866 0.57648 0.97884 0.0
O262 O 0.66017 0.58269 0.97386 0.0
O263 O 0.69561 0.58878 0.97698 0.0
O264 O 0.34469 0.5237 0.16798 0.0
Cd265 Cd 0.34777 0.53757 0.19076 0.0
O266 O 0.37344 0.50341 0.17291 0.0
Cd267 Cd 0.4016 0.48142 0.16957 0.0
O268 O 0.43511 0.46817 0.17134 0.0
C269 C 0.45086 0.48209 0.17122 0.0
O270 O 0.44615 0.50314 0.16967 0.0
C271 C 0.35891 0.50938 0.1645 0.0
C272 C 0.32045 0.51494 0.20845 0.0
O273 O 0.31447 0.53352 0.20348 0.0
O274 O 0.33926 0.50706 0.20503 0.0
O275 O 0.30347 0.56297 0.90701 0.0
Cd276 Cd 0.29633 0.58216 0.92803 0.0
O277 O 0.33945 0.56807 0.90721 0.0
Cd278 Cd 0.33586 0.59348 0.9225 0.0
O279 O 0.32827 0.62717 0.92898 0.0
C280 C 0.33692 0.64279 0.92231 0.0
O281 O 0.35038 0.63777 0.91252 0.0
C282 C 0.3224 0.55939 0.90197 0.0
C283 C 0.29972 0.55345 0.94976 0.0
O284 O 0.28192 0.55468 0.94288 0.0
O285 O 0.31598 0.56583 0.94642 0.0
O286 O 0.13555 0.50311 0.67066 0.0
Cd287 Cd 0.11796 0.49466 0.69195 0.0
O288 O 0.13788 0.53865 0.67504 0.0
Cd289 Cd 0.11468 0.53677 0.6916 0.0
O290 O 0.08098 0.54316 0.69838 0.0
C291 C 0.06597 0.53998 0.68973 0.0
O292 O 0.07169 0.53223 0.67802 0.0
C293 C 0.14228 0.52232 0.66752 0.0
C294 C 0.14998 0.48672 0.71141 0.0
O295 O 0.14297 0.47117 0.70383 0.0
O296 O 0.14167 0.50605 0.70988 0.0
O297 O 0.15764 0.40817 0.42021 0.0
Cd298 Cd 0.14986 0.40057 0.44369 0.0
O299 O 0.12245 0.41356 0.41567 0.0
Cd300 Cd 0.11297 0.39639 0.43389 0.0
O301 O 0.11318 0.36261 0.4417 0.0
C302 C 0.12768 0.35034 0.43629 0.0
O303 O 0.14102 0.35918 0.42747 0.0
C304 C 0.14259 0.41399 0.41206 0.0
C305 C 0.16435 0.43375 0.46094 0.0
O306 O 0.17565 0.41603 0.45933 0.0
O307 O 0.14637 0.43589 0.45432 0.0
O308 O 0.3095 0.46068 0.81438 0.0
Cd309 Cd 0.30591 0.43936 0.79382 0.0
O310 O 0.34122 0.47406 0.80761 0.0
Cd311 Cd 0.37259 0.49158 0.81015 0.0
O312 O 0.40718 0.50189 0.81128 0.0
C313 C 0.42149 0.49018 0.80527 0.0
O314 O 0.41483 0.47273 0.79859 0.0
C315 C 0.32632 0.47277 0.81648 0.0
C316 C 0.27134 0.45328 0.7774 0.0
O317 O 0.26801 0.43944 0.78684 0.0
O318 O 0.29099 0.46077 0.77584 0.0
O319 O 0.20858 0.56464 0.57072 0.0
Cd320 Cd 0.2155 0.58027 0.54867 0.0
O321 O 0.17583 0.58042 0.57094 0.0
Cd322 Cd 0.18276 0.60376 0.55495 0.0
O323 O 0.18629 0.63888 0.55032 0.0
C324 C 0.18097 0.65164 0.55984 0.0
O325 O 0.17402 0.64278 0.57101 0.0
C326 C 0.18983 0.56735 0.57618 0.0
C327 C 0.20539 0.5495 0.52885 0.0
O328 O 0.22544 0.55272 0.5325 0.0
O329 O 0.19021 0.56091 0.53447 0.0
O330 O 0.19335 0.41226 0.31111 0.0
Cd331 Cd 0.20497 0.39844 0.28934 0.0
O332 O 0.15894 0.40484 0.30589 0.0
Cd333 Cd 0.12342 0.40393 0.31001 0.0
O334 O 0.08773 0.40727 0.31272 0.0
C335 C 0.07815 0.4244 0.30819 0.0
O336 O 0.09004 0.43943 0.30205 0.0
C337 C 0.17311 0.41132 0.31439 0.0
C338 C 0.22775 0.42823 0.27328 0.0
O339 O 0.20695 0.42511 0.27175 0.0
O340 O 0.23765 0.41769 0.2826 0.0
O341 O 0.31739 0.43669 0.07044 0.0
Cd342 Cd 0.30625 0.41935 0.04944 0.0
O343 O 0.35308 0.43153 0.06776 0.0
Cd344 Cd 0.34691 0.40826 0.05152 0.0
O345 O 0.33976 0.37461 0.04475 0.0
C346 C 0.3273 0.36338 0.05235 0.0
O347 O 0.31909 0.37301 0.06298 0.0
C348 C 0.33715 0.43962 0.0744 0.0
C349 C 0.30647 0.44923 0.02819 0.0
O350 O 0.28999 0.44804 0.03614 0.0
O351 O 0.32293 0.43633 0.03027 0.0
C352 C 0.32667 0.10744 0.22034 0.0
C353 C 0.34138 0.08963 0.2213 0.0
C354 C 0.30793 0.10869 0.22851 0.0
C355 C 0.3042 0.09205 0.23816 0.0
C356 C 0.31931 0.07428 0.23939 0.0
C357 C 0.33756 0.07309 0.23079 0.0
C358 C 0.29193 0.1276 0.22664 0.0
C359 C 0.31623 0.05659 0.24982 0.0
C360 C 0.26494 0.10868 0.26587 0.0
C361 C 0.24526 0.09844 0.26184 0.0
C362 C 0.28453 0.1059 0.25859 0.0
C363 C 0.28423 0.09317 0.24677 0.0
C364 C 0.26446 0.08253 0.24277 0.0
C365 C 0.24528 0.08503 0.25047 0.0
C366 C 0.30543 0.11697 0.2634 0.0
C367 C 0.26329 0.06928 0.23005 0.0
H368 H 0.32949 0.12015 0.21293 0.0
H369 H 0.34901 0.05938 0.23162 0.0
H370 H 0.27521 0.12105 0.22436 0.0
H371 H 0.29063 0.13733 0.23595 0.0
H372 H 0.29698 0.13889 0.21847 0.0
H373 H 0.33002 0.04447 0.2499 0.0
H374 H 0.315 0.06426 0.25982 0.0
H375 H 0.30056 0.04757 0.24801 0.0
H376 H 0.26499 0.11893 0.27472 0.0
H377 H 0.23005 0.07723 0.24726 0.0
H378 H 0.31031 0.13016 0.25633 0.0
H379 H 0.31918 0.10484 0.26378 0.0
H380 H 0.30342 0.12446 0.27341 0.0
H381 H 0.26683 0.08021 0.22144 0.0
H382 H 0.24683 0.06154 0.22854 0.0
H383 H 0.27601 0.05609 0.23009 0.0
C384 C 0.11644 0.05635 0.46151 0.0
C385 C 0.12634 0.0772 0.46271 0.0
C386 C 0.12199 0.03906 0.47021 0.0
C387 C 0.13743 0.04288 0.48056 0.0
C388 C 0.14723 0.06401 0.48195 0.0
C389 C 0.14177 0.08085 0.4729 0.0
C390 C 0.11151 0.01664 0.46823 0.0
C391 C 0.16338 0.06885 0.49304 0.0
C392 C 0.13526 0.00229 0.50941 0.0
C393 C 0.15309 0.9883 0.50652 0.0
C394 C 0.13042 0.02058 0.5013 0.0
C395 C 0.14341 0.02463 0.48985 0.0
C396 C 0.16161 0.01071 0.48698 0.0
C397 C 0.16638 0.99287 0.49544 0.0
C398 C 0.1112 0.03535 0.50486 0.0
C399 C 0.17559 0.01422 0.47474 0.0
H400 H 0.10461 0.05341 0.45359 0.0
H401 H 0.14936 0.097 0.47392 0.0
H402 H 0.12453 0.00396 0.46677 0.0
H403 H 0.10205 0.0119 0.47723 0.0
H404 H 0.10017 0.01627 0.45953 0.0
H405 H 0.16903 0.08633 0.49298 0.0
H406 H 0.15562 0.06528 0.50279 0.0
H407 H 0.17804 0.05795 0.49214 0.0
H408 H 0.12501 0.99891 0.518 0.0
H409 H 0.1801 0.98201 0.49311 0.0
H410 H 0.09824 0.03415 0.49708 0.0
H411 H 0.11665 0.05285 0.50525 0.0
H412 H 0.10376 0.03089 0.51459 0.0
H413 H 0.16517 0.01255 0.4657 0.0
H414 H 0.18943 0.0022 0.47408 0.0
H415 H 0.18254 0.03118 0.4747 0.0
C416 C 0.214 0.87863 0.72752 0.0
C417 C 0.21678 0.89423 0.71734 0.0
C418 C 0.22896 0.87741 0.73821 0.0
C419 C 0.24747 0.89175 0.73854 0.0
C420 C 0.25069 0.90709 0.72807 0.0
C421 C 0.23514 0.90835 0.7177 0.0
C422 C 0.22465 0.86118 0.74931 0.0
C423 C 0.27048 0.92228 0.72787 0.0
C424 C 0.27526 0.90519 0.77154 0.0
C425 C 0.29323 0.89056 0.77154 0.0
C426 C 0.26002 0.90543 0.76099 0.0
C427 C 0.26314 0.89111 0.74999 0.0
C428 C 0.28135 0.87639 0.74992 0.0
C429 C 0.29601 0.87608 0.76078 0.0
C430 C 0.24053 0.92099 0.76161 0.0
C431 C 0.28556 0.86124 0.73826 0.0
H432 H 0.19974 0.8678 0.72735 0.0
H433 H 0.23743 0.92035 0.70981 0.0
H434 H 0.23894 0.84987 0.7505 0.0
H435 H 0.22268 0.87022 0.75885 0.0
H436 H 0.20958 0.85112 0.74754 0.0
H437 H 0.27127 0.93233 0.71864 0.0
H438 H 0.26987 0.93364 0.73652 0.0
H439 H 0.28593 0.9125 0.72875 0.0
H440 H 0.27297 0.91631 0.77988 0.0
H441 H 0.30998 0.86486 0.76069 0.0
H442 H 0.2249 0.91158 0.76049 0.0
H443 H 0.24133 0.93297 0.75328 0.0
H444 H 0.23994 0.93036 0.77111 0.0
H445 H 0.27121 0.85012 0.73671 0.0
H446 H 0.30059 0.85095 0.73967 0.0
H447 H 0.28753 0.87115 0.72905 0.0
C448 C 0.28434 0.06028 0.01763 0.0
C449 C 0.30381 0.07231 0.01545 0.0
C450 C 0.27898 0.0419 0.00973 0.0
C451 C 0.29325 0.0356 0.99925 0.0
C452 C 0.31278 0.04786 0.99687 0.0
C453 C 0.31792 0.06596 0.00507 0.0
C454 C 0.25815 0.02907 0.01271 0.0
C455 C 0.32823 0.04186 0.98566 0.0
C456 C 0.28963 0.97633 0.98683 0.0
C457 C 0.27564 0.97852 0.97577 0.0
C458 C 0.29565 0.99479 0.99449 0.0
C459 C 0.28779 0.01602 0.99088 0.0
C460 C 0.27415 0.01841 0.97951 0.0
C461 C 0.26809 0.99961 0.97216 0.0
C462 C 0.30998 0.99151 0.00664 0.0
C463 C 0.26574 0.04081 0.97521 0.0
H464 H 0.27341 0.06501 0.02567 0.0
H465 H 0.33294 0.07525 0.00328 0.0
H466 H 0.24714 0.02907 0.00388 0.0
H467 H 0.26233 0.01159 0.01492 0.0
H468 H 0.24892 0.03601 0.02129 0.0
H469 H 0.34243 0.05343 0.9849 0.0
H470 H 0.33472 0.02488 0.98715 0.0
H471 H 0.31914 0.04193 0.97607 0.0
H472 H 0.29545 0.96007 0.98972 0.0
H473 H 0.25738 0.00145 0.96358 0.0
H474 H 0.3009 0.9969 0.01566 0.0
H475 H 0.32506 0.00187 0.00592 0.0
H476 H 0.31505 0.974 0.00796 0.0
H477 H 0.25488 0.0478 0.98303 0.0
H478 H 0.25626 0.04001 0.96575 0.0
H479 H 0.27977 0.05241 0.97391 0.0
C480 C 0.69698 0.98399 0.7658 0.0
C481 C 0.70438 0.9918 0.77816 0.0
C482 C 0.71119 0.97225 0.75731 0.0
C483 C 0.73312 0.96778 0.76144 0.0
C484 C 0.74052 0.97526 0.77403 0.0
C485 C 0.72614 0.98741 0.78217 0.0
C486 C 0.70285 0.96497 0.74384 0.0
C487 C 0.76363 0.97041 0.77891 0.0
C488 C 0.76476 0.92089 0.74501 0.0
C489 C 0.77944 0.93248 0.73679 0.0
C490 C 0.74946 0.93215 0.75302 0.0
C491 C 0.7485 0.95553 0.75255 0.0
C492 C 0.76279 0.96727 0.74394 0.0
C493 C 0.77828 0.95561 0.73628 0.0
C494 C 0.73481 0.91908 0.76227 0.0
C495 C 0.76192 0.99216 0.74294 0.0
H496 H 0.6802 0.98747 0.76263 0.0
H497 H 0.73187 0.99328 0.79176 0.0
H498 H 0.71325 0.97231 0.73591 0.0
H499 H 0.70415 0.94675 0.7429 0.0
H500 H 0.68539 0.96988 0.7421 0.0
H501 H 0.76651 0.97661 0.78917 0.0
H502 H 0.7667 0.95232 0.77876 0.0
H503 H 0.77591 0.97818 0.7722 0.0
H504 H 0.76569 0.90301 0.74549 0.0
H505 H 0.7895 0.96463 0.72987 0.0
H506 H 0.71719 0.9229 0.76028 0.0
H507 H 0.73827 0.92387 0.77273 0.0
H508 H 0.73731 0.90096 0.76126 0.0
H509 H 0.74482 0.99764 0.74069 0.0
H510 H 0.77314 0.99867 0.73513 0.0
H511 H 0.76666 0.99963 0.75261 0.0
C512 C 0.83093 0.9907 0.5251 0.0
C513 C 0.84051 0.9991 0.53676 0.0
C514 C 0.82028 0.00473 0.51599 0.0
C515 C 0.81879 0.02764 0.51875 0.0
C516 C 0.82766 0.03607 0.53076 0.0
C517 C 0.83863 0.02174 0.53956 0.0
C518 C 0.81136 0.99516 0.50319 0.0
C519 C 0.826 0.06032 0.53419 0.0
C520 C 0.8135 0.06768 0.48981 0.0
C521 C 0.79071 0.07184 0.48959 0.0
C522 C 0.82279 0.05319 0.49918 0.0
C523 C 0.80901 0.04295 0.50874 0.0
C524 C 0.78601 0.04729 0.50867 0.0
C525 C 0.77709 0.06151 0.499 0.0
C526 C 0.84733 0.04869 0.49876 0.0
C527 C 0.77087 0.03701 0.51887 0.0
H528 H 0.83244 0.97324 0.52284 0.0
H529 H 0.84587 0.0283 0.5486 0.0
H530 H 0.79365 0.99942 0.502 0.0
H531 H 0.8203 0.00244 0.49461 0.0
H532 H 0.81312 0.97689 0.50276 0.0
H533 H 0.83217 0.06393 0.54437 0.0
H534 H 0.83576 0.07018 0.52699 0.0
H535 H 0.80859 0.06593 0.53343 0.0
H536 H 0.82409 0.07551 0.48251 0.0
H537 H 0.75948 0.06477 0.49892 0.0
H538 H 0.85032 0.0307 0.49754 0.0
H539 H 0.8551 0.05376 0.50828 0.0
H540 H 0.85565 0.0576 0.49051 0.0
H541 H 0.77148 0.01873 0.51808 0.0
H542 H 0.75346 0.04246 0.51765 0.0
H543 H 0.77651 0.04144 0.52903 0.0
C544 C 0.7929 0.03316 0.27167 0.0
C545 C 0.7902 0.01853 0.28238 0.0
C546 C 0.77793 0.03327 0.26097 0.0
C547 C 0.7596 0.01872 0.2611 0.0
C548 C 0.7566 0.0042 0.272 0.0
C549 C 0.77205 0.00413 0.28243 0.0
C550 C 0.78191 0.04873 0.24943 0.0
C551 C 0.73706 0.98871 0.27263 0.0
C552 C 0.70996 0.0318 0.23919 0.0
C553 C 0.71265 0.01665 0.22875 0.0
C554 C 0.72514 0.03271 0.24976 0.0
C555 C 0.74369 0.01843 0.24977 0.0
C556 C 0.74675 0.00346 0.2391 0.0
C557 C 0.73109 0.0026 0.22879 0.0
C558 C 0.72109 0.04864 0.26107 0.0
C559 C 0.76652 0.98824 0.23861 0.0
H560 H 0.80697 0.04425 0.27153 0.0
H561 H 0.76979 0.99289 0.29071 0.0
H562 H 0.78369 0.03907 0.24011 0.0
H563 H 0.76754 0.05989 0.2481 0.0
H564 H 0.79698 0.05897 0.25082 0.0
H565 H 0.73668 0.97902 0.28201 0.0
H566 H 0.72144 0.99823 0.27179 0.0
H567 H 0.73757 0.97702 0.26413 0.0
H568 H 0.69568 0.04262 0.23926 0.0
H569 H 0.73334 0.99095 0.22071 0.0
H570 H 0.73543 0.0599 0.26224 0.0
H571 H 0.71932 0.03936 0.27052 0.0
H572 H 0.70599 0.05877 0.25951 0.0
H573 H 0.782 0.99799 0.23938 0.0
H574 H 0.76704 0.97832 0.22932 0.0
H575 H 0.76615 0.97676 0.24721 0.0
C576 C 0.70238 0.04452 0.00987 0.0
C577 C 0.71865 0.0408 0.01956 0.0
C578 C 0.69745 0.02839 1.00025 0.0
C579 C 0.70872 0.00786 1.00053 0.0
C580 C 0.72484 0.00386 0.01047 0.0
C581 C 0.72979 0.02047 0.01977 0.0
C582 C 0.68048 0.03345 0.98966 0.0
C583 C 0.73689 0.98204 0.01127 0.0
C584 C 0.68272 0.95893 0.98257 0.0
C585 C 0.69562 0.95769 0.97102 0.0
C586 C 0.68685 0.9751 0.9923 0.0
C587 C 0.70397 0.9907 0.99028 0.0
C588 C 0.71679 0.98975 0.97852 0.0
C589 C 0.71263 0.9731 0.96911 0.0
C590 C 0.67312 0.9753 0.00482 0.0
C591 C 0.7349 0.00635 0.97587 0.0
H592 H 0.69381 0.06025 0.00962 0.0
H593 H 0.74226 0.01745 0.0273 0.0
H594 H 0.68818 0.03225 0.97968 0.0
H595 H 0.66694 0.02111 0.99001 0.0
H596 H 0.67323 0.05021 0.9908 0.0
H597 H 0.74826 0.9812 0.01995 0.0
H598 H 0.72483 0.96828 0.01201 0.0
H599 H 0.74664 0.97936 0.00208 0.0
H600 H 0.66963 0.94698 0.98413 0.0
H601 H 0.72255 0.97233 0.96015 0.0
H602 H 0.66454 0.99141 0.00585 0.0
H603 H 0.68399 0.97335 0.01364 0.0
H604 H 0.66055 0.96191 0.00493 0.0
H605 H 0.7281 0.02337 0.97628 0.0
H606 H 0.7428 0.00383 0.96602 0.0
H607 H 0.74781 0.00512 0.98367 0.0
C608 C 0.68301 0.58108 0.77037 0.0
C609 C 0.67183 0.59716 0.77784 0.0
C610 C 0.69835 0.58714 0.76054 0.0
C611 C 0.70283 0.60981 0.75828 0.0
C612 C 0.6916 0.62609 0.7658 0.0
C613 C 0.67614 0.61958 0.77542 0.0
C614 C 0.70977 0.56932 0.7526 0.0
C615 C 0.6961 0.65043 0.76378 0.0
C616 C 0.7571 0.62708 0.74243 0.0
C617 C 0.75035 0.63276 0.72953 0.0
C618 C 0.74188 0.61917 0.75182 0.0
C619 C 0.71942 0.6166 0.74816 0.0
C620 C 0.71266 0.62155 0.735 0.0
C621 C 0.72818 0.62972 0.72587 0.0
C622 C 0.74969 0.61429 0.76579 0.0
C623 C 0.68893 0.6187 0.73066 0.0
H624 H 0.67969 0.56372 0.77214 0.0
H625 H 0.66765 0.6321 0.78118 0.0
H626 H 0.70675 0.5719 0.74182 0.0
H627 H 0.72789 0.57024 0.7542 0.0
H628 H 0.70404 0.55248 0.75534 0.0
H629 H 0.68607 0.661 0.7705 0.0
H630 H 0.71385 0.65395 0.7656 0.0
H631 H 0.69246 0.65515 0.75335 0.0
H632 H 0.77419 0.62944 0.74535 0.0
H633 H 0.72287 0.63396 0.71589 0.0
H634 H 0.7452 0.59716 0.76863 0.0
H635 H 0.74135 0.62557 0.77289 0.0
H636 H 0.76785 0.61631 0.7669 0.0
H637 H 0.68317 0.60171 0.73296 0.0
H638 H 0.68667 0.62179 0.71985 0.0
H639 H 0.67822 0.63032 0.73625 0.0
C640 C 0.69651 0.55265 0.99611 0.0
C641 C 0.68045 0.5554 0.98619 0.0
C642 C 0.69836 0.53262 0.00311 0.0
C643 C 0.68431 0.51472 0.99977 0.0
C644 C 0.66828 0.51735 0.98962 0.0
C645 C 0.6663 0.53778 0.9831 0.0
C646 C 0.71521 0.53069 0.01414 0.0
C647 C 0.65341 0.49848 0.9855 0.0
C648 C 0.70338 0.45691 0.00931 0.0
C649 C 0.68975 0.45226 0.02021 0.0
C650 C 0.7016 0.47707 0.00245 0.0
C651 C 0.68634 0.49322 0.0069 0.0
C652 C 0.67284 0.48874 0.01807 0.0
C653 C 0.67445 0.46816 0.02445 0.0
C654 C 0.71582 0.48096 0.99035 0.0
C655 C 0.65683 0.50575 0.02335 0.0
H656 H 0.70738 0.56631 0.99856 0.0
H657 H 0.65402 0.5398 0.97533 0.0
H658 H 0.70692 0.52581 0.02353 0.0
H659 H 0.72735 0.51756 0.01173 0.0
H660 H 0.72428 0.5464 0.01584 0.0
H661 H 0.64232 0.50302 0.97712 0.0
H662 H 0.66356 0.48405 0.98248 0.0
H663 H 0.6431 0.49318 0.99403 0.0
H664 H 0.71513 0.44457 0.00597 0.0
H665 H 0.66404 0.46467 0.03296 0.0
H666 H 0.7266 0.49555 0.99196 0.0
H667 H 0.7052 0.48462 0.98161 0.0
H668 H 0.72641 0.46649 0.98798 0.0
H669 H 0.66573 0.52134 0.02564 0.0
H670 H 0.64823 0.50003 0.03247 0.0
H671 H 0.64422 0.50966 0.01568 0.0
C672 C 0.79771 0.43019 0.27259 0.0
C673 C 0.7953 0.41621 0.28361 0.0
C674 C 0.78281 0.42924 0.26188 0.0
C675 C 0.7647 0.41443 0.26239 0.0
C676 C 0.76191 0.40066 0.27366 0.0
C677 C 0.77744 0.40148 0.28404 0.0
C678 C 0.78669 0.44376 0.24989 0.0
C679 C 0.74251 0.38508 0.27476 0.0
C680 C 0.71543 0.4256 0.23981 0.0
C681 C 0.71824 0.40947 0.22994 0.0
C682 C 0.73034 0.42733 0.25048 0.0
C683 C 0.74886 0.41302 0.25106 0.0
C684 C 0.75205 0.39708 0.24093 0.0
C685 C 0.73651 0.39527 0.2306 0.0
C686 C 0.72604 0.44413 0.26128 0.0
C687 C 0.77189 0.38193 0.24099 0.0
H688 H 0.81161 0.44148 0.27219 0.0
H689 H 0.77545 0.39076 0.2926 0.0
H690 H 0.78854 0.43334 0.24087 0.0
H691 H 0.77224 0.45469 0.24822 0.0
H692 H 0.80168 0.4542 0.25098 0.0
H693 H 0.7421 0.37634 0.28448 0.0
H694 H 0.72681 0.39434 0.2735 0.0
H695 H 0.74324 0.37255 0.26672 0.0
H696 H 0.70122 0.43649 0.23937 0.0
H697 H 0.73881 0.38289 0.22293 0.0
H698 H 0.74018 0.45571 0.26209 0.0
H699 H 0.72444 0.43564 0.27102 0.0
H700 H 0.71077 0.45386 0.25942 0.0
H701 H 0.78731 0.39181 0.24152 0.0
H702 H 0.77256 0.37126 0.23201 0.0
H703 H 0.77148 0.37117 0.24992 0.0
C704 C 0.81512 0.44504 0.50866 0.0
C705 C 0.82908 0.43298 0.50021 0.0
C706 C 0.82379 0.45846 0.51881 0.0
C707 C 0.84698 0.46007 0.52044 0.0
C708 C 0.86115 0.44812 0.51185 0.0
C709 C 0.85203 0.43463 0.5019 0.0
C710 C 0.80815 0.47077 0.52786 0.0
C711 C 0.88597 0.44959 0.51318 0.0
C712 C 0.87155 0.50932 0.53872 0.0
C713 C 0.87707 0.49999 0.55106 0.0
C714 C 0.86145 0.49661 0.52873 0.0
C715 C 0.85651 0.4741 0.53119 0.0
C716 C 0.86144 0.46477 0.54376 0.0
C717 C 0.87178 0.47779 0.55352 0.0
C718 C 0.85663 0.5071 0.51541 0.0
C719 C 0.85617 0.44091 0.54683 0.0
H720 H 0.79736 0.44379 0.50745 0.0
H721 H 0.86293 0.42545 0.49538 0.0
H722 H 0.81094 0.46565 0.53832 0.0
H723 H 0.8114 0.48879 0.52729 0.0
H724 H 0.79055 0.46775 0.52528 0.0
H725 H 0.89469 0.43963 0.50553 0.0
H726 H 0.89136 0.46705 0.51228 0.0
H727 H 0.89115 0.4437 0.52316 0.0
H728 H 0.87565 0.52644 0.53673 0.0
H729 H 0.87589 0.47049 0.56305 0.0
H730 H 0.83889 0.50515 0.51287 0.0
H731 H 0.86627 0.49862 0.50754 0.0
H732 H 0.8608 0.52499 0.51523 0.0
H733 H 0.83844 0.43754 0.54488 0.0
H734 H 0.85993 0.43651 0.55732 0.0
H735 H 0.86588 0.42992 0.54021 0.0
C736 C 0.30864 0.48012 0.21972 0.0
C737 C 0.30616 0.50297 0.21794 0.0
C738 C 0.29523 0.4685 0.2287 0.0
C739 C 0.27936 0.48011 0.23632 0.0
C740 C 0.27691 0.50322 0.23464 0.0
C741 C 0.29016 0.51434 0.22534 0.0
C742 C 0.298 0.44377 0.22998 0.0
C743 C 0.26052 0.51624 0.24281 0.0
C744 C 0.23213 0.44719 0.25137 0.0
C745 C 0.24023 0.44278 0.26417 0.0
C746 C 0.24461 0.45947 0.24222 0.0
C747 C 0.26544 0.468 0.2461 0.0
C748 C 0.27333 0.46427 0.25917 0.0
C749 C 0.26076 0.45145 0.268 0.0
C750 C 0.23584 0.4627 0.22829 0.0
C751 C 0.29522 0.47353 0.26377 0.0
H752 H 0.32088 0.47125 0.21395 0.0
H753 H 0.28831 0.53204 0.22405 0.0
H754 H 0.30309 0.4395 0.24027 0.0
H755 H 0.28201 0.43539 0.22805 0.0
H756 H 0.31053 0.43712 0.22298 0.0
H757 H 0.26087 0.53418 0.24044 0.0
H758 H 0.24355 0.50994 0.24105 0.0
H759 H 0.26414 0.51408 0.25355 0.0
H760 H 0.21633 0.44037 0.24833 0.0
H761 H 0.26701 0.44819 0.27792 0.0
H762 H 0.24727 0.45496 0.22103 0.0
H763 H 0.23498 0.48057 0.22587 0.0
H764 H 0.21915 0.45538 0.22694 0.0
H765 H 0.30885 0.46595 0.258 0.0
H766 H 0.29826 0.47044 0.27451 0.0
H767 H 0.29581 0.49162 0.26196 0.0
C768 C 0.28692 0.52016 0.96233 0.0
C769 C 0.30138 0.53818 0.96124 0.0
C770 C 0.28827 0.50551 0.97313 0.0
C771 C 0.30412 0.50925 0.98326 0.0
C772 C 0.31868 0.52751 0.98226 0.0
C773 C 0.31731 0.54161 0.97118 0.0
C774 C 0.27275 0.48597 0.97368 0.0
C775 C 0.3355 0.53232 0.99299 0.0
C776 C 0.29214 0.48319 0.0169 0.0
C777 C 0.30634 0.46487 0.01686 0.0
C778 C 0.29162 0.49803 0.00617 0.0
C779 C 0.30525 0.49418 0.99497 0.0
C780 C 0.31961 0.47568 0.99486 0.0
C781 C 0.32016 0.46139 0.00587 0.0
C782 C 0.27644 0.51782 0.0068 0.0
C783 C 0.33407 0.47074 0.983 0.0
H784 H 0.27469 0.51734 0.95462 0.0
H785 H 0.32844 0.55559 0.97043 0.0
H786 H 0.28236 0.4704 0.9745 0.0
H787 H 0.26215 0.48714 0.98264 0.0
H788 H 0.26193 0.48494 0.96477 0.0
H789 H 0.34545 0.54731 0.99079 0.0
H790 H 0.32702 0.53471 0.00266 0.0
H791 H 0.34687 0.51807 0.99415 0.0
H792 H 0.28154 0.48605 0.02541 0.0
H793 H 0.33108 0.44718 0.00575 0.0
H794 H 0.26396 0.51683 0.99873 0.0
H795 H 0.28602 0.53324 0.00523 0.0
H796 H 0.26767 0.51902 0.01647 0.0
H797 H 0.32364 0.46841 0.97401 0.0
H798 H 0.34429 0.45568 0.98447 0.0
H799 H 0.34521 0.48491 0.981 0.0
C800 C 0.179 0.46244 0.72145 0.0
C801 C 0.16736 0.48249 0.72149 0.0
C802 C 0.19583 0.45831 0.73075 0.0
C803 C 0.20098 0.47452 0.74043 0.0
C804 C 0.18915 0.49472 0.74061 0.0
C805 C 0.17257 0.49852 0.73109 0.0
C806 C 0.20822 0.43666 0.73014 0.0
C807 C 0.19401 0.51229 0.75088 0.0
C808 C 0.23126 0.45406 0.7712 0.0
C809 C 0.25318 0.45985 0.76832 0.0
C810 C 0.21402 0.45927 0.76238 0.0
C811 C 0.21885 0.47028 0.7503 0.0
C812 C 0.24089 0.47648 0.74743 0.0
C813 C 0.25778 0.4713 0.75651 0.0
C814 C 0.19068 0.45265 0.76587 0.0
C815 C 0.24673 0.48808 0.73461 0.0
H816 H 0.17515 0.45001 0.71404 0.0
H817 H 0.16359 0.51403 0.73121 0.0
H818 H 0.22612 0.43983 0.72872 0.0
H819 H 0.20635 0.42761 0.73967 0.0
H820 H 0.20231 0.42587 0.72193 0.0
H821 H 0.18306 0.52692 0.74982 0.0
H822 H 0.19195 0.50538 0.76102 0.0
H823 H 0.21143 0.51781 0.74999 0.0
H824 H 0.22756 0.44532 0.78034 0.0
H825 H 0.27468 0.4758 0.7542 0.0
H826 H 0.18447 0.44042 0.75854 0.0
H827 H 0.1796 0.46724 0.76538 0.0
H828 H 0.18952 0.44528 0.77597 0.0
H829 H 0.24255 0.47731 0.72603 0.0
H830 H 0.26456 0.49237 0.73405 0.0
H831 H 0.2369 0.50345 0.73356 0.0
C832 C 0.18405 0.44534 0.48164 0.0
C833 C 0.17154 0.45101 0.47041 0.0
C834 C 0.18993 0.46136 0.49112 0.0
C835 C 0.18373 0.48369 0.48908 0.0
C836 C 0.17167 0.4896 0.47753 0.0
C837 C 0.1654 0.47312 0.46844 0.0
C838 C 0.20225 0.45429 0.50348 0.0
C839 C 0.16532 0.51331 0.4748 0.0
C840 C 0.17927 0.5223 0.51879 0.0
C841 C 0.19987 0.53287 0.5186 0.0
C842 C 0.17394 0.50604 0.50935 0.0
C843 C 0.18931 0.50076 0.49923 0.0
C844 C 0.20999 0.51171 0.49885 0.0
C845 C 0.21517 0.52739 0.50869 0.0
C846 C 0.15197 0.49431 0.51031 0.0
C847 C 0.22656 0.507 0.488 0.0
H848 H 0.18866 0.42822 0.48323 0.0
H849 H 0.15587 0.47756 0.4597 0.0
H850 H 0.21812 0.46335 0.50426 0.0
H851 H 0.1924 0.45849 0.51244 0.0
H852 H 0.20576 0.43626 0.50359 0.0
H853 H 0.15722 0.51535 0.46496 0.0
H854 H 0.15383 0.51927 0.4826 0.0
H855 H 0.1802 0.52402 0.47516 0.0
H856 H 0.16748 0.52638 0.52652 0.0
H857 H 0.23105 0.53568 0.50848 0.0
H858 H 0.15464 0.47621 0.51109 0.0
H859 H 0.14211 0.49729 0.50118 0.0
H860 H 0.14217 0.49985 0.51904 0.0
H861 H 0.2317 0.48942 0.48838 0.0
H862 H 0.24154 0.51753 0.48884 0.0
H863 H 0.21887 0.50984 0.47812 0.0
C864 C 0.16096 0.10059 0.38927 0.0
C865 C 0.14082 0.10953 0.39358 0.0
C866 C 0.16467 0.09611 0.37575 0.0
C867 C 0.14809 0.10129 0.36629 0.0
C868 C 0.1275 0.1097 0.37064 0.0
C869 C 0.12402 0.11344 0.38425 0.0
C870 C 0.18662 0.08654 0.37154 0.0
C871 C 0.10956 0.1159 0.36086 0.0
C872 C 0.16688 0.11682 0.33152 0.0
C873 C 0.16055 0.09825 0.32412 0.0
C874 C 0.1629 0.11797 0.34524 0.0
C875 C 0.15292 0.09982 0.35179 0.0
C876 C 0.14708 0.08072 0.34442 0.0
C877 C 0.15074 0.08027 0.33061 0.0
C878 C 0.16893 0.13885 0.35266 0.0
C879 C 0.13698 0.06082 0.35112 0.0
H880 H 0.17393 0.09737 0.39646 0.0
H881 H 0.10846 0.12048 0.38751 0.0
H882 H 0.18406 0.07235 0.36471 0.0
H883 H 0.1962 0.09921 0.36604 0.0
H884 H 0.19662 0.08092 0.38017 0.0
H885 H 0.09406 0.12104 0.36589 0.0
H886 H 0.11535 0.12975 0.35452 0.0
H887 H 0.10582 0.1018 0.35418 0.0
H888 H 0.17439 0.13078 0.32649 0.0
H889 H 0.14623 0.06573 0.32493 0.0
H890 H 0.18088 0.13503 0.36071 0.0
H891 H 0.15398 0.14594 0.35741 0.0
H892 H 0.17631 0.15157 0.34605 0.0
H893 H 0.1478 0.05514 0.35936 0.0
H894 H 0.1344 0.04687 0.3441 0.0
H895 H 0.12082 0.06532 0.35554 0.0
C896 C 0.16817 0.92296 0.58027 0.0
C897 C 0.18397 0.91324 0.57196 0.0
C898 C 0.17012 0.9217 0.59416 0.0
C899 C 0.18867 0.911 0.59988 0.0
C900 C 0.20493 0.90152 0.59151 0.0
C901 C 0.20224 0.90253 0.57763 0.0
C902 C 0.15215 0.93162 0.6027 0.0
C903 C 0.22523 0.89055 0.59723 0.0
C904 C 0.19787 0.92864 0.63565 0.0
C905 C 0.18766 0.91138 0.64264 0.0
C906 C 0.19983 0.92794 0.62174 0.0
C907 C 0.19079 0.90986 0.61463 0.0
C908 C 0.18154 0.89184 0.6217 0.0
C909 C 0.18035 0.8927 0.63564 0.0
C910 C 0.21044 0.94717 0.61463 0.0
C911 C 0.17134 0.87244 0.6145 0.0
H912 H 0.15398 0.93116 0.5759 0.0
H913 H 0.21467 0.89534 0.57119 0.0
H914 H 0.1453 0.91884 0.60945 0.0
H915 H 0.15911 0.94495 0.60901 0.0
H916 H 0.13842 0.93863 0.59668 0.0
H917 H 0.23646 0.88422 0.58938 0.0
H918 H 0.23445 0.9025 0.60351 0.0
H919 H 0.22037 0.87657 0.60374 0.0
H920 H 0.20368 0.94305 0.64104 0.0
H921 H 0.17229 0.87939 0.64098 0.0
H922 H 0.19751 0.95708 0.60955 0.0
H923 H 0.22203 0.94118 0.60688 0.0
H924 H 0.21957 0.95817 0.62157 0.0
H925 H 0.15616 0.87796 0.60926 0.0
H926 H 0.16686 0.85882 0.6214 0.0
H927 H 0.18282 0.86589 0.60687 0.0
C928 C 0.29295 0.90789 0.90855 0.0
C929 C 0.27654 0.89407 0.91373 0.0
C930 C 0.29902 0.90664 0.8951 0.0
C931 C 0.28788 0.89169 0.88656 0.0
C932 C 0.2714 0.87755 0.89179 0.0
C933 C 0.26608 0.87875 0.90537 0.0
C934 C 0.31707 0.92163 0.89 0.0
C935 C 0.25876 0.86181 0.88295 0.0
C936 C 0.28931 0.9093 0.85035 0.0
C937 C 0.30607 0.89578 0.84524 0.0
C938 C 0.28234 0.90724 0.8636 0.0
C939 C 0.29287 0.89174 0.87205 0.0
C940 C 0.3093 0.87752 0.86683 0.0
C941 C 0.3155 0.87951 0.85342 0.0
C942 C 0.26431 0.92228 0.86868 0.0
C943 C 0.32124 0.8611 0.87557 0.0
H944 H 0.30103 0.91973 0.91503 0.0
H945 H 0.25304 0.86839 0.90932 0.0
H946 H 0.32975 0.91181 0.88466 0.0
H947 H 0.31004 0.93363 0.88279 0.0
H948 H 0.32527 0.931 0.89812 0.0
H949 H 0.24729 0.8511 0.88868 0.0
H950 H 0.24902 0.87136 0.87556 0.0
H951 H 0.27033 0.85113 0.87731 0.0
H952 H 0.28191 0.92182 0.84403 0.0
H953 H 0.32863 0.86917 0.84954 0.0
H954 H 0.27139 0.93433 0.87582 0.0
H955 H 0.25161 0.91256 0.87407 0.0
H956 H 0.25612 0.9316 0.86052 0.0
H957 H 0.3313 0.87013 0.88305 0.0
H958 H 0.33235 0.8501 0.86979 0.0
H959 H 0.30926 0.85074 0.88111 0.0
C960 C 0.31145 0.10979 0.09747 0.0
C961 C 0.32542 0.10735 0.08644 0.0
C962 C 0.3179 0.10243 0.11014 0.0
C963 C 0.33896 0.09263 0.11185 0.0
C964 C 0.3528 0.08935 0.10068 0.0
C965 C 0.34581 0.09663 0.08809 0.0
C966 C 0.30254 0.10593 0.12177 0.0
C967 C 0.37544 0.07913 0.10212 0.0
C968 C 0.36652 0.09923 0.14554 0.0
C969 C 0.36387 0.07815 0.15114 0.0
C970 C 0.35848 0.10409 0.13279 0.0
C971 C 0.34725 0.08755 0.12546 0.0
C972 C 0.34418 0.06633 0.1311 0.0
C973 C 0.35264 0.06183 0.14385 0.0
C974 C 0.36224 0.1269 0.12709 0.0
C975 C 0.33205 0.04837 0.12365 0.0
H976 H 0.29558 0.11788 0.09627 0.0
H977 H 0.35672 0.09468 0.07964 0.0
H978 H 0.3006 0.09036 0.12748 0.0
H979 H 0.3097 0.11841 0.12861 0.0
H980 H 0.28593 0.11173 0.11857 0.0
H981 H 0.3835 0.07625 0.09235 0.0
H982 H 0.38616 0.0902 0.10812 0.0
H983 H 0.37433 0.06315 0.10749 0.0
H984 H 0.37524 0.11194 0.15105 0.0
H985 H 0.35046 0.04552 0.14811 0.0
H986 H 0.34617 0.13475 0.12466 0.0
H987 H 0.37177 0.12566 0.1177 0.0
H988 H 0.37137 0.13786 0.13406 0.0
H989 H 0.31525 0.05415 0.12091 0.0
H990 H 0.33054 0.03293 0.12956 0.0
H991 H 0.34085 0.04452 0.11425 0.0
C992 C 0.85166 0.90657 0.60629 0.0
C993 C 0.86279 0.92568 0.60215 0.0
C994 C 0.84821 0.90226 0.61986 0.0
C995 C 0.85626 0.91735 0.6295 0.0
C996 C 0.86714 0.93687 0.62534 0.0
C997 C 0.87014 0.94086 0.61172 0.0
C998 C 0.83624 0.88142 0.62388 0.0
C999 C 0.87593 0.95339 0.63529 0.0
C1000 C 0.83329 0.91692 0.66467 0.0
C1001 C 0.85004 0.90584 0.67165 0.0
C1002 C 0.83492 0.9205 0.6509 0.0
C1003 C 0.85368 0.91267 0.64395 0.0
C1004 C 0.87035 0.90095 0.65089 0.0
C1005 C 0.86828 0.8976 0.66465 0.0
C1006 C 0.81672 0.93292 0.64383 0.0
C1007 C 0.89048 0.89211 0.6438 0.0
H1008 H 0.84533 0.89514 0.59892 0.0
H1009 H 0.87873 0.95569 0.60856 0.0
H1010 H 0.84821 0.86964 0.62832 0.0
H1011 H 0.82354 0.88501 0.63153 0.0
H1012 H 0.82807 0.87327 0.61528 0.0
H1013 H 0.88362 0.96797 0.63043 0.0
H1014 H 0.86238 0.95922 0.64183 0.0
H1015 H 0.88847 0.94537 0.64176 0.0
H1016 H 0.81906 0.92316 0.67002 0.0
H1017 H 0.8808 0.88822 0.66988 0.0
H1018 H 0.81015 0.92285 0.6355 0.0
H1019 H 0.82341 0.94839 0.63949 0.0
H1020 H 0.80286 0.93723 0.65059 0.0
H1021 H 0.88535 0.88068 0.63574 0.0
H1022 H 0.90186 0.88317 0.65062 0.0
H1023 H 0.89966 0.90592 0.6391 0.0
C1024 C 0.81165 0.08519 0.41391 0.0
C1025 C 0.79032 0.0892 0.41877 0.0
C1026 C 0.81496 0.07699 0.40103 0.0
C1027 C 0.7965 0.07301 0.39269 0.0
C1028 C 0.77488 0.0764 0.39765 0.0
C1029 C 0.77203 0.08431 0.41069 0.0
C1030 C 0.83828 0.07324 0.39619 0.0
C1031 C 0.75481 0.07256 0.38902 0.0
C1032 C 0.81032 0.07707 0.35601 0.0
C1033 C 0.81303 0.05478 0.35254 0.0
C1034 C 0.80374 0.08316 0.36887 0.0
C1035 C 0.80009 0.06658 0.37857 0.0
C1036 C 0.80183 0.04402 0.37496 0.0
C1037 C 0.80813 0.03838 0.36195 0.0
C1038 C 0.80169 0.10741 0.37225 0.0
C1039 C 0.79826 0.02587 0.38504 0.0
H1040 H 0.82585 0.08875 0.42014 0.0
H1041 H 0.7555 0.08746 0.41436 0.0
H1042 H 0.84001 0.05626 0.39216 0.0
H1043 H 0.84206 0.08492 0.388 0.0
H1044 H 0.85072 0.07559 0.40421 0.0
H1045 H 0.73914 0.07435 0.39466 0.0
H1046 H 0.75474 0.08461 0.3807 0.0
H1047 H 0.75536 0.05579 0.38456 0.0
H1048 H 0.81389 0.08983 0.34876 0.0
H1049 H 0.81024 0.02111 0.35936 0.0
H1050 H 0.81504 0.11218 0.37926 0.0
H1051 H 0.78571 0.11069 0.37726 0.0
H1052 H 0.80285 0.1181 0.36329 0.0
H1053 H 0.81174 0.02629 0.39253 0.0
H1054 H 0.79801 0.00922 0.38037 0.0
H1055 H 0.78249 0.02842 0.39043 0.0
C1056 C 0.68437 0.07383 0.09585 0.0
C1057 C 0.70557 0.07418 0.09023 0.0
C1058 C 0.68113 0.06741 0.10912 0.0
C1059 C 0.69958 0.06149 0.11704 0.0
C1060 C 0.72098 0.06141 0.11138 0.0
C1061 C 0.7237 0.06761 0.09801 0.0
C1062 C 0.658 0.06738 0.11473 0.0
C1063 C 0.74106 0.05542 0.11955 0.0
C1064 C 0.69105 0.06842 0.15423 0.0
C1065 C 0.68629 0.04671 0.15821 0.0
C1066 C 0.69626 0.07331 0.14095 0.0
C1067 C 0.69642 0.05613 0.13137 0.0
C1068 C 0.69235 0.03409 0.13541 0.0
C1069 C 0.68748 0.02962 0.14879 0.0
C1070 C 0.70089 0.09699 0.13708 0.0
C1071 C 0.69217 0.01535 0.12548 0.0
H1072 H 0.67026 0.07876 0.08989 0.0
H1073 H 0.74016 0.06794 0.09378 0.0
H1074 H 0.65417 0.05099 0.11911 0.0
H1075 H 0.65673 0.07977 0.12282 0.0
H1076 H 0.64533 0.07125 0.10707 0.0
H1077 H 0.75644 0.05531 0.11353 0.0
H1078 H 0.74309 0.06747 0.12778 0.0
H1079 H 0.73889 0.03888 0.12412 0.0
H1080 H 0.6903 0.0817 0.16145 0.0
H1081 H 0.68374 0.01281 0.15176 0.0
H1082 H 0.68762 0.10307 0.13039 0.0
H1083 H 0.71668 0.09807 0.13153 0.0
H1084 H 0.70183 0.1081 0.14586 0.0
H1085 H 0.67841 0.01777 0.11832 0.0
H1086 H 0.69012 0.99899 0.13033 0.0
H1087 H 0.70774 0.01523 0.11967 0.0
C1088 C 0.66604 0.93938 0.89434 0.0
C1089 C 0.64898 0.93798 0.90373 0.0
C1090 C 0.66257 0.94927 0.8819 0.0
C1091 C 0.64163 0.95841 0.87883 0.0
C1092 C 0.62435 0.9572 0.88828 0.0
C1093 C 0.62817 0.94681 0.90059 0.0
C1094 C 0.68136 0.94994 0.87203 0.0
C1095 C 0.60193 0.96709 0.88544 0.0
C1096 C 0.64388 0.00187 0.85169 0.0
C1097 C 0.63731 0.98975 0.84048 0.0
C1098 C 0.64415 0.99219 0.86437 0.0
C1099 C 0.63822 0.96968 0.86582 0.0
C1100 C 0.63092 0.95755 0.85458 0.0
C1101 C 0.63042 0.9678 0.84203 0.0
C1102 C 0.65164 0.00583 0.87612 0.0
C1103 C 0.62481 0.93342 0.85567 0.0
H1104 H 0.68211 0.93242 0.89664 0.0
H1105 H 0.61492 0.94583 0.90781 0.0
H1106 H 0.67619 0.94213 0.86254 0.0
H1107 H 0.68579 0.96734 0.8698 0.0
H1108 H 0.69635 0.9413 0.87576 0.0
H1109 H 0.5902 0.96466 0.8938 0.0
H1110 H 0.60362 0.98508 0.88353 0.0
H1111 H 0.59477 0.95958 0.87634 0.0
H1112 H 0.64914 0.01889 0.85051 0.0
H1113 H 0.62577 0.95826 0.83334 0.0
H1114 H 0.66784 0.99965 0.87973 0.0
H1115 H 0.63973 0.00422 0.88445 0.0
H1116 H 0.6534 0.02361 0.87358 0.0
H1117 H 0.63977 0.92362 0.85813 0.0
H1118 H 0.61762 0.92689 0.84628 0.0
H1119 H 0.61276 0.93087 0.86382 0.0
C1120 C 0.65794 0.597 0.85599 0.0
C1121 C 0.66169 0.57598 0.85054 0.0
C1122 C 0.66481 0.60213 0.86895 0.0
C1123 C 0.67603 0.58598 0.87659 0.0
C1124 C 0.68095 0.56515 0.87091 0.0
C1125 C 0.67356 0.56032 0.85797 0.0
C1126 C 0.65906 0.62449 0.87469 0.0
C1127 C 0.69328 0.54768 0.87866 0.0
C1128 C 0.70352 0.6077 0.908 0.0
C1129 C 0.68739 0.60306 0.91762 0.0
C1130 C 0.70057 0.60131 0.89467 0.0
C1131 C 0.68087 0.59038 0.89086 0.0
C1132 C 0.66489 0.585 0.90061 0.0
C1133 C 0.66843 0.59124 0.91387 0.0
C1134 C 0.71818 0.60692 0.8846 0.0
C1135 C 0.64355 0.57355 0.89694 0.0
H1136 H 0.64879 0.60921 0.85033 0.0
H1137 H 0.67668 0.5441 0.8538 0.0
H1138 H 0.64737 0.62238 0.88308 0.0
H1139 H 0.67408 0.63263 0.8787 0.0
H1140 H 0.65137 0.63561 0.86721 0.0
H1141 H 0.69806 0.53341 0.87232 0.0
H1142 H 0.7084 0.55478 0.88322 0.0
H1143 H 0.68273 0.54151 0.88687 0.0
H1144 H 0.7183 0.61668 0.91083 0.0
H1145 H 0.65586 0.58759 0.92122 0.0
H1146 H 0.71188 0.61975 0.87769 0.0
H1147 H 0.72234 0.59216 0.87856 0.0
H1148 H 0.73351 0.61321 0.88938 0.0
H1149 H 0.63379 0.58427 0.89016 0.0
H1150 H 0.63329 0.56965 0.90578 0.0
H1151 H 0.64704 0.55795 0.89153 0.0
C1152 C 0.73437 0.40289 0.09425 0.0
C1153 C 0.71511 0.40289 0.08645 0.0
C1154 C 0.73346 0.40718 0.10798 0.0
C1155 C 0.71275 0.41116 0.11407 0.0
C1156 C 0.69336 0.41179 0.10617 0.0
C1157 C 0.69481 0.40785 0.09247 0.0
C1158 C 0.75453 0.40686 0.11603 0.0
C1159 C 0.67091 0.41575 0.11229 0.0
C1160 C 0.70173 0.39659 0.15009 0.0
C1161 C 0.69957 0.41759 0.15587 0.0
C1162 C 0.70716 0.39423 0.13661 0.0
C1163 C 0.7109 0.4133 0.12877 0.0
C1164 C 0.71039 0.43446 0.13478 0.0
C1165 C 0.70453 0.43637 0.14825 0.0
C1166 C 0.70735 0.37137 0.13056 0.0
C1167 C 0.7148 0.45515 0.12683 0.0
H1168 H 0.75015 0.39922 0.08966 0.0
H1169 H 0.67982 0.40785 0.08654 0.0
H1170 H 0.75569 0.4219 0.12231 0.0
H1171 H 0.75448 0.3924 0.12281 0.0
H1172 H 0.76945 0.40588 0.10964 0.0
H1173 H 0.65753 0.41635 0.10472 0.0
H1174 H 0.6671 0.40236 0.11947 0.0
H1175 H 0.67088 0.43155 0.11789 0.0
H1176 H 0.69795 0.38198 0.1559 0.0
H1177 H 0.70311 0.45265 0.15267 0.0
H1178 H 0.72272 0.36871 0.12479 0.0
H1179 H 0.69326 0.3697 0.12354 0.0
H1180 H 0.706 0.35817 0.1382 0.0
H1181 H 0.72975 0.45307 0.12058 0.0
H1182 H 0.71708 0.46985 0.13331 0.0
H1183 H 0.70068 0.45836 0.12005 0.0
C1184 C 0.77731 0.43011 0.41882 0.0
C1185 C 0.79435 0.42147 0.42677 0.0
C1186 C 0.78107 0.43574 0.40544 0.0
C1187 C 0.80224 0.43226 0.39985 0.0
C1188 C 0.81969 0.42438 0.40797 0.0
C1189 C 0.81557 0.41928 0.42134 0.0
C1190 C 0.7622 0.4446 0.39718 0.0
C1191 C 0.84248 0.42026 0.40237 0.0
C1192 C 0.80941 0.4186 0.36332 0.0
C1193 C 0.81973 0.43778 0.35853 0.0
C1194 C 0.80268 0.41698 0.37663 0.0
C1195 C 0.80597 0.43512 0.38531 0.0
C1196 C 0.81493 0.45507 0.38031 0.0
C1197 C 0.8219 0.4561 0.367 0.0
C1198 C 0.79336 0.39534 0.38158 0.0
C1199 C 0.81819 0.47495 0.38918 0.0
H1200 H 0.76089 0.43201 0.42296 0.0
H1201 H 0.82885 0.41262 0.42737 0.0
H1202 H 0.76751 0.45944 0.39154 0.0
H1203 H 0.75703 0.43196 0.38982 0.0
H1204 H 0.74766 0.44901 0.40337 0.0
H1205 H 0.85446 0.415 0.41013 0.0
H1206 H 0.84161 0.40716 0.39465 0.0
H1207 H 0.84887 0.43542 0.39751 0.0
H1208 H 0.80765 0.40436 0.35686 0.0
H1209 H 0.82966 0.47106 0.36335 0.0
H1210 H 0.7776 0.39815 0.38693 0.0
H1211 H 0.80509 0.38775 0.38875 0.0
H1212 H 0.79034 0.3834 0.37338 0.0
H1213 H 0.80312 0.47813 0.39516 0.0
H1214 H 0.82222 0.49006 0.38339 0.0
H1215 H 0.83192 0.47171 0.39624 0.0
C1216 C 0.86882 0.5645 0.62097 0.0
C1217 C 0.87835 0.57931 0.6119 0.0
C1218 C 0.86007 0.57192 0.63311 0.0
C1219 C 0.86053 0.59476 0.63616 0.0
C1220 C 0.87005 0.6098 0.62703 0.0
C1221 C 0.8793 0.60182 0.61518 0.0
C1222 C 0.85064 0.5553 0.64276 0.0
C1223 C 0.87071 0.63433 0.62984 0.0
C1224 C 0.82078 0.6174 0.66202 0.0
C1225 C 0.83474 0.62053 0.67302 0.0
C1226 C 0.8289 0.60885 0.65 0.0
C1227 C 0.85147 0.60295 0.649 0.0
C1228 C 0.86558 0.60574 0.66012 0.0
C1229 C 0.85715 0.61496 0.67188 0.0
C1230 C 0.81346 0.60669 0.63826 0.0
C1231 C 0.88972 0.59946 0.65952 0.0
H1232 H 0.86832 0.54701 0.61862 0.0
H1233 H 0.8879 0.61319 0.60873 0.0
H1234 H 0.85965 0.55627 0.65237 0.0
H1235 H 0.83306 0.5592 0.64483 0.0
H1236 H 0.85171 0.5381 0.63895 0.0
H1237 H 0.87673 0.64399 0.62119 0.0
H1238 H 0.854 0.64039 0.63254 0.0
H1239 H 0.88176 0.63764 0.63842 0.0
H1240 H 0.80349 0.62193 0.66275 0.0
H1241 H 0.86838 0.61858 0.67994 0.0
H1242 H 0.81319 0.58935 0.63467 0.0
H1243 H 0.81949 0.6171 0.62993 0.0
H1244 H 0.79629 0.61176 0.6407 0.0
H1245 H 0.8916 0.58244 0.65556 0.0
H1246 H 0.89782 0.60032 0.66942 0.0
H1247 H 0.89856 0.61075 0.65266 0.0
C1248 C 0.32445 0.45334 0.09655 0.0
C1249 C 0.3414 0.45126 0.08713 0.0
C1250 C 0.32838 0.46308 0.10899 0.0
C1251 C 0.34967 0.4714 0.11201 0.0
C1252 C 0.36675 0.46981 0.10244 0.0
C1253 C 0.36248 0.45953 0.09016 0.0
C1254 C 0.30981 0.46411 0.119 0.0
C1255 C 0.38953 0.4789 0.1052 0.0
C1256 C 0.35123 0.51314 0.14022 0.0
C1257 C 0.35837 0.50007 0.15091 0.0
C1258 C 0.34925 0.50425 0.12738 0.0
C1259 C 0.35396 0.4816 0.12525 0.0
C1260 C 0.36146 0.46839 0.13599 0.0
C1261 C 0.36374 0.47785 0.14868 0.0
C1262 C 0.34163 0.51899 0.11614 0.0
C1263 C 0.3662 0.44407 0.1342 0.0
H1264 H 0.30817 0.44682 0.09433 0.0
H1265 H 0.37562 0.45805 0.0829 0.0
H1266 H 0.31471 0.45533 0.12823 0.0
H1267 H 0.30642 0.48155 0.12173 0.0
H1268 H 0.29431 0.45661 0.11516 0.0
H1269 H 0.40076 0.47708 0.09654 0.0
H1270 H 0.38841 0.49669 0.10784 0.0
H1271 H 0.39696 0.47024 0.11384 0.0
H1272 H 0.34713 0.53036 0.14193 0.0
H1273 H 0.36879 0.4676 0.15698 0.0
H1274 H 0.32514 0.51353 0.1126 0.0
H1275 H 0.35317 0.51769 0.10761 0.0
H1276 H 0.34048 0.5366 0.1192 0.0
H1277 H 0.35078 0.43532 0.13136 0.0
H1278 H 0.37289 0.43635 0.14339 0.0
H1279 H 0.37823 0.44156 0.12603 0.0
C1280 C 0.34421 0.53547 0.8864 0.0
C1281 C 0.32432 0.54604 0.88968 0.0
C1282 C 0.34609 0.52297 0.87467 0.0
C1283 C 0.32784 0.52153 0.86587 0.0
C1284 C 0.30784 0.53243 0.86907 0.0
C1285 C 0.30624 0.5443 0.88102 0.0
C1286 C 0.3675 0.51113 0.87175 0.0
C1287 C 0.28814 0.53171 0.85983 0.0
C1288 C 0.33652 0.50641 0.82954 0.0
C1289 C 0.32846 0.48472 0.82922 0.0
C1290 C 0.33688 0.5185 0.84148 0.0
C1291 C 0.3294 0.50843 0.85337 0.0
C1292 C 0.32202 0.48622 0.85315 0.0
C1293 C 0.32132 0.47474 0.84103 0.0
C1294 C 0.34436 0.5423 0.84125 0.0
C1295 C 0.31439 0.47473 0.86566 0.0
H1296 H 0.3582 0.53671 0.89311 0.0
H1297 H 0.2909 0.55263 0.88343 0.0
H1298 H 0.36439 0.49314 0.87065 0.0
H1299 H 0.37447 0.51706 0.86219 0.0
H1300 H 0.38002 0.51363 0.8797 0.0
H1301 H 0.2741 0.54179 0.86354 0.0
H1302 H 0.2929 0.53787 0.84984 0.0
H1303 H 0.28243 0.51441 0.8586 0.0
H1304 H 0.34165 0.51426 0.82036 0.0
H1305 H 0.31517 0.45791 0.84077 0.0
H1306 H 0.35753 0.54505 0.84875 0.0
H1307 H 0.33031 0.55323 0.84391 0.0
H1308 H 0.3507 0.54733 0.83133 0.0
H1309 H 0.32704 0.47641 0.8736 0.0
H1310 H 0.31108 0.45687 0.86401 0.0
H1311 H 0.29903 0.48261 0.86935 0.0
C1312 C 0.15444 0.50928 0.64501 0.0
C1313 C 0.15354 0.52609 0.65463 0.0
C1314 C 0.1624 0.51354 0.63215 0.0
C1315 C 0.16971 0.53508 0.62886 0.0
C1316 C 0.17004 0.55175 0.63874 0.0
C1317 C 0.16191 0.54707 0.65149 0.0
C1318 C 0.16181 0.49533 0.62189 0.0
C1319 C 0.1779 0.57489 0.63566 0.0
C1320 C 0.20125 0.54744 0.59701 0.0
C1321 C 0.18454 0.55666 0.58905 0.0
C1322 C 0.1966 0.53962 0.60987 0.0
C1323 C 0.17474 0.54094 0.61482 0.0
C1324 C 0.15767 0.54929 0.60658 0.0
C1325 C 0.16279 0.5571 0.59384 0.0
C1326 C 0.21522 0.53084 0.61837 0.0
C1327 C 0.13409 0.55077 0.61142 0.0
H1328 H 0.14809 0.49299 0.64735 0.0
H1329 H 0.16149 0.56012 0.65888 0.0
H1330 H 0.14879 0.49899 0.61442 0.0
H1331 H 0.17777 0.49438 0.61651 0.0
H1332 H 0.15826 0.47894 0.6264 0.0
H1333 H 0.17918 0.5853 0.64474 0.0
H1334 H 0.19429 0.57439 0.63074 0.0
H1335 H 0.1662 0.58291 0.62866 0.0
H1336 H 0.2181 0.54707 0.59338 0.0
H1337 H 0.14974 0.564 0.58772 0.0
H1338 H 0.21066 0.51462 0.62273 0.0
H1339 H 0.21831 0.54236 0.62676 0.0
H1340 H 0.23079 0.52889 0.61265 0.0
H1341 H 0.12849 0.53446 0.61517 0.0
H1342 H 0.12254 0.55629 0.60349 0.0
H1343 H 0.13308 0.56262 0.61982 0.0
C1344 C 0.167 0.4091 0.39232 0.0
C1345 C 0.14815 0.41867 0.39801 0.0
C1346 C 0.17082 0.41037 0.37859 0.0
C1347 C 0.15575 0.42204 0.37039 0.0
C1348 C 0.13745 0.43294 0.3762 0.0
C1349 C 0.13366 0.43084 0.38993 0.0
C1350 C 0.19029 0.39812 0.37276 0.0
C1351 C 0.12141 0.44611 0.36785 0.0
C1352 C 0.17666 0.43318 0.33538 0.0
C1353 C 0.16659 0.41601 0.32824 0.0
C1354 C 0.17232 0.43617 0.349 0.0
C1355 C 0.15822 0.42114 0.35566 0.0
C1356 C 0.14769 0.40405 0.3484 0.0
C1357 C 0.15185 0.40184 0.33474 0.0
C1358 C 0.18333 0.45498 0.35631 0.0
C1359 C 0.13295 0.38734 0.35516 0.0
H1360 H 0.17816 0.39953 0.3985 0.0
H1361 H 0.11915 0.43839 0.39431 0.0
H1362 H 0.18426 0.38476 0.36611 0.0
H1363 H 0.2005 0.40942 0.36665 0.0
H1364 H 0.20096 0.39061 0.38055 0.0
H1365 H 0.1098 0.45591 0.37405 0.0
H1366 H 0.13046 0.45751 0.36115 0.0
H1367 H 0.11162 0.43476 0.36149 0.0
H1368 H 0.1881 0.44411 0.33034 0.0
H1369 H 0.14451 0.38821 0.32931 0.0
H1370 H 0.19595 0.44834 0.36326 0.0
H1371 H 0.17103 0.46415 0.36235 0.0
H1372 H 0.19154 0.46674 0.34942 0.0
H1373 H 0.14272 0.3778 0.36255 0.0
H1374 H 0.12539 0.37556 0.348 0.0
H1375 H 0.11954 0.39584 0.36065 0.0
C1376 C 0.03657 0.05818 0.3127 0.0
C1377 C 0.04419 0.07943 0.3095 0.0
C1378 C 0.01387 0.05386 0.31408 0.0
C1379 C 0.99845 0.07121 0.31227 0.0
C1380 C 0.00604 0.09264 0.30893 0.0
C1381 C 0.02879 0.09647 0.30755 0.0
C1382 C 0.0064 0.03078 0.31761 0.0
C1383 C 0.99013 0.11162 0.307 0.0
C1384 C 0.93777 0.05856 0.30578 0.0
C1385 C 0.92854 0.06186 0.31842 0.0
C1386 C 0.96058 0.06116 0.30366 0.0
C1387 C 0.97444 0.06727 0.31442 0.0
C1388 C 0.96525 0.07032 0.32722 0.0
C1389 C 0.94245 0.06754 0.32907 0.0
C1390 C 0.96982 0.05766 0.28988 0.0
C1391 C 0.97945 0.0769 0.33894 0.0
H1392 H 0.04834 0.0449 0.31417 0.0
H1393 H 0.0345 0.11294 0.30507 0.0
H1394 H 0.99788 0.03096 0.32737 0.0
H1395 H 0.99434 0.02472 0.31013 0.0
H1396 H 0.0204 0.01892 0.31815 0.0
H1397 H 0.99864 0.12714 0.30407 0.0
H1398 H 0.97779 0.10739 0.29923 0.0
H1399 H 0.98092 0.11467 0.31636 0.0
H1400 H 0.92715 0.05412 0.29751 0.0
H1401 H 0.93551 0.07011 0.33888 0.0
H1402 H 0.98323 0.04516 0.29017 0.0
H1403 H 0.97716 0.07329 0.28618 0.0
H1404 H 0.957 0.05211 0.2827 0.0
H1405 H 0.99294 0.06471 0.34037 0.0
H1406 H 0.96983 0.07807 0.34832 0.0
H1407 H 0.98729 0.09316 0.33699 0.0
C1408 C 0.16686 0.78149 0.54901 0.0
C1409 C 0.18491 0.79368 0.55382 0.0
C1410 C 0.16673 0.75831 0.54954 0.0
C1411 C 0.18514 0.74701 0.55496 0.0
C1412 C 0.20357 0.75917 0.55964 0.0
C1413 C 0.20321 0.78237 0.55906 0.0
C1414 C 0.1467 0.74593 0.54452 0.0
C1415 C 0.22354 0.74768 0.56543 0.0
C1416 C 0.17502 0.68962 0.5689 0.0
C1417 C 0.18239 0.67601 0.55852 0.0
C1418 C 0.17599 0.71272 0.5679 0.0
C1419 C 0.18465 0.72251 0.55623 0.0
C1420 C 0.19231 0.7089 0.54574 0.0
C1421 C 0.19104 0.68579 0.54699 0.0
C1422 C 0.16755 0.72665 0.57928 0.0
C1423 C 0.20172 0.71877 0.53318 0.0
H1424 H 0.15265 0.79006 0.54494 0.0
H1425 H 0.21727 0.79166 0.56274 0.0
H1426 H 0.15166 0.73382 0.5368 0.0
H1427 H 0.13911 0.73648 0.55279 0.0
H1428 H 0.13401 0.75715 0.54024 0.0
H1429 H 0.2369 0.75947 0.56811 0.0
H1430 H 0.21872 0.73838 0.57449 0.0
H1431 H 0.23017 0.73551 0.55821 0.0
H1432 H 0.1683 0.68224 0.57785 0.0
H1433 H 0.19683 0.67539 0.53894 0.0
H1434 H 0.15377 0.7373 0.5758 0.0
H1435 H 0.18083 0.73775 0.58293 0.0
H1436 H 0.16158 0.71646 0.58773 0.0
H1437 H 0.18902 0.72907 0.52817 0.0
H1438 H 0.20748 0.70593 0.52609 0.0
H1439 H 0.21581 0.72978 0.53564 0.0
C1440 C 0.4193 0.9475 0.80679 0.0
C1441 C 0.41038 0.93277 0.81612 0.0
C1442 C 0.44172 0.95352 0.80726 0.0
C1443 C 0.45551 0.94465 0.81733 0.0
C1444 C 0.44673 0.92936 0.82657 0.0
C1445 C 0.42432 0.92358 0.82583 0.0
C1446 C 0.45053 0.96977 0.79718 0.0
C1447 C 0.46088 0.91955 0.83746 0.0
C1448 C 0.51804 0.94748 0.8138 0.0
C1449 C 0.5232 0.9659 0.82171 0.0
C1450 C 0.49605 0.9405 0.81215 0.0
C1451 C 0.47885 0.95213 0.81864 0.0
C1452 C 0.48397 0.97069 0.82665 0.0
C1453 C 0.50606 0.97738 0.82806 0.0
C1454 C 0.49123 0.92067 0.8035 0.0
C1455 C 0.46611 0.98344 0.8338 0.0
H1456 H 0.40868 0.95463 0.79923 0.0
H1457 H 0.41762 0.91213 0.83308 0.0
H1458 H 0.45587 0.98513 0.8023 0.0
H1459 H 0.46526 0.96281 0.79213 0.0
H1460 H 0.43802 0.97417 0.78953 0.0
H1461 H 0.45179 0.90715 0.84349 0.0
H1462 H 0.4757 0.91152 0.83314 0.0
H1463 H 0.46678 0.93288 0.84417 0.0
H1464 H 0.53116 0.93855 0.80882 0.0
H1465 H 0.50987 0.99161 0.8342 0.0
H1466 H 0.47957 0.92532 0.79544 0.0
H1467 H 0.48312 0.90757 0.80948 0.0
H1468 H 0.50641 0.9137 0.79894 0.0
H1469 H 0.45385 0.9898 0.82653 0.0
H1470 H 0.47282 0.99761 0.83956 0.0
H1471 H 0.45717 0.97233 0.84072 0.0
C1472 C 0.30208 0.23336 0.04237 0.0
C1473 C 0.31873 0.22184 0.04921 0.0
C1474 C 0.3028 0.25651 0.04116 0.0
C1475 C 0.32049 0.2684 0.04701 0.0
C1476 C 0.33776 0.25677 0.05344 0.0
C1477 C 0.33671 0.23367 0.05442 0.0
C1478 C 0.28421 0.26831 0.03408 0.0
C1479 C 0.3569 0.2688 0.05984 0.0
C1480 C 0.33293 0.32863 0.03906 0.0
C1481 C 0.32374 0.3394 0.05012 0.0
C1482 C 0.3312 0.30557 0.03758 0.0
C1483 C 0.32018 0.29301 0.04743 0.0
C1484 C 0.3102 0.3039 0.05834 0.0
C1485 C 0.31202 0.32692 0.05952 0.0
C1486 C 0.34183 0.29458 0.02573 0.0
C1487 C 0.29836 0.29112 0.0691 0.0
H1488 H 0.28819 0.22435 0.03824 0.0
H1489 H 0.34972 0.22495 0.05966 0.0
H1490 H 0.27439 0.27791 0.04139 0.0
H1491 H 0.29091 0.28023 0.02674 0.0
H1492 H 0.27298 0.25665 0.02886 0.0
H1493 H 0.36966 0.25728 0.06374 0.0
H1494 H 0.36479 0.28011 0.05258 0.0
H1495 H 0.35077 0.27907 0.06821 0.0
H1496 H 0.3419 0.33815 0.03171 0.0
H1497 H 0.30477 0.33506 0.06807 0.0
H1498 H 0.32997 0.28321 0.02082 0.0
H1499 H 0.35611 0.2845 0.02908 0.0
H1500 H 0.34776 0.30678 0.01829 0.0
H1501 H 0.28549 0.28034 0.06467 0.0
H1502 H 0.29042 0.30215 0.07653 0.0
H1503 H 0.31028 0.28024 0.07436 0.0
C1504 C 0.97986 0.94923 0.69209 0.0
C1505 C 0.9695 0.92955 0.6881 0.0
C1506 C 0.00281 0.95197 0.69086 0.0
C1507 C 0.01574 0.93458 0.68556 0.0
C1508 C 0.00544 0.91459 0.68164 0.0
C1509 C 0.98244 0.91234 0.68293 0.0
C1510 C 0.01318 0.97357 0.69507 0.0
C1511 C 0.01868 0.89564 0.67598 0.0
C1512 C 0.07089 0.94807 0.66957 0.0
C1513 C 0.08593 0.94194 0.67955 0.0
C1514 C 0.04803 0.94602 0.67147 0.0
C1515 C 0.03995 0.93756 0.68365 0.0
C1516 C 0.05499 0.93162 0.69385 0.0
C1517 C 0.07782 0.93392 0.69169 0.0
C1518 C 0.03253 0.95264 0.66038 0.0
C1519 C 0.04697 0.9225 0.70696 0.0
H1520 H 0.97001 0.96262 0.6961 0.0
H1521 H 0.97461 0.89704 0.67986 0.0
H1522 H 0.02626 0.97052 0.70259 0.0
H1523 H 0.0212 0.98156 0.68639 0.0
H1524 H 0.00091 0.98525 0.69932 0.0
H1525 H 0.00827 0.88094 0.67382 0.0
H1526 H 0.02688 0.90091 0.66665 0.0
H1527 H 0.03189 0.89075 0.68306 0.0
H1528 H 0.07697 0.95435 0.66017 0.0
H1529 H 0.08932 0.92912 0.69945 0.0
H1530 H 0.02062 0.96522 0.66399 0.0
H1531 H 0.02279 0.93809 0.65708 0.0
H1532 H 0.04144 0.95949 0.65165 0.0
H1533 H 0.03537 0.93432 0.71169 0.0
H1534 H 0.06076 0.91915 0.71399 0.0
H1535 H 0.03776 0.9069 0.70526 0.0
C1536 C 0.28798 0.76508 0.92331 0.0
C1537 C 0.29838 0.77892 0.93262 0.0
C1538 C 0.29408 0.74278 0.92205 0.0
C1539 C 0.31103 0.73409 0.93026 0.0
C1540 C 0.32148 0.74791 0.93973 0.0
C1541 C 0.31501 0.77014 0.94081 0.0
C1542 C 0.28252 0.72854 0.91185 0.0
C1543 C 0.33966 0.73928 0.94863 0.0
C1544 C 0.31455 0.67162 0.93418 0.0
C1545 C 0.33098 0.66619 0.92491 0.0
C1546 C 0.30802 0.69368 0.93613 0.0
C1547 C 0.31823 0.7107 0.92867 0.0
C1548 C 0.33511 0.70536 0.91949 0.0
C1549 C 0.34125 0.68319 0.91771 0.0
C1550 C 0.28995 0.69875 0.94601 0.0
C1551 C 0.34649 0.72305 0.91141 0.0
H1552 H 0.27509 0.77169 0.91697 0.0
H1553 H 0.32314 0.78067 0.94803 0.0
H1554 H 0.29466 0.72238 0.90447 0.0
H1555 H 0.27511 0.71388 0.91674 0.0
H1556 H 0.26929 0.73764 0.90648 0.0
H1557 H 0.34578 0.75203 0.95569 0.0
H1558 H 0.33365 0.72488 0.95442 0.0
H1559 H 0.35374 0.73348 0.9425 0.0
H1560 H 0.30651 0.6586 0.93978 0.0
H1561 H 0.35401 0.67918 0.91055 0.0
H1562 H 0.27572 0.70648 0.94082 0.0
H1563 H 0.29596 0.71079 0.95351 0.0
H1564 H 0.28405 0.68371 0.95126 0.0
H1565 H 0.33425 0.73167 0.90503 0.0
H1566 H 0.35972 0.71621 0.90495 0.0
H1567 H 0.35389 0.73562 0.91811 0.0
C1568 C 0.48141 0.06435 0.18652 0.0
C1569 C 0.46539 0.0522 0.19345 0.0
C1570 C 0.504 0.06122 0.18896 0.0
C1571 C 0.51083 0.04566 0.19865 0.0
C1572 C 0.49477 0.03395 0.20606 0.0
C1573 C 0.4722 0.0373 0.20335 0.0
C1574 C 0.52059 0.07404 0.1808 0.0
C1575 C 0.50143 0.0174 0.21657 0.0
C1576 C 0.5679 0.02244 0.19205 0.0
C1577 C 0.58125 0.03615 0.19995 0.0
C1578 C 0.54483 0.0246 0.19207 0.0
C1579 C 0.5348 0.04077 0.20025 0.0
C1580 C 0.54805 0.05371 0.20887 0.0
C1581 C 0.57115 0.0513 0.20859 0.0
C1582 C 0.53131 0.01045 0.18272 0.0
C1583 C 0.53793 0.07093 0.21787 0.0
H1584 H 0.47634 0.07597 0.1789 0.0
H1585 H 0.45994 0.02792 0.2088 0.0
H1586 H 0.53223 0.08296 0.18743 0.0
H1587 H 0.53048 0.06244 0.17467 0.0
H1588 H 0.51257 0.08623 0.17409 0.0
H1589 H 0.48703 0.01125 0.22232 0.0
H1590 H 0.5097 0.00308 0.2118 0.0
H1591 H 0.51348 0.0249 0.22357 0.0
H1592 H 0.57552 0.01056 0.18541 0.0
H1593 H 0.5813 0.06186 0.21481 0.0
H1594 H 0.52399 0.02101 0.17483 0.0
H1595 H 0.51747 0.00251 0.18813 0.0
H1596 H 0.54137 0.99735 0.1779 0.0
H1597 H 0.53171 0.08492 0.21178 0.0
H1598 H 0.55004 0.07749 0.22519 0.0
H1599 H 0.52363 0.06395 0.22332 0.0
C1600 C 0.14333 0.31295 0.43172 0.0
C1601 C 0.12842 0.32619 0.43882 0.0
C1602 C 0.14308 0.28987 0.43291 0.0
C1603 C 0.12765 0.27969 0.44152 0.0
C1604 C 0.11319 0.29296 0.44918 0.0
C1605 C 0.11367 0.31609 0.4477 0.0
C1606 C 0.15877 0.27635 0.42452 0.0
C1607 C 0.09671 0.2827 0.45859 0.0
C1608 C 0.11249 0.22156 0.43088 0.0
C1609 C 0.12698 0.20873 0.43858 0.0
C1610 C 0.11175 0.24462 0.43223 0.0
C1611 C 0.12572 0.25515 0.4416 0.0
C1612 C 0.13941 0.24221 0.44997 0.0
C1613 C 0.13995 0.21913 0.44833 0.0
C1614 C 0.09695 0.2578 0.42308 0.0
C1615 C 0.15429 0.25281 0.46021 0.0
H1616 H 0.15488 0.32057 0.42488 0.0
H1617 H 0.10217 0.3262 0.45329 0.0
H1618 H 0.16841 0.26489 0.43089 0.0
H1619 H 0.14922 0.26612 0.41737 0.0
H1620 H 0.17049 0.28683 0.41883 0.0
H1621 H 0.08834 0.29527 0.46487 0.0
H1622 H 0.08396 0.27365 0.45282 0.0
H1623 H 0.105 0.27052 0.46517 0.0
H1624 H 0.10228 0.21369 0.42339 0.0
H1625 H 0.15106 0.20934 0.4544 0.0
H1626 H 0.10723 0.26767 0.41615 0.0
H1627 H 0.08673 0.26956 0.42888 0.0
H1628 H 0.0858 0.24706 0.41712 0.0
H1629 H 0.16794 0.26164 0.45511 0.0
H1630 H 0.1616 0.24045 0.4671 0.0
H1631 H 0.14503 0.26522 0.46611 0.0
C1632 C 0.76108 0.21383 0.45492 0.0
C1633 C 0.7771 0.20094 0.4614 0.0
C1634 C 0.76053 0.23686 0.45648 0.0
C1635 C 0.77628 0.24729 0.46481 0.0
C1636 C 0.79169 0.23429 0.47197 0.0
C1637 C 0.79198 0.21125 0.47014 0.0
C1638 C 0.74386 0.25012 0.44864 0.0
C1639 C 0.80856 0.24479 0.48107 0.0
C1640 C 0.79156 0.30561 0.4546 0.0
C1641 C 0.7784 0.31845 0.46309 0.0
C1642 C 0.79145 0.28248 0.45534 0.0
C1643 C 0.77797 0.27184 0.46488 0.0
C1644 C 0.76525 0.28467 0.47383 0.0
C1645 C 0.76555 0.30786 0.4728 0.0
C1646 C 0.80521 0.26942 0.44558 0.0
C1647 C 0.75087 0.27389 0.48422 0.0
H1648 H 0.74943 0.20603 0.4482 0.0
H1649 H 0.80431 0.20142 0.47527 0.0
H1650 H 0.73485 0.26166 0.45527 0.0
H1651 H 0.75255 0.26026 0.44108 0.0
H1652 H 0.73163 0.23944 0.44347 0.0
H1653 H 0.81751 0.23232 0.48715 0.0
H1654 H 0.82082 0.25403 0.47505 0.0
H1655 H 0.8005 0.25682 0.48783 0.0
H1656 H 0.80161 0.31361 0.4471 0.0
H1657 H 0.75541 0.31766 0.47944 0.0
H1658 H 0.79424 0.25935 0.43912 0.0
H1659 H 0.81625 0.25783 0.45097 0.0
H1660 H 0.8155 0.28021 0.43915 0.0
H1661 H 0.73725 0.26472 0.4793 0.0
H1662 H 0.74356 0.28615 0.49117 0.0
H1663 H 0.7606 0.26172 0.49005 0.0
C1664 C 0.65791 0.72387 0.9495 0.0
C1665 C 0.6764 0.71402 0.95551 0.0
C1666 C 0.65559 0.74693 0.949 0.0
C1667 C 0.67208 0.76054 0.95473 0.0
C1668 C 0.69016 0.75072 0.96147 0.0
C1669 C 0.69214 0.72756 0.96175 0.0
C1670 C 0.63605 0.75671 0.94172 0.0
C1671 C 0.70795 0.76467 0.96784 0.0
C1672 C 0.67875 0.81643 0.93815 0.0
C1673 C 0.66647 0.83028 0.94654 0.0
C1674 C 0.68126 0.79387 0.94096 0.0
C1675 C 0.67137 0.78487 0.9525 0.0
C1676 C 0.65968 0.79889 0.96131 0.0
C1677 C 0.6573 0.82144 0.9582 0.0
C1678 C 0.69383 0.77949 0.93128 0.0
C1679 C 0.6491 0.78993 0.97378 0.0
H1680 H 0.64557 0.71359 0.94472 0.0
H1681 H 0.70641 0.72011 0.96649 0.0
H1682 H 0.62761 0.76914 0.94804 0.0
H1683 H 0.64186 0.76536 0.93264 0.0
H1684 H 0.62382 0.74394 0.93872 0.0
H1685 H 0.71941 0.75466 0.97403 0.0
H1686 H 0.71769 0.77307 0.95998 0.0
H1687 H 0.70048 0.77774 0.97414 0.0
H1688 H 0.68599 0.82309 0.92915 0.0
H1689 H 0.64788 0.83204 0.96478 0.0
H1690 H 0.68249 0.7671 0.92683 0.0
H1691 H 0.70706 0.77029 0.93654 0.0
H1692 H 0.70143 0.78923 0.92311 0.0
H1693 H 0.63539 0.77862 0.97107 0.0
H1694 H 0.64241 0.80328 0.9802 0.0
H1695 H 0.66127 0.78018 0.9796 0.0
C1696 C 0.72852 0.28913 0.0355 0.0
C1697 C 0.7106 0.30065 0.04101 0.0
C1698 C 0.72887 0.26589 0.03526 0.0
C1699 C 0.71093 0.25393 0.04072 0.0
C1700 C 0.69224 0.26549 0.04555 0.0
C1701 C 0.69228 0.28868 0.0456 0.0
C1702 C 0.74897 0.25418 0.02987 0.0
C1703 C 0.67275 0.25338 0.05144 0.0
C1704 C 0.70452 0.19173 0.03619 0.0
C1705 C 0.71294 0.18378 0.0483 0.0
C1706 C 0.70436 0.21451 0.03335 0.0
C1707 C 0.71269 0.22963 0.04287 0.0
C1708 C 0.72175 0.22162 0.05493 0.0
C1709 C 0.72183 0.19884 0.05747 0.0
C1710 C 0.69475 0.22242 0.02033 0.0
C1711 C 0.73078 0.23718 0.06537 0.0
H1712 H 0.74269 0.29822 0.03183 0.0
H1713 H 0.67827 0.2974 0.04978 0.0
H1714 H 0.75845 0.2468 0.03822 0.0
H1715 H 0.74402 0.24049 0.02316 0.0
H1716 H 0.76005 0.26558 0.02435 0.0
H1717 H 0.65865 0.26462 0.05354 0.0
H1718 H 0.66703 0.24015 0.04462 0.0
H1719 H 0.67781 0.24535 0.06089 0.0
H1720 H 0.69769 0.1802 0.02903 0.0
H1721 H 0.72845 0.1929 0.06683 0.0
H1722 H 0.70651 0.23367 0.01526 0.0
H1723 H 0.67944 0.23199 0.02224 0.0
H1724 H 0.69071 0.20852 0.01353 0.0
H1725 H 0.74371 0.24794 0.061 0.0
H1726 H 0.73799 0.22825 0.074 0.0
H1727 H 0.71737 0.24811 0.06903 0.0
C1728 C 0.85957 0.79413 0.60418 0.0
C1729 C 0.86946 0.80696 0.59421 0.0
C1730 C 0.86178 0.77101 0.60429 0.0
C1731 C 0.87418 0.76047 0.59418 0.0
C1732 C 0.88416 0.77332 0.58407 0.0
C1733 C 0.88169 0.79639 0.58421 0.0
C1734 C 0.85091 0.75786 0.61524 0.0
C1735 C 0.8975 0.76268 0.57311 0.0
C1736 C 0.8978 0.70325 0.60059 0.0
C1737 C 0.88284 0.68968 0.59372 0.0
C1738 C 0.89506 0.72629 0.60092 0.0
C1739 C 0.87691 0.73602 0.59422 0.0
C1740 C 0.86163 0.72242 0.58736 0.0
C1741 C 0.86477 0.69941 0.5872 0.0
C1742 C 0.91169 0.74024 0.60835 0.0
C1743 C 0.84207 0.73219 0.5801 0.0
H1744 H 0.85009 0.80214 0.61195 0.0
H1745 H 0.88938 0.80614 0.57645 0.0
H1746 H 0.83927 0.74566 0.6109 0.0
H1747 H 0.86359 0.74843 0.62086 0.0
H1748 H 0.84171 0.76854 0.62232 0.0
H1749 H 0.90406 0.77499 0.56593 0.0
H1750 H 0.9116 0.75341 0.57745 0.0
H1751 H 0.88714 0.75062 0.56761 0.0
H1752 H 0.91178 0.6959 0.60568 0.0
H1753 H 0.85311 0.68906 0.58188 0.0
H1754 H 0.90322 0.75028 0.61604 0.0
H1755 H 0.91982 0.75191 0.60139 0.0
H1756 H 0.92465 0.73009 0.61326 0.0
H1757 H 0.83185 0.74205 0.58707 0.0
H1758 H 0.83148 0.71932 0.57546 0.0
H1759 H 0.8479 0.74359 0.57221 0.0
C1760 C 0.54999 0.525 0.80449 0.0
C1761 C 0.56038 0.51612 0.81578 0.0
C1762 C 0.52741 0.5213 0.80206 0.0
C1763 C 0.51499 0.50834 0.81109 0.0
C1764 C 0.52547 0.49908 0.82238 0.0
C1765 C 0.548 0.50311 0.8246 0.0
C1766 C 0.51677 0.53147 0.78992 0.0
C1767 C 0.51284 0.48505 0.8322 0.0
C1768 C 0.45258 0.51426 0.81319 0.0
C1769 C 0.44536 0.49553 0.80618 0.0
C1770 C 0.47519 0.51894 0.81457 0.0
C1771 C 0.49098 0.50452 0.80885 0.0
C1772 C 0.4838 0.48584 0.80155 0.0
C1773 C 0.46109 0.4816 0.80028 0.0
C1774 C 0.48222 0.53908 0.82238 0.0
C1775 C 0.50012 0.47004 0.79533 0.0
H1776 H 0.55941 0.53511 0.79765 0.0
H1777 H 0.55588 0.49613 0.83333 0.0
H1778 H 0.50915 0.5184 0.78368 0.0
H1779 H 0.50334 0.54285 0.793 0.0
H1780 H 0.52878 0.54084 0.78376 0.0
H1781 H 0.52353 0.47874 0.84035 0.0
H1782 H 0.49923 0.49485 0.83664 0.0
H1783 H 0.50522 0.47075 0.82703 0.0
H1784 H 0.44055 0.52517 0.81773 0.0
H1785 H 0.45569 0.46711 0.79483 0.0
H1786 H 0.49337 0.54954 0.81631 0.0
H1787 H 0.49162 0.53388 0.83134 0.0
H1788 H 0.46791 0.54925 0.82561 0.0
H1789 H 0.51162 0.47915 0.78873 0.0
H1790 H 0.49186 0.45686 0.78945 0.0
H1791 H 0.51023 0.46213 0.80323 0.0
C1792 C 0.04117 0.41138 0.31625 0.0
C1793 C 0.05404 0.42763 0.31 0.0
C1794 C 0.01844 0.41453 0.31831 0.0
C1795 C 0.00834 0.43445 0.31407 0.0
C1796 C 0.02116 0.45077 0.30758 0.0
C1797 C 0.04384 0.44716 0.30561 0.0
C1798 C 0.00531 0.39672 0.32523 0.0
C1799 C 0.011 0.47225 0.30296 0.0
C1800 C 0.94572 0.43631 0.31068 0.0
C1801 C 0.93954 0.44624 0.32273 0.0
C1802 C 0.96806 0.4324 0.30769 0.0
C1803 C 0.98459 0.43862 0.31695 0.0
C1804 C 0.97846 0.44882 0.32906 0.0
C1805 C 0.95604 0.45248 0.3318 0.0
C1806 C 0.97399 0.42146 0.29468 0.0
C1807 C 0.99559 0.45579 0.33917 0.0
H1808 H 0.04889 0.39621 0.31963 0.0
H1809 H 0.05362 0.4598 0.30076 0.0
H1810 H 0.99863 0.40318 0.33474 0.0
H1811 H 0.99099 0.39176 0.319 0.0
H1812 H 0.01541 0.3818 0.3274 0.0
H1813 H 0.02305 0.48289 0.29762 0.0
H1814 H 0.99682 0.46889 0.29625 0.0
H1815 H 0.00453 0.48155 0.31163 0.0
H1816 H 0.93308 0.43141 0.30362 0.0
H1817 H 0.95146 0.46019 0.34113 0.0
H1818 H 0.98294 0.40577 0.29661 0.0
H1819 H 0.98525 0.43227 0.28891 0.0
H1820 H 0.9592 0.41779 0.2885 0.0
H1821 H 0.00523 0.44119 0.34249 0.0
H1822 H 0.9881 0.46375 0.34805 0.0
H1823 H 0.0074 0.46757 0.3346 0.0
C1824 C 0.47915 0.45297 0.17644 0.0
C1825 C 0.47409 0.47492 0.17308 0.0
C1826 C 0.50114 0.4462 0.17837 0.0
C1827 C 0.51847 0.46171 0.17681 0.0
C1828 C 0.51345 0.48388 0.17344 0.0
C1829 C 0.49135 0.49022 0.17166 0.0
C1830 C 0.50585 0.42246 0.18203 0.0
C1831 C 0.53147 0.50087 0.17157 0.0
C1832 C 0.57554 0.45178 0.19157 0.0
C1833 C 0.58744 0.44481 0.18036 0.0
C1834 C 0.55288 0.45671 0.19066 0.0
C1835 C 0.54194 0.45473 0.17825 0.0
C1836 C 0.55375 0.44718 0.167 0.0
C1837 C 0.57631 0.44225 0.1682 0.0
C1838 C 0.54078 0.46454 0.20291 0.0
C1839 C 0.54271 0.44494 0.15358 0.0
H1840 H 0.46591 0.44107 0.17762 0.0
H1841 H 0.48762 0.5072 0.16906 0.0
H1842 H 0.5161 0.41461 0.17421 0.0
H1843 H 0.51545 0.42176 0.19143 0.0
H1844 H 0.49049 0.41262 0.18328 0.0
H1845 H 0.52479 0.51749 0.16912 0.0
H1846 H 0.54158 0.50219 0.18075 0.0
H1847 H 0.54268 0.49562 0.16343 0.0
H1848 H 0.58399 0.4537 0.20101 0.0
H1849 H 0.58532 0.43683 0.15949 0.0
H1850 H 0.5258 0.45434 0.20455 0.0
H1851 H 0.53522 0.48185 0.20146 0.0
H1852 H 0.55127 0.4638 0.21197 0.0
H1853 H 0.52791 0.4342 0.15436 0.0
H1854 H 0.55396 0.43789 0.14596 0.0
H1855 H 0.53701 0.46139 0.15011 0.0
C1856 C 0.938 0.57003 0.70286 0.0
C1857 C 0.93447 0.59185 0.69861 0.0
C1858 C 0.95914 0.56044 0.70233 0.0
C1859 C 0.97712 0.57294 0.69739 0.0
C1860 C 0.9737 0.59506 0.69327 0.0
C1861 C 0.95245 0.60424 0.69394 0.0
C1862 C 0.96217 0.53683 0.70686 0.0
C1863 C 0.99243 0.60891 0.68789 0.0
C1864 C 0.03671 0.55655 0.70434 0.0
C1865 C 0.04278 0.54669 0.69225 0.0
C1866 C 0.01517 0.56458 0.70633 0.0
C1867 C 0.99937 0.56272 0.69598 0.0
C1868 C 0.00521 0.55216 0.68393 0.0
C1869 C 0.02681 0.54425 0.68222 0.0
C1870 C 0.0095 0.57563 0.71935 0.0
C1871 C 0.98885 0.54987 0.67265 0.0
H1872 H 0.92422 0.56035 0.70651 0.0
H1873 H 0.9499 0.6211 0.69064 0.0
H1874 H 0.96757 0.52646 0.69837 0.0
H1875 H 0.97532 0.53592 0.71455 0.0
H1876 H 0.94674 0.5297 0.71102 0.0
H1877 H 0.98717 0.62605 0.68548 0.0
H1878 H 0.00609 0.60969 0.69525 0.0
H1879 H 0.99914 0.60117 0.67874 0.0
H1880 H 0.04891 0.55845 0.71216 0.0
H1881 H 0.03129 0.53658 0.67286 0.0
H1882 H 0.9944 0.56813 0.72366 0.0
H1883 H 0.00591 0.59339 0.7176 0.0
H1884 H 0.02313 0.57436 0.72673 0.0
H1885 H 0.97356 0.54166 0.67619 0.0
H1886 H 0.99563 0.54019 0.6642 0.0
H1887 H 0.9841 0.56649 0.66896 0.0
loop_
_geom_bond_atom_site_label_1
_geom_bond_atom_site_label_2
_geom_bond_distance
_geom_bond_site_symmetry_2
_ccdc_geom_bond_type
O0 Cd1 2.300 . S
O0 C7 1.275 . S
Cd1 O0 2.300 . S
Cd1 O9 2.381 . S
Cd1 O10 2.378 . S
O2 Cd3 2.385 . S
O2 C7 1.255 . S
Cd3 O2 2.385 . S
Cd3 O4 2.317 . S
O4 Cd3 2.317 . S
O4 C5 1.232 . S
C5 O4 1.232 . S
C5 O6 1.218 . S
O6 C5 1.218 . S
C7 O0 1.275 . S
C7 O2 1.255 . S
C8 O9 1.258 . S
C8 O10 1.256 . S
O9 Cd1 2.381 . S
O9 C8 1.258 . S
O10 Cd1 2.378 . S
O10 C8 1.256 . S
O11 Cd12 2.300 . S
O11 C18 1.275 . S
Cd12 O11 2.300 . S
Cd12 O20 2.381 . S
Cd12 O21 2.378 . S
O13 Cd14 2.385 . S
O13 C18 1.255 . S
Cd14 O13 2.385 . S
Cd14 O15 2.317 . S
O15 Cd14 2.317 . S
O15 C16 1.232 . S
C16 O15 1.232 . S
C16 O17 1.218 . S
O17 C16 1.218 . S
C18 O11 1.275 . S
C18 O13 1.255 . S
C19 O20 1.258 . S
C19 O21 1.256 . S
O20 Cd12 2.381 . S
O20 C19 1.258 . S
O21 Cd12 2.378 . S
O21 C19 1.256 . S
O22 Cd23 2.300 . S
O22 C29 1.275 . S
Cd23 O22 2.300 . S
Cd23 O31 2.381 . S
Cd23 O32 2.378 . S
O24 Cd25 2.385 . S
O24 C29 1.255 . S
Cd25 O24 2.385 . S
Cd25 O26 2.317 . S
O26 Cd25 2.317 . S
O26 C27 1.232 . S
C27 O26 1.232 . S
C27 O28 1.218 . S
O28 C27 1.218 . S
C29 O22 1.275 . S
C29 O24 1.255 . S
C30 O31 1.258 . S
C30 O32 1.256 . S
O31 Cd23 2.381 . S
O31 C30 1.258 . S
O32 Cd23 2.378 . S
O32 C30 1.256 . S
O33 Cd34 2.300 . S
O33 C40 1.275 . S
Cd34 O33 2.300 . S
Cd34 O42 2.381 . S
Cd34 O43 2.378 . S
O35 Cd36 2.385 . S
O35 C40 1.255 . S
Cd36 O35 2.385 . S
Cd36 O37 2.317 . S
O37 Cd36 2.317 . S
O37 C38 1.232 . S
C38 O37 1.232 . S
C38 O39 1.218 . S
O39 C38 1.218 . S
C40 O33 1.275 . S
C40 O35 1.255 . S
C41 O42 1.258 . S
C41 O43 1.256 . S
O42 Cd34 2.381 . S
O42 C41 1.258 . S
O43 Cd34 2.378 . S
O43 C41 1.256 . S
O44 Cd45 2.300 . S
O44 C51 1.275 . S
Cd45 O44 2.300 . S
Cd45 O53 2.381 . S
Cd45 O54 2.378 . S
O46 Cd47 2.385 . S
O46 C51 1.255 . S
Cd47 O46 2.385 . S
Cd47 O48 2.317 . S
O48 Cd47 2.317 . S
O48 C49 1.232 . S
C49 O48 1.232 . S
C49 O50 1.218 . S
O50 C49 1.218 . S
C51 O44 1.275 . S
C51 O46 1.255 . S
C52 O53 1.258 . S
C52 O54 1.256 . S
O53 Cd45 2.381 . S
O53 C52 1.258 . S
O54 Cd45 2.378 . S
O54 C52 1.256 . S
O55 Cd56 2.300 . S
O55 C62 1.275 . S
Cd56 O55 2.300 . S
Cd56 O64 2.381 . S
Cd56 O65 2.378 . S
O57 Cd58 2.385 . S
O57 C62 1.255 . S
Cd58 O57 2.385 . S
Cd58 O59 2.317 . S
O59 Cd58 2.317 . S
O59 C60 1.232 . S
C60 O59 1.232 . S
C60 O61 1.218 . S
O61 C60 1.218 . S
C62 O55 1.275 . S
C62 O57 1.255 . S
C63 O64 1.258 . S
C63 O65 1.256 . S
O64 Cd56 2.381 . S
O64 C63 1.258 . S
O65 Cd56 2.378 . S
O65 C63 1.256 . S
O66 Cd67 2.300 . S
O66 C73 1.275 . S
Cd67 O66 2.300 . S
Cd67 O75 2.381 . S
Cd67 O76 2.378 . S
O68 Cd69 2.385 . S
O68 C73 1.255 . S
Cd69 O68 2.385 . S
Cd69 O70 2.317 . S
O70 Cd69 2.317 . S
O70 C71 1.232 . S
C71 O70 1.232 . S
C71 O72 1.218 . S
O72 C71 1.218 . S
C73 O66 1.275 . S
C73 O68 1.255 . S
C74 O75 1.258 . S
C74 O76 1.256 . S
O75 Cd67 2.381 . S
O75 C74 1.258 . S
O76 Cd67 2.378 . S
O76 C74 1.256 . S
O77 Cd78 2.300 . S
O77 C84 1.275 . S
Cd78 O77 2.300 . S
Cd78 O86 2.381 . S
Cd78 O87 2.378 . S
O79 Cd80 2.385 . S
O79 C84 1.255 . S
Cd80 O79 2.385 . S
Cd80 O81 2.317 . S
O81 Cd80 2.317 . S
O81 C82 1.232 . S
C82 O81 1.232 . S
C82 O83 1.218 . S
O83 C82 1.218 . S
C84 O77 1.275 . S
C84 O79 1.255 . S
C85 O86 1.258 . S
C85 O87 1.256 . S
O86 Cd78 2.381 . S
O86 C85 1.258 . S
O87 Cd78 2.378 . S
O87 C85 1.256 . S
O88 Cd89 2.300 . S
O88 C95 1.275 . S
Cd89 O88 2.300 . S
Cd89 O97 2.381 . S
Cd89 O98 2.378 . S
O90 Cd91 2.385 . S
O90 C95 1.255 . S
Cd91 O90 2.385 . S
Cd91 O92 2.317 . S
O92 Cd91 2.317 . S
O92 C93 1.232 . S
C93 O92 1.232 . S
C93 O94 1.218 . S
O94 C93 1.218 . S
C95 O88 1.275 . S
C95 O90 1.255 . S
C96 O97 1.258 . S
C96 O98 1.256 . S
O97 Cd89 2.381 . S
O97 C96 1.258 . S
O98 Cd89 2.378 . S
O98 C96 1.256 . S
O99 Cd100 2.300 . S
O99 C106 1.275 . S
Cd100 O99 2.300 . S
Cd100 O108 2.381 . S
Cd100 O109 2.378 . S
O101 Cd102 2.385 . S
O101 C106 1.255 . S
Cd102 O101 2.385 . S
Cd102 O103 2.317 . S
O103 Cd102 2.317 . S
O103 C104 1.232 . S
C104 O103 1.232 . S
C104 O105 1.218 . S
O105 C104 1.218 . S
C106 O99 1.275 . S
C106 O101 1.255 . S
C107 O108 1.258 . S
C107 O109 1.256 . S
O108 Cd100 2.381 . S
O108 C107 1.258 . S
O109 Cd100 2.378 . S
O109 C107 1.256 . S
O110 Cd111 2.300 . S
O110 C117 1.275 . S
Cd111 O110 2.300 . S
Cd111 O119 2.381 . S
Cd111 O120 2.378 . S
O112 Cd113 2.385 . S
O112 C117 1.255 . S
Cd113 O112 2.385 . S
Cd113 O114 2.317 . S
O114 Cd113 2.317 . S
O114 C115 1.232 . S
C115 O114 1.232 . S
C115 O116 1.218 . S
O116 C115 1.218 . S
C117 O110 1.275 . S
C117 O112 1.255 . S
C118 O119 1.258 . S
C118 O120 1.256 . S
O119 Cd111 2.381 . S
O119 C118 1.258 . S
O120 Cd111 2.378 . S
O120 C118 1.256 . S
O121 Cd122 2.300 . S
O121 C128 1.275 . S
Cd122 O121 2.300 . S
Cd122 O130 2.381 . S
Cd122 O131 2.378 . S
O123 Cd124 2.385 . S
O123 C128 1.255 . S
Cd124 O123 2.385 . S
Cd124 O125 2.317 . S
O125 Cd124 2.317 . S
O125 C126 1.232 . S
C126 O125 1.232 . S
C126 O127 1.218 . S
O127 C126 1.218 . S
C128 O121 1.275 . S
C128 O123 1.255 . S
C129 O130 1.258 . S
C129 O131 1.256 . S
O130 Cd122 2.381 . S
O130 C129 1.258 . S
O131 Cd122 2.378 . S
O131 C129 1.256 . S
O132 Cd133 2.300 . S
O132 C139 1.275 . S
Cd133 O132 2.300 . S
Cd133 O141 2.381 . S
Cd133 O142 2.378 . S
O134 Cd135 2.385 . S
O134 C139 1.255 . S
Cd135 O134 2.385 . S
Cd135 O136 2.317 . S
O136 Cd135 2.317 . S
O136 C137 1.232 . S
C137 O136 1.232 . S
C137 O138 1.218 . S
O138 C137 1.218 . S
C139 O132 1.275 . S
C139 O134 1.255 . S
C140 O141 1.258 . S
C140 O142 1.256 . S
O141 Cd133 2.381 . S
O141 C140 1.258 . S
O142 Cd133 2.378 . S
O142 C140 1.256 . S
O143 Cd144 2.300 . S
O143 C150 1.275 . S
Cd144 O143 2.300 . S
Cd144 O152 2.381 . S
Cd144 O153 2.378 . S
O145 Cd146 2.385 . S
O145 C150 1.255 . S
Cd146 O145 2.385 . S
Cd146 O147 2.317 . S
O147 Cd146 2.317 . S
O147 C148 1.232 . S
C148 O147 1.232 . S
C148 O149 1.218 . S
O149 C148 1.218 . S
C150 O143 1.275 . S
C150 O145 1.255 . S
C151 O152 1.258 . S
C151 O153 1.256 . S
O152 Cd144 2.381 . S
O152 C151 1.258 . S
O153 Cd144 2.378 . S
O153 C151 1.256 . S
O154 Cd155 2.300 . S
O154 C161 1.275 . S
Cd155 O154 2.300 . S
Cd155 O163 2.381 . S
Cd155 O164 2.378 . S
O156 Cd157 2.385 . S
O156 C161 1.255 . S
Cd157 O156 2.385 . S
Cd157 O158 2.317 . S
O158 Cd157 2.317 . S
O158 C159 1.232 . S
C159 O158 1.232 . S
C159 O160 1.218 . S
O160 C159 1.218 . S
C161 O154 1.275 . S
C161 O156 1.255 . S
C162 O163 1.258 . S
C162 O164 1.256 . S
O163 Cd155 2.381 . S
O163 C162 1.258 . S
O164 Cd155 2.378 . S
O164 C162 1.256 . S
O165 Cd166 2.300 . S
O165 C172 1.275 . S
Cd166 O165 2.300 . S
Cd166 O174 2.381 . S
Cd166 O175 2.378 . S
O167 Cd168 2.385 . S
O167 C172 1.255 . S
Cd168 O167 2.385 . S
Cd168 O169 2.317 . S
O169 Cd168 2.317 . S
O169 C170 1.232 . S
C170 O169 1.232 . S
C170 O171 1.218 . S
O171 C170 1.218 . S
C172 O165 1.275 . S
C172 O167 1.255 . S
C173 O174 1.258 . S
C173 O175 1.256 . S
O174 Cd166 2.381 . S
O174 C173 1.258 . S
O175 Cd166 2.378 . S
O175 C173 1.256 . S
O176 Cd177 2.300 . S
O176 C183 1.275 . S
Cd177 O176 2.300 . S
Cd177 O185 2.381 . S
Cd177 O186 2.378 . S
O178 Cd179 2.385 . S
O178 C183 1.255 . S
Cd179 O178 2.385 . S
Cd179 O180 2.317 . S
O180 Cd179 2.317 . S
O180 C181 1.232 . S
C181 O180 1.232 . S
C181 O182 1.218 . S
O182 C181 1.218 . S
C183 O176 1.275 . S
C183 O178 1.255 . S
C184 O185 1.258 . S
C184 O186 1.256 . S
O185 Cd177 2.381 . S
O185 C184 1.258 . S
O186 Cd177 2.378 . S
O186 C184 1.256 . S
O187 Cd188 2.300 . S
O187 C194 1.275 . S
Cd188 O187 2.300 . S
Cd188 O196 2.381 . S
Cd188 O197 2.378 . S
O189 Cd190 2.385 . S
O189 C194 1.255 . S
Cd190 O189 2.385 . S
Cd190 O191 2.317 . S
O191 Cd190 2.317 . S
O191 C192 1.232 . S
C192 O191 1.232 . S
C192 O193 1.218 . S
O193 C192 1.218 . S
C194 O187 1.275 . S
C194 O189 1.255 . S
C195 O196 1.258 . S
C195 O197 1.256 . S
O196 Cd188 2.381 . S
O196 C195 1.258 . S
O197 Cd188 2.378 . S
O197 C195 1.256 . S
O198 Cd199 2.300 . S
O198 C205 1.275 . S
Cd199 O198 2.300 . S
Cd199 O207 2.381 . S
Cd199 O208 2.378 . S
O200 Cd201 2.385 . S
O200 C205 1.255 . S
Cd201 O200 2.385 . S
Cd201 O202 2.317 . S
O202 Cd201 2.317 . S
O202 C203 1.232 . S
C203 O202 1.232 . S
C203 O204 1.218 . S
O204 C203 1.218 . S
C205 O198 1.275 . S
C205 O200 1.255 . S
C206 O207 1.258 . S
C206 O208 1.256 . S
O207 Cd199 2.381 . S
O207 C206 1.258 . S
O208 Cd199 2.378 . S
O208 C206 1.256 . S
O209 Cd210 2.300 . S
O209 C216 1.275 . S
Cd210 O209 2.300 . S
Cd210 O218 2.381 . S
Cd210 O219 2.378 . S
O211 Cd212 2.385 . S
O211 C216 1.255 . S
Cd212 O211 2.385 . S
Cd212 O213 2.317 . S
O213 Cd212 2.317 . S
O213 C214 1.232 . S
C214 O213 1.232 . S
C214 O215 1.218 . S
O215 C214 1.218 . S
C216 O209 1.275 . S
C216 O211 1.255 . S
C217 O218 1.258 . S
C217 O219 1.256 . S
O218 Cd210 2.381 . S
O218 C217 1.258 . S
O219 Cd210 2.378 . S
O219 C217 1.256 . S
O220 Cd221 2.300 . S
O220 C227 1.275 . S
Cd221 O220 2.300 . S
Cd221 O229 2.381 . S
Cd221 O230 2.378 . S
O222 Cd223 2.385 . S
O222 C227 1.255 . S
Cd223 O222 2.385 . S
Cd223 O224 2.317 . S
O224 Cd223 2.317 . S
O224 C225 1.232 . S
C225 O224 1.232 . S
C225 O226 1.218 . S
O226 C225 1.218 . S
C227 O220 1.275 . S
C227 O222 1.255 . S
C228 O229 1.258 . S
C228 O230 1.256 . S
O229 Cd221 2.381 . S
O229 C228 1.258 . S
O230 Cd221 2.378 . S
O230 C228 1.256 . S
O231 Cd232 2.300 . S
O231 C238 1.275 . S
Cd232 O231 2.300 . S
Cd232 O240 2.381 . S
Cd232 O241 2.378 . S
O233 Cd234 2.385 . S
O233 C238 1.255 . S
Cd234 O233 2.385 . S
Cd234 O235 2.317 . S
O235 Cd234 2.317 . S
O235 C236 1.232 . S
C236 O235 1.232 . S
C236 O237 1.218 . S
O237 C236 1.218 . S
C238 O231 1.275 . S
C238 O233 1.255 . S
C239 O240 1.258 . S
C239 O241 1.256 . S
O240 Cd232 2.381 . S
O240 C239 1.258 . S
O241 Cd232 2.378 . S
O241 C239 1.256 . S
O242 Cd243 2.300 . S
O242 C249 1.275 . S
Cd243 O242 2.300 . S
Cd243 O251 2.381 . S
Cd243 O252 2.378 . S
O244 Cd245 2.385 . S
O244 C249 1.255 . S
Cd245 O244 2.385 . S
Cd245 O246 2.317 . S
O246 Cd245 2.317 . S
O246 C247 1.232 . S
C247 O246 1.232 . S
C247 O248 1.218 . S
O248 C247 1.218 . S
C249 O242 1.275 . S
C249 O244 1.255 . S
C250 O251 1.258 . S
C250 O252 1.256 . S
O251 Cd243 2.381 . S
O251 C250 1.258 . S
O252 Cd243 2.378 . S
O252 C250 1.256 . S
O253 Cd254 2.300 . S
O253 C260 1.275 . S
Cd254 O253 2.300 . S
Cd254 O262 2.381 . S
Cd254 O263 2.378 . S
O255 Cd256 2.385 . S
O255 C260 1.255 . S
Cd256 O255 2.385 . S
Cd256 O257 2.317 . S
O257 Cd256 2.317 . S
O257 C258 1.232 . S
C258 O257 1.232 . S
C258 O259 1.218 . S
O259 C258 1.218 . S
C260 O253 1.275 . S
C260 O255 1.255 . S
C261 O262 1.258 . S
C261 O263 1.256 . S
O262 Cd254 2.381 . S
O262 C261 1.258 . S
O263 Cd254 2.378 . S
O263 C261 1.256 . S
O264 Cd265 2.300 . S
O264 C271 1.275 . S
Cd265 O264 2.300 . S
Cd265 O273 2.381 . S
Cd265 O274 2.378 . S
O266 Cd267 2.385 . S
O266 C271 1.255 . S
Cd267 O266 2.385 . S
Cd267 O268 2.317 . S
O268 Cd267 2.317 . S
O268 C269 1.232 . S
C269 O268 1.232 . S
C269 O270 1.218 . S
O270 C269 1.218 . S
C271 O264 1.275 . S
C271 O266 1.255 . S
C272 O273 1.258 . S
C272 O274 1.256 . S
O273 Cd265 2.381 . S
O273 C272 1.258 . S
O274 Cd265 2.378 . S
O274 C272 1.256 . S
O275 Cd276 2.300 . S
O275 C282 1.275 . S
Cd276 O275 2.300 . S
Cd276 O284 2.381 . S
Cd276 O285 2.378 . S
O277 Cd278 2.385 . S
O277 C282 1.255 . S
Cd278 O277 2.385 . S
Cd278 O279 2.317 . S
O279 Cd278 2.317 . S
O279 C280 1.232 . S
C280 O279 1.232 . S
C280 O281 1.218 . S
O281 C280 1.218 . S
C282 O275 1.275 . S
C282 O277 1.255 . S
C283 O284 1.258 . S
C283 O285 1.256 . S
O284 Cd276 2.381 . S
O284 C283 1.258 . S
O285 Cd276 2.378 . S
O285 C283 1.256 . S
O286 Cd287 2.300 . S
O286 C293 1.275 . S
Cd287 O286 2.300 . S
Cd287 O295 2.381 . S
Cd287 O296 2.378 . S
O288 Cd289 2.385 . S
O288 C293 1.255 . S
Cd289 O288 2.385 . S
Cd289 O290 2.317 . S
O290 Cd289 2.317 . S
O290 C291 1.232 . S
C291 O290 1.232 . S
C291 O292 1.218 . S
O292 C291 1.218 . S
C293 O286 1.275 . S
C293 O288 1.255 . S
C294 O295 1.258 . S
C294 O296 1.256 . S
O295 Cd287 2.381 . S
O295 C294 1.258 . S
O296 Cd287 2.378 . S
O296 C294 1.256 . S
O297 Cd298 2.300 . S
O297 C304 1.275 . S
Cd298 O297 2.300 . S
Cd298 O306 2.381 . S
Cd298 O307 2.378 . S
O299 Cd300 2.385 . S
O299 C304 1.255 . S
Cd300 O299 2.385 . S
Cd300 O301 2.317 . S
O301 Cd300 2.317 . S
O301 C302 1.232 . S
C302 O301 1.232 . S
C302 O303 1.218 . S
O303 C302 1.218 . S
C304 O297 1.275 . S
C304 O299 1.255 . S
C305 O306 1.258 . S
C305 O307 1.256 . S
O306 Cd298 2.381 . S
O306 C305 1.258 . S
O307 Cd298 2.378 . S
O307 C305 1.256 . S
O308 Cd309 2.300 . S
O308 C315 1.275 . S
Cd309 O308 2.300 . S
Cd309 O317 2.381 . S
Cd309 O318 2.378 . S
O310 Cd311 2.385 . S
O310 C315 1.255 . S
Cd311 O310 2.385 . S
Cd311 O312 2.317 . S
O312 Cd311 2.317 . S
O312 C313 1.232 . S
C313 O312 1.232 . S
C313 O314 1.218 . S
O314 C313 1.218 . S
C315 O308 1.275 . S
C315 O310 1.255 . S
C316 O317 1.258 . S
C316 O318 1.256 . S
O317 Cd309 2.381 . S
O317 C316 1.258 . S
O318 Cd309 2.378 . S
O318 C316 1.256 . S
O319 Cd320 2.300 . S
O319 C326 1.275 . S
Cd320 O319 2.300 . S
Cd320 O328 2.381 . S
Cd320 O329 2.378 . S
O321 Cd322 2.385 . S
O321 C326 1.255 . S
Cd322 O321 2.385 . S
Cd322 O323 2.317 . S
O323 Cd322 2.317 . S
O323 C324 1.232 . S
C324 O323 1.232 . S
C324 O325 1.218 . S
O325 C324 1.218 . S
C326 O319 1.275 . S
C326 O321 1.255 . S
C327 O328 1.258 . S
C327 O329 1.256 . S
O328 Cd320 2.381 . S
O328 C327 1.258 . S
O329 Cd320 2.378 . S
O329 C327 1.256 . S
O330 Cd331 2.300 . S
O330 C337 1.275 . S
Cd331 O330 2.300 . S
Cd331 O339 2.381 . S
Cd331 O340 2.378 . S
O332 Cd333 2.385 . S
O332 C337 1.255 . S
Cd333 O332 2.385 . S
Cd333 O334 2.317 . S
O334 Cd333 2.317 . S
O334 C335 1.232 . S
C335 O334 1.232 . S
C335 O336 1.218 . S
O336 C335 1.218 . S
C337 O330 1.275 . S
C337 O332 1.255 . S
C338 O339 1.258 . S
C338 O340 1.256 . S
O339 Cd331 2.381 . S
O339 C338 1.258 . S
O340 Cd331 2.378 . S
O340 C338 1.256 . S
O341 Cd342 2.300 . S
O341 C348 1.275 . S
Cd342 O341 2.300 . S
Cd342 O350 2.381 . S
Cd342 O351 2.378 . S
O343 Cd344 2.385 . S
O343 C348 1.255 . S
Cd344 O343 2.385 . S
Cd344 O345 2.317 . S
O345 Cd344 2.317 . S
O345 C346 1.232 . S
C346 O345 1.232 . S
C346 O347 1.218 . S
O347 C346 1.218 . S
C348 O341 1.275 . S
C348 O343 1.255 . S
C349 O350 1.258 . S
C349 O351 1.256 . S
O350 Cd342 2.381 . S
O350 C349 1.258 . S
O351 Cd342 2.378 . S
O351 C349 1.256 . S
C352 C353 1.391 . S
C352 C354 1.394 . S
C352 H368 0.931 . S
C353 C352 1.391 . S
C353 C357 1.376 . S
C354 C352 1.394 . S
C354 C355 1.369 . S
C354 C358 1.531 . S
C355 C354 1.369 . S
C355 C356 1.410 . S
C355 C363 1.503 . S
C356 C355 1.410 . S
C356 C357 1.392 . S
C356 C359 1.511 . S
C357 C353 1.376 . S
C357 C356 1.392 . S
C357 H369 0.929 . S
C358 C354 1.531 . S
C358 H370 0.960 . S
C358 H371 0.962 . S
C358 H372 0.960 . S
C359 C356 1.511 . S
C359 H373 0.961 . S
C359 H374 0.961 . S
C359 H375 0.961 . S
C360 C361 1.370 . S
C360 C362 1.363 . S
C360 H376 0.931 . S
C361 C360 1.370 . S
C361 C365 1.408 . S
C362 C360 1.363 . S
C362 C363 1.370 . S
C362 C366 1.524 . S
C363 C355 1.503 . S
C363 C362 1.370 . S
C363 C364 1.403 . S
C364 C363 1.403 . S
C364 C365 1.404 . S
C364 C367 1.539 . S
C365 C361 1.408 . S
C365 C364 1.404 . S
C365 H377 0.930 . S
C366 C362 1.524 . S
C366 H378 0.956 . S
C366 H379 0.961 . S
C366 H380 0.961 . S
C367 C364 1.539 . S
C367 H381 0.958 . S
C367 H382 0.961 . S
C367 H383 0.960 . S
H368 C352 0.931 . S
H369 C357 0.929 . S
H370 C358 0.960 . S
H371 C358 0.962 . S
H372 C358 0.960 . S
H373 C359 0.961 . S
H374 C359 0.961 . S
H375 C359 0.961 . S
H376 C360 0.931 . S
H377 C365 0.930 . S
H378 C366 0.956 . S
H379 C366 0.961 . S
H380 C366 0.961 . S
H381 C367 0.958 . S
H382 C367 0.961 . S
H383 C367 0.960 . S
C384 C385 1.391 . S
C384 C386 1.394 . S
C384 H400 0.931 . S
C385 C384 1.391 . S
C385 C389 1.376 . S
C386 C384 1.394 . S
C386 C387 1.369 . S
C386 C390 1.531 1_545 S
C387 C386 1.369 . S
C387 C388 1.410 . S
C387 C395 1.503 1_545 S
C388 C387 1.410 . S
C388 C389 1.392 . S
C388 C391 1.511 . S
C389 C385 1.376 . S
C389 C388 1.392 . S
C389 H401 0.929 . S
C390 C386 1.531 1_565 S
C390 H402 0.960 . S
C390 H403 0.962 . S
C390 H404 0.960 . S
C391 C388 1.511 . S
C391 H405 0.961 . S
C391 H406 0.961 . S
C391 H407 0.961 . S
C392 C393 1.370 . S
C392 C394 1.363 . S
C392 H408 0.931 . S
C393 C392 1.370 . S
C393 C397 1.408 . S
C394 C392 1.363 . S
C394 C395 1.370 . S
C394 C398 1.524 1_565 S
C395 C387 1.503 1_565 S
C395 C394 1.370 . S
C395 C396 1.403 . S
C396 C395 1.403 . S
C396 C397 1.404 . S
C396 C399 1.539 . S
C397 C393 1.408 . S
C397 C396 1.404 . S
C397 H409 0.930 . S
C398 C394 1.524 1_545 S
C398 H410 0.956 . S
C398 H411 0.961 . S
C398 H412 0.961 . S
C399 C396 1.539 . S
C399 H413 0.958 . S
C399 H414 0.961 . S
C399 H415 0.960 . S
H400 C384 0.931 . S
H401 C389 0.929 . S
H402 C390 0.960 . S
H403 C390 0.962 . S
H404 C390 0.960 . S
H405 C391 0.961 . S
H406 C391 0.961 . S
H407 C391 0.961 . S
H408 C392 0.931 . S
H409 C397 0.930 . S
H410 C398 0.956 . S
H411 C398 0.961 . S
H412 C398 0.961 . S
H413 C399 0.958 . S
H414 C399 0.961 . S
H415 C399 0.960 . S
C416 C417 1.391 . S
C416 C418 1.394 . S
C416 H432 0.931 . S
C417 C416 1.391 . S
C417 C421 1.376 . S
C418 C416 1.394 . S
C418 C419 1.369 . S
C418 C422 1.531 . S
C419 C418 1.369 . S
C419 C420 1.410 . S
C419 C427 1.503 . S
C420 C419 1.410 . S
C420 C421 1.392 . S
C420 C423 1.511 . S
C421 C417 1.376 . S
C421 C420 1.392 . S
C421 H433 0.929 . S
C422 C418 1.531 . S
C422 H434 0.960 . S
C422 H435 0.962 . S
C422 H436 0.960 . S
C423 C420 1.511 . S
C423 H437 0.961 . S
C423 H438 0.961 . S
C423 H439 0.961 . S
C424 C425 1.370 . S
C424 C426 1.363 . S
C424 H440 0.931 . S
C425 C424 1.370 . S
C425 C429 1.408 . S
C426 C424 1.363 . S
C426 C427 1.370 . S
C426 C430 1.524 . S
C427 C419 1.503 . S
C427 C426 1.370 . S
C427 C428 1.403 . S
C428 C427 1.403 . S
C428 C429 1.404 . S
C428 C431 1.539 . S
C429 C425 1.408 . S
C429 C428 1.404 . S
C429 H441 0.930 . S
C430 C426 1.524 . S
C430 H442 0.956 . S
C430 H443 0.961 . S
C430 H444 0.961 . S
C431 C428 1.539 . S
C431 H445 0.958 . S
C431 H446 0.961 . S
C431 H447 0.960 . S
H432 C416 0.931 . S
H433 C421 0.929 . S
H434 C422 0.960 . S
H435 C422 0.962 . S
H436 C422 0.960 . S
H437 C423 0.961 . S
H438 C423 0.961 . S
H439 C423 0.961 . S
H440 C424 0.931 . S
H441 C429 0.930 . S
H442 C430 0.956 . S
H443 C430 0.961 . S
H444 C430 0.961 . S
H445 C431 0.958 . S
H446 C431 0.961 . S
H447 C431 0.960 . S
C448 C449 1.391 . S
C448 C450 1.394 . S
C448 H464 0.931 . S
C449 C448 1.391 . S
C449 C453 1.376 . S
C450 C448 1.394 . S
C450 C451 1.369 . S
C450 C454 1.531 1_545 S
C451 C450 1.369 . S
C451 C452 1.393 1_554 S
C451 C459 1.503 1_544 S
C452 C451 1.393 1_556 S
C452 C453 1.358 1_556 S
C452 C455 1.562 . S
C453 C449 1.376 . S
C453 C452 1.358 1_554 S
C453 H465 0.929 . S
C454 C450 1.531 1_565 S
C454 H466 0.960 . S
C454 H467 0.962 . S
C454 H468 0.960 . S
C455 C452 1.562 . S
C455 H469 0.961 . S
C455 H470 0.961 . S
C455 H471 0.961 . S
C456 C457 1.370 . S
C456 C458 1.363 . S
C456 H472 0.931 . S
C457 C456 1.370 . S
C457 C461 1.408 . S
C458 C456 1.363 . S
C458 C459 1.370 . S
C458 C462 1.524 1_556 S
C459 C451 1.503 1_566 S
C459 C458 1.370 . S
C459 C460 1.403 . S
C460 C459 1.403 . S
C460 C461 1.404 . S
C460 C463 1.539 . S
C461 C457 1.408 . S
C461 C460 1.404 . S
C461 H473 0.930 . S
C462 C458 1.524 1_554 S
C462 H474 0.956 . S
C462 H475 0.967 1_565 S
C462 H476 0.949 1_554 S
C463 C460 1.539 . S
C463 H477 0.958 . S
C463 H478 0.961 . S
C463 H479 0.960 1_565 S
H464 C448 0.931 . S
H465 C453 0.929 . S
H466 C454 0.960 . S
H467 C454 0.962 . S
H468 C454 0.960 . S
H469 C455 0.961 . S
H470 C455 0.961 . S
H471 C455 0.961 . S
H472 C456 0.931 . S
H473 C461 0.930 . S
H474 C462 0.956 . S
H475 C462 0.967 1_545 S
H476 C462 0.949 1_556 S
H477 C463 0.958 . S
H478 C463 0.961 . S
H479 C463 0.960 1_545 S
C480 C481 1.391 . S
C480 C482 1.394 . S
C480 H496 0.931 . S
C481 C480 1.391 . S
C481 C485 1.376 . S
C482 C480 1.394 . S
C482 C483 1.369 . S
C482 C486 1.531 . S
C483 C482 1.369 . S
C483 C484 1.410 . S
C483 C491 1.503 . S
C484 C483 1.410 . S
C484 C485 1.392 . S
C484 C487 1.511 . S
C485 C481 1.376 . S
C485 C484 1.392 . S
C485 H497 0.929 . S
C486 C482 1.531 . S
C486 H498 0.960 . S
C486 H499 0.962 . S
C486 H500 0.960 . S
C487 C484 1.511 . S
C487 H501 0.961 . S
C487 H502 0.961 . S
C487 H503 0.961 . S
C488 C489 1.370 . S
C488 C490 1.363 . S
C488 H504 0.931 . S
C489 C488 1.370 . S
C489 C493 1.408 . S
C490 C488 1.363 . S
C490 C491 1.370 . S
C490 C494 1.524 . S
C491 C483 1.503 . S
C491 C490 1.370 . S
C491 C492 1.403 . S
C492 C491 1.403 . S
C492 C493 1.404 . S
C492 C495 1.539 . S
C493 C489 1.408 . S
C493 C492 1.404 . S
C493 H505 0.930 . S
C494 C490 1.524 . S
C494 H506 0.956 . S
C494 H507 0.961 . S
C494 H508 0.961 . S
C495 C492 1.539 . S
C495 H509 0.958 . S
C495 H510 0.961 . S
C495 H511 0.960 . S
H496 C480 0.931 . S
H497 C485 0.929 . S
H498 C486 0.960 . S
H499 C486 0.962 . S
H500 C486 0.960 . S
H501 C487 0.961 . S
H502 C487 0.961 . S
H503 C487 0.961 . S
H504 C488 0.931 . S
H505 C493 0.930 . S
H506 C494 0.956 . S
H507 C494 0.961 . S
H508 C494 0.961 . S
H509 C495 0.958 . S
H510 C495 0.961 . S
H511 C495 0.960 . S
C512 C513 1.391 . S
C512 C514 1.394 . S
C512 H528 0.931 . S
C513 C512 1.391 . S
C513 C517 1.376 . S
C514 C512 1.394 . S
C514 C515 1.369 . S
C514 C518 1.531 . S
C515 C514 1.369 . S
C515 C516 1.410 . S
C515 C523 1.503 1_565 S
C516 C515 1.410 . S
C516 C517 1.392 . S
C516 C519 1.511 1_565 S
C517 C513 1.376 . S
C517 C516 1.392 . S
C517 H529 0.929 . S
C518 C514 1.531 . S
C518 H530 0.960 . S
C518 H531 0.962 . S
C518 H532 0.960 . S
C519 C516 1.511 1_545 S
C519 H533 0.961 . S
C519 H534 0.961 . S
C519 H535 0.961 . S
C520 C521 1.370 . S
C520 C522 1.363 . S
C520 H536 0.931 . S
C521 C520 1.370 . S
C521 C525 1.408 . S
C522 C520 1.363 . S
C522 C523 1.370 . S
C522 C526 1.524 1_545 S
C523 C515 1.503 1_545 S
C523 C522 1.370 . S
C523 C524 1.403 . S
C524 C523 1.403 . S
C524 C525 1.404 . S
C524 C527 1.539 . S
C525 C521 1.408 . S
C525 C524 1.404 . S
C525 H537 0.930 . S
C526 C522 1.524 1_565 S
C526 H538 0.956 . S
C526 H539 0.961 . S
C526 H540 0.961 . S
C527 C524 1.539 . S
C527 H541 0.958 . S
C527 H542 0.961 . S
C527 H543 0.960 . S
H528 C512 0.931 . S
H529 C517 0.929 . S
H530 C518 0.960 . S
H531 C518 0.962 . S
H532 C518 0.960 . S
H533 C519 0.961 . S
H534 C519 0.961 . S
H535 C519 0.961 . S
H536 C520 0.931 . S
H537 C525 0.930 . S
H538 C526 0.956 . S
H539 C526 0.961 . S
H540 C526 0.961 . S
H541 C527 0.958 . S
H542 C527 0.961 . S
H543 C527 0.960 . S
C544 C545 1.391 . S
C544 C546 1.394 . S
C544 H560 0.931 . S
C545 C544 1.391 . S
C545 C549 1.376 . S
C546 C544 1.394 . S
C546 C547 1.369 . S
C546 C550 1.531 . S
C547 C546 1.369 . S
C547 C548 1.410 . S
C547 C555 1.503 . S
C548 C547 1.410 . S
C548 C549 1.392 . S
C548 C551 1.511 . S
C549 C545 1.376 . S
C549 C548 1.392 . S
C549 H561 0.929 . S
C550 C546 1.531 . S
C550 H562 0.960 . S
C550 H563 0.962 . S
C550 H564 0.960 . S
C551 C548 1.511 . S
C551 H565 0.961 . S
C551 H566 0.961 . S
C551 H567 0.961 . S
C552 C553 1.370 . S
C552 C554 1.363 . S
C552 H568 0.931 . S
C553 C552 1.370 . S
C553 C557 1.408 . S
C554 C552 1.363 . S
C554 C555 1.370 . S
C554 C558 1.524 . S
C555 C547 1.503 . S
C555 C554 1.370 . S
C555 C556 1.403 . S
C556 C555 1.403 . S
C556 C557 1.404 . S
C556 C559 1.539 . S
C557 C553 1.408 . S
C557 C556 1.404 . S
C557 H569 0.930 . S
C558 C554 1.524 . S
C558 H570 0.956 . S
C558 H571 0.961 . S
C558 H572 0.961 . S
C559 C556 1.539 . S
C559 H573 0.958 . S
C559 H574 0.961 . S
C559 H575 0.960 . S
H560 C544 0.931 . S
H561 C549 0.929 . S
H562 C550 0.960 . S
H563 C550 0.962 . S
H564 C550 0.960 . S
H565 C551 0.961 . S
H566 C551 0.961 . S
H567 C551 0.961 . S
H568 C552 0.931 . S
H569 C557 0.930 . S
H570 C558 0.956 . S
H571 C558 0.961 . S
H572 C558 0.961 . S
H573 C559 0.958 . S
H574 C559 0.961 . S
H575 C559 0.960 . S
C576 C577 1.391 . S
C576 C578 1.394 . S
C576 H592 0.931 . S
C577 C576 1.391 . S
C577 C581 1.376 . S
C578 C576 1.394 . S
C578 C579 1.369 . S
C578 C582 1.531 . S
C579 C578 1.369 . S
C579 C580 1.410 . S
C579 C587 1.503 1_544 S
C580 C579 1.410 . S
C580 C581 1.392 . S
C580 C583 1.511 1_554 S
C581 C577 1.376 . S
C581 C580 1.392 . S
C581 H593 0.929 . S
C582 C578 1.531 . S
C582 H594 0.946 1_544 S
C582 H595 0.962 1_545 S
C582 H596 0.960 . S
C583 C580 1.511 1_556 S
C583 H597 0.935 1_556 S
C583 H598 0.961 . S
C583 H599 0.961 . S
C584 C585 1.370 . S
C584 C586 1.363 . S
C584 H600 0.931 . S
C585 C584 1.370 . S
C585 C589 1.408 . S
C586 C584 1.363 . S
C586 C587 1.370 . S
C586 C590 1.524 1_556 S
C587 C579 1.503 1_566 S
C587 C586 1.370 . S
C587 C588 1.403 . S
C588 C587 1.403 . S
C588 C589 1.404 . S
C588 C591 1.539 1_565 S
C589 C585 1.408 . S
C589 C588 1.404 . S
C589 H601 0.930 . S
C590 C586 1.524 1_554 S
C590 H602 0.956 . S
C590 H603 0.961 . S
C590 H604 0.961 . S
C591 C588 1.539 1_545 S
C591 H605 0.958 . S
C591 H606 0.961 . S
C591 H607 0.960 . S
H592 C576 0.931 . S
H593 C581 0.929 . S
H594 C582 0.946 1_566 S
H595 C582 0.962 1_565 S
H596 C582 0.960 . S
H597 C583 0.935 1_554 S
H598 C583 0.961 . S
H599 C583 0.961 . S
H600 C584 0.931 . S
H601 C589 0.930 . S
H602 C590 0.956 . S
H603 C590 0.961 . S
H604 C590 0.961 . S
H605 C591 0.958 . S
H606 C591 0.961 . S
H607 C591 0.960 . S
C608 C609 1.391 . S
C608 C610 1.394 . S
C608 H624 0.931 . S
C609 C608 1.391 . S
C609 C613 1.376 . S
C610 C608 1.394 . S
C610 C611 1.369 . S
C610 C614 1.531 . S
C611 C610 1.369 . S
C611 C612 1.410 . S
C611 C619 1.503 . S
C612 C611 1.410 . S
C612 C613 1.392 . S
C612 C615 1.511 . S
C613 C609 1.376 . S
C613 C612 1.392 . S
C613 H625 0.929 . S
C614 C610 1.531 . S
C614 H626 0.960 . S
C614 H627 0.962 . S
C614 H628 0.960 . S
C615 C612 1.511 . S
C615 H629 0.961 . S
C615 H630 0.961 . S
C615 H631 0.961 . S
C616 C617 1.370 . S
C616 C618 1.363 . S
C616 H632 0.931 . S
C617 C616 1.370 . S
C617 C621 1.408 . S
C618 C616 1.363 . S
C618 C619 1.370 . S
C618 C622 1.524 . S
C619 C611 1.503 . S
C619 C618 1.370 . S
C619 C620 1.403 . S
C620 C619 1.403 . S
C620 C621 1.404 . S
C620 C623 1.539 . S
C621 C617 1.408 . S
C621 C620 1.404 . S
C621 H633 0.930 . S
C622 C618 1.524 . S
C622 H634 0.956 . S
C622 H635 0.961 . S
C622 H636 0.961 . S
C623 C620 1.539 . S
C623 H637 0.958 . S
C623 H638 0.961 . S
C623 H639 0.960 . S
H624 C608 0.931 . S
H625 C613 0.929 . S
H626 C614 0.960 . S
H627 C614 0.962 . S
H628 C614 0.960 . S
H629 C615 0.961 . S
H630 C615 0.961 . S
H631 C615 0.961 . S
H632 C616 0.931 . S
H633 C621 0.930 . S
H634 C622 0.956 . S
H635 C622 0.961 . S
H636 C622 0.961 . S
H637 C623 0.958 . S
H638 C623 0.961 . S
H639 C623 0.960 . S
C640 C641 1.391 . S
C640 C642 1.394 . S
C640 H656 0.931 . S
C641 C640 1.391 . S
C641 C645 1.376 . S
C642 C640 1.394 . S
C642 C643 1.369 . S
C642 C646 1.531 1_556 S
C643 C642 1.369 . S
C643 C644 1.410 . S
C643 C651 1.503 1_556 S
C644 C643 1.410 . S
C644 C645 1.392 . S
C644 C647 1.511 . S
C645 C641 1.376 . S
C645 C644 1.392 . S
C645 H657 0.929 . S
C646 C642 1.531 1_554 S
C646 H658 0.960 . S
C646 H659 0.962 . S
C646 H660 0.960 . S
C647 C644 1.511 . S
C647 H661 0.961 . S
C647 H662 0.961 . S
C647 H663 0.961 . S
C648 C649 1.370 . S
C648 C650 1.363 . S
C648 H664 0.931 . S
C649 C648 1.370 . S
C649 C653 1.408 . S
C650 C648 1.363 . S
C650 C651 1.370 . S
C650 C654 1.524 1_554 S
C651 C643 1.503 1_554 S
C651 C650 1.370 . S
C651 C652 1.403 . S
C652 C651 1.403 . S
C652 C653 1.404 . S
C652 C655 1.539 . S
C653 C649 1.408 . S
C653 C652 1.404 . S
C653 H665 0.930 . S
C654 C650 1.524 1_556 S
C654 H666 0.956 . S
C654 H667 0.961 . S
C654 H668 0.961 . S
C655 C652 1.539 . S
C655 H669 0.958 . S
C655 H670 0.961 . S
C655 H671 0.960 . S
H656 C640 0.931 . S
H657 C645 0.929 . S
H658 C646 0.960 . S
H659 C646 0.962 . S
H660 C646 0.960 . S
H661 C647 0.961 . S
H662 C647 0.961 . S
H663 C647 0.961 . S
H664 C648 0.931 . S
H665 C653 0.930 . S
H666 C654 0.956 . S
H667 C654 0.961 . S
H668 C654 0.961 . S
H669 C655 0.958 . S
H670 C655 0.961 . S
H671 C655 0.960 . S
C672 C673 1.391 . S
C672 C674 1.394 . S
C672 H688 0.931 . S
C673 C672 1.391 . S
C673 C677 1.376 . S
C674 C672 1.394 . S
C674 C675 1.369 . S
C674 C678 1.531 . S
C675 C674 1.369 . S
C675 C676 1.410 . S
C675 C683 1.503 . S
C676 C675 1.410 . S
C676 C677 1.392 . S
C676 C679 1.511 . S
C677 C673 1.376 . S
C677 C676 1.392 . S
C677 H689 0.929 . S
C678 C674 1.531 . S
C678 H690 0.960 . S
C678 H691 0.962 . S
C678 H692 0.960 . S
C679 C676 1.511 . S
C679 H693 0.961 . S
C679 H694 0.961 . S
C679 H695 0.961 . S
C680 C681 1.370 . S
C680 C682 1.363 . S
C680 H696 0.931 . S
C681 C680 1.370 . S
C681 C685 1.408 . S
C682 C680 1.363 . S
C682 C683 1.370 . S
C682 C686 1.524 . S
C683 C675 1.503 . S
C683 C682 1.370 . S
C683 C684 1.403 . S
C684 C683 1.403 . S
C684 C685 1.404 . S
C684 C687 1.539 . S
C685 C681 1.408 . S
C685 C684 1.404 . S
C685 H697 0.930 . S
C686 C682 1.524 . S
C686 H698 0.956 . S
C686 H699 0.961 . S
C686 H700 0.961 . S
C687 C684 1.539 . S
C687 H701 0.958 . S
C687 H702 0.961 . S
C687 H703 0.960 . S
H688 C672 0.931 . S
H689 C677 0.929 . S
H690 C678 0.960 . S
H691 C678 0.962 . S
H692 C678 0.960 . S
H693 C679 0.961 . S
H694 C679 0.961 . S
H695 C679 0.961 . S
H696 C680 0.931 . S
H697 C685 0.930 . S
H698 C686 0.956 . S
H699 C686 0.961 . S
H700 C686 0.961 . S
H701 C687 0.958 . S
H702 C687 0.961 . S
H703 C687 0.960 . S
C704 C705 1.391 . S
C704 C706 1.394 . S
C704 H720 0.931 . S
C705 C704 1.391 . S
C705 C709 1.376 . S
C706 C704 1.394 . S
C706 C707 1.369 . S
C706 C710 1.531 . S
C707 C706 1.369 . S
C707 C708 1.410 . S
C707 C715 1.503 . S
C708 C707 1.410 . S
C708 C709 1.392 . S
C708 C711 1.511 . S
C709 C705 1.376 . S
C709 C708 1.392 . S
C709 H721 0.929 . S
C710 C706 1.531 . S
C710 H722 0.960 . S
C710 H723 0.962 . S
C710 H724 0.960 . S
C711 C708 1.511 . S
C711 H725 0.961 . S
C711 H726 0.961 . S
C711 H727 0.961 . S
C712 C713 1.370 . S
C712 C714 1.363 . S
C712 H728 0.931 . S
C713 C712 1.370 . S
C713 C717 1.408 . S
C714 C712 1.363 . S
C714 C715 1.370 . S
C714 C718 1.524 . S
C715 C707 1.503 . S
C715 C714 1.370 . S
C715 C716 1.403 . S
C716 C715 1.403 . S
C716 C717 1.404 . S
C716 C719 1.539 . S
C717 C713 1.408 . S
C717 C716 1.404 . S
C717 H729 0.930 . S
C718 C714 1.524 . S
C718 H730 0.956 . S
C718 H731 0.961 . S
C718 H732 0.961 . S
C719 C716 1.539 . S
C719 H733 0.958 . S
C719 H734 0.961 . S
C719 H735 0.960 . S
H720 C704 0.931 . S
H721 C709 0.929 . S
H722 C710 0.960 . S
H723 C710 0.962 . S
H724 C710 0.960 . S
H725 C711 0.961 . S
H726 C711 0.961 . S
H727 C711 0.961 . S
H728 C712 0.931 . S
H729 C717 0.930 . S
H730 C718 0.956 . S
H731 C718 0.961 . S
H732 C718 0.961 . S
H733 C719 0.958 . S
H734 C719 0.961 . S
H735 C719 0.960 . S
C736 C737 1.391 . S
C736 C738 1.394 . S
C736 H752 0.931 . S
C737 C736 1.391 . S
C737 C741 1.376 . S
C738 C736 1.394 . S
C738 C739 1.369 . S
C738 C742 1.531 . S
C739 C738 1.369 . S
C739 C740 1.410 . S
C739 C747 1.503 . S
C740 C739 1.410 . S
C740 C741 1.392 . S
C740 C743 1.511 . S
C741 C737 1.376 . S
C741 C740 1.392 . S
C741 H753 0.929 . S
C742 C738 1.531 . S
C742 H754 0.960 . S
C742 H755 0.962 . S
C742 H756 0.960 . S
C743 C740 1.511 . S
C743 H757 0.961 . S
C743 H758 0.961 . S
C743 H759 0.961 . S
C744 C745 1.370 . S
C744 C746 1.363 . S
C744 H760 0.931 . S
C745 C744 1.370 . S
C745 C749 1.408 . S
C746 C744 1.363 . S
C746 C747 1.370 . S
C746 C750 1.524 . S
C747 C739 1.503 . S
C747 C746 1.370 . S
C747 C748 1.403 . S
C748 C747 1.403 . S
C748 C749 1.404 . S
C748 C751 1.539 . S
C749 C745 1.408 . S
C749 C748 1.404 . S
C749 H761 0.930 . S
C750 C746 1.524 . S
C750 H762 0.956 . S
C750 H763 0.961 . S
C750 H764 0.961 . S
C751 C748 1.539 . S
C751 H765 0.958 . S
C751 H766 0.961 . S
C751 H767 0.960 . S
H752 C736 0.931 . S
H753 C741 0.929 . S
H754 C742 0.960 . S
H755 C742 0.962 . S
H756 C742 0.960 . S
H757 C743 0.961 . S
H758 C743 0.961 . S
H759 C743 0.961 . S
H760 C744 0.931 . S
H761 C749 0.930 . S
H762 C750 0.956 . S
H763 C750 0.961 . S
H764 C750 0.961 . S
H765 C751 0.958 . S
H766 C751 0.961 . S
H767 C751 0.960 . S
C768 C769 1.391 . S
C768 C770 1.394 . S
C768 H784 0.931 . S
C769 C768 1.391 . S
C769 C773 1.376 . S
C770 C768 1.394 . S
C770 C771 1.369 . S
C770 C774 1.531 . S
C771 C770 1.369 . S
C771 C772 1.410 . S
C771 C779 1.503 1_556 S
C772 C771 1.410 . S
C772 C773 1.392 . S
C772 C775 1.511 1_556 S
C773 C769 1.376 . S
C773 C772 1.392 . S
C773 H785 0.929 . S
C774 C770 1.531 . S
C774 H786 0.960 . S
C774 H787 0.962 . S
C774 H788 0.960 . S
C775 C772 1.511 1_554 S
C775 H789 0.961 . S
C775 H790 0.961 . S
C775 H791 0.961 . S
C776 C777 1.370 . S
C776 C778 1.363 . S
C776 H792 0.931 . S
C777 C776 1.370 . S
C777 C781 1.408 . S
C778 C776 1.363 . S
C778 C779 1.370 . S
C778 C782 1.524 . S
C779 C771 1.503 1_554 S
C779 C778 1.370 . S
C779 C780 1.403 . S
C780 C779 1.403 . S
C780 C781 1.404 . S
C780 C783 1.539 1_554 S
C781 C777 1.408 . S
C781 C780 1.404 . S
C781 H793 0.930 . S
C782 C778 1.524 . S
C782 H794 0.956 . S
C782 H795 0.961 . S
C782 H796 0.961 . S
C783 C780 1.539 1_556 S
C783 H797 0.958 . S
C783 H798 0.961 . S
C783 H799 0.960 . S
H784 C768 0.931 . S
H785 C773 0.929 . S
H786 C774 0.960 . S
H787 C774 0.962 . S
H788 C774 0.960 . S
H789 C775 0.961 . S
H790 C775 0.961 . S
H791 C775 0.961 . S
H792 C776 0.931 . S
H793 C781 0.930 . S
H794 C782 0.956 . S
H795 C782 0.961 . S
H796 C782 0.961 . S
H797 C783 0.958 . S
H798 C783 0.961 . S
H799 C783 0.960 . S
C800 C801 1.391 . S
C800 C802 1.394 . S
C800 H816 0.931 . S
C801 C800 1.391 . S
C801 C805 1.376 . S
C802 C800 1.394 . S
C802 C803 1.369 . S
C802 C806 1.531 . S
C803 C802 1.369 . S
C803 C804 1.410 . S
C803 C811 1.503 . S
C804 C803 1.410 . S
C804 C805 1.392 . S
C804 C807 1.511 . S
C805 C801 1.376 . S
C805 C804 1.392 . S
C805 H817 0.929 . S
C806 C802 1.531 . S
C806 H818 0.960 . S
C806 H819 0.962 . S
C806 H820 0.960 . S
C807 C804 1.511 . S
C807 H821 0.961 . S
C807 H822 0.961 . S
C807 H823 0.961 . S
C808 C809 1.370 . S
C808 C810 1.363 . S
C808 H824 0.931 . S
C809 C808 1.370 . S
C809 C813 1.408 . S
C810 C808 1.363 . S
C810 C811 1.370 . S
C810 C814 1.524 . S
C811 C803 1.503 . S
C811 C810 1.370 . S
C811 C812 1.403 . S
C812 C811 1.403 . S
C812 C813 1.404 . S
C812 C815 1.539 . S
C813 C809 1.408 . S
C813 C812 1.404 . S
C813 H825 0.930 . S
C814 C810 1.524 . S
C814 H826 0.956 . S
C814 H827 0.961 . S
C814 H828 0.961 . S
C815 C812 1.539 . S
C815 H829 0.958 . S
C815 H830 0.961 . S
C815 H831 0.960 . S
H816 C800 0.931 . S
H817 C805 0.929 . S
H818 C806 0.960 . S
H819 C806 0.962 . S
H820 C806 0.960 . S
H821 C807 0.961 . S
H822 C807 0.961 . S
H823 C807 0.961 . S
H824 C808 0.931 . S
H825 C813 0.930 . S
H826 C814 0.956 . S
H827 C814 0.961 . S
H828 C814 0.961 . S
H829 C815 0.958 . S
H830 C815 0.961 . S
H831 C815 0.960 . S
C832 C833 1.391 . S
C832 C834 1.394 . S
C832 H848 0.931 . S
C833 C832 1.391 . S
C833 C837 1.376 . S
C834 C832 1.394 . S
C834 C835 1.369 . S
C834 C838 1.531 . S
C835 C834 1.369 . S
C835 C836 1.410 . S
C835 C843 1.503 . S
C836 C835 1.410 . S
C836 C837 1.392 . S
C836 C839 1.511 . S
C837 C833 1.376 . S
C837 C836 1.392 . S
C837 H849 0.929 . S
C838 C834 1.531 . S
C838 H850 0.960 . S
C838 H851 0.962 . S
C838 H852 0.960 . S
C839 C836 1.511 . S
C839 H853 0.961 . S
C839 H854 0.961 . S
C839 H855 0.961 . S
C840 C841 1.370 . S
C840 C842 1.363 . S
C840 H856 0.931 . S
C841 C840 1.370 . S
C841 C845 1.408 . S
C842 C840 1.363 . S
C842 C843 1.370 . S
C842 C846 1.524 . S
C843 C835 1.503 . S
C843 C842 1.370 . S
C843 C844 1.403 . S
C844 C843 1.403 . S
C844 C845 1.404 . S
C844 C847 1.539 . S
C845 C841 1.408 . S
C845 C844 1.404 . S
C845 H857 0.930 . S
C846 C842 1.524 . S
C846 H858 0.956 . S
C846 H859 0.961 . S
C846 H860 0.961 . S
C847 C844 1.539 . S
C847 H861 0.958 . S
C847 H862 0.961 . S
C847 H863 0.960 . S
H848 C832 0.931 . S
H849 C837 0.929 . S
H850 C838 0.960 . S
H851 C838 0.962 . S
H852 C838 0.960 . S
H853 C839 0.961 . S
H854 C839 0.961 . S
H855 C839 0.961 . S
H856 C840 0.931 . S
H857 C845 0.930 . S
H858 C846 0.956 . S
H859 C846 0.961 . S
H860 C846 0.961 . S
H861 C847 0.958 . S
H862 C847 0.961 . S
H863 C847 0.960 . S
C864 C865 1.391 . S
C864 C866 1.394 . S
C864 H880 0.931 . S
C865 C864 1.391 . S
C865 C869 1.376 . S
C866 C864 1.394 . S
C866 C867 1.369 . S
C866 C870 1.531 . S
C867 C866 1.369 . S
C867 C868 1.410 . S
C867 C875 1.503 . S
C868 C867 1.410 . S
C868 C869 1.392 . S
C868 C871 1.511 . S
C869 C865 1.376 . S
C869 C868 1.392 . S
C869 H881 0.929 . S
C870 C866 1.531 . S
C870 H882 0.960 . S
C870 H883 0.962 . S
C870 H884 0.960 . S
C871 C868 1.511 . S
C871 H885 0.961 . S
C871 H886 0.961 . S
C871 H887 0.961 . S
C872 C873 1.370 . S
C872 C874 1.363 . S
C872 H888 0.931 . S
C873 C872 1.370 . S
C873 C877 1.408 . S
C874 C872 1.363 . S
C874 C875 1.370 . S
C874 C878 1.524 . S
C875 C867 1.503 . S
C875 C874 1.370 . S
C875 C876 1.403 . S
C876 C875 1.403 . S
C876 C877 1.404 . S
C876 C879 1.539 . S
C877 C873 1.408 . S
C877 C876 1.404 . S
C877 H889 0.930 . S
C878 C874 1.524 . S
C878 H890 0.956 . S
C878 H891 0.961 . S
C878 H892 0.961 . S
C879 C876 1.539 . S
C879 H893 0.958 . S
C879 H894 0.961 . S
C879 H895 0.960 . S
H880 C864 0.931 . S
H881 C869 0.929 . S
H882 C870 0.960 . S
H883 C870 0.962 . S
H884 C870 0.960 . S
H885 C871 0.961 . S
H886 C871 0.961 . S
H887 C871 0.961 . S
H888 C872 0.931 . S
H889 C877 0.930 . S
H890 C878 0.956 . S
H891 C878 0.961 . S
H892 C878 0.961 . S
H893 C879 0.958 . S
H894 C879 0.961 . S
H895 C879 0.960 . S
C896 C897 1.391 . S
C896 C898 1.394 . S
C896 H912 0.931 . S
C897 C896 1.391 . S
C897 C901 1.376 . S
C898 C896 1.394 . S
C898 C899 1.369 . S
C898 C902 1.531 . S
C899 C898 1.369 . S
C899 C900 1.410 . S
C899 C907 1.503 . S
C900 C899 1.410 . S
C900 C901 1.392 . S
C900 C903 1.511 . S
C901 C897 1.376 . S
C901 C900 1.392 . S
C901 H913 0.929 . S
C902 C898 1.531 . S
C902 H914 0.960 . S
C902 H915 0.962 . S
C902 H916 0.960 . S
C903 C900 1.511 . S
C903 H917 0.961 . S
C903 H918 0.961 . S
C903 H919 0.961 . S
C904 C905 1.370 . S
C904 C906 1.363 . S
C904 H920 0.931 . S
C905 C904 1.370 . S
C905 C909 1.408 . S
C906 C904 1.363 . S
C906 C907 1.370 . S
C906 C910 1.524 . S
C907 C899 1.503 . S
C907 C906 1.370 . S
C907 C908 1.403 . S
C908 C907 1.403 . S
C908 C909 1.404 . S
C908 C911 1.539 . S
C909 C905 1.408 . S
C909 C908 1.404 . S
C909 H921 0.930 . S
C910 C906 1.524 . S
C910 H922 0.956 . S
C910 H923 0.961 . S
C910 H924 0.961 . S
C911 C908 1.539 . S
C911 H925 0.958 . S
C911 H926 0.961 . S
C911 H927 0.960 . S
H912 C896 0.931 . S
H913 C901 0.929 . S
H914 C902 0.960 . S
H915 C902 0.962 . S
H916 C902 0.960 . S
H917 C903 0.961 . S
H918 C903 0.961 . S
H919 C903 0.961 . S
H920 C904 0.931 . S
H921 C909 0.930 . S
H922 C910 0.956 . S
H923 C910 0.961 . S
H924 C910 0.961 . S
H925 C911 0.958 . S
H926 C911 0.961 . S
H927 C911 0.960 . S
C928 C929 1.391 . S
C928 C930 1.394 . S
C928 H944 0.931 . S
C929 C928 1.391 . S
C929 C933 1.376 . S
C930 C928 1.394 . S
C930 C931 1.369 . S
C930 C934 1.531 . S
C931 C930 1.369 . S
C931 C932 1.410 . S
C931 C939 1.503 . S
C932 C931 1.410 . S
C932 C933 1.392 . S
C932 C935 1.511 . S
C933 C929 1.376 . S
C933 C932 1.392 . S
C933 H945 0.929 . S
C934 C930 1.531 . S
C934 H946 0.960 . S
C934 H947 0.962 . S
C934 H948 0.960 . S
C935 C932 1.511 . S
C935 H949 0.961 . S
C935 H950 0.961 . S
C935 H951 0.961 . S
C936 C937 1.370 . S
C936 C938 1.363 . S
C936 H952 0.931 . S
C937 C936 1.370 . S
C937 C941 1.408 . S
C938 C936 1.363 . S
C938 C939 1.370 . S
C938 C942 1.524 . S
C939 C931 1.503 . S
C939 C938 1.370 . S
C939 C940 1.403 . S
C940 C939 1.403 . S
C940 C941 1.404 . S
C940 C943 1.539 . S
C941 C937 1.408 . S
C941 C940 1.404 . S
C941 H953 0.930 . S
C942 C938 1.524 . S
C942 H954 0.956 . S
C942 H955 0.961 . S
C942 H956 0.961 . S
C943 C940 1.539 . S
C943 H957 0.958 . S
C943 H958 0.961 . S
C943 H959 0.960 . S
H944 C928 0.931 . S
H945 C933 0.929 . S
H946 C934 0.960 . S
H947 C934 0.962 . S
H948 C934 0.960 . S
H949 C935 0.961 . S
H950 C935 0.961 . S
H951 C935 0.961 . S
H952 C936 0.931 . S
H953 C941 0.930 . S
H954 C942 0.956 . S
H955 C942 0.961 . S
H956 C942 0.961 . S
H957 C943 0.958 . S
H958 C943 0.961 . S
H959 C943 0.960 . S
C960 C961 1.391 . S
C960 C962 1.394 . S
C960 H976 0.931 . S
C961 C960 1.391 . S
C961 C965 1.376 . S
C962 C960 1.394 . S
C962 C963 1.369 . S
C962 C966 1.531 . S
C963 C962 1.369 . S
C963 C964 1.410 . S
C963 C971 1.503 . S
C964 C963 1.410 . S
C964 C965 1.392 . S
C964 C967 1.511 . S
C965 C961 1.376 . S
C965 C964 1.392 . S
C965 H977 0.929 . S
C966 C962 1.531 . S
C966 H978 0.960 . S
C966 H979 0.962 . S
C966 H980 0.960 . S
C967 C964 1.511 . S
C967 H981 0.961 . S
C967 H982 0.961 . S
C967 H983 0.961 . S
C968 C969 1.370 . S
C968 C970 1.363 . S
C968 H984 0.931 . S
C969 C968 1.370 . S
C969 C973 1.408 . S
C970 C968 1.363 . S
C970 C971 1.370 . S
C970 C974 1.524 . S
C971 C963 1.503 . S
C971 C970 1.370 . S
C971 C972 1.403 . S
C972 C971 1.403 . S
C972 C973 1.404 . S
C972 C975 1.539 . S
C973 C969 1.408 . S
C973 C972 1.404 . S
C973 H985 0.930 . S
C974 C970 1.524 . S
C974 H986 0.956 . S
C974 H987 0.961 . S
C974 H988 0.961 . S
C975 C972 1.539 . S
C975 H989 0.958 . S
C975 H990 0.961 . S
C975 H991 0.960 . S
H976 C960 0.931 . S
H977 C965 0.929 . S
H978 C966 0.960 . S
H979 C966 0.962 . S
H980 C966 0.960 . S
H981 C967 0.961 . S
H982 C967 0.961 . S
H983 C967 0.961 . S
H984 C968 0.931 . S
H985 C973 0.930 . S
H986 C974 0.956 . S
H987 C974 0.961 . S
H988 C974 0.961 . S
H989 C975 0.958 . S
H990 C975 0.961 . S
H991 C975 0.960 . S
C992 C993 1.391 . S
C992 C994 1.394 . S
C992 H1008 0.931 . S
C993 C992 1.391 . S
C993 C997 1.376 . S
C994 C992 1.394 . S
C994 C995 1.369 . S
C994 C998 1.531 . S
C995 C994 1.369 . S
C995 C996 1.410 . S
C995 C1003 1.503 . S
C996 C995 1.410 . S
C996 C997 1.392 . S
C996 C999 1.511 . S
C997 C993 1.376 . S
C997 C996 1.392 . S
C997 H1009 0.929 . S
C998 C994 1.531 . S
C998 H1010 0.960 . S
C998 H1011 0.962 . S
C998 H1012 0.960 . S
C999 C996 1.511 . S
C999 H1013 0.961 . S
C999 H1014 0.961 . S
C999 H1015 0.961 . S
C1000 C1001 1.370 . S
C1000 C1002 1.363 . S
C1000 H1016 0.931 . S
C1001 C1000 1.370 . S
C1001 C1005 1.408 . S
C1002 C1000 1.363 . S
C1002 C1003 1.370 . S
C1002 C1006 1.524 . S
C1003 C995 1.503 . S
C1003 C1002 1.370 . S
C1003 C1004 1.403 . S
C1004 C1003 1.403 . S
C1004 C1005 1.404 . S
C1004 C1007 1.539 . S
C1005 C1001 1.408 . S
C1005 C1004 1.404 . S
C1005 H1017 0.930 . S
C1006 C1002 1.524 . S
C1006 H1018 0.956 . S
C1006 H1019 0.961 . S
C1006 H1020 0.961 . S
C1007 C1004 1.539 . S
C1007 H1021 0.958 . S
C1007 H1022 0.961 . S
C1007 H1023 0.960 . S
H1008 C992 0.931 . S
H1009 C997 0.929 . S
H1010 C998 0.960 . S
H1011 C998 0.962 . S
H1012 C998 0.960 . S
H1013 C999 0.961 . S
H1014 C999 0.961 . S
H1015 C999 0.961 . S
H1016 C1000 0.931 . S
H1017 C1005 0.930 . S
H1018 C1006 0.956 . S
H1019 C1006 0.961 . S
H1020 C1006 0.961 . S
H1021 C1007 0.958 . S
H1022 C1007 0.961 . S
H1023 C1007 0.960 . S
C1024 C1025 1.391 . S
C1024 C1026 1.394 . S
C1024 H1040 0.931 . S
C1025 C1024 1.391 . S
C1025 C1029 1.376 . S
C1026 C1024 1.394 . S
C1026 C1027 1.369 . S
C1026 C1030 1.531 . S
C1027 C1026 1.369 . S
C1027 C1028 1.410 . S
C1027 C1035 1.503 . S
C1028 C1027 1.410 . S
C1028 C1029 1.392 . S
C1028 C1031 1.511 . S
C1029 C1025 1.376 . S
C1029 C1028 1.392 . S
C1029 H1041 0.929 . S
C1030 C1026 1.531 . S
C1030 H1042 0.960 . S
C1030 H1043 0.962 . S
C1030 H1044 0.960 . S
C1031 C1028 1.511 . S
C1031 H1045 0.961 . S
C1031 H1046 0.961 . S
C1031 H1047 0.961 . S
C1032 C1033 1.370 . S
C1032 C1034 1.363 . S
C1032 H1048 0.931 . S
C1033 C1032 1.370 . S
C1033 C1037 1.408 . S
C1034 C1032 1.363 . S
C1034 C1035 1.370 . S
C1034 C1038 1.524 . S
C1035 C1027 1.503 . S
C1035 C1034 1.370 . S
C1035 C1036 1.403 . S
C1036 C1035 1.403 . S
C1036 C1037 1.404 . S
C1036 C1039 1.539 . S
C1037 C1033 1.408 . S
C1037 C1036 1.404 . S
C1037 H1049 0.930 . S
C1038 C1034 1.524 . S
C1038 H1050 0.956 . S
C1038 H1051 0.961 . S
C1038 H1052 0.961 . S
C1039 C1036 1.539 . S
C1039 H1053 0.958 . S
C1039 H1054 0.961 . S
C1039 H1055 0.960 . S
H1040 C1024 0.931 . S
H1041 C1029 0.929 . S
H1042 C1030 0.960 . S
H1043 C1030 0.962 . S
H1044 C1030 0.960 . S
H1045 C1031 0.961 . S
H1046 C1031 0.961 . S
H1047 C1031 0.961 . S
H1048 C1032 0.931 . S
H1049 C1037 0.930 . S
H1050 C1038 0.956 . S
H1051 C1038 0.961 . S
H1052 C1038 0.961 . S
H1053 C1039 0.958 . S
H1054 C1039 0.961 . S
H1055 C1039 0.960 . S
C1056 C1057 1.391 . S
C1056 C1058 1.394 . S
C1056 H1072 0.931 . S
C1057 C1056 1.391 . S
C1057 C1061 1.376 . S
C1058 C1056 1.394 . S
C1058 C1059 1.369 . S
C1058 C1062 1.531 . S
C1059 C1058 1.369 . S
C1059 C1060 1.410 . S
C1059 C1067 1.503 . S
C1060 C1059 1.410 . S
C1060 C1061 1.392 . S
C1060 C1063 1.511 . S
C1061 C1057 1.376 . S
C1061 C1060 1.392 . S
C1061 H1073 0.929 . S
C1062 C1058 1.531 . S
C1062 H1074 0.960 . S
C1062 H1075 0.962 . S
C1062 H1076 0.960 . S
C1063 C1060 1.511 . S
C1063 H1077 0.961 . S
C1063 H1078 0.961 . S
C1063 H1079 0.961 . S
C1064 C1065 1.370 . S
C1064 C1066 1.363 . S
C1064 H1080 0.931 . S
C1065 C1064 1.370 . S
C1065 C1069 1.408 . S
C1066 C1064 1.363 . S
C1066 C1067 1.370 . S
C1066 C1070 1.524 . S
C1067 C1059 1.503 . S
C1067 C1066 1.370 . S
C1067 C1068 1.403 . S
C1068 C1067 1.403 . S
C1068 C1069 1.404 . S
C1068 C1071 1.539 . S
C1069 C1065 1.408 . S
C1069 C1068 1.404 . S
C1069 H1081 0.930 . S
C1070 C1066 1.524 . S
C1070 H1082 0.956 . S
C1070 H1083 0.961 . S
C1070 H1084 0.961 . S
C1071 C1068 1.539 . S
C1071 H1085 0.958 . S
C1071 H1086 0.961 . S
C1071 H1087 0.960 . S
H1072 C1056 0.931 . S
H1073 C1061 0.929 . S
H1074 C1062 0.960 . S
H1075 C1062 0.962 . S
H1076 C1062 0.960 . S
H1077 C1063 0.961 . S
H1078 C1063 0.961 . S
H1079 C1063 0.961 . S
H1080 C1064 0.931 . S
H1081 C1069 0.930 . S
H1082 C1070 0.956 . S
H1083 C1070 0.961 . S
H1084 C1070 0.961 . S
H1085 C1071 0.958 . S
H1086 C1071 0.961 . S
H1087 C1071 0.960 . S
C1088 C1089 1.391 . S
C1088 C1090 1.394 . S
C1088 H1104 0.931 . S
C1089 C1088 1.391 . S
C1089 C1093 1.376 . S
C1090 C1088 1.394 . S
C1090 C1091 1.369 . S
C1090 C1094 1.531 . S
C1091 C1090 1.369 . S
C1091 C1092 1.410 . S
C1091 C1099 1.503 . S
C1092 C1091 1.410 . S
C1092 C1093 1.392 . S
C1092 C1095 1.511 . S
C1093 C1089 1.376 . S
C1093 C1092 1.392 . S
C1093 H1105 0.929 . S
C1094 C1090 1.531 . S
C1094 H1106 0.960 . S
C1094 H1107 0.962 . S
C1094 H1108 0.960 . S
C1095 C1092 1.511 . S
C1095 H1109 0.961 . S
C1095 H1110 0.961 . S
C1095 H1111 0.961 . S
C1096 C1097 1.370 . S
C1096 C1098 1.363 . S
C1096 H1112 0.931 . S
C1097 C1096 1.370 . S
C1097 C1101 1.408 . S
C1098 C1096 1.363 . S
C1098 C1099 1.370 . S
C1098 C1102 1.524 . S
C1099 C1091 1.503 . S
C1099 C1098 1.370 . S
C1099 C1100 1.403 . S
C1100 C1099 1.403 . S
C1100 C1101 1.404 . S
C1100 C1103 1.539 . S
C1101 C1097 1.408 . S
C1101 C1100 1.404 . S
C1101 H1113 0.930 . S
C1102 C1098 1.524 . S
C1102 H1114 0.956 . S
C1102 H1115 0.961 . S
C1102 H1116 0.961 . S
C1103 C1100 1.539 . S
C1103 H1117 0.958 . S
C1103 H1118 0.961 . S
C1103 H1119 0.960 . S
H1104 C1088 0.931 . S
H1105 C1093 0.929 . S
H1106 C1094 0.960 . S
H1107 C1094 0.962 . S
H1108 C1094 0.960 . S
H1109 C1095 0.961 . S
H1110 C1095 0.961 . S
H1111 C1095 0.961 . S
H1112 C1096 0.931 . S
H1113 C1101 0.930 . S
H1114 C1102 0.956 . S
H1115 C1102 0.961 . S
H1116 C1102 0.961 . S
H1117 C1103 0.958 . S
H1118 C1103 0.961 . S
H1119 C1103 0.960 . S
C1120 C1121 1.391 . S
C1120 C1122 1.394 . S
C1120 H1136 0.931 . S
C1121 C1120 1.391 . S
C1121 C1125 1.376 . S
C1122 C1120 1.394 . S
C1122 C1123 1.369 . S
C1122 C1126 1.531 . S
C1123 C1122 1.369 . S
C1123 C1124 1.410 . S
C1123 C1131 1.503 . S
C1124 C1123 1.410 . S
C1124 C1125 1.392 . S
C1124 C1127 1.511 . S
C1125 C1121 1.376 . S
C1125 C1124 1.392 . S
C1125 H1137 0.929 . S
C1126 C1122 1.531 . S
C1126 H1138 0.960 . S
C1126 H1139 0.962 . S
C1126 H1140 0.960 . S
C1127 C1124 1.511 . S
C1127 H1141 0.961 . S
C1127 H1142 0.961 . S
C1127 H1143 0.961 . S
C1128 C1129 1.370 . S
C1128 C1130 1.363 . S
C1128 H1144 0.931 . S
C1129 C1128 1.370 . S
C1129 C1133 1.408 . S
C1130 C1128 1.363 . S
C1130 C1131 1.370 . S
C1130 C1134 1.524 . S
C1131 C1123 1.503 . S
C1131 C1130 1.370 . S
C1131 C1132 1.403 . S
C1132 C1131 1.403 . S
C1132 C1133 1.404 . S
C1132 C1135 1.539 . S
C1133 C1129 1.408 . S
C1133 C1132 1.404 . S
C1133 H1145 0.930 . S
C1134 C1130 1.524 . S
C1134 H1146 0.956 . S
C1134 H1147 0.961 . S
C1134 H1148 0.961 . S
C1135 C1132 1.539 . S
C1135 H1149 0.958 . S
C1135 H1150 0.961 . S
C1135 H1151 0.960 . S
H1136 C1120 0.931 . S
H1137 C1125 0.929 . S
H1138 C1126 0.960 . S
H1139 C1126 0.962 . S
H1140 C1126 0.960 . S
H1141 C1127 0.961 . S
H1142 C1127 0.961 . S
H1143 C1127 0.961 . S
H1144 C1128 0.931 . S
H1145 C1133 0.930 . S
H1146 C1134 0.956 . S
H1147 C1134 0.961 . S
H1148 C1134 0.961 . S
H1149 C1135 0.958 . S
H1150 C1135 0.961 . S
H1151 C1135 0.960 . S
C1152 C1153 1.391 . S
C1152 C1154 1.394 . S
C1152 H1168 0.931 . S
C1153 C1152 1.391 . S
C1153 C1157 1.376 . S
C1154 C1152 1.394 . S
C1154 C1155 1.369 . S
C1154 C1158 1.531 . S
C1155 C1154 1.369 . S
C1155 C1156 1.410 . S
C1155 C1163 1.503 . S
C1156 C1155 1.410 . S
C1156 C1157 1.392 . S
C1156 C1159 1.511 . S
C1157 C1153 1.376 . S
C1157 C1156 1.392 . S
C1157 H1169 0.929 . S
C1158 C1154 1.531 . S
C1158 H1170 0.960 . S
C1158 H1171 0.962 . S
C1158 H1172 0.960 . S
C1159 C1156 1.511 . S
C1159 H1173 0.961 . S
C1159 H1174 0.961 . S
C1159 H1175 0.961 . S
C1160 C1161 1.370 . S
C1160 C1162 1.363 . S
C1160 H1176 0.931 . S
C1161 C1160 1.370 . S
C1161 C1165 1.408 . S
C1162 C1160 1.363 . S
C1162 C1163 1.370 . S
C1162 C1166 1.524 . S
C1163 C1155 1.503 . S
C1163 C1162 1.370 . S
C1163 C1164 1.403 . S
C1164 C1163 1.403 . S
C1164 C1165 1.404 . S
C1164 C1167 1.539 . S
C1165 C1161 1.408 . S
C1165 C1164 1.404 . S
C1165 H1177 0.930 . S
C1166 C1162 1.524 . S
C1166 H1178 0.956 . S
C1166 H1179 0.961 . S
C1166 H1180 0.961 . S
C1167 C1164 1.539 . S
C1167 H1181 0.958 . S
C1167 H1182 0.961 . S
C1167 H1183 0.960 . S
H1168 C1152 0.931 . S
H1169 C1157 0.929 . S
H1170 C1158 0.960 . S
H1171 C1158 0.962 . S
H1172 C1158 0.960 . S
H1173 C1159 0.961 . S
H1174 C1159 0.961 . S
H1175 C1159 0.961 . S
H1176 C1160 0.931 . S
H1177 C1165 0.930 . S
H1178 C1166 0.956 . S
H1179 C1166 0.961 . S
H1180 C1166 0.961 . S
H1181 C1167 0.958 . S
H1182 C1167 0.961 . S
H1183 C1167 0.960 . S
C1184 C1185 1.391 . S
C1184 C1186 1.394 . S
C1184 H1200 0.931 . S
C1185 C1184 1.391 . S
C1185 C1189 1.376 . S
C1186 C1184 1.394 . S
C1186 C1187 1.369 . S
C1186 C1190 1.531 . S
C1187 C1186 1.369 . S
C1187 C1188 1.410 . S
C1187 C1195 1.503 . S
C1188 C1187 1.410 . S
C1188 C1189 1.392 . S
C1188 C1191 1.511 . S
C1189 C1185 1.376 . S
C1189 C1188 1.392 . S
C1189 H1201 0.929 . S
C1190 C1186 1.531 . S
C1190 H1202 0.960 . S
C1190 H1203 0.962 . S
C1190 H1204 0.960 . S
C1191 C1188 1.511 . S
C1191 H1205 0.961 . S
C1191 H1206 0.961 . S
C1191 H1207 0.961 . S
C1192 C1193 1.370 . S
C1192 C1194 1.363 . S
C1192 H1208 0.931 . S
C1193 C1192 1.370 . S
C1193 C1197 1.408 . S
C1194 C1192 1.363 . S
C1194 C1195 1.370 . S
C1194 C1198 1.524 . S
C1195 C1187 1.503 . S
C1195 C1194 1.370 . S
C1195 C1196 1.403 . S
C1196 C1195 1.403 . S
C1196 C1197 1.404 . S
C1196 C1199 1.539 . S
C1197 C1193 1.408 . S
C1197 C1196 1.404 . S
C1197 H1209 0.930 . S
C1198 C1194 1.524 . S
C1198 H1210 0.956 . S
C1198 H1211 0.961 . S
C1198 H1212 0.961 . S
C1199 C1196 1.539 . S
C1199 H1213 0.958 . S
C1199 H1214 0.961 . S
C1199 H1215 0.960 . S
H1200 C1184 0.931 . S
H1201 C1189 0.929 . S
H1202 C1190 0.960 . S
H1203 C1190 0.962 . S
H1204 C1190 0.960 . S
H1205 C1191 0.961 . S
H1206 C1191 0.961 . S
H1207 C1191 0.961 . S
H1208 C1192 0.931 . S
H1209 C1197 0.930 . S
H1210 C1198 0.956 . S
H1211 C1198 0.961 . S
H1212 C1198 0.961 . S
H1213 C1199 0.958 . S
H1214 C1199 0.961 . S
H1215 C1199 0.960 . S
C1216 C1217 1.391 . S
C1216 C1218 1.394 . S
C1216 H1232 0.931 . S
C1217 C1216 1.391 . S
C1217 C1221 1.376 . S
C1218 C1216 1.394 . S
C1218 C1219 1.369 . S
C1218 C1222 1.531 . S
C1219 C1218 1.369 . S
C1219 C1220 1.410 . S
C1219 C1227 1.503 . S
C1220 C1219 1.410 . S
C1220 C1221 1.392 . S
C1220 C1223 1.511 . S
C1221 C1217 1.376 . S
C1221 C1220 1.392 . S
C1221 H1233 0.929 . S
C1222 C1218 1.531 . S
C1222 H1234 0.960 . S
C1222 H1235 0.962 . S
C1222 H1236 0.960 . S
C1223 C1220 1.511 . S
C1223 H1237 0.961 . S
C1223 H1238 0.961 . S
C1223 H1239 0.961 . S
C1224 C1225 1.370 . S
C1224 C1226 1.363 . S
C1224 H1240 0.931 . S
C1225 C1224 1.370 . S
C1225 C1229 1.408 . S
C1226 C1224 1.363 . S
C1226 C1227 1.370 . S
C1226 C1230 1.524 . S
C1227 C1219 1.503 . S
C1227 C1226 1.370 . S
C1227 C1228 1.403 . S
C1228 C1227 1.403 . S
C1228 C1229 1.404 . S
C1228 C1231 1.539 . S
C1229 C1225 1.408 . S
C1229 C1228 1.404 . S
C1229 H1241 0.930 . S
C1230 C1226 1.524 . S
C1230 H1242 0.956 . S
C1230 H1243 0.961 . S
C1230 H1244 0.961 . S
C1231 C1228 1.539 . S
C1231 H1245 0.958 . S
C1231 H1246 0.961 . S
C1231 H1247 0.960 . S
H1232 C1216 0.931 . S
H1233 C1221 0.929 . S
H1234 C1222 0.960 . S
H1235 C1222 0.962 . S
H1236 C1222 0.960 . S
H1237 C1223 0.961 . S
H1238 C1223 0.961 . S
H1239 C1223 0.961 . S
H1240 C1224 0.931 . S
H1241 C1229 0.930 . S
H1242 C1230 0.956 . S
H1243 C1230 0.961 . S
H1244 C1230 0.961 . S
H1245 C1231 0.958 . S
H1246 C1231 0.961 . S
H1247 C1231 0.960 . S
C1248 C1249 1.391 . S
C1248 C1250 1.394 . S
C1248 H1264 0.931 . S
C1249 C1248 1.391 . S
C1249 C1253 1.376 . S
C1250 C1248 1.394 . S
C1250 C1251 1.369 . S
C1250 C1254 1.531 . S
C1251 C1250 1.369 . S
C1251 C1252 1.410 . S
C1251 C1259 1.503 . S
C1252 C1251 1.410 . S
C1252 C1253 1.392 . S
C1252 C1255 1.511 . S
C1253 C1249 1.376 . S
C1253 C1252 1.392 . S
C1253 H1265 0.929 . S
C1254 C1250 1.531 . S
C1254 H1266 0.960 . S
C1254 H1267 0.962 . S
C1254 H1268 0.960 . S
C1255 C1252 1.511 . S
C1255 H1269 0.961 . S
C1255 H1270 0.961 . S
C1255 H1271 0.961 . S
C1256 C1257 1.370 . S
C1256 C1258 1.363 . S
C1256 H1272 0.931 . S
C1257 C1256 1.370 . S
C1257 C1261 1.408 . S
C1258 C1256 1.363 . S
C1258 C1259 1.370 . S
C1258 C1262 1.524 . S
C1259 C1251 1.503 . S
C1259 C1258 1.370 . S
C1259 C1260 1.403 . S
C1260 C1259 1.403 . S
C1260 C1261 1.404 . S
C1260 C1263 1.539 . S
C1261 C1257 1.408 . S
C1261 C1260 1.404 . S
C1261 H1273 0.930 . S
C1262 C1258 1.524 . S
C1262 H1274 0.956 . S
C1262 H1275 0.961 . S
C1262 H1276 0.961 . S
C1263 C1260 1.539 . S
C1263 H1277 0.958 . S
C1263 H1278 0.961 . S
C1263 H1279 0.960 . S
H1264 C1248 0.931 . S
H1265 C1253 0.929 . S
H1266 C1254 0.960 . S
H1267 C1254 0.962 . S
H1268 C1254 0.960 . S
H1269 C1255 0.961 . S
H1270 C1255 0.961 . S
H1271 C1255 0.961 . S
H1272 C1256 0.931 . S
H1273 C1261 0.930 . S
H1274 C1262 0.956 . S
H1275 C1262 0.961 . S
H1276 C1262 0.961 . S
H1277 C1263 0.958 . S
H1278 C1263 0.961 . S
H1279 C1263 0.960 . S
C1280 C1281 1.391 . S
C1280 C1282 1.394 . S
C1280 H1296 0.931 . S
C1281 C1280 1.391 . S
C1281 C1285 1.376 . S
C1282 C1280 1.394 . S
C1282 C1283 1.369 . S
C1282 C1286 1.531 . S
C1283 C1282 1.369 . S
C1283 C1284 1.410 . S
C1283 C1291 1.503 . S
C1284 C1283 1.410 . S
C1284 C1285 1.392 . S
C1284 C1287 1.511 . S
C1285 C1281 1.376 . S
C1285 C1284 1.392 . S
C1285 H1297 0.929 . S
C1286 C1282 1.531 . S
C1286 H1298 0.960 . S
C1286 H1299 0.962 . S
C1286 H1300 0.960 . S
C1287 C1284 1.511 . S
C1287 H1301 0.961 . S
C1287 H1302 0.961 . S
C1287 H1303 0.961 . S
C1288 C1289 1.370 . S
C1288 C1290 1.363 . S
C1288 H1304 0.931 . S
C1289 C1288 1.370 . S
C1289 C1293 1.408 . S
C1290 C1288 1.363 . S
C1290 C1291 1.370 . S
C1290 C1294 1.524 . S
C1291 C1283 1.503 . S
C1291 C1290 1.370 . S
C1291 C1292 1.403 . S
C1292 C1291 1.403 . S
C1292 C1293 1.404 . S
C1292 C1295 1.539 . S
C1293 C1289 1.408 . S
C1293 C1292 1.404 . S
C1293 H1305 0.930 . S
C1294 C1290 1.524 . S
C1294 H1306 0.956 . S
C1294 H1307 0.961 . S
C1294 H1308 0.961 . S
C1295 C1292 1.539 . S
C1295 H1309 0.958 . S
C1295 H1310 0.961 . S
C1295 H1311 0.960 . S
H1296 C1280 0.931 . S
H1297 C1285 0.929 . S
H1298 C1286 0.960 . S
H1299 C1286 0.962 . S
H1300 C1286 0.960 . S
H1301 C1287 0.961 . S
H1302 C1287 0.961 . S
H1303 C1287 0.961 . S
H1304 C1288 0.931 . S
H1305 C1293 0.930 . S
H1306 C1294 0.956 . S
H1307 C1294 0.961 . S
H1308 C1294 0.961 . S
H1309 C1295 0.958 . S
H1310 C1295 0.961 . S
H1311 C1295 0.960 . S
C1312 C1313 1.391 . S
C1312 C1314 1.394 . S
C1312 H1328 0.931 . S
C1313 C1312 1.391 . S
C1313 C1317 1.376 . S
C1314 C1312 1.394 . S
C1314 C1315 1.369 . S
C1314 C1318 1.531 . S
C1315 C1314 1.369 . S
C1315 C1316 1.410 . S
C1315 C1323 1.503 . S
C1316 C1315 1.410 . S
C1316 C1317 1.392 . S
C1316 C1319 1.511 . S
C1317 C1313 1.376 . S
C1317 C1316 1.392 . S
C1317 H1329 0.929 . S
C1318 C1314 1.531 . S
C1318 H1330 0.960 . S
C1318 H1331 0.962 . S
C1318 H1332 0.960 . S
C1319 C1316 1.511 . S
C1319 H1333 0.961 . S
C1319 H1334 0.961 . S
C1319 H1335 0.961 . S
C1320 C1321 1.370 . S
C1320 C1322 1.363 . S
C1320 H1336 0.931 . S
C1321 C1320 1.370 . S
C1321 C1325 1.408 . S
C1322 C1320 1.363 . S
C1322 C1323 1.370 . S
C1322 C1326 1.524 . S
C1323 C1315 1.503 . S
C1323 C1322 1.370 . S
C1323 C1324 1.403 . S
C1324 C1323 1.403 . S
C1324 C1325 1.404 . S
C1324 C1327 1.539 . S
C1325 C1321 1.408 . S
C1325 C1324 1.404 . S
C1325 H1337 0.930 . S
C1326 C1322 1.524 . S
C1326 H1338 0.956 . S
C1326 H1339 0.961 . S
C1326 H1340 0.961 . S
C1327 C1324 1.539 . S
C1327 H1341 0.958 . S
C1327 H1342 0.961 . S
C1327 H1343 0.960 . S
H1328 C1312 0.931 . S
H1329 C1317 0.929 . S
H1330 C1318 0.960 . S
H1331 C1318 0.962 . S
H1332 C1318 0.960 . S
H1333 C1319 0.961 . S
H1334 C1319 0.961 . S
H1335 C1319 0.961 . S
H1336 C1320 0.931 . S
H1337 C1325 0.930 . S
H1338 C1326 0.956 . S
H1339 C1326 0.961 . S
H1340 C1326 0.961 . S
H1341 C1327 0.958 . S
H1342 C1327 0.961 . S
H1343 C1327 0.960 . S
C1344 C1345 1.391 . S
C1344 C1346 1.394 . S
C1344 H1360 0.931 . S
C1345 C1344 1.391 . S
C1345 C1349 1.376 . S
C1346 C1344 1.394 . S
C1346 C1347 1.369 . S
C1346 C1350 1.531 . S
C1347 C1346 1.369 . S
C1347 C1348 1.410 . S
C1347 C1355 1.503 . S
C1348 C1347 1.410 . S
C1348 C1349 1.392 . S
C1348 C1351 1.511 . S
C1349 C1345 1.376 . S
C1349 C1348 1.392 . S
C1349 H1361 0.929 . S
C1350 C1346 1.531 . S
C1350 H1362 0.960 . S
C1350 H1363 0.962 . S
C1350 H1364 0.960 . S
C1351 C1348 1.511 . S
C1351 H1365 0.961 . S
C1351 H1366 0.961 . S
C1351 H1367 0.961 . S
C1352 C1353 1.370 . S
C1352 C1354 1.363 . S
C1352 H1368 0.931 . S
C1353 C1352 1.370 . S
C1353 C1357 1.408 . S
C1354 C1352 1.363 . S
C1354 C1355 1.370 . S
C1354 C1358 1.524 . S
C1355 C1347 1.503 . S
C1355 C1354 1.370 . S
C1355 C1356 1.403 . S
C1356 C1355 1.403 . S
C1356 C1357 1.404 . S
C1356 C1359 1.539 . S
C1357 C1353 1.408 . S
C1357 C1356 1.404 . S
C1357 H1369 0.930 . S
C1358 C1354 1.524 . S
C1358 H1370 0.956 . S
C1358 H1371 0.961 . S
C1358 H1372 0.961 . S
C1359 C1356 1.539 . S
C1359 H1373 0.958 . S
C1359 H1374 0.961 . S
C1359 H1375 0.960 . S
H1360 C1344 0.931 . S
H1361 C1349 0.929 . S
H1362 C1350 0.960 . S
H1363 C1350 0.962 . S
H1364 C1350 0.960 . S
H1365 C1351 0.961 . S
H1366 C1351 0.961 . S
H1367 C1351 0.961 . S
H1368 C1352 0.931 . S
H1369 C1357 0.930 . S
H1370 C1358 0.956 . S
H1371 C1358 0.961 . S
H1372 C1358 0.961 . S
H1373 C1359 0.958 . S
H1374 C1359 0.961 . S
H1375 C1359 0.960 . S
C1376 C1377 1.391 . S
C1376 C1378 1.394 . S
C1376 H1392 0.931 . S
C1377 C1376 1.391 . S
C1377 C1381 1.376 . S
C1378 C1376 1.394 . S
C1378 C1379 1.369 . S
C1378 C1382 1.531 . S
C1379 C1378 1.369 . S
C1379 C1380 1.410 . S
C1379 C1387 1.503 1_455 S
C1380 C1379 1.410 . S
C1380 C1381 1.392 . S
C1380 C1383 1.511 . S
C1381 C1377 1.376 . S
C1381 C1380 1.392 . S
C1381 H1393 0.929 . S
C1382 C1378 1.531 . S
C1382 H1394 0.960 1_455 S
C1382 H1395 0.962 . S
C1382 H1396 0.960 . S
C1383 C1380 1.511 . S
C1383 H1397 0.961 . S
C1383 H1398 0.961 1_455 S
C1383 H1399 0.961 . S
C1384 C1385 1.370 . S
C1384 C1386 1.363 . S
C1384 H1400 0.931 . S
C1385 C1384 1.370 . S
C1385 C1389 1.408 . S
C1386 C1384 1.363 . S
C1386 C1387 1.370 . S
C1386 C1390 1.524 . S
C1387 C1379 1.503 1_655 S
C1387 C1386 1.370 . S
C1387 C1388 1.403 . S
C1388 C1387 1.403 . S
C1388 C1389 1.404 . S
C1388 C1391 1.539 . S
C1389 C1385 1.408 . S
C1389 C1388 1.404 . S
C1389 H1401 0.930 . S
C1390 C1386 1.524 . S
C1390 H1402 0.984 . S
C1390 H1403 0.961 1_655 S
C1390 H1404 0.961 . S
C1391 C1388 1.539 . S
C1391 H1405 0.958 . S
C1391 H1406 0.961 . S
C1391 H1407 0.970 . S
H1392 C1376 0.931 . S
H1393 C1381 0.929 . S
H1394 C1382 0.960 1_655 S
H1395 C1382 0.962 . S
H1396 C1382 0.960 . S
H1397 C1383 0.961 . S
H1398 C1383 0.961 1_655 S
H1399 C1383 0.961 . S
H1400 C1384 0.931 . S
H1401 C1389 0.930 . S
H1402 C1390 0.984 . S
H1403 C1390 0.961 1_455 S
H1404 C1390 0.961 . S
H1405 C1391 0.958 . S
H1406 C1391 0.961 . S
H1407 C1391 0.970 . S
C1408 C1409 1.391 . S
C1408 C1410 1.394 . S
C1408 H1424 0.931 . S
C1409 C1408 1.391 . S
C1409 C1413 1.376 . S
C1410 C1408 1.394 . S
C1410 C1411 1.369 . S
C1410 C1414 1.531 . S
C1411 C1410 1.369 . S
C1411 C1412 1.410 . S
C1411 C1419 1.503 . S
C1412 C1411 1.410 . S
C1412 C1413 1.392 . S
C1412 C1415 1.511 . S
C1413 C1409 1.376 . S
C1413 C1412 1.392 . S
C1413 H1425 0.929 . S
C1414 C1410 1.531 . S
C1414 H1426 0.960 . S
C1414 H1427 0.962 . S
C1414 H1428 0.960 . S
C1415 C1412 1.511 . S
C1415 H1429 0.961 . S
C1415 H1430 0.961 . S
C1415 H1431 0.961 . S
C1416 C1417 1.370 . S
C1416 C1418 1.363 . S
C1416 H1432 0.931 . S
C1417 C1416 1.370 . S
C1417 C1421 1.408 . S
C1418 C1416 1.363 . S
C1418 C1419 1.370 . S
C1418 C1422 1.524 . S
C1419 C1411 1.503 . S
C1419 C1418 1.370 . S
C1419 C1420 1.403 . S
C1420 C1419 1.403 . S
C1420 C1421 1.404 . S
C1420 C1423 1.539 . S
C1421 C1417 1.408 . S
C1421 C1420 1.404 . S
C1421 H1433 0.930 . S
C1422 C1418 1.524 . S
C1422 H1434 0.956 . S
C1422 H1435 0.961 . S
C1422 H1436 0.961 . S
C1423 C1420 1.539 . S
C1423 H1437 0.958 . S
C1423 H1438 0.961 . S
C1423 H1439 0.960 . S
H1424 C1408 0.931 . S
H1425 C1413 0.929 . S
H1426 C1414 0.960 . S
H1427 C1414 0.962 . S
H1428 C1414 0.960 . S
H1429 C1415 0.961 . S
H1430 C1415 0.961 . S
H1431 C1415 0.961 . S
H1432 C1416 0.931 . S
H1433 C1421 0.930 . S
H1434 C1422 0.956 . S
H1435 C1422 0.961 . S
H1436 C1422 0.961 . S
H1437 C1423 0.958 . S
H1438 C1423 0.961 . S
H1439 C1423 0.960 . S
C1440 C1441 1.391 . S
C1440 C1442 1.394 . S
C1440 H1456 0.931 . S
C1441 C1440 1.391 . S
C1441 C1445 1.376 . S
C1442 C1440 1.394 . S
C1442 C1443 1.369 . S
C1442 C1446 1.531 . S
C1443 C1442 1.369 . S
C1443 C1444 1.410 . S
C1443 C1451 1.503 . S
C1444 C1443 1.410 . S
C1444 C1445 1.392 . S
C1444 C1447 1.511 . S
C1445 C1441 1.376 . S
C1445 C1444 1.392 . S
C1445 H1457 0.929 . S
C1446 C1442 1.531 . S
C1446 H1458 0.960 . S
C1446 H1459 0.962 . S
C1446 H1460 0.960 . S
C1447 C1444 1.511 . S
C1447 H1461 0.961 . S
C1447 H1462 0.961 . S
C1447 H1463 0.961 . S
C1448 C1449 1.370 . S
C1448 C1450 1.363 . S
C1448 H1464 0.931 . S
C1449 C1448 1.370 . S
C1449 C1453 1.408 . S
C1450 C1448 1.363 . S
C1450 C1451 1.370 . S
C1450 C1454 1.524 . S
C1451 C1443 1.503 . S
C1451 C1450 1.370 . S
C1451 C1452 1.403 . S
C1452 C1451 1.403 . S
C1452 C1453 1.404 . S
C1452 C1455 1.539 . S
C1453 C1449 1.408 . S
C1453 C1452 1.404 . S
C1453 H1465 0.930 . S
C1454 C1450 1.524 . S
C1454 H1466 0.956 . S
C1454 H1467 0.961 . S
C1454 H1468 0.961 . S
C1455 C1452 1.539 . S
C1455 H1469 0.958 . S
C1455 H1470 0.961 . S
C1455 H1471 0.960 . S
H1456 C1440 0.931 . S
H1457 C1445 0.929 . S
H1458 C1446 0.960 . S
H1459 C1446 0.962 . S
H1460 C1446 0.960 . S
H1461 C1447 0.961 . S
H1462 C1447 0.961 . S
H1463 C1447 0.961 . S
H1464 C1448 0.931 . S
H1465 C1453 0.930 . S
H1466 C1454 0.956 . S
H1467 C1454 0.961 . S
H1468 C1454 0.961 . S
H1469 C1455 0.958 . S
H1470 C1455 0.961 . S
H1471 C1455 0.960 . S
C1472 C1473 1.391 . S
C1472 C1474 1.394 . S
C1472 H1488 0.931 . S
C1473 C1472 1.391 . S
C1473 C1477 1.376 . S
C1474 C1472 1.394 . S
C1474 C1475 1.369 . S
C1474 C1478 1.531 . S
C1475 C1474 1.369 . S
C1475 C1476 1.410 . S
C1475 C1483 1.503 . S
C1476 C1475 1.410 . S
C1476 C1477 1.392 . S
C1476 C1479 1.511 . S
C1477 C1473 1.376 . S
C1477 C1476 1.392 . S
C1477 H1489 0.929 . S
C1478 C1474 1.531 . S
C1478 H1490 0.960 . S
C1478 H1491 0.962 . S
C1478 H1492 0.960 . S
C1479 C1476 1.511 . S
C1479 H1493 0.961 . S
C1479 H1494 0.961 . S
C1479 H1495 0.961 . S
C1480 C1481 1.370 . S
C1480 C1482 1.363 . S
C1480 H1496 0.931 . S
C1481 C1480 1.370 . S
C1481 C1485 1.408 . S
C1482 C1480 1.363 . S
C1482 C1483 1.370 . S
C1482 C1486 1.524 . S
C1483 C1475 1.503 . S
C1483 C1482 1.370 . S
C1483 C1484 1.403 . S
C1484 C1483 1.403 . S
C1484 C1485 1.404 . S
C1484 C1487 1.539 . S
C1485 C1481 1.408 . S
C1485 C1484 1.404 . S
C1485 H1497 0.930 . S
C1486 C1482 1.524 . S
C1486 H1498 0.956 . S
C1486 H1499 0.961 . S
C1486 H1500 0.961 . S
C1487 C1484 1.539 . S
C1487 H1501 0.958 . S
C1487 H1502 0.961 . S
C1487 H1503 0.960 . S
H1488 C1472 0.931 . S
H1489 C1477 0.929 . S
H1490 C1478 0.960 . S
H1491 C1478 0.962 . S
H1492 C1478 0.960 . S
H1493 C1479 0.961 . S
H1494 C1479 0.961 . S
H1495 C1479 0.961 . S
H1496 C1480 0.931 . S
H1497 C1485 0.930 . S
H1498 C1486 0.956 . S
H1499 C1486 0.961 . S
H1500 C1486 0.961 . S
H1501 C1487 0.958 . S
H1502 C1487 0.961 . S
H1503 C1487 0.960 . S
C1504 C1505 1.391 . S
C1504 C1506 1.394 . S
C1504 H1520 0.931 . S
C1505 C1504 1.391 . S
C1505 C1509 1.376 . S
C1506 C1504 1.394 . S
C1506 C1507 1.369 . S
C1506 C1510 1.531 . S
C1507 C1506 1.369 . S
C1507 C1508 1.410 . S
C1507 C1515 1.503 1_655 S
C1508 C1507 1.410 . S
C1508 C1509 1.392 . S
C1508 C1511 1.511 . S
C1509 C1505 1.376 . S
C1509 C1508 1.392 . S
C1509 H1521 0.929 . S
C1510 C1506 1.531 . S
C1510 H1522 0.960 1_655 S
C1510 H1523 0.962 . S
C1510 H1524 0.960 . S
C1511 C1508 1.511 . S
C1511 H1525 0.961 . S
C1511 H1526 0.961 1_655 S
C1511 H1527 0.961 . S
C1512 C1513 1.370 . S
C1512 C1514 1.363 . S
C1512 H1528 0.931 . S
C1513 C1512 1.370 . S
C1513 C1517 1.408 . S
C1514 C1512 1.363 . S
C1514 C1515 1.370 . S
C1514 C1518 1.524 . S
C1515 C1507 1.503 1_455 S
C1515 C1514 1.370 . S
C1515 C1516 1.403 . S
C1516 C1515 1.403 . S
C1516 C1517 1.404 . S
C1516 C1519 1.539 . S
C1517 C1513 1.408 . S
C1517 C1516 1.404 . S
C1517 H1529 0.930 . S
C1518 C1514 1.524 . S
C1518 H1530 0.984 . S
C1518 H1531 0.961 1_455 S
C1518 H1532 0.961 . S
C1519 C1516 1.539 . S
C1519 H1533 0.958 . S
C1519 H1534 0.961 . S
C1519 H1535 0.970 . S
H1520 C1504 0.931 . S
H1521 C1509 0.929 . S
H1522 C1510 0.960 1_455 S
H1523 C1510 0.962 . S
H1524 C1510 0.960 . S
H1525 C1511 0.961 . S
H1526 C1511 0.961 1_455 S
H1527 C1511 0.961 . S
H1528 C1512 0.931 . S
H1529 C1517 0.930 . S
H1530 C1518 0.984 . S
H1531 C1518 0.961 1_655 S
H1532 C1518 0.961 . S
H1533 C1519 0.958 . S
H1534 C1519 0.961 . S
H1535 C1519 0.970 . S
C1536 C1537 1.391 . S
C1536 C1538 1.394 . S
C1536 H1552 0.931 . S
C1537 C1536 1.391 . S
C1537 C1541 1.376 . S
C1538 C1536 1.394 . S
C1538 C1539 1.369 . S
C1538 C1542 1.531 . S
C1539 C1538 1.369 . S
C1539 C1540 1.410 . S
C1539 C1547 1.503 . S
C1540 C1539 1.410 . S
C1540 C1541 1.392 . S
C1540 C1543 1.511 . S
C1541 C1537 1.376 . S
C1541 C1540 1.392 . S
C1541 H1553 0.929 . S
C1542 C1538 1.531 . S
C1542 H1554 0.960 . S
C1542 H1555 0.962 . S
C1542 H1556 0.960 . S
C1543 C1540 1.511 . S
C1543 H1557 0.961 . S
C1543 H1558 0.961 . S
C1543 H1559 0.961 . S
C1544 C1545 1.370 . S
C1544 C1546 1.363 . S
C1544 H1560 0.931 . S
C1545 C1544 1.370 . S
C1545 C1549 1.408 . S
C1546 C1544 1.363 . S
C1546 C1547 1.370 . S
C1546 C1550 1.524 . S
C1547 C1539 1.503 . S
C1547 C1546 1.370 . S
C1547 C1548 1.403 . S
C1548 C1547 1.403 . S
C1548 C1549 1.404 . S
C1548 C1551 1.539 . S
C1549 C1545 1.408 . S
C1549 C1548 1.404 . S
C1549 H1561 0.930 . S
C1550 C1546 1.524 . S
C1550 H1562 0.956 . S
C1550 H1563 0.961 . S
C1550 H1564 0.961 . S
C1551 C1548 1.539 . S
C1551 H1565 0.958 . S
C1551 H1566 0.961 . S
C1551 H1567 0.960 . S
H1552 C1536 0.931 . S
H1553 C1541 0.929 . S
H1554 C1542 0.960 . S
H1555 C1542 0.962 . S
H1556 C1542 0.960 . S
H1557 C1543 0.961 . S
H1558 C1543 0.961 . S
H1559 C1543 0.961 . S
H1560 C1544 0.931 . S
H1561 C1549 0.930 . S
H1562 C1550 0.956 . S
H1563 C1550 0.961 . S
H1564 C1550 0.961 . S
H1565 C1551 0.958 . S
H1566 C1551 0.961 . S
H1567 C1551 0.960 . S
C1568 C1569 1.391 . S
C1568 C1570 1.394 . S
C1568 H1584 0.931 . S
C1569 C1568 1.391 . S
C1569 C1573 1.376 . S
C1570 C1568 1.394 . S
C1570 C1571 1.369 . S
C1570 C1574 1.531 . S
C1571 C1570 1.369 . S
C1571 C1572 1.410 . S
C1571 C1579 1.503 . S
C1572 C1571 1.410 . S
C1572 C1573 1.392 . S
C1572 C1575 1.511 . S
C1573 C1569 1.376 . S
C1573 C1572 1.392 . S
C1573 H1585 0.929 . S
C1574 C1570 1.531 . S
C1574 H1586 0.960 . S
C1574 H1587 0.962 . S
C1574 H1588 0.960 . S
C1575 C1572 1.511 . S
C1575 H1589 0.961 . S
C1575 H1590 0.961 . S
C1575 H1591 0.961 . S
C1576 C1577 1.370 . S
C1576 C1578 1.363 . S
C1576 H1592 0.931 . S
C1577 C1576 1.370 . S
C1577 C1581 1.408 . S
C1578 C1576 1.363 . S
C1578 C1579 1.370 . S
C1578 C1582 1.524 . S
C1579 C1571 1.503 . S
C1579 C1578 1.370 . S
C1579 C1580 1.403 . S
C1580 C1579 1.403 . S
C1580 C1581 1.404 . S
C1580 C1583 1.539 . S
C1581 C1577 1.408 . S
C1581 C1580 1.404 . S
C1581 H1593 0.930 . S
C1582 C1578 1.524 . S
C1582 H1594 0.956 . S
C1582 H1595 0.961 . S
C1582 H1596 0.961 . S
C1583 C1580 1.539 . S
C1583 H1597 0.958 . S
C1583 H1598 0.961 . S
C1583 H1599 0.960 . S
H1584 C1568 0.931 . S
H1585 C1573 0.929 . S
H1586 C1574 0.960 . S
H1587 C1574 0.962 . S
H1588 C1574 0.960 . S
H1589 C1575 0.961 . S
H1590 C1575 0.961 . S
H1591 C1575 0.961 . S
H1592 C1576 0.931 . S
H1593 C1581 0.930 . S
H1594 C1582 0.956 . S
H1595 C1582 0.961 . S
H1596 C1582 0.961 . S
H1597 C1583 0.958 . S
H1598 C1583 0.961 . S
H1599 C1583 0.960 . S
C1600 C1601 1.391 . S
C1600 C1602 1.394 . S
C1600 H1616 0.931 . S
C1601 C1600 1.391 . S
C1601 C1605 1.376 . S
C1602 C1600 1.394 . S
C1602 C1603 1.369 . S
C1602 C1606 1.531 . S
C1603 C1602 1.369 . S
C1603 C1604 1.410 . S
C1603 C1611 1.503 . S
C1604 C1603 1.410 . S
C1604 C1605 1.392 . S
C1604 C1607 1.511 . S
C1605 C1601 1.376 . S
C1605 C1604 1.392 . S
C1605 H1617 0.929 . S
C1606 C1602 1.531 . S
C1606 H1618 0.960 . S
C1606 H1619 0.962 . S
C1606 H1620 0.960 . S
C1607 C1604 1.511 . S
C1607 H1621 0.961 . S
C1607 H1622 0.961 . S
C1607 H1623 0.961 . S
C1608 C1609 1.370 . S
C1608 C1610 1.363 . S
C1608 H1624 0.931 . S
C1609 C1608 1.370 . S
C1609 C1613 1.408 . S
C1610 C1608 1.363 . S
C1610 C1611 1.370 . S
C1610 C1614 1.524 . S
C1611 C1603 1.503 . S
C1611 C1610 1.370 . S
C1611 C1612 1.403 . S
C1612 C1611 1.403 . S
C1612 C1613 1.404 . S
C1612 C1615 1.539 . S
C1613 C1609 1.408 . S
C1613 C1612 1.404 . S
C1613 H1625 0.930 . S
C1614 C1610 1.524 . S
C1614 H1626 0.956 . S
C1614 H1627 0.961 . S
C1614 H1628 0.961 . S
C1615 C1612 1.539 . S
C1615 H1629 0.958 . S
C1615 H1630 0.961 . S
C1615 H1631 0.960 . S
H1616 C1600 0.931 . S
H1617 C1605 0.929 . S
H1618 C1606 0.960 . S
H1619 C1606 0.962 . S
H1620 C1606 0.960 . S
H1621 C1607 0.961 . S
H1622 C1607 0.961 . S
H1623 C1607 0.961 . S
H1624 C1608 0.931 . S
H1625 C1613 0.930 . S
H1626 C1614 0.956 . S
H1627 C1614 0.961 . S
H1628 C1614 0.961 . S
H1629 C1615 0.958 . S
H1630 C1615 0.961 . S
H1631 C1615 0.960 . S
C1632 C1633 1.391 . S
C1632 C1634 1.394 . S
C1632 H1648 0.931 . S
C1633 C1632 1.391 . S
C1633 C1637 1.376 . S
C1634 C1632 1.394 . S
C1634 C1635 1.369 . S
C1634 C1638 1.531 . S
C1635 C1634 1.369 . S
C1635 C1636 1.410 . S
C1635 C1643 1.503 . S
C1636 C1635 1.410 . S
C1636 C1637 1.392 . S
C1636 C1639 1.511 . S
C1637 C1633 1.376 . S
C1637 C1636 1.392 . S
C1637 H1649 0.929 . S
C1638 C1634 1.531 . S
C1638 H1650 0.960 . S
C1638 H1651 0.962 . S
C1638 H1652 0.960 . S
C1639 C1636 1.511 . S
C1639 H1653 0.961 . S
C1639 H1654 0.961 . S
C1639 H1655 0.961 . S
C1640 C1641 1.370 . S
C1640 C1642 1.363 . S
C1640 H1656 0.931 . S
C1641 C1640 1.370 . S
C1641 C1645 1.408 . S
C1642 C1640 1.363 . S
C1642 C1643 1.370 . S
C1642 C1646 1.524 . S
C1643 C1635 1.503 . S
C1643 C1642 1.370 . S
C1643 C1644 1.403 . S
C1644 C1643 1.403 . S
C1644 C1645 1.404 . S
C1644 C1647 1.539 . S
C1645 C1641 1.408 . S
C1645 C1644 1.404 . S
C1645 H1657 0.930 . S
C1646 C1642 1.524 . S
C1646 H1658 0.956 . S
C1646 H1659 0.961 . S
C1646 H1660 0.961 . S
C1647 C1644 1.539 . S
C1647 H1661 0.958 . S
C1647 H1662 0.961 . S
C1647 H1663 0.960 . S
H1648 C1632 0.931 . S
H1649 C1637 0.929 . S
H1650 C1638 0.960 . S
H1651 C1638 0.962 . S
H1652 C1638 0.960 . S
H1653 C1639 0.961 . S
H1654 C1639 0.961 . S
H1655 C1639 0.961 . S
H1656 C1640 0.931 . S
H1657 C1645 0.930 . S
H1658 C1646 0.956 . S
H1659 C1646 0.961 . S
H1660 C1646 0.961 . S
H1661 C1647 0.958 . S
H1662 C1647 0.961 . S
H1663 C1647 0.960 . S
C1664 C1665 1.391 . S
C1664 C1666 1.394 . S
C1664 H1680 0.931 . S
C1665 C1664 1.391 . S
C1665 C1669 1.376 . S
C1666 C1664 1.394 . S
C1666 C1667 1.369 . S
C1666 C1670 1.531 . S
C1667 C1666 1.369 . S
C1667 C1668 1.410 . S
C1667 C1675 1.503 . S
C1668 C1667 1.410 . S
C1668 C1669 1.392 . S
C1668 C1671 1.511 . S
C1669 C1665 1.376 . S
C1669 C1668 1.392 . S
C1669 H1681 0.929 . S
C1670 C1666 1.531 . S
C1670 H1682 0.960 . S
C1670 H1683 0.962 . S
C1670 H1684 0.960 . S
C1671 C1668 1.511 . S
C1671 H1685 0.961 . S
C1671 H1686 0.961 . S
C1671 H1687 0.961 . S
C1672 C1673 1.370 . S
C1672 C1674 1.363 . S
C1672 H1688 0.931 . S
C1673 C1672 1.370 . S
C1673 C1677 1.408 . S
C1674 C1672 1.363 . S
C1674 C1675 1.370 . S
C1674 C1678 1.524 . S
C1675 C1667 1.503 . S
C1675 C1674 1.370 . S
C1675 C1676 1.403 . S
C1676 C1675 1.403 . S
C1676 C1677 1.404 . S
C1676 C1679 1.539 . S
C1677 C1673 1.408 . S
C1677 C1676 1.404 . S
C1677 H1689 0.930 . S
C1678 C1674 1.524 . S
C1678 H1690 0.956 . S
C1678 H1691 0.961 . S
C1678 H1692 0.961 . S
C1679 C1676 1.539 . S
C1679 H1693 0.958 . S
C1679 H1694 0.961 . S
C1679 H1695 0.960 . S
H1680 C1664 0.931 . S
H1681 C1669 0.929 . S
H1682 C1670 0.960 . S
H1683 C1670 0.962 . S
H1684 C1670 0.960 . S
H1685 C1671 0.961 . S
H1686 C1671 0.961 . S
H1687 C1671 0.961 . S
H1688 C1672 0.931 . S
H1689 C1677 0.930 . S
H1690 C1678 0.956 . S
H1691 C1678 0.961 . S
H1692 C1678 0.961 . S
H1693 C1679 0.958 . S
H1694 C1679 0.961 . S
H1695 C1679 0.960 . S
C1696 C1697 1.391 . S
C1696 C1698 1.394 . S
C1696 H1712 0.931 . S
C1697 C1696 1.391 . S
C1697 C1701 1.376 . S
C1698 C1696 1.394 . S
C1698 C1699 1.369 . S
C1698 C1702 1.531 . S
C1699 C1698 1.369 . S
C1699 C1700 1.410 . S
C1699 C1707 1.503 . S
C1700 C1699 1.410 . S
C1700 C1701 1.392 . S
C1700 C1703 1.511 . S
C1701 C1697 1.376 . S
C1701 C1700 1.392 . S
C1701 H1713 0.929 . S
C1702 C1698 1.531 . S
C1702 H1714 0.960 . S
C1702 H1715 0.962 . S
C1702 H1716 0.960 . S
C1703 C1700 1.511 . S
C1703 H1717 0.961 . S
C1703 H1718 0.961 . S
C1703 H1719 0.961 . S
C1704 C1705 1.370 . S
C1704 C1706 1.363 . S
C1704 H1720 0.931 . S
C1705 C1704 1.370 . S
C1705 C1709 1.408 . S
C1706 C1704 1.363 . S
C1706 C1707 1.370 . S
C1706 C1710 1.524 . S
C1707 C1699 1.503 . S
C1707 C1706 1.370 . S
C1707 C1708 1.403 . S
C1708 C1707 1.403 . S
C1708 C1709 1.404 . S
C1708 C1711 1.539 . S
C1709 C1705 1.408 . S
C1709 C1708 1.404 . S
C1709 H1721 0.930 . S
C1710 C1706 1.524 . S
C1710 H1722 0.956 . S
C1710 H1723 0.961 . S
C1710 H1724 0.961 . S
C1711 C1708 1.539 . S
C1711 H1725 0.958 . S
C1711 H1726 0.961 . S
C1711 H1727 0.960 . S
H1712 C1696 0.931 . S
H1713 C1701 0.929 . S
H1714 C1702 0.960 . S
H1715 C1702 0.962 . S
H1716 C1702 0.960 . S
H1717 C1703 0.961 . S
H1718 C1703 0.961 . S
H1719 C1703 0.961 . S
H1720 C1704 0.931 . S
H1721 C1709 0.930 . S
H1722 C1710 0.956 . S
H1723 C1710 0.961 . S
H1724 C1710 0.961 . S
H1725 C1711 0.958 . S
H1726 C1711 0.961 . S
H1727 C1711 0.960 . S
C1728 C1729 1.391 . S
C1728 C1730 1.394 . S
C1728 H1744 0.931 . S
C1729 C1728 1.391 . S
C1729 C1733 1.376 . S
C1730 C1728 1.394 . S
C1730 C1731 1.369 . S
C1730 C1734 1.531 . S
C1731 C1730 1.369 . S
C1731 C1732 1.410 . S
C1731 C1739 1.503 . S
C1732 C1731 1.410 . S
C1732 C1733 1.392 . S
C1732 C1735 1.511 . S
C1733 C1729 1.376 . S
C1733 C1732 1.392 . S
C1733 H1745 0.929 . S
C1734 C1730 1.531 . S
C1734 H1746 0.960 . S
C1734 H1747 0.962 . S
C1734 H1748 0.960 . S
C1735 C1732 1.511 . S
C1735 H1749 0.961 . S
C1735 H1750 0.961 . S
C1735 H1751 0.961 . S
C1736 C1737 1.370 . S
C1736 C1738 1.363 . S
C1736 H1752 0.931 . S
C1737 C1736 1.370 . S
C1737 C1741 1.408 . S
C1738 C1736 1.363 . S
C1738 C1739 1.370 . S
C1738 C1742 1.524 . S
C1739 C1731 1.503 . S
C1739 C1738 1.370 . S
C1739 C1740 1.403 . S
C1740 C1739 1.403 . S
C1740 C1741 1.404 . S
C1740 C1743 1.539 . S
C1741 C1737 1.408 . S
C1741 C1740 1.404 . S
C1741 H1753 0.930 . S
C1742 C1738 1.524 . S
C1742 H1754 0.956 . S
C1742 H1755 0.961 . S
C1742 H1756 0.961 . S
C1743 C1740 1.539 . S
C1743 H1757 0.958 . S
C1743 H1758 0.961 . S
C1743 H1759 0.960 . S
H1744 C1728 0.931 . S
H1745 C1733 0.929 . S
H1746 C1734 0.960 . S
H1747 C1734 0.962 . S
H1748 C1734 0.960 . S
H1749 C1735 0.961 . S
H1750 C1735 0.961 . S
H1751 C1735 0.961 . S
H1752 C1736 0.931 . S
H1753 C1741 0.930 . S
H1754 C1742 0.956 . S
H1755 C1742 0.961 . S
H1756 C1742 0.961 . S
H1757 C1743 0.958 . S
H1758 C1743 0.961 . S
H1759 C1743 0.960 . S
C1760 C1761 1.391 . S
C1760 C1762 1.394 . S
C1760 H1776 0.931 . S
C1761 C1760 1.391 . S
C1761 C1765 1.376 . S
C1762 C1760 1.394 . S
C1762 C1763 1.369 . S
C1762 C1766 1.531 . S
C1763 C1762 1.369 . S
C1763 C1764 1.410 . S
C1763 C1771 1.503 . S
C1764 C1763 1.410 . S
C1764 C1765 1.392 . S
C1764 C1767 1.511 . S
C1765 C1761 1.376 . S
C1765 C1764 1.392 . S
C1765 H1777 0.929 . S
C1766 C1762 1.531 . S
C1766 H1778 0.960 . S
C1766 H1779 0.962 . S
C1766 H1780 0.960 . S
C1767 C1764 1.511 . S
C1767 H1781 0.961 . S
C1767 H1782 0.961 . S
C1767 H1783 0.961 . S
C1768 C1769 1.370 . S
C1768 C1770 1.363 . S
C1768 H1784 0.931 . S
C1769 C1768 1.370 . S
C1769 C1773 1.408 . S
C1770 C1768 1.363 . S
C1770 C1771 1.370 . S
C1770 C1774 1.524 . S
C1771 C1763 1.503 . S
C1771 C1770 1.370 . S
C1771 C1772 1.403 . S
C1772 C1771 1.403 . S
C1772 C1773 1.404 . S
C1772 C1775 1.539 . S
C1773 C1769 1.408 . S
C1773 C1772 1.404 . S
C1773 H1785 0.930 . S
C1774 C1770 1.524 . S
C1774 H1786 0.956 . S
C1774 H1787 0.961 . S
C1774 H1788 0.961 . S
C1775 C1772 1.539 . S
C1775 H1789 0.958 . S
C1775 H1790 0.961 . S
C1775 H1791 0.960 . S
H1776 C1760 0.931 . S
H1777 C1765 0.929 . S
H1778 C1766 0.960 . S
H1779 C1766 0.962 . S
H1780 C1766 0.960 . S
H1781 C1767 0.961 . S
H1782 C1767 0.961 . S
H1783 C1767 0.961 . S
H1784 C1768 0.931 . S
H1785 C1773 0.930 . S
H1786 C1774 0.956 . S
H1787 C1774 0.961 . S
H1788 C1774 0.961 . S
H1789 C1775 0.958 . S
H1790 C1775 0.961 . S
H1791 C1775 0.960 . S
C1792 C1793 1.391 . S
C1792 C1794 1.394 . S
C1792 H1808 0.931 . S
C1793 C1792 1.391 . S
C1793 C1797 1.376 . S
C1794 C1792 1.394 . S
C1794 C1795 1.369 . S
C1794 C1798 1.531 . S
C1795 C1794 1.369 . S
C1795 C1796 1.410 . S
C1795 C1803 1.503 1_455 S
C1796 C1795 1.410 . S
C1796 C1797 1.392 . S
C1796 C1799 1.511 . S
C1797 C1793 1.376 . S
C1797 C1796 1.392 . S
C1797 H1809 0.929 . S
C1798 C1794 1.531 . S
C1798 H1810 0.960 1_455 S
C1798 H1811 0.962 . S
C1798 H1812 0.960 . S
C1799 C1796 1.511 . S
C1799 H1813 0.961 . S
C1799 H1814 0.961 1_455 S
C1799 H1815 0.961 . S
C1800 C1801 1.370 . S
C1800 C1802 1.363 . S
C1800 H1816 0.931 . S
C1801 C1800 1.370 . S
C1801 C1805 1.408 . S
C1802 C1800 1.363 . S
C1802 C1803 1.370 . S
C1802 C1806 1.524 . S
C1803 C1795 1.503 1_655 S
C1803 C1802 1.370 . S
C1803 C1804 1.403 . S
C1804 C1803 1.403 . S
C1804 C1805 1.404 . S
C1804 C1807 1.539 . S
C1805 C1801 1.408 . S
C1805 C1804 1.404 . S
C1805 H1817 0.930 . S
C1806 C1802 1.524 . S
C1806 H1818 0.984 . S
C1806 H1819 0.961 1_655 S
C1806 H1820 0.961 . S
C1807 C1804 1.539 . S
C1807 H1821 0.958 . S
C1807 H1822 0.961 . S
C1807 H1823 0.970 . S
H1808 C1792 0.931 . S
H1809 C1797 0.929 . S
H1810 C1798 0.960 1_655 S
H1811 C1798 0.962 . S
H1812 C1798 0.960 . S
H1813 C1799 0.961 . S
H1814 C1799 0.961 1_655 S
H1815 C1799 0.961 . S
H1816 C1800 0.931 . S
H1817 C1805 0.930 . S
H1818 C1806 0.984 . S
H1819 C1806 0.961 1_455 S
H1820 C1806 0.961 . S
H1821 C1807 0.958 . S
H1822 C1807 0.961 . S
H1823 C1807 0.970 . S
C1824 C1825 1.391 . S
C1824 C1826 1.394 . S
C1824 H1840 0.931 . S
C1825 C1824 1.391 . S
C1825 C1829 1.376 . S
C1826 C1824 1.394 . S
C1826 C1827 1.369 . S
C1826 C1830 1.531 . S
C1827 C1826 1.369 . S
C1827 C1828 1.410 . S
C1827 C1835 1.503 . S
C1828 C1827 1.410 . S
C1828 C1829 1.392 . S
C1828 C1831 1.511 . S
C1829 C1825 1.376 . S
C1829 C1828 1.392 . S
C1829 H1841 0.929 . S
C1830 C1826 1.531 . S
C1830 H1842 0.960 . S
C1830 H1843 0.962 . S
C1830 H1844 0.960 . S
C1831 C1828 1.511 . S
C1831 H1845 0.961 . S
C1831 H1846 0.961 . S
C1831 H1847 0.961 . S
C1832 C1833 1.370 . S
C1832 C1834 1.363 . S
C1832 H1848 0.931 . S
C1833 C1832 1.370 . S
C1833 C1837 1.408 . S
C1834 C1832 1.363 . S
C1834 C1835 1.370 . S
C1834 C1838 1.524 . S
C1835 C1827 1.503 . S
C1835 C1834 1.370 . S
C1835 C1836 1.403 . S
C1836 C1835 1.403 . S
C1836 C1837 1.404 . S
C1836 C1839 1.539 . S
C1837 C1833 1.408 . S
C1837 C1836 1.404 . S
C1837 H1849 0.930 . S
C1838 C1834 1.524 . S
C1838 H1850 0.956 . S
C1838 H1851 0.961 . S
C1838 H1852 0.961 . S
C1839 C1836 1.539 . S
C1839 H1853 0.958 . S
C1839 H1854 0.961 . S
C1839 H1855 0.960 . S
H1840 C1824 0.931 . S
H1841 C1829 0.929 . S
H1842 C1830 0.960 . S
H1843 C1830 0.962 . S
H1844 C1830 0.960 . S
H1845 C1831 0.961 . S
H1846 C1831 0.961 . S
H1847 C1831 0.961 . S
H1848 C1832 0.931 . S
H1849 C1837 0.930 . S
H1850 C1838 0.956 . S
H1851 C1838 0.961 . S
H1852 C1838 0.961 . S
H1853 C1839 0.958 . S
H1854 C1839 0.961 . S
H1855 C1839 0.960 . S
C1856 C1857 1.391 . S
C1856 C1858 1.394 . S
C1856 H1872 0.931 . S
C1857 C1856 1.391 . S
C1857 C1861 1.376 . S
C1858 C1856 1.394 . S
C1858 C1859 1.369 . S
C1858 C1862 1.531 . S
C1859 C1858 1.369 . S
C1859 C1860 1.410 . S
C1859 C1867 1.503 1_655 S
C1860 C1859 1.410 . S
C1860 C1861 1.392 . S
C1860 C1863 1.511 . S
C1861 C1857 1.376 . S
C1861 C1860 1.392 . S
C1861 H1873 0.929 . S
C1862 C1858 1.531 . S
C1862 H1874 0.960 1_655 S
C1862 H1875 0.962 . S
C1862 H1876 0.960 . S
C1863 C1860 1.511 . S
C1863 H1877 0.961 . S
C1863 H1878 0.961 1_655 S
C1863 H1879 0.961 . S
C1864 C1865 1.370 . S
C1864 C1866 1.363 . S
C1864 H1880 0.931 . S
C1865 C1864 1.370 . S
C1865 C1869 1.408 . S
C1866 C1864 1.363 . S
C1866 C1867 1.370 . S
C1866 C1870 1.524 . S
C1867 C1859 1.503 1_455 S
C1867 C1866 1.370 . S
C1867 C1868 1.403 . S
C1868 C1867 1.403 . S
C1868 C1869 1.404 . S
C1868 C1871 1.539 . S
C1869 C1865 1.408 . S
C1869 C1868 1.404 . S
C1869 H1881 0.930 . S
C1870 C1866 1.524 . S
C1870 H1882 0.984 . S
C1870 H1883 0.961 1_455 S
C1870 H1884 0.961 . S
C1871 C1868 1.539 . S
C1871 H1885 0.958 . S
C1871 H1886 0.961 . S
C1871 H1887 0.970 . S
H1872 C1856 0.931 . S
H1873 C1861 0.929 . S
H1874 C1862 0.960 1_455 S
H1875 C1862 0.962 . S
H1876 C1862 0.960 . S
H1877 C1863 0.961 . S
H1878 C1863 0.961 1_455 S
H1879 C1863 0.961 . S
H1880 C1864 0.931 . S
H1881 C1869 0.930 . S
H1882 C1870 0.984 . S
H1883 C1870 0.961 1_655 S
H1884 C1870 0.961 . S
H1885 C1871 0.958 . S
H1886 C1871 0.961 . S
H1887 C1871 0.970 . S
C353 C74 1.481 . S
C361 C8 1.494 . S
C385 C85 1.481 . S
C393 C19 1.494 . S
C417 C52 1.498 . S
C425 C30 1.501 . S
C449 C41 1.485 . S
C457 C63 1.492 . S
C481 C162 1.503 . S
C489 C96 1.498 . S
C513 C173 1.492 . S
C521 C107 1.495 . S
C545 C140 1.503 . S
C553 C118 1.497 . S
C577 C151 1.487 . S
C585 C129 1.489 . S
C609 C184 1.500 . S
C617 C250 1.496 . S
C641 C261 1.503 . S
C649 C195 1.498 . S
C673 C206 1.499 . S
C681 C228 1.495 . S
C705 C239 1.503 . S
C713 C217 1.497 . S
C737 C272 1.481 . S
C745 C338 1.487 . S
C769 C283 1.475 . S
C777 C349 1.488 . S
C801 C294 1.473 . S
C809 C316 1.486 . S
C833 C305 1.493 . S
C841 C327 1.496 . S
C865 C84 1.445 . S
C873 C7 1.462 . S
C897 C18 1.465 . S
C905 C51 1.464 . S
C929 C62 1.475 . S
C937 C29 1.468 . S
C961 C40 1.444 . S
C969 C73 1.462 . S
C993 C172 1.453 . S
C1001 C95 1.454 . S
C1025 C106 1.454 . S
C1033 C139 1.454 . S
C1057 C150 1.421 . S
C1065 C117 1.467 . S
C1089 C128 1.465 . S
C1097 C161 1.449 . S
C1121 C183 1.489 . S
C1129 C260 1.477 . S
C1153 C194 1.454 . S
C1161 C227 1.467 . S
C1185 C238 1.474 . S
C1193 C205 1.475 . S
C1217 C216 1.481 . S
C1225 C249 1.477 . S
C1249 C348 1.461 . S
C1257 C271 1.450 . S
C1281 C282 1.458 . S
C1289 C315 1.452 . S
C1313 C293 1.478 . S
C1321 C326 1.443 . S
C1345 C304 1.460 . S
C1353 C337 1.451 . S
C1377 C5 1.278 . S
C1385 C137 1.282 . S
C1409 C16 1.343 . S
C1417 C324 1.297 . S
C1441 C27 1.271 . S
C1449 C159 1.286 . S
C1473 C38 1.294 . S
C1481 C346 1.275 . S
C1505 C93 1.341 . S
C1513 C49 1.307 . S
C1537 C60 1.315 . S
C1545 C280 1.269 . S
C1569 C71 1.347 . S
C1577 C115 1.264 . S
C1601 C302 1.329 . S
C1609 C82 1.288 . S
C1633 C104 1.271 . S
C1641 C236 1.334 . S
C1665 C258 1.302 . S
C1673 C126 1.311 . S
C1697 C192 1.317 . S
C1705 C148 1.268 . S
C1729 C170 1.346 . S
C1737 C214 1.293 . S
C1761 C181 1.272 . S
C1769 C313 1.315 . S
C1793 C335 1.271 . S
C1801 C203 1.299 . S
C1825 C269 1.259 . S
C1833 C225 1.303 . S
C1857 C247 1.286 . S
C1865 C291 1.278 . S
