# Generated by pormake.
# Topology fnw, (5)-cn, num edge types: 1
# Building blocks:
#     Node 0, Type 0, BuildingBlock: BEQFEK_clean_sbu_0, # of connection points: 5
#     Node 1, Type 0, BuildingBlock: BEQFEK_clean_sbu_0, # of connection points: 5
#     Node 2, Type 0, BuildingBlock: BEQFEK_clean_sbu_0, # of connection points: 5
#     Node 3, Type 0, BuildingBlock: BEQFEK_clean_sbu_0, # of connection points: 5
#     Node 4, Type 0, BuildingBlock: BEQFEK_clean_sbu_0, # of connection points: 5
#     Node 5, Type 0, BuildingBlock: BEQFEK_clean_sbu_0, # of connection points: 5
#     Node 6, Type 0, BuildingBlock: BEQFEK_clean_sbu_0, # of connection points: 5
#     Node 7, Type 0, BuildingBlock: BEQFEK_clean_sbu_0, # of connection points: 5
#     Node 8, Type 0, BuildingBlock: BEQFEK_clean_sbu_0, # of connection points: 5
#     Node 9, Type 0, BuildingBlock: BEQFEK_clean_sbu_0, # of connection points: 5
#     Node 10, Type 0, BuildingBlock: BEQFEK_clean_sbu_0, # of connection points: 5
#     Node 11, Type 0, BuildingBlock: BEQFEK_clean_sbu_0, # of connection points: 5
#     Edge 12, Type (0, 0), BuildingBlock: TEMPAE_clean_linker_10, # of connection points: 2
#     Edge 13, Type (0, 0), BuildingBlock: TEMPAE_clean_linker_10, # of connection points: 2
#     Edge 14, Type (0, 0), BuildingBlock: TEMPAE_clean_linker_10, # of connection points: 2
#     Edge 15, Type (0, 0), BuildingBlock: TEMPAE_clean_linker_10, # of connection points: 2
#     Edge 16, Type (0, 0), BuildingBlock: TEMPAE_clean_linker_10, # of connection points: 2
#     Edge 17, Type (0, 0), BuildingBlock: TEMPAE_clean_linker_10, # of connection points: 2
#     Edge 18, Type (0, 0), BuildingBlock: TEMPAE_clean_linker_10, # of connection points: 2
#     Edge 19, Type (0, 0), BuildingBlock: TEMPAE_clean_linker_10, # of connection points: 2
#     Edge 20, Type (0, 0), BuildingBlock: TEMPAE_clean_linker_10, # of connection points: 2
#     Edge 21, Type (0, 0), BuildingBlock: TEMPAE_clean_linker_10, # of connection points: 2
#     Edge 22, Type (0, 0), BuildingBlock: TEMPAE_clean_linker_10, # of connection points: 2
#     Edge 23, Type (0, 0), BuildingBlock: TEMPAE_clean_linker_10, # of connection points: 2
#     Edge 24, Type (0, 0), BuildingBlock: TEMPAE_clean_linker_10, # of connection points: 2
#     Edge 25, Type (0, 0), BuildingBlock: TEMPAE_clean_linker_10, # of connection points: 2
#     Edge 26, Type (0, 0), BuildingBlock: TEMPAE_clean_linker_10, # of connection points: 2
#     Edge 27, Type (0, 0), BuildingBlock: TEMPAE_clean_linker_10, # of connection points: 2
#     Edge 28, Type (0, 0), BuildingBlock: TEMPAE_clean_linker_10, # of connection points: 2
#     Edge 29, Type (0, 0), BuildingBlock: TEMPAE_clean_linker_10, # of connection points: 2
#     Edge 30, Type (0, 0), BuildingBlock: TEMPAE_clean_linker_10, # of connection points: 2
#     Edge 31, Type (0, 0), BuildingBlock: TEMPAE_clean_linker_10, # of connection points: 2
#     Edge 32, Type (0, 0), BuildingBlock: TEMPAE_clean_linker_10, # of connection points: 2
#     Edge 33, Type (0, 0), BuildingBlock: TEMPAE_clean_linker_10, # of connection points: 2
#     Edge 34, Type (0, 0), BuildingBlock: TEMPAE_clean_linker_10, # of connection points: 2
#     Edge 35, Type (0, 0), BuildingBlock: TEMPAE_clean_linker_10, # of connection points: 2
#     Edge 36, Type (0, 0), BuildingBlock: TEMPAE_clean_linker_10, # of connection points: 2
#     Edge 37, Type (0, 0), BuildingBlock: TEMPAE_clean_linker_10, # of connection points: 2
#     Edge 38, Type (0, 0), BuildingBlock: TEMPAE_clean_linker_10, # of connection points: 2
#     Edge 39, Type (0, 0), BuildingBlock: TEMPAE_clean_linker_10, # of connection points: 2
#     Edge 40, Type (0, 0), BuildingBlock: TEMPAE_clean_linker_10, # of connection points: 2
#     Edge 41, Type (0, 0), BuildingBlock: TEMPAE_clean_linker_10, # of connection points: 2
# Relax obj value: 0.201
# Max RMSD: 0.128
# Mean RMSD: 0.128
data_MOF--net-fnw--node1-BEQFEK_clean_sbu_0--edge1-TEMPAE_clean_linker_10
_symmetry_space_group_name_H-M    P1
_symmetry_Int_Tables_number       1
_symmetry_cell_setting            triclinic
loop_
_symmetry_equiv_pos_as_xyz
'x, y, z'
_cell_length_a     56.352685
_cell_length_b     56.34875
_cell_length_c     31.205195
_cell_angle_alpha  89.993057
_cell_angle_beta   90.029002
_cell_angle_gamma 119.99175
loop_
_atom_site_label
_atom_site_type_symbol
_atom_site_fract_x
_atom_site_fract_y
_atom_site_fract_z
_atom_type_partial_charge
Co0 Co 0.2509 0.49745 0.21245 0.0
Co1 Co 0.27535 0.45831 0.21843 0.0
C2 C 0.24014 0.45383 0.14537 0.0
O3 O 0.23776 0.47333 0.16151 0.0
O4 O 0.25427 0.44485 0.16395 0.0
C5 C 0.21022 0.51659 0.22026 0.0
O6 O 0.19139 0.49248 0.23434 0.0
C7 C 0.29161 0.41496 0.22516 0.0
C8 C 0.32381 0.43514 0.27454 0.0
C9 C 0.31097 0.41207 0.2489 0.0
N10 N 0.29299 0.43866 0.23679 0.0
N11 N 0.31227 0.45047 0.26626 0.0
C12 C 0.27367 0.39672 0.1901 0.0
H13 H 0.26883 0.40854 0.16683 0.0
H14 H 0.25419 0.38054 0.20424 0.0
H15 H 0.2837 0.38674 0.17321 0.0
C16 C 0.23524 0.47801 0.30263 0.0
N17 N 0.24478 0.47695 0.26344 0.0
N18 N 0.25294 0.45874 0.26397 0.0
C19 C 0.24755 0.44672 0.3028 0.0
C20 C 0.23662 0.45879 0.32877 0.0
C21 C 0.22912 0.49977 0.31675 0.0
H22 H 0.23943 0.51794 0.29558 0.0
H23 H 0.20666 0.49148 0.31562 0.0
H24 H 0.23596 0.50604 0.35029 0.0
O25 O 0.29005 0.52335 0.20634 0.0
O26 O 0.30734 0.49579 0.20941 0.0
H27 H 0.27408 0.43294 0.32722 0.0
H28 H 0.2387 0.41147 0.34126 0.0
C29 C 0.25281 0.42409 0.31524 0.0
H30 H 0.24996 0.41083 0.28721 0.0
H31 H 0.31777 0.4693 0.28046 0.0
O32 O 0.2341 0.52102 0.21148 0.0
C33 C 0.31048 0.51966 0.20557 0.0
Co34 Co 0.75246 0.24148 0.73306 0.0
Co35 Co 0.81675 0.27146 0.73345 0.0
C36 C 0.78499 0.23368 0.66249 0.0
O37 O 0.76284 0.22927 0.68048 0.0
O38 O 0.80828 0.24955 0.6795 0.0
C39 C 0.69823 0.21855 0.70554 0.0
O40 O 0.71117 0.22715 0.66882 0.0
C41 C 0.87675 0.28934 0.73582 0.0
C42 C 0.89083 0.32613 0.77645 0.0
C43 C 0.90001 0.31094 0.75446 0.0
N44 N 0.85492 0.29176 0.74678 0.0
N45 N 0.86361 0.31379 0.77104 0.0
C46 C 0.87545 0.26777 0.7064 0.0
H47 H 0.85724 0.25976 0.68536 0.0
H48 H 0.87385 0.25054 0.72584 0.0
H49 H 0.89425 0.27606 0.68649 0.0
C50 C 0.76054 0.22773 0.82094 0.0
N51 N 0.77013 0.23775 0.78163 0.0
N52 N 0.79702 0.24942 0.7815 0.0
C53 C 0.80534 0.24663 0.82075 0.0
C54 C 0.7826 0.23312 0.8472 0.0
C55 C 0.73138 0.21699 0.83407 0.0
H56 H 0.72452 0.23135 0.82317 0.0
H57 H 0.71826 0.19704 0.81796 0.0
H58 H 0.72859 0.21423 0.86924 0.0
O59 O 0.76215 0.27995 0.72662 0.0
O60 O 0.80742 0.30089 0.72482 0.0
H61 H 0.8441 0.28001 0.84009 0.0
H62 H 0.83615 0.24751 0.86294 0.0
C63 C 0.83461 0.25776 0.83354 0.0
H64 H 0.84603 0.25469 0.80726 0.0
H65 H 0.85087 0.3205 0.78379 0.0
O66 O 0.71209 0.22111 0.73913 0.0
C67 C 0.78527 0.3017 0.72337 0.0
Co68 Co 0.50856 0.75461 0.22803 0.0
Co69 Co 0.5434 0.81869 0.23366 0.0
C70 C 0.5465 0.78952 0.15662 0.0
O71 O 0.52904 0.76684 0.17357 0.0
O72 O 0.55499 0.81221 0.17633 0.0
C73 C 0.48553 0.69858 0.19998 0.0
O74 O 0.49785 0.70963 0.16364 0.0
C75 C 0.58802 0.8769 0.23939 0.0
C76 C 0.56887 0.89238 0.28495 0.0
C77 C 0.59256 0.90019 0.26169 0.0
N78 N 0.56287 0.85632 0.24959 0.0
N79 N 0.55155 0.86583 0.27654 0.0
C80 C 0.6076 0.8736 0.21114 0.0
H81 H 0.60374 0.85229 0.21313 0.0
H82 H 0.62911 0.88827 0.22025 0.0
H83 H 0.60433 0.87761 0.17745 0.0
C84 C 0.53418 0.75927 0.31205 0.0
N85 N 0.53206 0.77042 0.27519 0.0
N86 N 0.54746 0.79725 0.27735 0.0
C87 C 0.56035 0.80394 0.31563 0.0
C88 C 0.55216 0.78012 0.33898 0.0
C89 C 0.51724 0.72946 0.32263 0.0
H90 H 0.52022 0.71725 0.29753 0.0
H91 H 0.52283 0.7247 0.3543 0.0
H92 H 0.49525 0.72348 0.32262 0.0
O93 O 0.47996 0.76485 0.22868 0.0
O94 O 0.50451 0.81012 0.23067 0.0
H95 H 0.5636 0.8409 0.33977 0.0
H96 H 0.58878 0.83345 0.36124 0.0
C97 C 0.57725 0.83262 0.33194 0.0
H98 H 0.59197 0.84565 0.30695 0.0
H99 H 0.53203 0.85401 0.2897 0.0
O100 O 0.48859 0.71404 0.23165 0.0
C101 C 0.48143 0.78809 0.22942 0.0
Co102 Co 0.75404 0.50675 0.73129 0.0
Co103 Co 0.72514 0.54196 0.7385 0.0
C104 C 0.75829 0.54623 0.66176 0.0
O105 O 0.76339 0.52851 0.67807 0.0
O106 O 0.74377 0.55427 0.68165 0.0
C107 C 0.77378 0.4733 0.7 0.0
O108 O 0.76267 0.47629 0.66487 0.0
C109 C 0.7066 0.58355 0.74383 0.0
C110 C 0.67504 0.56341 0.79404 0.0
C111 C 0.68702 0.5861 0.76749 0.0
N112 N 0.7062 0.56045 0.75638 0.0
N113 N 0.68728 0.54865 0.78635 0.0
C114 C 0.72389 0.60153 0.70804 0.0
H115 H 0.7289 0.58971 0.68508 0.0
H116 H 0.74332 0.61825 0.72148 0.0
H117 H 0.71323 0.61078 0.6909 0.0
C118 C 0.77464 0.53096 0.81626 0.0
N119 N 0.76129 0.52921 0.77964 0.0
N120 N 0.75027 0.54497 0.78229 0.0
C121 C 0.75699 0.55785 0.82057 0.0
C122 C 0.77239 0.54917 0.84348 0.0
C123 C 0.78748 0.51387 0.82598 0.0
H124 H 0.77143 0.49189 0.82566 0.0
H125 H 0.80254 0.517 0.80059 0.0
H126 H 0.79796 0.51918 0.85756 0.0
O127 O 0.71526 0.47845 0.72973 0.0
O128 O 0.69487 0.50326 0.73289 0.0
H129 H 0.72533 0.56282 0.84914 0.0
H130 H 0.75932 0.589 0.86364 0.0
C131 C 0.74648 0.57583 0.83697 0.0
H132 H 0.74625 0.58902 0.81081 0.0
H133 H 0.6825 0.53021 0.80128 0.0
O134 O 0.77397 0.48619 0.73353 0.0
C135 C 0.69362 0.48014 0.73014 0.0
Co136 Co 0.24329 0.75437 0.23077 0.0
Co137 Co 0.17925 0.72592 0.22506 0.0
C138 C 0.21421 0.76386 0.15664 0.0
O139 O 0.23556 0.76727 0.17617 0.0
O140 O 0.19037 0.74862 0.17218 0.0
C141 C 0.29829 0.77648 0.208 0.0
O142 O 0.28642 0.76816 0.17045 0.0
C143 C 0.12173 0.71508 0.2264 0.0
C144 C 0.1002 0.67088 0.24196 0.0
C145 C 0.09594 0.69247 0.23278 0.0
N146 N 0.14043 0.70708 0.23157 0.0
N147 N 0.12733 0.68068 0.24103 0.0
C148 C 0.12833 0.74329 0.21364 0.0
H149 H 0.11734 0.74226 0.18355 0.0
H150 H 0.15073 0.75675 0.20909 0.0
H151 H 0.1211 0.75209 0.23879 0.0
C152 C 0.23257 0.76839 0.31673 0.0
N153 N 0.22414 0.75866 0.27692 0.0
N154 N 0.19725 0.7468 0.27491 0.0
C155 C 0.18771 0.74873 0.31358 0.0
C156 C 0.20973 0.76241 0.34144 0.0
C157 C 0.26137 0.77908 0.33193 0.0
H158 H 0.26804 0.76416 0.32363 0.0
H159 H 0.27511 0.79849 0.3149 0.0
H160 H 0.26348 0.78275 0.36698 0.0
O161 O 0.23263 0.7154 0.22633 0.0
O162 O 0.18766 0.69579 0.21851 0.0
H163 H 0.14799 0.71345 0.32153 0.0
H164 H 0.15484 0.7415 0.35729 0.0
C165 C 0.15795 0.73605 0.32442 0.0
H166 H 0.14802 0.74331 0.30138 0.0
H167 H 0.13691 0.66919 0.24651 0.0
O168 O 0.28351 0.77393 0.24038 0.0
C169 C 0.20932 0.69416 0.22088 0.0
Co170 Co 0.48952 0.2433 0.7257 0.0
Co171 Co 0.45432 0.17909 0.72686 0.0
C172 C 0.45067 0.21098 0.65366 0.0
O173 O 0.4683 0.2331 0.67185 0.0
O174 O 0.4425 0.18768 0.67123 0.0
C175 C 0.52208 0.29805 0.6995 0.0
O176 O 0.5188 0.28585 0.66231 0.0
C177 C 0.41154 0.11927 0.72922 0.0
C178 C 0.43352 0.10497 0.77114 0.0
C179 C 0.40947 0.09595 0.74829 0.0
N180 N 0.43576 0.14099 0.74067 0.0
N181 N 0.44862 0.13216 0.76575 0.0
C182 C 0.39169 0.1207 0.69901 0.0
H183 H 0.40217 0.13905 0.67829 0.0
H184 H 0.37576 0.12216 0.71784 0.0
H185 H 0.38147 0.10199 0.67886 0.0
C186 C 0.4648 0.23622 0.81107 0.0
N187 N 0.46655 0.22613 0.77293 0.0
N188 N 0.451 0.19927 0.77328 0.0
C189 C 0.43842 0.1915 0.8117 0.0
C190 C 0.44697 0.21464 0.837 0.0
C191 C 0.48172 0.26575 0.8234 0.0
H192 H 0.47874 0.27857 0.79943 0.0
H193 H 0.47611 0.26971 0.85563 0.0
H194 H 0.50371 0.27175 0.82306 0.0
O195 O 0.51802 0.233 0.72252 0.0
O196 O 0.49305 0.18778 0.72159 0.0
H197 H 0.43489 0.15385 0.83289 0.0
H198 H 0.40952 0.1607 0.85525 0.0
C199 C 0.42132 0.16236 0.82588 0.0
H200 H 0.4069 0.15007 0.80002 0.0
H201 H 0.46796 0.14479 0.779 0.0
O202 O 0.50983 0.28359 0.73211 0.0
C203 C 0.51625 0.20964 0.72082 0.0
Co204 Co 0.51273 0.76095 0.77141 0.0
Co205 Co 0.54564 0.72961 0.7728 0.0
C206 C 0.55186 0.7673 0.84351 0.0
O207 O 0.53478 0.77238 0.82474 0.0
O208 O 0.55882 0.75091 0.82714 0.0
C209 C 0.48392 0.78748 0.79713 0.0
O210 O 0.48844 0.78028 0.83496 0.0
C211 C 0.5879 0.71244 0.771 0.0
C212 C 0.56717 0.67705 0.72705 0.0
C213 C 0.59107 0.69238 0.75013 0.0
N214 N 0.56331 0.70916 0.7601 0.0
N215 N 0.55102 0.68783 0.7342 0.0
C216 C 0.60838 0.73537 0.79827 0.0
H217 H 0.60486 0.72883 0.83232 0.0
H218 H 0.60579 0.75356 0.79497 0.0
H219 H 0.62958 0.74081 0.78939 0.0
C220 C 0.53629 0.77487 0.68439 0.0
N221 N 0.53459 0.7643 0.7237 0.0
N222 N 0.54975 0.7526 0.72517 0.0
C223 C 0.5624 0.75623 0.6871 0.0
C224 C 0.55401 0.77007 0.65973 0.0
C225 C 0.51831 0.78579 0.66954 0.0
H226 H 0.49752 0.7734 0.68342 0.0
H227 H 0.52695 0.80716 0.68111 0.0
H228 H 0.51662 0.78554 0.63413 0.0
O229 O 0.48312 0.72277 0.77683 0.0
O230 O 0.50636 0.7007 0.77932 0.0
H231 H 0.57033 0.72428 0.66882 0.0
H232 H 0.59501 0.75764 0.64884 0.0
C233 C 0.58199 0.74641 0.67671 0.0
H234 H 0.59533 0.74947 0.70469 0.0
H235 H 0.53172 0.68095 0.72067 0.0
O236 O 0.49406 0.7826 0.76421 0.0
C237 C 0.48372 0.7006 0.77988 0.0
Co238 Co 0.75474 0.50984 0.27357 0.0
Co239 Co 0.81874 0.54616 0.27935 0.0
C240 C 0.78375 0.5483 0.34814 0.0
O241 O 0.7625 0.53023 0.32855 0.0
O242 O 0.80763 0.55737 0.33245 0.0
C243 C 0.69951 0.47693 0.2965 0.0
O244 O 0.71117 0.48066 0.33427 0.0
C245 C 0.8762 0.59289 0.27927 0.0
C246 C 0.89768 0.57089 0.25935 0.0
C247 C 0.90194 0.59634 0.27131 0.0
N248 N 0.85749 0.56638 0.27232 0.0
N249 N 0.87055 0.55348 0.26026 0.0
C250 C 0.86964 0.61397 0.29514 0.0
H251 H 0.84717 0.60573 0.29539 0.0
H252 H 0.87972 0.63246 0.27451 0.0
H253 H 0.87787 0.62022 0.32808 0.0
C254 C 0.76529 0.53508 0.1878 0.0
N255 N 0.7737 0.53353 0.22752 0.0
N256 N 0.80049 0.54922 0.22997 0.0
C257 C 0.80997 0.5617 0.19189 0.0
C258 C 0.78803 0.55306 0.16375 0.0
C259 C 0.73675 0.51646 0.17197 0.0
H260 H 0.72947 0.49532 0.18361 0.0
H261 H 0.72295 0.52335 0.18533 0.0
H262 H 0.73547 0.51615 0.13651 0.0
O263 O 0.76575 0.48183 0.27738 0.0
O264 O 0.81068 0.50765 0.28549 0.0
H265 H 0.85061 0.56889 0.18216 0.0
H266 H 0.84248 0.59094 0.15078 0.0
C267 C 0.83962 0.58063 0.18219 0.0
H268 H 0.84867 0.5965 0.20746 0.0
H269 H 0.86094 0.53263 0.25298 0.0
O270 O 0.71447 0.489 0.26419 0.0
C271 C 0.7892 0.48422 0.28285 0.0
Co272 Co 0.24856 0.75193 0.77655 0.0
Co273 Co 0.27214 0.81495 0.76543 0.0
C274 C 0.24142 0.78686 0.84372 0.0
O275 O 0.23815 0.76443 0.82857 0.0
O276 O 0.25434 0.8092 0.82273 0.0
C277 C 0.20651 0.69319 0.77825 0.0
O278 O 0.18751 0.69973 0.77117 0.0
C279 C 0.28309 0.87231 0.75805 0.0
C280 C 0.31333 0.88686 0.70532 0.0
C281 C 0.29939 0.89501 0.73264 0.0
N282 N 0.28715 0.8517 0.74583 0.0
N283 N 0.30534 0.86065 0.7145 0.0
C284 C 0.26322 0.86971 0.79201 0.0
H285 H 0.24508 0.84877 0.79152 0.0
H286 H 0.25662 0.88509 0.78742 0.0
H287 H 0.27318 0.87297 0.82384 0.0
C288 C 0.22739 0.75156 0.6891 0.0
N289 N 0.23929 0.76411 0.72622 0.0
N290 N 0.24729 0.79037 0.72315 0.0
C291 C 0.23935 0.79498 0.68472 0.0
C292 C 0.22676 0.77066 0.66179 0.0
C293 C 0.21896 0.72246 0.67863 0.0
H294 H 0.19741 0.70902 0.68876 0.0
H295 H 0.21999 0.71948 0.64372 0.0
H296 H 0.23215 0.71617 0.69584 0.0
O297 O 0.288 0.76567 0.77737 0.0
O298 O 0.30506 0.81037 0.77058 0.0
H299 H 0.26706 0.83293 0.65456 0.0
H300 H 0.23173 0.82079 0.64238 0.0
C301 C 0.24608 0.82258 0.66817 0.0
H302 H 0.24501 0.83521 0.69446 0.0
H303 H 0.31227 0.84875 0.69928 0.0
O304 O 0.23156 0.71168 0.78026 0.0
C305 C 0.30842 0.78977 0.77483 0.0
Co306 Co 0.49033 0.24443 0.26797 0.0
Co307 Co 0.45492 0.27317 0.26648 0.0
C308 C 0.45173 0.23886 0.34048 0.0
O309 O 0.46935 0.23433 0.32232 0.0
O310 O 0.4432 0.25358 0.32252 0.0
C311 C 0.51159 0.20875 0.29087 0.0
O312 O 0.49722 0.20422 0.3261 0.0
C313 C 0.41051 0.28731 0.26244 0.0
C314 C 0.42932 0.32131 0.21568 0.0
C315 C 0.40585 0.3058 0.23959 0.0
N316 N 0.4355 0.29159 0.2518 0.0
N317 N 0.44665 0.3121 0.22422 0.0
C318 C 0.39105 0.26482 0.29136 0.0
H319 H 0.39469 0.24722 0.2897 0.0
H320 H 0.3695 0.25808 0.28264 0.0
H321 H 0.39466 0.27247 0.32485 0.0
C322 C 0.46548 0.22647 0.18242 0.0
N323 N 0.46728 0.2383 0.22067 0.0
N324 N 0.45119 0.24897 0.22091 0.0
C325 C 0.43787 0.24343 0.18311 0.0
C326 C 0.44675 0.22937 0.15718 0.0
C327 C 0.48425 0.21622 0.16884 0.0
H328 H 0.50538 0.2306 0.18 0.0
H329 H 0.4775 0.19607 0.18417 0.0
H330 H 0.48449 0.21397 0.13358 0.0
O331 O 0.51877 0.28327 0.27022 0.0
O332 O 0.4938 0.30358 0.27079 0.0
H333 H 0.42814 0.27364 0.16191 0.0
H334 H 0.40429 0.23936 0.1443 0.0
C335 C 0.41731 0.25177 0.17146 0.0
H336 H 0.40404 0.24902 0.19937 0.0
H337 H 0.46596 0.31944 0.21049 0.0
O338 O 0.51034 0.22398 0.26195 0.0
C339 C 0.51702 0.30488 0.27146 0.0
Co340 Co 0.24517 0.495 0.76406 0.0
Co341 Co 0.18168 0.45528 0.75855 0.0
C342 C 0.2129 0.45362 0.83371 0.0
O343 O 0.23468 0.47304 0.81728 0.0
O344 O 0.18992 0.44358 0.81433 0.0
C345 C 0.29815 0.53066 0.79546 0.0
O346 O 0.28409 0.52634 0.83102 0.0
C347 C 0.12415 0.40869 0.75511 0.0
C348 C 0.10756 0.42481 0.70606 0.0
C349 C 0.10055 0.40243 0.73219 0.0
N350 N 0.1442 0.43355 0.74249 0.0
N351 N 0.13401 0.44307 0.71346 0.0
C352 C 0.12798 0.39118 0.7872 0.0
H353 H 0.14893 0.39417 0.78445 0.0
H354 H 0.11253 0.36922 0.78262 0.0
H355 H 0.12568 0.3975 0.8199 0.0
C356 C 0.24297 0.47268 0.67824 0.0
N357 N 0.23108 0.47231 0.71574 0.0
N358 N 0.20456 0.45507 0.71323 0.0
C359 C 0.19887 0.44345 0.67394 0.0
C360 C 0.22296 0.45457 0.65026 0.0
C361 C 0.27257 0.49181 0.66849 0.0
H362 H 0.28541 0.49 0.69379 0.0
H363 H 0.27844 0.4873 0.63688 0.0
H364 H 0.2766 0.51321 0.66882 0.0
O365 O 0.23134 0.52078 0.765 0.0
O366 O 0.18641 0.49259 0.76523 0.0
H367 H 0.17071 0.41296 0.62918 0.0
H368 H 0.15781 0.41022 0.68275 0.0
C369 C 0.17055 0.42479 0.6574 0.0
H370 H 0.16123 0.43722 0.6475 0.0
H371 H 0.14524 0.4621 0.69854 0.0
O372 O 0.2856 0.51812 0.7616 0.0
C373 C 0.20704 0.51669 0.76615 0.0
Co374 Co 0.74739 0.24613 0.28472 0.0
Co375 Co 0.72462 0.18309 0.27394 0.0
C376 C 0.75734 0.2121 0.35036 0.0
O377 O 0.7596 0.23423 0.33556 0.0
O378 O 0.74426 0.18956 0.32983 0.0
C379 C 0.78792 0.30577 0.28455 0.0
O380 O 0.80767 0.30059 0.27575 0.0
C381 C 0.70858 0.12376 0.26783 0.0
C382 C 0.68012 0.11228 0.21285 0.0
C383 C 0.69082 0.10174 0.2422 0.0
N384 N 0.70847 0.1463 0.25366 0.0
N385 N 0.6914 0.13916 0.22088 0.0
C386 C 0.72317 0.12302 0.30743 0.0
H387 H 0.72274 0.13702 0.33197 0.0
H388 H 0.7449 0.13019 0.29941 0.0
H389 H 0.71376 0.10202 0.32087 0.0
C390 C 0.7664 0.24611 0.19561 0.0
N391 N 0.75551 0.23378 0.23331 0.0
N392 N 0.74815 0.20766 0.23056 0.0
C393 C 0.75566 0.20299 0.19183 0.0
C394 C 0.76708 0.22704 0.16824 0.0
C395 C 0.77433 0.27507 0.18509 0.0
H396 H 0.76136 0.28127 0.20315 0.0
H397 H 0.79604 0.28872 0.19421 0.0
H398 H 0.77254 0.27781 0.1503 0.0
O399 O 0.70796 0.23184 0.28857 0.0
O400 O 0.69171 0.18731 0.28161 0.0
H401 H 0.72979 0.16515 0.15975 0.0
H402 H 0.76563 0.17777 0.15233 0.0
C403 C 0.75 0.17556 0.176 0.0
H404 H 0.75001 0.16281 0.203 0.0
H405 H 0.68698 0.15265 0.20454 0.0
O406 O 0.76337 0.28632 0.28806 0.0
C407 C 0.68789 0.20754 0.28683 0.0
C408 C 0.3702 0.31139 0.27876 0.0
C409 C 0.38223 0.31034 0.24008 0.0
C410 C 0.35271 0.32244 0.28019 0.0
C411 C 0.34741 0.33271 0.24209 0.0
C412 C 0.35729 0.32904 0.20244 0.0
C413 C 0.37471 0.31801 0.20197 0.0
C414 C 0.34234 0.32574 0.32307 0.0
C415 C 0.352 0.33947 0.16101 0.0
C416 C 0.30036 0.36321 0.24077 0.0
C417 C 0.31942 0.39113 0.24612 0.0
C418 C 0.30895 0.34365 0.23993 0.0
C419 C 0.33714 0.35237 0.24463 0.0
C420 C 0.35633 0.38054 0.25029 0.0
C421 C 0.3472 0.39947 0.25109 0.0
C422 C 0.28795 0.31376 0.23428 0.0
C423 C 0.38664 0.39083 0.25513 0.0
H424 H 0.37616 0.30573 0.30835 0.0
H425 H 0.3838 0.31692 0.17194 0.0
H426 H 0.35527 0.34717 0.33428 0.0
H427 H 0.32099 0.32164 0.32052 0.0
H428 H 0.34315 0.31186 0.34759 0.0
H429 H 0.35674 0.33071 0.13258 0.0
H430 H 0.33035 0.33453 0.15898 0.0
H431 H 0.36509 0.36211 0.15979 0.0
H432 H 0.27877 0.3566 0.23814 0.0
H433 H 0.36201 0.42104 0.25524 0.0
H434 H 0.28836 0.30192 0.26241 0.0
H435 H 0.293 0.30541 0.20571 0.0
H436 H 0.26687 0.31036 0.23052 0.0
H437 H 0.39027 0.38076 0.2829 0.0
H438 H 0.39875 0.41337 0.25988 0.0
H439 H 0.39447 0.38557 0.22616 0.0
C440 C 0.94896 0.34672 0.7498 0.0
C441 C 0.92921 0.31882 0.75044 0.0
C442 C 0.97691 0.35543 0.7477 0.0
C443 C 0.98548 0.33572 0.7463 0.0
C444 C 0.96571 0.30745 0.74712 0.0
C445 C 0.9377 0.29928 0.74936 0.0
C446 C 0.99727 0.38583 0.74675 0.0
C447 C 0.97417 0.28593 0.74592 0.0
C448 C 0.05627 0.36904 0.69913 0.0
C449 C 0.07243 0.379 0.73608 0.0
C450 C 0.0278 0.35213 0.70197 0.0
C451 C 0.01524 0.34538 0.74281 0.0
C452 C 0.03175 0.35316 0.78018 0.0
C453 C 0.06028 0.36999 0.77637 0.0
C454 C 0.01104 0.34403 0.66129 0.0
C455 C 0.01918 0.34626 0.82432 0.0
H456 H 0.94253 0.36191 0.75066 0.0
H457 H 0.9226 0.27771 0.75123 0.0
H458 H 0.01183 0.39146 0.77389 0.0
H459 H 0.00939 0.3912 0.71671 0.0
H460 H 0.98717 0.39842 0.74874 0.0
H461 H 0.95626 0.26481 0.7455 0.0
H462 H 0.98688 0.2888 0.71714 0.0
H463 H 0.98696 0.28814 0.77433 0.0
H464 H 0.06573 0.37588 0.66791 0.0
H465 H 0.07266 0.37793 0.80503 0.0
H466 H 0.00181 0.35727 0.65702 0.0
H467 H 0.99405 0.32251 0.66302 0.0
H468 H 0.02374 0.34639 0.63264 0.0
H469 H 0.01118 0.36016 0.83237 0.0
H470 H 0.0344 0.34875 0.84914 0.0
H471 H 0.00172 0.32496 0.82551 0.0
C472 C 0.65365 0.05329 0.24057 0.0
C473 C 0.68144 0.07225 0.24683 0.0
C474 C 0.64375 0.02512 0.24333 0.0
C475 C 0.66219 0.01556 0.25213 0.0
C476 C 0.69041 0.03457 0.25803 0.0
C477 C 0.69975 0.06283 0.25537 0.0
C478 C 0.61343 0.00561 0.23722 0.0
C479 C 0.71064 0.02505 0.2669 0.0
C480 C 0.62282 0.94442 0.2979 0.0
C481 C 0.61606 0.92846 0.26064 0.0
C482 C 0.64031 0.97284 0.29636 0.0
C483 C 0.65115 0.98559 0.25647 0.0
C484 C 0.64648 0.96926 0.21943 0.0
C485 C 0.62882 0.94079 0.22191 0.0
C486 C 0.64482 0.9894 0.33667 0.0
C487 C 0.6579 0.98206 0.17637 0.0
H488 H 0.63946 0.06055 0.23393 0.0
H489 H 0.72137 0.07749 0.25916 0.0
H490 H 0.61008 0.99136 0.21037 0.0
H491 H 0.60469 0.99304 0.26651 0.0
H492 H 0.60195 0.01645 0.23029 0.0
H493 H 0.73189 0.04243 0.27064 0.0
H494 H 0.70479 0.0125 0.29652 0.0
H495 H 0.71027 0.01179 0.24031 0.0
H496 H 0.61315 0.93486 0.328 0.0
H497 H 0.62341 0.92865 0.19288 0.0
H498 H 0.63211 0.99937 0.33533 0.0
H499 H 0.66653 0.00584 0.3395 0.0
H500 H 0.63908 0.97642 0.36589 0.0
H501 H 0.64558 0.99075 0.16317 0.0
H502 H 0.65724 0.9668 0.15313 0.0
H503 H 0.67935 0.99905 0.17941 0.0
C504 C 0.64995 0.5976 0.7698 0.0
C505 C 0.6778 0.60643 0.76401 0.0
C506 C 0.64016 0.616 0.76785 0.0
C507 C 0.65871 0.6441 0.76011 0.0
C508 C 0.68696 0.65332 0.75476 0.0
C509 C 0.69623 0.63433 0.75687 0.0
C510 C 0.60982 0.60521 0.77355 0.0
C511 C 0.7073 0.68317 0.74681 0.0
C512 C 0.62033 0.67703 0.71434 0.0
C513 C 0.61381 0.68648 0.75155 0.0
C514 C 0.63732 0.66552 0.71601 0.0
C515 C 0.64778 0.66315 0.75601 0.0
C516 C 0.64317 0.67479 0.79311 0.0
C517 C 0.62613 0.68633 0.79046 0.0
C518 C 0.64187 0.65358 0.67561 0.0
C519 C 0.65406 0.67278 0.83632 0.0
H520 H 0.63562 0.57607 0.77541 0.0
H521 H 0.71789 0.6414 0.7537 0.0
H522 H 0.60633 0.61604 0.80034 0.0
H523 H 0.60124 0.60912 0.74412 0.0
H524 H 0.59828 0.58286 0.78029 0.0
H525 H 0.7286 0.68708 0.74375 0.0
H526 H 0.70184 0.69011 0.71704 0.0
H527 H 0.70654 0.6958 0.77345 0.0
H528 H 0.61098 0.67736 0.68413 0.0
H529 H 0.62086 0.69329 0.81939 0.0
H530 H 0.62911 0.63091 0.67669 0.0
H531 H 0.66357 0.65879 0.67295 0.0
H532 H 0.63626 0.66097 0.64641 0.0
H533 H 0.64151 0.65161 0.84881 0.0
H534 H 0.65327 0.68714 0.8599 0.0
H535 H 0.67549 0.67713 0.83372 0.0
C536 C 0.06183 0.7052 0.25862 0.0
C537 C 0.06869 0.68997 0.23101 0.0
C538 C 0.03421 0.69739 0.26575 0.0
C539 C 0.01335 0.67382 0.24489 0.0
C540 C 0.02054 0.66025 0.21367 0.0
C541 C 0.04814 0.66841 0.20738 0.0
C542 C 0.02744 0.71275 0.29855 0.0
C543 C 0.99906 0.63526 0.19013 0.0
C544 C 0.94938 0.61971 0.29819 0.0
C545 C 0.92915 0.62101 0.2741 0.0
C546 C 0.97709 0.63897 0.29236 0.0
C547 C 0.9847 0.65977 0.26107 0.0
C548 C 0.96414 0.6628 0.23982 0.0
C549 C 0.93641 0.64322 0.24654 0.0
C550 C 0.99824 0.63513 0.3163 0.0
C551 C 0.97137 0.685 0.20695 0.0
H552 H 0.07776 0.72172 0.27726 0.0
H553 H 0.0536 0.65676 0.18591 0.0
H554 H 0.00889 0.71361 0.2892 0.0
H555 H 0.02322 0.70199 0.3298 0.0
H556 H 0.04476 0.73396 0.30303 0.0
H557 H 0.00795 0.62926 0.16333 0.0
H558 H 0.98908 0.61776 0.21275 0.0
H559 H 0.98293 0.63901 0.17705 0.0
H560 H 0.94359 0.60248 0.31954 0.0
H561 H 0.92069 0.644 0.22757 0.0
H562 H 0.0146 0.65495 0.32916 0.0
H563 H 0.00797 0.62717 0.294 0.0
H564 H 0.98908 0.62044 0.3433 0.0
H565 H 0.98995 0.70431 0.21656 0.0
H566 H 0.95422 0.6891 0.20197 0.0
H567 H 0.97576 0.6784 0.17589 0.0
C568 C 0.3101 0.93873 0.69748 0.0
C569 C 0.30459 0.92339 0.73524 0.0
C570 C 0.32183 0.96727 0.69884 0.0
C571 C 0.32845 0.98075 0.73898 0.0
C572 C 0.32044 0.9651 0.77722 0.0
C573 C 0.30866 0.9365 0.77491 0.0
C574 C 0.32976 0.98311 0.65729 0.0
C575 C 0.32696 0.97867 0.82067 0.0
C576 C 0.3962 0.04701 0.74327 0.0
C577 C 0.38811 0.06681 0.74395 0.0
C578 C 0.37691 0.01907 0.74162 0.0
C579 C 0.34864 0.01056 0.74082 0.0
C580 C 0.34021 0.0304 0.7413 0.0
C581 C 0.36012 0.05841 0.74298 0.0
C582 C 0.38688 0.99865 0.74087 0.0
C583 C 0.31025 0.02201 0.74075 0.0
H584 H 0.30677 0.92856 0.66674 0.0
H585 H 0.30484 0.92483 0.80421 0.0
H586 H 0.32534 0.0002 0.65844 0.0
H587 H 0.35212 0.99215 0.65209 0.0
H588 H 0.31883 0.9698 0.62944 0.0
H589 H 0.31481 0.964 0.84646 0.0
H590 H 0.34903 0.98698 0.82775 0.0
H591 H 0.32298 0.99605 0.82125 0.0
H592 H 0.41782 0.05341 0.74396 0.0
H593 H 0.35373 0.07359 0.74471 0.0
H594 H 0.37943 0.9859 0.7115 0.0
H595 H 0.37855 0.98467 0.7688 0.0
H596 H 0.40959 0.00873 0.74169 0.0
H597 H 0.29982 0.00823 0.7132 0.0
H598 H 0.30711 0.03993 0.73869 0.0
H599 H 0.30021 0.01037 0.77031 0.0
C600 C 0.23895 0.45903 0.90106 0.0
C601 C 0.21437 0.44474 0.87795 0.0
C602 C 0.2401 0.45437 0.94484 0.0
C603 C 0.21621 0.43448 0.96615 0.0
C604 C 0.19191 0.41832 0.94239 0.0
C605 C 0.19116 0.42385 0.89856 0.0
C606 C 0.26645 0.47227 0.96887 0.0
C607 C 0.16628 0.39628 0.96364 0.0
C608 C 0.23301 0.42463 0.08014 0.0
C609 C 0.22873 0.44399 0.10187 0.0
C610 C 0.22653 0.41918 0.03636 0.0
C611 C 0.21611 0.43384 0.01383 0.0
C612 C 0.20974 0.45171 0.03645 0.0
C613 C 0.21586 0.45633 0.08017 0.0
C614 C 0.2326 0.39917 0.0137 0.0
C615 C 0.19872 0.46791 0.01377 0.0
H616 H 0.25713 0.475 0.88549 0.0
H617 H 0.17216 0.41242 0.88089 0.0
H618 H 0.26334 0.48556 0.99173 0.0
H619 H 0.27252 0.4595 0.98777 0.0
H620 H 0.28362 0.48559 0.94711 0.0
H621 H 0.15161 0.38161 0.93984 0.0
H622 H 0.17127 0.38479 0.98744 0.0
H623 H 0.15599 0.40583 0.98096 0.0
H624 H 0.24253 0.41463 0.09672 0.0
H625 H 0.21201 0.471 0.09668 0.0
H626 H 0.2522 0.41059 0.99595 0.0
H627 H 0.21632 0.38679 0.99007 0.0
H628 H 0.23453 0.38514 0.03665 0.0
H629 H 0.21467 0.48309 0.99201 0.0
H630 H 0.19263 0.47908 0.03653 0.0
H631 H 0.18071 0.45421 0.99386 0.0
C632 C 0.76539 0.18897 0.41345 0.0
C633 C 0.76777 0.21262 0.39429 0.0
C634 C 0.77168 0.18883 0.45711 0.0
C635 C 0.77986 0.21265 0.48221 0.0
C636 C 0.78389 0.23697 0.46234 0.0
C637 C 0.77811 0.23672 0.41868 0.0
C638 C 0.76812 0.16278 0.47675 0.0
C639 C 0.79235 0.26282 0.4878 0.0
C640 C 0.758 0.21012 0.59706 0.0
C641 C 0.7833 0.22284 0.61852 0.0
C642 C 0.75636 0.20476 0.55303 0.0
C643 C 0.78053 0.21163 0.52986 0.0
C644 C 0.80571 0.22181 0.55204 0.0
C645 C 0.80689 0.22764 0.59611 0.0
C646 C 0.72906 0.19408 0.53076 0.0
C647 C 0.83174 0.22831 0.52878 0.0
H648 H 0.75777 0.17034 0.3948 0.0
H649 H 0.78037 0.25524 0.40426 0.0
H650 H 0.78457 0.1673 0.5004 0.0
H651 H 0.74825 0.15208 0.49392 0.0
H652 H 0.7682 0.14866 0.45199 0.0
H653 H 0.79602 0.28037 0.4671 0.0
H654 H 0.77604 0.25919 0.51121 0.0
H655 H 0.8113 0.2686 0.50622 0.0
H656 H 0.73952 0.20593 0.61403 0.0
H657 H 0.82648 0.23703 0.61248 0.0
H658 H 0.72471 0.17642 0.50995 0.0
H659 H 0.72972 0.21037 0.50994 0.0
H660 H 0.71188 0.18757 0.5538 0.0
H661 H 0.82777 0.21247 0.50429 0.0
H662 H 0.84774 0.22982 0.55124 0.0
H663 H 0.83986 0.24823 0.51198 0.0
C664 C 0.53932 0.76573 0.08657 0.0
C665 C 0.55488 0.78917 0.11167 0.0
C666 C 0.54452 0.76543 0.04283 0.0
C667 C 0.56623 0.78903 0.02351 0.0
C668 C 0.58312 0.81227 0.04903 0.0
C669 C 0.57703 0.81222 0.09282 0.0
C670 C 0.52567 0.74029 0.01685 0.0
C671 C 0.60695 0.83752 0.02985 0.0
C672 C 0.57819 0.77186 0.91116 0.0
C673 C 0.56092 0.77822 0.88745 0.0
C674 C 0.58249 0.77783 0.95521 0.0
C675 C 0.56877 0.7899 0.976 0.0
C676 C 0.55321 0.7984 0.95148 0.0
C677 C 0.54973 0.79272 0.90752 0.0
C678 C 0.60005 0.76938 0.98001 0.0
C679 C 0.53801 0.81113 0.97226 0.0
H680 H 0.52211 0.74783 0.10063 0.0
H681 H 0.58932 0.83034 0.11206 0.0
H682 H 0.51449 0.74558 0.99288 0.0
H683 H 0.5377 0.73285 0.99903 0.0
H684 H 0.5104 0.72328 0.0371 0.0
H685 H 0.62119 0.85129 0.0549 0.0
H686 H 0.61852 0.83184 0.0073 0.0
H687 H 0.5992 0.84908 0.01143 0.0
H688 H 0.58733 0.76108 0.89586 0.0
H689 H 0.53671 0.79817 0.88949 0.0
H690 H 0.58671 0.75004 0.99745 0.0
H691 H 0.61271 0.78516 0.00413 0.0
H692 H 0.61376 0.76591 0.95855 0.0
H693 H 0.52099 0.79548 0.99202 0.0
H694 H 0.52926 0.8192 0.94828 0.0
H695 H 0.55176 0.82808 0.99389 0.0
C696 C 0.75579 0.54104 0.41396 0.0
C697 C 0.78068 0.55641 0.3921 0.0
C698 C 0.75369 0.54486 0.45785 0.0
C699 C 0.77689 0.56494 0.48038 0.0
C700 C 0.80134 0.58223 0.45775 0.0
C701 C 0.80307 0.57757 0.4139 0.0
C702 C 0.72726 0.52577 0.48072 0.0
C703 C 0.82623 0.60447 0.48035 0.0
C704 C 0.76107 0.57345 0.59593 0.0
C705 C 0.76714 0.55509 0.61695 0.0
C706 C 0.76595 0.57854 0.55173 0.0
C707 C 0.77662 0.56452 0.52806 0.0
C708 C 0.78424 0.54724 0.54962 0.0
C709 C 0.77967 0.54298 0.59373 0.0
C710 C 0.7584 0.59779 0.53008 0.0
C711 C 0.79551 0.53169 0.52567 0.0
H712 H 0.73829 0.52479 0.39743 0.0
H713 H 0.82228 0.58984 0.39713 0.0
H714 H 0.73057 0.51197 0.50217 0.0
H715 H 0.72064 0.53755 0.50101 0.0
H716 H 0.71044 0.51296 0.45807 0.0
H717 H 0.84128 0.61953 0.45737 0.0
H718 H 0.82029 0.61547 0.50361 0.0
H719 H 0.83644 0.59516 0.49855 0.0
H720 H 0.75166 0.58316 0.61362 0.0
H721 H 0.78474 0.52897 0.60956 0.0
H722 H 0.73887 0.58574 0.51236 0.0
H723 H 0.7743 0.61097 0.5065 0.0
H724 H 0.75569 0.61106 0.55359 0.0
H725 H 0.77972 0.51688 0.5033 0.0
H726 H 0.80174 0.5202 0.54751 0.0
H727 H 0.81351 0.54595 0.50621 0.0
C728 C 0.23688 0.8111 0.90845 0.0
C729 C 0.23224 0.78686 0.88832 0.0
C730 C 0.2316 0.81144 0.95249 0.0
C731 C 0.22201 0.78714 0.97688 0.0
C732 C 0.21584 0.76237 0.95616 0.0
C733 C 0.22076 0.76249 0.91221 0.0
C734 C 0.23761 0.83807 0.97319 0.0
C735 C 0.20572 0.73595 0.98087 0.0
C736 C 0.24251 0.78615 0.09166 0.0
C737 C 0.21722 0.77526 0.11281 0.0
C738 C 0.24481 0.79216 0.04779 0.0
C739 C 0.22134 0.78767 0.02453 0.0
C740 C 0.19639 0.77925 0.04648 0.0
C741 C 0.19452 0.77284 0.09035 0.0
C742 C 0.2718 0.80094 0.0257 0.0
C743 C 0.17118 0.77517 0.0231 0.0
H744 H 0.24547 0.82998 0.89021 0.0
H745 H 0.21677 0.74355 0.89704 0.0
H746 H 0.22147 0.83468 0.99675 0.0
H747 H 0.25734 0.84688 0.99074 0.0
H748 H 0.2392 0.85332 0.94909 0.0
H749 H 0.20062 0.71822 0.9596 0.0
H750 H 0.22171 0.73812 0.00388 0.0
H751 H 0.18722 0.73136 -0.00032 0.0
H752 H 0.26029 0.78841 0.10872 0.0
H753 H 0.17499 0.76488 0.10655 0.0
H754 H 0.27756 0.819 0.00498 0.0
H755 H 0.26978 0.78409 0.00478 0.0
H756 H 0.28868 0.80612 0.04886 0.0
H757 H 0.17651 0.79185 -0.00044 0.0
H758 H 0.15552 0.77441 0.04557 0.0
H759 H 0.16196 0.75557 0.00513 0.0
C760 C 0.455 0.23803 0.58791 0.0
C761 C 0.44202 0.21274 0.60936 0.0
C762 C 0.45096 0.23983 0.54404 0.0
C763 C 0.43299 0.21583 0.52098 0.0
C764 C 0.41796 0.19063 0.54308 0.0
C765 C 0.42287 0.18929 0.58701 0.0
C766 C 0.46768 0.26712 0.52181 0.0
C767 C 0.39792 0.16478 0.51988 0.0
C768 C 0.42284 0.2316 0.4062 0.0
C769 C 0.44335 0.2289 0.38502 0.0
C770 C 0.41756 0.2253 0.45007 0.0
C771 C 0.43359 0.21674 0.47331 0.0
C772 C 0.45321 0.21257 0.4515 0.0
C773 C 0.45764 0.21845 0.40771 0.0
C774 C 0.39585 0.22915 0.47192 0.0
C775 C 0.47103 0.20379 0.47498 0.0
H776 H 0.46962 0.25638 0.60481 0.0
H777 H 0.41243 0.16971 0.60338 0.0
H778 H 0.48268 0.2661 0.49996 0.0
H779 H 0.4543 0.27195 0.50203 0.0
H780 H 0.47909 0.28417 0.54482 0.0
H781 H 0.38389 0.14858 0.54248 0.0
H782 H 0.38555 0.16897 0.49664 0.0
H783 H 0.40932 0.1568 0.50157 0.0
H784 H 0.41144 0.23934 0.38887 0.0
H785 H 0.47346 0.21617 0.39183 0.0
H786 H 0.40574 0.2485 0.49055 0.0
H787 H 0.38385 0.21217 0.49471 0.0
H788 H 0.38159 0.23024 0.44844 0.0
H789 H 0.48459 0.2201 0.49779 0.0
H790 H 0.48407 0.19977 0.45286 0.0
H791 H 0.45822 0.18498 0.4939 0.0
C792 C 0.7713 0.56404 0.09669 0.0
C793 C 0.78914 0.55702 0.11681 0.0
C794 C 0.77017 0.56503 0.05185 0.0
C795 C 0.78753 0.55912 0.02676 0.0
C796 C 0.80641 0.55317 0.04707 0.0
C797 C 0.80681 0.55194 0.09191 0.0
C798 C 0.74959 0.57122 0.03133 0.0
C799 C 0.82538 0.54695 0.02145 0.0
C800 C 0.76272 0.52895 0.91629 0.0
C801 C 0.77735 0.55186 0.89003 0.0
C802 C 0.76586 0.5311 0.96088 0.0
C803 C 0.78427 0.55679 0.97946 0.0
C804 C 0.79937 0.57997 0.95288 0.0
C805 C 0.79559 0.57724 0.90828 0.0
C806 C 0.74922 0.50595 0.98812 0.0
C807 C 0.8194 0.60757 0.97157 0.0
H808 H 0.75771 0.56802 0.11611 0.0
H809 H 0.82031 0.54608 0.10746 0.0
H810 H 0.75982 0.58795 0.00753 0.0
H811 H 0.73398 0.55285 0.01387 0.0
H812 H 0.73897 0.57723 0.05526 0.0
H813 H 0.8407 0.5455 0.04202 0.0
H814 H 0.81325 0.52722 0.00428 0.0
H815 H 0.83639 0.56304 0.99691 0.0
H816 H 0.74843 0.50941 0.90186 0.0
H817 H 0.80681 0.59488 0.88762 0.0
H818 H 0.73635 0.50971 0.01092 0.0
H819 H 0.76306 0.50145 0.00739 0.0
H820 H 0.73568 0.48759 0.9686 0.0
H821 H 0.80856 0.61446 0.99351 0.0
H822 H 0.8299 0.62341 0.94643 0.0
H823 H 0.8351 0.60596 0.99081 0.0
C824 C 0.23893 0.7639 0.58819 0.0
C825 C 0.22153 0.76798 0.6153 0.0
C826 C 0.23549 0.76295 0.54364 0.0
C827 C 0.21423 0.76636 0.52596 0.0
C828 C 0.19651 0.77038 0.55337 0.0
C829 C 0.20044 0.7712 0.59791 0.0
C830 C 0.25482 0.75865 0.5155 0.0
C831 C 0.17365 0.77408 0.53562 0.0
C832 C 0.2243 0.78898 0.40966 0.0
C833 C 0.20878 0.76393 0.38858 0.0
C834 C 0.2255 0.79025 0.45458 0.0
C835 C 0.21081 0.76583 0.4787 0.0
C836 C 0.1944 0.74059 0.45743 0.0
C837 C 0.19366 0.73994 0.41252 0.0
C838 C 0.24323 0.81754 0.47615 0.0
C839 C 0.17849 0.71412 0.48202 0.0
H840 H 0.25551 0.76188 0.60192 0.0
H841 H 0.18721 0.77457 0.61919 0.0
H842 H 0.24307 0.74026 0.49512 0.0
H843 H 0.26599 0.77644 0.49376 0.0
H844 H 0.27004 0.75599 0.53442 0.0
H845 H 0.16141 0.77655 0.56131 0.0
H846 H 0.18225 0.7924 0.51461 0.0
H847 H 0.15978 0.75616 0.51562 0.0
H848 H 0.23596 0.80748 0.3909 0.0
H849 H 0.18194 0.72051 0.39606 0.0
H850 H 0.2605 0.81732 0.49287 0.0
H851 H 0.23126 0.82129 0.50072 0.0
H852 H 0.25176 0.83481 0.45297 0.0
H853 H 0.19293 0.70926 0.49871 0.0
H854 H 0.16507 0.69664 0.46084 0.0
H855 H 0.16563 0.71625 0.50692 0.0
C856 C 0.46788 0.22374 0.90932 0.0
C857 C 0.44457 0.21524 0.8839 0.0
C858 C 0.46627 0.22433 0.95403 0.0
C859 C 0.4407 0.21637 0.9736 0.0
C860 C 0.417 0.20756 0.94794 0.0
C861 C 0.41922 0.207 0.90317 0.0
C862 C 0.49198 0.23373 0.98028 0.0
C863 C 0.38949 0.19916 0.96774 0.0
C864 C 0.43629 0.19976 0.09223 0.0
C865 C 0.44261 0.22494 0.11046 0.0
C866 C 0.43464 0.19629 0.04756 0.0
C867 C 0.43926 0.21852 0.02082 0.0
C868 C 0.44468 0.24368 0.03928 0.0
C869 C 0.44649 0.24663 0.0839 0.0
C870 C 0.42899 0.16923 0.02896 0.0
C871 C 0.44966 0.26784 0.01188 0.0
H872 H 0.4874 0.22982 0.89409 0.0
H873 H 0.40126 0.2004 0.88317 0.0
H874 H 0.49667 0.25253 0.99837 0.0
H875 H 0.48887 0.2178 0.00408 0.0
H876 H 0.50999 0.2382 0.96012 0.0
H877 H 0.37292 0.19197 0.9434 0.0
H878 H 0.38408 0.18255 0.99144 0.0
H879 H 0.39047 0.21677 0.98525 0.0
H880 H 0.4332 0.183 0.11293 0.0
H881 H 0.45188 0.26628 0.09795 0.0
H882 H 0.44727 0.17208 0.01114 0.0
H883 H 0.41179 0.16154 0.00578 0.0
H884 H 0.42392 0.15343 0.05407 0.0
H885 H 0.46898 0.27526 0.99359 0.0
H886 H 0.45124 0.28511 0.03127 0.0
H887 H 0.43287 0.26164 0.98823 0.0
C888 C 0.25519 0.45893 0.40113 0.0
C889 C 0.2335 0.45636 0.37579 0.0
C890 C 0.25315 0.45753 0.44587 0.0
C891 C 0.22882 0.45347 0.46566 0.0
C892 C 0.20673 0.45063 0.44015 0.0
C893 C 0.20942 0.45228 0.39535 0.0
C894 C 0.27729 0.46104 0.47197 0.0
C895 C 0.18044 0.44616 0.46021 0.0
C896 C 0.21685 0.42946 0.58145 0.0
C897 C 0.22511 0.45408 0.60319 0.0
C898 C 0.21758 0.42883 0.53651 0.0
C899 C 0.22708 0.45349 0.51312 0.0
C900 C 0.23568 0.47845 0.53514 0.0
C901 C 0.23444 0.4784 0.57996 0.0
C902 C 0.20819 0.40184 0.51406 0.0
C903 C 0.24618 0.50521 0.51136 0.0
H904 H 0.27406 0.46273 0.38594 0.0
H905 H 0.19272 0.45033 0.37556 0.0
H906 H 0.28506 0.47959 0.49236 0.0
H907 H 0.27086 0.44327 0.49368 0.0
H908 H 0.29435 0.46308 0.45154 0.0
H909 H 0.16479 0.44314 0.43582 0.0
H910 H 0.17183 0.42797 0.48152 0.0
H911 H 0.18463 0.46407 0.48034 0.0
H912 H 0.20977 0.41072 0.59965 0.0
H913 H 0.2405 0.49738 0.59694 0.0
H914 H 0.22531 0.40279 0.49515 0.0
H915 H 0.19147 0.39775 0.49123 0.0
H916 H 0.20073 0.38444 0.53689 0.0
H917 H 0.26426 0.50933 0.49174 0.0
H918 H 0.25213 0.5228 0.53336 0.0
H919 H 0.23023 0.50391 0.48908 0.0
C920 C 0.76628 0.20685 0.91565 0.0
C921 C 0.78262 0.23168 0.89444 0.0
C922 C 0.76498 0.20577 0.9606 0.0
C923 C 0.78029 0.23017 0.98458 0.0
C924 C 0.79725 0.2552 0.96315 0.0
C925 C 0.79818 0.25564 0.91828 0.0
C926 C 0.74676 0.17869 0.98237 0.0
C927 C 0.81372 0.28166 0.98755 0.0
C928 C 0.75406 0.23354 0.09498 0.0
C929 C 0.77164 0.22936 0.12155 0.0
C930 C 0.75678 0.23401 0.05031 0.0
C931 C 0.77741 0.22987 0.03193 0.0
C932 C 0.79525 0.22566 0.05877 0.0
C933 C 0.79215 0.22548 0.10343 0.0
C934 C 0.73743 0.23867 0.02279 0.0
C935 C 0.8174 0.2211 0.04029 0.0
H936 H 0.75431 0.18837 0.897 0.0
H937 H 0.81051 0.27492 0.90173 0.0
H938 H 0.75863 0.17445 0.00651 0.0
H939 H 0.73003 0.1796 -0.00032 0.0
H940 H 0.73747 0.16139 0.95926 0.0
H941 H 0.82703 0.29907 0.96617 0.0
H942 H 0.79968 0.28678 0.0049 0.0
H943 H 0.82678 0.27936 0.0119 0.0
H944 H 0.73789 0.23602 0.10923 0.0
H945 H 0.80557 0.22208 0.12426 0.0
H946 H 0.72561 0.22078 0.00147 0.0
H947 H 0.74922 0.25682 0.00197 0.0
H948 H 0.72277 0.24192 0.04219 0.0
H949 H 0.80812 0.20278 0.01923 0.0
H950 H 0.82959 0.21815 0.06556 0.0
H951 H 0.83146 0.23885 0.02017 0.0
C952 C 0.55325 0.75041 0.58794 0.0
C953 C 0.5578 0.77301 0.61277 0.0
C954 C 0.55473 0.75204 0.54316 0.0
C955 C 0.56042 0.77675 0.52277 0.0
C956 C 0.56569 0.79988 0.54774 0.0
C957 C 0.56442 0.79775 0.5926 0.0
C958 C 0.54912 0.72697 0.51766 0.0
C959 C 0.5716 0.82651 0.52706 0.0
C960 C 0.57975 0.78619 0.40482 0.0
C961 C 0.55445 0.7784 0.38572 0.0
C962 C 0.58211 0.78576 0.44958 0.0
C963 C 0.55861 0.77762 0.4754 0.0
C964 C 0.53301 0.76977 0.45597 0.0
C965 C 0.53125 0.77017 0.41126 0.0
C966 C 0.60963 0.79396 0.46924 0.0
C967 C 0.50752 0.76112 0.48241 0.0
H968 H 0.5476 0.73109 0.60346 0.0
H969 H 0.56804 0.81523 0.61194 0.0
H970 H 0.5296 0.71922 0.49978 0.0
H971 H 0.56558 0.73226 0.49373 0.0
H972 H 0.54758 0.71023 0.5384 0.0
H973 H 0.57703 0.84306 0.55097 0.0
H974 H 0.58867 0.83333 0.5038 0.0
H975 H 0.55332 0.82341 0.50894 0.0
H976 H 0.59763 0.79264 0.38471 0.0
H977 H 0.51178 0.76448 0.39615 0.0
H978 H 0.60822 0.77681 0.48868 0.0
H979 H 0.61586 0.8116 0.49116 0.0
H980 H 0.62585 0.79967 0.44465 0.0
H981 H 0.50299 0.74289 0.50196 0.0
H982 H 0.48934 0.75608 0.46226 0.0
H983 H 0.51086 0.77776 0.50492 0.0
C984 C 0.21753 0.55895 0.18417 0.0
C985 C 0.20488 0.53958 0.21686 0.0
C986 C 0.21563 0.58279 0.18286 0.0
C987 C 0.20141 0.58776 0.2158 0.0
C988 C 0.18782 0.56781 0.24818 0.0
C989 C 0.18942 0.5437 0.248 0.0
C990 C 0.2298 0.60317 0.14715 0.0
C991 C 0.17293 0.57264 0.28431 0.0
C992 C 0.22744 0.66295 0.23838 0.0
C993 C 0.20718 0.66692 0.21925 0.0
C994 C 0.22534 0.63709 0.2385 0.0
C995 C 0.20277 0.61477 0.21806 0.0
C996 C 0.18232 0.61867 0.19842 0.0
C997 C 0.18459 0.64466 0.19972 0.0
C998 C 0.24734 0.63366 0.26046 0.0
C999 C 0.15834 0.59555 0.17539 0.0
H1000 H 0.22933 0.55563 0.1599 0.0
H1001 H 0.17987 0.5288 0.27349 0.0
H1002 H 0.21566 0.60925 0.13261 0.0
H1003 H 0.24755 0.62198 0.16024 0.0
H1004 H 0.23731 0.59486 0.12158 0.0
H1005 H 0.16172 0.55431 0.30509 0.0
H1006 H 0.1879 0.58997 0.30434 0.0
H1007 H 0.15816 0.57842 0.27148 0.0
H1008 H 0.24477 0.68001 0.25397 0.0
H1009 H 0.1689 0.64765 0.18481 0.0
H1010 H 0.25822 0.62797 0.23659 0.0
H1011 H 0.23797 0.61681 0.28428 0.0
H1012 H 0.26265 0.65265 0.27708 0.0
H1013 H 0.16588 0.58818 0.14855 0.0
H1014 H 0.14397 0.60184 0.16234 0.0
H1015 H 0.1469 0.578 0.19745 0.0
C1016 C 0.65674 0.2086 0.74849 0.0
C1017 C 0.66893 0.21045 0.70851 0.0
C1018 C 0.63043 0.20541 0.75136 0.0
C1019 C 0.61598 0.20387 0.71337 0.0
C1020 C 0.62745 0.20392 0.67302 0.0
C1021 C 0.65382 0.20727 0.67108 0.0
C1022 C 0.61884 0.20534 0.795 0.0
C1023 C 0.61256 0.20203 0.63179 0.0
C1024 C 0.54045 0.18243 0.71924 0.0
C1025 C 0.54164 0.20793 0.71866 0.0
C1026 C 0.56446 0.18071 0.71775 0.0
C1027 C 0.59023 0.20504 0.7156 0.0
C1028 C 0.59156 0.23081 0.71501 0.0
C1029 C 0.56729 0.23194 0.71655 0.0
C1030 C 0.56228 0.1529 0.71842 0.0
C1031 C 0.61867 0.25725 0.71267 0.0
H1032 H 0.66824 0.21095 0.77758 0.0
H1033 H 0.66298 0.20841 0.64006 0.0
H1034 H 0.61834 0.22463 0.79942 0.0
H1035 H 0.59746 0.18814 0.79769 0.0
H1036 H 0.63119 0.20363 0.8213 0.0
H1037 H 0.62289 0.19932 0.60343 0.0
H1038 H 0.5912 0.18468 0.6331 0.0
H1039 H 0.61154 0.22104 0.62734 0.0
H1040 H 0.52075 0.16377 0.72099 0.0
H1041 H 0.56847 0.25174 0.71609 0.0
H1042 H 0.57381 0.15143 0.74614 0.0
H1043 H 0.57165 0.15006 0.68902 0.0
H1044 H 0.5407 0.13594 0.7205 0.0
H1045 H 0.63178 0.25865 0.7402 0.0
H1046 H 0.61617 0.2756 0.7129 0.0
H1047 H 0.6297 0.25763 0.683 0.0
C1048 C 0.45706 0.65301 0.16469 0.0
C1049 C 0.46461 0.66912 0.20193 0.0
C1050 C 0.43407 0.62655 0.16434 0.0
C1051 C 0.41837 0.616 0.20215 0.0
C1052 C 0.42711 0.63135 0.2406 0.0
C1053 C 0.45014 0.65774 0.24003 0.0
C1054 C 0.42551 0.61073 0.12278 0.0
C1055 C 0.41106 0.62072 0.28169 0.0
C1056 C 0.34163 0.56955 0.19216 0.0
C1057 C 0.33836 0.54378 0.20188 0.0
C1058 C 0.36764 0.59302 0.19119 0.0
C1059 C 0.39104 0.59076 0.20032 0.0
C1060 C 0.38803 0.56476 0.20915 0.0
C1061 C 0.36169 0.54151 0.20974 0.0
C1062 C 0.36998 0.62038 0.18132 0.0
C1063 C 0.41254 0.56161 0.21905 0.0
H1064 H 0.46825 0.66153 0.13517 0.0
H1065 H 0.45603 0.66991 0.26909 0.0
H1066 H 0.42011 0.58913 0.12801 0.0
H1067 H 0.40699 0.61051 0.11017 0.0
H1068 H 0.44186 0.61991 0.09808 0.0
H1069 H 0.42235 0.63354 0.30976 0.0
H1070 H 0.39134 0.62055 0.27875 0.0
H1071 H 0.40615 0.59935 0.28779 0.0
H1072 H 0.32377 0.5715 0.18575 0.0
H1073 H 0.35934 0.52168 0.21735 0.0
H1074 H 0.38411 0.63026 0.15394 0.0
H1075 H 0.37873 0.63423 0.20933 0.0
H1076 H 0.34988 0.61846 0.17336 0.0
H1077 H 0.42817 0.57118 0.19345 0.0
H1078 H 0.40694 0.53979 0.22235 0.0
H1079 H 0.42218 0.57242 0.24939 0.0
C1080 C 0.81148 0.35271 0.713 0.0
C1081 C 0.78636 0.32842 0.71869 0.0
C1082 C 0.81265 0.37812 0.7092 0.0
C1083 C 0.78815 0.37925 0.71138 0.0
C1084 C 0.76276 0.35483 0.71707 0.0
C1085 C 0.76217 0.32974 0.72054 0.0
C1086 C 0.84006 0.40374 0.70289 0.0
C1087 C 0.73617 0.35518 0.71969 0.0
C1088 C 0.78724 0.44395 0.74181 0.0
C1089 C 0.78176 0.45197 0.70217 0.0
C1090 C 0.79067 0.421 0.74504 0.0
C1091 C 0.78876 0.40586 0.70771 0.0
C1092 C 0.78491 0.41485 0.6673 0.0
C1093 C 0.78139 0.43776 0.66503 0.0
C1094 C 0.79476 0.41205 0.78872 0.0
C1095 C 0.78306 0.39942 0.62671 0.0
H1096 H 0.83029 0.35192 0.7115 0.0
H1097 H 0.74266 0.31114 0.72501 0.0
H1098 H 0.83992 0.41408 0.6727 0.0
H1099 H 0.84398 0.41835 0.72943 0.0
H1100 H 0.8572 0.39935 0.70158 0.0
H1101 H 0.71818 0.3344 0.72443 0.0
H1102 H 0.73702 0.36843 0.74664 0.0
H1103 H 0.73302 0.36399 0.68988 0.0
H1104 H 0.78765 0.45486 0.77067 0.0
H1105 H 0.7774 0.44396 0.63422 0.0
H1106 H 0.8123 0.40832 0.78824 0.0
H1107 H 0.77626 0.39247 0.79759 0.0
H1108 H 0.79847 0.42747 0.8139 0.0
H1109 H 0.80047 0.39552 0.62465 0.0
H1110 H 0.78301 0.41069 0.59753 0.0
H1111 H 0.76394 0.37921 0.62707 0.0
C1112 C 0.34366 0.78832 0.17674 0.0
C1113 C 0.32756 0.78473 0.21308 0.0
C1114 C 0.37011 0.79208 0.18053 0.0
C1115 C 0.38073 0.79216 0.22167 0.0
C1116 C 0.36523 0.79017 0.25861 0.0
C1117 C 0.33882 0.78653 0.25389 0.0
C1118 C 0.38606 0.79437 0.14034 0.0
C1119 C 0.3759 0.79028 0.30304 0.0
C1120 C 0.43028 0.76517 0.22665 0.0
C1121 C 0.45576 0.7894 0.22869 0.0
C1122 C 0.40578 0.76587 0.22512 0.0
C1123 C 0.40667 0.79142 0.22566 0.0
C1124 C 0.43224 0.81597 0.22834 0.0
C1125 C 0.4565 0.81468 0.2298 0.0
C1126 C 0.37892 0.7392 0.22227 0.0
C1127 C 0.43396 0.84358 0.22903 0.0
H1128 H 0.33523 0.78724 0.14509 0.0
H1129 H 0.32655 0.78386 0.28215 0.0
H1130 H 0.40719 0.81207 0.14262 0.0
H1131 H 0.3877 0.77566 0.13664 0.0
H1132 H 0.37618 0.7968 0.11115 0.0
H1133 H 0.36288 0.79182 0.32836 0.0
H1134 H 0.37647 0.77108 0.30813 0.0
H1135 H 0.39714 0.80759 0.30673 0.0
H1136 H 0.42942 0.74552 0.2259 0.0
H1137 H 0.47606 0.83352 0.23154 0.0
H1138 H 0.36832 0.7385 0.19192 0.0
H1139 H 0.36526 0.73772 0.24899 0.0
H1140 H 0.38172 0.72104 0.22346 0.0
H1141 H 0.42567 0.84674 0.19867 0.0
H1142 H 0.45532 0.86069 0.23312 0.0
H1143 H 0.42124 0.84441 0.25547 0.0
C1144 C 0.66519 0.42914 0.72502 0.0
C1145 C 0.66662 0.4547 0.72692 0.0
C1146 C 0.63997 0.40484 0.72125 0.0
C1147 C 0.61551 0.40605 0.71922 0.0
C1148 C 0.6167 0.43171 0.72141 0.0
C1149 C 0.64227 0.45577 0.72529 0.0
C1150 C 0.63956 0.37784 0.71912 0.0
C1151 C 0.59102 0.43376 0.71923 0.0
C1152 C 0.55657 0.34314 0.66835 0.0
C1153 C 0.54308 0.32731 0.70447 0.0
C1154 C 0.5793 0.36954 0.67268 0.0
C1155 C 0.58884 0.38029 0.71414 0.0
C1156 C 0.57435 0.36507 0.75069 0.0
C1157 C 0.55156 0.33876 0.74542 0.0
C1158 C 0.59403 0.38527 0.6329 0.0
C1159 C 0.58388 0.37585 0.79543 0.0
H1160 H 0.68384 0.42804 0.72633 0.0
H1161 H 0.64315 0.47541 0.72675 0.0
H1162 H 0.62661 0.36413 0.74526 0.0
H1163 H 0.63039 0.36741 0.68834 0.0
H1164 H 0.66037 0.38041 0.72188 0.0
H1165 H 0.5954 0.45523 0.72219 0.0
H1166 H 0.58035 0.42525 0.68836 0.0
H1167 H 0.57671 0.42137 0.74517 0.0
H1168 H 0.54999 0.33453 0.63658 0.0
H1169 H 0.54119 0.32671 0.77352 0.0
H1170 H 0.61427 0.38649 0.63072 0.0
H1171 H 0.59784 0.40655 0.63449 0.0
H1172 H 0.58231 0.37545 0.60322 0.0
H1173 H 0.6035 0.3764 0.80207 0.0
H1174 H 0.56875 0.36293 0.82019 0.0
H1175 H 0.58777 0.39711 0.79842 0.0
C1176 C 0.35974 0.81981 0.77486 0.0
C1177 C 0.33643 0.79359 0.77683 0.0
C1178 C 0.38624 0.82329 0.77706 0.0
C1179 C 0.38941 0.80001 0.78128 0.0
C1180 C 0.36597 0.77354 0.78302 0.0
C1181 C 0.33985 0.77067 0.7808 0.0
C1182 C 0.41079 0.85181 0.77514 0.0
C1183 C 0.36845 0.74815 0.78747 0.0
C1184 C 0.45327 0.79747 0.75179 0.0
C1185 C 0.46332 0.79631 0.79242 0.0
C1186 C 0.43023 0.80067 0.74746 0.0
C1187 C 0.41706 0.80288 0.78463 0.0
C1188 C 0.42845 0.80396 0.8255 0.0
C1189 C 0.45144 0.80062 0.82892 0.0
C1190 C 0.41879 0.79957 0.70328 0.0
C1191 C 0.41519 0.80656 0.86591 0.0
H1192 H 0.35732 0.83765 0.77174 0.0
H1193 H 0.32204 0.7503 0.78227 0.0
H1194 H 0.42298 0.8562 0.805 0.0
H1195 H 0.42432 0.85336 0.74818 0.0
H1196 H 0.40486 0.86775 0.77101 0.0
H1197 H 0.34818 0.72904 0.78778 0.0
H1198 H 0.38069 0.74696 0.7606 0.0
H1199 H 0.37936 0.74915 0.81763 0.0
H1200 H 0.46244 0.79436 0.72337 0.0
H1201 H 0.45927 0.8001 0.86042 0.0
H1202 H 0.41337 0.81586 0.69941 0.0
H1203 H 0.39973 0.77958 0.69887 0.0
H1204 H 0.43346 0.80186 0.67765 0.0
H1205 H 0.41 0.82303 0.86255 0.0
H1206 H 0.4286 0.81099 0.89439 0.0
H1207 H 0.39578 0.78711 0.8717 0.0
C1208 C 0.54161 0.3564 0.2722 0.0
C1209 C 0.54252 0.33195 0.27359 0.0
C1210 C 0.56575 0.38204 0.27439 0.0
C1211 C 0.59136 0.38324 0.27817 0.0
C1212 C 0.59241 0.35867 0.27931 0.0
C1213 C 0.56804 0.33339 0.27696 0.0
C1214 C 0.56385 0.40782 0.27299 0.0
C1215 C 0.61932 0.35904 0.28344 0.0
C1216 C 0.65932 0.44615 0.25028 0.0
C1217 C 0.67028 0.45586 0.29114 0.0
C1218 C 0.63296 0.42331 0.24539 0.0
C1219 C 0.61719 0.41002 0.28223 0.0
C1220 C 0.62749 0.42083 0.32338 0.0
C1221 C 0.65391 0.44358 0.32734 0.0
C1222 C 0.62266 0.41245 0.20095 0.0
C1223 C 0.61124 0.40743 0.36345 0.0
H1224 H 0.52202 0.35554 0.26944 0.0
H1225 H 0.56905 0.31468 0.27804 0.0
H1226 H 0.57213 0.41957 0.30311 0.0
H1227 H 0.5765 0.42115 0.24632 0.0
H1228 H 0.54245 0.40341 0.26874 0.0
H1229 H 0.61665 0.33813 0.28304 0.0
H1230 H 0.63322 0.37105 0.25684 0.0
H1231 H 0.62957 0.36922 0.31385 0.0
H1232 H 0.67179 0.45557 0.22213 0.0
H1233 H 0.6621 0.45113 0.35902 0.0
H1234 H 0.60144 0.40847 0.19662 0.0
H1235 H 0.62215 0.39266 0.19654 0.0
H1236 H 0.63586 0.42685 0.17561 0.0
H1237 H 0.59007 0.4038 0.36045 0.0
H1238 H 0.62082 0.42 0.39253 0.0
H1239 H 0.60973 0.38718 0.36791 0.0
C1240 C 0.22217 0.5653 0.74883 0.0
C1241 C 0.20285 0.54052 0.76769 0.0
C1242 C 0.219 0.5884 0.75047 0.0
C1243 C 0.19636 0.58691 0.77261 0.0
C1244 C 0.17662 0.56186 0.79141 0.0
C1245 C 0.17991 0.53879 0.7882 0.0
C1246 C 0.2402 0.61456 0.72914 0.0
C1247 C 0.15264 0.55971 0.81622 0.0
C1248 C 0.21241 0.65676 0.81207 0.0
C1249 C 0.19965 0.66443 0.78092 0.0
C1250 C 0.2097 0.63067 0.81159 0.0
C1251 C 0.19466 0.61221 0.7782 0.0
C1252 C 0.18073 0.61947 0.74767 0.0
C1253 C 0.18311 0.64549 0.74977 0.0
C1254 C 0.22422 0.62347 0.84545 0.0
C1255 C 0.16503 0.60061 0.71105 0.0
H1256 H 0.23975 0.56658 0.73247 0.0
H1257 H 0.165 0.51963 0.80292 0.0
H1258 H 0.23009 0.62254 0.70767 0.0
H1259 H 0.2516 0.63044 0.7538 0.0
H1260 H 0.25518 0.61161 0.71009 0.0
H1261 H 0.13826 0.5384 0.82676 0.0
H1262 H 0.16024 0.57306 0.84497 0.0
H1263 H 0.14121 0.56704 0.79648 0.0
H1264 H 0.22512 0.6715 0.83625 0.0
H1265 H 0.17353 0.65166 0.72544 0.0
H1266 H 0.24204 0.62317 0.83096 0.0
H1267 H 0.21036 0.60273 0.85856 0.0
H1268 H 0.23173 0.63843 0.8723 0.0
H1269 H 0.17965 0.59942 0.68855 0.0
H1270 H 0.15282 0.60785 0.69308 0.0
H1271 H 0.15107 0.57956 0.72289 0.0
C1272 C 0.53898 0.18961 0.32376 0.0
C1273 C 0.53265 0.20044 0.28791 0.0
C1274 C 0.5621 0.18634 0.32389 0.0
C1275 C 0.57916 0.19401 0.28726 0.0
C1276 C 0.57166 0.20292 0.24987 0.0
C1277 C 0.54849 0.20604 0.25065 0.0
C1278 C 0.56933 0.17661 0.3643 0.0
C1279 C 0.58917 0.21105 0.21 0.0
C1280 C 0.65561 0.2246 0.30248 0.0
C1281 C 0.6597 0.20307 0.28959 0.0
C1282 C 0.62939 0.22155 0.30288 0.0
C1283 C 0.60661 0.19639 0.28982 0.0
C1284 C 0.61043 0.17431 0.27773 0.0
C1285 C 0.63697 0.17788 0.27787 0.0
C1286 C 0.62617 0.24556 0.31639 0.0
C1287 C 0.58661 0.14723 0.26352 0.0
H1288 H 0.52674 0.18502 0.3526 0.0
H1289 H 0.54355 0.21409 0.2226 0.0
H1290 H 0.57531 0.16107 0.35679 0.0
H1291 H 0.58716 0.19416 0.37992 0.0
H1292 H 0.55207 0.16767 0.38749 0.0
H1293 H 0.57875 0.21413 0.1821 0.0
H1294 H 0.60858 0.23046 0.21602 0.0
H1295 H 0.59461 0.19523 0.20164 0.0
H1296 H 0.673 0.24405 0.31194 0.0
H1297 H 0.63997 0.16116 0.26779 0.0
H1298 H 0.61102 0.23938 0.34276 0.0
H1299 H 0.61828 0.25225 0.28913 0.0
H1300 H 0.6458 0.26332 0.32733 0.0
H1301 H 0.57004 0.13943 0.28782 0.0
H1302 H 0.59269 0.13151 0.25811 0.0
H1303 H 0.57798 0.15009 0.23328 0.0
C1304 C 0.45736 0.64933 0.78736 0.0
C1305 C 0.45753 0.67424 0.78317 0.0
C1306 C 0.43258 0.6243 0.78975 0.0
C1307 C 0.40742 0.62418 0.78773 0.0
C1308 C 0.40747 0.64922 0.78356 0.0
C1309 C 0.43248 0.6739 0.78142 0.0
C1310 C 0.4333 0.598 0.7944 0.0
C1311 C 0.38106 0.64996 0.78123 0.0
C1312 C 0.34103 0.56108 0.75446 0.0
C1313 C 0.32738 0.5523 0.79386 0.0
C1314 C 0.36761 0.58383 0.75214 0.0
C1315 C 0.38088 0.59799 0.79015 0.0
C1316 C 0.36776 0.58835 0.8302 0.0
C1317 C 0.34115 0.56566 0.83156 0.0
C1318 C 0.38094 0.59349 0.70882 0.0
C1319 C 0.38133 0.60274 0.87148 0.0
H1320 H 0.47659 0.64935 0.78873 0.0
H1321 H 0.43233 0.69297 0.77812 0.0
H1322 H 0.42243 0.58719 0.82407 0.0
H1323 H 0.42245 0.58416 0.76711 0.0
H1324 H 0.45456 0.6016 0.79566 0.0
H1325 H 0.38465 0.67113 0.77774 0.0
H1326 H 0.36862 0.63756 0.75363 0.0
H1327 H 0.36878 0.64078 0.81062 0.0
H1328 H 0.33058 0.55083 0.72517 0.0
H1329 H 0.33084 0.55888 0.86219 0.0
H1330 H 0.4019 0.59636 0.70906 0.0
H1331 H 0.38291 0.61366 0.70137 0.0
H1332 H 0.36896 0.5789 0.68282 0.0
H1333 H 0.4023 0.60573 0.87366 0.0
H1334 H 0.36952 0.5912 0.90016 0.0
H1335 H 0.38332 0.62335 0.87206 0.0
C1336 C 0.81052 0.35424 0.25916 0.0
C1337 C 0.79336 0.33409 0.28837 0.0
C1338 C 0.81237 0.38008 0.25884 0.0
C1339 C 0.7973 0.38592 0.28926 0.0
C1340 C 0.78132 0.36609 0.32047 0.0
C1341 C 0.77918 0.34025 0.31917 0.0
C1342 C 0.8291 0.40045 0.22444 0.0
C1343 C 0.76554 0.37174 0.35417 0.0
C1344 C 0.81337 0.45933 0.30632 0.0
C1345 C 0.79164 0.45932 0.28436 0.0
C1346 C 0.81564 0.43562 0.30807 0.0
C1347 C 0.79616 0.41168 0.28632 0.0
C1348 C 0.7746 0.41183 0.26321 0.0
C1349 C 0.77239 0.43552 0.26303 0.0
C1350 C 0.83844 0.43599 0.334 0.0
C1351 C 0.75375 0.38689 0.23884 0.0
H1352 H 0.82124 0.3493 0.23509 0.0
H1353 H 0.76604 0.32462 0.34192 0.0
H1354 H 0.81522 0.40319 0.20234 0.0
H1355 H 0.84318 0.42074 0.23876 0.0
H1356 H 0.84134 0.39369 0.20546 0.0
H1357 H 0.7568 0.35546 0.37903 0.0
H1358 H 0.779 0.39168 0.37005 0.0
H1359 H 0.74849 0.3731 0.33886 0.0
H1360 H 0.82825 0.4777 0.32293 0.0
H1361 H 0.75577 0.43555 0.24554 0.0
H1362 H 0.85074 0.43003 0.31366 0.0
H1363 H 0.82961 0.42074 0.3603 0.0
H1364 H 0.8523 0.45645 0.34818 0.0
H1365 H 0.76425 0.37974 0.21664 0.0
H1366 H 0.73945 0.39101 0.22001 0.0
H1367 H 0.74156 0.36992 0.26151 0.0
loop_
_geom_bond_atom_site_label_1
_geom_bond_atom_site_label_2
_geom_bond_distance
_geom_bond_site_symmetry_2
_ccdc_geom_bond_type
Co0 O3 1.970 . S
Co0 N17 1.989 . S
Co0 O25 1.967 . S
Co0 O32 1.920 . S
Co1 O4 1.966 . S
Co1 N10 2.022 . S
Co1 N18 1.993 . S
Co1 O26 1.941 . S
C2 O3 1.258 . S
C2 O4 1.263 . S
O3 Co0 1.970 . S
O3 C2 1.258 . S
O4 Co1 1.966 . S
O4 C2 1.263 . S
C5 O6 1.235 . S
C5 O32 1.289 . S
O6 C5 1.235 . S
C7 C9 1.400 . S
C7 N10 1.351 . S
C7 C12 1.501 . S
C8 C9 1.387 . S
C8 N11 1.341 . S
C9 C7 1.400 . S
C9 C8 1.387 . S
N10 Co1 2.022 . S
N10 C7 1.351 . S
N10 N11 1.365 . S
N11 C8 1.341 . S
N11 N10 1.365 . S
N11 H31 0.862 . S
C12 C7 1.501 . S
C12 H13 0.961 . S
C12 H14 0.961 . S
C12 H15 0.960 . S
H13 C12 0.961 . S
H14 C12 0.961 . S
H15 C12 0.960 . S
C16 N17 1.342 . S
C16 C20 1.401 . S
C16 C21 1.499 . S
N17 Co0 1.989 . S
N17 C16 1.342 . S
N17 N18 1.388 . S
N18 Co1 1.993 . S
N18 N17 1.388 . S
N18 C19 1.346 . S
C19 N18 1.346 . S
C19 C20 1.396 . S
C19 C29 1.510 . S
C20 C16 1.401 . S
C20 C19 1.396 . S
C21 C16 1.499 . S
C21 H22 0.959 . S
C21 H23 0.960 . S
C21 H24 0.961 . S
H22 C21 0.959 . S
H23 C21 0.960 . S
H24 C21 0.961 . S
O25 Co0 1.967 . S
O25 C33 1.258 . S
O26 Co1 1.941 . S
O26 C33 1.266 . S
H27 C29 0.959 . S
H28 C29 0.961 . S
C29 C19 1.510 . S
C29 H27 0.959 . S
C29 H28 0.961 . S
C29 H30 0.960 . S
H30 C29 0.960 . S
H31 N11 0.862 . S
O32 Co0 1.920 . S
O32 C5 1.289 . S
C33 O25 1.258 . S
C33 O26 1.266 . S
Co34 O37 1.970 . S
Co34 N51 1.989 . S
Co34 O59 1.967 . S
Co34 O66 1.920 . S
Co35 O38 1.966 . S
Co35 N44 2.022 . S
Co35 N52 1.993 . S
Co35 O60 1.941 . S
C36 O37 1.258 . S
C36 O38 1.263 . S
O37 Co34 1.970 . S
O37 C36 1.258 . S
O38 Co35 1.966 . S
O38 C36 1.263 . S
C39 O40 1.235 . S
C39 O66 1.289 . S
O40 C39 1.235 . S
C41 C43 1.400 . S
C41 N44 1.351 . S
C41 C46 1.501 . S
C42 C43 1.387 . S
C42 N45 1.341 . S
C43 C41 1.400 . S
C43 C42 1.387 . S
N44 Co35 2.022 . S
N44 C41 1.351 . S
N44 N45 1.365 . S
N45 C42 1.341 . S
N45 N44 1.365 . S
N45 H65 0.862 . S
C46 C41 1.501 . S
C46 H47 0.961 . S
C46 H48 0.961 . S
C46 H49 0.960 . S
H47 C46 0.961 . S
H48 C46 0.961 . S
H49 C46 0.960 . S
C50 N51 1.342 . S
C50 C54 1.401 . S
C50 C55 1.499 . S
N51 Co34 1.989 . S
N51 C50 1.342 . S
N51 N52 1.388 . S
N52 Co35 1.993 . S
N52 N51 1.388 . S
N52 C53 1.346 . S
C53 N52 1.346 . S
C53 C54 1.396 . S
C53 C63 1.510 . S
C54 C50 1.401 . S
C54 C53 1.396 . S
C55 C50 1.499 . S
C55 H56 0.959 . S
C55 H57 0.960 . S
C55 H58 0.961 . S
H56 C55 0.959 . S
H57 C55 0.960 . S
H58 C55 0.961 . S
O59 Co34 1.967 . S
O59 C67 1.258 . S
O60 Co35 1.941 . S
O60 C67 1.266 . S
H61 C63 0.959 . S
H62 C63 0.961 . S
C63 C53 1.510 . S
C63 H61 0.959 . S
C63 H62 0.961 . S
C63 H64 0.960 . S
H64 C63 0.960 . S
H65 N45 0.862 . S
O66 Co34 1.920 . S
O66 C39 1.289 . S
C67 O59 1.258 . S
C67 O60 1.266 . S
Co68 O71 1.970 . S
Co68 N85 1.989 . S
Co68 O93 1.967 . S
Co68 O100 1.920 . S
Co69 O72 1.966 . S
Co69 N78 2.022 . S
Co69 N86 1.993 . S
Co69 O94 1.941 . S
C70 O71 1.258 . S
C70 O72 1.263 . S
O71 Co68 1.970 . S
O71 C70 1.258 . S
O72 Co69 1.966 . S
O72 C70 1.263 . S
C73 O74 1.235 . S
C73 O100 1.289 . S
O74 C73 1.235 . S
C75 C77 1.400 . S
C75 N78 1.351 . S
C75 C80 1.501 . S
C76 C77 1.387 . S
C76 N79 1.341 . S
C77 C75 1.400 . S
C77 C76 1.387 . S
N78 Co69 2.022 . S
N78 C75 1.351 . S
N78 N79 1.365 . S
N79 C76 1.341 . S
N79 N78 1.365 . S
N79 H99 0.862 . S
C80 C75 1.501 . S
C80 H81 0.961 . S
C80 H82 0.961 . S
C80 H83 0.960 . S
H81 C80 0.961 . S
H82 C80 0.961 . S
H83 C80 0.960 . S
C84 N85 1.342 . S
C84 C88 1.401 . S
C84 C89 1.499 . S
N85 Co68 1.989 . S
N85 C84 1.342 . S
N85 N86 1.388 . S
N86 Co69 1.993 . S
N86 N85 1.388 . S
N86 C87 1.346 . S
C87 N86 1.346 . S
C87 C88 1.396 . S
C87 C97 1.510 . S
C88 C84 1.401 . S
C88 C87 1.396 . S
C89 C84 1.499 . S
C89 H90 0.959 . S
C89 H91 0.960 . S
C89 H92 0.961 . S
H90 C89 0.959 . S
H91 C89 0.960 . S
H92 C89 0.961 . S
O93 Co68 1.967 . S
O93 C101 1.258 . S
O94 Co69 1.941 . S
O94 C101 1.266 . S
H95 C97 0.959 . S
H96 C97 0.961 . S
C97 C87 1.510 . S
C97 H95 0.959 . S
C97 H96 0.961 . S
C97 H98 0.960 . S
H98 C97 0.960 . S
H99 N79 0.862 . S
O100 Co68 1.920 . S
O100 C73 1.289 . S
C101 O93 1.258 . S
C101 O94 1.266 . S
Co102 O105 1.970 . S
Co102 N119 1.989 . S
Co102 O127 1.967 . S
Co102 O134 1.920 . S
Co103 O106 1.966 . S
Co103 N112 2.022 . S
Co103 N120 1.993 . S
Co103 O128 1.941 . S
C104 O105 1.258 . S
C104 O106 1.263 . S
O105 Co102 1.970 . S
O105 C104 1.258 . S
O106 Co103 1.966 . S
O106 C104 1.263 . S
C107 O108 1.235 . S
C107 O134 1.289 . S
O108 C107 1.235 . S
C109 C111 1.400 . S
C109 N112 1.351 . S
C109 C114 1.501 . S
C110 C111 1.387 . S
C110 N113 1.341 . S
C111 C109 1.400 . S
C111 C110 1.387 . S
N112 Co103 2.022 . S
N112 C109 1.351 . S
N112 N113 1.365 . S
N113 C110 1.341 . S
N113 N112 1.365 . S
N113 H133 0.862 . S
C114 C109 1.501 . S
C114 H115 0.961 . S
C114 H116 0.961 . S
C114 H117 0.960 . S
H115 C114 0.961 . S
H116 C114 0.961 . S
H117 C114 0.960 . S
C118 N119 1.342 . S
C118 C122 1.401 . S
C118 C123 1.499 . S
N119 Co102 1.989 . S
N119 C118 1.342 . S
N119 N120 1.388 . S
N120 Co103 1.993 . S
N120 N119 1.388 . S
N120 C121 1.346 . S
C121 N120 1.346 . S
C121 C122 1.396 . S
C121 C131 1.510 . S
C122 C118 1.401 . S
C122 C121 1.396 . S
C123 C118 1.499 . S
C123 H124 0.959 . S
C123 H125 0.960 . S
C123 H126 0.961 . S
H124 C123 0.959 . S
H125 C123 0.960 . S
H126 C123 0.961 . S
O127 Co102 1.967 . S
O127 C135 1.258 . S
O128 Co103 1.941 . S
O128 C135 1.266 . S
H129 C131 0.959 . S
H130 C131 0.961 . S
C131 C121 1.510 . S
C131 H129 0.959 . S
C131 H130 0.961 . S
C131 H132 0.960 . S
H132 C131 0.960 . S
H133 N113 0.862 . S
O134 Co102 1.920 . S
O134 C107 1.289 . S
C135 O127 1.258 . S
C135 O128 1.266 . S
Co136 O139 1.970 . S
Co136 N153 1.989 . S
Co136 O161 1.967 . S
Co136 O168 1.920 . S
Co137 O140 1.966 . S
Co137 N146 2.022 . S
Co137 N154 1.993 . S
Co137 O162 1.941 . S
C138 O139 1.258 . S
C138 O140 1.263 . S
O139 Co136 1.970 . S
O139 C138 1.258 . S
O140 Co137 1.966 . S
O140 C138 1.263 . S
C141 O142 1.235 . S
C141 O168 1.289 . S
O142 C141 1.235 . S
C143 C145 1.400 . S
C143 N146 1.351 . S
C143 C148 1.501 . S
C144 C145 1.387 . S
C144 N147 1.341 . S
C145 C143 1.400 . S
C145 C144 1.387 . S
N146 Co137 2.022 . S
N146 C143 1.351 . S
N146 N147 1.365 . S
N147 C144 1.341 . S
N147 N146 1.365 . S
N147 H167 0.862 . S
C148 C143 1.501 . S
C148 H149 0.961 . S
C148 H150 0.961 . S
C148 H151 0.960 . S
H149 C148 0.961 . S
H150 C148 0.961 . S
H151 C148 0.960 . S
C152 N153 1.342 . S
C152 C156 1.401 . S
C152 C157 1.499 . S
N153 Co136 1.989 . S
N153 C152 1.342 . S
N153 N154 1.388 . S
N154 Co137 1.993 . S
N154 N153 1.388 . S
N154 C155 1.346 . S
C155 N154 1.346 . S
C155 C156 1.396 . S
C155 C165 1.510 . S
C156 C152 1.401 . S
C156 C155 1.396 . S
C157 C152 1.499 . S
C157 H158 0.959 . S
C157 H159 0.960 . S
C157 H160 0.961 . S
H158 C157 0.959 . S
H159 C157 0.960 . S
H160 C157 0.961 . S
O161 Co136 1.967 . S
O161 C169 1.258 . S
O162 Co137 1.941 . S
O162 C169 1.266 . S
H163 C165 0.959 . S
H164 C165 0.961 . S
C165 C155 1.510 . S
C165 H163 0.959 . S
C165 H164 0.961 . S
C165 H166 0.960 . S
H166 C165 0.960 . S
H167 N147 0.862 . S
O168 Co136 1.920 . S
O168 C141 1.289 . S
C169 O161 1.258 . S
C169 O162 1.266 . S
Co170 O173 1.970 . S
Co170 N187 1.989 . S
Co170 O195 1.967 . S
Co170 O202 1.920 . S
Co171 O174 1.966 . S
Co171 N180 2.022 . S
Co171 N188 1.993 . S
Co171 O196 1.941 . S
C172 O173 1.258 . S
C172 O174 1.263 . S
O173 Co170 1.970 . S
O173 C172 1.258 . S
O174 Co171 1.966 . S
O174 C172 1.263 . S
C175 O176 1.235 . S
C175 O202 1.289 . S
O176 C175 1.235 . S
C177 C179 1.400 . S
C177 N180 1.351 . S
C177 C182 1.501 . S
C178 C179 1.387 . S
C178 N181 1.341 . S
C179 C177 1.400 . S
C179 C178 1.387 . S
N180 Co171 2.022 . S
N180 C177 1.351 . S
N180 N181 1.365 . S
N181 C178 1.341 . S
N181 N180 1.365 . S
N181 H201 0.862 . S
C182 C177 1.501 . S
C182 H183 0.961 . S
C182 H184 0.961 . S
C182 H185 0.960 . S
H183 C182 0.961 . S
H184 C182 0.961 . S
H185 C182 0.960 . S
C186 N187 1.342 . S
C186 C190 1.401 . S
C186 C191 1.499 . S
N187 Co170 1.989 . S
N187 C186 1.342 . S
N187 N188 1.388 . S
N188 Co171 1.993 . S
N188 N187 1.388 . S
N188 C189 1.346 . S
C189 N188 1.346 . S
C189 C190 1.396 . S
C189 C199 1.510 . S
C190 C186 1.401 . S
C190 C189 1.396 . S
C191 C186 1.499 . S
C191 H192 0.959 . S
C191 H193 0.960 . S
C191 H194 0.961 . S
H192 C191 0.959 . S
H193 C191 0.960 . S
H194 C191 0.961 . S
O195 Co170 1.967 . S
O195 C203 1.258 . S
O196 Co171 1.941 . S
O196 C203 1.266 . S
H197 C199 0.959 . S
H198 C199 0.961 . S
C199 C189 1.510 . S
C199 H197 0.959 . S
C199 H198 0.961 . S
C199 H200 0.960 . S
H200 C199 0.960 . S
H201 N181 0.862 . S
O202 Co170 1.920 . S
O202 C175 1.289 . S
C203 O195 1.258 . S
C203 O196 1.266 . S
Co204 O207 1.970 . S
Co204 N221 1.989 . S
Co204 O229 1.967 . S
Co204 O236 1.920 . S
Co205 O208 1.966 . S
Co205 N214 2.022 . S
Co205 N222 1.993 . S
Co205 O230 1.941 . S
C206 O207 1.258 . S
C206 O208 1.263 . S
O207 Co204 1.970 . S
O207 C206 1.258 . S
O208 Co205 1.966 . S
O208 C206 1.263 . S
C209 O210 1.235 . S
C209 O236 1.289 . S
O210 C209 1.235 . S
C211 C213 1.400 . S
C211 N214 1.351 . S
C211 C216 1.501 . S
C212 C213 1.387 . S
C212 N215 1.341 . S
C213 C211 1.400 . S
C213 C212 1.387 . S
N214 Co205 2.022 . S
N214 C211 1.351 . S
N214 N215 1.365 . S
N215 C212 1.341 . S
N215 N214 1.365 . S
N215 H235 0.862 . S
C216 C211 1.501 . S
C216 H217 0.961 . S
C216 H218 0.961 . S
C216 H219 0.960 . S
H217 C216 0.961 . S
H218 C216 0.961 . S
H219 C216 0.960 . S
C220 N221 1.342 . S
C220 C224 1.401 . S
C220 C225 1.499 . S
N221 Co204 1.989 . S
N221 C220 1.342 . S
N221 N222 1.388 . S
N222 Co205 1.993 . S
N222 N221 1.388 . S
N222 C223 1.346 . S
C223 N222 1.346 . S
C223 C224 1.396 . S
C223 C233 1.510 . S
C224 C220 1.401 . S
C224 C223 1.396 . S
C225 C220 1.499 . S
C225 H226 0.959 . S
C225 H227 0.960 . S
C225 H228 0.961 . S
H226 C225 0.959 . S
H227 C225 0.960 . S
H228 C225 0.961 . S
O229 Co204 1.967 . S
O229 C237 1.258 . S
O230 Co205 1.941 . S
O230 C237 1.266 . S
H231 C233 0.959 . S
H232 C233 0.961 . S
C233 C223 1.510 . S
C233 H231 0.959 . S
C233 H232 0.961 . S
C233 H234 0.960 . S
H234 C233 0.960 . S
H235 N215 0.862 . S
O236 Co204 1.920 . S
O236 C209 1.289 . S
C237 O229 1.258 . S
C237 O230 1.266 . S
Co238 O241 1.970 . S
Co238 N255 1.989 . S
Co238 O263 1.967 . S
Co238 O270 1.920 . S
Co239 O242 1.966 . S
Co239 N248 2.022 . S
Co239 N256 1.993 . S
Co239 O264 1.941 . S
C240 O241 1.258 . S
C240 O242 1.263 . S
O241 Co238 1.970 . S
O241 C240 1.258 . S
O242 Co239 1.966 . S
O242 C240 1.263 . S
C243 O244 1.235 . S
C243 O270 1.289 . S
O244 C243 1.235 . S
C245 C247 1.400 . S
C245 N248 1.351 . S
C245 C250 1.501 . S
C246 C247 1.387 . S
C246 N249 1.341 . S
C247 C245 1.400 . S
C247 C246 1.387 . S
N248 Co239 2.022 . S
N248 C245 1.351 . S
N248 N249 1.365 . S
N249 C246 1.341 . S
N249 N248 1.365 . S
N249 H269 0.862 . S
C250 C245 1.501 . S
C250 H251 0.961 . S
C250 H252 0.961 . S
C250 H253 0.960 . S
H251 C250 0.961 . S
H252 C250 0.961 . S
H253 C250 0.960 . S
C254 N255 1.342 . S
C254 C258 1.401 . S
C254 C259 1.499 . S
N255 Co238 1.989 . S
N255 C254 1.342 . S
N255 N256 1.388 . S
N256 Co239 1.993 . S
N256 N255 1.388 . S
N256 C257 1.346 . S
C257 N256 1.346 . S
C257 C258 1.396 . S
C257 C267 1.510 . S
C258 C254 1.401 . S
C258 C257 1.396 . S
C259 C254 1.499 . S
C259 H260 0.959 . S
C259 H261 0.960 . S
C259 H262 0.961 . S
H260 C259 0.959 . S
H261 C259 0.960 . S
H262 C259 0.961 . S
O263 Co238 1.967 . S
O263 C271 1.258 . S
O264 Co239 1.941 . S
O264 C271 1.266 . S
H265 C267 0.959 . S
H266 C267 0.961 . S
C267 C257 1.510 . S
C267 H265 0.959 . S
C267 H266 0.961 . S
C267 H268 0.960 . S
H268 C267 0.960 . S
H269 N249 0.862 . S
O270 Co238 1.920 . S
O270 C243 1.289 . S
C271 O263 1.258 . S
C271 O264 1.266 . S
Co272 O275 1.970 . S
Co272 N289 1.989 . S
Co272 O297 1.967 . S
Co272 O304 1.920 . S
Co273 O276 1.966 . S
Co273 N282 2.022 . S
Co273 N290 1.993 . S
Co273 O298 1.941 . S
C274 O275 1.258 . S
C274 O276 1.263 . S
O275 Co272 1.970 . S
O275 C274 1.258 . S
O276 Co273 1.966 . S
O276 C274 1.263 . S
C277 O278 1.235 . S
C277 O304 1.289 . S
O278 C277 1.235 . S
C279 C281 1.400 . S
C279 N282 1.351 . S
C279 C284 1.501 . S
C280 C281 1.387 . S
C280 N283 1.341 . S
C281 C279 1.400 . S
C281 C280 1.387 . S
N282 Co273 2.022 . S
N282 C279 1.351 . S
N282 N283 1.365 . S
N283 C280 1.341 . S
N283 N282 1.365 . S
N283 H303 0.862 . S
C284 C279 1.501 . S
C284 H285 0.961 . S
C284 H286 0.961 . S
C284 H287 0.960 . S
H285 C284 0.961 . S
H286 C284 0.961 . S
H287 C284 0.960 . S
C288 N289 1.342 . S
C288 C292 1.401 . S
C288 C293 1.499 . S
N289 Co272 1.989 . S
N289 C288 1.342 . S
N289 N290 1.388 . S
N290 Co273 1.993 . S
N290 N289 1.388 . S
N290 C291 1.346 . S
C291 N290 1.346 . S
C291 C292 1.396 . S
C291 C301 1.510 . S
C292 C288 1.401 . S
C292 C291 1.396 . S
C293 C288 1.499 . S
C293 H294 0.959 . S
C293 H295 0.960 . S
C293 H296 0.961 . S
H294 C293 0.959 . S
H295 C293 0.960 . S
H296 C293 0.961 . S
O297 Co272 1.967 . S
O297 C305 1.258 . S
O298 Co273 1.941 . S
O298 C305 1.266 . S
H299 C301 0.959 . S
H300 C301 0.961 . S
C301 C291 1.510 . S
C301 H299 0.959 . S
C301 H300 0.961 . S
C301 H302 0.960 . S
H302 C301 0.960 . S
H303 N283 0.862 . S
O304 Co272 1.920 . S
O304 C277 1.289 . S
C305 O297 1.258 . S
C305 O298 1.266 . S
Co306 O309 1.970 . S
Co306 N323 1.989 . S
Co306 O331 1.967 . S
Co306 O338 1.920 . S
Co307 O310 1.966 . S
Co307 N316 2.022 . S
Co307 N324 1.993 . S
Co307 O332 1.941 . S
C308 O309 1.258 . S
C308 O310 1.263 . S
O309 Co306 1.970 . S
O309 C308 1.258 . S
O310 Co307 1.966 . S
O310 C308 1.263 . S
C311 O312 1.235 . S
C311 O338 1.289 . S
O312 C311 1.235 . S
C313 C315 1.400 . S
C313 N316 1.351 . S
C313 C318 1.501 . S
C314 C315 1.387 . S
C314 N317 1.341 . S
C315 C313 1.400 . S
C315 C314 1.387 . S
N316 Co307 2.022 . S
N316 C313 1.351 . S
N316 N317 1.365 . S
N317 C314 1.341 . S
N317 N316 1.365 . S
N317 H337 0.862 . S
C318 C313 1.501 . S
C318 H319 0.961 . S
C318 H320 0.961 . S
C318 H321 0.960 . S
H319 C318 0.961 . S
H320 C318 0.961 . S
H321 C318 0.960 . S
C322 N323 1.342 . S
C322 C326 1.401 . S
C322 C327 1.499 . S
N323 Co306 1.989 . S
N323 C322 1.342 . S
N323 N324 1.388 . S
N324 Co307 1.993 . S
N324 N323 1.388 . S
N324 C325 1.346 . S
C325 N324 1.346 . S
C325 C326 1.396 . S
C325 C335 1.510 . S
C326 C322 1.401 . S
C326 C325 1.396 . S
C327 C322 1.499 . S
C327 H328 0.959 . S
C327 H329 0.960 . S
C327 H330 0.961 . S
H328 C327 0.959 . S
H329 C327 0.960 . S
H330 C327 0.961 . S
O331 Co306 1.967 . S
O331 C339 1.258 . S
O332 Co307 1.941 . S
O332 C339 1.266 . S
H333 C335 0.959 . S
H334 C335 0.961 . S
C335 C325 1.510 . S
C335 H333 0.959 . S
C335 H334 0.961 . S
C335 H336 0.960 . S
H336 C335 0.960 . S
H337 N317 0.862 . S
O338 Co306 1.920 . S
O338 C311 1.289 . S
C339 O331 1.258 . S
C339 O332 1.266 . S
Co340 O343 1.970 . S
Co340 N357 1.989 . S
Co340 O365 1.967 . S
Co340 O372 1.920 . S
Co341 O344 1.966 . S
Co341 N350 2.022 . S
Co341 N358 1.993 . S
Co341 O366 1.941 . S
C342 O343 1.258 . S
C342 O344 1.263 . S
O343 Co340 1.970 . S
O343 C342 1.258 . S
O344 Co341 1.966 . S
O344 C342 1.263 . S
C345 O346 1.235 . S
C345 O372 1.289 . S
O346 C345 1.235 . S
C347 C349 1.400 . S
C347 N350 1.351 . S
C347 C352 1.501 . S
C348 C349 1.387 . S
C348 N351 1.341 . S
C349 C347 1.400 . S
C349 C348 1.387 . S
N350 Co341 2.022 . S
N350 C347 1.351 . S
N350 N351 1.365 . S
N351 C348 1.341 . S
N351 N350 1.365 . S
N351 H371 0.862 . S
C352 C347 1.501 . S
C352 H353 0.961 . S
C352 H354 0.961 . S
C352 H355 0.960 . S
H353 C352 0.961 . S
H354 C352 0.961 . S
H355 C352 0.960 . S
C356 N357 1.342 . S
C356 C360 1.401 . S
C356 C361 1.499 . S
N357 Co340 1.989 . S
N357 C356 1.342 . S
N357 N358 1.388 . S
N358 Co341 1.993 . S
N358 N357 1.388 . S
N358 C359 1.346 . S
C359 N358 1.346 . S
C359 C360 1.396 . S
C359 C369 1.510 . S
C360 C356 1.401 . S
C360 C359 1.396 . S
C361 C356 1.499 . S
C361 H362 0.959 . S
C361 H363 0.960 . S
C361 H364 0.961 . S
H362 C361 0.959 . S
H363 C361 0.960 . S
H364 C361 0.961 . S
O365 Co340 1.967 . S
O365 C373 1.258 . S
O366 Co341 1.941 . S
O366 C373 1.266 . S
H367 C369 0.959 . S
H368 C369 0.961 . S
C369 C359 1.510 . S
C369 H367 0.959 . S
C369 H368 0.961 . S
C369 H370 0.960 . S
H370 C369 0.960 . S
H371 N351 0.862 . S
O372 Co340 1.920 . S
O372 C345 1.289 . S
C373 O365 1.258 . S
C373 O366 1.266 . S
Co374 O377 1.970 . S
Co374 N391 1.989 . S
Co374 O399 1.967 . S
Co374 O406 1.920 . S
Co375 O378 1.966 . S
Co375 N384 2.022 . S
Co375 N392 1.993 . S
Co375 O400 1.941 . S
C376 O377 1.258 . S
C376 O378 1.263 . S
O377 Co374 1.970 . S
O377 C376 1.258 . S
O378 Co375 1.966 . S
O378 C376 1.263 . S
C379 O380 1.235 . S
C379 O406 1.289 . S
O380 C379 1.235 . S
C381 C383 1.400 . S
C381 N384 1.351 . S
C381 C386 1.501 . S
C382 C383 1.387 . S
C382 N385 1.341 . S
C383 C381 1.400 . S
C383 C382 1.387 . S
N384 Co375 2.022 . S
N384 C381 1.351 . S
N384 N385 1.365 . S
N385 C382 1.341 . S
N385 N384 1.365 . S
N385 H405 0.862 . S
C386 C381 1.501 . S
C386 H387 0.961 . S
C386 H388 0.961 . S
C386 H389 0.960 . S
H387 C386 0.961 . S
H388 C386 0.961 . S
H389 C386 0.960 . S
C390 N391 1.342 . S
C390 C394 1.401 . S
C390 C395 1.499 . S
N391 Co374 1.989 . S
N391 C390 1.342 . S
N391 N392 1.388 . S
N392 Co375 1.993 . S
N392 N391 1.388 . S
N392 C393 1.346 . S
C393 N392 1.346 . S
C393 C394 1.396 . S
C393 C403 1.510 . S
C394 C390 1.401 . S
C394 C393 1.396 . S
C395 C390 1.499 . S
C395 H396 0.959 . S
C395 H397 0.960 . S
C395 H398 0.961 . S
H396 C395 0.959 . S
H397 C395 0.960 . S
H398 C395 0.961 . S
O399 Co374 1.967 . S
O399 C407 1.258 . S
O400 Co375 1.941 . S
O400 C407 1.266 . S
H401 C403 0.959 . S
H402 C403 0.961 . S
C403 C393 1.510 . S
C403 H401 0.959 . S
C403 H402 0.961 . S
C403 H404 0.960 . S
H404 C403 0.960 . S
H405 N385 0.862 . S
O406 Co374 1.920 . S
O406 C379 1.289 . S
C407 O399 1.258 . S
C407 O400 1.266 . S
C408 C409 1.391 . S
C408 C410 1.394 . S
C408 H424 0.931 . S
C409 C408 1.391 . S
C409 C413 1.376 . S
C410 C408 1.394 . S
C410 C411 1.369 . S
C410 C414 1.531 . S
C411 C410 1.369 . S
C411 C412 1.410 . S
C411 C419 1.503 . S
C412 C411 1.410 . S
C412 C413 1.392 . S
C412 C415 1.511 . S
C413 C409 1.376 . S
C413 C412 1.392 . S
C413 H425 0.929 . S
C414 C410 1.531 . S
C414 H426 0.960 . S
C414 H427 0.962 . S
C414 H428 0.960 . S
C415 C412 1.511 . S
C415 H429 0.961 . S
C415 H430 0.961 . S
C415 H431 0.961 . S
C416 C417 1.370 . S
C416 C418 1.363 . S
C416 H432 0.931 . S
C417 C416 1.370 . S
C417 C421 1.408 . S
C418 C416 1.363 . S
C418 C419 1.370 . S
C418 C422 1.524 . S
C419 C411 1.503 . S
C419 C418 1.370 . S
C419 C420 1.403 . S
C420 C419 1.403 . S
C420 C421 1.404 . S
C420 C423 1.539 . S
C421 C417 1.408 . S
C421 C420 1.404 . S
C421 H433 0.930 . S
C422 C418 1.524 . S
C422 H434 0.956 . S
C422 H435 0.961 . S
C422 H436 0.961 . S
C423 C420 1.539 . S
C423 H437 0.958 . S
C423 H438 0.961 . S
C423 H439 0.960 . S
H424 C408 0.931 . S
H425 C413 0.929 . S
H426 C414 0.960 . S
H427 C414 0.962 . S
H428 C414 0.960 . S
H429 C415 0.961 . S
H430 C415 0.961 . S
H431 C415 0.961 . S
H432 C416 0.931 . S
H433 C421 0.930 . S
H434 C422 0.956 . S
H435 C422 0.961 . S
H436 C422 0.961 . S
H437 C423 0.958 . S
H438 C423 0.961 . S
H439 C423 0.960 . S
C440 C441 1.391 . S
C440 C442 1.394 . S
C440 H456 0.931 . S
C441 C440 1.391 . S
C441 C445 1.376 . S
C442 C440 1.394 . S
C442 C443 1.369 . S
C442 C446 1.531 . S
C443 C442 1.369 . S
C443 C444 1.410 . S
C443 C451 1.503 1_655 S
C444 C443 1.410 . S
C444 C445 1.392 . S
C444 C447 1.511 . S
C445 C441 1.376 . S
C445 C444 1.392 . S
C445 H457 0.929 . S
C446 C442 1.531 . S
C446 H458 0.960 . S
C446 H459 0.962 . S
C446 H460 0.960 . S
C447 C444 1.511 . S
C447 H461 0.961 . S
C447 H462 0.961 1_655 S
C447 H463 0.961 . S
C448 C449 1.370 . S
C448 C450 1.363 . S
C448 H464 0.931 . S
C449 C448 1.370 . S
C449 C453 1.408 . S
C450 C448 1.363 . S
C450 C451 1.370 . S
C450 C454 1.524 . S
C451 C443 1.503 1_455 S
C451 C450 1.370 . S
C451 C452 1.403 . S
C452 C451 1.403 . S
C452 C453 1.404 . S
C452 C455 1.539 . S
C453 C449 1.408 . S
C453 C452 1.404 . S
C453 H465 0.930 . S
C454 C450 1.524 . S
C454 H466 0.956 . S
C454 H467 0.961 . S
C454 H468 0.961 . S
C455 C452 1.539 . S
C455 H469 0.958 . S
C455 H470 0.961 . S
C455 H471 0.960 1_455 S
H456 C440 0.931 . S
H457 C445 0.929 . S
H458 C446 0.960 . S
H459 C446 0.962 . S
H460 C446 0.960 . S
H461 C447 0.961 . S
H462 C447 0.961 1_455 S
H463 C447 0.961 . S
H464 C448 0.931 . S
H465 C453 0.930 . S
H466 C454 0.956 . S
H467 C454 0.961 . S
H468 C454 0.961 . S
H469 C455 0.958 . S
H470 C455 0.961 . S
H471 C455 0.960 1_655 S
C472 C473 1.391 . S
C472 C474 1.394 . S
C472 H488 0.931 . S
C473 C472 1.391 . S
C473 C477 1.376 . S
C474 C472 1.394 . S
C474 C475 1.369 . S
C474 C478 1.531 . S
C475 C474 1.369 . S
C475 C476 1.410 . S
C475 C483 1.503 1_545 S
C476 C475 1.410 . S
C476 C477 1.392 . S
C476 C479 1.511 . S
C477 C473 1.376 . S
C477 C476 1.392 . S
C477 H489 0.929 . S
C478 C474 1.531 . S
C478 H490 0.960 1_545 S
C478 H491 0.962 . S
C478 H492 0.960 . S
C479 C476 1.511 . S
C479 H493 0.961 . S
C479 H494 0.961 1_545 S
C479 H495 0.961 . S
C480 C481 1.370 . S
C480 C482 1.363 . S
C480 H496 0.931 . S
C481 C480 1.370 . S
C481 C485 1.408 . S
C482 C480 1.363 . S
C482 C483 1.370 . S
C482 C486 1.524 . S
C483 C475 1.503 1_565 S
C483 C482 1.370 . S
C483 C484 1.403 . S
C484 C483 1.403 . S
C484 C485 1.404 . S
C484 C487 1.539 . S
C485 C481 1.408 . S
C485 C484 1.404 . S
C485 H497 0.930 . S
C486 C482 1.524 . S
C486 H498 0.956 . S
C486 H499 0.961 . S
C486 H500 0.961 . S
C487 C484 1.539 . S
C487 H501 0.958 . S
C487 H502 0.961 . S
C487 H503 0.960 1_565 S
H488 C472 0.931 . S
H489 C477 0.929 . S
H490 C478 0.960 1_565 S
H491 C478 0.962 . S
H492 C478 0.960 . S
H493 C479 0.961 . S
H494 C479 0.961 1_565 S
H495 C479 0.961 . S
H496 C480 0.931 . S
H497 C485 0.930 . S
H498 C486 0.956 . S
H499 C486 0.961 . S
H500 C486 0.961 . S
H501 C487 0.958 . S
H502 C487 0.961 . S
H503 C487 0.960 1_545 S
C504 C505 1.391 . S
C504 C506 1.394 . S
C504 H520 0.931 . S
C505 C504 1.391 . S
C505 C509 1.376 . S
C506 C504 1.394 . S
C506 C507 1.369 . S
C506 C510 1.531 . S
C507 C506 1.369 . S
C507 C508 1.410 . S
C507 C515 1.503 . S
C508 C507 1.410 . S
C508 C509 1.392 . S
C508 C511 1.511 . S
C509 C505 1.376 . S
C509 C508 1.392 . S
C509 H521 0.929 . S
C510 C506 1.531 . S
C510 H522 0.960 . S
C510 H523 0.962 . S
C510 H524 0.960 . S
C511 C508 1.511 . S
C511 H525 0.961 . S
C511 H526 0.961 . S
C511 H527 0.961 . S
C512 C513 1.370 . S
C512 C514 1.363 . S
C512 H528 0.931 . S
C513 C512 1.370 . S
C513 C517 1.408 . S
C514 C512 1.363 . S
C514 C515 1.370 . S
C514 C518 1.524 . S
C515 C507 1.503 . S
C515 C514 1.370 . S
C515 C516 1.403 . S
C516 C515 1.403 . S
C516 C517 1.404 . S
C516 C519 1.539 . S
C517 C513 1.408 . S
C517 C516 1.404 . S
C517 H529 0.930 . S
C518 C514 1.524 . S
C518 H530 0.956 . S
C518 H531 0.961 . S
C518 H532 0.961 . S
C519 C516 1.539 . S
C519 H533 0.958 . S
C519 H534 0.961 . S
C519 H535 0.960 . S
H520 C504 0.931 . S
H521 C509 0.929 . S
H522 C510 0.960 . S
H523 C510 0.962 . S
H524 C510 0.960 . S
H525 C511 0.961 . S
H526 C511 0.961 . S
H527 C511 0.961 . S
H528 C512 0.931 . S
H529 C517 0.930 . S
H530 C518 0.956 . S
H531 C518 0.961 . S
H532 C518 0.961 . S
H533 C519 0.958 . S
H534 C519 0.961 . S
H535 C519 0.960 . S
C536 C537 1.391 . S
C536 C538 1.394 . S
C536 H552 0.931 . S
C537 C536 1.391 . S
C537 C541 1.376 . S
C538 C536 1.394 . S
C538 C539 1.369 . S
C538 C542 1.531 . S
C539 C538 1.369 . S
C539 C540 1.410 . S
C539 C547 1.503 1_455 S
C540 C539 1.410 . S
C540 C541 1.392 . S
C540 C543 1.511 . S
C541 C537 1.376 . S
C541 C540 1.392 . S
C541 H553 0.929 . S
C542 C538 1.531 . S
C542 H554 0.939 1_455 S
C542 H555 0.962 . S
C542 H556 0.960 . S
C543 C540 1.511 . S
C543 H557 0.961 . S
C543 H558 0.961 1_455 S
C543 H559 0.961 . S
C544 C545 1.370 . S
C544 C546 1.363 . S
C544 H560 0.931 . S
C545 C544 1.370 . S
C545 C549 1.408 . S
C546 C544 1.363 . S
C546 C547 1.370 . S
C546 C550 1.524 . S
C547 C539 1.503 1_655 S
C547 C546 1.370 . S
C547 C548 1.403 . S
C548 C547 1.403 . S
C548 C549 1.404 . S
C548 C551 1.539 . S
C549 C545 1.408 . S
C549 C548 1.404 . S
C549 H561 0.930 . S
C550 C546 1.524 . S
C550 H562 0.956 1_655 S
C550 H563 0.961 1_655 S
C550 H564 0.961 . S
C551 C548 1.539 . S
C551 H565 0.958 . S
C551 H566 0.961 . S
C551 H567 0.960 . S
H552 C536 0.931 . S
H553 C541 0.929 . S
H554 C542 0.939 1_655 S
H555 C542 0.962 . S
H556 C542 0.960 . S
H557 C543 0.961 . S
H558 C543 0.961 1_655 S
H559 C543 0.961 . S
H560 C544 0.931 . S
H561 C549 0.930 . S
H562 C550 0.956 1_455 S
H563 C550 0.961 1_455 S
H564 C550 0.961 . S
H565 C551 0.958 . S
H566 C551 0.961 . S
H567 C551 0.960 . S
C568 C569 1.391 . S
C568 C570 1.394 . S
C568 H584 0.931 . S
C569 C568 1.391 . S
C569 C573 1.376 . S
C570 C568 1.394 . S
C570 C571 1.369 . S
C570 C574 1.531 . S
C571 C570 1.369 . S
C571 C572 1.410 . S
C571 C579 1.503 1_565 S
C572 C571 1.410 . S
C572 C573 1.392 . S
C572 C575 1.511 . S
C573 C569 1.376 . S
C573 C572 1.392 . S
C573 H585 0.929 . S
C574 C570 1.531 . S
C574 H586 0.960 . S
C574 H587 0.962 . S
C574 H588 0.960 . S
C575 C572 1.511 . S
C575 H589 0.961 . S
C575 H590 0.961 1_565 S
C575 H591 0.961 . S
C576 C577 1.370 . S
C576 C578 1.363 . S
C576 H592 0.931 . S
C577 C576 1.370 . S
C577 C581 1.408 . S
C578 C576 1.363 . S
C578 C579 1.370 . S
C578 C582 1.524 . S
C579 C571 1.503 1_545 S
C579 C578 1.370 . S
C579 C580 1.403 . S
C580 C579 1.403 . S
C580 C581 1.404 . S
C580 C583 1.539 . S
C581 C577 1.408 . S
C581 C580 1.404 . S
C581 H593 0.930 . S
C582 C578 1.524 . S
C582 H594 0.956 . S
C582 H595 0.961 . S
C582 H596 0.961 . S
C583 C580 1.539 . S
C583 H597 0.958 . S
C583 H598 0.961 . S
C583 H599 0.933 1_545 S
H584 C568 0.931 . S
H585 C573 0.929 . S
H586 C574 0.960 . S
H587 C574 0.962 . S
H588 C574 0.960 . S
H589 C575 0.961 . S
H590 C575 0.961 1_545 S
H591 C575 0.961 . S
H592 C576 0.931 . S
H593 C581 0.930 . S
H594 C582 0.956 . S
H595 C582 0.961 . S
H596 C582 0.961 . S
H597 C583 0.958 . S
H598 C583 0.961 . S
H599 C583 0.933 1_565 S
C600 C601 1.391 . S
C600 C602 1.394 . S
C600 H616 0.931 . S
C601 C600 1.391 . S
C601 C605 1.376 . S
C602 C600 1.394 . S
C602 C603 1.369 . S
C602 C606 1.531 . S
C603 C602 1.369 . S
C603 C604 1.410 . S
C603 C611 1.503 1_556 S
C604 C603 1.410 . S
C604 C605 1.392 . S
C604 C607 1.511 . S
C605 C601 1.376 . S
C605 C604 1.392 . S
C605 H617 0.929 . S
C606 C602 1.531 . S
C606 H618 0.960 . S
C606 H619 0.962 . S
C606 H620 0.960 . S
C607 C604 1.511 . S
C607 H621 0.961 . S
C607 H622 0.961 1_556 S
C607 H623 0.961 . S
C608 C609 1.370 . S
C608 C610 1.363 . S
C608 H624 0.931 . S
C609 C608 1.370 . S
C609 C613 1.408 . S
C610 C608 1.363 . S
C610 C611 1.370 . S
C610 C614 1.524 . S
C611 C603 1.503 1_554 S
C611 C610 1.370 . S
C611 C612 1.403 . S
C612 C611 1.403 . S
C612 C613 1.404 . S
C612 C615 1.539 . S
C613 C609 1.408 . S
C613 C612 1.404 . S
C613 H625 0.930 . S
C614 C610 1.524 . S
C614 H626 0.956 1_554 S
C614 H627 0.961 1_554 S
C614 H628 0.961 . S
C615 C612 1.539 . S
C615 H629 0.958 . S
C615 H630 0.961 . S
C615 H631 0.960 . S
H616 C600 0.931 . S
H617 C605 0.929 . S
H618 C606 0.960 . S
H619 C606 0.962 . S
H620 C606 0.960 . S
H621 C607 0.961 . S
H622 C607 0.961 1_554 S
H623 C607 0.961 . S
H624 C608 0.931 . S
H625 C613 0.930 . S
H626 C614 0.956 1_556 S
H627 C614 0.961 1_556 S
H628 C614 0.961 . S
H629 C615 0.958 . S
H630 C615 0.961 . S
H631 C615 0.960 . S
C632 C633 1.391 . S
C632 C634 1.394 . S
C632 H648 0.931 . S
C633 C632 1.391 . S
C633 C637 1.376 . S
C634 C632 1.394 . S
C634 C635 1.369 . S
C634 C638 1.531 . S
C635 C634 1.369 . S
C635 C636 1.410 . S
C635 C643 1.503 . S
C636 C635 1.410 . S
C636 C637 1.392 . S
C636 C639 1.511 . S
C637 C633 1.376 . S
C637 C636 1.392 . S
C637 H649 0.929 . S
C638 C634 1.531 . S
C638 H650 0.960 . S
C638 H651 0.962 . S
C638 H652 0.960 . S
C639 C636 1.511 . S
C639 H653 0.961 . S
C639 H654 0.961 . S
C639 H655 0.961 . S
C640 C641 1.370 . S
C640 C642 1.363 . S
C640 H656 0.931 . S
C641 C640 1.370 . S
C641 C645 1.408 . S
C642 C640 1.363 . S
C642 C643 1.370 . S
C642 C646 1.524 . S
C643 C635 1.503 . S
C643 C642 1.370 . S
C643 C644 1.403 . S
C644 C643 1.403 . S
C644 C645 1.404 . S
C644 C647 1.539 . S
C645 C641 1.408 . S
C645 C644 1.404 . S
C645 H657 0.930 . S
C646 C642 1.524 . S
C646 H658 0.956 . S
C646 H659 0.961 . S
C646 H660 0.961 . S
C647 C644 1.539 . S
C647 H661 0.958 . S
C647 H662 0.961 . S
C647 H663 0.960 . S
H648 C632 0.931 . S
H649 C637 0.929 . S
H650 C638 0.960 . S
H651 C638 0.962 . S
H652 C638 0.960 . S
H653 C639 0.961 . S
H654 C639 0.961 . S
H655 C639 0.961 . S
H656 C640 0.931 . S
H657 C645 0.930 . S
H658 C646 0.956 . S
H659 C646 0.961 . S
H660 C646 0.961 . S
H661 C647 0.958 . S
H662 C647 0.961 . S
H663 C647 0.960 . S
C664 C665 1.391 . S
C664 C666 1.394 . S
C664 H680 0.931 . S
C665 C664 1.391 . S
C665 C669 1.376 . S
C666 C664 1.394 . S
C666 C667 1.369 . S
C666 C670 1.531 . S
C667 C666 1.369 . S
C667 C668 1.410 . S
C667 C675 1.503 1_554 S
C668 C667 1.410 . S
C668 C669 1.392 . S
C668 C671 1.511 . S
C669 C665 1.376 . S
C669 C668 1.392 . S
C669 H681 0.929 . S
C670 C666 1.531 . S
C670 H682 0.960 1_554 S
C670 H683 0.962 . S
C670 H684 0.960 . S
C671 C668 1.511 . S
C671 H685 0.961 . S
C671 H686 0.961 . S
C671 H687 0.961 . S
C672 C673 1.370 . S
C672 C674 1.363 . S
C672 H688 0.931 . S
C673 C672 1.370 . S
C673 C677 1.408 . S
C674 C672 1.363 . S
C674 C675 1.370 . S
C674 C678 1.524 . S
C675 C667 1.503 1_556 S
C675 C674 1.370 . S
C675 C676 1.403 . S
C676 C675 1.403 . S
C676 C677 1.404 . S
C676 C679 1.539 . S
C677 C673 1.408 . S
C677 C676 1.404 . S
C677 H689 0.930 . S
C678 C674 1.524 . S
C678 H690 0.956 1_556 S
C678 H691 0.961 1_556 S
C678 H692 0.961 . S
C679 C676 1.539 . S
C679 H693 0.958 . S
C679 H694 0.961 . S
C679 H695 0.960 . S
H680 C664 0.931 . S
H681 C669 0.929 . S
H682 C670 0.960 1_556 S
H683 C670 0.962 . S
H684 C670 0.960 . S
H685 C671 0.961 . S
H686 C671 0.961 . S
H687 C671 0.961 . S
H688 C672 0.931 . S
H689 C677 0.930 . S
H690 C678 0.956 1_554 S
H691 C678 0.961 1_554 S
H692 C678 0.961 . S
H693 C679 0.958 . S
H694 C679 0.961 . S
H695 C679 0.960 . S
C696 C697 1.391 . S
C696 C698 1.394 . S
C696 H712 0.931 . S
C697 C696 1.391 . S
C697 C701 1.376 . S
C698 C696 1.394 . S
C698 C699 1.369 . S
C698 C702 1.531 . S
C699 C698 1.369 . S
C699 C700 1.410 . S
C699 C707 1.503 . S
C700 C699 1.410 . S
C700 C701 1.392 . S
C700 C703 1.511 . S
C701 C697 1.376 . S
C701 C700 1.392 . S
C701 H713 0.929 . S
C702 C698 1.531 . S
C702 H714 0.960 . S
C702 H715 0.962 . S
C702 H716 0.960 . S
C703 C700 1.511 . S
C703 H717 0.961 . S
C703 H718 0.961 . S
C703 H719 0.961 . S
C704 C705 1.370 . S
C704 C706 1.363 . S
C704 H720 0.931 . S
C705 C704 1.370 . S
C705 C709 1.408 . S
C706 C704 1.363 . S
C706 C707 1.370 . S
C706 C710 1.524 . S
C707 C699 1.503 . S
C707 C706 1.370 . S
C707 C708 1.403 . S
C708 C707 1.403 . S
C708 C709 1.404 . S
C708 C711 1.539 . S
C709 C705 1.408 . S
C709 C708 1.404 . S
C709 H721 0.930 . S
C710 C706 1.524 . S
C710 H722 0.956 . S
C710 H723 0.961 . S
C710 H724 0.961 . S
C711 C708 1.539 . S
C711 H725 0.958 . S
C711 H726 0.961 . S
C711 H727 0.960 . S
H712 C696 0.931 . S
H713 C701 0.929 . S
H714 C702 0.960 . S
H715 C702 0.962 . S
H716 C702 0.960 . S
H717 C703 0.961 . S
H718 C703 0.961 . S
H719 C703 0.961 . S
H720 C704 0.931 . S
H721 C709 0.930 . S
H722 C710 0.956 . S
H723 C710 0.961 . S
H724 C710 0.961 . S
H725 C711 0.958 . S
H726 C711 0.961 . S
H727 C711 0.960 . S
C728 C729 1.391 . S
C728 C730 1.394 . S
C728 H744 0.931 . S
C729 C728 1.391 . S
C729 C733 1.376 . S
C730 C728 1.394 . S
C730 C731 1.369 . S
C730 C734 1.531 . S
C731 C730 1.369 . S
C731 C732 1.410 . S
C731 C739 1.503 1_556 S
C732 C731 1.410 . S
C732 C733 1.392 . S
C732 C735 1.511 . S
C733 C729 1.376 . S
C733 C732 1.392 . S
C733 H745 0.929 . S
C734 C730 1.531 . S
C734 H746 0.960 1_556 S
C734 H747 0.963 . S
C734 H748 0.960 . S
C735 C732 1.511 . S
C735 H749 0.961 . S
C735 H750 0.961 . S
C735 H751 0.961 . S
C736 C737 1.370 . S
C736 C738 1.363 . S
C736 H752 0.931 . S
C737 C736 1.370 . S
C737 C741 1.408 . S
C738 C736 1.363 . S
C738 C739 1.370 . S
C738 C742 1.524 . S
C739 C731 1.503 1_554 S
C739 C738 1.370 . S
C739 C740 1.403 . S
C740 C739 1.403 . S
C740 C741 1.404 . S
C740 C743 1.539 . S
C741 C737 1.408 . S
C741 C740 1.404 . S
C741 H753 0.930 . S
C742 C738 1.524 . S
C742 H754 0.956 . S
C742 H755 0.961 1_554 S
C742 H756 0.961 . S
C743 C740 1.539 . S
C743 H757 0.958 . S
C743 H758 0.961 . S
C743 H759 0.960 1_554 S
H744 C728 0.931 . S
H745 C733 0.929 . S
H746 C734 0.960 1_554 S
H747 C734 0.963 . S
H748 C734 0.960 . S
H749 C735 0.961 . S
H750 C735 0.961 . S
H751 C735 0.961 . S
H752 C736 0.931 . S
H753 C741 0.930 . S
H754 C742 0.956 . S
H755 C742 0.961 1_556 S
H756 C742 0.961 . S
H757 C743 0.958 . S
H758 C743 0.961 . S
H759 C743 0.960 1_556 S
C760 C761 1.391 . S
C760 C762 1.394 . S
C760 H776 0.931 . S
C761 C760 1.391 . S
C761 C765 1.376 . S
C762 C760 1.394 . S
C762 C763 1.369 . S
C762 C766 1.531 . S
C763 C762 1.369 . S
C763 C764 1.410 . S
C763 C771 1.503 . S
C764 C763 1.410 . S
C764 C765 1.392 . S
C764 C767 1.511 . S
C765 C761 1.376 . S
C765 C764 1.392 . S
C765 H777 0.929 . S
C766 C762 1.531 . S
C766 H778 0.960 . S
C766 H779 0.962 . S
C766 H780 0.960 . S
C767 C764 1.511 . S
C767 H781 0.961 . S
C767 H782 0.961 . S
C767 H783 0.961 . S
C768 C769 1.370 . S
C768 C770 1.363 . S
C768 H784 0.931 . S
C769 C768 1.370 . S
C769 C773 1.408 . S
C770 C768 1.363 . S
C770 C771 1.370 . S
C770 C774 1.524 . S
C771 C763 1.503 . S
C771 C770 1.370 . S
C771 C772 1.403 . S
C772 C771 1.403 . S
C772 C773 1.404 . S
C772 C775 1.539 . S
C773 C769 1.408 . S
C773 C772 1.404 . S
C773 H785 0.930 . S
C774 C770 1.524 . S
C774 H786 0.956 . S
C774 H787 0.961 . S
C774 H788 0.961 . S
C775 C772 1.539 . S
C775 H789 0.958 . S
C775 H790 0.961 . S
C775 H791 0.960 . S
H776 C760 0.931 . S
H777 C765 0.929 . S
H778 C766 0.960 . S
H779 C766 0.962 . S
H780 C766 0.960 . S
H781 C767 0.961 . S
H782 C767 0.961 . S
H783 C767 0.961 . S
H784 C768 0.931 . S
H785 C773 0.930 . S
H786 C774 0.956 . S
H787 C774 0.961 . S
H788 C774 0.961 . S
H789 C775 0.958 . S
H790 C775 0.961 . S
H791 C775 0.960 . S
C792 C793 1.391 . S
C792 C794 1.394 . S
C792 H808 0.931 . S
C793 C792 1.391 . S
C793 C797 1.376 . S
C794 C792 1.394 . S
C794 C795 1.369 . S
C794 C798 1.531 . S
C795 C794 1.369 . S
C795 C796 1.410 . S
C795 C803 1.503 1_554 S
C796 C795 1.410 . S
C796 C797 1.392 . S
C796 C799 1.511 . S
C797 C793 1.376 . S
C797 C796 1.392 . S
C797 H809 0.929 . S
C798 C794 1.531 . S
C798 H810 0.970 . S
C798 H811 0.962 . S
C798 H812 0.960 . S
C799 C796 1.511 . S
C799 H813 0.961 . S
C799 H814 0.961 1_554 S
C799 H815 0.961 . S
C800 C801 1.370 . S
C800 C802 1.363 . S
C800 H816 0.931 . S
C801 C800 1.370 . S
C801 C805 1.408 . S
C802 C800 1.363 . S
C802 C803 1.370 . S
C802 C806 1.524 . S
C803 C795 1.503 1_556 S
C803 C802 1.370 . S
C803 C804 1.403 . S
C804 C803 1.403 . S
C804 C805 1.404 . S
C804 C807 1.539 . S
C805 C801 1.408 . S
C805 C804 1.404 . S
C805 H817 0.930 . S
C806 C802 1.524 . S
C806 H818 0.956 1_556 S
C806 H819 0.961 1_556 S
C806 H820 0.961 . S
C807 C804 1.539 . S
C807 H821 0.958 . S
C807 H822 0.961 . S
C807 H823 0.960 . S
H808 C792 0.931 . S
H809 C797 0.929 . S
H810 C798 0.970 . S
H811 C798 0.962 . S
H812 C798 0.960 . S
H813 C799 0.961 . S
H814 C799 0.961 1_556 S
H815 C799 0.961 . S
H816 C800 0.931 . S
H817 C805 0.930 . S
H818 C806 0.956 1_554 S
H819 C806 0.961 1_554 S
H820 C806 0.961 . S
H821 C807 0.958 . S
H822 C807 0.961 . S
H823 C807 0.960 . S
C824 C825 1.391 . S
C824 C826 1.394 . S
C824 H840 0.931 . S
C825 C824 1.391 . S
C825 C829 1.376 . S
C826 C824 1.394 . S
C826 C827 1.369 . S
C826 C830 1.531 . S
C827 C826 1.369 . S
C827 C828 1.410 . S
C827 C835 1.503 . S
C828 C827 1.410 . S
C828 C829 1.392 . S
C828 C831 1.511 . S
C829 C825 1.376 . S
C829 C828 1.392 . S
C829 H841 0.929 . S
C830 C826 1.531 . S
C830 H842 0.960 . S
C830 H843 0.962 . S
C830 H844 0.960 . S
C831 C828 1.511 . S
C831 H845 0.961 . S
C831 H846 0.961 . S
C831 H847 0.961 . S
C832 C833 1.370 . S
C832 C834 1.363 . S
C832 H848 0.931 . S
C833 C832 1.370 . S
C833 C837 1.408 . S
C834 C832 1.363 . S
C834 C835 1.370 . S
C834 C838 1.524 . S
C835 C827 1.503 . S
C835 C834 1.370 . S
C835 C836 1.403 . S
C836 C835 1.403 . S
C836 C837 1.404 . S
C836 C839 1.539 . S
C837 C833 1.408 . S
C837 C836 1.404 . S
C837 H849 0.930 . S
C838 C834 1.524 . S
C838 H850 0.956 . S
C838 H851 0.961 . S
C838 H852 0.961 . S
C839 C836 1.539 . S
C839 H853 0.958 . S
C839 H854 0.961 . S
C839 H855 0.960 . S
H840 C824 0.931 . S
H841 C829 0.929 . S
H842 C830 0.960 . S
H843 C830 0.962 . S
H844 C830 0.960 . S
H845 C831 0.961 . S
H846 C831 0.961 . S
H847 C831 0.961 . S
H848 C832 0.931 . S
H849 C837 0.930 . S
H850 C838 0.956 . S
H851 C838 0.961 . S
H852 C838 0.961 . S
H853 C839 0.958 . S
H854 C839 0.961 . S
H855 C839 0.960 . S
C856 C857 1.391 . S
C856 C858 1.394 . S
C856 H872 0.931 . S
C857 C856 1.391 . S
C857 C861 1.376 . S
C858 C856 1.394 . S
C858 C859 1.369 . S
C858 C862 1.531 . S
C859 C858 1.369 . S
C859 C860 1.410 . S
C859 C867 1.503 1_556 S
C860 C859 1.410 . S
C860 C861 1.392 . S
C860 C863 1.511 . S
C861 C857 1.376 . S
C861 C860 1.392 . S
C861 H873 0.929 . S
C862 C858 1.531 . S
C862 H874 0.960 . S
C862 H875 0.962 . S
C862 H876 0.960 . S
C863 C860 1.511 . S
C863 H877 0.961 . S
C863 H878 0.961 1_556 S
C863 H879 0.961 . S
C864 C865 1.370 . S
C864 C866 1.363 . S
C864 H880 0.931 . S
C865 C864 1.370 . S
C865 C869 1.408 . S
C866 C864 1.363 . S
C866 C867 1.370 . S
C866 C870 1.524 . S
C867 C859 1.503 1_554 S
C867 C866 1.370 . S
C867 C868 1.403 . S
C868 C867 1.403 . S
C868 C869 1.404 . S
C868 C871 1.539 . S
C869 C865 1.408 . S
C869 C868 1.404 . S
C869 H881 0.930 . S
C870 C866 1.524 . S
C870 H882 0.956 . S
C870 H883 0.961 . S
C870 H884 0.961 . S
C871 C868 1.539 . S
C871 H885 0.958 . S
C871 H886 0.961 . S
C871 H887 0.960 1_554 S
H872 C856 0.931 . S
H873 C861 0.929 . S
H874 C862 0.960 . S
H875 C862 0.962 . S
H876 C862 0.960 . S
H877 C863 0.961 . S
H878 C863 0.961 1_554 S
H879 C863 0.961 . S
H880 C864 0.931 . S
H881 C869 0.930 . S
H882 C870 0.956 . S
H883 C870 0.961 . S
H884 C870 0.961 . S
H885 C871 0.958 . S
H886 C871 0.961 . S
H887 C871 0.960 1_556 S
C888 C889 1.391 . S
C888 C890 1.394 . S
C888 H904 0.931 . S
C889 C888 1.391 . S
C889 C893 1.376 . S
C890 C888 1.394 . S
C890 C891 1.369 . S
C890 C894 1.531 . S
C891 C890 1.369 . S
C891 C892 1.410 . S
C891 C899 1.503 . S
C892 C891 1.410 . S
C892 C893 1.392 . S
C892 C895 1.511 . S
C893 C889 1.376 . S
C893 C892 1.392 . S
C893 H905 0.929 . S
C894 C890 1.531 . S
C894 H906 0.960 . S
C894 H907 0.962 . S
C894 H908 0.960 . S
C895 C892 1.511 . S
C895 H909 0.961 . S
C895 H910 0.961 . S
C895 H911 0.961 . S
C896 C897 1.370 . S
C896 C898 1.363 . S
C896 H912 0.931 . S
C897 C896 1.370 . S
C897 C901 1.408 . S
C898 C896 1.363 . S
C898 C899 1.370 . S
C898 C902 1.524 . S
C899 C891 1.503 . S
C899 C898 1.370 . S
C899 C900 1.403 . S
C900 C899 1.403 . S
C900 C901 1.404 . S
C900 C903 1.539 . S
C901 C897 1.408 . S
C901 C900 1.404 . S
C901 H913 0.930 . S
C902 C898 1.524 . S
C902 H914 0.956 . S
C902 H915 0.961 . S
C902 H916 0.961 . S
C903 C900 1.539 . S
C903 H917 0.958 . S
C903 H918 0.961 . S
C903 H919 0.960 . S
H904 C888 0.931 . S
H905 C893 0.929 . S
H906 C894 0.960 . S
H907 C894 0.962 . S
H908 C894 0.960 . S
H909 C895 0.961 . S
H910 C895 0.961 . S
H911 C895 0.961 . S
H912 C896 0.931 . S
H913 C901 0.930 . S
H914 C902 0.956 . S
H915 C902 0.961 . S
H916 C902 0.961 . S
H917 C903 0.958 . S
H918 C903 0.961 . S
H919 C903 0.960 . S
C920 C921 1.391 . S
C920 C922 1.394 . S
C920 H936 0.931 . S
C921 C920 1.391 . S
C921 C925 1.376 . S
C922 C920 1.394 . S
C922 C923 1.369 . S
C922 C926 1.531 . S
C923 C922 1.369 . S
C923 C924 1.410 . S
C923 C931 1.503 1_556 S
C924 C923 1.410 . S
C924 C925 1.392 . S
C924 C927 1.511 . S
C925 C921 1.376 . S
C925 C924 1.392 . S
C925 H937 0.929 . S
C926 C922 1.531 . S
C926 H938 0.960 . S
C926 H939 0.962 . S
C926 H940 0.960 . S
C927 C924 1.511 . S
C927 H941 0.961 . S
C927 H942 0.961 1_556 S
C927 H943 0.961 . S
C928 C929 1.370 . S
C928 C930 1.363 . S
C928 H944 0.931 . S
C929 C928 1.370 . S
C929 C933 1.408 . S
C930 C928 1.363 . S
C930 C931 1.370 . S
C930 C934 1.524 . S
C931 C923 1.503 1_554 S
C931 C930 1.370 . S
C931 C932 1.403 . S
C932 C931 1.403 . S
C932 C933 1.404 . S
C932 C935 1.539 . S
C933 C929 1.408 . S
C933 C932 1.404 . S
C933 H945 0.930 . S
C934 C930 1.524 . S
C934 H946 0.956 1_554 S
C934 H947 0.955 1_554 S
C934 H948 0.961 . S
C935 C932 1.539 . S
C935 H949 0.958 . S
C935 H950 0.961 . S
C935 H951 0.960 . S
H936 C920 0.931 . S
H937 C925 0.929 . S
H938 C926 0.960 . S
H939 C926 0.962 . S
H940 C926 0.960 . S
H941 C927 0.961 . S
H942 C927 0.961 1_554 S
H943 C927 0.961 . S
H944 C928 0.931 . S
H945 C933 0.930 . S
H946 C934 0.956 1_556 S
H947 C934 0.955 1_556 S
H948 C934 0.961 . S
H949 C935 0.958 . S
H950 C935 0.961 . S
H951 C935 0.960 . S
C952 C953 1.391 . S
C952 C954 1.394 . S
C952 H968 0.931 . S
C953 C952 1.391 . S
C953 C957 1.376 . S
C954 C952 1.394 . S
C954 C955 1.369 . S
C954 C958 1.531 . S
C955 C954 1.369 . S
C955 C956 1.410 . S
C955 C963 1.503 . S
C956 C955 1.410 . S
C956 C957 1.392 . S
C956 C959 1.511 . S
C957 C953 1.376 . S
C957 C956 1.392 . S
C957 H969 0.929 . S
C958 C954 1.531 . S
C958 H970 0.960 . S
C958 H971 0.962 . S
C958 H972 0.960 . S
C959 C956 1.511 . S
C959 H973 0.961 . S
C959 H974 0.961 . S
C959 H975 0.961 . S
C960 C961 1.370 . S
C960 C962 1.363 . S
C960 H976 0.931 . S
C961 C960 1.370 . S
C961 C965 1.408 . S
C962 C960 1.363 . S
C962 C963 1.370 . S
C962 C966 1.524 . S
C963 C955 1.503 . S
C963 C962 1.370 . S
C963 C964 1.403 . S
C964 C963 1.403 . S
C964 C965 1.404 . S
C964 C967 1.539 . S
C965 C961 1.408 . S
C965 C964 1.404 . S
C965 H977 0.930 . S
C966 C962 1.524 . S
C966 H978 0.956 . S
C966 H979 0.961 . S
C966 H980 0.961 . S
C967 C964 1.539 . S
C967 H981 0.958 . S
C967 H982 0.961 . S
C967 H983 0.960 . S
H968 C952 0.931 . S
H969 C957 0.929 . S
H970 C958 0.960 . S
H971 C958 0.962 . S
H972 C958 0.960 . S
H973 C959 0.961 . S
H974 C959 0.961 . S
H975 C959 0.961 . S
H976 C960 0.931 . S
H977 C965 0.930 . S
H978 C966 0.956 . S
H979 C966 0.961 . S
H980 C966 0.961 . S
H981 C967 0.958 . S
H982 C967 0.961 . S
H983 C967 0.960 . S
C984 C985 1.391 . S
C984 C986 1.394 . S
C984 H1000 0.931 . S
C985 C984 1.391 . S
C985 C989 1.376 . S
C986 C984 1.394 . S
C986 C987 1.369 . S
C986 C990 1.531 . S
C987 C986 1.369 . S
C987 C988 1.410 . S
C987 C995 1.503 . S
C988 C987 1.410 . S
C988 C989 1.392 . S
C988 C991 1.511 . S
C989 C985 1.376 . S
C989 C988 1.392 . S
C989 H1001 0.929 . S
C990 C986 1.531 . S
C990 H1002 0.960 . S
C990 H1003 0.962 . S
C990 H1004 0.960 . S
C991 C988 1.511 . S
C991 H1005 0.961 . S
C991 H1006 0.961 . S
C991 H1007 0.961 . S
C992 C993 1.370 . S
C992 C994 1.363 . S
C992 H1008 0.931 . S
C993 C992 1.370 . S
C993 C997 1.408 . S
C994 C992 1.363 . S
C994 C995 1.370 . S
C994 C998 1.524 . S
C995 C987 1.503 . S
C995 C994 1.370 . S
C995 C996 1.403 . S
C996 C995 1.403 . S
C996 C997 1.404 . S
C996 C999 1.539 . S
C997 C993 1.408 . S
C997 C996 1.404 . S
C997 H1009 0.930 . S
C998 C994 1.524 . S
C998 H1010 0.956 . S
C998 H1011 0.961 . S
C998 H1012 0.961 . S
C999 C996 1.539 . S
C999 H1013 0.958 . S
C999 H1014 0.961 . S
C999 H1015 0.960 . S
H1000 C984 0.931 . S
H1001 C989 0.929 . S
H1002 C990 0.960 . S
H1003 C990 0.962 . S
H1004 C990 0.960 . S
H1005 C991 0.961 . S
H1006 C991 0.961 . S
H1007 C991 0.961 . S
H1008 C992 0.931 . S
H1009 C997 0.930 . S
H1010 C998 0.956 . S
H1011 C998 0.961 . S
H1012 C998 0.961 . S
H1013 C999 0.958 . S
H1014 C999 0.961 . S
H1015 C999 0.960 . S
C1016 C1017 1.391 . S
C1016 C1018 1.394 . S
C1016 H1032 0.931 . S
C1017 C1016 1.391 . S
C1017 C1021 1.376 . S
C1018 C1016 1.394 . S
C1018 C1019 1.369 . S
C1018 C1022 1.531 . S
C1019 C1018 1.369 . S
C1019 C1020 1.410 . S
C1019 C1027 1.503 . S
C1020 C1019 1.410 . S
C1020 C1021 1.392 . S
C1020 C1023 1.511 . S
C1021 C1017 1.376 . S
C1021 C1020 1.392 . S
C1021 H1033 0.929 . S
C1022 C1018 1.531 . S
C1022 H1034 0.960 . S
C1022 H1035 0.962 . S
C1022 H1036 0.960 . S
C1023 C1020 1.511 . S
C1023 H1037 0.961 . S
C1023 H1038 0.961 . S
C1023 H1039 0.961 . S
C1024 C1025 1.370 . S
C1024 C1026 1.363 . S
C1024 H1040 0.931 . S
C1025 C1024 1.370 . S
C1025 C1029 1.408 . S
C1026 C1024 1.363 . S
C1026 C1027 1.370 . S
C1026 C1030 1.524 . S
C1027 C1019 1.503 . S
C1027 C1026 1.370 . S
C1027 C1028 1.403 . S
C1028 C1027 1.403 . S
C1028 C1029 1.404 . S
C1028 C1031 1.539 . S
C1029 C1025 1.408 . S
C1029 C1028 1.404 . S
C1029 H1041 0.930 . S
C1030 C1026 1.524 . S
C1030 H1042 0.956 . S
C1030 H1043 0.961 . S
C1030 H1044 0.961 . S
C1031 C1028 1.539 . S
C1031 H1045 0.958 . S
C1031 H1046 0.961 . S
C1031 H1047 0.960 . S
H1032 C1016 0.931 . S
H1033 C1021 0.929 . S
H1034 C1022 0.960 . S
H1035 C1022 0.962 . S
H1036 C1022 0.960 . S
H1037 C1023 0.961 . S
H1038 C1023 0.961 . S
H1039 C1023 0.961 . S
H1040 C1024 0.931 . S
H1041 C1029 0.930 . S
H1042 C1030 0.956 . S
H1043 C1030 0.961 . S
H1044 C1030 0.961 . S
H1045 C1031 0.958 . S
H1046 C1031 0.961 . S
H1047 C1031 0.960 . S
C1048 C1049 1.391 . S
C1048 C1050 1.394 . S
C1048 H1064 0.931 . S
C1049 C1048 1.391 . S
C1049 C1053 1.376 . S
C1050 C1048 1.394 . S
C1050 C1051 1.369 . S
C1050 C1054 1.531 . S
C1051 C1050 1.369 . S
C1051 C1052 1.410 . S
C1051 C1059 1.503 . S
C1052 C1051 1.410 . S
C1052 C1053 1.392 . S
C1052 C1055 1.511 . S
C1053 C1049 1.376 . S
C1053 C1052 1.392 . S
C1053 H1065 0.929 . S
C1054 C1050 1.531 . S
C1054 H1066 0.960 . S
C1054 H1067 0.962 . S
C1054 H1068 0.960 . S
C1055 C1052 1.511 . S
C1055 H1069 0.961 . S
C1055 H1070 0.961 . S
C1055 H1071 0.961 . S
C1056 C1057 1.370 . S
C1056 C1058 1.363 . S
C1056 H1072 0.931 . S
C1057 C1056 1.370 . S
C1057 C1061 1.408 . S
C1058 C1056 1.363 . S
C1058 C1059 1.370 . S
C1058 C1062 1.524 . S
C1059 C1051 1.503 . S
C1059 C1058 1.370 . S
C1059 C1060 1.403 . S
C1060 C1059 1.403 . S
C1060 C1061 1.404 . S
C1060 C1063 1.539 . S
C1061 C1057 1.408 . S
C1061 C1060 1.404 . S
C1061 H1073 0.930 . S
C1062 C1058 1.524 . S
C1062 H1074 0.956 . S
C1062 H1075 0.961 . S
C1062 H1076 0.961 . S
C1063 C1060 1.539 . S
C1063 H1077 0.958 . S
C1063 H1078 0.961 . S
C1063 H1079 0.960 . S
H1064 C1048 0.931 . S
H1065 C1053 0.929 . S
H1066 C1054 0.960 . S
H1067 C1054 0.962 . S
H1068 C1054 0.960 . S
H1069 C1055 0.961 . S
H1070 C1055 0.961 . S
H1071 C1055 0.961 . S
H1072 C1056 0.931 . S
H1073 C1061 0.930 . S
H1074 C1062 0.956 . S
H1075 C1062 0.961 . S
H1076 C1062 0.961 . S
H1077 C1063 0.958 . S
H1078 C1063 0.961 . S
H1079 C1063 0.960 . S
C1080 C1081 1.391 . S
C1080 C1082 1.394 . S
C1080 H1096 0.931 . S
C1081 C1080 1.391 . S
C1081 C1085 1.376 . S
C1082 C1080 1.394 . S
C1082 C1083 1.369 . S
C1082 C1086 1.531 . S
C1083 C1082 1.369 . S
C1083 C1084 1.410 . S
C1083 C1091 1.503 . S
C1084 C1083 1.410 . S
C1084 C1085 1.392 . S
C1084 C1087 1.511 . S
C1085 C1081 1.376 . S
C1085 C1084 1.392 . S
C1085 H1097 0.929 . S
C1086 C1082 1.531 . S
C1086 H1098 0.960 . S
C1086 H1099 0.962 . S
C1086 H1100 0.960 . S
C1087 C1084 1.511 . S
C1087 H1101 0.961 . S
C1087 H1102 0.961 . S
C1087 H1103 0.961 . S
C1088 C1089 1.370 . S
C1088 C1090 1.363 . S
C1088 H1104 0.931 . S
C1089 C1088 1.370 . S
C1089 C1093 1.408 . S
C1090 C1088 1.363 . S
C1090 C1091 1.370 . S
C1090 C1094 1.524 . S
C1091 C1083 1.503 . S
C1091 C1090 1.370 . S
C1091 C1092 1.403 . S
C1092 C1091 1.403 . S
C1092 C1093 1.404 . S
C1092 C1095 1.539 . S
C1093 C1089 1.408 . S
C1093 C1092 1.404 . S
C1093 H1105 0.930 . S
C1094 C1090 1.524 . S
C1094 H1106 0.956 . S
C1094 H1107 0.961 . S
C1094 H1108 0.961 . S
C1095 C1092 1.539 . S
C1095 H1109 0.958 . S
C1095 H1110 0.961 . S
C1095 H1111 0.960 . S
H1096 C1080 0.931 . S
H1097 C1085 0.929 . S
H1098 C1086 0.960 . S
H1099 C1086 0.962 . S
H1100 C1086 0.960 . S
H1101 C1087 0.961 . S
H1102 C1087 0.961 . S
H1103 C1087 0.961 . S
H1104 C1088 0.931 . S
H1105 C1093 0.930 . S
H1106 C1094 0.956 . S
H1107 C1094 0.961 . S
H1108 C1094 0.961 . S
H1109 C1095 0.958 . S
H1110 C1095 0.961 . S
H1111 C1095 0.960 . S
C1112 C1113 1.391 . S
C1112 C1114 1.394 . S
C1112 H1128 0.931 . S
C1113 C1112 1.391 . S
C1113 C1117 1.376 . S
C1114 C1112 1.394 . S
C1114 C1115 1.369 . S
C1114 C1118 1.531 . S
C1115 C1114 1.369 . S
C1115 C1116 1.410 . S
C1115 C1123 1.503 . S
C1116 C1115 1.410 . S
C1116 C1117 1.392 . S
C1116 C1119 1.511 . S
C1117 C1113 1.376 . S
C1117 C1116 1.392 . S
C1117 H1129 0.929 . S
C1118 C1114 1.531 . S
C1118 H1130 0.960 . S
C1118 H1131 0.962 . S
C1118 H1132 0.960 . S
C1119 C1116 1.511 . S
C1119 H1133 0.961 . S
C1119 H1134 0.961 . S
C1119 H1135 0.961 . S
C1120 C1121 1.370 . S
C1120 C1122 1.363 . S
C1120 H1136 0.931 . S
C1121 C1120 1.370 . S
C1121 C1125 1.408 . S
C1122 C1120 1.363 . S
C1122 C1123 1.370 . S
C1122 C1126 1.524 . S
C1123 C1115 1.503 . S
C1123 C1122 1.370 . S
C1123 C1124 1.403 . S
C1124 C1123 1.403 . S
C1124 C1125 1.404 . S
C1124 C1127 1.539 . S
C1125 C1121 1.408 . S
C1125 C1124 1.404 . S
C1125 H1137 0.930 . S
C1126 C1122 1.524 . S
C1126 H1138 0.956 . S
C1126 H1139 0.961 . S
C1126 H1140 0.961 . S
C1127 C1124 1.539 . S
C1127 H1141 0.958 . S
C1127 H1142 0.961 . S
C1127 H1143 0.960 . S
H1128 C1112 0.931 . S
H1129 C1117 0.929 . S
H1130 C1118 0.960 . S
H1131 C1118 0.962 . S
H1132 C1118 0.960 . S
H1133 C1119 0.961 . S
H1134 C1119 0.961 . S
H1135 C1119 0.961 . S
H1136 C1120 0.931 . S
H1137 C1125 0.930 . S
H1138 C1126 0.956 . S
H1139 C1126 0.961 . S
H1140 C1126 0.961 . S
H1141 C1127 0.958 . S
H1142 C1127 0.961 . S
H1143 C1127 0.960 . S
C1144 C1145 1.391 . S
C1144 C1146 1.394 . S
C1144 H1160 0.931 . S
C1145 C1144 1.391 . S
C1145 C1149 1.376 . S
C1146 C1144 1.394 . S
C1146 C1147 1.369 . S
C1146 C1150 1.531 . S
C1147 C1146 1.369 . S
C1147 C1148 1.410 . S
C1147 C1155 1.503 . S
C1148 C1147 1.410 . S
C1148 C1149 1.392 . S
C1148 C1151 1.511 . S
C1149 C1145 1.376 . S
C1149 C1148 1.392 . S
C1149 H1161 0.929 . S
C1150 C1146 1.531 . S
C1150 H1162 0.960 . S
C1150 H1163 0.962 . S
C1150 H1164 0.960 . S
C1151 C1148 1.511 . S
C1151 H1165 0.961 . S
C1151 H1166 0.961 . S
C1151 H1167 0.961 . S
C1152 C1153 1.370 . S
C1152 C1154 1.363 . S
C1152 H1168 0.931 . S
C1153 C1152 1.370 . S
C1153 C1157 1.408 . S
C1154 C1152 1.363 . S
C1154 C1155 1.370 . S
C1154 C1158 1.524 . S
C1155 C1147 1.503 . S
C1155 C1154 1.370 . S
C1155 C1156 1.403 . S
C1156 C1155 1.403 . S
C1156 C1157 1.404 . S
C1156 C1159 1.539 . S
C1157 C1153 1.408 . S
C1157 C1156 1.404 . S
C1157 H1169 0.930 . S
C1158 C1154 1.524 . S
C1158 H1170 0.956 . S
C1158 H1171 0.961 . S
C1158 H1172 0.961 . S
C1159 C1156 1.539 . S
C1159 H1173 0.958 . S
C1159 H1174 0.961 . S
C1159 H1175 0.960 . S
H1160 C1144 0.931 . S
H1161 C1149 0.929 . S
H1162 C1150 0.960 . S
H1163 C1150 0.962 . S
H1164 C1150 0.960 . S
H1165 C1151 0.961 . S
H1166 C1151 0.961 . S
H1167 C1151 0.961 . S
H1168 C1152 0.931 . S
H1169 C1157 0.930 . S
H1170 C1158 0.956 . S
H1171 C1158 0.961 . S
H1172 C1158 0.961 . S
H1173 C1159 0.958 . S
H1174 C1159 0.961 . S
H1175 C1159 0.960 . S
C1176 C1177 1.391 . S
C1176 C1178 1.394 . S
C1176 H1192 0.931 . S
C1177 C1176 1.391 . S
C1177 C1181 1.376 . S
C1178 C1176 1.394 . S
C1178 C1179 1.369 . S
C1178 C1182 1.531 . S
C1179 C1178 1.369 . S
C1179 C1180 1.410 . S
C1179 C1187 1.503 . S
C1180 C1179 1.410 . S
C1180 C1181 1.392 . S
C1180 C1183 1.511 . S
C1181 C1177 1.376 . S
C1181 C1180 1.392 . S
C1181 H1193 0.929 . S
C1182 C1178 1.531 . S
C1182 H1194 0.960 . S
C1182 H1195 0.962 . S
C1182 H1196 0.960 . S
C1183 C1180 1.511 . S
C1183 H1197 0.961 . S
C1183 H1198 0.961 . S
C1183 H1199 0.961 . S
C1184 C1185 1.370 . S
C1184 C1186 1.363 . S
C1184 H1200 0.931 . S
C1185 C1184 1.370 . S
C1185 C1189 1.408 . S
C1186 C1184 1.363 . S
C1186 C1187 1.370 . S
C1186 C1190 1.524 . S
C1187 C1179 1.503 . S
C1187 C1186 1.370 . S
C1187 C1188 1.403 . S
C1188 C1187 1.403 . S
C1188 C1189 1.404 . S
C1188 C1191 1.539 . S
C1189 C1185 1.408 . S
C1189 C1188 1.404 . S
C1189 H1201 0.930 . S
C1190 C1186 1.524 . S
C1190 H1202 0.956 . S
C1190 H1203 0.961 . S
C1190 H1204 0.961 . S
C1191 C1188 1.539 . S
C1191 H1205 0.958 . S
C1191 H1206 0.961 . S
C1191 H1207 0.960 . S
H1192 C1176 0.931 . S
H1193 C1181 0.929 . S
H1194 C1182 0.960 . S
H1195 C1182 0.962 . S
H1196 C1182 0.960 . S
H1197 C1183 0.961 . S
H1198 C1183 0.961 . S
H1199 C1183 0.961 . S
H1200 C1184 0.931 . S
H1201 C1189 0.930 . S
H1202 C1190 0.956 . S
H1203 C1190 0.961 . S
H1204 C1190 0.961 . S
H1205 C1191 0.958 . S
H1206 C1191 0.961 . S
H1207 C1191 0.960 . S
C1208 C1209 1.391 . S
C1208 C1210 1.394 . S
C1208 H1224 0.931 . S
C1209 C1208 1.391 . S
C1209 C1213 1.376 . S
C1210 C1208 1.394 . S
C1210 C1211 1.369 . S
C1210 C1214 1.531 . S
C1211 C1210 1.369 . S
C1211 C1212 1.410 . S
C1211 C1219 1.503 . S
C1212 C1211 1.410 . S
C1212 C1213 1.392 . S
C1212 C1215 1.511 . S
C1213 C1209 1.376 . S
C1213 C1212 1.392 . S
C1213 H1225 0.929 . S
C1214 C1210 1.531 . S
C1214 H1226 0.960 . S
C1214 H1227 0.962 . S
C1214 H1228 0.960 . S
C1215 C1212 1.511 . S
C1215 H1229 0.961 . S
C1215 H1230 0.961 . S
C1215 H1231 0.961 . S
C1216 C1217 1.370 . S
C1216 C1218 1.363 . S
C1216 H1232 0.931 . S
C1217 C1216 1.370 . S
C1217 C1221 1.408 . S
C1218 C1216 1.363 . S
C1218 C1219 1.370 . S
C1218 C1222 1.524 . S
C1219 C1211 1.503 . S
C1219 C1218 1.370 . S
C1219 C1220 1.403 . S
C1220 C1219 1.403 . S
C1220 C1221 1.404 . S
C1220 C1223 1.539 . S
C1221 C1217 1.408 . S
C1221 C1220 1.404 . S
C1221 H1233 0.930 . S
C1222 C1218 1.524 . S
C1222 H1234 0.956 . S
C1222 H1235 0.961 . S
C1222 H1236 0.961 . S
C1223 C1220 1.539 . S
C1223 H1237 0.958 . S
C1223 H1238 0.961 . S
C1223 H1239 0.960 . S
H1224 C1208 0.931 . S
H1225 C1213 0.929 . S
H1226 C1214 0.960 . S
H1227 C1214 0.962 . S
H1228 C1214 0.960 . S
H1229 C1215 0.961 . S
H1230 C1215 0.961 . S
H1231 C1215 0.961 . S
H1232 C1216 0.931 . S
H1233 C1221 0.930 . S
H1234 C1222 0.956 . S
H1235 C1222 0.961 . S
H1236 C1222 0.961 . S
H1237 C1223 0.958 . S
H1238 C1223 0.961 . S
H1239 C1223 0.960 . S
C1240 C1241 1.391 . S
C1240 C1242 1.394 . S
C1240 H1256 0.931 . S
C1241 C1240 1.391 . S
C1241 C1245 1.376 . S
C1242 C1240 1.394 . S
C1242 C1243 1.369 . S
C1242 C1246 1.531 . S
C1243 C1242 1.369 . S
C1243 C1244 1.410 . S
C1243 C1251 1.503 . S
C1244 C1243 1.410 . S
C1244 C1245 1.392 . S
C1244 C1247 1.511 . S
C1245 C1241 1.376 . S
C1245 C1244 1.392 . S
C1245 H1257 0.929 . S
C1246 C1242 1.531 . S
C1246 H1258 0.960 . S
C1246 H1259 0.962 . S
C1246 H1260 0.960 . S
C1247 C1244 1.511 . S
C1247 H1261 0.961 . S
C1247 H1262 0.961 . S
C1247 H1263 0.961 . S
C1248 C1249 1.370 . S
C1248 C1250 1.363 . S
C1248 H1264 0.931 . S
C1249 C1248 1.370 . S
C1249 C1253 1.408 . S
C1250 C1248 1.363 . S
C1250 C1251 1.370 . S
C1250 C1254 1.524 . S
C1251 C1243 1.503 . S
C1251 C1250 1.370 . S
C1251 C1252 1.403 . S
C1252 C1251 1.403 . S
C1252 C1253 1.404 . S
C1252 C1255 1.539 . S
C1253 C1249 1.408 . S
C1253 C1252 1.404 . S
C1253 H1265 0.930 . S
C1254 C1250 1.524 . S
C1254 H1266 0.956 . S
C1254 H1267 0.961 . S
C1254 H1268 0.961 . S
C1255 C1252 1.539 . S
C1255 H1269 0.958 . S
C1255 H1270 0.961 . S
C1255 H1271 0.960 . S
H1256 C1240 0.931 . S
H1257 C1245 0.929 . S
H1258 C1246 0.960 . S
H1259 C1246 0.962 . S
H1260 C1246 0.960 . S
H1261 C1247 0.961 . S
H1262 C1247 0.961 . S
H1263 C1247 0.961 . S
H1264 C1248 0.931 . S
H1265 C1253 0.930 . S
H1266 C1254 0.956 . S
H1267 C1254 0.961 . S
H1268 C1254 0.961 . S
H1269 C1255 0.958 . S
H1270 C1255 0.961 . S
H1271 C1255 0.960 . S
C1272 C1273 1.391 . S
C1272 C1274 1.394 . S
C1272 H1288 0.931 . S
C1273 C1272 1.391 . S
C1273 C1277 1.376 . S
C1274 C1272 1.394 . S
C1274 C1275 1.369 . S
C1274 C1278 1.531 . S
C1275 C1274 1.369 . S
C1275 C1276 1.410 . S
C1275 C1283 1.503 . S
C1276 C1275 1.410 . S
C1276 C1277 1.392 . S
C1276 C1279 1.511 . S
C1277 C1273 1.376 . S
C1277 C1276 1.392 . S
C1277 H1289 0.929 . S
C1278 C1274 1.531 . S
C1278 H1290 0.960 . S
C1278 H1291 0.962 . S
C1278 H1292 0.960 . S
C1279 C1276 1.511 . S
C1279 H1293 0.961 . S
C1279 H1294 0.961 . S
C1279 H1295 0.961 . S
C1280 C1281 1.370 . S
C1280 C1282 1.363 . S
C1280 H1296 0.931 . S
C1281 C1280 1.370 . S
C1281 C1285 1.408 . S
C1282 C1280 1.363 . S
C1282 C1283 1.370 . S
C1282 C1286 1.524 . S
C1283 C1275 1.503 . S
C1283 C1282 1.370 . S
C1283 C1284 1.403 . S
C1284 C1283 1.403 . S
C1284 C1285 1.404 . S
C1284 C1287 1.539 . S
C1285 C1281 1.408 . S
C1285 C1284 1.404 . S
C1285 H1297 0.930 . S
C1286 C1282 1.524 . S
C1286 H1298 0.956 . S
C1286 H1299 0.961 . S
C1286 H1300 0.961 . S
C1287 C1284 1.539 . S
C1287 H1301 0.958 . S
C1287 H1302 0.961 . S
C1287 H1303 0.960 . S
H1288 C1272 0.931 . S
H1289 C1277 0.929 . S
H1290 C1278 0.960 . S
H1291 C1278 0.962 . S
H1292 C1278 0.960 . S
H1293 C1279 0.961 . S
H1294 C1279 0.961 . S
H1295 C1279 0.961 . S
H1296 C1280 0.931 . S
H1297 C1285 0.930 . S
H1298 C1286 0.956 . S
H1299 C1286 0.961 . S
H1300 C1286 0.961 . S
H1301 C1287 0.958 . S
H1302 C1287 0.961 . S
H1303 C1287 0.960 . S
C1304 C1305 1.391 . S
C1304 C1306 1.394 . S
C1304 H1320 0.931 . S
C1305 C1304 1.391 . S
C1305 C1309 1.376 . S
C1306 C1304 1.394 . S
C1306 C1307 1.369 . S
C1306 C1310 1.531 . S
C1307 C1306 1.369 . S
C1307 C1308 1.410 . S
C1307 C1315 1.503 . S
C1308 C1307 1.410 . S
C1308 C1309 1.392 . S
C1308 C1311 1.511 . S
C1309 C1305 1.376 . S
C1309 C1308 1.392 . S
C1309 H1321 0.929 . S
C1310 C1306 1.531 . S
C1310 H1322 0.960 . S
C1310 H1323 0.962 . S
C1310 H1324 0.960 . S
C1311 C1308 1.511 . S
C1311 H1325 0.961 . S
C1311 H1326 0.961 . S
C1311 H1327 0.961 . S
C1312 C1313 1.370 . S
C1312 C1314 1.363 . S
C1312 H1328 0.931 . S
C1313 C1312 1.370 . S
C1313 C1317 1.408 . S
C1314 C1312 1.363 . S
C1314 C1315 1.370 . S
C1314 C1318 1.524 . S
C1315 C1307 1.503 . S
C1315 C1314 1.370 . S
C1315 C1316 1.403 . S
C1316 C1315 1.403 . S
C1316 C1317 1.404 . S
C1316 C1319 1.539 . S
C1317 C1313 1.408 . S
C1317 C1316 1.404 . S
C1317 H1329 0.930 . S
C1318 C1314 1.524 . S
C1318 H1330 0.956 . S
C1318 H1331 0.961 . S
C1318 H1332 0.961 . S
C1319 C1316 1.539 . S
C1319 H1333 0.958 . S
C1319 H1334 0.961 . S
C1319 H1335 0.960 . S
H1320 C1304 0.931 . S
H1321 C1309 0.929 . S
H1322 C1310 0.960 . S
H1323 C1310 0.962 . S
H1324 C1310 0.960 . S
H1325 C1311 0.961 . S
H1326 C1311 0.961 . S
H1327 C1311 0.961 . S
H1328 C1312 0.931 . S
H1329 C1317 0.930 . S
H1330 C1318 0.956 . S
H1331 C1318 0.961 . S
H1332 C1318 0.961 . S
H1333 C1319 0.958 . S
H1334 C1319 0.961 . S
H1335 C1319 0.960 . S
C1336 C1337 1.391 . S
C1336 C1338 1.394 . S
C1336 H1352 0.931 . S
C1337 C1336 1.391 . S
C1337 C1341 1.376 . S
C1338 C1336 1.394 . S
C1338 C1339 1.369 . S
C1338 C1342 1.531 . S
C1339 C1338 1.369 . S
C1339 C1340 1.410 . S
C1339 C1347 1.503 . S
C1340 C1339 1.410 . S
C1340 C1341 1.392 . S
C1340 C1343 1.511 . S
C1341 C1337 1.376 . S
C1341 C1340 1.392 . S
C1341 H1353 0.929 . S
C1342 C1338 1.531 . S
C1342 H1354 0.960 . S
C1342 H1355 0.962 . S
C1342 H1356 0.960 . S
C1343 C1340 1.511 . S
C1343 H1357 0.961 . S
C1343 H1358 0.961 . S
C1343 H1359 0.961 . S
C1344 C1345 1.370 . S
C1344 C1346 1.363 . S
C1344 H1360 0.931 . S
C1345 C1344 1.370 . S
C1345 C1349 1.408 . S
C1346 C1344 1.363 . S
C1346 C1347 1.370 . S
C1346 C1350 1.524 . S
C1347 C1339 1.503 . S
C1347 C1346 1.370 . S
C1347 C1348 1.403 . S
C1348 C1347 1.403 . S
C1348 C1349 1.404 . S
C1348 C1351 1.539 . S
C1349 C1345 1.408 . S
C1349 C1348 1.404 . S
C1349 H1361 0.930 . S
C1350 C1346 1.524 . S
C1350 H1362 0.956 . S
C1350 H1363 0.961 . S
C1350 H1364 0.961 . S
C1351 C1348 1.539 . S
C1351 H1365 0.958 . S
C1351 H1366 0.961 . S
C1351 H1367 0.960 . S
H1352 C1336 0.931 . S
H1353 C1341 0.929 . S
H1354 C1342 0.960 . S
H1355 C1342 0.962 . S
H1356 C1342 0.960 . S
H1357 C1343 0.961 . S
H1358 C1343 0.961 . S
H1359 C1343 0.961 . S
H1360 C1344 0.931 . S
H1361 C1349 0.930 . S
H1362 C1350 0.956 . S
H1363 C1350 0.961 . S
H1364 C1350 0.961 . S
H1365 C1351 0.958 . S
H1366 C1351 0.961 . S
H1367 C1351 0.960 . S
C409 C315 1.618 . S
C417 C9 1.628 . S
C441 C43 1.652 . S
C449 C349 1.659 . S
C473 C383 1.622 . S
C481 C77 1.650 . S
C505 C111 1.611 . S
C513 C213 1.644 . S
C537 C145 1.674 . S
C545 C247 1.647 . S
C569 C281 1.670 . S
C577 C179 1.660 . S
C601 C342 1.358 . S
C609 C2 1.366 . S
C633 C376 1.384 . S
C641 C36 1.377 . S
C665 C70 1.380 . S
C673 C206 1.375 . S
C697 C240 1.358 . S
C705 C104 1.366 . S
C729 C274 1.385 . S
C737 C138 1.378 . S
C761 C172 1.379 . S
C769 C308 1.374 . S
C793 C258 1.514 . S
C801 C122 1.512 . S
C825 C292 1.509 . S
C833 C156 1.508 . S
C857 C190 1.512 . S
C865 C326 1.509 . S
C889 C20 1.488 . S
C897 C360 1.501 . S
C921 C54 1.518 . S
C929 C394 1.513 . S
C953 C224 1.487 . S
C961 C88 1.500 . S
C985 C5 1.467 . S
C993 C169 1.475 . S
C1017 C39 1.450 . S
C1025 C203 1.479 . S
C1049 C73 1.461 . S
C1057 C33 1.472 . S
C1081 C67 1.484 . S
C1089 C107 1.452 . S
C1113 C141 1.476 . S
C1121 C101 1.470 . S
C1145 C135 1.479 . S
C1153 C175 1.452 . S
C1177 C305 1.470 . S
C1185 C209 1.465 . S
C1209 C339 1.466 . S
C1217 C243 1.467 . S
C1241 C373 1.459 . S
C1249 C277 1.468 . S
C1273 C311 1.460 . S
C1281 C407 1.472 . S
C1305 C237 1.483 . S
C1313 C345 1.453 . S
C1337 C379 1.446 . S
C1345 C271 1.475 . S
