# Generated by pormake.
# Topology rkf, (6)-cn, num edge types: 1
# Building blocks:
#     Node 0, Type 0, BuildingBlock: BETDEL_clean_sbu_0, # of connection points: 6
#     Node 1, Type 0, BuildingBlock: BETDEL_clean_sbu_0, # of connection points: 6
#     Node 2, Type 0, BuildingBlock: BETDEL_clean_sbu_0, # of connection points: 6
#     Node 3, Type 0, BuildingBlock: BETDEL_clean_sbu_0, # of connection points: 6
#     Node 4, Type 0, BuildingBlock: BETDEL_clean_sbu_0, # of connection points: 6
#     Node 5, Type 0, BuildingBlock: BETDEL_clean_sbu_0, # of connection points: 6
#     Edge 6, Type (0, 0), BuildingBlock: TEMPAE_clean_linker_10, # of connection points: 2
#     Edge 7, Type (0, 0), BuildingBlock: TEMPAE_clean_linker_10, # of connection points: 2
#     Edge 8, Type (0, 0), BuildingBlock: TEMPAE_clean_linker_10, # of connection points: 2
#     Edge 9, Type (0, 0), BuildingBlock: TEMPAE_clean_linker_10, # of connection points: 2
#     Edge 10, Type (0, 0), BuildingBlock: TEMPAE_clean_linker_10, # of connection points: 2
#     Edge 11, Type (0, 0), BuildingBlock: TEMPAE_clean_linker_10, # of connection points: 2
#     Edge 12, Type (0, 0), BuildingBlock: TEMPAE_clean_linker_10, # of connection points: 2
#     Edge 13, Type (0, 0), BuildingBlock: TEMPAE_clean_linker_10, # of connection points: 2
#     Edge 14, Type (0, 0), BuildingBlock: TEMPAE_clean_linker_10, # of connection points: 2
#     Edge 15, Type (0, 0), BuildingBlock: TEMPAE_clean_linker_10, # of connection points: 2
#     Edge 16, Type (0, 0), BuildingBlock: TEMPAE_clean_linker_10, # of connection points: 2
#     Edge 17, Type (0, 0), BuildingBlock: TEMPAE_clean_linker_10, # of connection points: 2
#     Edge 18, Type (0, 0), BuildingBlock: TEMPAE_clean_linker_10, # of connection points: 2
#     Edge 19, Type (0, 0), BuildingBlock: TEMPAE_clean_linker_10, # of connection points: 2
#     Edge 20, Type (0, 0), BuildingBlock: TEMPAE_clean_linker_10, # of connection points: 2
#     Edge 21, Type (0, 0), BuildingBlock: TEMPAE_clean_linker_10, # of connection points: 2
#     Edge 22, Type (0, 0), BuildingBlock: TEMPAE_clean_linker_10, # of connection points: 2
#     Edge 23, Type (0, 0), BuildingBlock: TEMPAE_clean_linker_10, # of connection points: 2
# Relax obj value: 0.373
# Max RMSD: 0.269
# Mean RMSD: 0.269
data_MOF--net-rkf--node1-BETDEL_clean_sbu_0--edge1-TEMPAE_clean_linker_10
_symmetry_space_group_name_H-M    P1
_symmetry_Int_Tables_number       1
_symmetry_cell_setting            triclinic
loop_
_symmetry_equiv_pos_as_xyz
'x, y, z'
_cell_length_a     24.491717
_cell_length_b     24.155295
_cell_length_c     41.361938
_cell_angle_alpha  89.827351
_cell_angle_beta   90.125059
_cell_angle_gamma 119.71888
loop_
_atom_site_label
_atom_site_type_symbol
_atom_site_fract_x
_atom_site_fract_y
_atom_site_fract_z
_atom_type_partial_charge
Dy0 Dy 0.27709 0.08646 0.07428 0.0
C1 C 0.31897 0.28922 0.98792 0.0
C2 C 0.21239 0.97957 0.11202 0.0
Dy3 Dy 0.3226 0.20482 1.03203 0.0
O4 O 0.18852 0.0005 0.09049 0.0
O5 O 0.27364 0.01451 0.11108 0.0
O6 O 0.25837 0.14256 0.11035 0.0
O7 O 0.23904 0.15025 0.06271 0.0
C8 C 0.23342 0.16587 0.0912 0.0
C9 C 0.39762 0.15383 1.03152 0.0
O10 O 0.3658 0.24407 0.08146 0.0
O11 O 0.36978 0.15356 0.09608 0.0
O12 O 0.35725 0.26661 0.98712 0.0
O13 O 0.28586 0.26928 1.0143 0.0
O14 O 0.41881 0.21466 1.02762 0.0
O15 O 0.33853 0.12396 1.0328 0.0
O16 O 0.23673 0.0381 1.02647 0.0
O17 O 0.25418 0.129 0.9987 0.0
C18 C 0.38507 0.21358 0.10159 0.0
C19 C 0.22955 0.0664 1.00048 0.0
Dy20 Dy 0.26399 0.23046 0.40715 0.0
C21 C 0.12529 0.2676 0.3049 0.0
C22 C 0.30089 0.16753 0.44918 0.0
Dy23 Dy 0.20873 0.2925 0.35522 0.0
O24 O 0.25864 0.14124 0.42654 0.0
O25 O 0.32683 0.22963 0.44727 0.0
O26 O 0.1688 0.18443 0.43188 0.0
O27 O 0.1769 0.20663 0.38301 0.0
C28 C 0.14016 0.18846 0.40657 0.0
C29 C 0.32857 0.36595 0.37161 0.0
O30 O 0.1898 0.3214 0.4047 0.0
O31 O 0.26873 0.31349 0.43317 0.0
O32 O 0.13476 0.22657 0.32052 0.0
O33 O 0.16072 0.32419 0.31752 0.0
O34 O 0.2962 0.38921 0.35753 0.0
O35 O 0.29771 0.30606 0.3713 0.0
O36 O 0.29561 0.20843 0.35926 0.0
O37 O 0.25283 0.25166 0.32275 0.0
C38 C 0.22494 0.33083 0.4313 0.0
C39 C 0.28345 0.22039 0.32923 0.0
Dy40 Dy 0.05973 0.28507 0.72327 0.0
C41 C 0.83652 0.10954 0.64882 0.0
C42 C 0.14749 0.32177 0.7718 0.0
Dy43 Dy 0.92372 0.19857 0.69053 0.0
O44 O 0.12205 0.26807 0.7563 0.0
O45 O 0.12782 0.35883 0.75923 0.0
O46 O 0.10096 0.24483 0.68933 0.0
O47 O 0.00536 0.19042 0.70317 0.0
C48 C 0.04722 0.19389 0.68407 0.0
C49 C 0.94094 0.30207 0.72236 0.0
O50 O 0.90367 0.15437 0.73983 0.0
O51 O -0.00877 0.23861 0.76395 0.0
O52 O 0.85641 0.17056 0.64798 0.0
O53 O 0.8624 0.09743 0.67326 0.0
O54 O 0.88488 0.25334 0.71734 0.0
O55 O -0.01913 0.29492 0.70681 0.0
O56 O 0.08005 0.33758 0.67568 0.0
O57 O -0.0099 0.25597 0.65023 0.0
C58 C 0.93707 0.18449 0.76578 0.0
C59 C 0.04592 0.30943 0.64915 0.0
Dy60 Dy 0.78173 -0.00949 0.06454 0.0
C61 C 0.70982 0.7813 0.98357 0.0
C62 C 0.84555 0.08938 0.10809 0.0
Dy63 Dy 0.7108 0.86627 1.02806 0.0
O64 O 0.86943 0.07608 0.08343 0.0
O65 O 0.785 0.05064 0.10789 0.0
O66 O 0.86392 0.98167 0.04847 0.0
O67 O 0.78538 0.90164 0.064 0.0
C68 C 0.84186 0.92276 0.05666 0.0
C69 C 0.64334 0.92324 1.03803 0.0
O70 O 0.68193 0.82486 0.07801 0.0
O71 O 0.71589 0.92352 0.10242 0.0
O72 O 0.66367 0.79276 0.98823 0.0
O73 O 0.75327 0.81254 1.00487 0.0
O74 O 0.61795 0.86189 1.03346 0.0
O75 O 0.70151 0.95131 1.03211 0.0
O76 O 0.79075 0.03291 1.01527 0.0
O77 O 0.77452 0.93964 0.99149 0.0
C78 C 0.68634 0.86015 0.10364 0.0
C79 C 0.79431 0.00153 0.98985 0.0
Dy80 Dy 0.7411 0.78136 0.39568 0.0
C81 C 0.9339 0.80364 0.30736 0.0
C82 C 0.72725 0.83994 0.44886 0.0
Dy83 Dy 0.84247 0.77156 0.35366 0.0
O84 O 0.77597 0.8616 0.43012 0.0
O85 O 0.68214 0.78487 0.43773 0.0
O86 O 0.74147 0.85002 0.36076 0.0
O87 O 0.82581 0.8485 0.36953 0.0
C88 C 0.80029 0.87449 0.35309 0.0
C89 C 0.76762 0.66607 0.38694 0.0
O90 O 0.8906 0.79334 0.40211 0.0
O91 O 0.79885 0.7627 0.43122 0.0
O92 O 0.88603 0.74681 0.31172 0.0
O93 O 0.93204 0.84216 0.32861 0.0
O94 O 0.82199 0.67732 0.37572 0.0
O95 O 0.75456 0.70635 0.37546 0.0
O96 O 0.67765 0.73361 0.35311 0.0
O97 O 0.76262 0.75148 0.31955 0.0
C98 C 0.85891 0.7793 0.42974 0.0
C99 C 0.70199 0.73355 0.32409 0.0
Dy100 Dy -0.02179 0.79426 0.72743 0.0
C101 C 0.21549 0.93955 0.66125 0.0
C102 C 0.87715 0.75362 0.76817 0.0
Dy103 Dy 0.12162 0.86013 0.70299 0.0
O104 O 0.90551 0.80807 0.7532 0.0
O105 O 0.90183 0.71888 0.75929 0.0
O106 O 0.96195 0.85243 0.69044 0.0
O107 O 0.05112 0.88689 0.71202 0.0
C108 C 0.02079 0.8966 0.6903 0.0
C109 C 0.07829 0.75056 0.73502 0.0
O110 O 0.14024 0.90258 0.75257 0.0
O111 O 0.03875 0.83503 0.77186 0.0
O112 O 0.18792 0.95694 0.68247 0.0
O113 O 0.19497 0.87864 0.66459 0.0
O114 O 0.13863 0.79156 0.7329 0.0
O115 O 0.04798 0.76702 0.71659 0.0
O116 O 0.95883 0.74372 0.67974 0.0
O117 O 0.05985 0.81252 0.65964 0.0
C118 C 0.09846 0.87936 0.77645 0.0
C119 C 0.00019 0.76703 0.65548 0.0
C120 C 0.88234 0.93333 0.11057 0.0
C121 C 0.88263 0.91306 0.07888 0.0
C122 C 0.93797 0.98234 0.12379 0.0
C123 C -0.0051 0.00311 0.10663 0.0
C124 C -0.00422 0.96637 0.07999 0.0
C125 C 0.93881 0.92174 0.06603 0.0
C126 C 0.93327 0.01476 0.1539 0.0
C127 C 0.05553 0.98003 0.06289 0.0
C128 C 0.12993 0.15651 0.07999 0.0
C129 C 0.17417 0.16079 0.10257 0.0
C130 C 0.06632 0.11215 0.0848 0.0
C131 C 0.04923 0.06829 0.11102 0.0
C132 C 0.09221 0.08241 0.13675 0.0
C133 C 0.15313 0.13368 0.13329 0.0
C134 C 0.02012 0.106 0.05904 0.0
C135 C 0.07935 0.03994 0.16579 0.0
H136 H 0.83791 0.92233 0.12159 0.0
H137 H 0.93882 0.9027 1.0423 0.0
H138 H 0.93304 -0.01312 0.17532 0.0
H139 H 0.97287 0.06397 0.15632 0.0
H140 H 0.88846 0.01582 0.15441 0.0
H141 H 0.05635 0.93489 0.05936 0.0
H142 H 0.05679 -0.00013 1.03848 0.0
H143 H 0.09812 0.01394 0.07632 0.0
H144 H 0.14535 0.18096 0.05695 0.0
H145 H 0.18713 0.14162 0.15209 0.0
H146 H 0.97119 0.07887 0.0679 0.0
H147 H 0.02525 0.08135 1.03766 0.0
H148 H 0.02981 0.15395 0.05099 0.0
H149 H 0.11702 0.0273 0.1681 0.0
H150 H 0.03368 -0.0046 0.16493 0.0
H151 H 0.08164 0.06688 0.18787 0.0
C152 C 0.80839 0.98044 0.35214 0.0
C153 C 0.8348 0.94202 0.34447 0.0
C154 C 0.84732 0.04448 0.36018 0.0
C155 C 0.91283 0.06955 0.35897 0.0
C156 C 0.93791 0.03482 0.34317 0.0
C157 C 0.89825 0.97031 0.3368 0.0
C158 C 0.81893 0.08239 0.37381 0.0
C159 C 0.00756 0.06164 0.33828 0.0
C160 C 0.05827 0.20786 0.38272 0.0
C161 C 0.07545 0.17596 0.40537 0.0
C162 C -0.00349 0.17941 0.37131 0.0
C163 C 0.95354 0.11808 0.38263 0.0
C164 C 0.96682 0.09516 0.41153 0.0
C165 C 0.02897 0.12429 0.42246 0.0
C166 C -0.02007 0.20936 0.34379 0.0
C167 C 0.91895 0.03321 0.42693 0.0
H168 H 0.75825 0.95895 0.35628 0.0
H169 H 0.91793 0.941 0.32925 0.0
H170 H 0.83724 0.09956 0.3985 0.0
H171 H 0.83241 0.12487 0.35841 0.0
H172 H 0.7668 0.05417 0.37491 0.0
H173 H 0.01707 0.03619 0.31867 0.0
H174 H 0.03094 0.11289 0.33211 0.0
H175 H 0.02877 0.05594 0.36089 0.0
H176 H 0.09371 0.25152 0.37173 0.0
H177 H 0.042 0.10181 0.44137 0.0
H178 H 0.01718 0.25941 0.33937 0.0
H179 H 0.93539 0.20883 0.34925 0.0
H180 H 0.97239 0.18129 0.32139 0.0
H181 H 0.87129 0.02785 0.42599 0.0
H182 H 0.9311 0.03028 0.45254 0.0
H183 H 0.91765 -0.00728 0.41363 0.0
C184 C 0.0956 0.00455 0.67161 0.0
C185 C 0.05045 0.94234 0.66403 0.0
C186 C 0.11192 0.05288 0.64881 0.0
C187 C 0.07801 0.03775 0.6191 0.0
C188 C 0.05035 0.97443 0.60833 0.0
C189 C 0.03206 0.92606 0.63166 0.0
C190 C 0.15764 0.11996 0.65923 0.0
C191 C 0.0321 0.95895 0.57343 0.0
C192 C -0.01334 0.09251 0.65482 0.0
C193 C 0.03501 0.15555 0.65496 0.0
C194 C -0.01292 0.05044 0.63194 0.0
C195 C 0.04199 0.07138 0.61269 0.0
C196 C 0.07734 0.13692 0.60581 0.0
C197 C 0.07585 0.17945 0.62829 0.0
C198 C 0.93518 0.98202 0.63353 0.0
C199 C 0.12398 0.16145 0.57852 0.0
H200 H 0.11408 0.01638 0.69603 0.0
H201 H 0.00062 0.87703 0.625 0.0
H202 H 0.13363 0.13771 0.67534 0.0
H203 H 0.19641 0.12085 0.67362 0.0
H204 H 0.17857 0.1526 0.63846 0.0
H205 H 0.02153 0.9099 0.56756 0.0
H206 H -0.0095 0.96388 0.56776 0.0
H207 H 0.07083 -0.00663 0.5577 0.0
H208 H 0.95249 0.07453 0.67421 0.0
H209 H 0.1102 0.22974 0.62662 0.0
H210 H 0.88978 0.97962 0.63884 0.0
H211 H 0.94411 0.95732 0.65374 0.0
H212 H 0.93003 0.95637 0.61063 0.0
H213 H 0.11287 0.19117 0.5623 0.0
H214 H 0.12274 0.12203 0.56418 0.0
H215 H 0.1722 0.19275 0.5879 0.0
C216 C 0.34355 0.34013 0.9328 0.0
C217 C 0.3018 0.31422 0.9589 0.0
C218 C 0.32395 0.35272 0.90288 0.0
C219 C 0.26042 0.33715 0.89846 0.0
C220 C 0.21885 0.3136 0.92526 0.0
C221 C 0.24023 0.30324 0.95517 0.0
C222 C 0.37047 0.37923 0.87542 0.0
C223 C 0.15032 0.29422 0.92172 0.0
C224 C 0.20386 0.38558 0.82198 0.0
C225 C 0.18231 0.33076 0.80285 0.0
C226 C 0.23094 0.38936 0.85281 0.0
C227 C 0.23543 0.33668 0.86506 0.0
C228 C 0.21428 0.28172 0.84554 0.0
C229 C 0.18883 0.2798 0.8148 0.0
C230 C 0.25374 0.44923 0.87253 0.0
C231 C 0.21686 0.22384 0.85745 0.0
H232 H 0.39113 0.34858 0.93541 0.0
H233 H 0.20733 0.28235 0.97502 0.0
H234 H 0.35988 0.34102 0.85756 0.0
H235 H 0.36666 0.41771 0.86272 0.0
H236 H 0.41964 0.39839 0.88392 0.0
H237 H 0.12633 0.28543 0.94548 0.0
H238 H 0.1449 0.33129 0.90857 0.0
H239 H 0.12621 0.24972 0.90731 0.0
H240 H 0.19871 0.42501 0.81312 0.0
H241 H 0.17212 0.23695 0.80042 0.0
H242 H 0.30308 0.46706 0.88028 0.0
H243 H 0.22492 0.43857 0.89475 0.0
H244 H 0.25113 0.48754 0.85888 0.0
H245 H 0.26619 0.23665 0.86263 0.0
H246 H 0.19711 0.18423 0.83967 0.0
H247 H 0.19017 0.20641 0.88037 0.0
C248 C 0.06987 0.29306 0.25976 0.0
C249 C 0.08156 0.24944 0.27659 0.0
C250 C 0.02923 0.27369 0.23253 0.0
C251 C -0.00069 0.20921 0.22193 0.0
C252 C 0.00984 0.16503 0.23963 0.0
C253 C 0.05123 0.18582 0.26611 0.0
C254 C 0.0187 0.3223 0.21488 0.0
C255 C -0.0202 0.09579 0.23008 0.0
C256 C 0.85617 0.13049 0.16533 0.0
C257 C 0.88394 0.13004 0.13575 0.0
C258 C 0.89321 0.15949 0.19312 0.0
C259 C 0.95973 0.18797 0.19158 0.0
C260 C -0.0121 0.18988 0.16135 0.0
C261 C 0.94989 0.1618 0.1339 0.0
C262 C 0.86089 0.15611 0.22465 0.0
C263 C 0.05809 0.21738 0.15844 0.0
H264 H 0.09286 0.34226 0.26765 0.0
H265 H 0.06038 0.15166 0.27846 0.0
H266 H 0.03696 0.32825 0.18984 0.0
H267 H 0.96759 0.3054 0.21313 0.0
H268 H 0.04223 0.36947 0.22703 0.0
H269 H 0.00828 0.09133 0.21063 0.0
H270 H -0.02164 0.06533 0.25062 0.0
H271 H 0.9313 0.07719 0.22086 0.0
H272 H 0.80535 0.10581 0.16716 0.0
H273 H 0.97197 0.16147 0.11128 0.0
H274 H 0.88376 0.2034 0.23662 0.0
H275 H 0.86523 0.12225 0.24121 0.0
H276 H 0.81017 0.13994 0.22124 0.0
H277 H 0.08328 0.266 0.16888 0.0
H278 H 0.0733 0.21966 0.13295 0.0
H279 H 0.07247 0.18735 0.17237 0.0
C280 C 0.78696 -0.00053 0.6254 0.0
C281 C 0.80126 0.06317 0.62255 0.0
C282 C 0.76509 0.95772 0.59875 0.0
C283 C 0.75552 0.97955 0.56854 0.0
C284 C 0.76511 0.04243 0.5663 0.0
C285 C 0.78825 0.08356 0.59321 0.0
C286 C 0.75703 0.89187 0.60235 0.0
C287 C 0.75506 0.0678 0.53481 0.0
C288 C 0.79068 0.91637 0.49189 0.0
C289 C 0.7307 0.87214 0.48017 0.0
C290 C 0.79893 0.94999 0.52072 0.0
C291 C 0.74574 0.94092 0.53842 0.0
C292 C 0.68471 0.89604 0.52698 0.0
C293 C 0.67784 0.86155 0.4981 0.0
C294 C 0.86504 -0.00432 0.53209 0.0
C295 C 0.62681 0.88526 0.545 0.0
H296 H 0.79585 0.98301 0.64816 0.0
H297 H 0.79886 0.1326 0.59078 0.0
H298 H 0.71234 0.85563 0.59114 0.0
H299 H 0.79593 0.88998 0.58961 0.0
H300 H 0.7576 0.87891 0.62809 0.0
H301 H 0.75504 0.11342 0.53812 0.0
H302 H 0.7932 0.07611 0.51768 0.0
H303 H 0.70987 0.03256 0.52358 0.0
H304 H 0.83207 0.92474 0.47848 0.0
H305 H 0.63142 0.8276 0.48927 0.0
H306 H 0.87204 0.98338 0.55705 0.0
H307 H 0.87269 0.04494 0.53263 0.0
H308 H 0.90139 -0.00486 0.51627 0.0
H309 H 0.62838 0.8705 0.57025 0.0
H310 H 0.58285 0.84829 0.5334 0.0
H311 H 0.6255 0.93048 0.54616 0.0
C312 C 0.67625 0.72862 0.92887 0.0
C313 C 0.72192 0.7562 0.95321 0.0
C314 C 0.69195 0.71597 0.89795 0.0
C315 C 0.75514 0.73316 0.89092 0.0
C316 C 0.80058 0.75839 0.91595 0.0
C317 C 0.78322 0.7686 0.94676 0.0
C318 C 0.64152 0.68711 0.87239 0.0
C319 C 0.86882 0.77929 0.90961 0.0
C320 C 0.81379 0.68665 0.81565 0.0
C321 C 0.83558 0.74178 0.79662 0.0
C322 C 0.78347 0.68104 0.8455 0.0
C323 C 0.77603 0.73231 0.8569 0.0
C324 C 0.7954 0.78669 0.83696 0.0
C325 C 0.82419 0.79039 0.80706 0.0
C326 C 0.76206 0.62152 0.86551 0.0
C327 C 0.7893 0.84291 0.84807 0.0
H328 H 0.62881 0.71895 0.93361 0.0
H329 H 0.81901 0.79026 0.96531 0.0
H330 H 0.64702 0.72465 0.85505 0.0
H331 H 0.64582 0.65017 0.85854 0.0
H332 H 0.59364 0.66537 0.88301 0.0
H333 H 0.89758 0.79417 0.93204 0.0
H334 H 0.8733 0.74028 0.89819 0.0
H335 H 0.88863 0.82015 0.89251 0.0
H336 H 0.82239 0.64888 0.80779 0.0
H337 H 0.84079 0.8332 0.79255 0.0
H338 H 0.71418 0.60488 0.87523 0.0
H339 H 0.79412 0.63211 0.88643 0.0
H340 H 0.76174 0.58238 0.85132 0.0
H341 H 0.80623 0.88148 0.82965 0.0
H342 H 0.81673 0.86273 0.87061 0.0
H343 H 0.73954 0.82749 0.8537 0.0
C344 C -0.0156 0.77845 0.26093 0.0
C345 C -0.01972 0.82348 0.28056 0.0
C346 C 0.02618 0.79763 0.23445 0.0
C347 C 0.06328 0.86334 0.22671 0.0
C348 C 0.06046 0.90892 0.24725 0.0
C349 C 0.01943 0.88839 0.27388 0.0
C350 C 0.03036 0.74747 0.21467 0.0
C351 C 0.09856 0.97978 0.24131 0.0
C352 C 0.20286 0.93443 0.16816 0.0
C353 C 0.17443 0.93849 0.13945 0.0
C354 C 0.16687 0.90697 0.19635 0.0
C355 C 0.10109 0.88407 0.19603 0.0
C356 C 0.07201 0.88576 0.16666 0.0
C357 C 0.10881 0.91196 0.13877 0.0
C358 C 0.19979 0.90603 0.22701 0.0
C359 C 0.00242 0.86318 0.16497 0.0
H360 H 0.95483 0.72815 0.26621 0.0
H361 H 0.01679 0.92365 0.28898 0.0
H362 H 0.00832 0.74316 0.1907 0.0
H363 H 0.08031 0.76135 0.21049 0.0
H364 H 0.0063 0.7 0.22662 0.0
H365 H 0.12436 0.00409 0.2637 0.0
H366 H 0.13297 -0.00685 0.22142 0.0
H367 H 0.06616 -0.00171 0.23579 0.0
H368 H 0.25353 0.95537 0.16905 0.0
H369 H 0.08636 0.91499 0.11677 0.0
H370 H 0.17349 0.85883 0.23906 0.0
H371 H 0.20135 0.94232 0.24396 0.0
H372 H 0.24873 0.91666 0.2224 0.0
H373 H -0.01123 0.8759 0.14165 0.0
H374 H -0.01164 0.88407 0.18495 0.0
H375 H -0.0247 0.81067 0.16775 0.0
C376 C 0.26949 0.95433 0.60733 0.0
C377 C 0.24839 0.97846 0.63219 0.0
C378 C 0.28984 -0.01341 0.57741 0.0
C379 C 0.28692 0.04312 0.57176 0.0
C380 C 0.26869 0.06912 0.59751 0.0
C381 C 0.25066 0.03703 0.62735 0.0
C382 C 0.31166 0.95833 0.55145 0.0
C383 C 0.26191 0.12747 0.59313 0.0
C384 C 0.35413 0.15697 0.49943 0.0
C385 C 0.30263 0.13194 0.47826 0.0
C386 C 0.35149 0.12594 0.52892 0.0
C387 C 0.29486 0.07064 0.53829 0.0
C388 C 0.24327 0.04482 0.51656 0.0
C389 C 0.24846 0.07476 0.48662 0.0
C390 C 0.40844 0.15364 0.55064 0.0
C391 C 0.1816 -0.01367 0.52498 0.0
H392 H 0.26811 0.90916 0.6108 0.0
H393 H 0.23461 0.05618 0.64637 0.0
H394 H 0.27171 0.92846 0.53521 0.0
H395 H 0.34966 -0.00384 0.53664 0.0
H396 H 0.32898 0.92752 0.562 0.0
H397 H 0.27115 0.15414 0.61617 0.0
H398 H 0.29367 0.1606 0.57444 0.0
H399 H 0.21287 0.11175 0.58567 0.0
H400 H 0.39617 0.20107 0.49312 0.0
H401 H 0.20829 0.05506 0.47046 0.0
H402 H 0.41722 0.11536 0.55959 0.0
H403 H 0.39991 0.17592 0.57203 0.0
H404 H 0.45121 0.19039 0.53805 0.0
H405 H 0.1857 0.94333 0.5205 0.0
H406 H 0.14224 0.98253 0.50994 0.0
H407 H 0.16933 0.98607 0.55081 0.0
C408 C 0.49336 0.14782 1.01753 0.0
C409 C 0.43634 0.12321 1.03416 0.0
C410 C 0.52839 0.11618 1.01842 0.0
C411 C 0.50695 0.06047 1.03757 0.0
C412 C 0.45054 0.0371 0.05544 0.0
C413 C 0.41509 0.06793 0.05285 0.0
C414 C 0.58703 0.14104 0.99806 0.0
C415 C 0.4274 0.97937 0.07714 0.0
C416 C 0.55629 0.93844 1.01786 0.0
C417 C 0.60742 0.95685 1.03869 0.0
C418 C 0.5241 0.97285 1.0167 0.0
C419 C 0.54202 0.02501 1.03792 0.0
C420 C 0.59279 0.04261 0.05963 0.0
C421 C 0.62594 0.00908 0.05919 0.0
C422 C 0.4717 0.9541 0.99242 0.0
C423 C 0.61153 0.09619 0.08353 0.0
H424 H 0.50928 0.19037 1.00288 0.0
H425 H 0.37098 0.04918 0.06579 0.0
H426 H 0.62818 0.15199 1.01353 0.0
H427 H 0.58177 0.10386 0.98062 0.0
H428 H 0.59703 0.1847 0.98436 0.0
H429 H 0.38602 0.97122 0.09174 0.0
H430 H 0.41401 0.93628 0.06235 0.0
H431 H 0.46545 0.98506 0.09378 0.0
H432 H 0.54284 0.89841 1.00172 0.0
H433 H 0.66564 0.02289 0.07528 0.0
H434 H 0.4811 -0.00422 0.97716 0.0
H435 H 0.42658 0.93871 1.00512 0.0
H436 H 0.4661 0.91474 0.97643 0.0
H437 H 0.62681 0.14174 0.07052 0.0
H438 H 0.6503 0.10195 0.09968 0.0
H439 H 0.57046 0.08708 0.09862 0.0
C440 C 0.43132 0.46595 0.37098 0.0
C441 C 0.39491 0.40268 0.38099 0.0
C442 C 0.4959 0.49979 0.37734 0.0
C443 C 0.52402 0.46984 0.39491 0.0
C444 C 0.48682 0.40666 0.40619 0.0
C445 C 0.42264 0.37337 0.39859 0.0
C446 C 0.53426 0.56709 0.36453 0.0
C447 C 0.51481 0.37381 0.42563 0.0
C448 C 0.69561 0.55347 0.37488 0.0
C449 C 0.71738 0.60363 0.39698 0.0
C450 C 0.63304 0.5041 0.37601 0.0
C451 C 0.59277 0.50513 0.40024 0.0
C452 C 0.61771 0.55051 0.42543 0.0
C453 C 0.67986 0.60027 0.42314 0.0
C454 C 0.60816 0.45671 0.34861 0.0
C455 C 0.57681 0.55158 0.45237 0.0
H456 H 0.40972 0.48835 0.35726 0.0
H457 H 0.39424 0.32424 0.40621 0.0
H458 H 0.55723 0.60074 0.38482 0.0
H459 H 0.57203 0.57061 0.34841 0.0
H460 H 0.50523 0.58269 0.35076 0.0
H461 H 0.47799 0.32919 0.4371 0.0
H462 H 0.5435 0.3616 0.4096 0.0
H463 H 0.54639 0.40585 0.44477 0.0
H464 H 0.72484 0.55697 0.35444 0.0
H465 H 0.69712 0.63953 0.44012 0.0
H466 H 0.58272 0.47096 0.33122 0.0
H467 H 0.57444 0.40828 0.35755 0.0
H468 H 0.64665 0.45477 0.33543 0.0
H469 H 0.54974 0.57426 0.44353 0.0
H470 H 0.60539 0.57928 0.47345 0.0
H471 H 0.54264 0.50252 0.46042 0.0
C472 C 0.93174 0.37496 0.76205 0.0
C473 C 0.9539 0.36528 0.73268 0.0
C474 C 0.94912 0.4371 0.77224 0.0
C475 C -0.01287 0.48948 0.75179 0.0
C476 C 0.00865 0.47905 0.72188 0.0
C477 C -0.00743 0.41723 0.71304 0.0
C478 C 0.92627 0.44599 0.8046 0.0
C479 C 0.04793 0.53302 0.69877 0.0
C480 C -0.01304 0.64262 0.74229 0.0
C481 C 0.05035 0.68594 0.74869 0.0
C482 C 0.96235 0.57735 0.74743 0.0
C483 C 0.00214 0.55534 0.75961 0.0
C484 C 0.06322 0.59969 0.77071 0.0
C485 C 0.08723 0.66495 0.76464 0.0
C486 C 0.89664 0.53181 0.73573 0.0
C487 C 0.10537 0.57773 0.78577 0.0
H488 H 0.90242 0.33439 0.77732 0.0
H489 H 0.00953 0.4093 0.69028 0.0
H490 H 0.95879 0.49319 0.81532 0.0
H491 H 0.87958 0.44228 0.80152 0.0
H492 H 0.92052 0.40815 0.82187 0.0
H493 H 0.05834 0.51595 0.67594 0.0
H494 H 0.0231 0.55958 0.69262 0.0
H495 H 0.09323 0.567 0.71031 0.0
H496 H 0.95784 0.65892 0.73058 0.0
H497 H 0.13578 0.6987 0.77046 0.0
H498 H 0.87113 0.49321 0.75362 0.0
H499 H 0.89928 0.50938 0.71283 0.0
H500 H 0.86909 0.55629 0.73118 0.0
H501 H 0.07797 0.53595 0.80176 0.0
H502 H 0.14389 0.61637 0.79998 0.0
H503 H 0.12681 0.56296 0.76644 0.0
C504 C 0.38336 0.27573 0.14976 0.0
C505 C 0.40156 0.23452 0.1358 0.0
C506 C 0.37638 0.27711 0.18352 0.0
C507 C 0.38718 0.23585 0.20373 0.0
C508 C 0.4119 0.19935 0.19001 0.0
C509 C 0.41966 0.19988 0.15635 0.0
C510 C 0.35137 0.31803 0.19718 0.0
C511 C 0.42399 0.15455 0.21037 0.0
C512 C 0.37769 0.25234 0.29515 0.0
C513 C 0.31375 0.21018 0.30091 0.0
C514 C 0.40322 0.2598 0.26387 0.0
C515 C 0.36381 0.22389 0.23788 0.0
C516 C 0.30006 0.17829 0.24418 0.0
C517 C 0.27576 0.17251 0.27552 0.0
C518 C 0.47103 0.3095 0.25827 0.0
C519 C 0.25652 0.13798 0.21744 0.0
H520 H 0.36916 0.30266 0.13428 0.0
H521 H 0.43449 0.16834 0.14591 0.0
H522 H 0.301 0.28746 0.20346 0.0
H523 H 0.37684 0.34205 0.21964 0.0
H524 H 0.35547 0.3548 0.17962 0.0
H525 H 0.45309 0.13822 0.19738 0.0
H526 H 0.44783 0.17752 0.23333 0.0
H527 H 0.37838 0.11205 0.21667 0.0
H528 H 0.40654 0.2832 0.31454 0.0
H529 H 0.22596 0.14115 0.27983 0.0
H530 H 0.47305 0.35037 0.24489 0.0
H531 H 0.49498 0.29002 0.24322 0.0
H532 H 0.49731 0.32746 0.28133 0.0
H533 H 0.20743 0.10791 0.22593 0.0
H534 H 0.27334 0.10664 0.20726 0.0
H535 H 0.25649 0.16883 0.19757 0.0
C536 C 0.23296 0.34211 0.49144 0.0
C537 C 0.20892 0.35123 0.46222 0.0
C538 C 0.21 0.34804 0.52149 0.0
C539 C 0.16366 0.36682 0.52278 0.0
C540 C 0.14379 0.38244 0.49353 0.0
C541 C 0.16547 0.37301 0.46356 0.0
C542 C 0.23406 0.3312 0.55156 0.0
C543 C 0.09761 0.4066 0.49353 0.0
C544 C 0.04428 0.2892 0.58994 0.0
C545 C 0.07288 0.33094 0.61612 0.0
C546 C 0.0722 0.30156 0.55933 0.0
C547 C 0.12908 0.35904 0.55379 0.0
C548 C 0.15595 0.40389 0.57935 0.0
C549 C 0.1283 0.38874 0.61043 0.0
C550 C 0.04173 0.2511 0.53344 0.0
C551 C 0.21512 0.46687 0.57433 0.0
H552 H 0.26733 0.32628 0.49104 0.0
H553 H 0.14716 0.38123 0.44129 0.0
H554 H 0.1978 0.30962 0.5707 0.0
H555 H 0.2513 0.2975 0.54606 0.0
H556 H 0.27422 0.37524 0.56144 0.0
H557 H 0.10694 0.43989 0.473 0.0
H558 H 0.04931 0.36591 0.49042 0.0
H559 H 0.09953 0.4314 0.51642 0.0
H560 H 0.00129 0.24435 0.59363 0.0
H561 H 0.15059 0.42168 0.63025 0.0
H562 H 0.07712 0.24362 0.52043 0.0
H563 H 0.0184 0.26664 0.51549 0.0
H564 H 0.00559 0.20451 0.54353 0.0
H565 H 0.21831 0.50309 0.59188 0.0
H566 H 0.21744 0.48518 0.54942 0.0
H567 H 0.25654 0.46055 0.57808 0.0
C568 C 0.85354 0.10747 0.80409 0.0
C569 C 0.91424 0.15873 0.79877 0.0
C570 C 0.83291 0.08373 0.83553 0.0
C571 C 0.87411 0.11161 0.86219 0.0
C572 C 0.93531 0.16335 0.85693 0.0
C573 C 0.95448 0.18624 0.82543 0.0
C574 C 0.76733 0.0283 0.8402 0.0
C575 C -0.01873 0.1938 0.88448 0.0
C576 C 0.80964 0.08404 0.94825 0.0
C577 C 0.8182 0.03344 0.9583 0.0
C578 C 0.82691 0.10959 0.91685 0.0
C579 C 0.8546 0.08479 0.89541 0.0
C580 C 0.86502 0.03499 0.90592 0.0
C581 C 0.84606 0.00951 0.93704 0.0
C582 C 0.81464 0.16235 0.90641 0.0
C583 C 0.89634 0.00861 0.88433 0.0
H584 H 0.8221 0.08593 0.78374 0.0
H585 H 0.00176 0.22553 0.82177 0.0
H586 H 0.76979 -0.01354 0.84951 0.0
H587 H 0.74186 0.04045 0.85848 0.0
H588 H 0.73976 0.0145 0.81738 0.0
H589 H 0.02568 0.23621 0.87657 0.0
H590 H 0.96 0.20852 0.90389 0.0
H591 H -0.00714 0.15868 0.89515 0.0
H592 H 0.78755 0.10217 0.96452 0.0
H593 H 0.85319 0.97063 0.94481 0.0
H594 H 0.7836 0.14713 0.88483 0.0
H595 H 0.85941 0.20511 0.89937 0.0
H596 H 0.79217 0.17592 0.92578 0.0
H597 H 0.8696 -0.00917 0.86146 0.0
H598 H 0.90014 0.96917 0.89601 0.0
H599 H 0.9443 0.047 0.87787 0.0
C600 C 0.61668 0.76934 0.14103 0.0
C601 C 0.66812 0.83053 0.13615 0.0
C602 C 0.60263 0.74148 0.17215 0.0
C603 C 0.64288 0.7744 0.19852 0.0
C604 C 0.69445 0.83654 0.19354 0.0
C605 C 0.70555 0.86406 0.16269 0.0
C606 C 0.5458 0.67628 0.17638 0.0
C607 C 0.74018 0.87304 0.22041 0.0
C608 C 0.62578 0.74746 0.28907 0.0
C609 C 0.66504 0.72134 0.29394 0.0
C610 C 0.61073 0.7577 0.25746 0.0
C611 C 0.63685 0.7428 0.23049 0.0
C612 C 0.66965 0.70905 0.23556 0.0
C613 C 0.6825 0.69799 0.2672 0.0
C614 C 0.57221 0.79017 0.253 0.0
C615 C 0.69846 0.69197 0.2078 0.0
H616 H 0.58736 0.74338 0.12063 0.0
H617 H 0.7458 0.91117 0.15908 0.0
H618 H 0.55969 0.63943 0.17294 0.0
H619 H 0.52521 0.67011 0.2009 0.0
H620 H 0.50908 0.66771 0.15814 0.0
H621 H 0.77817 0.9206 0.21238 0.0
H622 H 0.71507 0.87995 0.24089 0.0
H623 H 0.76219 0.84547 0.22961 0.0
H624 H 0.61176 0.7653 0.30961 0.0
H625 H 0.71199 0.67669 0.27093 0.0
H626 H 0.54101 0.77083 0.23158 0.0
H627 H 0.60402 0.84189 0.2489 0.0
H628 H 0.54313 0.78438 0.27468 0.0
H629 H 0.66348 0.66801 0.18831 0.0
H630 H 0.71687 0.6602 0.21549 0.0
H631 H 0.73792 0.73618 0.19747 0.0
C632 C 0.87935 0.80664 0.48759 0.0
C633 C 0.88787 0.777 0.4606 0.0
C634 C 0.89591 0.79713 0.51872 0.0
C635 C 0.9201 0.75497 0.52326 0.0
C636 C 0.92772 0.72386 0.4959 0.0
C637 C 0.91261 0.73628 0.46481 0.0
C638 C 0.88479 0.83135 0.54627 0.0
C639 C 0.94966 0.67565 0.49884 0.0
C640 C 0.02359 0.78028 0.59638 0.0
C641 C -0.02082 0.75076 0.62125 0.0
C642 C 0.00517 0.78023 0.56429 0.0
C643 C 0.94056 0.74687 0.5562 0.0
C644 C 0.89582 0.71093 0.58049 0.0
C645 C 0.91548 0.71441 0.61288 0.0
C646 C 0.05521 0.81881 0.53956 0.0
C647 C 0.82677 0.67125 0.57275 0.0
H648 H 0.85845 0.83675 0.4844 0.0
H649 H 0.9169 0.71135 0.44405 0.0
H650 H 0.91037 0.83316 0.56871 0.0
H651 H 0.89833 0.88081 0.53897 0.0
H652 H 0.83374 0.80686 0.55175 0.0
H653 H 0.91891 0.63282 0.48419 0.0
H654 H -0.00224 0.6963 0.48869 0.0
H655 H 0.94996 0.66019 0.52408 0.0
H656 H 0.07323 0.8074 0.60219 0.0
H657 H 0.88069 0.69071 0.63167 0.0
H658 H 0.04102 0.84726 0.52415 0.0
H659 H 0.06236 0.78616 0.52362 0.0
H660 H 0.101 0.85173 0.55109 0.0
H661 H 0.80463 0.7016 0.57416 0.0
H662 H 0.8025 0.63164 0.59038 0.0
H663 H 0.81924 0.65096 0.54802 0.0
C664 C 0.17859 0.95159 0.81758 0.0
C665 C 0.11761 0.9027 0.81023 0.0
C666 C 0.19539 0.97457 0.84944 0.0
C667 C 0.15025 0.94805 0.8746 0.0
C668 C 0.08911 0.89791 0.86742 0.0
C669 C 0.07356 0.8761 0.83548 0.0
C670 C 0.2612 0.02802 0.8561 0.0
C671 C 0.03917 0.86836 0.89324 0.0
C672 C 0.20709 0.9768 0.96232 0.0
C673 C 0.20115 0.02991 0.9704 0.0
C674 C 0.19025 0.94924 0.93132 0.0
C675 C 0.16599 0.97476 0.90809 0.0
C676 C 0.15707 0.02638 0.91677 0.0
C677 C 0.17526 0.05361 0.94763 0.0
C678 C 0.20026 0.89411 0.92307 0.0
C679 C 0.12979 0.05403 0.89317 0.0
H680 H 0.21306 0.97251 0.79841 0.0
H681 H 0.02619 0.83828 0.83035 0.0
H682 H 0.25953 0.07081 0.86438 0.0
H683 H 0.28288 0.01413 0.8758 0.0
H684 H 0.29181 0.04109 0.8344 0.0
H685 H -0.00177 0.82299 0.88501 0.0
H686 H 0.0583 0.85877 0.91557 0.0
H687 H 0.0224 0.902 0.89961 0.0
H688 H 0.22774 0.95874 0.97965 0.0
H689 H 0.17038 0.09457 0.95375 0.0
H690 H 0.23464 0.90795 0.90301 0.0
H691 H 0.15557 0.85297 0.91458 0.0
H692 H 0.21792 0.87863 0.94402 0.0
H693 H 0.16145 0.07428 0.87201 0.0
H694 H 0.12304 0.0921 0.90419 0.0
H695 H 0.08375 0.01602 0.88404 0.0
loop_
_geom_bond_atom_site_label_1
_geom_bond_atom_site_label_2
_geom_bond_distance
_geom_bond_site_symmetry_2
_ccdc_geom_bond_type
Dy0 O4 2.398 1_545 S
Dy0 O5 2.491 1_545 S
Dy0 O6 2.403 . S
Dy0 O7 2.664 1_554 S
Dy0 O11 2.326 . S
Dy0 O15 2.310 . S
Dy0 O16 2.351 1_544 S
C1 O12 1.185 . S
C1 O13 1.355 . S
C2 O4 1.185 . S
C2 O5 1.355 . S
Dy3 O7 2.310 . S
Dy3 O10 2.351 1_556 S
Dy3 O12 2.398 . S
Dy3 O13 2.491 . S
Dy3 O14 2.403 . S
Dy3 O15 2.664 1_556 S
Dy3 O17 2.326 . S
O4 Dy0 2.398 1_565 S
O4 C2 1.185 . S
O5 Dy0 2.491 1_565 S
O5 C2 1.355 . S
O6 Dy0 2.403 . S
O6 C8 1.254 . S
O7 Dy0 2.664 1_556 S
O7 Dy3 2.310 . S
O7 C8 1.268 1_556 S
C8 O6 1.254 . S
C8 O7 1.268 1_554 S
C9 O14 1.232 1_554 S
C9 O15 1.280 . S
O10 Dy3 2.351 1_554 S
O10 C18 1.249 . S
O11 Dy0 2.326 . S
O11 C18 1.267 . S
O12 C1 1.185 . S
O12 Dy3 2.398 . S
O13 C1 1.355 . S
O13 Dy3 2.491 . S
O14 Dy3 2.403 . S
O14 C9 1.232 1_556 S
O15 Dy0 2.310 . S
O15 Dy3 2.664 1_554 S
O15 C9 1.280 . S
O16 Dy0 2.351 1_566 S
O16 C19 1.249 1_565 S
O17 Dy3 2.326 . S
O17 C19 1.267 . S
C18 O10 1.249 . S
C18 O11 1.267 . S
C19 O16 1.249 1_545 S
C19 O17 1.267 . S
Dy20 O24 2.398 . S
Dy20 O25 2.491 . S
Dy20 O26 2.403 . S
Dy20 O27 2.664 . S
Dy20 O31 2.326 . S
Dy20 O35 2.310 . S
Dy20 O36 2.351 . S
C21 O32 1.185 . S
C21 O33 1.355 . S
C22 O24 1.185 . S
C22 O25 1.355 . S
Dy23 O27 2.310 . S
Dy23 O30 2.351 . S
Dy23 O32 2.398 . S
Dy23 O33 2.491 . S
Dy23 O34 2.403 . S
Dy23 O35 2.664 . S
Dy23 O37 2.326 . S
O24 Dy20 2.398 . S
O24 C22 1.185 . S
O25 Dy20 2.491 . S
O25 C22 1.355 . S
O26 Dy20 2.403 . S
O26 C28 1.254 . S
O27 Dy20 2.664 . S
O27 Dy23 2.310 . S
O27 C28 1.268 . S
C28 O26 1.254 . S
C28 O27 1.268 . S
C29 O34 1.254 . S
C29 O35 1.268 . S
O30 Dy23 2.351 . S
O30 C38 1.249 . S
O31 Dy20 2.326 . S
O31 C38 1.267 . S
O32 C21 1.185 . S
O32 Dy23 2.398 . S
O33 C21 1.355 . S
O33 Dy23 2.491 . S
O34 Dy23 2.403 . S
O34 C29 1.254 . S
O35 Dy20 2.310 . S
O35 Dy23 2.664 . S
O35 C29 1.268 . S
O36 Dy20 2.351 . S
O36 C39 1.249 . S
O37 Dy23 2.326 . S
O37 C39 1.267 . S
C38 O30 1.249 . S
C38 O31 1.267 . S
C39 O36 1.249 . S
C39 O37 1.267 . S
Dy40 O44 2.398 . S
Dy40 O45 2.491 . S
Dy40 O46 2.403 . S
Dy40 O47 2.664 1_455 S
Dy40 O51 2.326 1_455 S
Dy40 O55 2.310 . S
Dy40 O56 2.351 . S
C41 O52 1.185 . S
C41 O53 1.355 . S
C42 O44 1.185 . S
C42 O45 1.355 . S
Dy43 O47 2.310 . S
Dy43 O50 2.351 . S
Dy43 O52 2.398 . S
Dy43 O53 2.491 . S
Dy43 O54 2.403 . S
Dy43 O55 2.664 1_655 S
Dy43 O57 2.326 1_655 S
O44 Dy40 2.398 . S
O44 C42 1.185 . S
O45 Dy40 2.491 . S
O45 C42 1.355 . S
O46 Dy40 2.403 . S
O46 C48 1.254 . S
O47 Dy40 2.664 1_655 S
O47 Dy43 2.310 . S
O47 C48 1.268 1_655 S
C48 O46 1.254 . S
C48 O47 1.268 1_455 S
C49 O54 1.254 . S
C49 O55 1.268 1_655 S
O50 Dy43 2.351 . S
O50 C58 1.249 . S
O51 Dy40 2.326 1_655 S
O51 C58 1.267 . S
O52 C41 1.185 . S
O52 Dy43 2.398 . S
O53 C41 1.355 . S
O53 Dy43 2.491 . S
O54 Dy43 2.403 . S
O54 C49 1.254 . S
O55 Dy40 2.310 . S
O55 Dy43 2.664 1_455 S
O55 C49 1.268 1_455 S
O56 Dy40 2.351 . S
O56 C59 1.249 . S
O57 Dy43 2.326 1_455 S
O57 C59 1.267 . S
C58 O50 1.249 . S
C58 O51 1.267 . S
C59 O56 1.249 . S
C59 O57 1.267 . S
Dy60 O64 2.398 . S
Dy60 O65 2.491 . S
Dy60 O66 2.403 . S
Dy60 O67 2.664 1_544 S
Dy60 O71 2.326 1_545 S
Dy60 O75 2.310 . S
Dy60 O76 2.351 1_554 S
C61 O72 1.185 . S
C61 O73 1.355 . S
C62 O64 1.185 . S
C62 O65 1.355 . S
Dy63 O67 2.310 . S
Dy63 O70 2.351 1_556 S
Dy63 O72 2.398 . S
Dy63 O73 2.491 . S
Dy63 O74 2.403 . S
Dy63 O75 2.664 1_566 S
Dy63 O77 2.326 1_565 S
O64 Dy60 2.398 . S
O64 C62 1.185 . S
O65 Dy60 2.491 . S
O65 C62 1.355 . S
O66 Dy60 2.403 . S
O66 C68 1.254 . S
O67 Dy60 2.664 1_566 S
O67 Dy63 2.310 . S
O67 C68 1.268 1_566 S
C68 O66 1.254 . S
C68 O67 1.268 1_544 S
C69 O74 1.232 1_554 S
C69 O75 1.280 1_565 S
O70 Dy63 2.351 1_554 S
O70 C78 1.249 . S
O71 Dy60 2.326 1_565 S
O71 C78 1.267 . S
O72 C61 1.185 . S
O72 Dy63 2.398 . S
O73 C61 1.355 . S
O73 Dy63 2.491 . S
O74 Dy63 2.403 . S
O74 C69 1.232 1_556 S
O75 Dy60 2.310 . S
O75 Dy63 2.664 1_544 S
O75 C69 1.280 1_545 S
O76 Dy60 2.351 1_556 S
O76 C79 1.249 . S
O77 Dy63 2.326 1_545 S
O77 C79 1.267 . S
C78 O70 1.249 . S
C78 O71 1.267 . S
C79 O76 1.249 . S
C79 O77 1.267 . S
Dy80 O84 2.398 . S
Dy80 O85 2.491 . S
Dy80 O86 2.403 . S
Dy80 O87 2.664 . S
Dy80 O91 2.326 . S
Dy80 O95 2.310 . S
Dy80 O96 2.351 . S
C81 O92 1.185 . S
C81 O93 1.355 . S
C82 O84 1.185 . S
C82 O85 1.355 . S
Dy83 O87 2.310 . S
Dy83 O90 2.351 . S
Dy83 O92 2.398 . S
Dy83 O93 2.491 . S
Dy83 O94 2.403 . S
Dy83 O95 2.664 . S
Dy83 O97 2.326 . S
O84 Dy80 2.398 . S
O84 C82 1.185 . S
O85 Dy80 2.491 . S
O85 C82 1.355 . S
O86 Dy80 2.403 . S
O86 C88 1.254 . S
O87 Dy80 2.664 . S
O87 Dy83 2.310 . S
O87 C88 1.268 . S
C88 O86 1.254 . S
C88 O87 1.268 . S
C89 O94 1.254 . S
C89 O95 1.268 . S
O90 Dy83 2.351 . S
O90 C98 1.249 . S
O91 Dy80 2.326 . S
O91 C98 1.267 . S
O92 C81 1.185 . S
O92 Dy83 2.398 . S
O93 C81 1.355 . S
O93 Dy83 2.491 . S
O94 Dy83 2.403 . S
O94 C89 1.254 . S
O95 Dy80 2.310 . S
O95 Dy83 2.664 . S
O95 C89 1.268 . S
O96 Dy80 2.351 . S
O96 C99 1.249 . S
O97 Dy83 2.326 . S
O97 C99 1.267 . S
C98 O90 1.249 . S
C98 O91 1.267 . S
C99 O96 1.249 . S
C99 O97 1.267 . S
Dy100 O104 2.398 1_455 S
Dy100 O105 2.491 1_455 S
Dy100 O106 2.403 . S
Dy100 O107 2.664 . S
Dy100 O111 2.326 . S
Dy100 O115 2.310 . S
Dy100 O116 2.351 1_455 S
C101 O112 1.185 . S
C101 O113 1.355 . S
C102 O104 1.185 . S
C102 O105 1.355 . S
Dy103 O107 2.310 . S
Dy103 O110 2.351 . S
Dy103 O112 2.398 . S
Dy103 O113 2.491 . S
Dy103 O114 2.403 . S
Dy103 O115 2.664 . S
Dy103 O117 2.326 . S
O104 Dy100 2.398 1_655 S
O104 C102 1.185 . S
O105 Dy100 2.491 1_655 S
O105 C102 1.355 . S
O106 Dy100 2.403 . S
O106 C108 1.254 . S
O107 Dy100 2.664 . S
O107 Dy103 2.310 . S
O107 C108 1.268 . S
C108 O106 1.254 . S
C108 O107 1.268 . S
C109 O114 1.254 . S
C109 O115 1.268 . S
O110 Dy103 2.351 . S
O110 C118 1.249 . S
O111 Dy100 2.326 . S
O111 C118 1.267 . S
O112 C101 1.185 . S
O112 Dy103 2.398 . S
O113 C101 1.355 . S
O113 Dy103 2.491 . S
O114 Dy103 2.403 . S
O114 C109 1.254 . S
O115 Dy100 2.310 . S
O115 Dy103 2.664 . S
O115 C109 1.268 . S
O116 Dy100 2.351 1_655 S
O116 C119 1.249 1_655 S
O117 Dy103 2.326 . S
O117 C119 1.267 . S
C118 O110 1.249 . S
C118 O111 1.267 . S
C119 O116 1.249 1_455 S
C119 O117 1.267 . S
C120 C121 1.399 1_545 S
C120 C122 1.394 . S
C120 H136 0.931 . S
C121 C120 1.399 1_565 S
C121 C125 1.369 1_554 S
C122 C120 1.394 . S
C122 C123 1.369 1_655 S
C122 C126 1.531 1_655 S
C123 C122 1.369 1_455 S
C123 C124 1.410 1_444 S
C123 C131 1.503 . S
C124 C123 1.410 1_666 S
C124 C125 1.392 . S
C124 C127 1.511 . S
C125 C121 1.369 1_556 S
C125 C124 1.392 . S
C125 H137 0.929 . S
C126 C122 1.531 1_455 S
C126 H138 0.960 . S
C126 H139 0.962 . S
C126 H140 0.960 1_455 S
C127 C124 1.511 . S
C127 H141 0.961 . S
C127 H142 0.961 1_655 S
C127 H143 0.961 . S
C128 C129 1.397 . S
C128 C130 1.363 . S
C128 H144 0.931 . S
C129 C128 1.397 . S
C129 C133 1.379 1_556 S
C130 C128 1.363 . S
C130 C131 1.370 1_556 S
C130 C134 1.524 . S
C131 C123 1.503 . S
C131 C130 1.370 1_554 S
C131 C132 1.403 . S
C132 C131 1.403 . S
C132 C133 1.404 . S
C132 C135 1.539 1_545 S
C133 C129 1.379 1_554 S
C133 C132 1.404 . S
C133 H145 0.930 . S
C134 C130 1.524 . S
C134 H146 0.956 . S
C134 H147 0.961 . S
C134 H148 0.961 . S
C135 C132 1.539 1_565 S
C135 H149 0.958 1_565 S
C135 H150 0.961 . S
C135 H151 0.960 . S
H136 C120 0.931 . S
H137 C125 0.929 . S
H138 C126 0.960 . S
H139 C126 0.962 . S
H140 C126 0.960 1_655 S
H141 C127 0.961 . S
H142 C127 0.961 1_455 S
H143 C127 0.961 . S
H144 C128 0.931 . S
H145 C133 0.930 . S
H146 C134 0.956 . S
H147 C134 0.961 . S
H148 C134 0.961 . S
H149 C135 0.958 1_545 S
H150 C135 0.961 . S
H151 C135 0.960 . S
C152 C153 1.391 . S
C152 C154 1.394 . S
C152 H168 0.931 . S
C153 C152 1.391 . S
C153 C157 1.376 1_655 S
C154 C152 1.394 . S
C154 C155 1.369 1_665 S
C154 C158 1.531 1_565 S
C155 C154 1.369 1_445 S
C155 C156 1.410 1_545 S
C155 C163 1.503 . S
C156 C155 1.410 1_565 S
C156 C157 1.392 . S
C156 C159 1.511 . S
C157 C153 1.376 1_455 S
C157 C156 1.392 . S
C157 H169 0.929 . S
C158 C154 1.531 1_545 S
C158 H170 0.960 . S
C158 H171 0.962 . S
C158 H172 0.960 . S
C159 C156 1.511 . S
C159 H173 0.961 . S
C159 H174 0.961 1_565 S
C159 H175 0.960 . S
C160 C161 1.370 . S
C160 C162 1.363 . S
C160 H176 0.931 . S
C161 C160 1.370 . S
C161 C165 1.408 . S
C162 C160 1.363 . S
C162 C163 1.370 . S
C162 C166 1.524 . S
C163 C155 1.503 . S
C163 C162 1.370 . S
C163 C164 1.403 . S
C164 C163 1.403 . S
C164 C165 1.404 . S
C164 C167 1.539 . S
C165 C161 1.408 . S
C165 C164 1.404 . S
C165 H177 0.930 . S
C166 C162 1.524 . S
C166 H178 0.956 . S
C166 H179 0.961 . S
C166 H180 0.961 . S
C167 C164 1.539 . S
C167 H181 0.958 . S
C167 H182 0.961 . S
C167 H183 0.960 . S
H168 C152 0.931 . S
H169 C157 0.929 . S
H170 C158 0.960 . S
H171 C158 0.962 . S
H172 C158 0.960 . S
H173 C159 0.961 . S
H174 C159 0.961 1_545 S
H175 C159 0.960 . S
H176 C160 0.931 . S
H177 C165 0.930 . S
H178 C166 0.956 . S
H179 C166 0.961 . S
H180 C166 0.961 . S
H181 C167 0.958 . S
H182 C167 0.961 . S
H183 C167 0.960 . S
C184 C185 1.391 1_545 S
C184 C186 1.394 . S
C184 H200 0.931 . S
C185 C184 1.391 1_565 S
C185 C189 1.376 . S
C186 C184 1.394 . S
C186 C187 1.369 . S
C186 C190 1.531 . S
C187 C186 1.369 . S
C187 C188 1.410 1_545 S
C187 C195 1.503 . S
C188 C187 1.410 1_565 S
C188 C189 1.392 . S
C188 C191 1.511 1_455 S
C189 C185 1.376 . S
C189 C188 1.392 . S
C189 H201 0.929 . S
C190 C186 1.531 . S
C190 H202 0.960 . S
C190 H203 0.962 . S
C190 H204 0.960 . S
C191 C188 1.511 1_655 S
C191 H205 0.961 . S
C191 H206 0.961 . S
C191 H207 0.961 . S
C192 C193 1.370 . S
C192 C194 1.363 . S
C192 H208 0.931 . S
C193 C192 1.370 . S
C193 C197 1.408 1_655 S
C194 C192 1.363 . S
C194 C195 1.370 1_655 S
C194 C198 1.524 . S
C195 C187 1.503 . S
C195 C194 1.370 1_455 S
C195 C196 1.403 . S
C196 C195 1.403 . S
C196 C197 1.404 . S
C196 C199 1.539 . S
C197 C193 1.408 1_455 S
C197 C196 1.404 . S
C197 H209 0.930 . S
C198 C194 1.524 . S
C198 H210 0.956 1_655 S
C198 H211 0.961 1_545 S
C198 H212 0.961 . S
C199 C196 1.539 . S
C199 H213 0.958 . S
C199 H214 0.961 . S
C199 H215 0.960 . S
H200 C184 0.931 . S
H201 C189 0.929 . S
H202 C190 0.960 . S
H203 C190 0.962 . S
H204 C190 0.960 . S
H205 C191 0.961 . S
H206 C191 0.961 . S
H207 C191 0.961 . S
H208 C192 0.931 . S
H209 C197 0.930 . S
H210 C198 0.956 1_455 S
H211 C198 0.961 1_565 S
H212 C198 0.961 . S
H213 C199 0.958 . S
H214 C199 0.961 . S
H215 C199 0.960 . S
C216 C217 1.391 . S
C216 C218 1.394 . S
C216 H232 0.931 . S
C217 C216 1.391 . S
C217 C221 1.376 . S
C218 C216 1.394 . S
C218 C219 1.369 . S
C218 C222 1.531 . S
C219 C218 1.369 . S
C219 C220 1.410 . S
C219 C227 1.503 . S
C220 C219 1.410 . S
C220 C221 1.392 . S
C220 C223 1.511 . S
C221 C217 1.376 . S
C221 C220 1.392 . S
C221 H233 0.929 . S
C222 C218 1.531 . S
C222 H234 0.960 . S
C222 H235 0.962 . S
C222 H236 0.960 . S
C223 C220 1.511 . S
C223 H237 0.961 . S
C223 H238 0.961 . S
C223 H239 0.961 . S
C224 C225 1.370 . S
C224 C226 1.363 . S
C224 H240 0.931 . S
C225 C224 1.370 . S
C225 C229 1.408 . S
C226 C224 1.363 . S
C226 C227 1.370 . S
C226 C230 1.524 . S
C227 C219 1.503 . S
C227 C226 1.370 . S
C227 C228 1.403 . S
C228 C227 1.403 . S
C228 C229 1.404 . S
C228 C231 1.539 . S
C229 C225 1.408 . S
C229 C228 1.404 . S
C229 H241 0.930 . S
C230 C226 1.524 . S
C230 H242 0.956 . S
C230 H243 0.961 . S
C230 H244 0.961 . S
C231 C228 1.539 . S
C231 H245 0.958 . S
C231 H246 0.961 . S
C231 H247 0.960 . S
H232 C216 0.931 . S
H233 C221 0.929 . S
H234 C222 0.960 . S
H235 C222 0.962 . S
H236 C222 0.960 . S
H237 C223 0.961 . S
H238 C223 0.961 . S
H239 C223 0.961 . S
H240 C224 0.931 . S
H241 C229 0.930 . S
H242 C230 0.956 . S
H243 C230 0.961 . S
H244 C230 0.961 . S
H245 C231 0.958 . S
H246 C231 0.961 . S
H247 C231 0.960 . S
C248 C249 1.391 . S
C248 C250 1.394 . S
C248 H264 0.931 . S
C249 C248 1.391 . S
C249 C253 1.376 . S
C250 C248 1.394 . S
C250 C251 1.369 . S
C250 C254 1.531 1_455 S
C251 C250 1.369 . S
C251 C252 1.410 . S
C251 C259 1.503 1_455 S
C252 C251 1.410 . S
C252 C253 1.392 . S
C252 C255 1.511 . S
C253 C249 1.376 . S
C253 C252 1.392 . S
C253 H265 0.929 . S
C254 C250 1.531 1_655 S
C254 H266 0.960 . S
C254 H267 0.962 . S
C254 H268 0.960 . S
C255 C252 1.511 . S
C255 H269 0.961 . S
C255 H270 0.961 . S
C255 H271 0.961 . S
C256 C257 1.370 . S
C256 C258 1.363 . S
C256 H272 0.931 . S
C257 C256 1.370 . S
C257 C261 1.408 . S
C258 C256 1.363 . S
C258 C259 1.370 . S
C258 C262 1.524 . S
C259 C251 1.503 1_655 S
C259 C258 1.370 . S
C259 C260 1.403 . S
C260 C259 1.403 . S
C260 C261 1.404 . S
C260 C263 1.539 1_655 S
C261 C257 1.408 . S
C261 C260 1.404 . S
C261 H273 0.930 . S
C262 C258 1.524 . S
C262 H274 0.956 . S
C262 H275 0.961 . S
C262 H276 0.961 . S
C263 C260 1.539 1_455 S
C263 H277 0.958 . S
C263 H278 0.961 . S
C263 H279 0.960 . S
H264 C248 0.931 . S
H265 C253 0.929 . S
H266 C254 0.960 . S
H267 C254 0.962 . S
H268 C254 0.960 . S
H269 C255 0.961 . S
H270 C255 0.961 . S
H271 C255 0.961 . S
H272 C256 0.931 . S
H273 C261 0.930 . S
H274 C262 0.956 . S
H275 C262 0.961 . S
H276 C262 0.961 . S
H277 C263 0.958 . S
H278 C263 0.961 . S
H279 C263 0.960 . S
C280 C281 1.391 . S
C280 C282 1.394 . S
C280 H296 0.931 . S
C281 C280 1.391 . S
C281 C285 1.376 . S
C282 C280 1.394 . S
C282 C283 1.369 . S
C282 C286 1.531 1_545 S
C283 C282 1.369 . S
C283 C284 1.410 . S
C283 C291 1.503 1_545 S
C284 C283 1.410 . S
C284 C285 1.392 . S
C284 C287 1.511 . S
C285 C281 1.376 . S
C285 C284 1.392 . S
C285 H297 0.929 . S
C286 C282 1.531 1_565 S
C286 H298 0.960 . S
C286 H299 0.962 . S
C286 H300 0.960 . S
C287 C284 1.511 . S
C287 H301 0.961 . S
C287 H302 0.961 . S
C287 H303 0.961 . S
C288 C289 1.370 . S
C288 C290 1.363 . S
C288 H304 0.931 . S
C289 C288 1.370 . S
C289 C293 1.408 . S
C290 C288 1.363 . S
C290 C291 1.370 . S
C290 C294 1.524 1_565 S
C291 C283 1.503 1_565 S
C291 C290 1.370 . S
C291 C292 1.403 . S
C292 C291 1.403 . S
C292 C293 1.404 . S
C292 C295 1.539 . S
C293 C289 1.408 . S
C293 C292 1.404 . S
C293 H305 0.930 . S
C294 C290 1.524 1_545 S
C294 H306 0.956 . S
C294 H307 0.961 . S
C294 H308 0.961 . S
C295 C292 1.539 . S
C295 H309 0.958 . S
C295 H310 0.961 . S
C295 H311 0.960 . S
H296 C280 0.931 . S
H297 C285 0.929 . S
H298 C286 0.960 . S
H299 C286 0.962 . S
H300 C286 0.960 . S
H301 C287 0.961 . S
H302 C287 0.961 . S
H303 C287 0.961 . S
H304 C288 0.931 . S
H305 C293 0.930 . S
H306 C294 0.956 . S
H307 C294 0.961 . S
H308 C294 0.961 . S
H309 C295 0.958 . S
H310 C295 0.961 . S
H311 C295 0.960 . S
C312 C313 1.391 . S
C312 C314 1.394 . S
C312 H328 0.931 . S
C313 C312 1.391 . S
C313 C317 1.376 . S
C314 C312 1.394 . S
C314 C315 1.369 . S
C314 C318 1.531 . S
C315 C314 1.369 . S
C315 C316 1.410 . S
C315 C323 1.503 . S
C316 C315 1.410 . S
C316 C317 1.392 . S
C316 C319 1.511 . S
C317 C313 1.376 . S
C317 C316 1.392 . S
C317 H329 0.929 . S
C318 C314 1.531 . S
C318 H330 0.960 . S
C318 H331 0.962 . S
C318 H332 0.960 . S
C319 C316 1.511 . S
C319 H333 0.961 . S
C319 H334 0.961 . S
C319 H335 0.961 . S
C320 C321 1.370 . S
C320 C322 1.363 . S
C320 H336 0.931 . S
C321 C320 1.370 . S
C321 C325 1.408 . S
C322 C320 1.363 . S
C322 C323 1.370 . S
C322 C326 1.524 . S
C323 C315 1.503 . S
C323 C322 1.370 . S
C323 C324 1.403 . S
C324 C323 1.403 . S
C324 C325 1.404 . S
C324 C327 1.539 . S
C325 C321 1.408 . S
C325 C324 1.404 . S
C325 H337 0.930 . S
C326 C322 1.524 . S
C326 H338 0.956 . S
C326 H339 0.961 . S
C326 H340 0.961 . S
C327 C324 1.539 . S
C327 H341 0.958 . S
C327 H342 0.961 1_655 S
C327 H343 0.960 . S
H328 C312 0.931 . S
H329 C317 0.929 . S
H330 C318 0.960 . S
H331 C318 0.962 . S
H332 C318 0.960 . S
H333 C319 0.961 . S
H334 C319 0.961 . S
H335 C319 0.961 . S
H336 C320 0.931 . S
H337 C325 0.930 . S
H338 C326 0.956 . S
H339 C326 0.961 . S
H340 C326 0.961 . S
H341 C327 0.958 . S
H342 C327 0.961 1_455 S
H343 C327 0.960 . S
C344 C345 1.391 . S
C344 C346 1.394 . S
C344 H360 0.931 . S
C345 C344 1.391 . S
C345 C349 1.376 1_655 S
C346 C344 1.394 . S
C346 C347 1.369 1_655 S
C346 C350 1.531 . S
C347 C346 1.369 1_455 S
C347 C348 1.410 . S
C347 C355 1.503 . S
C348 C347 1.410 . S
C348 C349 1.392 . S
C348 C351 1.511 . S
C349 C345 1.376 1_455 S
C349 C348 1.392 . S
C349 H361 0.929 . S
C350 C346 1.531 . S
C350 H362 0.960 1_655 S
C350 H363 0.962 1_655 S
C350 H364 0.960 . S
C351 C348 1.511 . S
C351 H365 0.961 . S
C351 H366 0.961 . S
C351 H367 0.961 . S
C352 C353 1.370 . S
C352 C354 1.363 . S
C352 H368 0.931 . S
C353 C352 1.370 . S
C353 C357 1.408 . S
C354 C352 1.363 . S
C354 C355 1.370 . S
C354 C358 1.524 . S
C355 C347 1.503 . S
C355 C354 1.370 . S
C355 C356 1.403 . S
C356 C355 1.403 . S
C356 C357 1.404 . S
C356 C359 1.539 . S
C357 C353 1.408 . S
C357 C356 1.404 . S
C357 H369 0.930 . S
C358 C354 1.524 . S
C358 H370 0.956 . S
C358 H371 0.961 . S
C358 H372 0.961 . S
C359 C356 1.539 . S
C359 H373 0.953 1_455 S
C359 H374 0.961 . S
C359 H375 0.960 . S
H360 C344 0.931 . S
H361 C349 0.929 . S
H362 C350 0.960 1_455 S
H363 C350 0.962 1_455 S
H364 C350 0.960 . S
H365 C351 0.961 . S
H366 C351 0.961 . S
H367 C351 0.961 . S
H368 C352 0.931 . S
H369 C357 0.930 . S
H370 C358 0.956 . S
H371 C358 0.961 . S
H372 C358 0.961 . S
H373 C359 0.953 1_655 S
H374 C359 0.961 . S
H375 C359 0.960 . S
C376 C377 1.391 . S
C376 C378 1.394 . S
C376 H392 0.931 . S
C377 C376 1.391 . S
C377 C381 1.376 1_565 S
C378 C376 1.394 . S
C378 C379 1.368 1_565 S
C378 C382 1.531 . S
C379 C378 1.368 1_545 S
C379 C380 1.410 . S
C379 C387 1.503 . S
C380 C379 1.410 . S
C380 C381 1.392 . S
C380 C383 1.511 . S
C381 C377 1.376 1_545 S
C381 C380 1.392 . S
C381 H393 0.929 . S
C382 C378 1.531 . S
C382 H394 0.960 1_565 S
C382 H395 0.962 . S
C382 H396 0.960 . S
C383 C380 1.511 . S
C383 H397 0.961 . S
C383 H398 0.961 . S
C383 H399 0.961 . S
C384 C385 1.370 . S
C384 C386 1.363 . S
C384 H400 0.931 . S
C385 C384 1.370 . S
C385 C389 1.408 . S
C386 C384 1.363 . S
C386 C387 1.370 . S
C386 C390 1.524 . S
C387 C379 1.503 . S
C387 C386 1.370 . S
C387 C388 1.403 . S
C388 C387 1.403 . S
C388 C389 1.404 . S
C388 C391 1.539 . S
C389 C385 1.408 . S
C389 C388 1.404 . S
C389 H401 0.930 . S
C390 C386 1.524 . S
C390 H402 0.956 . S
C390 H403 0.961 . S
C390 H404 0.961 . S
C391 C388 1.539 . S
C391 H405 0.958 . S
C391 H406 0.961 . S
C391 H407 0.960 . S
H392 C376 0.931 . S
H393 C381 0.929 . S
H394 C382 0.960 1_545 S
H395 C382 0.962 . S
H396 C382 0.960 . S
H397 C383 0.961 . S
H398 C383 0.961 . S
H399 C383 0.961 . S
H400 C384 0.931 . S
H401 C389 0.930 . S
H402 C390 0.956 . S
H403 C390 0.961 . S
H404 C390 0.961 . S
H405 C391 0.958 . S
H406 C391 0.961 . S
H407 C391 0.960 . S
C408 C409 1.391 1_556 S
C408 C410 1.394 . S
C408 H424 0.931 . S
C409 C408 1.391 1_554 S
C409 C413 1.376 . S
C410 C408 1.394 . S
C410 C411 1.369 1_556 S
C410 C414 1.531 . S
C411 C410 1.369 1_554 S
C411 C412 1.410 . S
C411 C419 1.503 . S
C412 C411 1.410 . S
C412 C413 1.392 . S
C412 C415 1.511 . S
C413 C409 1.376 . S
C413 C412 1.392 . S
C413 H425 0.929 . S
C414 C410 1.531 . S
C414 H426 0.960 . S
C414 H427 0.962 . S
C414 H428 0.960 . S
C415 C412 1.511 . S
C415 H429 0.961 . S
C415 H430 0.961 . S
C415 H431 0.961 . S
C416 C417 1.370 1_565 S
C416 C418 1.363 . S
C416 H432 0.931 1_554 S
C417 C416 1.370 1_545 S
C417 C421 1.408 . S
C418 C416 1.363 . S
C418 C419 1.370 1_565 S
C418 C422 1.524 1_554 S
C419 C411 1.503 . S
C419 C418 1.370 1_545 S
C419 C420 1.403 . S
C420 C419 1.403 . S
C420 C421 1.404 . S
C420 C423 1.539 . S
C421 C417 1.408 . S
C421 C420 1.404 . S
C421 H433 0.930 . S
C422 C418 1.524 1_556 S
C422 H434 0.956 . S
C422 H435 0.961 1_556 S
C422 H436 0.961 . S
C423 C420 1.539 . S
C423 H437 0.958 1_554 S
C423 H438 0.961 . S
C423 H439 0.960 . S
H424 C408 0.931 . S
H425 C413 0.929 . S
H426 C414 0.960 . S
H427 C414 0.962 . S
H428 C414 0.960 . S
H429 C415 0.961 . S
H430 C415 0.961 . S
H431 C415 0.961 . S
H432 C416 0.931 1_556 S
H433 C421 0.930 . S
H434 C422 0.956 . S
H435 C422 0.961 1_554 S
H436 C422 0.961 . S
H437 C423 0.958 1_556 S
H438 C423 0.961 . S
H439 C423 0.960 . S
C440 C441 1.391 . S
C440 C442 1.394 . S
C440 H456 0.931 . S
C441 C440 1.391 . S
C441 C445 1.376 . S
C442 C440 1.394 . S
C442 C443 1.369 . S
C442 C446 1.531 . S
C443 C442 1.369 . S
C443 C444 1.410 . S
C443 C451 1.503 . S
C444 C443 1.410 . S
C444 C445 1.392 . S
C444 C447 1.511 . S
C445 C441 1.376 . S
C445 C444 1.392 . S
C445 H457 0.929 . S
C446 C442 1.531 . S
C446 H458 0.960 . S
C446 H459 0.962 . S
C446 H460 0.960 . S
C447 C444 1.511 . S
C447 H461 0.961 . S
C447 H462 0.961 . S
C447 H463 0.961 . S
C448 C449 1.370 . S
C448 C450 1.363 . S
C448 H464 0.931 . S
C449 C448 1.370 . S
C449 C453 1.408 . S
C450 C448 1.363 . S
C450 C451 1.370 . S
C450 C454 1.524 . S
C451 C443 1.503 . S
C451 C450 1.370 . S
C451 C452 1.403 . S
C452 C451 1.403 . S
C452 C453 1.404 . S
C452 C455 1.539 . S
C453 C449 1.408 . S
C453 C452 1.404 . S
C453 H465 0.930 . S
C454 C450 1.524 . S
C454 H466 0.956 . S
C454 H467 0.961 . S
C454 H468 0.961 . S
C455 C452 1.539 . S
C455 H469 0.958 . S
C455 H470 0.961 . S
C455 H471 0.960 . S
H456 C440 0.931 . S
H457 C445 0.929 . S
H458 C446 0.960 . S
H459 C446 0.962 . S
H460 C446 0.960 . S
H461 C447 0.961 . S
H462 C447 0.961 . S
H463 C447 0.961 . S
H464 C448 0.931 . S
H465 C453 0.930 . S
H466 C454 0.956 . S
H467 C454 0.961 . S
H468 C454 0.961 . S
H469 C455 0.958 . S
H470 C455 0.961 . S
H471 C455 0.960 . S
C472 C473 1.391 1_655 S
C472 C474 1.394 . S
C472 H488 0.931 . S
C473 C472 1.391 1_455 S
C473 C477 1.376 . S
C474 C472 1.394 . S
C474 C475 1.369 1_655 S
C474 C478 1.531 . S
C475 C474 1.369 1_455 S
C475 C476 1.410 . S
C475 C483 1.503 . S
C476 C475 1.410 . S
C476 C477 1.392 . S
C476 C479 1.511 . S
C477 C473 1.376 . S
C477 C476 1.392 . S
C477 H489 0.929 . S
C478 C474 1.531 . S
C478 H490 0.960 . S
C478 H491 0.962 . S
C478 H492 0.960 . S
C479 C476 1.511 . S
C479 H493 0.961 . S
C479 H494 0.961 . S
C479 H495 0.961 . S
C480 C481 1.370 . S
C480 C482 1.363 . S
C480 H496 0.931 . S
C481 C480 1.370 . S
C481 C485 1.408 . S
C482 C480 1.363 . S
C482 C483 1.370 . S
C482 C486 1.524 1_455 S
C483 C475 1.503 . S
C483 C482 1.370 . S
C483 C484 1.403 . S
C484 C483 1.403 . S
C484 C485 1.404 . S
C484 C487 1.539 . S
C485 C481 1.408 . S
C485 C484 1.404 . S
C485 H497 0.930 . S
C486 C482 1.524 1_655 S
C486 H498 0.956 . S
C486 H499 0.961 1_655 S
C486 H500 0.961 . S
C487 C484 1.539 . S
C487 H501 0.958 . S
C487 H502 0.961 . S
C487 H503 0.960 . S
H488 C472 0.931 . S
H489 C477 0.929 . S
H490 C478 0.960 . S
H491 C478 0.962 . S
H492 C478 0.960 . S
H493 C479 0.961 . S
H494 C479 0.961 . S
H495 C479 0.961 . S
H496 C480 0.931 . S
H497 C485 0.930 . S
H498 C486 0.956 . S
H499 C486 0.961 1_455 S
H500 C486 0.961 . S
H501 C487 0.958 . S
H502 C487 0.961 . S
H503 C487 0.960 . S
C504 C505 1.391 . S
C504 C506 1.394 . S
C504 H520 0.931 . S
C505 C504 1.391 . S
C505 C509 1.376 . S
C506 C504 1.394 . S
C506 C507 1.369 . S
C506 C510 1.531 . S
C507 C506 1.369 . S
C507 C508 1.410 . S
C507 C515 1.503 . S
C508 C507 1.410 . S
C508 C509 1.392 . S
C508 C511 1.511 . S
C509 C505 1.376 . S
C509 C508 1.392 . S
C509 H521 0.929 . S
C510 C506 1.531 . S
C510 H522 0.960 . S
C510 H523 0.962 . S
C510 H524 0.960 . S
C511 C508 1.511 . S
C511 H525 0.961 . S
C511 H526 0.961 . S
C511 H527 0.961 . S
C512 C513 1.370 . S
C512 C514 1.363 . S
C512 H528 0.931 . S
C513 C512 1.370 . S
C513 C517 1.408 . S
C514 C512 1.363 . S
C514 C515 1.370 . S
C514 C518 1.524 . S
C515 C507 1.503 . S
C515 C514 1.370 . S
C515 C516 1.403 . S
C516 C515 1.403 . S
C516 C517 1.404 . S
C516 C519 1.539 . S
C517 C513 1.408 . S
C517 C516 1.404 . S
C517 H529 0.930 . S
C518 C514 1.524 . S
C518 H530 0.956 . S
C518 H531 0.961 . S
C518 H532 0.961 . S
C519 C516 1.539 . S
C519 H533 0.958 . S
C519 H534 0.961 . S
C519 H535 0.960 . S
H520 C504 0.931 . S
H521 C509 0.929 . S
H522 C510 0.960 . S
H523 C510 0.962 . S
H524 C510 0.960 . S
H525 C511 0.961 . S
H526 C511 0.961 . S
H527 C511 0.961 . S
H528 C512 0.931 . S
H529 C517 0.930 . S
H530 C518 0.956 . S
H531 C518 0.961 . S
H532 C518 0.961 . S
H533 C519 0.958 . S
H534 C519 0.961 . S
H535 C519 0.960 . S
C536 C537 1.391 . S
C536 C538 1.394 . S
C536 H552 0.931 . S
C537 C536 1.391 . S
C537 C541 1.376 . S
C538 C536 1.394 . S
C538 C539 1.369 . S
C538 C542 1.531 . S
C539 C538 1.369 . S
C539 C540 1.410 . S
C539 C547 1.503 . S
C540 C539 1.410 . S
C540 C541 1.392 . S
C540 C543 1.511 . S
C541 C537 1.376 . S
C541 C540 1.392 . S
C541 H553 0.929 . S
C542 C538 1.531 . S
C542 H554 0.960 . S
C542 H555 0.962 . S
C542 H556 0.960 . S
C543 C540 1.511 . S
C543 H557 0.961 . S
C543 H558 0.961 . S
C543 H559 0.961 . S
C544 C545 1.370 . S
C544 C546 1.363 . S
C544 H560 0.931 . S
C545 C544 1.370 . S
C545 C549 1.408 . S
C546 C544 1.363 . S
C546 C547 1.370 . S
C546 C550 1.524 . S
C547 C539 1.503 . S
C547 C546 1.370 . S
C547 C548 1.403 . S
C548 C547 1.403 . S
C548 C549 1.404 . S
C548 C551 1.539 . S
C549 C545 1.408 . S
C549 C548 1.404 . S
C549 H561 0.930 . S
C550 C546 1.524 . S
C550 H562 0.956 . S
C550 H563 0.961 . S
C550 H564 0.961 . S
C551 C548 1.539 . S
C551 H565 0.958 . S
C551 H566 0.961 . S
C551 H567 0.960 . S
H552 C536 0.931 . S
H553 C541 0.929 . S
H554 C542 0.960 . S
H555 C542 0.962 . S
H556 C542 0.960 . S
H557 C543 0.961 . S
H558 C543 0.961 . S
H559 C543 0.961 . S
H560 C544 0.931 . S
H561 C549 0.930 . S
H562 C550 0.956 . S
H563 C550 0.961 . S
H564 C550 0.961 . S
H565 C551 0.958 . S
H566 C551 0.961 . S
H567 C551 0.960 . S
C568 C569 1.391 . S
C568 C570 1.394 . S
C568 H584 0.931 . S
C569 C568 1.391 . S
C569 C573 1.376 . S
C570 C568 1.394 . S
C570 C571 1.369 . S
C570 C574 1.531 . S
C571 C570 1.369 . S
C571 C572 1.410 . S
C571 C579 1.503 . S
C572 C571 1.410 . S
C572 C573 1.392 . S
C572 C575 1.511 1_655 S
C573 C569 1.376 . S
C573 C572 1.392 . S
C573 H585 0.929 1_655 S
C574 C570 1.531 . S
C574 H586 0.960 . S
C574 H587 0.962 . S
C574 H588 0.960 . S
C575 C572 1.511 1_455 S
C575 H589 0.961 . S
C575 H590 0.961 1_455 S
C575 H591 0.961 . S
C576 C577 1.370 . S
C576 C578 1.363 . S
C576 H592 0.931 . S
C577 C576 1.370 . S
C577 C581 1.408 . S
C578 C576 1.363 . S
C578 C579 1.370 . S
C578 C582 1.524 . S
C579 C571 1.503 . S
C579 C578 1.370 . S
C579 C580 1.403 . S
C580 C579 1.403 . S
C580 C581 1.404 . S
C580 C583 1.539 . S
C581 C577 1.408 . S
C581 C580 1.404 . S
C581 H593 0.930 . S
C582 C578 1.524 . S
C582 H594 0.956 . S
C582 H595 0.961 . S
C582 H596 0.961 . S
C583 C580 1.539 . S
C583 H597 0.958 . S
C583 H598 0.961 . S
C583 H599 0.960 . S
H584 C568 0.931 . S
H585 C573 0.929 1_455 S
H586 C574 0.960 . S
H587 C574 0.962 . S
H588 C574 0.960 . S
H589 C575 0.961 . S
H590 C575 0.961 1_655 S
H591 C575 0.961 . S
H592 C576 0.931 . S
H593 C581 0.930 . S
H594 C582 0.956 . S
H595 C582 0.961 . S
H596 C582 0.961 . S
H597 C583 0.958 . S
H598 C583 0.961 . S
H599 C583 0.960 . S
C600 C601 1.391 . S
C600 C602 1.394 . S
C600 H616 0.931 . S
C601 C600 1.391 . S
C601 C605 1.376 . S
C602 C600 1.394 . S
C602 C603 1.369 . S
C602 C606 1.531 . S
C603 C602 1.369 . S
C603 C604 1.410 . S
C603 C611 1.503 . S
C604 C603 1.410 . S
C604 C605 1.392 . S
C604 C607 1.511 . S
C605 C601 1.376 . S
C605 C604 1.392 . S
C605 H617 0.929 . S
C606 C602 1.531 . S
C606 H618 0.960 . S
C606 H619 0.962 . S
C606 H620 0.960 . S
C607 C604 1.511 . S
C607 H621 0.972 . S
C607 H622 0.961 . S
C607 H623 0.961 . S
C608 C609 1.370 . S
C608 C610 1.363 . S
C608 H624 0.931 . S
C609 C608 1.370 . S
C609 C613 1.408 . S
C610 C608 1.363 . S
C610 C611 1.370 . S
C610 C614 1.524 . S
C611 C603 1.503 . S
C611 C610 1.370 . S
C611 C612 1.403 . S
C612 C611 1.403 . S
C612 C613 1.404 . S
C612 C615 1.539 . S
C613 C609 1.408 . S
C613 C612 1.404 . S
C613 H625 0.930 . S
C614 C610 1.524 . S
C614 H626 0.956 . S
C614 H627 0.961 . S
C614 H628 0.961 . S
C615 C612 1.539 . S
C615 H629 0.958 . S
C615 H630 0.961 . S
C615 H631 0.960 . S
H616 C600 0.931 . S
H617 C605 0.929 . S
H618 C606 0.960 . S
H619 C606 0.962 . S
H620 C606 0.960 . S
H621 C607 0.972 . S
H622 C607 0.961 . S
H623 C607 0.961 . S
H624 C608 0.931 . S
H625 C613 0.930 . S
H626 C614 0.956 . S
H627 C614 0.961 . S
H628 C614 0.961 . S
H629 C615 0.958 . S
H630 C615 0.961 . S
H631 C615 0.960 . S
C632 C633 1.391 . S
C632 C634 1.394 . S
C632 H648 0.931 . S
C633 C632 1.391 . S
C633 C637 1.376 . S
C634 C632 1.394 . S
C634 C635 1.369 . S
C634 C638 1.531 . S
C635 C634 1.369 . S
C635 C636 1.410 . S
C635 C643 1.503 . S
C636 C635 1.410 . S
C636 C637 1.392 . S
C636 C639 1.511 1_655 S
C637 C633 1.376 . S
C637 C636 1.392 . S
C637 H649 0.929 1_655 S
C638 C634 1.531 . S
C638 H650 0.960 . S
C638 H651 0.962 . S
C638 H652 0.960 . S
C639 C636 1.511 1_455 S
C639 H653 0.961 . S
C639 H654 0.961 . S
C639 H655 0.961 . S
C640 C641 1.370 . S
C640 C642 1.363 . S
C640 H656 0.931 . S
C641 C640 1.370 . S
C641 C645 1.408 . S
C642 C640 1.363 . S
C642 C643 1.370 . S
C642 C646 1.524 . S
C643 C635 1.503 . S
C643 C642 1.370 . S
C643 C644 1.403 . S
C644 C643 1.403 . S
C644 C645 1.404 . S
C644 C647 1.539 . S
C645 C641 1.408 . S
C645 C644 1.404 . S
C645 H657 0.930 . S
C646 C642 1.524 . S
C646 H658 0.956 . S
C646 H659 0.961 . S
C646 H660 0.961 . S
C647 C644 1.539 . S
C647 H661 0.958 . S
C647 H662 0.961 . S
C647 H663 0.960 . S
H648 C632 0.931 . S
H649 C637 0.929 1_455 S
H650 C638 0.960 . S
H651 C638 0.962 . S
H652 C638 0.960 . S
H653 C639 0.961 . S
H654 C639 0.961 . S
H655 C639 0.961 . S
H656 C640 0.931 . S
H657 C645 0.930 . S
H658 C646 0.956 . S
H659 C646 0.961 . S
H660 C646 0.961 . S
H661 C647 0.958 . S
H662 C647 0.961 . S
H663 C647 0.960 . S
C664 C665 1.391 . S
C664 C666 1.394 . S
C664 H680 0.931 1_565 S
C665 C664 1.391 . S
C665 C669 1.376 . S
C666 C664 1.394 . S
C666 C667 1.369 . S
C666 C670 1.531 1_565 S
C667 C666 1.369 . S
C667 C668 1.410 . S
C667 C675 1.503 . S
C668 C667 1.410 . S
C668 C669 1.392 . S
C668 C671 1.511 . S
C669 C665 1.376 . S
C669 C668 1.392 . S
C669 H681 0.929 . S
C670 C666 1.531 1_545 S
C670 H682 0.960 . S
C670 H683 0.962 . S
C670 H684 0.960 . S
C671 C668 1.511 . S
C671 H685 0.961 . S
C671 H686 0.961 . S
C671 H687 0.961 . S
C672 C673 1.370 . S
C672 C674 1.363 . S
C672 H688 0.931 1_565 S
C673 C672 1.370 . S
C673 C677 1.408 . S
C674 C672 1.363 . S
C674 C675 1.370 . S
C674 C678 1.524 . S
C675 C667 1.503 . S
C675 C674 1.370 . S
C675 C676 1.403 . S
C676 C675 1.403 . S
C676 C677 1.404 . S
C676 C679 1.539 . S
C677 C673 1.408 . S
C677 C676 1.404 . S
C677 H689 0.930 . S
C678 C674 1.524 . S
C678 H690 0.956 1_565 S
C678 H691 0.961 . S
C678 H692 0.961 . S
C679 C676 1.539 . S
C679 H693 0.958 . S
C679 H694 0.961 . S
C679 H695 0.960 . S
H680 C664 0.931 1_545 S
H681 C669 0.929 . S
H682 C670 0.960 . S
H683 C670 0.962 . S
H684 C670 0.960 . S
H685 C671 0.961 . S
H686 C671 0.961 . S
H687 C671 0.961 . S
H688 C672 0.931 1_545 S
H689 C677 0.930 . S
H690 C678 0.956 1_545 S
H691 C678 0.961 . S
H692 C678 0.961 . S
H693 C679 0.958 . S
H694 C679 0.961 . S
H695 C679 0.960 . S
C121 C68 1.343 1_565 S
C129 C8 1.299 1_556 S
C153 C88 1.319 . S
C161 C28 1.310 . S
C185 C108 1.371 . S
C193 C48 1.319 1_655 S
C217 C1 1.434 . S
C225 C42 1.359 . S
C249 C21 1.441 . S
C257 C62 1.366 . S
C281 C41 1.401 . S
C289 C82 1.388 . S
C313 C61 1.408 . S
C321 C102 1.367 . S
C345 C81 1.417 . S
C353 C2 1.364 . S
C377 C101 1.375 . S
C385 C22 1.388 . S
C409 C9 1.111 . S
C417 C69 1.127 1_545 S
C441 C29 1.121 . S
C449 C89 1.123 . S
C473 C49 1.133 1_455 S
C481 C109 1.117 . S
C505 C18 1.834 . S
C513 C39 1.899 . S
C537 C38 1.851 . S
C545 C59 1.902 . S
C569 C58 1.835 . S
C577 C79 1.898 . S
C601 C78 1.857 . S
C609 C99 1.892 . S
C633 C98 1.878 . S
C641 C119 1.893 1_655 S
C665 C118 1.837 . S
C673 C19 1.901 1_565 S
