# Generated by pormake.
# Topology wiv, (6)-cn, num edge types: 1
# Building blocks:
#     Node 0, Type 0, BuildingBlock: UKALOJ_clean_sbu_0, # of connection points: 6
#     Node 1, Type 0, BuildingBlock: UKALOJ_clean_sbu_0, # of connection points: 6
#     Node 2, Type 0, BuildingBlock: UKALOJ_clean_sbu_0, # of connection points: 6
#     Node 3, Type 0, BuildingBlock: UKALOJ_clean_sbu_0, # of connection points: 6
#     Node 4, Type 0, BuildingBlock: UKALOJ_clean_sbu_0, # of connection points: 6
#     Node 5, Type 0, BuildingBlock: UKALOJ_clean_sbu_0, # of connection points: 6
#     Node 6, Type 0, BuildingBlock: UKALOJ_clean_sbu_0, # of connection points: 6
#     Node 7, Type 0, BuildingBlock: UKALOJ_clean_sbu_0, # of connection points: 6
#     Node 8, Type 0, BuildingBlock: UKALOJ_clean_sbu_0, # of connection points: 6
#     Node 9, Type 0, BuildingBlock: UKALOJ_clean_sbu_0, # of connection points: 6
#     Node 10, Type 0, BuildingBlock: UKALOJ_clean_sbu_0, # of connection points: 6
#     Node 11, Type 0, BuildingBlock: UKALOJ_clean_sbu_0, # of connection points: 6
#     Node 12, Type 0, BuildingBlock: UKALOJ_clean_sbu_0, # of connection points: 6
#     Node 13, Type 0, BuildingBlock: UKALOJ_clean_sbu_0, # of connection points: 6
#     Node 14, Type 0, BuildingBlock: UKALOJ_clean_sbu_0, # of connection points: 6
#     Node 15, Type 0, BuildingBlock: UKALOJ_clean_sbu_0, # of connection points: 6
#     Edge 16, Type (0, 0), BuildingBlock: UVAHIK_clean_linker_0, # of connection points: 2
#     Edge 17, Type (0, 0), BuildingBlock: UVAHIK_clean_linker_0, # of connection points: 2
#     Edge 18, Type (0, 0), BuildingBlock: UVAHIK_clean_linker_0, # of connection points: 2
#     Edge 19, Type (0, 0), BuildingBlock: UVAHIK_clean_linker_0, # of connection points: 2
#     Edge 20, Type (0, 0), BuildingBlock: UVAHIK_clean_linker_0, # of connection points: 2
#     Edge 21, Type (0, 0), BuildingBlock: UVAHIK_clean_linker_0, # of connection points: 2
#     Edge 22, Type (0, 0), BuildingBlock: UVAHIK_clean_linker_0, # of connection points: 2
#     Edge 23, Type (0, 0), BuildingBlock: UVAHIK_clean_linker_0, # of connection points: 2
#     Edge 24, Type (0, 0), BuildingBlock: UVAHIK_clean_linker_0, # of connection points: 2
#     Edge 25, Type (0, 0), BuildingBlock: UVAHIK_clean_linker_0, # of connection points: 2
#     Edge 26, Type (0, 0), BuildingBlock: UVAHIK_clean_linker_0, # of connection points: 2
#     Edge 27, Type (0, 0), BuildingBlock: UVAHIK_clean_linker_0, # of connection points: 2
#     Edge 28, Type (0, 0), BuildingBlock: UVAHIK_clean_linker_0, # of connection points: 2
#     Edge 29, Type (0, 0), BuildingBlock: UVAHIK_clean_linker_0, # of connection points: 2
#     Edge 30, Type (0, 0), BuildingBlock: UVAHIK_clean_linker_0, # of connection points: 2
#     Edge 31, Type (0, 0), BuildingBlock: UVAHIK_clean_linker_0, # of connection points: 2
#     Edge 32, Type (0, 0), BuildingBlock: UVAHIK_clean_linker_0, # of connection points: 2
#     Edge 33, Type (0, 0), BuildingBlock: UVAHIK_clean_linker_0, # of connection points: 2
#     Edge 34, Type (0, 0), BuildingBlock: UVAHIK_clean_linker_0, # of connection points: 2
#     Edge 35, Type (0, 0), BuildingBlock: UVAHIK_clean_linker_0, # of connection points: 2
#     Edge 36, Type (0, 0), BuildingBlock: UVAHIK_clean_linker_0, # of connection points: 2
#     Edge 37, Type (0, 0), BuildingBlock: UVAHIK_clean_linker_0, # of connection points: 2
#     Edge 38, Type (0, 0), BuildingBlock: UVAHIK_clean_linker_0, # of connection points: 2
#     Edge 39, Type (0, 0), BuildingBlock: UVAHIK_clean_linker_0, # of connection points: 2
#     Edge 40, Type (0, 0), BuildingBlock: UVAHIK_clean_linker_0, # of connection points: 2
#     Edge 41, Type (0, 0), BuildingBlock: UVAHIK_clean_linker_0, # of connection points: 2
#     Edge 42, Type (0, 0), BuildingBlock: UVAHIK_clean_linker_0, # of connection points: 2
#     Edge 43, Type (0, 0), BuildingBlock: UVAHIK_clean_linker_0, # of connection points: 2
#     Edge 44, Type (0, 0), BuildingBlock: UVAHIK_clean_linker_0, # of connection points: 2
#     Edge 45, Type (0, 0), BuildingBlock: UVAHIK_clean_linker_0, # of connection points: 2
#     Edge 46, Type (0, 0), BuildingBlock: UVAHIK_clean_linker_0, # of connection points: 2
#     Edge 47, Type (0, 0), BuildingBlock: UVAHIK_clean_linker_0, # of connection points: 2
#     Edge 48, Type (0, 0), BuildingBlock: UVAHIK_clean_linker_0, # of connection points: 2
#     Edge 49, Type (0, 0), BuildingBlock: UVAHIK_clean_linker_0, # of connection points: 2
#     Edge 50, Type (0, 0), BuildingBlock: UVAHIK_clean_linker_0, # of connection points: 2
#     Edge 51, Type (0, 0), BuildingBlock: UVAHIK_clean_linker_0, # of connection points: 2
#     Edge 52, Type (0, 0), BuildingBlock: UVAHIK_clean_linker_0, # of connection points: 2
#     Edge 53, Type (0, 0), BuildingBlock: UVAHIK_clean_linker_0, # of connection points: 2
#     Edge 54, Type (0, 0), BuildingBlock: UVAHIK_clean_linker_0, # of connection points: 2
#     Edge 55, Type (0, 0), BuildingBlock: UVAHIK_clean_linker_0, # of connection points: 2
#     Edge 56, Type (0, 0), BuildingBlock: UVAHIK_clean_linker_0, # of connection points: 2
#     Edge 57, Type (0, 0), BuildingBlock: UVAHIK_clean_linker_0, # of connection points: 2
#     Edge 58, Type (0, 0), BuildingBlock: UVAHIK_clean_linker_0, # of connection points: 2
#     Edge 59, Type (0, 0), BuildingBlock: UVAHIK_clean_linker_0, # of connection points: 2
#     Edge 60, Type (0, 0), BuildingBlock: UVAHIK_clean_linker_0, # of connection points: 2
#     Edge 61, Type (0, 0), BuildingBlock: UVAHIK_clean_linker_0, # of connection points: 2
#     Edge 62, Type (0, 0), BuildingBlock: UVAHIK_clean_linker_0, # of connection points: 2
#     Edge 63, Type (0, 0), BuildingBlock: UVAHIK_clean_linker_0, # of connection points: 2
# Relax obj value: 0.105
# Max RMSD: 0.123
# Mean RMSD: 0.123
data_MOF--net-wiv--node1-UKALOJ_clean_sbu_0--edge1-UVAHIK_clean_linker_0
_symmetry_space_group_name_H-M    P1
_symmetry_Int_Tables_number       1
_symmetry_cell_setting            triclinic
loop_
_symmetry_equiv_pos_as_xyz
'x, y, z'
_cell_length_a     85.153261
_cell_length_b     85.153698
_cell_length_c     18.607747
_cell_angle_alpha  89.984469
_cell_angle_beta   90.034464
_cell_angle_gamma 89.954648
loop_
_atom_site_label
_atom_site_type_symbol
_atom_site_fract_x
_atom_site_fract_y
_atom_site_fract_z
_atom_type_partial_charge
Zn0 Zn 0.36071 0.12546 0.11412 0.0
O1 O 0.36978 0.12997 0.01217 0.0
C2 C 0.33245 0.1112 0.05031 0.0
Zn3 Zn 0.36392 0.09948 0.10424 0.0
C4 C 0.37433 0.11813 0.97619 0.0
O5 O 0.37318 0.10444 0.00283 0.0
C6 C 0.35036 0.10654 0.24224 0.0
O7 O 0.38695 0.10089 0.14858 0.0
O8 O 0.38373 0.12639 0.1567 0.0
N9 N 0.36632 0.07586 0.08492 0.0
C10 C 0.37323 0.06425 0.12286 0.0
C11 C 0.36333 0.05389 0.02888 0.0
N12 N 0.36017 0.06939 0.02664 0.0
N13 N 0.37147 0.05033 0.08881 0.0
C14 C 0.35724 0.16242 0.10172 0.0
C15 C 0.35737 0.16829 0.21317 0.0
N16 N 0.35819 0.14883 0.13897 0.0
N17 N 0.35821 0.15258 0.20803 0.0
N18 N 0.35672 0.1748 0.14734 0.0
H19 H 0.37052 0.16064 0.00497 0.0
H20 H 0.35539 0.17525 0.00095 0.0
H21 H 0.35039 0.15459 -0.00314 0.0
C22 C 0.35832 0.16341 0.02152 0.0
C23 C 0.38316 0.06694 0.18838 0.0
H24 H 0.39478 0.07139 0.17092 0.0
H25 H 0.38522 0.05608 0.21953 0.0
H26 H 0.37773 0.0759 0.22363 0.0
O27 O 0.35471 0.09477 0.20569 0.0
O28 O 0.35161 0.12022 0.21587 0.0
C29 C 0.39232 0.11433 0.16536 0.0
O30 O 0.33792 0.12441 0.07013 0.0
O31 O 0.34073 0.09887 0.05897 0.0
Zn32 Zn 0.12526 0.65557 0.85686 0.0
O33 O 0.13019 0.64602 0.95824 0.0
C34 C 0.11142 0.68382 0.92316 0.0
Zn35 Zn 0.09939 0.65248 0.86974 0.0
C36 C 0.11846 0.6419 -0.00402 0.0
O37 O 0.10464 0.6434 0.97104 0.0
C38 C 0.1061 0.6662 0.73065 0.0
O39 O 0.1005 0.62934 0.82681 0.0
O40 O 0.1258 0.63276 0.81111 0.0
N41 N 0.07588 0.65017 0.89101 0.0
C42 C 0.064 0.64317 0.85513 0.0
C43 C 0.05415 0.654 0.94799 0.0
N44 N 0.06971 0.65683 0.94876 0.0
N45 N 0.05025 0.64537 0.89001 0.0
C46 C 0.16177 0.66058 0.86961 0.0
C47 C 0.16821 0.65961 0.75896 0.0
N48 N 0.14851 0.65809 0.83157 0.0
N49 N 0.15259 0.65748 0.76294 0.0
N50 N 0.17428 0.66156 0.82513 0.0
H51 H 0.16322 0.65128 0.97586 0.0
H52 H 0.17252 0.67014 0.96511 0.0
H53 H 0.15131 0.66865 0.96813 0.0
C54 C 0.16225 0.66291 0.94932 0.0
C55 C 0.06578 0.63495 0.7843 0.0
H56 H 0.0763 0.63905 0.75513 0.0
H57 H 0.06707 0.62216 0.79398 0.0
H58 H 0.05525 0.63687 0.75022 0.0
O59 O 0.09448 0.66161 0.76765 0.0
O60 O 0.11984 0.66514 0.75645 0.0
C61 C 0.1137 0.62411 0.80554 0.0
O62 O 0.12452 0.67817 0.9029 0.0
O63 O 0.09897 0.67575 0.91433 0.0
Zn64 Zn 0.65266 0.91616 0.10376 0.0
O65 O 0.62953 0.91526 0.14734 0.0
C66 C 0.66658 0.909 0.2422 0.0
Zn67 Zn 0.65582 0.89023 0.11526 0.0
C68 C 0.6244 0.90196 0.16776 0.0
O69 O 0.63309 0.88992 0.16094 0.0
C70 C 0.68398 0.90388 0.0493 0.0
O71 O 0.64616 0.88575 0.01381 0.0
O72 O 0.64341 0.91131 0.00242 0.0
N73 N 0.65786 0.86684 0.14014 0.0
C74 C 0.65931 0.85337 0.10248 0.0
C75 C 0.65758 0.84719 0.21331 0.0
N76 N 0.65686 0.86292 0.20883 0.0
N77 N 0.65914 0.84086 0.14745 0.0
C78 C 0.64392 0.95167 0.12053 0.0
C79 C 0.65483 0.9616 0.02806 0.0
N80 N 0.65064 0.93978 0.08371 0.0
N81 N 0.65735 0.94599 0.02619 0.0
N82 N 0.64634 0.96549 0.0865 0.0
H83 H 0.62293 0.94901 0.18213 0.0
H84 H 0.63804 0.96018 0.22633 0.0
H85 H 0.6396 0.93909 0.21968 0.0
C86 C 0.63577 0.94986 0.19148 0.0
C87 C 0.65932 0.85262 0.02207 0.0
H88 H 0.64718 0.85462 0.00244 0.0
H89 H 0.66329 0.84108 0.00169 0.0
H90 H 0.66691 0.86204 5e-05 0.0
O91 O 0.67837 0.89073 0.06906 0.0
O92 O 0.67591 0.91633 0.05871 0.0
C93 C 0.64193 0.89756 0.97679 0.0
O94 O 0.66197 0.9207 0.20572 0.0
O95 O 0.66551 0.89531 0.21586 0.0
Zn96 Zn 0.91573 0.36402 0.87668 0.0
O97 O 0.91521 0.3871 0.83333 0.0
C98 C 0.90861 0.3503 0.73771 0.0
Zn99 Zn 0.88977 0.36138 0.86387 0.0
C100 C 0.90213 0.39255 0.81188 0.0
O101 O 0.88988 0.38416 0.81791 0.0
C102 C 0.90304 0.33292 0.93031 0.0
O103 O 0.88501 0.37114 0.96493 0.0
O104 O 0.91058 0.37328 0.97784 0.0
N105 N 0.86647 0.3599 0.83759 0.0
C106 C 0.85305 0.35545 0.87044 0.0
C107 C 0.84692 0.36389 0.76626 0.0
N108 N 0.86257 0.36503 0.77286 0.0
N109 N 0.84055 0.35792 0.8266 0.0
C110 C 0.95161 0.37017 0.85619 0.0
C111 C 0.96023 0.36847 0.9635 0.0
N112 N 0.9393 0.36641 0.89844 0.0
N113 N 0.9447 0.36536 0.96508 0.0
N114 N 0.96485 0.37145 0.89569 0.0
H115 H 0.95962 0.38216 0.76076 0.0
H116 H 0.95265 0.36246 0.74728 0.0
H117 H 0.93883 0.3781 0.76252 0.0
C118 C 0.95056 0.37352 0.77724 0.0
C119 C 0.85227 0.34931 0.94577 0.0
H120 H 0.86321 0.35186 0.97561 0.0
H121 H 0.84206 0.35445 0.97444 0.0
H122 H 0.85082 0.33638 0.94417 0.0
O123 O 0.89 0.33878 0.9101 0.0
O124 O 0.91564 0.34079 0.92162 0.0
C125 C 0.89681 0.37505 0.00273 0.0
O126 O 0.92037 0.35469 0.77447 0.0
O127 O 0.89491 0.35164 0.76371 0.0
Zn128 Zn 0.36015 0.39087 0.11378 0.0
O129 O 0.36956 0.38594 0.21533 0.0
C130 C 0.3318 0.40467 0.17971 0.0
Zn131 Zn 0.36317 0.41674 0.12701 0.0
C132 C 0.37366 0.39765 0.2533 0.0
O133 O 0.37222 0.41148 0.22843 0.0
C134 C 0.34959 0.41004 -0.01246 0.0
O135 O 0.38634 0.41562 0.08405 0.0
O136 O 0.383 0.39031 0.06887 0.0
N137 N 0.36557 0.44029 0.14784 0.0
C138 C 0.37259 0.45205 0.11128 0.0
C139 C 0.36187 0.46218 0.20378 0.0
N140 N 0.35897 0.44663 0.20538 0.0
N141 N 0.37049 0.46589 0.14552 0.0
C142 C 0.35504 0.35435 0.12589 0.0
C143 C 0.35644 0.34797 0.01526 0.0
N144 N 0.35769 0.36762 0.08825 0.0
N145 N 0.35856 0.36359 0.01964 0.0
N146 N 0.35423 0.34186 0.08116 0.0
H147 H 0.34682 0.36484 0.22412 0.0
H148 H 0.36394 0.3526 0.23277 0.0
H149 H 0.34496 0.34366 0.22034 0.0
C150 C 0.35243 0.35382 0.2054 0.0
C151 C 0.38071 0.45011 0.04032 0.0
H152 H 0.39353 0.449 0.04969 0.0
H153 H 0.37865 0.46051 0.00561 0.0
H154 H 0.37669 0.43947 0.01187 0.0
O155 O 0.35403 0.42166 0.02492 0.0
O156 O 0.35073 0.39628 0.01309 0.0
C157 C 0.39163 0.40242 0.06316 0.0
O158 O 0.33749 0.39162 0.15908 0.0
O159 O 0.33986 0.41715 0.17156 0.0
Zn160 Zn 0.41647 0.65204 0.85113 0.0
O161 O 0.41563 0.62886 0.8945 0.0
C162 C 0.40943 0.66588 -0.01033 0.0
Zn163 Zn 0.39056 0.65517 0.86283 0.0
C164 C 0.40234 0.6237 0.91485 0.0
O165 O 0.3903 0.63241 0.9082 0.0
C166 C 0.40411 0.68339 0.79709 0.0
O167 O 0.38598 0.64558 0.76139 0.0
O168 O 0.41154 0.64285 0.74978 0.0
N169 N 0.36721 0.65719 0.88812 0.0
C170 C 0.35371 0.65866 0.85066 0.0
C171 C 0.34763 0.6569 0.96158 0.0
N172 N 0.36335 0.65616 0.95688 0.0
N173 N 0.34124 0.65849 0.89581 0.0
C174 C 0.45196 0.64315 0.86684 0.0
C175 C 0.46183 0.6542 0.77455 0.0
N176 N 0.44006 0.65005 0.83065 0.0
N177 N 0.44624 0.65686 0.77328 0.0
N178 N 0.46574 0.64555 0.8325 0.0
H179 H 0.4396 0.6389 0.96655 0.0
H180 H 0.44897 0.62208 0.92756 0.0
H181 H 0.46066 0.63679 0.97179 0.0
C182 C 0.45018 0.63487 0.93749 0.0
C183 C 0.35289 0.65868 0.77026 0.0
H184 H 0.35494 0.64656 0.75057 0.0
H185 H 0.34132 0.6626 0.74999 0.0
H186 H 0.36226 0.66633 0.74813 0.0
O187 O 0.39099 0.67774 0.81694 0.0
O188 O 0.41658 0.67534 0.80627 0.0
C189 C 0.39778 0.64138 0.72425 0.0
O190 O 0.42112 0.66128 0.95312 0.0
O191 O 0.39573 0.66479 0.96343 0.0
Zn192 Zn 0.65529 0.62492 0.11224 0.0
O193 O 0.64597 0.63027 0.21343 0.0
C194 C 0.68319 0.61023 0.17925 0.0
Zn195 Zn 0.65172 0.59907 0.12531 0.0
C196 C 0.64153 0.61867 0.25121 0.0
O197 O 0.64263 0.60483 0.22625 0.0
C198 C 0.66558 0.60536 0.98631 0.0
O199 O 0.62875 0.60086 0.08101 0.0
O200 O 0.63252 0.62615 0.06671 0.0
N201 N 0.64809 0.57568 0.14762 0.0
C202 C 0.64421 0.5634 0.10537 0.0
C203 C 0.64528 0.55489 0.213 0.0
N204 N 0.64872 0.57035 0.21448 0.0
N205 N 0.64247 0.55026 0.14506 0.0
C206 C 0.66112 0.66136 0.12427 0.0
C207 C 0.66067 0.66767 0.01338 0.0
N208 N 0.65856 0.64809 0.08643 0.0
N209 N 0.65831 0.65209 0.01764 0.0
N210 N 0.66245 0.6738 0.07952 0.0
H211 H 0.65145 0.66289 0.22979 0.0
H212 H 0.67035 0.67217 0.22028 0.0
H213 H 0.66884 0.65096 0.2235 0.0
C214 C 0.66316 0.6619 0.20413 0.0
C215 C 0.64124 0.56443 0.02613 0.0
H216 H 0.63269 0.55536 0.00881 0.0
H217 H 0.65244 0.56235 -0.00271 0.0
H218 H 0.63671 0.57617 0.01115 0.0
O219 O 0.6609 0.59379 0.02347 0.0
O220 O 0.66465 0.61913 0.01192 0.0
C221 C 0.62371 0.61418 0.06031 0.0
O222 O 0.67783 0.62341 0.15823 0.0
O223 O 0.67487 0.59791 0.17107 0.0
Zn224 Zn 0.62485 0.36 0.86736 0.0
O225 O 0.62958 0.36904 0.76546 0.0
C226 C 0.61037 0.33185 0.80313 0.0
Zn227 Zn 0.59891 0.36334 0.8571 0.0
C228 C 0.61779 0.37367 0.72931 0.0
O229 O 0.60408 0.37265 0.75585 0.0
C230 C 0.60587 0.34966 -0.00485 0.0
O231 O 0.60043 0.38633 0.90183 0.0
O232 O 0.62594 0.38302 0.90999 0.0
N233 N 0.57536 0.36605 0.83686 0.0
C234 C 0.5636 0.37302 0.87363 0.0
C235 C 0.55352 0.36264 0.78021 0.0
N236 N 0.56905 0.35967 0.77878 0.0
N237 N 0.54976 0.37108 0.83899 0.0
C238 C 0.66123 0.35412 0.85285 0.0
C239 C 0.66802 0.35516 0.96308 0.0
N240 N 0.64815 0.35708 0.89148 0.0
N241 N 0.65245 0.35772 0.95984 0.0
N242 N 0.67384 0.35288 0.89669 0.0
H243 H 0.65029 0.3461 0.75529 0.0
H244 H 0.6626 0.36315 0.7461 0.0
H245 H 0.67147 0.34408 0.75725 0.0
C246 C 0.66142 0.3516 0.77324 0.0
C247 C 0.56554 0.38096 0.94502 0.0
H248 H 0.57616 0.37677 0.97331 0.0
H249 H 0.56675 0.39379 0.93632 0.0
H250 H 0.5551 0.37889 0.97943 0.0
O251 O 0.59411 0.35399 0.95837 0.0
O252 O 0.61956 0.35095 0.96904 0.0
C253 C 0.61389 0.39165 0.91864 0.0
O254 O 0.62356 0.33723 0.82351 0.0
O255 O 0.59808 0.3402 0.81135 0.0
Zn256 Zn 0.86062 0.62526 0.61391 0.0
O257 O 0.87013 0.62986 0.5124 0.0
C258 C 0.8324 0.61121 0.54878 0.0
Zn259 Zn 0.86387 0.59936 0.60206 0.0
C260 C 0.87432 0.61808 0.47511 0.0
O261 O 0.87285 0.6043 0.50045 0.0
C262 C 0.85017 0.60631 0.74086 0.0
O263 O 0.88702 0.60067 0.64463 0.0
O264 O 0.88342 0.62595 0.65939 0.0
N265 N 0.86618 0.57574 0.58276 0.0
C266 C 0.87312 0.56414 0.62076 0.0
C267 C 0.86322 0.55374 0.52687 0.0
N268 N 0.86003 0.56923 0.52454 0.0
N269 N 0.87137 0.55022 0.5868 0.0
C270 C 0.85701 0.66216 0.60158 0.0
C271 C 0.85779 0.66813 0.71286 0.0
N272 N 0.85819 0.64861 0.63895 0.0
N273 N 0.85861 0.65241 0.70792 0.0
N274 N 0.85675 0.67458 0.64702 0.0
H275 H 0.86985 0.66074 0.50347 0.0
H276 H 0.85415 0.67476 0.50071 0.0
H277 H 0.84993 0.65392 0.49767 0.0
C278 C 0.85763 0.66307 0.52125 0.0
C279 C 0.88305 0.56687 0.68626 0.0
H280 H 0.89476 0.57108 0.66874 0.0
H281 H 0.88493 0.55606 0.71803 0.0
H282 H 0.87777 0.57599 0.72101 0.0
O283 O 0.85489 0.59467 0.70435 0.0
O284 O 0.85108 0.62001 0.71455 0.0
C285 C 0.89217 0.61392 0.66535 0.0
O286 O 0.83799 0.62441 0.56799 0.0
O287 O 0.84056 0.59881 0.55807 0.0
Zn288 Zn 0.6255 0.15608 0.35913 0.0
O289 O 0.63101 0.14689 0.46046 0.0
C290 C 0.61036 0.18373 0.42587 0.0
Zn291 Zn 0.59972 0.15207 0.37225 0.0
C292 C 0.61949 0.14226 0.49827 0.0
O293 O 0.60563 0.14312 0.4733 0.0
C294 C 0.60575 0.16599 0.2331 0.0
O295 O 0.6019 0.12908 0.32838 0.0
O296 O 0.62712 0.13329 0.31403 0.0
N297 N 0.57641 0.14811 0.39467 0.0
C298 C 0.56415 0.14413 0.35245 0.0
C299 C 0.55564 0.14521 0.46004 0.0
N300 N 0.57107 0.14874 0.46151 0.0
N301 N 0.55101 0.14234 0.39213 0.0
C302 C 0.6618 0.16261 0.37146 0.0
C303 C 0.66817 0.16245 0.26066 0.0
N304 N 0.6486 0.1598 0.3334 0.0
N305 N 0.65264 0.15972 0.26466 0.0
N306 N 0.67422 0.16429 0.32692 0.0
H307 H 0.65124 0.17009 0.47067 0.0
H308 H 0.6634 0.15285 0.47682 0.0
H309 H 0.67243 0.17189 0.46786 0.0
C310 C 0.66227 0.16458 0.45137 0.0
C311 C 0.56519 0.14114 0.27326 0.0
H312 H 0.55617 0.13253 0.256 0.0
H313 H 0.56305 0.15232 0.24426 0.0
H314 H 0.57696 0.13667 0.25841 0.0
O315 O 0.59428 0.16111 0.27029 0.0
O316 O 0.61954 0.16529 0.25869 0.0
C317 C 0.61531 0.12426 0.30795 0.0
O318 O 0.62361 0.17859 0.40483 0.0
O319 O 0.59817 0.17522 0.41773 0.0
Zn320 Zn 0.15122 0.41616 0.60277 0.0
O321 O 0.12806 0.41556 0.64656 0.0
C322 C 0.16468 0.4083 0.74078 0.0
Zn323 Zn 0.15386 0.39012 0.61211 0.0
C324 C 0.12244 0.40222 0.66303 0.0
O325 O 0.13082 0.39003 0.65433 0.0
C326 C 0.18248 0.40348 0.54901 0.0
O327 O 0.14453 0.3861 0.51026 0.0
O328 O 0.14189 0.41173 0.50086 0.0
N329 N 0.15506 0.36668 0.63582 0.0
C330 C 0.1596 0.35339 0.6021 0.0
C331 C 0.15068 0.34683 0.70482 0.0
N332 N 0.14962 0.36251 0.69964 0.0
N333 N 0.15689 0.3407 0.64447 0.0
C334 C 0.14304 0.45168 0.62308 0.0
C335 C 0.15318 0.46196 0.52948 0.0
N336 N 0.14967 0.43995 0.58475 0.0
N337 N 0.15597 0.44639 0.52674 0.0
N338 N 0.14513 0.46561 0.5895 0.0
H339 H 0.12124 0.44526 0.6709 0.0
H340 H 0.13152 0.4599 0.7207 0.0
H341 H 0.13814 0.43978 0.72288 0.0
C342 C 0.13307 0.44911 0.68851 0.0
C343 C 0.16606 0.35291 0.5273 0.0
H344 H 0.16351 0.36393 0.498 0.0
H345 H 0.16115 0.34275 0.49745 0.0
H346 H 0.179 0.35157 0.53 0.0
O347 O 0.1767 0.39037 0.56836 0.0
O348 O 0.17449 0.416 0.55796 0.0
C349 C 0.14037 0.39807 0.47416 0.0
O350 O 0.16055 0.42022 0.70459 0.0
O351 O 0.16313 0.39468 0.71401 0.0
Zn352 Zn 0.39052 0.86068 0.35913 0.0
O353 O 0.38599 0.87029 0.46065 0.0
C354 C 0.40435 0.83233 0.42506 0.0
Zn355 Zn 0.41645 0.86361 0.37193 0.0
C356 C 0.39776 0.87425 0.49851 0.0
O357 O 0.41156 0.87262 0.47357 0.0
C358 C 0.4094 0.84999 0.23265 0.0
O359 O 0.41527 0.88675 0.3294 0.0
O360 O 0.38998 0.88344 0.31326 0.0
N361 N 0.44011 0.86588 0.39094 0.0
C362 C 0.45167 0.87264 0.35211 0.0
C363 C 0.46219 0.8631 0.44657 0.0
N364 N 0.44668 0.85998 0.44956 0.0
N365 N 0.46563 0.871 0.3859 0.0
C366 C 0.35366 0.85706 0.37182 0.0
C367 C 0.34753 0.8583 0.26079 0.0
N368 N 0.36715 0.85842 0.33422 0.0
N369 N 0.36325 0.85912 0.26539 0.0
N370 N 0.34118 0.85698 0.3267 0.0
H371 H 0.35493 0.8696 0.47073 0.0
H372 H 0.3413 0.8536 0.47284 0.0
H373 H 0.36224 0.84982 0.47502 0.0
C374 C 0.35287 0.85739 0.4522 0.0
C375 C 0.44893 0.88229 0.28573 0.0
H376 H 0.44485 0.89413 0.30218 0.0
H377 H 0.45973 0.88388 0.2536 0.0
H378 H 0.43972 0.87696 0.25166 0.0
O379 O 0.42105 0.85455 0.26957 0.0
O380 O 0.39568 0.85105 0.25861 0.0
C381 C 0.40212 0.89204 0.30792 0.0
O382 O 0.39124 0.83808 0.40535 0.0
O383 O 0.41685 0.84033 0.41605 0.0
Zn384 Zn 0.86404 0.91645 0.62273 0.0
O385 O 0.88713 0.91522 0.57937 0.0
C386 C 0.85031 0.90974 0.48374 0.0
Zn387 Zn 0.86088 0.89058 0.61012 0.0
C388 C 0.89235 0.90198 0.55866 0.0
O389 O 0.88369 0.8899 0.56487 0.0
C390 C 0.83266 0.90459 0.67598 0.0
O391 O 0.87033 0.88566 0.71162 0.0
O392 O 0.87317 0.9112 0.72399 0.0
N393 N 0.85827 0.86734 0.58493 0.0
C394 C 0.85563 0.8541 0.62287 0.0
C395 C 0.85679 0.84764 0.51228 0.0
N396 N 0.85899 0.86325 0.51634 0.0
N397 N 0.85467 0.84159 0.57836 0.0
C398 C 0.87365 0.95172 0.60713 0.0
C399 C 0.86309 0.96182 0.70009 0.0
N400 N 0.86658 0.93997 0.64359 0.0
N401 N 0.86009 0.94629 0.70142 0.0
N402 N 0.87168 0.96554 0.64173 0.0
H403 H 0.8945 0.9486 0.54502 0.0
H404 H 0.87964 0.96023 0.50147 0.0
H405 H 0.87756 0.93918 0.50746 0.0
C406 C 0.88168 0.94979 0.53596 0.0
C407 C 0.85315 0.85365 0.70249 0.0
H408 H 0.86472 0.85253 0.72949 0.0
H409 H 0.84576 0.84347 0.71794 0.0
H410 H 0.84751 0.86466 0.72111 0.0
O411 O 0.83827 0.89148 0.65562 0.0
O412 O 0.84079 0.91701 0.66757 0.0
C413 C 0.87456 0.89739 0.74915 0.0
O414 O 0.85485 0.92137 0.52078 0.0
O415 O 0.85141 0.896 0.50951 0.0
Zn416 Zn 0.89036 0.15468 0.36196 0.0
O417 O 0.88641 0.14478 0.2606 0.0
C418 C 0.90307 0.18322 0.29667 0.0
Zn419 Zn 0.91635 0.1522 0.35146 0.0
C420 C 0.89839 0.14091 0.22392 0.0
O421 O 0.91206 0.14281 0.2499 0.0
C422 C 0.90835 0.166 0.48952 0.0
O423 O 0.9163 0.129 0.3949 0.0
O424 O 0.8909 0.13195 0.40756 0.0
N425 N 0.94009 0.15103 0.33281 0.0
C426 C 0.95202 0.14442 0.36994 0.0
C427 C 0.96196 0.15566 0.27831 0.0
N428 N 0.94632 0.15796 0.27585 0.0
N429 N 0.96587 0.14711 0.33659 0.0
C430 C 0.85359 0.15988 0.35186 0.0
C431 C 0.84708 0.15083 0.45441 0.0
N432 N 0.86691 0.15545 0.3857 0.0
N433 N 0.86278 0.14993 0.44941 0.0
N434 N 0.84092 0.15703 0.39405 0.0
H435 H 0.86407 0.16374 0.24766 0.0
H436 H 0.84288 0.16151 0.24731 0.0
H437 H 0.85182 0.17931 0.27978 0.0
C438 C 0.85309 0.16636 0.27706 0.0
C439 C 0.95019 0.13614 0.44059 0.0
H440 H 0.94921 0.12333 0.43075 0.0
H441 H 0.96055 0.13825 0.47547 0.0
H442 H 0.93948 0.14003 0.46904 0.0
O443 O 0.92025 0.16167 0.45366 0.0
O444 O 0.89474 0.16454 0.46263 0.0
C445 C 0.90312 0.12354 0.41488 0.0
O446 O 0.89005 0.17725 0.31589 0.0
O447 O 0.91572 0.17548 0.30646 0.0
Zn448 Zn 0.15643 0.12517 0.60611 0.0
O449 O 0.14712 0.13022 0.70766 0.0
C450 C 0.18433 0.11042 0.67204 0.0
Zn451 Zn 0.15264 0.09935 0.61909 0.0
C452 C 0.14275 0.1186 0.74559 0.0
O453 O 0.14386 0.10474 0.72071 0.0
C454 C 0.16634 0.10576 0.47968 0.0
O455 O 0.12946 0.10138 0.57646 0.0
O456 O 0.13367 0.12657 0.56112 0.0
N457 N 0.14967 0.07578 0.63901 0.0
C458 C 0.14251 0.06429 0.60123 0.0
C459 C 0.15235 0.05374 0.69493 0.0
N460 N 0.15576 0.06918 0.69714 0.0
N461 N 0.14408 0.05033 0.63519 0.0
C462 C 0.16252 0.16153 0.61974 0.0
C463 C 0.16218 0.16809 0.50914 0.0
N464 N 0.15977 0.14838 0.58132 0.0
N465 N 0.15958 0.15253 0.51271 0.0
N466 N 0.16405 0.17405 0.57555 0.0
H467 H 0.17001 0.15082 0.71867 0.0
H468 H 0.15284 0.16307 0.7252 0.0
H469 H 0.17192 0.172 0.71622 0.0
C470 C 0.16455 0.16189 0.69963 0.0
C471 C 0.13258 0.06719 0.53587 0.0
H472 H 0.12119 0.07221 0.55335 0.0
H473 H 0.12999 0.05633 0.50564 0.0
H474 H 0.1383 0.0758 0.4998 0.0
O475 O 0.16145 0.09428 0.51681 0.0
O476 O 0.16572 0.11953 0.50545 0.0
C477 C 0.12461 0.11477 0.5557 0.0
O478 O 0.17898 0.12363 0.65171 0.0
O479 O 0.17597 0.09814 0.66338 0.0
Zn480 Zn 0.09935 0.86342 0.35331 0.0
O481 O 0.10041 0.88659 0.39571 0.0
C482 C 0.10596 0.84988 0.49298 0.0
Zn483 Zn 0.12522 0.86036 0.36702 0.0
C484 C 0.11356 0.89187 0.41726 0.0
O485 O 0.1257 0.88323 0.41224 0.0
C486 C 0.11142 0.83202 0.30112 0.0
O487 O 0.13021 0.86979 0.26554 0.0
O488 O 0.10467 0.87235 0.25185 0.0
N489 N 0.14846 0.85785 0.39276 0.0
C490 C 0.16173 0.85527 0.35495 0.0
C491 C 0.16815 0.85647 0.4656 0.0
N492 N 0.15253 0.85859 0.46139 0.0
N493 N 0.17424 0.85438 0.39957 0.0
C494 C 0.06397 0.87283 0.36719 0.0
C495 C 0.05413 0.86191 0.27451 0.0
N496 N 0.07584 0.86575 0.33162 0.0
N497 N 0.06968 0.85902 0.27399 0.0
N498 N 0.05022 0.87063 0.33221 0.0
H499 H 0.07623 0.87701 0.46733 0.0
H500 H 0.06706 0.89389 0.42787 0.0
H501 H 0.05518 0.87929 0.47179 0.0
C502 C 0.06573 0.88112 0.43785 0.0
C503 C 0.16223 0.85278 0.27535 0.0
H504 H 0.16333 0.86434 0.24835 0.0
H505 H 0.17244 0.8454 0.26006 0.0
H506 H 0.15125 0.84711 0.25656 0.0
O507 O 0.1245 0.83768 0.32151 0.0
O508 O 0.09896 0.84011 0.30938 0.0
C509 C 0.11851 0.87383 0.22728 0.0
O510 O 0.09437 0.8544 0.4555 0.0
O511 O 0.11973 0.85092 0.46755 0.0
C512 C 0.3869 0.91291 0.24364 0.0
C513 C 0.40072 0.90817 0.2789 0.0
C514 C 0.38519 0.92831 0.21902 0.0
C515 C 0.3986 0.96834 0.25383 0.0
H516 H 0.38014 0.97734 0.06764 0.0
C517 C 0.37281 0.02893 0.17811 0.0
C518 C 0.37645 0.03486 0.10975 0.0
C519 C 0.37709 0.01364 0.19717 0.0
C520 C 0.38543 0.97502 0.11954 0.0
H521 H 0.42366 0.91588 0.31528 0.0
H522 H 0.42058 0.94289 0.2727 0.0
H523 H 0.38551 0.95015 0.10195 0.0
H524 H 0.38675 0.02936 0.00664 0.0
H525 H 0.39416 1.00245 0.03947 0.0
H526 H 0.3983 0.9932 0.27181 0.0
C527 C 0.41109 0.93463 0.26421 0.0
C528 C 0.38838 0.95946 0.13938 0.0
C529 C 0.41288 0.91914 0.28817 0.0
C530 C 0.38405 0.02507 0.06001 0.0
C531 C 0.38821 0.00971 0.07875 0.0
C532 C 0.39549 0.9839 0.23428 0.0
C533 C 0.39718 0.93938 0.2297 0.0
C534 C 0.3949 0.95595 0.20694 0.0
C535 C 0.3848 1.00384 0.14761 0.0
C536 C 0.38877 0.98739 0.16712 0.0
H537 H 0.37732 0.90474 0.23551 0.0
H538 H 0.37427 0.93166 0.19325 0.0
H539 H 0.40351 0.96599 0.30646 0.0
H540 H 0.36633 0.03603 0.21619 0.0
H541 H 0.37397 0.00932 0.25004 0.0
C542 C 0.91318 0.62993 0.72423 0.0
C543 C 0.90828 0.61556 0.69453 0.0
C544 C 0.9285 0.63181 0.74953 0.0
C545 C 0.96852 0.61619 0.72935 0.0
H546 H 0.97631 0.63976 0.90403 0.0
C547 C 0.03123 0.62578 0.84386 0.0
C548 C 0.03455 0.64091 0.86977 0.0
C549 C 0.01585 0.62159 0.82527 0.0
C550 C 0.97435 0.63327 0.85479 0.0
H551 H 0.91569 0.59186 0.66861 0.0
H552 H 0.94251 0.59515 0.71312 0.0
H553 H 0.94939 0.6343 0.86732 0.0
H554 H 0.02445 0.66339 0.89793 0.0
H555 H 0.99766 0.65623 0.86495 0.0
H556 H 0.9935 0.61539 0.71622 0.0
C557 C 0.93446 0.60497 0.71639 0.0
C558 C 0.95892 0.63012 0.83383 0.0
C559 C 0.91906 0.60306 0.69136 0.0
C560 C 0.02218 0.65166 0.87797 0.0
C561 C 1.00684 0.64751 0.85941 0.0
C562 C 0.98399 0.61938 0.75026 0.0
C563 C 0.93936 0.6194 0.74558 0.0
C564 C 0.9558 0.62173 0.77036 0.0
C565 C 1.00347 0.63242 0.83282 0.0
C566 C 0.98709 0.62815 0.81273 0.0
H567 H 0.9052 0.63982 0.72747 0.0
H568 H 0.93195 0.64314 0.77079 0.0
H569 H 0.96652 0.60984 0.67978 0.0
H570 H 0.04046 0.61711 0.83924 0.0
H571 H 0.01362 0.60979 0.80615 0.0
C572 C 0.65358 0.99323 0.10233 0.0
C573 C 0.64239 0.98122 0.10847 0.0
C574 C 0.64998 0.00855 0.12351 0.0
C575 C 0.61704 0.03573 0.15647 0.0
H576 H 0.64824 0.05886 0.26514 0.0
C577 C 0.60504 0.09716 0.28185 0.0
C578 C 0.61742 0.10807 0.28015 0.0
C579 C 0.60746 0.08161 0.25979 0.0
C580 C 0.63946 0.05266 0.23405 0.0
H581 H 0.61837 0.97595 0.13785 0.0
H582 H 0.61207 1.00275 0.17616 0.0
H583 H 0.65358 0.0319 0.22949 0.0
H584 H 0.6419 0.11133 0.25147 0.0
H585 H 0.64602 0.08444 0.21198 0.0
H586 H 0.60297 0.0566 0.16067 0.0
C587 C 0.62369 1.00028 0.15543 0.0
C588 C 0.64252 0.03718 0.21373 0.0
C589 C 0.62735 0.9849 0.13449 0.0
C590 C 0.63213 0.10321 0.25412 0.0
C591 C 0.63453 0.08773 0.2319 0.0
C592 C 0.61399 0.05129 0.17665 0.0
C593 C 0.63503 0.01225 0.15071 0.0
C594 C 0.63141 0.02856 0.17421 0.0
C595 C 0.62231 0.07667 0.23542 0.0
C596 C 0.62523 0.05999 0.21518 0.0
H597 H 0.66521 0.9907 0.08182 0.0
H598 H 0.65889 0.01753 0.11798 0.0
H599 H 0.60829 0.02945 0.1255 0.0
H600 H 0.59356 0.10052 0.30166 0.0
H601 H 0.59781 0.07338 0.26368 0.0
C602 C 0.9885 0.3879 0.90603 0.0
C603 C 0.98042 0.37554 0.87279 0.0
C604 C 1.00359 0.39206 0.88307 0.0
C605 C 0.03161 0.38608 0.73044 0.0
H606 H 0.06233 0.40115 0.86805 0.0
C607 C 0.09825 0.38615 0.67913 0.0
C608 C 0.10608 0.40053 0.68856 0.0
C609 C 0.08269 0.38436 0.70108 0.0
C610 C 0.0538 0.3971 0.82904 0.0
H611 H 0.98177 0.35739 0.79204 0.0
H612 H 0.00833 0.36408 0.75354 0.0
H613 H 0.03571 0.39511 0.90813 0.0
H614 H 0.10385 0.42423 0.72975 0.0
H615 H 0.07658 0.42089 0.77051 0.0
H616 H 0.05006 0.38735 0.65234 0.0
C617 C 1.00291 0.3711 0.7952 0.0
C618 C 0.0385 0.39369 0.85177 0.0
C619 C 0.98774 0.36715 0.81737 0.0
C620 C 0.09807 0.41304 0.72151 0.0
C621 C 0.08254 0.41113 0.74501 0.0
C622 C 0.04695 0.3892 0.70816 0.0
C623 C 0.01104 0.38371 0.82727 0.0
C624 C 0.0272 0.38798 0.80288 0.0
C625 C 0.0747 0.3968 0.73428 0.0
C626 C 0.05821 0.39463 0.75732 0.0
H627 H 0.98299 0.39451 0.94884 0.0
H628 H 0.00928 0.40197 0.9085 0.0
H629 H 0.02322 0.38214 0.69062 0.0
H630 H 0.10407 0.37629 0.65367 0.0
H631 H 0.07693 0.37317 0.69272 0.0
C632 C 0.36385 0.49377 0.12899 0.0
C633 C 0.37481 0.48152 0.12354 0.0
C634 C 0.36774 0.50894 0.1068 0.0
C635 C 0.40107 0.53544 0.07072 0.0
H636 H 0.37004 0.55845 0.96021 0.0
C637 C 0.41299 0.5967 0.94134 0.0
C638 C 0.40055 0.60756 0.9435 0.0
C639 C 0.41071 0.58116 0.96408 0.0
C640 C 0.37878 0.55228 -0.00828 0.0
H641 H 0.39873 0.47568 0.09472 0.0
H642 H 0.40555 0.50223 0.05466 0.0
H643 H 0.36448 0.5317 -0.00182 0.0
H644 H 0.37616 0.61077 0.97406 0.0
H645 H 0.37231 0.58395 0.01453 0.0
H646 H 0.41532 0.55616 0.06458 0.0
C647 C 0.39388 0.50006 0.07557 0.0
C648 C 0.37559 0.53692 0.01342 0.0
C649 C 0.38994 0.48483 0.09754 0.0
C650 C 0.38596 0.60268 0.97087 0.0
C651 C 0.38371 0.58725 -0.00631 0.0
C652 C 0.40426 0.55089 0.04912 0.0
C653 C 0.38276 0.51226 0.07924 0.0
C654 C 0.3866 0.52837 0.05387 0.0
C655 C 0.39595 0.5762 -0.01052 0.0
C656 C 0.39305 0.55955 0.0101 0.0
H657 H 0.35217 0.49153 0.14948 0.0
H658 H 0.35899 0.51812 0.11159 0.0
H659 H 0.40975 0.5292 0.10224 0.0
H660 H 0.42437 0.60008 0.92056 0.0
H661 H 0.42037 0.57293 0.95985 0.0
C662 C 0.60266 0.63048 0.0031 0.0
C663 C 0.60764 0.61593 0.03073 0.0
C664 C 0.58736 0.63242 0.97746 0.0
C665 C 0.54748 0.6164 -0.00615 0.0
H666 H 0.53978 0.64087 0.82161 0.0
C667 C 0.48488 0.62601 0.87819 0.0
C668 C 0.48145 0.64119 0.85312 0.0
C669 C 0.50027 0.6219 0.89704 0.0
C670 C 0.5417 0.63413 0.8702 0.0
H671 H 0.60046 0.59195 0.05229 0.0
H672 H 0.57367 0.59539 0.00749 0.0
H673 H 0.56668 0.63546 0.85886 0.0
H674 H 0.49134 0.66385 0.82685 0.0
H675 H 0.51815 0.65684 0.8605 0.0
H676 H 0.52249 0.61532 0.00592 0.0
C677 C 0.58162 0.6053 0.00614 0.0
C678 C 0.55713 0.631 0.89144 0.0
C679 C 0.59699 0.60332 0.03143 0.0
C680 C 0.49371 0.65208 0.84614 0.0
C681 C 0.50905 0.64802 0.86506 0.0
C682 C 0.53202 0.61958 0.97272 0.0
C683 C 0.57663 0.61989 0.97907 0.0
C684 C 0.56021 0.62227 0.954 0.0
C685 C 0.51255 0.63287 0.89073 0.0
C686 C 0.52894 0.62867 0.91112 0.0
H687 H 0.61054 0.64045 0.00176 0.0
H688 H 0.58384 0.64387 0.95781 0.0
H689 H 0.54945 0.60978 0.04273 0.0
H690 H 0.47573 0.61724 0.8819 0.0
H691 H 0.50258 0.61005 0.91541 0.0
C692 C 0.62617 0.52647 0.15394 0.0
C693 C 0.63864 0.53463 0.12201 0.0
C694 C 0.62242 0.51123 0.1316 0.0
C695 C 0.6302 0.48253 0.98311 0.0
H696 H 0.61427 0.45237 0.12121 0.0
C697 C 0.63035 0.41555 0.93724 0.0
C698 C 0.61579 0.40796 0.94462 0.0
C699 C 0.63218 0.43115 0.95872 0.0
C700 C 0.61859 0.46073 0.08208 0.0
H701 H 0.65738 0.53327 0.04421 0.0
H702 H 0.65144 0.50646 0.00695 0.0
H703 H 0.61968 0.47925 0.15942 0.0
H704 H 0.59181 0.41064 0.98178 0.0
H705 H 0.59522 0.43793 0.02178 0.0
H706 H 0.6298 0.46365 0.9069 0.0
C707 C 0.64401 0.51192 0.04697 0.0
C708 C 0.62163 0.47618 0.1037 0.0
C709 C 0.64752 0.52725 0.06842 0.0
C710 C 0.60315 0.41622 0.97528 0.0
C711 C 0.6051 0.43177 -0.00169 0.0
C712 C 0.62746 0.46702 0.96202 0.0
C713 C 0.63133 0.50369 0.07788 0.0
C714 C 0.62758 0.4873 0.05459 0.0
C715 C 0.6196 0.4394 -0.01059 0.0
C716 C 0.62171 0.45598 0.01135 0.0
H717 H 0.61918 0.53203 0.19538 0.0
H718 H 0.61243 0.50548 0.156 0.0
H719 H 0.63436 0.49075 0.94307 0.0
H720 H 0.64029 0.40953 0.91353 0.0
H721 H 0.6435 0.43676 0.95176 0.0
C722 C 0.41283 0.38657 0.00481 0.0
C723 C 0.40776 0.40092 0.03406 0.0
C724 C 0.42817 0.3848 0.97966 0.0
C725 C 0.46805 0.40058 -1e-05 0.0
H726 H 0.47595 0.37709 0.82521 0.0
C727 C 0.5309 0.39065 0.88688 0.0
C728 C 0.53412 0.37557 0.85999 0.0
C729 C 0.51554 0.39491 0.90556 0.0
C730 C 0.47397 0.38355 0.8745 0.0
H731 H 0.41487 0.42476 0.0591 0.0
H732 H 0.44178 0.42163 0.01515 0.0
H733 H 0.44902 0.38256 0.86148 0.0
H734 H 0.52387 0.35325 0.83061 0.0
H735 H 0.49714 0.36052 0.86391 0.0
H736 H 0.49302 0.40129 0.01373 0.0
C737 C 0.43383 0.41173 0.0121 0.0
C738 C 0.45852 0.38672 0.89518 0.0
C739 C 0.41839 0.41354 0.03688 0.0
C740 C 0.52168 0.36494 0.85127 0.0
C741 C 0.50637 0.36916 0.86999 0.0
C742 C 0.48354 0.39735 0.97941 0.0
C743 C 0.43889 0.39731 0.98336 0.0
C744 C 0.45536 0.39507 0.9587 0.0
C745 C 0.50307 0.38421 0.89723 0.0
C746 C 0.48668 0.38859 0.91695 0.0
H747 H 0.40497 0.37659 0.0018 0.0
H748 H 0.43174 0.37348 0.95871 0.0
H749 H 0.466 0.40691 0.04958 0.0
H750 H 0.54018 0.39924 0.89201 0.0
H751 H 0.51338 0.40668 0.92526 0.0
C752 C 0.91328 0.41943 0.78979 0.0
C753 C 0.90094 0.4086 0.78181 0.0
C754 C 0.91164 0.43486 0.76482 0.0
C755 C 0.88904 0.45956 0.63914 0.0
H756 H 0.8989 0.49356 0.77025 0.0
C757 C 0.88419 0.52507 0.55821 0.0
C758 C 0.87646 0.53478 0.60777 0.0
C759 C 0.88854 0.50977 0.57717 0.0
C760 C 0.89612 0.48418 0.73306 0.0
H761 H 0.87742 0.40534 0.73945 0.0
H762 H 0.87466 0.43214 0.69537 0.0
H763 H 0.90422 0.46641 0.80583 0.0
H764 H 0.86625 0.53589 0.71406 0.0
H765 H 0.87422 0.5093 0.74833 0.0
H766 H 0.8807 0.47728 0.56685 0.0
C767 C 0.88557 0.42873 0.72098 0.0
C768 C 0.89929 0.46867 0.75314 0.0
C769 C 0.88713 0.4134 0.74667 0.0
C770 C 0.87284 0.52885 0.67614 0.0
C771 C 0.87731 0.51362 0.69544 0.0
C772 C 0.88603 0.47507 0.61874 0.0
C773 C 0.89773 0.43967 0.73047 0.0
C774 C 0.89557 0.45618 0.7068 0.0
C775 C 0.88517 0.5039 0.6461 0.0
C776 C 0.88933 0.48753 0.6659 0.0
H777 H 0.92407 0.41608 0.81662 0.0
H778 H 0.92124 0.44303 0.7724 0.0
H779 H 0.88615 0.45017 0.60215 0.0
H780 H 0.88688 0.52937 0.50484 0.0
H781 H 0.89459 0.50255 0.53805 0.0
C782 C 0.52806 0.14741 0.3151 0.0
C783 C 0.53537 0.13855 0.36904 0.0
C784 C 0.51271 0.14396 0.29367 0.0
C785 C 0.47681 0.122 0.35104 0.0
H786 H 0.46445 0.12972 0.15355 0.0
C787 C 0.41673 0.10366 0.22378 0.0
C788 C 0.40863 0.11618 0.19129 0.0
C789 C 0.43228 0.10557 0.24687 0.0
C790 C 0.46777 0.12752 0.20887 0.0
H791 H 0.53263 0.11924 0.44316 0.0
H792 H 0.50603 0.11262 0.40387 0.0
H793 H 0.49156 0.13417 0.18987 0.0
H794 H 0.41048 0.14048 0.15712 0.0
H795 H 0.43771 0.14363 0.19558 0.0
H796 H 0.45292 0.11489 0.36867 0.0
C797 C 0.51187 0.12252 0.37911 0.0
C798 C 0.48328 0.13019 0.23002 0.0
C799 C 0.52713 0.1262 0.4014 0.0
C800 C 0.41638 0.13062 0.18222 0.0
C801 C 0.43198 0.13242 0.20382 0.0
C802 C 0.46134 0.11903 0.32939 0.0
C803 C 0.5044 0.13139 0.325 0.0
C804 C 0.488 0.12772 0.30173 0.0
C805 C 0.44007 0.11993 0.23629 0.0
C806 C 0.45665 0.12199 0.25839 0.0
H807 H 0.53414 0.1572 0.29061 0.0
H808 H 0.50731 0.15136 0.25333 0.0
H809 H 0.47984 0.12017 0.40691 0.0
H810 H 0.41102 0.09243 0.23181 0.0
H811 H 0.43831 0.09578 0.27177 0.0
C812 C 0.12915 0.60323 0.74251 0.0
C813 C 0.1152 0.60795 0.77671 0.0
C814 C 0.131 0.58781 0.71832 0.0
C815 C 0.11773 0.54771 0.7529 0.0
H816 H 0.13662 0.53871 0.56776 0.0
C817 C 0.14379 0.48707 0.6786 0.0
C818 C 0.14022 0.48113 0.61016 0.0
C819 C 0.1395 0.50239 0.69746 0.0
C820 C 0.13122 0.54103 0.61938 0.0
H821 H 0.09216 0.60021 0.81142 0.0
H822 H 0.09551 0.57314 0.76979 0.0
H823 H 0.13105 0.56589 0.60147 0.0
H824 H 0.13005 0.48664 0.50674 0.0
H825 H 0.12265 0.51357 0.53916 0.0
H826 H 0.11812 0.52286 0.77123 0.0
C827 C 0.10499 0.58143 0.76182 0.0
C828 C 0.12814 0.55659 0.63888 0.0
C829 C 0.10305 0.59694 0.78528 0.0
C830 C 0.13271 0.49094 0.56015 0.0
C831 C 0.12854 0.50631 0.57867 0.0
C832 C 0.12097 0.53216 0.73372 0.0
C833 C 0.11902 0.57669 0.72841 0.0
C834 C 0.12146 0.56011 0.70604 0.0
C835 C 0.13187 0.51219 0.64762 0.0
C836 C 0.12784 0.52865 0.66693 0.0
H837 H 0.13873 0.61142 0.73491 0.0
H838 H 0.142 0.58448 0.69338 0.0
H839 H 0.11268 0.55007 0.80523 0.0
H840 H 0.15021 0.47997 0.71692 0.0
H841 H 0.14255 0.5067 0.75041 0.0
C842 C 0.60347 0.88566 0.22497 0.0
C843 C 0.60828 0.90018 0.1966 0.0
C844 C 0.58802 0.88341 0.24774 0.0
C845 C 0.55304 0.87832 0.24433 0.0
H846 H 0.52922 0.91004 0.34654 0.0
C847 C 0.48681 0.87108 0.29572 0.0
C848 C 0.48107 0.87564 0.36317 0.0
C849 C 0.5021 0.87493 0.27497 0.0
C850 C 0.53575 0.90102 0.31841 0.0
H851 H 0.6007 0.92389 0.1719 0.0
H852 H 0.57356 0.91988 0.21084 0.0
H853 H 0.55657 0.91515 0.31422 0.0
H854 H 0.48682 0.88727 0.46294 0.0
H855 H 0.51375 0.89385 0.42752 0.0
H856 H 0.53248 0.86402 0.24993 0.0
C857 C 0.58183 0.91028 0.21606 0.0
C858 C 0.55137 0.90402 0.29919 0.0
C859 C 0.59737 0.91256 0.19348 0.0
C860 C 0.49097 0.88388 0.41018 0.0
C861 C 0.50631 0.88771 0.38961 0.0
C862 C 0.53749 0.87532 0.26355 0.0
C863 C 0.57692 0.89558 0.24239 0.0
C864 C 0.56023 0.89266 0.26222 0.0
C865 C 0.51209 0.88321 0.32181 0.0
C866 C 0.52863 0.88661 0.30087 0.0
H867 H 0.6116 0.87591 0.22893 0.0
H868 H 0.58477 0.87205 0.26929 0.0
H869 H 0.55941 0.86938 0.21492 0.0
H870 H 0.47954 0.86427 0.25958 0.0
H871 H 0.5061 0.87135 0.22221 0.0
C872 C 0.86522 0.99347 0.6261 0.0
C873 C 0.87608 0.98115 0.62002 0.0
C874 C 0.86918 0.00864 0.60422 0.0
C875 C 0.90256 0.03502 0.56804 0.0
H876 H 0.87147 0.05822 0.45875 0.0
C877 C 0.91412 0.09663 0.44059 0.0
C878 C 0.9016 0.10739 0.4437 0.0
C879 C 0.91199 0.08104 0.46293 0.0
C880 C 0.88023 0.05199 0.4899 0.0
H881 H 0.89994 0.97519 0.59046 0.0
H882 H 0.90688 1.00175 0.55093 0.0
H883 H 0.86593 0.03142 0.49579 0.0
H884 H 0.87728 0.1104 0.47592 0.0
H885 H 0.87371 0.08352 0.51566 0.0
H886 H 0.91681 0.05576 0.56246 0.0
C887 C 0.89522 0.99962 0.57208 0.0
C888 C 0.87705 0.0366 0.51106 0.0
C889 C 0.8912 0.98439 0.59374 0.0
C890 C 0.88713 0.10239 0.47189 0.0
C891 C 0.88504 0.08692 0.49431 0.0
C892 C 0.90574 0.0505 0.54694 0.0
C893 C 0.88418 0.01188 0.57634 0.0
C894 C 0.88807 0.02799 0.55117 0.0
C895 C 0.89732 0.07595 0.48884 0.0
C896 C 0.89451 0.05924 0.50848 0.0
H897 H 0.85354 0.99128 0.64683 0.0
H898 H 0.8605 0.01787 0.60947 0.0
H899 H 0.91126 0.02871 0.59924 0.0
H900 H 0.92541 0.10013 0.41918 0.0
H901 H 0.92168 0.07287 0.45785 0.0
C902 C 0.09729 0.10473 0.53188 0.0
C903 C 0.1084 0.11693 0.52824 0.0
C904 C 0.08174 0.10727 0.51004 0.0
C905 C 0.0532 0.13952 0.48236 0.0
H906 H 0.02947 0.10842 0.37586 0.0
C907 C 0.99367 0.15416 0.35227 0.0
C908 C 0.98159 0.14305 0.35836 0.0
C909 C 0.00899 0.15044 0.37317 0.0
C910 C 0.03589 0.11715 0.40629 0.0
H911 H 0.11195 0.14119 0.4965 0.0
H912 H 0.08504 0.14551 0.45768 0.0
H913 H 0.05656 0.10279 0.41103 0.0
H914 H 0.97621 0.11901 0.38715 0.0
H915 H 1.00296 0.11251 0.42526 0.0
H916 H 0.03263 0.15389 0.47753 0.0
C917 C 0.08821 0.13408 0.47877 0.0
C918 C 0.05142 0.11393 0.42644 0.0
C919 C 0.10369 0.13156 0.50064 0.0
C920 C 0.98521 0.12795 0.38397 0.0
C921 C 1.00057 0.12417 0.40474 0.0
C922 C 0.03774 0.14273 0.46219 0.0
C923 C 0.07697 0.12205 0.48412 0.0
C924 C 0.06031 0.12514 0.46417 0.0
C925 C 0.01262 0.13543 0.4001 0.0
C926 C 0.02892 0.13166 0.42339 0.0
H927 H 0.1005 0.09334 0.55315 0.0
H928 H 0.07336 0.09778 0.51534 0.0
H929 H 0.05957 0.14829 0.5128 0.0
H930 H 0.9912 0.16583 0.33199 0.0
H931 H 0.01803 0.15929 0.36762 0.0
C932 C 0.12887 0.91288 0.4801 0.0
C933 C 0.11495 0.90804 0.44597 0.0
C934 C 0.13057 0.9283 0.50444 0.0
C935 C 0.11676 0.9683 0.47071 0.0
H936 H 0.13575 0.97735 0.65566 0.0
C937 C 0.14241 0.02904 0.54536 0.0
C938 C 0.13898 0.0349 0.61409 0.0
C939 C 0.13813 0.01374 0.52632 0.0
C940 C 0.13031 0.97502 0.60411 0.0
H941 H 0.09181 0.9156 0.41153 0.0
H942 H 0.09488 0.94266 0.45346 0.0
H943 H 0.13048 0.95014 0.62157 0.0
H944 H 0.12903 0.02927 0.71776 0.0
H945 H 0.12163 1.00237 0.68498 0.0
H946 H 0.11682 0.99317 0.45282 0.0
C947 C 0.10446 0.93446 0.46124 0.0
C948 C 0.12741 0.95944 0.58438 0.0
C949 C 0.10268 0.91895 0.43759 0.0
C950 C 0.13157 0.02505 0.66411 0.0
C951 C 0.12741 0.00969 0.6454 0.0
C952 C 0.11982 0.98387 0.49012 0.0
C953 C 0.11846 0.93931 0.49462 0.0
C954 C 0.1207 0.9559 0.51727 0.0
C955 C 0.13064 1.00387 0.57624 0.0
C956 C 0.12673 0.98739 0.55684 0.0
H957 H 0.13854 0.90477 0.48755 0.0
H958 H 0.14155 0.93172 0.52935 0.0
H959 H 0.11169 0.96593 0.41842 0.0
H960 H 0.14876 0.03617 0.50699 0.0
H961 H 0.1411 0.00948 0.47319 0.0
C962 C 0.03123 0.89035 0.37744 0.0
C963 C 0.03453 0.87516 0.35222 0.0
C964 C 0.01586 0.89461 0.3959 0.0
C965 C 0.97434 0.88283 0.36759 0.0
H966 H 0.96662 0.90676 0.54132 0.0
C967 C 0.91348 0.88599 0.50053 0.0
C968 C 0.90843 0.90042 0.52906 0.0
C969 C 0.92876 0.88421 0.47474 0.0
C970 C 0.96859 0.90026 0.4921 0.0
H971 H 0.02442 0.85263 0.32521 0.0
H972 H 0.99766 0.8599 0.35807 0.0
H973 H 0.99358 0.90119 0.5046 0.0
H974 H 0.91549 0.92437 0.55215 0.0
H975 H 0.9423 0.92121 0.50706 0.0
H976 H 0.94937 0.88165 0.35583 0.0
C977 C 1.00684 0.86862 0.36309 0.0
C978 C 0.98405 0.89707 0.47102 0.0
C979 C 0.02216 0.86441 0.34461 0.0
C980 C 0.91901 0.9131 0.53053 0.0
C981 C 0.93438 0.91127 0.50509 0.0
C982 C 0.95892 0.88598 0.38876 0.0
C983 C 1.00347 0.88378 0.38898 0.0
C984 C 0.9871 0.88811 0.40906 0.0
C985 C 0.93944 0.89678 0.47706 0.0
C986 C 0.95585 0.89453 0.4518 0.0
H987 H 0.04046 0.89902 0.38162 0.0
H988 H 0.01365 0.90645 0.41448 0.0
H989 H 0.97625 0.8762 0.31871 0.0
H990 H 0.90565 0.87598 0.49856 0.0
H991 H 0.93233 0.87284 0.45439 0.0
C992 C 0.36717 0.20108 0.17183 0.0
C993 C 0.35672 0.19141 0.13387 0.0
C994 C 0.36621 0.21739 0.16623 0.0
C995 C 0.35151 0.24952 0.0535 0.0
H996 H 0.3536 0.27365 0.2301 0.0
C997 C 0.34225 0.31642 0.05243 0.0
C998 C 0.35219 0.32544 0.09614 0.0
C999 C 0.34165 0.30012 0.05991 0.0
C1000 C 0.35317 0.26713 0.1802 0.0
H1001 H 0.33675 0.19115 0.06198 0.0
H1002 H 0.3353 0.21983 0.05017 0.0
H1003 H 0.35526 0.24508 0.23476 0.0
H1004 H 0.36937 0.32459 0.18162 0.0
H1005 H 0.36855 0.29603 0.1946 0.0
H1006 H 0.34981 0.2715 -0.00141 0.0
C1007 C 0.3444 0.21473 0.08349 0.0
C1008 C 0.35409 0.25075 0.18291 0.0
C1009 C 0.34531 0.19836 0.08962 0.0
C1010 C 0.36132 0.31791 0.1486 0.0
C1011 C 0.36085 0.30155 0.15572 0.0
C1012 C 0.35073 0.26591 0.0507 0.0
C1013 C 0.35472 0.22441 0.12262 0.0
C1014 C 0.35334 0.24178 0.11957 0.0
C1015 C 0.3512 0.29242 0.11057 0.0
C1016 C 0.35158 0.27494 0.11401 0.0
H1017 H 0.37596 0.19595 0.20677 0.0
H1018 H 0.37444 0.22452 0.19635 0.0
H1019 H 0.35108 0.24292 0.00378 0.0
H1020 H 0.33513 0.32203 0.01155 0.0
H1021 H 0.33383 0.29354 0.02524 0.0
C1022 C 0.31778 0.6707 0.8406 0.0
C1023 C 0.32465 0.65869 0.88165 0.0
C1024 C 0.30142 0.67168 0.83399 0.0
C1025 C 0.26527 0.66087 0.92906 0.0
H1026 H 0.2448 0.66698 0.74514 0.0
C1027 C 0.19817 0.654 0.89184 0.0
C1028 C 0.19069 0.6635 0.84063 0.0
C1029 C 0.21452 0.65443 0.89939 0.0
C1030 C 0.2503 0.66556 0.7972 0.0
H1031 H 0.31998 0.63846 0.94855 0.0
H1032 H 0.29142 0.64015 0.93746 0.0
H1033 H 0.27337 0.66571 0.75107 0.0
H1034 H 0.19415 0.68115 0.75876 0.0
H1035 H 0.22262 0.68242 0.77344 0.0
H1036 H 0.2423 0.6609 0.97559 0.0
C1037 C 0.29862 0.64876 0.91008 0.0
C1038 C 0.26669 0.66476 0.8004 0.0
C1039 C 0.31492 0.64772 0.91604 0.0
C1040 C 0.19973 0.67376 0.79866 0.0
C1041 C 0.21602 0.67433 0.80667 0.0
C1042 C 0.24889 0.66183 0.92602 0.0
C1043 C 0.29168 0.66084 0.8696 0.0
C1044 C 0.27433 0.66226 0.86626 0.0
C1045 C 0.22369 0.66443 0.85603 0.0
C1046 C 0.24117 0.66406 0.85996 0.0
H1047 H 0.32503 0.67965 0.81598 0.0
H1048 H 0.29637 0.68123 0.80319 0.0
H1049 H 0.27087 0.65917 0.98078 0.0
H1050 H 0.19146 0.64572 0.92349 0.0
H1051 H 0.22 0.64645 0.93718 0.0
C1052 C 0.67131 0.8174 0.09218 0.0
C1053 C 0.65929 0.82427 0.13308 0.0
C1054 C 0.67229 0.80103 0.08566 0.0
C1055 C 0.66138 0.76491 0.18111 0.0
H1056 H 0.66791 0.7443 -0.00207 0.0
C1057 C 0.6547 0.69777 0.14513 0.0
C1058 C 0.66434 0.69023 0.09471 0.0
C1059 C 0.65507 0.71413 0.15222 0.0
C1060 C 0.66637 0.74985 0.04979 0.0
H1061 H 0.63902 0.81962 0.19963 0.0
H1062 H 0.64069 0.79106 0.18864 0.0
H1063 H 0.66657 0.77288 0.00319 0.0
H1064 H 0.68218 0.69365 0.01365 0.0
H1065 H 0.68333 0.72214 0.02752 0.0
H1066 H 0.66135 0.74198 0.2281 0.0
C1067 C 0.64932 0.79824 0.16135 0.0
C1068 C 0.66553 0.76624 0.05262 0.0
C1069 C 0.64829 0.81454 0.16726 0.0
C1070 C 0.67467 0.69926 0.053 0.0
C1071 C 0.67519 0.71556 0.06053 0.0
C1072 C 0.66236 0.74853 0.17844 0.0
C1073 C 0.66143 0.79129 0.12117 0.0
C1074 C 0.66288 0.77393 0.11819 0.0
C1075 C 0.66516 0.72327 0.10915 0.0
C1076 C 0.66475 0.74076 0.11266 0.0
H1077 H 0.68028 0.82463 0.06768 0.0
H1078 H 0.68185 0.79598 0.05507 0.0
H1079 H 0.65957 0.77054 0.23264 0.0
H1080 H 0.64635 0.69109 0.17649 0.0
H1081 H 0.64699 0.71964 0.18942 0.0
C1082 C 0.81354 0.36713 0.80687 0.0
C1083 C 0.82389 0.35626 0.83848 0.0
C1084 C 0.79733 0.36517 0.81187 0.0
C1085 C 0.76619 0.34732 0.91784 0.0
H1086 H 0.74159 0.35199 0.74355 0.0
C1087 C 0.69899 0.33986 0.92181 0.0
C1088 C 0.69014 0.35041 0.88037 0.0
C1089 C 0.71524 0.33877 0.91301 0.0
C1090 C 0.74823 0.35081 0.79289 0.0
H1091 H 0.82516 0.33452 0.89893 0.0
H1092 H 0.79668 0.33143 0.91036 0.0
H1093 H 0.77013 0.3538 0.73804 0.0
H1094 H 0.69122 0.36818 0.79759 0.0
H1095 H 0.71968 0.36662 0.78272 0.0
H1096 H 0.74437 0.34495 0.97341 0.0
C1097 C 0.80127 0.34154 0.88199 0.0
C1098 C 0.7646 0.35178 0.78962 0.0
C1099 C 0.81759 0.34341 0.87619 0.0
C1100 C 0.69778 0.35968 0.82887 0.0
C1101 C 0.71409 0.35877 0.8206 0.0
C1102 C 0.7498 0.34654 0.92132 0.0
C1103 C 0.79101 0.3523 0.84896 0.0
C1104 C 0.77373 0.35021 0.85214 0.0
C1105 C 0.72308 0.34847 0.86343 0.0
C1106 C 0.74058 0.34841 0.85896 0.0
H1107 H 0.81803 0.37715 0.77755 0.0
H1108 H 0.78971 0.37376 0.78675 0.0
H1109 H 0.77294 0.34621 0.96694 0.0
H1110 H 0.69329 0.33262 0.96194 0.0
H1111 H 0.72167 0.33047 0.94589 0.0
C1112 C 0.84505 0.69812 0.59033 0.0
C1113 C 0.85671 0.69118 0.63323 0.0
C1114 C 0.84417 0.7145 0.58397 0.0
C1115 C 0.85447 0.75055 0.68146 0.0
H1116 H 0.84946 0.77118 0.49723 0.0
C1117 C 0.86184 0.81765 0.64565 0.0
C1118 C 0.85258 0.82519 0.5937 0.0
C1119 C 0.86132 0.8013 0.65303 0.0
C1120 C 0.85058 0.76563 0.54934 0.0
H1121 H 0.87641 0.69572 0.70356 0.0
H1122 H 0.8749 0.72429 0.69279 0.0
H1123 H 0.85061 0.7426 0.5028 0.0
H1124 H 0.83523 0.82182 0.51034 0.0
H1125 H 0.83382 0.79335 0.52459 0.0
H1126 H 0.85429 0.77349 0.72832 0.0
C1127 C 0.86648 0.71716 0.66386 0.0
C1128 C 0.8513 0.74924 0.55236 0.0
C1129 C 0.86742 0.70085 0.66965 0.0
C1130 C 0.84245 0.8162 0.55082 0.0
C1131 C 0.84178 0.79991 0.5586 0.0
C1132 C 0.85361 0.76693 0.67857 0.0
C1133 C 0.85474 0.72417 0.62158 0.0
C1134 C 0.8534 0.74154 0.61836 0.0
C1135 C 0.85146 0.79219 0.60871 0.0
C1136 C 0.85176 0.7747 0.61241 0.0
H1137 H 0.8363 0.69092 0.56399 0.0
H1138 H 0.83488 0.7196 0.55171 0.0
H1139 H 0.85586 0.74492 0.73328 0.0
H1140 H 0.87003 0.82431 0.67803 0.0
H1141 H 0.86911 0.79577 0.69145 0.0
C1142 C 0.81387 0.14773 0.41045 0.0
C1143 C 0.82432 0.15877 0.38102 0.0
C1144 C 0.79768 0.14985 0.40521 0.0
C1145 C 0.76664 0.16879 0.3024 0.0
H1146 H 0.74226 0.16342 0.47677 0.0
C1147 C 0.69946 0.17713 0.30196 0.0
C1148 C 0.6906 0.16645 0.34254 0.0
C1149 C 0.71575 0.17795 0.31003 0.0
C1150 C 0.74883 0.1648 0.42739 0.0
H1151 H 0.8258 0.18091 0.32383 0.0
H1152 H 0.79734 0.18429 0.31197 0.0
H1153 H 0.77077 0.16117 0.4812 0.0
H1154 H 0.69172 0.14812 0.42273 0.0
H1155 H 0.72021 0.14922 0.43633 0.0
H1156 H 0.74475 0.17181 0.2478 0.0
C1157 C 0.80184 0.17394 0.33886 0.0
C1158 C 0.76518 0.16357 0.43006 0.0
C1159 C 0.81814 0.17191 0.3449 0.0
C1160 C 0.69827 0.15674 0.39228 0.0
C1161 C 0.71461 0.15739 0.39982 0.0
C1162 C 0.75025 0.16982 0.29949 0.0
C1163 C 0.79148 0.16304 0.37006 0.0
C1164 C 0.77423 0.16539 0.36749 0.0
C1165 C 0.7236 0.16785 0.35798 0.0
C1166 C 0.7411 0.16769 0.36187 0.0
H1167 H 0.81827 0.13749 0.43849 0.0
H1168 H 0.78998 0.14114 0.42887 0.0
H1169 H 0.77333 0.17011 0.25329 0.0
H1170 H 0.69374 0.18469 0.26311 0.0
H1171 H 0.7222 0.18636 0.27793 0.0
C1172 C 0.14768 0.31363 0.66109 0.0
C1173 C 0.15867 0.3241 0.63146 0.0
C1174 C 0.14981 0.29744 0.65582 0.0
C1175 C 0.16866 0.26646 0.55251 0.0
H1176 H 0.16339 0.24196 0.72668 0.0
C1177 C 0.17692 0.19929 0.55102 0.0
C1178 C 0.16625 0.1904 0.59155 0.0
C1179 C 0.17776 0.21557 0.5594 0.0
C1180 C 0.16474 0.24857 0.67735 0.0
H1181 H 0.18074 0.32562 0.57388 0.0
H1182 H 0.18416 0.29717 0.56197 0.0
H1183 H 0.16118 0.27049 0.73143 0.0
H1184 H 0.14801 0.19145 0.67211 0.0
H1185 H 0.14917 0.21993 0.68624 0.0
H1186 H 0.17161 0.24461 0.49764 0.0
C1187 C 0.17383 0.30165 0.58905 0.0
C1188 C 0.16354 0.26493 0.6802 0.0
C1189 C 0.17178 0.31795 0.59513 0.0
C1190 C 0.15661 0.19803 0.64165 0.0
C1191 C 0.15729 0.21436 0.64949 0.0
C1192 C 0.16967 0.25007 0.54942 0.0
C1193 C 0.16297 0.29127 0.62044 0.0
C1194 C 0.16532 0.27402 0.61771 0.0
C1195 C 0.16772 0.22339 0.60763 0.0
C1196 C 0.16757 0.24089 0.61172 0.0
H1197 H 0.13745 0.31801 0.68928 0.0
H1198 H 0.14114 0.28973 0.67961 0.0
H1199 H 0.16995 0.27319 0.50344 0.0
H1200 H 0.18443 0.1936 0.51194 0.0
H1201 H 0.18616 0.22204 0.52729 0.0
C1202 C 0.31777 0.845 0.38316 0.0
C1203 C 0.32459 0.85683 0.34093 0.0
C1204 C 0.30142 0.84406 0.39005 0.0
C1205 C 0.26515 0.85454 0.2946 0.0
H1206 H 0.24487 0.84918 0.47933 0.0
C1207 C 0.19811 0.86172 0.33235 0.0
C1208 C 0.19065 0.8524 0.38425 0.0
C1209 C 0.21445 0.86125 0.32468 0.0
C1210 C 0.25032 0.85039 0.42707 0.0
H1211 H 0.31985 0.87676 0.27223 0.0
H1212 H 0.2913 0.87513 0.28382 0.0
H1213 H 0.27344 0.85035 0.47281 0.0
H1214 H 0.19418 0.83503 0.46734 0.0
H1215 H 0.22264 0.83368 0.45254 0.0
H1216 H 0.24213 0.85441 0.2485 0.0
C1217 C 0.29852 0.86663 0.3119 0.0
C1218 C 0.26671 0.85113 0.42352 0.0
C1219 C 0.31482 0.86764 0.30563 0.0
C1220 C 0.19973 0.84229 0.4269 0.0
C1221 C 0.21602 0.84166 0.41879 0.0
C1222 C 0.24878 0.85365 0.29801 0.0
C1223 C 0.29163 0.85475 0.35358 0.0
C1224 C 0.27428 0.85337 0.35734 0.0
C1225 C 0.22365 0.85138 0.36863 0.0
C1226 C 0.24113 0.85168 0.36437 0.0
H1227 H 0.32505 0.83617 0.40856 0.0
H1228 H 0.2964 0.83466 0.4218 0.0
H1229 H 0.27069 0.85603 0.24266 0.0
H1230 H 0.19137 0.86991 0.30017 0.0
H1231 H 0.2199 0.86908 0.28626 0.0
C1232 C 0.20636 0.09509 0.72922 0.0
C1233 C 0.1998 0.10958 0.70869 0.0
C1234 C 0.22061 0.09454 0.76691 0.0
C1235 C 0.24583 0.11874 0.88407 0.0
H1236 H 0.27867 0.0892 0.83347 0.0
C1237 C 0.30847 0.12411 -0.00121 0.0
C1238 C 0.31681 0.11031 0.01518 0.0
C1239 C 0.29401 0.12341 0.96335 0.0
C1240 C 0.26954 0.09737 0.84908 0.0
H1241 H 0.20321 0.13484 0.71114 0.0
H1242 H 0.22795 0.13384 0.7765 0.0
H1243 H 0.25387 0.08896 0.76742 0.0
H1244 H 0.31635 0.0849 0.00768 0.0
H1245 H 0.29095 0.08365 0.94703 0.0
H1246 H 0.26134 0.12712 0.96587 0.0
C1247 C 0.22204 0.12291 0.76404 0.0
C1248 C 0.25534 0.09724 0.81105 0.0
C1249 C 0.2079 0.12346 0.72604 0.0
C1250 C 0.31025 0.09577 -0.00422 0.0
C1251 C 0.29573 0.09506 0.96053 0.0
C1252 C 0.25996 0.11881 0.92231 0.0
C1253 C 0.22852 0.10846 0.78543 0.0
C1254 C 0.24338 0.10805 0.82758 0.0
C1255 C 0.28743 0.10888 0.94361 0.0
C1256 C 0.27209 0.10825 0.90486 0.0
H1257 H 0.20042 0.08418 0.71684 0.0
H1258 H 0.22526 0.08322 0.78298 0.0
H1259 H 0.23674 0.12702 0.89907 0.0
H1260 H 0.31321 0.13553 0.01241 0.0
H1261 H 0.28814 0.13432 0.95019 0.0
C1262 C 0.09641 0.70609 0.97958 0.0
C1263 C 0.11083 0.69932 0.95954 0.0
C1264 C 0.096 0.7204 0.01673 0.0
C1265 C 0.12035 0.74569 0.13301 0.0
H1266 H 0.09055 0.7783 0.0822 0.0
C1267 C 0.12479 0.80833 0.2494 0.0
C1268 C 0.11084 0.81641 0.26565 0.0
C1269 C 0.12437 0.79391 0.21349 0.0
C1270 C 0.09881 0.76924 0.09785 0.0
H1271 H 0.13612 0.7024 0.96236 0.0
H1272 H 0.13537 0.72729 0.02681 0.0
H1273 H 0.09052 0.75353 0.01618 0.0
H1274 H 0.08545 0.81554 0.25745 0.0
H1275 H 0.08468 0.79023 0.19603 0.0
H1276 H 0.12859 0.76126 0.2149 0.0
C1277 C 0.12439 0.72149 0.01437 0.0
C1278 C 0.0988 0.75505 0.05982 0.0
C1279 C 0.1248 0.70726 0.9769 0.0
C1280 C 0.09642 0.80964 0.24568 0.0
C1281 C 0.09599 0.79517 0.20996 0.0
C1282 C 0.12031 0.75982 0.17124 0.0
C1283 C 0.10999 0.72819 0.03515 0.0
C1284 C 0.10967 0.74315 0.07658 0.0
C1285 C 0.10997 0.78714 0.19312 0.0
C1286 C 0.10962 0.77185 0.15386 0.0
H1287 H 0.08543 0.70028 0.96721 0.0
H1288 H 0.08472 0.72518 0.03242 0.0
H1289 H 0.12869 0.73666 0.14818 0.0
H1290 H 0.13612 0.81324 0.26345 0.0
H1291 H 0.13539 0.78824 0.20046 0.0
C1292 C 0.7075 0.89067 -0.00482 0.0
C1293 C 0.69949 0.90458 0.01307 0.0
C1294 C 0.72176 0.89121 0.95809 0.0
C1295 C 0.75529 0.91696 0.915 0.0
H1296 H 0.76181 0.88758 0.75869 0.0
C1297 C 0.81028 0.91961 0.73141 0.0
C1298 C 0.81705 0.9052 0.71128 0.0
C1299 C 0.79574 0.92004 0.76659 0.0
C1300 C 0.76028 0.89575 0.80269 0.0
H1301 H 0.70037 0.93 0.00671 0.0
H1302 H 0.72533 0.93093 0.94213 0.0
H1303 H 0.7371 0.88732 0.82444 0.0
H1304 H 0.81382 0.87993 0.71275 0.0
H1305 H 0.78872 0.88065 0.77477 0.0
H1306 H 0.77857 0.92527 0.89391 0.0
C1307 C 0.72057 0.9196 0.95712 0.0
C1308 C 0.74609 0.89561 0.84037 0.0
C1309 C 0.70623 0.91906 -0.00611 0.0
C1310 C 0.80892 0.89125 0.72693 0.0
C1311 C 0.79444 0.89167 0.76226 0.0
C1312 C 0.76955 0.91706 0.87751 0.0
C1313 C 0.72843 0.90567 0.93822 0.0
C1314 C 0.74344 0.90614 0.89727 0.0
C1315 C 0.78765 0.90606 0.78266 0.0
C1316 C 0.77227 0.90638 0.82113 0.0
H1317 H 0.70267 0.8793 0.00908 0.0
H1318 H 0.72762 0.88027 0.94525 0.0
H1319 H 0.75368 0.92513 0.95901 0.0
H1320 H 0.81621 0.93059 0.72011 0.0
H1321 H 0.79078 0.93134 0.78065 0.0
C1322 C 0.8894 0.3093 0.9812 0.0
C1323 C 0.90344 0.31728 0.96551 0.0
C1324 C 0.88968 0.29477 0.01626 0.0
C1325 C 0.91497 0.26949 0.13053 0.0
H1326 H 0.88522 0.23715 0.07617 0.0
C1327 C 0.91777 0.20589 0.24224 0.0
C1328 C 0.90343 0.19882 0.26103 0.0
C1329 C 0.91803 0.22037 0.20649 0.0
C1330 C 0.89351 0.24611 0.0925 0.0
H1331 H 0.92882 0.31611 0.97396 0.0
H1332 H 0.92933 0.29064 0.034 0.0
H1333 H 0.88532 0.2621 0.01207 0.0
H1334 H 0.8781 0.20152 0.25727 0.0
H1335 H 0.87857 0.22674 0.19528 0.0
H1336 H 0.92321 0.25339 0.21075 0.0
C1337 C 0.91806 0.29574 0.02024 0.0
C1338 C 0.89356 0.26044 0.05576 0.0
C1339 C 0.91778 0.31031 0.98533 0.0
C1340 C 0.88936 0.20662 0.24365 0.0
C1341 C 0.88963 0.22103 0.20761 0.0
C1342 C 0.91496 0.25512 0.1671 0.0
C1343 C 0.90401 0.28779 0.03638 0.0
C1344 C 0.90424 0.27237 0.0745 0.0
C1345 C 0.90396 0.22806 0.1883 0.0
C1346 C 0.90417 0.24328 0.14879 0.0
H1347 H 0.87813 0.31436 0.9672 0.0
H1348 H 0.87861 0.28915 0.02875 0.0
H1349 H 0.92321 0.27846 0.14722 0.0
H1350 H 0.92883 0.2002 0.25464 0.0
H1351 H 0.92927 0.22538 0.19182 0.0
C1352 C 0.30938 0.41947 0.23632 0.0
C1353 C 0.31623 0.40513 0.21557 0.0
C1354 C 0.29498 0.41974 0.27269 0.0
C1355 C 0.26928 0.39489 0.38516 0.0
H1356 H 0.23688 0.42494 0.33476 0.0
C1357 C 0.20622 0.39015 0.4972 0.0
C1358 C 0.19816 0.40408 0.51418 0.0
C1359 C 0.22074 0.39065 0.46213 0.0
C1360 C 0.24587 0.41661 0.35029 0.0
H1361 H 0.31316 0.37983 0.21642 0.0
H1362 H 0.28812 0.38032 0.27944 0.0
H1363 H 0.26187 0.42524 0.27063 0.0
H1364 H 0.1992 0.4295 0.50816 0.0
H1365 H 0.22466 0.43038 0.44824 0.0
H1366 H 0.2534 0.38629 0.46503 0.0
C1367 C 0.29393 0.39136 0.2682 0.0
C1368 C 0.2602 0.41677 0.31336 0.0
C1369 C 0.30826 0.39109 0.23153 0.0
C1370 C 0.20506 0.41854 0.49576 0.0
C1371 C 0.21962 0.41904 0.4609 0.0
C1372 C 0.255 0.39477 0.42229 0.0
C1373 C 0.28715 0.40567 0.28961 0.0
C1374 C 0.27204 0.40583 0.32999 0.0
C1375 C 0.22764 0.40509 0.44334 0.0
C1376 C 0.24305 0.40555 0.40506 0.0
H1377 H 0.31521 0.4305 0.22504 0.0
H1378 H 0.29013 0.43095 0.2889 0.0
H1379 H 0.27825 0.38648 0.40023 0.0
H1380 H 0.20122 0.3788 0.51008 0.0
H1381 H 0.22641 0.37966 0.44853 0.0
C1382 C 0.39078 0.70695 0.74383 0.0
C1383 C 0.40473 0.69893 0.76104 0.0
C1384 C 0.39123 0.72125 0.70694 0.0
C1385 C 0.4169 0.75482 0.66322 0.0
H1386 H 0.38713 0.76153 0.50847 0.0
C1387 C 0.41935 0.80983 0.47976 0.0
C1388 C 0.40493 0.8167 0.46029 0.0
C1389 C 0.41977 0.79529 0.51491 0.0
C1390 C 0.39541 0.75995 0.55205 0.0
H1391 H 0.43014 0.69983 0.75364 0.0
H1392 H 0.43091 0.72485 0.68939 0.0
H1393 H 0.38699 0.73675 0.57391 0.0
H1394 H 0.37964 0.81363 0.46286 0.0
H1395 H 0.38036 0.7885 0.52484 0.0
H1396 H 0.4252 0.77809 0.642 0.0
C1397 C 0.41962 0.72007 0.70478 0.0
C1398 C 0.39534 0.74572 0.58954 0.0
C1399 C 0.41917 0.7057 0.74137 0.0
C1400 C 0.39097 0.80865 0.47655 0.0
C1401 C 0.39138 0.79416 0.51185 0.0
C1402 C 0.41693 0.7691 0.62591 0.0
C1403 C 0.40565 0.72795 0.68658 0.0
C1404 C 0.40602 0.743 0.64586 0.0
C1405 C 0.40578 0.78728 0.53162 0.0
C1406 C 0.40612 0.77189 0.57007 0.0
H1407 H 0.37945 0.70211 0.75813 0.0
H1408 H 0.38026 0.72711 0.69466 0.0
H1409 H 0.42518 0.75316 0.7068 0.0
H1410 H 0.43033 0.8157 0.46798 0.0
H1411 H 0.43107 0.79026 0.52844 0.0
C1412 C 0.70532 0.59504 0.23631 0.0
C1413 C 0.6987 0.60949 0.2156 0.0
C1414 C 0.71968 0.59455 0.2731 0.0
C1415 C 0.74541 0.61898 0.38707 0.0
H1416 H 0.77791 0.58915 0.3354 0.0
C1417 C 0.80847 0.62421 0.49722 0.0
C1418 C 0.81672 0.61038 0.51401 0.0
C1419 C 0.79392 0.62354 0.46255 0.0
C1420 C 0.76888 0.59741 0.35129 0.0
H1421 H 0.70211 0.63475 0.21689 0.0
H1422 H 0.72705 0.63387 0.28068 0.0
H1423 H 0.75287 0.58888 0.27134 0.0
H1424 H 0.81602 0.58495 0.50789 0.0
H1425 H 0.79048 0.58377 0.44855 0.0
H1426 H 0.76128 0.62749 0.46716 0.0
C1427 C 0.7211 0.62292 0.26907 0.0
C1428 C 0.75454 0.59726 0.31441 0.0
C1429 C 0.70684 0.6234 0.23198 0.0
C1430 C 0.81 0.59584 0.49566 0.0
C1431 C 0.79539 0.59516 0.46116 0.0
C1432 C 0.75969 0.61908 0.42415 0.0
C1433 C 0.72766 0.60851 0.2905 0.0
C1434 C 0.7427 0.60816 0.33138 0.0
C1435 C 0.78717 0.60901 0.44398 0.0
C1436 C 0.7717 0.60841 0.40631 0.0
H1437 H 0.69935 0.5841 0.22464 0.0
H1438 H 0.72438 0.58326 0.28926 0.0
H1439 H 0.73642 0.62734 0.40239 0.0
H1440 H 0.81334 0.63562 0.51005 0.0
H1441 H 0.7881 0.63446 0.44913 0.0
C1442 C 0.6232 0.20741 0.47975 0.0
C1443 C 0.60939 0.19918 0.46258 0.0
C1444 C 0.62253 0.22156 0.51764 0.0
C1445 C 0.59663 0.25464 0.56436 0.0
H1446 H 0.62644 0.26085 0.71937 0.0
C1447 C 0.59495 0.30966 0.74842 0.0
C1448 C 0.60948 0.31624 0.76789 0.0
C1449 C 0.59427 0.29513 0.71325 0.0
C1450 C 0.61814 0.25941 0.67575 0.0
H1451 H 0.58399 0.19955 0.4709 0.0
H1452 H 0.58282 0.22439 0.53684 0.0
H1453 H 0.62649 0.23624 0.65282 0.0
H1454 H 0.63471 0.3127 0.76518 0.0
H1455 H 0.63355 0.28762 0.7031 0.0
H1456 H 0.58846 0.27794 0.58644 0.0
C1457 C 0.59417 0.21985 0.52073 0.0
C1458 C 0.61816 0.24527 0.63767 0.0
C1459 C 0.59485 0.2056 0.48318 0.0
C1460 C 0.6233 0.30793 0.75156 0.0
C1461 C 0.62263 0.29347 0.71619 0.0
C1462 C 0.59667 0.26886 0.60222 0.0
C1463 C 0.60803 0.2279 0.53907 0.0
C1464 C 0.6075 0.24276 0.58111 0.0
C1465 C 0.60811 0.28686 0.6965 0.0
C1466 C 0.60753 0.27149 0.65803 0.0
H1467 H 0.63462 0.20284 0.46479 0.0
H1468 H 0.6334 0.22757 0.52998 0.0
H1469 H 0.58836 0.25311 0.52067 0.0
H1470 H 0.58407 0.31573 0.76025 0.0
H1471 H 0.58288 0.29032 0.69973 0.0
C1472 C 0.35285 0.09201 0.35723 0.0
C1473 C 0.34694 0.10494 0.31904 0.0
C1474 C 0.35476 0.09296 0.43146 0.0
C1475 C 0.36401 0.12399 0.55697 0.0
H1476 H 0.36165 0.09119 0.70082 0.0
C1477 C 0.37234 0.13252 0.86054 0.0
C1478 C 0.37813 0.11968 0.89973 0.0
C1479 C 0.371 0.13152 0.78608 0.0
C1480 C 0.36264 0.10035 0.66067 0.0
H1481 H 0.33602 0.12788 0.32853 0.0
H1482 H 0.33902 0.12936 0.45847 0.0
H1483 H 0.35037 0.0867 0.58218 0.0
H1484 H 0.38941 0.09688 0.89209 0.0
H1485 H 0.38732 0.09529 0.76179 0.0
H1486 H 0.37623 0.13766 0.63557 0.0
C1487 C 0.34273 0.11878 0.43092 0.0
C1488 C 0.35603 0.09782 0.59325 0.0
C1489 C 0.34091 0.11787 0.3568 0.0
C1490 C 0.38459 0.10681 0.86302 0.0
C1491 C 0.38332 0.10585 0.78866 0.0
C1492 C 0.37061 0.12652 0.6244 0.0
C1493 C 0.35062 0.10679 0.46796 0.0
C1494 C 0.3566 0.10965 0.541 0.0
C1495 C 0.37556 0.11773 0.75034 0.0
C1496 C 0.36998 0.11472 0.67679 0.0
H1497 H 0.35748 0.08184 0.32937 0.0
H1498 H 0.36078 0.0835 0.45896 0.0
H1499 H 0.36496 0.13316 0.51687 0.0
H1500 H 0.36739 0.14264 0.88755 0.0
H1501 H 0.36505 0.1409 0.75762 0.0
C1502 C 0.09172 0.66311 0.61547 0.0
C1503 C 0.10434 0.6696 0.65382 0.0
C1504 C 0.0928 0.66126 0.54121 0.0
C1505 C 0.12425 0.65364 0.415 0.0
H1506 H 0.09121 0.65441 0.27186 0.0
C1507 C 0.1329 0.64484 0.11103 0.0
C1508 C 0.12029 0.63836 0.07261 0.0
C1509 C 0.13188 0.64651 0.1854 0.0
C1510 C 0.10046 0.65387 0.31177 0.0
H1511 H 0.12678 0.68148 0.64453 0.0
H1512 H 0.12845 0.67859 0.51459 0.0
H1513 H 0.08628 0.6654 0.39066 0.0
H1514 H 0.09793 0.62634 0.08167 0.0
H1515 H 0.09634 0.62893 0.2118 0.0
H1516 H 0.13844 0.64213 0.33604 0.0
C1517 C 0.11804 0.67441 0.542 0.0
C1518 C 0.09767 0.66031 0.37934 0.0
C1519 C 0.11702 0.67617 0.61615 0.0
C1520 C 0.10768 0.63164 0.11017 0.0
C1521 C 0.10671 0.63322 0.18441 0.0
C1522 C 0.12704 0.6472 0.34741 0.0
C1523 C 0.10643 0.66603 0.50476 0.0
C1524 C 0.10955 0.66029 0.43144 0.0
C1525 C 0.1183 0.64159 0.22184 0.0
C1526 C 0.11516 0.64724 0.29529 0.0
H1527 H 0.08178 0.65802 0.64326 0.0
H1528 H 0.08363 0.65484 0.51362 0.0
H1529 H 0.1335 0.65311 0.4549 0.0
H1530 H 0.14278 0.65007 0.08331 0.0
H1531 H 0.14103 0.65294 0.21313 0.0
C1532 C 0.66394 0.92349 0.35727 0.0
C1533 C 0.66999 0.91062 0.31909 0.0
C1534 C 0.66201 0.9225 0.4315 0.0
C1535 C 0.65317 0.89139 0.55774 0.0
H1536 H 0.65508 0.92438 0.70074 0.0
C1537 C 0.6443 0.88306 0.86159 0.0
C1538 C 0.63829 0.89589 0.90016 0.0
C1539 C 0.64589 0.88403 0.78719 0.0
C1540 C 0.65422 0.91516 0.66085 0.0
H1541 H 0.68109 0.88778 0.32876 0.0
H1542 H 0.67805 0.88624 0.45866 0.0
H1543 H 0.6663 0.92889 0.58203 0.0
H1544 H 0.62695 0.91863 0.89129 0.0
H1545 H 0.62945 0.92015 0.76111 0.0
H1546 H 0.64112 0.87765 0.63665 0.0
C1547 C 0.67426 0.89679 0.43109 0.0
C1548 C 0.66079 0.9177 0.59335 0.0
C1549 C 0.6761 0.89773 0.35696 0.0
C1550 C 0.63191 0.90871 0.86272 0.0
C1551 C 0.63343 0.90964 0.78843 0.0
C1552 C 0.6466 0.88885 0.62525 0.0
C1553 C 0.66626 0.90871 0.46811 0.0
C1554 C 0.66036 0.90582 0.54133 0.0
C1555 C 0.64137 0.89777 0.75084 0.0
C1556 C 0.64706 0.90072 0.67734 0.0
H1557 H 0.65922 0.93362 0.32937 0.0
H1558 H 0.6559 0.93191 0.45892 0.0
H1559 H 0.65232 0.88216 0.51787 0.0
H1560 H 0.64924 0.87301 0.88915 0.0
H1561 H 0.65199 0.87467 0.75933 0.0
C1562 C 0.90784 0.38475 0.11746 0.0
C1563 C 0.89504 0.37853 0.07946 0.0
C1564 C 0.90875 0.38297 0.19164 0.0
C1565 C 0.88793 0.36935 0.35391 0.0
H1566 H 0.92818 0.35005 0.39744 0.0
C1567 C 0.89734 0.34045 0.62361 0.0
C1568 C 0.9102 0.34677 0.6609 0.0
C1569 C 0.89629 0.34211 0.54939 0.0
C1570 C 0.91692 0.35544 0.38602 0.0
H1571 H 0.87216 0.36756 0.08943 0.0
H1572 H 0.87379 0.36432 0.21915 0.0
H1573 H 0.92355 0.36117 0.2786 0.0
H1574 H 0.93301 0.3578 0.64949 0.0
H1575 H 0.93115 0.36077 0.51986 0.0
H1576 H 0.88131 0.36363 0.4614 0.0
C1577 C 0.88316 0.37051 0.19179 0.0
C1578 C 0.91431 0.36195 0.31843 0.0
C1579 C 0.88221 0.37239 0.11749 0.0
C1580 C 0.92293 0.35289 0.62211 0.0
C1581 C 0.92185 0.35462 0.54779 0.0
C1582 C 0.89054 0.36284 0.42153 0.0
C1583 C 0.89689 0.37489 0.22858 0.0
C1584 C 0.89981 0.36902 0.30189 0.0
C1585 C 0.90808 0.35013 0.51166 0.0
C1586 C 0.90506 0.35581 0.43813 0.0
H1587 H 0.91778 0.3898 0.08931 0.0
H1588 H 0.91924 0.38686 0.21931 0.0
H1589 H 0.87668 0.37475 0.34249 0.0
H1590 H 0.88748 0.33542 0.65229 0.0
H1591 H 0.88576 0.33814 0.52226 0.0
C1592 C 0.37127 0.38267 0.36733 0.0
C1593 C 0.37713 0.39574 0.33001 0.0
C1594 C 0.36954 0.38332 0.44175 0.0
C1595 C 0.37754 0.40693 0.60445 0.0
H1596 H 0.33393 0.39769 0.64813 0.0
C1597 C 0.35218 0.42485 0.87318 0.0
C1598 C 0.34621 0.41186 0.9107 0.0
C1599 C 0.35404 0.42407 0.79885 0.0
C1600 C 0.34612 0.40031 0.63661 0.0
H1601 H 0.38798 0.41865 0.34113 0.0
H1602 H 0.38499 0.41977 0.47076 0.0
H1603 H 0.34446 0.39117 0.53004 0.0
H1604 H 0.33531 0.38896 0.89989 0.0
H1605 H 0.33853 0.38764 0.77044 0.0
H1606 H 0.37919 0.41608 0.71102 0.0
C1607 C 0.38153 0.40913 0.44301 0.0
C1608 C 0.35221 0.39639 0.56954 0.0
C1609 C 0.3832 0.40851 0.36872 0.0
C1610 C 0.34016 0.39904 0.87217 0.0
C1611 C 0.34197 0.3983 0.79798 0.0
C1612 C 0.37144 0.41084 0.67153 0.0
C1613 C 0.37378 0.39697 0.47939 0.0
C1614 C 0.36798 0.39967 0.55292 0.0
C1615 C 0.34982 0.41038 0.76149 0.0
C1616 C 0.35567 0.40759 0.68811 0.0
H1617 H 0.36662 0.37261 0.3388 0.0
H1618 H 0.36385 0.37365 0.46913 0.0
H1619 H 0.38972 0.40956 0.59289 0.0
H1620 H 0.3568 0.43495 0.90158 0.0
H1621 H 0.3598 0.43369 0.77136 0.0
C1622 C 0.39824 0.67556 0.1042 0.0
C1623 C 0.41108 0.66931 0.0665 0.0
C1624 C 0.39728 0.67377 0.17835 0.0
C1625 C 0.41805 0.66019 0.34093 0.0
H1626 H 0.37785 0.64084 0.38407 0.0
C1627 C 0.40885 0.63132 0.6102 0.0
C1628 C 0.39607 0.63777 0.64762 0.0
C1629 C 0.40978 0.63287 0.53592 0.0
C1630 C 0.38909 0.64624 0.37272 0.0
H1631 H 0.43398 0.65835 0.07705 0.0
H1632 H 0.43224 0.65512 0.20667 0.0
H1633 H 0.38246 0.652 0.26527 0.0
H1634 H 0.37326 0.64888 0.63661 0.0
H1635 H 0.37494 0.65168 0.5068 0.0
H1636 H 0.42468 0.65444 0.44839 0.0
C1637 C 0.42288 0.6613 0.17909 0.0
C1638 C 0.39169 0.65277 0.30519 0.0
C1639 C 0.42389 0.66317 0.10484 0.0
C1640 C 0.38328 0.64388 0.60905 0.0
C1641 C 0.38426 0.64551 0.53466 0.0
C1642 C 0.41546 0.65365 0.40845 0.0
C1643 C 0.40913 0.6657 0.21556 0.0
C1644 C 0.40618 0.65985 0.28882 0.0
C1645 C 0.39797 0.64091 0.49833 0.0
C1646 C 0.40096 0.6466 0.42487 0.0
H1647 H 0.38833 0.68061 0.07586 0.0
H1648 H 0.38676 0.67767 0.2058 0.0
H1649 H 0.42929 0.66561 0.32964 0.0
H1650 H 0.41873 0.62628 0.63878 0.0
H1651 H 0.42027 0.62882 0.50862 0.0
C1652 C 0.66224 0.5912 0.87068 0.0
C1653 C 0.66902 0.60359 0.90951 0.0
C1654 C 0.66053 0.5924 0.79638 0.0
C1655 C 0.65396 0.62412 0.67021 0.0
H1656 H 0.65387 0.59109 0.52712 0.0
C1657 C 0.645 0.63303 0.36616 0.0
C1658 C 0.63816 0.62058 0.32796 0.0
C1659 C 0.64681 0.63195 0.44047 0.0
C1660 C 0.65358 0.60036 0.567 0.0
H1661 H 0.68151 0.6257 0.90101 0.0
H1662 H 0.67885 0.6276 0.77099 0.0
H1663 H 0.66471 0.58586 0.64601 0.0
H1664 H 0.62565 0.5985 0.33752 0.0
H1665 H 0.62847 0.59682 0.46753 0.0
H1666 H 0.64283 0.63862 0.59115 0.0
C1667 C 0.67435 0.61727 0.79806 0.0
C1668 C 0.65993 0.59739 0.63462 0.0
C1669 C 0.67598 0.61612 0.87226 0.0
C1670 C 0.63123 0.60812 0.3658 0.0
C1671 C 0.63295 0.60709 0.43999 0.0
C1672 C 0.64761 0.6271 0.60256 0.0
C1673 C 0.66573 0.60593 0.7603 0.0
C1674 C 0.66019 0.60925 0.68678 0.0
C1675 C 0.64166 0.61848 0.47711 0.0
C1676 C 0.64732 0.61522 0.55047 0.0
H1677 H 0.65681 0.58139 0.89804 0.0
H1678 H 0.6539 0.58343 0.76843 0.0
H1679 H 0.65366 0.63338 0.71011 0.0
H1680 H 0.6504 0.64279 0.33825 0.0
H1681 H 0.6535 0.64094 0.46795 0.0
C1682 C 0.63215 0.37138 0.61376 0.0
C1683 C 0.61938 0.37737 0.65273 0.0
C1684 C 0.63112 0.36993 0.53934 0.0
C1685 C 0.59987 0.36183 0.41369 0.0
H1686 H 0.63273 0.36377 0.27008 0.0
C1687 C 0.59138 0.35226 0.11016 0.0
C1688 C 0.60424 0.34621 0.07193 0.0
C1689 C 0.59237 0.35412 0.18441 0.0
C1690 C 0.62354 0.36292 0.31012 0.0
H1691 H 0.59669 0.38886 0.64463 0.0
H1692 H 0.59506 0.38659 0.5144 0.0
H1693 H 0.63735 0.37495 0.38881 0.0
H1694 H 0.62705 0.33504 0.08133 0.0
H1695 H 0.6286 0.33796 0.2113 0.0
H1696 H 0.58607 0.34975 0.33509 0.0
C1697 C 0.60558 0.38252 0.54143 0.0
C1698 C 0.62614 0.36947 0.37758 0.0
C1699 C 0.60656 0.38389 0.61575 0.0
C1700 C 0.61711 0.34003 0.10965 0.0
C1701 C 0.61806 0.3418 0.18379 0.0
C1702 C 0.59727 0.35527 0.34623 0.0
C1703 C 0.61738 0.37458 0.5034 0.0
C1704 C 0.61433 0.36898 0.42989 0.0
C1705 C 0.60616 0.3498 0.2209 0.0
C1706 C 0.6091 0.3557 0.29402 0.0
H1707 H 0.64221 0.36635 0.64098 0.0
H1708 H 0.64044 0.36384 0.51111 0.0
H1709 H 0.59069 0.36095 0.45377 0.0
H1710 H 0.58127 0.35702 0.08232 0.0
H1711 H 0.58299 0.36024 0.21195 0.0
C1712 C 0.84038 0.61741 0.85535 0.0
C1713 C 0.84674 0.60462 0.81766 0.0
C1714 C 0.84214 0.61837 0.92951 0.0
C1715 C 0.85587 0.59772 0.09204 0.0
H1716 H 0.87503 0.63803 0.13496 0.0
C1717 C 0.88458 0.60711 0.3613 0.0
C1718 C 0.87799 0.61983 0.39861 0.0
C1719 C 0.88313 0.60619 0.28699 0.0
C1720 C 0.86969 0.62676 0.12365 0.0
H1721 H 0.85786 0.5818 0.82817 0.0
H1722 H 0.86105 0.58355 0.9578 0.0
H1723 H 0.86387 0.63333 0.01619 0.0
H1724 H 0.86674 0.64257 0.38751 0.0
H1725 H 0.8641 0.6409 0.25761 0.0
H1726 H 0.86167 0.59115 0.1995 0.0
C1727 C 0.8548 0.59286 0.93022 0.0
C1728 C 0.86315 0.62411 0.05616 0.0
C1729 C 0.85296 0.59185 0.85596 0.0
C1730 C 0.87184 0.63259 0.35999 0.0
C1731 C 0.87031 0.63162 0.28557 0.0
C1732 C 0.86241 0.60037 0.15951 0.0
C1733 C 0.8503 0.60658 0.96669 0.0
C1734 C 0.85614 0.60958 0.0399 0.0
C1735 C 0.87504 0.61795 0.2493 0.0
C1736 C 0.86939 0.6149 0.17584 0.0
H1737 H 0.83526 0.62728 0.82702 0.0
H1738 H 0.83816 0.62886 0.95698 0.0
H1739 H 0.8505 0.58645 0.0808 0.0
H1740 H 0.88965 0.59726 0.38995 0.0
H1741 H 0.88728 0.59574 0.25972 0.0
C1742 C 0.63378 0.14604 0.61323 0.0
C1743 C 0.62147 0.13895 0.57505 0.0
C1744 C 0.63266 0.14785 0.68751 0.0
C1745 C 0.60095 0.15405 0.81382 0.0
H1746 H 0.63396 0.15477 0.9571 0.0
C1747 C 0.59165 0.16242 0.11746 0.0
C1748 C 0.6039 0.16943 0.15634 0.0
C1749 C 0.59286 0.16079 0.04314 0.0
C1750 C 0.6247 0.15489 0.91715 0.0
H1751 H 0.59964 0.12602 0.58463 0.0
H1752 H 0.59789 0.12885 0.7146 0.0
H1753 H 0.63941 0.14404 0.83824 0.0
H1754 H 0.62575 0.18238 0.14796 0.0
H1755 H 0.62767 0.17985 0.01791 0.0
H1756 H 0.58623 0.1649 0.89271 0.0
C1757 C 0.60808 0.13351 0.68706 0.0
C1758 C 0.62779 0.1486 0.84956 0.0
C1759 C 0.60915 0.13179 0.6129 0.0
C1760 C 0.61627 0.17667 0.11916 0.0
C1761 C 0.61744 0.17512 0.04495 0.0
C1762 C 0.59785 0.16035 0.8814 0.0
C1763 C 0.6193 0.14245 0.72414 0.0
C1764 C 0.61593 0.14807 0.79743 0.0
C1765 C 0.60627 0.16628 0.00711 0.0
C1766 C 0.6097 0.16084 0.93361 0.0
H1767 H 0.64344 0.15162 0.58531 0.0
H1768 H 0.64153 0.15472 0.71497 0.0
H1769 H 0.59168 0.15415 0.7739 0.0
H1770 H 0.58196 0.15678 0.14477 0.0
H1771 H 0.58402 0.15399 0.01514 0.0
C1772 C 0.1317 0.40987 0.35908 0.0
C1773 C 0.13667 0.39657 0.39752 0.0
C1774 C 0.13327 0.41034 0.28475 0.0
C1775 C 0.16126 0.39504 0.15847 0.0
H1776 H 0.13617 0.41705 0.01676 0.0
C1777 C 0.17323 0.39647 0.85595 0.0
C1778 C 0.16827 0.40977 0.81751 0.0
C1779 C 0.17154 0.39596 0.93021 0.0
C1780 C 0.14341 0.41115 0.05635 0.0
H1781 H 0.14485 0.3725 0.38829 0.0
H1782 H 0.14746 0.37332 0.25793 0.0
H1783 H 0.12504 0.41146 0.13472 0.0
H1784 H 0.15996 0.4338 0.82672 0.0
H1785 H 0.15716 0.43291 0.957 0.0
H1786 H 0.17964 0.39475 0.08015 0.0
C1787 C 0.14277 0.38348 0.28555 0.0
C1788 C 0.13695 0.40777 0.12327 0.0
C1789 C 0.14115 0.383 0.35998 0.0
C1790 C 0.16366 0.42331 0.85504 0.0
C1791 C 0.16193 0.42277 0.92942 0.0
C1792 C 0.16772 0.39843 0.09156 0.0
C1793 C 0.13979 0.39749 0.24816 0.0
C1794 C 0.14583 0.39968 0.1748 0.0
C1795 C 0.16492 0.40875 0.96675 0.0
C1796 C 0.15885 0.40653 0.04003 0.0
H1797 H 0.12794 0.42041 0.38677 0.0
H1798 H 0.13079 0.42126 0.25708 0.0
H1799 H 0.1685 0.38915 0.19807 0.0
H1800 H 0.17707 0.38596 0.82824 0.0
H1801 H 0.17403 0.38503 0.95782 0.0
C1802 C 0.39821 0.84081 0.11722 0.0
C1803 C 0.41116 0.84656 0.15584 0.0
C1804 C 0.39755 0.84261 0.04301 0.0
C1805 C 0.41084 0.87178 0.91674 0.0
H1806 H 0.39055 0.84532 0.77503 0.0
C1807 C 0.40885 0.88359 0.61389 0.0
C1808 C 0.39593 0.87781 0.57516 0.0
C1809 C 0.40941 0.88194 0.6882 0.0
C1810 C 0.39596 0.85293 0.81459 0.0
H1811 H 0.43452 0.85654 0.14685 0.0
H1812 H 0.43339 0.85954 0.01663 0.0
H1813 H 0.39681 0.83459 0.89312 0.0
H1814 H 0.37254 0.86791 0.58398 0.0
H1815 H 0.37348 0.86518 0.71429 0.0
H1816 H 0.41 0.89011 0.83815 0.0
C1817 C 0.42362 0.85404 0.04407 0.0
C1818 C 0.39971 0.84672 0.88165 0.0
C1819 C 0.42431 0.85218 0.11841 0.0
C1820 C 0.38271 0.87231 0.61247 0.0
C1821 C 0.3833 0.87061 0.6869 0.0
C1822 C 0.40708 0.87799 0.84967 0.0
C1823 C 0.40983 0.85016 0.0066 0.0
C1824 C 0.40721 0.85609 0.93323 0.0
C1825 C 0.39705 0.87451 0.72457 0.0
C1826 C 0.3996 0.86862 0.79808 0.0
H1827 H 0.388 0.83622 0.14484 0.0
H1828 H 0.38681 0.83943 0.01536 0.0
H1829 H 0.41625 0.87939 0.9563 0.0
H1830 H 0.41911 0.88809 0.58633 0.0
H1831 H 0.42012 0.88513 0.716 0.0
C1832 C 0.84034 0.8988 0.36925 0.0
C1833 C 0.84689 0.91149 0.40693 0.0
C1834 C 0.84209 0.89778 0.2951 0.0
C1835 C 0.85613 0.91818 0.13246 0.0
H1836 H 0.87445 0.87746 0.08926 0.0
C1837 C 0.88481 0.90821 0.86333 0.0
C1838 C 0.8781 0.89558 0.8258 0.0
C1839 C 0.88323 0.90919 0.93757 0.0
C1840 C 0.86934 0.88885 0.10062 0.0
H1841 H 0.8584 0.93409 0.3964 0.0
H1842 H 0.86156 0.93225 0.26675 0.0
H1843 H 0.86345 0.88238 0.2081 0.0
H1844 H 0.86644 0.87307 0.83657 0.0
H1845 H 0.8636 0.87483 0.96639 0.0
H1846 H 0.86201 0.92464 0.02499 0.0
C1847 C 0.85517 0.92306 0.29433 0.0
C1848 C 0.86289 0.89163 0.16818 0.0
C1849 C 0.85333 0.92413 0.3686 0.0
C1850 C 0.87166 0.88296 0.86426 0.0
C1851 C 0.87 0.88399 0.93863 0.0
C1852 C 0.86258 0.9154 0.06491 0.0
C1853 C 0.85044 0.90941 0.25788 0.0
C1854 C 0.85619 0.9063 0.18458 0.0
C1855 C 0.8749 0.89758 0.97504 0.0
C1856 C 0.86926 0.90072 0.04848 0.0
H1857 H 0.83506 0.88902 0.39762 0.0
H1858 H 0.83794 0.88736 0.26768 0.0
H1859 H 0.851 0.92956 0.14377 0.0
H1860 H 0.89009 0.91796 0.83482 0.0
H1861 H 0.88751 0.91957 0.96494 0.0
C1862 C 0.88369 0.14255 0.10893 0.0
C1863 C 0.89687 0.13724 0.14726 0.0
C1864 C 0.88452 0.1443 0.03457 0.0
C1865 C 0.91508 0.15454 0.90837 0.0
H1866 H 0.88224 0.15087 0.76523 0.0
C1867 C 0.92292 0.16426 0.60484 0.0
C1868 C 0.90978 0.16959 0.56632 0.0
C1869 C 0.92202 0.16246 0.67914 0.0
C1870 C 0.89141 0.15222 0.80516 0.0
H1871 H 0.9202 0.1272 0.13794 0.0
H1872 H 0.92149 0.12994 0.00783 0.0
H1873 H 0.87835 0.13939 0.88395 0.0
H1874 H 0.88642 0.17961 0.57537 0.0
H1875 H 0.88502 0.17677 0.7054 0.0
H1876 H 0.92813 0.16736 0.82962 0.0
C1877 C 0.91079 0.13329 0.03533 0.0
C1878 C 0.88923 0.1455 0.87263 0.0
C1879 C 0.91 0.13163 0.10958 0.0
C1880 C 0.8966 0.17516 0.60383 0.0
C1881 C 0.89575 0.17344 0.67804 0.0
C1882 C 0.91726 0.16126 0.84092 0.0
C1883 C 0.89847 0.14061 -0.00196 0.0
C1884 C 0.90107 0.14657 0.92471 0.0
C1885 C 0.90804 0.16612 0.71547 0.0
C1886 C 0.90543 0.16018 0.78881 0.0
H1887 H 0.87337 0.14685 0.1367 0.0
H1888 H 0.87481 0.14988 0.00692 0.0
H1889 H 0.92425 0.15588 0.94829 0.0
H1890 H 0.93327 0.15999 0.57723 0.0
H1891 H 0.93172 0.15688 0.7069 0.0
C1892 C 0.13292 0.10794 0.86086 0.0
C1893 C 0.13928 0.12059 0.82222 0.0
C1894 C 0.13453 0.1073 0.93517 0.0
C1895 C 0.1641 0.11938 0.06173 0.0
H1896 H 0.13672 0.1003 0.2032 0.0
C1897 C 0.17604 0.11653 0.36437 0.0
C1898 C 0.16969 0.10386 0.4029 0.0
C1899 C 0.17429 0.11728 0.29015 0.0
C1900 C 0.14457 0.10536 0.16371 0.0
H1901 H 0.15023 0.1435 0.83111 0.0
H1902 H 0.1529 0.14242 0.96147 0.0
H1903 H 0.1263 0.10707 0.08506 0.0
H1904 H 0.15866 0.08098 0.3938 0.0
H1905 H 0.15575 0.08225 0.26354 0.0
H1906 H 0.18237 0.11766 0.14032 0.0
C1907 C 0.14703 0.13286 0.93402 0.0
C1908 C 0.13854 0.10942 0.09664 0.0
C1909 C 0.14537 0.13354 0.85958 0.0
C1910 C 0.16349 0.09097 0.3654 0.0
C1911 C 0.16169 0.09176 0.29105 0.0
C1912 C 0.17012 0.11533 0.12878 0.0
C1913 C 0.14251 0.1193 0.97162 0.0
C1914 C 0.14826 0.11648 0.04513 0.0
C1915 C 0.1662 0.10535 0.25366 0.0
C1916 C 0.16041 0.10826 0.18027 0.0
H1917 H 0.12796 0.0979 0.83323 0.0
H1918 H 0.13085 0.09674 0.96291 0.0
H1919 H 0.17195 0.12444 0.02223 0.0
H1920 H 0.18108 0.12652 0.39207 0.0
H1921 H 0.17796 0.12786 0.26257 0.0
C1922 C 0.09116 0.8526 0.60726 0.0
C1923 C 0.10411 0.84651 0.56979 0.0
C1924 C 0.09195 0.85445 0.6816 0.0
C1925 C 0.11565 0.8463 0.84395 0.0
H1926 H 0.10674 0.88999 0.88769 0.0
C1927 C 0.13348 0.8713 0.11335 0.0
C1928 C 0.12046 0.87729 0.1506 0.0
C1929 C 0.13281 0.86957 0.03892 0.0
C1930 C 0.10927 0.87778 0.87612 0.0
H1931 H 0.12692 0.83539 0.58068 0.0
H1932 H 0.12826 0.83858 0.71015 0.0
H1933 H 0.10014 0.87952 0.76952 0.0
H1934 H 0.09762 0.88833 0.13939 0.0
H1935 H 0.09649 0.88534 0.00974 0.0
H1936 H 0.12477 0.84456 0.95055 0.0
C1937 C 0.11762 0.84213 0.68257 0.0
C1938 C 0.10531 0.87172 0.80902 0.0
C1939 C 0.11687 0.84034 0.60837 0.0
C1940 C 0.10773 0.88347 0.11183 0.0
C1941 C 0.1071 0.8818 0.03755 0.0
C1942 C 0.11961 0.85235 0.91104 0.0
C1943 C 0.1056 0.8501 0.71902 0.0
C1944 C 0.10844 0.85592 0.79243 0.0
C1945 C 0.1192 0.87393 0.00121 0.0
C1946 C 0.11646 0.86815 0.92767 0.0
H1947 H 0.08111 0.85732 0.57882 0.0
H1948 H 0.08237 0.8603 0.70906 0.0
H1949 H 0.11816 0.83408 0.83242 0.0
H1950 H 0.1435 0.86656 0.14193 0.0
H1951 H 0.14245 0.86379 0.01159 0.0
loop_
_geom_bond_atom_site_label_1
_geom_bond_atom_site_label_2
_geom_bond_distance
_geom_bond_site_symmetry_2
_ccdc_geom_bond_type
Zn0 O1 2.055 . S
Zn0 O8 2.046 . S
Zn0 N16 2.036 . S
Zn0 O28 2.053 . S
Zn0 O30 2.066 . S
O1 Zn0 2.055 . S
O1 C4 1.259 1_554 S
C2 O30 1.256 . S
C2 O31 1.244 . S
Zn3 O5 2.046 . S
Zn3 O7 2.055 . S
Zn3 N9 2.036 . S
Zn3 O27 2.066 . S
Zn3 O31 2.053 . S
C4 O1 1.259 1_556 S
C4 O5 1.254 1_556 S
O5 Zn3 2.046 . S
O5 C4 1.254 1_554 S
C6 O27 1.256 . S
C6 O28 1.244 . S
O7 Zn3 2.055 . S
O7 C29 1.259 . S
O8 Zn0 2.046 . S
O8 C29 1.254 . S
N9 Zn3 2.036 . S
N9 C10 1.298 . S
N9 N12 1.398 . S
C10 N9 1.298 . S
C10 N13 1.367 . S
C10 C23 1.481 . S
C11 N12 1.299 . S
C11 N13 1.379 . S
N12 N9 1.398 . S
N12 C11 1.299 . S
N13 C10 1.367 . S
N13 C11 1.379 . S
C14 N16 1.298 . S
C14 N18 1.367 . S
C14 C22 1.481 . S
C15 N17 1.299 . S
C15 N18 1.379 . S
N16 Zn0 2.036 . S
N16 C14 1.298 . S
N16 N17 1.398 . S
N17 C15 1.299 . S
N17 N16 1.398 . S
N18 C14 1.367 . S
N18 C15 1.379 . S
H19 C22 0.980 1_556 S
H20 C22 0.981 1_556 S
H21 C22 0.980 1_556 S
C22 C14 1.481 . S
C22 H19 0.980 1_554 S
C22 H20 0.981 1_554 S
C22 H21 0.980 1_554 S
C23 C10 1.481 . S
C23 H24 0.980 . S
C23 H25 0.981 . S
C23 H26 0.981 . S
H24 C23 0.980 . S
H25 C23 0.981 . S
H26 C23 0.981 . S
O27 Zn3 2.066 . S
O27 C6 1.256 . S
O28 Zn0 2.053 . S
O28 C6 1.244 . S
C29 O7 1.259 . S
C29 O8 1.254 . S
O30 Zn0 2.066 . S
O30 C2 1.256 . S
O31 C2 1.244 . S
O31 Zn3 2.053 . S
Zn32 O33 2.055 . S
Zn32 O40 2.046 . S
Zn32 N48 2.036 . S
Zn32 O60 2.053 . S
Zn32 O62 2.066 . S
O33 Zn32 2.055 . S
O33 C36 1.259 1_556 S
C34 O62 1.256 . S
C34 O63 1.244 . S
Zn35 O37 2.046 . S
Zn35 O39 2.055 . S
Zn35 N41 2.036 . S
Zn35 O59 2.066 . S
Zn35 O63 2.053 . S
C36 O33 1.259 1_554 S
C36 O37 1.254 1_554 S
O37 Zn35 2.046 . S
O37 C36 1.254 1_556 S
C38 O59 1.256 . S
C38 O60 1.244 . S
O39 Zn35 2.055 . S
O39 C61 1.259 . S
O40 Zn32 2.046 . S
O40 C61 1.254 . S
N41 Zn35 2.036 . S
N41 C42 1.298 . S
N41 N44 1.398 . S
C42 N41 1.298 . S
C42 N45 1.367 . S
C42 C55 1.481 . S
C43 N44 1.299 . S
C43 N45 1.379 . S
N44 N41 1.398 . S
N44 C43 1.299 . S
N45 C42 1.367 . S
N45 C43 1.379 . S
C46 N48 1.298 . S
C46 N50 1.367 . S
C46 C54 1.481 . S
C47 N49 1.299 . S
C47 N50 1.379 . S
N48 Zn32 2.036 . S
N48 C46 1.298 . S
N48 N49 1.398 . S
N49 C47 1.299 . S
N49 N48 1.398 . S
N50 C46 1.367 . S
N50 C47 1.379 . S
H51 C54 0.980 1_554 S
H52 C54 0.981 1_554 S
H53 C54 0.980 1_554 S
C54 C46 1.481 . S
C54 H51 0.980 1_556 S
C54 H52 0.981 1_556 S
C54 H53 0.980 1_556 S
C55 C42 1.481 . S
C55 H56 0.980 . S
C55 H57 0.981 . S
C55 H58 0.981 . S
H56 C55 0.980 . S
H57 C55 0.981 . S
H58 C55 0.981 . S
O59 Zn35 2.066 . S
O59 C38 1.256 . S
O60 Zn32 2.053 . S
O60 C38 1.244 . S
C61 O39 1.259 . S
C61 O40 1.254 . S
O62 Zn32 2.066 . S
O62 C34 1.256 . S
O63 C34 1.244 . S
O63 Zn35 2.053 . S
Zn64 O65 2.055 . S
Zn64 O72 2.046 . S
Zn64 N80 2.036 . S
Zn64 O92 2.053 . S
Zn64 O94 2.066 . S
O65 Zn64 2.055 . S
O65 C68 1.259 . S
C66 O94 1.256 . S
C66 O95 1.244 . S
Zn67 O69 2.046 . S
Zn67 O71 2.055 . S
Zn67 N73 2.036 . S
Zn67 O91 2.066 . S
Zn67 O95 2.053 . S
C68 O65 1.259 . S
C68 O69 1.254 . S
O69 Zn67 2.046 . S
O69 C68 1.254 . S
C70 O91 1.256 . S
C70 O92 1.244 . S
O71 Zn67 2.055 . S
O71 C93 1.259 1_554 S
O72 Zn64 2.046 . S
O72 C93 1.254 1_554 S
N73 Zn67 2.036 . S
N73 C74 1.298 . S
N73 N76 1.398 . S
C74 N73 1.298 . S
C74 N77 1.367 . S
C74 C87 1.481 . S
C75 N76 1.299 . S
C75 N77 1.379 . S
N76 N73 1.398 . S
N76 C75 1.299 . S
N77 C74 1.367 . S
N77 C75 1.379 . S
C78 N80 1.298 . S
C78 N82 1.367 . S
C78 C86 1.481 . S
C79 N81 1.299 . S
C79 N82 1.379 . S
N80 Zn64 2.036 . S
N80 C78 1.298 . S
N80 N81 1.398 . S
N81 C79 1.299 . S
N81 N80 1.398 . S
N82 C78 1.367 . S
N82 C79 1.379 . S
H83 C86 0.980 . S
H84 C86 0.981 . S
H85 C86 0.981 . S
C86 C78 1.481 . S
C86 H83 0.980 . S
C86 H84 0.981 . S
C86 H85 0.981 . S
C87 C74 1.481 . S
C87 H88 0.980 1_554 S
C87 H89 0.981 1_554 S
C87 H90 0.980 1_554 S
H88 C87 0.980 1_556 S
H89 C87 0.981 1_556 S
H90 C87 0.980 1_556 S
O91 Zn67 2.066 . S
O91 C70 1.256 . S
O92 Zn64 2.053 . S
O92 C70 1.244 . S
C93 O71 1.259 1_556 S
C93 O72 1.254 1_556 S
O94 Zn64 2.066 . S
O94 C66 1.256 . S
O95 C66 1.244 . S
O95 Zn67 2.053 . S
Zn96 O97 2.055 . S
Zn96 O104 2.046 . S
Zn96 N112 2.036 . S
Zn96 O124 2.053 . S
Zn96 O126 2.066 . S
O97 Zn96 2.055 . S
O97 C100 1.259 . S
C98 O126 1.256 . S
C98 O127 1.244 . S
Zn99 O101 2.046 . S
Zn99 O103 2.055 . S
Zn99 N105 2.036 . S
Zn99 O123 2.066 . S
Zn99 O127 2.053 . S
C100 O97 1.259 . S
C100 O101 1.254 . S
O101 Zn99 2.046 . S
O101 C100 1.254 . S
C102 O123 1.256 . S
C102 O124 1.244 . S
O103 Zn99 2.055 . S
O103 C125 1.259 1_556 S
O104 Zn96 2.046 . S
O104 C125 1.254 1_556 S
N105 Zn99 2.036 . S
N105 C106 1.298 . S
N105 N108 1.398 . S
C106 N105 1.298 . S
C106 N109 1.367 . S
C106 C119 1.481 . S
C107 N108 1.299 . S
C107 N109 1.379 . S
N108 N105 1.398 . S
N108 C107 1.299 . S
N109 C106 1.367 . S
N109 C107 1.379 . S
C110 N112 1.298 . S
C110 N114 1.367 . S
C110 C118 1.481 . S
C111 N113 1.299 . S
C111 N114 1.379 . S
N112 Zn96 2.036 . S
N112 C110 1.298 . S
N112 N113 1.398 . S
N113 C111 1.299 . S
N113 N112 1.398 . S
N114 C110 1.367 . S
N114 C111 1.379 . S
H115 C118 0.980 . S
H116 C118 0.981 . S
H117 C118 0.981 . S
C118 C110 1.481 . S
C118 H115 0.980 . S
C118 H116 0.981 . S
C118 H117 0.981 . S
C119 C106 1.481 . S
C119 H120 0.980 1_556 S
C119 H121 0.981 1_556 S
C119 H122 0.980 1_556 S
H120 C119 0.980 1_554 S
H121 C119 0.981 1_554 S
H122 C119 0.980 1_554 S
O123 Zn99 2.066 . S
O123 C102 1.256 . S
O124 Zn96 2.053 . S
O124 C102 1.244 . S
C125 O103 1.259 1_554 S
C125 O104 1.254 1_554 S
O126 Zn96 2.066 . S
O126 C98 1.256 . S
O127 C98 1.244 . S
O127 Zn99 2.053 . S
Zn128 O129 2.055 . S
Zn128 O136 2.046 . S
Zn128 N144 2.036 . S
Zn128 O156 2.053 . S
Zn128 O158 2.066 . S
O129 Zn128 2.055 . S
O129 C132 1.259 . S
C130 O158 1.256 . S
C130 O159 1.244 . S
Zn131 O133 2.046 . S
Zn131 O135 2.055 . S
Zn131 N137 2.036 . S
Zn131 O155 2.066 . S
Zn131 O159 2.053 . S
C132 O129 1.259 . S
C132 O133 1.254 . S
O133 Zn131 2.046 . S
O133 C132 1.254 . S
C134 O155 1.256 1_556 S
C134 O156 1.244 1_556 S
O135 Zn131 2.055 . S
O135 C157 1.259 . S
O136 Zn128 2.046 . S
O136 C157 1.254 . S
N137 Zn131 2.036 . S
N137 C138 1.298 . S
N137 N140 1.398 . S
C138 N137 1.298 . S
C138 N141 1.367 . S
C138 C151 1.481 . S
C139 N140 1.299 . S
C139 N141 1.379 . S
N140 N137 1.398 . S
N140 C139 1.299 . S
N141 C138 1.367 . S
N141 C139 1.379 . S
C142 N144 1.298 . S
C142 N146 1.367 . S
C142 C150 1.481 . S
C143 N145 1.299 . S
C143 N146 1.379 . S
N144 Zn128 2.036 . S
N144 C142 1.298 . S
N144 N145 1.398 . S
N145 C143 1.299 . S
N145 N144 1.398 . S
N146 C142 1.367 . S
N146 C143 1.379 . S
H147 C150 0.980 . S
H148 C150 0.981 . S
H149 C150 0.981 . S
C150 C142 1.481 . S
C150 H147 0.980 . S
C150 H148 0.981 . S
C150 H149 0.981 . S
C151 C138 1.481 . S
C151 H152 0.980 . S
C151 H153 0.981 . S
C151 H154 0.981 1_554 S
H152 C151 0.980 . S
H153 C151 0.981 . S
H154 C151 0.981 1_556 S
O155 Zn131 2.066 . S
O155 C134 1.256 1_554 S
O156 Zn128 2.053 . S
O156 C134 1.244 1_554 S
C157 O135 1.259 . S
C157 O136 1.254 . S
O158 Zn128 2.066 . S
O158 C130 1.256 . S
O159 C130 1.244 . S
O159 Zn131 2.053 . S
Zn160 O161 2.055 . S
Zn160 O168 2.046 . S
Zn160 N176 2.036 . S
Zn160 O188 2.053 . S
Zn160 O190 2.066 . S
O161 Zn160 2.055 . S
O161 C164 1.259 . S
C162 O190 1.256 1_554 S
C162 O191 1.244 1_554 S
Zn163 O165 2.046 . S
Zn163 O167 2.055 . S
Zn163 N169 2.036 . S
Zn163 O187 2.066 . S
Zn163 O191 2.053 . S
C164 O161 1.259 . S
C164 O165 1.254 . S
O165 Zn163 2.046 . S
O165 C164 1.254 . S
C166 O187 1.256 . S
C166 O188 1.244 . S
O167 Zn163 2.055 . S
O167 C189 1.259 . S
O168 Zn160 2.046 . S
O168 C189 1.254 . S
N169 Zn163 2.036 . S
N169 C170 1.298 . S
N169 N172 1.398 . S
C170 N169 1.298 . S
C170 N173 1.367 . S
C170 C183 1.481 . S
C171 N172 1.299 . S
C171 N173 1.379 . S
N172 N169 1.398 . S
N172 C171 1.299 . S
N173 C170 1.367 . S
N173 C171 1.379 . S
C174 N176 1.298 . S
C174 N178 1.367 . S
C174 C182 1.481 . S
C175 N177 1.299 . S
C175 N178 1.379 . S
N176 Zn160 2.036 . S
N176 C174 1.298 . S
N176 N177 1.398 . S
N177 C175 1.299 . S
N177 N176 1.398 . S
N178 C174 1.367 . S
N178 C175 1.379 . S
H179 C182 0.980 . S
H180 C182 0.981 . S
H181 C182 0.981 1_554 S
C182 C174 1.481 . S
C182 H179 0.980 . S
C182 H180 0.981 . S
C182 H181 0.981 1_556 S
C183 C170 1.481 . S
C183 H184 0.980 . S
C183 H185 0.981 . S
C183 H186 0.981 . S
H184 C183 0.980 . S
H185 C183 0.981 . S
H186 C183 0.981 . S
O187 Zn163 2.066 . S
O187 C166 1.256 . S
O188 Zn160 2.053 . S
O188 C166 1.244 . S
C189 O167 1.259 . S
C189 O168 1.254 . S
O190 Zn160 2.066 . S
O190 C162 1.256 1_556 S
O191 C162 1.244 1_556 S
O191 Zn163 2.053 . S
Zn192 O193 2.055 . S
Zn192 O200 2.046 . S
Zn192 N208 2.036 . S
Zn192 O220 2.053 . S
Zn192 O222 2.066 . S
O193 Zn192 2.055 . S
O193 C196 1.259 . S
C194 O222 1.256 . S
C194 O223 1.244 . S
Zn195 O197 2.046 . S
Zn195 O199 2.055 . S
Zn195 N201 2.036 . S
Zn195 O219 2.066 . S
Zn195 O223 2.053 . S
C196 O193 1.259 . S
C196 O197 1.254 . S
O197 Zn195 2.046 . S
O197 C196 1.254 . S
C198 O219 1.256 1_556 S
C198 O220 1.244 1_556 S
O199 Zn195 2.055 . S
O199 C221 1.259 . S
O200 Zn192 2.046 . S
O200 C221 1.254 . S
N201 Zn195 2.036 . S
N201 C202 1.298 . S
N201 N204 1.398 . S
C202 N201 1.298 . S
C202 N205 1.367 . S
C202 C215 1.481 . S
C203 N204 1.299 . S
C203 N205 1.379 . S
N204 N201 1.398 . S
N204 C203 1.299 . S
N205 C202 1.367 . S
N205 C203 1.379 . S
C206 N208 1.298 . S
C206 N210 1.367 . S
C206 C214 1.481 . S
C207 N209 1.299 . S
C207 N210 1.379 . S
N208 Zn192 2.036 . S
N208 C206 1.298 . S
N208 N209 1.398 . S
N209 C207 1.299 . S
N209 N208 1.398 . S
N210 C206 1.367 . S
N210 C207 1.379 . S
H211 C214 0.980 . S
H212 C214 0.981 . S
H213 C214 0.981 . S
C214 C206 1.481 . S
C214 H211 0.980 . S
C214 H212 0.981 . S
C214 H213 0.981 . S
C215 C202 1.481 . S
C215 H216 0.980 . S
C215 H217 0.981 . S
C215 H218 0.981 1_554 S
H216 C215 0.980 . S
H217 C215 0.981 . S
H218 C215 0.981 1_556 S
O219 Zn195 2.066 . S
O219 C198 1.256 1_554 S
O220 Zn192 2.053 . S
O220 C198 1.244 1_554 S
C221 O199 1.259 . S
C221 O200 1.254 . S
O222 Zn192 2.066 . S
O222 C194 1.256 . S
O223 C194 1.244 . S
O223 Zn195 2.053 . S
Zn224 O225 2.055 . S
Zn224 O232 2.046 . S
Zn224 N240 2.036 . S
Zn224 O252 2.053 . S
Zn224 O254 2.066 . S
O225 Zn224 2.055 . S
O225 C228 1.259 . S
C226 O254 1.256 . S
C226 O255 1.244 . S
Zn227 O229 2.046 . S
Zn227 O231 2.055 . S
Zn227 N233 2.036 . S
Zn227 O251 2.066 . S
Zn227 O255 2.053 . S
C228 O225 1.259 . S
C228 O229 1.254 . S
O229 Zn227 2.046 . S
O229 C228 1.254 . S
C230 O251 1.256 1_554 S
C230 O252 1.244 1_554 S
O231 Zn227 2.055 . S
O231 C253 1.259 . S
O232 Zn224 2.046 . S
O232 C253 1.254 . S
N233 Zn227 2.036 . S
N233 C234 1.298 . S
N233 N236 1.398 . S
C234 N233 1.298 . S
C234 N237 1.367 . S
C234 C247 1.481 . S
C235 N236 1.299 . S
C235 N237 1.379 . S
N236 N233 1.398 . S
N236 C235 1.299 . S
N237 C234 1.367 . S
N237 C235 1.379 . S
C238 N240 1.298 . S
C238 N242 1.367 . S
C238 C246 1.481 . S
C239 N241 1.299 . S
C239 N242 1.379 . S
N240 Zn224 2.036 . S
N240 C238 1.298 . S
N240 N241 1.398 . S
N241 C239 1.299 . S
N241 N240 1.398 . S
N242 C238 1.367 . S
N242 C239 1.379 . S
H243 C246 0.980 . S
H244 C246 0.981 . S
H245 C246 0.981 . S
C246 C238 1.481 . S
C246 H243 0.980 . S
C246 H244 0.981 . S
C246 H245 0.981 . S
C247 C234 1.481 . S
C247 H248 0.980 . S
C247 H249 0.981 . S
C247 H250 0.981 1_556 S
H248 C247 0.980 . S
H249 C247 0.981 . S
H250 C247 0.981 1_554 S
O251 Zn227 2.066 . S
O251 C230 1.256 1_556 S
O252 Zn224 2.053 . S
O252 C230 1.244 1_556 S
C253 O231 1.259 . S
C253 O232 1.254 . S
O254 Zn224 2.066 . S
O254 C226 1.256 . S
O255 C226 1.244 . S
O255 Zn227 2.053 . S
Zn256 O257 2.055 . S
Zn256 O264 2.046 . S
Zn256 N272 2.036 . S
Zn256 O284 2.053 . S
Zn256 O286 2.066 . S
O257 Zn256 2.055 . S
O257 C260 1.259 . S
C258 O286 1.256 . S
C258 O287 1.244 . S
Zn259 O261 2.046 . S
Zn259 O263 2.055 . S
Zn259 N265 2.036 . S
Zn259 O283 2.066 . S
Zn259 O287 2.053 . S
C260 O257 1.259 . S
C260 O261 1.254 . S
O261 Zn259 2.046 . S
O261 C260 1.254 . S
C262 O283 1.256 . S
C262 O284 1.244 . S
O263 Zn259 2.055 . S
O263 C285 1.259 . S
O264 Zn256 2.046 . S
O264 C285 1.254 . S
N265 Zn259 2.036 . S
N265 C266 1.298 . S
N265 N268 1.398 . S
C266 N265 1.298 . S
C266 N269 1.367 . S
C266 C279 1.481 . S
C267 N268 1.299 . S
C267 N269 1.379 . S
N268 N265 1.398 . S
N268 C267 1.299 . S
N269 C266 1.367 . S
N269 C267 1.379 . S
C270 N272 1.298 . S
C270 N274 1.367 . S
C270 C278 1.481 . S
C271 N273 1.299 . S
C271 N274 1.379 . S
N272 Zn256 2.036 . S
N272 C270 1.298 . S
N272 N273 1.398 . S
N273 C271 1.299 . S
N273 N272 1.398 . S
N274 C270 1.367 . S
N274 C271 1.379 . S
H275 C278 0.980 . S
H276 C278 0.981 . S
H277 C278 0.981 . S
C278 C270 1.481 . S
C278 H275 0.980 . S
C278 H276 0.981 . S
C278 H277 0.981 . S
C279 C266 1.481 . S
C279 H280 0.980 . S
C279 H281 0.981 . S
C279 H282 0.981 . S
H280 C279 0.980 . S
H281 C279 0.981 . S
H282 C279 0.981 . S
O283 Zn259 2.066 . S
O283 C262 1.256 . S
O284 Zn256 2.053 . S
O284 C262 1.244 . S
C285 O263 1.259 . S
C285 O264 1.254 . S
O286 Zn256 2.066 . S
O286 C258 1.256 . S
O287 C258 1.244 . S
O287 Zn259 2.053 . S
Zn288 O289 2.055 . S
Zn288 O296 2.046 . S
Zn288 N304 2.036 . S
Zn288 O316 2.053 . S
Zn288 O318 2.066 . S
O289 Zn288 2.055 . S
O289 C292 1.259 . S
C290 O318 1.256 . S
C290 O319 1.244 . S
Zn291 O293 2.046 . S
Zn291 O295 2.055 . S
Zn291 N297 2.036 . S
Zn291 O315 2.066 . S
Zn291 O319 2.053 . S
C292 O289 1.259 . S
C292 O293 1.254 . S
O293 Zn291 2.046 . S
O293 C292 1.254 . S
C294 O315 1.256 . S
C294 O316 1.244 . S
O295 Zn291 2.055 . S
O295 C317 1.259 . S
O296 Zn288 2.046 . S
O296 C317 1.254 . S
N297 Zn291 2.036 . S
N297 C298 1.298 . S
N297 N300 1.398 . S
C298 N297 1.298 . S
C298 N301 1.367 . S
C298 C311 1.481 . S
C299 N300 1.299 . S
C299 N301 1.379 . S
N300 N297 1.398 . S
N300 C299 1.299 . S
N301 C298 1.367 . S
N301 C299 1.379 . S
C302 N304 1.298 . S
C302 N306 1.367 . S
C302 C310 1.481 . S
C303 N305 1.299 . S
C303 N306 1.379 . S
N304 Zn288 2.036 . S
N304 C302 1.298 . S
N304 N305 1.398 . S
N305 C303 1.299 . S
N305 N304 1.398 . S
N306 C302 1.367 . S
N306 C303 1.379 . S
H307 C310 0.980 . S
H308 C310 0.981 . S
H309 C310 0.981 . S
C310 C302 1.481 . S
C310 H307 0.980 . S
C310 H308 0.981 . S
C310 H309 0.981 . S
C311 C298 1.481 . S
C311 H312 0.980 . S
C311 H313 0.981 . S
C311 H314 0.981 . S
H312 C311 0.980 . S
H313 C311 0.981 . S
H314 C311 0.981 . S
O315 Zn291 2.066 . S
O315 C294 1.256 . S
O316 Zn288 2.053 . S
O316 C294 1.244 . S
C317 O295 1.259 . S
C317 O296 1.254 . S
O318 Zn288 2.066 . S
O318 C290 1.256 . S
O319 C290 1.244 . S
O319 Zn291 2.053 . S
Zn320 O321 2.055 . S
Zn320 O328 2.046 . S
Zn320 N336 2.036 . S
Zn320 O348 2.053 . S
Zn320 O350 2.066 . S
O321 Zn320 2.055 . S
O321 C324 1.259 . S
C322 O350 1.256 . S
C322 O351 1.244 . S
Zn323 O325 2.046 . S
Zn323 O327 2.055 . S
Zn323 N329 2.036 . S
Zn323 O347 2.066 . S
Zn323 O351 2.053 . S
C324 O321 1.259 . S
C324 O325 1.254 . S
O325 Zn323 2.046 . S
O325 C324 1.254 . S
C326 O347 1.256 . S
C326 O348 1.244 . S
O327 Zn323 2.055 . S
O327 C349 1.259 . S
O328 Zn320 2.046 . S
O328 C349 1.254 . S
N329 Zn323 2.036 . S
N329 C330 1.298 . S
N329 N332 1.398 . S
C330 N329 1.298 . S
C330 N333 1.367 . S
C330 C343 1.481 . S
C331 N332 1.299 . S
C331 N333 1.379 . S
N332 N329 1.398 . S
N332 C331 1.299 . S
N333 C330 1.367 . S
N333 C331 1.379 . S
C334 N336 1.298 . S
C334 N338 1.367 . S
C334 C342 1.481 . S
C335 N337 1.299 . S
C335 N338 1.379 . S
N336 Zn320 2.036 . S
N336 C334 1.298 . S
N336 N337 1.398 . S
N337 C335 1.299 . S
N337 N336 1.398 . S
N338 C334 1.367 . S
N338 C335 1.379 . S
H339 C342 0.980 . S
H340 C342 0.981 . S
H341 C342 0.981 . S
C342 C334 1.481 . S
C342 H339 0.980 . S
C342 H340 0.981 . S
C342 H341 0.981 . S
C343 C330 1.481 . S
C343 H344 0.980 . S
C343 H345 0.981 . S
C343 H346 0.981 . S
H344 C343 0.980 . S
H345 C343 0.981 . S
H346 C343 0.981 . S
O347 Zn323 2.066 . S
O347 C326 1.256 . S
O348 Zn320 2.053 . S
O348 C326 1.244 . S
C349 O327 1.259 . S
C349 O328 1.254 . S
O350 Zn320 2.066 . S
O350 C322 1.256 . S
O351 C322 1.244 . S
O351 Zn323 2.053 . S
Zn352 O353 2.055 . S
Zn352 O360 2.046 . S
Zn352 N368 2.036 . S
Zn352 O380 2.053 . S
Zn352 O382 2.066 . S
O353 Zn352 2.055 . S
O353 C356 1.259 . S
C354 O382 1.256 . S
C354 O383 1.244 . S
Zn355 O357 2.046 . S
Zn355 O359 2.055 . S
Zn355 N361 2.036 . S
Zn355 O379 2.066 . S
Zn355 O383 2.053 . S
C356 O353 1.259 . S
C356 O357 1.254 . S
O357 Zn355 2.046 . S
O357 C356 1.254 . S
C358 O379 1.256 . S
C358 O380 1.244 . S
O359 Zn355 2.055 . S
O359 C381 1.259 . S
O360 Zn352 2.046 . S
O360 C381 1.254 . S
N361 Zn355 2.036 . S
N361 C362 1.298 . S
N361 N364 1.398 . S
C362 N361 1.298 . S
C362 N365 1.367 . S
C362 C375 1.481 . S
C363 N364 1.299 . S
C363 N365 1.379 . S
N364 N361 1.398 . S
N364 C363 1.299 . S
N365 C362 1.367 . S
N365 C363 1.379 . S
C366 N368 1.298 . S
C366 N370 1.367 . S
C366 C374 1.481 . S
C367 N369 1.299 . S
C367 N370 1.379 . S
N368 Zn352 2.036 . S
N368 C366 1.298 . S
N368 N369 1.398 . S
N369 C367 1.299 . S
N369 N368 1.398 . S
N370 C366 1.367 . S
N370 C367 1.379 . S
H371 C374 0.980 . S
H372 C374 0.981 . S
H373 C374 0.981 . S
C374 C366 1.481 . S
C374 H371 0.980 . S
C374 H372 0.981 . S
C374 H373 0.981 . S
C375 C362 1.481 . S
C375 H376 0.980 . S
C375 H377 0.981 . S
C375 H378 0.981 . S
H376 C375 0.980 . S
H377 C375 0.981 . S
H378 C375 0.981 . S
O379 Zn355 2.066 . S
O379 C358 1.256 . S
O380 Zn352 2.053 . S
O380 C358 1.244 . S
C381 O359 1.259 . S
C381 O360 1.254 . S
O382 Zn352 2.066 . S
O382 C354 1.256 . S
O383 C354 1.244 . S
O383 Zn355 2.053 . S
Zn384 O385 2.055 . S
Zn384 O392 2.046 . S
Zn384 N400 2.036 . S
Zn384 O412 2.053 . S
Zn384 O414 2.066 . S
O385 Zn384 2.055 . S
O385 C388 1.259 . S
C386 O414 1.256 . S
C386 O415 1.244 . S
Zn387 O389 2.046 . S
Zn387 O391 2.055 . S
Zn387 N393 2.036 . S
Zn387 O411 2.066 . S
Zn387 O415 2.053 . S
C388 O385 1.259 . S
C388 O389 1.254 . S
O389 Zn387 2.046 . S
O389 C388 1.254 . S
C390 O411 1.256 . S
C390 O412 1.244 . S
O391 Zn387 2.055 . S
O391 C413 1.259 . S
O392 Zn384 2.046 . S
O392 C413 1.254 . S
N393 Zn387 2.036 . S
N393 C394 1.298 . S
N393 N396 1.398 . S
C394 N393 1.298 . S
C394 N397 1.367 . S
C394 C407 1.481 . S
C395 N396 1.299 . S
C395 N397 1.379 . S
N396 N393 1.398 . S
N396 C395 1.299 . S
N397 C394 1.367 . S
N397 C395 1.379 . S
C398 N400 1.298 . S
C398 N402 1.367 . S
C398 C406 1.481 . S
C399 N401 1.299 . S
C399 N402 1.379 . S
N400 Zn384 2.036 . S
N400 C398 1.298 . S
N400 N401 1.398 . S
N401 C399 1.299 . S
N401 N400 1.398 . S
N402 C398 1.367 . S
N402 C399 1.379 . S
H403 C406 0.980 . S
H404 C406 0.981 . S
H405 C406 0.981 . S
C406 C398 1.481 . S
C406 H403 0.980 . S
C406 H404 0.981 . S
C406 H405 0.981 . S
C407 C394 1.481 . S
C407 H408 0.980 . S
C407 H409 0.981 . S
C407 H410 0.981 . S
H408 C407 0.980 . S
H409 C407 0.981 . S
H410 C407 0.981 . S
O411 Zn387 2.066 . S
O411 C390 1.256 . S
O412 Zn384 2.053 . S
O412 C390 1.244 . S
C413 O391 1.259 . S
C413 O392 1.254 . S
O414 Zn384 2.066 . S
O414 C386 1.256 . S
O415 C386 1.244 . S
O415 Zn387 2.053 . S
Zn416 O417 2.055 . S
Zn416 O424 2.046 . S
Zn416 N432 2.036 . S
Zn416 O444 2.053 . S
Zn416 O446 2.066 . S
O417 Zn416 2.055 . S
O417 C420 1.259 . S
C418 O446 1.256 . S
C418 O447 1.244 . S
Zn419 O421 2.046 . S
Zn419 O423 2.055 . S
Zn419 N425 2.036 . S
Zn419 O443 2.066 . S
Zn419 O447 2.053 . S
C420 O417 1.259 . S
C420 O421 1.254 . S
O421 Zn419 2.046 . S
O421 C420 1.254 . S
C422 O443 1.256 . S
C422 O444 1.244 . S
O423 Zn419 2.055 . S
O423 C445 1.259 . S
O424 Zn416 2.046 . S
O424 C445 1.254 . S
N425 Zn419 2.036 . S
N425 C426 1.298 . S
N425 N428 1.398 . S
C426 N425 1.298 . S
C426 N429 1.367 . S
C426 C439 1.481 . S
C427 N428 1.299 . S
C427 N429 1.379 . S
N428 N425 1.398 . S
N428 C427 1.299 . S
N429 C426 1.367 . S
N429 C427 1.379 . S
C430 N432 1.298 . S
C430 N434 1.367 . S
C430 C438 1.481 . S
C431 N433 1.299 . S
C431 N434 1.379 . S
N432 Zn416 2.036 . S
N432 C430 1.298 . S
N432 N433 1.398 . S
N433 C431 1.299 . S
N433 N432 1.398 . S
N434 C430 1.367 . S
N434 C431 1.379 . S
H435 C438 0.980 . S
H436 C438 0.981 . S
H437 C438 0.981 . S
C438 C430 1.481 . S
C438 H435 0.980 . S
C438 H436 0.981 . S
C438 H437 0.981 . S
C439 C426 1.481 . S
C439 H440 0.980 . S
C439 H441 0.981 . S
C439 H442 0.981 . S
H440 C439 0.980 . S
H441 C439 0.981 . S
H442 C439 0.981 . S
O443 Zn419 2.066 . S
O443 C422 1.256 . S
O444 Zn416 2.053 . S
O444 C422 1.244 . S
C445 O423 1.259 . S
C445 O424 1.254 . S
O446 Zn416 2.066 . S
O446 C418 1.256 . S
O447 C418 1.244 . S
O447 Zn419 2.053 . S
Zn448 O449 2.055 . S
Zn448 O456 2.046 . S
Zn448 N464 2.036 . S
Zn448 O476 2.053 . S
Zn448 O478 2.066 . S
O449 Zn448 2.055 . S
O449 C452 1.259 . S
C450 O478 1.256 . S
C450 O479 1.244 . S
Zn451 O453 2.046 . S
Zn451 O455 2.055 . S
Zn451 N457 2.036 . S
Zn451 O475 2.066 . S
Zn451 O479 2.053 . S
C452 O449 1.259 . S
C452 O453 1.254 . S
O453 Zn451 2.046 . S
O453 C452 1.254 . S
C454 O475 1.256 . S
C454 O476 1.244 . S
O455 Zn451 2.055 . S
O455 C477 1.259 . S
O456 Zn448 2.046 . S
O456 C477 1.254 . S
N457 Zn451 2.036 . S
N457 C458 1.298 . S
N457 N460 1.398 . S
C458 N457 1.298 . S
C458 N461 1.367 . S
C458 C471 1.481 . S
C459 N460 1.299 . S
C459 N461 1.379 . S
N460 N457 1.398 . S
N460 C459 1.299 . S
N461 C458 1.367 . S
N461 C459 1.379 . S
C462 N464 1.298 . S
C462 N466 1.367 . S
C462 C470 1.481 . S
C463 N465 1.299 . S
C463 N466 1.379 . S
N464 Zn448 2.036 . S
N464 C462 1.298 . S
N464 N465 1.398 . S
N465 C463 1.299 . S
N465 N464 1.398 . S
N466 C462 1.367 . S
N466 C463 1.379 . S
H467 C470 0.980 . S
H468 C470 0.981 . S
H469 C470 0.981 . S
C470 C462 1.481 . S
C470 H467 0.980 . S
C470 H468 0.981 . S
C470 H469 0.981 . S
C471 C458 1.481 . S
C471 H472 0.980 . S
C471 H473 0.981 . S
C471 H474 0.981 . S
H472 C471 0.980 . S
H473 C471 0.981 . S
H474 C471 0.981 . S
O475 Zn451 2.066 . S
O475 C454 1.256 . S
O476 Zn448 2.053 . S
O476 C454 1.244 . S
C477 O455 1.259 . S
C477 O456 1.254 . S
O478 Zn448 2.066 . S
O478 C450 1.256 . S
O479 C450 1.244 . S
O479 Zn451 2.053 . S
Zn480 O481 2.055 . S
Zn480 O488 2.046 . S
Zn480 N496 2.036 . S
Zn480 O508 2.053 . S
Zn480 O510 2.066 . S
O481 Zn480 2.055 . S
O481 C484 1.259 . S
C482 O510 1.256 . S
C482 O511 1.244 . S
Zn483 O485 2.046 . S
Zn483 O487 2.055 . S
Zn483 N489 2.036 . S
Zn483 O507 2.066 . S
Zn483 O511 2.053 . S
C484 O481 1.259 . S
C484 O485 1.254 . S
O485 Zn483 2.046 . S
O485 C484 1.254 . S
C486 O507 1.256 . S
C486 O508 1.244 . S
O487 Zn483 2.055 . S
O487 C509 1.259 . S
O488 Zn480 2.046 . S
O488 C509 1.254 . S
N489 Zn483 2.036 . S
N489 C490 1.298 . S
N489 N492 1.398 . S
C490 N489 1.298 . S
C490 N493 1.367 . S
C490 C503 1.481 . S
C491 N492 1.299 . S
C491 N493 1.379 . S
N492 N489 1.398 . S
N492 C491 1.299 . S
N493 C490 1.367 . S
N493 C491 1.379 . S
C494 N496 1.298 . S
C494 N498 1.367 . S
C494 C502 1.481 . S
C495 N497 1.299 . S
C495 N498 1.379 . S
N496 Zn480 2.036 . S
N496 C494 1.298 . S
N496 N497 1.398 . S
N497 C495 1.299 . S
N497 N496 1.398 . S
N498 C494 1.367 . S
N498 C495 1.379 . S
H499 C502 0.980 . S
H500 C502 0.981 . S
H501 C502 0.981 . S
C502 C494 1.481 . S
C502 H499 0.980 . S
C502 H500 0.981 . S
C502 H501 0.981 . S
C503 C490 1.481 . S
C503 H504 0.980 . S
C503 H505 0.981 . S
C503 H506 0.981 . S
H504 C503 0.980 . S
H505 C503 0.981 . S
H506 C503 0.981 . S
O507 Zn483 2.066 . S
O507 C486 1.256 . S
O508 Zn480 2.053 . S
O508 C486 1.244 . S
C509 O487 1.259 . S
C509 O488 1.254 . S
O510 Zn480 2.066 . S
O510 C482 1.256 . S
O511 C482 1.244 . S
O511 Zn483 2.053 . S
C512 C513 1.349 . S
C512 C514 1.327 . S
C512 H537 0.950 . S
C513 C512 1.349 . S
C513 C529 1.349 . S
C514 C512 1.327 . S
C514 C533 1.429 . S
C514 H538 0.950 . S
C515 C532 1.574 . S
C515 C534 1.368 . S
C515 H539 0.949 . S
H516 C520 0.949 . S
C517 C518 1.349 . S
C517 C519 1.327 . S
C517 H540 0.950 . S
C518 C517 1.349 . S
C518 C530 1.349 . S
C519 C517 1.327 . S
C519 C535 1.429 1_545 S
C519 H541 0.950 . S
C520 H516 0.949 . S
C520 C528 1.574 . S
C520 C536 1.368 . S
H521 C529 0.950 . S
H522 C527 0.950 . S
H523 C528 0.949 . S
H524 C530 0.950 . S
H525 C531 0.950 1_565 S
H526 C532 0.949 . S
C527 H522 0.950 . S
C527 C529 1.327 . S
C527 C533 1.429 . S
C528 C520 1.574 . S
C528 H523 0.949 . S
C528 C534 1.368 . S
C529 C513 1.349 . S
C529 H521 0.950 . S
C529 C527 1.327 . S
C530 C518 1.349 . S
C530 H524 0.950 . S
C530 C531 1.327 . S
C531 H525 0.950 1_545 S
C531 C530 1.327 . S
C531 C535 1.429 1_545 S
C532 C515 1.574 . S
C532 H526 0.949 . S
C532 C536 1.368 . S
C533 C514 1.429 . S
C533 C527 1.429 . S
C533 C534 1.523 . S
C534 C515 1.368 . S
C534 C528 1.368 . S
C534 C533 1.523 . S
C535 C519 1.429 1_565 S
C535 C531 1.429 1_565 S
C535 C536 1.523 . S
C536 C520 1.368 . S
C536 C532 1.368 . S
C536 C535 1.523 . S
H537 C512 0.950 . S
H538 C514 0.950 . S
H539 C515 0.949 . S
H540 C517 0.950 . S
H541 C519 0.950 . S
C542 C543 1.349 . S
C542 C544 1.327 . S
C542 H567 0.950 . S
C543 C542 1.349 . S
C543 C559 1.349 . S
C544 C542 1.327 . S
C544 C563 1.429 . S
C544 H568 0.950 . S
C545 C562 1.574 . S
C545 C564 1.368 . S
C545 H569 0.949 . S
H546 C550 0.949 . S
C547 C548 1.349 . S
C547 C549 1.327 . S
C547 H570 0.950 . S
C548 C547 1.349 . S
C548 C560 1.349 . S
C549 C547 1.327 . S
C549 C565 1.429 1_455 S
C549 H571 0.950 . S
C550 H546 0.949 . S
C550 C558 1.574 . S
C550 C566 1.368 . S
H551 C559 0.950 . S
H552 C557 0.950 . S
H553 C558 0.949 . S
H554 C560 0.950 . S
H555 C561 0.950 1_655 S
H556 C562 0.949 . S
C557 H552 0.950 . S
C557 C559 1.327 . S
C557 C563 1.429 . S
C558 C550 1.574 . S
C558 H553 0.949 . S
C558 C564 1.368 . S
C559 C543 1.349 . S
C559 H551 0.950 . S
C559 C557 1.327 . S
C560 C548 1.349 . S
C560 H554 0.950 . S
C560 C561 1.327 . S
C561 H555 0.950 1_455 S
C561 C560 1.327 . S
C561 C565 1.429 1_455 S
C562 C545 1.574 . S
C562 H556 0.949 . S
C562 C566 1.368 . S
C563 C544 1.429 . S
C563 C557 1.429 . S
C563 C564 1.523 . S
C564 C545 1.368 . S
C564 C558 1.368 . S
C564 C563 1.523 . S
C565 C549 1.429 1_655 S
C565 C561 1.429 1_655 S
C565 C566 1.523 . S
C566 C550 1.368 . S
C566 C562 1.368 . S
C566 C565 1.523 . S
H567 C542 0.950 . S
H568 C544 0.950 . S
H569 C545 0.949 . S
H570 C547 0.950 . S
H571 C549 0.950 . S
C572 C573 1.349 . S
C572 C574 1.327 . S
C572 H597 0.950 . S
C573 C572 1.349 . S
C573 C589 1.349 . S
C574 C572 1.327 . S
C574 C593 1.429 1_565 S
C574 H598 0.916 1_565 S
C575 C592 1.574 . S
C575 C594 1.368 . S
C575 H599 0.949 . S
H576 C580 0.949 . S
C577 C578 1.349 . S
C577 C579 1.327 . S
C577 H600 0.950 . S
C578 C577 1.349 . S
C578 C590 1.349 . S
C579 C577 1.327 . S
C579 C595 1.429 . S
C579 H601 0.950 . S
C580 H576 0.949 . S
C580 C588 1.574 . S
C580 C596 1.368 . S
H581 C589 0.950 . S
H582 C587 0.950 . S
H583 C588 0.949 . S
H584 C590 0.950 . S
H585 C591 0.950 . S
H586 C592 0.949 . S
C587 H582 0.950 . S
C587 C589 1.327 . S
C587 C593 1.429 1_565 S
C588 C580 1.574 . S
C588 H583 0.949 . S
C588 C594 1.368 . S
C589 C573 1.349 . S
C589 H581 0.950 . S
C589 C587 1.327 . S
C590 C578 1.349 . S
C590 H584 0.950 . S
C590 C591 1.327 . S
C591 H585 0.950 . S
C591 C590 1.327 . S
C591 C595 1.429 . S
C592 C575 1.574 . S
C592 H586 0.949 . S
C592 C596 1.368 . S
C593 C574 1.429 1_545 S
C593 C587 1.429 1_545 S
C593 C594 1.523 . S
C594 C575 1.368 . S
C594 C588 1.368 . S
C594 C593 1.523 . S
C595 C579 1.429 . S
C595 C591 1.429 . S
C595 C596 1.523 . S
C596 C580 1.368 . S
C596 C592 1.368 . S
C596 C595 1.523 . S
H597 C572 0.950 . S
H598 C574 0.916 1_545 S
H599 C575 0.949 . S
H600 C577 0.950 . S
H601 C579 0.950 . S
C602 C603 1.349 . S
C602 C604 1.327 . S
C602 H627 0.950 . S
C603 C602 1.349 . S
C603 C619 1.349 . S
C604 C602 1.327 . S
C604 C623 1.429 1_655 S
C604 H628 0.950 1_655 S
C605 C622 1.574 . S
C605 C624 1.368 . S
C605 H629 0.949 . S
H606 C610 0.949 . S
C607 C608 1.349 . S
C607 C609 1.327 . S
C607 H630 0.950 . S
C608 C607 1.349 . S
C608 C620 1.349 . S
C609 C607 1.327 . S
C609 C625 1.429 . S
C609 H631 0.950 . S
C610 H606 0.949 . S
C610 C618 1.574 . S
C610 C626 1.368 . S
H611 C619 0.950 . S
H612 C617 0.950 . S
H613 C618 0.949 . S
H614 C620 0.950 . S
H615 C621 0.950 . S
H616 C622 0.949 . S
C617 H612 0.950 . S
C617 C619 1.327 . S
C617 C623 1.429 1_655 S
C618 C610 1.574 . S
C618 H613 0.949 . S
C618 C624 1.368 . S
C619 C603 1.349 . S
C619 H611 0.950 . S
C619 C617 1.327 . S
C620 C608 1.349 . S
C620 H614 0.950 . S
C620 C621 1.327 . S
C621 H615 0.950 . S
C621 C620 1.327 . S
C621 C625 1.429 . S
C622 C605 1.574 . S
C622 H616 0.949 . S
C622 C626 1.368 . S
C623 C604 1.429 1_455 S
C623 C617 1.429 1_455 S
C623 C624 1.523 . S
C624 C605 1.368 . S
C624 C618 1.368 . S
C624 C623 1.523 . S
C625 C609 1.429 . S
C625 C621 1.429 . S
C625 C626 1.523 . S
C626 C610 1.368 . S
C626 C622 1.368 . S
C626 C625 1.523 . S
H627 C602 0.950 . S
H628 C604 0.950 1_455 S
H629 C605 0.949 . S
H630 C607 0.950 . S
H631 C609 0.950 . S
C632 C633 1.349 1_556 S
C632 C634 1.327 . S
C632 H657 0.950 . S
C633 C632 1.349 1_554 S
C633 C649 1.349 . S
C634 C632 1.327 . S
C634 C653 1.429 1_556 S
C634 H658 0.950 . S
C635 C652 1.574 . S
C635 C654 1.368 . S
C635 H659 0.949 . S
H636 C640 0.949 . S
C637 C638 1.349 . S
C637 C639 1.327 1_556 S
C637 H660 0.950 1_556 S
C638 C637 1.349 . S
C638 C650 1.349 . S
C639 C637 1.327 1_554 S
C639 C655 1.429 1_554 S
C639 H661 0.950 . S
C640 H636 0.949 . S
C640 C648 1.574 . S
C640 C656 1.368 . S
H641 C649 0.950 . S
H642 C647 0.950 . S
H643 C648 0.949 . S
H644 C650 0.950 . S
H645 C651 0.950 . S
H646 C652 0.949 . S
C647 H642 0.950 . S
C647 C649 1.327 . S
C647 C653 1.429 . S
C648 C640 1.574 . S
C648 H643 0.949 . S
C648 C654 1.368 1_556 S
C649 C633 1.349 . S
C649 H641 0.950 . S
C649 C647 1.327 . S
C650 C638 1.349 . S
C650 H644 0.950 . S
C650 C651 1.327 . S
C651 H645 0.950 . S
C651 C650 1.327 . S
C651 C655 1.429 . S
C652 C635 1.574 . S
C652 H646 0.949 . S
C652 C656 1.368 1_554 S
C653 C634 1.429 1_554 S
C653 C647 1.429 . S
C653 C654 1.523 . S
C654 C635 1.368 . S
C654 C648 1.368 1_554 S
C654 C653 1.523 . S
C655 C639 1.429 1_556 S
C655 C651 1.429 . S
C655 C656 1.523 . S
C656 C640 1.368 . S
C656 C652 1.368 1_556 S
C656 C655 1.523 . S
H657 C632 0.950 . S
H658 C634 0.950 . S
H659 C635 0.949 . S
H660 C637 0.950 1_554 S
H661 C639 0.950 . S
C662 C663 1.349 . S
C662 C664 1.327 . S
C662 H687 0.950 . S
C663 C662 1.349 . S
C663 C679 1.349 . S
C664 C662 1.327 . S
C664 C683 1.429 . S
C664 H688 0.950 . S
C665 C682 1.572 1_554 S
C665 C684 1.368 . S
C665 H689 0.949 . S
H666 C670 0.950 . S
C667 C668 1.349 . S
C667 C669 1.327 . S
C667 H690 0.950 . S
C668 C667 1.349 . S
C668 C680 1.349 . S
C669 C667 1.327 . S
C669 C685 1.429 . S
C669 H691 0.950 . S
C670 H666 0.950 . S
C670 C678 1.572 1_556 S
C670 C686 1.369 . S
H671 C679 0.950 . S
H672 C677 0.950 . S
H673 C678 0.949 . S
H674 C680 0.950 . S
H675 C681 0.950 . S
H676 C682 0.950 . S
C677 H672 0.950 . S
C677 C679 1.327 . S
C677 C683 1.429 . S
C678 C670 1.572 1_554 S
C678 H673 0.949 . S
C678 C684 1.368 . S
C679 C663 1.349 . S
C679 H671 0.950 . S
C679 C677 1.327 . S
C680 C668 1.349 . S
C680 H674 0.950 . S
C680 C681 1.327 . S
C681 H675 0.950 . S
C681 C680 1.327 . S
C681 C685 1.429 . S
C682 C665 1.572 1_556 S
C682 H676 0.950 . S
C682 C686 1.369 . S
C683 C664 1.429 . S
C683 C677 1.429 . S
C683 C684 1.523 . S
C684 C665 1.368 . S
C684 C678 1.368 . S
C684 C683 1.523 . S
C685 C669 1.429 . S
C685 C681 1.429 . S
C685 C686 1.523 . S
C686 C670 1.369 . S
C686 C682 1.369 . S
C686 C685 1.523 . S
H687 C662 0.950 . S
H688 C664 0.950 . S
H689 C665 0.949 . S
H690 C667 0.950 . S
H691 C669 0.950 . S
C692 C693 1.349 . S
C692 C694 1.327 . S
C692 H717 0.950 . S
C693 C692 1.349 . S
C693 C709 1.349 1_554 S
C694 C692 1.327 . S
C694 C713 1.429 . S
C694 H718 0.950 . S
C695 C712 1.574 . S
C695 C714 1.368 1_556 S
C695 H719 0.949 . S
H696 C700 0.949 . S
C697 C698 1.349 . S
C697 C699 1.327 . S
C697 H720 0.950 . S
C698 C697 1.349 . S
C698 C710 1.349 . S
C699 C697 1.327 . S
C699 C715 1.429 . S
C699 H721 0.950 . S
C700 H696 0.949 . S
C700 C708 1.574 . S
C700 C716 1.368 1_554 S
H701 C709 0.950 . S
H702 C707 0.950 . S
H703 C708 0.949 . S
H704 C710 0.950 1_554 S
H705 C711 0.950 . S
H706 C712 0.949 . S
C707 H702 0.950 . S
C707 C709 1.327 . S
C707 C713 1.429 1_556 S
C708 C700 1.574 . S
C708 H703 0.949 . S
C708 C714 1.368 . S
C709 C693 1.349 1_556 S
C709 H701 0.950 . S
C709 C707 1.327 . S
C710 C698 1.349 . S
C710 H704 0.950 1_556 S
C710 C711 1.327 1_556 S
C711 H705 0.950 . S
C711 C710 1.327 1_554 S
C711 C715 1.429 1_554 S
C712 C695 1.574 . S
C712 H706 0.949 . S
C712 C716 1.368 . S
C713 C694 1.429 . S
C713 C707 1.429 1_554 S
C713 C714 1.523 . S
C714 C695 1.368 1_554 S
C714 C708 1.368 . S
C714 C713 1.523 . S
C715 C699 1.429 . S
C715 C711 1.429 1_556 S
C715 C716 1.523 . S
C716 C700 1.368 1_556 S
C716 C712 1.368 . S
C716 C715 1.523 . S
H717 C692 0.950 . S
H718 C694 0.950 . S
H719 C695 0.949 . S
H720 C697 0.950 . S
H721 C699 0.950 . S
C722 C723 1.349 . S
C722 C724 1.327 . S
C722 H747 0.950 . S
C723 C722 1.349 . S
C723 C739 1.349 . S
C724 C722 1.327 . S
C724 C743 1.429 . S
C724 H748 0.950 . S
C725 C742 1.574 . S
C725 C744 1.368 . S
C725 H749 0.949 . S
H726 C730 0.949 . S
C727 C728 1.349 . S
C727 C729 1.327 . S
C727 H750 0.950 . S
C728 C727 1.349 . S
C728 C740 1.349 . S
C729 C727 1.327 . S
C729 C745 1.429 . S
C729 H751 0.950 . S
C730 H726 0.949 . S
C730 C738 1.574 1_556 S
C730 C746 1.368 . S
H731 C739 0.950 . S
H732 C737 0.950 . S
H733 C738 0.949 . S
H734 C740 0.950 . S
H735 C741 0.950 . S
H736 C742 0.949 1_556 S
C737 H732 0.950 . S
C737 C739 1.327 . S
C737 C743 1.429 . S
C738 C730 1.574 1_554 S
C738 H733 0.949 . S
C738 C744 1.368 . S
C739 C723 1.349 . S
C739 H731 0.950 . S
C739 C737 1.327 . S
C740 C728 1.349 . S
C740 H734 0.950 . S
C740 C741 1.327 . S
C741 H735 0.950 . S
C741 C740 1.327 . S
C741 C745 1.429 . S
C742 C725 1.574 . S
C742 H736 0.949 1_554 S
C742 C746 1.368 1_554 S
C743 C724 1.429 . S
C743 C737 1.429 . S
C743 C744 1.523 . S
C744 C725 1.368 . S
C744 C738 1.368 . S
C744 C743 1.523 . S
C745 C729 1.429 . S
C745 C741 1.429 . S
C745 C746 1.523 . S
C746 C730 1.368 . S
C746 C742 1.368 1_556 S
C746 C745 1.523 . S
H747 C722 0.950 . S
H748 C724 0.950 . S
H749 C725 0.949 . S
H750 C727 0.950 . S
H751 C729 0.950 . S
C752 C753 1.349 . S
C752 C754 1.327 . S
C752 H777 0.950 . S
C753 C752 1.349 . S
C753 C769 1.349 . S
C754 C752 1.327 . S
C754 C773 1.429 . S
C754 H778 0.950 . S
C755 C772 1.574 . S
C755 C774 1.368 . S
C755 H779 0.949 . S
H756 C760 0.949 . S
C757 C758 1.349 . S
C757 C759 1.327 . S
C757 H780 0.950 . S
C758 C757 1.349 . S
C758 C770 1.349 . S
C759 C757 1.327 . S
C759 C775 1.429 . S
C759 H781 0.950 . S
C760 H756 0.949 . S
C760 C768 1.574 . S
C760 C776 1.368 . S
H761 C769 0.950 . S
H762 C767 0.950 . S
H763 C768 0.949 . S
H764 C770 0.950 . S
H765 C771 0.950 . S
H766 C772 0.949 . S
C767 H762 0.950 . S
C767 C769 1.327 . S
C767 C773 1.429 . S
C768 C760 1.574 . S
C768 H763 0.949 . S
C768 C774 1.368 . S
C769 C753 1.349 . S
C769 H761 0.950 . S
C769 C767 1.327 . S
C770 C758 1.349 . S
C770 H764 0.950 . S
C770 C771 1.327 . S
C771 H765 0.950 . S
C771 C770 1.327 . S
C771 C775 1.429 . S
C772 C755 1.574 . S
C772 H766 0.949 . S
C772 C776 1.368 . S
C773 C754 1.429 . S
C773 C767 1.429 . S
C773 C774 1.523 . S
C774 C755 1.368 . S
C774 C768 1.368 . S
C774 C773 1.523 . S
C775 C759 1.429 . S
C775 C771 1.429 . S
C775 C776 1.523 . S
C776 C760 1.368 . S
C776 C772 1.368 . S
C776 C775 1.523 . S
H777 C752 0.950 . S
H778 C754 0.950 . S
H779 C755 0.949 . S
H780 C757 0.950 . S
H781 C759 0.950 . S
C782 C783 1.349 . S
C782 C784 1.327 . S
C782 H807 0.950 . S
C783 C782 1.349 . S
C783 C799 1.349 . S
C784 C782 1.327 . S
C784 C803 1.429 . S
C784 H808 0.950 . S
C785 C802 1.574 . S
C785 C804 1.368 . S
C785 H809 0.949 . S
H786 C790 0.949 . S
C787 C788 1.349 . S
C787 C789 1.327 . S
C787 H810 0.950 . S
C788 C787 1.349 . S
C788 C800 1.349 . S
C789 C787 1.327 . S
C789 C805 1.429 . S
C789 H811 0.950 . S
C790 H786 0.949 . S
C790 C798 1.574 . S
C790 C806 1.368 . S
H791 C799 0.950 . S
H792 C797 0.950 . S
H793 C798 0.949 . S
H794 C800 0.950 . S
H795 C801 0.950 . S
H796 C802 0.949 . S
C797 H792 0.950 . S
C797 C799 1.327 . S
C797 C803 1.429 . S
C798 C790 1.574 . S
C798 H793 0.949 . S
C798 C804 1.368 . S
C799 C783 1.349 . S
C799 H791 0.950 . S
C799 C797 1.327 . S
C800 C788 1.349 . S
C800 H794 0.950 . S
C800 C801 1.327 . S
C801 H795 0.950 . S
C801 C800 1.327 . S
C801 C805 1.429 . S
C802 C785 1.574 . S
C802 H796 0.949 . S
C802 C806 1.368 . S
C803 C784 1.429 . S
C803 C797 1.429 . S
C803 C804 1.523 . S
C804 C785 1.368 . S
C804 C798 1.368 . S
C804 C803 1.523 . S
C805 C789 1.429 . S
C805 C801 1.429 . S
C805 C806 1.523 . S
C806 C790 1.368 . S
C806 C802 1.368 . S
C806 C805 1.523 . S
H807 C782 0.950 . S
H808 C784 0.950 . S
H809 C785 0.949 . S
H810 C787 0.950 . S
H811 C789 0.950 . S
C812 C813 1.349 . S
C812 C814 1.327 . S
C812 H837 0.950 . S
C813 C812 1.349 . S
C813 C829 1.349 . S
C814 C812 1.327 . S
C814 C833 1.429 . S
C814 H838 0.950 . S
C815 C832 1.574 . S
C815 C834 1.368 . S
C815 H839 0.949 . S
H816 C820 0.949 . S
C817 C818 1.349 . S
C817 C819 1.327 . S
C817 H840 0.950 . S
C818 C817 1.349 . S
C818 C830 1.349 . S
C819 C817 1.327 . S
C819 C835 1.429 . S
C819 H841 0.950 . S
C820 H816 0.949 . S
C820 C828 1.574 . S
C820 C836 1.368 . S
H821 C829 0.950 . S
H822 C827 0.950 . S
H823 C828 0.949 . S
H824 C830 0.950 . S
H825 C831 0.950 . S
H826 C832 0.949 . S
C827 H822 0.950 . S
C827 C829 1.327 . S
C827 C833 1.429 . S
C828 C820 1.574 . S
C828 H823 0.949 . S
C828 C834 1.368 . S
C829 C813 1.349 . S
C829 H821 0.950 . S
C829 C827 1.327 . S
C830 C818 1.349 . S
C830 H824 0.950 . S
C830 C831 1.327 . S
C831 H825 0.950 . S
C831 C830 1.327 . S
C831 C835 1.429 . S
C832 C815 1.574 . S
C832 H826 0.949 . S
C832 C836 1.368 . S
C833 C814 1.429 . S
C833 C827 1.429 . S
C833 C834 1.523 . S
C834 C815 1.368 . S
C834 C828 1.368 . S
C834 C833 1.523 . S
C835 C819 1.429 . S
C835 C831 1.429 . S
C835 C836 1.523 . S
C836 C820 1.368 . S
C836 C832 1.368 . S
C836 C835 1.523 . S
H837 C812 0.950 . S
H838 C814 0.950 . S
H839 C815 0.949 . S
H840 C817 0.950 . S
H841 C819 0.950 . S
C842 C843 1.349 . S
C842 C844 1.327 . S
C842 H867 0.950 . S
C843 C842 1.349 . S
C843 C859 1.349 . S
C844 C842 1.327 . S
C844 C863 1.429 . S
C844 H868 0.950 . S
C845 C862 1.574 . S
C845 C864 1.368 . S
C845 H869 0.949 . S
H846 C850 0.949 . S
C847 C848 1.349 . S
C847 C849 1.327 . S
C847 H870 0.950 . S
C848 C847 1.349 . S
C848 C860 1.349 . S
C849 C847 1.327 . S
C849 C865 1.429 . S
C849 H871 0.950 . S
C850 H846 0.949 . S
C850 C858 1.574 . S
C850 C866 1.368 . S
H851 C859 0.950 . S
H852 C857 0.950 . S
H853 C858 0.949 . S
H854 C860 0.950 . S
H855 C861 0.950 . S
H856 C862 0.949 . S
C857 H852 0.950 . S
C857 C859 1.327 . S
C857 C863 1.429 . S
C858 C850 1.574 . S
C858 H853 0.949 . S
C858 C864 1.368 . S
C859 C843 1.349 . S
C859 H851 0.950 . S
C859 C857 1.327 . S
C860 C848 1.349 . S
C860 H854 0.950 . S
C860 C861 1.327 . S
C861 H855 0.950 . S
C861 C860 1.327 . S
C861 C865 1.429 . S
C862 C845 1.574 . S
C862 H856 0.949 . S
C862 C866 1.368 . S
C863 C844 1.429 . S
C863 C857 1.429 . S
C863 C864 1.523 . S
C864 C845 1.368 . S
C864 C858 1.368 . S
C864 C863 1.523 . S
C865 C849 1.429 . S
C865 C861 1.429 . S
C865 C866 1.523 . S
C866 C850 1.368 . S
C866 C862 1.368 . S
C866 C865 1.523 . S
H867 C842 0.950 . S
H868 C844 0.950 . S
H869 C845 0.949 . S
H870 C847 0.950 . S
H871 C849 0.950 . S
C872 C873 1.349 . S
C872 C874 1.327 . S
C872 H897 0.950 . S
C873 C872 1.349 . S
C873 C889 1.349 . S
C874 C872 1.327 . S
C874 C893 1.429 1_565 S
C874 H898 0.950 . S
C875 C892 1.574 . S
C875 C894 1.368 . S
C875 H899 0.949 . S
H876 C880 0.949 . S
C877 C878 1.349 . S
C877 C879 1.327 . S
C877 H900 0.950 . S
C878 C877 1.349 . S
C878 C890 1.349 . S
C879 C877 1.327 . S
C879 C895 1.429 . S
C879 H901 0.950 . S
C880 H876 0.949 . S
C880 C888 1.574 . S
C880 C896 1.368 . S
H881 C889 0.950 . S
H882 C887 0.938 1_545 S
H883 C888 0.949 . S
H884 C890 0.950 . S
H885 C891 0.950 . S
H886 C892 0.949 . S
C887 H882 0.938 1_565 S
C887 C889 1.327 . S
C887 C893 1.429 1_565 S
C888 C880 1.574 . S
C888 H883 0.949 . S
C888 C894 1.368 . S
C889 C873 1.349 . S
C889 H881 0.950 . S
C889 C887 1.327 . S
C890 C878 1.349 . S
C890 H884 0.950 . S
C890 C891 1.327 . S
C891 H885 0.950 . S
C891 C890 1.327 . S
C891 C895 1.429 . S
C892 C875 1.574 . S
C892 H886 0.949 . S
C892 C896 1.368 . S
C893 C874 1.429 1_545 S
C893 C887 1.429 1_545 S
C893 C894 1.523 . S
C894 C875 1.368 . S
C894 C888 1.368 . S
C894 C893 1.523 . S
C895 C879 1.429 . S
C895 C891 1.429 . S
C895 C896 1.523 . S
C896 C880 1.368 . S
C896 C892 1.368 . S
C896 C895 1.523 . S
H897 C872 0.950 . S
H898 C874 0.950 . S
H899 C875 0.949 . S
H900 C877 0.950 . S
H901 C879 0.950 . S
C902 C903 1.349 . S
C902 C904 1.327 . S
C902 H927 0.950 . S
C903 C902 1.349 . S
C903 C919 1.349 . S
C904 C902 1.327 . S
C904 C923 1.429 . S
C904 H928 0.950 . S
C905 C922 1.574 . S
C905 C924 1.368 . S
C905 H929 0.949 . S
H906 C910 0.949 . S
C907 C908 1.349 . S
C907 C909 1.327 . S
C907 H930 0.950 . S
C908 C907 1.349 . S
C908 C920 1.349 . S
C909 C907 1.327 . S
C909 C925 1.429 1_655 S
C909 H931 0.919 1_655 S
C910 H906 0.949 . S
C910 C918 1.574 . S
C910 C926 1.368 . S
H911 C919 0.950 . S
H912 C917 0.950 . S
H913 C918 0.949 . S
H914 C920 0.950 . S
H915 C921 0.950 . S
H916 C922 0.949 . S
C917 H912 0.950 . S
C917 C919 1.327 . S
C917 C923 1.429 . S
C918 C910 1.574 . S
C918 H913 0.949 . S
C918 C924 1.368 . S
C919 C903 1.349 . S
C919 H911 0.950 . S
C919 C917 1.327 . S
C920 C908 1.349 . S
C920 H914 0.950 . S
C920 C921 1.327 . S
C921 H915 0.950 . S
C921 C920 1.327 . S
C921 C925 1.429 1_655 S
C922 C905 1.574 . S
C922 H916 0.949 . S
C922 C926 1.368 . S
C923 C904 1.429 . S
C923 C917 1.429 . S
C923 C924 1.523 . S
C924 C905 1.368 . S
C924 C918 1.368 . S
C924 C923 1.523 . S
C925 C909 1.429 1_455 S
C925 C921 1.429 1_455 S
C925 C926 1.523 . S
C926 C910 1.368 . S
C926 C922 1.368 . S
C926 C925 1.523 . S
H927 C902 0.950 . S
H928 C904 0.950 . S
H929 C905 0.949 . S
H930 C907 0.950 . S
H931 C909 0.919 1_455 S
C932 C933 1.349 . S
C932 C934 1.327 . S
C932 H957 0.950 . S
C933 C932 1.349 . S
C933 C949 1.349 . S
C934 C932 1.327 . S
C934 C953 1.429 . S
C934 H958 0.950 . S
C935 C952 1.574 . S
C935 C954 1.368 . S
C935 H959 0.949 . S
H936 C940 0.949 . S
C937 C938 1.349 . S
C937 C939 1.327 . S
C937 H960 0.950 . S
C938 C937 1.349 . S
C938 C950 1.349 . S
C939 C937 1.327 . S
C939 C955 1.429 1_545 S
C939 H961 0.950 . S
C940 H936 0.949 . S
C940 C948 1.574 . S
C940 C956 1.368 . S
H941 C949 0.950 . S
H942 C947 0.950 . S
H943 C948 0.949 . S
H944 C950 0.950 . S
H945 C951 0.950 1_565 S
H946 C952 0.949 . S
C947 H942 0.950 . S
C947 C949 1.327 . S
C947 C953 1.429 . S
C948 C940 1.574 . S
C948 H943 0.949 . S
C948 C954 1.368 . S
C949 C933 1.349 . S
C949 H941 0.950 . S
C949 C947 1.327 . S
C950 C938 1.349 . S
C950 H944 0.950 . S
C950 C951 1.327 . S
C951 H945 0.950 1_545 S
C951 C950 1.327 . S
C951 C955 1.429 1_545 S
C952 C935 1.574 . S
C952 H946 0.949 . S
C952 C956 1.368 . S
C953 C934 1.429 . S
C953 C947 1.429 . S
C953 C954 1.523 . S
C954 C935 1.368 . S
C954 C948 1.368 . S
C954 C953 1.523 . S
C955 C939 1.429 1_565 S
C955 C951 1.429 1_565 S
C955 C956 1.523 . S
C956 C940 1.368 . S
C956 C952 1.368 . S
C956 C955 1.523 . S
H957 C932 0.950 . S
H958 C934 0.950 . S
H959 C935 0.949 . S
H960 C937 0.950 . S
H961 C939 0.950 . S
C962 C963 1.349 . S
C962 C964 1.327 . S
C962 H987 0.950 . S
C963 C962 1.349 . S
C963 C979 1.349 . S
C964 C962 1.327 . S
C964 C983 1.429 1_455 S
C964 H988 0.950 . S
C965 C982 1.574 . S
C965 C984 1.368 . S
C965 H989 0.949 . S
H966 C970 0.949 . S
C967 C968 1.349 . S
C967 C969 1.327 . S
C967 H990 0.950 . S
C968 C967 1.349 . S
C968 C980 1.349 . S
C969 C967 1.327 . S
C969 C985 1.429 . S
C969 H991 0.950 . S
C970 H966 0.949 . S
C970 C978 1.574 . S
C970 C986 1.368 . S
H971 C979 0.950 . S
H972 C977 0.950 1_655 S
H973 C978 0.949 . S
H974 C980 0.950 . S
H975 C981 0.950 . S
H976 C982 0.949 . S
C977 H972 0.950 1_455 S
C977 C979 1.327 . S
C977 C983 1.429 1_455 S
C978 C970 1.574 . S
C978 H973 0.949 . S
C978 C984 1.368 . S
C979 C963 1.349 . S
C979 H971 0.950 . S
C979 C977 1.327 . S
C980 C968 1.349 . S
C980 H974 0.950 . S
C980 C981 1.327 . S
C981 H975 0.950 . S
C981 C980 1.327 . S
C981 C985 1.429 . S
C982 C965 1.574 . S
C982 H976 0.949 . S
C982 C986 1.368 . S
C983 C964 1.429 1_655 S
C983 C977 1.429 1_655 S
C983 C984 1.523 . S
C984 C965 1.368 . S
C984 C978 1.368 . S
C984 C983 1.523 . S
C985 C969 1.429 . S
C985 C981 1.429 . S
C985 C986 1.523 . S
C986 C970 1.368 . S
C986 C982 1.368 . S
C986 C985 1.523 . S
H987 C962 0.950 . S
H988 C964 0.950 . S
H989 C965 0.949 . S
H990 C967 0.950 . S
H991 C969 0.950 . S
C992 C993 1.349 . S
C992 C994 1.327 . S
C992 H1017 0.950 . S
C993 C992 1.349 . S
C993 C1009 1.349 . S
C994 C992 1.327 . S
C994 C1013 1.429 . S
C994 H1018 0.950 . S
C995 C1012 1.574 . S
C995 C1014 1.368 . S
C995 H1019 0.949 . S
H996 C1000 0.949 . S
C997 C998 1.349 . S
C997 C999 1.327 . S
C997 H1020 0.950 . S
C998 C997 1.349 . S
C998 C1010 1.349 . S
C999 C997 1.327 . S
C999 C1015 1.429 . S
C999 H1021 0.950 . S
C1000 H996 0.949 . S
C1000 C1008 1.574 . S
C1000 C1016 1.368 . S
H1001 C1009 0.950 . S
H1002 C1007 0.950 . S
H1003 C1008 0.949 . S
H1004 C1010 0.950 . S
H1005 C1011 0.950 . S
H1006 C1012 0.949 . S
C1007 H1002 0.950 . S
C1007 C1009 1.327 . S
C1007 C1013 1.429 . S
C1008 C1000 1.574 . S
C1008 H1003 0.949 . S
C1008 C1014 1.368 . S
C1009 C993 1.349 . S
C1009 H1001 0.950 . S
C1009 C1007 1.327 . S
C1010 C998 1.349 . S
C1010 H1004 0.950 . S
C1010 C1011 1.327 . S
C1011 H1005 0.950 . S
C1011 C1010 1.327 . S
C1011 C1015 1.429 . S
C1012 C995 1.574 . S
C1012 H1006 0.949 . S
C1012 C1016 1.368 . S
C1013 C994 1.429 . S
C1013 C1007 1.429 . S
C1013 C1014 1.523 . S
C1014 C995 1.368 . S
C1014 C1008 1.368 . S
C1014 C1013 1.523 . S
C1015 C999 1.429 . S
C1015 C1011 1.429 . S
C1015 C1016 1.523 . S
C1016 C1000 1.368 . S
C1016 C1012 1.368 . S
C1016 C1015 1.523 . S
H1017 C992 0.950 . S
H1018 C994 0.950 . S
H1019 C995 0.949 . S
H1020 C997 0.950 . S
H1021 C999 0.950 . S
C1022 C1023 1.349 . S
C1022 C1024 1.327 . S
C1022 H1047 0.950 . S
C1023 C1022 1.349 . S
C1023 C1039 1.349 . S
C1024 C1022 1.327 . S
C1024 C1043 1.429 . S
C1024 H1048 0.950 . S
C1025 C1042 1.574 . S
C1025 C1044 1.368 . S
C1025 H1049 0.949 . S
H1026 C1030 0.949 . S
C1027 C1028 1.349 . S
C1027 C1029 1.327 . S
C1027 H1050 0.950 . S
C1028 C1027 1.349 . S
C1028 C1040 1.349 . S
C1029 C1027 1.327 . S
C1029 C1045 1.429 . S
C1029 H1051 0.950 . S
C1030 H1026 0.949 . S
C1030 C1038 1.574 . S
C1030 C1046 1.368 . S
H1031 C1039 0.950 . S
H1032 C1037 0.950 . S
H1033 C1038 0.949 . S
H1034 C1040 0.950 . S
H1035 C1041 0.950 . S
H1036 C1042 0.949 . S
C1037 H1032 0.950 . S
C1037 C1039 1.327 . S
C1037 C1043 1.429 . S
C1038 C1030 1.574 . S
C1038 H1033 0.949 . S
C1038 C1044 1.368 . S
C1039 C1023 1.349 . S
C1039 H1031 0.950 . S
C1039 C1037 1.327 . S
C1040 C1028 1.349 . S
C1040 H1034 0.950 . S
C1040 C1041 1.327 . S
C1041 H1035 0.950 . S
C1041 C1040 1.327 . S
C1041 C1045 1.429 . S
C1042 C1025 1.574 . S
C1042 H1036 0.949 . S
C1042 C1046 1.368 . S
C1043 C1024 1.429 . S
C1043 C1037 1.429 . S
C1043 C1044 1.523 . S
C1044 C1025 1.368 . S
C1044 C1038 1.368 . S
C1044 C1043 1.523 . S
C1045 C1029 1.429 . S
C1045 C1041 1.429 . S
C1045 C1046 1.523 . S
C1046 C1030 1.368 . S
C1046 C1042 1.368 . S
C1046 C1045 1.523 . S
H1047 C1022 0.950 . S
H1048 C1024 0.950 . S
H1049 C1025 0.949 . S
H1050 C1027 0.950 . S
H1051 C1029 0.950 . S
C1052 C1053 1.349 . S
C1052 C1054 1.327 . S
C1052 H1077 0.950 . S
C1053 C1052 1.349 . S
C1053 C1069 1.349 . S
C1054 C1052 1.327 . S
C1054 C1073 1.429 . S
C1054 H1078 0.950 . S
C1055 C1072 1.574 . S
C1055 C1074 1.368 . S
C1055 H1079 0.949 . S
H1056 C1060 0.949 . S
C1057 C1058 1.349 . S
C1057 C1059 1.327 . S
C1057 H1080 0.950 . S
C1058 C1057 1.349 . S
C1058 C1070 1.349 . S
C1059 C1057 1.327 . S
C1059 C1075 1.429 . S
C1059 H1081 0.950 . S
C1060 H1056 0.949 . S
C1060 C1068 1.574 . S
C1060 C1076 1.368 . S
H1061 C1069 0.950 . S
H1062 C1067 0.950 . S
H1063 C1068 0.949 . S
H1064 C1070 0.950 . S
H1065 C1071 0.950 . S
H1066 C1072 0.949 . S
C1067 H1062 0.950 . S
C1067 C1069 1.327 . S
C1067 C1073 1.429 . S
C1068 C1060 1.574 . S
C1068 H1063 0.949 . S
C1068 C1074 1.368 . S
C1069 C1053 1.349 . S
C1069 H1061 0.950 . S
C1069 C1067 1.327 . S
C1070 C1058 1.349 . S
C1070 H1064 0.950 . S
C1070 C1071 1.327 . S
C1071 H1065 0.950 . S
C1071 C1070 1.327 . S
C1071 C1075 1.429 . S
C1072 C1055 1.574 . S
C1072 H1066 0.949 . S
C1072 C1076 1.368 . S
C1073 C1054 1.429 . S
C1073 C1067 1.429 . S
C1073 C1074 1.523 . S
C1074 C1055 1.368 . S
C1074 C1068 1.368 . S
C1074 C1073 1.523 . S
C1075 C1059 1.429 . S
C1075 C1071 1.429 . S
C1075 C1076 1.523 . S
C1076 C1060 1.368 . S
C1076 C1072 1.368 . S
C1076 C1075 1.523 . S
H1077 C1052 0.950 . S
H1078 C1054 0.950 . S
H1079 C1055 0.949 . S
H1080 C1057 0.950 . S
H1081 C1059 0.950 . S
C1082 C1083 1.349 . S
C1082 C1084 1.327 . S
C1082 H1107 0.950 . S
C1083 C1082 1.349 . S
C1083 C1099 1.349 . S
C1084 C1082 1.327 . S
C1084 C1103 1.429 . S
C1084 H1108 0.950 . S
C1085 C1102 1.574 . S
C1085 C1104 1.368 . S
C1085 H1109 0.949 . S
H1086 C1090 0.949 . S
C1087 C1088 1.349 . S
C1087 C1089 1.327 . S
C1087 H1110 0.950 . S
C1088 C1087 1.349 . S
C1088 C1100 1.349 . S
C1089 C1087 1.327 . S
C1089 C1105 1.429 . S
C1089 H1111 0.950 . S
C1090 H1086 0.949 . S
C1090 C1098 1.574 . S
C1090 C1106 1.368 . S
H1091 C1099 0.950 . S
H1092 C1097 0.950 . S
H1093 C1098 0.949 . S
H1094 C1100 0.950 . S
H1095 C1101 0.950 . S
H1096 C1102 0.949 . S
C1097 H1092 0.950 . S
C1097 C1099 1.327 . S
C1097 C1103 1.429 . S
C1098 C1090 1.574 . S
C1098 H1093 0.949 . S
C1098 C1104 1.368 . S
C1099 C1083 1.349 . S
C1099 H1091 0.950 . S
C1099 C1097 1.327 . S
C1100 C1088 1.349 . S
C1100 H1094 0.950 . S
C1100 C1101 1.327 . S
C1101 H1095 0.950 . S
C1101 C1100 1.327 . S
C1101 C1105 1.429 . S
C1102 C1085 1.574 . S
C1102 H1096 0.949 . S
C1102 C1106 1.368 . S
C1103 C1084 1.429 . S
C1103 C1097 1.429 . S
C1103 C1104 1.523 . S
C1104 C1085 1.368 . S
C1104 C1098 1.368 . S
C1104 C1103 1.523 . S
C1105 C1089 1.429 . S
C1105 C1101 1.429 . S
C1105 C1106 1.523 . S
C1106 C1090 1.368 . S
C1106 C1102 1.368 . S
C1106 C1105 1.523 . S
H1107 C1082 0.950 . S
H1108 C1084 0.950 . S
H1109 C1085 0.949 . S
H1110 C1087 0.950 . S
H1111 C1089 0.950 . S
C1112 C1113 1.349 . S
C1112 C1114 1.327 . S
C1112 H1137 0.950 . S
C1113 C1112 1.349 . S
C1113 C1129 1.349 . S
C1114 C1112 1.327 . S
C1114 C1133 1.429 . S
C1114 H1138 0.950 . S
C1115 C1132 1.574 . S
C1115 C1134 1.368 . S
C1115 H1139 0.949 . S
H1116 C1120 0.949 . S
C1117 C1118 1.349 . S
C1117 C1119 1.327 . S
C1117 H1140 0.950 . S
C1118 C1117 1.349 . S
C1118 C1130 1.349 . S
C1119 C1117 1.327 . S
C1119 C1135 1.429 . S
C1119 H1141 0.950 . S
C1120 H1116 0.949 . S
C1120 C1128 1.574 . S
C1120 C1136 1.368 . S
H1121 C1129 0.950 . S
H1122 C1127 0.950 . S
H1123 C1128 0.949 . S
H1124 C1130 0.950 . S
H1125 C1131 0.950 . S
H1126 C1132 0.949 . S
C1127 H1122 0.950 . S
C1127 C1129 1.327 . S
C1127 C1133 1.429 . S
C1128 C1120 1.574 . S
C1128 H1123 0.949 . S
C1128 C1134 1.368 . S
C1129 C1113 1.349 . S
C1129 H1121 0.950 . S
C1129 C1127 1.327 . S
C1130 C1118 1.349 . S
C1130 H1124 0.950 . S
C1130 C1131 1.327 . S
C1131 H1125 0.950 . S
C1131 C1130 1.327 . S
C1131 C1135 1.429 . S
C1132 C1115 1.574 . S
C1132 H1126 0.949 . S
C1132 C1136 1.368 . S
C1133 C1114 1.429 . S
C1133 C1127 1.429 . S
C1133 C1134 1.523 . S
C1134 C1115 1.368 . S
C1134 C1128 1.368 . S
C1134 C1133 1.523 . S
C1135 C1119 1.429 . S
C1135 C1131 1.429 . S
C1135 C1136 1.523 . S
C1136 C1120 1.368 . S
C1136 C1132 1.368 . S
C1136 C1135 1.523 . S
H1137 C1112 0.950 . S
H1138 C1114 0.950 . S
H1139 C1115 0.949 . S
H1140 C1117 0.950 . S
H1141 C1119 0.950 . S
C1142 C1143 1.349 . S
C1142 C1144 1.327 . S
C1142 H1167 0.950 . S
C1143 C1142 1.349 . S
C1143 C1159 1.349 . S
C1144 C1142 1.327 . S
C1144 C1163 1.429 . S
C1144 H1168 0.950 . S
C1145 C1162 1.574 . S
C1145 C1164 1.368 . S
C1145 H1169 0.949 . S
H1146 C1150 0.949 . S
C1147 C1148 1.349 . S
C1147 C1149 1.327 . S
C1147 H1170 0.950 . S
C1148 C1147 1.349 . S
C1148 C1160 1.349 . S
C1149 C1147 1.327 . S
C1149 C1165 1.429 . S
C1149 H1171 0.950 . S
C1150 H1146 0.949 . S
C1150 C1158 1.574 . S
C1150 C1166 1.368 . S
H1151 C1159 0.950 . S
H1152 C1157 0.950 . S
H1153 C1158 0.949 . S
H1154 C1160 0.950 . S
H1155 C1161 0.950 . S
H1156 C1162 0.949 . S
C1157 H1152 0.950 . S
C1157 C1159 1.327 . S
C1157 C1163 1.429 . S
C1158 C1150 1.574 . S
C1158 H1153 0.949 . S
C1158 C1164 1.368 . S
C1159 C1143 1.349 . S
C1159 H1151 0.950 . S
C1159 C1157 1.327 . S
C1160 C1148 1.349 . S
C1160 H1154 0.950 . S
C1160 C1161 1.327 . S
C1161 H1155 0.950 . S
C1161 C1160 1.327 . S
C1161 C1165 1.429 . S
C1162 C1145 1.574 . S
C1162 H1156 0.949 . S
C1162 C1166 1.368 . S
C1163 C1144 1.429 . S
C1163 C1157 1.429 . S
C1163 C1164 1.523 . S
C1164 C1145 1.368 . S
C1164 C1158 1.368 . S
C1164 C1163 1.523 . S
C1165 C1149 1.429 . S
C1165 C1161 1.429 . S
C1165 C1166 1.523 . S
C1166 C1150 1.368 . S
C1166 C1162 1.368 . S
C1166 C1165 1.523 . S
H1167 C1142 0.950 . S
H1168 C1144 0.950 . S
H1169 C1145 0.949 . S
H1170 C1147 0.950 . S
H1171 C1149 0.950 . S
C1172 C1173 1.349 . S
C1172 C1174 1.327 . S
C1172 H1197 0.950 . S
C1173 C1172 1.349 . S
C1173 C1189 1.349 . S
C1174 C1172 1.327 . S
C1174 C1193 1.429 . S
C1174 H1198 0.950 . S
C1175 C1192 1.574 . S
C1175 C1194 1.368 . S
C1175 H1199 0.949 . S
H1176 C1180 0.949 . S
C1177 C1178 1.349 . S
C1177 C1179 1.327 . S
C1177 H1200 0.950 . S
C1178 C1177 1.349 . S
C1178 C1190 1.349 . S
C1179 C1177 1.327 . S
C1179 C1195 1.429 . S
C1179 H1201 0.950 . S
C1180 H1176 0.949 . S
C1180 C1188 1.574 . S
C1180 C1196 1.368 . S
H1181 C1189 0.950 . S
H1182 C1187 0.950 . S
H1183 C1188 0.949 . S
H1184 C1190 0.950 . S
H1185 C1191 0.950 . S
H1186 C1192 0.949 . S
C1187 H1182 0.950 . S
C1187 C1189 1.327 . S
C1187 C1193 1.429 . S
C1188 C1180 1.574 . S
C1188 H1183 0.949 . S
C1188 C1194 1.368 . S
C1189 C1173 1.349 . S
C1189 H1181 0.950 . S
C1189 C1187 1.327 . S
C1190 C1178 1.349 . S
C1190 H1184 0.950 . S
C1190 C1191 1.327 . S
C1191 H1185 0.950 . S
C1191 C1190 1.327 . S
C1191 C1195 1.429 . S
C1192 C1175 1.574 . S
C1192 H1186 0.949 . S
C1192 C1196 1.368 . S
C1193 C1174 1.429 . S
C1193 C1187 1.429 . S
C1193 C1194 1.523 . S
C1194 C1175 1.368 . S
C1194 C1188 1.368 . S
C1194 C1193 1.523 . S
C1195 C1179 1.429 . S
C1195 C1191 1.429 . S
C1195 C1196 1.523 . S
C1196 C1180 1.368 . S
C1196 C1192 1.368 . S
C1196 C1195 1.523 . S
H1197 C1172 0.950 . S
H1198 C1174 0.950 . S
H1199 C1175 0.949 . S
H1200 C1177 0.950 . S
H1201 C1179 0.950 . S
C1202 C1203 1.349 . S
C1202 C1204 1.327 . S
C1202 H1227 0.950 . S
C1203 C1202 1.349 . S
C1203 C1219 1.349 . S
C1204 C1202 1.327 . S
C1204 C1223 1.429 . S
C1204 H1228 0.950 . S
C1205 C1222 1.574 . S
C1205 C1224 1.368 . S
C1205 H1229 0.949 . S
H1206 C1210 0.949 . S
C1207 C1208 1.349 . S
C1207 C1209 1.327 . S
C1207 H1230 0.950 . S
C1208 C1207 1.349 . S
C1208 C1220 1.349 . S
C1209 C1207 1.327 . S
C1209 C1225 1.429 . S
C1209 H1231 0.950 . S
C1210 H1206 0.949 . S
C1210 C1218 1.574 . S
C1210 C1226 1.368 . S
H1211 C1219 0.950 . S
H1212 C1217 0.950 . S
H1213 C1218 0.949 . S
H1214 C1220 0.950 . S
H1215 C1221 0.950 . S
H1216 C1222 0.949 . S
C1217 H1212 0.950 . S
C1217 C1219 1.327 . S
C1217 C1223 1.429 . S
C1218 C1210 1.574 . S
C1218 H1213 0.949 . S
C1218 C1224 1.368 . S
C1219 C1203 1.349 . S
C1219 H1211 0.950 . S
C1219 C1217 1.327 . S
C1220 C1208 1.349 . S
C1220 H1214 0.950 . S
C1220 C1221 1.327 . S
C1221 H1215 0.950 . S
C1221 C1220 1.327 . S
C1221 C1225 1.429 . S
C1222 C1205 1.574 . S
C1222 H1216 0.949 . S
C1222 C1226 1.368 . S
C1223 C1204 1.429 . S
C1223 C1217 1.429 . S
C1223 C1224 1.523 . S
C1224 C1205 1.368 . S
C1224 C1218 1.368 . S
C1224 C1223 1.523 . S
C1225 C1209 1.429 . S
C1225 C1221 1.429 . S
C1225 C1226 1.523 . S
C1226 C1210 1.368 . S
C1226 C1222 1.368 . S
C1226 C1225 1.523 . S
H1227 C1202 0.950 . S
H1228 C1204 0.950 . S
H1229 C1205 0.949 . S
H1230 C1207 0.950 . S
H1231 C1209 0.950 . S
C1232 C1233 1.349 . S
C1232 C1234 1.327 . S
C1232 H1257 0.950 . S
C1233 C1232 1.349 . S
C1233 C1249 1.349 . S
C1234 C1232 1.327 . S
C1234 C1253 1.429 . S
C1234 H1258 0.950 . S
C1235 C1252 1.574 . S
C1235 C1254 1.368 . S
C1235 H1259 0.949 . S
H1236 C1240 0.949 . S
C1237 C1238 1.349 . S
C1237 C1239 1.327 . S
C1237 H1260 0.950 . S
C1238 C1237 1.349 . S
C1238 C1250 1.349 1_554 S
C1239 C1237 1.327 . S
C1239 C1255 1.429 1_554 S
C1239 H1261 0.950 . S
C1240 H1236 0.949 . S
C1240 C1248 1.574 . S
C1240 C1256 1.368 . S
H1241 C1249 0.950 . S
H1242 C1247 0.950 . S
H1243 C1248 0.949 . S
H1244 C1250 0.950 . S
H1245 C1251 0.950 . S
H1246 C1252 0.949 . S
C1247 H1242 0.950 . S
C1247 C1249 1.327 . S
C1247 C1253 1.429 . S
C1248 C1240 1.574 . S
C1248 H1243 0.949 . S
C1248 C1254 1.368 . S
C1249 C1233 1.349 . S
C1249 H1241 0.950 . S
C1249 C1247 1.327 . S
C1250 C1238 1.349 1_556 S
C1250 H1244 0.950 . S
C1250 C1251 1.327 . S
C1251 H1245 0.950 . S
C1251 C1250 1.327 . S
C1251 C1255 1.429 . S
C1252 C1235 1.574 . S
C1252 H1246 0.949 . S
C1252 C1256 1.368 . S
C1253 C1234 1.429 . S
C1253 C1247 1.429 . S
C1253 C1254 1.523 . S
C1254 C1235 1.368 . S
C1254 C1248 1.368 . S
C1254 C1253 1.523 . S
C1255 C1239 1.429 1_556 S
C1255 C1251 1.429 . S
C1255 C1256 1.523 . S
C1256 C1240 1.368 . S
C1256 C1252 1.368 . S
C1256 C1255 1.523 . S
H1257 C1232 0.950 . S
H1258 C1234 0.950 . S
H1259 C1235 0.949 . S
H1260 C1237 0.950 . S
H1261 C1239 0.950 . S
C1262 C1263 1.349 . S
C1262 C1264 1.327 . S
C1262 H1287 0.950 . S
C1263 C1262 1.349 . S
C1263 C1279 1.349 1_556 S
C1264 C1262 1.327 . S
C1264 C1283 1.429 1_556 S
C1264 H1288 0.950 . S
C1265 C1282 1.574 . S
C1265 C1284 1.368 . S
C1265 H1289 0.949 . S
H1266 C1270 0.949 . S
C1267 C1268 1.349 . S
C1267 C1269 1.327 . S
C1267 H1290 0.950 . S
C1268 C1267 1.349 . S
C1268 C1280 1.349 . S
C1269 C1267 1.327 . S
C1269 C1285 1.429 . S
C1269 H1291 0.950 . S
C1270 H1266 0.949 . S
C1270 C1278 1.574 . S
C1270 C1286 1.368 . S
H1271 C1279 0.950 . S
H1272 C1277 0.950 . S
H1273 C1278 0.949 . S
H1274 C1280 0.950 . S
H1275 C1281 0.950 . S
H1276 C1282 0.949 . S
C1277 H1272 0.950 . S
C1277 C1279 1.327 . S
C1277 C1283 1.429 . S
C1278 C1270 1.574 . S
C1278 H1273 0.949 . S
C1278 C1284 1.368 . S
C1279 C1263 1.349 1_554 S
C1279 H1271 0.950 . S
C1279 C1277 1.327 . S
C1280 C1268 1.349 . S
C1280 H1274 0.950 . S
C1280 C1281 1.327 . S
C1281 H1275 0.950 . S
C1281 C1280 1.327 . S
C1281 C1285 1.429 . S
C1282 C1265 1.574 . S
C1282 H1276 0.949 . S
C1282 C1286 1.368 . S
C1283 C1264 1.429 1_554 S
C1283 C1277 1.429 . S
C1283 C1284 1.523 . S
C1284 C1265 1.368 . S
C1284 C1278 1.368 . S
C1284 C1283 1.523 . S
C1285 C1269 1.429 . S
C1285 C1281 1.429 . S
C1285 C1286 1.523 . S
C1286 C1270 1.368 . S
C1286 C1282 1.368 . S
C1286 C1285 1.523 . S
H1287 C1262 0.950 . S
H1288 C1264 0.950 . S
H1289 C1265 0.949 . S
H1290 C1267 0.950 . S
H1291 C1269 0.950 . S
C1292 C1293 1.349 1_556 S
C1292 C1294 1.327 . S
C1292 H1317 0.950 . S
C1293 C1292 1.349 1_554 S
C1293 C1309 1.349 . S
C1294 C1292 1.327 . S
C1294 C1313 1.429 . S
C1294 H1318 0.950 . S
C1295 C1312 1.574 . S
C1295 C1314 1.368 . S
C1295 H1319 0.949 . S
H1296 C1300 0.949 . S
C1297 C1298 1.349 . S
C1297 C1299 1.327 . S
C1297 H1320 0.950 . S
C1298 C1297 1.349 . S
C1298 C1310 1.349 . S
C1299 C1297 1.327 . S
C1299 C1315 1.429 . S
C1299 H1321 0.950 . S
C1300 H1296 0.949 . S
C1300 C1308 1.574 . S
C1300 C1316 1.368 . S
H1301 C1309 0.950 . S
H1302 C1307 0.950 . S
H1303 C1308 0.949 . S
H1304 C1310 0.950 . S
H1305 C1311 0.950 . S
H1306 C1312 0.949 . S
C1307 H1302 0.950 . S
C1307 C1309 1.327 . S
C1307 C1313 1.429 1_554 S
C1308 C1300 1.574 . S
C1308 H1303 0.949 . S
C1308 C1314 1.368 . S
C1309 C1293 1.349 . S
C1309 H1301 0.950 . S
C1309 C1307 1.327 . S
C1310 C1298 1.349 . S
C1310 H1304 0.950 . S
C1310 C1311 1.327 . S
C1311 H1305 0.950 . S
C1311 C1310 1.327 . S
C1311 C1315 1.429 . S
C1312 C1295 1.574 . S
C1312 H1306 0.949 . S
C1312 C1316 1.368 . S
C1313 C1294 1.429 . S
C1313 C1307 1.429 1_556 S
C1313 C1314 1.523 . S
C1314 C1295 1.368 . S
C1314 C1308 1.368 . S
C1314 C1313 1.523 . S
C1315 C1299 1.429 . S
C1315 C1311 1.429 . S
C1315 C1316 1.523 . S
C1316 C1300 1.368 . S
C1316 C1312 1.368 . S
C1316 C1315 1.523 . S
H1317 C1292 0.950 . S
H1318 C1294 0.950 . S
H1319 C1295 0.949 . S
H1320 C1297 0.950 . S
H1321 C1299 0.950 . S
C1322 C1323 1.349 . S
C1322 C1324 1.327 . S
C1322 H1347 0.950 . S
C1323 C1322 1.349 . S
C1323 C1339 1.349 1_556 S
C1324 C1322 1.327 . S
C1324 C1343 1.429 1_556 S
C1324 H1348 0.950 . S
C1325 C1342 1.574 . S
C1325 C1344 1.368 . S
C1325 H1349 0.949 . S
H1326 C1330 0.949 . S
C1327 C1328 1.349 . S
C1327 C1329 1.327 . S
C1327 H1350 0.950 . S
C1328 C1327 1.349 . S
C1328 C1340 1.349 . S
C1329 C1327 1.327 . S
C1329 C1345 1.429 . S
C1329 H1351 0.950 . S
C1330 H1326 0.949 . S
C1330 C1338 1.574 . S
C1330 C1346 1.368 . S
H1331 C1339 0.950 . S
H1332 C1337 0.950 . S
H1333 C1338 0.949 1_556 S
H1334 C1340 0.950 . S
H1335 C1341 0.950 . S
H1336 C1342 0.949 . S
C1337 H1332 0.950 . S
C1337 C1339 1.327 . S
C1337 C1343 1.429 . S
C1338 C1330 1.574 . S
C1338 H1333 0.949 1_554 S
C1338 C1344 1.368 . S
C1339 C1323 1.349 1_554 S
C1339 H1331 0.950 . S
C1339 C1337 1.327 . S
C1340 C1328 1.349 . S
C1340 H1334 0.950 . S
C1340 C1341 1.327 . S
C1341 H1335 0.950 . S
C1341 C1340 1.327 . S
C1341 C1345 1.429 . S
C1342 C1325 1.574 . S
C1342 H1336 0.949 . S
C1342 C1346 1.368 . S
C1343 C1324 1.429 1_554 S
C1343 C1337 1.429 . S
C1343 C1344 1.523 . S
C1344 C1325 1.368 . S
C1344 C1338 1.368 . S
C1344 C1343 1.523 . S
C1345 C1329 1.429 . S
C1345 C1341 1.429 . S
C1345 C1346 1.523 . S
C1346 C1330 1.368 . S
C1346 C1342 1.368 . S
C1346 C1345 1.523 . S
H1347 C1322 0.950 . S
H1348 C1324 0.950 . S
H1349 C1325 0.949 . S
H1350 C1327 0.950 . S
H1351 C1329 0.950 . S
C1352 C1353 1.349 . S
C1352 C1354 1.327 . S
C1352 H1377 0.950 . S
C1353 C1352 1.349 . S
C1353 C1369 1.349 . S
C1354 C1352 1.327 . S
C1354 C1373 1.429 . S
C1354 H1378 0.950 . S
C1355 C1372 1.574 . S
C1355 C1374 1.368 . S
C1355 H1379 0.949 . S
H1356 C1360 0.949 . S
C1357 C1358 1.349 . S
C1357 C1359 1.327 . S
C1357 H1380 0.950 . S
C1358 C1357 1.349 . S
C1358 C1370 1.349 . S
C1359 C1357 1.327 . S
C1359 C1375 1.429 . S
C1359 H1381 0.950 . S
C1360 H1356 0.949 . S
C1360 C1368 1.574 . S
C1360 C1376 1.368 . S
H1361 C1369 0.950 . S
H1362 C1367 0.950 . S
H1363 C1368 0.949 . S
H1364 C1370 0.950 . S
H1365 C1371 0.950 . S
H1366 C1372 0.949 . S
C1367 H1362 0.950 . S
C1367 C1369 1.327 . S
C1367 C1373 1.429 . S
C1368 C1360 1.574 . S
C1368 H1363 0.949 . S
C1368 C1374 1.368 . S
C1369 C1353 1.349 . S
C1369 H1361 0.950 . S
C1369 C1367 1.327 . S
C1370 C1358 1.349 . S
C1370 H1364 0.950 . S
C1370 C1371 1.327 . S
C1371 H1365 0.950 . S
C1371 C1370 1.327 . S
C1371 C1375 1.429 . S
C1372 C1355 1.574 . S
C1372 H1366 0.949 . S
C1372 C1376 1.368 . S
C1373 C1354 1.429 . S
C1373 C1367 1.429 . S
C1373 C1374 1.523 . S
C1374 C1355 1.368 . S
C1374 C1368 1.368 . S
C1374 C1373 1.523 . S
C1375 C1359 1.429 . S
C1375 C1371 1.429 . S
C1375 C1376 1.523 . S
C1376 C1360 1.368 . S
C1376 C1372 1.368 . S
C1376 C1375 1.523 . S
H1377 C1352 0.950 . S
H1378 C1354 0.950 . S
H1379 C1355 0.949 . S
H1380 C1357 0.950 . S
H1381 C1359 0.950 . S
C1382 C1383 1.349 . S
C1382 C1384 1.327 . S
C1382 H1407 0.950 . S
C1383 C1382 1.349 . S
C1383 C1399 1.349 . S
C1384 C1382 1.327 . S
C1384 C1403 1.429 . S
C1384 H1408 0.950 . S
C1385 C1402 1.574 . S
C1385 C1404 1.368 . S
C1385 H1409 0.949 . S
H1386 C1390 0.949 . S
C1387 C1388 1.349 . S
C1387 C1389 1.327 . S
C1387 H1410 0.950 . S
C1388 C1387 1.349 . S
C1388 C1400 1.349 . S
C1389 C1387 1.327 . S
C1389 C1405 1.429 . S
C1389 H1411 0.950 . S
C1390 H1386 0.949 . S
C1390 C1398 1.574 . S
C1390 C1406 1.368 . S
H1391 C1399 0.950 . S
H1392 C1397 0.950 . S
H1393 C1398 0.949 . S
H1394 C1400 0.950 . S
H1395 C1401 0.950 . S
H1396 C1402 0.949 . S
C1397 H1392 0.950 . S
C1397 C1399 1.327 . S
C1397 C1403 1.429 . S
C1398 C1390 1.574 . S
C1398 H1393 0.949 . S
C1398 C1404 1.368 . S
C1399 C1383 1.349 . S
C1399 H1391 0.950 . S
C1399 C1397 1.327 . S
C1400 C1388 1.349 . S
C1400 H1394 0.950 . S
C1400 C1401 1.327 . S
C1401 H1395 0.950 . S
C1401 C1400 1.327 . S
C1401 C1405 1.429 . S
C1402 C1385 1.574 . S
C1402 H1396 0.949 . S
C1402 C1406 1.368 . S
C1403 C1384 1.429 . S
C1403 C1397 1.429 . S
C1403 C1404 1.523 . S
C1404 C1385 1.368 . S
C1404 C1398 1.368 . S
C1404 C1403 1.523 . S
C1405 C1389 1.429 . S
C1405 C1401 1.429 . S
C1405 C1406 1.523 . S
C1406 C1390 1.368 . S
C1406 C1402 1.368 . S
C1406 C1405 1.523 . S
H1407 C1382 0.950 . S
H1408 C1384 0.950 . S
H1409 C1385 0.949 . S
H1410 C1387 0.950 . S
H1411 C1389 0.950 . S
C1412 C1413 1.349 . S
C1412 C1414 1.327 . S
C1412 H1437 0.950 . S
C1413 C1412 1.349 . S
C1413 C1429 1.349 . S
C1414 C1412 1.327 . S
C1414 C1433 1.429 . S
C1414 H1438 0.950 . S
C1415 C1432 1.574 . S
C1415 C1434 1.368 . S
C1415 H1439 0.949 . S
H1416 C1420 0.949 . S
C1417 C1418 1.349 . S
C1417 C1419 1.327 . S
C1417 H1440 0.950 . S
C1418 C1417 1.349 . S
C1418 C1430 1.349 . S
C1419 C1417 1.327 . S
C1419 C1435 1.429 . S
C1419 H1441 0.950 . S
C1420 H1416 0.949 . S
C1420 C1428 1.574 . S
C1420 C1436 1.368 . S
H1421 C1429 0.950 . S
H1422 C1427 0.950 . S
H1423 C1428 0.949 . S
H1424 C1430 0.950 . S
H1425 C1431 0.950 . S
H1426 C1432 0.949 . S
C1427 H1422 0.950 . S
C1427 C1429 1.327 . S
C1427 C1433 1.429 . S
C1428 C1420 1.574 . S
C1428 H1423 0.949 . S
C1428 C1434 1.368 . S
C1429 C1413 1.349 . S
C1429 H1421 0.950 . S
C1429 C1427 1.327 . S
C1430 C1418 1.349 . S
C1430 H1424 0.950 . S
C1430 C1431 1.327 . S
C1431 H1425 0.950 . S
C1431 C1430 1.327 . S
C1431 C1435 1.429 . S
C1432 C1415 1.574 . S
C1432 H1426 0.949 . S
C1432 C1436 1.368 . S
C1433 C1414 1.429 . S
C1433 C1427 1.429 . S
C1433 C1434 1.523 . S
C1434 C1415 1.368 . S
C1434 C1428 1.368 . S
C1434 C1433 1.523 . S
C1435 C1419 1.429 . S
C1435 C1431 1.429 . S
C1435 C1436 1.523 . S
C1436 C1420 1.368 . S
C1436 C1432 1.368 . S
C1436 C1435 1.523 . S
H1437 C1412 0.950 . S
H1438 C1414 0.950 . S
H1439 C1415 0.949 . S
H1440 C1417 0.950 . S
H1441 C1419 0.950 . S
C1442 C1443 1.349 . S
C1442 C1444 1.327 . S
C1442 H1467 0.950 . S
C1443 C1442 1.349 . S
C1443 C1459 1.349 . S
C1444 C1442 1.327 . S
C1444 C1463 1.429 . S
C1444 H1468 0.950 . S
C1445 C1462 1.574 . S
C1445 C1464 1.368 . S
C1445 H1469 0.949 . S
H1446 C1450 0.949 . S
C1447 C1448 1.349 . S
C1447 C1449 1.327 . S
C1447 H1470 0.950 . S
C1448 C1447 1.349 . S
C1448 C1460 1.349 . S
C1449 C1447 1.327 . S
C1449 C1465 1.429 . S
C1449 H1471 0.950 . S
C1450 H1446 0.949 . S
C1450 C1458 1.574 . S
C1450 C1466 1.368 . S
H1451 C1459 0.950 . S
H1452 C1457 0.950 . S
H1453 C1458 0.949 . S
H1454 C1460 0.950 . S
H1455 C1461 0.950 . S
H1456 C1462 0.949 . S
C1457 H1452 0.950 . S
C1457 C1459 1.327 . S
C1457 C1463 1.429 . S
C1458 C1450 1.574 . S
C1458 H1453 0.949 . S
C1458 C1464 1.368 . S
C1459 C1443 1.349 . S
C1459 H1451 0.950 . S
C1459 C1457 1.327 . S
C1460 C1448 1.349 . S
C1460 H1454 0.950 . S
C1460 C1461 1.327 . S
C1461 H1455 0.950 . S
C1461 C1460 1.327 . S
C1461 C1465 1.429 . S
C1462 C1445 1.574 . S
C1462 H1456 0.949 . S
C1462 C1466 1.368 . S
C1463 C1444 1.429 . S
C1463 C1457 1.429 . S
C1463 C1464 1.523 . S
C1464 C1445 1.368 . S
C1464 C1458 1.368 . S
C1464 C1463 1.523 . S
C1465 C1449 1.429 . S
C1465 C1461 1.429 . S
C1465 C1466 1.523 . S
C1466 C1450 1.368 . S
C1466 C1462 1.368 . S
C1466 C1465 1.523 . S
H1467 C1442 0.950 . S
H1468 C1444 0.950 . S
H1469 C1445 0.949 . S
H1470 C1447 0.950 . S
H1471 C1449 0.950 . S
C1472 C1473 1.349 . S
C1472 C1474 1.327 . S
C1472 H1497 0.950 . S
C1473 C1472 1.349 . S
C1473 C1489 1.349 . S
C1474 C1472 1.327 . S
C1474 C1493 1.429 . S
C1474 H1498 0.950 . S
C1475 C1492 1.574 . S
C1475 C1494 1.368 . S
C1475 H1499 0.949 . S
H1476 C1480 0.949 . S
C1477 C1478 1.349 . S
C1477 C1479 1.327 . S
C1477 H1500 0.950 . S
C1478 C1477 1.349 . S
C1478 C1490 1.349 . S
C1479 C1477 1.327 . S
C1479 C1495 1.429 . S
C1479 H1501 0.950 . S
C1480 H1476 0.949 . S
C1480 C1488 1.574 . S
C1480 C1496 1.368 . S
H1481 C1489 0.950 . S
H1482 C1487 0.950 . S
H1483 C1488 0.949 . S
H1484 C1490 0.950 . S
H1485 C1491 0.950 . S
H1486 C1492 0.949 . S
C1487 H1482 0.950 . S
C1487 C1489 1.327 . S
C1487 C1493 1.429 . S
C1488 C1480 1.574 . S
C1488 H1483 0.949 . S
C1488 C1494 1.368 . S
C1489 C1473 1.349 . S
C1489 H1481 0.950 . S
C1489 C1487 1.327 . S
C1490 C1478 1.349 . S
C1490 H1484 0.950 . S
C1490 C1491 1.327 . S
C1491 H1485 0.950 . S
C1491 C1490 1.327 . S
C1491 C1495 1.429 . S
C1492 C1475 1.574 . S
C1492 H1486 0.949 . S
C1492 C1496 1.368 . S
C1493 C1474 1.429 . S
C1493 C1487 1.429 . S
C1493 C1494 1.523 . S
C1494 C1475 1.368 . S
C1494 C1488 1.368 . S
C1494 C1493 1.523 . S
C1495 C1479 1.429 . S
C1495 C1491 1.429 . S
C1495 C1496 1.523 . S
C1496 C1480 1.368 . S
C1496 C1492 1.368 . S
C1496 C1495 1.523 . S
H1497 C1472 0.950 . S
H1498 C1474 0.950 . S
H1499 C1475 0.949 . S
H1500 C1477 0.950 . S
H1501 C1479 0.950 . S
C1502 C1503 1.349 . S
C1502 C1504 1.327 . S
C1502 H1527 0.950 . S
C1503 C1502 1.349 . S
C1503 C1519 1.349 . S
C1504 C1502 1.327 . S
C1504 C1523 1.429 . S
C1504 H1528 0.950 . S
C1505 C1522 1.574 . S
C1505 C1524 1.368 . S
C1505 H1529 0.949 . S
H1506 C1510 0.949 . S
C1507 C1508 1.349 . S
C1507 C1509 1.327 . S
C1507 H1530 0.950 . S
C1508 C1507 1.349 . S
C1508 C1520 1.349 . S
C1509 C1507 1.327 . S
C1509 C1525 1.429 . S
C1509 H1531 0.950 . S
C1510 H1506 0.949 . S
C1510 C1518 1.574 . S
C1510 C1526 1.368 . S
H1511 C1519 0.950 . S
H1512 C1517 0.950 . S
H1513 C1518 0.949 . S
H1514 C1520 0.950 . S
H1515 C1521 0.950 . S
H1516 C1522 0.949 . S
C1517 H1512 0.950 . S
C1517 C1519 1.327 . S
C1517 C1523 1.429 . S
C1518 C1510 1.574 . S
C1518 H1513 0.949 . S
C1518 C1524 1.368 . S
C1519 C1503 1.349 . S
C1519 H1511 0.950 . S
C1519 C1517 1.327 . S
C1520 C1508 1.349 . S
C1520 H1514 0.950 . S
C1520 C1521 1.327 . S
C1521 H1515 0.950 . S
C1521 C1520 1.327 . S
C1521 C1525 1.429 . S
C1522 C1505 1.574 . S
C1522 H1516 0.949 . S
C1522 C1526 1.368 . S
C1523 C1504 1.429 . S
C1523 C1517 1.429 . S
C1523 C1524 1.523 . S
C1524 C1505 1.368 . S
C1524 C1518 1.368 . S
C1524 C1523 1.523 . S
C1525 C1509 1.429 . S
C1525 C1521 1.429 . S
C1525 C1526 1.523 . S
C1526 C1510 1.368 . S
C1526 C1522 1.368 . S
C1526 C1525 1.523 . S
H1527 C1502 0.950 . S
H1528 C1504 0.950 . S
H1529 C1505 0.949 . S
H1530 C1507 0.950 . S
H1531 C1509 0.950 . S
C1532 C1533 1.349 . S
C1532 C1534 1.327 . S
C1532 H1557 0.950 . S
C1533 C1532 1.349 . S
C1533 C1549 1.349 . S
C1534 C1532 1.327 . S
C1534 C1553 1.429 . S
C1534 H1558 0.950 . S
C1535 C1552 1.574 . S
C1535 C1554 1.368 . S
C1535 H1559 0.949 . S
H1536 C1540 0.949 . S
C1537 C1538 1.349 . S
C1537 C1539 1.327 . S
C1537 H1560 0.950 . S
C1538 C1537 1.349 . S
C1538 C1550 1.349 . S
C1539 C1537 1.327 . S
C1539 C1555 1.429 . S
C1539 H1561 0.950 . S
C1540 H1536 0.949 . S
C1540 C1548 1.574 . S
C1540 C1556 1.368 . S
H1541 C1549 0.950 . S
H1542 C1547 0.950 . S
H1543 C1548 0.949 . S
H1544 C1550 0.950 . S
H1545 C1551 0.950 . S
H1546 C1552 0.949 . S
C1547 H1542 0.950 . S
C1547 C1549 1.327 . S
C1547 C1553 1.429 . S
C1548 C1540 1.574 . S
C1548 H1543 0.949 . S
C1548 C1554 1.368 . S
C1549 C1533 1.349 . S
C1549 H1541 0.950 . S
C1549 C1547 1.327 . S
C1550 C1538 1.349 . S
C1550 H1544 0.950 . S
C1550 C1551 1.327 . S
C1551 H1545 0.950 . S
C1551 C1550 1.327 . S
C1551 C1555 1.429 . S
C1552 C1535 1.574 . S
C1552 H1546 0.949 . S
C1552 C1556 1.368 . S
C1553 C1534 1.429 . S
C1553 C1547 1.429 . S
C1553 C1554 1.523 . S
C1554 C1535 1.368 . S
C1554 C1548 1.368 . S
C1554 C1553 1.523 . S
C1555 C1539 1.429 . S
C1555 C1551 1.429 . S
C1555 C1556 1.523 . S
C1556 C1540 1.368 . S
C1556 C1552 1.368 . S
C1556 C1555 1.523 . S
H1557 C1532 0.950 . S
H1558 C1534 0.950 . S
H1559 C1535 0.949 . S
H1560 C1537 0.950 . S
H1561 C1539 0.950 . S
C1562 C1563 1.349 . S
C1562 C1564 1.327 . S
C1562 H1587 0.950 . S
C1563 C1562 1.349 . S
C1563 C1579 1.349 . S
C1564 C1562 1.327 . S
C1564 C1583 1.429 . S
C1564 H1588 0.950 . S
C1565 C1582 1.574 . S
C1565 C1584 1.368 . S
C1565 H1589 0.949 . S
H1566 C1570 0.949 . S
C1567 C1568 1.349 . S
C1567 C1569 1.327 . S
C1567 H1590 0.950 . S
C1568 C1567 1.349 . S
C1568 C1580 1.349 . S
C1569 C1567 1.327 . S
C1569 C1585 1.429 . S
C1569 H1591 0.950 . S
C1570 H1566 0.949 . S
C1570 C1578 1.574 . S
C1570 C1586 1.368 . S
H1571 C1579 0.950 . S
H1572 C1577 0.950 . S
H1573 C1578 0.949 . S
H1574 C1580 0.950 . S
H1575 C1581 0.950 . S
H1576 C1582 0.949 . S
C1577 H1572 0.950 . S
C1577 C1579 1.327 . S
C1577 C1583 1.429 . S
C1578 C1570 1.574 . S
C1578 H1573 0.949 . S
C1578 C1584 1.368 . S
C1579 C1563 1.349 . S
C1579 H1571 0.950 . S
C1579 C1577 1.327 . S
C1580 C1568 1.349 . S
C1580 H1574 0.950 . S
C1580 C1581 1.327 . S
C1581 H1575 0.950 . S
C1581 C1580 1.327 . S
C1581 C1585 1.429 . S
C1582 C1565 1.574 . S
C1582 H1576 0.949 . S
C1582 C1586 1.368 . S
C1583 C1564 1.429 . S
C1583 C1577 1.429 . S
C1583 C1584 1.523 . S
C1584 C1565 1.368 . S
C1584 C1578 1.368 . S
C1584 C1583 1.523 . S
C1585 C1569 1.429 . S
C1585 C1581 1.429 . S
C1585 C1586 1.523 . S
C1586 C1570 1.368 . S
C1586 C1582 1.368 . S
C1586 C1585 1.523 . S
H1587 C1562 0.950 . S
H1588 C1564 0.950 . S
H1589 C1565 0.949 . S
H1590 C1567 0.950 . S
H1591 C1569 0.950 . S
C1592 C1593 1.349 . S
C1592 C1594 1.327 . S
C1592 H1617 0.950 . S
C1593 C1592 1.349 . S
C1593 C1609 1.349 . S
C1594 C1592 1.327 . S
C1594 C1613 1.429 . S
C1594 H1618 0.950 . S
C1595 C1612 1.574 . S
C1595 C1614 1.368 . S
C1595 H1619 0.949 . S
H1596 C1600 0.949 . S
C1597 C1598 1.349 . S
C1597 C1599 1.327 . S
C1597 H1620 0.950 . S
C1598 C1597 1.349 . S
C1598 C1610 1.349 . S
C1599 C1597 1.327 . S
C1599 C1615 1.429 . S
C1599 H1621 0.950 . S
C1600 H1596 0.949 . S
C1600 C1608 1.574 . S
C1600 C1616 1.368 . S
H1601 C1609 0.950 . S
H1602 C1607 0.950 . S
H1603 C1608 0.949 . S
H1604 C1610 0.950 . S
H1605 C1611 0.950 . S
H1606 C1612 0.949 . S
C1607 H1602 0.950 . S
C1607 C1609 1.327 . S
C1607 C1613 1.429 . S
C1608 C1600 1.574 . S
C1608 H1603 0.949 . S
C1608 C1614 1.368 . S
C1609 C1593 1.349 . S
C1609 H1601 0.950 . S
C1609 C1607 1.327 . S
C1610 C1598 1.349 . S
C1610 H1604 0.950 . S
C1610 C1611 1.327 . S
C1611 H1605 0.950 . S
C1611 C1610 1.327 . S
C1611 C1615 1.429 . S
C1612 C1595 1.574 . S
C1612 H1606 0.949 . S
C1612 C1616 1.368 . S
C1613 C1594 1.429 . S
C1613 C1607 1.429 . S
C1613 C1614 1.523 . S
C1614 C1595 1.368 . S
C1614 C1608 1.368 . S
C1614 C1613 1.523 . S
C1615 C1599 1.429 . S
C1615 C1611 1.429 . S
C1615 C1616 1.523 . S
C1616 C1600 1.368 . S
C1616 C1612 1.368 . S
C1616 C1615 1.523 . S
H1617 C1592 0.950 . S
H1618 C1594 0.950 . S
H1619 C1595 0.949 . S
H1620 C1597 0.950 . S
H1621 C1599 0.950 . S
C1622 C1623 1.349 . S
C1622 C1624 1.327 . S
C1622 H1647 0.950 . S
C1623 C1622 1.349 . S
C1623 C1639 1.349 . S
C1624 C1622 1.327 . S
C1624 C1643 1.429 . S
C1624 H1648 0.950 . S
C1625 C1642 1.574 . S
C1625 C1644 1.368 . S
C1625 H1649 0.949 . S
H1626 C1630 0.949 . S
C1627 C1628 1.349 . S
C1627 C1629 1.327 . S
C1627 H1650 0.950 . S
C1628 C1627 1.349 . S
C1628 C1640 1.349 . S
C1629 C1627 1.327 . S
C1629 C1645 1.429 . S
C1629 H1651 0.950 . S
C1630 H1626 0.949 . S
C1630 C1638 1.574 . S
C1630 C1646 1.368 . S
H1631 C1639 0.950 . S
H1632 C1637 0.950 . S
H1633 C1638 0.949 . S
H1634 C1640 0.950 . S
H1635 C1641 0.950 . S
H1636 C1642 0.949 . S
C1637 H1632 0.950 . S
C1637 C1639 1.327 . S
C1637 C1643 1.429 . S
C1638 C1630 1.574 . S
C1638 H1633 0.949 . S
C1638 C1644 1.368 . S
C1639 C1623 1.349 . S
C1639 H1631 0.950 . S
C1639 C1637 1.327 . S
C1640 C1628 1.349 . S
C1640 H1634 0.950 . S
C1640 C1641 1.327 . S
C1641 H1635 0.950 . S
C1641 C1640 1.327 . S
C1641 C1645 1.429 . S
C1642 C1625 1.574 . S
C1642 H1636 0.949 . S
C1642 C1646 1.368 . S
C1643 C1624 1.429 . S
C1643 C1637 1.429 . S
C1643 C1644 1.523 . S
C1644 C1625 1.368 . S
C1644 C1638 1.368 . S
C1644 C1643 1.523 . S
C1645 C1629 1.429 . S
C1645 C1641 1.429 . S
C1645 C1646 1.523 . S
C1646 C1630 1.368 . S
C1646 C1642 1.368 . S
C1646 C1645 1.523 . S
H1647 C1622 0.950 . S
H1648 C1624 0.950 . S
H1649 C1625 0.949 . S
H1650 C1627 0.950 . S
H1651 C1629 0.950 . S
C1652 C1653 1.349 . S
C1652 C1654 1.327 . S
C1652 H1677 0.950 . S
C1653 C1652 1.349 . S
C1653 C1669 1.349 . S
C1654 C1652 1.327 . S
C1654 C1673 1.429 . S
C1654 H1678 0.950 . S
C1655 C1672 1.574 . S
C1655 C1674 1.368 . S
C1655 H1679 0.949 . S
H1656 C1660 0.949 . S
C1657 C1658 1.349 . S
C1657 C1659 1.327 . S
C1657 H1680 0.950 . S
C1658 C1657 1.349 . S
C1658 C1670 1.349 . S
C1659 C1657 1.327 . S
C1659 C1675 1.429 . S
C1659 H1681 0.950 . S
C1660 H1656 0.949 . S
C1660 C1668 1.574 . S
C1660 C1676 1.368 . S
H1661 C1669 0.950 . S
H1662 C1667 0.950 . S
H1663 C1668 0.949 . S
H1664 C1670 0.950 . S
H1665 C1671 0.950 . S
H1666 C1672 0.949 . S
C1667 H1662 0.950 . S
C1667 C1669 1.327 . S
C1667 C1673 1.429 . S
C1668 C1660 1.574 . S
C1668 H1663 0.949 . S
C1668 C1674 1.368 . S
C1669 C1653 1.349 . S
C1669 H1661 0.950 . S
C1669 C1667 1.327 . S
C1670 C1658 1.349 . S
C1670 H1664 0.950 . S
C1670 C1671 1.327 . S
C1671 H1665 0.950 . S
C1671 C1670 1.327 . S
C1671 C1675 1.429 . S
C1672 C1655 1.574 . S
C1672 H1666 0.949 . S
C1672 C1676 1.368 . S
C1673 C1654 1.429 . S
C1673 C1667 1.429 . S
C1673 C1674 1.523 . S
C1674 C1655 1.368 . S
C1674 C1668 1.368 . S
C1674 C1673 1.523 . S
C1675 C1659 1.429 . S
C1675 C1671 1.429 . S
C1675 C1676 1.523 . S
C1676 C1660 1.368 . S
C1676 C1672 1.368 . S
C1676 C1675 1.523 . S
H1677 C1652 0.950 . S
H1678 C1654 0.950 . S
H1679 C1655 0.949 . S
H1680 C1657 0.950 . S
H1681 C1659 0.950 . S
C1682 C1683 1.349 . S
C1682 C1684 1.327 . S
C1682 H1707 0.950 . S
C1683 C1682 1.349 . S
C1683 C1699 1.349 . S
C1684 C1682 1.327 . S
C1684 C1703 1.429 . S
C1684 H1708 0.950 . S
C1685 C1702 1.574 . S
C1685 C1704 1.368 . S
C1685 H1709 0.949 . S
H1686 C1690 0.949 . S
C1687 C1688 1.349 . S
C1687 C1689 1.327 . S
C1687 H1710 0.950 . S
C1688 C1687 1.349 . S
C1688 C1700 1.349 . S
C1689 C1687 1.327 . S
C1689 C1705 1.429 . S
C1689 H1711 0.950 . S
C1690 H1686 0.949 . S
C1690 C1698 1.574 . S
C1690 C1706 1.368 . S
H1691 C1699 0.950 . S
H1692 C1697 0.950 . S
H1693 C1698 0.949 . S
H1694 C1700 0.950 . S
H1695 C1701 0.950 . S
H1696 C1702 0.949 . S
C1697 H1692 0.950 . S
C1697 C1699 1.327 . S
C1697 C1703 1.429 . S
C1698 C1690 1.574 . S
C1698 H1693 0.949 . S
C1698 C1704 1.368 . S
C1699 C1683 1.349 . S
C1699 H1691 0.950 . S
C1699 C1697 1.327 . S
C1700 C1688 1.349 . S
C1700 H1694 0.950 . S
C1700 C1701 1.327 . S
C1701 H1695 0.950 . S
C1701 C1700 1.327 . S
C1701 C1705 1.429 . S
C1702 C1685 1.574 . S
C1702 H1696 0.949 . S
C1702 C1706 1.368 . S
C1703 C1684 1.429 . S
C1703 C1697 1.429 . S
C1703 C1704 1.523 . S
C1704 C1685 1.368 . S
C1704 C1698 1.368 . S
C1704 C1703 1.523 . S
C1705 C1689 1.429 . S
C1705 C1701 1.429 . S
C1705 C1706 1.523 . S
C1706 C1690 1.368 . S
C1706 C1702 1.368 . S
C1706 C1705 1.523 . S
H1707 C1682 0.950 . S
H1708 C1684 0.950 . S
H1709 C1685 0.949 . S
H1710 C1687 0.950 . S
H1711 C1689 0.950 . S
C1712 C1713 1.349 . S
C1712 C1714 1.327 . S
C1712 H1737 0.950 . S
C1713 C1712 1.349 . S
C1713 C1729 1.349 . S
C1714 C1712 1.327 . S
C1714 C1733 1.429 . S
C1714 H1738 0.950 . S
C1715 C1732 1.574 . S
C1715 C1734 1.368 . S
C1715 H1739 0.949 . S
H1716 C1720 0.949 . S
C1717 C1718 1.349 . S
C1717 C1719 1.327 . S
C1717 H1740 0.950 . S
C1718 C1717 1.349 . S
C1718 C1730 1.349 . S
C1719 C1717 1.327 . S
C1719 C1735 1.429 . S
C1719 H1741 0.950 . S
C1720 H1716 0.949 . S
C1720 C1728 1.574 . S
C1720 C1736 1.368 . S
H1721 C1729 0.950 . S
H1722 C1727 0.950 . S
H1723 C1728 0.949 . S
H1724 C1730 0.950 . S
H1725 C1731 0.950 . S
H1726 C1732 0.949 . S
C1727 H1722 0.950 . S
C1727 C1729 1.327 . S
C1727 C1733 1.429 . S
C1728 C1720 1.574 . S
C1728 H1723 0.949 . S
C1728 C1734 1.368 . S
C1729 C1713 1.349 . S
C1729 H1721 0.950 . S
C1729 C1727 1.327 . S
C1730 C1718 1.349 . S
C1730 H1724 0.950 . S
C1730 C1731 1.327 . S
C1731 H1725 0.950 . S
C1731 C1730 1.327 . S
C1731 C1735 1.429 . S
C1732 C1715 1.574 . S
C1732 H1726 0.949 . S
C1732 C1736 1.368 . S
C1733 C1714 1.429 . S
C1733 C1727 1.429 . S
C1733 C1734 1.523 1_556 S
C1734 C1715 1.368 . S
C1734 C1728 1.368 . S
C1734 C1733 1.523 1_554 S
C1735 C1719 1.429 . S
C1735 C1731 1.429 . S
C1735 C1736 1.523 . S
C1736 C1720 1.368 . S
C1736 C1732 1.368 . S
C1736 C1735 1.523 . S
H1737 C1712 0.950 . S
H1738 C1714 0.950 . S
H1739 C1715 0.949 . S
H1740 C1717 0.950 . S
H1741 C1719 0.950 . S
C1742 C1743 1.349 . S
C1742 C1744 1.327 . S
C1742 H1767 0.950 . S
C1743 C1742 1.349 . S
C1743 C1759 1.349 . S
C1744 C1742 1.327 . S
C1744 C1763 1.429 . S
C1744 H1768 0.950 . S
C1745 C1762 1.574 . S
C1745 C1764 1.368 . S
C1745 H1769 0.949 . S
H1746 C1750 0.949 . S
C1747 C1748 1.349 . S
C1747 C1749 1.327 . S
C1747 H1770 0.950 . S
C1748 C1747 1.349 . S
C1748 C1760 1.349 . S
C1749 C1747 1.327 . S
C1749 C1765 1.429 . S
C1749 H1771 0.950 . S
C1750 H1746 0.949 . S
C1750 C1758 1.574 . S
C1750 C1766 1.368 . S
H1751 C1759 0.950 . S
H1752 C1757 0.950 . S
H1753 C1758 0.949 . S
H1754 C1760 0.950 . S
H1755 C1761 0.950 . S
H1756 C1762 0.949 . S
C1757 H1752 0.950 . S
C1757 C1759 1.327 . S
C1757 C1763 1.429 . S
C1758 C1750 1.574 . S
C1758 H1753 0.949 . S
C1758 C1764 1.368 . S
C1759 C1743 1.349 . S
C1759 H1751 0.950 . S
C1759 C1757 1.327 . S
C1760 C1748 1.349 . S
C1760 H1754 0.950 . S
C1760 C1761 1.327 . S
C1761 H1755 0.950 . S
C1761 C1760 1.327 . S
C1761 C1765 1.429 . S
C1762 C1745 1.574 . S
C1762 H1756 0.949 . S
C1762 C1766 1.368 . S
C1763 C1744 1.429 . S
C1763 C1757 1.429 . S
C1763 C1764 1.523 . S
C1764 C1745 1.368 . S
C1764 C1758 1.368 . S
C1764 C1763 1.523 . S
C1765 C1749 1.429 . S
C1765 C1761 1.429 . S
C1765 C1766 1.523 1_554 S
C1766 C1750 1.368 . S
C1766 C1762 1.368 . S
C1766 C1765 1.523 1_556 S
H1767 C1742 0.950 . S
H1768 C1744 0.950 . S
H1769 C1745 0.949 . S
H1770 C1747 0.950 . S
H1771 C1749 0.950 . S
C1772 C1773 1.349 . S
C1772 C1774 1.327 . S
C1772 H1797 0.950 . S
C1773 C1772 1.349 . S
C1773 C1789 1.349 . S
C1774 C1772 1.327 . S
C1774 C1793 1.429 . S
C1774 H1798 0.950 . S
C1775 C1792 1.574 . S
C1775 C1794 1.368 . S
C1775 H1799 0.949 . S
H1776 C1780 0.949 . S
C1777 C1778 1.349 . S
C1777 C1779 1.327 . S
C1777 H1800 0.950 . S
C1778 C1777 1.349 . S
C1778 C1790 1.349 . S
C1779 C1777 1.327 . S
C1779 C1795 1.429 . S
C1779 H1801 0.950 . S
C1780 H1776 0.949 . S
C1780 C1788 1.574 . S
C1780 C1796 1.368 . S
H1781 C1789 0.950 . S
H1782 C1787 0.950 . S
H1783 C1788 0.949 . S
H1784 C1790 0.950 . S
H1785 C1791 0.950 . S
H1786 C1792 0.949 . S
C1787 H1782 0.950 . S
C1787 C1789 1.327 . S
C1787 C1793 1.429 . S
C1788 C1780 1.574 . S
C1788 H1783 0.949 . S
C1788 C1794 1.368 . S
C1789 C1773 1.349 . S
C1789 H1781 0.950 . S
C1789 C1787 1.327 . S
C1790 C1778 1.349 . S
C1790 H1784 0.950 . S
C1790 C1791 1.327 . S
C1791 H1785 0.950 . S
C1791 C1790 1.327 . S
C1791 C1795 1.429 . S
C1792 C1775 1.574 . S
C1792 H1786 0.949 . S
C1792 C1796 1.368 . S
C1793 C1774 1.429 . S
C1793 C1787 1.429 . S
C1793 C1794 1.523 . S
C1794 C1775 1.368 . S
C1794 C1788 1.368 . S
C1794 C1793 1.523 . S
C1795 C1779 1.429 . S
C1795 C1791 1.429 . S
C1795 C1796 1.523 1_556 S
C1796 C1780 1.368 . S
C1796 C1792 1.368 . S
C1796 C1795 1.523 1_554 S
H1797 C1772 0.950 . S
H1798 C1774 0.950 . S
H1799 C1775 0.949 . S
H1800 C1777 0.950 . S
H1801 C1779 0.950 . S
C1802 C1803 1.349 . S
C1802 C1804 1.327 . S
C1802 H1827 0.950 . S
C1803 C1802 1.349 . S
C1803 C1819 1.349 . S
C1804 C1802 1.327 . S
C1804 C1823 1.429 . S
C1804 H1828 0.950 . S
C1805 C1822 1.574 . S
C1805 C1824 1.368 . S
C1805 H1829 0.949 . S
H1806 C1810 0.949 . S
C1807 C1808 1.349 . S
C1807 C1809 1.327 . S
C1807 H1830 0.950 . S
C1808 C1807 1.349 . S
C1808 C1820 1.349 . S
C1809 C1807 1.327 . S
C1809 C1825 1.429 . S
C1809 H1831 0.950 . S
C1810 H1806 0.949 . S
C1810 C1818 1.574 . S
C1810 C1826 1.368 . S
H1811 C1819 0.950 . S
H1812 C1817 0.950 . S
H1813 C1818 0.949 . S
H1814 C1820 0.950 . S
H1815 C1821 0.950 . S
H1816 C1822 0.949 . S
C1817 H1812 0.950 . S
C1817 C1819 1.327 . S
C1817 C1823 1.429 . S
C1818 C1810 1.574 . S
C1818 H1813 0.949 . S
C1818 C1824 1.368 . S
C1819 C1803 1.349 . S
C1819 H1811 0.950 . S
C1819 C1817 1.327 . S
C1820 C1808 1.349 . S
C1820 H1814 0.950 . S
C1820 C1821 1.327 . S
C1821 H1815 0.950 . S
C1821 C1820 1.327 . S
C1821 C1825 1.429 . S
C1822 C1805 1.574 . S
C1822 H1816 0.949 . S
C1822 C1826 1.368 . S
C1823 C1804 1.429 . S
C1823 C1817 1.429 . S
C1823 C1824 1.523 1_554 S
C1824 C1805 1.368 . S
C1824 C1818 1.368 . S
C1824 C1823 1.523 1_556 S
C1825 C1809 1.429 . S
C1825 C1821 1.429 . S
C1825 C1826 1.523 . S
C1826 C1810 1.368 . S
C1826 C1822 1.368 . S
C1826 C1825 1.523 . S
H1827 C1802 0.950 . S
H1828 C1804 0.950 . S
H1829 C1805 0.949 . S
H1830 C1807 0.950 . S
H1831 C1809 0.950 . S
C1832 C1833 1.349 . S
C1832 C1834 1.327 . S
C1832 H1857 0.950 . S
C1833 C1832 1.349 . S
C1833 C1849 1.349 . S
C1834 C1832 1.327 . S
C1834 C1853 1.429 . S
C1834 H1858 0.950 . S
C1835 C1852 1.574 . S
C1835 C1854 1.368 . S
C1835 H1859 0.949 . S
H1836 C1840 0.949 . S
C1837 C1838 1.349 . S
C1837 C1839 1.327 . S
C1837 H1860 0.950 . S
C1838 C1837 1.349 . S
C1838 C1850 1.349 . S
C1839 C1837 1.327 . S
C1839 C1855 1.429 . S
C1839 H1861 0.950 . S
C1840 H1836 0.949 . S
C1840 C1848 1.574 . S
C1840 C1856 1.368 . S
H1841 C1849 0.950 . S
H1842 C1847 0.950 . S
H1843 C1848 0.949 . S
H1844 C1850 0.950 . S
H1845 C1851 0.950 . S
H1846 C1852 0.949 . S
C1847 H1842 0.950 . S
C1847 C1849 1.327 . S
C1847 C1853 1.429 . S
C1848 C1840 1.574 . S
C1848 H1843 0.949 . S
C1848 C1854 1.368 . S
C1849 C1833 1.349 . S
C1849 H1841 0.950 . S
C1849 C1847 1.327 . S
C1850 C1838 1.349 . S
C1850 H1844 0.950 . S
C1850 C1851 1.327 . S
C1851 H1845 0.950 . S
C1851 C1850 1.327 . S
C1851 C1855 1.429 . S
C1852 C1835 1.574 . S
C1852 H1846 0.949 . S
C1852 C1856 1.368 . S
C1853 C1834 1.429 . S
C1853 C1847 1.429 . S
C1853 C1854 1.523 . S
C1854 C1835 1.368 . S
C1854 C1848 1.368 . S
C1854 C1853 1.523 . S
C1855 C1839 1.429 . S
C1855 C1851 1.429 . S
C1855 C1856 1.523 1_556 S
C1856 C1840 1.368 . S
C1856 C1852 1.368 . S
C1856 C1855 1.523 1_554 S
H1857 C1832 0.950 . S
H1858 C1834 0.950 . S
H1859 C1835 0.949 . S
H1860 C1837 0.950 . S
H1861 C1839 0.950 . S
C1862 C1863 1.349 . S
C1862 C1864 1.327 . S
C1862 H1887 0.950 . S
C1863 C1862 1.349 . S
C1863 C1879 1.349 . S
C1864 C1862 1.327 . S
C1864 C1883 1.429 . S
C1864 H1888 0.950 . S
C1865 C1882 1.574 . S
C1865 C1884 1.368 . S
C1865 H1889 0.949 . S
H1866 C1870 0.949 . S
C1867 C1868 1.349 . S
C1867 C1869 1.327 . S
C1867 H1890 0.950 . S
C1868 C1867 1.349 . S
C1868 C1880 1.349 . S
C1869 C1867 1.327 . S
C1869 C1885 1.429 . S
C1869 H1891 0.950 . S
C1870 H1866 0.949 . S
C1870 C1878 1.574 . S
C1870 C1886 1.368 . S
H1871 C1879 0.950 . S
H1872 C1877 0.950 . S
H1873 C1878 0.949 . S
H1874 C1880 0.950 . S
H1875 C1881 0.950 . S
H1876 C1882 0.949 . S
C1877 H1872 0.950 . S
C1877 C1879 1.327 . S
C1877 C1883 1.429 . S
C1878 C1870 1.574 . S
C1878 H1873 0.949 . S
C1878 C1884 1.368 . S
C1879 C1863 1.349 . S
C1879 H1871 0.950 . S
C1879 C1877 1.327 . S
C1880 C1868 1.349 . S
C1880 H1874 0.950 . S
C1880 C1881 1.327 . S
C1881 H1875 0.950 . S
C1881 C1880 1.327 . S
C1881 C1885 1.429 . S
C1882 C1865 1.574 . S
C1882 H1876 0.949 . S
C1882 C1886 1.368 . S
C1883 C1864 1.429 . S
C1883 C1877 1.429 . S
C1883 C1884 1.523 1_554 S
C1884 C1865 1.368 . S
C1884 C1878 1.368 . S
C1884 C1883 1.523 1_556 S
C1885 C1869 1.429 . S
C1885 C1881 1.429 . S
C1885 C1886 1.523 . S
C1886 C1870 1.368 . S
C1886 C1882 1.368 . S
C1886 C1885 1.523 . S
H1887 C1862 0.950 . S
H1888 C1864 0.950 . S
H1889 C1865 0.949 . S
H1890 C1867 0.950 . S
H1891 C1869 0.950 . S
C1892 C1893 1.349 . S
C1892 C1894 1.327 . S
C1892 H1917 0.950 . S
C1893 C1892 1.349 . S
C1893 C1909 1.349 . S
C1894 C1892 1.327 . S
C1894 C1913 1.429 . S
C1894 H1918 0.950 . S
C1895 C1912 1.574 . S
C1895 C1914 1.368 . S
C1895 H1919 0.949 . S
H1896 C1900 0.949 . S
C1897 C1898 1.349 . S
C1897 C1899 1.327 . S
C1897 H1920 0.950 . S
C1898 C1897 1.349 . S
C1898 C1910 1.349 . S
C1899 C1897 1.327 . S
C1899 C1915 1.429 . S
C1899 H1921 0.950 . S
C1900 H1896 0.949 . S
C1900 C1908 1.574 . S
C1900 C1916 1.368 . S
H1901 C1909 0.950 . S
H1902 C1907 0.950 . S
H1903 C1908 0.949 . S
H1904 C1910 0.950 . S
H1905 C1911 0.950 . S
H1906 C1912 0.949 . S
C1907 H1902 0.950 . S
C1907 C1909 1.327 . S
C1907 C1913 1.429 . S
C1908 C1900 1.574 . S
C1908 H1903 0.949 . S
C1908 C1914 1.368 . S
C1909 C1893 1.349 . S
C1909 H1901 0.950 . S
C1909 C1907 1.327 . S
C1910 C1898 1.349 . S
C1910 H1904 0.950 . S
C1910 C1911 1.327 . S
C1911 H1905 0.950 . S
C1911 C1910 1.327 . S
C1911 C1915 1.429 . S
C1912 C1895 1.574 . S
C1912 H1906 0.949 . S
C1912 C1916 1.368 . S
C1913 C1894 1.429 . S
C1913 C1907 1.429 . S
C1913 C1914 1.523 1_556 S
C1914 C1895 1.368 . S
C1914 C1908 1.368 . S
C1914 C1913 1.523 1_554 S
C1915 C1899 1.429 . S
C1915 C1911 1.429 . S
C1915 C1916 1.523 . S
C1916 C1900 1.368 . S
C1916 C1912 1.368 . S
C1916 C1915 1.523 . S
H1917 C1892 0.950 . S
H1918 C1894 0.950 . S
H1919 C1895 0.949 . S
H1920 C1897 0.950 . S
H1921 C1899 0.950 . S
C1922 C1923 1.349 . S
C1922 C1924 1.327 . S
C1922 H1947 0.950 . S
C1923 C1922 1.349 . S
C1923 C1939 1.349 . S
C1924 C1922 1.327 . S
C1924 C1943 1.429 . S
C1924 H1948 0.950 . S
C1925 C1942 1.574 . S
C1925 C1944 1.368 . S
C1925 H1949 0.949 . S
H1926 C1930 0.949 . S
C1927 C1928 1.349 . S
C1927 C1929 1.327 . S
C1927 H1950 0.950 . S
C1928 C1927 1.349 . S
C1928 C1940 1.349 . S
C1929 C1927 1.327 . S
C1929 C1945 1.429 . S
C1929 H1951 0.950 . S
C1930 H1926 0.949 . S
C1930 C1938 1.574 . S
C1930 C1946 1.368 . S
H1931 C1939 0.950 . S
H1932 C1937 0.950 . S
H1933 C1938 0.949 . S
H1934 C1940 0.950 . S
H1935 C1941 0.950 . S
H1936 C1942 0.949 . S
C1937 H1932 0.950 . S
C1937 C1939 1.327 . S
C1937 C1943 1.429 . S
C1938 C1930 1.574 . S
C1938 H1933 0.949 . S
C1938 C1944 1.368 . S
C1939 C1923 1.349 . S
C1939 H1931 0.950 . S
C1939 C1937 1.327 . S
C1940 C1928 1.349 . S
C1940 H1934 0.950 . S
C1940 C1941 1.327 . S
C1941 H1935 0.950 . S
C1941 C1940 1.327 . S
C1941 C1945 1.429 . S
C1942 C1925 1.574 . S
C1942 H1936 0.949 . S
C1942 C1946 1.368 . S
C1943 C1924 1.429 . S
C1943 C1937 1.429 . S
C1943 C1944 1.523 . S
C1944 C1925 1.368 . S
C1944 C1938 1.368 . S
C1944 C1943 1.523 . S
C1945 C1929 1.429 . S
C1945 C1941 1.429 . S
C1945 C1946 1.523 1_554 S
C1946 C1930 1.368 . S
C1946 C1942 1.368 . S
C1946 C1945 1.523 1_556 S
H1947 C1922 0.950 . S
H1948 C1924 0.950 . S
H1949 C1925 0.949 . S
H1950 C1927 0.950 . S
H1951 C1929 0.950 . S
C513 C381 1.576 . S
C518 N13 1.563 . S
C543 C285 1.575 . S
C548 N45 1.563 . S
C573 N82 1.563 . S
C578 C317 1.575 . S
C603 N114 1.564 . S
C608 C324 1.576 . S
C633 N141 1.563 . S
C638 C164 1.575 . S
C663 C221 1.575 . S
C668 N178 1.563 . S
C693 N205 1.563 . S
C698 C253 1.575 . S
C723 C157 1.576 . S
C728 N237 1.563 . S
C753 C100 1.576 . S
C758 N269 1.564 . S
C783 N301 1.563 . S
C788 C29 1.575 . S
C813 C61 1.576 . S
C818 N338 1.564 . S
C843 C68 1.576 . S
C848 N365 1.564 . S
C873 N402 1.563 . S
C878 C445 1.576 . S
C903 C477 1.575 . S
C908 N429 1.563 . S
C933 C484 1.575 . S
C938 N461 1.563 . S
C963 N498 1.563 . S
C968 C388 1.575 . S
C993 N18 1.117 . S
C998 N146 1.117 . S
C1023 N173 1.117 . S
C1028 N50 1.117 . S
C1053 N77 1.117 . S
C1058 N210 1.117 . S
C1083 N109 1.117 . S
C1088 N242 1.117 . S
C1113 N274 1.117 . S
C1118 N397 1.117 . S
C1143 N434 1.117 . S
C1148 N306 1.117 . S
C1173 N333 1.117 . S
C1178 N466 1.117 . S
C1203 N370 1.117 . S
C1208 N493 1.117 . S
C1233 C450 2.235 . S
C1238 C2 2.235 . S
C1263 C34 2.235 . S
C1268 C486 2.235 . S
C1293 C70 2.235 . S
C1298 C390 2.235 . S
C1323 C102 2.235 . S
C1328 C418 2.235 . S
C1353 C130 2.235 . S
C1358 C326 2.235 . S
C1383 C166 2.235 . S
C1388 C354 2.235 . S
C1413 C194 2.235 . S
C1418 C258 2.235 . S
C1443 C290 2.235 . S
C1448 C226 2.235 . S
C1473 C6 0.924 . S
C1478 C4 0.925 . S
C1503 C38 0.924 . S
C1508 C36 0.925 . S
C1533 C66 0.924 . S
C1538 C93 0.925 . S
C1563 C125 0.925 . S
C1568 C98 0.924 . S
C1593 C132 0.925 . S
C1598 C134 0.924 . S
C1623 C162 0.924 . S
C1628 C189 0.925 . S
C1653 C198 0.924 . S
C1658 C196 0.925 . S
C1683 C228 0.925 . S
C1688 C230 0.924 . S
C1713 C262 0.924 . S
C1718 C260 0.925 . S
C1743 C292 0.925 . S
C1748 C294 0.924 . S
C1773 C349 0.925 . S
C1778 C322 0.924 . S
C1803 C358 0.924 . S
C1808 C356 0.925 . S
C1833 C386 0.924 . S
C1838 C413 0.925 . S
C1863 C420 0.925 . S
C1868 C422 0.924 . S
C1893 C452 0.925 . S
C1898 C454 0.924 . S
C1923 C482 0.924 . S
C1928 C509 0.925 . S
