# Generated by pormake.
# Topology wjf, (4)-cn, num edge types: 1
# Building blocks:
#     Node 0, Type 0, BuildingBlock: ESEHIV_clean_sbu_0, # of connection points: 4
#     Node 1, Type 0, BuildingBlock: ESEHIV_clean_sbu_0, # of connection points: 4
#     Node 2, Type 0, BuildingBlock: ESEHIV_clean_sbu_0, # of connection points: 4
#     Node 3, Type 0, BuildingBlock: ESEHIV_clean_sbu_0, # of connection points: 4
#     Node 4, Type 0, BuildingBlock: ESEHIV_clean_sbu_0, # of connection points: 4
#     Node 5, Type 0, BuildingBlock: ESEHIV_clean_sbu_0, # of connection points: 4
#     Node 6, Type 0, BuildingBlock: ESEHIV_clean_sbu_0, # of connection points: 4
#     Node 7, Type 0, BuildingBlock: ESEHIV_clean_sbu_0, # of connection points: 4
#     Node 8, Type 0, BuildingBlock: ESEHIV_clean_sbu_0, # of connection points: 4
#     Node 9, Type 0, BuildingBlock: ESEHIV_clean_sbu_0, # of connection points: 4
#     Node 10, Type 0, BuildingBlock: ESEHIV_clean_sbu_0, # of connection points: 4
#     Node 11, Type 0, BuildingBlock: ESEHIV_clean_sbu_0, # of connection points: 4
#     Edge 12, Type (0, 0), BuildingBlock: KIFKEQ_clean_linker_1, # of connection points: 2
#     Edge 13, Type (0, 0), BuildingBlock: KIFKEQ_clean_linker_1, # of connection points: 2
#     Edge 14, Type (0, 0), BuildingBlock: KIFKEQ_clean_linker_1, # of connection points: 2
#     Edge 15, Type (0, 0), BuildingBlock: KIFKEQ_clean_linker_1, # of connection points: 2
#     Edge 16, Type (0, 0), BuildingBlock: KIFKEQ_clean_linker_1, # of connection points: 2
#     Edge 17, Type (0, 0), BuildingBlock: KIFKEQ_clean_linker_1, # of connection points: 2
#     Edge 18, Type (0, 0), BuildingBlock: KIFKEQ_clean_linker_1, # of connection points: 2
#     Edge 19, Type (0, 0), BuildingBlock: KIFKEQ_clean_linker_1, # of connection points: 2
#     Edge 20, Type (0, 0), BuildingBlock: KIFKEQ_clean_linker_1, # of connection points: 2
#     Edge 21, Type (0, 0), BuildingBlock: KIFKEQ_clean_linker_1, # of connection points: 2
#     Edge 22, Type (0, 0), BuildingBlock: KIFKEQ_clean_linker_1, # of connection points: 2
#     Edge 23, Type (0, 0), BuildingBlock: KIFKEQ_clean_linker_1, # of connection points: 2
#     Edge 24, Type (0, 0), BuildingBlock: KIFKEQ_clean_linker_1, # of connection points: 2
#     Edge 25, Type (0, 0), BuildingBlock: KIFKEQ_clean_linker_1, # of connection points: 2
#     Edge 26, Type (0, 0), BuildingBlock: KIFKEQ_clean_linker_1, # of connection points: 2
#     Edge 27, Type (0, 0), BuildingBlock: KIFKEQ_clean_linker_1, # of connection points: 2
#     Edge 28, Type (0, 0), BuildingBlock: KIFKEQ_clean_linker_1, # of connection points: 2
#     Edge 29, Type (0, 0), BuildingBlock: KIFKEQ_clean_linker_1, # of connection points: 2
#     Edge 30, Type (0, 0), BuildingBlock: KIFKEQ_clean_linker_1, # of connection points: 2
#     Edge 31, Type (0, 0), BuildingBlock: KIFKEQ_clean_linker_1, # of connection points: 2
#     Edge 32, Type (0, 0), BuildingBlock: KIFKEQ_clean_linker_1, # of connection points: 2
#     Edge 33, Type (0, 0), BuildingBlock: KIFKEQ_clean_linker_1, # of connection points: 2
#     Edge 34, Type (0, 0), BuildingBlock: KIFKEQ_clean_linker_1, # of connection points: 2
#     Edge 35, Type (0, 0), BuildingBlock: KIFKEQ_clean_linker_1, # of connection points: 2
# Relax obj value: 0.107
# Max RMSD: 0.235
# Mean RMSD: 0.235
data_MOF--net-wjf--node1-ESEHIV_clean_sbu_0--edge1-KIFKEQ_clean_linker_1
_symmetry_space_group_name_H-M    P1
_symmetry_Int_Tables_number       1
_symmetry_cell_setting            triclinic
loop_
_symmetry_equiv_pos_as_xyz
'x, y, z'
_cell_length_a     59.857853
_cell_length_b     59.856995
_cell_length_c     28.284604
_cell_angle_alpha  90.069493
_cell_angle_beta   89.99929
_cell_angle_gamma 119.98109
loop_
_atom_site_label
_atom_site_type_symbol
_atom_site_fract_x
_atom_site_fract_y
_atom_site_fract_z
_atom_type_partial_charge
Cu0 Cu 0.34109 0.38555 0.12619 0.0
N1 N 0.36639 0.42011 0.12041 0.0
N2 N 0.40585 0.45438 0.11325 0.0
C3 C 0.3916 0.4284 0.11431 0.0
C4 C 0.38884 0.46275 0.11897 0.0
C5 C 0.36444 0.44151 0.12325 0.0
O6 O 0.34815 0.372 0.1833 0.0
C7 C 0.32463 0.35669 0.03945 0.0
O8 O 0.30161 0.35276 0.05022 0.0
H9 H 0.39936 0.41552 0.11212 0.0
H10 H 0.34665 0.44167 0.1288 0.0
N11 N 0.3085 0.38191 0.13371 0.0
N12 N 0.27186 0.3821 0.12078 0.0
C13 C 0.29675 0.39198 0.10787 0.0
C14 C 0.29058 0.36553 0.16428 0.0
C15 C 0.26792 0.36551 0.15627 0.0
C16 C 0.35377 0.38583 0.22048 0.0
O17 O 0.35519 0.40841 0.21804 0.0
H18 H 0.30573 0.40494 0.07837 0.0
H19 H 0.29356 0.35364 0.18936 0.0
O20 O 0.34312 0.36851 0.06867 0.0
H21 H 0.39364 0.48274 0.11996 0.0
H22 H 0.24975 0.35371 0.17419 0.0
Cu23 Cu 0.96624 0.34239 0.45248 0.0
N24 N 0.95485 0.36603 0.44827 0.0
N25 N 0.95732 0.40447 0.45017 0.0
C26 C 0.96867 0.39072 0.46237 0.0
C27 C 0.9354 0.38769 0.42747 0.0
C28 C 0.9339 0.3639 0.42643 0.0
O29 O 0.9855 0.3505 0.51136 0.0
C30 C 0.98703 0.3296 0.37125 0.0
O31 O 0.9758 0.30592 0.38766 0.0
H32 H 0.98743 0.39874 0.47894 0.0
H33 H 0.91913 0.34658 0.40946 0.0
N34 N 0.93806 0.30909 0.4567 0.0
N35 N 0.90239 0.27189 0.44 0.0
C36 C 0.92014 0.29538 0.42367 0.0
C37 C 0.9313 0.2939 0.49517 0.0
C38 C 0.9094 0.27095 0.48497 0.0
C39 C 0.99536 0.33812 0.53013 0.0
O40 O 0.99557 0.31931 0.50654 0.0
H41 H 0.92025 0.30244 0.38841 0.0
H42 H 0.94141 0.29928 0.52859 0.0
O43 O 0.98631 0.34721 0.39535 0.0
H44 H 0.92176 0.3924 0.41183 0.0
H45 H 0.89907 0.25505 0.50921 0.0
Cu46 Cu 0.624 0.95386 0.7899 0.0
N47 N 0.59171 0.9505 0.77979 0.0
N48 N 0.56059 0.96061 0.77373 0.0
C49 C 0.58552 0.96912 0.78477 0.0
C50 C 0.5508 0.93564 0.76125 0.0
C51 C 0.57007 0.92949 0.76495 0.0
O52 O 0.63998 0.97537 0.84543 0.0
C53 C 0.6491 0.9893 0.71548 0.0
O54 O 0.64404 1.00456 0.7411 0.0
H55 H 0.59904 0.9884 0.79693 0.0
H56 H 0.56851 0.91107 0.75705 0.0
N57 N 0.62039 0.92162 0.80193 0.0
N58 N 0.61831 0.88369 0.79129 0.0
C59 C 0.61745 0.9035 0.77031 0.0
C60 C 0.62301 0.91288 0.84421 0.0
C61 C 0.62181 0.88951 0.83774 0.0
C62 C 0.62581 0.97115 0.88174 0.0
O63 O 0.60129 0.95348 0.87928 0.0
H64 H 0.61601 0.90541 0.73253 0.0
H65 H 0.62649 0.9232 0.87725 0.0
O66 O 0.64353 0.96733 0.73186 0.0
H67 H 0.53126 0.92279 0.7495 0.0
H68 H 0.6239 0.87796 0.86489 0.0
Cu69 Cu 0.66984 0.61501 0.11192 0.0
N70 N 0.64036 0.58313 0.10288 0.0
N71 N 0.59906 0.55206 0.09923 0.0
C72 C 0.61567 0.5772 0.10857 0.0
C73 C 0.61399 0.54192 0.08715 0.0
C74 C 0.63943 0.56115 0.08939 0.0
O75 O 0.6647 0.63065 0.16805 0.0
C76 C 0.66212 0.64295 0.03827 0.0
O77 O 0.6431 0.64073 0.0648 0.0
H78 H 0.61009 0.59099 0.11997 0.0
H79 H 0.65613 0.55929 0.08167 0.0
N80 N 0.69723 0.6094 0.12343 0.0
N81 N 0.73328 0.60754 0.11374 0.0
C82 C 0.71695 0.6144 0.09433 0.0
C83 C 0.70108 0.59904 0.16254 0.0
C84 C 0.72332 0.59789 0.15673 0.0
C85 C 0.68336 0.64794 0.19198 0.0
O86 O 0.70691 0.65822 0.17512 0.0
H87 H 0.71925 0.62304 0.05979 0.0
H88 H 0.68844 0.59261 0.19295 0.0
O89 O 0.6765 0.63453 0.05363 0.0
H90 H 0.60705 0.52212 0.07677 0.0
H91 H 0.73119 0.59001 0.18184 0.0
Cu92 Cu 0.06249 0.66825 0.45404 0.0
N93 N 0.06554 0.63891 0.45783 0.0
N94 N 0.05448 0.59734 0.46093 0.0
C95 C 0.04601 0.61446 0.46142 0.0
C96 C 0.0804 0.61175 0.45695 0.0
C97 C 0.08714 0.63737 0.45497 0.0
O98 O 0.03978 0.66591 0.50537 0.0
C99 C 0.04425 0.68399 0.37245 0.0
O100 O 0.04659 0.7035 0.39762 0.0
H101 H 0.02601 0.60946 0.46415 0.0
H102 H 0.10637 0.65369 0.45079 0.0
N103 N 0.0952 0.69691 0.46202 0.0
N104 N 0.13197 0.73366 0.44915 0.0
C105 C 0.10878 0.71615 0.43127 0.0
C106 C 0.11034 0.70225 0.50038 0.0
C107 C 0.13299 0.72498 0.49265 0.0
C108 C 0.04461 0.68437 0.53364 0.0
O109 O 0.06384 0.70757 0.52446 0.0
H110 H 0.10173 0.71736 0.39669 0.0
H111 H 0.10519 0.69035 0.53171 0.0
O112 O 0.04934 0.66772 0.39113 0.0
H113 H 0.09356 0.60436 0.45426 0.0
H114 H 0.14915 0.73412 0.5168 0.0
Cu115 Cu 0.39506 0.05347 0.78295 0.0
N116 N 0.42958 0.06263 0.77911 0.0
N117 N 0.46406 0.05753 0.77805 0.0
C118 C 0.43854 0.04635 0.78668 0.0
C119 C 0.47143 0.08188 0.76446 0.0
C120 C 0.45006 0.08498 0.76523 0.0
O121 O 0.38221 0.03341 0.84051 0.0
C122 C 0.36035 0.03422 0.70286 0.0
O123 O 0.34776 0.04466 0.72211 0.0
H124 H 0.42628 0.02636 0.79656 0.0
H125 H 0.44937 0.10208 0.75539 0.0
N126 N 0.39227 0.08296 0.78922 0.0
N127 N 0.39174 0.11929 0.77436 0.0
C128 C 0.3956 0.10058 0.75625 0.0
C129 C 0.38642 0.09092 0.82943 0.0
C130 C 0.38598 0.11324 0.82037 0.0
C131 C 0.36015 0.02562 0.85892 0.0
O132 O 0.34261 0.02815 0.83541 0.0
H133 H 0.40047 0.09954 0.71976 0.0
H134 H 0.38292 0.08125 0.86315 0.0
O135 O 0.37926 0.03491 0.7248 0.0
H136 H 0.49079 0.09633 0.75435 0.0
H137 H 0.38223 0.12445 0.84592 0.0
Cu138 Cu 0.62584 0.67385 0.61363 0.0
N139 N 0.59123 0.64941 0.62128 0.0
N140 N 0.55671 0.61033 0.63089 0.0
C141 C 0.58268 0.62459 0.63203 0.0
C142 C 0.54859 0.62695 0.61891 0.0
C143 C 0.57 0.65113 0.61305 0.0
O144 O 0.63594 0.66547 0.5539 0.0
C145 C 0.65672 0.68965 0.69784 0.0
O146 O 0.66191 0.71299 0.68627 0.0
H147 H 0.59543 0.61694 0.63831 0.0
H148 H 0.57012 0.66851 0.60218 0.0
N149 N 0.63008 0.7068 0.60781 0.0
N150 N 0.63061 0.7436 0.62321 0.0
C151 C 0.6209 0.71867 0.63567 0.0
C152 C 0.64567 0.72468 0.57638 0.0
C153 C 0.64614 0.74743 0.58593 0.0
C154 C 0.65869 0.67422 0.53806 0.0
O155 O 0.67853 0.68894 0.56513 0.0
H156 H 0.60862 0.70969 0.66602 0.0
H157 H 0.65666 0.72163 0.5494 0.0
O158 O 0.64364 0.67102 0.66946 0.0
H159 H 0.52869 0.62195 0.61401 0.0
H160 H 0.65749 0.76557 0.56763 0.0
Cu161 Cu 0.96094 0.62711 0.95677 0.0
N162 N 0.95882 0.59542 0.96827 0.0
N163 N 0.96932 0.56457 0.97404 0.0
C164 C 0.97747 0.58935 0.9623 0.0
C165 C 0.94459 0.55479 0.98805 0.0
C166 C 0.93821 0.57388 0.98452 0.0
O167 O 0.98024 0.64226 0.89878 0.0
C168 C 0.99851 0.65398 1.0264 0.0
O169 O 0.01245 0.64782 0.99932 0.0
H170 H 0.99643 0.60271 0.94864 0.0
H171 H 0.91985 0.57223 0.99323 0.0
N172 N 0.92775 0.62161 0.94786 0.0
N173 N 0.88865 0.61635 0.96117 0.0
C174 C 0.91139 0.62157 0.98058 0.0
C175 C 0.91502 0.61636 0.90648 0.0
C176 C 0.89091 0.61308 0.91455 0.0
C177 C 0.97644 0.6274 0.86366 0.0
O178 O 0.96071 0.6025 0.86863 0.0
H179 H 0.91596 0.6249 1.01787 0.0
H180 H 0.92273 0.61504 0.87271 0.0
O181 O 0.97606 0.64832 1.01264 0.0
H182 H 0.93208 0.53534 1.00055 0.0
H183 H 0.87633 0.60898 0.888 0.0
Cu184 Cu 0.34478 0.95272 0.28205 0.0
N185 N 0.37086 0.9445 0.28171 0.0
N186 N 0.41074 0.9504 0.28067 0.0
C187 C 0.39608 0.96159 0.27641 0.0
C188 C 0.39399 0.92521 0.289 0.0
C189 C 0.36933 0.92162 0.28952 0.0
O190 O 0.35139 0.97513 0.22796 0.0
C191 C 0.3328 0.97681 0.36004 0.0
O192 O 0.31586 0.97824 0.3326 0.0
H193 H 0.40354 0.98203 0.27127 0.0
H194 H 0.35162 0.90374 0.29603 0.0
N195 N 0.31325 0.92271 0.27368 0.0
N196 N 0.27581 0.88697 0.288 0.0
C197 C 0.29688 0.90723 0.30716 0.0
C198 C 0.30233 0.91184 0.23207 0.0
C199 C 0.27917 0.88984 0.24076 0.0
C200 C 0.33442 0.97808 0.20622 0.0
O201 O 0.31133 0.96879 0.2247 0.0
H202 H 0.30031 0.91086 0.3447 0.0
H203 H 0.31077 0.91936 0.19782 0.0
O204 O 0.34646 0.96773 0.34383 0.0
H205 H 0.39916 0.91048 0.2946 0.0
H206 H 0.2661 0.87667 0.21439 0.0
Cu207 Cu 0.40593 0.34476 0.63219 0.0
N208 N 0.43647 0.37556 0.64234 0.0
N209 N 0.46557 0.41752 0.64708 0.0
C210 C 0.44117 0.39975 0.635 0.0
C211 C 0.47648 0.40385 0.66267 0.0
C212 C 0.45848 0.37802 0.65974 0.0
O213 O 0.38917 0.34853 0.57615 0.0
C214 C 0.37537 0.35026 0.70271 0.0
O215 O 0.37686 0.36854 0.67497 0.0
H216 H 0.42702 0.40415 0.62077 0.0
H217 H 0.46113 0.36208 0.66994 0.0
N218 N 0.4143 0.31904 0.62246 0.0
N219 N 0.41617 0.28299 0.63156 0.0
C220 C 0.40658 0.29762 0.64843 0.0
C221 C 0.42938 0.31809 0.58818 0.0
C222 C 0.43048 0.29578 0.59356 0.0
C223 C 0.37852 0.33092 0.54491 0.0
O224 O 0.37634 0.30827 0.55241 0.0
H225 H 0.39395 0.29275 0.67873 0.0
H226 H 0.43885 0.33263 0.56119 0.0
O227 O 0.38548 0.33701 0.68937 0.0
H228 H 0.49592 0.4119 0.67612 0.0
H229 H 0.44131 0.28968 0.57171 0.0
Cu230 Cu 0.06859 0.40301 0.95204 0.0
N231 N 0.07516 0.4368 0.95137 0.0
N232 N 0.06783 0.46986 0.95455 0.0
C233 C 0.05746 0.44406 0.95801 0.0
C234 C 0.09309 0.47914 0.94529 0.0
C235 C 0.09756 0.45866 0.94343 0.0
O236 O 0.04597 0.38596 0.89845 0.0
C237 C 0.04377 0.36617 1.02862 0.0
O238 O 0.03968 0.34768 0.99875 0.0
H239 H 0.03726 0.43052 0.96427 0.0
H240 H 0.11579 0.4596 0.93657 0.0
N241 N 0.09942 0.40314 0.94268 0.0
N242 N 0.13536 0.40165 0.95562 0.0
C243 C 0.11537 0.40258 0.9756 0.0
C244 C 0.10984 0.40289 0.90066 0.0
C245 C 0.13194 0.40176 0.90853 0.0
C246 C 0.04395 0.36624 0.87727 0.0
O247 O 0.05448 0.35363 0.89608 0.0
H248 H 0.11201 0.40213 1.01329 0.0
H249 H 0.10167 0.40312 0.86668 0.0
O250 O 0.05469 0.38943 1.0144 0.0
H251 H 0.10737 0.49927 0.94056 0.0
H252 H 0.14454 0.40107 0.88181 0.0
Cu253 Cu 0.67586 0.06282 0.29368 0.0
N254 N 0.64527 0.06315 0.30277 0.0
N255 N 0.60342 0.051 0.30363 0.0
C256 C 0.62131 0.04473 0.29056 0.0
C257 C 0.61678 0.07429 0.3248 0.0
C258 C 0.64257 0.08169 0.32426 0.0
O259 O 0.6717 0.04207 0.23771 0.0
C260 C 0.66656 0.02787 0.36825 0.0
O261 O 0.64595 0.01256 0.34334 0.0
H262 H 0.61719 0.02717 0.27232 0.0
H263 H 0.65827 0.09923 0.33893 0.0
N264 N 0.70202 0.09673 0.28441 0.0
N265 N 0.73833 0.13435 0.2943 0.0
C266 C 0.72361 0.10998 0.31025 0.0
C267 C 0.70296 0.11321 0.25114 0.0
C268 C 0.72542 0.13643 0.25701 0.0
C269 C 0.68873 0.04887 0.20545 0.0
O270 O 0.71147 0.06941 0.21183 0.0
H271 H 0.72845 0.10179 0.33993 0.0
H272 H 0.68824 0.10862 0.22465 0.0
O273 O 0.68277 0.04979 0.35142 0.0
H274 H 0.60851 0.085 0.34055 0.0
H275 H 0.73147 0.15364 0.23608 0.0
H276 H 0.33518 0.33593 0.24978 0.0
H277 H 0.38057 0.41505 0.29573 0.0
H278 H 0.33858 0.32132 0.32871 0.0
H279 H 0.38522 0.40075 0.37345 0.0
H280 H 0.37081 0.37089 0.52158 0.0
H281 H 0.36332 0.38271 0.44326 0.0
H282 H 0.36557 0.31732 0.38341 0.0
H283 H 0.3716 0.30483 0.46206 0.0
C284 C 0.34624 0.35017 0.27657 0.0
C285 C 0.35752 0.37661 0.26667 0.0
C286 C 0.34826 0.34185 0.32186 0.0
C287 C 0.36198 0.35981 0.35799 0.0
C288 C 0.37386 0.38626 0.34728 0.0
C289 C 0.37144 0.39452 0.30242 0.0
C290 C 0.36938 0.3589 0.49171 0.0
C291 C 0.37184 0.33697 0.49804 0.0
C292 C 0.36535 0.36579 0.44661 0.0
C293 C 0.3642 0.35123 0.40652 0.0
C294 C 0.36602 0.3289 0.41322 0.0
C295 C 0.3696 0.32177 0.45844 0.0
H296 H 0.984 0.36472 0.59492 0.0
H297 H 0.02343 0.32125 0.58022 0.0
H298 H 0.99344 0.36972 0.67881 0.0
H299 H 0.03423 0.32744 0.66426 0.0
H300 H 0.03049 0.32279 0.82465 0.0
H301 H 0.01827 0.31557 0.74132 0.0
H302 H 0.02539 0.39104 0.7343 0.0
H303 H 0.03615 0.3975 0.81767 0.0
C304 C 0.99512 0.35659 0.60948 0.0
C305 C 1.00306 0.34267 0.58069 0.0
C306 C 1.00066 0.35956 0.65782 0.0
C307 C 0.01473 0.3491 0.67882 0.0
C308 C 0.02297 0.33542 0.6498 0.0
C309 C 0.01703 0.33208 0.60141 0.0
C310 C 0.02905 0.33763 0.80535 0.0
C311 C 0.03414 0.36063 0.82796 0.0
C312 C 0.02234 0.33365 0.75734 0.0
C313 C 0.02093 0.35275 0.73053 0.0
C314 C 0.02573 0.3756 0.75358 0.0
C315 C 0.03201 0.37938 0.80163 0.0
H316 H 0.67648 0.99664 0.91051 0.0
H317 H 0.59942 0.97445 0.95689 0.0
H318 H 0.69307 0.01408 0.98919 0.0
H319 H 0.6159 0.99261 1.03442 0.0
H320 H 0.64591 1.00312 0.18213 0.0
H321 H 0.63226 0.98435 0.10372 0.0
H322 H 0.70138 0.0476 0.04376 0.0
H323 H 0.71549 0.06575 0.12248 0.0
C324 C 0.66316 0.99584 0.93729 0.0
C325 C 0.63664 0.98405 0.92757 0.0
C326 C 0.67264 1.00585 0.98241 0.0
C327 C 0.6558 1.00448 1.01859 0.0
C328 C 0.6294 0.99338 1.00808 0.0
C329 C 0.61994 0.98317 0.96335 0.0
C330 C 0.65834 0.01284 0.15228 0.0
C331 C 0.68172 0.036 0.1586 0.0
C332 C 0.65042 1.00221 0.10716 0.0
C333 C 0.66548 0.01465 0.06705 0.0
C334 C 0.68933 0.03734 0.07367 0.0
C335 C 0.6974 0.04782 0.11892 0.0
H336 H 0.64029 0.62073 0.24621 0.0
H337 H 0.71699 0.68712 0.24993 0.0
H338 H 0.63479 0.62667 0.32944 0.0
H339 H 0.71111 0.69391 0.33299 0.0
H340 H 0.70321 0.68332 0.49329 0.0
H341 H 0.70897 0.67754 0.40956 0.0
H342 H 0.62838 0.65165 0.38459 0.0
H343 H 0.62248 0.65622 0.46812 0.0
C344 C 0.65582 0.63694 0.26458 0.0
C345 C 0.67908 0.65346 0.2413 0.0
C346 C 0.65265 0.64043 0.3125 0.0
C347 C 0.67251 0.66078 0.33841 0.0
C348 C 0.69555 0.67771 0.31468 0.0
C349 C 0.69884 0.674 0.26682 0.0
C350 C 0.68672 0.67621 0.46988 0.0
C351 C 0.66237 0.67006 0.48754 0.0
C352 C 0.69004 0.67312 0.42169 0.0
C353 C 0.66915 0.66412 0.38989 0.0
C354 C 0.64485 0.65811 0.40781 0.0
C355 C 0.64147 0.66085 0.45592 0.0
H356 H 0.99693 0.67701 0.83066 0.0
H357 H 0.98061 0.60078 0.78975 0.0
H358 H 0.01131 0.69229 0.75009 0.0
H359 H 0.99576 0.61606 0.71033 0.0
H360 H 1.00058 0.64089 0.561 0.0
H361 H 0.98356 0.62877 0.6408 0.0
H362 H 0.04423 0.70204 0.69321 0.0
H363 H 0.06055 0.71454 0.61303 0.0
C364 C 0.99677 0.66363 0.80465 0.0
C365 C 0.98752 0.63767 0.81649 0.0
C366 C 1.005 0.67236 0.75845 0.0
C367 C 1.00436 0.65534 0.7233 0.0
C368 C 0.99583 0.62959 0.73587 0.0
C369 C 0.98738 0.62085 0.78168 0.0
C370 C 1.01002 0.65458 0.58945 0.0
C371 C 0.03201 0.6786 0.58066 0.0
C372 C 1.00043 0.64754 0.63537 0.0
C373 C 0.01282 0.66419 0.67382 0.0
C374 C 0.03408 0.68874 0.66461 0.0
C375 C 0.04348 0.69591 0.61853 0.0
H376 H 0.30678 0.99386 0.15215 0.0
H377 H 0.37259 0.98258 0.14765 0.0
H378 H 0.31297 1.00569 0.06861 0.0
H379 H 0.37792 0.99283 0.06418 0.0
H380 H 0.39677 0.03406 0.92469 0.0
H381 H 0.39108 0.02483 1.00854 0.0
H382 H 0.30844 0.9895 0.99169 0.0
H383 H 0.31444 1.00025 0.90765 0.0
C384 C 0.3226 0.99397 0.13334 0.0
C385 C 0.33929 0.98748 0.1567 0.0
C386 C 0.326 1.00045 0.08523 0.0
C387 C 0.34592 1.00017 0.05912 0.0
C388 C 0.36269 0.99385 0.0829 0.0
C389 C 0.35958 0.98786 0.13102 0.0
C390 C 0.37733 0.02415 0.93873 0.0
C391 C 0.35603 0.01776 0.90933 0.0
C392 C 0.37403 0.01873 0.98706 0.0
C393 C 0.34926 1.00626 1.0074 0.0
C394 C 0.32787 0.99952 0.97774 0.0
C395 C 0.33124 1.00541 0.92936 0.0
H396 H 0.15558 0.37216 0.9297 0.0
H397 H 0.16049 0.4266 1.03508 0.0
H398 H 0.18948 0.36814 0.97059 0.0
H399 H 0.1949 0.423 0.07558 0.0
H400 H 0.27711 0.42681 0.08783 0.0
H401 H 0.24385 0.43263 0.04781 0.0
H402 H 0.19023 0.35103 0.06025 0.0
H403 H 0.22314 0.34536 0.10093 0.0
C404 C 0.16412 0.38342 0.96137 0.0
C405 C 0.15551 0.39967 0.97937 0.0
C406 C 0.18336 0.38105 0.98478 0.0
C407 C 0.19471 0.39533 1.026 0.0
C408 C 0.18646 0.41193 0.04366 0.0
C409 C 0.16676 0.41385 1.0208 0.0
C410 C 0.25818 0.41024 0.082 0.0
C411 C 0.25255 0.3857 0.09754 0.0
C412 C 0.23921 0.41355 0.05945 0.0
C413 C 0.21462 0.39224 0.05112 0.0
C414 C 0.2091 0.36771 0.06629 0.0
C415 C 0.22782 0.36451 0.08971 0.0
H416 H 0.87941 0.22046 0.45406 0.0
H417 H 0.87477 0.27841 0.37084 0.0
H418 H 0.84023 0.18702 0.41683 0.0
H419 H 0.83528 0.24494 0.33373 0.0
H420 H 0.7771 0.1746 0.24759 0.0
H421 H 0.8179 0.20807 0.28066 0.0
H422 H 0.79481 0.17255 0.41831 0.0
H423 H 0.75426 0.13913 0.3852 0.0
C424 C 0.86993 0.22606 0.42794 0.0
C425 C 0.88008 0.25211 0.41571 0.0
C426 C 0.84744 0.2069 0.40663 0.0
C427 C 0.83444 0.2133 0.37264 0.0
C428 C 0.84494 0.2393 0.35946 0.0
C429 C 0.86756 0.2585 0.38071 0.0
C430 C 0.7807 0.17405 0.28495 0.0
C431 C 0.76246 0.15413 0.31372 0.0
C432 C 0.80408 0.19323 0.30391 0.0
C433 C 0.80969 0.19295 0.3521 0.0
C434 C 0.79136 0.17308 0.38085 0.0
C435 C 0.76807 0.15389 0.36188 0.0
H436 H 0.64771 0.86292 0.81443 0.0
H437 H 0.58955 0.85643 0.71633 0.0
H438 H 0.64947 0.82771 0.77387 0.0
H439 H 0.59099 0.82073 0.67605 0.0
H440 H 0.58689 0.73866 0.66106 0.0
H441 H 0.58231 0.77228 0.7028 0.0
H442 H 0.66356 0.82552 0.68354 0.0
H443 H 0.66797 0.79227 0.64127 0.0
C444 C 0.63507 0.8537 0.78456 0.0
C445 C 0.61848 0.86232 0.76842 0.0
C446 C 0.63617 0.8337 0.7613 0.0
C447 C 0.62034 0.82161 0.72203 0.0
C448 C 0.60327 0.82973 0.70647 0.0
C449 C 0.60256 0.85016 0.7292 0.0
C450 C 0.60366 0.75758 0.66585 0.0
C451 C 0.62774 0.76301 0.64788 0.0
C452 C 0.60104 0.77675 0.68937 0.0
C453 C 0.62261 0.80136 0.69624 0.0
C454 C 0.64669 0.80665 0.67872 0.0
C455 C 0.64917 0.78773 0.65438 0.0
H456 H 0.74413 0.60952 1.02014 0.0
H457 H 0.77439 0.60979 0.159 0.0
H458 H 0.78234 0.61233 0.98436 0.0
H459 H 0.81213 0.6114 0.12303 0.0
H460 H 0.88834 0.64144 0.04088 0.0
H461 H 0.85087 0.63975 0.07876 0.0
H462 H 0.80132 0.58548 0.97284 0.0
H463 H 0.8387 0.58738 0.93496 0.0
C464 C 0.75893 0.61026 0.04313 0.0
C465 C 0.75608 0.60941 0.09254 0.0
C466 C 0.78073 0.61153 1.02254 0.0
C467 C 0.80024 0.61191 0.05081 0.0
C468 C 0.79756 0.61133 0.10023 0.0
C469 C 0.77575 0.61009 0.12084 0.0
C470 C 0.86942 0.62899 1.026 0.0
C471 C 0.86652 0.61468 0.98473 0.0
C472 C 0.84794 0.62801 0.04768 0.0
C473 C 0.8231 0.61262 1.02863 0.0
C474 C 0.82022 0.59797 0.98785 0.0
C475 C 0.84166 0.59903 0.96614 0.0
H476 H 0.14179 0.74099 0.35532 0.0
H477 H 0.16716 0.77807 0.49128 0.0
H478 H 0.1763 0.779 0.31695 0.0
H479 H 0.20147 0.81633 0.453 0.0
H480 H 0.27707 0.86715 0.37326 0.0
H481 H 0.24154 0.83046 0.41287 0.0
H482 H 0.19065 0.82306 0.29797 0.0
H483 H 0.22637 0.85945 0.25813 0.0
C484 C 0.15453 0.75741 0.37694 0.0
C485 C 0.1518 0.75649 0.42633 0.0
C486 C 0.17432 0.77925 0.35497 0.0
C487 C 0.19173 0.80076 0.38188 0.0
C488 C 0.18872 0.79995 0.43126 0.0
C489 C 0.16904 0.77804 0.45322 0.0
C490 C 0.25823 0.85784 0.35677 0.0
C491 C 0.25454 0.8661 0.31248 0.0
C492 C 0.23783 0.83682 0.37947 0.0
C493 C 0.21321 0.8237 0.35854 0.0
C494 C 0.20945 0.83236 0.31467 0.0
C495 C 0.22989 0.85325 0.29185 0.0
H496 H 0.42343 0.14556 0.7015 0.0
H497 H 0.36475 0.1433 0.79329 0.0
H498 H 0.42901 0.18504 0.66516 0.0
H499 H 0.36988 0.18236 0.75667 0.0
H500 H 0.40752 0.26783 0.72295 0.0
H501 H 0.40092 0.22738 0.75545 0.0
H502 H 0.40897 0.20293 0.61574 0.0
H503 H 0.41597 0.24372 0.58339 0.0
C504 C 0.41147 0.1533 0.7134 0.0
C505 C 0.39384 0.1415 0.75054 0.0
C506 C 0.41463 0.1759 0.69259 0.0
C507 C 0.40007 0.18704 0.70832 0.0
C508 C 0.38186 0.17469 0.74446 0.0
C509 C 0.37886 0.15226 0.7654 0.0
C510 C 0.40766 0.25374 0.69912 0.0
C511 C 0.4122 0.25896 0.65059 0.0
C512 C 0.40383 0.2305 0.71771 0.0
C513 C 0.40426 0.21179 0.68818 0.0
C514 C 0.40884 0.21703 0.63959 0.0
C515 C 0.41283 0.24039 0.62102 0.0
H516 H 0.34709 0.37064 0.73923 0.0
H517 H 0.37994 0.32307 0.7762 0.0
H518 H 0.33297 0.36865 0.82089 0.0
H519 H 0.36589 0.32124 0.85793 0.0
H520 H 0.36873 0.35898 1.00588 0.0
H521 H 0.37873 0.35416 0.92401 0.0
H522 H 0.30252 0.33694 0.88129 0.0
H523 H 0.29239 0.3416 0.96298 0.0
C524 C 0.35107 0.35954 0.76463 0.0
C525 C 0.36469 0.34707 0.75117 0.0
C526 C 0.34288 0.35832 0.81138 0.0
C527 C 0.3484 0.34485 0.84586 0.0
C528 C 0.36155 0.33193 0.83222 0.0
C529 C 0.36945 0.33287 0.78533 0.0
C530 C 0.35397 0.35379 0.97916 0.0
C531 C 0.3298 0.35077 0.99104 0.0
C532 C 0.35968 0.35096 0.93228 0.0
C533 C 0.34145 0.34534 0.89618 0.0
C534 C 0.31703 0.34154 0.90827 0.0
C535 C 0.31121 0.34406 0.95517 0.0
H536 H 0.99763 0.29937 0.31281 0.0
H537 H 0.99984 0.37253 0.31865 0.0
H538 H 0.01261 0.30798 0.23098 0.0
H539 H 0.01354 0.38063 0.23677 0.0
H540 H 0.05901 0.40023 0.10209 0.0
H541 H 0.04753 0.3914 0.18497 0.0
H542 H 0.99978 0.31025 0.153 0.0
H543 H 0.01234 0.31909 0.06998 0.0
C544 C 1.00134 0.3173 0.29667 0.0
C545 C 0.99767 0.3353 0.32246 0.0
C546 C 1.0097 0.32216 0.24952 0.0
C547 C 0.01433 0.34503 0.22683 0.0
C548 C 0.01077 0.36305 0.25298 0.0
C549 C 1.00276 0.35834 0.30013 0.0
C550 C 0.04607 0.38047 0.11267 0.0
C551 C 0.03648 0.36039 0.07923 0.0
C552 C 0.03932 0.37539 0.16037 0.0
C553 C 0.02247 0.3501 0.17607 0.0
C554 C 0.01305 0.32994 0.14259 0.0
C555 C 0.02009 0.33501 0.09481 0.0
H556 H 0.65262 0.95851 0.64751 0.0
H557 H 0.66402 0.03494 0.67001 0.0
H558 H 0.66086 0.9676 0.5632 0.0
H559 H 0.67207 0.0439 0.58577 0.0
H560 H 0.70144 0.05887 0.43531 0.0
H561 H 0.70151 0.04985 0.51948 0.0
H562 H 0.63655 0.97335 0.49823 0.0
H563 H 0.63654 0.98224 0.41417 0.0
C564 C 0.65725 0.97738 0.63465 0.0
C565 C 0.65749 0.99594 0.66556 0.0
C566 C 0.66181 0.98252 0.58625 0.0
C567 C 0.66695 1.0064 0.56767 0.0
C568 C 0.66839 0.02538 0.59893 0.0
C569 C 0.66364 0.02019 0.64725 0.0
C570 C 0.68742 0.03997 0.44843 0.0
C571 C 0.66887 0.02132 0.41797 0.0
C572 C 0.68738 0.03488 0.49675 0.0
C573 C 0.66894 0.01095 0.51567 0.0
C574 C 0.65117 0.99191 0.4848 0.0
C575 C 0.65109 0.99705 0.43658 0.0
H576 H 0.67321 0.7227 0.77311 0.0
H577 H 0.6522 0.64487 0.7335 0.0
H578 H 0.67708 0.713 0.8554 0.0
H579 H 0.65641 0.63533 0.81611 0.0
H580 H 0.68863 0.63641 0.96576 0.0
H581 H 0.69025 0.64881 0.8829 0.0
H582 H 0.64364 0.68317 0.91608 0.0
H583 H 0.64168 0.6705 0.99879 0.0
C584 C 0.66981 0.70363 0.78174 0.0
C585 C 0.6623 0.68453 0.74659 0.0
C586 C 0.67187 0.69806 0.82902 0.0
C587 C 0.66688 0.67338 0.84226 0.0
C588 C 0.66049 0.65458 0.80691 0.0
C589 C 0.65804 0.66003 0.75962 0.0
C590 C 0.67893 0.64684 0.95551 0.0
C591 C 0.66501 0.65247 0.98893 0.0
C592 C 0.67974 0.65377 0.90799 0.0
C593 C 0.66705 0.66692 0.893 0.0
C594 C 0.65377 0.67322 0.92665 0.0
C595 C 0.65258 0.66589 0.97399 0.0
H596 H 0.02834 0.71232 0.32009 0.0
H597 H 0.04483 0.64996 0.30912 0.0
H598 H 0.0185 0.70839 0.23523 0.0
H599 H 0.03508 0.64616 0.22519 0.0
H600 H 0.04294 0.66269 0.06962 0.0
H601 H 0.05453 0.67233 0.15265 0.0
H602 H 0.98526 0.67592 0.17772 0.0
H603 H 0.97356 0.66632 0.09424 0.0
C604 C 0.02983 0.69778 0.29972 0.0
C605 C 0.03741 0.68149 0.32148 0.0
C606 C 0.02414 0.69551 0.2512 0.0
C607 C 0.02628 0.67714 0.22345 0.0
C608 C 0.03369 0.6608 0.24538 0.0
C609 C 0.03909 0.66288 0.29369 0.0
C610 C 0.0303 0.66588 0.09255 0.0
C611 C 1.00718 0.66348 0.07526 0.0
C612 C 0.0369 0.67126 0.14025 0.0
C613 C 0.02063 0.67453 0.17187 0.0
C614 C 0.99821 0.67355 0.15419 0.0
C615 C 0.99149 0.66798 0.10639 0.0
H616 H 0.31605 1.00674 0.40429 0.0
H617 H 0.35524 0.9639 0.43041 0.0
H618 H 0.32171 0.01994 0.48729 0.0
H619 H 0.35977 0.97586 0.5132 0.0
H620 H 0.39057 0.02401 0.64506 0.0
H621 H 0.38327 0.01053 0.56307 0.0
H622 H 0.30959 0.00752 0.56671 0.0
H623 H 0.31764 0.02237 0.64878 0.0
C624 C 0.32568 0.99997 0.42782 0.0
C625 C 0.33545 0.98453 0.41056 0.0
C626 C 0.32877 0.00737 0.47556 0.0
C627 C 0.34141 0.99919 0.50728 0.0
C628 C 0.35055 0.98318 0.48993 0.0
C629 C 0.34782 0.97616 0.44228 0.0
C630 C 0.37269 0.02031 0.62859 0.0
C631 C 0.35463 0.02418 0.65367 0.0
C632 C 0.36841 0.01241 0.58137 0.0
C633 C 0.34571 0.00768 0.55789 0.0
C634 C 0.32746 0.01128 0.58321 0.0
C635 C 0.33195 0.01958 0.63045 0.0
H636 H 0.43729 0.50253 0.14786 0.0
H637 H 0.43729 0.44084 0.06857 0.0
H638 H 0.48435 0.52703 0.14432 0.0
H639 H 0.48413 0.46523 0.06487 0.0
H640 H 0.56702 0.50124 0.11598 0.0
H641 H 0.52014 0.47843 0.11839 0.0
H642 H 0.52086 0.54971 0.09032 0.0
H643 H 0.56792 0.5726 0.08805 0.0
C644 C 0.44729 0.49433 0.12919 0.0
C645 C 0.43352 0.46961 0.10889 0.0
C646 C 0.47426 0.50836 0.12717 0.0
C647 C 0.48803 0.49798 0.10472 0.0
C648 C 0.47418 0.47356 0.08338 0.0
C649 C 0.4473 0.45956 0.08547 0.0
C650 C 0.55722 0.51204 0.10992 0.0
C651 C 0.57127 0.53874 0.10156 0.0
C652 C 0.53031 0.49895 0.11129 0.0
C653 C 0.51671 0.5122 0.1042 0.0
C654 C 0.53074 0.53897 0.0964 0.0
C655 C 0.55772 0.55209 0.09511 0.0
H656 H 0.07 0.56368 0.48755 0.0
H657 H 1.00382 0.56757 0.43743 0.0
H658 H 0.04471 0.5169 0.48676 0.0
H659 H 0.97816 0.52074 0.43894 0.0
H660 H 0.95163 0.43702 0.39137 0.0
H661 H 0.97401 0.48398 0.39635 0.0
H662 H 1.01011 0.48102 0.52671 0.0
H663 H 0.98802 0.43414 0.52113 0.0
C664 C 0.05006 0.55463 0.47649 0.0
C665 C 0.03908 0.56955 0.46237 0.0
C666 C 0.03541 0.52773 0.47667 0.0
C667 C 1.00933 0.515 0.46292 0.0
C668 C 0.99824 0.52989 0.4493 0.0
C669 C 0.01293 0.55682 0.44899 0.0
C670 C 0.96402 0.4464 0.42144 0.0
C671 C 0.96825 0.43191 0.45563 0.0
C672 C 0.97686 0.47333 0.42435 0.0
C673 C 0.9941 0.48633 0.4617 0.0
C674 C 0.99746 0.4717 0.49689 0.0
C675 C 0.98475 0.44483 0.49381 0.0
H676 H 0.5091 0.94176 0.78291 0.0
H677 H 0.58176 0.01263 0.7674 0.0
H678 H 0.48662 0.96617 0.78441 0.0
H679 H 0.55936 0.03714 0.77104 0.0
H680 H 0.5063 0.06877 0.72541 0.0
H681 H 0.53036 0.04575 0.72501 0.0
H682 H 0.48078 0.99529 0.83499 0.0
H683 H 0.45669 0.01817 0.83501 0.0
C684 C 0.52032 0.96253 0.77979 0.0
C685 C 0.54729 0.97515 0.77503 0.0
C686 C 0.50744 0.97658 0.78127 0.0
C687 C 0.52119 1.00365 0.7781 0.0
C688 C 0.54815 0.0163 0.77321 0.0
C689 C 0.56104 1.00223 0.77168 0.0
C690 C 0.50076 0.05298 0.74988 0.0
C691 C 0.47945 0.04518 0.77997 0.0
C692 C 0.51454 0.03976 0.74967 0.0
C693 C 0.50736 0.01851 0.77968 0.0
C694 C 0.48648 0.0112 0.81066 0.0
C695 C 0.47269 0.02434 0.81075 0.0
H696 H 0.56843 0.58053 0.68527 0.0
H697 H 0.51051 0.57754 0.59033 0.0
H698 H 0.54516 0.53368 0.68999 0.0
H699 H 0.48713 0.53046 0.59496 0.0
H700 H 0.44194 0.44626 0.65001 0.0
H701 H 0.46265 0.49326 0.64805 0.0
H702 H 0.53711 0.4986 0.63631 0.0
H703 H 0.51652 0.45187 0.63811 0.0
C704 C 0.55073 0.56985 0.66534 0.0
C705 C 0.5415 0.58277 0.63698 0.0
C706 C 0.5374 0.54299 0.668 0.0
C707 C 0.51448 0.52831 0.64232 0.0
C708 C 0.50466 0.54122 0.61537 0.0
C709 C 0.51804 0.56819 0.61275 0.0
C710 C 0.4627 0.45746 0.64658 0.0
C711 C 0.47757 0.44524 0.64457 0.0
C712 C 0.47456 0.4844 0.64552 0.0
C713 C 0.50155 0.49968 0.64252 0.0
C714 C 0.51633 0.48742 0.63974 0.0
C715 C 0.5045 0.46058 0.64076 0.0
H716 H 0.95039 0.5132 0.96325 0.0
H717 H 0.02131 0.58576 0.97935 0.0
H718 H 0.97482 0.49074 0.95934 0.0
H719 H 0.04578 0.56326 0.97542 0.0
H720 H 0.08097 0.51605 0.91462 0.0
H721 H 0.0574 0.53946 0.91983 0.0
H722 H 1.00073 0.47966 1.00967 0.0
H723 H 0.02424 0.45632 1.00443 0.0
C724 C 0.97117 0.52435 0.96641 0.0
C725 C 0.98385 0.5513 0.97169 0.0
C726 C 0.9852 0.51146 0.96416 0.0
C727 C 0.01226 0.52519 0.96718 0.0
C728 C 0.02498 0.55215 0.97234 0.0
C729 C 0.01093 0.56505 0.97457 0.0
C730 C 0.06364 0.50803 0.93587 0.0
C731 C 0.05444 0.48421 0.95886 0.0
C732 C 0.05012 0.52145 0.93886 0.0
C733 C 0.02709 0.51136 0.96495 0.0
C734 C 0.01812 0.48774 0.98851 0.0
C735 C 0.03162 0.47434 0.9855 0.0
H736 H 0.57437 0.99894 0.29404 0.0
H737 H 0.56964 0.0686 0.29906 0.0
H738 H 0.52771 0.97349 0.2844 0.0
H739 H 0.52302 0.04314 0.29143 0.0
H740 H 0.44295 0.99358 0.23209 0.0
H741 H 0.48989 0.01725 0.23473 0.0
H742 H 0.48863 0.96029 0.33009 0.0
H743 H 0.4416 0.93652 0.32709 0.0
C744 C 0.56345 0.00887 0.29288 0.0
C745 C 0.57583 0.03587 0.29736 0.0
C746 C 0.53664 0.99423 0.28789 0.0
C747 C 0.5216 1.00626 0.28714 0.0
C748 C 0.53402 0.03326 0.29126 0.0
C749 C 0.56077 0.04786 0.29627 0.0
C750 C 0.45269 0.98613 0.25366 0.0
C751 C 0.43852 0.96328 0.2797 0.0
C752 C 0.4796 0.9997 0.25522 0.0
C753 C 0.49304 0.99081 0.28298 0.0
C754 C 0.4789 0.96755 0.30797 0.0
C755 C 0.45193 0.95391 0.30627 0.0
loop_
_geom_bond_atom_site_label_1
_geom_bond_atom_site_label_2
_geom_bond_distance
_geom_bond_site_symmetry_2
_ccdc_geom_bond_type
Cu0 N1 1.999 . S
Cu0 O6 1.974 . S
Cu0 N11 1.985 . S
Cu0 O20 1.959 . S
N1 Cu0 1.999 . S
N1 C3 1.263 . S
N1 C5 1.389 . S
N2 C3 1.358 . S
N2 C4 1.400 . S
C3 N1 1.263 . S
C3 N2 1.358 . S
C3 H9 0.930 . S
C4 N2 1.400 . S
C4 C5 1.351 . S
C4 H21 0.930 . S
C5 N1 1.389 . S
C5 C4 1.351 . S
C5 H10 0.930 . S
O6 Cu0 1.974 . S
O6 C16 1.282 . S
C7 O8 1.261 1_556 S
C7 O20 1.251 1_556 S
O8 C7 1.261 1_554 S
H9 C3 0.930 . S
H10 C5 0.930 . S
N11 Cu0 1.985 . S
N11 C13 1.335 . S
N11 C14 1.390 . S
N12 C13 1.345 . S
N12 C15 1.336 . S
C13 N11 1.335 . S
C13 N12 1.345 . S
C13 H18 0.930 . S
C14 N11 1.390 . S
C14 C15 1.346 . S
C14 H19 0.930 . S
C15 N12 1.336 . S
C15 C14 1.346 . S
C15 H22 0.929 . S
C16 O6 1.282 . S
C16 O17 1.216 . S
O17 C16 1.216 . S
H18 C13 0.930 . S
H19 C14 0.930 . S
O20 Cu0 1.959 . S
O20 C7 1.251 1_554 S
H21 C4 0.930 . S
H22 C15 0.929 . S
Cu23 N24 1.999 . S
Cu23 O29 1.974 . S
Cu23 N34 1.985 . S
Cu23 O43 1.959 . S
N24 Cu23 1.999 . S
N24 C26 1.263 . S
N24 C28 1.389 . S
N25 C26 1.358 1_455 S
N25 C27 1.400 1_455 S
C26 N24 1.263 . S
C26 N25 1.358 1_655 S
C26 H32 0.930 1_655 S
C27 N25 1.400 1_655 S
C27 C28 1.351 . S
C27 H44 0.930 . S
C28 N24 1.389 . S
C28 C27 1.351 . S
C28 H33 0.930 . S
O29 Cu23 1.974 . S
O29 C39 1.282 . S
C30 O31 1.261 . S
C30 O43 1.251 . S
O31 C30 1.261 . S
H32 C26 0.930 1_455 S
H33 C28 0.930 . S
N34 Cu23 1.985 . S
N34 C36 1.335 . S
N34 C37 1.390 . S
N35 C36 1.345 . S
N35 C38 1.336 . S
C36 N34 1.335 . S
C36 N35 1.345 . S
C36 H41 0.930 . S
C37 N34 1.390 . S
C37 C38 1.346 . S
C37 H42 0.930 . S
C38 N35 1.336 . S
C38 C37 1.346 . S
C38 H45 0.929 . S
C39 O29 1.282 . S
C39 O40 1.216 . S
O40 C39 1.216 . S
H41 C36 0.930 . S
H42 C37 0.930 . S
O43 Cu23 1.959 . S
O43 C30 1.251 . S
H44 C27 0.930 . S
H45 C38 0.929 . S
Cu46 N47 1.999 . S
Cu46 O52 1.974 . S
Cu46 N57 1.985 . S
Cu46 O66 1.959 . S
N47 Cu46 1.999 . S
N47 C49 1.263 . S
N47 C51 1.389 . S
N48 C49 1.358 1_545 S
N48 C50 1.400 1_545 S
C49 N47 1.263 . S
C49 N48 1.358 1_565 S
C49 H55 0.930 1_565 S
C50 N48 1.400 1_565 S
C50 C51 1.351 . S
C50 H67 0.930 . S
C51 N47 1.389 . S
C51 C50 1.351 . S
C51 H56 0.930 . S
O52 Cu46 1.974 . S
O52 C62 1.282 . S
C53 O54 1.261 . S
C53 O66 1.251 . S
O54 C53 1.261 . S
H55 C49 0.930 1_545 S
H56 C51 0.930 . S
N57 Cu46 1.985 . S
N57 C59 1.335 . S
N57 C60 1.390 . S
N58 C59 1.345 . S
N58 C61 1.336 . S
C59 N57 1.335 . S
C59 N58 1.345 . S
C59 H64 0.930 . S
C60 N57 1.390 . S
C60 C61 1.346 . S
C60 H65 0.930 . S
C61 N58 1.336 . S
C61 C60 1.346 . S
C61 H68 0.929 . S
C62 O52 1.282 . S
C62 O63 1.216 . S
O63 C62 1.216 . S
H64 C59 0.930 . S
H65 C60 0.930 . S
O66 Cu46 1.959 . S
O66 C53 1.251 . S
H67 C50 0.930 . S
H68 C61 0.929 . S
Cu69 N70 1.999 . S
Cu69 O75 1.974 . S
Cu69 N80 1.985 . S
Cu69 O89 1.959 . S
N70 Cu69 1.999 . S
N70 C72 1.263 . S
N70 C74 1.389 . S
N71 C72 1.358 . S
N71 C73 1.400 . S
C72 N70 1.263 . S
C72 N71 1.358 . S
C72 H78 0.930 . S
C73 N71 1.400 . S
C73 C74 1.351 . S
C73 H90 0.930 . S
C74 N70 1.389 . S
C74 C73 1.351 . S
C74 H79 0.930 . S
O75 Cu69 1.974 . S
O75 C85 1.282 . S
C76 O77 1.261 1_556 S
C76 O89 1.251 1_556 S
O77 C76 1.261 1_554 S
H78 C72 0.930 . S
H79 C74 0.930 . S
N80 Cu69 1.985 . S
N80 C82 1.335 . S
N80 C83 1.390 . S
N81 C82 1.345 . S
N81 C84 1.336 . S
C82 N80 1.335 . S
C82 N81 1.345 . S
C82 H87 0.930 . S
C83 N80 1.390 . S
C83 C84 1.346 . S
C83 H88 0.930 . S
C84 N81 1.336 . S
C84 C83 1.346 . S
C84 H91 0.929 . S
C85 O75 1.282 . S
C85 O86 1.216 . S
O86 C85 1.216 . S
H87 C82 0.930 . S
H88 C83 0.930 . S
O89 Cu69 1.959 . S
O89 C76 1.251 1_554 S
H90 C73 0.930 . S
H91 C84 0.929 . S
Cu92 N93 1.999 . S
Cu92 O98 1.974 . S
Cu92 N103 1.985 . S
Cu92 O112 1.959 . S
N93 Cu92 1.999 . S
N93 C95 1.263 . S
N93 C97 1.389 . S
N94 C95 1.358 1_655 S
N94 C96 1.400 1_655 S
C95 N93 1.263 . S
C95 N94 1.358 1_455 S
C95 H101 0.930 1_455 S
C96 N94 1.400 1_455 S
C96 C97 1.351 . S
C96 H113 0.930 . S
C97 N93 1.389 . S
C97 C96 1.351 . S
C97 H102 0.930 . S
O98 Cu92 1.974 . S
O98 C108 1.282 . S
C99 O100 1.261 . S
C99 O112 1.251 . S
O100 C99 1.261 . S
H101 C95 0.930 1_655 S
H102 C97 0.930 . S
N103 Cu92 1.985 . S
N103 C105 1.335 . S
N103 C106 1.390 . S
N104 C105 1.345 . S
N104 C107 1.336 . S
C105 N103 1.335 . S
C105 N104 1.345 . S
C105 H110 0.930 . S
C106 N103 1.390 . S
C106 C107 1.346 . S
C106 H111 0.930 . S
C107 N104 1.336 . S
C107 C106 1.346 . S
C107 H114 0.929 . S
C108 O98 1.282 . S
C108 O109 1.216 . S
O109 C108 1.216 . S
H110 C105 0.930 . S
H111 C106 0.930 . S
O112 Cu92 1.959 . S
O112 C99 1.251 . S
H113 C96 0.930 . S
H114 C107 0.929 . S
Cu115 N116 1.999 . S
Cu115 O121 1.974 . S
Cu115 N126 1.985 . S
Cu115 O135 1.959 . S
N116 Cu115 1.999 . S
N116 C118 1.263 . S
N116 C120 1.389 . S
N117 C118 1.358 1_565 S
N117 C119 1.400 1_565 S
C118 N116 1.263 . S
C118 N117 1.358 1_545 S
C118 H124 0.930 1_545 S
C119 N117 1.400 1_545 S
C119 C120 1.351 . S
C119 H136 0.930 . S
C120 N116 1.389 . S
C120 C119 1.351 . S
C120 H125 0.930 . S
O121 Cu115 1.974 . S
O121 C131 1.282 . S
C122 O123 1.261 . S
C122 O135 1.251 . S
O123 C122 1.261 . S
H124 C118 0.930 1_565 S
H125 C120 0.930 . S
N126 Cu115 1.985 . S
N126 C128 1.335 . S
N126 C129 1.390 . S
N127 C128 1.345 . S
N127 C130 1.336 . S
C128 N126 1.335 . S
C128 N127 1.345 . S
C128 H133 0.930 . S
C129 N126 1.390 . S
C129 C130 1.346 . S
C129 H134 0.930 . S
C130 N127 1.336 . S
C130 C129 1.346 . S
C130 H137 0.929 . S
C131 O121 1.282 . S
C131 O132 1.216 . S
O132 C131 1.216 . S
H133 C128 0.930 . S
H134 C129 0.930 . S
O135 Cu115 1.959 . S
O135 C122 1.251 . S
H136 C119 0.930 . S
H137 C130 0.929 . S
Cu138 N139 1.999 . S
Cu138 O144 1.974 . S
Cu138 N149 1.985 . S
Cu138 O158 1.959 . S
N139 Cu138 1.999 . S
N139 C141 1.263 . S
N139 C143 1.389 . S
N140 C141 1.358 . S
N140 C142 1.400 . S
C141 N139 1.263 . S
C141 N140 1.358 . S
C141 H147 0.930 . S
C142 N140 1.400 . S
C142 C143 1.351 . S
C142 H159 0.930 . S
C143 N139 1.389 . S
C143 C142 1.351 . S
C143 H148 0.930 . S
O144 Cu138 1.974 . S
O144 C154 1.282 . S
C145 O146 1.261 . S
C145 O158 1.251 . S
O146 C145 1.261 . S
H147 C141 0.930 . S
H148 C143 0.930 . S
N149 Cu138 1.985 . S
N149 C151 1.335 . S
N149 C152 1.390 . S
N150 C151 1.345 . S
N150 C153 1.336 . S
C151 N149 1.335 . S
C151 N150 1.345 . S
C151 H156 0.930 . S
C152 N149 1.390 . S
C152 C153 1.346 . S
C152 H157 0.930 . S
C153 N150 1.336 . S
C153 C152 1.346 . S
C153 H160 0.929 . S
C154 O144 1.282 . S
C154 O155 1.216 . S
O155 C154 1.216 . S
H156 C151 0.930 . S
H157 C152 0.930 . S
O158 Cu138 1.959 . S
O158 C145 1.251 . S
H159 C142 0.930 . S
H160 C153 0.929 . S
Cu161 N162 1.999 . S
Cu161 O167 1.974 . S
Cu161 N172 1.985 . S
Cu161 O181 1.959 . S
N162 Cu161 1.999 . S
N162 C164 1.263 . S
N162 C166 1.389 . S
N163 C164 1.358 1_455 S
N163 C165 1.400 1_455 S
C164 N162 1.263 . S
C164 N163 1.358 1_655 S
C164 H170 0.930 1_655 S
C165 N163 1.400 1_655 S
C165 C166 1.351 . S
C165 H182 0.930 . S
C166 N162 1.389 . S
C166 C165 1.351 . S
C166 H171 0.930 . S
O167 Cu161 1.974 . S
O167 C177 1.282 . S
C168 O169 1.261 1_554 S
C168 O181 1.251 1_554 S
O169 C168 1.261 1_556 S
H170 C164 0.930 1_455 S
H171 C166 0.930 . S
N172 Cu161 1.985 . S
N172 C174 1.335 . S
N172 C175 1.390 . S
N173 C174 1.345 . S
N173 C176 1.336 . S
C174 N172 1.335 . S
C174 N173 1.345 . S
C174 H179 0.930 . S
C175 N172 1.390 . S
C175 C176 1.346 . S
C175 H180 0.930 . S
C176 N173 1.336 . S
C176 C175 1.346 . S
C176 H183 0.929 . S
C177 O167 1.282 . S
C177 O178 1.216 . S
O178 C177 1.216 . S
H179 C174 0.930 . S
H180 C175 0.930 . S
O181 Cu161 1.959 . S
O181 C168 1.251 1_556 S
H182 C165 0.930 . S
H183 C176 0.929 . S
Cu184 N185 1.999 . S
Cu184 O190 1.974 . S
Cu184 N195 1.985 . S
Cu184 O204 1.959 . S
N185 Cu184 1.999 . S
N185 C187 1.263 . S
N185 C189 1.389 . S
N186 C187 1.358 1_545 S
N186 C188 1.400 1_545 S
C187 N185 1.263 . S
C187 N186 1.358 1_565 S
C187 H193 0.930 1_565 S
C188 N186 1.400 1_565 S
C188 C189 1.351 . S
C188 H205 0.930 . S
C189 N185 1.389 . S
C189 C188 1.351 . S
C189 H194 0.930 . S
O190 Cu184 1.974 . S
O190 C200 1.282 . S
C191 O192 1.261 . S
C191 O204 1.251 . S
O192 C191 1.261 . S
H193 C187 0.930 1_545 S
H194 C189 0.930 . S
N195 Cu184 1.985 . S
N195 C197 1.335 . S
N195 C198 1.390 . S
N196 C197 1.345 . S
N196 C199 1.336 . S
C197 N195 1.335 . S
C197 N196 1.345 . S
C197 H202 0.930 . S
C198 N195 1.390 . S
C198 C199 1.346 . S
C198 H203 0.930 . S
C199 N196 1.336 . S
C199 C198 1.346 . S
C199 H206 0.929 . S
C200 O190 1.282 . S
C200 O201 1.216 . S
O201 C200 1.216 . S
H202 C197 0.930 . S
H203 C198 0.930 . S
O204 Cu184 1.959 . S
O204 C191 1.251 . S
H205 C188 0.930 . S
H206 C199 0.929 . S
Cu207 N208 1.999 . S
Cu207 O213 1.974 . S
Cu207 N218 1.985 . S
Cu207 O227 1.959 . S
N208 Cu207 1.999 . S
N208 C210 1.263 . S
N208 C212 1.389 . S
N209 C210 1.358 . S
N209 C211 1.400 . S
C210 N208 1.263 . S
C210 N209 1.358 . S
C210 H216 0.930 . S
C211 N209 1.400 . S
C211 C212 1.351 . S
C211 H228 0.930 . S
C212 N208 1.389 . S
C212 C211 1.351 . S
C212 H217 0.930 . S
O213 Cu207 1.974 . S
O213 C223 1.282 . S
C214 O215 1.261 . S
C214 O227 1.251 . S
O215 C214 1.261 . S
H216 C210 0.930 . S
H217 C212 0.930 . S
N218 Cu207 1.985 . S
N218 C220 1.335 . S
N218 C221 1.390 . S
N219 C220 1.345 . S
N219 C222 1.336 . S
C220 N218 1.335 . S
C220 N219 1.345 . S
C220 H225 0.930 . S
C221 N218 1.390 . S
C221 C222 1.346 . S
C221 H226 0.930 . S
C222 N219 1.336 . S
C222 C221 1.346 . S
C222 H229 0.929 . S
C223 O213 1.282 . S
C223 O224 1.216 . S
O224 C223 1.216 . S
H225 C220 0.930 . S
H226 C221 0.930 . S
O227 Cu207 1.959 . S
O227 C214 1.251 . S
H228 C211 0.930 . S
H229 C222 0.929 . S
Cu230 N231 1.999 . S
Cu230 O236 1.974 . S
Cu230 N241 1.985 . S
Cu230 O250 1.959 . S
N231 Cu230 1.999 . S
N231 C233 1.263 . S
N231 C235 1.389 . S
N232 C233 1.358 1_655 S
N232 C234 1.400 1_655 S
C233 N231 1.263 . S
C233 N232 1.358 1_455 S
C233 H239 0.930 1_455 S
C234 N232 1.400 1_455 S
C234 C235 1.351 . S
C234 H251 0.930 . S
C235 N231 1.389 . S
C235 C234 1.351 . S
C235 H240 0.930 . S
O236 Cu230 1.974 . S
O236 C246 1.282 . S
C237 O238 1.261 1_554 S
C237 O250 1.251 1_554 S
O238 C237 1.261 1_556 S
H239 C233 0.930 1_655 S
H240 C235 0.930 . S
N241 Cu230 1.985 . S
N241 C243 1.335 . S
N241 C244 1.390 . S
N242 C243 1.345 . S
N242 C245 1.336 . S
C243 N241 1.335 . S
C243 N242 1.345 . S
C243 H248 0.930 . S
C244 N241 1.390 . S
C244 C245 1.346 . S
C244 H249 0.930 . S
C245 N242 1.336 . S
C245 C244 1.346 . S
C245 H252 0.929 . S
C246 O236 1.282 . S
C246 O247 1.216 . S
O247 C246 1.216 . S
H248 C243 0.930 . S
H249 C244 0.930 . S
O250 Cu230 1.959 . S
O250 C237 1.251 1_556 S
H251 C234 0.930 . S
H252 C245 0.929 . S
Cu253 N254 1.999 . S
Cu253 O259 1.974 . S
Cu253 N264 1.985 . S
Cu253 O273 1.959 . S
N254 Cu253 1.999 . S
N254 C256 1.263 . S
N254 C258 1.389 . S
N255 C256 1.358 1_565 S
N255 C257 1.400 1_565 S
C256 N254 1.263 . S
C256 N255 1.358 1_545 S
C256 H262 0.930 1_545 S
C257 N255 1.400 1_545 S
C257 C258 1.351 . S
C257 H274 0.930 . S
C258 N254 1.389 . S
C258 C257 1.351 . S
C258 H263 0.930 . S
O259 Cu253 1.974 . S
O259 C269 1.282 . S
C260 O261 1.261 . S
C260 O273 1.251 . S
O261 C260 1.261 . S
H262 C256 0.930 1_565 S
H263 C258 0.930 . S
N264 Cu253 1.985 . S
N264 C266 1.335 . S
N264 C267 1.390 . S
N265 C266 1.345 . S
N265 C268 1.336 . S
C266 N264 1.335 . S
C266 N265 1.345 . S
C266 H271 0.930 . S
C267 N264 1.390 . S
C267 C268 1.346 . S
C267 H272 0.930 . S
C268 N265 1.336 . S
C268 C267 1.346 . S
C268 H275 0.929 . S
C269 O259 1.282 . S
C269 O270 1.216 . S
O270 C269 1.216 . S
H271 C266 0.930 . S
H272 C267 0.930 . S
O273 Cu253 1.959 . S
O273 C260 1.251 . S
H274 C257 0.930 . S
H275 C268 0.929 . S
H276 C284 0.950 . S
H277 C289 0.950 . S
H278 C286 0.950 . S
H279 C288 0.950 . S
H280 C290 0.950 . S
H281 C292 0.950 . S
H282 C294 0.950 . S
H283 C295 0.950 . S
C284 H276 0.950 . S
C284 C285 1.386 . S
C284 C286 1.391 . S
C285 C284 1.386 . S
C285 C289 1.393 . S
C286 H278 0.950 . S
C286 C284 1.391 . S
C286 C287 1.400 . S
C287 C286 1.400 . S
C287 C288 1.398 . S
C287 C293 1.491 . S
C288 H279 0.950 . S
C288 C287 1.398 . S
C288 C289 1.391 . S
C289 H277 0.950 . S
C289 C285 1.393 . S
C289 C288 1.391 . S
C290 H280 0.950 . S
C290 C291 1.386 . S
C290 C292 1.391 . S
C291 C290 1.386 . S
C291 C295 1.393 . S
C292 H281 0.950 . S
C292 C290 1.391 . S
C292 C293 1.400 . S
C293 C287 1.491 . S
C293 C292 1.400 . S
C293 C294 1.398 . S
C294 H282 0.950 . S
C294 C293 1.398 . S
C294 C295 1.391 . S
C295 H283 0.950 . S
C295 C291 1.393 . S
C295 C294 1.391 . S
H296 C304 0.950 . S
H297 C309 0.950 . S
H298 C306 0.950 1_455 S
H299 C308 0.950 . S
H300 C310 0.950 . S
H301 C312 0.950 1_655 S
H302 C314 0.950 . S
H303 C315 0.950 . S
C304 H296 0.950 . S
C304 C305 1.386 . S
C304 C306 1.391 . S
C305 C304 1.386 . S
C305 C309 1.393 . S
C306 H298 0.950 1_655 S
C306 C304 1.391 . S
C306 C307 1.400 . S
C307 C306 1.400 . S
C307 C308 1.398 . S
C307 C313 1.491 1_655 S
C308 H299 0.950 . S
C308 C307 1.398 . S
C308 C309 1.391 . S
C309 H297 0.950 . S
C309 C305 1.393 . S
C309 C308 1.391 . S
C310 H300 0.950 . S
C310 C311 1.386 . S
C310 C312 1.391 . S
C311 C310 1.386 . S
C311 C315 1.393 . S
C312 H301 0.950 1_455 S
C312 C310 1.391 . S
C312 C313 1.400 . S
C313 C307 1.491 1_455 S
C313 C312 1.400 . S
C313 C314 1.398 . S
C314 H302 0.950 . S
C314 C313 1.398 . S
C314 C315 1.391 . S
C315 H303 0.950 . S
C315 C311 1.393 . S
C315 C314 1.391 . S
H316 C324 0.950 . S
H317 C329 0.980 . S
H318 C326 0.950 . S
H319 C328 0.950 . S
H320 C330 0.950 . S
H321 C332 0.950 . S
H322 C334 0.950 . S
H323 C335 0.980 . S
C324 H316 0.950 . S
C324 C325 1.386 . S
C324 C326 1.391 . S
C325 C324 1.386 . S
C325 C329 1.393 . S
C326 H318 0.950 . S
C326 C324 1.391 . S
C326 C327 1.400 . S
C327 C326 1.400 . S
C327 C328 1.398 1_565 S
C327 C333 1.491 1_566 S
C328 H319 0.950 . S
C328 C327 1.398 1_545 S
C328 C329 1.391 1_545 S
C329 H317 0.980 . S
C329 C325 1.393 . S
C329 C328 1.391 1_565 S
C330 H320 0.950 . S
C330 C331 1.386 . S
C330 C332 1.391 . S
C331 C330 1.386 . S
C331 C335 1.393 . S
C332 H321 0.950 . S
C332 C330 1.391 . S
C332 C333 1.400 . S
C333 C327 1.491 1_544 S
C333 C332 1.400 . S
C333 C334 1.398 1_545 S
C334 H322 0.950 . S
C334 C333 1.398 1_565 S
C334 C335 1.391 1_565 S
C335 H323 0.980 . S
C335 C331 1.393 . S
C335 C334 1.391 1_545 S
H336 C344 0.950 . S
H337 C349 0.950 . S
H338 C346 0.950 . S
H339 C348 0.950 . S
H340 C350 0.950 . S
H341 C352 0.950 . S
H342 C354 0.950 . S
H343 C355 0.950 . S
C344 H336 0.950 . S
C344 C345 1.386 . S
C344 C346 1.391 . S
C345 C344 1.386 . S
C345 C349 1.393 . S
C346 H338 0.950 . S
C346 C344 1.391 . S
C346 C347 1.400 . S
C347 C346 1.400 . S
C347 C348 1.398 . S
C347 C353 1.491 . S
C348 H339 0.950 . S
C348 C347 1.398 . S
C348 C349 1.391 . S
C349 H337 0.950 . S
C349 C345 1.393 . S
C349 C348 1.391 . S
C350 H340 0.950 . S
C350 C351 1.386 . S
C350 C352 1.391 . S
C351 C350 1.386 . S
C351 C355 1.393 . S
C352 H341 0.950 . S
C352 C350 1.391 . S
C352 C353 1.400 . S
C353 C347 1.491 . S
C353 C352 1.400 . S
C353 C354 1.398 . S
C354 H342 0.950 . S
C354 C353 1.398 . S
C354 C355 1.391 . S
C355 H343 0.950 . S
C355 C351 1.393 . S
C355 C354 1.391 . S
H356 C364 0.950 . S
H357 C369 0.950 . S
H358 C366 0.950 . S
H359 C368 0.950 . S
H360 C370 0.950 . S
H361 C372 0.950 . S
H362 C374 0.950 . S
H363 C375 0.950 . S
C364 H356 0.950 . S
C364 C365 1.386 . S
C364 C366 1.391 . S
C365 C364 1.386 . S
C365 C369 1.393 1_655 S
C366 H358 0.950 . S
C366 C364 1.391 . S
C366 C367 1.400 . S
C367 C366 1.400 . S
C367 C368 1.398 1_655 S
C367 C373 1.491 1_655 S
C368 H359 0.950 . S
C368 C367 1.398 1_455 S
C368 C369 1.391 . S
C369 H357 0.950 . S
C369 C365 1.393 1_455 S
C369 C368 1.391 . S
C370 H360 0.950 . S
C370 C371 1.386 . S
C370 C372 1.391 . S
C371 C370 1.386 . S
C371 C375 1.393 1_455 S
C372 H361 0.950 . S
C372 C370 1.391 . S
C372 C373 1.400 . S
C373 C367 1.491 1_455 S
C373 C372 1.400 . S
C373 C374 1.398 1_455 S
C374 H362 0.950 . S
C374 C373 1.398 1_655 S
C374 C375 1.391 . S
C375 H363 0.950 . S
C375 C371 1.393 1_655 S
C375 C374 1.391 . S
H376 C384 0.950 . S
H377 C389 0.950 . S
H378 C386 0.950 . S
H379 C388 0.954 1_545 S
H380 C390 0.950 . S
H381 C392 0.950 . S
H382 C394 0.955 1_565 S
H383 C395 0.950 . S
C384 H376 0.950 . S
C384 C385 1.386 . S
C384 C386 1.391 . S
C385 C384 1.386 . S
C385 C389 1.393 . S
C386 H378 0.950 . S
C386 C384 1.391 . S
C386 C387 1.400 . S
C387 C386 1.400 . S
C387 C388 1.386 . S
C387 C393 1.491 1_564 S
C388 H379 0.954 1_565 S
C388 C387 1.386 . S
C388 C389 1.400 . S
C389 H377 0.950 . S
C389 C385 1.393 . S
C389 C388 1.400 . S
C390 H380 0.950 . S
C390 C391 1.386 . S
C390 C392 1.391 . S
C391 C390 1.386 . S
C391 C395 1.393 . S
C392 H381 0.950 . S
C392 C390 1.391 . S
C392 C393 1.400 . S
C393 C387 1.491 1_546 S
C393 C392 1.400 . S
C393 C394 1.386 . S
C394 H382 0.955 1_545 S
C394 C393 1.386 . S
C394 C395 1.401 . S
C395 H383 0.950 . S
C395 C391 1.393 . S
C395 C394 1.401 . S
H396 C404 0.950 . S
H397 C409 0.950 . S
H398 C406 0.950 . S
H399 C408 0.950 . S
H400 C410 0.950 . S
H401 C412 0.950 . S
H402 C414 0.950 . S
H403 C415 0.950 . S
C404 H396 0.950 . S
C404 C405 1.386 . S
C404 C406 1.391 . S
C405 C404 1.386 . S
C405 C409 1.393 . S
C406 H398 0.950 . S
C406 C404 1.391 . S
C406 C407 1.400 . S
C407 C406 1.400 . S
C407 C408 1.398 . S
C407 C413 1.491 1_556 S
C408 H399 0.950 . S
C408 C407 1.398 . S
C408 C409 1.391 . S
C409 H397 0.950 . S
C409 C405 1.393 . S
C409 C408 1.391 . S
C410 H400 0.950 . S
C410 C411 1.386 . S
C410 C412 1.391 . S
C411 C410 1.386 . S
C411 C415 1.393 . S
C412 H401 0.950 . S
C412 C410 1.391 . S
C412 C413 1.400 . S
C413 C407 1.491 1_554 S
C413 C412 1.400 . S
C413 C414 1.398 . S
C414 H402 0.950 . S
C414 C413 1.398 . S
C414 C415 1.391 . S
C415 H403 0.950 . S
C415 C411 1.393 . S
C415 C414 1.391 . S
H416 C424 0.950 . S
H417 C429 0.950 . S
H418 C426 0.950 . S
H419 C428 0.950 . S
H420 C430 0.950 . S
H421 C432 0.950 . S
H422 C434 0.950 . S
H423 C435 0.950 . S
C424 H416 0.950 . S
C424 C425 1.386 . S
C424 C426 1.391 . S
C425 C424 1.386 . S
C425 C429 1.393 . S
C426 H418 0.950 . S
C426 C424 1.391 . S
C426 C427 1.400 . S
C427 C426 1.400 . S
C427 C428 1.398 . S
C427 C433 1.491 . S
C428 H419 0.950 . S
C428 C427 1.398 . S
C428 C429 1.391 . S
C429 H417 0.950 . S
C429 C425 1.393 . S
C429 C428 1.391 . S
C430 H420 0.950 . S
C430 C431 1.386 . S
C430 C432 1.391 . S
C431 C430 1.386 . S
C431 C435 1.393 . S
C432 H421 0.950 . S
C432 C430 1.391 . S
C432 C433 1.400 . S
C433 C427 1.491 . S
C433 C432 1.400 . S
C433 C434 1.398 . S
C434 H422 0.950 . S
C434 C433 1.398 . S
C434 C435 1.391 . S
C435 H423 0.950 . S
C435 C431 1.393 . S
C435 C434 1.391 . S
H436 C444 0.950 . S
H437 C449 0.950 . S
H438 C446 0.950 . S
H439 C448 0.950 . S
H440 C450 0.950 . S
H441 C452 0.950 . S
H442 C454 0.950 . S
H443 C455 0.950 . S
C444 H436 0.950 . S
C444 C445 1.386 . S
C444 C446 1.391 . S
C445 C444 1.386 . S
C445 C449 1.393 . S
C446 H438 0.950 . S
C446 C444 1.391 . S
C446 C447 1.400 . S
C447 C446 1.400 . S
C447 C448 1.398 . S
C447 C453 1.491 . S
C448 H439 0.950 . S
C448 C447 1.398 . S
C448 C449 1.391 . S
C449 H437 0.950 . S
C449 C445 1.393 . S
C449 C448 1.391 . S
C450 H440 0.950 . S
C450 C451 1.386 . S
C450 C452 1.391 . S
C451 C450 1.386 . S
C451 C455 1.393 . S
C452 H441 0.950 . S
C452 C450 1.391 . S
C452 C453 1.400 . S
C453 C447 1.491 . S
C453 C452 1.400 . S
C453 C454 1.398 . S
C454 H442 0.950 . S
C454 C453 1.398 . S
C454 C455 1.391 . S
C455 H443 0.950 . S
C455 C451 1.393 . S
C455 C454 1.391 . S
H456 C464 0.949 . S
H457 C469 0.950 . S
H458 C466 0.950 . S
H459 C468 0.950 . S
H460 C470 0.948 . S
H461 C472 0.950 . S
H462 C474 0.950 . S
H463 C475 0.950 . S
C464 H456 0.949 . S
C464 C465 1.387 1_556 S
C464 C466 1.391 . S
C465 C464 1.387 1_554 S
C465 C469 1.393 . S
C466 H458 0.950 . S
C466 C464 1.391 . S
C466 C467 1.400 1_556 S
C467 C466 1.400 1_554 S
C467 C468 1.398 . S
C467 C473 1.491 1_554 S
C468 H459 0.950 . S
C468 C467 1.398 . S
C468 C469 1.391 . S
C469 H457 0.950 . S
C469 C465 1.393 . S
C469 C468 1.391 . S
C470 H460 0.948 . S
C470 C471 1.388 1_554 S
C470 C472 1.391 . S
C471 C470 1.388 1_556 S
C471 C475 1.393 . S
C472 H461 0.950 . S
C472 C470 1.391 . S
C472 C473 1.400 1_554 S
C473 C467 1.491 1_556 S
C473 C472 1.400 1_556 S
C473 C474 1.398 . S
C474 H462 0.950 . S
C474 C473 1.398 . S
C474 C475 1.391 . S
C475 H463 0.950 . S
C475 C471 1.393 . S
C475 C474 1.391 . S
H476 C484 0.950 . S
H477 C489 0.950 . S
H478 C486 0.950 . S
H479 C488 0.950 . S
H480 C490 0.950 . S
H481 C492 0.950 . S
H482 C494 0.950 . S
H483 C495 0.950 . S
C484 H476 0.950 . S
C484 C485 1.386 . S
C484 C486 1.391 . S
C485 C484 1.386 . S
C485 C489 1.393 . S
C486 H478 0.950 . S
C486 C484 1.391 . S
C486 C487 1.400 . S
C487 C486 1.400 . S
C487 C488 1.398 . S
C487 C493 1.491 . S
C488 H479 0.950 . S
C488 C487 1.398 . S
C488 C489 1.391 . S
C489 H477 0.950 . S
C489 C485 1.393 . S
C489 C488 1.391 . S
C490 H480 0.950 . S
C490 C491 1.386 . S
C490 C492 1.391 . S
C491 C490 1.386 . S
C491 C495 1.393 . S
C492 H481 0.950 . S
C492 C490 1.391 . S
C492 C493 1.400 . S
C493 C487 1.491 . S
C493 C492 1.400 . S
C493 C494 1.398 . S
C494 H482 0.950 . S
C494 C493 1.398 . S
C494 C495 1.391 . S
C495 H483 0.950 . S
C495 C491 1.393 . S
C495 C494 1.391 . S
H496 C504 0.950 . S
H497 C509 0.950 . S
H498 C506 0.950 . S
H499 C508 0.950 . S
H500 C510 0.950 . S
H501 C512 0.950 . S
H502 C514 0.950 . S
H503 C515 0.950 . S
C504 H496 0.950 . S
C504 C505 1.386 . S
C504 C506 1.391 . S
C505 C504 1.386 . S
C505 C509 1.393 . S
C506 H498 0.950 . S
C506 C504 1.391 . S
C506 C507 1.400 . S
C507 C506 1.400 . S
C507 C508 1.398 . S
C507 C513 1.491 . S
C508 H499 0.950 . S
C508 C507 1.398 . S
C508 C509 1.391 . S
C509 H497 0.950 . S
C509 C505 1.393 . S
C509 C508 1.391 . S
C510 H500 0.950 . S
C510 C511 1.386 . S
C510 C512 1.391 . S
C511 C510 1.386 . S
C511 C515 1.393 . S
C512 H501 0.950 . S
C512 C510 1.391 . S
C512 C513 1.400 . S
C513 C507 1.491 . S
C513 C512 1.400 . S
C513 C514 1.398 . S
C514 H502 0.950 . S
C514 C513 1.398 . S
C514 C515 1.391 . S
C515 H503 0.950 . S
C515 C511 1.393 . S
C515 C514 1.391 . S
H516 C524 0.950 . S
H517 C529 0.950 . S
H518 C526 0.950 . S
H519 C528 0.950 . S
H520 C530 0.950 . S
H521 C532 0.950 . S
H522 C534 0.950 . S
H523 C535 0.950 . S
C524 H516 0.950 . S
C524 C525 1.386 . S
C524 C526 1.391 . S
C525 C524 1.386 . S
C525 C529 1.393 . S
C526 H518 0.950 . S
C526 C524 1.391 . S
C526 C527 1.400 . S
C527 C526 1.400 . S
C527 C528 1.398 . S
C527 C533 1.491 . S
C528 H519 0.950 . S
C528 C527 1.398 . S
C528 C529 1.391 . S
C529 H517 0.950 . S
C529 C525 1.393 . S
C529 C528 1.391 . S
C530 H520 0.950 . S
C530 C531 1.386 . S
C530 C532 1.391 . S
C531 C530 1.386 . S
C531 C535 1.393 . S
C532 H521 0.950 . S
C532 C530 1.391 . S
C532 C533 1.400 . S
C533 C527 1.491 . S
C533 C532 1.400 . S
C533 C534 1.398 . S
C534 H522 0.950 . S
C534 C533 1.398 . S
C534 C535 1.391 . S
C535 H523 0.950 . S
C535 C531 1.393 . S
C535 C534 1.391 . S
H536 C544 0.950 . S
H537 C549 0.950 . S
H538 C546 0.950 1_455 S
H539 C548 0.950 . S
H540 C550 0.950 . S
H541 C552 0.950 1_655 S
H542 C554 0.950 . S
H543 C555 0.950 . S
C544 H536 0.950 . S
C544 C545 1.386 . S
C544 C546 1.391 . S
C545 C544 1.386 . S
C545 C549 1.393 . S
C546 H538 0.950 1_655 S
C546 C544 1.391 . S
C546 C547 1.400 . S
C547 C546 1.400 . S
C547 C548 1.398 . S
C547 C553 1.491 1_655 S
C548 H539 0.950 . S
C548 C547 1.398 . S
C548 C549 1.391 . S
C549 H537 0.950 . S
C549 C545 1.393 . S
C549 C548 1.391 . S
C550 H540 0.950 . S
C550 C551 1.386 . S
C550 C552 1.391 . S
C551 C550 1.386 . S
C551 C555 1.393 . S
C552 H541 0.950 1_455 S
C552 C550 1.391 . S
C552 C553 1.400 . S
C553 C547 1.491 1_455 S
C553 C552 1.400 . S
C553 C554 1.398 . S
C554 H542 0.950 . S
C554 C553 1.398 . S
C554 C555 1.391 . S
C555 H543 0.950 . S
C555 C551 1.393 . S
C555 C554 1.391 . S
H556 C564 0.950 . S
H557 C569 0.950 . S
H558 C566 0.950 . S
H559 C568 0.950 . S
H560 C570 0.950 . S
H561 C572 0.950 . S
H562 C574 0.950 . S
H563 C575 0.950 . S
C564 H556 0.950 . S
C564 C565 1.386 . S
C564 C566 1.391 . S
C565 C564 1.386 . S
C565 C569 1.393 1_565 S
C566 H558 0.950 . S
C566 C564 1.391 . S
C566 C567 1.400 . S
C567 C566 1.400 . S
C567 C568 1.398 1_565 S
C567 C573 1.491 1_565 S
C568 H559 0.950 . S
C568 C567 1.398 1_545 S
C568 C569 1.391 . S
C569 H557 0.950 . S
C569 C565 1.393 1_545 S
C569 C568 1.391 . S
C570 H560 0.950 . S
C570 C571 1.386 . S
C570 C572 1.391 . S
C571 C570 1.386 . S
C571 C575 1.393 1_545 S
C572 H561 0.950 . S
C572 C570 1.391 . S
C572 C573 1.400 . S
C573 C567 1.491 1_545 S
C573 C572 1.400 . S
C573 C574 1.398 1_545 S
C574 H562 0.950 . S
C574 C573 1.398 1_565 S
C574 C575 1.391 . S
C575 H563 0.950 . S
C575 C571 1.393 1_565 S
C575 C574 1.391 . S
H576 C584 0.950 . S
H577 C589 0.950 . S
H578 C586 0.950 . S
H579 C588 0.950 . S
H580 C590 0.950 . S
H581 C592 0.950 . S
H582 C594 0.950 . S
H583 C595 0.950 . S
C584 H576 0.950 . S
C584 C585 1.386 . S
C584 C586 1.391 . S
C585 C584 1.386 . S
C585 C589 1.393 . S
C586 H578 0.950 . S
C586 C584 1.391 . S
C586 C587 1.400 . S
C587 C586 1.400 . S
C587 C588 1.398 . S
C587 C593 1.491 . S
C588 H579 0.950 . S
C588 C587 1.398 . S
C588 C589 1.391 . S
C589 H577 0.950 . S
C589 C585 1.393 . S
C589 C588 1.391 . S
C590 H580 0.950 . S
C590 C591 1.386 . S
C590 C592 1.391 . S
C591 C590 1.386 . S
C591 C595 1.393 . S
C592 H581 0.950 . S
C592 C590 1.391 . S
C592 C593 1.400 . S
C593 C587 1.491 . S
C593 C592 1.400 . S
C593 C594 1.398 . S
C594 H582 0.950 . S
C594 C593 1.398 . S
C594 C595 1.391 . S
C595 H583 0.950 . S
C595 C591 1.393 . S
C595 C594 1.391 . S
H596 C604 0.950 . S
H597 C609 0.950 . S
H598 C606 0.950 . S
H599 C608 0.950 . S
H600 C610 0.950 . S
H601 C612 0.950 . S
H602 C614 0.950 . S
H603 C615 0.950 . S
C604 H596 0.950 . S
C604 C605 1.386 1_655 S
C604 C606 1.391 . S
C605 C604 1.386 1_455 S
C605 C609 1.393 . S
C606 H598 0.950 . S
C606 C604 1.391 . S
C606 C607 1.400 1_655 S
C607 C606 1.400 1_455 S
C607 C608 1.398 . S
C607 C613 1.491 1_455 S
C608 H599 0.950 . S
C608 C607 1.398 . S
C608 C609 1.391 . S
C609 H597 0.950 . S
C609 C605 1.393 . S
C609 C608 1.391 . S
C610 H600 0.950 . S
C610 C611 1.386 1_455 S
C610 C612 1.391 . S
C611 C610 1.386 1_655 S
C611 C615 1.393 . S
C612 H601 0.950 . S
C612 C610 1.391 . S
C612 C613 1.400 1_455 S
C613 C607 1.491 1_655 S
C613 C612 1.400 1_655 S
C613 C614 1.398 . S
C614 H602 0.950 . S
C614 C613 1.398 . S
C614 C615 1.391 . S
C615 H603 0.950 . S
C615 C611 1.393 . S
C615 C614 1.391 . S
H616 C624 0.950 . S
H617 C629 0.950 . S
H618 C626 0.913 1_545 S
H619 C628 0.950 . S
H620 C630 0.950 . S
H621 C632 0.913 1_565 S
H622 C634 0.950 . S
H623 C635 0.950 . S
C624 H616 0.950 . S
C624 C625 1.386 . S
C624 C626 1.404 . S
C625 C624 1.386 . S
C625 C629 1.393 . S
C626 H618 0.913 1_565 S
C626 C624 1.404 . S
C626 C627 1.425 . S
C627 C626 1.425 . S
C627 C628 1.398 . S
C627 C633 1.491 1_565 S
C628 H619 0.950 . S
C628 C627 1.398 . S
C628 C629 1.391 . S
C629 H617 0.950 . S
C629 C625 1.393 . S
C629 C628 1.391 . S
C630 H620 0.950 . S
C630 C631 1.386 . S
C630 C632 1.404 . S
C631 C630 1.386 . S
C631 C635 1.393 . S
C632 H621 0.913 1_545 S
C632 C630 1.404 . S
C632 C633 1.426 . S
C633 C627 1.491 1_545 S
C633 C632 1.426 . S
C633 C634 1.398 . S
C634 H622 0.950 . S
C634 C633 1.398 . S
C634 C635 1.391 . S
C635 H623 0.950 . S
C635 C631 1.393 . S
C635 C634 1.391 . S
H636 C644 0.950 . S
H637 C649 0.950 . S
H638 C646 0.950 . S
H639 C648 0.950 . S
H640 C650 0.950 . S
H641 C652 0.950 . S
H642 C654 0.950 . S
H643 C655 0.950 . S
C644 H636 0.950 . S
C644 C645 1.386 . S
C644 C646 1.391 . S
C645 C644 1.386 . S
C645 C649 1.393 . S
C646 H638 0.950 . S
C646 C644 1.391 . S
C646 C647 1.400 . S
C647 C646 1.400 . S
C647 C648 1.398 . S
C647 C653 1.491 . S
C648 H639 0.950 . S
C648 C647 1.398 . S
C648 C649 1.391 . S
C649 H637 0.950 . S
C649 C645 1.393 . S
C649 C648 1.391 . S
C650 H640 0.950 . S
C650 C651 1.386 . S
C650 C652 1.391 . S
C651 C650 1.386 . S
C651 C655 1.393 . S
C652 H641 0.950 . S
C652 C650 1.391 . S
C652 C653 1.400 . S
C653 C647 1.491 . S
C653 C652 1.400 . S
C653 C654 1.398 . S
C654 H642 0.950 . S
C654 C653 1.398 . S
C654 C655 1.391 . S
C655 H643 0.950 . S
C655 C651 1.393 . S
C655 C654 1.391 . S
H656 C664 0.955 1_455 S
H657 C669 0.950 . S
H658 C666 0.950 . S
H659 C668 0.950 . S
H660 C670 0.955 1_655 S
H661 C672 0.950 . S
H662 C674 0.950 . S
H663 C675 0.950 . S
C664 H656 0.955 1_655 S
C664 C665 1.412 . S
C664 C666 1.362 1_655 S
C665 C664 1.412 . S
C665 C669 1.393 . S
C666 H658 0.950 . S
C666 C664 1.362 1_455 S
C666 C667 1.400 1_455 S
C667 C666 1.400 1_655 S
C667 C668 1.398 . S
C667 C673 1.491 1_655 S
C668 H659 0.950 . S
C668 C667 1.398 . S
C668 C669 1.391 . S
C669 H657 0.950 . S
C669 C665 1.393 . S
C669 C668 1.391 . S
C670 H660 0.955 1_455 S
C670 C671 1.412 . S
C670 C672 1.362 1_455 S
C671 C670 1.412 . S
C671 C675 1.393 . S
C672 H661 0.950 . S
C672 C670 1.362 1_655 S
C672 C673 1.400 1_655 S
C673 C667 1.491 1_455 S
C673 C672 1.400 1_455 S
C673 C674 1.398 . S
C674 H662 0.950 . S
C674 C673 1.398 . S
C674 C675 1.391 . S
C675 H663 0.950 . S
C675 C671 1.393 . S
C675 C674 1.391 . S
H676 C684 0.950 . S
H677 C689 0.950 . S
H678 C686 0.946 . S
H679 C688 0.950 . S
H680 C690 0.950 . S
H681 C692 0.946 . S
H682 C694 0.950 . S
H683 C695 0.950 . S
C684 H676 0.950 . S
C684 C685 1.386 . S
C684 C686 1.391 . S
C685 C684 1.386 . S
C685 C689 1.393 . S
C686 H678 0.946 . S
C686 C684 1.391 . S
C686 C687 1.400 . S
C687 C686 1.400 . S
C687 C688 1.398 . S
C687 C693 1.491 1_545 S
C688 H679 0.950 . S
C688 C687 1.398 . S
C688 C689 1.391 . S
C689 H677 0.950 . S
C689 C685 1.393 . S
C689 C688 1.391 . S
C690 H680 0.950 . S
C690 C691 1.386 . S
C690 C692 1.391 . S
C691 C690 1.386 . S
C691 C695 1.393 . S
C692 H681 0.946 . S
C692 C690 1.391 . S
C692 C693 1.400 . S
C693 C687 1.491 1_565 S
C693 C692 1.400 . S
C693 C694 1.398 . S
C694 H682 0.950 . S
C694 C693 1.398 . S
C694 C695 1.391 . S
C695 H683 0.950 . S
C695 C691 1.393 . S
C695 C694 1.391 . S
H696 C704 0.950 . S
H697 C709 0.950 . S
H698 C706 0.950 . S
H699 C708 0.950 . S
H700 C710 0.950 . S
H701 C712 0.950 . S
H702 C714 0.950 . S
H703 C715 0.950 . S
C704 H696 0.950 . S
C704 C705 1.386 . S
C704 C706 1.391 . S
C705 C704 1.386 . S
C705 C709 1.393 . S
C706 H698 0.950 . S
C706 C704 1.391 . S
C706 C707 1.400 . S
C707 C706 1.400 . S
C707 C708 1.398 . S
C707 C713 1.491 . S
C708 H699 0.950 . S
C708 C707 1.398 . S
C708 C709 1.391 . S
C709 H697 0.950 . S
C709 C705 1.393 . S
C709 C708 1.391 . S
C710 H700 0.950 . S
C710 C711 1.386 . S
C710 C712 1.391 . S
C711 C710 1.386 . S
C711 C715 1.393 . S
C712 H701 0.950 . S
C712 C710 1.391 . S
C712 C713 1.400 . S
C713 C707 1.491 . S
C713 C712 1.400 . S
C713 C714 1.398 . S
C714 H702 0.950 . S
C714 C713 1.398 . S
C714 C715 1.391 . S
C715 H703 0.950 . S
C715 C711 1.393 . S
C715 C714 1.391 . S
H716 C724 0.950 . S
H717 C729 0.950 . S
H718 C726 0.950 . S
H719 C728 0.950 . S
H720 C730 0.950 . S
H721 C732 0.950 . S
H722 C734 0.950 . S
H723 C735 0.950 . S
C724 H716 0.950 . S
C724 C725 1.386 1_655 S
C724 C726 1.391 . S
C725 C724 1.386 1_455 S
C725 C729 1.393 . S
C726 H718 0.950 . S
C726 C724 1.391 . S
C726 C727 1.400 1_655 S
C727 C726 1.400 1_455 S
C727 C728 1.398 . S
C727 C733 1.491 1_455 S
C728 H719 0.950 . S
C728 C727 1.398 . S
C728 C729 1.391 . S
C729 H717 0.950 . S
C729 C725 1.393 . S
C729 C728 1.391 . S
C730 H720 0.950 . S
C730 C731 1.386 1_455 S
C730 C732 1.391 . S
C731 C730 1.386 1_655 S
C731 C735 1.393 . S
C732 H721 0.950 . S
C732 C730 1.391 . S
C732 C733 1.400 1_455 S
C733 C727 1.491 1_655 S
C733 C732 1.400 1_655 S
C733 C734 1.398 . S
C734 H722 0.950 . S
C734 C733 1.398 . S
C734 C735 1.391 . S
C735 H723 0.950 . S
C735 C731 1.393 . S
C735 C734 1.391 . S
H736 C744 0.950 . S
H737 C749 0.950 . S
H738 C746 0.950 . S
H739 C748 0.950 . S
H740 C750 0.950 . S
H741 C752 0.950 . S
H742 C754 0.950 . S
H743 C755 0.950 . S
C744 H736 0.950 . S
C744 C745 1.386 . S
C744 C746 1.391 . S
C745 C744 1.386 . S
C745 C749 1.393 1_565 S
C746 H738 0.950 . S
C746 C744 1.391 . S
C746 C747 1.400 . S
C747 C746 1.400 . S
C747 C748 1.398 1_565 S
C747 C753 1.491 1_565 S
C748 H739 0.950 . S
C748 C747 1.398 1_545 S
C748 C749 1.391 . S
C749 H737 0.950 . S
C749 C745 1.393 1_545 S
C749 C748 1.391 . S
C750 H740 0.950 . S
C750 C751 1.386 . S
C750 C752 1.391 . S
C751 C750 1.386 . S
C751 C755 1.393 1_545 S
C752 H741 0.950 . S
C752 C750 1.391 . S
C752 C753 1.400 . S
C753 C747 1.491 1_545 S
C753 C752 1.400 . S
C753 C754 1.398 1_545 S
C754 H742 0.950 . S
C754 C753 1.398 1_565 S
C754 C755 1.391 . S
C755 H743 0.950 . S
C755 C751 1.393 1_565 S
C755 C754 1.391 . S
C285 C16 1.504 . S
C291 C223 1.509 . S
C305 C39 1.522 . S
C311 C246 1.521 . S
C325 C62 1.504 . S
C331 C269 1.508 . S
C345 C85 1.521 . S
C351 C154 1.523 . S
C365 C177 1.504 . S
C371 C108 1.511 . S
C385 C200 1.505 . S
C391 C131 1.506 . S
C405 N242 2.190 . S
C411 N12 2.190 . S
C425 N35 2.191 . S
C431 N265 2.199 . S
C445 N58 2.189 . S
C451 N150 2.191 . S
C465 N81 2.202 . S
C471 N173 2.195 . S
C485 N104 2.201 . S
C491 N196 2.194 . S
C505 N127 2.197 . S
C511 N219 2.189 . S
C525 C214 1.594 . S
C531 C7 1.597 . S
C545 C30 1.597 . S
C551 C237 1.597 . S
C565 C53 1.585 . S
C571 C260 1.591 . S
C585 C145 1.595 . S
C591 C76 1.598 . S
C605 C99 1.595 . S
C611 C168 1.589 . S
C625 C191 1.597 . S
C631 C122 1.596 . S
C645 N2 2.146 . S
C651 N71 2.134 . S
C665 N94 2.145 . S
C671 N25 2.142 . S
C685 N48 2.143 . S
C691 N117 2.144 . S
C705 N140 2.128 . S
C711 N209 2.143 . S
C725 N163 2.144 . S
C731 N232 2.129 . S
C745 N255 2.115 . S
C751 N186 2.121 . S
