# Generated by pormake.
# Topology rob, (6)-cn, num edge types: 1
# Building blocks:
#     Node 0, Type 0, BuildingBlock: LEVNOQ01_clean_sbu_1, # of connection points: 6
#     Node 1, Type 0, BuildingBlock: LEVNOQ01_clean_sbu_1, # of connection points: 6
#     Node 2, Type 0, BuildingBlock: LEVNOQ01_clean_sbu_1, # of connection points: 6
#     Node 3, Type 0, BuildingBlock: LEVNOQ01_clean_sbu_1, # of connection points: 6
#     Edge 4, Type (0, 0), BuildingBlock: EZIPEK_clean_linker_0, # of connection points: 2
#     Edge 5, Type (0, 0), BuildingBlock: EZIPEK_clean_linker_0, # of connection points: 2
#     Edge 6, Type (0, 0), BuildingBlock: EZIPEK_clean_linker_0, # of connection points: 2
#     Edge 7, Type (0, 0), BuildingBlock: EZIPEK_clean_linker_0, # of connection points: 2
#     Edge 8, Type (0, 0), BuildingBlock: EZIPEK_clean_linker_0, # of connection points: 2
#     Edge 9, Type (0, 0), BuildingBlock: EZIPEK_clean_linker_0, # of connection points: 2
#     Edge 10, Type (0, 0), BuildingBlock: EZIPEK_clean_linker_0, # of connection points: 2
#     Edge 11, Type (0, 0), BuildingBlock: EZIPEK_clean_linker_0, # of connection points: 2
#     Edge 12, Type (0, 0), BuildingBlock: EZIPEK_clean_linker_0, # of connection points: 2
#     Edge 13, Type (0, 0), BuildingBlock: EZIPEK_clean_linker_0, # of connection points: 2
#     Edge 14, Type (0, 0), BuildingBlock: EZIPEK_clean_linker_0, # of connection points: 2
#     Edge 15, Type (0, 0), BuildingBlock: EZIPEK_clean_linker_0, # of connection points: 2
# Relax obj value: 0.204
# Max RMSD: 0.228
# Mean RMSD: 0.228
data_MOF--net-rob--node1-LEVNOQ01_clean_sbu_1--edge1-EZIPEK_clean_linker_0
_symmetry_space_group_name_H-M    P1
_symmetry_Int_Tables_number       1
_symmetry_cell_setting            triclinic
loop_
_symmetry_equiv_pos_as_xyz
'x, y, z'
_cell_length_a     11.994149
_cell_length_b     20.529202
_cell_length_c     19.948977
_cell_angle_alpha  106.98932
_cell_angle_beta   90.478211
_cell_angle_gamma 90.285475
loop_
_atom_site_label
_atom_site_type_symbol
_atom_site_fract_x
_atom_site_fract_y
_atom_site_fract_z
_atom_type_partial_charge
O0 O -0.00025 0.35323 0.1142 0.0
Mg1 Mg 0.17342 0.36015 0.11189 0.0
O2 O 0.03298 0.24884 0.05155 0.0
Mg3 Mg 0.19727 0.23708 -0.01586 0.0
O4 O 0.25064 0.35338 0.0196 0.0
O5 O 0.23782 0.44995 0.10935 0.0
O6 O 0.35963 0.22451 0.91478 0.0
O7 O 0.10503 0.25407 0.88548 0.0
Mg8 Mg 0.24362 0.10966 0.86384 0.0
O9 O 0.14772 0.12227 0.94942 0.0
O10 O 0.41561 0.11971 0.88154 0.0
O11 O 0.17297 0.16615 0.8017 0.0
O12 O 0.16824 0.02189 0.86654 0.0
C13 C 0.29285 0.2455 0.14649 0.0
C14 C -0.03099 0.29165 0.09308 0.0
C15 C 0.27241 0.41822 0.04731 0.0
C16 C 0.43234 0.181 0.88366 0.0
C17 C 0.11731 0.22088 0.82051 0.0
C18 C 0.12578 0.05747 0.92493 0.0
O19 O 0.25821 0.30599 0.17111 0.0
O20 O 0.28573 0.21432 0.08072 0.0
O21 O 0.54995 0.86678 0.11045 0.0
Mg22 Mg 0.71893 0.84378 0.10223 0.0
O23 O 0.56459 0.75722 0.06495 0.0
Mg24 Mg 0.71616 0.73251 -0.01589 0.0
O25 O 0.80399 0.84102 0.01367 0.0
O26 O 0.81377 0.92738 0.11457 0.0
O27 O 0.86447 0.70609 0.90203 0.0
O28 O 0.61632 0.76557 0.90082 0.0
Mg29 Mg 0.71196 0.60895 0.86321 0.0
O30 O 0.62473 0.62684 0.95326 0.0
O31 O 0.88463 0.596 0.86596 0.0
O32 O 0.65622 0.67714 0.80882 0.0
O33 O 0.61213 0.52919 0.86625 0.0
C34 C 0.82411 0.72254 0.13089 0.0
C35 C 0.50988 0.80822 0.10245 0.0
C36 C 0.84024 0.90123 0.04974 0.0
C37 C 0.92079 0.65427 0.86805 0.0
C38 C 0.61773 0.73665 0.83479 0.0
C39 C 0.58199 0.56616 0.92748 0.0
O40 O 0.77813 0.77923 0.15903 0.0
O41 O 0.82302 0.69681 0.06449 0.0
O42 O 0.14674 0.62645 0.32037 0.0
Mg43 Mg 0.30248 0.62184 0.36589 0.0
O44 O 0.06367 0.69241 0.41463 0.0
Mg45 Mg 0.21894 0.73222 0.48559 0.0
O46 O 0.29848 0.62349 0.46666 0.0
O47 O 0.35012 0.53275 0.37739 0.0
O48 O 0.37688 0.77043 0.55445 0.0
O49 O 0.13734 0.70933 0.58585 0.0
Mg50 Mg 0.16383 0.8613 0.61342 0.0
O51 O 0.1397 0.83962 0.50909 0.0
O52 O 0.32957 0.8574 0.64517 0.0
O53 O 0.05721 0.8017 0.65427 0.0
O54 O 0.09984 0.94081 0.58572 0.0
C55 C 0.37551 0.73603 0.341 0.0
C56 C 0.06253 0.65897 0.34956 0.0
C57 C 0.33958 0.56228 0.44372 0.0
C58 C 0.39735 0.81128 0.61516 0.0
C59 C 0.08042 0.73908 0.64036 0.0
C60 C 0.09561 0.89989 0.52275 0.0
O61 O 0.42743 0.68281 0.3413 0.0
O62 O 0.29719 0.75706 0.38517 0.0
O63 O 0.48184 0.09121 0.37388 0.0
Mg64 Mg 0.6548 0.10114 0.36206 0.0
O65 O 0.53144 0.19789 0.39775 0.0
Mg66 Mg 0.69112 0.21275 0.4728 0.0
O67 O 0.76453 0.09993 0.43891 0.0
O68 O 0.73419 0.01219 0.34064 0.0
O69 O 0.85432 0.22633 0.54412 0.0
O70 O 0.59044 0.18447 0.56348 0.0
Mg71 Mg 0.72573 0.31712 0.58536 0.0
O72 O 0.62154 0.32701 0.50751 0.0
O73 O 0.89779 0.33341 0.58458 0.0
O74 O 0.67747 0.25931 0.65047 0.0
O75 O 0.63941 0.40303 0.61536 0.0
C76 C 0.76881 0.21141 0.31588 0.0
C77 C 0.46303 0.14986 0.36867 0.0
C78 C 0.78452 0.03792 0.39999 0.0
C79 C 0.92327 0.27225 0.57773 0.0
C80 C 0.61271 0.20884 0.62909 0.0
C81 C 0.59842 0.38572 0.55263 0.0
O82 O 0.70933 0.15805 0.29585 0.0
O83 O 0.78774 0.23988 0.38134 0.0
C84 C 0.39113 0.51472 0.92716 0.0
C85 C 0.49236 0.53969 0.96364 0.0
C86 C 0.45191 0.47922 0.04917 0.0
C87 C 0.34978 0.4553 0.01416 0.0
N88 N 0.20807 0.46511 0.93161 0.0
N89 N 0.59015 0.56871 0.07454 0.0
C90 C 0.31507 0.47714 0.95628 0.0
C91 C 0.5142 0.52912 0.02933 0.0
N92 N 0.36704 0.52783 0.86531 0.0
N93 N 0.49108 0.45323 0.10053 0.0
H94 H 0.63165 0.60915 0.06401 0.0
H95 H 0.5994 0.56748 0.12616 0.0
H96 H 0.44906 0.41529 0.11573 0.0
H97 H 0.57043 0.46451 0.12282 0.0
H98 H 0.30182 0.5043 0.83211 0.0
H99 H 0.41455 0.56121 0.84635 0.0
H100 H 0.17361 0.48687 0.8952 0.0
H101 H 0.15104 0.43696 0.95129 0.0
C102 C 0.49782 0.54843 0.51855 0.0
C103 C 0.38939 0.52767 0.49152 0.0
C104 C 0.4127 0.41686 0.51294 0.0
C105 C 0.52545 0.43473 0.53254 0.0
N106 N 0.67209 0.51985 0.56499 0.0
N107 N 0.23885 0.44636 0.46565 0.0
C108 C 0.56647 0.5016 0.53956 0.0
C109 C 0.34485 0.4634 0.49074 0.0
N110 N 0.53865 0.61061 0.5177 0.0
N111 N 0.36984 0.35664 0.51819 0.0
H112 H 0.18549 0.48153 0.4537 0.0
H113 H 0.20431 0.39778 0.45496 0.0
H114 H 0.41694 0.32148 0.53461 0.0
H115 H 0.28603 0.34294 0.51099 0.0
H116 H 0.62115 0.62632 0.52803 0.0
H117 H 0.49029 0.64699 0.50433 0.0
H118 H 0.70117 0.56985 0.58215 0.0
H119 H 0.73147 0.4851 0.57111 0.0
C120 C 0.94102 0.00418 0.932 0.0
C121 C 0.04889 0.02351 0.96099 0.0
C122 C 0.02312 0.95782 0.04388 0.0
C123 C 0.91312 0.94108 0.01723 0.0
N124 N 0.75874 0.95903 0.94651 0.0
N125 N 0.18688 0.02945 0.05113 0.0
C126 C 0.86957 0.96699 0.96398 0.0
C127 C 0.08811 0.00378 0.01919 0.0
N128 N 0.90731 0.02099 0.87356 0.0
N129 N 0.0669 0.92763 0.09076 0.0
H130 H 0.23798 0.06199 0.03326 0.0
H131 H 0.21411 0.02309 0.0985 0.0
H132 H 0.02155 0.89388 0.11019 0.0
H133 H 0.1504 0.93156 0.10619 0.0
H134 H 0.83565 0.00125 0.84483 0.0
H135 H 0.95443 0.05202 0.85135 0.0
H136 H 0.71927 -0.01645 0.91406 0.0
H137 H 0.70359 0.93191 0.96867 0.0
C138 C 0.83654 0.9355 0.43611 0.0
C139 C 0.86941 -0.00356 0.42167 0.0
C140 C 0.06267 -0.01947 0.45338 0.0
C141 C 0.02878 0.92145 0.47095 0.0
N142 N 0.89266 0.83262 0.46299 0.0
N143 N 0.01557 0.06789 0.39841 0.0
C144 C 0.91883 0.89524 0.45619 0.0
C145 C -0.01663 0.01604 0.42438 0.0
N146 N 0.72587 0.91849 0.43504 0.0
N147 N 0.16992 0.00378 0.46709 0.0
H148 H -0.04079 0.0956 0.37773 0.0
H149 H 0.09841 0.08058 0.39286 0.0
H150 H 0.23133 0.97593 0.48373 0.0
H151 H 0.19719 0.05116 0.46439 0.0
H152 H 0.69514 0.87888 0.45249 0.0
H153 H 0.66261 0.9471 0.42149 0.0
H154 H 0.81787 0.80718 0.44543 0.0
H155 H 0.94961 0.80302 0.48055 0.0
C156 C 0.44938 0.13433 0.23937 0.0
C157 C 0.39963 0.15659 0.30679 0.0
C158 C 0.2587 0.21592 0.25835 0.0
C159 C 0.32559 0.20865 0.19775 0.0
N160 N 0.49348 0.16512 0.13456 0.0
N161 N 0.2544 0.21809 0.38056 0.0
C162 C 0.4227 0.16819 0.18869 0.0
C163 C 0.30307 0.1971 0.31625 0.0
N164 N 0.52098 0.08061 0.22301 0.0
N165 N 0.15138 0.23824 0.25952 0.0
H166 H 0.28149 0.20162 0.42273 0.0
H167 H 0.19114 0.25415 0.39264 0.0
H168 H 0.11313 0.24797 0.21634 0.0
H169 H 0.09647 0.23924 0.3 0.0
H170 H 0.55176 0.05948 0.17265 0.0
H171 H 0.53903 0.05191 0.25684 0.0
H172 H 0.57157 0.14228 0.13068 0.0
H173 H 0.47964 0.19101 0.09749 0.0
C174 C 0.38923 0.73077 0.1476 0.0
C175 C 0.42806 0.79734 0.15473 0.0
C176 C 0.39884 0.82908 0.28178 0.0
C177 C 0.38127 0.75928 0.27663 0.0
N178 N 0.33941 0.64462 0.20285 0.0
N179 N 0.40324 0.91497 0.22005 0.0
C180 C 0.36863 0.71052 0.20883 0.0
C181 C 0.41193 0.84849 0.21929 0.0
N182 N 0.36722 0.68858 0.08185 0.0
N183 N 0.40993 0.87622 0.34601 0.0
H184 H 0.39992 0.92902 0.17385 0.0
H185 H 0.38348 0.95427 0.26467 0.0
H186 H 0.40153 0.86417 0.393 0.0
H187 H 0.43555 0.9263 0.35272 0.0
H188 H 0.33053 0.64059 0.0713 0.0
H189 H 0.3755 0.70522 0.03739 0.0
H190 H 0.34496 0.6048 0.15672 0.0
H191 H 0.31061 0.62882 0.24451 0.0
C192 C 0.46203 0.72966 0.75402 0.0
C193 C 0.55773 0.76555 0.78611 0.0
C194 C 0.55675 0.83106 0.70135 0.0
C195 C 0.47007 0.78805 0.66359 0.0
N196 N 0.36098 0.68392 0.64657 0.0
N197 N 0.7055 0.84599 0.78821 0.0
C198 C 0.42938 0.73336 0.6874 0.0
C199 C 0.60796 0.81537 0.75943 0.0
N200 N 0.40208 0.6919 0.7876 0.0
N201 N 0.58898 0.88685 0.68207 0.0
H202 H 0.74272 0.83647 0.83186 0.0
H203 H 0.752 0.87778 0.76671 0.0
H204 H 0.55709 0.89711 0.63739 0.0
H205 H 0.64303 0.92419 0.712 0.0
H206 H 0.32495 0.66977 0.76951 0.0
H207 H 0.4236 0.68917 0.83753 0.0
H208 H 0.33798 0.64035 0.65998 0.0
H209 H 0.33855 0.68098 0.59561 0.0
C210 C 0.47853 0.23956 0.72476 0.0
C211 C 0.55181 0.18976 0.68496 0.0
C212 C 0.57188 0.14271 0.78468 0.0
C213 C 0.49837 0.19373 0.82456 0.0
N214 N 0.4326 0.30839 0.84113 0.0
N215 N 0.66535 0.09155 0.67314 0.0
C216 C 0.46582 0.24739 0.79717 0.0
C217 C 0.59762 0.14033 0.7139 0.0
N218 N 0.42288 0.28063 0.69312 0.0
N219 N 0.62206 0.09981 0.81655 0.0
H220 H 0.68256 0.08914 0.62124 0.0
H221 H 0.70013 0.05184 0.68851 0.0
H222 H 0.61535 0.1067 0.87031 0.0
H223 H 0.67643 0.06106 0.79212 0.0
H224 H 0.3622 0.315 0.71824 0.0
H225 H 0.42987 0.27504 0.63959 0.0
H226 H 0.41541 0.35069 0.82406 0.0
H227 H 0.44009 0.32004 0.89548 0.0
C228 C 0.87762 0.63466 0.19115 0.0
C229 C 0.89824 0.69711 0.17689 0.0
C230 C 0.01075 0.73821 0.28298 0.0
C231 C -0.01465 0.67747 0.30057 0.0
N232 N 0.89289 0.56878 0.27449 0.0
N233 N 0.01916 0.7934 0.19136 0.0
C234 C 0.91823 0.6257 0.25524 0.0
C235 C -0.02463 0.74447 0.21772 0.0
N236 N 0.82734 0.58282 0.14108 0.0
N237 N 0.06844 0.79028 0.32866 0.0
H238 H -0.00163 0.79563 0.14119 0.0
H239 H 0.08495 0.82564 0.21458 0.0
H240 H 0.0956 0.78874 0.37761 0.0
H241 H 0.07973 0.83802 0.32126 0.0
H242 H 0.81363 0.53425 0.14567 0.0
H243 H 0.81067 0.58676 0.0911 0.0
H244 H 0.8384 0.53071 0.24678 0.0
H245 H 0.92091 0.56222 0.32178 0.0
C246 C 0.87809 0.18818 0.20655 0.0
C247 C 0.81832 0.23604 0.25961 0.0
C248 C 0.82059 0.31516 0.18749 0.0
C249 C 0.88524 0.26748 0.13653 0.0
N250 N 0.91314 0.14766 0.08266 0.0
N251 N 0.71126 0.33935 0.29458 0.0
C252 C 0.8947 0.20044 0.14127 0.0
C253 C 0.78319 0.29822 0.24848 0.0
N254 N 0.92154 0.13128 0.21887 0.0
N255 N 0.79284 0.37549 0.17609 0.0
H256 H 0.68376 0.32855 0.33966 0.0
H257 H 0.67448 0.38251 0.28717 0.0
H258 H 0.80548 0.38426 0.12771 0.0
H259 H 0.75597 0.4159 0.21313 0.0
H260 H -0.02565 0.09817 0.18372 0.0
H261 H 0.91457 0.12136 0.26706 0.0
H262 H 0.91081 0.09709 0.08317 0.0
H263 H 0.9124 0.15403 0.03264 0.0
C264 C -0.01341 0.19323 0.64474 0.0
C265 C 0.00052 0.25651 0.63074 0.0
C266 C 0.09794 0.30015 0.74494 0.0
C267 C 0.06253 0.24117 0.76276 0.0
N268 N 0.95218 0.13812 0.73393 0.0
N269 N 0.09295 0.3659 0.66107 0.0
C270 C -0.00035 0.19007 0.71397 0.0
C271 C 0.06319 0.30908 0.67926 0.0
N272 N -0.03266 0.13522 0.59126 0.0
N273 N 0.16816 0.34571 0.78934 0.0
H274 H 0.0864 0.36799 0.60954 0.0
H275 H 0.12595 0.40997 0.69587 0.0
H276 H 0.19469 0.34004 0.83716 0.0
H277 H 0.20432 0.38739 0.77811 0.0
H278 H -0.03667 0.08698 0.59853 0.0
H279 H -0.02731 0.13473 0.53901 0.0
H280 H 0.89929 0.10192 0.70119 0.0
H281 H 0.95646 0.13584 0.78548 0.0
C282 C 0.01473 0.64215 0.68647 0.0
C283 C 0.065 0.70712 0.69803 0.0
C284 C 0.05994 0.72498 0.82543 0.0
C285 C 0.00145 0.66251 0.81382 0.0
N286 N -0.017 0.54831 0.73452 0.0
N287 N 0.17762 0.79549 0.77675 0.0
C288 C -0.00219 0.61648 0.74471 0.0
C289 C 0.10093 0.74401 0.76712 0.0
N290 N -0.0212 0.60605 0.62098 0.0
N291 N 0.07531 0.76636 0.89227 0.0
H292 H 0.21481 0.80809 0.73513 0.0
H293 H 0.21403 0.82026 0.82512 0.0
H294 H 0.0576 0.75023 0.93608 0.0
H295 H 0.10258 0.81676 0.90399 0.0
H296 H 0.93115 0.56161 0.61145 0.0
H297 H -0.01115 0.6233 0.57716 0.0
H298 H -0.01399 0.51259 0.68521 0.0
H299 H -0.01391 0.52659 0.77561 0.0
loop_
_geom_bond_atom_site_label_1
_geom_bond_atom_site_label_2
_geom_bond_distance
_geom_bond_site_symmetry_2
_ccdc_geom_bond_type
O0 Mg1 1.990 . S
O0 C14 1.253 . S
Mg1 O0 1.990 . S
Mg1 O4 2.180 . S
Mg1 O5 2.117 . S
Mg1 O19 2.030 . S
O2 Mg3 2.066 1_554 S
O2 C14 1.260 . S
Mg3 O2 2.066 1_556 S
Mg3 O4 2.098 1_556 S
Mg3 O6 2.084 . S
Mg3 O7 2.079 . S
Mg3 O9 2.100 . S
Mg3 O20 2.072 1_556 S
O4 Mg1 2.180 . S
O4 Mg3 2.098 1_554 S
O4 C15 1.279 . S
O5 Mg1 2.117 . S
O5 C15 1.250 . S
O6 Mg3 2.084 . S
O6 C16 1.264 . S
O7 Mg3 2.079 . S
O7 C17 1.260 . S
Mg8 O9 2.180 . S
Mg8 O10 2.030 . S
Mg8 O11 1.990 . S
Mg8 O12 2.117 . S
O9 Mg3 2.100 . S
O9 Mg8 2.180 . S
O9 C18 1.279 . S
O10 Mg8 2.030 . S
O10 C16 1.248 . S
O11 Mg8 1.990 . S
O11 C17 1.253 . S
O12 Mg8 2.117 . S
O12 C18 1.250 . S
C13 O19 1.248 . S
C13 O20 1.264 . S
C14 O0 1.253 . S
C14 O2 1.260 . S
C15 O4 1.279 . S
C15 O5 1.250 . S
C16 O6 1.264 . S
C16 O10 1.248 . S
C17 O7 1.260 . S
C17 O11 1.253 . S
C18 O9 1.279 . S
C18 O12 1.250 . S
O19 Mg1 2.030 . S
O19 C13 1.248 . S
O20 Mg3 2.072 1_554 S
O20 C13 1.264 . S
O21 Mg22 1.990 . S
O21 C35 1.253 . S
Mg22 O21 1.990 . S
Mg22 O25 2.180 . S
Mg22 O26 2.117 . S
Mg22 O40 2.030 . S
O23 Mg24 2.066 1_554 S
O23 C35 1.260 . S
Mg24 O23 2.066 1_556 S
Mg24 O25 2.098 1_556 S
Mg24 O27 2.084 . S
Mg24 O28 2.079 . S
Mg24 O30 2.100 . S
Mg24 O41 2.072 1_556 S
O25 Mg22 2.180 . S
O25 Mg24 2.098 1_554 S
O25 C36 1.279 . S
O26 Mg22 2.117 . S
O26 C36 1.250 . S
O27 Mg24 2.084 . S
O27 C37 1.264 . S
O28 Mg24 2.079 . S
O28 C38 1.260 . S
Mg29 O30 2.180 . S
Mg29 O31 2.030 . S
Mg29 O32 1.990 . S
Mg29 O33 2.117 . S
O30 Mg24 2.100 . S
O30 Mg29 2.180 . S
O30 C39 1.279 . S
O31 Mg29 2.030 . S
O31 C37 1.248 . S
O32 Mg29 1.990 . S
O32 C38 1.253 . S
O33 Mg29 2.117 . S
O33 C39 1.250 . S
C34 O40 1.248 . S
C34 O41 1.264 . S
C35 O21 1.253 . S
C35 O23 1.260 . S
C36 O25 1.279 . S
C36 O26 1.250 . S
C37 O27 1.264 . S
C37 O31 1.248 . S
C38 O28 1.260 . S
C38 O32 1.253 . S
C39 O30 1.279 . S
C39 O33 1.250 . S
O40 Mg22 2.030 . S
O40 C34 1.248 . S
O41 Mg24 2.072 1_554 S
O41 C34 1.264 . S
O42 Mg43 1.990 . S
O42 C56 1.253 . S
Mg43 O42 1.990 . S
Mg43 O46 2.180 . S
Mg43 O47 2.117 . S
Mg43 O61 2.030 . S
O44 Mg45 2.072 . S
O44 C56 1.260 . S
Mg45 O44 2.072 . S
Mg45 O46 2.099 . S
Mg45 O48 2.079 . S
Mg45 O49 2.072 . S
Mg45 O51 2.099 . S
Mg45 O62 2.079 . S
O46 Mg43 2.180 . S
O46 Mg45 2.099 . S
O46 C57 1.279 . S
O47 Mg43 2.117 . S
O47 C57 1.250 . S
O48 Mg45 2.079 . S
O48 C58 1.264 . S
O49 Mg45 2.072 . S
O49 C59 1.260 . S
Mg50 O51 2.180 . S
Mg50 O52 2.030 . S
Mg50 O53 1.990 . S
Mg50 O54 2.117 . S
O51 Mg45 2.099 . S
O51 Mg50 2.180 . S
O51 C60 1.279 . S
O52 Mg50 2.030 . S
O52 C58 1.248 . S
O53 Mg50 1.990 . S
O53 C59 1.253 . S
O54 Mg50 2.117 . S
O54 C60 1.250 . S
C55 O61 1.248 . S
C55 O62 1.264 . S
C56 O42 1.253 . S
C56 O44 1.260 . S
C57 O46 1.279 . S
C57 O47 1.250 . S
C58 O48 1.264 . S
C58 O52 1.248 . S
C59 O49 1.260 . S
C59 O53 1.253 . S
C60 O51 1.279 . S
C60 O54 1.250 . S
O61 Mg43 2.030 . S
O61 C55 1.248 . S
O62 Mg45 2.079 . S
O62 C55 1.264 . S
O63 Mg64 1.990 . S
O63 C77 1.253 . S
Mg64 O63 1.990 . S
Mg64 O67 2.180 . S
Mg64 O68 2.117 . S
Mg64 O82 2.030 . S
O65 Mg66 2.072 . S
O65 C77 1.260 . S
Mg66 O65 2.072 . S
Mg66 O67 2.099 . S
Mg66 O69 2.079 . S
Mg66 O70 2.072 . S
Mg66 O72 2.099 . S
Mg66 O83 2.079 . S
O67 Mg64 2.180 . S
O67 Mg66 2.099 . S
O67 C78 1.279 . S
O68 Mg64 2.117 . S
O68 C78 1.250 . S
O69 Mg66 2.079 . S
O69 C79 1.264 . S
O70 Mg66 2.072 . S
O70 C80 1.260 . S
Mg71 O72 2.180 . S
Mg71 O73 2.030 . S
Mg71 O74 1.990 . S
Mg71 O75 2.117 . S
O72 Mg66 2.099 . S
O72 Mg71 2.180 . S
O72 C81 1.279 . S
O73 Mg71 2.030 . S
O73 C79 1.248 . S
O74 Mg71 1.990 . S
O74 C80 1.253 . S
O75 Mg71 2.117 . S
O75 C81 1.250 . S
C76 O82 1.248 . S
C76 O83 1.264 . S
C77 O63 1.253 . S
C77 O65 1.260 . S
C78 O67 1.279 . S
C78 O68 1.250 . S
C79 O69 1.264 . S
C79 O73 1.248 . S
C80 O70 1.260 . S
C80 O74 1.253 . S
C81 O72 1.279 . S
C81 O75 1.250 . S
O82 Mg64 2.030 . S
O82 C76 1.248 . S
O83 Mg66 2.079 . S
O83 C76 1.264 . S
C84 C85 1.367 . S
C84 C90 1.379 . S
C84 N92 1.356 . S
C85 C84 1.367 . S
C85 C91 1.357 1_556 S
C86 C87 1.363 . S
C86 C91 1.379 . S
C86 N93 1.356 . S
C87 C86 1.363 . S
C87 C90 1.363 1_554 S
N88 C90 1.356 . S
N88 H100 0.984 . S
N88 H101 0.985 . S
N89 C91 1.356 . S
N89 H94 0.984 . S
N89 H95 0.985 . S
C90 C84 1.379 . S
C90 C87 1.363 1_556 S
C90 N88 1.356 . S
C91 C85 1.357 1_554 S
C91 C86 1.379 . S
C91 N89 1.356 . S
N92 C84 1.356 . S
N92 H98 0.984 . S
N92 H99 0.984 . S
N93 C86 1.356 . S
N93 H96 0.984 . S
N93 H97 0.985 . S
H94 N89 0.984 . S
H95 N89 0.985 . S
H96 N93 0.984 . S
H97 N93 0.985 . S
H98 N92 0.984 . S
H99 N92 0.984 . S
H100 N88 0.984 . S
H101 N88 0.985 . S
C102 C103 1.363 . S
C102 C108 1.379 . S
C102 N110 1.356 . S
C103 C102 1.363 . S
C103 C109 1.363 . S
C104 C105 1.363 . S
C104 C109 1.379 . S
C104 N111 1.356 . S
C105 C104 1.363 . S
C105 C108 1.363 . S
N106 C108 1.356 . S
N106 H118 0.984 . S
N106 H119 0.985 . S
N107 C109 1.356 . S
N107 H112 0.984 . S
N107 H113 0.985 . S
C108 C102 1.379 . S
C108 C105 1.363 . S
C108 N106 1.356 . S
C109 C103 1.363 . S
C109 C104 1.379 . S
C109 N107 1.356 . S
N110 C102 1.356 . S
N110 H116 0.984 . S
N110 H117 0.984 . S
N111 C104 1.356 . S
N111 H114 0.984 . S
N111 H115 0.985 . S
H112 N107 0.984 . S
H113 N107 0.985 . S
H114 N111 0.984 . S
H115 N111 0.985 . S
H116 N110 0.984 . S
H117 N110 0.984 . S
H118 N106 0.984 . S
H119 N106 0.985 . S
C120 C121 1.367 1_655 S
C120 C126 1.379 1_545 S
C120 N128 1.356 1_655 S
C121 C120 1.367 1_455 S
C121 C127 1.358 1_556 S
C122 C123 1.363 . S
C122 C127 1.379 1_665 S
C122 N129 1.356 . S
C123 C122 1.363 . S
C123 C126 1.363 1_554 S
N124 C126 1.356 . S
N124 H136 0.984 . S
N124 H137 0.985 . S
N125 C127 1.356 . S
N125 H130 0.984 . S
N125 H131 0.985 . S
C126 C120 1.379 1_565 S
C126 C123 1.363 1_556 S
C126 N124 1.356 . S
C127 C121 1.358 1_554 S
C127 C122 1.379 1_445 S
C127 N125 1.356 . S
N128 C120 1.356 1_455 S
N128 H134 0.984 1_455 S
N128 H135 0.984 . S
N129 C122 1.356 . S
N129 H132 0.984 . S
N129 H133 0.985 . S
H130 N125 0.984 . S
H131 N125 0.985 . S
H132 N129 0.984 . S
H133 N129 0.985 . S
H134 N128 0.984 1_655 S
H135 N128 0.984 . S
H136 N124 0.984 . S
H137 N124 0.985 . S
C138 C139 1.363 1_565 S
C138 C144 1.379 . S
C138 N146 1.356 . S
C139 C138 1.363 1_545 S
C139 C145 1.363 . S
C140 C141 1.363 1_545 S
C140 C145 1.379 1_455 S
C140 N147 1.356 . S
C141 C140 1.363 1_565 S
C141 C144 1.363 1_455 S
N142 C144 1.356 . S
N142 H154 0.984 . S
N142 H155 0.985 1_655 S
N143 C145 1.356 . S
N143 H148 0.984 . S
N143 H149 0.985 1_655 S
C144 C138 1.379 . S
C144 C141 1.363 1_655 S
C144 N142 1.356 . S
C145 C139 1.363 . S
C145 C140 1.379 1_655 S
C145 N143 1.356 . S
N146 C138 1.356 . S
N146 H152 0.984 . S
N146 H153 0.984 1_565 S
N147 C140 1.356 . S
N147 H150 0.984 1_545 S
N147 H151 0.985 . S
H148 N143 0.984 . S
H149 N143 0.985 1_455 S
H150 N147 0.984 1_565 S
H151 N147 0.985 . S
H152 N146 0.984 . S
H153 N146 0.984 1_545 S
H154 N142 0.984 . S
H155 N142 0.985 1_455 S
C156 C157 1.363 . S
C156 C162 1.379 . S
C156 N164 1.356 . S
C157 C156 1.363 . S
C157 C163 1.363 . S
C158 C159 1.363 . S
C158 C163 1.379 . S
C158 N165 1.356 . S
C159 C158 1.363 . S
C159 C162 1.363 . S
N160 C162 1.356 . S
N160 H172 0.984 . S
N160 H173 0.985 . S
N161 C163 1.356 . S
N161 H166 0.984 . S
N161 H167 0.985 . S
C162 C156 1.379 . S
C162 C159 1.363 . S
C162 N160 1.356 . S
C163 C157 1.363 . S
C163 C158 1.379 . S
C163 N161 1.356 . S
N164 C156 1.356 . S
N164 H170 0.984 . S
N164 H171 0.984 . S
N165 C158 1.356 . S
N165 H168 0.984 . S
N165 H169 0.985 . S
H166 N161 0.984 . S
H167 N161 0.985 . S
H168 N165 0.984 . S
H169 N165 0.985 . S
H170 N164 0.984 . S
H171 N164 0.984 . S
H172 N160 0.984 . S
H173 N160 0.985 . S
C174 C175 1.363 . S
C174 C180 1.379 . S
C174 N182 1.356 . S
C175 C174 1.363 . S
C175 C181 1.363 . S
C176 C177 1.363 . S
C176 C181 1.379 . S
C176 N183 1.356 . S
C177 C176 1.363 . S
C177 C180 1.363 . S
N178 C180 1.356 . S
N178 H190 0.984 . S
N178 H191 0.985 . S
N179 C181 1.356 . S
N179 H184 0.984 . S
N179 H185 0.985 . S
C180 C174 1.379 . S
C180 C177 1.363 . S
C180 N178 1.356 . S
C181 C175 1.363 . S
C181 C176 1.379 . S
C181 N179 1.356 . S
N182 C174 1.356 . S
N182 H188 0.984 . S
N182 H189 0.984 . S
N183 C176 1.356 . S
N183 H186 0.984 . S
N183 H187 0.985 . S
H184 N179 0.984 . S
H185 N179 0.985 . S
H186 N183 0.984 . S
H187 N183 0.985 . S
H188 N182 0.984 . S
H189 N182 0.984 . S
H190 N178 0.984 . S
H191 N178 0.985 . S
C192 C193 1.363 . S
C192 C198 1.379 . S
C192 N200 1.356 . S
C193 C192 1.363 . S
C193 C199 1.363 . S
C194 C195 1.363 . S
C194 C199 1.379 . S
C194 N201 1.356 . S
C195 C194 1.363 . S
C195 C198 1.363 . S
N196 C198 1.356 . S
N196 H208 0.984 . S
N196 H209 0.985 . S
N197 C199 1.356 . S
N197 H202 0.984 . S
N197 H203 0.985 . S
C198 C192 1.379 . S
C198 C195 1.363 . S
C198 N196 1.356 . S
C199 C193 1.363 . S
C199 C194 1.379 . S
C199 N197 1.356 . S
N200 C192 1.356 . S
N200 H206 0.984 . S
N200 H207 0.984 . S
N201 C194 1.356 . S
N201 H204 0.984 . S
N201 H205 0.985 . S
H202 N197 0.984 . S
H203 N197 0.985 . S
H204 N201 0.984 . S
H205 N201 0.985 . S
H206 N200 0.984 . S
H207 N200 0.984 . S
H208 N196 0.984 . S
H209 N196 0.985 . S
C210 C211 1.363 . S
C210 C216 1.379 . S
C210 N218 1.356 . S
C211 C210 1.363 . S
C211 C217 1.363 . S
C212 C213 1.363 . S
C212 C217 1.379 . S
C212 N219 1.356 . S
C213 C212 1.363 . S
C213 C216 1.363 . S
N214 C216 1.356 . S
N214 H226 0.984 . S
N214 H227 0.985 . S
N215 C217 1.356 . S
N215 H220 0.984 . S
N215 H221 0.985 . S
C216 C210 1.379 . S
C216 C213 1.363 . S
C216 N214 1.356 . S
C217 C211 1.363 . S
C217 C212 1.379 . S
C217 N215 1.356 . S
N218 C210 1.356 . S
N218 H224 0.984 . S
N218 H225 0.984 . S
N219 C212 1.356 . S
N219 H222 0.984 . S
N219 H223 0.985 . S
H220 N215 0.984 . S
H221 N215 0.985 . S
H222 N219 0.984 . S
H223 N219 0.985 . S
H224 N218 0.984 . S
H225 N218 0.984 . S
H226 N214 0.984 . S
H227 N214 0.985 . S
C228 C229 1.363 . S
C228 C234 1.379 . S
C228 N236 1.356 . S
C229 C228 1.363 . S
C229 C235 1.363 1_655 S
C230 C231 1.363 . S
C230 C235 1.379 . S
C230 N237 1.356 . S
C231 C230 1.363 . S
C231 C234 1.363 1_455 S
N232 C234 1.356 . S
N232 H244 0.984 . S
N232 H245 0.985 . S
N233 C235 1.356 . S
N233 H238 0.984 . S
N233 H239 0.985 . S
C234 C228 1.379 . S
C234 C231 1.363 1_655 S
C234 N232 1.356 . S
C235 C229 1.363 1_455 S
C235 C230 1.379 . S
C235 N233 1.356 . S
N236 C228 1.356 . S
N236 H242 0.984 . S
N236 H243 0.984 . S
N237 C230 1.356 . S
N237 H240 0.984 . S
N237 H241 0.985 . S
H238 N233 0.984 . S
H239 N233 0.985 . S
H240 N237 0.984 . S
H241 N237 0.985 . S
H242 N236 0.984 . S
H243 N236 0.984 . S
H244 N232 0.984 . S
H245 N232 0.985 . S
C246 C247 1.363 1_455 S
C246 C252 1.379 . S
C246 N254 1.356 . S
C247 C246 1.363 1_655 S
C247 C253 1.363 . S
C248 C249 1.363 1_655 S
C248 C253 1.379 . S
C248 N255 1.356 . S
C249 C248 1.363 1_455 S
C249 C252 1.363 . S
N250 C252 1.356 . S
N250 H262 0.984 . S
N250 H263 0.985 . S
N251 C253 1.356 . S
N251 H256 0.984 . S
N251 H257 0.985 . S
C252 C246 1.379 . S
C252 C249 1.363 . S
C252 N250 1.356 . S
C253 C247 1.363 . S
C253 C248 1.379 . S
C253 N251 1.356 . S
N254 C246 1.356 . S
N254 H260 0.984 . S
N254 H261 0.984 . S
N255 C248 1.356 . S
N255 H258 0.984 . S
N255 H259 0.985 . S
H256 N251 0.984 . S
H257 N251 0.985 . S
H258 N255 0.984 . S
H259 N255 0.985 . S
H260 N254 0.984 . S
H261 N254 0.984 . S
H262 N250 0.984 . S
H263 N250 0.985 . S
C264 C265 1.363 . S
C264 C270 1.379 . S
C264 N272 1.356 . S
C265 C264 1.363 . S
C265 C271 1.363 1_655 S
C266 C267 1.363 . S
C266 C271 1.379 . S
C266 N273 1.356 . S
C267 C266 1.363 . S
C267 C270 1.363 1_455 S
N268 C270 1.356 . S
N268 H280 0.984 . S
N268 H281 0.985 . S
N269 C271 1.356 . S
N269 H274 0.984 . S
N269 H275 0.985 . S
C270 C264 1.379 . S
C270 C267 1.363 1_655 S
C270 N268 1.356 . S
C271 C265 1.363 1_455 S
C271 C266 1.379 . S
C271 N269 1.356 . S
N272 C264 1.356 . S
N272 H278 0.984 . S
N272 H279 0.984 . S
N273 C266 1.356 . S
N273 H276 0.984 . S
N273 H277 0.985 . S
H274 N269 0.984 . S
H275 N269 0.985 . S
H276 N273 0.984 . S
H277 N273 0.985 . S
H278 N272 0.984 . S
H279 N272 0.984 . S
H280 N268 0.984 . S
H281 N268 0.985 . S
C282 C283 1.363 1_655 S
C282 C288 1.379 . S
C282 N290 1.356 . S
C283 C282 1.363 1_455 S
C283 C289 1.363 . S
C284 C285 1.363 1_455 S
C284 C289 1.379 . S
C284 N291 1.356 . S
C285 C284 1.363 1_655 S
C285 C288 1.363 . S
N286 C288 1.356 . S
N286 H298 0.984 . S
N286 H299 0.985 . S
N287 C289 1.356 . S
N287 H292 0.984 . S
N287 H293 0.985 . S
C288 C282 1.379 . S
C288 C285 1.363 . S
C288 N286 1.356 . S
C289 C283 1.363 . S
C289 C284 1.379 . S
C289 N287 1.356 . S
N290 C282 1.356 . S
N290 H296 0.984 . S
N290 H297 0.984 1_655 S
N291 C284 1.356 . S
N291 H294 0.984 . S
N291 H295 0.985 . S
H292 N287 0.984 . S
H293 N287 0.985 . S
H294 N291 0.984 . S
H295 N291 0.985 . S
H296 N290 0.984 . S
H297 N290 0.984 1_455 S
H298 N286 0.984 . S
H299 N286 0.985 . S
C85 C39 1.435 . S
C87 C15 1.430 . S
C103 C57 1.430 . S
C105 C81 1.431 . S
C121 C18 1.435 . S
C123 C36 1.430 . S
C139 C78 1.430 . S
C141 C60 1.431 . S
C157 C77 1.147 . S
C159 C13 1.110 . S
C175 C35 1.147 . S
C177 C55 1.110 . S
C193 C38 1.150 . S
C195 C58 1.144 . S
C211 C80 1.150 . S
C213 C16 1.144 . S
C229 C34 1.111 . S
C231 C56 1.145 . S
C247 C76 1.111 . S
C249 C14 1.145 . S
C265 C79 1.143 . S
C267 C17 1.151 . S
C283 C59 1.150 . S
C285 C37 1.144 . S
