# Generated by pormake.
# Topology wjc, (7)-cn, num edge types: 1
# Building blocks:
#     Node 0, Type 0, BuildingBlock: NUHQUE_clean_sbu_2, # of connection points: 7
#     Node 1, Type 0, BuildingBlock: NUHQUE_clean_sbu_2, # of connection points: 7
#     Node 2, Type 0, BuildingBlock: NUHQUE_clean_sbu_2, # of connection points: 7
#     Node 3, Type 0, BuildingBlock: NUHQUE_clean_sbu_2, # of connection points: 7
#     Node 4, Type 0, BuildingBlock: NUHQUE_clean_sbu_2, # of connection points: 7
#     Node 5, Type 0, BuildingBlock: NUHQUE_clean_sbu_2, # of connection points: 7
#     Node 6, Type 0, BuildingBlock: NUHQUE_clean_sbu_2, # of connection points: 7
#     Node 7, Type 0, BuildingBlock: NUHQUE_clean_sbu_2, # of connection points: 7
#     Node 8, Type 0, BuildingBlock: NUHQUE_clean_sbu_2, # of connection points: 7
#     Node 9, Type 0, BuildingBlock: NUHQUE_clean_sbu_2, # of connection points: 7
#     Node 10, Type 0, BuildingBlock: NUHQUE_clean_sbu_2, # of connection points: 7
#     Node 11, Type 0, BuildingBlock: NUHQUE_clean_sbu_2, # of connection points: 7
#     Node 12, Type 0, BuildingBlock: NUHQUE_clean_sbu_2, # of connection points: 7
#     Node 13, Type 0, BuildingBlock: NUHQUE_clean_sbu_2, # of connection points: 7
#     Node 14, Type 0, BuildingBlock: NUHQUE_clean_sbu_2, # of connection points: 7
#     Node 15, Type 0, BuildingBlock: NUHQUE_clean_sbu_2, # of connection points: 7
#     Node 16, Type 0, BuildingBlock: NUHQUE_clean_sbu_2, # of connection points: 7
#     Node 17, Type 0, BuildingBlock: NUHQUE_clean_sbu_2, # of connection points: 7
#     Node 18, Type 0, BuildingBlock: NUHQUE_clean_sbu_2, # of connection points: 7
#     Node 19, Type 0, BuildingBlock: NUHQUE_clean_sbu_2, # of connection points: 7
#     Node 20, Type 0, BuildingBlock: NUHQUE_clean_sbu_2, # of connection points: 7
#     Node 21, Type 0, BuildingBlock: NUHQUE_clean_sbu_2, # of connection points: 7
#     Node 22, Type 0, BuildingBlock: NUHQUE_clean_sbu_2, # of connection points: 7
#     Node 23, Type 0, BuildingBlock: NUHQUE_clean_sbu_2, # of connection points: 7
#     Edge 24, Type (0, 0), BuildingBlock: UVAHIK_clean_linker_0, # of connection points: 2
#     Edge 25, Type (0, 0), BuildingBlock: UVAHIK_clean_linker_0, # of connection points: 2
#     Edge 26, Type (0, 0), BuildingBlock: UVAHIK_clean_linker_0, # of connection points: 2
#     Edge 27, Type (0, 0), BuildingBlock: UVAHIK_clean_linker_0, # of connection points: 2
#     Edge 28, Type (0, 0), BuildingBlock: UVAHIK_clean_linker_0, # of connection points: 2
#     Edge 29, Type (0, 0), BuildingBlock: UVAHIK_clean_linker_0, # of connection points: 2
#     Edge 30, Type (0, 0), BuildingBlock: UVAHIK_clean_linker_0, # of connection points: 2
#     Edge 31, Type (0, 0), BuildingBlock: UVAHIK_clean_linker_0, # of connection points: 2
#     Edge 32, Type (0, 0), BuildingBlock: UVAHIK_clean_linker_0, # of connection points: 2
#     Edge 33, Type (0, 0), BuildingBlock: UVAHIK_clean_linker_0, # of connection points: 2
#     Edge 34, Type (0, 0), BuildingBlock: UVAHIK_clean_linker_0, # of connection points: 2
#     Edge 35, Type (0, 0), BuildingBlock: UVAHIK_clean_linker_0, # of connection points: 2
#     Edge 36, Type (0, 0), BuildingBlock: UVAHIK_clean_linker_0, # of connection points: 2
#     Edge 37, Type (0, 0), BuildingBlock: UVAHIK_clean_linker_0, # of connection points: 2
#     Edge 38, Type (0, 0), BuildingBlock: UVAHIK_clean_linker_0, # of connection points: 2
#     Edge 39, Type (0, 0), BuildingBlock: UVAHIK_clean_linker_0, # of connection points: 2
#     Edge 40, Type (0, 0), BuildingBlock: UVAHIK_clean_linker_0, # of connection points: 2
#     Edge 41, Type (0, 0), BuildingBlock: UVAHIK_clean_linker_0, # of connection points: 2
#     Edge 42, Type (0, 0), BuildingBlock: UVAHIK_clean_linker_0, # of connection points: 2
#     Edge 43, Type (0, 0), BuildingBlock: UVAHIK_clean_linker_0, # of connection points: 2
#     Edge 44, Type (0, 0), BuildingBlock: UVAHIK_clean_linker_0, # of connection points: 2
#     Edge 45, Type (0, 0), BuildingBlock: UVAHIK_clean_linker_0, # of connection points: 2
#     Edge 46, Type (0, 0), BuildingBlock: UVAHIK_clean_linker_0, # of connection points: 2
#     Edge 47, Type (0, 0), BuildingBlock: UVAHIK_clean_linker_0, # of connection points: 2
#     Edge 48, Type (0, 0), BuildingBlock: UVAHIK_clean_linker_0, # of connection points: 2
#     Edge 49, Type (0, 0), BuildingBlock: UVAHIK_clean_linker_0, # of connection points: 2
#     Edge 50, Type (0, 0), BuildingBlock: UVAHIK_clean_linker_0, # of connection points: 2
#     Edge 51, Type (0, 0), BuildingBlock: UVAHIK_clean_linker_0, # of connection points: 2
#     Edge 52, Type (0, 0), BuildingBlock: UVAHIK_clean_linker_0, # of connection points: 2
#     Edge 53, Type (0, 0), BuildingBlock: UVAHIK_clean_linker_0, # of connection points: 2
#     Edge 54, Type (0, 0), BuildingBlock: UVAHIK_clean_linker_0, # of connection points: 2
#     Edge 55, Type (0, 0), BuildingBlock: UVAHIK_clean_linker_0, # of connection points: 2
#     Edge 56, Type (0, 0), BuildingBlock: UVAHIK_clean_linker_0, # of connection points: 2
#     Edge 57, Type (0, 0), BuildingBlock: UVAHIK_clean_linker_0, # of connection points: 2
#     Edge 58, Type (0, 0), BuildingBlock: UVAHIK_clean_linker_0, # of connection points: 2
#     Edge 59, Type (0, 0), BuildingBlock: UVAHIK_clean_linker_0, # of connection points: 2
#     Edge 60, Type (0, 0), BuildingBlock: UVAHIK_clean_linker_0, # of connection points: 2
#     Edge 61, Type (0, 0), BuildingBlock: UVAHIK_clean_linker_0, # of connection points: 2
#     Edge 62, Type (0, 0), BuildingBlock: UVAHIK_clean_linker_0, # of connection points: 2
#     Edge 63, Type (0, 0), BuildingBlock: UVAHIK_clean_linker_0, # of connection points: 2
#     Edge 64, Type (0, 0), BuildingBlock: UVAHIK_clean_linker_0, # of connection points: 2
#     Edge 65, Type (0, 0), BuildingBlock: UVAHIK_clean_linker_0, # of connection points: 2
#     Edge 66, Type (0, 0), BuildingBlock: UVAHIK_clean_linker_0, # of connection points: 2
#     Edge 67, Type (0, 0), BuildingBlock: UVAHIK_clean_linker_0, # of connection points: 2
#     Edge 68, Type (0, 0), BuildingBlock: UVAHIK_clean_linker_0, # of connection points: 2
#     Edge 69, Type (0, 0), BuildingBlock: UVAHIK_clean_linker_0, # of connection points: 2
#     Edge 70, Type (0, 0), BuildingBlock: UVAHIK_clean_linker_0, # of connection points: 2
#     Edge 71, Type (0, 0), BuildingBlock: UVAHIK_clean_linker_0, # of connection points: 2
#     Edge 72, Type (0, 0), BuildingBlock: UVAHIK_clean_linker_0, # of connection points: 2
#     Edge 73, Type (0, 0), BuildingBlock: UVAHIK_clean_linker_0, # of connection points: 2
#     Edge 74, Type (0, 0), BuildingBlock: UVAHIK_clean_linker_0, # of connection points: 2
#     Edge 75, Type (0, 0), BuildingBlock: UVAHIK_clean_linker_0, # of connection points: 2
#     Edge 76, Type (0, 0), BuildingBlock: UVAHIK_clean_linker_0, # of connection points: 2
#     Edge 77, Type (0, 0), BuildingBlock: UVAHIK_clean_linker_0, # of connection points: 2
#     Edge 78, Type (0, 0), BuildingBlock: UVAHIK_clean_linker_0, # of connection points: 2
#     Edge 79, Type (0, 0), BuildingBlock: UVAHIK_clean_linker_0, # of connection points: 2
#     Edge 80, Type (0, 0), BuildingBlock: UVAHIK_clean_linker_0, # of connection points: 2
#     Edge 81, Type (0, 0), BuildingBlock: UVAHIK_clean_linker_0, # of connection points: 2
#     Edge 82, Type (0, 0), BuildingBlock: UVAHIK_clean_linker_0, # of connection points: 2
#     Edge 83, Type (0, 0), BuildingBlock: UVAHIK_clean_linker_0, # of connection points: 2
#     Edge 84, Type (0, 0), BuildingBlock: UVAHIK_clean_linker_0, # of connection points: 2
#     Edge 85, Type (0, 0), BuildingBlock: UVAHIK_clean_linker_0, # of connection points: 2
#     Edge 86, Type (0, 0), BuildingBlock: UVAHIK_clean_linker_0, # of connection points: 2
#     Edge 87, Type (0, 0), BuildingBlock: UVAHIK_clean_linker_0, # of connection points: 2
#     Edge 88, Type (0, 0), BuildingBlock: UVAHIK_clean_linker_0, # of connection points: 2
#     Edge 89, Type (0, 0), BuildingBlock: UVAHIK_clean_linker_0, # of connection points: 2
#     Edge 90, Type (0, 0), BuildingBlock: UVAHIK_clean_linker_0, # of connection points: 2
#     Edge 91, Type (0, 0), BuildingBlock: UVAHIK_clean_linker_0, # of connection points: 2
#     Edge 92, Type (0, 0), BuildingBlock: UVAHIK_clean_linker_0, # of connection points: 2
#     Edge 93, Type (0, 0), BuildingBlock: UVAHIK_clean_linker_0, # of connection points: 2
#     Edge 94, Type (0, 0), BuildingBlock: UVAHIK_clean_linker_0, # of connection points: 2
#     Edge 95, Type (0, 0), BuildingBlock: UVAHIK_clean_linker_0, # of connection points: 2
#     Edge 96, Type (0, 0), BuildingBlock: UVAHIK_clean_linker_0, # of connection points: 2
#     Edge 97, Type (0, 0), BuildingBlock: UVAHIK_clean_linker_0, # of connection points: 2
#     Edge 98, Type (0, 0), BuildingBlock: UVAHIK_clean_linker_0, # of connection points: 2
#     Edge 99, Type (0, 0), BuildingBlock: UVAHIK_clean_linker_0, # of connection points: 2
#     Edge 100, Type (0, 0), BuildingBlock: UVAHIK_clean_linker_0, # of connection points: 2
#     Edge 101, Type (0, 0), BuildingBlock: UVAHIK_clean_linker_0, # of connection points: 2
#     Edge 102, Type (0, 0), BuildingBlock: UVAHIK_clean_linker_0, # of connection points: 2
#     Edge 103, Type (0, 0), BuildingBlock: UVAHIK_clean_linker_0, # of connection points: 2
#     Edge 104, Type (0, 0), BuildingBlock: UVAHIK_clean_linker_0, # of connection points: 2
#     Edge 105, Type (0, 0), BuildingBlock: UVAHIK_clean_linker_0, # of connection points: 2
#     Edge 106, Type (0, 0), BuildingBlock: UVAHIK_clean_linker_0, # of connection points: 2
#     Edge 107, Type (0, 0), BuildingBlock: UVAHIK_clean_linker_0, # of connection points: 2
# Relax obj value: 0.273
# Max RMSD: 0.235
# Mean RMSD: 0.235
data_MOF--net-wjc--node1-NUHQUE_clean_sbu_2--edge1-UVAHIK_clean_linker_0
_symmetry_space_group_name_H-M    P1
_symmetry_Int_Tables_number       1
_symmetry_cell_setting            triclinic
loop_
_symmetry_equiv_pos_as_xyz
'x, y, z'
_cell_length_a     62.334929
_cell_length_b     62.353599
_cell_length_c     71.494723
_cell_angle_alpha  89.991014
_cell_angle_beta   90.017312
_cell_angle_gamma 120.01676
loop_
_atom_site_label
_atom_site_type_symbol
_atom_site_fract_x
_atom_site_fract_y
_atom_site_fract_z
_atom_type_partial_charge
O0 O 0.44985 0.22351 0.12116 0.0
Tb1 Tb 0.41408 0.18999 0.12267 0.0
Eu2 Eu 0.42544 0.12283 0.12482 0.0
C3 C 0.47013 0.22544 0.1284 0.0
O4 O 0.4692 0.20669 0.13751 0.0
C5 C 0.41914 0.15459 0.15278 0.0
O6 O 0.38557 0.0927 0.12546 0.0
C7 C 0.455 0.10532 0.12063 0.0
C8 C 0.37705 0.07949 0.1408 0.0
O9 O 0.39212 0.08451 0.15507 0.0
C10 C 0.41917 0.1559 0.09416 0.0
C11 C 0.47798 0.10975 0.1114 0.0
C12 C 0.49964 0.13311 0.11155 0.0
C13 C 0.52153 0.13602 0.10362 0.0
C14 C 0.52176 0.11545 0.09587 0.0
C15 C 0.50043 0.09191 0.09596 0.0
C16 C 0.47843 0.08943 0.1034 0.0
O17 O 0.41414 0.15898 0.13592 0.0
O18 O 0.42429 0.13671 0.15371 0.0
O19 O 0.38538 0.19726 0.11243 0.0
O20 O 0.38965 0.19516 0.14184 0.0
C21 C 0.37733 0.19906 0.12884 0.0
O22 O 0.43478 0.15619 0.10669 0.0
O23 O 0.40974 0.17059 0.09638 0.0
O24 O 0.43575 0.09908 0.10973 0.0
O25 O 0.45691 0.11999 0.13456 0.0
H26 H 0.49963 0.14882 0.11803 0.0
H27 H 0.53916 0.11762 0.09089 0.0
H28 H 0.46168 0.07147 0.10349 0.0
O29 O 0.25096 0.47286 0.12887 0.0
Tb30 Tb 0.24591 0.43588 0.12899 0.0
Eu31 Eu 0.27929 0.40984 0.13708 0.0
C32 C 0.24126 0.48023 0.14193 0.0
O33 O 0.2298 0.46553 0.15612 0.0
C34 C 0.24608 0.41344 0.16744 0.0
O35 O 0.29114 0.38132 0.13978 0.0
C36 C 0.31548 0.45444 0.1437 0.0
C37 C 0.27447 0.35762 0.13993 0.0
O38 O 0.25091 0.35094 0.13862 0.0
C39 C 0.27027 0.42217 0.09675 0.0
C40 C 0.3367 0.47564 0.13451 0.0
C41 C 0.34027 0.49956 0.13721 0.0
C42 C 0.36096 0.52029 0.1295 0.0
C43 C 0.3782 0.51691 0.11924 0.0
C44 C 0.37526 0.49326 0.11669 0.0
C45 C 0.35416 0.47258 0.12412 0.0
O46 O 0.25159 0.43433 0.15898 0.0
O47 O 0.24967 0.39689 0.15892 0.0
O48 O 0.21469 0.39778 0.12692 0.0
O49 O 0.20967 0.42788 0.11899 0.0
C50 C 0.19893 0.40396 0.12056 0.0
O51 O 0.26925 0.40405 0.10672 0.0
O52 O 0.26943 0.44059 0.10497 0.0
O53 O 0.31694 0.4344 0.14669 0.0
O54 O 0.29336 0.44965 0.13848 0.0
H55 H 0.32717 0.50207 0.14555 0.0
H56 H 0.39493 0.53308 0.11434 0.0
H57 H 0.35166 0.45423 0.12222 0.0
O58 O 0.78368 0.24069 0.12124 0.0
Tb59 Tb 0.81485 0.23576 0.12795 0.0
Eu60 Eu 0.8945 0.30073 0.12006 0.0
C61 C 0.77113 0.24397 0.1346 0.0
O62 O 0.77818 0.24497 0.15205 0.0
C63 C 0.8622 0.2674 0.15201 0.0
O64 O 0.92606 0.29534 0.11082 0.0
C65 C 0.90833 0.34741 0.12066 0.0
C66 C 0.93704 0.28732 0.12227 0.0
O67 O 0.92758 0.27934 0.13895 0.0
C68 C 0.84997 0.25956 0.09559 0.0
C69 C 0.89984 0.36495 0.11587 0.0
C70 C 0.87798 0.36299 0.12321 0.0
C71 C 0.87146 0.38087 0.11858 0.0
C72 C 0.88689 0.40077 0.10691 0.0
C73 C 0.90893 0.40316 0.09978 0.0
C74 C 0.91498 0.38486 0.10411 0.0
O75 O 0.84613 0.26801 0.14049 0.0
O76 O 0.8858 0.28235 0.14844 0.0
O77 O 0.79391 0.20566 0.14788 0.0
O78 O 0.81637 0.20155 0.12748 0.0
C79 C 0.80119 0.19086 0.14134 0.0
O80 O 0.85694 0.27867 0.10669 0.0
O81 O 0.82935 0.23912 0.09983 0.0
O82 O 0.9124 0.33659 0.10644 0.0
O83 O 0.89848 0.33284 0.13523 0.0
H84 H 0.86627 0.34793 0.13254 0.0
H85 H 0.88221 0.41505 0.10419 0.0
H86 H 0.93184 0.3863 0.09856 0.0
O87 O 0.53634 0.78545 0.14023 0.0
Tb88 Tb 0.57467 0.8154 0.13866 0.0
Eu89 Eu 0.6041 0.87664 0.14771 0.0
C90 C 0.52805 0.77061 0.15483 0.0
O91 O 0.54281 0.77481 0.16915 0.0
C92 C 0.60142 0.83816 0.17662 0.0
O93 O 0.63256 0.91667 0.15247 0.0
C94 C 0.55993 0.86932 0.15381 0.0
C95 C 0.65347 0.92774 0.14307 0.0
O96 O 0.65811 0.91507 0.13064 0.0
C97 C 0.58959 0.85566 0.10762 0.0
C98 C 0.54041 0.86965 0.14244 0.0
C99 C 0.51555 0.85176 0.1457 0.0
C100 C 0.49658 0.85206 0.13536 0.0
C101 C 0.50269 0.87048 0.1218 0.0
C102 C 0.52739 0.88885 0.11864 0.0
C103 C 0.54626 0.88806 0.12881 0.0
O104 O 0.58008 0.82275 0.16868 0.0
O105 O 0.6171 0.85918 0.16865 0.0
O106 O 0.57793 0.78476 0.12732 0.0
O107 O 0.61086 0.81834 0.134 0.0
C108 C 0.60197 0.79592 0.12754 0.0
O109 O 0.60868 0.87193 0.11732 0.0
O110 O 0.57089 0.8366 0.11587 0.0
O111 O 0.58016 0.89073 0.15653 0.0
O112 O 0.56432 0.85122 0.15037 0.0
H113 H 0.51096 0.83786 0.15646 0.0
H114 H 0.48791 0.8716 0.11469 0.0
H115 H 0.56541 0.90214 0.12645 0.0
O116 O 0.75832 0.52968 0.13875 0.0
Tb117 Tb 0.76303 0.5663 0.13487 0.0
Eu118 Eu 0.70453 0.58857 0.12587 0.0
C119 C 0.76952 0.52515 0.15248 0.0
O120 O 0.78285 0.54285 0.16447 0.0
C121 C 0.73444 0.58642 0.15772 0.0
O122 O 0.68942 0.61421 0.12109 0.0
C123 C 0.67307 0.54197 0.12112 0.0
C124 C 0.70176 0.63479 0.11142 0.0
O125 O 0.72273 0.63984 0.1034 0.0
C126 C 0.74158 0.58025 0.10088 0.0
C127 C 0.64783 0.5221 0.11708 0.0
C128 C 0.64296 0.49762 0.11832 0.0
C129 C 0.61969 0.47783 0.1134 0.0
C130 C 0.60122 0.48282 0.10741 0.0
C131 C 0.60575 0.50722 0.10611 0.0
C132 C 0.62922 0.52696 0.11109 0.0
O133 O 0.73323 0.57132 0.14457 0.0
O134 O 0.72107 0.59689 0.15484 0.0
O135 O 0.795 0.5918 0.1519 0.0
O136 O 0.79781 0.59323 0.12216 0.0
C137 C 0.80959 0.60271 0.1377 0.0
O138 O 0.74077 0.59637 0.11245 0.0
O139 O 0.75103 0.56647 0.10642 0.0
O140 O 0.67757 0.55278 0.13759 0.0
O141 O 0.68544 0.55705 0.10732 0.0
H142 H 0.65753 0.49402 0.12271 0.0
H143 H 0.58291 0.4675 0.10421 0.0
H144 H 0.6331 0.54592 0.11002 0.0
O145 O 0.23829 0.79197 0.12874 0.0
Tb146 Tb 0.20325 0.79118 0.12608 0.0
Eu147 Eu 0.12453 0.72392 0.11735 0.0
C148 C 0.2525 0.80192 0.14347 0.0
O149 O 0.24579 0.81238 0.15637 0.0
C150 C 0.15748 0.75328 0.14958 0.0
O151 O 0.08353 0.70864 0.1151 0.0
C152 C 0.14018 0.69401 0.10796 0.0
C153 C 0.07024 0.69854 0.1302 0.0
O154 O 0.08139 0.69678 0.14523 0.0
C155 C 0.16715 0.76705 0.09362 0.0
C156 C 0.13317 0.66886 0.10202 0.0
C157 C 0.14962 0.6602 0.10567 0.0
C158 C 0.14469 0.63711 0.09892 0.0
C159 C 0.12312 0.62265 0.08851 0.0
C160 C 0.10609 0.63076 0.08528 0.0
C161 C 0.11118 0.65396 0.09209 0.0
O162 O 0.17209 0.75662 0.13539 0.0
O163 O 0.13406 0.73693 0.14716 0.0
O164 O 0.2037 0.81809 0.14601 0.0
O165 O 0.20496 0.82513 0.11674 0.0
C166 C 0.20477 0.83361 0.13331 0.0
O167 O 0.15103 0.76269 0.10705 0.0
O168 O 0.191 0.78074 0.09737 0.0
O169 O 0.13558 0.69711 0.1254 0.0
O170 O 0.13641 0.70767 0.09587 0.0
H171 H 0.16648 0.67162 0.11352 0.0
H172 H 0.11897 0.60446 0.08374 0.0
H173 H 0.09819 0.66043 0.08959 0.0
O174 O 0.78741 0.54389 0.37562 0.0
Tb175 Tb 0.81847 0.58155 0.37644 0.0
Eu176 Eu 0.87866 0.60778 0.36636 0.0
C177 C 0.77077 0.53685 0.36222 0.0
O178 O 0.77378 0.55257 0.34885 0.0
C179 C 0.84023 0.60243 0.33705 0.0
O180 O 0.92006 0.63333 0.36466 0.0
C181 C 0.86802 0.56211 0.36149 0.0
C182 C 0.93052 0.65726 0.36787 0.0
O183 O 0.91644 0.66687 0.37159 0.0
C184 C 0.85933 0.59752 0.40729 0.0
C185 C 0.86988 0.54266 0.37177 0.0
C186 C 0.85146 0.51778 0.36929 0.0
C187 C 0.85291 0.49889 0.37886 0.0
C188 C 0.87307 0.50506 0.39075 0.0
C189 C 0.89202 0.52978 0.39295 0.0
C190 C 0.89003 0.54859 0.38368 0.0
O191 O 0.82566 0.58208 0.34646 0.0
O192 O 0.86106 0.61964 0.34445 0.0
O193 O 0.82193 0.61842 0.37631 0.0
O194 O 0.78938 0.58771 0.38739 0.0
C195 C 0.80039 0.61131 0.38393 0.0
O196 O 0.87537 0.61542 0.39655 0.0
O197 O 0.83899 0.57892 0.40031 0.0
O198 O 0.88882 0.58133 0.35582 0.0
O199 O 0.85223 0.56816 0.36817 0.0
H200 H 0.83612 0.5131 0.35985 0.0
H201 H 0.8748 0.4903 0.39727 0.0
H202 H 0.90445 0.56775 0.38538 0.0
O203 O 0.25549 0.78751 0.36568 0.0
Tb204 Tb 0.24677 0.81718 0.36575 0.0
Eu205 Eu 0.28497 0.88016 0.36045 0.0
C206 C 0.25004 0.77274 0.35114 0.0
O207 O 0.24095 0.77732 0.33608 0.0
C208 C 0.25082 0.84552 0.32946 0.0
O209 O 0.30128 0.92151 0.36292 0.0
C210 C 0.32018 0.87015 0.35472 0.0
C211 C 0.28737 0.93182 0.3616 0.0
O212 O 0.26346 0.91767 0.35873 0.0
C213 C 0.27053 0.85415 0.39986 0.0
C214 C 0.34285 0.874 0.36439 0.0
C215 C 0.34449 0.85338 0.37049 0.0
C216 C 0.3659 0.85669 0.37963 0.0
C217 C 0.3857 0.88074 0.38258 0.0
C218 C 0.38479 0.90137 0.37593 0.0
C219 C 0.36331 0.89798 0.36693 0.0
O220 O 0.25669 0.82996 0.33708 0.0
O221 O 0.25605 0.86611 0.33808 0.0
O222 O 0.21003 0.7846 0.36799 0.0
O223 O 0.21325 0.82012 0.36946 0.0
C224 C 0.19779 0.79629 0.36972 0.0
O225 O 0.27221 0.87289 0.39023 0.0
O226 O 0.26653 0.83348 0.39176 0.0
O227 O 0.32041 0.88985 0.3479 0.0
O228 O 0.29895 0.85438 0.36247 0.0
H229 H 0.32927 0.8348 0.36796 0.0
H230 H 0.40267 0.88335 0.38891 0.0
H231 H 0.36278 0.91405 0.36176 0.0
O232 O 0.47349 0.2574 0.37345 0.0
Tb233 Tb 0.43489 0.24745 0.37041 0.0
Eu234 Eu 0.41018 0.28364 0.36151 0.0
C235 C 0.48553 0.25449 0.35948 0.0
O236 O 0.47432 0.24666 0.34329 0.0
C237 C 0.41727 0.25323 0.3311 0.0
O238 O 0.38483 0.29927 0.35707 0.0
C239 C 0.45646 0.3182 0.36 0.0
C240 C 0.36251 0.28861 0.36444 0.0
O241 O 0.35498 0.26851 0.37457 0.0
C242 C 0.41499 0.2685 0.40227 0.0
C243 C 0.4749 0.33792 0.37204 0.0
C244 C 0.49986 0.3443 0.37067 0.0
C245 C 0.5179 0.36345 0.38169 0.0
C246 C 0.51079 0.37635 0.39394 0.0
C247 C 0.48596 0.37059 0.39515 0.0
C248 C 0.46798 0.35089 0.38443 0.0
O249 O 0.43688 0.25799 0.34107 0.0
O250 O 0.39965 0.25612 0.33844 0.0
O251 O 0.39876 0.21303 0.37009 0.0
O252 O 0.43157 0.21133 0.37468 0.0
C253 C 0.40763 0.19829 0.37305 0.0
O254 O 0.39942 0.2701 0.39079 0.0
O255 O 0.43332 0.26558 0.39614 0.0
O256 O 0.43821 0.32105 0.35377 0.0
O257 O 0.44928 0.29551 0.36534 0.0
H258 H 0.50527 0.33456 0.3609 0.0
H259 H 0.52502 0.39211 0.40154 0.0
H260 H 0.44873 0.34609 0.38533 0.0
O261 O 0.22681 0.46914 0.38067 0.0
Tb262 Tb 0.19634 0.43285 0.37328 0.0
Eu263 Eu 0.11631 0.41926 0.3735 0.0
C264 C 0.2349 0.48732 0.36846 0.0
O265 O 0.2232 0.48348 0.35245 0.0
C266 C 0.15205 0.41718 0.34573 0.0
O267 O 0.08299 0.38266 0.3814 0.0
C268 C 0.10382 0.45296 0.36964 0.0
C269 C 0.07009 0.36575 0.36871 0.0
O270 O 0.07832 0.36914 0.35143 0.0
C271 C 0.1551 0.419 0.40218 0.0
C272 C 0.11016 0.47779 0.37654 0.0
C273 C 0.13333 0.49905 0.37318 0.0
C274 C 0.13802 0.52224 0.37976 0.0
C275 C 0.11941 0.5242 0.3893 0.0
C276 C 0.09605 0.50332 0.39234 0.0
C277 C 0.09179 0.48014 0.38615 0.0
O278 O 0.16584 0.43288 0.35872 0.0
O279 O 0.12813 0.40881 0.34677 0.0
O280 O 0.21591 0.42249 0.35289 0.0
O281 O 0.19974 0.39994 0.37684 0.0
C282 C 0.21254 0.40279 0.36176 0.0
O283 O 0.15027 0.43343 0.39177 0.0
O284 O 0.17584 0.41871 0.39926 0.0
O285 O 0.09363 0.43492 0.38191 0.0
O286 O 0.11926 0.45095 0.35823 0.0
H287 H 0.14759 0.49769 0.3655 0.0
H288 H 0.12286 0.54237 0.39348 0.0
H289 H 0.07392 0.46378 0.38858 0.0
O290 O 0.75566 0.227 0.36451 0.0
Tb291 Tb 0.76087 0.19506 0.36583 0.0
Eu292 Eu 0.72307 0.1339 0.35471 0.0
C293 C 0.76757 0.24457 0.35205 0.0
O294 O 0.7815 0.24183 0.3396 0.0
C295 C 0.76274 0.17215 0.32777 0.0
O296 O 0.70698 0.09263 0.35195 0.0
C297 C 0.68957 0.14594 0.34763 0.0
C298 C 0.71822 0.08155 0.35934 0.0
O299 O 0.73912 0.09491 0.36841 0.0
C300 C 0.73163 0.15357 0.39574 0.0
C301 C 0.66714 0.14342 0.35678 0.0
C302 C 0.66553 0.16474 0.36048 0.0
C303 C 0.6444 0.16273 0.36917 0.0
C304 C 0.62481 0.1393 0.37405 0.0
C305 C 0.62566 0.11783 0.36974 0.0
C306 C 0.64694 0.11995 0.36126 0.0
O307 O 0.75761 0.18812 0.33574 0.0
O308 O 0.75528 0.15038 0.33528 0.0
O309 O 0.79311 0.18979 0.36806 0.0
O310 O 0.79588 0.22324 0.37789 0.0
C311 C 0.80778 0.21127 0.37566 0.0
O312 O 0.73154 0.1363 0.38523 0.0
O313 O 0.73539 0.17464 0.38861 0.0
O314 O 0.68845 0.12559 0.34136 0.0
O315 O 0.71084 0.16116 0.35558 0.0
H316 H 0.68057 0.18283 0.35646 0.0
H317 H 0.60805 0.13766 0.38002 0.0
H318 H 0.64751 0.10328 0.35797 0.0
O319 O 0.53852 0.76641 0.38953 0.0
Tb320 Tb 0.57419 0.77172 0.38089 0.0
Eu321 Eu 0.58679 0.70456 0.38463 0.0
C322 C 0.52012 0.75766 0.3775 0.0
O323 O 0.52348 0.75105 0.36079 0.0
C324 C 0.58844 0.74053 0.35465 0.0
O325 O 0.62422 0.70926 0.39177 0.0
C326 C 0.55381 0.65786 0.38382 0.0
C327 C 0.64096 0.71379 0.3788 0.0
O328 O 0.63691 0.71835 0.36163 0.0
C329 C 0.58799 0.74641 0.41072 0.0
C330 C 0.52921 0.63886 0.39059 0.0
C331 C 0.50787 0.64101 0.3888 0.0
C332 C 0.48485 0.6218 0.39522 0.0
C333 C 0.48339 0.60036 0.40295 0.0
C334 C 0.50446 0.59791 0.40464 0.0
C335 C 0.52735 0.61749 0.39866 0.0
O336 O 0.57221 0.73991 0.36666 0.0
O337 O 0.59586 0.7243 0.35686 0.0
O338 O 0.58063 0.80133 0.36122 0.0
O339 O 0.60904 0.80699 0.38035 0.0
C340 C 0.60287 0.81705 0.36701 0.0
O341 O 0.57382 0.72746 0.39999 0.0
O342 O 0.5883 0.76738 0.40761 0.0
O343 O 0.5713 0.66783 0.39654 0.0
O344 O 0.55535 0.67351 0.37082 0.0
H345 H 0.50912 0.65742 0.38253 0.0
H346 H 0.46544 0.58499 0.40683 0.0
H347 H 0.54391 0.61605 0.40007 0.0
O348 O 0.52884 0.78549 0.87354 0.0
Tb349 Tb 0.56739 0.81468 0.87542 0.0
Eu350 Eu 0.59004 0.87816 0.86769 0.0
C351 C 0.52069 0.77114 0.85869 0.0
O352 O 0.53564 0.77599 0.84437 0.0
C353 C 0.59366 0.84265 0.83969 0.0
O354 O 0.61344 0.91985 0.86832 0.0
C355 C 0.54387 0.86337 0.8604 0.0
C356 C 0.63768 0.9304 0.86688 0.0
O357 O 0.64759 0.91622 0.86513 0.0
C358 C 0.58165 0.85418 0.90815 0.0
C359 C 0.5225 0.86473 0.86777 0.0
C360 C 0.49885 0.84358 0.86673 0.0
C361 C 0.47791 0.84447 0.87279 0.0
C362 C 0.4808 0.8668 0.87972 0.0
C363 C 0.50424 0.88826 0.88068 0.0
C364 C 0.52514 0.88698 0.87487 0.0
O365 O 0.57173 0.82724 0.84662 0.0
O366 O 0.60741 0.86445 0.84727 0.0
O367 O 0.60347 0.81641 0.8772 0.0
O368 O 0.5704 0.78177 0.8803 0.0
C369 C 0.59442 0.79272 0.87981 0.0
O370 O 0.5967 0.87312 0.89767 0.0
O371 O 0.5653 0.83247 0.90113 0.0
O372 O 0.56244 0.88386 0.85359 0.0
O373 O 0.55096 0.85004 0.86998 0.0
H374 H 0.49671 0.82651 0.86101 0.0
H375 H 0.46442 0.86776 0.88337 0.0
H376 H 0.54337 0.90333 0.87559 0.0
O377 O 0.74444 0.53364 0.86409 0.0
Tb378 Tb 0.75538 0.57266 0.86391 0.0
Eu379 Eu 0.71918 0.59924 0.86296 0.0
C380 C 0.74362 0.52191 0.84856 0.0
O381 O 0.74734 0.53346 0.83249 0.0
C382 C 0.74721 0.59683 0.82886 0.0
O383 O 0.70262 0.6239 0.86675 0.0
C384 C 0.68432 0.55363 0.85777 0.0
C385 C 0.71612 0.64813 0.86514 0.0
O386 O 0.73984 0.65815 0.86133 0.0
C387 C 0.73851 0.58889 0.90072 0.0
C388 C 0.6627 0.53287 0.86698 0.0
C389 C 0.66085 0.50946 0.86717 0.0
C390 C 0.64004 0.48905 0.87495 0.0
C391 C 0.62084 0.49196 0.88227 0.0
C392 C 0.62195 0.51502 0.8818 0.0
C393 C 0.64323 0.53558 0.87437 0.0
O394 O 0.74178 0.57546 0.83639 0.0
O395 O 0.74559 0.61352 0.83889 0.0
O396 O 0.79092 0.60765 0.86607 0.0
O397 O 0.79084 0.57387 0.86194 0.0
C398 C 0.80484 0.59764 0.86399 0.0
O399 O 0.73544 0.60551 0.89169 0.0
O400 O 0.74078 0.57151 0.89194 0.0
O401 O 0.68247 0.57286 0.85259 0.0
O402 O 0.7062 0.55964 0.86448 0.0
H403 H 0.67541 0.50704 0.86102 0.0
H404 H 0.60425 0.4757 0.88726 0.0
H405 H 0.64441 0.55351 0.87399 0.0
O406 O 0.21528 0.74737 0.86574 0.0
Tb407 Tb 0.18746 0.75869 0.86534 0.0
Eu408 Eu 0.12413 0.71739 0.85831 0.0
C409 C 0.22693 0.74704 0.85049 0.0
O410 O 0.2204 0.75191 0.83429 0.0
C411 C 0.15933 0.75344 0.82857 0.0
O412 O 0.08238 0.69912 0.85892 0.0
C413 C 0.13868 0.68538 0.8529 0.0
C414 C 0.07188 0.71265 0.86171 0.0
O415 O 0.08612 0.73664 0.86414 0.0
C416 C 0.14786 0.73541 0.89861 0.0
C417 C 0.1367 0.66266 0.86097 0.0
C418 C 0.15746 0.65941 0.86048 0.0
C419 C 0.1558 0.63755 0.86734 0.0
C420 C 0.13319 0.61879 0.87442 0.0
C421 C 0.11207 0.62138 0.87463 0.0
C422 C 0.11408 0.64363 0.86813 0.0
O423 O 0.17495 0.74804 0.83667 0.0
O424 O 0.13795 0.7469 0.83642 0.0
O425 O 0.22155 0.79404 0.86926 0.0
O426 O 0.18792 0.79426 0.86523 0.0
C427 C 0.21175 0.8081 0.86787 0.0
O428 O 0.12873 0.73044 0.88796 0.0
O429 O 0.1698 0.74125 0.89178 0.0
O430 O 0.11857 0.68349 0.84535 0.0
O431 O 0.1518 0.70604 0.86228 0.0
H432 H 0.17479 0.67374 0.8546 0.0
H433 H 0.13181 0.60148 0.87877 0.0
H434 H 0.09799 0.64597 0.86832 0.0
O435 O 0.47615 0.22032 0.87082 0.0
Tb436 Tb 0.43799 0.1902 0.87052 0.0
Eu437 Eu 0.41246 0.12734 0.85966 0.0
C438 C 0.48419 0.23711 0.85751 0.0
O439 O 0.46913 0.23467 0.84377 0.0
C440 C 0.41907 0.16771 0.83143 0.0
O441 O 0.38568 0.08591 0.85751 0.0
C442 C 0.45832 0.13794 0.85581 0.0
C443 C 0.36617 0.07466 0.86855 0.0
O444 O 0.36184 0.0879 0.88064 0.0
C445 C 0.42014 0.14791 0.90077 0.0
C446 C 0.4782 0.13524 0.86484 0.0
C447 C 0.50247 0.15568 0.86509 0.0
C448 C 0.52209 0.15346 0.87265 0.0
C449 C 0.51718 0.1305 0.87981 0.0
C450 C 0.49319 0.10979 0.8795 0.0
C451 C 0.47366 0.11238 0.87215 0.0
O452 O 0.43927 0.18133 0.84124 0.0
O453 O 0.40187 0.14618 0.83785 0.0
O454 O 0.43295 0.2211 0.87881 0.0
O455 O 0.40183 0.18841 0.86854 0.0
C456 C 0.40956 0.21081 0.87472 0.0
O457 O 0.40363 0.13144 0.88937 0.0
O458 O 0.43846 0.16923 0.89483 0.0
O459 O 0.43934 0.11797 0.84878 0.0
O460 O 0.45201 0.15284 0.86389 0.0
H461 H 0.50612 0.17321 0.8592 0.0
H462 H 0.53253 0.12842 0.88464 0.0
H463 H 0.45506 0.09654 0.87182 0.0
O464 O 0.26291 0.47474 0.86017 0.0
Tb465 Tb 0.25139 0.43556 0.85969 0.0
Eu466 Eu 0.28613 0.40645 0.857 0.0
C467 C 0.25964 0.48555 0.84551 0.0
O468 O 0.25194 0.47309 0.82977 0.0
C469 C 0.25619 0.41035 0.82404 0.0
O470 O 0.30021 0.37912 0.85737 0.0
C471 C 0.32234 0.45153 0.85177 0.0
C472 C 0.29396 0.36221 0.87054 0.0
O473 O 0.27877 0.3608 0.88383 0.0
C474 C 0.26912 0.41828 0.89542 0.0
C475 C 0.34364 0.4723 0.86134 0.0
C476 C 0.34573 0.49584 0.86115 0.0
C477 C 0.36627 0.51618 0.86932 0.0
C478 C 0.38497 0.51305 0.87739 0.0
C479 C 0.38365 0.48989 0.87732 0.0
C480 C 0.36265 0.46943 0.86949 0.0
O481 O 0.26269 0.43204 0.83149 0.0
O482 O 0.25844 0.39365 0.83364 0.0
O483 O 0.21636 0.43537 0.85969 0.0
O484 O 0.21548 0.40108 0.86268 0.0
C485 C 0.20198 0.41167 0.86169 0.0
O486 O 0.27118 0.4012 0.88615 0.0
O487 O 0.26781 0.43638 0.8869 0.0
O488 O 0.32381 0.43174 0.84778 0.0
O489 O 0.30019 0.44632 0.85726 0.0
H490 H 0.33156 0.49842 0.85446 0.0
H491 H 0.40138 0.52921 0.88273 0.0
H492 H 0.36135 0.45145 0.86942 0.0
O493 O 0.79188 0.25891 0.87339 0.0
Tb494 Tb 0.81866 0.24631 0.871 0.0
Eu495 Eu 0.88276 0.29467 0.8612 0.0
C496 C 0.77984 0.2597 0.8585 0.0
O497 O 0.78664 0.25607 0.84196 0.0
C498 C 0.84804 0.25146 0.83585 0.0
O499 O 0.9246 0.31449 0.86094 0.0
C500 C 0.86475 0.32321 0.8534 0.0
C501 C 0.93537 0.30112 0.86327 0.0
O502 O 0.92126 0.27709 0.8656 0.0
C503 C 0.86206 0.27258 0.90286 0.0
C504 C 0.8662 0.34622 0.86024 0.0
C505 C 0.8451 0.34883 0.85918 0.0
C506 C 0.84617 0.37079 0.86518 0.0
C507 C 0.86862 0.39023 0.87199 0.0
C508 C 0.89 0.38815 0.87292 0.0
C509 C 0.88855 0.36586 0.86722 0.0
O510 O 0.83249 0.25771 0.84281 0.0
O511 O 0.87054 0.26196 0.8425 0.0
O512 O 0.81632 0.20997 0.86925 0.0
O513 O 0.7834 0.2116 0.87272 0.0
C514 C 0.79232 0.19685 0.8709 0.0
O515 O 0.88078 0.28641 0.89168 0.0
O516 O 0.83869 0.25838 0.89757 0.0
O517 O 0.8848 0.32539 0.84546 0.0
O518 O 0.85331 0.30365 0.86427 0.0
H519 H 0.82792 0.33385 0.85362 0.0
H520 H 0.86967 0.4076 0.87565 0.0
H521 H 0.90484 0.36388 0.868 0.0
O522 O 0.2245 0.45709 0.62818 0.0
Tb523 Tb 0.19684 0.41982 0.61993 0.0
Eu524 Eu 0.11417 0.39939 0.61785 0.0
C525 C 0.23469 0.47466 0.61551 0.0
O526 O 0.22694 0.46948 0.59813 0.0
C527 C 0.14836 0.3966 0.64603 0.0
O528 O 0.09031 0.36126 0.60585 0.0
C529 C 0.08954 0.42258 0.61959 0.0
C530 C 0.07932 0.34172 0.61676 0.0
O531 O 0.08512 0.34409 0.6346 0.0
C532 C 0.15967 0.41653 0.58983 0.0
C533 C 0.09306 0.44644 0.61285 0.0
C534 C 0.11427 0.46903 0.61741 0.0
C535 C 0.11739 0.49124 0.61008 0.0
C536 C 0.09923 0.49094 0.59833 0.0
C537 C 0.0777 0.46858 0.59396 0.0
C538 C 0.07495 0.44637 0.60115 0.0
O539 O 0.16005 0.40686 0.63056 0.0
O540 O 0.1248 0.38987 0.64575 0.0
O541 O 0.20227 0.39163 0.6339 0.0
O542 O 0.21434 0.40189 0.60567 0.0
C543 C 0.21261 0.38755 0.6195 0.0
O544 O 0.15074 0.42409 0.60331 0.0
O545 O 0.18132 0.41782 0.59214 0.0
O546 O 0.08615 0.40653 0.60641 0.0
O547 O 0.10387 0.42299 0.63327 0.0
H548 H 0.12837 0.46944 0.62652 0.0
H549 H 0.10139 0.50836 0.5934 0.0
H550 H 0.05864 0.42889 0.59766 0.0
O551 O 0.77254 0.1892 0.62914 0.0
Tb552 Tb 0.77801 0.15845 0.62171 0.0
Eu553 Eu 0.72058 0.14148 0.63549 0.0
C554 C 0.78691 0.20548 0.6417 0.0
O555 O 0.80333 0.20186 0.65053 0.0
C556 C 0.76334 0.14643 0.66274 0.0
O557 O 0.71035 0.10198 0.62978 0.0
C558 C 0.6825 0.14487 0.64549 0.0
C559 C 0.70994 0.08731 0.64314 0.0
O560 O 0.71568 0.09584 0.6603 0.0
C561 C 0.73641 0.14179 0.59405 0.0
C562 C 0.66012 0.14404 0.63785 0.0
C563 C 0.65704 0.16461 0.64056 0.0
C564 C 0.63542 0.16409 0.63458 0.0
C565 C 0.61659 0.14268 0.62604 0.0
C566 C 0.61901 0.12163 0.62352 0.0
C567 C 0.64111 0.12262 0.62922 0.0
O568 O 0.77372 0.14137 0.64879 0.0
O569 O 0.74712 0.15363 0.65972 0.0
O570 O 0.81262 0.15745 0.62081 0.0
O571 O 0.81025 0.18558 0.60587 0.0
C572 C 0.82458 0.17673 0.61012 0.0
O573 O 0.72824 0.1528 0.60527 0.0
O574 O 0.75226 0.13549 0.60033 0.0
O575 O 0.68296 0.12402 0.64613 0.0
O576 O 0.7039 0.16424 0.64094 0.0
H577 H 0.67131 0.18092 0.64765 0.0
H578 H 0.59933 0.14195 0.62248 0.0
H579 H 0.6433 0.10659 0.62728 0.0
O580 O 0.56208 0.7634 0.61126 0.0
Tb581 Tb 0.60087 0.77895 0.61915 0.0
Eu582 Eu 0.59319 0.72088 0.63253 0.0
C583 C 0.54494 0.75847 0.62399 0.0
O584 O 0.55086 0.76028 0.64176 0.0
C585 C 0.61177 0.76698 0.65886 0.0
O586 O 0.61139 0.69759 0.6344 0.0
C587 C 0.54624 0.69629 0.63987 0.0
C588 C 0.63412 0.70728 0.62795 0.0
O589 O 0.64442 0.72936 0.62025 0.0
C590 C 0.61439 0.74625 0.59318 0.0
C591 C 0.5249 0.67612 0.63012 0.0
C592 C 0.50084 0.67204 0.63304 0.0
C593 C 0.48062 0.65246 0.62381 0.0
C594 C 0.48463 0.63679 0.61204 0.0
C595 C 0.50847 0.64032 0.60931 0.0
C596 C 0.52861 0.66046 0.61807 0.0
O597 O 0.59756 0.77271 0.64911 0.0
O598 O 0.61734 0.7506 0.65276 0.0
O599 O 0.62976 0.81581 0.62788 0.0
O600 O 0.6039 0.81284 0.60732 0.0
C601 C 0.62304 0.8282 0.61715 0.0
O602 O 0.59878 0.72559 0.60166 0.0
O603 O 0.62164 0.76823 0.60049 0.0
O604 O 0.56221 0.69046 0.64685 0.0
O605 O 0.55691 0.71784 0.63131 0.0
H606 H 0.49786 0.68391 0.64248 0.0
H607 H 0.46877 0.62081 0.60592 0.0
H608 H 0.5472 0.66365 0.61589 0.0
O609 O 0.77069 0.52925 0.61407 0.0
Tb610 Tb 0.80038 0.56308 0.62596 0.0
Eu611 Eu 0.86968 0.56095 0.63883 0.0
C612 C 0.75786 0.51045 0.62537 0.0
O613 O 0.76468 0.51254 0.64298 0.0
C614 C 0.83315 0.56822 0.66021 0.0
O615 O 0.90725 0.59556 0.63865 0.0
C616 C 0.87134 0.52063 0.6438 0.0
C617 C 0.92094 0.6042 0.62353 0.0
O618 O 0.91235 0.59277 0.6075 0.0
C619 C 0.84781 0.57488 0.60294 0.0
C620 C 0.86838 0.50004 0.63175 0.0
C621 C 0.85257 0.47531 0.6372 0.0
C622 C 0.8507 0.4557 0.62623 0.0
C623 C 0.86522 0.4611 0.61002 0.0
C624 C 0.88163 0.48567 0.6047 0.0
C625 C 0.88243 0.50499 0.61528 0.0
O626 O 0.82276 0.55593 0.6449 0.0
O627 O 0.85531 0.57202 0.66355 0.0
O628 O 0.7788 0.5725 0.64493 0.0
O629 O 0.79808 0.59664 0.62233 0.0
C630 C 0.78353 0.59289 0.6365 0.0
O631 O 0.84733 0.55651 0.61244 0.0
O632 O 0.82977 0.58003 0.60514 0.0
O633 O 0.89108 0.54236 0.64075 0.0
O634 O 0.85132 0.52199 0.6471 0.0
H635 H 0.84201 0.47135 0.65005 0.0
H636 H 0.86511 0.44604 0.60236 0.0
H637 H 0.89487 0.52397 0.61107 0.0
O638 O 0.22927 0.75661 0.62648 0.0
Tb639 Tb 0.22613 0.78954 0.62426 0.0
Eu640 Eu 0.29588 0.86941 0.62037 0.0
C641 C 0.21818 0.74047 0.63997 0.0
O642 O 0.20523 0.74459 0.65248 0.0
C643 C 0.26008 0.83556 0.65007 0.0
O644 O 0.31211 0.91063 0.61838 0.0
C645 C 0.32646 0.8535 0.61382 0.0
C646 C 0.29849 0.91987 0.61237 0.0
O647 O 0.27594 0.9048 0.60632 0.0
C648 C 0.25491 0.82859 0.59386 0.0
C649 C 0.35235 0.86091 0.60966 0.0
C650 C 0.35883 0.84238 0.6084 0.0
C651 C 0.38314 0.84846 0.6039 0.0
C652 C 0.40091 0.87335 0.60078 0.0
C653 C 0.39481 0.89216 0.60205 0.0
C654 C 0.37036 0.88582 0.60658 0.0
O655 O 0.25842 0.82114 0.63617 0.0
O656 O 0.27787 0.85869 0.64881 0.0
O657 O 0.19477 0.78437 0.64156 0.0
O658 O 0.19082 0.78091 0.61195 0.0
C659 C 0.17947 0.77936 0.62759 0.0
O660 O 0.25828 0.84412 0.6075 0.0
O661 O 0.23979 0.80464 0.59649 0.0
O662 O 0.3215 0.85803 0.63078 0.0
O663 O 0.31409 0.85733 0.60059 0.0
H664 H 0.34486 0.82319 0.61076 0.0
H665 H 0.41993 0.87823 0.59806 0.0
H666 H 0.36531 0.90008 0.60756 0.0
O667 O 0.45616 0.23877 0.63556 0.0
Tb668 Tb 0.41807 0.22787 0.62885 0.0
Eu669 Eu 0.41422 0.29927 0.62002 0.0
C670 C 0.4615 0.22708 0.64842 0.0
O671 O 0.44355 0.20837 0.65746 0.0
C672 C 0.40816 0.2659 0.65245 0.0
O673 O 0.37408 0.2843 0.61268 0.0
C674 C 0.43941 0.34648 0.61376 0.0
C675 C 0.35638 0.27426 0.62529 0.0
O676 O 0.36168 0.27013 0.64219 0.0
C677 C 0.42447 0.26218 0.59643 0.0
C678 C 0.46295 0.36644 0.60638 0.0
C679 C 0.48439 0.36443 0.60535 0.0
C680 C 0.50629 0.38402 0.59783 0.0
C681 C 0.50665 0.40564 0.59179 0.0
C682 C 0.48544 0.40796 0.59299 0.0
C683 C 0.46353 0.388 0.60007 0.0
O684 O 0.40548 0.25346 0.63692 0.0
O685 O 0.4099 0.28762 0.65029 0.0
O686 O 0.39435 0.19406 0.64486 0.0
O687 O 0.3966 0.19206 0.61524 0.0
C688 C 0.3868 0.17938 0.63039 0.0
O689 O 0.433 0.27848 0.61003 0.0
O690 O 0.42014 0.23964 0.59995 0.0
O691 O 0.42425 0.33039 0.60145 0.0
O692 O 0.43976 0.33656 0.62992 0.0
H693 H 0.48402 0.34779 0.61024 0.0
H694 H 0.52394 0.42115 0.58693 0.0
H695 H 0.44678 0.38919 0.60077 0.0
C696 C 0.34369 0.04259 0.1574 0.0
C697 C 0.35166 0.05798 0.14156 0.0
C698 C 0.32084 0.0207 0.15741 0.0
C699 C 0.27888 0.9746 0.12402 0.0
H700 H 0.23924 0.9438 0.16824 0.0
C701 C 0.20747 0.87248 0.12205 0.0
C702 C 0.20989 0.85896 0.13676 0.0
C703 C 0.21748 0.89801 0.12362 0.0
C704 C 0.25008 0.95219 0.15576 0.0
H705 H 0.34117 0.06343 0.11379 0.0
H706 H 0.30109 0.02527 0.11388 0.0
H707 H 0.27103 0.98765 0.16896 0.0
H708 H 0.22261 0.86085 0.16522 0.0
H709 H 0.2409 0.90569 0.16783 0.0
H710 H 0.25901 0.9392 0.11104 0.0
C711 C 0.31275 0.02991 0.12617 0.0
C712 C 0.26827 0.97728 0.15617 0.0
C713 C 0.33568 0.05179 0.12613 0.0
C714 C 0.22057 0.87096 0.15368 0.0
C715 C 0.23094 0.89663 0.15517 0.0
C716 C 0.26078 0.94964 0.12361 0.0
C717 C 0.3054 0.01376 0.1416 0.0
C718 C 0.28334 0.98856 0.14044 0.0
C719 C 0.2305 0.91057 0.13982 0.0
C720 C 0.24659 0.93794 0.13962 0.0
H721 H 0.35551 0.04691 0.16957 0.0
H722 H 0.31592 0.00859 0.16945 0.0
H723 H 0.2904 0.98252 0.11176 0.0
H724 H 0.199 0.86352 0.10894 0.0
H725 H 0.21625 0.90812 0.11173 0.0
C726 C 0.26443 0.31332 0.14095 0.0
C727 C 0.28217 0.33871 0.14114 0.0
C728 C 0.27179 0.2955 0.14159 0.0
C729 C 0.32488 0.28694 0.15369 0.0
H730 H 0.29336 0.23091 0.11989 0.0
C731 C 0.35624 0.21442 0.15024 0.0
C732 C 0.36026 0.2086 0.13209 0.0
C733 C 0.34314 0.22698 0.15301 0.0
C734 C 0.30233 0.24643 0.12942 0.0
H735 H 0.32154 0.36526 0.14236 0.0
H736 H 0.33435 0.33424 0.14328 0.0
H737 H 0.27835 0.26025 0.12155 0.0
H738 H 0.35279 0.21017 0.10268 0.0
H739 H 0.33011 0.23216 0.10743 0.0
H740 H 0.34951 0.27374 0.161 0.0
C741 C 0.31473 0.32806 0.14288 0.0
C742 C 0.29358 0.26313 0.13051 0.0
C743 C 0.30739 0.34587 0.14222 0.0
C744 C 0.34991 0.2144 0.11683 0.0
C745 C 0.33681 0.22691 0.11958 0.0
C746 C 0.33362 0.27025 0.15261 0.0
C747 C 0.29703 0.30266 0.14248 0.0
C748 C 0.30503 0.28382 0.14242 0.0
C749 C 0.3338 0.23391 0.13766 0.0
C750 C 0.32272 0.25002 0.14023 0.0
H751 H 0.24484 0.30717 0.14019 0.0
H752 H 0.25768 0.27609 0.14147 0.0
H753 H 0.3339 0.30249 0.1632 0.0
H754 H 0.36401 0.21012 0.16225 0.0
H755 H 0.34083 0.23177 0.16713 0.0
C756 C 0.97496 0.30615 0.10213 0.0
C757 C 0.96215 0.29175 0.11777 0.0
C758 C 1.00012 0.31432 0.09971 0.0
C759 C 0.05269 0.30668 0.11382 0.0
H760 H 0.09025 0.37822 0.10959 0.0
C761 C 0.15915 0.36435 0.12616 0.0
C762 C 0.17244 0.38707 0.11678 0.0
C763 C 0.13333 0.35014 0.12426 0.0
C764 C 0.08022 0.35819 0.11032 0.0
H765 H 0.96526 0.27296 0.14229 0.0
H766 H 0.00926 0.28707 0.13786 0.0
H767 H 0.04541 0.35706 0.10903 0.0
H768 H 0.16976 0.41198 0.09709 0.0
H769 H 0.12523 0.38675 0.09286 0.0
H770 H 0.0876 0.3078 0.11492 0.0
C771 C 0.99979 0.29213 0.12759 0.0
C772 C 0.05441 0.34607 0.11009 0.0
C773 C 0.97463 0.28416 0.13015 0.0
C774 C 0.15984 0.39466 0.10467 0.0
C775 C 0.13424 0.38026 0.10241 0.0
C776 C 0.07865 0.31881 0.11374 0.0
C777 C 0.01296 0.30803 0.11272 0.0
C778 C 0.04036 0.32024 0.11191 0.0
C779 C 0.12045 0.35822 0.11266 0.0
C780 C 0.09279 0.34479 0.11206 0.0
H781 H 0.96592 0.31223 0.09225 0.0
H782 H 0.0098 0.32634 0.088 0.0
H783 H 0.04224 0.28671 0.11525 0.0
H784 H 0.16852 0.35819 0.13566 0.0
H785 H 0.12344 0.33341 0.1325 0.0
C786 C 0.77246 0.15394 0.16046 0.0
C787 C 0.7907 0.16461 0.14655 0.0
C788 C 0.75992 0.12832 0.16338 0.0
C789 C 0.7605 0.07025 0.15192 0.0
H790 H 0.68914 0.04044 0.15533 0.0
C791 C 0.69268 0.96705 0.13518 0.0
C792 C 0.67111 0.95444 0.14607 0.0
C793 C 0.70869 0.99251 0.13754 0.0
C794 C 0.70905 0.04841 0.15469 0.0
H795 H 0.81117 0.15723 0.1255 0.0
H796 H 0.78919 0.11259 0.1304 0.0
H797 H 0.7151 0.08526 0.15619 0.0
H798 H 0.64982 0.95858 0.16836 0.0
H799 H 0.67781 0.00282 0.17256 0.0
H800 H 0.7543 0.03328 0.14997 0.0
C801 C 0.78462 0.12386 0.13921 0.0
C802 C 0.72398 0.07417 0.15523 0.0
C803 C 0.79716 0.14946 0.13632 0.0
C804 C 0.66618 0.96774 0.15964 0.0
C805 C 0.68218 0.99315 0.16199 0.0
C806 C 0.74555 0.04445 0.15136 0.0
C807 C 0.76538 0.11289 0.15242 0.0
C808 C 0.74987 0.08544 0.15363 0.0
C809 C 0.70349 0.00591 0.15084 0.0
C810 C 0.71962 0.03324 0.15253 0.0
H811 H 0.76727 0.16527 0.16863 0.0
H812 H 0.74552 0.12051 0.17392 0.0
H813 H 0.7804 0.07831 0.15089 0.0
H814 H 0.69702 0.95737 0.1246 0.0
H815 H 0.72479 0.0018 0.12856 0.0
C816 C 0.7031 0.67272 0.09811 0.0
C817 C 0.69314 0.65301 0.11098 0.0
C818 C 0.69565 0.69051 0.09837 0.0
C819 C 0.67113 0.71941 0.12959 0.0
H820 H 0.64664 0.73533 0.08488 0.0
C821 C 0.64071 0.79323 0.1291 0.0
C822 C 0.61637 0.78385 0.12261 0.0
C823 C 0.65307 0.77995 0.12612 0.0
C824 C 0.65364 0.7312 0.09743 0.0
H825 H 0.66753 0.63648 0.13414 0.0
H826 H 0.65493 0.66774 0.13476 0.0
H827 H 0.66224 0.70626 0.08298 0.0
H828 H 0.58626 0.75403 0.10724 0.0
H829 H 0.60803 0.73121 0.10166 0.0
H830 H 0.66228 0.74405 0.1441 0.0
C831 C 0.66841 0.66937 0.12447 0.0
C832 C 0.66262 0.71467 0.09633 0.0
C833 C 0.67551 0.65138 0.12401 0.0
C834 C 0.60503 0.76164 0.1124 0.0
C835 C 0.61752 0.74865 0.10913 0.0
C836 C 0.66255 0.73623 0.13063 0.0
C837 C 0.67848 0.68915 0.11172 0.0
C838 C 0.67096 0.70824 0.11248 0.0
C839 C 0.64145 0.75738 0.11629 0.0
C840 C 0.65329 0.74193 0.11463 0.0
H841 H 0.7167 0.67445 0.08789 0.0
H842 H 0.70369 0.70561 0.0884 0.0
H843 H 0.67765 0.71489 0.14222 0.0
H844 H 0.6498 0.81028 0.13706 0.0
H845 H 0.67156 0.78711 0.13173 0.0
C846 C 0.03021 0.68156 0.14755 0.0
C847 C 0.04364 0.69083 0.13085 0.0
C848 C 0.00533 0.67511 0.14853 0.0
C849 C 0.9506 0.65691 0.11918 0.0
H850 H 0.925 0.67311 0.16314 0.0
C851 C 0.84924 0.63176 0.12222 0.0
C852 C 0.83646 0.61986 0.1386 0.0
C853 C 0.87505 0.6443 0.12179 0.0
C854 C 0.93186 0.66835 0.15082 0.0
H855 H 0.04149 0.70055 0.10206 0.0
H856 H 0.99795 0.68925 0.10377 0.0
H857 H 0.96917 0.68684 0.16106 0.0
H858 H 0.84037 0.61292 0.16773 0.0
H859 H 0.88569 0.63453 0.16696 0.0
H860 H 0.9134 0.63801 0.10906 0.0
C861 C 0.00668 0.68685 0.11608 0.0
C862 C 0.95712 0.67618 0.14963 0.0
C863 C 0.03162 0.69337 0.11511 0.0
C864 C 0.84988 0.62203 0.15494 0.0
C865 C 0.8758 0.63443 0.15447 0.0
C866 C 0.9254 0.64906 0.12038 0.0
C867 C 0.9933 0.67773 0.13283 0.0
C868 C 0.96672 0.6704 0.13383 0.0
C869 C 0.88861 0.64494 0.13769 0.0
C870 C 0.91569 0.65459 0.13623 0.0
H871 H 0.03891 0.67935 0.15995 0.0
H872 H 0.99543 0.66776 0.16154 0.0
H873 H 0.95733 0.65179 0.10697 0.0
H874 H 0.83927 0.63054 0.10948 0.0
H875 H 0.88437 0.65275 0.10878 0.0
C876 C 0.158 0.79734 0.37215 0.0
C877 C 0.17045 0.78385 0.37086 0.0
C878 C 0.13199 0.78499 0.37269 0.0
C879 C 0.0771 0.72287 0.38203 0.0
H880 H 0.04115 0.74765 0.35352 0.0
C881 C 0.97294 0.66214 0.36622 0.0
C882 C 0.95795 0.67296 0.36805 0.0
C883 C 0.99876 0.67669 0.36708 0.0
C884 C 0.05092 0.74063 0.36171 0.0
H885 H 0.16556 0.74697 0.36903 0.0
H886 H 0.1206 0.72558 0.36971 0.0
H887 H 0.08641 0.77143 0.3545 0.0
H888 H 0.95848 0.70772 0.37194 0.0
H889 H 0.00362 0.73314 0.37336 0.0
H890 H 0.04172 0.69191 0.38899 0.0
C891 C 0.13066 0.7456 0.37067 0.0
C892 C 0.07688 0.75429 0.36232 0.0
C893 C 0.1565 0.75789 0.37017 0.0
C894 C 0.96945 0.69877 0.37048 0.0
C895 C 0.99534 0.71337 0.37122 0.0
C896 C 0.05124 0.7092 0.38135 0.0
C897 C 0.11799 0.75892 0.37197 0.0
C898 C 0.09033 0.74542 0.3723 0.0
C899 C 0.0103 0.70247 0.36969 0.0
C900 C 0.03781 0.71773 0.371 0.0
H901 H 0.16832 0.81739 0.37268 0.0
H902 H 0.12288 0.79584 0.37384 0.0
H903 H 0.08676 0.7157 0.39021 0.0
H904 H 0.96475 0.64234 0.3643 0.0
H905 H 0.00973 0.66773 0.36557 0.0
C906 C 0.40601 0.15778 0.37637 0.0
C907 C 0.39347 0.1709 0.37322 0.0
C908 C 0.39346 0.13196 0.37542 0.0
C909 C 0.33146 0.07586 0.37694 0.0
H910 H 0.36518 0.04613 0.35157 0.0
C911 C 0.28411 0.97043 0.36104 0.0
C912 C 0.29862 0.9591 0.3632 0.0
C913 C 0.29486 0.9962 0.36232 0.0
C914 C 0.35559 0.05407 0.3589 0.0
H915 H 0.35783 0.16733 0.36701 0.0
H916 H 0.3357 0.12191 0.36528 0.0
H917 H 0.38503 0.09098 0.35384 0.0
H918 H 0.33579 0.96605 0.3687 0.0
H919 H 0.35442 0.01081 0.37115 0.0
H920 H 0.30203 0.03881 0.38207 0.0
C921 C 0.35528 0.13167 0.36859 0.0
C922 C 0.36698 0.07983 0.36019 0.0
C923 C 0.36792 0.15764 0.36952 0.0
C924 C 0.32407 0.97413 0.36684 0.0
C925 C 0.3348 0.99986 0.36814 0.0
C926 C 0.32004 0.05 0.37569 0.0
C927 C 0.36801 0.11855 0.37127 0.0
C928 C 0.3552 0.09108 0.36937 0.0
C929 C 0.32038 0.01127 0.3658 0.0
C930 C 0.33207 0.03877 0.36678 0.0
H931 H 0.42569 0.16749 0.37936 0.0
H932 H 0.40376 0.12248 0.37793 0.0
H933 H 0.32196 0.08391 0.38425 0.0
H934 H 0.26445 0.95941 0.3582 0.0
H935 H 0.28324 0.00434 0.36025 0.0
C936 C 0.21902 0.36713 0.36804 0.0
C937 C 0.22453 0.38813 0.3573 0.0
C938 C 0.23251 0.35495 0.36571 0.0
C939 C 0.29391 0.3672 0.35134 0.0
H940 H 0.2641 0.29583 0.35437 0.0
C941 C 0.35309 0.31935 0.34931 0.0
C942 C 0.34611 0.2992 0.36148 0.0
C943 C 0.33766 0.32942 0.34666 0.0
C944 C 0.27276 0.31581 0.35368 0.0
H945 H 0.24775 0.41229 0.33516 0.0
H946 H 0.27154 0.39101 0.33109 0.0
H947 H 0.23767 0.3143 0.35289 0.0
H948 H 0.31739 0.27387 0.38041 0.0
H949 H 0.29081 0.29171 0.37613 0.0
H950 H 0.32899 0.36885 0.35274 0.0
C951 C 0.25684 0.38408 0.3414 0.0
C952 C 0.25759 0.32637 0.35274 0.0
C953 C 0.24314 0.39615 0.34363 0.0
C954 C 0.32331 0.28931 0.37087 0.0
C955 C 0.30795 0.29946 0.3683 0.0
C956 C 0.3091 0.35665 0.3524 0.0
C957 C 0.25196 0.3636 0.35267 0.0
C958 C 0.26798 0.35221 0.35181 0.0
C959 C 0.31491 0.31967 0.35617 0.0
C960 C 0.29874 0.33082 0.35384 0.0
H961 H 0.20477 0.36057 0.3787 0.0
H962 H 0.2284 0.33939 0.37472 0.0
H963 H 0.30251 0.38719 0.3509 0.0
H964 H 0.37048 0.32734 0.34178 0.0
H965 H 0.34351 0.34475 0.33702 0.0
C966 C 0.03188 0.32579 0.3603 0.0
C967 C 0.0448 0.34526 0.37309 0.0
C968 C 0.00687 0.3083 0.36321 0.0
C969 C 0.95191 0.30431 0.38381 0.0
H970 H 0.92172 0.23329 0.3773 0.0
C971 C 0.84673 0.24225 0.39132 0.0
C972 C 0.83459 0.22215 0.37904 0.0
C973 C 0.87252 0.25484 0.39294 0.0
C974 C 0.92976 0.2531 0.37896 0.0
H975 H 0.04183 0.36095 0.39938 0.0
H976 H 0.9981 0.33068 0.40424 0.0
H977 H 0.96679 0.25951 0.37562 0.0
H978 H 0.83968 0.19892 0.35916 0.0
H979 H 0.88486 0.22153 0.36125 0.0
H980 H 0.91532 0.29852 0.38614 0.0
C981 C 0.00737 0.32896 0.392 0.0
C982 C 0.95562 0.26808 0.3781 0.0
C983 C 0.03245 0.34621 0.38925 0.0
C984 C 0.84863 0.21428 0.36884 0.0
C985 C 0.87456 0.22725 0.37013 0.0
C986 C 0.92615 0.28948 0.38435 0.0
C987 C 0.99419 0.31014 0.37882 0.0
C988 C 0.96693 0.29384 0.38053 0.0
C989 C 0.88693 0.24809 0.38191 0.0
C990 C 0.91461 0.26362 0.38194 0.0
H991 H 0.04087 0.32449 0.34774 0.0
H992 H 0.99715 0.29406 0.35278 0.0
H993 H 0.96008 0.32416 0.38538 0.0
H994 H 0.83628 0.24855 0.39947 0.0
H995 H 0.88114 0.27021 0.40263 0.0
C996 C 0.60709 0.85354 0.34924 0.0
C997 C 0.61715 0.84343 0.36163 0.0
C998 C 0.61908 0.87915 0.34621 0.0
C999 C 0.67875 0.93786 0.3527 0.0
H1000 H 0.63685 0.96729 0.35587 0.0
C1001 C 0.71842 0.04227 0.3666 0.0
C1002 C 0.70734 0.05435 0.35761 0.0
C1003 C 0.70798 0.01657 0.36523 0.0
C1004 C 0.64884 0.95942 0.35464 0.0
H1005 H 0.64816 0.85189 0.37987 0.0
H1006 H 0.6691 0.89651 0.37461 0.0
H1007 H 0.61812 0.9224 0.3559 0.0
H1008 H 0.67674 0.04884 0.3399 0.0
H1009 H 0.65873 0.0041 0.3373 0.0
H1010 H 0.70949 0.97489 0.35163 0.0
C1011 C 0.65203 0.88477 0.36715 0.0
C1012 C 0.63806 0.93363 0.35465 0.0
C1013 C 0.64 0.8592 0.37022 0.0
C1014 C 0.68569 0.04013 0.34708 0.0
C1015 C 0.67529 0.01443 0.34566 0.0
C1016 C 0.68953 0.96366 0.35262 0.0
C1017 C 0.64144 0.89513 0.35545 0.0
C1018 C 0.65289 0.92252 0.3539 0.0
C1019 C 0.68623 0.00228 0.35479 0.0
C1020 C 0.67473 0.9748 0.35383 0.0
H1021 H 0.58953 0.84177 0.34237 0.0
H1022 H 0.61062 0.8865 0.33689 0.0
H1023 H 0.69069 0.9299 0.35185 0.0
H1024 H 0.73506 0.05263 0.37488 0.0
H1025 H 0.71672 0.00786 0.37269 0.0
C1026 C 0.68109 0.71654 0.36954 0.0
C1027 C 0.66205 0.70978 0.38275 0.0
C1028 C 0.69907 0.70959 0.372 0.0
C1029 C 0.70497 0.65959 0.39236 0.0
H1030 H 0.77559 0.70128 0.38415 0.0
C1031 C 0.76902 0.61877 0.39941 0.0
C1032 C 0.78876 0.62666 0.38679 0.0
C1033 C 0.75595 0.63148 0.4009 0.0
C1034 C 0.75589 0.68928 0.38627 0.0
H1035 H 0.64769 0.69144 0.40937 0.0
H1036 H 0.67883 0.67898 0.41347 0.0
H1037 H 0.74868 0.71937 0.38307 0.0
H1038 H 0.81083 0.65434 0.36612 0.0
H1039 H 0.78734 0.67606 0.36802 0.0
H1040 H 0.71153 0.62928 0.3946 0.0
C1041 C 0.67982 0.68967 0.40122 0.0
C1042 C 0.74052 0.69972 0.38576 0.0
C1043 C 0.66207 0.69693 0.39891 0.0
C1044 C 0.79574 0.64799 0.37605 0.0
C1045 C 0.78228 0.66046 0.37723 0.0
C1046 C 0.72018 0.64909 0.39255 0.0
C1047 C 0.69817 0.69545 0.38759 0.0
C1048 C 0.71491 0.68496 0.38885 0.0
C1049 C 0.76185 0.65207 0.38943 0.0
C1050 C 0.7459 0.66374 0.38957 0.0
H1051 H 0.68166 0.72651 0.35697 0.0
H1052 H 0.71294 0.71421 0.36124 0.0
H1053 H 0.68522 0.64766 0.3944 0.0
H1054 H 0.76342 0.6025 0.408 0.0
H1055 H 0.74093 0.62484 0.4109 0.0
C1056 C 0.7881 0.15477 0.86792 0.0
C1057 C 0.77717 0.16953 0.87043 0.0
C1058 C 0.77339 0.12888 0.86732 0.0
C1059 C 0.70869 0.0786 0.85909 0.0
H1060 H 0.72988 0.03747 0.88455 0.0
C1061 C 0.64341 0.97321 0.86931 0.0
C1062 C 0.65368 0.95777 0.86716 0.0
C1063 C 0.65865 0.99901 0.86955 0.0
C1064 C 0.72379 0.04865 0.87718 0.0
H1065 H 0.74239 0.1689 0.87435 0.0
H1066 H 0.71681 0.12393 0.8735 0.0
H1067 H 0.75635 0.08241 0.88504 0.0
H1068 H 0.68807 0.95744 0.86351 0.0
H1069 H 0.71451 0.0023 0.86374 0.0
H1070 H 0.67613 0.04489 0.85123 0.0
C1071 C 0.73665 0.1322 0.87173 0.0
C1072 C 0.73901 0.07445 0.87745 0.0
C1073 C 0.75133 0.15799 0.87235 0.0
C1074 C 0.67952 0.96875 0.86526 0.0
C1075 C 0.69473 0.99452 0.86551 0.0
C1076 C 0.69349 0.05282 0.8588 0.0
C1077 C 0.74744 0.11728 0.86916 0.0
C1078 C 0.7316 0.08977 0.86848 0.0
C1079 C 0.68452 0.01001 0.86766 0.0
C1080 C 0.70079 0.0375 0.8679 0.0
H1081 H 0.80798 0.16321 0.86634 0.0
H1082 H 0.7823 0.11798 0.86513 0.0
H1083 H 0.70257 0.08978 0.85175 0.0
H1084 H 0.6236 0.96538 0.87086 0.0
H1085 H 0.65015 0.01034 0.87148 0.0
C1086 C 0.63418 0.79187 0.87674 0.0
C1087 C 0.60857 0.7795 0.8802 0.0
C1088 C 0.64683 0.77856 0.87564 0.0
C1089 C 0.63518 0.71513 0.86641 0.0
H1090 H 0.70047 0.73923 0.88773 0.0
C1091 C 0.67922 0.65312 0.87135 0.0
C1092 C 0.70461 0.66386 0.86733 0.0
C1093 C 0.66824 0.66784 0.87312 0.0
C1094 C 0.68235 0.73236 0.88152 0.0
H1095 H 0.57625 0.74373 0.88577 0.0
H1096 H 0.59821 0.72068 0.88414 0.0
H1097 H 0.68025 0.76405 0.89062 0.0
H1098 H 0.7384 0.69864 0.86215 0.0
H1099 H 0.71917 0.7243 0.86507 0.0
H1100 H 0.63717 0.68352 0.85728 0.0
C1101 C 0.60855 0.74052 0.88192 0.0
C1102 C 0.67076 0.7466 0.88318 0.0
C1103 C 0.59599 0.75376 0.883 0.0
C1104 C 0.7188 0.68974 0.86528 0.0
C1105 C 0.70779 0.70449 0.86706 0.0
C1106 C 0.64673 0.70094 0.86475 0.0
C1107 C 0.63406 0.75264 0.87794 0.0
C1108 C 0.64692 0.73805 0.87578 0.0
C1109 C 0.68233 0.69371 0.87091 0.0
C1110 C 0.67038 0.70925 0.8724 0.0
H1111 H 0.64431 0.81169 0.87444 0.0
H1112 H 0.66644 0.78847 0.87244 0.0
H1113 H 0.61705 0.7082 0.86018 0.0
H1114 H 0.66775 0.63327 0.87312 0.0
H1115 H 0.64867 0.65893 0.87639 0.0
C1116 C 0.02894 0.67564 0.8594 0.0
C1117 C 0.04447 0.70126 0.862 0.0
C1118 C 0.00312 0.66508 0.85954 0.0
C1119 C 0.95287 0.6767 0.87495 0.0
H1120 H 0.91341 0.62474 0.83943 0.0
C1121 C 0.84659 0.63645 0.86608 0.0
C1122 C 0.83226 0.61067 0.86377 0.0
C1123 C 0.87257 0.64829 0.86571 0.0
C1124 C 0.92411 0.63907 0.84957 0.0
H1125 H 0.04491 0.73584 0.8668 0.0
H1126 H 1.00003 0.7175 0.86685 0.0
H1127 H 0.95832 0.64348 0.83927 0.0
H1128 H 0.83379 0.57707 0.8594 0.0
H1129 H 0.87878 0.59752 0.85892 0.0
H1130 H 0.91855 0.6722 0.88526 0.0
C1131 C 0.00775 0.70548 0.86494 0.0
C1132 C 0.94991 0.64981 0.8495 0.0
C1133 C 0.03354 0.71603 0.8648 0.0
C1134 C 0.84433 0.59699 0.86114 0.0
C1135 C 0.87017 0.60876 0.86074 0.0
C1136 C 0.92702 0.66596 0.87502 0.0
C1137 C 0.99217 0.67987 0.86228 0.0
C1138 C 0.96465 0.66867 0.86225 0.0
C1139 C 0.88468 0.63457 0.86295 0.0
C1140 C 0.91228 0.64686 0.86242 0.0
H1141 H 0.03671 0.6637 0.85728 0.0
H1142 H 0.99172 0.64525 0.8577 0.0
H1143 H 0.96358 0.69097 0.88512 0.0
H1144 H 0.83774 0.64745 0.8681 0.0
H1145 H 0.88316 0.66822 0.86732 0.0
C1146 C 0.35038 0.03308 0.85299 0.0
C1147 C 0.34953 0.04733 0.86792 0.0
C1148 C 0.33457 0.00729 0.85267 0.0
C1149 C 0.29962 0.95399 0.88375 0.0
H1150 H 0.262 0.91982 0.8395 0.0
C1151 C 0.25064 0.84759 0.87501 0.0
C1152 C 0.22608 0.83553 0.86848 0.0
C1153 C 0.26486 0.87346 0.87507 0.0
C1154 C 0.2723 0.92914 0.85198 0.0
H1155 H 0.33141 0.04549 0.89428 0.0
H1156 H 0.30434 1.00066 0.89386 0.0
H1157 H 0.28885 0.965 0.83901 0.0
H1158 H 0.19717 0.84106 0.85678 0.0
H1159 H 0.22232 0.88652 0.85653 0.0
H1160 H 0.28344 0.9182 0.89665 0.0
C1161 C 0.31711 0.00942 0.88235 0.0
C1162 C 0.28783 0.95496 0.85165 0.0
C1163 C 0.33258 0.03516 0.88253 0.0
C1164 C 0.21601 0.84989 0.86197 0.0
C1165 C 0.23044 0.87586 0.86173 0.0
C1166 C 0.28445 0.9282 0.88399 0.0
C1167 C 0.31789 0.99515 0.86744 0.0
C1168 C 0.30161 0.96768 0.86756 0.0
C1169 C 0.25503 0.88792 0.86832 0.0
C1170 C 0.27058 0.91545 0.86812 0.0
H1171 H 0.36317 0.04186 0.84151 0.0
H1172 H 0.33572 0.99677 0.84104 0.0
H1173 H 0.3101 0.96322 0.8962 0.0
H1174 H 0.25893 0.83701 0.88006 0.0
H1175 H 0.28378 0.88216 0.88009 0.0
C1176 C 0.31898 0.34492 0.8559 0.0
C1177 C 0.30422 0.34516 0.87069 0.0
C1178 C 0.3288 0.32899 0.85631 0.0
C1179 C 0.34574 0.29406 0.8892 0.0
H1180 H 0.347 0.25888 0.84487 0.0
C1181 C 0.40541 0.24714 0.88411 0.0
C1182 C 0.39513 0.22383 0.87545 0.0
C1183 C 0.39294 0.26057 0.88389 0.0
C1184 C 0.34661 0.26842 0.85741 0.0
H1185 H 0.28816 0.32858 0.8975 0.0
H1186 H 0.30531 0.30102 0.89823 0.0
H1187 H 0.32796 0.28496 0.84347 0.0
H1188 H 0.36361 0.19623 0.85981 0.0
H1189 H 0.34173 0.21984 0.85932 0.0
H1190 H 0.36446 0.27767 0.90314 0.0
C1191 C 0.30943 0.31323 0.88634 0.0
C1192 C 0.33593 0.28358 0.85656 0.0
C1193 C 0.29947 0.32899 0.88586 0.0
C1194 C 0.37192 0.2141 0.86669 0.0
C1195 C 0.35951 0.2277 0.86628 0.0
C1196 C 0.3566 0.27911 0.89001 0.0
C1197 C 0.3243 0.31305 0.87161 0.0
C1198 C 0.3354 0.29665 0.87244 0.0
C1199 C 0.36993 0.25117 0.87484 0.0
C1200 C 0.35728 0.26616 0.87411 0.0
H1201 H 0.32303 0.3571 0.84399 0.0
H1202 H 0.34036 0.32952 0.84481 0.0
H1203 H 0.34587 0.30399 0.90167 0.0
H1204 H 0.42333 0.25519 0.8909 0.0
H1205 H 0.40167 0.27866 0.89043 0.0
C1206 C 0.9784 0.33819 0.86123 0.0
C1207 C 0.96277 0.3125 0.86328 0.0
C1208 C 0.00423 0.34862 0.86131 0.0
C1209 C 0.05367 0.33263 0.85435 0.0
H1210 H 0.09468 0.39424 0.8807 0.0
C1211 C 0.15976 0.37358 0.86444 0.0
C1212 C 0.17462 0.39934 0.86239 0.0
C1213 C 0.13383 0.36245 0.86492 0.0
C1214 C 0.08354 0.37714 0.8731 0.0
H1215 H 0.96215 0.27765 0.86706 0.0
H1216 H 0.00693 0.29577 0.86733 0.0
H1217 H 0.04984 0.37635 0.88043 0.0
H1218 H 0.17407 0.43363 0.85912 0.0
H1219 H 0.1292 0.41437 0.85973 0.0
H1220 H 0.08741 0.3335 0.84695 0.0
C1221 C 0.99932 0.30789 0.86543 0.0
C1222 C 0.05779 0.3669 0.87294 0.0
C1223 C 0.97358 0.29751 0.86539 0.0
C1224 C 0.16312 0.41372 0.86082 0.0
C1225 C 0.13734 0.40267 0.8613 0.0
C1226 C 0.07945 0.3429 0.85449 0.0
C1227 C 0.01502 0.33357 0.86338 0.0
C1228 C 0.0425 0.34454 0.86351 0.0
C1229 C 0.1223 0.3769 0.86339 0.0
C1230 C 0.09475 0.36537 0.8638 0.0
H1231 H 0.9707 0.35027 0.85954 0.0
H1232 H 0.01574 0.36844 0.8595 0.0
H1233 H 0.04251 0.31554 0.84675 0.0
H1234 H 0.16815 0.36206 0.86569 0.0
H1235 H 0.12284 0.34257 0.86671 0.0
C1236 C 0.86115 0.20695 0.59155 0.0
C1237 C 0.85106 0.1885 0.60532 0.0
C1238 C 0.88668 0.21993 0.58829 0.0
C1239 C 0.94619 0.22174 0.60042 0.0
H1240 H 0.97357 0.2922 0.59255 0.0
C1241 C 0.04459 0.29835 0.62177 0.0
C1242 C 0.05693 0.31916 0.61006 0.0
C1243 C 0.02085 0.27918 0.6172 0.0
C1244 C 0.96624 0.2725 0.5944 0.0
H1245 H 0.8594 0.16848 0.62611 0.0
H1246 H 0.90402 0.19178 0.6211 0.0
H1247 H 0.92903 0.26501 0.59221 0.0
H1248 H 0.0549 0.33516 0.58361 0.0
H1249 H 0.01338 0.30181 0.57581 0.0
H1250 H 0.98376 0.22987 0.60378 0.0
C1251 C 0.89236 0.19589 0.61235 0.0
C1252 C 0.94061 0.2568 0.59415 0.0
C1253 C 0.86676 0.1826 0.61535 0.0
C1254 C 0.04585 0.31949 0.59301 0.0
C1255 C 0.02203 0.30045 0.58855 0.0
C1256 C 0.97189 0.23757 0.60094 0.0
C1257 C 0.90274 0.2151 0.59903 0.0
C1258 C 0.93016 0.23124 0.59743 0.0
C1259 C 0.00896 0.28056 0.60093 0.0
C1260 C 0.98213 0.26315 0.59817 0.0
H1261 H 0.84935 0.21166 0.5835 0.0
H1262 H 0.89383 0.23412 0.57759 0.0
H1263 H 0.9389 0.20213 0.60265 0.0
H1264 H 0.05268 0.29747 0.63495 0.0
H1265 H 0.01118 0.26411 0.62703 0.0
C1266 C 0.65163 0.86941 0.63117 0.0
C1267 C 0.63416 0.85535 0.6174 0.0
C1268 C 0.66111 0.89495 0.63232 0.0
C1269 C 0.64706 0.94383 0.61802 0.0
H1270 H 0.71425 0.98756 0.63514 0.0
C1271 C 0.69109 0.05048 0.62184 0.0
C1272 C 0.70263 0.06131 0.63891 0.0
C1273 C 0.68361 0.02573 0.61801 0.0
C1274 C 0.69542 0.97553 0.63041 0.0
H1275 H 0.61333 0.85689 0.59371 0.0
H1276 H 0.63045 0.9017 0.59529 0.0
H1277 H 0.70008 0.94382 0.62989 0.0
H1278 H 0.71583 0.05483 0.66519 0.0
H1279 H 0.70308 0.01167 0.65837 0.0
H1280 H 0.64265 0.97579 0.61835 0.0
C1281 C 0.63642 0.89297 0.60553 0.0
C1282 C 0.68723 0.95044 0.62746 0.0
C1283 C 0.62673 0.86734 0.60451 0.0
C1284 C 0.70691 0.04699 0.65194 0.0
C1285 C 0.69976 0.02234 0.648 0.0
C1286 C 0.65538 0.969 0.62075 0.0
C1287 C 0.65353 0.90709 0.6196 0.0
C1288 C 0.66281 0.93416 0.62148 0.0
C1289 C 0.68788 0.01142 0.63105 0.0
C1290 C 0.67952 0.98502 0.6272 0.0
H1291 H 0.65755 0.86058 0.64137 0.0
H1292 H 0.67387 0.90502 0.64356 0.0
H1293 H 0.62804 0.93187 0.61372 0.0
H1294 H 0.68752 0.06103 0.6115 0.0
H1295 H 0.67464 0.01781 0.60479 0.0
C1296 C 0.67184 0.70421 0.62146 0.0
C1297 C 0.64871 0.69465 0.63029 0.0
C1298 C 0.68654 0.69345 0.6244 0.0
C1299 C 0.68469 0.63626 0.64082 0.0
H1300 H 0.75589 0.67967 0.64388 0.0
C1301 C 0.75153 0.59859 0.65325 0.0
C1302 C 0.77104 0.60721 0.6403 0.0
C1303 C 0.73729 0.61016 0.65477 0.0
C1304 C 0.73605 0.66732 0.64304 0.0
H1305 H 0.62267 0.66603 0.64893 0.0
H1306 H 0.64855 0.64737 0.6543 0.0
H1307 H 0.72899 0.69743 0.64091 0.0
H1308 H 0.79188 0.63535 0.61952 0.0
H1309 H 0.76728 0.6557 0.62229 0.0
H1310 H 0.6919 0.60615 0.64286 0.0
C1311 C 0.6552 0.66306 0.64492 0.0
C1312 C 0.72061 0.67746 0.64124 0.0
C1313 C 0.64038 0.67377 0.64188 0.0
C1314 C 0.77693 0.62834 0.62963 0.0
C1315 C 0.76288 0.64003 0.63126 0.0
C1316 C 0.70016 0.62611 0.64275 0.0
C1317 C 0.67859 0.67295 0.63636 0.0
C1318 C 0.69477 0.66206 0.63973 0.0
C1319 C 0.74253 0.63071 0.64351 0.0
C1320 C 0.72603 0.64153 0.64354 0.0
H1321 H 0.67873 0.72014 0.6123 0.0
H1322 H 0.70414 0.7012 0.61719 0.0
H1323 H 0.66492 0.62383 0.63952 0.0
H1324 H 0.74666 0.58236 0.6617 0.0
H1325 H 0.72191 0.60277 0.66449 0.0
C1326 C 0.95663 0.63588 0.64249 0.0
C1327 C 0.94632 0.62592 0.6249 0.0
C1328 C 0.98096 0.65558 0.64399 0.0
C1329 C 0.03172 0.70641 0.61732 0.0
H1330 H 0.07427 0.70029 0.65391 0.0
C1331 C 0.13807 0.76232 0.61264 0.0
C1332 C 0.15234 0.76854 0.62904 0.0
C1333 C 0.11226 0.74833 0.61346 0.0
C1334 C 0.0626 0.70265 0.64388 0.0
H1335 H 0.9534 0.62933 0.59505 0.0
H1336 H 0.99588 0.6638 0.59766 0.0
H1337 H 0.0305 0.66908 0.65261 0.0
H1338 H 0.15082 0.76619 0.65927 0.0
H1339 H 0.10549 0.74207 0.66082 0.0
H1340 H 0.06381 0.73988 0.60847 0.0
C1341 C 0.98506 0.65637 0.6103 0.0
C1342 C 0.03747 0.68464 0.64308 0.0
C1343 C 0.96076 0.63652 0.60881 0.0
C1344 C 0.14024 0.76164 0.6464 0.0
C1345 C 0.1143 0.74762 0.64725 0.0
C1346 C 0.05682 0.72453 0.6182 0.0
C1347 C 0.99553 0.66595 0.62793 0.0
C1348 C 0.02183 0.68608 0.62958 0.0
C1349 C 0.10001 0.74023 0.63074 0.0
C1350 C 0.07272 0.72265 0.63125 0.0
H1351 H 0.94604 0.62823 0.65519 0.0
H1352 H 0.98838 0.6627 0.65775 0.0
H1353 H 0.02006 0.70827 0.60697 0.0
H1354 H 0.1469 0.76734 0.59904 0.0
H1355 H 0.10204 0.74282 0.60043 0.0
C1356 C 0.29698 0.95789 0.60349 0.0
C1357 C 0.30741 0.9466 0.61427 0.0
C1358 C 0.30442 0.98288 0.60611 0.0
C1359 C 0.3537 0.04084 0.62874 0.0
H1360 H 0.306 0.0626 0.62066 0.0
C1361 C 0.37305 0.13938 0.64702 0.0
C1362 C 0.3726 0.15216 0.631 0.0
C1363 C 0.363 0.11368 0.64646 0.0
C1364 C 0.31941 0.05667 0.62304 0.0
H1365 H 0.33362 0.95246 0.63635 0.0
H1366 H 0.34576 0.99557 0.64157 0.0
H1367 H 0.29326 0.01895 0.61668 0.0
H1368 H 0.36023 0.1483 0.60225 0.0
H1369 H 0.34174 0.10321 0.60152 0.0
H1370 H 0.37957 0.07865 0.63563 0.0
C1371 C 0.33251 0.98559 0.63059 0.0
C1372 C 0.31227 0.03173 0.62056 0.0
C1373 C 0.32548 0.96077 0.62766 0.0
C1374 C 0.36074 0.13879 0.61478 0.0
C1375 C 0.35016 0.11307 0.61437 0.0
C1376 C 0.36064 0.06564 0.63162 0.0
C1377 C 0.32205 0.99702 0.61988 0.0
C1378 C 0.3294 0.02349 0.62313 0.0
C1379 C 0.35181 0.10041 0.63002 0.0
C1380 C 0.34364 0.07378 0.62859 0.0
H1381 H 0.28311 0.94742 0.59298 0.0
H1382 H 0.29635 0.99105 0.59724 0.0
H1383 H 0.36762 0.03548 0.63051 0.0
H1384 H 0.38228 0.14937 0.65964 0.0
H1385 H 0.36442 0.10421 0.65869 0.0
C1386 C 0.22897 0.36496 0.60134 0.0
C1387 C 0.22102 0.36935 0.61853 0.0
C1388 C 0.23807 0.34866 0.60019 0.0
C1389 C 0.24301 0.29925 0.62526 0.0
H1390 H 0.30416 0.32525 0.5971 0.0
C1391 C 0.31698 0.27097 0.63672 0.0
C1392 C 0.33258 0.2733 0.62172 0.0
C1393 C 0.2979 0.27629 0.63423 0.0
C1394 C 0.28679 0.31731 0.60465 0.0
H1395 H 0.21544 0.35961 0.6479 0.0
H1396 H 0.23206 0.33139 0.64604 0.0
H1397 H 0.2817 0.34759 0.59724 0.0
H1398 H 0.3385 0.27996 0.59189 0.0
H1399 H 0.30484 0.28865 0.58746 0.0
H1400 H 0.24875 0.2693 0.63314 0.0
C1401 C 0.23089 0.3403 0.63338 0.0
C1402 C 0.27392 0.33022 0.60479 0.0
C1403 C 0.22159 0.35657 0.6345 0.0
C1404 C 0.32708 0.27844 0.6038 0.0
C1405 C 0.30787 0.28355 0.60128 0.0
C1406 C 0.25594 0.28625 0.62511 0.0
C1407 C 0.23964 0.33653 0.61625 0.0
C1408 C 0.25207 0.32155 0.61527 0.0
C1409 C 0.29395 0.28383 0.61666 0.0
C1410 C 0.27817 0.29535 0.615 0.0
H1411 H 0.22842 0.37435 0.58875 0.0
H1412 H 0.24421 0.34581 0.58672 0.0
H1413 H 0.22605 0.29197 0.63329 0.0
H1414 H 0.32061 0.26686 0.6507 0.0
H1415 H 0.28756 0.27634 0.64639 0.0
C1416 C 0.43335 0.13692 0.06996 0.0
C1417 C 0.41548 0.14264 0.07635 0.0
C1418 C 0.43272 0.12933 0.0515 0.0
C1419 C 0.39681 0.10683 0.00834 0.0
H1420 H 0.45427 0.16047 0.98415 0.0
C1421 C 0.39686 0.12864 0.93011 0.0
C1422 C 0.41947 0.14135 0.92056 0.0
C1423 C 0.39646 0.12355 0.94918 0.0
C1424 C 0.43839 0.14484 0.9905 0.0
H1425 H 0.38156 0.14241 0.06924 0.0
H1426 H 0.38019 0.12858 0.03706 0.0
H1427 H 0.45252 0.15795 0.01793 0.0
H1428 H 0.45918 0.15716 0.92279 0.0
H1429 H 0.45853 0.14694 0.95568 0.0
H1430 H 0.38264 0.09351 0.98096 0.0
C1431 C 0.39479 0.13027 0.04625 0.0
C1432 C 0.43741 0.14351 0.00995 0.0
C1433 C 0.39569 0.13835 0.06458 0.0
C1434 C 0.44155 0.14781 0.93004 0.0
C1435 C 0.44112 0.14204 0.94893 0.0
C1436 C 0.39804 0.10776 0.9888 0.0
C1437 C 0.41389 0.12678 0.03936 0.0
C1438 C 0.41637 0.12492 0.01901 0.0
C1439 C 0.41864 0.13044 0.95893 0.0
C1440 C 0.41854 0.12724 0.9796 0.0
H1441 H 0.44878 0.13998 0.07877 0.0
H1442 H 0.44764 0.12673 0.04641 0.0
H1443 H 0.38039 0.09234 0.01512 0.0
H1444 H 0.37959 0.12345 0.92299 0.0
H1445 H 0.37879 0.115 0.95632 0.0
C1446 C 0.2727 0.44114 0.06546 0.0
C1447 C 0.27238 0.42207 0.07615 0.0
C1448 C 0.27312 0.44042 0.04596 0.0
C1449 C 0.28738 0.41248 0.00591 0.0
H1450 H 0.24333 0.42901 0.97933 0.0
C1451 C 0.27118 0.3993 0.92588 0.0
C1452 C 0.26981 0.41817 0.91613 0.0
C1453 C 0.27175 0.39929 0.94544 0.0
C1454 C 0.25594 0.42461 0.98652 0.0
H1455 H 0.27285 0.38754 0.07472 0.0
H1456 H 0.27351 0.38628 0.04058 0.0
H1457 H 0.24442 0.43019 0.01336 0.0
H1458 H 0.2682 0.45197 0.91936 0.0
H1459 H 0.26948 0.45207 0.95332 0.0
H1460 H 0.29897 0.40702 0.979 0.0
C1461 C 0.27357 0.40185 0.04734 0.0
C1462 C 0.25656 0.42528 0.00602 0.0
C1463 C 0.27309 0.40253 0.06689 0.0
C1464 C 0.26913 0.43706 0.92638 0.0
C1465 C 0.26972 0.43706 0.94589 0.0
C1466 C 0.2868 0.41186 0.98635 0.0
C1467 C 0.27324 0.42063 0.03668 0.0
C1468 C 0.2724 0.41939 0.01594 0.0
C1469 C 0.27094 0.41813 0.95566 0.0
C1470 C 0.27119 0.41809 0.97644 0.0
H1471 H 0.27228 0.45653 0.07212 0.0
H1472 H 0.27328 0.45539 0.03814 0.0
H1473 H 0.29993 0.40805 0.01317 0.0
H1474 H 0.27169 0.38443 0.91845 0.0
H1475 H 0.27243 0.3843 0.95256 0.0
C1476 C 0.85358 0.241 0.06583 0.0
C1477 C 0.86285 0.26152 0.07783 0.0
C1478 C 0.86225 0.24368 0.04754 0.0
C1479 C 0.88785 0.29187 0.01166 0.0
H1480 H 0.88197 0.23742 0.98159 0.0
C1481 C 0.8891 0.29302 0.93065 0.0
C1482 C 0.86786 0.27279 0.9229 0.0
C1483 C 0.89469 0.29313 0.94958 0.0
C1484 C 0.88387 0.25284 0.98986 0.0
H1485 H 0.89014 0.30044 0.08073 0.0
H1486 H 0.90583 0.30507 0.04884 0.0
H1487 H 0.88359 0.23531 0.01563 0.0
H1488 H 0.83617 0.23663 0.92877 0.0
H1489 H 0.84615 0.23677 0.96181 0.0
H1490 H 0.8877 0.30913 0.98581 0.0
C1491 C 0.89135 0.28702 0.05341 0.0
C1492 C 0.88474 0.25165 0.00932 0.0
C1493 C 0.88249 0.28435 0.07173 0.0
C1494 C 0.85255 0.25255 0.93437 0.0
C1495 C 0.85839 0.2525 0.9532 0.0
C1496 C 0.88737 0.29321 0.9922 0.0
C1497 C 0.88058 0.26694 0.04088 0.0
C1498 C 0.88564 0.27067 0.02048 0.0
C1499 C 0.87942 0.27283 0.96097 0.0
C1500 C 0.88439 0.27328 0.9812 0.0
H1501 H 0.83856 0.22309 0.07017 0.0
H1502 H 0.85329 0.22782 0.03832 0.0
H1503 H 0.88825 0.30675 0.01975 0.0
H1504 H 0.90123 0.30892 0.92216 0.0
H1505 H 0.91096 0.30904 0.95531 0.0
C1506 C 0.6009 0.87951 0.93696 0.0
C1507 C 0.58218 0.8577 0.92862 0.0
C1508 C 0.60159 0.88256 0.95635 0.0
C1509 C 0.56309 0.85974 -0.00128 0.0
H1510 H 0.62535 0.88032 0.0242 0.0
C1511 C 0.56827 0.84166 0.07677 0.0
C1512 C 0.58829 0.85942 0.08735 0.0
C1513 C 0.56739 0.84453 0.0575 0.0
C1514 C 0.60792 0.87501 0.0173 0.0
H1515 H 0.54931 0.82218 0.9341 0.0
H1516 H 0.55062 0.82754 0.96786 0.0
H1517 H 0.62408 0.87982 0.99012 0.0
H1518 H 0.62278 0.8945 0.0861 0.0
H1519 H 0.62109 0.89964 0.05239 0.0
H1520 H 0.54684 0.85459 0.02587 0.0
C1521 C 0.56463 0.84233 0.95939 0.0
C1522 C 0.6072 0.87469 -0.00221 0.0
C1523 C 0.56401 0.83919 0.94005 0.0
C1524 C 0.60717 0.8804 0.07831 0.0
C1525 C 0.60626 0.88331 0.059 0.0
C1526 C 0.56383 0.86017 0.01823 0.0
C1527 C 0.58349 0.86397 0.96773 0.0
C1528 C 0.58469 0.86658 0.98833 0.0
C1529 C 0.58647 0.86528 0.04837 0.0
C1530 C 0.58616 0.86732 0.02773 0.0
H1531 H 0.61517 0.89415 0.92857 0.0
H1532 H 0.61625 0.8995 0.96243 0.0
H1533 H 0.54557 0.8538 0.99176 0.0
H1534 H 0.55343 0.82524 0.08329 0.0
H1535 H 0.55208 0.8301 0.04969 0.0
C1536 C 0.73401 0.59925 0.07246 0.0
C1537 C 0.73499 0.57943 0.08094 0.0
C1538 C 0.73165 0.59991 0.05302 0.0
C1539 C 0.74706 0.57679 0.01109 0.0
H1540 H 0.70672 0.59796 0.98439 0.0
C1541 C 0.73737 0.5689 0.93133 0.0
C1542 C 0.73743 0.58839 0.92142 0.0
C1543 C 0.73591 0.56803 0.9508 0.0
C1544 C 0.7183 0.59229 0.99168 0.0
H1545 H 0.7323 0.54384 0.07591 0.0
H1546 H 0.72802 0.54491 0.04217 0.0
H1547 H 0.70488 0.59548 0.0186 0.0
H1548 H 0.73598 0.6223 0.92428 0.0
H1549 H 0.73391 0.62099 0.95839 0.0
H1550 H 0.76081 0.57389 0.98444 0.0
C1551 C 0.72965 0.56022 0.05044 0.0
C1552 C 0.71718 0.59081 0.01123 0.0
C1553 C 0.73201 0.55958 0.06977 0.0
C1554 C 0.73596 0.60701 0.93147 0.0
C1555 C 0.7346 0.60618 0.95102 0.0
C1556 C 0.74827 0.57838 0.99165 0.0
C1557 C 0.73027 0.58074 0.04178 0.0
C1558 C 0.73137 0.58278 0.0211 0.0
C1559 C 0.73464 0.58671 0.9609 0.0
C1560 C 0.73374 0.58589 0.98167 0.0
H1561 H 0.73637 0.61483 0.0807 0.0
H1562 H 0.73221 0.61598 0.04672 0.0
H1563 H 0.75869 0.57113 0.01833 0.0
H1564 H 0.73825 0.55411 0.92406 0.0
H1565 H 0.73553 0.55252 0.95794 0.0
C1566 C 0.13467 0.74666 0.06887 0.0
C1567 C 0.1591 0.75555 0.07502 0.0
C1568 C 0.12783 0.73789 0.05057 0.0
C1569 C 0.14779 0.71701 0.00897 0.0
H1570 H 0.11823 0.74869 0.98062 0.0
C1571 C 0.1638 0.73525 0.93065 0.0
C1572 C 0.1444 0.73275 0.91914 0.0
C1573 C 0.1608 0.73273 0.94999 0.0
C1574 C 0.126 0.73925 0.98838 0.0
H1575 H 0.1952 0.76122 0.06723 0.0
H1576 H 0.18333 0.74599 0.03545 0.0
H1577 H 0.12101 0.75274 0.01461 0.0
H1578 H 0.10648 0.72541 0.91898 0.0
H1579 H 0.10134 0.72115 0.95293 0.0
H1580 H 0.15363 0.7043 0.98271 0.0
C1581 C 0.16939 0.74564 0.0447 0.0
C1582 C 0.12757 0.74155 0.00784 0.0
C1583 C 0.17626 0.7546 0.06285 0.0
C1584 C 0.12183 0.72751 0.92745 0.0
C1585 C 0.11887 0.7251 0.94688 0.0
C1586 C 0.14619 0.71468 0.98955 0.0
C1587 C 0.14526 0.73764 0.03824 0.0
C1588 C 0.13928 0.73119 0.01825 0.0
C1589 C 0.13836 0.72769 0.95833 0.0
C1590 C 0.13609 0.72653 0.97899 0.0
H1591 H 0.12106 0.74717 0.07799 0.0
H1592 H 0.10907 0.73171 0.04597 0.0
H1593 H 0.15651 0.70846 0.01669 0.0
H1594 H 0.18145 0.73927 0.92479 0.0
H1595 H 0.17634 0.73531 0.95845 0.0
C1596 C 0.86395 0.60287 0.57517 0.0
C1597 C 0.86051 0.5816 0.58462 0.0
C1598 C 0.87109 0.60667 0.55638 0.0
C1599 C 0.85851 0.56986 0.51559 0.0
H1600 H 0.90748 0.62933 0.49027 0.0
C1601 C 0.85927 0.57425 0.43555 0.0
C1602 C 0.86517 0.59686 0.42716 0.0
C1603 C 0.86366 0.57316 0.45457 0.0
C1604 C 0.89348 0.61266 0.49707 0.0
H1605 H 0.86383 0.54866 0.58221 0.0
H1606 H 0.87562 0.55503 0.54922 0.0
H1607 H 0.9076 0.62718 0.52444 0.0
H1608 H 0.88072 0.63616 0.43176 0.0
H1609 H 0.88691 0.63419 0.46529 0.0
H1610 H 0.843 0.55579 0.48881 0.0
C1611 C 0.87289 0.56876 0.55644 0.0
C1612 C 0.89378 0.6114 0.51663 0.0
C1613 C 0.8662 0.56518 0.57532 0.0
C1614 C 0.87604 0.6185 0.43799 0.0
C1615 C 0.87977 0.61733 0.45719 0.0
C1616 C 0.85782 0.57129 0.49616 0.0
C1617 C 0.87456 0.58908 0.54667 0.0
C1618 C 0.87621 0.59 0.52602 0.0
C1619 C 0.87331 0.59455 0.46583 0.0
C1620 C 0.87519 0.59275 0.48656 0.0
H1621 H 0.85988 0.61591 0.58205 0.0
H1622 H 0.87218 0.62243 0.54911 0.0
H1623 H 0.84444 0.55333 0.52255 0.0
H1624 H 0.85132 0.55736 0.42736 0.0
H1625 H 0.85922 0.5554 0.46043 0.0
C1626 C 0.27715 0.86249 0.57044 0.0
C1627 C 0.26718 0.83755 0.5756 0.0
C1628 C 0.28538 0.87009 0.55216 0.0
C1629 C 0.30123 0.8508 0.50768 0.0
H1630 H 0.26787 0.88234 0.48442 0.0
C1631 C 0.27417 0.83726 0.4306 0.0
C1632 C 0.27533 0.85694 0.42022 0.0
C1633 C 0.27904 0.83975 0.44973 0.0
C1634 C 0.27781 0.87405 0.49071 0.0
H1635 H 0.25967 0.80139 0.56614 0.0
H1636 H 0.27403 0.81461 0.53435 0.0
H1637 H 0.2677 0.87875 0.51835 0.0
H1638 H 0.28277 0.89483 0.42181 0.0
H1639 H 0.29126 0.89913 0.45538 0.0
H1640 H 0.31056 0.84528 0.48001 0.0
C1641 C 0.27552 0.82833 0.54435 0.0
C1642 C 0.27774 0.87202 0.51016 0.0
C1643 C 0.26708 0.82071 0.56254 0.0
C1644 C 0.28159 0.87926 0.42942 0.0
C1645 C 0.28646 0.88174 0.44864 0.0
C1646 C 0.30139 0.85291 0.48825 0.0
C1647 C 0.28404 0.85292 0.53883 0.0
C1648 C 0.28867 0.85957 0.51878 0.0
C1649 C 0.28522 0.86198 0.45898 0.0
C1650 C 0.28887 0.86372 0.47954 0.0
H1651 H 0.27755 0.87588 0.58024 0.0
H1652 H 0.29206 0.8892 0.54828 0.0
H1653 H 0.31011 0.84145 0.514 0.0
H1654 H 0.26937 0.81978 0.42401 0.0
H1655 H 0.27739 0.82398 0.45736 0.0
C1656 C 0.40175 0.24881 0.5662 0.0
C1657 C 0.4179 0.26804 0.57811 0.0
C1658 C 0.3978 0.25391 0.54795 0.0
C1659 C 0.43129 0.29857 0.51129 0.0
H1660 H 0.3707 0.25786 0.48356 0.0
C1661 C 0.39423 0.27557 0.42978 0.0
C1662 C 0.41349 0.2725 0.4225 0.0
C1663 C 0.39321 0.27965 0.44892 0.0
C1664 C 0.38765 0.26973 0.4911 0.0
H1665 H 0.44198 0.30772 0.58058 0.0
H1666 H 0.43482 0.31677 0.54864 0.0
H1667 H 0.36987 0.25728 0.51769 0.0
H1668 H 0.44687 0.27153 0.42959 0.0
H1669 H 0.44492 0.27834 0.4628 0.0
H1670 H 0.4492 0.31053 0.48474 0.0
C1671 C 0.42525 0.29773 0.55342 0.0
C1672 C 0.38722 0.26924 0.51064 0.0
C1673 C 0.42916 0.2926 0.57174 0.0
C1674 C 0.43176 0.27379 0.4347 0.0
C1675 C 0.4308 0.27797 0.45374 0.0
C1676 C 0.43171 0.29907 0.49179 0.0
C1677 C 0.41002 0.27835 0.54119 0.0
C1678 C 0.40923 0.28292 0.52091 0.0
C1679 C 0.41153 0.28092 0.46107 0.0
C1680 C 0.4101 0.28391 0.48151 0.0
H1681 H 0.39276 0.22969 0.57076 0.0
H1682 H 0.38625 0.2385 0.53884 0.0
H1683 H 0.4486 0.30924 0.51875 0.0
H1684 H 0.3799 0.27476 0.42074 0.0
H1685 H 0.37817 0.28191 0.4542 0.0
C1686 C 0.14695 0.38598 0.56404 0.0
C1687 C 0.14543 0.40534 0.57268 0.0
C1688 C 0.13743 0.3782 0.54611 0.0
C1689 C 0.10417 0.38832 0.50634 0.0
H1690 H 0.15431 0.38338 0.47773 0.0
C1691 C 0.12885 0.41749 0.42913 0.0
C1692 C 0.14022 0.40666 0.4189 0.0
C1693 C 0.12051 0.4095 0.44737 0.0
C1694 C 0.13966 0.38403 0.4854 0.0
H1695 H 0.13113 0.43049 0.57025 0.0
H1696 H 0.11574 0.418 0.53835 0.0
H1697 H 0.15611 0.38359 0.51129 0.0
H1698 H 0.14876 0.37702 0.41846 0.0
H1699 H 0.13328 0.36237 0.44989 0.0
H1700 H 0.08871 0.39022 0.47995 0.0
C1701 C 0.12364 0.40827 0.54552 0.0
C1702 C 0.14069 0.38413 0.50482 0.0
C1703 C 0.13258 0.41557 0.56374 0.0
C1704 C 0.14049 0.38596 0.42625 0.0
C1705 C 0.13172 0.37766 0.44426 0.0
C1706 C 0.10321 0.38832 0.48674 0.0
C1707 C 0.12699 0.39026 0.53619 0.0
C1708 C 0.12326 0.38672 0.5156 0.0
C1709 C 0.12312 0.39035 0.45546 0.0
C1710 C 0.12125 0.38661 0.47606 0.0
H1711 H 0.15634 0.37746 0.57087 0.0
H1712 H 0.13952 0.36366 0.53964 0.0
H1713 H 0.09032 0.39012 0.51422 0.0
H1714 H 0.12835 0.43345 0.4237 0.0
H1715 H 0.11399 0.41969 0.45558 0.0
C1716 C 0.72925 0.13061 0.42502 0.0
C1717 C 0.72623 0.14885 0.41587 0.0
C1718 C 0.72577 0.12733 0.44432 0.0
C1719 C 0.726 0.16152 0.48653 0.0
H1720 H 0.7022 0.09779 0.51057 0.0
C1721 C 0.71751 0.1505 0.56637 0.0
C1722 C 0.72982 0.13885 0.57404 0.0
C1723 C 0.71298 0.14936 0.54719 0.0
C1724 C 0.70884 0.11567 0.50399 0.0
H1725 H 0.71588 0.17703 0.41949 0.0
H1726 H 0.70902 0.17078 0.45303 0.0
H1727 H 0.70112 0.10009 0.47648 0.0
H1728 H 0.74594 0.11585 0.5678 0.0
H1729 H 0.73788 0.11377 0.53424 0.0
H1730 H 0.7337 0.17705 0.51404 0.0
C1731 C 0.71487 0.15955 0.44547 0.0
C1732 C 0.70834 0.11704 0.4845 0.0
C1733 C 0.71871 0.16307 0.42623 0.0
C1734 C 0.73657 0.12516 0.56227 0.0
C1735 C 0.7318 0.12381 0.5431 0.0
C1736 C 0.72621 0.1601 0.50598 0.0
C1737 C 0.71886 0.142 0.45482 0.0
C1738 C 0.7173 0.14005 0.47553 0.0
C1739 C 0.72041 0.13631 0.53536 0.0
C1740 C 0.71799 0.13723 0.51486 0.0
H1741 H 0.73511 0.11942 0.41738 0.0
H1742 H 0.72935 0.11389 0.45107 0.0
H1743 H 0.73351 0.17962 0.48014 0.0
H1744 H 0.71196 0.16109 0.5751 0.0
H1745 H 0.70399 0.15899 0.54154 0.0
C1746 C 0.61894 0.76551 0.43637 0.0
C1747 C 0.60334 0.74458 0.42563 0.0
C1748 C 0.6301 0.76314 0.45253 0.0
C1749 C 0.61421 0.71683 0.48852 0.0
H1750 H 0.67212 0.77027 0.51249 0.0
C1751 C 0.6197 0.72169 0.5678 0.0
C1752 C 0.62384 0.74461 0.5746 0.0
C1753 C 0.62573 0.71944 0.54939 0.0
C1754 C 0.656 0.75506 0.50596 0.0
H1755 H 0.58901 0.70515 0.42236 0.0
H1756 H 0.60884 0.70104 0.45047 0.0
H1757 H 0.668 0.77 0.47848 0.0
H1758 H 0.6393 0.78352 0.56789 0.0
H1759 H 0.64917 0.77948 0.53566 0.0
H1760 H 0.60138 0.70266 0.51588 0.0
C1761 C 0.61209 0.71922 0.44658 0.0
C1762 C 0.65365 0.75489 0.48651 0.0
C1763 C 0.6008 0.72159 0.43044 0.0
C1764 C 0.63571 0.76557 0.56303 0.0
C1765 C 0.64161 0.76328 0.54458 0.0
C1766 C 0.61658 0.71697 0.5079 0.0
C1767 C 0.62593 0.73978 0.45826 0.0
C1768 C 0.6321 0.73645 0.47769 0.0
C1769 C 0.63588 0.74002 0.53737 0.0
C1770 C 0.63688 0.73674 0.5169 0.0
H1771 H 0.62145 0.78354 0.43292 0.0
H1772 H 0.64043 0.77935 0.46124 0.0
H1773 H 0.59724 0.70244 0.48228 0.0
H1774 H 0.61103 0.70526 0.57649 0.0
H1775 H 0.62147 0.70135 0.54432 0.0
C1776 C 0.41192 0.15531 0.18671 0.0
C1777 C 0.41879 0.16795 0.16959 0.0
C1778 C 0.41019 0.16705 0.20274 0.0
C1779 C 0.39363 0.19155 0.23124 0.0
H1780 H 0.44883 0.25552 0.24537 0.0
C1781 C 0.39471 0.2392 0.30059 0.0
C1782 C 0.41642 0.24705 0.31112 0.0
C1783 C 0.39384 0.23249 0.28184 0.0
C1784 C 0.43322 0.23772 0.24152 0.0
H1785 H 0.43051 0.20302 0.1559 0.0
H1786 H 0.4275 0.22375 0.184 0.0
H1787 H 0.44936 0.23748 0.21514 0.0
H1788 H 0.45444 0.25476 0.31014 0.0
H1789 H 0.45282 0.2429 0.27758 0.0
H1790 H 0.37793 0.19128 0.25788 0.0
C1791 C 0.42311 0.20464 0.18493 0.0
C1792 C 0.43345 0.22751 0.2242 0.0
C1793 C 0.42465 0.19276 0.16884 0.0
C1794 C 0.43739 0.24866 0.30245 0.0
C1795 C 0.43656 0.24212 0.28373 0.0
C1796 C 0.39334 0.2018 0.2485 0.0
C1797 C 0.41559 0.19176 0.20197 0.0
C1798 C 0.41396 0.20403 0.21915 0.0
C1799 C 0.41472 0.23372 0.2733 0.0
C1800 C 0.41343 0.22468 0.254 0.0
H1801 H 0.4074 0.13616 0.18766 0.0
H1802 H 0.40485 0.15685 0.21578 0.0
H1803 H 0.37823 0.17354 0.22754 0.0
H1804 H 0.37827 0.23783 0.3069 0.0
H1805 H 0.3768 0.22617 0.27407 0.0
C1806 C 0.24278 0.42953 0.1986 0.0
C1807 C 0.23726 0.40929 0.18695 0.0
C1808 C 0.2345 0.42571 0.21708 0.0
C1809 C 0.18484 0.3856 0.24662 0.0
H1810 H 0.23084 0.41694 0.28765 0.0
C1811 C 0.14972 0.38772 0.32091 0.0
C1812 C 0.16302 0.41055 0.33014 0.0
C1813 C 0.15955 0.38286 0.30491 0.0
C1814 C 0.21771 0.40818 0.27636 0.0
H1815 H 0.21854 0.3692 0.18534 0.0
H1816 H 0.20317 0.36256 0.21765 0.0
H1817 H 0.24666 0.4181 0.25622 0.0
H1818 H 0.19653 0.44629 0.32983 0.0
H1819 H 0.21343 0.4383 0.30194 0.0
H1820 H 0.15588 0.37723 0.26627 0.0
C1821 C 0.21434 0.3813 0.21247 0.0
C1822 C 0.22681 0.40872 0.25843 0.0
C1823 C 0.22315 0.38513 0.19408 0.0
C1824 C 0.18624 0.4283 0.32326 0.0
C1825 C 0.19595 0.42361 0.30726 0.0
C1826 C 0.1757 0.38548 0.2645 0.0
C1827 C 0.22009 0.4016 0.2241 0.0
C1828 C 0.21045 0.39794 0.24338 0.0
C1829 C 0.18264 0.40096 0.2977 0.0
C1830 C 0.19206 0.39741 0.2795 0.0
H1831 H 0.25368 0.44834 0.19348 0.0
H1832 H 0.23893 0.44161 0.22581 0.0
H1833 H 0.17193 0.37727 0.23513 0.0
H1834 H 0.13164 0.3738 0.32592 0.0
H1835 H 0.14888 0.36511 0.29804 0.0
C1836 C 0.87074 0.24639 0.17847 0.0
C1837 C 0.85407 0.25099 0.16843 0.0
C1838 C 0.86329 0.23278 0.19511 0.0
C1839 C 0.84588 0.22439 0.23615 0.0
H1840 H 0.78099 0.16613 0.24242 0.0
C1841 C 0.78858 0.20271 0.30322 0.0
C1842 C 0.77595 0.17819 0.30973 0.0
C1843 C 0.80115 0.20844 0.2862 0.0
C1844 C 0.79933 0.18214 0.24087 0.0
H1845 H 0.81698 0.24557 0.16806 0.0
H1846 H 0.80364 0.22102 0.19652 0.0
H1847 H 0.79735 0.18026 0.21095 0.0
H1848 H 0.76675 0.14042 0.30358 0.0
H1849 H 0.78834 0.15046 0.27356 0.0
H1850 H 0.84727 0.22707 0.26604 0.0
C1851 C 0.82227 0.2275 0.19145 0.0
C1852 C 0.80862 0.19023 0.22291 0.0
C1853 C 0.82985 0.24145 0.1751 0.0
C1854 C 0.77628 0.15951 0.29892 0.0
C1855 C 0.78861 0.1652 0.28176 0.0
C1856 C 0.83646 0.21646 0.25411 0.0
C1857 C 0.83902 0.2234 0.20178 0.0
C1858 C 0.83162 0.21186 0.22042 0.0
C1859 C 0.80112 0.18971 0.27525 0.0
C1860 C 0.81279 0.19572 0.25658 0.0
H1861 H 0.88965 0.25379 0.17371 0.0
H1862 H 0.87656 0.22998 0.20296 0.0
H1863 H 0.86358 0.24123 0.23457 0.0
H1864 H 0.78878 0.21751 0.31127 0.0
H1865 H 0.81038 0.22745 0.28135 0.0
C1866 C 0.6239 0.85161 0.20718 0.0
C1867 C 0.60691 0.83257 0.19545 0.0
C1868 C 0.62831 0.84624 0.22527 0.0
C1869 C 0.62349 0.79589 0.25468 0.0
H1870 H 0.61221 0.82952 0.2959 0.0
C1871 C 0.58383 0.76841 0.3322 0.0
C1872 C 0.59804 0.75853 0.33923 0.0
C1873 C 0.59134 0.78314 0.31618 0.0
C1874 C 0.61572 0.82022 0.28452 0.0
H1875 H 0.58194 0.79298 0.19313 0.0
H1876 H 0.58978 0.78359 0.22461 0.0
H1877 H 0.61336 0.84381 0.26381 0.0
H1878 H 0.63152 0.75658 0.33537 0.0
H1879 H 0.64447 0.78199 0.30704 0.0
H1880 H 0.62474 0.77161 0.27518 0.0
C1881 C 0.5996 0.80265 0.21986 0.0
C1882 C 0.61651 0.82845 0.26622 0.0
C1883 C 0.59492 0.80804 0.20192 0.0
C1884 C 0.62026 0.76407 0.33024 0.0
C1885 C 0.62767 0.7786 0.31408 0.0
C1886 C 0.62295 0.78783 0.27294 0.0
C1887 C 0.61616 0.8217 0.23175 0.0
C1888 C 0.61957 0.8158 0.25113 0.0
C1889 C 0.61299 0.78781 0.30669 0.0
C1890 C 0.61826 0.79941 0.28797 0.0
H1891 H 0.6334 0.87071 0.20253 0.0
H1892 H 0.64117 0.86121 0.23421 0.0
H1893 H 0.62607 0.786 0.24325 0.0
H1894 H 0.56624 0.76375 0.33853 0.0
H1895 H 0.5794 0.78958 0.3106 0.0
C1896 C 0.75509 0.57397 0.18156 0.0
C1897 C 0.75071 0.59222 0.17411 0.0
C1898 C 0.76902 0.5785 0.19786 0.0
C1899 C 0.78987 0.61951 0.23956 0.0
H1900 H 0.82697 0.58588 0.24886 0.0
C1901 C 0.8432 0.62758 0.30875 0.0
C1902 C 0.83428 0.60439 0.31736 0.0
C1903 C 0.83649 0.62911 0.2903 0.0
C1904 C 0.81681 0.5955 0.24636 0.0
H1905 H 0.75765 0.62964 0.17754 0.0
H1906 H 0.78285 0.63806 0.20572 0.0
H1907 H 0.80981 0.5839 0.21782 0.0
H1908 H 0.81197 0.56465 0.31333 0.0
H1909 H 0.80096 0.56738 0.28102 0.0
H1910 H 0.79726 0.63124 0.26821 0.0
C1911 C 0.77509 0.61999 0.19926 0.0
C1912 C 0.80677 0.59422 0.22865 0.0
C1913 C 0.7608 0.61527 0.18306 0.0
C1914 C 0.81906 0.58279 0.30709 0.0
C1915 C 0.81287 0.58431 0.28858 0.0
C1916 C 0.80035 0.62117 0.25718 0.0
C1917 C 0.77912 0.60153 0.20704 0.0
C1918 C 0.79251 0.60559 0.22515 0.0
C1919 C 0.82133 0.60745 0.28008 0.0
C1920 C 0.81333 0.60865 0.26084 0.0
H1921 H 0.74709 0.55588 0.17507 0.0
H1922 H 0.77112 0.56357 0.20357 0.0
H1923 H 0.77878 0.62825 0.23755 0.0
H1924 H 0.85486 0.64451 0.31639 0.0
H1925 H 0.84316 0.64715 0.28399 0.0
C1926 C 0.19056 0.77706 0.17285 0.0
C1927 C 0.16626 0.7683 0.16666 0.0
C1928 C 0.1987 0.79019 0.18961 0.0
C1929 C 0.21394 0.82647 0.22213 0.0
H1930 H 0.17173 0.79308 0.26471 0.0
C1931 C 0.24116 0.8591 0.29911 0.0
C1932 C 0.23943 0.84011 0.31074 0.0
C1933 C 0.23072 0.85356 0.28119 0.0
C1934 C 0.18358 0.80274 0.25292 0.0
H1935 H 0.13118 0.76602 0.17297 0.0
H1936 H 0.1453 0.78877 0.20249 0.0
H1937 H 0.15676 0.77822 0.23317 0.0
H1938 H 0.22475 0.80052 0.31308 0.0
H1939 H 0.20644 0.79089 0.28201 0.0
H1940 H 0.24114 0.85037 0.24206 0.0
C1941 C 0.15816 0.78575 0.19428 0.0
C1942 C 0.17497 0.79437 0.23488 0.0
C1943 C 0.15009 0.77275 0.17745 0.0
C1944 C 0.22663 0.81555 0.30436 0.0
C1945 C 0.21592 0.81 0.28665 0.0
C1946 C 0.22248 0.835 0.2402 0.0
C1947 C 0.18248 0.79439 0.2006 0.0
C1948 C 0.19033 0.8057 0.21935 0.0
C1949 C 0.21799 0.82894 0.27485 0.0
C1950 C 0.20763 0.8227 0.25575 0.0
H1951 H 0.20303 0.77312 0.16499 0.0
H1952 H 0.21737 0.79613 0.19433 0.0
H1953 H 0.22604 0.83566 0.21035 0.0
H1954 H 0.25093 0.8782 0.30372 0.0
H1955 H 0.23252 0.86846 0.27231 0.0
C1956 C 0.62211 0.76268 0.69186 0.0
C1957 C 0.61871 0.77664 0.67798 0.0
C1958 C 0.62569 0.77056 0.71045 0.0
C1959 C 0.64338 0.82252 0.74199 0.0
H1960 H 0.58748 0.77674 0.77226 0.0
C1961 C 0.61504 0.85335 0.80882 0.0
C1962 C 0.602 0.83578 0.82275 0.0
C1963 C 0.62158 0.8462 0.79226 0.0
C1964 C 0.60365 0.78956 0.76432 0.0
H1965 H 0.61816 0.81051 0.67222 0.0
H1966 H 0.62497 0.82453 0.70474 0.0
H1967 H 0.59281 0.76449 0.74121 0.0
H1968 H 0.58712 0.79761 0.83122 0.0
H1969 H 0.59973 0.78531 0.80286 0.0
H1970 H 0.65446 0.8476 0.76507 0.0
C1971 C 0.62461 0.80745 0.70125 0.0
C1972 C 0.60658 0.7825 0.74646 0.0
C1973 C 0.6205 0.79933 0.68274 0.0
C1974 C 0.5967 0.81131 0.8204 0.0
C1975 C 0.60385 0.8043 0.80411 0.0
C1976 C 0.6408 0.82942 0.76007 0.0
C1977 C 0.62652 0.79277 0.71528 0.0
C1978 C 0.62609 0.79912 0.73503 0.0
C1979 C 0.61578 0.82148 0.78958 0.0
C1980 C 0.6205 0.81326 0.77129 0.0
H1981 H 0.6208 0.74512 0.68852 0.0
H1982 H 0.62705 0.75898 0.72114 0.0
H1983 H 0.65859 0.83557 0.73332 0.0
H1984 H 0.61931 0.87236 0.81043 0.0
H1985 H 0.63036 0.85991 0.78134 0.0
C1986 C 0.743 0.57998 0.79671 0.0
C1987 C 0.75228 0.60059 0.80864 0.0
C1988 C 0.74916 0.58302 0.77778 0.0
C1989 C 0.80005 0.62007 0.74804 0.0
H1990 H 0.75376 0.58411 0.70808 0.0
C1991 C 0.83528 0.60297 0.67885 0.0
C1992 C 0.82161 0.57854 0.67236 0.0
C1993 C 0.82521 0.6117 0.69227 0.0
C1994 C 0.76696 0.59426 0.71906 0.0
H1995 H 0.77473 0.64057 0.81018 0.0
H1996 H 0.78641 0.64581 0.77695 0.0
H1997 H 0.73822 0.58822 0.73845 0.0
H1998 H 0.787 0.54399 0.67453 0.0
H1999 H 0.7696 0.55871 0.69836 0.0
H2000 H 0.82869 0.62435 0.72946 0.0
C2001 C 0.77397 0.62741 0.78229 0.0
C2002 C 0.75804 0.59676 0.73637 0.0
C2003 C 0.76731 0.62441 0.80122 0.0
C2004 C 0.79763 0.56306 0.67914 0.0
C2005 C 0.78766 0.57164 0.6927 0.0
C2006 C 0.80897 0.61723 0.73086 0.0
C2007 C 0.76512 0.60668 0.77049 0.0
C2008 C 0.77448 0.60893 0.75119 0.0
C2009 C 0.80153 0.59591 0.69978 0.0
C2010 C 0.79246 0.60342 0.71639 0.0
H2011 H 0.73126 0.56142 0.80204 0.0
H2012 H 0.74238 0.56672 0.76903 0.0
H2013 H 0.81309 0.62935 0.75932 0.0
H2014 H 0.85392 0.61514 0.67379 0.0
H2015 H 0.83629 0.63058 0.69718 0.0
C2016 C 0.23188 0.80285 0.67232 0.0
C2017 C 0.24238 0.82718 0.66566 0.0
C2018 C 0.21724 0.79566 0.68843 0.0
C2019 C 0.1803 0.78299 0.72027 0.0
H2020 H 0.21228 0.82873 0.76136 0.0
C2021 C 0.14603 0.76106 0.7973 0.0
C2022 C 0.16495 0.7642 0.80964 0.0
C2023 C 0.1518 0.7703 0.77903 0.0
C2024 C 0.203 0.81588 0.74998 0.0
H2025 H 0.24547 0.86298 0.6701 0.0
H2026 H 0.21986 0.85048 0.69826 0.0
H2027 H 0.22806 0.84109 0.72972 0.0
H2028 H 0.20465 0.78023 0.8129 0.0
H2029 H 0.21467 0.79646 0.78123 0.0
H2030 H 0.15598 0.75736 0.74087 0.0
C2031 C 0.22292 0.83694 0.6911 0.0
C2032 C 0.21188 0.82301 0.73184 0.0
C2033 C 0.23754 0.84408 0.67501 0.0
C2034 C 0.18968 0.77734 0.80364 0.0
C2035 C 0.19544 0.78683 0.78556 0.0
C2036 C 0.17131 0.7759 0.73847 0.0
C2037 C 0.21311 0.81282 0.69823 0.0
C2038 C 0.20109 0.8064 0.71686 0.0
C2039 C 0.17658 0.78321 0.77302 0.0
C2040 C 0.18311 0.79203 0.75354 0.0
H2041 H 0.23589 0.78974 0.66553 0.0
H2042 H 0.2103 0.77707 0.69374 0.0
H2043 H 0.17148 0.76991 0.70895 0.0
H2044 H 0.1268 0.75098 0.8016 0.0
H2045 H 0.13696 0.76734 0.76959 0.0
C2046 C 0.43647 0.19809 0.80524 0.0
C2047 C 0.41656 0.17649 0.8128 0.0
C2048 C 0.43403 0.20741 0.78817 0.0
C2049 C 0.39899 0.1902 0.74449 0.0
H2050 H 0.42547 0.26108 0.73993 0.0
C2051 C 0.40261 0.26519 0.68706 0.0
C2052 C 0.4094 0.25672 0.67117 0.0
C2053 C 0.40224 0.25529 0.70469 0.0
C2054 C 0.41779 0.24124 0.74103 0.0
H2055 H 0.37861 0.14738 0.80816 0.0
H2056 H 0.37443 0.16366 0.77805 0.0
H2057 H 0.4263 0.24343 0.7702 0.0
H2058 H 0.42254 0.23295 0.66139 0.0
H2059 H 0.42182 0.21516 0.69198 0.0
H2060 H 0.39056 0.18804 0.71529 0.0
C2061 C 0.39189 0.17335 0.78547 0.0
C2062 C 0.41846 0.23116 0.75829 0.0
C2063 C 0.39429 0.16405 0.80268 0.0
C2064 C 0.41647 0.23887 0.6733 0.0
C2065 C 0.41609 0.22889 0.69082 0.0
C2066 C 0.39844 0.2003 0.72719 0.0
C2067 C 0.41169 0.19528 0.77818 0.0
C2068 C 0.40935 0.2056 0.76014 0.0
C2069 C 0.4087 0.2368 0.70669 0.0
C2070 C 0.40809 0.22595 0.72524 0.0
H2071 H 0.45403 0.20791 0.81248 0.0
H2072 H 0.44977 0.22405 0.78269 0.0
H2073 H 0.39195 0.17045 0.74551 0.0
H2074 H 0.39702 0.27902 0.68581 0.0
H2075 H 0.3964 0.26173 0.71667 0.0
C2076 C 0.25433 0.42514 0.79199 0.0
C2077 C 0.24736 0.40539 0.80453 0.0
C2078 C 0.24493 0.42073 0.7738 0.0
C2079 C 0.19063 0.38182 0.74774 0.0
H2080 H 0.2321 0.40563 0.70355 0.0
C2081 C 0.14743 0.3739 0.67501 0.0
C2082 C 0.16059 0.39367 0.66263 0.0
C2083 C 0.15869 0.37197 0.69135 0.0
C2084 C 0.22021 0.39912 0.71573 0.0
H2085 H 0.22526 0.36557 0.80792 0.0
H2086 H 0.20801 0.35798 0.77614 0.0
H2087 H 0.251 0.40902 0.73412 0.0
H2088 H 0.19553 0.42707 0.65753 0.0
H2089 H 0.2149 0.42454 0.68632 0.0
H2090 H 0.16001 0.37345 0.72988 0.0
C2091 C 0.22113 0.37675 0.7804 0.0
C2092 C 0.23108 0.40087 0.73318 0.0
C2093 C 0.23103 0.3811 0.79848 0.0
C2094 C 0.18517 0.41142 0.66674 0.0
C2095 C 0.19628 0.40982 0.68324 0.0
C2096 C 0.17979 0.38056 0.73037 0.0
C2097 C 0.22797 0.39657 0.76797 0.0
C2098 C 0.21638 0.39247 0.74932 0.0
C2099 C 0.18315 0.39017 0.69589 0.0
C2100 C 0.19446 0.38951 0.71412 0.0
H2101 H 0.26694 0.44404 0.79628 0.0
H2102 H 0.25028 0.4363 0.76447 0.0
H2103 H 0.17899 0.37548 0.76008 0.0
H2104 H 0.12843 0.35993 0.67205 0.0
H2105 H 0.14809 0.35628 0.70046 0.0
C2106 C 0.8158 0.22098 0.81423 0.0
C2107 C 0.84054 0.23365 0.82027 0.0
C2108 C 0.80873 0.20469 0.79913 0.0
C2109 C 0.83423 0.19461 0.75645 0.0
H2110 H 0.76895 0.13628 0.75293 0.0
C2111 C 0.79476 0.14848 0.68562 0.0
C2112 C 0.77178 0.14675 0.68204 0.0
C2113 C 0.80406 0.15228 0.70387 0.0
C2114 C 0.78733 0.15239 0.75376 0.0
H2115 H 0.87712 0.23845 0.81577 0.0
H2116 H 0.86474 0.21 0.78926 0.0
H2117 H 0.7842 0.15633 0.78321 0.0
H2118 H 0.7397 0.14573 0.69476 0.0
H2119 H 0.75587 0.15241 0.72642 0.0
H2120 H 0.83689 0.19144 0.72689 0.0
C2121 C 0.85088 0.21286 0.79614 0.0
C2122 C 0.79601 0.1639 0.77105 0.0
C2123 C 0.85794 0.22913 0.8113 0.0
C2124 C 0.75758 0.14725 0.69709 0.0
C2125 C 0.76674 0.15081 0.71527 0.0
C2126 C 0.82555 0.18309 0.73917 0.0
C2127 C 0.82626 0.20071 0.78975 0.0
C2128 C 0.81913 0.1857 0.77242 0.0
C2129 C 0.79037 0.15409 0.7188 0.0
C2130 C 0.80161 0.16248 0.73753 0.0
H2131 H 0.8019 0.22389 0.82098 0.0
H2132 H 0.78969 0.19591 0.79439 0.0
H2133 H 0.85205 0.21147 0.75702 0.0
H2134 H 0.80607 0.1481 0.67428 0.0
H2135 H 0.82227 0.15461 0.70623 0.0
C2136 C 0.48918 0.04753 0.10046 0.0
C2137 C 0.50202 0.06973 0.09026 0.0
C2138 C 0.49288 0.02766 0.09676 0.0
C2139 C 0.54055 0.01496 0.08157 0.0
H2140 H 0.48713 0.94672 0.0831 0.0
C2141 C 0.51902 0.9073 0.0903 0.0
C2142 C 0.53256 0.91053 0.10683 0.0
C2143 C 0.51874 0.92742 0.08194 0.0
C2144 C 0.50232 0.96562 0.08223 0.0
H2145 H 0.52787 0.08773 0.0674 0.0
H2146 H 0.53497 0.05314 0.06146 0.0
H2147 H 0.47754 0.97994 0.0801 0.0
H2148 H 0.55836 0.93777 0.12643 0.0
H2149 H 0.55807 0.97281 0.11177 0.0
H2150 H 0.56529 1.00065 0.08469 0.0
C2151 C 0.52201 0.05131 0.07229 0.0
C2152 C 0.49677 0.98464 0.08069 0.0
C2153 C 0.51801 0.07112 0.07578 0.0
C2154 C 0.54785 0.93465 0.11366 0.0
C2155 C 0.54765 0.95478 0.10525 0.0
C2156 C 0.54611 0.99591 0.0833 0.0
C2157 C 0.50974 0.02954 0.08294 0.0
C2158 C 0.51578 0.0095 0.08095 0.0
C2159 C 0.53213 0.95116 0.08987 0.0
C2160 C 0.52699 0.97107 0.08422 0.0
H2161 H 0.47714 0.04582 0.11197 0.0
H2162 H 0.48344 0.01122 0.10539 0.0
H2163 H 0.55556 0.03399 0.08189 0.0
H2164 H 0.50741 0.88897 0.08451 0.0
H2165 H 0.50696 0.92416 0.06988 0.0
C2166 C 0.57913 0.52644 0.11078 0.0
C2167 C 0.58528 0.51132 0.1002 0.0
C2168 C 0.55689 0.52621 0.10744 0.0
C2169 C 0.49464 0.48272 0.09136 0.0
H2170 H 0.48382 0.53857 0.09569 0.0
C2171 C 0.40997 0.50659 0.09352 0.0
C2172 C 0.39589 0.49102 0.10833 0.0
C2173 C 0.43235 0.50828 0.08827 0.0
C2174 C 0.48657 0.52282 0.09418 0.0
H2175 H 0.57435 0.48605 0.07666 0.0
H2176 H 0.53553 0.48558 0.07092 0.0
H2177 H 0.52614 0.5458 0.09402 0.0
H2178 H 0.39357 0.46375 0.12834 0.0
H2179 H 0.43221 0.4662 0.1188 0.0
H2180 H 0.45514 0.4597 0.0922 0.0
C2181 C 0.5476 0.49721 0.082 0.0
C2182 C 0.51076 0.52697 0.09338 0.0
C2183 C 0.5698 0.49752 0.08528 0.0
C2184 C 0.40374 0.47572 0.11675 0.0
C2185 C 0.42597 0.47721 0.11134 0.0
C2186 C 0.47049 0.47857 0.09236 0.0
C2187 C 0.54049 0.51083 0.09348 0.0
C2188 C 0.51503 0.50693 0.09225 0.0
C2189 C 0.4409 0.49414 0.09752 0.0
C2190 C 0.46623 0.49855 0.09409 0.0
H2191 H 0.59066 0.53717 0.1224 0.0
H2192 H 0.55183 0.53683 0.11656 0.0
H2193 H 0.49735 0.46688 0.0907 0.0
H2194 H 0.40419 0.51826 0.08649 0.0
H2195 H 0.44334 0.52119 0.07737 0.0
C2196 C 0.91835 0.43762 0.07691 0.0
C2197 C 0.92668 0.42585 0.08938 0.0
C2198 C 0.93513 0.46032 0.06872 0.0
C2199 C 1.00213 0.50241 0.06011 0.0
H2200 H 0.98772 0.55534 0.06859 0.0
C2201 C 0.05996 0.60685 0.08586 0.0
C2202 C 0.08213 0.61365 0.07634 0.0
C2203 C 0.0379 0.58612 0.08013 0.0
C2204 C 0.99197 0.54077 0.06595 0.0
H2205 H 0.95931 0.42874 0.10277 0.0
H2206 H 0.98832 0.46773 0.08831 0.0
H2207 H 0.95497 0.51232 0.07246 0.0
H2208 H 0.09833 0.60626 0.05217 0.0
H2209 H 0.05964 0.5705 0.04173 0.0
H2210 H 0.03944 0.53052 0.05516 0.0
C2211 C 0.96891 0.45932 0.08463 0.0
C2212 C 0.97313 0.51611 0.06798 0.0
C2213 C 0.95221 0.43687 0.09292 0.0
C2214 C 0.08145 0.60109 0.05987 0.0
C2215 C 0.05934 0.58057 0.05398 0.0
C2216 C 0.02092 0.52697 0.05816 0.0
C2217 C 0.96056 0.47151 0.07268 0.0
C2218 C 0.97838 0.49678 0.06597 0.0
C2219 C 0.03762 0.57199 0.06466 0.0
C2220 C 0.01637 0.54649 0.06193 0.0
H2221 H 0.89883 0.42948 0.07369 0.0
H2222 H 0.92822 0.46928 0.0595 0.0
H2223 H 0.00658 0.48784 0.05817 0.0
H2224 H 0.06006 0.61621 0.09865 0.0
H2225 H 0.02165 0.58004 0.08881 0.0
C2226 C 0.08021 0.52365 0.41462 0.0
C2227 C 0.07559 0.5061 0.40049 0.0
C2228 C 0.06137 0.52795 0.42076 0.0
C2229 C 0.99345 0.50148 0.42072 0.0
H2230 H 0.00808 0.56951 0.41663 0.0
C2231 C 0.93823 0.55045 0.39421 0.0
C2232 C 0.91519 0.53512 0.40273 0.0
C2233 C 0.95951 0.55078 0.4007 0.0
C2234 C 0.00377 0.55047 0.41807 0.0
H2235 H 0.04725 0.47903 0.38208 0.0
H2236 H 0.0145 0.48605 0.39312 0.0
H2237 H 0.04181 0.56026 0.41516 0.0
H2238 H 0.8969 0.5104 0.42606 0.0
H2239 H 0.93415 0.51093 0.4374 0.0
H2240 H 0.95537 0.49141 0.42242 0.0
C2241 C 0.03263 0.49636 0.39954 0.0
C2242 C 0.02308 0.54519 0.41737 0.0
C2243 C 0.05146 0.4923 0.39324 0.0
C2244 C 0.91433 0.52201 0.41899 0.0
C2245 C 0.93563 0.52231 0.42547 0.0
C2246 C 0.97419 0.50674 0.42151 0.0
C2247 C 0.03747 0.51451 0.41312 0.0
C2248 C 0.01796 0.52054 0.41791 0.0
C2249 C 0.9582 0.53578 0.41585 0.0
C2250 C 0.97903 0.5312 0.41944 0.0
H2251 H 0.09847 0.53435 0.42073 0.0
H2252 H 0.06554 0.54195 0.43133 0.0
H2253 H 0.98903 0.48234 0.42139 0.0
H2254 H 0.93952 0.56063 0.38158 0.0
H2255 H 0.97653 0.56121 0.39286 0.0
C2256 C 0.59247 0.07775 0.35677 0.0
C2257 C 0.60309 0.09341 0.37222 0.0
C2258 C 0.56911 0.05656 0.3582 0.0
C2259 C 0.51234 0.02982 0.38783 0.0
H2260 H 0.49335 0.97205 0.3568 0.0
C2261 C 0.42023 0.93521 0.39359 0.0
C2262 C 0.40749 0.92596 0.37664 0.0
C2263 C 0.44364 0.95651 0.39378 0.0
C2264 C 0.49843 0.98815 0.36546 0.0
H2265 H 0.59842 0.09874 0.40152 0.0
H2266 H 0.55818 0.06103 0.40442 0.0
H2267 H 0.53618 0.00582 0.35661 0.0
H2268 H 0.40881 0.93179 0.34671 0.0
H2269 H 0.45005 0.96885 0.347 0.0
H2270 H 0.47452 0.01139 0.39711 0.0
C2271 C 0.56734 0.06547 0.39095 0.0
C2272 C 0.52294 0.00758 0.36532 0.0
C2273 C 0.59051 0.08692 0.3894 0.0
C2274 C 0.41817 0.93876 0.35997 0.0
C2275 C 0.44178 0.95976 0.36011 0.0
C2276 C 0.48792 0.01012 0.38823 0.0
C2277 C 0.556 0.05033 0.37524 0.0
C2278 C 0.53022 0.02886 0.37632 0.0
C2279 C 0.45487 0.96854 0.37698 0.0
C2280 C 0.48072 0.98929 0.37687 0.0
H2281 H 0.60165 0.08259 0.34329 0.0
H2282 H 0.56096 0.04573 0.34569 0.0
H2283 H 0.51699 0.04601 0.39623 0.0
H2284 H 0.41236 0.92552 0.4066 0.0
H2285 H 0.45345 0.96294 0.40694 0.0
C2286 C 0.46455 0.39541 0.39712 0.0
C2287 C 0.47981 0.38749 0.40549 0.0
C2288 C 0.46328 0.41548 0.40447 0.0
C2289 C 0.50514 0.47292 0.42748 0.0
H2290 H 0.45014 0.48506 0.42261 0.0
C2291 C 0.48512 0.56016 0.42547 0.0
C2292 C 0.50219 0.57426 0.41137 0.0
C2293 C 0.48149 0.53688 0.43046 0.0
C2294 C 0.4656 0.4819 0.42441 0.0
H2295 H 0.50343 0.39259 0.42934 0.0
H2296 H 0.50148 0.42797 0.44201 0.0
H2297 H 0.44233 0.4425 0.42226 0.0
H2298 H 0.52908 0.57483 0.39174 0.0
H2299 H 0.52328 0.5348 0.40086 0.0
H2300 H 0.52852 0.51231 0.42861 0.0
C2301 C 0.49079 0.41882 0.42962 0.0
C2302 C 0.46115 0.45758 0.42409 0.0
C2303 C 0.49194 0.39862 0.42234 0.0
C2304 C 0.51617 0.56487 0.40292 0.0
C2305 C 0.5128 0.54183 0.4081 0.0
C2306 C 0.50958 0.49718 0.42765 0.0
C2307 C 0.47732 0.42812 0.42028 0.0
C2308 C 0.48098 0.45291 0.42495 0.0
C2309 C 0.49517 0.52744 0.42169 0.0
C2310 C 0.48997 0.50192 0.42541 0.0
H2311 H 0.45512 0.38745 0.38406 0.0
H2312 H 0.4529 0.42232 0.39684 0.0
H2313 H 0.52085 0.46999 0.42801 0.0
H2314 H 0.47432 0.56698 0.4325 0.0
H2315 H 0.46785 0.52616 0.44104 0.0
C2316 C 0.50286 0.08332 0.9004 0.0
C2317 C 0.48954 0.08522 0.8852 0.0
C2318 C 0.50329 0.06145 0.90363 0.0
C2319 C 0.51723 0.02205 0.89489 0.0
H2320 H 0.46004 0.95594 0.89223 0.0
C2321 C 0.52153 0.934 0.87608 0.0
C2322 C 0.50611 0.91221 0.88611 0.0
C2323 C 0.52038 0.95555 0.8792 0.0
C2324 C 0.47616 0.97429 0.8932 0.0
H2325 H 0.46486 0.06493 0.86227 0.0
H2326 H 0.46508 0.02652 0.86826 0.0
H2327 H 0.45418 0.99193 0.89207 0.0
H2328 H 0.47878 0.89663 0.90833 0.0
H2329 H 0.47639 0.9341 0.9134 0.0
H2330 H 0.53926 0.00445 0.89539 0.0
C2331 C 0.47535 0.0421 0.87756 0.0
C2332 C 0.4728 0.99485 0.89298 0.0
C2333 C 0.47513 0.06409 0.87419 0.0
C2334 C 0.49052 0.91291 0.90005 0.0
C2335 C 0.48915 0.93435 0.903 0.0
C2336 C 0.52061 0.00151 0.89484 0.0
C2337 C 0.4901 0.04085 0.89192 0.0
C2338 C 0.49332 0.01893 0.89366 0.0
C2339 C 0.50365 0.95569 0.8923 0.0
C2340 C 0.50012 0.97745 0.89383 0.0
H2341 H 0.51373 0.09909 0.9094 0.0
H2342 H 0.51447 0.06084 0.915 0.0
H2343 H 0.53341 0.04042 0.89523 0.0
H2344 H 0.53355 0.9341 0.8651 0.0
H2345 H 0.53168 0.97172 0.87068 0.0
C2346 C 0.41998 0.50248 0.89884 0.0
C2347 C 0.40551 0.48816 0.88365 0.0
C2348 C 0.443 0.50469 0.90257 0.0
C2349 C 0.48268 0.4777 0.89408 0.0
H2350 H 0.53686 0.54575 0.89441 0.0
C2351 C 0.59185 0.5301 0.87622 0.0
C2352 C 0.59965 0.51653 0.8872 0.0
C2353 C 0.56872 0.52803 0.87926 0.0
C2354 C 0.52189 0.52669 0.89448 0.0
H2355 H 0.40335 0.4636 0.8613 0.0
H2356 H 0.44316 0.46683 0.86826 0.0
H2357 H 0.49401 0.53718 0.89372 0.0
H2358 H 0.59001 0.49177 0.91102 0.0
H2359 H 0.54935 0.48765 0.9159 0.0
H2360 H 0.51058 0.46722 0.89452 0.0
C2361 C 0.4367 0.47653 0.87713 0.0
C2362 C 0.49742 0.52177 0.89421 0.0
C2363 C 0.41381 0.47459 0.87321 0.0
C2364 C 0.58437 0.50204 0.90201 0.0
C2365 C 0.56112 0.49969 0.90486 0.0
C2366 C 0.50715 0.48262 0.89467 0.0
C2367 C 0.45186 0.49226 0.89144 0.0
C2368 C 0.47759 0.49724 0.89368 0.0
C2369 C 0.55282 0.51217 0.89321 0.0
C2370 C 0.52699 0.50716 0.89454 0.0
H2371 H 0.41391 0.51274 0.90744 0.0
H2372 H 0.45417 0.51663 0.91388 0.0
H2373 H 0.46773 0.45864 0.89371 0.0
H2374 H 0.60292 0.54121 0.86456 0.0
H2375 H 0.56271 0.53776 0.87001 0.0
C2376 C 0.0664 0.59347 0.86922 0.0
C2377 C 0.08769 0.59977 0.87993 0.0
C2378 C 0.04451 0.57102 0.8722 0.0
C2379 C 0.99742 0.52575 0.88692 0.0
H2380 H 0.0065 0.46854 0.88752 0.0
C2381 C 0.91481 0.42628 0.89251 0.0
C2382 C 0.91401 0.41011 0.87843 0.0
C2383 C 0.93637 0.44893 0.89566 0.0
C2384 C 0.0037 0.48434 0.88745 0.0
H2385 H 0.10195 0.5882 0.90316 0.0
H2386 H 0.06387 0.54881 0.90807 0.0
H2387 H 0.04268 0.51024 0.88786 0.0
H2388 H 0.93583 0.40464 0.85733 0.0
H2389 H 0.97364 0.4439 0.86319 0.0
H2390 H 0.95845 0.49985 0.88612 0.0
C2391 C 0.06429 0.56115 0.89723 0.0
C2392 C 0.02437 0.50819 0.8878 0.0
C2393 C 0.08608 0.5837 0.89439 0.0
C2394 C 0.93581 0.41647 0.86841 0.0
C2395 C 0.95747 0.43903 0.87171 0.0
C2396 C 0.97674 0.5019 0.88681 0.0
C2397 C 0.04348 0.55431 0.88585 0.0
C2398 C 0.02145 0.52914 0.88724 0.0
C2399 C 0.95774 0.45578 0.88499 0.0
C2400 C 0.97968 0.48096 0.88678 0.0
H2401 H 0.067 0.60521 0.85783 0.0
H2402 H 0.0288 0.56616 0.86314 0.0
H2403 H 0.99463 0.54155 0.88656 0.0
H2404 H 0.89852 0.42174 0.90078 0.0
H2405 H 0.93619 0.4613 0.90621 0.0
C2406 C 0.92566 0.50837 0.59404 0.0
C2407 C 0.90079 0.49086 0.59027 0.0
C2408 C 0.94463 0.50904 0.58331 0.0
C2409 C 0.98373 0.5074 0.56012 0.0
H2410 H 0.96987 0.4395 0.55923 0.0
C2411 C 0.06216 0.48531 0.56845 0.0
C2412 C 0.05726 0.46869 0.58334 0.0
C2413 C 0.04296 0.48748 0.56021 0.0
C2414 C 0.97405 0.45858 0.55916 0.0
H2415 H 0.87622 0.46255 0.57077 0.0
H2416 H 0.9095 0.46375 0.55191 0.0
H2417 H 0.9358 0.44775 0.5604 0.0
H2418 H 0.02814 0.44072 0.6007 0.0
H2419 H 0.99499 0.44439 0.58643 0.0
H2420 H 0.02207 0.51806 0.56092 0.0
C2421 C 0.9143 0.47658 0.56346 0.0
C2422 C 0.95447 0.46338 0.55958 0.0
C2423 C 0.89525 0.47588 0.57427 0.0
C2424 C 0.03261 0.4534 0.58908 0.0
C2425 C 0.0135 0.45548 0.58082 0.0
C2426 C 0.00334 0.50258 0.55991 0.0
C2427 C 0.93923 0.49222 0.56852 0.0
C2428 C 0.95911 0.48781 0.56134 0.0
C2429 C 0.01849 0.47297 0.56662 0.0
C2430 C 0.99864 0.47807 0.56067 0.0
H2431 H 0.93069 0.52007 0.60632 0.0
H2432 H 0.96352 0.52119 0.58783 0.0
H2433 H 0.98793 0.52646 0.56095 0.0
H2434 H 0.08092 0.49707 0.56349 0.0
H2435 H 0.04736 0.501 0.54921 0.0
C2436 C 0.58129 0.09856 0.60308 0.0
C2437 C 0.59742 0.09815 0.6167 0.0
C2438 C 0.55917 0.07703 0.59863 0.0
C2439 C 0.50658 0.03318 0.60452 0.0
H2440 H 0.50351 0.97023 0.59635 0.0
C2441 C 0.41786 0.9367 0.61232 0.0
C2442 C 0.41469 0.91831 0.59944 0.0
C2443 C 0.43921 0.96013 0.61177 0.0
C2444 C 0.50408 0.98772 0.59842 0.0
H2445 H 0.60312 0.07434 0.63577 0.0
H2446 H 0.56496 0.03671 0.6275 0.0
H2447 H 0.54371 0.00778 0.60006 0.0
H2448 H 0.43021 0.91076 0.57485 0.0
H2449 H 0.46747 0.95148 0.57402 0.0
H2450 H 0.46685 0.01293 0.60335 0.0
C2451 C 0.56947 0.05379 0.62037 0.0
C2452 C 0.52707 0.00915 0.60069 0.0
C2453 C 0.59144 0.07537 0.62502 0.0
C2454 C 0.4324 0.92438 0.58522 0.0
C2455 C 0.45373 0.94767 0.58473 0.0
C2456 C 0.48352 0.01165 0.6025 0.0
C2457 C 0.55286 0.05452 0.60745 0.0
C2458 C 0.52856 0.03206 0.60388 0.0
C2459 C 0.45774 0.9655 0.59836 0.0
C2460 C 0.48205 0.98869 0.59951 0.0
H2461 H 0.58552 0.11566 0.59612 0.0
H2462 H 0.54686 0.07801 0.5884 0.0
H2463 H 0.5072 0.05059 0.60714 0.0
H2464 H 0.40461 0.93253 0.62349 0.0
H2465 H 0.44186 0.97352 0.62248 0.0
C2466 C 0.47402 0.4407 0.59886 0.0
C2467 C 0.4867 0.43175 0.58801 0.0
C2468 C 0.47667 0.46388 0.59522 0.0
C2469 C 0.47705 0.50902 0.57879 0.0
H2470 H 0.54469 0.56389 0.57922 0.0
C2471 C 0.49679 0.6088 0.58364 0.0
C2472 C 0.51161 0.6212 0.59924 0.0
C2473 C 0.49605 0.58753 0.57661 0.0
C2474 C 0.52572 0.54875 0.57884 0.0
H2475 H 0.51133 0.43994 0.56425 0.0
H2476 H 0.51657 0.48092 0.55836 0.0
H2477 H 0.53687 0.52136 0.57764 0.0
H2478 H 0.53868 0.62193 0.61875 0.0
H2479 H 0.53769 0.58523 0.60629 0.0
H2480 H 0.46585 0.5362 0.58089 0.0
C2481 C 0.50456 0.4698 0.56965 0.0
C2482 C 0.52125 0.52445 0.57782 0.0
C2483 C 0.50164 0.44641 0.57311 0.0
C2484 C 0.52723 0.61305 0.60662 0.0
C2485 C 0.52664 0.59193 0.59948 0.0
C2486 C 0.48151 0.53327 0.57961 0.0
C2487 C 0.49227 0.47882 0.58079 0.0
C2488 C 0.49688 0.50437 0.57844 0.0
C2489 C 0.51033 0.57841 0.5849 0.0
C2490 C 0.5059 0.55335 0.58027 0.0
H2491 H 0.46277 0.43025 0.61066 0.0
H2492 H 0.4673 0.47055 0.60423 0.0
H2493 H 0.45809 0.49384 0.57915 0.0
H2494 H 0.48494 0.6149 0.57737 0.0
H2495 H 0.48356 0.57764 0.56518 0.0
C2496 C 0.73123 0.24106 0.1445 0.0
C2497 C 0.74786 0.24377 0.13019 0.0
C2498 C 0.70785 0.23765 0.14016 0.0
C2499 C 0.6627 0.21257 0.10198 0.0
H2500 H 0.62489 0.23228 0.13348 0.0
C2501 C 0.55971 0.17003 0.08905 0.0
C2502 C 0.54525 0.15955 0.1051 0.0
C2503 C 0.58468 0.18799 0.09068 0.0
C2504 C 0.63524 0.2267 0.12452 0.0
H2505 H 0.7538 0.24698 0.10019 0.0
H2506 H 0.71324 0.24152 0.09264 0.0
H2507 H 0.6693 0.24981 0.13903 0.0
H2508 H 0.54476 0.16079 0.13533 0.0
H2509 H 0.58859 0.19179 0.13829 0.0
H2510 H 0.62879 0.18875 0.08797 0.0
C2511 C 0.71797 0.24136 0.1072 0.0
C2512 C 0.66065 0.2367 0.12771 0.0
C2513 C 0.74125 0.24457 0.11153 0.0
C2514 C 0.55555 0.16881 0.12276 0.0
C2515 C 0.58067 0.18658 0.12442 0.0
C2516 C 0.63742 0.20264 0.0988 0.0
C2517 C 0.70069 0.23706 0.12143 0.0
C2518 C 0.67456 0.22932 0.11671 0.0
C2519 C 0.59578 0.19545 0.10841 0.0
C2520 C 0.62323 0.20915 0.11025 0.0
H2521 H 0.73579 0.24043 0.15903 0.0
H2522 H 0.69496 0.23416 0.15148 0.0
H2523 H 0.67263 0.20604 0.09347 0.0
H2524 H 0.55205 0.16319 0.07529 0.0
H2525 H 0.59566 0.1949 0.07806 0.0
C2526 C 0.37456 0.56357 0.11919 0.0
C2527 C 0.36657 0.5459 0.1336 0.0
C2528 C 0.38521 0.58875 0.12334 0.0
C2529 C 0.42271 0.63094 0.16017 0.0
H2530 H 0.41916 0.68055 0.12974 0.0
C2531 C 0.4933 0.73388 0.17068 0.0
C2532 C 0.50356 0.74769 0.15428 0.0
C2533 C 0.47182 0.71065 0.16991 0.0
C2534 C 0.42046 0.66694 0.13834 0.0
H2535 H 0.36183 0.54051 0.16356 0.0
H2536 H 0.38039 0.58462 0.17087 0.0
H2537 H 0.38879 0.63674 0.12522 0.0
H2538 H 0.49866 0.74848 0.12432 0.0
H2539 H 0.46168 0.70768 0.12285 0.0
H2540 H 0.45501 0.66067 0.17263 0.0
C2541 C 0.37856 0.57897 0.15635 0.0
C2542 C 0.40297 0.64186 0.1358 0.0
C2543 C 0.36773 0.55372 0.15218 0.0
C2544 C 0.4912 0.73831 0.13722 0.0
C2545 C 0.46986 0.71492 0.13641 0.0
C2546 C 0.44027 0.65593 0.16261 0.0
C2547 C 0.38824 0.59681 0.14201 0.0
C2548 C 0.40421 0.62355 0.14645 0.0
C2549 C 0.46025 0.70049 0.15269 0.0
C2550 C 0.43971 0.67426 0.15148 0.0
H2551 H 0.37379 0.55798 0.10474 0.0
H2552 H 0.39258 0.60197 0.11197 0.0
H2553 H 0.4245 0.61731 0.16838 0.0
H2554 H 0.50222 0.74075 0.18409 0.0
H2555 H 0.46465 0.7004 0.1828 0.0
C2556 C 0.75629 0.48295 0.13964 0.0
C2557 C 0.76961 0.50146 0.15301 0.0
C2558 C 0.75899 0.46205 0.13852 0.0
C2559 C 0.78545 0.42733 0.1625 0.0
H2560 H 0.8001 0.41662 0.11183 0.0
C2561 C 0.85218 0.39225 0.14413 0.0
C2562 C 0.84974 0.38066 0.12685 0.0
C2563 C 0.835 0.39924 0.14955 0.0
C2564 C 0.79545 0.41873 0.12604 0.0
H2565 H 0.79495 0.51174 0.17647 0.0
H2566 H 0.79998 0.47553 0.17432 0.0
H2567 H 0.78341 0.44372 0.1173 0.0
H2568 H 0.82685 0.3655 0.10226 0.0
H2569 H 0.79613 0.37673 0.11199 0.0
H2570 H 0.79851 0.40297 0.17123 0.0
C2571 C 0.78726 0.477 0.1648 0.0
C2572 C 0.78589 0.4344 0.12919 0.0
C2573 C 0.78452 0.49789 0.16595 0.0
C2574 C 0.82886 0.37423 0.11575 0.0
C2575 C 0.81151 0.38096 0.12124 0.0
C2576 C 0.79497 0.41152 0.15934 0.0
C2577 C 0.7751 0.45921 0.15072 0.0
C2578 C 0.78143 0.43946 0.14747 0.0
C2579 C 0.81509 0.39472 0.13772 0.0
C2580 C 0.80076 0.40759 0.1411 0.0
H2581 H 0.74441 0.48498 0.1296 0.0
H2582 H 0.74905 0.44847 0.12771 0.0
H2583 H 0.78187 0.43058 0.17674 0.0
H2584 H 0.86845 0.39773 0.15271 0.0
H2585 H 0.83855 0.40998 0.16224 0.0
C2586 C 0.28873 0.80785 0.16259 0.0
C2587 C 0.27566 0.80108 0.1456 0.0
C2588 C 0.31081 0.80739 0.16451 0.0
C2589 C 0.34952 0.78452 0.14182 0.0
H2590 H 0.40329 0.84115 0.16671 0.0
C2591 C 0.45274 0.82391 0.12559 0.0
C2592 C 0.47015 0.83542 0.13999 0.0
C2593 C 0.42744 0.81329 0.12924 0.0
C2594 C 0.38837 0.8249 0.16008 0.0
H2595 H 0.27528 0.78816 0.11737 0.0
H2596 H 0.31413 0.78812 0.12049 0.0
H2597 H 0.36196 0.83579 0.16724 0.0
H2598 H 0.47482 0.84316 0.16971 0.0
H2599 H 0.43049 0.82446 0.17614 0.0
H2600 H 0.37649 0.77446 0.13387 0.0
C2601 C 0.3071 0.79323 0.13251 0.0
C2602 C 0.36461 0.82182 0.16036 0.0
C2603 C 0.28491 0.79348 0.13066 0.0
C2604 C 0.46176 0.83431 0.15838 0.0
C2605 C 0.43643 0.82383 0.16202 0.0
C2606 C 0.37338 0.78772 0.14143 0.0
C2607 C 0.32044 0.80037 0.14942 0.0
C2608 C 0.34499 0.80191 0.15088 0.0
C2609 C 0.41911 0.81414 0.14735 0.0
C2610 C 0.39316 0.80824 0.15022 0.0
H2611 H 0.28192 0.81351 0.17445 0.0
H2612 H 0.32037 0.81263 0.17782 0.0
H2613 H 0.33474 0.76869 0.1347 0.0
H2614 H 0.45878 0.82445 0.11131 0.0
H2615 H 0.4146 0.80609 0.11762 0.0
C2616 C 0.60109 0.43519 0.10005 0.0
C2617 C 0.61431 0.45186 0.1145 0.0
C2618 C 0.59352 0.41013 0.1018 0.0
C2619 C 0.57668 0.3631 0.13803 0.0
H2620 H 0.56649 0.32138 0.09487 0.0
C2621 C 0.51252 0.25654 0.13995 0.0
C2622 C 0.4936 0.24906 0.12654 0.0
C2623 C 0.53362 0.28012 0.13889 0.0
C2624 C 0.56949 0.33281 0.1071 0.0
H2625 H 0.63111 0.45561 0.14175 0.0
H2626 H 0.61805 0.41164 0.14476 0.0
H2627 H 0.59354 0.36614 0.09229 0.0
H2628 H 0.48243 0.25961 0.10104 0.0
H2629 H 0.51929 0.30037 0.09902 0.0
H2630 H 0.55183 0.32973 0.1526 0.0
C2631 C 0.61331 0.41798 0.13215 0.0
C2632 C 0.58485 0.35841 0.10562 0.0
C2633 C 0.62094 0.44316 0.13037 0.0
C2634 C 0.49665 0.26497 0.11163 0.0
C2635 C 0.51786 0.28822 0.11038 0.0
C2636 C 0.56147 0.33743 0.13955 0.0
C2637 C 0.59905 0.4011 0.11804 0.0
C2638 C 0.58768 0.37394 0.12081 0.0
C2639 C 0.53632 0.29623 0.12417 0.0
C2640 C 0.55689 0.3222 0.12386 0.0
H2641 H 0.59603 0.44143 0.08753 0.0
H2642 H 0.5823 0.39768 0.09075 0.0
H2643 H 0.5783 0.37449 0.14998 0.0
H2644 H 0.51056 0.2446 0.15161 0.0
H2645 H 0.54761 0.28594 0.14971 0.0
C2646 C 0.16634 0.62445 0.12202 0.0
C2647 C 0.16138 0.62739 0.10335 0.0
C2648 C 0.1798 0.61266 0.12627 0.0
C2649 C 0.197 0.56915 0.10481 0.0
H2650 H 0.23633 0.58252 0.14989 0.0
C2651 C 0.24663 0.51525 0.12167 0.0
C2652 C 0.23977 0.50293 0.13899 0.0
C2653 C 0.24162 0.53422 0.11768 0.0
C2654 C 0.22544 0.57869 0.13724 0.0
H2655 H 0.16761 0.62178 0.07446 0.0
H2656 H 0.19219 0.60232 0.08172 0.0
H2657 H 0.21954 0.6093 0.14161 0.0
H2658 H 0.22398 0.50212 0.1662 0.0
H2659 H 0.21551 0.53559 0.15923 0.0
H2660 H 0.20311 0.53871 0.10039 0.0
C2661 C 0.18494 0.60814 0.09318 0.0
C2662 C 0.21568 0.5939 0.13252 0.0
C2663 C 0.17105 0.61946 0.08897 0.0
C2664 C 0.22935 0.51114 0.15269 0.0
C2665 C 0.2246 0.53036 0.14875 0.0
C2666 C 0.20708 0.55429 0.10935 0.0
C2667 C 0.18892 0.60394 0.1119 0.0
C2668 C 0.20104 0.58912 0.11635 0.0
C2669 C 0.22997 0.54149 0.13099 0.0
C2670 C 0.22114 0.55871 0.1257 0.0
H2671 H 0.15885 0.63028 0.13333 0.0
H2672 H 0.18213 0.6095 0.14083 0.0
H2673 H 0.18534 0.56439 0.09252 0.0
H2674 H 0.25482 0.5095 0.11083 0.0
H2675 H 0.24615 0.5427 0.10395 0.0
C2676 C 0.82301 0.45635 0.3904 0.0
C2677 C 0.83493 0.47242 0.37535 0.0
C2678 C 0.80947 0.43074 0.38759 0.0
C2679 C 0.785 0.38132 0.35057 0.0
H2680 H 0.79526 0.34389 0.38936 0.0
C2681 C 0.77877 0.28633 0.33928 0.0
C2682 C 0.76791 0.26845 0.35348 0.0
C2683 C 0.78178 0.30997 0.34155 0.0
C2684 C 0.79186 0.35397 0.37852 0.0
H2685 H 0.84143 0.47459 0.34552 0.0
H2686 H 0.81857 0.42989 0.34059 0.0
H2687 H 0.80985 0.38758 0.39413 0.0
H2688 H 0.75069 0.26104 0.38087 0.0
H2689 H 0.75627 0.30244 0.38492 0.0
H2690 H 0.76816 0.34763 0.33461 0.0
C2691 C 0.81896 0.43688 0.35452 0.0
C2692 C 0.80015 0.3791 0.38126 0.0
C2693 C 0.83214 0.46254 0.3573 0.0
C2694 C 0.75918 0.27439 0.36968 0.0
C2695 C 0.76247 0.29813 0.37205 0.0
C2696 C 0.777 0.3562 0.34773 0.0
C2697 C 0.80802 0.42057 0.36972 0.0
C2698 C 0.7971 0.39326 0.36726 0.0
C2699 C 0.77424 0.31631 0.35817 0.0
C2700 C 0.78058 0.34233 0.36161 0.0
H2701 H 0.82484 0.4636 0.40444 0.0
H2702 H 0.80076 0.41891 0.39957 0.0
H2703 H 0.78191 0.39142 0.33958 0.0
H2704 H 0.7856 0.28231 0.32659 0.0
H2705 H 0.79107 0.32363 0.33067 0.0
C2706 C 0.49373 0.76586 0.3995 0.0
C2707 C 0.49719 0.75827 0.3818 0.0
C2708 C 0.47369 0.76953 0.4028 0.0
C2709 C 0.41418 0.76013 0.38278 0.0
H2710 H 0.4342 0.82292 0.40707 0.0
C2711 C 0.36797 0.81921 0.37015 0.0
C2712 C 0.36942 0.83552 0.38428 0.0
C2713 C 0.37781 0.80364 0.37305 0.0
C2714 C 0.42796 0.80502 0.40065 0.0
H2715 H 0.48147 0.74716 0.35401 0.0
H2716 H 0.44688 0.75403 0.35963 0.0
H2717 H 0.46251 0.807 0.4063 0.0
H2718 H 0.37979 0.84657 0.41307 0.0
H2719 H 0.39625 0.81885 0.4184 0.0
H2720 H 0.37988 0.75881 0.37651 0.0
C2721 C 0.45943 0.75688 0.37106 0.0
C2722 C 0.44429 0.79587 0.40019 0.0
C2723 C 0.47941 0.7531 0.3678 0.0
C2724 C 0.37866 0.83428 0.40191 0.0
C2725 C 0.38825 0.81857 0.40488 0.0
C2726 C 0.39777 0.76932 0.38324 0.0
C2727 C 0.45671 0.76581 0.38845 0.0
C2728 C 0.43785 0.77358 0.39092 0.0
C2729 C 0.38912 0.80401 0.3902 0.0
C2730 C 0.40468 0.79216 0.39186 0.0
H2731 H 0.50693 0.76974 0.41066 0.0
H2732 H 0.47188 0.77595 0.41646 0.0
H2733 H 0.40851 0.74272 0.37574 0.0
H2734 H 0.36112 0.81998 0.35638 0.0
H2735 H 0.37824 0.79278 0.3614 0.0
C2736 C 0.73049 0.5045 0.34846 0.0
C2737 C 0.74756 0.51266 0.36332 0.0
C2738 C 0.70733 0.48312 0.35029 0.0
C2739 C 0.6621 0.4483 0.38633 0.0
H2740 H 0.6279 0.40046 0.34688 0.0
C2741 C 0.55962 0.37572 0.39489 0.0
C2742 C 0.54457 0.37204 0.37924 0.0
C2743 C 0.58537 0.3878 0.39304 0.0
C2744 C 0.63712 0.41374 0.358 0.0
H2745 H 0.75417 0.50406 0.3914 0.0
H2746 H 0.71358 0.46684 0.39463 0.0
H2747 H 0.6717 0.43143 0.34319 0.0
H2748 H 0.54438 0.37708 0.34931 0.0
H2749 H 0.58932 0.39889 0.34606 0.0
H2750 H 0.62757 0.4318 0.40077 0.0
C2751 C 0.71814 0.47709 0.38161 0.0
C2752 C 0.66223 0.4314 0.3559 0.0
C2753 C 0.7414 0.49835 0.37972 0.0
C2754 C 0.55561 0.3795 0.36156 0.0
C2755 C 0.5814 0.39195 0.35973 0.0
C2756 C 0.637 0.43089 0.38835 0.0
C2757 C 0.70067 0.46955 0.36706 0.0
C2758 C 0.67487 0.44908 0.36994 0.0
C2759 C 0.59667 0.39694 0.37555 0.0
C2760 C 0.62403 0.41358 0.3741 0.0
H2761 H 0.73472 0.51504 0.3356 0.0
H2762 H 0.69419 0.47788 0.33889 0.0
H2763 H 0.67122 0.46194 0.39727 0.0
H2764 H 0.55147 0.36994 0.40866 0.0
H2765 H 0.59645 0.39069 0.40546 0.0
C2766 C 0.16597 0.55534 0.35765 0.0
C2767 C 0.16142 0.54525 0.37571 0.0
C2768 C 0.18395 0.58016 0.35474 0.0
C2769 C 0.2116 0.6381 0.38167 0.0
H2770 H 0.24586 0.66709 0.33517 0.0
C2771 C 0.25699 0.74263 0.36974 0.0
C2772 C 0.25015 0.7491 0.35284 0.0
C2773 C 0.25328 0.71877 0.37235 0.0
C2774 C 0.23644 0.65926 0.34826 0.0
H2775 H 0.17315 0.55215 0.40461 0.0
H2776 H 0.20536 0.59515 0.3995 0.0
H2777 H 0.22703 0.62246 0.34017 0.0
H2778 H 0.23577 0.73615 0.32495 0.0
H2779 H 0.22903 0.69456 0.32958 0.0
H2780 H 0.22016 0.67455 0.38956 0.0
C2781 C 0.19467 0.58428 0.38762 0.0
C2782 C 0.22563 0.63368 0.35113 0.0
C2783 C 0.17648 0.55961 0.39054 0.0
C2784 C 0.24111 0.73174 0.33819 0.0
C2785 C 0.2374 0.7079 0.3408 0.0
C2786 C 0.22245 0.66357 0.37885 0.0
C2787 C 0.19776 0.59525 0.36988 0.0
C2788 C 0.21256 0.6227 0.36771 0.0
C2789 C 0.24267 0.70087 0.35812 0.0
C2790 C 0.2345 0.67441 0.36195 0.0
H2791 H 0.15427 0.54464 0.34608 0.0
H2792 H 0.18562 0.58793 0.34092 0.0
H2793 H 0.20127 0.63037 0.39446 0.0
H2794 H 0.26424 0.75563 0.38126 0.0
H2795 H 0.25795 0.71408 0.38575 0.0
C2796 C 0.63433 0.18969 0.3887 0.0
C2797 C 0.6409 0.18436 0.37127 0.0
C2798 C 0.62505 0.20592 0.38998 0.0
C2799 C 0.61086 0.24841 0.36198 0.0
H2800 H 0.55261 0.22024 0.3937 0.0
C2801 C 0.52337 0.25486 0.34738 0.0
C2802 C 0.51001 0.25661 0.36256 0.0
C2803 C 0.54468 0.25327 0.35039 0.0
C2804 C 0.56908 0.22873 0.38504 0.0
H2805 H 0.64441 0.19275 0.3417 0.0
H2806 H 0.62748 0.22041 0.3437 0.0
H2807 H 0.58112 0.20462 0.39572 0.0
H2808 H 0.5094 0.25966 0.39276 0.0
H2809 H 0.54653 0.25662 0.39801 0.0
H2810 H 0.59758 0.27143 0.35051 0.0
C2811 C 0.63001 0.21272 0.35653 0.0
C2812 C 0.58559 0.21982 0.38623 0.0
C2813 C 0.63971 0.19682 0.35532 0.0
C2814 C 0.5192 0.25818 0.38076 0.0
C2815 C 0.54041 0.25636 0.38379 0.0
C2816 C 0.59413 0.25714 0.36065 0.0
C2817 C 0.62158 0.21667 0.37377 0.0
C2818 C 0.60641 0.22909 0.37441 0.0
C2819 C 0.55298 0.25321 0.36866 0.0
C2820 C 0.57277 0.24698 0.37188 0.0
H2821 H 0.63518 0.1803 0.40119 0.0
H2822 H 0.61945 0.20904 0.40357 0.0
H2823 H 0.62691 0.25634 0.3529 0.0
H2824 H 0.51687 0.25377 0.33317 0.0
H2825 H 0.55383 0.25066 0.33846 0.0
C2826 C 0.45472 0.62734 0.3754 0.0
C2827 C 0.46159 0.62257 0.39294 0.0
C2828 C 0.43033 0.62194 0.37221 0.0
C2829 C 0.36885 0.59989 0.39587 0.0
H2830 H 0.34336 0.56095 0.35062 0.0
C2831 C 0.27111 0.51496 0.38879 0.0
C2832 C 0.25868 0.51051 0.37159 0.0
C2833 C 0.29499 0.53525 0.39094 0.0
C2834 C 0.35014 0.57215 0.36315 0.0
H2835 H 0.44928 0.61101 0.42137 0.0
H2836 H 0.40692 0.60107 0.41584 0.0
H2837 H 0.38778 0.58634 0.35501 0.0
H2838 H 0.26103 0.52466 0.34347 0.0
H2839 H 0.30282 0.55989 0.34721 0.0
H2840 H 0.33095 0.58417 0.40445 0.0
C2841 C 0.42007 0.60908 0.40447 0.0
C2842 C 0.37571 0.58687 0.36566 0.0
C2843 C 0.44437 0.61457 0.40765 0.0
C2844 C 0.27013 0.52747 0.35689 0.0
C2845 C 0.2941 0.54762 0.35899 0.0
C2846 C 0.34325 0.58492 0.39344 0.0
C2847 C 0.41241 0.61162 0.38651 0.0
C2848 C 0.38545 0.60031 0.38232 0.0
C2849 C 0.307 0.55139 0.37589 0.0
C2850 C 0.33367 0.57034 0.37729 0.0
H2851 H 0.46764 0.63354 0.36381 0.0
H2852 H 0.42522 0.62465 0.3583 0.0
H2853 H 0.37564 0.61038 0.40871 0.0
H2854 H 0.26276 0.50231 0.40042 0.0
H2855 H 0.30454 0.53754 0.4041 0.0
C2856 C 0.43534 0.81619 0.88515 0.0
C2857 C 0.45256 0.823 0.87051 0.0
C2858 C 0.41029 0.79934 0.88206 0.0
C2859 C 0.36586 0.78163 0.84428 0.0
H2860 H 0.31985 0.73596 0.88094 0.0
C2861 C 0.26164 0.74379 0.83571 0.0
C2862 C 0.24959 0.74509 0.85192 0.0
C2863 C 0.28498 0.74584 0.83687 0.0
C2864 C 0.33244 0.74867 0.87056 0.0
H2865 H 0.45743 0.81636 0.8415 0.0
H2866 H 0.41351 0.78682 0.83605 0.0
H2867 H 0.36435 0.7529 0.88522 0.0
H2868 H 0.2519 0.74795 0.88217 0.0
H2869 H 0.29275 0.7522 0.88418 0.0
H2870 H 0.33436 0.77872 0.83016 0.0
C2871 C 0.41941 0.79463 0.8499 0.0
C2872 C 0.35791 0.75828 0.87298 0.0
C2873 C 0.44454 0.81136 0.85305 0.0
C2874 C 0.26069 0.74693 0.8694 0.0
C2875 C 0.28413 0.74921 0.87055 0.0
C2876 C 0.34046 0.7722 0.84193 0.0
C2877 C 0.40191 0.78907 0.86422 0.0
C2878 C 0.37492 0.77539 0.86012 0.0
C2879 C 0.29692 0.74946 0.85425 0.0
C2880 C 0.32343 0.75614 0.85531 0.0
H2881 H 0.4411 0.82481 0.89878 0.0
H2882 H 0.3973 0.79563 0.89335 0.0
H2883 H 0.37846 0.79505 0.83426 0.0
H2884 H 0.25343 0.74206 0.82204 0.0
H2885 H 0.29402 0.74537 0.82407 0.0
C2886 C 0.63237 0.45207 0.85643 0.0
C2887 C 0.63655 0.46386 0.87382 0.0
C2888 C 0.62304 0.4265 0.85547 0.0
C2889 C 0.5853 0.37134 0.88474 0.0
H2890 H 0.59114 0.33675 0.84173 0.0
C2891 C 0.52149 0.26646 0.8762 0.0
C2892 C 0.50847 0.2601 0.85917 0.0
C2893 C 0.54252 0.28981 0.87855 0.0
C2894 C 0.58946 0.34618 0.85388 0.0
H2895 H 0.63632 0.45901 0.90377 0.0
H2896 H 0.62137 0.41461 0.90222 0.0
H2897 H 0.61982 0.38116 0.84531 0.0
H2898 H 0.50829 0.2725 0.83085 0.0
H2899 H 0.54502 0.31314 0.83495 0.0
H2900 H 0.55475 0.33649 0.89313 0.0
C2901 C 0.62432 0.42473 0.88927 0.0
C2902 C 0.60579 0.37164 0.85591 0.0
C2903 C 0.63318 0.45019 0.89021 0.0
C2904 C 0.51782 0.27692 0.84419 0.0
C2905 C 0.53897 0.30014 0.84648 0.0
C2906 C 0.56925 0.34591 0.88283 0.0
C2907 C 0.61799 0.41232 0.87193 0.0
C2908 C 0.60348 0.38471 0.87111 0.0
C2909 C 0.55109 0.30711 0.86386 0.0
C2910 C 0.57071 0.33317 0.86714 0.0
H2911 H 0.63458 0.46228 0.84363 0.0
H2912 H 0.61822 0.41773 0.84187 0.0
H2913 H 0.58246 0.38065 0.89644 0.0
H2914 H 0.51482 0.25387 0.88799 0.0
H2915 H 0.55163 0.29464 0.89205 0.0
C2916 C 0.18516 0.63019 0.84833 0.0
C2917 C 0.17674 0.63279 0.86591 0.0
C2918 C 0.2008 0.62016 0.84682 0.0
C2919 C 0.21579 0.57856 0.87372 0.0
H2920 H 0.26133 0.59078 0.83282 0.0
C2921 C 0.26259 0.51996 0.86553 0.0
C2922 C 0.25971 0.50925 0.84774 0.0
C2923 C 0.25824 0.53968 0.86824 0.0
C2924 C 0.24869 0.58721 0.84434 0.0
H2925 H 0.17932 0.62881 0.89574 0.0
H2926 H 0.2076 0.61255 0.89329 0.0
H2927 H 0.24368 0.61777 0.83703 0.0
H2928 H 0.25185 0.51215 0.81858 0.0
H2929 H 0.2443 0.54655 0.82332 0.0
H2930 H 0.22049 0.54789 0.88088 0.0
C2931 C 0.20153 0.61731 0.88056 0.0
C2932 C 0.23849 0.60261 0.84673 0.0
C2933 C 0.18559 0.62691 0.88202 0.0
C2934 C 0.25411 0.51986 0.83249 0.0
C2935 C 0.24989 0.53969 0.83519 0.0
C2936 C 0.22614 0.56339 0.87143 0.0
C2937 C 0.20852 0.61279 0.86291 0.0
C2938 C 0.22157 0.59825 0.8613 0.0
C2939 C 0.25108 0.54926 0.8532 0.0
C2940 C 0.2424 0.56725 0.85656 0.0
H2941 H 0.1783 0.63432 0.8357 0.0
H2942 H 0.20555 0.61682 0.83298 0.0
H2943 H 0.2024 0.5741 0.88482 0.0
H2944 H 0.26705 0.51239 0.87758 0.0
H2945 H 0.25968 0.54692 0.88224 0.0
C2946 C 0.74389 0.26148 0.84454 0.0
C2947 C 0.75605 0.25952 0.86046 0.0
C2948 C 0.71956 0.25693 0.84572 0.0
C2949 C 0.6689 0.24626 0.87915 0.0
H2950 H 0.62663 0.20405 0.83933 0.0
C2951 C 0.56386 0.17917 0.88742 0.0
C2952 C 0.54821 0.17412 0.87188 0.0
C2953 C 0.5894 0.19523 0.88586 0.0
C2954 C 0.63814 0.21624 0.8504 0.0
H2955 H 0.75262 0.25268 0.89034 0.0
H2956 H 0.71011 0.24429 0.89237 0.0
H2957 H 0.6712 0.22197 0.83697 0.0
H2958 H 0.54692 0.1831 0.84279 0.0
H2959 H 0.5916 0.21142 0.84006 0.0
H2960 H 0.63552 0.23957 0.89288 0.0
C2961 C 0.71941 0.24965 0.87897 0.0
C2962 C 0.66382 0.22657 0.84905 0.0
C2963 C 0.74384 0.2544 0.8778 0.0
C2964 C 0.55848 0.1867 0.85503 0.0
C2965 C 0.5841 0.2027 0.85343 0.0
C2966 C 0.64315 0.23581 0.88053 0.0
C2967 C 0.70667 0.25009 0.86283 0.0
C2968 C 0.67956 0.24139 0.86354 0.0
C2969 C 0.59995 0.20658 0.86868 0.0
C2970 C 0.62742 0.2203 0.86631 0.0
H2971 H 0.75285 0.26565 0.83099 0.0
H2972 H 0.7106 0.25806 0.83308 0.0
H2973 H 0.68042 0.25788 0.89045 0.0
H2974 H 0.55644 0.16986 0.90063 0.0
H2975 H 0.60099 0.19762 0.89786 0.0
C2976 C 0.37546 0.55377 0.85087 0.0
C2977 C 0.37001 0.54149 0.86813 0.0
C2978 C 0.38511 0.57943 0.85016 0.0
C2979 C 0.42126 0.63382 0.88058 0.0
H2980 H 0.41686 0.66995 0.83801 0.0
C2981 C 0.48311 0.73939 0.87598 0.0
C2982 C 0.49665 0.74763 0.85923 0.0
C2983 C 0.46261 0.71549 0.87727 0.0
C2984 C 0.4182 0.66009 0.85002 0.0
H2985 H 0.36845 0.54566 0.89803 0.0
H2986 H 0.38402 0.59019 0.89685 0.0
H2987 H 0.38882 0.62522 0.84018 0.0
H2988 H 0.49815 0.73785 0.83033 0.0
H2989 H 0.46243 0.69622 0.83261 0.0
H2990 H 0.45084 0.66851 0.89025 0.0
C2991 C 0.38176 0.58037 0.88385 0.0
C2992 C 0.4022 0.63444 0.85125 0.0
C2993 C 0.37253 0.55483 0.88456 0.0
C2994 C 0.48823 0.73204 0.84348 0.0
C2995 C 0.46764 0.70821 0.84474 0.0
C2996 C 0.43702 0.6594 0.87943 0.0
C2997 C 0.38927 0.59322 0.86672 0.0
C2998 C 0.40386 0.62087 0.86637 0.0
C2999 C 0.45508 0.69938 0.86182 0.0
C3000 C 0.43604 0.67278 0.86397 0.0
H3001 H 0.37396 0.54384 0.83805 0.0
H3002 H 0.39083 0.58857 0.83672 0.0
H3003 H 0.42362 0.62411 0.89223 0.0
H3004 H 0.48898 0.75096 0.88835 0.0
H3005 H 0.45309 0.70932 0.89056 0.0
C3006 C 0.74192 0.48511 0.8329 0.0
C3007 C 0.74277 0.49775 0.84941 0.0
C3008 C 0.74503 0.46439 0.8335 0.0
C3009 C 0.74965 0.4197 0.86601 0.0
H3010 H 0.79613 0.42215 0.82886 0.0
C3011 C 0.81792 0.38459 0.87833 0.0
C3012 C 0.82468 0.3747 0.8633 0.0
C3013 C 0.80109 0.39292 0.87575 0.0
C3014 C 0.78271 0.42077 0.83912 0.0
H3015 H 0.74601 0.4976 0.87961 0.0
H3016 H 0.75201 0.462 0.88064 0.0
H3017 H 0.77901 0.44943 0.82585 0.0
H3018 H 0.81805 0.36436 0.83407 0.0
H3019 H 0.78854 0.37901 0.82948 0.0
H3020 H 0.75457 0.3919 0.87978 0.0
C3021 C 0.7486 0.46775 0.86721 0.0
C3022 C 0.77283 0.43645 0.8374 0.0
C3023 C 0.7453 0.48833 0.86662 0.0
C3024 C 0.81307 0.37181 0.84591 0.0
C3025 C 0.79636 0.38038 0.84326 0.0
C3026 C 0.7597 0.40412 0.8678 0.0
C3027 C 0.74923 0.45593 0.85061 0.0
C3028 C 0.75667 0.43661 0.85108 0.0
C3029 C 0.79078 0.39173 0.85802 0.0
C3030 C 0.77683 0.40495 0.85462 0.0
H3031 H 0.73972 0.49171 0.81942 0.0
H3032 H 0.74485 0.45545 0.82047 0.0
H3033 H 0.73689 0.41894 0.87661 0.0
H3034 H 0.82657 0.38694 0.8919 0.0
H3035 H 0.79738 0.40172 0.88738 0.0
C3036 C 0.15614 0.53017 0.60217 0.0
C3037 C 0.13862 0.51522 0.61556 0.0
C3038 C 0.17339 0.55479 0.6063 0.0
C3039 C 0.1961 0.60257 0.64447 0.0
H3040 H 0.19928 0.64499 0.60364 0.0
C3041 C 0.20481 0.69849 0.65332 0.0
C3042 C 0.21825 0.71681 0.63987 0.0
C3043 C 0.20234 0.67502 0.65177 0.0
C3044 C 0.19909 0.63352 0.61511 0.0
H3045 H 0.12581 0.51335 0.64393 0.0
H3046 H 0.15518 0.55661 0.65104 0.0
H3047 H 0.18217 0.60116 0.59814 0.0
H3048 H 0.24119 0.72549 0.61504 0.0
H3049 H 0.23675 0.6845 0.61234 0.0
H3050 H 0.21165 0.63516 0.66165 0.0
C3051 C 0.15633 0.54941 0.63754 0.0
C3052 C 0.18932 0.60828 0.61195 0.0
C3053 C 0.1394 0.52465 0.63348 0.0
C3054 C 0.23044 0.71169 0.62551 0.0
C3055 C 0.22791 0.68822 0.62394 0.0
C3056 C 0.20566 0.62788 0.64768 0.0
C3057 C 0.17294 0.56504 0.62375 0.0
C3058 C 0.18712 0.59233 0.62667 0.0
C3059 C 0.21322 0.66944 0.63673 0.0
C3060 C 0.20671 0.64348 0.63309 0.0
H3061 H 0.15577 0.52309 0.58826 0.0
H3062 H 0.18631 0.56608 0.59551 0.0
H3063 H 0.19508 0.59092 0.65607 0.0
H3064 H 0.19534 0.70192 0.66462 0.0
H3065 H 0.19075 0.66085 0.66175 0.0
C3066 C 0.5045 0.24262 0.63695 0.0
C3067 C 0.48734 0.23354 0.65166 0.0
C3068 C 0.52792 0.24518 0.63918 0.0
C3069 C 0.55734 0.21798 0.6681 0.0
H3070 H 0.61239 0.25682 0.63468 0.0
C3071 C 0.63178 0.19212 0.65763 0.0
C3072 C 0.63094 0.18465 0.63899 0.0
C3073 C 0.6222 0.20739 0.66243 0.0
C3074 C 0.59733 0.24617 0.64433 0.0
H3075 H 0.48179 0.22242 0.68075 0.0
H3076 H 0.52315 0.22823 0.68506 0.0
H3077 H 0.57977 0.26736 0.63837 0.0
H3078 H 0.62174 0.18891 0.61055 0.0
H3079 H 0.60525 0.21587 0.61889 0.0
H3080 H 0.57466 0.19654 0.67374 0.0
C3081 C 0.51827 0.23221 0.67149 0.0
C3082 C 0.5785 0.25199 0.64632 0.0
C3083 C 0.4946 0.22899 0.66908 0.0
C3084 C 0.62247 0.19441 0.62502 0.0
C3085 C 0.61325 0.20997 0.62978 0.0
C3086 C 0.57637 0.21253 0.66639 0.0
C3087 C 0.53486 0.23926 0.65632 0.0
C3088 C 0.55763 0.23717 0.65752 0.0
C3089 C 0.61199 0.21566 0.64862 0.0
C3090 C 0.59594 0.22585 0.65387 0.0
H3091 H 0.49931 0.24627 0.62336 0.0
H3092 H 0.53988 0.25034 0.62705 0.0
H3093 H 0.54157 0.20582 0.67667 0.0
H3094 H 0.63813 0.18469 0.66864 0.0
H3095 H 0.62141 0.21154 0.67705 0.0
C3096 C 0.43895 0.64248 0.61221 0.0
C3097 C 0.45476 0.64626 0.62738 0.0
C3098 C 0.41332 0.63033 0.61475 0.0
C3099 C 0.36767 0.58161 0.64439 0.0
H3100 H 0.32108 0.59071 0.6143 0.0
C3101 C 0.26571 0.50428 0.63864 0.0
C3102 C 0.25634 0.49906 0.62029 0.0
C3103 C 0.28771 0.52625 0.64266 0.0
C3104 C 0.33384 0.58788 0.6228 0.0
H3105 H 0.45649 0.64207 0.6573 0.0
H3106 H 0.41149 0.62081 0.66184 0.0
H3107 H 0.36429 0.62381 0.61609 0.0
H3108 H 0.26214 0.51339 0.59197 0.0
H3109 H 0.30057 0.55129 0.59886 0.0
H3110 H 0.33774 0.5453 0.65034 0.0
C3111 C 0.41893 0.62713 0.64795 0.0
C3112 C 0.35857 0.60689 0.62388 0.0
C3113 C 0.44466 0.6395 0.64541 0.0
C3114 C 0.26885 0.51678 0.60625 0.0
C3115 C 0.29085 0.53867 0.61025 0.0
C3116 C 0.34301 0.56259 0.64326 0.0
C3117 C 0.40295 0.62152 0.63251 0.0
C3118 C 0.37593 0.60368 0.63424 0.0
C3119 C 0.30087 0.54347 0.62842 0.0
C3120 C 0.32594 0.56517 0.63198 0.0
H3121 H 0.44636 0.64748 0.59817 0.0
H3122 H 0.40162 0.62619 0.60253 0.0
H3123 H 0.3806 0.57834 0.65228 0.0
H3124 H 0.25642 0.49111 0.64982 0.0
H3125 H 0.29467 0.5295 0.65687 0.0
C3126 C 0.77522 0.23668 0.63124 0.0
C3127 C 0.78661 0.22888 0.64443 0.0
C3128 C 0.77765 0.2602 0.63257 0.0
C3129 C 0.81953 0.32188 0.65333 0.0
H3130 H 0.77059 0.33718 0.63403 0.0
C3131 C 0.83939 0.42239 0.65023 0.0
C3132 C 0.83586 0.42951 0.63237 0.0
C3133 C 0.8293 0.39729 0.65467 0.0
C3134 C 0.7844 0.33316 0.63952 0.0
H3135 H 0.80805 0.23896 0.67007 0.0
H3136 H 0.81156 0.27953 0.67278 0.0
H3137 H 0.76038 0.29402 0.63664 0.0
H3138 H 0.81767 0.41608 0.60564 0.0
H3139 H 0.79981 0.37229 0.61343 0.0
H3140 H 0.8436 0.361 0.65603 0.0
C3141 C 0.80148 0.26792 0.66101 0.0
C3142 C 0.77862 0.30843 0.64093 0.0
C3143 C 0.79932 0.24455 0.65954 0.0
C3144 C 0.82069 0.41107 0.6195 0.0
C3145 C 0.81039 0.38601 0.624 0.0
C3146 C 0.82519 0.34653 0.65211 0.0
C3147 C 0.79128 0.27638 0.64726 0.0
C3148 C 0.79629 0.30246 0.64751 0.0
C3149 C 0.81526 0.37884 0.64141 0.0
C3150 C 0.80788 0.3525 0.64486 0.0
H3151 H 0.76533 0.22506 0.61941 0.0
H3152 H 0.76974 0.26604 0.62159 0.0
H3153 H 0.83386 0.3182 0.65812 0.0
H3154 H 0.85117 0.43622 0.66036 0.0
H3155 H 0.83317 0.39232 0.66826 0.0
C3156 C 0.50116 0.7459 0.63178 0.0
C3157 C 0.52056 0.75524 0.61869 0.0
C3158 C 0.47996 0.74762 0.62852 0.0
C3159 C 0.44728 0.7652 0.59303 0.0
H3160 H 0.43134 0.79173 0.63651 0.0
C3161 C 0.40647 0.82995 0.58885 0.0
C3162 C 0.39067 0.82931 0.60314 0.0
C3163 C 0.41664 0.81445 0.58951 0.0
C3164 C 0.43507 0.78384 0.6243 0.0
H3165 H 0.53216 0.77195 0.59128 0.0
H3166 H 0.4955 0.7755 0.58573 0.0
H3167 H 0.45935 0.77557 0.63971 0.0
H3168 H 0.372 0.81089 0.62877 0.0
H3169 H 0.38959 0.78356 0.62986 0.0
H3170 H 0.42371 0.77462 0.57751 0.0
C3171 C 0.4964 0.76654 0.59844 0.0
C3172 C 0.45118 0.77451 0.62613 0.0
C3173 C 0.51751 0.76457 0.60163 0.0
C3174 C 0.38408 0.81178 0.61754 0.0
C3175 C 0.39434 0.7963 0.61824 0.0
C3176 C 0.43117 0.77463 0.59119 0.0
C3177 C 0.47781 0.75898 0.61218 0.0
C3178 C 0.45796 0.76557 0.61046 0.0
C3179 C 0.41129 0.79795 0.60451 0.0
C3180 C 0.42533 0.78459 0.60674 0.0
H3181 H 0.50282 0.73825 0.64495 0.0
H3182 H 0.46572 0.74099 0.63918 0.0
H3183 H 0.45179 0.75811 0.58073 0.0
H3184 H 0.41163 0.84306 0.57744 0.0
H3185 H 0.42974 0.81638 0.57877 0.0
C3186 C 0.54332 0.38946 0.5805 0.0
C3187 C 0.52967 0.38339 0.59719 0.0
C3188 C 0.56809 0.39547 0.58065 0.0
C3189 C 0.61913 0.39894 0.61002 0.0
H3190 H 0.65753 0.46229 0.58515 0.0
C3191 C 0.71783 0.47198 0.63246 0.0
C3192 C 0.73414 0.489 0.61923 0.0
C3193 C 0.69391 0.45386 0.62728 0.0
C3194 C 0.64731 0.44434 0.59182 0.0
H3195 H 0.53038 0.3768 0.62684 0.0
H3196 H 0.5739 0.3876 0.62722 0.0
H3197 H 0.61319 0.43858 0.58045 0.0
H3198 H 0.73885 0.49911 0.58989 0.0
H3199 H 0.69731 0.46706 0.58072 0.0
H3200 H 0.6534 0.40522 0.62184 0.0
C3201 C 0.56544 0.38747 0.61396 0.0
C3202 C 0.62174 0.43068 0.58913 0.0
C3203 C 0.54052 0.38127 0.61377 0.0
C3204 C 0.7266 0.48646 0.60046 0.0
C3205 C 0.70274 0.46817 0.59523 0.0
C3206 C 0.64484 0.41258 0.61264 0.0
C3207 C 0.57979 0.39577 0.59754 0.0
C3208 C 0.60725 0.40809 0.5985 0.0
C3209 C 0.68579 0.45217 0.6087 0.0
C3210 C 0.65917 0.43576 0.60391 0.0
H3211 H 0.53524 0.39105 0.56752 0.0
H3212 H 0.57849 0.40126 0.5677 0.0
H3213 H 0.6085 0.38148 0.61731 0.0
H3214 H 0.72306 0.47337 0.64705 0.0
H3215 H 0.68139 0.4421 0.63809 0.0
loop_
_geom_bond_atom_site_label_1
_geom_bond_atom_site_label_2
_geom_bond_distance
_geom_bond_site_symmetry_2
_ccdc_geom_bond_type
O0 Tb1 2.292 . S
O0 C3 1.255 . S
Tb1 O0 2.292 . S
Tb1 O17 2.326 . S
Tb1 O19 2.500 . S
Tb1 O20 2.473 . S
Tb1 O23 2.324 . S
Eu2 O6 2.292 . S
Eu2 C7 2.852 . S
Eu2 O18 2.324 . S
Eu2 O22 2.326 . S
Eu2 O24 2.500 . S
Eu2 O25 2.473 . S
C3 O0 1.255 . S
C3 O4 1.247 . S
O4 C3 1.247 . S
C5 O17 1.242 . S
C5 O18 1.258 . S
O6 Eu2 2.292 . S
O6 C8 1.255 . S
C7 Eu2 2.852 . S
C7 C11 1.503 . S
C7 O24 1.273 . S
C7 O25 1.257 . S
C8 O6 1.255 . S
C8 O9 1.247 . S
O9 C8 1.247 . S
C10 O22 1.242 . S
C10 O23 1.258 . S
C11 C7 1.503 . S
C11 C12 1.379 . S
C11 C16 1.392 . S
C12 C11 1.379 . S
C12 C13 1.404 . S
C12 H26 0.929 . S
C13 C12 1.404 . S
C13 C14 1.389 . S
C14 C13 1.389 . S
C14 C15 1.399 . S
C14 H27 0.931 . S
C15 C14 1.399 . S
C15 C16 1.390 . S
C16 C11 1.392 . S
C16 C15 1.390 . S
C16 H28 0.929 . S
O17 Tb1 2.326 . S
O17 C5 1.242 . S
O18 Eu2 2.324 . S
O18 C5 1.258 . S
O19 Tb1 2.500 . S
O19 C21 1.273 . S
O20 Tb1 2.473 . S
O20 C21 1.257 . S
C21 O19 1.273 . S
C21 O20 1.257 . S
O22 Eu2 2.326 . S
O22 C10 1.242 . S
O23 Tb1 2.324 . S
O23 C10 1.258 . S
O24 Eu2 2.500 . S
O24 C7 1.273 . S
O25 Eu2 2.473 . S
O25 C7 1.257 . S
H26 C12 0.929 . S
H27 C14 0.931 . S
H28 C16 0.929 . S
O29 Tb30 2.292 . S
O29 C32 1.255 . S
Tb30 O29 2.292 . S
Tb30 O46 2.326 . S
Tb30 O48 2.500 . S
Tb30 O49 2.473 . S
Tb30 O52 2.324 . S
Eu31 O35 2.292 . S
Eu31 C36 2.852 . S
Eu31 O47 2.324 . S
Eu31 O51 2.326 . S
Eu31 O53 2.500 . S
Eu31 O54 2.473 . S
C32 O29 1.255 . S
C32 O33 1.247 . S
O33 C32 1.247 . S
C34 O46 1.242 . S
C34 O47 1.258 . S
O35 Eu31 2.292 . S
O35 C37 1.255 . S
C36 Eu31 2.852 . S
C36 C40 1.503 . S
C36 O53 1.273 . S
C36 O54 1.257 . S
C37 O35 1.255 . S
C37 O38 1.247 . S
O38 C37 1.247 . S
C39 O51 1.242 . S
C39 O52 1.258 . S
C40 C36 1.503 . S
C40 C41 1.379 . S
C40 C45 1.392 . S
C41 C40 1.379 . S
C41 C42 1.404 . S
C41 H55 0.929 . S
C42 C41 1.404 . S
C42 C43 1.389 . S
C43 C42 1.389 . S
C43 C44 1.399 . S
C43 H56 0.931 . S
C44 C43 1.399 . S
C44 C45 1.390 . S
C45 C40 1.392 . S
C45 C44 1.390 . S
C45 H57 0.929 . S
O46 Tb30 2.326 . S
O46 C34 1.242 . S
O47 Eu31 2.324 . S
O47 C34 1.258 . S
O48 Tb30 2.500 . S
O48 C50 1.273 . S
O49 Tb30 2.473 . S
O49 C50 1.257 . S
C50 O48 1.273 . S
C50 O49 1.257 . S
O51 Eu31 2.326 . S
O51 C39 1.242 . S
O52 Tb30 2.324 . S
O52 C39 1.258 . S
O53 Eu31 2.500 . S
O53 C36 1.273 . S
O54 Eu31 2.473 . S
O54 C36 1.257 . S
H55 C41 0.929 . S
H56 C43 0.931 . S
H57 C45 0.929 . S
O58 Tb59 2.292 . S
O58 C61 1.255 . S
Tb59 O58 2.292 . S
Tb59 O75 2.326 . S
Tb59 O77 2.500 . S
Tb59 O78 2.473 . S
Tb59 O81 2.324 . S
Eu60 O64 2.292 . S
Eu60 C65 2.852 . S
Eu60 O76 2.324 . S
Eu60 O80 2.326 . S
Eu60 O82 2.500 . S
Eu60 O83 2.473 . S
C61 O58 1.255 . S
C61 O62 1.247 . S
O62 C61 1.247 . S
C63 O75 1.242 . S
C63 O76 1.258 . S
O64 Eu60 2.292 . S
O64 C66 1.255 . S
C65 Eu60 2.852 . S
C65 C69 1.503 . S
C65 O82 1.273 . S
C65 O83 1.257 . S
C66 O64 1.255 . S
C66 O67 1.247 . S
O67 C66 1.247 . S
C68 O80 1.242 . S
C68 O81 1.258 . S
C69 C65 1.503 . S
C69 C70 1.379 . S
C69 C74 1.392 . S
C70 C69 1.379 . S
C70 C71 1.404 . S
C70 H84 0.929 . S
C71 C70 1.404 . S
C71 C72 1.389 . S
C72 C71 1.389 . S
C72 C73 1.399 . S
C72 H85 0.931 . S
C73 C72 1.399 . S
C73 C74 1.390 . S
C74 C69 1.392 . S
C74 C73 1.390 . S
C74 H86 0.929 . S
O75 Tb59 2.326 . S
O75 C63 1.242 . S
O76 Eu60 2.324 . S
O76 C63 1.258 . S
O77 Tb59 2.500 . S
O77 C79 1.273 . S
O78 Tb59 2.473 . S
O78 C79 1.257 . S
C79 O77 1.273 . S
C79 O78 1.257 . S
O80 Eu60 2.326 . S
O80 C68 1.242 . S
O81 Tb59 2.324 . S
O81 C68 1.258 . S
O82 Eu60 2.500 . S
O82 C65 1.273 . S
O83 Eu60 2.473 . S
O83 C65 1.257 . S
H84 C70 0.929 . S
H85 C72 0.931 . S
H86 C74 0.929 . S
O87 Tb88 2.292 . S
O87 C90 1.255 . S
Tb88 O87 2.292 . S
Tb88 O104 2.326 . S
Tb88 O106 2.500 . S
Tb88 O107 2.473 . S
Tb88 O110 2.324 . S
Eu89 O93 2.292 . S
Eu89 C94 2.852 . S
Eu89 O105 2.324 . S
Eu89 O109 2.326 . S
Eu89 O111 2.500 . S
Eu89 O112 2.473 . S
C90 O87 1.255 . S
C90 O91 1.247 . S
O91 C90 1.247 . S
C92 O104 1.242 . S
C92 O105 1.258 . S
O93 Eu89 2.292 . S
O93 C95 1.255 . S
C94 Eu89 2.852 . S
C94 C98 1.503 . S
C94 O111 1.273 . S
C94 O112 1.257 . S
C95 O93 1.255 . S
C95 O96 1.247 . S
O96 C95 1.247 . S
C97 O109 1.242 . S
C97 O110 1.258 . S
C98 C94 1.503 . S
C98 C99 1.379 . S
C98 C103 1.392 . S
C99 C98 1.379 . S
C99 C100 1.404 . S
C99 H113 0.929 . S
C100 C99 1.404 . S
C100 C101 1.389 . S
C101 C100 1.389 . S
C101 C102 1.399 . S
C101 H114 0.931 . S
C102 C101 1.399 . S
C102 C103 1.390 . S
C103 C98 1.392 . S
C103 C102 1.390 . S
C103 H115 0.929 . S
O104 Tb88 2.326 . S
O104 C92 1.242 . S
O105 Eu89 2.324 . S
O105 C92 1.258 . S
O106 Tb88 2.500 . S
O106 C108 1.273 . S
O107 Tb88 2.473 . S
O107 C108 1.257 . S
C108 O106 1.273 . S
C108 O107 1.257 . S
O109 Eu89 2.326 . S
O109 C97 1.242 . S
O110 Tb88 2.324 . S
O110 C97 1.258 . S
O111 Eu89 2.500 . S
O111 C94 1.273 . S
O112 Eu89 2.473 . S
O112 C94 1.257 . S
H113 C99 0.929 . S
H114 C101 0.931 . S
H115 C103 0.929 . S
O116 Tb117 2.292 . S
O116 C119 1.255 . S
Tb117 O116 2.292 . S
Tb117 O133 2.326 . S
Tb117 O135 2.500 . S
Tb117 O136 2.473 . S
Tb117 O139 2.324 . S
Eu118 O122 2.292 . S
Eu118 C123 2.852 . S
Eu118 O134 2.324 . S
Eu118 O138 2.326 . S
Eu118 O140 2.500 . S
Eu118 O141 2.473 . S
C119 O116 1.255 . S
C119 O120 1.247 . S
O120 C119 1.247 . S
C121 O133 1.242 . S
C121 O134 1.258 . S
O122 Eu118 2.292 . S
O122 C124 1.255 . S
C123 Eu118 2.852 . S
C123 C127 1.503 . S
C123 O140 1.273 . S
C123 O141 1.257 . S
C124 O122 1.255 . S
C124 O125 1.247 . S
O125 C124 1.247 . S
C126 O138 1.242 . S
C126 O139 1.258 . S
C127 C123 1.503 . S
C127 C128 1.379 . S
C127 C132 1.392 . S
C128 C127 1.379 . S
C128 C129 1.404 . S
C128 H142 0.929 . S
C129 C128 1.404 . S
C129 C130 1.389 . S
C130 C129 1.389 . S
C130 C131 1.399 . S
C130 H143 0.931 . S
C131 C130 1.399 . S
C131 C132 1.390 . S
C132 C127 1.392 . S
C132 C131 1.390 . S
C132 H144 0.929 . S
O133 Tb117 2.326 . S
O133 C121 1.242 . S
O134 Eu118 2.324 . S
O134 C121 1.258 . S
O135 Tb117 2.500 . S
O135 C137 1.273 . S
O136 Tb117 2.473 . S
O136 C137 1.257 . S
C137 O135 1.273 . S
C137 O136 1.257 . S
O138 Eu118 2.326 . S
O138 C126 1.242 . S
O139 Tb117 2.324 . S
O139 C126 1.258 . S
O140 Eu118 2.500 . S
O140 C123 1.273 . S
O141 Eu118 2.473 . S
O141 C123 1.257 . S
H142 C128 0.929 . S
H143 C130 0.931 . S
H144 C132 0.929 . S
O145 Tb146 2.292 . S
O145 C148 1.255 . S
Tb146 O145 2.292 . S
Tb146 O162 2.326 . S
Tb146 O164 2.500 . S
Tb146 O165 2.473 . S
Tb146 O168 2.324 . S
Eu147 O151 2.292 . S
Eu147 C152 2.852 . S
Eu147 O163 2.324 . S
Eu147 O167 2.326 . S
Eu147 O169 2.500 . S
Eu147 O170 2.473 . S
C148 O145 1.255 . S
C148 O149 1.247 . S
O149 C148 1.247 . S
C150 O162 1.242 . S
C150 O163 1.258 . S
O151 Eu147 2.292 . S
O151 C153 1.255 . S
C152 Eu147 2.852 . S
C152 C156 1.503 . S
C152 O169 1.273 . S
C152 O170 1.257 . S
C153 O151 1.255 . S
C153 O154 1.247 . S
O154 C153 1.247 . S
C155 O167 1.242 . S
C155 O168 1.258 . S
C156 C152 1.503 . S
C156 C157 1.379 . S
C156 C161 1.392 . S
C157 C156 1.379 . S
C157 C158 1.404 . S
C157 H171 0.929 . S
C158 C157 1.404 . S
C158 C159 1.389 . S
C159 C158 1.389 . S
C159 C160 1.399 . S
C159 H172 0.931 . S
C160 C159 1.399 . S
C160 C161 1.390 . S
C161 C156 1.392 . S
C161 C160 1.390 . S
C161 H173 0.929 . S
O162 Tb146 2.326 . S
O162 C150 1.242 . S
O163 Eu147 2.324 . S
O163 C150 1.258 . S
O164 Tb146 2.500 . S
O164 C166 1.273 . S
O165 Tb146 2.473 . S
O165 C166 1.257 . S
C166 O164 1.273 . S
C166 O165 1.257 . S
O167 Eu147 2.326 . S
O167 C155 1.242 . S
O168 Tb146 2.324 . S
O168 C155 1.258 . S
O169 Eu147 2.500 . S
O169 C152 1.273 . S
O170 Eu147 2.473 . S
O170 C152 1.257 . S
H171 C157 0.929 . S
H172 C159 0.931 . S
H173 C161 0.929 . S
O174 Tb175 2.292 . S
O174 C177 1.255 . S
Tb175 O174 2.292 . S
Tb175 O191 2.326 . S
Tb175 O193 2.500 . S
Tb175 O194 2.473 . S
Tb175 O197 2.324 . S
Eu176 O180 2.292 . S
Eu176 C181 2.852 . S
Eu176 O192 2.324 . S
Eu176 O196 2.326 . S
Eu176 O198 2.500 . S
Eu176 O199 2.473 . S
C177 O174 1.255 . S
C177 O178 1.247 . S
O178 C177 1.247 . S
C179 O191 1.242 . S
C179 O192 1.258 . S
O180 Eu176 2.292 . S
O180 C182 1.255 . S
C181 Eu176 2.852 . S
C181 C185 1.503 . S
C181 O198 1.273 . S
C181 O199 1.257 . S
C182 O180 1.255 . S
C182 O183 1.247 . S
O183 C182 1.247 . S
C184 O196 1.242 . S
C184 O197 1.258 . S
C185 C181 1.503 . S
C185 C186 1.379 . S
C185 C190 1.392 . S
C186 C185 1.379 . S
C186 C187 1.404 . S
C186 H200 0.929 . S
C187 C186 1.404 . S
C187 C188 1.389 . S
C188 C187 1.389 . S
C188 C189 1.399 . S
C188 H201 0.931 . S
C189 C188 1.399 . S
C189 C190 1.390 . S
C190 C185 1.392 . S
C190 C189 1.390 . S
C190 H202 0.929 . S
O191 Tb175 2.326 . S
O191 C179 1.242 . S
O192 Eu176 2.324 . S
O192 C179 1.258 . S
O193 Tb175 2.500 . S
O193 C195 1.273 . S
O194 Tb175 2.473 . S
O194 C195 1.257 . S
C195 O193 1.273 . S
C195 O194 1.257 . S
O196 Eu176 2.326 . S
O196 C184 1.242 . S
O197 Tb175 2.324 . S
O197 C184 1.258 . S
O198 Eu176 2.500 . S
O198 C181 1.273 . S
O199 Eu176 2.473 . S
O199 C181 1.257 . S
H200 C186 0.929 . S
H201 C188 0.931 . S
H202 C190 0.929 . S
O203 Tb204 2.292 . S
O203 C206 1.255 . S
Tb204 O203 2.292 . S
Tb204 O220 2.326 . S
Tb204 O222 2.500 . S
Tb204 O223 2.473 . S
Tb204 O226 2.324 . S
Eu205 O209 2.292 . S
Eu205 C210 2.852 . S
Eu205 O221 2.324 . S
Eu205 O225 2.326 . S
Eu205 O227 2.500 . S
Eu205 O228 2.473 . S
C206 O203 1.255 . S
C206 O207 1.247 . S
O207 C206 1.247 . S
C208 O220 1.242 . S
C208 O221 1.258 . S
O209 Eu205 2.292 . S
O209 C211 1.255 . S
C210 Eu205 2.852 . S
C210 C214 1.503 . S
C210 O227 1.273 . S
C210 O228 1.257 . S
C211 O209 1.255 . S
C211 O212 1.247 . S
O212 C211 1.247 . S
C213 O225 1.242 . S
C213 O226 1.258 . S
C214 C210 1.503 . S
C214 C215 1.379 . S
C214 C219 1.392 . S
C215 C214 1.379 . S
C215 C216 1.404 . S
C215 H229 0.929 . S
C216 C215 1.404 . S
C216 C217 1.389 . S
C217 C216 1.389 . S
C217 C218 1.399 . S
C217 H230 0.931 . S
C218 C217 1.399 . S
C218 C219 1.390 . S
C219 C214 1.392 . S
C219 C218 1.390 . S
C219 H231 0.929 . S
O220 Tb204 2.326 . S
O220 C208 1.242 . S
O221 Eu205 2.324 . S
O221 C208 1.258 . S
O222 Tb204 2.500 . S
O222 C224 1.273 . S
O223 Tb204 2.473 . S
O223 C224 1.257 . S
C224 O222 1.273 . S
C224 O223 1.257 . S
O225 Eu205 2.326 . S
O225 C213 1.242 . S
O226 Tb204 2.324 . S
O226 C213 1.258 . S
O227 Eu205 2.500 . S
O227 C210 1.273 . S
O228 Eu205 2.473 . S
O228 C210 1.257 . S
H229 C215 0.929 . S
H230 C217 0.931 . S
H231 C219 0.929 . S
O232 Tb233 2.292 . S
O232 C235 1.255 . S
Tb233 O232 2.292 . S
Tb233 O249 2.326 . S
Tb233 O251 2.500 . S
Tb233 O252 2.473 . S
Tb233 O255 2.324 . S
Eu234 O238 2.292 . S
Eu234 C239 2.852 . S
Eu234 O250 2.324 . S
Eu234 O254 2.326 . S
Eu234 O256 2.500 . S
Eu234 O257 2.473 . S
C235 O232 1.255 . S
C235 O236 1.247 . S
O236 C235 1.247 . S
C237 O249 1.242 . S
C237 O250 1.258 . S
O238 Eu234 2.292 . S
O238 C240 1.255 . S
C239 Eu234 2.852 . S
C239 C243 1.503 . S
C239 O256 1.273 . S
C239 O257 1.257 . S
C240 O238 1.255 . S
C240 O241 1.247 . S
O241 C240 1.247 . S
C242 O254 1.242 . S
C242 O255 1.258 . S
C243 C239 1.503 . S
C243 C244 1.379 . S
C243 C248 1.392 . S
C244 C243 1.379 . S
C244 C245 1.404 . S
C244 H258 0.929 . S
C245 C244 1.404 . S
C245 C246 1.389 . S
C246 C245 1.389 . S
C246 C247 1.399 . S
C246 H259 0.931 . S
C247 C246 1.399 . S
C247 C248 1.390 . S
C248 C243 1.392 . S
C248 C247 1.390 . S
C248 H260 0.929 . S
O249 Tb233 2.326 . S
O249 C237 1.242 . S
O250 Eu234 2.324 . S
O250 C237 1.258 . S
O251 Tb233 2.500 . S
O251 C253 1.273 . S
O252 Tb233 2.473 . S
O252 C253 1.257 . S
C253 O251 1.273 . S
C253 O252 1.257 . S
O254 Eu234 2.326 . S
O254 C242 1.242 . S
O255 Tb233 2.324 . S
O255 C242 1.258 . S
O256 Eu234 2.500 . S
O256 C239 1.273 . S
O257 Eu234 2.473 . S
O257 C239 1.257 . S
H258 C244 0.929 . S
H259 C246 0.931 . S
H260 C248 0.929 . S
O261 Tb262 2.292 . S
O261 C264 1.255 . S
Tb262 O261 2.292 . S
Tb262 O278 2.326 . S
Tb262 O280 2.500 . S
Tb262 O281 2.473 . S
Tb262 O284 2.324 . S
Eu263 O267 2.292 . S
Eu263 C268 2.852 . S
Eu263 O279 2.324 . S
Eu263 O283 2.326 . S
Eu263 O285 2.500 . S
Eu263 O286 2.473 . S
C264 O261 1.255 . S
C264 O265 1.247 . S
O265 C264 1.247 . S
C266 O278 1.242 . S
C266 O279 1.258 . S
O267 Eu263 2.292 . S
O267 C269 1.255 . S
C268 Eu263 2.852 . S
C268 C272 1.503 . S
C268 O285 1.273 . S
C268 O286 1.257 . S
C269 O267 1.255 . S
C269 O270 1.247 . S
O270 C269 1.247 . S
C271 O283 1.242 . S
C271 O284 1.258 . S
C272 C268 1.503 . S
C272 C273 1.379 . S
C272 C277 1.392 . S
C273 C272 1.379 . S
C273 C274 1.404 . S
C273 H287 0.929 . S
C274 C273 1.404 . S
C274 C275 1.389 . S
C275 C274 1.389 . S
C275 C276 1.399 . S
C275 H288 0.931 . S
C276 C275 1.399 . S
C276 C277 1.390 . S
C277 C272 1.392 . S
C277 C276 1.390 . S
C277 H289 0.929 . S
O278 Tb262 2.326 . S
O278 C266 1.242 . S
O279 Eu263 2.324 . S
O279 C266 1.258 . S
O280 Tb262 2.500 . S
O280 C282 1.273 . S
O281 Tb262 2.473 . S
O281 C282 1.257 . S
C282 O280 1.273 . S
C282 O281 1.257 . S
O283 Eu263 2.326 . S
O283 C271 1.242 . S
O284 Tb262 2.324 . S
O284 C271 1.258 . S
O285 Eu263 2.500 . S
O285 C268 1.273 . S
O286 Eu263 2.473 . S
O286 C268 1.257 . S
H287 C273 0.929 . S
H288 C275 0.931 . S
H289 C277 0.929 . S
O290 Tb291 2.292 . S
O290 C293 1.255 . S
Tb291 O290 2.292 . S
Tb291 O307 2.326 . S
Tb291 O309 2.500 . S
Tb291 O310 2.473 . S
Tb291 O313 2.324 . S
Eu292 O296 2.292 . S
Eu292 C297 2.852 . S
Eu292 O308 2.324 . S
Eu292 O312 2.326 . S
Eu292 O314 2.500 . S
Eu292 O315 2.473 . S
C293 O290 1.255 . S
C293 O294 1.247 . S
O294 C293 1.247 . S
C295 O307 1.242 . S
C295 O308 1.258 . S
O296 Eu292 2.292 . S
O296 C298 1.255 . S
C297 Eu292 2.852 . S
C297 C301 1.503 . S
C297 O314 1.273 . S
C297 O315 1.257 . S
C298 O296 1.255 . S
C298 O299 1.247 . S
O299 C298 1.247 . S
C300 O312 1.242 . S
C300 O313 1.258 . S
C301 C297 1.503 . S
C301 C302 1.379 . S
C301 C306 1.392 . S
C302 C301 1.379 . S
C302 C303 1.404 . S
C302 H316 0.929 . S
C303 C302 1.404 . S
C303 C304 1.389 . S
C304 C303 1.389 . S
C304 C305 1.399 . S
C304 H317 0.931 . S
C305 C304 1.399 . S
C305 C306 1.390 . S
C306 C301 1.392 . S
C306 C305 1.390 . S
C306 H318 0.929 . S
O307 Tb291 2.326 . S
O307 C295 1.242 . S
O308 Eu292 2.324 . S
O308 C295 1.258 . S
O309 Tb291 2.500 . S
O309 C311 1.273 . S
O310 Tb291 2.473 . S
O310 C311 1.257 . S
C311 O309 1.273 . S
C311 O310 1.257 . S
O312 Eu292 2.326 . S
O312 C300 1.242 . S
O313 Tb291 2.324 . S
O313 C300 1.258 . S
O314 Eu292 2.500 . S
O314 C297 1.273 . S
O315 Eu292 2.473 . S
O315 C297 1.257 . S
H316 C302 0.929 . S
H317 C304 0.931 . S
H318 C306 0.929 . S
O319 Tb320 2.292 . S
O319 C322 1.255 . S
Tb320 O319 2.292 . S
Tb320 O336 2.326 . S
Tb320 O338 2.500 . S
Tb320 O339 2.473 . S
Tb320 O342 2.324 . S
Eu321 O325 2.292 . S
Eu321 C326 2.852 . S
Eu321 O337 2.324 . S
Eu321 O341 2.326 . S
Eu321 O343 2.500 . S
Eu321 O344 2.473 . S
C322 O319 1.255 . S
C322 O323 1.247 . S
O323 C322 1.247 . S
C324 O336 1.242 . S
C324 O337 1.258 . S
O325 Eu321 2.292 . S
O325 C327 1.255 . S
C326 Eu321 2.852 . S
C326 C330 1.503 . S
C326 O343 1.273 . S
C326 O344 1.257 . S
C327 O325 1.255 . S
C327 O328 1.247 . S
O328 C327 1.247 . S
C329 O341 1.242 . S
C329 O342 1.258 . S
C330 C326 1.503 . S
C330 C331 1.379 . S
C330 C335 1.392 . S
C331 C330 1.379 . S
C331 C332 1.404 . S
C331 H345 0.929 . S
C332 C331 1.404 . S
C332 C333 1.389 . S
C333 C332 1.389 . S
C333 C334 1.399 . S
C333 H346 0.931 . S
C334 C333 1.399 . S
C334 C335 1.390 . S
C335 C330 1.392 . S
C335 C334 1.390 . S
C335 H347 0.929 . S
O336 Tb320 2.326 . S
O336 C324 1.242 . S
O337 Eu321 2.324 . S
O337 C324 1.258 . S
O338 Tb320 2.500 . S
O338 C340 1.273 . S
O339 Tb320 2.473 . S
O339 C340 1.257 . S
C340 O338 1.273 . S
C340 O339 1.257 . S
O341 Eu321 2.326 . S
O341 C329 1.242 . S
O342 Tb320 2.324 . S
O342 C329 1.258 . S
O343 Eu321 2.500 . S
O343 C326 1.273 . S
O344 Eu321 2.473 . S
O344 C326 1.257 . S
H345 C331 0.929 . S
H346 C333 0.931 . S
H347 C335 0.929 . S
O348 Tb349 2.292 . S
O348 C351 1.255 . S
Tb349 O348 2.292 . S
Tb349 O365 2.326 . S
Tb349 O367 2.500 . S
Tb349 O368 2.473 . S
Tb349 O371 2.324 . S
Eu350 O354 2.292 . S
Eu350 C355 2.852 . S
Eu350 O366 2.324 . S
Eu350 O370 2.326 . S
Eu350 O372 2.500 . S
Eu350 O373 2.473 . S
C351 O348 1.255 . S
C351 O352 1.247 . S
O352 C351 1.247 . S
C353 O365 1.242 . S
C353 O366 1.258 . S
O354 Eu350 2.292 . S
O354 C356 1.255 . S
C355 Eu350 2.852 . S
C355 C359 1.503 . S
C355 O372 1.273 . S
C355 O373 1.257 . S
C356 O354 1.255 . S
C356 O357 1.247 . S
O357 C356 1.247 . S
C358 O370 1.242 . S
C358 O371 1.258 . S
C359 C355 1.503 . S
C359 C360 1.379 . S
C359 C364 1.392 . S
C360 C359 1.379 . S
C360 C361 1.404 . S
C360 H374 0.929 . S
C361 C360 1.404 . S
C361 C362 1.389 . S
C362 C361 1.389 . S
C362 C363 1.399 . S
C362 H375 0.931 . S
C363 C362 1.399 . S
C363 C364 1.390 . S
C364 C359 1.392 . S
C364 C363 1.390 . S
C364 H376 0.929 . S
O365 Tb349 2.326 . S
O365 C353 1.242 . S
O366 Eu350 2.324 . S
O366 C353 1.258 . S
O367 Tb349 2.500 . S
O367 C369 1.273 . S
O368 Tb349 2.473 . S
O368 C369 1.257 . S
C369 O367 1.273 . S
C369 O368 1.257 . S
O370 Eu350 2.326 . S
O370 C358 1.242 . S
O371 Tb349 2.324 . S
O371 C358 1.258 . S
O372 Eu350 2.500 . S
O372 C355 1.273 . S
O373 Eu350 2.473 . S
O373 C355 1.257 . S
H374 C360 0.929 . S
H375 C362 0.931 . S
H376 C364 0.929 . S
O377 Tb378 2.292 . S
O377 C380 1.255 . S
Tb378 O377 2.292 . S
Tb378 O394 2.326 . S
Tb378 O396 2.500 . S
Tb378 O397 2.473 . S
Tb378 O400 2.324 . S
Eu379 O383 2.292 . S
Eu379 C384 2.852 . S
Eu379 O395 2.324 . S
Eu379 O399 2.326 . S
Eu379 O401 2.500 . S
Eu379 O402 2.473 . S
C380 O377 1.255 . S
C380 O381 1.247 . S
O381 C380 1.247 . S
C382 O394 1.242 . S
C382 O395 1.258 . S
O383 Eu379 2.292 . S
O383 C385 1.255 . S
C384 Eu379 2.852 . S
C384 C388 1.503 . S
C384 O401 1.273 . S
C384 O402 1.257 . S
C385 O383 1.255 . S
C385 O386 1.247 . S
O386 C385 1.247 . S
C387 O399 1.242 . S
C387 O400 1.258 . S
C388 C384 1.503 . S
C388 C389 1.379 . S
C388 C393 1.392 . S
C389 C388 1.379 . S
C389 C390 1.404 . S
C389 H403 0.929 . S
C390 C389 1.404 . S
C390 C391 1.389 . S
C391 C390 1.389 . S
C391 C392 1.399 . S
C391 H404 0.931 . S
C392 C391 1.399 . S
C392 C393 1.390 . S
C393 C388 1.392 . S
C393 C392 1.390 . S
C393 H405 0.929 . S
O394 Tb378 2.326 . S
O394 C382 1.242 . S
O395 Eu379 2.324 . S
O395 C382 1.258 . S
O396 Tb378 2.500 . S
O396 C398 1.273 . S
O397 Tb378 2.473 . S
O397 C398 1.257 . S
C398 O396 1.273 . S
C398 O397 1.257 . S
O399 Eu379 2.326 . S
O399 C387 1.242 . S
O400 Tb378 2.324 . S
O400 C387 1.258 . S
O401 Eu379 2.500 . S
O401 C384 1.273 . S
O402 Eu379 2.473 . S
O402 C384 1.257 . S
H403 C389 0.929 . S
H404 C391 0.931 . S
H405 C393 0.929 . S
O406 Tb407 2.292 . S
O406 C409 1.255 . S
Tb407 O406 2.292 . S
Tb407 O423 2.326 . S
Tb407 O425 2.500 . S
Tb407 O426 2.473 . S
Tb407 O429 2.324 . S
Eu408 O412 2.292 . S
Eu408 C413 2.852 . S
Eu408 O424 2.324 . S
Eu408 O428 2.326 . S
Eu408 O430 2.500 . S
Eu408 O431 2.473 . S
C409 O406 1.255 . S
C409 O410 1.247 . S
O410 C409 1.247 . S
C411 O423 1.242 . S
C411 O424 1.258 . S
O412 Eu408 2.292 . S
O412 C414 1.255 . S
C413 Eu408 2.852 . S
C413 C417 1.503 . S
C413 O430 1.273 . S
C413 O431 1.257 . S
C414 O412 1.255 . S
C414 O415 1.247 . S
O415 C414 1.247 . S
C416 O428 1.242 . S
C416 O429 1.258 . S
C417 C413 1.503 . S
C417 C418 1.379 . S
C417 C422 1.392 . S
C418 C417 1.379 . S
C418 C419 1.404 . S
C418 H432 0.929 . S
C419 C418 1.404 . S
C419 C420 1.389 . S
C420 C419 1.389 . S
C420 C421 1.399 . S
C420 H433 0.931 . S
C421 C420 1.399 . S
C421 C422 1.390 . S
C422 C417 1.392 . S
C422 C421 1.390 . S
C422 H434 0.929 . S
O423 Tb407 2.326 . S
O423 C411 1.242 . S
O424 Eu408 2.324 . S
O424 C411 1.258 . S
O425 Tb407 2.500 . S
O425 C427 1.273 . S
O426 Tb407 2.473 . S
O426 C427 1.257 . S
C427 O425 1.273 . S
C427 O426 1.257 . S
O428 Eu408 2.326 . S
O428 C416 1.242 . S
O429 Tb407 2.324 . S
O429 C416 1.258 . S
O430 Eu408 2.500 . S
O430 C413 1.273 . S
O431 Eu408 2.473 . S
O431 C413 1.257 . S
H432 C418 0.929 . S
H433 C420 0.931 . S
H434 C422 0.929 . S
O435 Tb436 2.292 . S
O435 C438 1.255 . S
Tb436 O435 2.292 . S
Tb436 O452 2.326 . S
Tb436 O454 2.500 . S
Tb436 O455 2.473 . S
Tb436 O458 2.324 . S
Eu437 O441 2.292 . S
Eu437 C442 2.852 . S
Eu437 O453 2.324 . S
Eu437 O457 2.326 . S
Eu437 O459 2.500 . S
Eu437 O460 2.473 . S
C438 O435 1.255 . S
C438 O439 1.247 . S
O439 C438 1.247 . S
C440 O452 1.242 . S
C440 O453 1.258 . S
O441 Eu437 2.292 . S
O441 C443 1.255 . S
C442 Eu437 2.852 . S
C442 C446 1.503 . S
C442 O459 1.273 . S
C442 O460 1.257 . S
C443 O441 1.255 . S
C443 O444 1.247 . S
O444 C443 1.247 . S
C445 O457 1.242 . S
C445 O458 1.258 . S
C446 C442 1.503 . S
C446 C447 1.379 . S
C446 C451 1.392 . S
C447 C446 1.379 . S
C447 C448 1.404 . S
C447 H461 0.929 . S
C448 C447 1.404 . S
C448 C449 1.389 . S
C449 C448 1.389 . S
C449 C450 1.399 . S
C449 H462 0.931 . S
C450 C449 1.399 . S
C450 C451 1.390 . S
C451 C446 1.392 . S
C451 C450 1.390 . S
C451 H463 0.929 . S
O452 Tb436 2.326 . S
O452 C440 1.242 . S
O453 Eu437 2.324 . S
O453 C440 1.258 . S
O454 Tb436 2.500 . S
O454 C456 1.273 . S
O455 Tb436 2.473 . S
O455 C456 1.257 . S
C456 O454 1.273 . S
C456 O455 1.257 . S
O457 Eu437 2.326 . S
O457 C445 1.242 . S
O458 Tb436 2.324 . S
O458 C445 1.258 . S
O459 Eu437 2.500 . S
O459 C442 1.273 . S
O460 Eu437 2.473 . S
O460 C442 1.257 . S
H461 C447 0.929 . S
H462 C449 0.931 . S
H463 C451 0.929 . S
O464 Tb465 2.292 . S
O464 C467 1.255 . S
Tb465 O464 2.292 . S
Tb465 O481 2.326 . S
Tb465 O483 2.500 . S
Tb465 O484 2.473 . S
Tb465 O487 2.324 . S
Eu466 O470 2.292 . S
Eu466 C471 2.852 . S
Eu466 O482 2.324 . S
Eu466 O486 2.326 . S
Eu466 O488 2.500 . S
Eu466 O489 2.473 . S
C467 O464 1.255 . S
C467 O468 1.247 . S
O468 C467 1.247 . S
C469 O481 1.242 . S
C469 O482 1.258 . S
O470 Eu466 2.292 . S
O470 C472 1.255 . S
C471 Eu466 2.852 . S
C471 C475 1.503 . S
C471 O488 1.273 . S
C471 O489 1.257 . S
C472 O470 1.255 . S
C472 O473 1.247 . S
O473 C472 1.247 . S
C474 O486 1.242 . S
C474 O487 1.258 . S
C475 C471 1.503 . S
C475 C476 1.379 . S
C475 C480 1.392 . S
C476 C475 1.379 . S
C476 C477 1.404 . S
C476 H490 0.929 . S
C477 C476 1.404 . S
C477 C478 1.389 . S
C478 C477 1.389 . S
C478 C479 1.399 . S
C478 H491 0.931 . S
C479 C478 1.399 . S
C479 C480 1.390 . S
C480 C475 1.392 . S
C480 C479 1.390 . S
C480 H492 0.929 . S
O481 Tb465 2.326 . S
O481 C469 1.242 . S
O482 Eu466 2.324 . S
O482 C469 1.258 . S
O483 Tb465 2.500 . S
O483 C485 1.273 . S
O484 Tb465 2.473 . S
O484 C485 1.257 . S
C485 O483 1.273 . S
C485 O484 1.257 . S
O486 Eu466 2.326 . S
O486 C474 1.242 . S
O487 Tb465 2.324 . S
O487 C474 1.258 . S
O488 Eu466 2.500 . S
O488 C471 1.273 . S
O489 Eu466 2.473 . S
O489 C471 1.257 . S
H490 C476 0.929 . S
H491 C478 0.931 . S
H492 C480 0.929 . S
O493 Tb494 2.292 . S
O493 C496 1.255 . S
Tb494 O493 2.292 . S
Tb494 O510 2.326 . S
Tb494 O512 2.500 . S
Tb494 O513 2.473 . S
Tb494 O516 2.324 . S
Eu495 O499 2.292 . S
Eu495 C500 2.852 . S
Eu495 O511 2.324 . S
Eu495 O515 2.326 . S
Eu495 O517 2.500 . S
Eu495 O518 2.473 . S
C496 O493 1.255 . S
C496 O497 1.247 . S
O497 C496 1.247 . S
C498 O510 1.242 . S
C498 O511 1.258 . S
O499 Eu495 2.292 . S
O499 C501 1.255 . S
C500 Eu495 2.852 . S
C500 C504 1.503 . S
C500 O517 1.273 . S
C500 O518 1.257 . S
C501 O499 1.255 . S
C501 O502 1.247 . S
O502 C501 1.247 . S
C503 O515 1.242 . S
C503 O516 1.258 . S
C504 C500 1.503 . S
C504 C505 1.379 . S
C504 C509 1.392 . S
C505 C504 1.379 . S
C505 C506 1.404 . S
C505 H519 0.929 . S
C506 C505 1.404 . S
C506 C507 1.389 . S
C507 C506 1.389 . S
C507 C508 1.399 . S
C507 H520 0.931 . S
C508 C507 1.399 . S
C508 C509 1.390 . S
C509 C504 1.392 . S
C509 C508 1.390 . S
C509 H521 0.929 . S
O510 Tb494 2.326 . S
O510 C498 1.242 . S
O511 Eu495 2.324 . S
O511 C498 1.258 . S
O512 Tb494 2.500 . S
O512 C514 1.273 . S
O513 Tb494 2.473 . S
O513 C514 1.257 . S
C514 O512 1.273 . S
C514 O513 1.257 . S
O515 Eu495 2.326 . S
O515 C503 1.242 . S
O516 Tb494 2.324 . S
O516 C503 1.258 . S
O517 Eu495 2.500 . S
O517 C500 1.273 . S
O518 Eu495 2.473 . S
O518 C500 1.257 . S
H519 C505 0.929 . S
H520 C507 0.931 . S
H521 C509 0.929 . S
O522 Tb523 2.292 . S
O522 C525 1.255 . S
Tb523 O522 2.292 . S
Tb523 O539 2.326 . S
Tb523 O541 2.500 . S
Tb523 O542 2.473 . S
Tb523 O545 2.324 . S
Eu524 O528 2.292 . S
Eu524 C529 2.852 . S
Eu524 O540 2.324 . S
Eu524 O544 2.326 . S
Eu524 O546 2.500 . S
Eu524 O547 2.473 . S
C525 O522 1.255 . S
C525 O526 1.247 . S
O526 C525 1.247 . S
C527 O539 1.242 . S
C527 O540 1.258 . S
O528 Eu524 2.292 . S
O528 C530 1.255 . S
C529 Eu524 2.852 . S
C529 C533 1.503 . S
C529 O546 1.273 . S
C529 O547 1.257 . S
C530 O528 1.255 . S
C530 O531 1.247 . S
O531 C530 1.247 . S
C532 O544 1.242 . S
C532 O545 1.258 . S
C533 C529 1.503 . S
C533 C534 1.379 . S
C533 C538 1.392 . S
C534 C533 1.379 . S
C534 C535 1.404 . S
C534 H548 0.929 . S
C535 C534 1.404 . S
C535 C536 1.389 . S
C536 C535 1.389 . S
C536 C537 1.399 . S
C536 H549 0.931 . S
C537 C536 1.399 . S
C537 C538 1.390 . S
C538 C533 1.392 . S
C538 C537 1.390 . S
C538 H550 0.929 . S
O539 Tb523 2.326 . S
O539 C527 1.242 . S
O540 Eu524 2.324 . S
O540 C527 1.258 . S
O541 Tb523 2.500 . S
O541 C543 1.273 . S
O542 Tb523 2.473 . S
O542 C543 1.257 . S
C543 O541 1.273 . S
C543 O542 1.257 . S
O544 Eu524 2.326 . S
O544 C532 1.242 . S
O545 Tb523 2.324 . S
O545 C532 1.258 . S
O546 Eu524 2.500 . S
O546 C529 1.273 . S
O547 Eu524 2.473 . S
O547 C529 1.257 . S
H548 C534 0.929 . S
H549 C536 0.931 . S
H550 C538 0.929 . S
O551 Tb552 2.292 . S
O551 C554 1.255 . S
Tb552 O551 2.292 . S
Tb552 O568 2.326 . S
Tb552 O570 2.500 . S
Tb552 O571 2.473 . S
Tb552 O574 2.324 . S
Eu553 O557 2.292 . S
Eu553 C558 2.852 . S
Eu553 O569 2.324 . S
Eu553 O573 2.326 . S
Eu553 O575 2.500 . S
Eu553 O576 2.473 . S
C554 O551 1.255 . S
C554 O555 1.247 . S
O555 C554 1.247 . S
C556 O568 1.242 . S
C556 O569 1.258 . S
O557 Eu553 2.292 . S
O557 C559 1.255 . S
C558 Eu553 2.852 . S
C558 C562 1.503 . S
C558 O575 1.273 . S
C558 O576 1.257 . S
C559 O557 1.255 . S
C559 O560 1.247 . S
O560 C559 1.247 . S
C561 O573 1.242 . S
C561 O574 1.258 . S
C562 C558 1.503 . S
C562 C563 1.379 . S
C562 C567 1.392 . S
C563 C562 1.379 . S
C563 C564 1.404 . S
C563 H577 0.929 . S
C564 C563 1.404 . S
C564 C565 1.389 . S
C565 C564 1.389 . S
C565 C566 1.399 . S
C565 H578 0.931 . S
C566 C565 1.399 . S
C566 C567 1.390 . S
C567 C562 1.392 . S
C567 C566 1.390 . S
C567 H579 0.929 . S
O568 Tb552 2.326 . S
O568 C556 1.242 . S
O569 Eu553 2.324 . S
O569 C556 1.258 . S
O570 Tb552 2.500 . S
O570 C572 1.273 . S
O571 Tb552 2.473 . S
O571 C572 1.257 . S
C572 O570 1.273 . S
C572 O571 1.257 . S
O573 Eu553 2.326 . S
O573 C561 1.242 . S
O574 Tb552 2.324 . S
O574 C561 1.258 . S
O575 Eu553 2.500 . S
O575 C558 1.273 . S
O576 Eu553 2.473 . S
O576 C558 1.257 . S
H577 C563 0.929 . S
H578 C565 0.931 . S
H579 C567 0.929 . S
O580 Tb581 2.292 . S
O580 C583 1.255 . S
Tb581 O580 2.292 . S
Tb581 O597 2.326 . S
Tb581 O599 2.500 . S
Tb581 O600 2.473 . S
Tb581 O603 2.324 . S
Eu582 O586 2.292 . S
Eu582 C587 2.852 . S
Eu582 O598 2.324 . S
Eu582 O602 2.326 . S
Eu582 O604 2.500 . S
Eu582 O605 2.473 . S
C583 O580 1.255 . S
C583 O584 1.247 . S
O584 C583 1.247 . S
C585 O597 1.242 . S
C585 O598 1.258 . S
O586 Eu582 2.292 . S
O586 C588 1.255 . S
C587 Eu582 2.852 . S
C587 C591 1.503 . S
C587 O604 1.273 . S
C587 O605 1.257 . S
C588 O586 1.255 . S
C588 O589 1.247 . S
O589 C588 1.247 . S
C590 O602 1.242 . S
C590 O603 1.258 . S
C591 C587 1.503 . S
C591 C592 1.379 . S
C591 C596 1.392 . S
C592 C591 1.379 . S
C592 C593 1.404 . S
C592 H606 0.929 . S
C593 C592 1.404 . S
C593 C594 1.389 . S
C594 C593 1.389 . S
C594 C595 1.399 . S
C594 H607 0.931 . S
C595 C594 1.399 . S
C595 C596 1.390 . S
C596 C591 1.392 . S
C596 C595 1.390 . S
C596 H608 0.929 . S
O597 Tb581 2.326 . S
O597 C585 1.242 . S
O598 Eu582 2.324 . S
O598 C585 1.258 . S
O599 Tb581 2.500 . S
O599 C601 1.273 . S
O600 Tb581 2.473 . S
O600 C601 1.257 . S
C601 O599 1.273 . S
C601 O600 1.257 . S
O602 Eu582 2.326 . S
O602 C590 1.242 . S
O603 Tb581 2.324 . S
O603 C590 1.258 . S
O604 Eu582 2.500 . S
O604 C587 1.273 . S
O605 Eu582 2.473 . S
O605 C587 1.257 . S
H606 C592 0.929 . S
H607 C594 0.931 . S
H608 C596 0.929 . S
O609 Tb610 2.292 . S
O609 C612 1.255 . S
Tb610 O609 2.292 . S
Tb610 O626 2.326 . S
Tb610 O628 2.500 . S
Tb610 O629 2.473 . S
Tb610 O632 2.324 . S
Eu611 O615 2.292 . S
Eu611 C616 2.852 . S
Eu611 O627 2.324 . S
Eu611 O631 2.326 . S
Eu611 O633 2.500 . S
Eu611 O634 2.473 . S
C612 O609 1.255 . S
C612 O613 1.247 . S
O613 C612 1.247 . S
C614 O626 1.242 . S
C614 O627 1.258 . S
O615 Eu611 2.292 . S
O615 C617 1.255 . S
C616 Eu611 2.852 . S
C616 C620 1.503 . S
C616 O633 1.273 . S
C616 O634 1.257 . S
C617 O615 1.255 . S
C617 O618 1.247 . S
O618 C617 1.247 . S
C619 O631 1.242 . S
C619 O632 1.258 . S
C620 C616 1.503 . S
C620 C621 1.379 . S
C620 C625 1.392 . S
C621 C620 1.379 . S
C621 C622 1.404 . S
C621 H635 0.929 . S
C622 C621 1.404 . S
C622 C623 1.389 . S
C623 C622 1.389 . S
C623 C624 1.399 . S
C623 H636 0.931 . S
C624 C623 1.399 . S
C624 C625 1.390 . S
C625 C620 1.392 . S
C625 C624 1.390 . S
C625 H637 0.929 . S
O626 Tb610 2.326 . S
O626 C614 1.242 . S
O627 Eu611 2.324 . S
O627 C614 1.258 . S
O628 Tb610 2.500 . S
O628 C630 1.273 . S
O629 Tb610 2.473 . S
O629 C630 1.257 . S
C630 O628 1.273 . S
C630 O629 1.257 . S
O631 Eu611 2.326 . S
O631 C619 1.242 . S
O632 Tb610 2.324 . S
O632 C619 1.258 . S
O633 Eu611 2.500 . S
O633 C616 1.273 . S
O634 Eu611 2.473 . S
O634 C616 1.257 . S
H635 C621 0.929 . S
H636 C623 0.931 . S
H637 C625 0.929 . S
O638 Tb639 2.292 . S
O638 C641 1.255 . S
Tb639 O638 2.292 . S
Tb639 O655 2.326 . S
Tb639 O657 2.500 . S
Tb639 O658 2.473 . S
Tb639 O661 2.324 . S
Eu640 O644 2.292 . S
Eu640 C645 2.852 . S
Eu640 O656 2.324 . S
Eu640 O660 2.326 . S
Eu640 O662 2.500 . S
Eu640 O663 2.473 . S
C641 O638 1.255 . S
C641 O642 1.247 . S
O642 C641 1.247 . S
C643 O655 1.242 . S
C643 O656 1.258 . S
O644 Eu640 2.292 . S
O644 C646 1.255 . S
C645 Eu640 2.852 . S
C645 C649 1.503 . S
C645 O662 1.273 . S
C645 O663 1.257 . S
C646 O644 1.255 . S
C646 O647 1.247 . S
O647 C646 1.247 . S
C648 O660 1.242 . S
C648 O661 1.258 . S
C649 C645 1.503 . S
C649 C650 1.379 . S
C649 C654 1.392 . S
C650 C649 1.379 . S
C650 C651 1.404 . S
C650 H664 0.929 . S
C651 C650 1.404 . S
C651 C652 1.389 . S
C652 C651 1.389 . S
C652 C653 1.399 . S
C652 H665 0.931 . S
C653 C652 1.399 . S
C653 C654 1.390 . S
C654 C649 1.392 . S
C654 C653 1.390 . S
C654 H666 0.929 . S
O655 Tb639 2.326 . S
O655 C643 1.242 . S
O656 Eu640 2.324 . S
O656 C643 1.258 . S
O657 Tb639 2.500 . S
O657 C659 1.273 . S
O658 Tb639 2.473 . S
O658 C659 1.257 . S
C659 O657 1.273 . S
C659 O658 1.257 . S
O660 Eu640 2.326 . S
O660 C648 1.242 . S
O661 Tb639 2.324 . S
O661 C648 1.258 . S
O662 Eu640 2.500 . S
O662 C645 1.273 . S
O663 Eu640 2.473 . S
O663 C645 1.257 . S
H664 C650 0.929 . S
H665 C652 0.931 . S
H666 C654 0.929 . S
O667 Tb668 2.292 . S
O667 C670 1.255 . S
Tb668 O667 2.292 . S
Tb668 O684 2.326 . S
Tb668 O686 2.500 . S
Tb668 O687 2.473 . S
Tb668 O690 2.324 . S
Eu669 O673 2.292 . S
Eu669 C674 2.852 . S
Eu669 O685 2.324 . S
Eu669 O689 2.326 . S
Eu669 O691 2.500 . S
Eu669 O692 2.473 . S
C670 O667 1.255 . S
C670 O671 1.247 . S
O671 C670 1.247 . S
C672 O684 1.242 . S
C672 O685 1.258 . S
O673 Eu669 2.292 . S
O673 C675 1.255 . S
C674 Eu669 2.852 . S
C674 C678 1.503 . S
C674 O691 1.273 . S
C674 O692 1.257 . S
C675 O673 1.255 . S
C675 O676 1.247 . S
O676 C675 1.247 . S
C677 O689 1.242 . S
C677 O690 1.258 . S
C678 C674 1.503 . S
C678 C679 1.379 . S
C678 C683 1.392 . S
C679 C678 1.379 . S
C679 C680 1.404 . S
C679 H693 0.929 . S
C680 C679 1.404 . S
C680 C681 1.389 . S
C681 C680 1.389 . S
C681 C682 1.399 . S
C681 H694 0.931 . S
C682 C681 1.399 . S
C682 C683 1.390 . S
C683 C678 1.392 . S
C683 C682 1.390 . S
C683 H695 0.929 . S
O684 Tb668 2.326 . S
O684 C672 1.242 . S
O685 Eu669 2.324 . S
O685 C672 1.258 . S
O686 Tb668 2.500 . S
O686 C688 1.273 . S
O687 Tb668 2.473 . S
O687 C688 1.257 . S
C688 O686 1.273 . S
C688 O687 1.257 . S
O689 Eu669 2.326 . S
O689 C677 1.242 . S
O690 Tb668 2.324 . S
O690 C677 1.258 . S
O691 Eu669 2.500 . S
O691 C674 1.273 . S
O692 Eu669 2.473 . S
O692 C674 1.257 . S
H693 C679 0.929 . S
H694 C681 0.931 . S
H695 C683 0.929 . S
C696 C697 1.349 . S
C696 C698 1.327 . S
C696 H721 0.950 . S
C697 C696 1.349 . S
C697 C713 1.349 . S
C698 C696 1.327 . S
C698 C717 1.429 1_545 S
C698 H722 0.950 . S
C699 C716 1.574 . S
C699 C718 1.368 . S
C699 H723 0.949 . S
H700 C704 0.949 . S
C701 C702 1.349 . S
C701 C703 1.327 . S
C701 H724 0.950 . S
C702 C701 1.349 . S
C702 C714 1.349 . S
C703 C701 1.327 . S
C703 C719 1.429 . S
C703 H725 0.950 . S
C704 H700 0.949 . S
C704 C712 1.574 . S
C704 C720 1.368 . S
H705 C713 0.950 . S
H706 C711 0.950 1_565 S
H707 C712 0.949 . S
H708 C714 0.950 . S
H709 C715 0.950 . S
H710 C716 0.949 . S
C711 H706 0.950 1_545 S
C711 C713 1.327 . S
C711 C717 1.429 1_545 S
C712 C704 1.574 . S
C712 H707 0.949 . S
C712 C718 1.368 . S
C713 C697 1.349 . S
C713 H705 0.950 . S
C713 C711 1.327 . S
C714 C702 1.349 . S
C714 H708 0.950 . S
C714 C715 1.327 . S
C715 H709 0.950 . S
C715 C714 1.327 . S
C715 C719 1.429 . S
C716 C699 1.574 . S
C716 H710 0.949 . S
C716 C720 1.368 . S
C717 C698 1.429 1_565 S
C717 C711 1.429 1_565 S
C717 C718 1.523 . S
C718 C699 1.368 . S
C718 C712 1.368 . S
C718 C717 1.523 . S
C719 C703 1.429 . S
C719 C715 1.429 . S
C719 C720 1.523 . S
C720 C704 1.368 . S
C720 C716 1.368 . S
C720 C719 1.523 . S
H721 C696 0.950 . S
H722 C698 0.950 . S
H723 C699 0.949 . S
H724 C701 0.950 . S
H725 C703 0.950 . S
C726 C727 1.349 . S
C726 C728 1.327 . S
C726 H751 0.950 . S
C727 C726 1.349 . S
C727 C743 1.349 . S
C728 C726 1.327 . S
C728 C747 1.429 . S
C728 H752 0.950 . S
C729 C746 1.574 . S
C729 C748 1.368 . S
C729 H753 0.949 . S
H730 C734 0.949 . S
C731 C732 1.349 . S
C731 C733 1.327 . S
C731 H754 0.950 . S
C732 C731 1.349 . S
C732 C744 1.349 . S
C733 C731 1.327 . S
C733 C749 1.429 . S
C733 H755 0.950 . S
C734 H730 0.949 . S
C734 C742 1.574 . S
C734 C750 1.368 . S
H735 C743 0.950 . S
H736 C741 0.950 . S
H737 C742 0.949 . S
H738 C744 0.950 . S
H739 C745 0.950 . S
H740 C746 0.949 . S
C741 H736 0.950 . S
C741 C743 1.327 . S
C741 C747 1.429 . S
C742 C734 1.574 . S
C742 H737 0.949 . S
C742 C748 1.368 . S
C743 C727 1.349 . S
C743 H735 0.950 . S
C743 C741 1.327 . S
C744 C732 1.349 . S
C744 H738 0.950 . S
C744 C745 1.327 . S
C745 H739 0.950 . S
C745 C744 1.327 . S
C745 C749 1.429 . S
C746 C729 1.574 . S
C746 H740 0.949 . S
C746 C750 1.368 . S
C747 C728 1.429 . S
C747 C741 1.429 . S
C747 C748 1.523 . S
C748 C729 1.368 . S
C748 C742 1.368 . S
C748 C747 1.523 . S
C749 C733 1.429 . S
C749 C745 1.429 . S
C749 C750 1.523 . S
C750 C734 1.368 . S
C750 C746 1.368 . S
C750 C749 1.523 . S
H751 C726 0.950 . S
H752 C728 0.950 . S
H753 C729 0.949 . S
H754 C731 0.950 . S
H755 C733 0.950 . S
C756 C757 1.349 . S
C756 C758 1.327 . S
C756 H781 0.950 . S
C757 C756 1.349 . S
C757 C773 1.349 . S
C758 C756 1.327 . S
C758 C777 1.429 1_655 S
C758 H782 0.950 1_655 S
C759 C776 1.574 . S
C759 C778 1.368 . S
C759 H783 0.949 . S
H760 C764 0.949 . S
C761 C762 1.349 . S
C761 C763 1.327 . S
C761 H784 0.950 . S
C762 C761 1.349 . S
C762 C774 1.349 . S
C763 C761 1.327 . S
C763 C779 1.429 . S
C763 H785 0.950 . S
C764 H760 0.949 . S
C764 C772 1.574 . S
C764 C780 1.368 . S
H765 C773 0.950 . S
H766 C771 0.950 . S
H767 C772 0.949 . S
H768 C774 0.950 . S
H769 C775 0.950 . S
H770 C776 0.949 . S
C771 H766 0.950 . S
C771 C773 1.327 . S
C771 C777 1.429 1_655 S
C772 C764 1.574 . S
C772 H767 0.949 . S
C772 C778 1.368 . S
C773 C757 1.349 . S
C773 H765 0.950 . S
C773 C771 1.327 . S
C774 C762 1.349 . S
C774 H768 0.950 . S
C774 C775 1.327 . S
C775 H769 0.950 . S
C775 C774 1.327 . S
C775 C779 1.429 . S
C776 C759 1.574 . S
C776 H770 0.949 . S
C776 C780 1.368 . S
C777 C758 1.429 1_455 S
C777 C771 1.429 1_455 S
C777 C778 1.523 . S
C778 C759 1.368 . S
C778 C772 1.368 . S
C778 C777 1.523 . S
C779 C763 1.429 . S
C779 C775 1.429 . S
C779 C780 1.523 . S
C780 C764 1.368 . S
C780 C776 1.368 . S
C780 C779 1.523 . S
H781 C756 0.950 . S
H782 C758 0.950 1_455 S
H783 C759 0.949 . S
H784 C761 0.950 . S
H785 C763 0.950 . S
C786 C787 1.349 . S
C786 C788 1.327 . S
C786 H811 0.950 . S
C787 C786 1.349 . S
C787 C803 1.349 . S
C788 C786 1.327 . S
C788 C807 1.429 . S
C788 H812 0.950 . S
C789 C806 1.574 . S
C789 C808 1.368 . S
C789 H813 0.949 . S
H790 C794 0.949 . S
C791 C792 1.349 . S
C791 C793 1.327 . S
C791 H814 0.950 . S
C792 C791 1.349 . S
C792 C804 1.349 . S
C793 C791 1.327 . S
C793 C809 1.429 1_565 S
C793 H815 0.947 1_565 S
C794 H790 0.949 . S
C794 C802 1.574 . S
C794 C810 1.368 . S
H795 C803 0.950 . S
H796 C801 0.950 . S
H797 C802 0.949 . S
H798 C804 0.950 . S
H799 C805 0.950 1_545 S
H800 C806 0.949 . S
C801 H796 0.950 . S
C801 C803 1.327 . S
C801 C807 1.429 . S
C802 C794 1.574 . S
C802 H797 0.949 . S
C802 C808 1.368 . S
C803 C787 1.349 . S
C803 H795 0.950 . S
C803 C801 1.327 . S
C804 C792 1.349 . S
C804 H798 0.950 . S
C804 C805 1.327 . S
C805 H799 0.950 1_565 S
C805 C804 1.327 . S
C805 C809 1.429 1_565 S
C806 C789 1.574 . S
C806 H800 0.949 . S
C806 C810 1.368 . S
C807 C788 1.429 . S
C807 C801 1.429 . S
C807 C808 1.523 . S
C808 C789 1.368 . S
C808 C802 1.368 . S
C808 C807 1.523 . S
C809 C793 1.429 1_545 S
C809 C805 1.429 1_545 S
C809 C810 1.523 . S
C810 C794 1.368 . S
C810 C806 1.368 . S
C810 C809 1.523 . S
H811 C786 0.950 . S
H812 C788 0.950 . S
H813 C789 0.949 . S
H814 C791 0.950 . S
H815 C793 0.947 1_545 S
C816 C817 1.349 . S
C816 C818 1.327 . S
C816 H841 0.950 . S
C817 C816 1.349 . S
C817 C833 1.349 . S
C818 C816 1.327 . S
C818 C837 1.429 . S
C818 H842 0.950 . S
C819 C836 1.574 . S
C819 C838 1.368 . S
C819 H843 0.949 . S
H820 C824 0.949 . S
C821 C822 1.349 . S
C821 C823 1.327 . S
C821 H844 0.950 . S
C822 C821 1.349 . S
C822 C834 1.349 . S
C823 C821 1.327 . S
C823 C839 1.429 . S
C823 H845 0.950 . S
C824 H820 0.949 . S
C824 C832 1.574 . S
C824 C840 1.368 . S
H825 C833 0.950 . S
H826 C831 0.950 . S
H827 C832 0.949 . S
H828 C834 0.950 . S
H829 C835 0.950 . S
H830 C836 0.949 . S
C831 H826 0.950 . S
C831 C833 1.327 . S
C831 C837 1.429 . S
C832 C824 1.574 . S
C832 H827 0.949 . S
C832 C838 1.368 . S
C833 C817 1.349 . S
C833 H825 0.950 . S
C833 C831 1.327 . S
C834 C822 1.349 . S
C834 H828 0.950 . S
C834 C835 1.327 . S
C835 H829 0.950 . S
C835 C834 1.327 . S
C835 C839 1.429 . S
C836 C819 1.574 . S
C836 H830 0.949 . S
C836 C840 1.368 . S
C837 C818 1.429 . S
C837 C831 1.429 . S
C837 C838 1.523 . S
C838 C819 1.368 . S
C838 C832 1.368 . S
C838 C837 1.523 . S
C839 C823 1.429 . S
C839 C835 1.429 . S
C839 C840 1.523 . S
C840 C824 1.368 . S
C840 C836 1.368 . S
C840 C839 1.523 . S
H841 C816 0.950 . S
H842 C818 0.950 . S
H843 C819 0.949 . S
H844 C821 0.950 . S
H845 C823 0.950 . S
C846 C847 1.349 . S
C846 C848 1.327 . S
C846 H871 0.950 . S
C847 C846 1.349 . S
C847 C863 1.349 . S
C848 C846 1.327 . S
C848 C867 1.429 1_455 S
C848 H872 0.950 . S
C849 C866 1.574 . S
C849 C868 1.368 . S
C849 H873 0.949 . S
H850 C854 0.949 . S
C851 C852 1.349 . S
C851 C853 1.327 . S
C851 H874 0.950 . S
C852 C851 1.349 . S
C852 C864 1.349 . S
C853 C851 1.327 . S
C853 C869 1.429 . S
C853 H875 0.950 . S
C854 H850 0.949 . S
C854 C862 1.574 . S
C854 C870 1.368 . S
H855 C863 0.950 . S
H856 C861 0.950 1_655 S
H857 C862 0.949 . S
H858 C864 0.950 . S
H859 C865 0.950 . S
H860 C866 0.949 . S
C861 H856 0.950 1_455 S
C861 C863 1.327 . S
C861 C867 1.429 1_455 S
C862 C854 1.574 . S
C862 H857 0.949 . S
C862 C868 1.368 . S
C863 C847 1.349 . S
C863 H855 0.950 . S
C863 C861 1.327 . S
C864 C852 1.349 . S
C864 H858 0.950 . S
C864 C865 1.327 . S
C865 H859 0.950 . S
C865 C864 1.327 . S
C865 C869 1.429 . S
C866 C849 1.574 . S
C866 H860 0.949 . S
C866 C870 1.368 . S
C867 C848 1.429 1_655 S
C867 C861 1.429 1_655 S
C867 C868 1.523 . S
C868 C849 1.368 . S
C868 C862 1.368 . S
C868 C867 1.523 . S
C869 C853 1.429 . S
C869 C865 1.429 . S
C869 C870 1.523 . S
C870 C854 1.368 . S
C870 C866 1.368 . S
C870 C869 1.523 . S
H871 C846 0.950 . S
H872 C848 0.950 . S
H873 C849 0.949 . S
H874 C851 0.950 . S
H875 C853 0.950 . S
C876 C877 1.349 . S
C876 C878 1.327 . S
C876 H901 0.950 . S
C877 C876 1.349 . S
C877 C893 1.349 . S
C878 C876 1.327 . S
C878 C897 1.429 . S
C878 H902 0.950 . S
C879 C896 1.574 . S
C879 C898 1.368 . S
C879 H903 0.949 . S
H880 C884 0.949 . S
C881 C882 1.349 . S
C881 C883 1.327 . S
C881 H904 0.950 . S
C882 C881 1.349 . S
C882 C894 1.349 . S
C883 C881 1.327 . S
C883 C899 1.429 1_655 S
C883 H905 0.950 1_655 S
C884 H880 0.949 . S
C884 C892 1.574 . S
C884 C900 1.368 . S
H885 C893 0.950 . S
H886 C891 0.950 . S
H887 C892 0.949 . S
H888 C894 0.950 . S
H889 C895 0.948 1_455 S
H890 C896 0.949 . S
C891 H886 0.950 . S
C891 C893 1.327 . S
C891 C897 1.429 . S
C892 C884 1.574 . S
C892 H887 0.949 . S
C892 C898 1.368 . S
C893 C877 1.349 . S
C893 H885 0.950 . S
C893 C891 1.327 . S
C894 C882 1.349 . S
C894 H888 0.950 . S
C894 C895 1.327 . S
C895 H889 0.948 1_655 S
C895 C894 1.327 . S
C895 C899 1.429 1_655 S
C896 C879 1.574 . S
C896 H890 0.949 . S
C896 C900 1.368 . S
C897 C878 1.429 . S
C897 C891 1.429 . S
C897 C898 1.523 . S
C898 C879 1.368 . S
C898 C892 1.368 . S
C898 C897 1.523 . S
C899 C883 1.429 1_455 S
C899 C895 1.429 1_455 S
C899 C900 1.523 . S
C900 C884 1.368 . S
C900 C896 1.368 . S
C900 C899 1.523 . S
H901 C876 0.950 . S
H902 C878 0.950 . S
H903 C879 0.949 . S
H904 C881 0.950 . S
H905 C883 0.950 1_455 S
C906 C907 1.349 . S
C906 C908 1.327 . S
C906 H931 0.950 . S
C907 C906 1.349 . S
C907 C923 1.349 . S
C908 C906 1.327 . S
C908 C927 1.429 . S
C908 H932 0.950 . S
C909 C926 1.574 . S
C909 C928 1.368 . S
C909 H933 0.949 . S
H910 C914 0.949 . S
C911 C912 1.349 . S
C911 C913 1.327 . S
C911 H934 0.950 . S
C912 C911 1.349 . S
C912 C924 1.349 . S
C913 C911 1.327 . S
C913 C929 1.429 1_565 S
C913 H935 0.950 . S
C914 H910 0.949 . S
C914 C922 1.574 . S
C914 C930 1.368 . S
H915 C923 0.950 . S
H916 C921 0.950 . S
H917 C922 0.949 . S
H918 C924 0.950 . S
H919 C925 0.950 1_545 S
H920 C926 0.949 . S
C921 H916 0.950 . S
C921 C923 1.327 . S
C921 C927 1.429 . S
C922 C914 1.574 . S
C922 H917 0.949 . S
C922 C928 1.368 . S
C923 C907 1.349 . S
C923 H915 0.950 . S
C923 C921 1.327 . S
C924 C912 1.349 . S
C924 H918 0.950 . S
C924 C925 1.327 . S
C925 H919 0.950 1_565 S
C925 C924 1.327 . S
C925 C929 1.429 1_565 S
C926 C909 1.574 . S
C926 H920 0.949 . S
C926 C930 1.368 . S
C927 C908 1.429 . S
C927 C921 1.429 . S
C927 C928 1.523 . S
C928 C909 1.368 . S
C928 C922 1.368 . S
C928 C927 1.523 . S
C929 C913 1.429 1_545 S
C929 C925 1.429 1_545 S
C929 C930 1.523 . S
C930 C914 1.368 . S
C930 C926 1.368 . S
C930 C929 1.523 . S
H931 C906 0.950 . S
H932 C908 0.950 . S
H933 C909 0.949 . S
H934 C911 0.950 . S
H935 C913 0.950 . S
C936 C937 1.349 . S
C936 C938 1.327 . S
C936 H961 0.950 . S
C937 C936 1.349 . S
C937 C953 1.349 . S
C938 C936 1.327 . S
C938 C957 1.429 . S
C938 H962 0.950 . S
C939 C956 1.574 . S
C939 C958 1.368 . S
C939 H963 0.949 . S
H940 C944 0.949 . S
C941 C942 1.349 . S
C941 C943 1.327 . S
C941 H964 0.950 . S
C942 C941 1.349 . S
C942 C954 1.349 . S
C943 C941 1.327 . S
C943 C959 1.429 . S
C943 H965 0.950 . S
C944 H940 0.949 . S
C944 C952 1.574 . S
C944 C960 1.368 . S
H945 C953 0.950 . S
H946 C951 0.950 . S
H947 C952 0.949 . S
H948 C954 0.950 . S
H949 C955 0.950 . S
H950 C956 0.949 . S
C951 H946 0.950 . S
C951 C953 1.327 . S
C951 C957 1.429 . S
C952 C944 1.574 . S
C952 H947 0.949 . S
C952 C958 1.368 . S
C953 C937 1.349 . S
C953 H945 0.950 . S
C953 C951 1.327 . S
C954 C942 1.349 . S
C954 H948 0.950 . S
C954 C955 1.327 . S
C955 H949 0.950 . S
C955 C954 1.327 . S
C955 C959 1.429 . S
C956 C939 1.574 . S
C956 H950 0.949 . S
C956 C960 1.368 . S
C957 C938 1.429 . S
C957 C951 1.429 . S
C957 C958 1.523 . S
C958 C939 1.368 . S
C958 C952 1.368 . S
C958 C957 1.523 . S
C959 C943 1.429 . S
C959 C955 1.429 . S
C959 C960 1.523 . S
C960 C944 1.368 . S
C960 C956 1.368 . S
C960 C959 1.523 . S
H961 C936 0.950 . S
H962 C938 0.950 . S
H963 C939 0.949 . S
H964 C941 0.950 . S
H965 C943 0.950 . S
C966 C967 1.349 . S
C966 C968 1.327 . S
C966 H991 0.950 . S
C967 C966 1.349 . S
C967 C983 1.349 . S
C968 C966 1.327 . S
C968 C987 1.429 1_455 S
C968 H992 0.950 . S
C969 C986 1.574 . S
C969 C988 1.368 . S
C969 H993 0.949 . S
H970 C974 0.949 . S
C971 C972 1.349 . S
C971 C973 1.327 . S
C971 H994 0.950 . S
C972 C971 1.349 . S
C972 C984 1.349 . S
C973 C971 1.327 . S
C973 C989 1.429 . S
C973 H995 0.950 . S
C974 H970 0.949 . S
C974 C982 1.574 . S
C974 C990 1.368 . S
H975 C983 0.950 . S
H976 C981 0.950 1_655 S
H977 C982 0.949 . S
H978 C984 0.950 . S
H979 C985 0.950 . S
H980 C986 0.949 . S
C981 H976 0.950 1_455 S
C981 C983 1.327 . S
C981 C987 1.429 1_455 S
C982 C974 1.574 . S
C982 H977 0.949 . S
C982 C988 1.368 . S
C983 C967 1.349 . S
C983 H975 0.950 . S
C983 C981 1.327 . S
C984 C972 1.349 . S
C984 H978 0.950 . S
C984 C985 1.327 . S
C985 H979 0.950 . S
C985 C984 1.327 . S
C985 C989 1.429 . S
C986 C969 1.574 . S
C986 H980 0.949 . S
C986 C990 1.368 . S
C987 C968 1.429 1_655 S
C987 C981 1.429 1_655 S
C987 C988 1.523 . S
C988 C969 1.368 . S
C988 C982 1.368 . S
C988 C987 1.523 . S
C989 C973 1.429 . S
C989 C985 1.429 . S
C989 C990 1.523 . S
C990 C974 1.368 . S
C990 C986 1.368 . S
C990 C989 1.523 . S
H991 C966 0.950 . S
H992 C968 0.950 . S
H993 C969 0.949 . S
H994 C971 0.950 . S
H995 C973 0.950 . S
C996 C997 1.349 . S
C996 C998 1.327 . S
C996 H1021 0.950 . S
C997 C996 1.349 . S
C997 C1013 1.349 . S
C998 C996 1.327 . S
C998 C1017 1.429 . S
C998 H1022 0.950 . S
C999 C1016 1.574 . S
C999 C1018 1.368 . S
C999 H1023 0.949 . S
H1000 C1004 0.949 . S
C1001 C1002 1.349 . S
C1001 C1003 1.327 . S
C1001 H1024 0.950 . S
C1002 C1001 1.349 . S
C1002 C1014 1.349 . S
C1003 C1001 1.327 . S
C1003 C1019 1.429 1_545 S
C1003 H1025 0.939 1_545 S
C1004 H1000 0.949 . S
C1004 C1012 1.574 . S
C1004 C1020 1.368 . S
H1005 C1013 0.950 . S
H1006 C1011 0.950 . S
H1007 C1012 0.949 . S
H1008 C1014 0.950 . S
H1009 C1015 0.950 1_565 S
H1010 C1016 0.949 . S
C1011 H1006 0.950 . S
C1011 C1013 1.327 . S
C1011 C1017 1.429 . S
C1012 C1004 1.574 . S
C1012 H1007 0.949 . S
C1012 C1018 1.368 . S
C1013 C997 1.349 . S
C1013 H1005 0.950 . S
C1013 C1011 1.327 . S
C1014 C1002 1.349 . S
C1014 H1008 0.950 . S
C1014 C1015 1.327 . S
C1015 H1009 0.950 1_545 S
C1015 C1014 1.327 . S
C1015 C1019 1.429 1_545 S
C1016 C999 1.574 . S
C1016 H1010 0.949 . S
C1016 C1020 1.368 . S
C1017 C998 1.429 . S
C1017 C1011 1.429 . S
C1017 C1018 1.523 . S
C1018 C999 1.368 . S
C1018 C1012 1.368 . S
C1018 C1017 1.523 . S
C1019 C1003 1.429 1_565 S
C1019 C1015 1.429 1_565 S
C1019 C1020 1.523 . S
C1020 C1004 1.368 . S
C1020 C1016 1.368 . S
C1020 C1019 1.523 . S
H1021 C996 0.950 . S
H1022 C998 0.950 . S
H1023 C999 0.949 . S
H1024 C1001 0.950 . S
H1025 C1003 0.939 1_565 S
C1026 C1027 1.349 . S
C1026 C1028 1.327 . S
C1026 H1051 0.950 . S
C1027 C1026 1.349 . S
C1027 C1043 1.349 . S
C1028 C1026 1.327 . S
C1028 C1047 1.429 . S
C1028 H1052 0.950 . S
C1029 C1046 1.574 . S
C1029 C1048 1.368 . S
C1029 H1053 0.949 . S
H1030 C1034 0.949 . S
C1031 C1032 1.349 . S
C1031 C1033 1.327 . S
C1031 H1054 0.950 . S
C1032 C1031 1.349 . S
C1032 C1044 1.349 . S
C1033 C1031 1.327 . S
C1033 C1049 1.429 . S
C1033 H1055 0.950 . S
C1034 H1030 0.949 . S
C1034 C1042 1.574 . S
C1034 C1050 1.368 . S
H1035 C1043 0.950 . S
H1036 C1041 0.950 . S
H1037 C1042 0.949 . S
H1038 C1044 0.950 . S
H1039 C1045 0.950 . S
H1040 C1046 0.949 . S
C1041 H1036 0.950 . S
C1041 C1043 1.327 . S
C1041 C1047 1.429 . S
C1042 C1034 1.574 . S
C1042 H1037 0.949 . S
C1042 C1048 1.368 . S
C1043 C1027 1.349 . S
C1043 H1035 0.950 . S
C1043 C1041 1.327 . S
C1044 C1032 1.349 . S
C1044 H1038 0.950 . S
C1044 C1045 1.327 . S
C1045 H1039 0.950 . S
C1045 C1044 1.327 . S
C1045 C1049 1.429 . S
C1046 C1029 1.574 . S
C1046 H1040 0.949 . S
C1046 C1050 1.368 . S
C1047 C1028 1.429 . S
C1047 C1041 1.429 . S
C1047 C1048 1.523 . S
C1048 C1029 1.368 . S
C1048 C1042 1.368 . S
C1048 C1047 1.523 . S
C1049 C1033 1.429 . S
C1049 C1045 1.429 . S
C1049 C1050 1.523 . S
C1050 C1034 1.368 . S
C1050 C1046 1.368 . S
C1050 C1049 1.523 . S
H1051 C1026 0.950 . S
H1052 C1028 0.950 . S
H1053 C1029 0.949 . S
H1054 C1031 0.950 . S
H1055 C1033 0.950 . S
C1056 C1057 1.349 . S
C1056 C1058 1.327 . S
C1056 H1081 0.950 . S
C1057 C1056 1.349 . S
C1057 C1073 1.349 . S
C1058 C1056 1.327 . S
C1058 C1077 1.429 . S
C1058 H1082 0.950 . S
C1059 C1076 1.574 . S
C1059 C1078 1.368 . S
C1059 H1083 0.949 . S
H1060 C1064 0.949 . S
C1061 C1062 1.349 . S
C1061 C1063 1.327 . S
C1061 H1084 0.950 . S
C1062 C1061 1.349 . S
C1062 C1074 1.349 . S
C1063 C1061 1.327 . S
C1063 C1079 1.429 1_565 S
C1063 H1085 0.950 1_565 S
C1064 H1060 0.949 . S
C1064 C1072 1.574 . S
C1064 C1080 1.368 . S
H1065 C1073 0.950 . S
H1066 C1071 0.950 . S
H1067 C1072 0.949 . S
H1068 C1074 0.950 . S
H1069 C1075 0.950 . S
H1070 C1076 0.949 . S
C1071 H1066 0.950 . S
C1071 C1073 1.327 . S
C1071 C1077 1.429 . S
C1072 C1064 1.574 . S
C1072 H1067 0.949 . S
C1072 C1078 1.368 . S
C1073 C1057 1.349 . S
C1073 H1065 0.950 . S
C1073 C1071 1.327 . S
C1074 C1062 1.349 . S
C1074 H1068 0.950 . S
C1074 C1075 1.327 . S
C1075 H1069 0.950 . S
C1075 C1074 1.327 . S
C1075 C1079 1.429 1_565 S
C1076 C1059 1.574 . S
C1076 H1070 0.949 . S
C1076 C1080 1.368 . S
C1077 C1058 1.429 . S
C1077 C1071 1.429 . S
C1077 C1078 1.523 . S
C1078 C1059 1.368 . S
C1078 C1072 1.368 . S
C1078 C1077 1.523 . S
C1079 C1063 1.429 1_545 S
C1079 C1075 1.429 1_545 S
C1079 C1080 1.523 . S
C1080 C1064 1.368 . S
C1080 C1076 1.368 . S
C1080 C1079 1.523 . S
H1081 C1056 0.950 . S
H1082 C1058 0.950 . S
H1083 C1059 0.949 . S
H1084 C1061 0.950 . S
H1085 C1063 0.950 1_545 S
C1086 C1087 1.349 . S
C1086 C1088 1.327 . S
C1086 H1111 0.950 . S
C1087 C1086 1.349 . S
C1087 C1103 1.349 . S
C1088 C1086 1.327 . S
C1088 C1107 1.429 . S
C1088 H1112 0.950 . S
C1089 C1106 1.574 . S
C1089 C1108 1.368 . S
C1089 H1113 0.949 . S
H1090 C1094 0.949 . S
C1091 C1092 1.349 . S
C1091 C1093 1.327 . S
C1091 H1114 0.950 . S
C1092 C1091 1.349 . S
C1092 C1104 1.349 . S
C1093 C1091 1.327 . S
C1093 C1109 1.429 . S
C1093 H1115 0.950 . S
C1094 H1090 0.949 . S
C1094 C1102 1.574 . S
C1094 C1110 1.368 . S
H1095 C1103 0.950 . S
H1096 C1101 0.950 . S
H1097 C1102 0.949 . S
H1098 C1104 0.950 . S
H1099 C1105 0.950 . S
H1100 C1106 0.949 . S
C1101 H1096 0.950 . S
C1101 C1103 1.327 . S
C1101 C1107 1.429 . S
C1102 C1094 1.574 . S
C1102 H1097 0.949 . S
C1102 C1108 1.368 . S
C1103 C1087 1.349 . S
C1103 H1095 0.950 . S
C1103 C1101 1.327 . S
C1104 C1092 1.349 . S
C1104 H1098 0.950 . S
C1104 C1105 1.327 . S
C1105 H1099 0.950 . S
C1105 C1104 1.327 . S
C1105 C1109 1.429 . S
C1106 C1089 1.574 . S
C1106 H1100 0.949 . S
C1106 C1110 1.368 . S
C1107 C1088 1.429 . S
C1107 C1101 1.429 . S
C1107 C1108 1.523 . S
C1108 C1089 1.368 . S
C1108 C1102 1.368 . S
C1108 C1107 1.523 . S
C1109 C1093 1.429 . S
C1109 C1105 1.429 . S
C1109 C1110 1.523 . S
C1110 C1094 1.368 . S
C1110 C1106 1.368 . S
C1110 C1109 1.523 . S
H1111 C1086 0.950 . S
H1112 C1088 0.950 . S
H1113 C1089 0.949 . S
H1114 C1091 0.950 . S
H1115 C1093 0.950 . S
C1116 C1117 1.349 . S
C1116 C1118 1.327 . S
C1116 H1141 0.950 . S
C1117 C1116 1.349 . S
C1117 C1133 1.349 . S
C1118 C1116 1.327 . S
C1118 C1137 1.429 1_455 S
C1118 H1142 0.950 1_455 S
C1119 C1136 1.574 . S
C1119 C1138 1.368 . S
C1119 H1143 0.949 . S
H1120 C1124 0.949 . S
C1121 C1122 1.349 . S
C1121 C1123 1.327 . S
C1121 H1144 0.950 . S
C1122 C1121 1.349 . S
C1122 C1134 1.349 . S
C1123 C1121 1.327 . S
C1123 C1139 1.429 . S
C1123 H1145 0.950 . S
C1124 H1120 0.949 . S
C1124 C1132 1.574 . S
C1124 C1140 1.368 . S
H1125 C1133 0.950 . S
H1126 C1131 0.950 . S
H1127 C1132 0.949 . S
H1128 C1134 0.950 . S
H1129 C1135 0.950 . S
H1130 C1136 0.949 . S
C1131 H1126 0.950 . S
C1131 C1133 1.327 . S
C1131 C1137 1.429 1_455 S
C1132 C1124 1.574 . S
C1132 H1127 0.949 . S
C1132 C1138 1.368 . S
C1133 C1117 1.349 . S
C1133 H1125 0.950 . S
C1133 C1131 1.327 . S
C1134 C1122 1.349 . S
C1134 H1128 0.950 . S
C1134 C1135 1.327 . S
C1135 H1129 0.950 . S
C1135 C1134 1.327 . S
C1135 C1139 1.429 . S
C1136 C1119 1.574 . S
C1136 H1130 0.949 . S
C1136 C1140 1.368 . S
C1137 C1118 1.429 1_655 S
C1137 C1131 1.429 1_655 S
C1137 C1138 1.523 . S
C1138 C1119 1.368 . S
C1138 C1132 1.368 . S
C1138 C1137 1.523 . S
C1139 C1123 1.429 . S
C1139 C1135 1.429 . S
C1139 C1140 1.523 . S
C1140 C1124 1.368 . S
C1140 C1136 1.368 . S
C1140 C1139 1.523 . S
H1141 C1116 0.950 . S
H1142 C1118 0.950 1_655 S
H1143 C1119 0.949 . S
H1144 C1121 0.950 . S
H1145 C1123 0.950 . S
C1146 C1147 1.349 . S
C1146 C1148 1.327 . S
C1146 H1171 0.950 . S
C1147 C1146 1.349 . S
C1147 C1163 1.349 . S
C1148 C1146 1.327 . S
C1148 C1167 1.429 1_545 S
C1148 H1172 0.950 1_545 S
C1149 C1166 1.574 . S
C1149 C1168 1.368 . S
C1149 H1173 0.949 . S
H1150 C1154 0.949 . S
C1151 C1152 1.349 . S
C1151 C1153 1.327 . S
C1151 H1174 0.950 . S
C1152 C1151 1.349 . S
C1152 C1164 1.349 . S
C1153 C1151 1.327 . S
C1153 C1169 1.429 . S
C1153 H1175 0.950 . S
C1154 H1150 0.949 . S
C1154 C1162 1.574 . S
C1154 C1170 1.368 . S
H1155 C1163 0.950 . S
H1156 C1161 0.949 1_565 S
H1157 C1162 0.949 . S
H1158 C1164 0.950 . S
H1159 C1165 0.950 . S
H1160 C1166 0.949 . S
C1161 H1156 0.949 1_545 S
C1161 C1163 1.327 . S
C1161 C1167 1.429 1_545 S
C1162 C1154 1.574 . S
C1162 H1157 0.949 . S
C1162 C1168 1.368 . S
C1163 C1147 1.349 . S
C1163 H1155 0.950 . S
C1163 C1161 1.327 . S
C1164 C1152 1.349 . S
C1164 H1158 0.950 . S
C1164 C1165 1.327 . S
C1165 H1159 0.950 . S
C1165 C1164 1.327 . S
C1165 C1169 1.429 . S
C1166 C1149 1.574 . S
C1166 H1160 0.949 . S
C1166 C1170 1.368 . S
C1167 C1148 1.429 1_565 S
C1167 C1161 1.429 1_565 S
C1167 C1168 1.523 . S
C1168 C1149 1.368 . S
C1168 C1162 1.368 . S
C1168 C1167 1.523 . S
C1169 C1153 1.429 . S
C1169 C1165 1.429 . S
C1169 C1170 1.523 . S
C1170 C1154 1.368 . S
C1170 C1166 1.368 . S
C1170 C1169 1.523 . S
H1171 C1146 0.950 . S
H1172 C1148 0.950 1_565 S
H1173 C1149 0.949 . S
H1174 C1151 0.950 . S
H1175 C1153 0.950 . S
C1176 C1177 1.349 . S
C1176 C1178 1.327 . S
C1176 H1201 0.950 . S
C1177 C1176 1.349 . S
C1177 C1193 1.349 . S
C1178 C1176 1.327 . S
C1178 C1197 1.429 . S
C1178 H1202 0.950 . S
C1179 C1196 1.574 . S
C1179 C1198 1.368 . S
C1179 H1203 0.949 . S
H1180 C1184 0.949 . S
C1181 C1182 1.349 . S
C1181 C1183 1.327 . S
C1181 H1204 0.950 . S
C1182 C1181 1.349 . S
C1182 C1194 1.349 . S
C1183 C1181 1.327 . S
C1183 C1199 1.429 . S
C1183 H1205 0.950 . S
C1184 H1180 0.949 . S
C1184 C1192 1.574 . S
C1184 C1200 1.368 . S
H1185 C1193 0.950 . S
H1186 C1191 0.950 . S
H1187 C1192 0.949 . S
H1188 C1194 0.950 . S
H1189 C1195 0.950 . S
H1190 C1196 0.949 . S
C1191 H1186 0.950 . S
C1191 C1193 1.327 . S
C1191 C1197 1.429 . S
C1192 C1184 1.574 . S
C1192 H1187 0.949 . S
C1192 C1198 1.368 . S
C1193 C1177 1.349 . S
C1193 H1185 0.950 . S
C1193 C1191 1.327 . S
C1194 C1182 1.349 . S
C1194 H1188 0.950 . S
C1194 C1195 1.327 . S
C1195 H1189 0.950 . S
C1195 C1194 1.327 . S
C1195 C1199 1.429 . S
C1196 C1179 1.574 . S
C1196 H1190 0.949 . S
C1196 C1200 1.368 . S
C1197 C1178 1.429 . S
C1197 C1191 1.429 . S
C1197 C1198 1.523 . S
C1198 C1179 1.368 . S
C1198 C1192 1.368 . S
C1198 C1197 1.523 . S
C1199 C1183 1.429 . S
C1199 C1195 1.429 . S
C1199 C1200 1.523 . S
C1200 C1184 1.368 . S
C1200 C1196 1.368 . S
C1200 C1199 1.523 . S
H1201 C1176 0.950 . S
H1202 C1178 0.950 . S
H1203 C1179 0.949 . S
H1204 C1181 0.950 . S
H1205 C1183 0.950 . S
C1206 C1207 1.349 . S
C1206 C1208 1.327 . S
C1206 H1231 0.950 . S
C1207 C1206 1.349 . S
C1207 C1223 1.349 . S
C1208 C1206 1.327 . S
C1208 C1227 1.429 1_655 S
C1208 H1232 0.950 1_655 S
C1209 C1226 1.574 . S
C1209 C1228 1.368 . S
C1209 H1233 0.949 . S
H1210 C1214 0.949 . S
C1211 C1212 1.349 . S
C1211 C1213 1.327 . S
C1211 H1234 0.950 . S
C1212 C1211 1.349 . S
C1212 C1224 1.349 . S
C1213 C1211 1.327 . S
C1213 C1229 1.429 . S
C1213 H1235 0.950 . S
C1214 H1210 0.949 . S
C1214 C1222 1.574 . S
C1214 C1230 1.368 . S
H1215 C1223 0.950 . S
H1216 C1221 0.931 1_455 S
H1217 C1222 0.949 . S
H1218 C1224 0.950 . S
H1219 C1225 0.950 . S
H1220 C1226 0.949 . S
C1221 H1216 0.931 1_655 S
C1221 C1223 1.327 . S
C1221 C1227 1.429 1_655 S
C1222 C1214 1.574 . S
C1222 H1217 0.949 . S
C1222 C1228 1.368 . S
C1223 C1207 1.349 . S
C1223 H1215 0.950 . S
C1223 C1221 1.327 . S
C1224 C1212 1.349 . S
C1224 H1218 0.950 . S
C1224 C1225 1.327 . S
C1225 H1219 0.950 . S
C1225 C1224 1.327 . S
C1225 C1229 1.429 . S
C1226 C1209 1.574 . S
C1226 H1220 0.949 . S
C1226 C1230 1.368 . S
C1227 C1208 1.429 1_455 S
C1227 C1221 1.429 1_455 S
C1227 C1228 1.523 . S
C1228 C1209 1.368 . S
C1228 C1222 1.368 . S
C1228 C1227 1.523 . S
C1229 C1213 1.429 . S
C1229 C1225 1.429 . S
C1229 C1230 1.523 . S
C1230 C1214 1.368 . S
C1230 C1226 1.368 . S
C1230 C1229 1.523 . S
H1231 C1206 0.950 . S
H1232 C1208 0.950 1_455 S
H1233 C1209 0.949 . S
H1234 C1211 0.950 . S
H1235 C1213 0.950 . S
C1236 C1237 1.349 . S
C1236 C1238 1.327 . S
C1236 H1261 0.950 . S
C1237 C1236 1.349 . S
C1237 C1253 1.349 . S
C1238 C1236 1.327 . S
C1238 C1257 1.429 . S
C1238 H1262 0.950 . S
C1239 C1256 1.574 . S
C1239 C1258 1.368 . S
C1239 H1263 0.949 . S
H1240 C1244 0.949 . S
C1241 C1242 1.349 . S
C1241 C1243 1.327 . S
C1241 H1264 0.950 . S
C1242 C1241 1.349 . S
C1242 C1254 1.349 . S
C1243 C1241 1.327 . S
C1243 C1259 1.429 1_455 S
C1243 H1265 0.950 . S
C1244 H1240 0.949 . S
C1244 C1252 1.574 . S
C1244 C1260 1.368 . S
H1245 C1253 0.950 . S
H1246 C1251 0.950 . S
H1247 C1252 0.949 . S
H1248 C1254 0.950 . S
H1249 C1255 0.950 1_655 S
H1250 C1256 0.949 . S
C1251 H1246 0.950 . S
C1251 C1253 1.327 . S
C1251 C1257 1.429 . S
C1252 C1244 1.574 . S
C1252 H1247 0.949 . S
C1252 C1258 1.368 . S
C1253 C1237 1.349 . S
C1253 H1245 0.950 . S
C1253 C1251 1.327 . S
C1254 C1242 1.349 . S
C1254 H1248 0.950 . S
C1254 C1255 1.327 . S
C1255 H1249 0.950 1_455 S
C1255 C1254 1.327 . S
C1255 C1259 1.429 1_455 S
C1256 C1239 1.574 . S
C1256 H1250 0.949 . S
C1256 C1260 1.368 . S
C1257 C1238 1.429 . S
C1257 C1251 1.429 . S
C1257 C1258 1.523 . S
C1258 C1239 1.368 . S
C1258 C1252 1.368 . S
C1258 C1257 1.523 . S
C1259 C1243 1.429 1_655 S
C1259 C1255 1.429 1_655 S
C1259 C1260 1.523 . S
C1260 C1244 1.368 . S
C1260 C1256 1.368 . S
C1260 C1259 1.523 . S
H1261 C1236 0.950 . S
H1262 C1238 0.950 . S
H1263 C1239 0.949 . S
H1264 C1241 0.950 . S
H1265 C1243 0.950 . S
C1266 C1267 1.349 . S
C1266 C1268 1.327 . S
C1266 H1291 0.950 . S
C1267 C1266 1.349 . S
C1267 C1283 1.349 . S
C1268 C1266 1.327 . S
C1268 C1287 1.429 . S
C1268 H1292 0.950 . S
C1269 C1286 1.574 . S
C1269 C1288 1.368 . S
C1269 H1293 0.949 . S
H1270 C1274 0.949 . S
C1271 C1272 1.349 . S
C1271 C1273 1.327 . S
C1271 H1294 0.950 . S
C1272 C1271 1.349 . S
C1272 C1284 1.349 . S
C1273 C1271 1.327 . S
C1273 C1289 1.429 1_545 S
C1273 H1295 0.950 1_545 S
C1274 H1270 0.949 . S
C1274 C1282 1.574 . S
C1274 C1290 1.368 . S
H1275 C1283 0.950 . S
H1276 C1281 0.950 . S
H1277 C1282 0.949 . S
H1278 C1284 0.950 . S
H1279 C1285 0.950 . S
H1280 C1286 0.949 . S
C1281 H1276 0.950 . S
C1281 C1283 1.327 . S
C1281 C1287 1.429 . S
C1282 C1274 1.574 . S
C1282 H1277 0.949 . S
C1282 C1288 1.368 . S
C1283 C1267 1.349 . S
C1283 H1275 0.950 . S
C1283 C1281 1.327 . S
C1284 C1272 1.349 . S
C1284 H1278 0.950 . S
C1284 C1285 1.327 . S
C1285 H1279 0.950 . S
C1285 C1284 1.327 . S
C1285 C1289 1.429 1_545 S
C1286 C1269 1.574 . S
C1286 H1280 0.949 . S
C1286 C1290 1.368 . S
C1287 C1268 1.429 . S
C1287 C1281 1.429 . S
C1287 C1288 1.523 . S
C1288 C1269 1.368 . S
C1288 C1282 1.368 . S
C1288 C1287 1.523 . S
C1289 C1273 1.429 1_565 S
C1289 C1285 1.429 1_565 S
C1289 C1290 1.523 . S
C1290 C1274 1.368 . S
C1290 C1286 1.368 . S
C1290 C1289 1.523 . S
H1291 C1266 0.950 . S
H1292 C1268 0.950 . S
H1293 C1269 0.949 . S
H1294 C1271 0.950 . S
H1295 C1273 0.950 1_565 S
C1296 C1297 1.349 . S
C1296 C1298 1.327 . S
C1296 H1321 0.950 . S
C1297 C1296 1.349 . S
C1297 C1313 1.349 . S
C1298 C1296 1.327 . S
C1298 C1317 1.429 . S
C1298 H1322 0.950 . S
C1299 C1316 1.574 . S
C1299 C1318 1.368 . S
C1299 H1323 0.949 . S
H1300 C1304 0.949 . S
C1301 C1302 1.349 . S
C1301 C1303 1.327 . S
C1301 H1324 0.950 . S
C1302 C1301 1.349 . S
C1302 C1314 1.349 . S
C1303 C1301 1.327 . S
C1303 C1319 1.429 . S
C1303 H1325 0.950 . S
C1304 H1300 0.949 . S
C1304 C1312 1.574 . S
C1304 C1320 1.368 . S
H1305 C1313 0.950 . S
H1306 C1311 0.950 . S
H1307 C1312 0.949 . S
H1308 C1314 0.950 . S
H1309 C1315 0.950 . S
H1310 C1316 0.949 . S
C1311 H1306 0.950 . S
C1311 C1313 1.327 . S
C1311 C1317 1.429 . S
C1312 C1304 1.574 . S
C1312 H1307 0.949 . S
C1312 C1318 1.368 . S
C1313 C1297 1.349 . S
C1313 H1305 0.950 . S
C1313 C1311 1.327 . S
C1314 C1302 1.349 . S
C1314 H1308 0.950 . S
C1314 C1315 1.327 . S
C1315 H1309 0.950 . S
C1315 C1314 1.327 . S
C1315 C1319 1.429 . S
C1316 C1299 1.574 . S
C1316 H1310 0.949 . S
C1316 C1320 1.368 . S
C1317 C1298 1.429 . S
C1317 C1311 1.429 . S
C1317 C1318 1.523 . S
C1318 C1299 1.368 . S
C1318 C1312 1.368 . S
C1318 C1317 1.523 . S
C1319 C1303 1.429 . S
C1319 C1315 1.429 . S
C1319 C1320 1.523 . S
C1320 C1304 1.368 . S
C1320 C1316 1.368 . S
C1320 C1319 1.523 . S
H1321 C1296 0.950 . S
H1322 C1298 0.950 . S
H1323 C1299 0.949 . S
H1324 C1301 0.950 . S
H1325 C1303 0.950 . S
C1326 C1327 1.349 . S
C1326 C1328 1.327 . S
C1326 H1351 0.950 . S
C1327 C1326 1.349 . S
C1327 C1343 1.349 . S
C1328 C1326 1.327 . S
C1328 C1347 1.429 1_655 S
C1328 H1352 0.950 1_655 S
C1329 C1346 1.574 . S
C1329 C1348 1.368 . S
C1329 H1353 0.949 . S
H1330 C1334 0.949 . S
C1331 C1332 1.349 . S
C1331 C1333 1.327 . S
C1331 H1354 0.950 . S
C1332 C1331 1.349 . S
C1332 C1344 1.349 . S
C1333 C1331 1.327 . S
C1333 C1349 1.429 . S
C1333 H1355 0.950 . S
C1334 H1330 0.949 . S
C1334 C1342 1.574 . S
C1334 C1350 1.368 . S
H1335 C1343 0.950 . S
H1336 C1341 0.950 1_455 S
H1337 C1342 0.949 . S
H1338 C1344 0.950 . S
H1339 C1345 0.950 . S
H1340 C1346 0.949 . S
C1341 H1336 0.950 1_655 S
C1341 C1343 1.327 . S
C1341 C1347 1.429 1_655 S
C1342 C1334 1.574 . S
C1342 H1337 0.949 . S
C1342 C1348 1.368 . S
C1343 C1327 1.349 . S
C1343 H1335 0.950 . S
C1343 C1341 1.327 . S
C1344 C1332 1.349 . S
C1344 H1338 0.950 . S
C1344 C1345 1.327 . S
C1345 H1339 0.950 . S
C1345 C1344 1.327 . S
C1345 C1349 1.429 . S
C1346 C1329 1.574 . S
C1346 H1340 0.949 . S
C1346 C1350 1.368 . S
C1347 C1328 1.429 1_455 S
C1347 C1341 1.429 1_455 S
C1347 C1348 1.523 . S
C1348 C1329 1.368 . S
C1348 C1342 1.368 . S
C1348 C1347 1.523 . S
C1349 C1333 1.429 . S
C1349 C1345 1.429 . S
C1349 C1350 1.523 . S
C1350 C1334 1.368 . S
C1350 C1346 1.368 . S
C1350 C1349 1.523 . S
H1351 C1326 0.950 . S
H1352 C1328 0.950 1_455 S
H1353 C1329 0.949 . S
H1354 C1331 0.950 . S
H1355 C1333 0.950 . S
C1356 C1357 1.349 . S
C1356 C1358 1.327 . S
C1356 H1381 0.950 . S
C1357 C1356 1.349 . S
C1357 C1373 1.349 . S
C1358 C1356 1.327 . S
C1358 C1377 1.429 1_565 S
C1358 H1382 0.949 1_565 S
C1359 C1376 1.574 . S
C1359 C1378 1.368 . S
C1359 H1383 0.949 . S
H1360 C1364 0.949 . S
C1361 C1362 1.349 . S
C1361 C1363 1.327 . S
C1361 H1384 0.950 . S
C1362 C1361 1.349 . S
C1362 C1374 1.349 . S
C1363 C1361 1.327 . S
C1363 C1379 1.429 . S
C1363 H1385 0.950 . S
C1364 H1360 0.949 . S
C1364 C1372 1.574 . S
C1364 C1380 1.368 . S
H1365 C1373 0.950 . S
H1366 C1371 0.950 1_545 S
H1367 C1372 0.949 . S
H1368 C1374 0.950 . S
H1369 C1375 0.950 . S
H1370 C1376 0.949 . S
C1371 H1366 0.950 1_565 S
C1371 C1373 1.327 . S
C1371 C1377 1.429 1_565 S
C1372 C1364 1.574 . S
C1372 H1367 0.949 . S
C1372 C1378 1.368 . S
C1373 C1357 1.349 . S
C1373 H1365 0.950 . S
C1373 C1371 1.327 . S
C1374 C1362 1.349 . S
C1374 H1368 0.950 . S
C1374 C1375 1.327 . S
C1375 H1369 0.950 . S
C1375 C1374 1.327 . S
C1375 C1379 1.429 . S
C1376 C1359 1.574 . S
C1376 H1370 0.949 . S
C1376 C1380 1.368 . S
C1377 C1358 1.429 1_545 S
C1377 C1371 1.429 1_545 S
C1377 C1378 1.523 . S
C1378 C1359 1.368 . S
C1378 C1372 1.368 . S
C1378 C1377 1.523 . S
C1379 C1363 1.429 . S
C1379 C1375 1.429 . S
C1379 C1380 1.523 . S
C1380 C1364 1.368 . S
C1380 C1376 1.368 . S
C1380 C1379 1.523 . S
H1381 C1356 0.950 . S
H1382 C1358 0.949 1_545 S
H1383 C1359 0.949 . S
H1384 C1361 0.950 . S
H1385 C1363 0.950 . S
C1386 C1387 1.349 . S
C1386 C1388 1.327 . S
C1386 H1411 0.950 . S
C1387 C1386 1.349 . S
C1387 C1403 1.349 . S
C1388 C1386 1.327 . S
C1388 C1407 1.429 . S
C1388 H1412 0.950 . S
C1389 C1406 1.574 . S
C1389 C1408 1.368 . S
C1389 H1413 0.949 . S
H1390 C1394 0.949 . S
C1391 C1392 1.349 . S
C1391 C1393 1.327 . S
C1391 H1414 0.950 . S
C1392 C1391 1.349 . S
C1392 C1404 1.349 . S
C1393 C1391 1.327 . S
C1393 C1409 1.429 . S
C1393 H1415 0.950 . S
C1394 H1390 0.949 . S
C1394 C1402 1.574 . S
C1394 C1410 1.368 . S
H1395 C1403 0.950 . S
H1396 C1401 0.950 . S
H1397 C1402 0.949 . S
H1398 C1404 0.950 . S
H1399 C1405 0.950 . S
H1400 C1406 0.949 . S
C1401 H1396 0.950 . S
C1401 C1403 1.327 . S
C1401 C1407 1.429 . S
C1402 C1394 1.574 . S
C1402 H1397 0.949 . S
C1402 C1408 1.368 . S
C1403 C1387 1.349 . S
C1403 H1395 0.950 . S
C1403 C1401 1.327 . S
C1404 C1392 1.349 . S
C1404 H1398 0.950 . S
C1404 C1405 1.327 . S
C1405 H1399 0.950 . S
C1405 C1404 1.327 . S
C1405 C1409 1.429 . S
C1406 C1389 1.574 . S
C1406 H1400 0.949 . S
C1406 C1410 1.368 . S
C1407 C1388 1.429 . S
C1407 C1401 1.429 . S
C1407 C1408 1.523 . S
C1408 C1389 1.368 . S
C1408 C1402 1.368 . S
C1408 C1407 1.523 . S
C1409 C1393 1.429 . S
C1409 C1405 1.429 . S
C1409 C1410 1.523 . S
C1410 C1394 1.368 . S
C1410 C1406 1.368 . S
C1410 C1409 1.523 . S
H1411 C1386 0.950 . S
H1412 C1388 0.950 . S
H1413 C1389 0.949 . S
H1414 C1391 0.950 . S
H1415 C1393 0.950 . S
C1416 C1417 1.349 . S
C1416 C1418 1.327 . S
C1416 H1441 0.950 . S
C1417 C1416 1.349 . S
C1417 C1433 1.349 . S
C1418 C1416 1.327 . S
C1418 C1437 1.429 . S
C1418 H1442 0.950 . S
C1419 C1436 1.574 1_554 S
C1419 C1438 1.368 . S
C1419 H1443 0.949 . S
H1420 C1424 0.949 . S
C1421 C1422 1.349 . S
C1421 C1423 1.327 . S
C1421 H1444 0.950 . S
C1422 C1421 1.349 . S
C1422 C1434 1.349 . S
C1423 C1421 1.327 . S
C1423 C1439 1.429 . S
C1423 H1445 0.950 . S
C1424 H1420 0.949 . S
C1424 C1432 1.574 1_556 S
C1424 C1440 1.368 . S
H1425 C1433 0.950 . S
H1426 C1431 0.950 . S
H1427 C1432 0.949 . S
H1428 C1434 0.950 . S
H1429 C1435 0.950 . S
H1430 C1436 0.949 . S
C1431 H1426 0.950 . S
C1431 C1433 1.327 . S
C1431 C1437 1.429 . S
C1432 C1424 1.574 1_554 S
C1432 H1427 0.949 . S
C1432 C1438 1.368 . S
C1433 C1417 1.349 . S
C1433 H1425 0.950 . S
C1433 C1431 1.327 . S
C1434 C1422 1.349 . S
C1434 H1428 0.950 . S
C1434 C1435 1.327 . S
C1435 H1429 0.950 . S
C1435 C1434 1.327 . S
C1435 C1439 1.429 . S
C1436 C1419 1.574 1_556 S
C1436 H1430 0.949 . S
C1436 C1440 1.368 . S
C1437 C1418 1.429 . S
C1437 C1431 1.429 . S
C1437 C1438 1.523 . S
C1438 C1419 1.368 . S
C1438 C1432 1.368 . S
C1438 C1437 1.523 . S
C1439 C1423 1.429 . S
C1439 C1435 1.429 . S
C1439 C1440 1.523 . S
C1440 C1424 1.368 . S
C1440 C1436 1.368 . S
C1440 C1439 1.523 . S
H1441 C1416 0.950 . S
H1442 C1418 0.950 . S
H1443 C1419 0.949 . S
H1444 C1421 0.950 . S
H1445 C1423 0.950 . S
C1446 C1447 1.349 . S
C1446 C1448 1.327 . S
C1446 H1471 0.950 . S
C1447 C1446 1.349 . S
C1447 C1463 1.349 . S
C1448 C1446 1.327 . S
C1448 C1467 1.429 . S
C1448 H1472 0.950 . S
C1449 C1466 1.574 1_554 S
C1449 C1468 1.368 . S
C1449 H1473 0.949 . S
H1450 C1454 0.949 . S
C1451 C1452 1.349 . S
C1451 C1453 1.327 . S
C1451 H1474 0.950 . S
C1452 C1451 1.349 . S
C1452 C1464 1.349 . S
C1453 C1451 1.327 . S
C1453 C1469 1.429 . S
C1453 H1475 0.950 . S
C1454 H1450 0.949 . S
C1454 C1462 1.574 1_556 S
C1454 C1470 1.368 . S
H1455 C1463 0.950 . S
H1456 C1461 0.950 . S
H1457 C1462 0.949 . S
H1458 C1464 0.950 . S
H1459 C1465 0.950 . S
H1460 C1466 0.949 . S
C1461 H1456 0.950 . S
C1461 C1463 1.327 . S
C1461 C1467 1.429 . S
C1462 C1454 1.574 1_554 S
C1462 H1457 0.949 . S
C1462 C1468 1.368 . S
C1463 C1447 1.349 . S
C1463 H1455 0.950 . S
C1463 C1461 1.327 . S
C1464 C1452 1.349 . S
C1464 H1458 0.950 . S
C1464 C1465 1.327 . S
C1465 H1459 0.950 . S
C1465 C1464 1.327 . S
C1465 C1469 1.429 . S
C1466 C1449 1.574 1_556 S
C1466 H1460 0.949 . S
C1466 C1470 1.368 . S
C1467 C1448 1.429 . S
C1467 C1461 1.429 . S
C1467 C1468 1.523 . S
C1468 C1449 1.368 . S
C1468 C1462 1.368 . S
C1468 C1467 1.523 . S
C1469 C1453 1.429 . S
C1469 C1465 1.429 . S
C1469 C1470 1.523 . S
C1470 C1454 1.368 . S
C1470 C1466 1.368 . S
C1470 C1469 1.523 . S
H1471 C1446 0.950 . S
H1472 C1448 0.950 . S
H1473 C1449 0.949 . S
H1474 C1451 0.950 . S
H1475 C1453 0.950 . S
C1476 C1477 1.349 . S
C1476 C1478 1.327 . S
C1476 H1501 0.950 . S
C1477 C1476 1.349 . S
C1477 C1493 1.349 . S
C1478 C1476 1.327 . S
C1478 C1497 1.429 . S
C1478 H1502 0.950 . S
C1479 C1496 1.574 1_554 S
C1479 C1498 1.368 . S
C1479 H1503 0.949 . S
H1480 C1484 0.949 . S
C1481 C1482 1.349 . S
C1481 C1483 1.327 . S
C1481 H1504 0.950 . S
C1482 C1481 1.349 . S
C1482 C1494 1.349 . S
C1483 C1481 1.327 . S
C1483 C1499 1.429 . S
C1483 H1505 0.950 . S
C1484 H1480 0.949 . S
C1484 C1492 1.574 1_556 S
C1484 C1500 1.368 . S
H1485 C1493 0.950 . S
H1486 C1491 0.950 . S
H1487 C1492 0.949 . S
H1488 C1494 0.950 . S
H1489 C1495 0.950 . S
H1490 C1496 0.949 . S
C1491 H1486 0.950 . S
C1491 C1493 1.327 . S
C1491 C1497 1.429 . S
C1492 C1484 1.574 1_554 S
C1492 H1487 0.949 . S
C1492 C1498 1.368 . S
C1493 C1477 1.349 . S
C1493 H1485 0.950 . S
C1493 C1491 1.327 . S
C1494 C1482 1.349 . S
C1494 H1488 0.950 . S
C1494 C1495 1.327 . S
C1495 H1489 0.950 . S
C1495 C1494 1.327 . S
C1495 C1499 1.429 . S
C1496 C1479 1.574 1_556 S
C1496 H1490 0.949 . S
C1496 C1500 1.368 . S
C1497 C1478 1.429 . S
C1497 C1491 1.429 . S
C1497 C1498 1.523 . S
C1498 C1479 1.368 . S
C1498 C1492 1.368 . S
C1498 C1497 1.523 . S
C1499 C1483 1.429 . S
C1499 C1495 1.429 . S
C1499 C1500 1.523 . S
C1500 C1484 1.368 . S
C1500 C1496 1.368 . S
C1500 C1499 1.523 . S
H1501 C1476 0.950 . S
H1502 C1478 0.950 . S
H1503 C1479 0.949 . S
H1504 C1481 0.950 . S
H1505 C1483 0.950 . S
C1506 C1507 1.349 . S
C1506 C1508 1.327 . S
C1506 H1531 0.950 . S
C1507 C1506 1.349 . S
C1507 C1523 1.349 . S
C1508 C1506 1.327 . S
C1508 C1527 1.429 . S
C1508 H1532 0.950 . S
C1509 C1526 1.574 1_556 S
C1509 C1528 1.368 . S
C1509 H1533 0.949 . S
H1510 C1514 0.949 . S
C1511 C1512 1.349 . S
C1511 C1513 1.327 . S
C1511 H1534 0.950 . S
C1512 C1511 1.349 . S
C1512 C1524 1.349 . S
C1513 C1511 1.327 . S
C1513 C1529 1.429 . S
C1513 H1535 0.950 . S
C1514 H1510 0.949 . S
C1514 C1522 1.574 1_554 S
C1514 C1530 1.368 . S
H1515 C1523 0.950 . S
H1516 C1521 0.950 . S
H1517 C1522 0.949 . S
H1518 C1524 0.950 . S
H1519 C1525 0.950 . S
H1520 C1526 0.949 . S
C1521 H1516 0.950 . S
C1521 C1523 1.327 . S
C1521 C1527 1.429 . S
C1522 C1514 1.574 1_556 S
C1522 H1517 0.949 . S
C1522 C1528 1.368 . S
C1523 C1507 1.349 . S
C1523 H1515 0.950 . S
C1523 C1521 1.327 . S
C1524 C1512 1.349 . S
C1524 H1518 0.950 . S
C1524 C1525 1.327 . S
C1525 H1519 0.950 . S
C1525 C1524 1.327 . S
C1525 C1529 1.429 . S
C1526 C1509 1.574 1_554 S
C1526 H1520 0.949 . S
C1526 C1530 1.368 . S
C1527 C1508 1.429 . S
C1527 C1521 1.429 . S
C1527 C1528 1.523 . S
C1528 C1509 1.368 . S
C1528 C1522 1.368 . S
C1528 C1527 1.523 . S
C1529 C1513 1.429 . S
C1529 C1525 1.429 . S
C1529 C1530 1.523 . S
C1530 C1514 1.368 . S
C1530 C1526 1.368 . S
C1530 C1529 1.523 . S
H1531 C1506 0.950 . S
H1532 C1508 0.950 . S
H1533 C1509 0.949 . S
H1534 C1511 0.950 . S
H1535 C1513 0.950 . S
C1536 C1537 1.349 . S
C1536 C1538 1.327 . S
C1536 H1561 0.950 . S
C1537 C1536 1.349 . S
C1537 C1553 1.349 . S
C1538 C1536 1.327 . S
C1538 C1557 1.429 . S
C1538 H1562 0.950 . S
C1539 C1556 1.574 1_554 S
C1539 C1558 1.368 . S
C1539 H1563 0.949 . S
H1540 C1544 0.949 . S
C1541 C1542 1.349 . S
C1541 C1543 1.327 . S
C1541 H1564 0.950 . S
C1542 C1541 1.349 . S
C1542 C1554 1.349 . S
C1543 C1541 1.327 . S
C1543 C1559 1.429 . S
C1543 H1565 0.950 . S
C1544 H1540 0.949 . S
C1544 C1552 1.574 1_556 S
C1544 C1560 1.368 . S
H1545 C1553 0.950 . S
H1546 C1551 0.950 . S
H1547 C1552 0.949 . S
H1548 C1554 0.950 . S
H1549 C1555 0.950 . S
H1550 C1556 0.949 . S
C1551 H1546 0.950 . S
C1551 C1553 1.327 . S
C1551 C1557 1.429 . S
C1552 C1544 1.574 1_554 S
C1552 H1547 0.949 . S
C1552 C1558 1.368 . S
C1553 C1537 1.349 . S
C1553 H1545 0.950 . S
C1553 C1551 1.327 . S
C1554 C1542 1.349 . S
C1554 H1548 0.950 . S
C1554 C1555 1.327 . S
C1555 H1549 0.950 . S
C1555 C1554 1.327 . S
C1555 C1559 1.429 . S
C1556 C1539 1.574 1_556 S
C1556 H1550 0.949 . S
C1556 C1560 1.368 . S
C1557 C1538 1.429 . S
C1557 C1551 1.429 . S
C1557 C1558 1.523 . S
C1558 C1539 1.368 . S
C1558 C1552 1.368 . S
C1558 C1557 1.523 . S
C1559 C1543 1.429 . S
C1559 C1555 1.429 . S
C1559 C1560 1.523 . S
C1560 C1544 1.368 . S
C1560 C1556 1.368 . S
C1560 C1559 1.523 . S
H1561 C1536 0.950 . S
H1562 C1538 0.950 . S
H1563 C1539 0.949 . S
H1564 C1541 0.950 . S
H1565 C1543 0.950 . S
C1566 C1567 1.349 . S
C1566 C1568 1.327 . S
C1566 H1591 0.950 . S
C1567 C1566 1.349 . S
C1567 C1583 1.349 . S
C1568 C1566 1.327 . S
C1568 C1587 1.429 . S
C1568 H1592 0.950 . S
C1569 C1586 1.574 1_554 S
C1569 C1588 1.368 . S
C1569 H1593 0.949 . S
H1570 C1574 0.949 . S
C1571 C1572 1.349 . S
C1571 C1573 1.327 . S
C1571 H1594 0.950 . S
C1572 C1571 1.349 . S
C1572 C1584 1.349 . S
C1573 C1571 1.327 . S
C1573 C1589 1.429 . S
C1573 H1595 0.950 . S
C1574 H1570 0.949 . S
C1574 C1582 1.574 1_556 S
C1574 C1590 1.368 . S
H1575 C1583 0.950 . S
H1576 C1581 0.950 . S
H1577 C1582 0.949 . S
H1578 C1584 0.950 . S
H1579 C1585 0.950 . S
H1580 C1586 0.949 . S
C1581 H1576 0.950 . S
C1581 C1583 1.327 . S
C1581 C1587 1.429 . S
C1582 C1574 1.574 1_554 S
C1582 H1577 0.949 . S
C1582 C1588 1.368 . S
C1583 C1567 1.349 . S
C1583 H1575 0.950 . S
C1583 C1581 1.327 . S
C1584 C1572 1.349 . S
C1584 H1578 0.950 . S
C1584 C1585 1.327 . S
C1585 H1579 0.950 . S
C1585 C1584 1.327 . S
C1585 C1589 1.429 . S
C1586 C1569 1.574 1_556 S
C1586 H1580 0.949 . S
C1586 C1590 1.368 . S
C1587 C1568 1.429 . S
C1587 C1581 1.429 . S
C1587 C1588 1.523 . S
C1588 C1569 1.368 . S
C1588 C1582 1.368 . S
C1588 C1587 1.523 . S
C1589 C1573 1.429 . S
C1589 C1585 1.429 . S
C1589 C1590 1.523 . S
C1590 C1574 1.368 . S
C1590 C1586 1.368 . S
C1590 C1589 1.523 . S
H1591 C1566 0.950 . S
H1592 C1568 0.950 . S
H1593 C1569 0.949 . S
H1594 C1571 0.950 . S
H1595 C1573 0.950 . S
C1596 C1597 1.349 . S
C1596 C1598 1.327 . S
C1596 H1621 0.950 . S
C1597 C1596 1.349 . S
C1597 C1613 1.349 . S
C1598 C1596 1.327 . S
C1598 C1617 1.429 . S
C1598 H1622 0.950 . S
C1599 C1616 1.574 . S
C1599 C1618 1.368 . S
C1599 H1623 0.949 . S
H1600 C1604 0.949 . S
C1601 C1602 1.349 . S
C1601 C1603 1.327 . S
C1601 H1624 0.950 . S
C1602 C1601 1.349 . S
C1602 C1614 1.349 . S
C1603 C1601 1.327 . S
C1603 C1619 1.429 . S
C1603 H1625 0.950 . S
C1604 H1600 0.949 . S
C1604 C1612 1.574 . S
C1604 C1620 1.368 . S
H1605 C1613 0.950 . S
H1606 C1611 0.950 . S
H1607 C1612 0.949 . S
H1608 C1614 0.950 . S
H1609 C1615 0.950 . S
H1610 C1616 0.949 . S
C1611 H1606 0.950 . S
C1611 C1613 1.327 . S
C1611 C1617 1.429 . S
C1612 C1604 1.574 . S
C1612 H1607 0.949 . S
C1612 C1618 1.368 . S
C1613 C1597 1.349 . S
C1613 H1605 0.950 . S
C1613 C1611 1.327 . S
C1614 C1602 1.349 . S
C1614 H1608 0.950 . S
C1614 C1615 1.327 . S
C1615 H1609 0.950 . S
C1615 C1614 1.327 . S
C1615 C1619 1.429 . S
C1616 C1599 1.574 . S
C1616 H1610 0.949 . S
C1616 C1620 1.368 . S
C1617 C1598 1.429 . S
C1617 C1611 1.429 . S
C1617 C1618 1.523 . S
C1618 C1599 1.368 . S
C1618 C1612 1.368 . S
C1618 C1617 1.523 . S
C1619 C1603 1.429 . S
C1619 C1615 1.429 . S
C1619 C1620 1.523 . S
C1620 C1604 1.368 . S
C1620 C1616 1.368 . S
C1620 C1619 1.523 . S
H1621 C1596 0.950 . S
H1622 C1598 0.950 . S
H1623 C1599 0.949 . S
H1624 C1601 0.950 . S
H1625 C1603 0.950 . S
C1626 C1627 1.349 . S
C1626 C1628 1.327 . S
C1626 H1651 0.950 . S
C1627 C1626 1.349 . S
C1627 C1643 1.349 . S
C1628 C1626 1.327 . S
C1628 C1647 1.429 . S
C1628 H1652 0.950 . S
C1629 C1646 1.574 . S
C1629 C1648 1.368 . S
C1629 H1653 0.949 . S
H1630 C1634 0.949 . S
C1631 C1632 1.349 . S
C1631 C1633 1.327 . S
C1631 H1654 0.950 . S
C1632 C1631 1.349 . S
C1632 C1644 1.349 . S
C1633 C1631 1.327 . S
C1633 C1649 1.429 . S
C1633 H1655 0.950 . S
C1634 H1630 0.949 . S
C1634 C1642 1.574 . S
C1634 C1650 1.368 . S
H1635 C1643 0.950 . S
H1636 C1641 0.950 . S
H1637 C1642 0.949 . S
H1638 C1644 0.950 . S
H1639 C1645 0.950 . S
H1640 C1646 0.949 . S
C1641 H1636 0.950 . S
C1641 C1643 1.327 . S
C1641 C1647 1.429 . S
C1642 C1634 1.574 . S
C1642 H1637 0.949 . S
C1642 C1648 1.368 . S
C1643 C1627 1.349 . S
C1643 H1635 0.950 . S
C1643 C1641 1.327 . S
C1644 C1632 1.349 . S
C1644 H1638 0.950 . S
C1644 C1645 1.327 . S
C1645 H1639 0.950 . S
C1645 C1644 1.327 . S
C1645 C1649 1.429 . S
C1646 C1629 1.574 . S
C1646 H1640 0.949 . S
C1646 C1650 1.368 . S
C1647 C1628 1.429 . S
C1647 C1641 1.429 . S
C1647 C1648 1.523 . S
C1648 C1629 1.368 . S
C1648 C1642 1.368 . S
C1648 C1647 1.523 . S
C1649 C1633 1.429 . S
C1649 C1645 1.429 . S
C1649 C1650 1.523 . S
C1650 C1634 1.368 . S
C1650 C1646 1.368 . S
C1650 C1649 1.523 . S
H1651 C1626 0.950 . S
H1652 C1628 0.950 . S
H1653 C1629 0.949 . S
H1654 C1631 0.950 . S
H1655 C1633 0.950 . S
C1656 C1657 1.349 . S
C1656 C1658 1.327 . S
C1656 H1681 0.950 . S
C1657 C1656 1.349 . S
C1657 C1673 1.349 . S
C1658 C1656 1.327 . S
C1658 C1677 1.429 . S
C1658 H1682 0.950 . S
C1659 C1676 1.574 . S
C1659 C1678 1.368 . S
C1659 H1683 0.949 . S
H1660 C1664 0.949 . S
C1661 C1662 1.349 . S
C1661 C1663 1.327 . S
C1661 H1684 0.950 . S
C1662 C1661 1.349 . S
C1662 C1674 1.349 . S
C1663 C1661 1.327 . S
C1663 C1679 1.429 . S
C1663 H1685 0.950 . S
C1664 H1660 0.949 . S
C1664 C1672 1.574 . S
C1664 C1680 1.368 . S
H1665 C1673 0.950 . S
H1666 C1671 0.950 . S
H1667 C1672 0.949 . S
H1668 C1674 0.950 . S
H1669 C1675 0.950 . S
H1670 C1676 0.949 . S
C1671 H1666 0.950 . S
C1671 C1673 1.327 . S
C1671 C1677 1.429 . S
C1672 C1664 1.574 . S
C1672 H1667 0.949 . S
C1672 C1678 1.368 . S
C1673 C1657 1.349 . S
C1673 H1665 0.950 . S
C1673 C1671 1.327 . S
C1674 C1662 1.349 . S
C1674 H1668 0.950 . S
C1674 C1675 1.327 . S
C1675 H1669 0.950 . S
C1675 C1674 1.327 . S
C1675 C1679 1.429 . S
C1676 C1659 1.574 . S
C1676 H1670 0.949 . S
C1676 C1680 1.368 . S
C1677 C1658 1.429 . S
C1677 C1671 1.429 . S
C1677 C1678 1.523 . S
C1678 C1659 1.368 . S
C1678 C1672 1.368 . S
C1678 C1677 1.523 . S
C1679 C1663 1.429 . S
C1679 C1675 1.429 . S
C1679 C1680 1.523 . S
C1680 C1664 1.368 . S
C1680 C1676 1.368 . S
C1680 C1679 1.523 . S
H1681 C1656 0.950 . S
H1682 C1658 0.950 . S
H1683 C1659 0.949 . S
H1684 C1661 0.950 . S
H1685 C1663 0.950 . S
C1686 C1687 1.349 . S
C1686 C1688 1.327 . S
C1686 H1711 0.950 . S
C1687 C1686 1.349 . S
C1687 C1703 1.349 . S
C1688 C1686 1.327 . S
C1688 C1707 1.429 . S
C1688 H1712 0.950 . S
C1689 C1706 1.574 . S
C1689 C1708 1.368 . S
C1689 H1713 0.949 . S
H1690 C1694 0.949 . S
C1691 C1692 1.349 . S
C1691 C1693 1.327 . S
C1691 H1714 0.950 . S
C1692 C1691 1.349 . S
C1692 C1704 1.349 . S
C1693 C1691 1.327 . S
C1693 C1709 1.429 . S
C1693 H1715 0.950 . S
C1694 H1690 0.949 . S
C1694 C1702 1.574 . S
C1694 C1710 1.368 . S
H1695 C1703 0.950 . S
H1696 C1701 0.950 . S
H1697 C1702 0.949 . S
H1698 C1704 0.950 . S
H1699 C1705 0.950 . S
H1700 C1706 0.949 . S
C1701 H1696 0.950 . S
C1701 C1703 1.327 . S
C1701 C1707 1.429 . S
C1702 C1694 1.574 . S
C1702 H1697 0.949 . S
C1702 C1708 1.368 . S
C1703 C1687 1.349 . S
C1703 H1695 0.950 . S
C1703 C1701 1.327 . S
C1704 C1692 1.349 . S
C1704 H1698 0.950 . S
C1704 C1705 1.327 . S
C1705 H1699 0.950 . S
C1705 C1704 1.327 . S
C1705 C1709 1.429 . S
C1706 C1689 1.574 . S
C1706 H1700 0.949 . S
C1706 C1710 1.368 . S
C1707 C1688 1.429 . S
C1707 C1701 1.429 . S
C1707 C1708 1.523 . S
C1708 C1689 1.368 . S
C1708 C1702 1.368 . S
C1708 C1707 1.523 . S
C1709 C1693 1.429 . S
C1709 C1705 1.429 . S
C1709 C1710 1.523 . S
C1710 C1694 1.368 . S
C1710 C1706 1.368 . S
C1710 C1709 1.523 . S
H1711 C1686 0.950 . S
H1712 C1688 0.950 . S
H1713 C1689 0.949 . S
H1714 C1691 0.950 . S
H1715 C1693 0.950 . S
C1716 C1717 1.349 . S
C1716 C1718 1.327 . S
C1716 H1741 0.950 . S
C1717 C1716 1.349 . S
C1717 C1733 1.349 . S
C1718 C1716 1.327 . S
C1718 C1737 1.429 . S
C1718 H1742 0.950 . S
C1719 C1736 1.574 . S
C1719 C1738 1.368 . S
C1719 H1743 0.949 . S
H1720 C1724 0.949 . S
C1721 C1722 1.349 . S
C1721 C1723 1.327 . S
C1721 H1744 0.950 . S
C1722 C1721 1.349 . S
C1722 C1734 1.349 . S
C1723 C1721 1.327 . S
C1723 C1739 1.429 . S
C1723 H1745 0.950 . S
C1724 H1720 0.949 . S
C1724 C1732 1.574 . S
C1724 C1740 1.368 . S
H1725 C1733 0.950 . S
H1726 C1731 0.950 . S
H1727 C1732 0.949 . S
H1728 C1734 0.950 . S
H1729 C1735 0.950 . S
H1730 C1736 0.949 . S
C1731 H1726 0.950 . S
C1731 C1733 1.327 . S
C1731 C1737 1.429 . S
C1732 C1724 1.574 . S
C1732 H1727 0.949 . S
C1732 C1738 1.368 . S
C1733 C1717 1.349 . S
C1733 H1725 0.950 . S
C1733 C1731 1.327 . S
C1734 C1722 1.349 . S
C1734 H1728 0.950 . S
C1734 C1735 1.327 . S
C1735 H1729 0.950 . S
C1735 C1734 1.327 . S
C1735 C1739 1.429 . S
C1736 C1719 1.574 . S
C1736 H1730 0.949 . S
C1736 C1740 1.368 . S
C1737 C1718 1.429 . S
C1737 C1731 1.429 . S
C1737 C1738 1.523 . S
C1738 C1719 1.368 . S
C1738 C1732 1.368 . S
C1738 C1737 1.523 . S
C1739 C1723 1.429 . S
C1739 C1735 1.429 . S
C1739 C1740 1.523 . S
C1740 C1724 1.368 . S
C1740 C1736 1.368 . S
C1740 C1739 1.523 . S
H1741 C1716 0.950 . S
H1742 C1718 0.950 . S
H1743 C1719 0.949 . S
H1744 C1721 0.950 . S
H1745 C1723 0.950 . S
C1746 C1747 1.349 . S
C1746 C1748 1.327 . S
C1746 H1771 0.950 . S
C1747 C1746 1.349 . S
C1747 C1763 1.349 . S
C1748 C1746 1.327 . S
C1748 C1767 1.429 . S
C1748 H1772 0.950 . S
C1749 C1766 1.574 . S
C1749 C1768 1.368 . S
C1749 H1773 0.949 . S
H1750 C1754 0.949 . S
C1751 C1752 1.349 . S
C1751 C1753 1.327 . S
C1751 H1774 0.950 . S
C1752 C1751 1.349 . S
C1752 C1764 1.349 . S
C1753 C1751 1.327 . S
C1753 C1769 1.429 . S
C1753 H1775 0.950 . S
C1754 H1750 0.949 . S
C1754 C1762 1.574 . S
C1754 C1770 1.368 . S
H1755 C1763 0.950 . S
H1756 C1761 0.950 . S
H1757 C1762 0.949 . S
H1758 C1764 0.950 . S
H1759 C1765 0.950 . S
H1760 C1766 0.949 . S
C1761 H1756 0.950 . S
C1761 C1763 1.327 . S
C1761 C1767 1.429 . S
C1762 C1754 1.574 . S
C1762 H1757 0.949 . S
C1762 C1768 1.368 . S
C1763 C1747 1.349 . S
C1763 H1755 0.950 . S
C1763 C1761 1.327 . S
C1764 C1752 1.349 . S
C1764 H1758 0.950 . S
C1764 C1765 1.327 . S
C1765 H1759 0.950 . S
C1765 C1764 1.327 . S
C1765 C1769 1.429 . S
C1766 C1749 1.574 . S
C1766 H1760 0.949 . S
C1766 C1770 1.368 . S
C1767 C1748 1.429 . S
C1767 C1761 1.429 . S
C1767 C1768 1.523 . S
C1768 C1749 1.368 . S
C1768 C1762 1.368 . S
C1768 C1767 1.523 . S
C1769 C1753 1.429 . S
C1769 C1765 1.429 . S
C1769 C1770 1.523 . S
C1770 C1754 1.368 . S
C1770 C1766 1.368 . S
C1770 C1769 1.523 . S
H1771 C1746 0.950 . S
H1772 C1748 0.950 . S
H1773 C1749 0.949 . S
H1774 C1751 0.950 . S
H1775 C1753 0.950 . S
C1776 C1777 1.349 . S
C1776 C1778 1.327 . S
C1776 H1801 0.950 . S
C1777 C1776 1.349 . S
C1777 C1793 1.349 . S
C1778 C1776 1.327 . S
C1778 C1797 1.429 . S
C1778 H1802 0.950 . S
C1779 C1796 1.574 . S
C1779 C1798 1.368 . S
C1779 H1803 0.949 . S
H1780 C1784 0.949 . S
C1781 C1782 1.349 . S
C1781 C1783 1.327 . S
C1781 H1804 0.950 . S
C1782 C1781 1.349 . S
C1782 C1794 1.349 . S
C1783 C1781 1.327 . S
C1783 C1799 1.429 . S
C1783 H1805 0.950 . S
C1784 H1780 0.949 . S
C1784 C1792 1.574 . S
C1784 C1800 1.368 . S
H1785 C1793 0.950 . S
H1786 C1791 0.950 . S
H1787 C1792 0.949 . S
H1788 C1794 0.950 . S
H1789 C1795 0.950 . S
H1790 C1796 0.949 . S
C1791 H1786 0.950 . S
C1791 C1793 1.327 . S
C1791 C1797 1.429 . S
C1792 C1784 1.574 . S
C1792 H1787 0.949 . S
C1792 C1798 1.368 . S
C1793 C1777 1.349 . S
C1793 H1785 0.950 . S
C1793 C1791 1.327 . S
C1794 C1782 1.349 . S
C1794 H1788 0.950 . S
C1794 C1795 1.327 . S
C1795 H1789 0.950 . S
C1795 C1794 1.327 . S
C1795 C1799 1.429 . S
C1796 C1779 1.574 . S
C1796 H1790 0.949 . S
C1796 C1800 1.368 . S
C1797 C1778 1.429 . S
C1797 C1791 1.429 . S
C1797 C1798 1.523 . S
C1798 C1779 1.368 . S
C1798 C1792 1.368 . S
C1798 C1797 1.523 . S
C1799 C1783 1.429 . S
C1799 C1795 1.429 . S
C1799 C1800 1.523 . S
C1800 C1784 1.368 . S
C1800 C1796 1.368 . S
C1800 C1799 1.523 . S
H1801 C1776 0.950 . S
H1802 C1778 0.950 . S
H1803 C1779 0.949 . S
H1804 C1781 0.950 . S
H1805 C1783 0.950 . S
C1806 C1807 1.349 . S
C1806 C1808 1.327 . S
C1806 H1831 0.950 . S
C1807 C1806 1.349 . S
C1807 C1823 1.349 . S
C1808 C1806 1.327 . S
C1808 C1827 1.429 . S
C1808 H1832 0.950 . S
C1809 C1826 1.574 . S
C1809 C1828 1.368 . S
C1809 H1833 0.949 . S
H1810 C1814 0.949 . S
C1811 C1812 1.349 . S
C1811 C1813 1.327 . S
C1811 H1834 0.950 . S
C1812 C1811 1.349 . S
C1812 C1824 1.349 . S
C1813 C1811 1.327 . S
C1813 C1829 1.429 . S
C1813 H1835 0.950 . S
C1814 H1810 0.949 . S
C1814 C1822 1.574 . S
C1814 C1830 1.368 . S
H1815 C1823 0.950 . S
H1816 C1821 0.950 . S
H1817 C1822 0.949 . S
H1818 C1824 0.950 . S
H1819 C1825 0.950 . S
H1820 C1826 0.949 . S
C1821 H1816 0.950 . S
C1821 C1823 1.327 . S
C1821 C1827 1.429 . S
C1822 C1814 1.574 . S
C1822 H1817 0.949 . S
C1822 C1828 1.368 . S
C1823 C1807 1.349 . S
C1823 H1815 0.950 . S
C1823 C1821 1.327 . S
C1824 C1812 1.349 . S
C1824 H1818 0.950 . S
C1824 C1825 1.327 . S
C1825 H1819 0.950 . S
C1825 C1824 1.327 . S
C1825 C1829 1.429 . S
C1826 C1809 1.574 . S
C1826 H1820 0.949 . S
C1826 C1830 1.368 . S
C1827 C1808 1.429 . S
C1827 C1821 1.429 . S
C1827 C1828 1.523 . S
C1828 C1809 1.368 . S
C1828 C1822 1.368 . S
C1828 C1827 1.523 . S
C1829 C1813 1.429 . S
C1829 C1825 1.429 . S
C1829 C1830 1.523 . S
C1830 C1814 1.368 . S
C1830 C1826 1.368 . S
C1830 C1829 1.523 . S
H1831 C1806 0.950 . S
H1832 C1808 0.950 . S
H1833 C1809 0.949 . S
H1834 C1811 0.950 . S
H1835 C1813 0.950 . S
C1836 C1837 1.349 . S
C1836 C1838 1.327 . S
C1836 H1861 0.950 . S
C1837 C1836 1.349 . S
C1837 C1853 1.349 . S
C1838 C1836 1.327 . S
C1838 C1857 1.429 . S
C1838 H1862 0.950 . S
C1839 C1856 1.574 . S
C1839 C1858 1.368 . S
C1839 H1863 0.949 . S
H1840 C1844 0.949 . S
C1841 C1842 1.349 . S
C1841 C1843 1.327 . S
C1841 H1864 0.950 . S
C1842 C1841 1.349 . S
C1842 C1854 1.349 . S
C1843 C1841 1.327 . S
C1843 C1859 1.429 . S
C1843 H1865 0.950 . S
C1844 H1840 0.949 . S
C1844 C1852 1.574 . S
C1844 C1860 1.368 . S
H1845 C1853 0.950 . S
H1846 C1851 0.950 . S
H1847 C1852 0.949 . S
H1848 C1854 0.950 . S
H1849 C1855 0.950 . S
H1850 C1856 0.949 . S
C1851 H1846 0.950 . S
C1851 C1853 1.327 . S
C1851 C1857 1.429 . S
C1852 C1844 1.574 . S
C1852 H1847 0.949 . S
C1852 C1858 1.368 . S
C1853 C1837 1.349 . S
C1853 H1845 0.950 . S
C1853 C1851 1.327 . S
C1854 C1842 1.349 . S
C1854 H1848 0.950 . S
C1854 C1855 1.327 . S
C1855 H1849 0.950 . S
C1855 C1854 1.327 . S
C1855 C1859 1.429 . S
C1856 C1839 1.574 . S
C1856 H1850 0.949 . S
C1856 C1860 1.368 . S
C1857 C1838 1.429 . S
C1857 C1851 1.429 . S
C1857 C1858 1.523 . S
C1858 C1839 1.368 . S
C1858 C1852 1.368 . S
C1858 C1857 1.523 . S
C1859 C1843 1.429 . S
C1859 C1855 1.429 . S
C1859 C1860 1.523 . S
C1860 C1844 1.368 . S
C1860 C1856 1.368 . S
C1860 C1859 1.523 . S
H1861 C1836 0.950 . S
H1862 C1838 0.950 . S
H1863 C1839 0.949 . S
H1864 C1841 0.950 . S
H1865 C1843 0.950 . S
C1866 C1867 1.349 . S
C1866 C1868 1.327 . S
C1866 H1891 0.950 . S
C1867 C1866 1.349 . S
C1867 C1883 1.349 . S
C1868 C1866 1.327 . S
C1868 C1887 1.429 . S
C1868 H1892 0.950 . S
C1869 C1886 1.574 . S
C1869 C1888 1.368 . S
C1869 H1893 0.949 . S
H1870 C1874 0.949 . S
C1871 C1872 1.349 . S
C1871 C1873 1.327 . S
C1871 H1894 0.950 . S
C1872 C1871 1.349 . S
C1872 C1884 1.349 . S
C1873 C1871 1.327 . S
C1873 C1889 1.429 . S
C1873 H1895 0.950 . S
C1874 H1870 0.949 . S
C1874 C1882 1.574 . S
C1874 C1890 1.368 . S
H1875 C1883 0.950 . S
H1876 C1881 0.950 . S
H1877 C1882 0.949 . S
H1878 C1884 0.950 . S
H1879 C1885 0.950 . S
H1880 C1886 0.949 . S
C1881 H1876 0.950 . S
C1881 C1883 1.327 . S
C1881 C1887 1.429 . S
C1882 C1874 1.574 . S
C1882 H1877 0.949 . S
C1882 C1888 1.368 . S
C1883 C1867 1.349 . S
C1883 H1875 0.950 . S
C1883 C1881 1.327 . S
C1884 C1872 1.349 . S
C1884 H1878 0.950 . S
C1884 C1885 1.327 . S
C1885 H1879 0.950 . S
C1885 C1884 1.327 . S
C1885 C1889 1.429 . S
C1886 C1869 1.574 . S
C1886 H1880 0.949 . S
C1886 C1890 1.368 . S
C1887 C1868 1.429 . S
C1887 C1881 1.429 . S
C1887 C1888 1.523 . S
C1888 C1869 1.368 . S
C1888 C1882 1.368 . S
C1888 C1887 1.523 . S
C1889 C1873 1.429 . S
C1889 C1885 1.429 . S
C1889 C1890 1.523 . S
C1890 C1874 1.368 . S
C1890 C1886 1.368 . S
C1890 C1889 1.523 . S
H1891 C1866 0.950 . S
H1892 C1868 0.950 . S
H1893 C1869 0.949 . S
H1894 C1871 0.950 . S
H1895 C1873 0.950 . S
C1896 C1897 1.349 . S
C1896 C1898 1.327 . S
C1896 H1921 0.950 . S
C1897 C1896 1.349 . S
C1897 C1913 1.349 . S
C1898 C1896 1.327 . S
C1898 C1917 1.429 . S
C1898 H1922 0.950 . S
C1899 C1916 1.574 . S
C1899 C1918 1.368 . S
C1899 H1923 0.949 . S
H1900 C1904 0.949 . S
C1901 C1902 1.349 . S
C1901 C1903 1.327 . S
C1901 H1924 0.950 . S
C1902 C1901 1.349 . S
C1902 C1914 1.349 . S
C1903 C1901 1.327 . S
C1903 C1919 1.429 . S
C1903 H1925 0.950 . S
C1904 H1900 0.949 . S
C1904 C1912 1.574 . S
C1904 C1920 1.368 . S
H1905 C1913 0.950 . S
H1906 C1911 0.950 . S
H1907 C1912 0.949 . S
H1908 C1914 0.950 . S
H1909 C1915 0.950 . S
H1910 C1916 0.949 . S
C1911 H1906 0.950 . S
C1911 C1913 1.327 . S
C1911 C1917 1.429 . S
C1912 C1904 1.574 . S
C1912 H1907 0.949 . S
C1912 C1918 1.368 . S
C1913 C1897 1.349 . S
C1913 H1905 0.950 . S
C1913 C1911 1.327 . S
C1914 C1902 1.349 . S
C1914 H1908 0.950 . S
C1914 C1915 1.327 . S
C1915 H1909 0.950 . S
C1915 C1914 1.327 . S
C1915 C1919 1.429 . S
C1916 C1899 1.574 . S
C1916 H1910 0.949 . S
C1916 C1920 1.368 . S
C1917 C1898 1.429 . S
C1917 C1911 1.429 . S
C1917 C1918 1.523 . S
C1918 C1899 1.368 . S
C1918 C1912 1.368 . S
C1918 C1917 1.523 . S
C1919 C1903 1.429 . S
C1919 C1915 1.429 . S
C1919 C1920 1.523 . S
C1920 C1904 1.368 . S
C1920 C1916 1.368 . S
C1920 C1919 1.523 . S
H1921 C1896 0.950 . S
H1922 C1898 0.950 . S
H1923 C1899 0.949 . S
H1924 C1901 0.950 . S
H1925 C1903 0.950 . S
C1926 C1927 1.349 . S
C1926 C1928 1.327 . S
C1926 H1951 0.950 . S
C1927 C1926 1.349 . S
C1927 C1943 1.349 . S
C1928 C1926 1.327 . S
C1928 C1947 1.429 . S
C1928 H1952 0.950 . S
C1929 C1946 1.574 . S
C1929 C1948 1.368 . S
C1929 H1953 0.949 . S
H1930 C1934 0.949 . S
C1931 C1932 1.349 . S
C1931 C1933 1.327 . S
C1931 H1954 0.950 . S
C1932 C1931 1.349 . S
C1932 C1944 1.349 . S
C1933 C1931 1.327 . S
C1933 C1949 1.429 . S
C1933 H1955 0.950 . S
C1934 H1930 0.949 . S
C1934 C1942 1.574 . S
C1934 C1950 1.368 . S
H1935 C1943 0.950 . S
H1936 C1941 0.950 . S
H1937 C1942 0.949 . S
H1938 C1944 0.950 . S
H1939 C1945 0.950 . S
H1940 C1946 0.949 . S
C1941 H1936 0.950 . S
C1941 C1943 1.327 . S
C1941 C1947 1.429 . S
C1942 C1934 1.574 . S
C1942 H1937 0.949 . S
C1942 C1948 1.368 . S
C1943 C1927 1.349 . S
C1943 H1935 0.950 . S
C1943 C1941 1.327 . S
C1944 C1932 1.349 . S
C1944 H1938 0.950 . S
C1944 C1945 1.327 . S
C1945 H1939 0.950 . S
C1945 C1944 1.327 . S
C1945 C1949 1.429 . S
C1946 C1929 1.574 . S
C1946 H1940 0.949 . S
C1946 C1950 1.368 . S
C1947 C1928 1.429 . S
C1947 C1941 1.429 . S
C1947 C1948 1.523 . S
C1948 C1929 1.368 . S
C1948 C1942 1.368 . S
C1948 C1947 1.523 . S
C1949 C1933 1.429 . S
C1949 C1945 1.429 . S
C1949 C1950 1.523 . S
C1950 C1934 1.368 . S
C1950 C1946 1.368 . S
C1950 C1949 1.523 . S
H1951 C1926 0.950 . S
H1952 C1928 0.950 . S
H1953 C1929 0.949 . S
H1954 C1931 0.950 . S
H1955 C1933 0.950 . S
C1956 C1957 1.349 . S
C1956 C1958 1.327 . S
C1956 H1981 0.950 . S
C1957 C1956 1.349 . S
C1957 C1973 1.349 . S
C1958 C1956 1.327 . S
C1958 C1977 1.429 . S
C1958 H1982 0.950 . S
C1959 C1976 1.574 . S
C1959 C1978 1.368 . S
C1959 H1983 0.949 . S
H1960 C1964 0.949 . S
C1961 C1962 1.349 . S
C1961 C1963 1.327 . S
C1961 H1984 0.950 . S
C1962 C1961 1.349 . S
C1962 C1974 1.349 . S
C1963 C1961 1.327 . S
C1963 C1979 1.429 . S
C1963 H1985 0.950 . S
C1964 H1960 0.949 . S
C1964 C1972 1.574 . S
C1964 C1980 1.368 . S
H1965 C1973 0.950 . S
H1966 C1971 0.950 . S
H1967 C1972 0.949 . S
H1968 C1974 0.950 . S
H1969 C1975 0.950 . S
H1970 C1976 0.949 . S
C1971 H1966 0.950 . S
C1971 C1973 1.327 . S
C1971 C1977 1.429 . S
C1972 C1964 1.574 . S
C1972 H1967 0.949 . S
C1972 C1978 1.368 . S
C1973 C1957 1.349 . S
C1973 H1965 0.950 . S
C1973 C1971 1.327 . S
C1974 C1962 1.349 . S
C1974 H1968 0.950 . S
C1974 C1975 1.327 . S
C1975 H1969 0.950 . S
C1975 C1974 1.327 . S
C1975 C1979 1.429 . S
C1976 C1959 1.574 . S
C1976 H1970 0.949 . S
C1976 C1980 1.368 . S
C1977 C1958 1.429 . S
C1977 C1971 1.429 . S
C1977 C1978 1.523 . S
C1978 C1959 1.368 . S
C1978 C1972 1.368 . S
C1978 C1977 1.523 . S
C1979 C1963 1.429 . S
C1979 C1975 1.429 . S
C1979 C1980 1.523 . S
C1980 C1964 1.368 . S
C1980 C1976 1.368 . S
C1980 C1979 1.523 . S
H1981 C1956 0.950 . S
H1982 C1958 0.950 . S
H1983 C1959 0.949 . S
H1984 C1961 0.950 . S
H1985 C1963 0.950 . S
C1986 C1987 1.349 . S
C1986 C1988 1.327 . S
C1986 H2011 0.950 . S
C1987 C1986 1.349 . S
C1987 C2003 1.349 . S
C1988 C1986 1.327 . S
C1988 C2007 1.429 . S
C1988 H2012 0.950 . S
C1989 C2006 1.574 . S
C1989 C2008 1.368 . S
C1989 H2013 0.949 . S
H1990 C1994 0.949 . S
C1991 C1992 1.349 . S
C1991 C1993 1.327 . S
C1991 H2014 0.950 . S
C1992 C1991 1.349 . S
C1992 C2004 1.349 . S
C1993 C1991 1.327 . S
C1993 C2009 1.429 . S
C1993 H2015 0.950 . S
C1994 H1990 0.949 . S
C1994 C2002 1.574 . S
C1994 C2010 1.368 . S
H1995 C2003 0.950 . S
H1996 C2001 0.950 . S
H1997 C2002 0.949 . S
H1998 C2004 0.950 . S
H1999 C2005 0.950 . S
H2000 C2006 0.949 . S
C2001 H1996 0.950 . S
C2001 C2003 1.327 . S
C2001 C2007 1.429 . S
C2002 C1994 1.574 . S
C2002 H1997 0.949 . S
C2002 C2008 1.368 . S
C2003 C1987 1.349 . S
C2003 H1995 0.950 . S
C2003 C2001 1.327 . S
C2004 C1992 1.349 . S
C2004 H1998 0.950 . S
C2004 C2005 1.327 . S
C2005 H1999 0.950 . S
C2005 C2004 1.327 . S
C2005 C2009 1.429 . S
C2006 C1989 1.574 . S
C2006 H2000 0.949 . S
C2006 C2010 1.368 . S
C2007 C1988 1.429 . S
C2007 C2001 1.429 . S
C2007 C2008 1.523 . S
C2008 C1989 1.368 . S
C2008 C2002 1.368 . S
C2008 C2007 1.523 . S
C2009 C1993 1.429 . S
C2009 C2005 1.429 . S
C2009 C2010 1.523 . S
C2010 C1994 1.368 . S
C2010 C2006 1.368 . S
C2010 C2009 1.523 . S
H2011 C1986 0.950 . S
H2012 C1988 0.950 . S
H2013 C1989 0.949 . S
H2014 C1991 0.950 . S
H2015 C1993 0.950 . S
C2016 C2017 1.349 . S
C2016 C2018 1.327 . S
C2016 H2041 0.950 . S
C2017 C2016 1.349 . S
C2017 C2033 1.349 . S
C2018 C2016 1.327 . S
C2018 C2037 1.429 . S
C2018 H2042 0.950 . S
C2019 C2036 1.574 . S
C2019 C2038 1.368 . S
C2019 H2043 0.949 . S
H2020 C2024 0.949 . S
C2021 C2022 1.349 . S
C2021 C2023 1.327 . S
C2021 H2044 0.950 . S
C2022 C2021 1.349 . S
C2022 C2034 1.349 . S
C2023 C2021 1.327 . S
C2023 C2039 1.429 . S
C2023 H2045 0.950 . S
C2024 H2020 0.949 . S
C2024 C2032 1.574 . S
C2024 C2040 1.368 . S
H2025 C2033 0.950 . S
H2026 C2031 0.950 . S
H2027 C2032 0.949 . S
H2028 C2034 0.950 . S
H2029 C2035 0.950 . S
H2030 C2036 0.949 . S
C2031 H2026 0.950 . S
C2031 C2033 1.327 . S
C2031 C2037 1.429 . S
C2032 C2024 1.574 . S
C2032 H2027 0.949 . S
C2032 C2038 1.368 . S
C2033 C2017 1.349 . S
C2033 H2025 0.950 . S
C2033 C2031 1.327 . S
C2034 C2022 1.349 . S
C2034 H2028 0.950 . S
C2034 C2035 1.327 . S
C2035 H2029 0.950 . S
C2035 C2034 1.327 . S
C2035 C2039 1.429 . S
C2036 C2019 1.574 . S
C2036 H2030 0.949 . S
C2036 C2040 1.368 . S
C2037 C2018 1.429 . S
C2037 C2031 1.429 . S
C2037 C2038 1.523 . S
C2038 C2019 1.368 . S
C2038 C2032 1.368 . S
C2038 C2037 1.523 . S
C2039 C2023 1.429 . S
C2039 C2035 1.429 . S
C2039 C2040 1.523 . S
C2040 C2024 1.368 . S
C2040 C2036 1.368 . S
C2040 C2039 1.523 . S
H2041 C2016 0.950 . S
H2042 C2018 0.950 . S
H2043 C2019 0.949 . S
H2044 C2021 0.950 . S
H2045 C2023 0.950 . S
C2046 C2047 1.349 . S
C2046 C2048 1.327 . S
C2046 H2071 0.950 . S
C2047 C2046 1.349 . S
C2047 C2063 1.349 . S
C2048 C2046 1.327 . S
C2048 C2067 1.429 . S
C2048 H2072 0.950 . S
C2049 C2066 1.574 . S
C2049 C2068 1.368 . S
C2049 H2073 0.949 . S
H2050 C2054 0.949 . S
C2051 C2052 1.349 . S
C2051 C2053 1.327 . S
C2051 H2074 0.950 . S
C2052 C2051 1.349 . S
C2052 C2064 1.349 . S
C2053 C2051 1.327 . S
C2053 C2069 1.429 . S
C2053 H2075 0.950 . S
C2054 H2050 0.949 . S
C2054 C2062 1.574 . S
C2054 C2070 1.368 . S
H2055 C2063 0.950 . S
H2056 C2061 0.950 . S
H2057 C2062 0.949 . S
H2058 C2064 0.950 . S
H2059 C2065 0.950 . S
H2060 C2066 0.949 . S
C2061 H2056 0.950 . S
C2061 C2063 1.327 . S
C2061 C2067 1.429 . S
C2062 C2054 1.574 . S
C2062 H2057 0.949 . S
C2062 C2068 1.368 . S
C2063 C2047 1.349 . S
C2063 H2055 0.950 . S
C2063 C2061 1.327 . S
C2064 C2052 1.349 . S
C2064 H2058 0.950 . S
C2064 C2065 1.327 . S
C2065 H2059 0.950 . S
C2065 C2064 1.327 . S
C2065 C2069 1.429 . S
C2066 C2049 1.574 . S
C2066 H2060 0.949 . S
C2066 C2070 1.368 . S
C2067 C2048 1.429 . S
C2067 C2061 1.429 . S
C2067 C2068 1.523 . S
C2068 C2049 1.368 . S
C2068 C2062 1.368 . S
C2068 C2067 1.523 . S
C2069 C2053 1.429 . S
C2069 C2065 1.429 . S
C2069 C2070 1.523 . S
C2070 C2054 1.368 . S
C2070 C2066 1.368 . S
C2070 C2069 1.523 . S
H2071 C2046 0.950 . S
H2072 C2048 0.950 . S
H2073 C2049 0.949 . S
H2074 C2051 0.950 . S
H2075 C2053 0.950 . S
C2076 C2077 1.349 . S
C2076 C2078 1.327 . S
C2076 H2101 0.950 . S
C2077 C2076 1.349 . S
C2077 C2093 1.349 . S
C2078 C2076 1.327 . S
C2078 C2097 1.429 . S
C2078 H2102 0.950 . S
C2079 C2096 1.574 . S
C2079 C2098 1.368 . S
C2079 H2103 0.949 . S
H2080 C2084 0.949 . S
C2081 C2082 1.349 . S
C2081 C2083 1.327 . S
C2081 H2104 0.950 . S
C2082 C2081 1.349 . S
C2082 C2094 1.349 . S
C2083 C2081 1.327 . S
C2083 C2099 1.429 . S
C2083 H2105 0.950 . S
C2084 H2080 0.949 . S
C2084 C2092 1.574 . S
C2084 C2100 1.368 . S
H2085 C2093 0.950 . S
H2086 C2091 0.950 . S
H2087 C2092 0.949 . S
H2088 C2094 0.950 . S
H2089 C2095 0.950 . S
H2090 C2096 0.949 . S
C2091 H2086 0.950 . S
C2091 C2093 1.327 . S
C2091 C2097 1.429 . S
C2092 C2084 1.574 . S
C2092 H2087 0.949 . S
C2092 C2098 1.368 . S
C2093 C2077 1.349 . S
C2093 H2085 0.950 . S
C2093 C2091 1.327 . S
C2094 C2082 1.349 . S
C2094 H2088 0.950 . S
C2094 C2095 1.327 . S
C2095 H2089 0.950 . S
C2095 C2094 1.327 . S
C2095 C2099 1.429 . S
C2096 C2079 1.574 . S
C2096 H2090 0.949 . S
C2096 C2100 1.368 . S
C2097 C2078 1.429 . S
C2097 C2091 1.429 . S
C2097 C2098 1.523 . S
C2098 C2079 1.368 . S
C2098 C2092 1.368 . S
C2098 C2097 1.523 . S
C2099 C2083 1.429 . S
C2099 C2095 1.429 . S
C2099 C2100 1.523 . S
C2100 C2084 1.368 . S
C2100 C2096 1.368 . S
C2100 C2099 1.523 . S
H2101 C2076 0.950 . S
H2102 C2078 0.950 . S
H2103 C2079 0.949 . S
H2104 C2081 0.950 . S
H2105 C2083 0.950 . S
C2106 C2107 1.349 . S
C2106 C2108 1.327 . S
C2106 H2131 0.950 . S
C2107 C2106 1.349 . S
C2107 C2123 1.349 . S
C2108 C2106 1.327 . S
C2108 C2127 1.429 . S
C2108 H2132 0.950 . S
C2109 C2126 1.574 . S
C2109 C2128 1.368 . S
C2109 H2133 0.949 . S
H2110 C2114 0.949 . S
C2111 C2112 1.349 . S
C2111 C2113 1.327 . S
C2111 H2134 0.950 . S
C2112 C2111 1.349 . S
C2112 C2124 1.349 . S
C2113 C2111 1.327 . S
C2113 C2129 1.429 . S
C2113 H2135 0.950 . S
C2114 H2110 0.949 . S
C2114 C2122 1.574 . S
C2114 C2130 1.368 . S
H2115 C2123 0.950 . S
H2116 C2121 0.950 . S
H2117 C2122 0.949 . S
H2118 C2124 0.950 . S
H2119 C2125 0.950 . S
H2120 C2126 0.949 . S
C2121 H2116 0.950 . S
C2121 C2123 1.327 . S
C2121 C2127 1.429 . S
C2122 C2114 1.574 . S
C2122 H2117 0.949 . S
C2122 C2128 1.368 . S
C2123 C2107 1.349 . S
C2123 H2115 0.950 . S
C2123 C2121 1.327 . S
C2124 C2112 1.349 . S
C2124 H2118 0.950 . S
C2124 C2125 1.327 . S
C2125 H2119 0.950 . S
C2125 C2124 1.327 . S
C2125 C2129 1.429 . S
C2126 C2109 1.574 . S
C2126 H2120 0.949 . S
C2126 C2130 1.368 . S
C2127 C2108 1.429 . S
C2127 C2121 1.429 . S
C2127 C2128 1.523 . S
C2128 C2109 1.368 . S
C2128 C2122 1.368 . S
C2128 C2127 1.523 . S
C2129 C2113 1.429 . S
C2129 C2125 1.429 . S
C2129 C2130 1.523 . S
C2130 C2114 1.368 . S
C2130 C2126 1.368 . S
C2130 C2129 1.523 . S
H2131 C2106 0.950 . S
H2132 C2108 0.950 . S
H2133 C2109 0.949 . S
H2134 C2111 0.950 . S
H2135 C2113 0.950 . S
C2136 C2137 1.349 . S
C2136 C2138 1.327 . S
C2136 H2161 0.950 . S
C2137 C2136 1.349 . S
C2137 C2153 1.349 . S
C2138 C2136 1.327 . S
C2138 C2157 1.429 . S
C2138 H2162 0.950 . S
C2139 C2156 1.599 . S
C2139 C2158 1.368 . S
C2139 H2163 0.949 . S
H2140 C2144 0.949 . S
C2141 C2142 1.349 . S
C2141 C2143 1.327 . S
C2141 H2164 0.950 . S
C2142 C2141 1.349 . S
C2142 C2154 1.349 . S
C2143 C2141 1.327 . S
C2143 C2159 1.429 . S
C2143 H2165 0.950 . S
C2144 H2140 0.949 . S
C2144 C2152 1.599 . S
C2144 C2160 1.368 . S
H2145 C2153 0.950 . S
H2146 C2151 0.950 . S
H2147 C2152 0.948 . S
H2148 C2154 0.950 . S
H2149 C2155 0.950 . S
H2150 C2156 0.948 . S
C2151 H2146 0.950 . S
C2151 C2153 1.327 . S
C2151 C2157 1.429 . S
C2152 C2144 1.599 . S
C2152 H2147 0.948 . S
C2152 C2158 1.354 1_565 S
C2153 C2137 1.349 . S
C2153 H2145 0.950 . S
C2153 C2151 1.327 . S
C2154 C2142 1.349 . S
C2154 H2148 0.950 . S
C2154 C2155 1.327 . S
C2155 H2149 0.950 . S
C2155 C2154 1.327 . S
C2155 C2159 1.429 . S
C2156 C2139 1.599 . S
C2156 H2150 0.948 . S
C2156 C2160 1.354 1_545 S
C2157 C2138 1.429 . S
C2157 C2151 1.429 . S
C2157 C2158 1.523 . S
C2158 C2139 1.368 . S
C2158 C2152 1.354 1_545 S
C2158 C2157 1.523 . S
C2159 C2143 1.429 . S
C2159 C2155 1.429 . S
C2159 C2160 1.523 . S
C2160 C2144 1.368 . S
C2160 C2156 1.354 1_565 S
C2160 C2159 1.523 . S
H2161 C2136 0.950 . S
H2162 C2138 0.950 . S
H2163 C2139 0.949 . S
H2164 C2141 0.950 . S
H2165 C2143 0.950 . S
C2166 C2167 1.349 . S
C2166 C2168 1.327 . S
C2166 H2191 0.950 . S
C2167 C2166 1.349 . S
C2167 C2183 1.349 . S
C2168 C2166 1.327 . S
C2168 C2187 1.429 . S
C2168 H2192 0.950 . S
C2169 C2186 1.574 . S
C2169 C2188 1.368 . S
C2169 H2193 0.949 . S
H2170 C2174 0.949 . S
C2171 C2172 1.349 . S
C2171 C2173 1.327 . S
C2171 H2194 0.950 . S
C2172 C2171 1.349 . S
C2172 C2184 1.349 . S
C2173 C2171 1.327 . S
C2173 C2189 1.429 . S
C2173 H2195 0.950 . S
C2174 H2170 0.949 . S
C2174 C2182 1.574 . S
C2174 C2190 1.368 . S
H2175 C2183 0.950 . S
H2176 C2181 0.950 . S
H2177 C2182 0.949 . S
H2178 C2184 0.950 . S
H2179 C2185 0.950 . S
H2180 C2186 0.949 . S
C2181 H2176 0.950 . S
C2181 C2183 1.327 . S
C2181 C2187 1.429 . S
C2182 C2174 1.574 . S
C2182 H2177 0.949 . S
C2182 C2188 1.368 . S
C2183 C2167 1.349 . S
C2183 H2175 0.950 . S
C2183 C2181 1.327 . S
C2184 C2172 1.349 . S
C2184 H2178 0.950 . S
C2184 C2185 1.327 . S
C2185 H2179 0.950 . S
C2185 C2184 1.327 . S
C2185 C2189 1.429 . S
C2186 C2169 1.574 . S
C2186 H2180 0.949 . S
C2186 C2190 1.368 . S
C2187 C2168 1.429 . S
C2187 C2181 1.429 . S
C2187 C2188 1.523 . S
C2188 C2169 1.368 . S
C2188 C2182 1.368 . S
C2188 C2187 1.523 . S
C2189 C2173 1.429 . S
C2189 C2185 1.429 . S
C2189 C2190 1.523 . S
C2190 C2174 1.368 . S
C2190 C2186 1.368 . S
C2190 C2189 1.523 . S
H2191 C2166 0.950 . S
H2192 C2168 0.950 . S
H2193 C2169 0.949 . S
H2194 C2171 0.950 . S
H2195 C2173 0.950 . S
C2196 C2197 1.349 . S
C2196 C2198 1.327 . S
C2196 H2221 0.950 . S
C2197 C2196 1.349 . S
C2197 C2213 1.349 . S
C2198 C2196 1.327 . S
C2198 C2217 1.429 . S
C2198 H2222 0.950 . S
C2199 C2216 1.579 . S
C2199 C2218 1.353 1_455 S
C2199 H2223 0.950 . S
H2200 C2204 0.950 . S
C2201 C2202 1.349 . S
C2201 C2203 1.327 . S
C2201 H2224 0.950 . S
C2202 C2201 1.349 . S
C2202 C2214 1.349 . S
C2203 C2201 1.327 . S
C2203 C2219 1.429 . S
C2203 H2225 0.950 . S
C2204 H2200 0.950 . S
C2204 C2212 1.579 . S
C2204 C2220 1.353 1_655 S
H2205 C2213 0.950 . S
H2206 C2211 0.950 . S
H2207 C2212 0.949 . S
H2208 C2214 0.950 . S
H2209 C2215 0.950 . S
H2210 C2216 0.949 . S
C2211 H2206 0.950 . S
C2211 C2213 1.327 . S
C2211 C2217 1.429 . S
C2212 C2204 1.579 . S
C2212 H2207 0.949 . S
C2212 C2218 1.368 . S
C2213 C2197 1.349 . S
C2213 H2205 0.950 . S
C2213 C2211 1.327 . S
C2214 C2202 1.349 . S
C2214 H2208 0.950 . S
C2214 C2215 1.327 . S
C2215 H2209 0.950 . S
C2215 C2214 1.327 . S
C2215 C2219 1.429 . S
C2216 C2199 1.579 . S
C2216 H2210 0.949 . S
C2216 C2220 1.368 . S
C2217 C2198 1.429 . S
C2217 C2211 1.429 . S
C2217 C2218 1.523 . S
C2218 C2199 1.353 1_655 S
C2218 C2212 1.368 . S
C2218 C2217 1.523 . S
C2219 C2203 1.429 . S
C2219 C2215 1.429 . S
C2219 C2220 1.523 . S
C2220 C2204 1.353 1_455 S
C2220 C2216 1.368 . S
C2220 C2219 1.523 . S
H2221 C2196 0.950 . S
H2222 C2198 0.950 . S
H2223 C2199 0.950 . S
H2224 C2201 0.950 . S
H2225 C2203 0.950 . S
C2226 C2227 1.349 . S
C2226 C2228 1.327 . S
C2226 H2251 0.950 . S
C2227 C2226 1.349 . S
C2227 C2243 1.349 . S
C2228 C2226 1.327 . S
C2228 C2247 1.429 . S
C2228 H2252 0.950 . S
C2229 C2246 1.599 . S
C2229 C2248 1.354 1_655 S
C2229 H2253 0.948 . S
H2230 C2234 0.948 . S
C2231 C2232 1.349 . S
C2231 C2233 1.327 . S
C2231 H2254 0.950 . S
C2232 C2231 1.349 . S
C2232 C2244 1.349 . S
C2233 C2231 1.327 . S
C2233 C2249 1.429 . S
C2233 H2255 0.950 . S
C2234 H2230 0.948 . S
C2234 C2242 1.599 . S
C2234 C2250 1.354 1_455 S
H2235 C2243 0.950 . S
H2236 C2241 0.950 . S
H2237 C2242 0.949 . S
H2238 C2244 0.950 . S
H2239 C2245 0.950 . S
H2240 C2246 0.949 . S
C2241 H2236 0.950 . S
C2241 C2243 1.327 . S
C2241 C2247 1.429 . S
C2242 C2234 1.599 . S
C2242 H2237 0.949 . S
C2242 C2248 1.368 . S
C2243 C2227 1.349 . S
C2243 H2235 0.950 . S
C2243 C2241 1.327 . S
C2244 C2232 1.349 . S
C2244 H2238 0.950 . S
C2244 C2245 1.327 . S
C2245 H2239 0.950 . S
C2245 C2244 1.327 . S
C2245 C2249 1.429 . S
C2246 C2229 1.599 . S
C2246 H2240 0.949 . S
C2246 C2250 1.368 . S
C2247 C2228 1.429 . S
C2247 C2241 1.429 . S
C2247 C2248 1.523 . S
C2248 C2229 1.354 1_455 S
C2248 C2242 1.368 . S
C2248 C2247 1.523 . S
C2249 C2233 1.429 . S
C2249 C2245 1.429 . S
C2249 C2250 1.523 . S
C2250 C2234 1.354 1_655 S
C2250 C2246 1.368 . S
C2250 C2249 1.523 . S
H2251 C2226 0.950 . S
H2252 C2228 0.950 . S
H2253 C2229 0.948 . S
H2254 C2231 0.950 . S
H2255 C2233 0.950 . S
C2256 C2257 1.349 . S
C2256 C2258 1.327 . S
C2256 H2281 0.950 . S
C2257 C2256 1.349 . S
C2257 C2273 1.349 . S
C2258 C2256 1.327 . S
C2258 C2277 1.429 . S
C2258 H2282 0.950 . S
C2259 C2276 1.579 . S
C2259 C2278 1.368 . S
C2259 H2283 0.949 . S
H2260 C2264 0.949 . S
C2261 C2262 1.349 . S
C2261 C2263 1.327 . S
C2261 H2284 0.950 . S
C2262 C2261 1.349 . S
C2262 C2274 1.349 . S
C2263 C2261 1.327 . S
C2263 C2279 1.429 . S
C2263 H2285 0.950 . S
C2264 H2260 0.949 . S
C2264 C2272 1.579 . S
C2264 C2280 1.368 . S
H2265 C2273 0.950 . S
H2266 C2271 0.950 . S
H2267 C2272 0.950 . S
H2268 C2274 0.950 . S
H2269 C2275 0.950 . S
H2270 C2276 0.950 . S
C2271 H2266 0.950 . S
C2271 C2273 1.327 . S
C2271 C2277 1.429 . S
C2272 C2264 1.579 . S
C2272 H2267 0.950 . S
C2272 C2278 1.353 1_565 S
C2273 C2257 1.349 . S
C2273 H2265 0.950 . S
C2273 C2271 1.327 . S
C2274 C2262 1.349 . S
C2274 H2268 0.950 . S
C2274 C2275 1.327 . S
C2275 H2269 0.950 . S
C2275 C2274 1.327 . S
C2275 C2279 1.429 . S
C2276 C2259 1.579 . S
C2276 H2270 0.950 . S
C2276 C2280 1.353 1_545 S
C2277 C2258 1.429 . S
C2277 C2271 1.429 . S
C2277 C2278 1.523 . S
C2278 C2259 1.368 . S
C2278 C2272 1.353 1_545 S
C2278 C2277 1.523 . S
C2279 C2263 1.429 . S
C2279 C2275 1.429 . S
C2279 C2280 1.523 . S
C2280 C2264 1.368 . S
C2280 C2276 1.353 1_565 S
C2280 C2279 1.523 . S
H2281 C2256 0.950 . S
H2282 C2258 0.950 . S
H2283 C2259 0.949 . S
H2284 C2261 0.950 . S
H2285 C2263 0.950 . S
C2286 C2287 1.349 . S
C2286 C2288 1.327 . S
C2286 H2311 0.950 . S
C2287 C2286 1.349 . S
C2287 C2303 1.349 . S
C2288 C2286 1.327 . S
C2288 C2307 1.429 . S
C2288 H2312 0.950 . S
C2289 C2306 1.574 . S
C2289 C2308 1.368 . S
C2289 H2313 0.949 . S
H2290 C2294 0.949 . S
C2291 C2292 1.349 . S
C2291 C2293 1.327 . S
C2291 H2314 0.950 . S
C2292 C2291 1.349 . S
C2292 C2304 1.349 . S
C2293 C2291 1.327 . S
C2293 C2309 1.429 . S
C2293 H2315 0.950 . S
C2294 H2290 0.949 . S
C2294 C2302 1.574 . S
C2294 C2310 1.368 . S
H2295 C2303 0.950 . S
H2296 C2301 0.950 . S
H2297 C2302 0.949 . S
H2298 C2304 0.950 . S
H2299 C2305 0.950 . S
H2300 C2306 0.949 . S
C2301 H2296 0.950 . S
C2301 C2303 1.327 . S
C2301 C2307 1.429 . S
C2302 C2294 1.574 . S
C2302 H2297 0.949 . S
C2302 C2308 1.368 . S
C2303 C2287 1.349 . S
C2303 H2295 0.950 . S
C2303 C2301 1.327 . S
C2304 C2292 1.349 . S
C2304 H2298 0.950 . S
C2304 C2305 1.327 . S
C2305 H2299 0.950 . S
C2305 C2304 1.327 . S
C2305 C2309 1.429 . S
C2306 C2289 1.574 . S
C2306 H2300 0.949 . S
C2306 C2310 1.368 . S
C2307 C2288 1.429 . S
C2307 C2301 1.429 . S
C2307 C2308 1.523 . S
C2308 C2289 1.368 . S
C2308 C2302 1.368 . S
C2308 C2307 1.523 . S
C2309 C2293 1.429 . S
C2309 C2305 1.429 . S
C2309 C2310 1.523 . S
C2310 C2294 1.368 . S
C2310 C2306 1.368 . S
C2310 C2309 1.523 . S
H2311 C2286 0.950 . S
H2312 C2288 0.950 . S
H2313 C2289 0.949 . S
H2314 C2291 0.950 . S
H2315 C2293 0.950 . S
C2316 C2317 1.349 . S
C2316 C2318 1.327 . S
C2316 H2341 0.950 . S
C2317 C2316 1.349 . S
C2317 C2333 1.349 . S
C2318 C2316 1.327 . S
C2318 C2337 1.429 . S
C2318 H2342 0.950 . S
C2319 C2336 1.599 . S
C2319 C2338 1.368 . S
C2319 H2343 0.949 . S
H2320 C2324 0.949 . S
C2321 C2322 1.349 . S
C2321 C2323 1.327 . S
C2321 H2344 0.950 . S
C2322 C2321 1.349 . S
C2322 C2334 1.349 . S
C2323 C2321 1.327 . S
C2323 C2339 1.429 . S
C2323 H2345 0.950 . S
C2324 H2320 0.949 . S
C2324 C2332 1.599 . S
C2324 C2340 1.368 . S
H2325 C2333 0.950 . S
H2326 C2331 0.950 . S
H2327 C2332 0.948 . S
H2328 C2334 0.950 . S
H2329 C2335 0.950 . S
H2330 C2336 0.948 . S
C2331 H2326 0.950 . S
C2331 C2333 1.327 . S
C2331 C2337 1.429 . S
C2332 C2324 1.599 . S
C2332 H2327 0.948 . S
C2332 C2338 1.354 1_565 S
C2333 C2317 1.349 . S
C2333 H2325 0.950 . S
C2333 C2331 1.327 . S
C2334 C2322 1.349 . S
C2334 H2328 0.950 . S
C2334 C2335 1.327 . S
C2335 H2329 0.950 . S
C2335 C2334 1.327 . S
C2335 C2339 1.429 . S
C2336 C2319 1.599 . S
C2336 H2330 0.948 . S
C2336 C2340 1.354 1_545 S
C2337 C2318 1.429 . S
C2337 C2331 1.429 . S
C2337 C2338 1.523 . S
C2338 C2319 1.368 . S
C2338 C2332 1.354 1_545 S
C2338 C2337 1.523 . S
C2339 C2323 1.429 . S
C2339 C2335 1.429 . S
C2339 C2340 1.523 . S
C2340 C2324 1.368 . S
C2340 C2336 1.354 1_565 S
C2340 C2339 1.523 . S
H2341 C2316 0.950 . S
H2342 C2318 0.950 . S
H2343 C2319 0.949 . S
H2344 C2321 0.950 . S
H2345 C2323 0.950 . S
C2346 C2347 1.349 . S
C2346 C2348 1.327 . S
C2346 H2371 0.950 . S
C2347 C2346 1.349 . S
C2347 C2363 1.349 . S
C2348 C2346 1.327 . S
C2348 C2367 1.429 . S
C2348 H2372 0.950 . S
C2349 C2366 1.574 . S
C2349 C2368 1.368 . S
C2349 H2373 0.949 . S
H2350 C2354 0.949 . S
C2351 C2352 1.349 . S
C2351 C2353 1.327 . S
C2351 H2374 0.950 . S
C2352 C2351 1.349 . S
C2352 C2364 1.349 . S
C2353 C2351 1.327 . S
C2353 C2369 1.429 . S
C2353 H2375 0.950 . S
C2354 H2350 0.949 . S
C2354 C2362 1.574 . S
C2354 C2370 1.368 . S
H2355 C2363 0.950 . S
H2356 C2361 0.950 . S
H2357 C2362 0.949 . S
H2358 C2364 0.950 . S
H2359 C2365 0.950 . S
H2360 C2366 0.949 . S
C2361 H2356 0.950 . S
C2361 C2363 1.327 . S
C2361 C2367 1.429 . S
C2362 C2354 1.574 . S
C2362 H2357 0.949 . S
C2362 C2368 1.368 . S
C2363 C2347 1.349 . S
C2363 H2355 0.950 . S
C2363 C2361 1.327 . S
C2364 C2352 1.349 . S
C2364 H2358 0.950 . S
C2364 C2365 1.327 . S
C2365 H2359 0.950 . S
C2365 C2364 1.327 . S
C2365 C2369 1.429 . S
C2366 C2349 1.574 . S
C2366 H2360 0.949 . S
C2366 C2370 1.368 . S
C2367 C2348 1.429 . S
C2367 C2361 1.429 . S
C2367 C2368 1.523 . S
C2368 C2349 1.368 . S
C2368 C2362 1.368 . S
C2368 C2367 1.523 . S
C2369 C2353 1.429 . S
C2369 C2365 1.429 . S
C2369 C2370 1.523 . S
C2370 C2354 1.368 . S
C2370 C2366 1.368 . S
C2370 C2369 1.523 . S
H2371 C2346 0.950 . S
H2372 C2348 0.950 . S
H2373 C2349 0.949 . S
H2374 C2351 0.950 . S
H2375 C2353 0.950 . S
C2376 C2377 1.349 . S
C2376 C2378 1.327 . S
C2376 H2401 0.950 . S
C2377 C2376 1.349 . S
C2377 C2393 1.349 . S
C2378 C2376 1.327 . S
C2378 C2397 1.429 . S
C2378 H2402 0.950 . S
C2379 C2396 1.579 . S
C2379 C2398 1.353 1_655 S
C2379 H2403 0.950 . S
H2380 C2384 0.950 . S
C2381 C2382 1.349 . S
C2381 C2383 1.327 . S
C2381 H2404 0.950 . S
C2382 C2381 1.349 . S
C2382 C2394 1.349 . S
C2383 C2381 1.327 . S
C2383 C2399 1.429 . S
C2383 H2405 0.950 . S
C2384 H2380 0.950 . S
C2384 C2392 1.579 . S
C2384 C2400 1.353 1_455 S
H2385 C2393 0.950 . S
H2386 C2391 0.950 . S
H2387 C2392 0.949 . S
H2388 C2394 0.950 . S
H2389 C2395 0.950 . S
H2390 C2396 0.949 . S
C2391 H2386 0.950 . S
C2391 C2393 1.327 . S
C2391 C2397 1.429 . S
C2392 C2384 1.579 . S
C2392 H2387 0.949 . S
C2392 C2398 1.368 . S
C2393 C2377 1.349 . S
C2393 H2385 0.950 . S
C2393 C2391 1.327 . S
C2394 C2382 1.349 . S
C2394 H2388 0.950 . S
C2394 C2395 1.327 . S
C2395 H2389 0.950 . S
C2395 C2394 1.327 . S
C2395 C2399 1.429 . S
C2396 C2379 1.579 . S
C2396 H2390 0.949 . S
C2396 C2400 1.368 . S
C2397 C2378 1.429 . S
C2397 C2391 1.429 . S
C2397 C2398 1.523 . S
C2398 C2379 1.353 1_455 S
C2398 C2392 1.368 . S
C2398 C2397 1.523 . S
C2399 C2383 1.429 . S
C2399 C2395 1.429 . S
C2399 C2400 1.523 . S
C2400 C2384 1.353 1_655 S
C2400 C2396 1.368 . S
C2400 C2399 1.523 . S
H2401 C2376 0.950 . S
H2402 C2378 0.950 . S
H2403 C2379 0.950 . S
H2404 C2381 0.950 . S
H2405 C2383 0.950 . S
C2406 C2407 1.349 . S
C2406 C2408 1.327 . S
C2406 H2431 0.950 . S
C2407 C2406 1.349 . S
C2407 C2423 1.349 . S
C2408 C2406 1.327 . S
C2408 C2427 1.429 . S
C2408 H2432 0.950 . S
C2409 C2426 1.599 . S
C2409 C2428 1.354 1_455 S
C2409 H2433 0.948 . S
H2410 C2414 0.948 . S
C2411 C2412 1.349 . S
C2411 C2413 1.327 . S
C2411 H2434 0.950 . S
C2412 C2411 1.349 . S
C2412 C2424 1.349 . S
C2413 C2411 1.327 . S
C2413 C2429 1.429 . S
C2413 H2435 0.950 . S
C2414 H2410 0.948 . S
C2414 C2422 1.599 . S
C2414 C2430 1.354 1_655 S
H2415 C2423 0.950 . S
H2416 C2421 0.950 . S
H2417 C2422 0.949 . S
H2418 C2424 0.950 . S
H2419 C2425 0.950 . S
H2420 C2426 0.949 . S
C2421 H2416 0.950 . S
C2421 C2423 1.327 . S
C2421 C2427 1.429 . S
C2422 C2414 1.599 . S
C2422 H2417 0.949 . S
C2422 C2428 1.368 . S
C2423 C2407 1.349 . S
C2423 H2415 0.950 . S
C2423 C2421 1.327 . S
C2424 C2412 1.349 . S
C2424 H2418 0.950 . S
C2424 C2425 1.327 . S
C2425 H2419 0.950 . S
C2425 C2424 1.327 . S
C2425 C2429 1.429 . S
C2426 C2409 1.599 . S
C2426 H2420 0.949 . S
C2426 C2430 1.368 . S
C2427 C2408 1.429 . S
C2427 C2421 1.429 . S
C2427 C2428 1.523 . S
C2428 C2409 1.354 1_655 S
C2428 C2422 1.368 . S
C2428 C2427 1.523 . S
C2429 C2413 1.429 . S
C2429 C2425 1.429 . S
C2429 C2430 1.523 . S
C2430 C2414 1.354 1_455 S
C2430 C2426 1.368 . S
C2430 C2429 1.523 . S
H2431 C2406 0.950 . S
H2432 C2408 0.950 . S
H2433 C2409 0.948 . S
H2434 C2411 0.950 . S
H2435 C2413 0.950 . S
C2436 C2437 1.349 . S
C2436 C2438 1.327 . S
C2436 H2461 0.950 . S
C2437 C2436 1.349 . S
C2437 C2453 1.349 . S
C2438 C2436 1.327 . S
C2438 C2457 1.429 . S
C2438 H2462 0.950 . S
C2439 C2456 1.579 . S
C2439 C2458 1.368 . S
C2439 H2463 0.949 . S
H2440 C2444 0.949 . S
C2441 C2442 1.349 . S
C2441 C2443 1.327 . S
C2441 H2464 0.950 . S
C2442 C2441 1.349 . S
C2442 C2454 1.349 . S
C2443 C2441 1.327 . S
C2443 C2459 1.429 . S
C2443 H2465 0.950 . S
C2444 H2440 0.949 . S
C2444 C2452 1.579 . S
C2444 C2460 1.368 . S
H2445 C2453 0.950 . S
H2446 C2451 0.950 . S
H2447 C2452 0.950 . S
H2448 C2454 0.950 . S
H2449 C2455 0.950 . S
H2450 C2456 0.950 . S
C2451 H2446 0.950 . S
C2451 C2453 1.327 . S
C2451 C2457 1.429 . S
C2452 C2444 1.579 . S
C2452 H2447 0.950 . S
C2452 C2458 1.353 1_565 S
C2453 C2437 1.349 . S
C2453 H2445 0.950 . S
C2453 C2451 1.327 . S
C2454 C2442 1.349 . S
C2454 H2448 0.950 . S
C2454 C2455 1.327 . S
C2455 H2449 0.950 . S
C2455 C2454 1.327 . S
C2455 C2459 1.429 . S
C2456 C2439 1.579 . S
C2456 H2450 0.950 . S
C2456 C2460 1.353 1_545 S
C2457 C2438 1.429 . S
C2457 C2451 1.429 . S
C2457 C2458 1.523 . S
C2458 C2439 1.368 . S
C2458 C2452 1.353 1_545 S
C2458 C2457 1.523 . S
C2459 C2443 1.429 . S
C2459 C2455 1.429 . S
C2459 C2460 1.523 . S
C2460 C2444 1.368 . S
C2460 C2456 1.353 1_565 S
C2460 C2459 1.523 . S
H2461 C2436 0.950 . S
H2462 C2438 0.950 . S
H2463 C2439 0.949 . S
H2464 C2441 0.950 . S
H2465 C2443 0.950 . S
C2466 C2467 1.349 . S
C2466 C2468 1.327 . S
C2466 H2491 0.950 . S
C2467 C2466 1.349 . S
C2467 C2483 1.349 . S
C2468 C2466 1.327 . S
C2468 C2487 1.429 . S
C2468 H2492 0.950 . S
C2469 C2486 1.574 . S
C2469 C2488 1.368 . S
C2469 H2493 0.949 . S
H2470 C2474 0.949 . S
C2471 C2472 1.349 . S
C2471 C2473 1.327 . S
C2471 H2494 0.950 . S
C2472 C2471 1.349 . S
C2472 C2484 1.349 . S
C2473 C2471 1.327 . S
C2473 C2489 1.429 . S
C2473 H2495 0.950 . S
C2474 H2470 0.949 . S
C2474 C2482 1.574 . S
C2474 C2490 1.368 . S
H2475 C2483 0.950 . S
H2476 C2481 0.950 . S
H2477 C2482 0.949 . S
H2478 C2484 0.950 . S
H2479 C2485 0.950 . S
H2480 C2486 0.949 . S
C2481 H2476 0.950 . S
C2481 C2483 1.327 . S
C2481 C2487 1.429 . S
C2482 C2474 1.574 . S
C2482 H2477 0.949 . S
C2482 C2488 1.368 . S
C2483 C2467 1.349 . S
C2483 H2475 0.950 . S
C2483 C2481 1.327 . S
C2484 C2472 1.349 . S
C2484 H2478 0.950 . S
C2484 C2485 1.327 . S
C2485 H2479 0.950 . S
C2485 C2484 1.327 . S
C2485 C2489 1.429 . S
C2486 C2469 1.574 . S
C2486 H2480 0.949 . S
C2486 C2490 1.368 . S
C2487 C2468 1.429 . S
C2487 C2481 1.429 . S
C2487 C2488 1.523 . S
C2488 C2469 1.368 . S
C2488 C2482 1.368 . S
C2488 C2487 1.523 . S
C2489 C2473 1.429 . S
C2489 C2485 1.429 . S
C2489 C2490 1.523 . S
C2490 C2474 1.368 . S
C2490 C2486 1.368 . S
C2490 C2489 1.523 . S
H2491 C2466 0.950 . S
H2492 C2468 0.950 . S
H2493 C2469 0.949 . S
H2494 C2471 0.950 . S
H2495 C2473 0.950 . S
C2496 C2497 1.349 . S
C2496 C2498 1.327 . S
C2496 H2521 0.950 . S
C2497 C2496 1.349 . S
C2497 C2513 1.349 . S
C2498 C2496 1.327 . S
C2498 C2517 1.429 . S
C2498 H2522 0.950 . S
C2499 C2516 1.574 . S
C2499 C2518 1.368 . S
C2499 H2523 0.949 . S
H2500 C2504 0.949 . S
C2501 C2502 1.349 . S
C2501 C2503 1.327 . S
C2501 H2524 0.950 . S
C2502 C2501 1.349 . S
C2502 C2514 1.349 . S
C2503 C2501 1.327 . S
C2503 C2519 1.429 . S
C2503 H2525 0.950 . S
C2504 H2500 0.949 . S
C2504 C2512 1.574 . S
C2504 C2520 1.368 . S
H2505 C2513 0.950 . S
H2506 C2511 0.950 . S
H2507 C2512 0.949 . S
H2508 C2514 0.950 . S
H2509 C2515 0.950 . S
H2510 C2516 0.949 . S
C2511 H2506 0.950 . S
C2511 C2513 1.327 . S
C2511 C2517 1.429 . S
C2512 C2504 1.574 . S
C2512 H2507 0.949 . S
C2512 C2518 1.368 . S
C2513 C2497 1.349 . S
C2513 H2505 0.950 . S
C2513 C2511 1.327 . S
C2514 C2502 1.349 . S
C2514 H2508 0.950 . S
C2514 C2515 1.327 . S
C2515 H2509 0.950 . S
C2515 C2514 1.327 . S
C2515 C2519 1.429 . S
C2516 C2499 1.574 . S
C2516 H2510 0.949 . S
C2516 C2520 1.368 . S
C2517 C2498 1.429 . S
C2517 C2511 1.429 . S
C2517 C2518 1.523 . S
C2518 C2499 1.368 . S
C2518 C2512 1.368 . S
C2518 C2517 1.523 . S
C2519 C2503 1.429 . S
C2519 C2515 1.429 . S
C2519 C2520 1.523 . S
C2520 C2504 1.368 . S
C2520 C2516 1.368 . S
C2520 C2519 1.523 . S
H2521 C2496 0.950 . S
H2522 C2498 0.950 . S
H2523 C2499 0.949 . S
H2524 C2501 0.950 . S
H2525 C2503 0.950 . S
C2526 C2527 1.349 . S
C2526 C2528 1.327 . S
C2526 H2551 0.950 . S
C2527 C2526 1.349 . S
C2527 C2543 1.349 . S
C2528 C2526 1.327 . S
C2528 C2547 1.429 . S
C2528 H2552 0.950 . S
C2529 C2546 1.574 . S
C2529 C2548 1.368 . S
C2529 H2553 0.949 . S
H2530 C2534 0.949 . S
C2531 C2532 1.349 . S
C2531 C2533 1.327 . S
C2531 H2554 0.950 . S
C2532 C2531 1.349 . S
C2532 C2544 1.349 . S
C2533 C2531 1.327 . S
C2533 C2549 1.429 . S
C2533 H2555 0.950 . S
C2534 H2530 0.949 . S
C2534 C2542 1.574 . S
C2534 C2550 1.368 . S
H2535 C2543 0.950 . S
H2536 C2541 0.950 . S
H2537 C2542 0.949 . S
H2538 C2544 0.950 . S
H2539 C2545 0.950 . S
H2540 C2546 0.949 . S
C2541 H2536 0.950 . S
C2541 C2543 1.327 . S
C2541 C2547 1.429 . S
C2542 C2534 1.574 . S
C2542 H2537 0.949 . S
C2542 C2548 1.368 . S
C2543 C2527 1.349 . S
C2543 H2535 0.950 . S
C2543 C2541 1.327 . S
C2544 C2532 1.349 . S
C2544 H2538 0.950 . S
C2544 C2545 1.327 . S
C2545 H2539 0.950 . S
C2545 C2544 1.327 . S
C2545 C2549 1.429 . S
C2546 C2529 1.574 . S
C2546 H2540 0.949 . S
C2546 C2550 1.368 . S
C2547 C2528 1.429 . S
C2547 C2541 1.429 . S
C2547 C2548 1.523 . S
C2548 C2529 1.368 . S
C2548 C2542 1.368 . S
C2548 C2547 1.523 . S
C2549 C2533 1.429 . S
C2549 C2545 1.429 . S
C2549 C2550 1.523 . S
C2550 C2534 1.368 . S
C2550 C2546 1.368 . S
C2550 C2549 1.523 . S
H2551 C2526 0.950 . S
H2552 C2528 0.950 . S
H2553 C2529 0.949 . S
H2554 C2531 0.950 . S
H2555 C2533 0.950 . S
C2556 C2557 1.349 . S
C2556 C2558 1.327 . S
C2556 H2581 0.950 . S
C2557 C2556 1.349 . S
C2557 C2573 1.349 . S
C2558 C2556 1.327 . S
C2558 C2577 1.429 . S
C2558 H2582 0.950 . S
C2559 C2576 1.574 . S
C2559 C2578 1.368 . S
C2559 H2583 0.949 . S
H2560 C2564 0.949 . S
C2561 C2562 1.349 . S
C2561 C2563 1.327 . S
C2561 H2584 0.950 . S
C2562 C2561 1.349 . S
C2562 C2574 1.349 . S
C2563 C2561 1.327 . S
C2563 C2579 1.429 . S
C2563 H2585 0.950 . S
C2564 H2560 0.949 . S
C2564 C2572 1.574 . S
C2564 C2580 1.368 . S
H2565 C2573 0.950 . S
H2566 C2571 0.950 . S
H2567 C2572 0.949 . S
H2568 C2574 0.950 . S
H2569 C2575 0.950 . S
H2570 C2576 0.949 . S
C2571 H2566 0.950 . S
C2571 C2573 1.327 . S
C2571 C2577 1.429 . S
C2572 C2564 1.574 . S
C2572 H2567 0.949 . S
C2572 C2578 1.368 . S
C2573 C2557 1.349 . S
C2573 H2565 0.950 . S
C2573 C2571 1.327 . S
C2574 C2562 1.349 . S
C2574 H2568 0.950 . S
C2574 C2575 1.327 . S
C2575 H2569 0.950 . S
C2575 C2574 1.327 . S
C2575 C2579 1.429 . S
C2576 C2559 1.574 . S
C2576 H2570 0.949 . S
C2576 C2580 1.368 . S
C2577 C2558 1.429 . S
C2577 C2571 1.429 . S
C2577 C2578 1.523 . S
C2578 C2559 1.368 . S
C2578 C2572 1.368 . S
C2578 C2577 1.523 . S
C2579 C2563 1.429 . S
C2579 C2575 1.429 . S
C2579 C2580 1.523 . S
C2580 C2564 1.368 . S
C2580 C2576 1.368 . S
C2580 C2579 1.523 . S
H2581 C2556 0.950 . S
H2582 C2558 0.950 . S
H2583 C2559 0.949 . S
H2584 C2561 0.950 . S
H2585 C2563 0.950 . S
C2586 C2587 1.349 . S
C2586 C2588 1.327 . S
C2586 H2611 0.950 . S
C2587 C2586 1.349 . S
C2587 C2603 1.349 . S
C2588 C2586 1.327 . S
C2588 C2607 1.429 . S
C2588 H2612 0.950 . S
C2589 C2606 1.574 . S
C2589 C2608 1.368 . S
C2589 H2613 0.949 . S
H2590 C2594 0.949 . S
C2591 C2592 1.349 . S
C2591 C2593 1.327 . S
C2591 H2614 0.950 . S
C2592 C2591 1.349 . S
C2592 C2604 1.349 . S
C2593 C2591 1.327 . S
C2593 C2609 1.429 . S
C2593 H2615 0.950 . S
C2594 H2590 0.949 . S
C2594 C2602 1.574 . S
C2594 C2610 1.368 . S
H2595 C2603 0.950 . S
H2596 C2601 0.950 . S
H2597 C2602 0.949 . S
H2598 C2604 0.950 . S
H2599 C2605 0.950 . S
H2600 C2606 0.949 . S
C2601 H2596 0.950 . S
C2601 C2603 1.327 . S
C2601 C2607 1.429 . S
C2602 C2594 1.574 . S
C2602 H2597 0.949 . S
C2602 C2608 1.368 . S
C2603 C2587 1.349 . S
C2603 H2595 0.950 . S
C2603 C2601 1.327 . S
C2604 C2592 1.349 . S
C2604 H2598 0.950 . S
C2604 C2605 1.327 . S
C2605 H2599 0.950 . S
C2605 C2604 1.327 . S
C2605 C2609 1.429 . S
C2606 C2589 1.574 . S
C2606 H2600 0.949 . S
C2606 C2610 1.368 . S
C2607 C2588 1.429 . S
C2607 C2601 1.429 . S
C2607 C2608 1.523 . S
C2608 C2589 1.368 . S
C2608 C2602 1.368 . S
C2608 C2607 1.523 . S
C2609 C2593 1.429 . S
C2609 C2605 1.429 . S
C2609 C2610 1.523 . S
C2610 C2594 1.368 . S
C2610 C2606 1.368 . S
C2610 C2609 1.523 . S
H2611 C2586 0.950 . S
H2612 C2588 0.950 . S
H2613 C2589 0.949 . S
H2614 C2591 0.950 . S
H2615 C2593 0.950 . S
C2616 C2617 1.349 . S
C2616 C2618 1.327 . S
C2616 H2641 0.950 . S
C2617 C2616 1.349 . S
C2617 C2633 1.349 . S
C2618 C2616 1.327 . S
C2618 C2637 1.429 . S
C2618 H2642 0.950 . S
C2619 C2636 1.574 . S
C2619 C2638 1.368 . S
C2619 H2643 0.949 . S
H2620 C2624 0.949 . S
C2621 C2622 1.349 . S
C2621 C2623 1.327 . S
C2621 H2644 0.950 . S
C2622 C2621 1.349 . S
C2622 C2634 1.349 . S
C2623 C2621 1.327 . S
C2623 C2639 1.429 . S
C2623 H2645 0.950 . S
C2624 H2620 0.949 . S
C2624 C2632 1.574 . S
C2624 C2640 1.368 . S
H2625 C2633 0.950 . S
H2626 C2631 0.950 . S
H2627 C2632 0.949 . S
H2628 C2634 0.950 . S
H2629 C2635 0.950 . S
H2630 C2636 0.949 . S
C2631 H2626 0.950 . S
C2631 C2633 1.327 . S
C2631 C2637 1.429 . S
C2632 C2624 1.574 . S
C2632 H2627 0.949 . S
C2632 C2638 1.368 . S
C2633 C2617 1.349 . S
C2633 H2625 0.950 . S
C2633 C2631 1.327 . S
C2634 C2622 1.349 . S
C2634 H2628 0.950 . S
C2634 C2635 1.327 . S
C2635 H2629 0.950 . S
C2635 C2634 1.327 . S
C2635 C2639 1.429 . S
C2636 C2619 1.574 . S
C2636 H2630 0.949 . S
C2636 C2640 1.368 . S
C2637 C2618 1.429 . S
C2637 C2631 1.429 . S
C2637 C2638 1.523 . S
C2638 C2619 1.368 . S
C2638 C2632 1.368 . S
C2638 C2637 1.523 . S
C2639 C2623 1.429 . S
C2639 C2635 1.429 . S
C2639 C2640 1.523 . S
C2640 C2624 1.368 . S
C2640 C2636 1.368 . S
C2640 C2639 1.523 . S
H2641 C2616 0.950 . S
H2642 C2618 0.950 . S
H2643 C2619 0.949 . S
H2644 C2621 0.950 . S
H2645 C2623 0.950 . S
C2646 C2647 1.349 . S
C2646 C2648 1.327 . S
C2646 H2671 0.950 . S
C2647 C2646 1.349 . S
C2647 C2663 1.349 . S
C2648 C2646 1.327 . S
C2648 C2667 1.429 . S
C2648 H2672 0.950 . S
C2649 C2666 1.574 . S
C2649 C2668 1.368 . S
C2649 H2673 0.949 . S
H2650 C2654 0.949 . S
C2651 C2652 1.349 . S
C2651 C2653 1.327 . S
C2651 H2674 0.950 . S
C2652 C2651 1.349 . S
C2652 C2664 1.349 . S
C2653 C2651 1.327 . S
C2653 C2669 1.429 . S
C2653 H2675 0.950 . S
C2654 H2650 0.949 . S
C2654 C2662 1.574 . S
C2654 C2670 1.368 . S
H2655 C2663 0.950 . S
H2656 C2661 0.950 . S
H2657 C2662 0.949 . S
H2658 C2664 0.950 . S
H2659 C2665 0.950 . S
H2660 C2666 0.949 . S
C2661 H2656 0.950 . S
C2661 C2663 1.327 . S
C2661 C2667 1.429 . S
C2662 C2654 1.574 . S
C2662 H2657 0.949 . S
C2662 C2668 1.368 . S
C2663 C2647 1.349 . S
C2663 H2655 0.950 . S
C2663 C2661 1.327 . S
C2664 C2652 1.349 . S
C2664 H2658 0.950 . S
C2664 C2665 1.327 . S
C2665 H2659 0.950 . S
C2665 C2664 1.327 . S
C2665 C2669 1.429 . S
C2666 C2649 1.574 . S
C2666 H2660 0.949 . S
C2666 C2670 1.368 . S
C2667 C2648 1.429 . S
C2667 C2661 1.429 . S
C2667 C2668 1.523 . S
C2668 C2649 1.368 . S
C2668 C2662 1.368 . S
C2668 C2667 1.523 . S
C2669 C2653 1.429 . S
C2669 C2665 1.429 . S
C2669 C2670 1.523 . S
C2670 C2654 1.368 . S
C2670 C2666 1.368 . S
C2670 C2669 1.523 . S
H2671 C2646 0.950 . S
H2672 C2648 0.950 . S
H2673 C2649 0.949 . S
H2674 C2651 0.950 . S
H2675 C2653 0.950 . S
C2676 C2677 1.349 . S
C2676 C2678 1.327 . S
C2676 H2701 0.950 . S
C2677 C2676 1.349 . S
C2677 C2693 1.349 . S
C2678 C2676 1.327 . S
C2678 C2697 1.429 . S
C2678 H2702 0.950 . S
C2679 C2696 1.574 . S
C2679 C2698 1.368 . S
C2679 H2703 0.949 . S
H2680 C2684 0.949 . S
C2681 C2682 1.349 . S
C2681 C2683 1.327 . S
C2681 H2704 0.950 . S
C2682 C2681 1.349 . S
C2682 C2694 1.349 . S
C2683 C2681 1.327 . S
C2683 C2699 1.429 . S
C2683 H2705 0.950 . S
C2684 H2680 0.949 . S
C2684 C2692 1.574 . S
C2684 C2700 1.368 . S
H2685 C2693 0.950 . S
H2686 C2691 0.950 . S
H2687 C2692 0.949 . S
H2688 C2694 0.950 . S
H2689 C2695 0.950 . S
H2690 C2696 0.949 . S
C2691 H2686 0.950 . S
C2691 C2693 1.327 . S
C2691 C2697 1.429 . S
C2692 C2684 1.574 . S
C2692 H2687 0.949 . S
C2692 C2698 1.368 . S
C2693 C2677 1.349 . S
C2693 H2685 0.950 . S
C2693 C2691 1.327 . S
C2694 C2682 1.349 . S
C2694 H2688 0.950 . S
C2694 C2695 1.327 . S
C2695 H2689 0.950 . S
C2695 C2694 1.327 . S
C2695 C2699 1.429 . S
C2696 C2679 1.574 . S
C2696 H2690 0.949 . S
C2696 C2700 1.368 . S
C2697 C2678 1.429 . S
C2697 C2691 1.429 . S
C2697 C2698 1.523 . S
C2698 C2679 1.368 . S
C2698 C2692 1.368 . S
C2698 C2697 1.523 . S
C2699 C2683 1.429 . S
C2699 C2695 1.429 . S
C2699 C2700 1.523 . S
C2700 C2684 1.368 . S
C2700 C2696 1.368 . S
C2700 C2699 1.523 . S
H2701 C2676 0.950 . S
H2702 C2678 0.950 . S
H2703 C2679 0.949 . S
H2704 C2681 0.950 . S
H2705 C2683 0.950 . S
C2706 C2707 1.349 . S
C2706 C2708 1.327 . S
C2706 H2731 0.950 . S
C2707 C2706 1.349 . S
C2707 C2723 1.349 . S
C2708 C2706 1.327 . S
C2708 C2727 1.429 . S
C2708 H2732 0.950 . S
C2709 C2726 1.574 . S
C2709 C2728 1.368 . S
C2709 H2733 0.949 . S
H2710 C2714 0.949 . S
C2711 C2712 1.349 . S
C2711 C2713 1.327 . S
C2711 H2734 0.950 . S
C2712 C2711 1.349 . S
C2712 C2724 1.349 . S
C2713 C2711 1.327 . S
C2713 C2729 1.429 . S
C2713 H2735 0.950 . S
C2714 H2710 0.949 . S
C2714 C2722 1.574 . S
C2714 C2730 1.368 . S
H2715 C2723 0.950 . S
H2716 C2721 0.950 . S
H2717 C2722 0.949 . S
H2718 C2724 0.950 . S
H2719 C2725 0.950 . S
H2720 C2726 0.949 . S
C2721 H2716 0.950 . S
C2721 C2723 1.327 . S
C2721 C2727 1.429 . S
C2722 C2714 1.574 . S
C2722 H2717 0.949 . S
C2722 C2728 1.368 . S
C2723 C2707 1.349 . S
C2723 H2715 0.950 . S
C2723 C2721 1.327 . S
C2724 C2712 1.349 . S
C2724 H2718 0.950 . S
C2724 C2725 1.327 . S
C2725 H2719 0.950 . S
C2725 C2724 1.327 . S
C2725 C2729 1.429 . S
C2726 C2709 1.574 . S
C2726 H2720 0.949 . S
C2726 C2730 1.368 . S
C2727 C2708 1.429 . S
C2727 C2721 1.429 . S
C2727 C2728 1.523 . S
C2728 C2709 1.368 . S
C2728 C2722 1.368 . S
C2728 C2727 1.523 . S
C2729 C2713 1.429 . S
C2729 C2725 1.429 . S
C2729 C2730 1.523 . S
C2730 C2714 1.368 . S
C2730 C2726 1.368 . S
C2730 C2729 1.523 . S
H2731 C2706 0.950 . S
H2732 C2708 0.950 . S
H2733 C2709 0.949 . S
H2734 C2711 0.950 . S
H2735 C2713 0.950 . S
C2736 C2737 1.349 . S
C2736 C2738 1.327 . S
C2736 H2761 0.950 . S
C2737 C2736 1.349 . S
C2737 C2753 1.349 . S
C2738 C2736 1.327 . S
C2738 C2757 1.429 . S
C2738 H2762 0.950 . S
C2739 C2756 1.574 . S
C2739 C2758 1.368 . S
C2739 H2763 0.949 . S
H2740 C2744 0.949 . S
C2741 C2742 1.349 . S
C2741 C2743 1.327 . S
C2741 H2764 0.950 . S
C2742 C2741 1.349 . S
C2742 C2754 1.349 . S
C2743 C2741 1.327 . S
C2743 C2759 1.429 . S
C2743 H2765 0.950 . S
C2744 H2740 0.949 . S
C2744 C2752 1.574 . S
C2744 C2760 1.368 . S
H2745 C2753 0.950 . S
H2746 C2751 0.950 . S
H2747 C2752 0.949 . S
H2748 C2754 0.950 . S
H2749 C2755 0.950 . S
H2750 C2756 0.949 . S
C2751 H2746 0.950 . S
C2751 C2753 1.327 . S
C2751 C2757 1.429 . S
C2752 C2744 1.574 . S
C2752 H2747 0.949 . S
C2752 C2758 1.368 . S
C2753 C2737 1.349 . S
C2753 H2745 0.950 . S
C2753 C2751 1.327 . S
C2754 C2742 1.349 . S
C2754 H2748 0.950 . S
C2754 C2755 1.327 . S
C2755 H2749 0.950 . S
C2755 C2754 1.327 . S
C2755 C2759 1.429 . S
C2756 C2739 1.574 . S
C2756 H2750 0.949 . S
C2756 C2760 1.368 . S
C2757 C2738 1.429 . S
C2757 C2751 1.429 . S
C2757 C2758 1.523 . S
C2758 C2739 1.368 . S
C2758 C2752 1.368 . S
C2758 C2757 1.523 . S
C2759 C2743 1.429 . S
C2759 C2755 1.429 . S
C2759 C2760 1.523 . S
C2760 C2744 1.368 . S
C2760 C2756 1.368 . S
C2760 C2759 1.523 . S
H2761 C2736 0.950 . S
H2762 C2738 0.950 . S
H2763 C2739 0.949 . S
H2764 C2741 0.950 . S
H2765 C2743 0.950 . S
C2766 C2767 1.349 . S
C2766 C2768 1.327 . S
C2766 H2791 0.950 . S
C2767 C2766 1.349 . S
C2767 C2783 1.349 . S
C2768 C2766 1.327 . S
C2768 C2787 1.429 . S
C2768 H2792 0.950 . S
C2769 C2786 1.574 . S
C2769 C2788 1.368 . S
C2769 H2793 0.949 . S
H2770 C2774 0.949 . S
C2771 C2772 1.349 . S
C2771 C2773 1.327 . S
C2771 H2794 0.950 . S
C2772 C2771 1.349 . S
C2772 C2784 1.349 . S
C2773 C2771 1.327 . S
C2773 C2789 1.429 . S
C2773 H2795 0.950 . S
C2774 H2770 0.949 . S
C2774 C2782 1.574 . S
C2774 C2790 1.368 . S
H2775 C2783 0.950 . S
H2776 C2781 0.950 . S
H2777 C2782 0.949 . S
H2778 C2784 0.950 . S
H2779 C2785 0.950 . S
H2780 C2786 0.949 . S
C2781 H2776 0.950 . S
C2781 C2783 1.327 . S
C2781 C2787 1.429 . S
C2782 C2774 1.574 . S
C2782 H2777 0.949 . S
C2782 C2788 1.368 . S
C2783 C2767 1.349 . S
C2783 H2775 0.950 . S
C2783 C2781 1.327 . S
C2784 C2772 1.349 . S
C2784 H2778 0.950 . S
C2784 C2785 1.327 . S
C2785 H2779 0.950 . S
C2785 C2784 1.327 . S
C2785 C2789 1.429 . S
C2786 C2769 1.574 . S
C2786 H2780 0.949 . S
C2786 C2790 1.368 . S
C2787 C2768 1.429 . S
C2787 C2781 1.429 . S
C2787 C2788 1.523 . S
C2788 C2769 1.368 . S
C2788 C2782 1.368 . S
C2788 C2787 1.523 . S
C2789 C2773 1.429 . S
C2789 C2785 1.429 . S
C2789 C2790 1.523 . S
C2790 C2774 1.368 . S
C2790 C2786 1.368 . S
C2790 C2789 1.523 . S
H2791 C2766 0.950 . S
H2792 C2768 0.950 . S
H2793 C2769 0.949 . S
H2794 C2771 0.950 . S
H2795 C2773 0.950 . S
C2796 C2797 1.349 . S
C2796 C2798 1.327 . S
C2796 H2821 0.950 . S
C2797 C2796 1.349 . S
C2797 C2813 1.349 . S
C2798 C2796 1.327 . S
C2798 C2817 1.429 . S
C2798 H2822 0.950 . S
C2799 C2816 1.574 . S
C2799 C2818 1.368 . S
C2799 H2823 0.949 . S
H2800 C2804 0.949 . S
C2801 C2802 1.349 . S
C2801 C2803 1.327 . S
C2801 H2824 0.950 . S
C2802 C2801 1.349 . S
C2802 C2814 1.349 . S
C2803 C2801 1.327 . S
C2803 C2819 1.429 . S
C2803 H2825 0.950 . S
C2804 H2800 0.949 . S
C2804 C2812 1.574 . S
C2804 C2820 1.368 . S
H2805 C2813 0.950 . S
H2806 C2811 0.950 . S
H2807 C2812 0.949 . S
H2808 C2814 0.950 . S
H2809 C2815 0.950 . S
H2810 C2816 0.949 . S
C2811 H2806 0.950 . S
C2811 C2813 1.327 . S
C2811 C2817 1.429 . S
C2812 C2804 1.574 . S
C2812 H2807 0.949 . S
C2812 C2818 1.368 . S
C2813 C2797 1.349 . S
C2813 H2805 0.950 . S
C2813 C2811 1.327 . S
C2814 C2802 1.349 . S
C2814 H2808 0.950 . S
C2814 C2815 1.327 . S
C2815 H2809 0.950 . S
C2815 C2814 1.327 . S
C2815 C2819 1.429 . S
C2816 C2799 1.574 . S
C2816 H2810 0.949 . S
C2816 C2820 1.368 . S
C2817 C2798 1.429 . S
C2817 C2811 1.429 . S
C2817 C2818 1.523 . S
C2818 C2799 1.368 . S
C2818 C2812 1.368 . S
C2818 C2817 1.523 . S
C2819 C2803 1.429 . S
C2819 C2815 1.429 . S
C2819 C2820 1.523 . S
C2820 C2804 1.368 . S
C2820 C2816 1.368 . S
C2820 C2819 1.523 . S
H2821 C2796 0.950 . S
H2822 C2798 0.950 . S
H2823 C2799 0.949 . S
H2824 C2801 0.950 . S
H2825 C2803 0.950 . S
C2826 C2827 1.349 . S
C2826 C2828 1.327 . S
C2826 H2851 0.950 . S
C2827 C2826 1.349 . S
C2827 C2843 1.349 . S
C2828 C2826 1.327 . S
C2828 C2847 1.429 . S
C2828 H2852 0.950 . S
C2829 C2846 1.574 . S
C2829 C2848 1.368 . S
C2829 H2853 0.949 . S
H2830 C2834 0.949 . S
C2831 C2832 1.349 . S
C2831 C2833 1.327 . S
C2831 H2854 0.950 . S
C2832 C2831 1.349 . S
C2832 C2844 1.349 . S
C2833 C2831 1.327 . S
C2833 C2849 1.429 . S
C2833 H2855 0.950 . S
C2834 H2830 0.949 . S
C2834 C2842 1.574 . S
C2834 C2850 1.368 . S
H2835 C2843 0.950 . S
H2836 C2841 0.950 . S
H2837 C2842 0.949 . S
H2838 C2844 0.950 . S
H2839 C2845 0.950 . S
H2840 C2846 0.949 . S
C2841 H2836 0.950 . S
C2841 C2843 1.327 . S
C2841 C2847 1.429 . S
C2842 C2834 1.574 . S
C2842 H2837 0.949 . S
C2842 C2848 1.368 . S
C2843 C2827 1.349 . S
C2843 H2835 0.950 . S
C2843 C2841 1.327 . S
C2844 C2832 1.349 . S
C2844 H2838 0.950 . S
C2844 C2845 1.327 . S
C2845 H2839 0.950 . S
C2845 C2844 1.327 . S
C2845 C2849 1.429 . S
C2846 C2829 1.574 . S
C2846 H2840 0.949 . S
C2846 C2850 1.368 . S
C2847 C2828 1.429 . S
C2847 C2841 1.429 . S
C2847 C2848 1.523 . S
C2848 C2829 1.368 . S
C2848 C2842 1.368 . S
C2848 C2847 1.523 . S
C2849 C2833 1.429 . S
C2849 C2845 1.429 . S
C2849 C2850 1.523 . S
C2850 C2834 1.368 . S
C2850 C2846 1.368 . S
C2850 C2849 1.523 . S
H2851 C2826 0.950 . S
H2852 C2828 0.950 . S
H2853 C2829 0.949 . S
H2854 C2831 0.950 . S
H2855 C2833 0.950 . S
C2856 C2857 1.349 . S
C2856 C2858 1.327 . S
C2856 H2881 0.950 . S
C2857 C2856 1.349 . S
C2857 C2873 1.349 . S
C2858 C2856 1.327 . S
C2858 C2877 1.429 . S
C2858 H2882 0.950 . S
C2859 C2876 1.574 . S
C2859 C2878 1.368 . S
C2859 H2883 0.949 . S
H2860 C2864 0.949 . S
C2861 C2862 1.349 . S
C2861 C2863 1.327 . S
C2861 H2884 0.950 . S
C2862 C2861 1.349 . S
C2862 C2874 1.349 . S
C2863 C2861 1.327 . S
C2863 C2879 1.429 . S
C2863 H2885 0.950 . S
C2864 H2860 0.949 . S
C2864 C2872 1.574 . S
C2864 C2880 1.368 . S
H2865 C2873 0.950 . S
H2866 C2871 0.950 . S
H2867 C2872 0.949 . S
H2868 C2874 0.950 . S
H2869 C2875 0.950 . S
H2870 C2876 0.949 . S
C2871 H2866 0.950 . S
C2871 C2873 1.327 . S
C2871 C2877 1.429 . S
C2872 C2864 1.574 . S
C2872 H2867 0.949 . S
C2872 C2878 1.368 . S
C2873 C2857 1.349 . S
C2873 H2865 0.950 . S
C2873 C2871 1.327 . S
C2874 C2862 1.349 . S
C2874 H2868 0.950 . S
C2874 C2875 1.327 . S
C2875 H2869 0.950 . S
C2875 C2874 1.327 . S
C2875 C2879 1.429 . S
C2876 C2859 1.574 . S
C2876 H2870 0.949 . S
C2876 C2880 1.368 . S
C2877 C2858 1.429 . S
C2877 C2871 1.429 . S
C2877 C2878 1.523 . S
C2878 C2859 1.368 . S
C2878 C2872 1.368 . S
C2878 C2877 1.523 . S
C2879 C2863 1.429 . S
C2879 C2875 1.429 . S
C2879 C2880 1.523 . S
C2880 C2864 1.368 . S
C2880 C2876 1.368 . S
C2880 C2879 1.523 . S
H2881 C2856 0.950 . S
H2882 C2858 0.950 . S
H2883 C2859 0.949 . S
H2884 C2861 0.950 . S
H2885 C2863 0.950 . S
C2886 C2887 1.349 . S
C2886 C2888 1.327 . S
C2886 H2911 0.950 . S
C2887 C2886 1.349 . S
C2887 C2903 1.349 . S
C2888 C2886 1.327 . S
C2888 C2907 1.429 . S
C2888 H2912 0.950 . S
C2889 C2906 1.574 . S
C2889 C2908 1.368 . S
C2889 H2913 0.949 . S
H2890 C2894 0.949 . S
C2891 C2892 1.349 . S
C2891 C2893 1.327 . S
C2891 H2914 0.950 . S
C2892 C2891 1.349 . S
C2892 C2904 1.349 . S
C2893 C2891 1.327 . S
C2893 C2909 1.429 . S
C2893 H2915 0.950 . S
C2894 H2890 0.949 . S
C2894 C2902 1.574 . S
C2894 C2910 1.368 . S
H2895 C2903 0.950 . S
H2896 C2901 0.950 . S
H2897 C2902 0.949 . S
H2898 C2904 0.950 . S
H2899 C2905 0.950 . S
H2900 C2906 0.949 . S
C2901 H2896 0.950 . S
C2901 C2903 1.327 . S
C2901 C2907 1.429 . S
C2902 C2894 1.574 . S
C2902 H2897 0.949 . S
C2902 C2908 1.368 . S
C2903 C2887 1.349 . S
C2903 H2895 0.950 . S
C2903 C2901 1.327 . S
C2904 C2892 1.349 . S
C2904 H2898 0.950 . S
C2904 C2905 1.327 . S
C2905 H2899 0.950 . S
C2905 C2904 1.327 . S
C2905 C2909 1.429 . S
C2906 C2889 1.574 . S
C2906 H2900 0.949 . S
C2906 C2910 1.368 . S
C2907 C2888 1.429 . S
C2907 C2901 1.429 . S
C2907 C2908 1.523 . S
C2908 C2889 1.368 . S
C2908 C2902 1.368 . S
C2908 C2907 1.523 . S
C2909 C2893 1.429 . S
C2909 C2905 1.429 . S
C2909 C2910 1.523 . S
C2910 C2894 1.368 . S
C2910 C2906 1.368 . S
C2910 C2909 1.523 . S
H2911 C2886 0.950 . S
H2912 C2888 0.950 . S
H2913 C2889 0.949 . S
H2914 C2891 0.950 . S
H2915 C2893 0.950 . S
C2916 C2917 1.349 . S
C2916 C2918 1.327 . S
C2916 H2941 0.950 . S
C2917 C2916 1.349 . S
C2917 C2933 1.349 . S
C2918 C2916 1.327 . S
C2918 C2937 1.429 . S
C2918 H2942 0.950 . S
C2919 C2936 1.574 . S
C2919 C2938 1.368 . S
C2919 H2943 0.949 . S
H2920 C2924 0.949 . S
C2921 C2922 1.349 . S
C2921 C2923 1.327 . S
C2921 H2944 0.950 . S
C2922 C2921 1.349 . S
C2922 C2934 1.349 . S
C2923 C2921 1.327 . S
C2923 C2939 1.429 . S
C2923 H2945 0.950 . S
C2924 H2920 0.949 . S
C2924 C2932 1.574 . S
C2924 C2940 1.368 . S
H2925 C2933 0.950 . S
H2926 C2931 0.950 . S
H2927 C2932 0.949 . S
H2928 C2934 0.950 . S
H2929 C2935 0.950 . S
H2930 C2936 0.949 . S
C2931 H2926 0.950 . S
C2931 C2933 1.327 . S
C2931 C2937 1.429 . S
C2932 C2924 1.574 . S
C2932 H2927 0.949 . S
C2932 C2938 1.368 . S
C2933 C2917 1.349 . S
C2933 H2925 0.950 . S
C2933 C2931 1.327 . S
C2934 C2922 1.349 . S
C2934 H2928 0.950 . S
C2934 C2935 1.327 . S
C2935 H2929 0.950 . S
C2935 C2934 1.327 . S
C2935 C2939 1.429 . S
C2936 C2919 1.574 . S
C2936 H2930 0.949 . S
C2936 C2940 1.368 . S
C2937 C2918 1.429 . S
C2937 C2931 1.429 . S
C2937 C2938 1.523 . S
C2938 C2919 1.368 . S
C2938 C2932 1.368 . S
C2938 C2937 1.523 . S
C2939 C2923 1.429 . S
C2939 C2935 1.429 . S
C2939 C2940 1.523 . S
C2940 C2924 1.368 . S
C2940 C2936 1.368 . S
C2940 C2939 1.523 . S
H2941 C2916 0.950 . S
H2942 C2918 0.950 . S
H2943 C2919 0.949 . S
H2944 C2921 0.950 . S
H2945 C2923 0.950 . S
C2946 C2947 1.349 . S
C2946 C2948 1.327 . S
C2946 H2971 0.950 . S
C2947 C2946 1.349 . S
C2947 C2963 1.349 . S
C2948 C2946 1.327 . S
C2948 C2967 1.429 . S
C2948 H2972 0.950 . S
C2949 C2966 1.574 . S
C2949 C2968 1.368 . S
C2949 H2973 0.949 . S
H2950 C2954 0.949 . S
C2951 C2952 1.349 . S
C2951 C2953 1.327 . S
C2951 H2974 0.950 . S
C2952 C2951 1.349 . S
C2952 C2964 1.349 . S
C2953 C2951 1.327 . S
C2953 C2969 1.429 . S
C2953 H2975 0.950 . S
C2954 H2950 0.949 . S
C2954 C2962 1.574 . S
C2954 C2970 1.368 . S
H2955 C2963 0.950 . S
H2956 C2961 0.950 . S
H2957 C2962 0.949 . S
H2958 C2964 0.950 . S
H2959 C2965 0.950 . S
H2960 C2966 0.949 . S
C2961 H2956 0.950 . S
C2961 C2963 1.327 . S
C2961 C2967 1.429 . S
C2962 C2954 1.574 . S
C2962 H2957 0.949 . S
C2962 C2968 1.368 . S
C2963 C2947 1.349 . S
C2963 H2955 0.950 . S
C2963 C2961 1.327 . S
C2964 C2952 1.349 . S
C2964 H2958 0.950 . S
C2964 C2965 1.327 . S
C2965 H2959 0.950 . S
C2965 C2964 1.327 . S
C2965 C2969 1.429 . S
C2966 C2949 1.574 . S
C2966 H2960 0.949 . S
C2966 C2970 1.368 . S
C2967 C2948 1.429 . S
C2967 C2961 1.429 . S
C2967 C2968 1.523 . S
C2968 C2949 1.368 . S
C2968 C2962 1.368 . S
C2968 C2967 1.523 . S
C2969 C2953 1.429 . S
C2969 C2965 1.429 . S
C2969 C2970 1.523 . S
C2970 C2954 1.368 . S
C2970 C2966 1.368 . S
C2970 C2969 1.523 . S
H2971 C2946 0.950 . S
H2972 C2948 0.950 . S
H2973 C2949 0.949 . S
H2974 C2951 0.950 . S
H2975 C2953 0.950 . S
C2976 C2977 1.349 . S
C2976 C2978 1.327 . S
C2976 H3001 0.950 . S
C2977 C2976 1.349 . S
C2977 C2993 1.349 . S
C2978 C2976 1.327 . S
C2978 C2997 1.429 . S
C2978 H3002 0.950 . S
C2979 C2996 1.574 . S
C2979 C2998 1.368 . S
C2979 H3003 0.949 . S
H2980 C2984 0.949 . S
C2981 C2982 1.349 . S
C2981 C2983 1.327 . S
C2981 H3004 0.950 . S
C2982 C2981 1.349 . S
C2982 C2994 1.349 . S
C2983 C2981 1.327 . S
C2983 C2999 1.429 . S
C2983 H3005 0.950 . S
C2984 H2980 0.949 . S
C2984 C2992 1.574 . S
C2984 C3000 1.368 . S
H2985 C2993 0.950 . S
H2986 C2991 0.950 . S
H2987 C2992 0.949 . S
H2988 C2994 0.950 . S
H2989 C2995 0.950 . S
H2990 C2996 0.949 . S
C2991 H2986 0.950 . S
C2991 C2993 1.327 . S
C2991 C2997 1.429 . S
C2992 C2984 1.574 . S
C2992 H2987 0.949 . S
C2992 C2998 1.368 . S
C2993 C2977 1.349 . S
C2993 H2985 0.950 . S
C2993 C2991 1.327 . S
C2994 C2982 1.349 . S
C2994 H2988 0.950 . S
C2994 C2995 1.327 . S
C2995 H2989 0.950 . S
C2995 C2994 1.327 . S
C2995 C2999 1.429 . S
C2996 C2979 1.574 . S
C2996 H2990 0.949 . S
C2996 C3000 1.368 . S
C2997 C2978 1.429 . S
C2997 C2991 1.429 . S
C2997 C2998 1.523 . S
C2998 C2979 1.368 . S
C2998 C2992 1.368 . S
C2998 C2997 1.523 . S
C2999 C2983 1.429 . S
C2999 C2995 1.429 . S
C2999 C3000 1.523 . S
C3000 C2984 1.368 . S
C3000 C2996 1.368 . S
C3000 C2999 1.523 . S
H3001 C2976 0.950 . S
H3002 C2978 0.950 . S
H3003 C2979 0.949 . S
H3004 C2981 0.950 . S
H3005 C2983 0.950 . S
C3006 C3007 1.349 . S
C3006 C3008 1.327 . S
C3006 H3031 0.950 . S
C3007 C3006 1.349 . S
C3007 C3023 1.349 . S
C3008 C3006 1.327 . S
C3008 C3027 1.429 . S
C3008 H3032 0.950 . S
C3009 C3026 1.574 . S
C3009 C3028 1.368 . S
C3009 H3033 0.949 . S
H3010 C3014 0.949 . S
C3011 C3012 1.349 . S
C3011 C3013 1.327 . S
C3011 H3034 0.950 . S
C3012 C3011 1.349 . S
C3012 C3024 1.349 . S
C3013 C3011 1.327 . S
C3013 C3029 1.429 . S
C3013 H3035 0.950 . S
C3014 H3010 0.949 . S
C3014 C3022 1.574 . S
C3014 C3030 1.368 . S
H3015 C3023 0.950 . S
H3016 C3021 0.950 . S
H3017 C3022 0.949 . S
H3018 C3024 0.950 . S
H3019 C3025 0.950 . S
H3020 C3026 0.949 . S
C3021 H3016 0.950 . S
C3021 C3023 1.327 . S
C3021 C3027 1.429 . S
C3022 C3014 1.574 . S
C3022 H3017 0.949 . S
C3022 C3028 1.368 . S
C3023 C3007 1.349 . S
C3023 H3015 0.950 . S
C3023 C3021 1.327 . S
C3024 C3012 1.349 . S
C3024 H3018 0.950 . S
C3024 C3025 1.327 . S
C3025 H3019 0.950 . S
C3025 C3024 1.327 . S
C3025 C3029 1.429 . S
C3026 C3009 1.574 . S
C3026 H3020 0.949 . S
C3026 C3030 1.368 . S
C3027 C3008 1.429 . S
C3027 C3021 1.429 . S
C3027 C3028 1.523 . S
C3028 C3009 1.368 . S
C3028 C3022 1.368 . S
C3028 C3027 1.523 . S
C3029 C3013 1.429 . S
C3029 C3025 1.429 . S
C3029 C3030 1.523 . S
C3030 C3014 1.368 . S
C3030 C3026 1.368 . S
C3030 C3029 1.523 . S
H3031 C3006 0.950 . S
H3032 C3008 0.950 . S
H3033 C3009 0.949 . S
H3034 C3011 0.950 . S
H3035 C3013 0.950 . S
C3036 C3037 1.349 . S
C3036 C3038 1.327 . S
C3036 H3061 0.950 . S
C3037 C3036 1.349 . S
C3037 C3053 1.349 . S
C3038 C3036 1.327 . S
C3038 C3057 1.429 . S
C3038 H3062 0.950 . S
C3039 C3056 1.574 . S
C3039 C3058 1.368 . S
C3039 H3063 0.949 . S
H3040 C3044 0.949 . S
C3041 C3042 1.349 . S
C3041 C3043 1.327 . S
C3041 H3064 0.950 . S
C3042 C3041 1.349 . S
C3042 C3054 1.349 . S
C3043 C3041 1.327 . S
C3043 C3059 1.429 . S
C3043 H3065 0.950 . S
C3044 H3040 0.949 . S
C3044 C3052 1.574 . S
C3044 C3060 1.368 . S
H3045 C3053 0.950 . S
H3046 C3051 0.950 . S
H3047 C3052 0.949 . S
H3048 C3054 0.950 . S
H3049 C3055 0.950 . S
H3050 C3056 0.949 . S
C3051 H3046 0.950 . S
C3051 C3053 1.327 . S
C3051 C3057 1.429 . S
C3052 C3044 1.574 . S
C3052 H3047 0.949 . S
C3052 C3058 1.368 . S
C3053 C3037 1.349 . S
C3053 H3045 0.950 . S
C3053 C3051 1.327 . S
C3054 C3042 1.349 . S
C3054 H3048 0.950 . S
C3054 C3055 1.327 . S
C3055 H3049 0.950 . S
C3055 C3054 1.327 . S
C3055 C3059 1.429 . S
C3056 C3039 1.574 . S
C3056 H3050 0.949 . S
C3056 C3060 1.368 . S
C3057 C3038 1.429 . S
C3057 C3051 1.429 . S
C3057 C3058 1.523 . S
C3058 C3039 1.368 . S
C3058 C3052 1.368 . S
C3058 C3057 1.523 . S
C3059 C3043 1.429 . S
C3059 C3055 1.429 . S
C3059 C3060 1.523 . S
C3060 C3044 1.368 . S
C3060 C3056 1.368 . S
C3060 C3059 1.523 . S
H3061 C3036 0.950 . S
H3062 C3038 0.950 . S
H3063 C3039 0.949 . S
H3064 C3041 0.950 . S
H3065 C3043 0.950 . S
C3066 C3067 1.349 . S
C3066 C3068 1.327 . S
C3066 H3091 0.950 . S
C3067 C3066 1.349 . S
C3067 C3083 1.349 . S
C3068 C3066 1.327 . S
C3068 C3087 1.429 . S
C3068 H3092 0.950 . S
C3069 C3086 1.574 . S
C3069 C3088 1.368 . S
C3069 H3093 0.949 . S
H3070 C3074 0.949 . S
C3071 C3072 1.349 . S
C3071 C3073 1.327 . S
C3071 H3094 0.950 . S
C3072 C3071 1.349 . S
C3072 C3084 1.349 . S
C3073 C3071 1.327 . S
C3073 C3089 1.429 . S
C3073 H3095 0.950 . S
C3074 H3070 0.949 . S
C3074 C3082 1.574 . S
C3074 C3090 1.368 . S
H3075 C3083 0.950 . S
H3076 C3081 0.950 . S
H3077 C3082 0.949 . S
H3078 C3084 0.950 . S
H3079 C3085 0.950 . S
H3080 C3086 0.949 . S
C3081 H3076 0.950 . S
C3081 C3083 1.327 . S
C3081 C3087 1.429 . S
C3082 C3074 1.574 . S
C3082 H3077 0.949 . S
C3082 C3088 1.368 . S
C3083 C3067 1.349 . S
C3083 H3075 0.950 . S
C3083 C3081 1.327 . S
C3084 C3072 1.349 . S
C3084 H3078 0.950 . S
C3084 C3085 1.327 . S
C3085 H3079 0.950 . S
C3085 C3084 1.327 . S
C3085 C3089 1.429 . S
C3086 C3069 1.574 . S
C3086 H3080 0.949 . S
C3086 C3090 1.368 . S
C3087 C3068 1.429 . S
C3087 C3081 1.429 . S
C3087 C3088 1.523 . S
C3088 C3069 1.368 . S
C3088 C3082 1.368 . S
C3088 C3087 1.523 . S
C3089 C3073 1.429 . S
C3089 C3085 1.429 . S
C3089 C3090 1.523 . S
C3090 C3074 1.368 . S
C3090 C3086 1.368 . S
C3090 C3089 1.523 . S
H3091 C3066 0.950 . S
H3092 C3068 0.950 . S
H3093 C3069 0.949 . S
H3094 C3071 0.950 . S
H3095 C3073 0.950 . S
C3096 C3097 1.349 . S
C3096 C3098 1.327 . S
C3096 H3121 0.950 . S
C3097 C3096 1.349 . S
C3097 C3113 1.349 . S
C3098 C3096 1.327 . S
C3098 C3117 1.429 . S
C3098 H3122 0.950 . S
C3099 C3116 1.574 . S
C3099 C3118 1.368 . S
C3099 H3123 0.949 . S
H3100 C3104 0.949 . S
C3101 C3102 1.349 . S
C3101 C3103 1.327 . S
C3101 H3124 0.950 . S
C3102 C3101 1.349 . S
C3102 C3114 1.349 . S
C3103 C3101 1.327 . S
C3103 C3119 1.429 . S
C3103 H3125 0.950 . S
C3104 H3100 0.949 . S
C3104 C3112 1.574 . S
C3104 C3120 1.368 . S
H3105 C3113 0.950 . S
H3106 C3111 0.950 . S
H3107 C3112 0.949 . S
H3108 C3114 0.950 . S
H3109 C3115 0.950 . S
H3110 C3116 0.949 . S
C3111 H3106 0.950 . S
C3111 C3113 1.327 . S
C3111 C3117 1.429 . S
C3112 C3104 1.574 . S
C3112 H3107 0.949 . S
C3112 C3118 1.368 . S
C3113 C3097 1.349 . S
C3113 H3105 0.950 . S
C3113 C3111 1.327 . S
C3114 C3102 1.349 . S
C3114 H3108 0.950 . S
C3114 C3115 1.327 . S
C3115 H3109 0.950 . S
C3115 C3114 1.327 . S
C3115 C3119 1.429 . S
C3116 C3099 1.574 . S
C3116 H3110 0.949 . S
C3116 C3120 1.368 . S
C3117 C3098 1.429 . S
C3117 C3111 1.429 . S
C3117 C3118 1.523 . S
C3118 C3099 1.368 . S
C3118 C3112 1.368 . S
C3118 C3117 1.523 . S
C3119 C3103 1.429 . S
C3119 C3115 1.429 . S
C3119 C3120 1.523 . S
C3120 C3104 1.368 . S
C3120 C3116 1.368 . S
C3120 C3119 1.523 . S
H3121 C3096 0.950 . S
H3122 C3098 0.950 . S
H3123 C3099 0.949 . S
H3124 C3101 0.950 . S
H3125 C3103 0.950 . S
C3126 C3127 1.349 . S
C3126 C3128 1.327 . S
C3126 H3151 0.950 . S
C3127 C3126 1.349 . S
C3127 C3143 1.349 . S
C3128 C3126 1.327 . S
C3128 C3147 1.429 . S
C3128 H3152 0.950 . S
C3129 C3146 1.574 . S
C3129 C3148 1.368 . S
C3129 H3153 0.949 . S
H3130 C3134 0.949 . S
C3131 C3132 1.349 . S
C3131 C3133 1.327 . S
C3131 H3154 0.950 . S
C3132 C3131 1.349 . S
C3132 C3144 1.349 . S
C3133 C3131 1.327 . S
C3133 C3149 1.429 . S
C3133 H3155 0.950 . S
C3134 H3130 0.949 . S
C3134 C3142 1.574 . S
C3134 C3150 1.368 . S
H3135 C3143 0.950 . S
H3136 C3141 0.950 . S
H3137 C3142 0.949 . S
H3138 C3144 0.950 . S
H3139 C3145 0.950 . S
H3140 C3146 0.949 . S
C3141 H3136 0.950 . S
C3141 C3143 1.327 . S
C3141 C3147 1.429 . S
C3142 C3134 1.574 . S
C3142 H3137 0.949 . S
C3142 C3148 1.368 . S
C3143 C3127 1.349 . S
C3143 H3135 0.950 . S
C3143 C3141 1.327 . S
C3144 C3132 1.349 . S
C3144 H3138 0.950 . S
C3144 C3145 1.327 . S
C3145 H3139 0.950 . S
C3145 C3144 1.327 . S
C3145 C3149 1.429 . S
C3146 C3129 1.574 . S
C3146 H3140 0.949 . S
C3146 C3150 1.368 . S
C3147 C3128 1.429 . S
C3147 C3141 1.429 . S
C3147 C3148 1.523 . S
C3148 C3129 1.368 . S
C3148 C3142 1.368 . S
C3148 C3147 1.523 . S
C3149 C3133 1.429 . S
C3149 C3145 1.429 . S
C3149 C3150 1.523 . S
C3150 C3134 1.368 . S
C3150 C3146 1.368 . S
C3150 C3149 1.523 . S
H3151 C3126 0.950 . S
H3152 C3128 0.950 . S
H3153 C3129 0.949 . S
H3154 C3131 0.950 . S
H3155 C3133 0.950 . S
C3156 C3157 1.349 . S
C3156 C3158 1.327 . S
C3156 H3181 0.950 . S
C3157 C3156 1.349 . S
C3157 C3173 1.349 . S
C3158 C3156 1.327 . S
C3158 C3177 1.429 . S
C3158 H3182 0.950 . S
C3159 C3176 1.574 . S
C3159 C3178 1.368 . S
C3159 H3183 0.949 . S
H3160 C3164 0.949 . S
C3161 C3162 1.349 . S
C3161 C3163 1.327 . S
C3161 H3184 0.950 . S
C3162 C3161 1.349 . S
C3162 C3174 1.349 . S
C3163 C3161 1.327 . S
C3163 C3179 1.429 . S
C3163 H3185 0.950 . S
C3164 H3160 0.949 . S
C3164 C3172 1.574 . S
C3164 C3180 1.368 . S
H3165 C3173 0.950 . S
H3166 C3171 0.950 . S
H3167 C3172 0.949 . S
H3168 C3174 0.950 . S
H3169 C3175 0.950 . S
H3170 C3176 0.949 . S
C3171 H3166 0.950 . S
C3171 C3173 1.327 . S
C3171 C3177 1.429 . S
C3172 C3164 1.574 . S
C3172 H3167 0.949 . S
C3172 C3178 1.368 . S
C3173 C3157 1.349 . S
C3173 H3165 0.950 . S
C3173 C3171 1.327 . S
C3174 C3162 1.349 . S
C3174 H3168 0.950 . S
C3174 C3175 1.327 . S
C3175 H3169 0.950 . S
C3175 C3174 1.327 . S
C3175 C3179 1.429 . S
C3176 C3159 1.574 . S
C3176 H3170 0.949 . S
C3176 C3180 1.368 . S
C3177 C3158 1.429 . S
C3177 C3171 1.429 . S
C3177 C3178 1.523 . S
C3178 C3159 1.368 . S
C3178 C3172 1.368 . S
C3178 C3177 1.523 . S
C3179 C3163 1.429 . S
C3179 C3175 1.429 . S
C3179 C3180 1.523 . S
C3180 C3164 1.368 . S
C3180 C3176 1.368 . S
C3180 C3179 1.523 . S
H3181 C3156 0.950 . S
H3182 C3158 0.950 . S
H3183 C3159 0.949 . S
H3184 C3161 0.950 . S
H3185 C3163 0.950 . S
C3186 C3187 1.349 . S
C3186 C3188 1.327 . S
C3186 H3211 0.950 . S
C3187 C3186 1.349 . S
C3187 C3203 1.349 . S
C3188 C3186 1.327 . S
C3188 C3207 1.429 . S
C3188 H3212 0.950 . S
C3189 C3206 1.574 . S
C3189 C3208 1.368 . S
C3189 H3213 0.949 . S
H3190 C3194 0.949 . S
C3191 C3192 1.349 . S
C3191 C3193 1.327 . S
C3191 H3214 0.950 . S
C3192 C3191 1.349 . S
C3192 C3204 1.349 . S
C3193 C3191 1.327 . S
C3193 C3209 1.429 . S
C3193 H3215 0.950 . S
C3194 H3190 0.949 . S
C3194 C3202 1.574 . S
C3194 C3210 1.368 . S
H3195 C3203 0.950 . S
H3196 C3201 0.950 . S
H3197 C3202 0.949 . S
H3198 C3204 0.950 . S
H3199 C3205 0.950 . S
H3200 C3206 0.949 . S
C3201 H3196 0.950 . S
C3201 C3203 1.327 . S
C3201 C3207 1.429 . S
C3202 C3194 1.574 . S
C3202 H3197 0.949 . S
C3202 C3208 1.368 . S
C3203 C3187 1.349 . S
C3203 H3195 0.950 . S
C3203 C3201 1.327 . S
C3204 C3192 1.349 . S
C3204 H3198 0.950 . S
C3204 C3205 1.327 . S
C3205 H3199 0.950 . S
C3205 C3204 1.327 . S
C3205 C3209 1.429 . S
C3206 C3189 1.574 . S
C3206 H3200 0.949 . S
C3206 C3210 1.368 . S
C3207 C3188 1.429 . S
C3207 C3201 1.429 . S
C3207 C3208 1.523 . S
C3208 C3189 1.368 . S
C3208 C3202 1.368 . S
C3208 C3207 1.523 . S
C3209 C3193 1.429 . S
C3209 C3205 1.429 . S
C3209 C3210 1.523 . S
C3210 C3194 1.368 . S
C3210 C3206 1.368 . S
C3210 C3209 1.523 . S
H3211 C3186 0.950 . S
H3212 C3188 0.950 . S
H3213 C3189 0.949 . S
H3214 C3191 0.950 . S
H3215 C3193 0.950 . S
C697 C8 1.044 . S
C702 C166 0.996 . S
C727 C37 1.044 . S
C732 C21 0.996 . S
C757 C66 1.044 . S
C762 C50 0.996 . S
C787 C79 0.996 . S
C792 C95 1.044 . S
C817 C124 1.044 . S
C822 C108 0.996 . S
C847 C153 1.044 . S
C852 C137 0.996 . S
C877 C224 0.996 . S
C882 C182 1.044 . S
C907 C253 0.996 . S
C912 C211 1.044 . S
C937 C282 0.996 . S
C942 C240 1.044 . S
C967 C269 1.044 . S
C972 C311 0.996 . S
C997 C340 0.996 . S
C1002 C298 1.044 . S
C1027 C327 1.044 . S
C1032 C195 0.996 . S
C1057 C514 0.996 . S
C1062 C356 1.044 . S
C1087 C369 0.996 . S
C1092 C385 1.044 . S
C1117 C414 1.044 . S
C1122 C398 0.996 . S
C1147 C443 1.044 . S
C1152 C427 0.996 . S
C1177 C472 1.044 . S
C1182 C456 0.996 . S
C1207 C501 1.044 . S
C1212 C485 0.996 . S
C1237 C572 0.996 . S
C1242 C530 1.044 . S
C1267 C601 0.996 . S
C1272 C559 1.044 . S
C1297 C588 1.044 . S
C1302 C630 0.996 . S
C1327 C617 1.044 . S
C1332 C659 0.996 . S
C1357 C646 1.044 . S
C1362 C688 0.996 . S
C1387 C543 0.996 . S
C1392 C675 1.044 . S
C1417 C10 1.346 . S
C1422 C445 1.346 . S
C1447 C39 1.346 . S
C1452 C474 1.346 . S
C1477 C68 1.346 . S
C1482 C503 1.346 . S
C1507 C358 1.346 . S
C1512 C97 1.346 . S
C1537 C126 1.346 . S
C1542 C387 1.346 . S
C1567 C155 1.346 . S
C1572 C416 1.346 . S
C1597 C619 1.346 . S
C1602 C184 1.346 . S
C1627 C648 1.346 . S
C1632 C213 1.346 . S
C1657 C677 1.346 . S
C1662 C242 1.346 . S
C1687 C532 1.346 . S
C1692 C271 1.346 . S
C1717 C300 1.346 . S
C1722 C561 1.346 . S
C1747 C329 1.346 . S
C1752 C590 1.346 . S
C1777 C5 1.326 . S
C1782 C237 1.326 . S
C1807 C34 1.326 . S
C1812 C266 1.326 . S
C1837 C63 1.326 . S
C1842 C295 1.326 . S
C1867 C92 1.326 . S
C1872 C324 1.326 . S
C1897 C121 1.326 . S
C1902 C179 1.326 . S
C1927 C150 1.326 . S
C1932 C208 1.326 . S
C1957 C585 1.326 . S
C1962 C353 1.326 . S
C1987 C382 1.326 . S
C1992 C614 1.326 . S
C2017 C643 1.326 . S
C2022 C411 1.326 . S
C2047 C440 1.326 . S
C2052 C672 1.326 . S
C2077 C469 1.326 . S
C2082 C527 1.326 . S
C2107 C498 1.326 . S
C2112 C556 1.326 . S
C2137 C15 1.123 . S
C2142 C102 1.123 . S
C2167 C131 1.123 . S
C2172 C44 1.123 . S
C2197 C73 1.123 . S
C2202 C160 1.123 . S
C2227 C276 1.123 . S
C2232 C189 1.123 . S
C2257 C305 1.123 . S
C2262 C218 1.123 . S
C2287 C247 1.123 . S
C2292 C334 1.123 . S
C2317 C450 1.123 . S
C2322 C363 1.123 . S
C2347 C479 1.123 . S
C2352 C392 1.123 . S
C2377 C421 1.123 . S
C2382 C508 1.123 . S
C2407 C624 1.123 . S
C2412 C537 1.123 . S
C2437 C566 1.123 . S
C2442 C653 1.123 . S
C2467 C682 1.123 . S
C2472 C595 1.123 . S
C2497 C61 2.328 . S
C2502 C13 2.246 . S
C2527 C42 2.246 . S
C2532 C90 2.328 . S
C2557 C119 2.328 . S
C2562 C71 2.246 . S
C2587 C148 2.328 . S
C2592 C100 2.246 . S
C2617 C129 2.246 . S
C2622 C3 2.328 . S
C2647 C158 2.246 . S
C2652 C32 2.328 . S
C2677 C187 2.246 . S
C2682 C293 2.328 . S
C2707 C322 2.328 . S
C2712 C216 2.246 . S
C2737 C177 2.328 . S
C2742 C245 2.246 . S
C2767 C274 2.246 . S
C2772 C206 2.328 . S
C2797 C303 2.246 . S
C2802 C235 2.328 . S
C2827 C332 2.246 . S
C2832 C264 2.328 . S
C2857 C361 2.246 . S
C2862 C409 2.328 . S
C2887 C390 2.246 . S
C2892 C438 2.328 . S
C2917 C419 2.246 . S
C2922 C467 2.328 . S
C2947 C496 2.328 . S
C2952 C448 2.246 . S
C2977 C477 2.246 . S
C2982 C351 2.328 . S
C3007 C380 2.328 . S
C3012 C506 2.246 . S
C3037 C535 2.246 . S
C3042 C641 2.328 . S
C3067 C670 2.328 . S
C3072 C564 2.246 . S
C3097 C593 2.246 . S
C3102 C525 2.328 . S
C3127 C554 2.328 . S
C3132 C622 2.246 . S
C3157 C583 2.328 . S
C3162 C651 2.246 . S
C3187 C680 2.246 . S
C3192 C612 2.328 . S
