# Generated by pormake.
# Topology unw, (4)-cn, num edge types: 1
# Building blocks:
#     Node 0, Type 0, BuildingBlock: NAWXER_clean_sbu_0, # of connection points: 4
#     Node 1, Type 0, BuildingBlock: NAWXER_clean_sbu_0, # of connection points: 4
#     Node 2, Type 0, BuildingBlock: NAWXER_clean_sbu_0, # of connection points: 4
#     Node 3, Type 0, BuildingBlock: NAWXER_clean_sbu_0, # of connection points: 4
#     Node 4, Type 0, BuildingBlock: NAWXER_clean_sbu_0, # of connection points: 4
#     Node 5, Type 0, BuildingBlock: NAWXER_clean_sbu_0, # of connection points: 4
#     Node 6, Type 0, BuildingBlock: NAWXER_clean_sbu_0, # of connection points: 4
#     Node 7, Type 0, BuildingBlock: NAWXER_clean_sbu_0, # of connection points: 4
#     Node 8, Type 0, BuildingBlock: NAWXER_clean_sbu_0, # of connection points: 4
#     Node 9, Type 0, BuildingBlock: NAWXER_clean_sbu_0, # of connection points: 4
#     Node 10, Type 0, BuildingBlock: NAWXER_clean_sbu_0, # of connection points: 4
#     Node 11, Type 0, BuildingBlock: NAWXER_clean_sbu_0, # of connection points: 4
#     Node 12, Type 0, BuildingBlock: NAWXER_clean_sbu_0, # of connection points: 4
#     Node 13, Type 0, BuildingBlock: NAWXER_clean_sbu_0, # of connection points: 4
#     Node 14, Type 0, BuildingBlock: NAWXER_clean_sbu_0, # of connection points: 4
#     Node 15, Type 0, BuildingBlock: NAWXER_clean_sbu_0, # of connection points: 4
#     Node 16, Type 0, BuildingBlock: NAWXER_clean_sbu_0, # of connection points: 4
#     Node 17, Type 0, BuildingBlock: NAWXER_clean_sbu_0, # of connection points: 4
#     Node 18, Type 0, BuildingBlock: NAWXER_clean_sbu_0, # of connection points: 4
#     Node 19, Type 0, BuildingBlock: NAWXER_clean_sbu_0, # of connection points: 4
#     Node 20, Type 0, BuildingBlock: NAWXER_clean_sbu_0, # of connection points: 4
#     Node 21, Type 0, BuildingBlock: NAWXER_clean_sbu_0, # of connection points: 4
#     Node 22, Type 0, BuildingBlock: NAWXER_clean_sbu_0, # of connection points: 4
#     Node 23, Type 0, BuildingBlock: NAWXER_clean_sbu_0, # of connection points: 4
#     Edge 24, Type (0, 0), BuildingBlock: CIFDUS_clean_linker_0, # of connection points: 2
#     Edge 25, Type (0, 0), BuildingBlock: CIFDUS_clean_linker_0, # of connection points: 2
#     Edge 26, Type (0, 0), BuildingBlock: CIFDUS_clean_linker_0, # of connection points: 2
#     Edge 27, Type (0, 0), BuildingBlock: CIFDUS_clean_linker_0, # of connection points: 2
#     Edge 28, Type (0, 0), BuildingBlock: CIFDUS_clean_linker_0, # of connection points: 2
#     Edge 29, Type (0, 0), BuildingBlock: CIFDUS_clean_linker_0, # of connection points: 2
#     Edge 30, Type (0, 0), BuildingBlock: CIFDUS_clean_linker_0, # of connection points: 2
#     Edge 31, Type (0, 0), BuildingBlock: CIFDUS_clean_linker_0, # of connection points: 2
#     Edge 32, Type (0, 0), BuildingBlock: CIFDUS_clean_linker_0, # of connection points: 2
#     Edge 33, Type (0, 0), BuildingBlock: CIFDUS_clean_linker_0, # of connection points: 2
#     Edge 34, Type (0, 0), BuildingBlock: CIFDUS_clean_linker_0, # of connection points: 2
#     Edge 35, Type (0, 0), BuildingBlock: CIFDUS_clean_linker_0, # of connection points: 2
#     Edge 36, Type (0, 0), BuildingBlock: CIFDUS_clean_linker_0, # of connection points: 2
#     Edge 37, Type (0, 0), BuildingBlock: CIFDUS_clean_linker_0, # of connection points: 2
#     Edge 38, Type (0, 0), BuildingBlock: CIFDUS_clean_linker_0, # of connection points: 2
#     Edge 39, Type (0, 0), BuildingBlock: CIFDUS_clean_linker_0, # of connection points: 2
#     Edge 40, Type (0, 0), BuildingBlock: CIFDUS_clean_linker_0, # of connection points: 2
#     Edge 41, Type (0, 0), BuildingBlock: CIFDUS_clean_linker_0, # of connection points: 2
#     Edge 42, Type (0, 0), BuildingBlock: CIFDUS_clean_linker_0, # of connection points: 2
#     Edge 43, Type (0, 0), BuildingBlock: CIFDUS_clean_linker_0, # of connection points: 2
#     Edge 44, Type (0, 0), BuildingBlock: CIFDUS_clean_linker_0, # of connection points: 2
#     Edge 45, Type (0, 0), BuildingBlock: CIFDUS_clean_linker_0, # of connection points: 2
#     Edge 46, Type (0, 0), BuildingBlock: CIFDUS_clean_linker_0, # of connection points: 2
#     Edge 47, Type (0, 0), BuildingBlock: CIFDUS_clean_linker_0, # of connection points: 2
#     Edge 48, Type (0, 0), BuildingBlock: CIFDUS_clean_linker_0, # of connection points: 2
#     Edge 49, Type (0, 0), BuildingBlock: CIFDUS_clean_linker_0, # of connection points: 2
#     Edge 50, Type (0, 0), BuildingBlock: CIFDUS_clean_linker_0, # of connection points: 2
#     Edge 51, Type (0, 0), BuildingBlock: CIFDUS_clean_linker_0, # of connection points: 2
#     Edge 52, Type (0, 0), BuildingBlock: CIFDUS_clean_linker_0, # of connection points: 2
#     Edge 53, Type (0, 0), BuildingBlock: CIFDUS_clean_linker_0, # of connection points: 2
#     Edge 54, Type (0, 0), BuildingBlock: CIFDUS_clean_linker_0, # of connection points: 2
#     Edge 55, Type (0, 0), BuildingBlock: CIFDUS_clean_linker_0, # of connection points: 2
#     Edge 56, Type (0, 0), BuildingBlock: CIFDUS_clean_linker_0, # of connection points: 2
#     Edge 57, Type (0, 0), BuildingBlock: CIFDUS_clean_linker_0, # of connection points: 2
#     Edge 58, Type (0, 0), BuildingBlock: CIFDUS_clean_linker_0, # of connection points: 2
#     Edge 59, Type (0, 0), BuildingBlock: CIFDUS_clean_linker_0, # of connection points: 2
#     Edge 60, Type (0, 0), BuildingBlock: CIFDUS_clean_linker_0, # of connection points: 2
#     Edge 61, Type (0, 0), BuildingBlock: CIFDUS_clean_linker_0, # of connection points: 2
#     Edge 62, Type (0, 0), BuildingBlock: CIFDUS_clean_linker_0, # of connection points: 2
#     Edge 63, Type (0, 0), BuildingBlock: CIFDUS_clean_linker_0, # of connection points: 2
#     Edge 64, Type (0, 0), BuildingBlock: CIFDUS_clean_linker_0, # of connection points: 2
#     Edge 65, Type (0, 0), BuildingBlock: CIFDUS_clean_linker_0, # of connection points: 2
#     Edge 66, Type (0, 0), BuildingBlock: CIFDUS_clean_linker_0, # of connection points: 2
#     Edge 67, Type (0, 0), BuildingBlock: CIFDUS_clean_linker_0, # of connection points: 2
#     Edge 68, Type (0, 0), BuildingBlock: CIFDUS_clean_linker_0, # of connection points: 2
#     Edge 69, Type (0, 0), BuildingBlock: CIFDUS_clean_linker_0, # of connection points: 2
#     Edge 70, Type (0, 0), BuildingBlock: CIFDUS_clean_linker_0, # of connection points: 2
#     Edge 71, Type (0, 0), BuildingBlock: CIFDUS_clean_linker_0, # of connection points: 2
# Relax obj value: 0.404
# Max RMSD: 0.268
# Mean RMSD: 0.268
data_MOF--net-unw--node1-NAWXER_clean_sbu_0--edge1-CIFDUS_clean_linker_0
_symmetry_space_group_name_H-M    P1
_symmetry_Int_Tables_number       1
_symmetry_cell_setting            triclinic
loop_
_symmetry_equiv_pos_as_xyz
'x, y, z'
_cell_length_a     41.300783
_cell_length_b     41.226335
_cell_length_c     41.20406
_cell_angle_alpha  89.963571
_cell_angle_beta   89.883868
_cell_angle_gamma 89.834293
loop_
_atom_site_label
_atom_site_type_symbol
_atom_site_fract_x
_atom_site_fract_y
_atom_site_fract_z
_atom_type_partial_charge
C0 C 0.15896 0.37606 0.21793 0.0
C1 C 0.0724 0.39623 0.2954 0.0
O2 O 0.12879 0.37132 0.21386 0.0
Zn3 Zn 0.11639 0.39144 0.25432 0.0
O4 O 0.16913 0.38987 0.24391 0.0
Zn5 Zn 0.14855 0.4088 0.28883 0.0
O6 O 0.17314 0.38189 0.31825 0.0
O7 O 0.13879 0.35529 0.28696 0.0
O8 O 0.09995 0.40284 0.30807 0.0
O9 O 0.07073 0.39135 0.2651 0.0
O10 O 0.13126 0.44101 0.2442 0.0
O11 O 0.15977 0.4544 0.28693 0.0
C12 C 0.16057 0.35521 0.3093 0.0
C13 C 0.14858 0.46191 0.25926 0.0
C14 C 0.65593 0.18559 0.21982 0.0
C15 C 0.64676 0.08575 0.28166 0.0
O16 O 0.66512 0.15732 0.21137 0.0
Zn17 Zn 0.64481 0.13496 0.24723 0.0
O18 O 0.6387 0.18919 0.24552 0.0
Zn19 Zn 0.62002 0.15902 0.28434 0.0
O20 O 0.64052 0.18232 0.31943 0.0
O21 O 0.67395 0.15639 0.28608 0.0
O22 O 0.63396 0.10962 0.29706 0.0
O23 O 0.65329 0.0889 0.25175 0.0
O24 O 0.59439 0.14221 0.23555 0.0
O25 O 0.57347 0.16346 0.27972 0.0
C26 C 0.66916 0.17406 0.31134 0.0
C27 C 0.56993 0.15414 0.25061 0.0
C28 C 0.93773 0.62352 0.31489 0.0
C29 C 0.82776 0.63114 0.26873 0.0
O30 O 0.93675 0.63546 0.2862 0.0
Zn31 Zn 0.90246 0.64292 0.24817 0.0
O32 O 0.91254 0.61004 0.32648 0.0
Zn33 Zn 0.8818 0.62139 0.29145 0.0
O34 O 0.88734 0.58794 0.25238 0.0
O35 O 0.91219 0.61276 0.21209 0.0
O36 O 0.83437 0.61921 0.29656 0.0
O37 O 0.85086 0.64014 0.25003 0.0
O38 O 0.90613 0.6906 0.24449 0.0
O39 O 0.88664 0.67296 0.29132 0.0
C40 C 0.89865 0.58747 0.22344 0.0
C41 C 0.8959 0.69642 0.27319 0.0
C42 C 0.33286 0.83238 0.31845 0.0
C43 C 0.42443 0.84574 0.24793 0.0
O44 O 0.36004 0.81811 0.31748 0.0
Zn45 Zn 0.37814 0.84573 0.28561 0.0
O46 O 0.3271 0.85633 0.29904 0.0
Zn47 Zn 0.35559 0.88088 0.25951 0.0
O48 O 0.32657 0.87447 0.2238 0.0
O49 O 0.35002 0.82992 0.24257 0.0
O50 O 0.40204 0.8649 0.23774 0.0
O51 O 0.42174 0.83347 0.2759 0.0
O52 O 0.37593 0.89301 0.3108 0.0
O53 O 0.35912 0.92587 0.27248 0.0
C54 C 0.33136 0.84413 0.22193 0.0
C55 C 0.36795 0.92172 0.30154 0.0
C56 C 0.12672 0.70078 0.76736 0.0
C57 C 0.1202 0.59035 0.81057 0.0
O58 O 0.13565 0.67838 0.74772 0.0
Zn59 Zn 0.13866 0.62666 0.74447 0.0
O60 O 0.11598 0.69332 0.79545 0.0
Zn61 Zn 0.11861 0.64642 0.78856 0.0
O62 O 0.16999 0.64165 0.78679 0.0
O63 O 0.18573 0.62257 0.73916 0.0
O64 O 0.10824 0.61584 0.8232 0.0
O65 O 0.13118 0.59133 0.78151 0.0
O66 O 0.10872 0.61878 0.70846 0.0
O67 O 0.08453 0.6426 0.74986 0.0
C68 C 0.19268 0.63256 0.7676 0.0
C69 C 0.08389 0.63268 0.72042 0.0
C70 C 0.35106 0.16262 0.72058 0.0
C71 C 0.44803 0.14519 0.78551 0.0
O72 O 0.38014 0.16858 0.71207 0.0
Zn73 Zn 0.39953 0.14925 0.75032 0.0
O74 O 0.34537 0.1489 0.74794 0.0
Zn75 Zn 0.37245 0.13025 0.78879 0.0
O76 O 0.3534 0.15605 0.82216 0.0
O77 O 0.38141 0.18419 0.78607 0.0
O78 O 0.42242 0.1368 0.80087 0.0
O79 O 0.44637 0.15093 0.75531 0.0
O80 O 0.38461 0.09966 0.7424 0.0
O81 O 0.36079 0.08502 0.78788 0.0
C82 C 0.36396 0.18317 0.81193 0.0
C83 C 0.36887 0.07855 0.75888 0.0
C84 C 0.86107 0.34999 0.69813 0.0
C85 C 0.86939 0.45319 0.75393 0.0
O86 O 0.85157 0.37765 0.68809 0.0
Zn87 Zn 0.87101 0.40199 0.72277 0.0
O88 O 0.8775 0.3479 0.72446 0.0
Zn89 Zn 0.89587 0.38065 0.76134 0.0
O90 O 0.87519 0.36159 0.79834 0.0
O91 O 0.84162 0.38343 0.76264 0.0
O92 O 0.88322 0.4306 0.77025 0.0
O93 O 0.86243 0.44803 0.7244 0.0
O94 O 0.9212 0.39277 0.71185 0.0
O95 O 0.94202 0.37465 0.75751 0.0
C96 C 0.84645 0.36862 0.78964 0.0
C97 C 0.94535 0.38134 0.72766 0.0
C98 C 0.63994 0.93887 0.7289 0.0
C99 C 0.64552 0.83407 0.78298 0.0
O100 O 0.6468 0.93293 0.75833 0.0
Zn101 Zn 0.6378 0.88688 0.75907 0.0
O102 O 0.62699 0.91667 0.71156 0.0
Zn103 Zn 0.61561 0.86632 0.71803 0.0
O104 O 0.56916 0.86001 0.71913 0.0
O105 O 0.58705 0.87694 0.76635 0.0
O106 O 0.63117 0.83299 0.75543 0.0
O107 O 0.65468 0.86125 0.79443 0.0
O108 O 0.67002 0.86959 0.72151 0.0
O109 O 0.64043 0.84818 0.68239 0.0
C110 C 0.56404 0.86532 0.74909 0.0
C111 C 0.6681 0.85539 0.69391 0.0
C112 C 0.25321 0.19458 0.36714 0.0
C113 C 0.30434 0.08655 0.37729 0.0
O114 O 0.23352 0.17063 0.36533 0.0
Zn115 Zn 0.23363 0.11803 0.36951 0.0
O116 O 0.28291 0.18919 0.37388 0.0
Zn117 Zn 0.27874 0.14199 0.37785 0.0
O118 O 0.26661 0.13283 0.32869 0.0
O119 O 0.21867 0.10912 0.32521 0.0
O120 O 0.31666 0.11408 0.38346 0.0
O121 O 0.27371 0.08458 0.37267 0.0
O122 O 0.20478 0.1122 0.40697 0.0
O123 O 0.24788 0.14102 0.41928 0.0
C124 C 0.24375 0.12095 0.31159 0.0
C125 C 0.21996 0.12997 0.427 0.0
C126 C 0.93291 0.31086 0.39366 0.0
C127 C 0.82494 0.26517 0.37518 0.0
O128 O 0.93404 0.28111 0.38476 0.0
Zn129 Zn 0.90037 0.24315 0.37418 0.0
O130 O 0.90575 0.3236 0.4008 0.0
Zn131 Zn 0.87753 0.28767 0.38894 0.0
O132 O 0.87783 0.25082 0.42561 0.0
O133 O 0.90537 0.20891 0.4068 0.0
O134 O 0.83072 0.29382 0.38522 0.0
O135 O 0.84849 0.24541 0.37034 0.0
O136 O 0.91077 0.23547 0.32824 0.0
O137 O 0.88922 0.28348 0.33881 0.0
C138 C 0.88832 0.22175 0.42912 0.0
C139 C 0.90157 0.2634 0.31857 0.0
C140 C 0.80074 0.87237 0.4221 0.0
C141 C 0.73986 0.87231 0.32236 0.0
O142 O 0.77219 0.8629 0.41641 0.0
Zn143 Zn 0.7675 0.8782 0.37277 0.0
O144 O 0.81487 0.89098 0.40145 0.0
Zn145 Zn 0.80126 0.91008 0.35366 0.0
O146 O 0.79157 0.95653 0.35642 0.0
O147 O 0.7497 0.92725 0.3711 0.0
O148 O 0.76383 0.89204 0.32031 0.0
O149 O 0.73362 0.8584 0.3492 0.0
O150 O 0.80854 0.85658 0.34726 0.0
O151 O 0.83831 0.89676 0.32769 0.0
C152 C 0.76178 0.95487 0.36377 0.0
C153 C 0.83306 0.86651 0.33086 0.0
C154 C 0.19552 0.75271 0.41809 0.0
C155 C 0.08153 0.71974 0.40117 0.0
O156 O 0.17625 0.77376 0.40612 0.0
Zn157 Zn 0.1279 0.78124 0.39207 0.0
O158 O 0.18455 0.72516 0.42715 0.0
Zn159 Zn 0.13885 0.73522 0.41545 0.0
O160 O 0.14904 0.73764 0.36486 0.0
O161 O 0.13679 0.78612 0.34546 0.0
O162 O 0.10274 0.70343 0.41657 0.0
O163 O 0.08839 0.74868 0.39216 0.0
O164 O 0.11816 0.81818 0.41973 0.0
O165 O 0.1291 0.77449 0.44885 0.0
C166 C 0.14869 0.75783 0.3413 0.0
C167 C 0.12278 0.80498 0.44727 0.0
C168 C 0.1825 0.85993 0.67837 0.0
C169 C 0.24587 0.95789 0.6715 0.0
O170 O 0.17578 0.88777 0.68989 0.0
Zn171 Zn 0.21073 0.9092 0.66827 0.0
O172 O 0.20699 0.85617 0.65935 0.0
Zn173 Zn 0.24612 0.88708 0.64039 0.0
O174 O 0.28204 0.86278 0.65754 0.0
O175 O 0.25014 0.88499 0.6946 0.0
O176 O 0.2603 0.93488 0.65634 0.0
O177 O 0.21624 0.95449 0.67874 0.0
O178 O 0.19608 0.90294 0.61796 0.0
O179 O 0.24061 0.8867 0.59359 0.0
C180 C 0.27525 0.86799 0.68725 0.0
C181 C 0.21084 0.89401 0.59203 0.0
C182 C 0.14851 0.24435 0.56628 0.0
C183 C 0.15976 0.30341 0.66834 0.0
O184 O 0.1555 0.27397 0.57082 0.0
Zn185 Zn 0.14954 0.27665 0.61734 0.0
O186 O 0.13708 0.22791 0.59005 0.0
Zn187 Zn 0.12748 0.23734 0.64046 0.0
O188 O 0.0813 0.23883 0.64772 0.0
O189 O 0.09922 0.28516 0.62851 0.0
O190 O 0.14481 0.27632 0.67161 0.0
O191 O 0.16797 0.31309 0.64012 0.0
O192 O 0.18178 0.23922 0.63575 0.0
O193 O 0.15129 0.20213 0.65954 0.0
C194 C 0.07621 0.26845 0.64097 0.0
C195 C 0.1792 0.21248 0.65153 0.0
C196 C 0.72048 0.15522 0.66643 0.0
C197 C 0.77659 0.1391 0.56341 0.0
O198 O 0.70988 0.16211 0.63822 0.0
Zn199 Zn 0.74531 0.14171 0.61513 0.0
O200 O 0.74742 0.13989 0.66945 0.0
Zn201 Zn 0.78515 0.12031 0.63811 0.0
O202 O 0.82092 0.14465 0.65539 0.0
O203 O 0.78346 0.17426 0.63091 0.0
O204 O 0.79354 0.12839 0.58715 0.0
O205 O 0.74696 0.1458 0.56829 0.0
O206 O 0.7366 0.09208 0.62904 0.0
O207 O 0.78324 0.07438 0.64758 0.0
C208 C 0.81051 0.17224 0.6461 0.0
C209 C 0.75341 0.06944 0.64216 0.0
C210 C 0.86589 0.7114 0.6712 0.0
C211 C 0.87475 0.76264 0.56425 0.0
O212 O 0.85741 0.6995 0.64397 0.0
Zn213 Zn 0.87528 0.73373 0.61739 0.0
O214 O 0.88105 0.73852 0.67189 0.0
Zn215 Zn 0.89799 0.77461 0.6374 0.0
O216 O 0.87401 0.81145 0.65421 0.0
O217 O 0.84378 0.77267 0.63306 0.0
O218 O 0.88719 0.78038 0.58649 0.0
O219 O 0.86759 0.73343 0.57094 0.0
O220 O 0.92584 0.7258 0.6265 0.0
O221 O 0.9446 0.77274 0.64307 0.0
C222 C 0.84617 0.80055 0.64663 0.0
C223 C 0.94944 0.7429 0.637 0.0
C224 C 0.32608 0.21183 0.17097 0.0
C225 C 0.36008 0.26618 0.07398 0.0
O226 O 0.32697 0.2003 0.14238 0.0
Zn227 Zn 0.35261 0.23489 0.12486 0.0
O228 O 0.34181 0.23786 0.17778 0.0
Zn229 Zn 0.37047 0.27342 0.14997 0.0
O230 O 0.34848 0.311 0.1637 0.0
O231 O 0.31847 0.27602 0.13629 0.0
O232 O 0.36785 0.28309 0.09877 0.0
O233 O 0.35489 0.23611 0.07779 0.0
O234 O 0.39967 0.22369 0.1471 0.0
O235 O 0.41395 0.27135 0.16539 0.0
C236 C 0.32133 0.30318 0.15154 0.0
C237 C 0.42006 0.24146 0.16242 0.0
C238 C 0.34796 0.69663 0.85655 0.0
C239 C 0.44199 0.76603 0.86165 0.0
O240 O 0.37593 0.69161 0.8446 0.0
Zn241 Zn 0.3957 0.72788 0.86566 0.0
O242 O 0.34309 0.72087 0.87566 0.0
Zn243 Zn 0.37185 0.76182 0.89406 0.0
O244 O 0.34568 0.79661 0.87713 0.0
O245 O 0.36916 0.76599 0.83985 0.0
O246 O 0.4188 0.77859 0.87811 0.0
O247 O 0.43998 0.73665 0.8529 0.0
O248 O 0.39148 0.71322 0.91669 0.0
O249 O 0.37206 0.75674 0.94071 0.0
C250 C 0.35109 0.79027 0.84738 0.0
C251 C 0.38174 0.72763 0.9426 0.0
C252 C 0.23065 0.45216 0.88323 0.0
C253 C 0.29721 0.35641 0.86109 0.0
O254 O 0.26008 0.45088 0.87435 0.0
Zn255 Zn 0.26666 0.40432 0.87548 0.0
O256 O 0.21658 0.42609 0.89254 0.0
Zn257 Zn 0.23005 0.3759 0.89679 0.0
O258 O 0.23437 0.36364 0.94192 0.0
O259 O 0.27726 0.39024 0.92471 0.0
O260 O 0.27079 0.35024 0.87623 0.0
O261 O 0.30459 0.38566 0.85435 0.0
O262 O 0.23014 0.38537 0.84264 0.0
O263 O 0.19623 0.35598 0.8719 0.0
C264 C 0.26289 0.37387 0.94685 0.0
C265 C 0.20516 0.36697 0.84443 0.0
C266 C 0.67934 0.3048 0.85816 0.0
C267 C 0.58458 0.23933 0.88148 0.0
O268 O 0.64989 0.31253 0.85303 0.0
Zn269 Zn 0.63214 0.27509 0.87501 0.0
O270 O 0.68613 0.27839 0.87316 0.0
Zn271 Zn 0.66063 0.23816 0.89495 0.0
O272 O 0.67996 0.204 0.87016 0.0
O273 O 0.64998 0.23793 0.84131 0.0
O274 O 0.61066 0.22471 0.88984 0.0
O275 O 0.5855 0.26933 0.87476 0.0
O276 O 0.64828 0.28592 0.92361 0.0
O277 O 0.67363 0.24185 0.93986 0.0
C278 C 0.66819 0.21262 0.84294 0.0
C279 C 0.66489 0.27089 0.94514 0.0
C280 C 0.72182 0.68091 0.86984 0.0
C281 C 0.77732 0.57695 0.8708 0.0
O282 O 0.71134 0.65414 0.85863 0.0
Zn283 Zn 0.74605 0.62786 0.87524 0.0
O284 O 0.74838 0.68151 0.8859 0.0
Zn285 Zn 0.78553 0.64788 0.90109 0.0
O286 O 0.822 0.66818 0.87837 0.0
O287 O 0.78461 0.64744 0.84627 0.0
O288 O 0.79339 0.59846 0.88631 0.0
O289 O 0.74824 0.58281 0.86268 0.0
O290 O 0.73652 0.63247 0.92612 0.0
O291 O 0.78169 0.64959 0.94839 0.0
C292 C 0.81176 0.66191 0.84986 0.0
C293 C 0.75206 0.64179 0.95129 0.0
C294 C 0.66718 0.69006 0.17983 0.0
C295 C 0.56134 0.73947 0.16165 0.0
O296 O 0.63977 0.67942 0.18912 0.0
Zn297 Zn 0.6148 0.71088 0.1647 0.0
O298 O 0.66863 0.7148 0.16084 0.0
Zn299 Zn 0.63454 0.74902 0.13826 0.0
O300 O 0.65122 0.78808 0.15702 0.0
O301 O 0.62959 0.75353 0.192 0.0
O302 O 0.5836 0.75661 0.14842 0.0
O303 O 0.56814 0.71071 0.17033 0.0
O304 O 0.62818 0.6972 0.11553 0.0
O305 O 0.64185 0.74319 0.09222 0.0
C306 C 0.64334 0.78079 0.186 0.0
C307 C 0.63834 0.71273 0.09055 0.0
C308 C 0.24937 0.67475 0.19931 0.0
C309 C 0.29749 0.64576 0.09382 0.0
O310 O 0.22959 0.67358 0.17552 0.0
Zn311 Zn 0.22795 0.66176 0.12518 0.0
O312 O 0.27836 0.66443 0.19573 0.0
Zn313 Zn 0.27381 0.65319 0.14951 0.0
O314 O 0.26495 0.70091 0.13343 0.0
O315 O 0.21629 0.70664 0.11189 0.0
O316 O 0.31075 0.64245 0.12149 0.0
O317 O 0.26703 0.65167 0.09221 0.0
O318 O 0.19743 0.62484 0.12562 0.0
O319 O 0.24122 0.61361 0.15394 0.0
C320 C 0.24329 0.71893 0.12059 0.0
C321 C 0.21268 0.60589 0.14468 0.0
C322 C 0.78445 0.36459 0.06437 0.0
C323 C 0.85139 0.35238 0.16005 0.0
O324 O 0.81492 0.3608 0.06591 0.0
Zn325 Zn 0.82087 0.3656 0.11247 0.0
O326 O 0.76934 0.37439 0.08969 0.0
Zn327 Zn 0.7825 0.38404 0.1392 0.0
O328 O 0.7809 0.42988 0.1473 0.0
O329 O 0.82768 0.41671 0.12564 0.0
O330 O 0.82447 0.36673 0.16653 0.0
O331 O 0.85918 0.34619 0.13082 0.0
O332 O 0.78596 0.33032 0.1318 0.0
O333 O 0.74969 0.35839 0.15971 0.0
C334 C 0.8094 0.43799 0.13933 0.0
C335 C 0.76016 0.33125 0.14929 0.0
H336 H 0.22252 0.58467 0.20564 0.0
H337 H 0.16517 0.5653 0.12063 0.0
H338 H 0.13882 0.51984 0.14894 0.0
H339 H 0.13356 0.48452 0.1979 0.0
H340 H 0.18952 0.50757 0.28326 0.0
H341 H 0.21444 0.55284 0.25492 0.0
C342 C 0.20441 0.57038 0.19312 0.0
C343 C 0.19636 0.57795 0.16076 0.0
C344 C 0.18884 0.54506 0.20982 0.0
C345 C 0.17211 0.55976 0.14536 0.0
C346 C 0.157 0.53383 0.16162 0.0
C347 C 0.15085 0.49972 0.21046 0.0
C348 C 0.15962 0.4923 0.24283 0.0
C349 C 0.16526 0.52614 0.1939 0.0
C350 C 0.18215 0.51244 0.25852 0.0
C351 C 0.19665 0.53834 0.24223 0.0
H352 H 0.53073 0.20525 0.26159 0.0
H353 H 0.54304 0.12353 0.19764 0.0
H354 H 0.49698 0.1422 0.16473 0.0
H355 H 0.45407 0.18375 0.15305 0.0
H356 H 0.44761 0.26776 0.21538 0.0
H357 H 0.49031 0.24641 0.24951 0.0
C358 C 0.52303 0.19114 0.24078 0.0
C359 C 0.53993 0.16269 0.2325 0.0
C360 C 0.49769 0.20282 0.22123 0.0
C361 C 0.53018 0.14532 0.20481 0.0
C362 C 0.50395 0.15613 0.18588 0.0
C363 C 0.46215 0.19734 0.17403 0.0
C364 C 0.44757 0.22751 0.18133 0.0
C365 C 0.4877 0.18518 0.19358 0.0
C366 C 0.45847 0.24475 0.2087 0.0
C367 C 0.48285 0.23246 0.22853 0.0
H368 H 0.87271 0.46007 0.14098 0.0
H369 H 0.77429 0.48859 0.16272 0.0
H370 H 0.79356 0.53744 0.18919 0.0
H371 H 0.83797 0.57003 0.21053 0.0
H372 H 0.93668 0.54453 0.18837 0.0
H373 H 0.91787 0.4968 0.15773 0.0
C374 C 0.85548 0.47729 0.15093 0.0
C375 C 0.82198 0.47025 0.14997 0.0
C376 C 0.86681 0.50575 0.16647 0.0
C377 C 0.80013 0.49299 0.16316 0.0
C378 C 0.81113 0.52102 0.17848 0.0
C379 C 0.85536 0.55414 0.1987 0.0
C380 C 0.88862 0.56048 0.20192 0.0
C381 C 0.84434 0.52723 0.18101 0.0
C382 C 0.91095 0.54005 0.18623 0.0
C383 C 0.90014 0.51275 0.16882 0.0
H384 H 0.54331 0.80393 0.15938 0.0
H385 H 0.50965 0.70946 0.18956 0.0
H386 H 0.46411 0.73441 0.21767 0.0
H387 H 0.43665 0.78283 0.23825 0.0
H388 H 0.46752 0.87769 0.20755 0.0
H389 H 0.51129 0.85293 0.17508 0.0
C390 C 0.52563 0.78874 0.17149 0.0
C391 C 0.53027 0.7547 0.17246 0.0
C392 C 0.4993 0.80337 0.18801 0.0
C393 C 0.50699 0.73558 0.1884 0.0
C394 C 0.48094 0.74987 0.20471 0.0
C395 C 0.4529 0.79811 0.2243 0.0
C396 C 0.44935 0.83205 0.22576 0.0
C397 C 0.47742 0.78369 0.20548 0.0
C398 C 0.46999 0.85154 0.207 0.0
C399 C 0.49499 0.83733 0.18851 0.0
H400 H 0.16641 0.45753 0.86952 0.0
H401 H 0.25266 0.51443 0.88415 0.0
H402 H 0.22361 0.56342 0.86744 0.0
H403 H 0.17586 0.58879 0.84267 0.0
H404 H 0.09144 0.53147 0.82217 0.0
H405 H 0.1172 0.48392 0.84754 0.0
C406 C 0.1786 0.4808 0.86979 0.0
C407 C 0.21166 0.48237 0.87825 0.0
C408 C 0.16203 0.50869 0.85892 0.0
C409 C 0.22728 0.51258 0.87782 0.0
C410 C 0.21069 0.54057 0.86818 0.0
C411 C 0.16283 0.56605 0.84466 0.0
C412 C 0.13162 0.56359 0.83135 0.0
C413 C 0.17837 0.53875 0.85787 0.0
C414 C 0.1152 0.53393 0.83295 0.0
C415 C 0.13009 0.50678 0.84717 0.0
H416 H 0.58364 0.19002 0.83911 0.0
H417 H 0.52165 0.24743 0.90074 0.0
H418 H 0.47387 0.21951 0.87909 0.0
H419 H 0.44972 0.18223 0.83917 0.0
H420 H 0.51138 0.13134 0.77169 0.0
H421 H 0.55949 0.15293 0.79903 0.0
C422 C 0.55965 0.19584 0.84824 0.0
C423 C 0.55601 0.22016 0.87196 0.0
C424 C 0.53237 0.18098 0.83437 0.0
C425 C 0.5249 0.22844 0.88286 0.0
C426 C 0.49767 0.21259 0.87036 0.0
C427 C 0.47376 0.17537 0.83094 0.0
C428 C 0.47717 0.15475 0.80389 0.0
C429 C 0.50109 0.18927 0.84568 0.0
C430 C 0.50829 0.14685 0.79269 0.0
C431 C 0.53571 0.15929 0.80824 0.0
H432 H 0.77992 0.56528 0.80701 0.0
H433 H 0.81728 0.53162 0.89855 0.0
H434 H 0.85157 0.49179 0.87019 0.0
H435 H 0.87006 0.46625 0.81908 0.0
H436 H 0.83478 0.5032 0.72758 0.0
H437 H 0.80136 0.5428 0.75616 0.0
C438 C 0.79516 0.54875 0.82073 0.0
C439 C 0.79529 0.55039 0.85481 0.0
C440 C 0.81573 0.52713 0.80421 0.0
C441 C 0.81619 0.53005 0.87233 0.0
C442 C 0.83599 0.50759 0.85609 0.0
C443 C 0.85556 0.48335 0.80532 0.0
C444 C 0.85497 0.48153 0.7711 0.0
C445 C 0.83603 0.50599 0.82198 0.0
C446 C 0.83587 0.50394 0.75383 0.0
C447 C 0.81643 0.52643 0.77019 0.0
H448 H 0.54924 0.86482 0.81406 0.0
H449 H 0.51462 0.83159 0.72102 0.0
H450 H 0.47501 0.79712 0.74802 0.0
H451 H 0.45271 0.7732 0.7979 0.0
H452 H 0.48409 0.80821 0.89105 0.0
H453 H 0.52284 0.84479 0.86428 0.0
C454 C 0.53259 0.8506 0.79962 0.0
C455 C 0.53522 0.85082 0.76539 0.0
C456 C 0.50987 0.83046 0.81538 0.0
C457 C 0.51331 0.83209 0.74727 0.0
C458 C 0.49079 0.81204 0.76273 0.0
C459 C 0.4683 0.78867 0.8123 0.0
C460 C 0.46641 0.78738 0.84637 0.0
C461 C 0.48948 0.81035 0.79671 0.0
C462 C 0.48571 0.80836 0.86481 0.0
C463 C 0.50765 0.82937 0.84947 0.0
H464 H 0.1417 0.18006 0.54987 0.0
H465 H 0.17939 0.27111 0.51434 0.0
H466 H 0.20501 0.2432 0.46903 0.0
H467 H 0.21976 0.19305 0.44129 0.0
H468 H 0.18036 0.10182 0.47331 0.0
H469 H 0.15253 0.12961 0.51843 0.0
C470 C 0.15506 0.19388 0.53193 0.0
C471 C 0.15872 0.22776 0.53582 0.0
C472 C 0.16994 0.17756 0.50569 0.0
C473 C 0.17611 0.24515 0.51218 0.0
C474 C 0.19102 0.22915 0.4863 0.0
C475 C 0.20526 0.17916 0.45831 0.0
C476 C 0.20281 0.14532 0.45464 0.0
C477 C 0.18873 0.19537 0.48327 0.0
C478 C 0.18301 0.1278 0.47606 0.0
C479 C 0.16706 0.14374 0.5017 0.0
H480 H 0.84123 0.13594 0.54763 0.0
H481 H 0.74853 0.16752 0.51065 0.0
H482 H 0.77538 0.19541 0.46603 0.0
H483 H 0.82503 0.21497 0.44013 0.0
H484 H 0.91801 0.18221 0.47431 0.0
H485 H 0.8913 0.15079 0.51759 0.0
C486 C 0.82683 0.14836 0.52947 0.0
C487 C 0.79276 0.14975 0.53284 0.0
C488 C 0.84253 0.16469 0.50376 0.0
C489 C 0.77466 0.166 0.50891 0.0
C490 C 0.79003 0.18222 0.48343 0.0
C491 C 0.83944 0.20092 0.45711 0.0
C492 C 0.87342 0.20142 0.45467 0.0
C493 C 0.82391 0.18249 0.48118 0.0
C494 C 0.89184 0.18246 0.47609 0.0
C495 C 0.87653 0.1645 0.50072 0.0
H496 H 0.79756 0.81013 0.44114 0.0
H497 H 0.84586 0.9 0.46279 0.0
H498 H 0.87503 0.87347 0.50763 0.0
H499 H 0.88465 0.82486 0.54214 0.0
H500 H 0.83815 0.73459 0.51701 0.0
H501 H 0.81103 0.76099 0.47169 0.0
C502 C 0.81437 0.824 0.4558 0.0
C503 C 0.81896 0.85719 0.44923 0.0
C504 C 0.83165 0.80836 0.48068 0.0
C505 C 0.84159 0.87455 0.46769 0.0
C506 C 0.8583 0.85933 0.49324 0.0
C507 C 0.86901 0.81081 0.52644 0.0
C508 C 0.86341 0.77767 0.53331 0.0
C509 C 0.85333 0.82623 0.50013 0.0
C510 C 0.84307 0.75999 0.5125 0.0
C511 C 0.82728 0.77516 0.48663 0.0
H512 H 0.16345 0.85575 0.45189 0.0
H513 H 0.09794 0.79726 0.50829 0.0
H514 H 0.11631 0.82386 0.55822 0.0
H515 H 0.15568 0.85914 0.5863 0.0
H516 H 0.22672 0.91108 0.53013 0.0
H517 H 0.20162 0.89214 0.47975 0.0
C518 C 0.15251 0.84961 0.47505 0.0
C519 C 0.12875 0.82519 0.47639 0.0
C520 C 0.16461 0.86366 0.50375 0.0
C521 C 0.11576 0.81643 0.50665 0.0
C522 C 0.12648 0.83147 0.53518 0.0
C523 C 0.16506 0.86695 0.56297 0.0
C524 C 0.19264 0.88698 0.56185 0.0
C525 C 0.15151 0.85451 0.53414 0.0
C526 C 0.2053 0.89603 0.53154 0.0
C527 C 0.19102 0.88506 0.50276 0.0
H528 H 0.70265 0.95487 0.73005 0.0
H529 H 0.61139 0.98314 0.68822 0.0
H530 H 0.63873 0.02512 0.65586 0.0
H531 H 0.68898 0.05362 0.63971 0.0
H532 H 0.78053 0.0215 0.67898 0.0
H533 H 0.75283 0.98059 0.71133 0.0
C534 C 0.68871 0.97071 0.7143 0.0
C535 C 0.65495 0.96685 0.71231 0.0
C536 C 0.70479 0.99353 0.69474 0.0
C537 C 0.63728 0.98637 0.69074 0.0
C538 C 0.65298 0.01008 0.67204 0.0
C539 C 0.70296 0.03736 0.65494 0.0
C540 C 0.73693 0.04084 0.65682 0.0
C541 C 0.6868 0.01375 0.6737 0.0
C542 C 0.75449 0.01946 0.67682 0.0
C543 C 0.73861 0.99618 0.69564 0.0
H544 H 0.96468 0.67803 0.63545 0.0
H545 H 1.00294 0.77145 0.66307 0.0
H546 H 0.04838 0.74496 0.68993 0.0
H547 H 0.0743 0.6956 0.71028 0.0
H548 H 0.03821 0.60181 0.68248 0.0
H549 H 0.99464 0.62804 0.65104 0.0
C550 C 0.98327 0.69266 0.64679 0.0
C551 C 0.98008 0.72683 0.64739 0.0
C552 C 0.00937 0.67717 0.66261 0.0
C553 C 1.00454 0.74524 0.66223 0.0
C554 C 0.0305 0.73008 0.67782 0.0
C555 C 0.05703 0.68091 0.69705 0.0
C556 C 0.05903 0.64691 0.69891 0.0
C557 C 0.03261 0.69614 0.67894 0.0
C558 C 0.03692 0.62803 0.68145 0.0
C559 C 0.01208 0.64307 0.66357 0.0
H560 H 0.30516 0.06796 0.75896 0.0
H561 H 0.39428 0.03272 0.71744 0.0
H562 H 0.3639 0.9932 0.68477 0.0
H563 H 0.31151 0.9685 0.66874 0.0
H564 H 0.22265 1.00793 0.70797 0.0
H565 H 0.25335 0.04658 0.74008 0.0
C566 C 0.31796 0.05119 0.74317 0.0
C567 C 0.35193 0.05231 0.74142 0.0
C568 C 0.30028 0.02981 0.72354 0.0
C569 C 0.36818 0.0316 0.71977 0.0
C570 C 0.35077 1.00929 0.70093 0.0
C571 C 0.29882 0.98589 0.6839 0.0
C572 C 0.26468 0.98505 0.68593 0.0
C573 C 0.31673 1.00824 0.70254 0.0
C574 C 0.24879 1.00785 0.7058 0.0
C575 C 0.26636 0.02987 0.72446 0.0
H576 H 0.06218 0.33347 0.64044 0.0
H577 H 0.02433 0.2408 0.67121 0.0
H578 H 0.98163 0.26811 0.70167 0.0
H579 H 0.95693 0.31808 0.72246 0.0
H580 H 0.99189 0.41094 0.69017 0.0
H581 H 0.03427 0.38389 0.65778 0.0
C582 C 0.04425 0.31919 0.65329 0.0
C583 C 0.0467 0.285 0.65357 0.0
C584 C 0.01977 0.33513 0.67114 0.0
C585 C 0.02318 0.26704 0.67048 0.0
C586 C 0.99885 0.28266 0.68818 0.0
C587 C 0.97414 0.33234 0.70857 0.0
C588 C 0.9722 0.36636 0.70938 0.0
C589 C 0.99744 0.31662 0.68933 0.0
C590 C 0.9936 0.38472 0.69041 0.0
C591 C 0.01756 0.36922 0.67177 0.0
H592 H 0.70531 0.9532 0.33114 0.0
H593 H 0.7705 0.01896 0.37902 0.0
H594 H 0.73732 0.06523 0.36136 0.0
H595 H 0.69242 0.08709 0.32817 0.0
H596 H 0.63269 0.0216 0.27343 0.0
H597 H 0.66059 0.97501 0.298 0.0
C598 C 0.71181 0.97765 0.33829 0.0
C599 C 0.73996 0.98269 0.35692 0.0
C600 C 0.6936 1.00411 0.32657 0.0
C601 C 0.74876 0.01451 0.36507 0.0
C602 C 0.72985 0.04091 0.35485 0.0
C603 C 0.68517 0.06255 0.3222 0.0
C604 C 0.66013 0.05763 0.29959 0.0
C605 C 0.70257 0.03605 0.33506 0.0
C606 C 0.65153 0.02585 0.29117 0.0
C607 C 0.66762 0.9993 0.30509 0.0
H608 H 0.95364 0.68469 0.32658 0.0
H609 H 0.98128 0.58709 0.35132 0.0
H610 H 0.02758 0.60805 0.38275 0.0
H611 H 0.06227 0.65506 0.39986 0.0
H612 H 0.03037 0.75212 0.376 0.0
H613 H 0.98346 0.73051 0.34829 0.0
C614 C 0.96961 0.66798 0.33917 0.0
C615 C 0.96433 0.63445 0.33641 0.0
C616 C 0.99546 0.68021 0.35744 0.0
C617 C 0.98497 0.61303 0.35302 0.0
C618 C 0.01143 0.62507 0.37092 0.0
C619 C 0.04472 0.67145 0.38915 0.0
C620 C 0.05034 0.70531 0.38984 0.0
C621 C 0.01723 0.65874 0.37294 0.0
C622 C 0.02715 0.72605 0.37573 0.0
C623 C 1.00021 0.71372 0.35969 0.0
H624 H 0.38703 0.98506 0.29866 0.0
H625 H 0.33205 0.9177 0.35644 0.0
H626 H 0.30822 0.96271 0.38714 0.0
H627 H 0.29781 0.02197 0.39258 0.0
H628 H 0.35725 0.08886 0.33869 0.0
H629 H 0.38478 0.04364 0.31191 0.0
C630 C 0.37065 0.98025 0.31869 0.0
C631 C 0.36135 0.94807 0.32528 0.0
C632 C 0.35752 1.0063 0.33673 0.0
C633 C 0.33991 0.94219 0.35116 0.0
C634 C 0.326 0.968 0.36851 0.0
C635 C 0.31742 0.02655 0.37565 0.0
C636 C 0.32539 0.0588 0.36761 0.0
C637 C 0.33383 1.00025 0.36083 0.0
C638 C 0.35084 0.06433 0.34558 0.0
C639 C 0.36644 0.03844 0.33001 0.0
H640 H 0.06972 0.36291 0.35226 0.0
H641 H 0.01016 0.41414 0.28334 0.0
H642 H 0.96131 0.39677 0.31219 0.0
H643 H 0.93543 0.36146 0.35272 0.0
H644 H 0.9946 0.30359 0.41637 0.0
H645 H 0.04359 0.32931 0.3946 0.0
C646 C 0.04604 0.37093 0.34415 0.0
C647 C 0.04351 0.39014 0.31596 0.0
C648 C 0.01797 0.35945 0.35996 0.0
C649 C 0.01268 0.39958 0.30509 0.0
C650 C 0.98476 0.38955 0.32153 0.0
C651 C 0.95902 0.35539 0.36259 0.0
C652 C 0.96144 0.33138 0.38677 0.0
C653 C 0.98706 0.36879 0.34848 0.0
C654 C 0.99218 0.32256 0.39832 0.0
C655 C 0.02016 0.33704 0.38561 0.0
H656 H 0.68765 0.65384 0.95803 0.0
H657 H 0.77619 0.64692 0.01302 0.0
H658 H 0.7476 0.66552 0.06174 0.0
H659 H 0.69842 0.68808 0.08758 0.0
H660 H 0.61123 0.69929 0.03158 0.0
H661 H 0.63811 0.67466 0.9843 0.0
C662 C 0.7006 0.65577 0.98082 0.0
C663 C 0.73407 0.64869 0.98188 0.0
C664 C 0.68422 0.66759 1.00843 0.0
C665 C 0.7505 0.65203 0.01151 0.0
C666 C 0.73416 0.66281 0.03934 0.0
C667 C 0.68527 0.6846 0.0651 0.0
C668 C 0.65287 0.69504 0.06296 0.0
C669 C 0.7012 0.67128 0.03793 0.0
C670 C 0.63607 0.69109 0.03372 0.0
C671 C 0.6515 0.67712 1.00675 0.0
H672 H 0.34949 0.68477 0.0858 0.0
H673 H 0.2877 0.61852 0.03433 0.0
H674 H 0.31274 0.63446 0.98274 0.0
H675 H 0.34712 0.67255 0.95163 0.0
H676 H 0.40275 0.74424 1.00288 0.0
H677 H 0.38579 0.72095 0.05493 0.0
C678 C 0.34231 0.67308 0.06336 0.0
C679 C 0.31729 0.64991 0.06395 0.0
C680 C 0.35556 0.68379 0.03361 0.0
C681 C 0.30729 0.63594 0.03456 0.0
C682 C 0.32145 0.64528 1.00503 0.0
C683 C 0.35626 0.68237 0.97424 0.0
C684 C 0.37672 0.70967 0.97345 0.0
C685 C 0.34493 0.66989 1.00412 0.0
C686 C 0.38742 0.72296 1.0029 0.0
C687 C 0.37753 0.70975 0.03265 0.0
H688 H 0.27966 0.31151 0.95267 0.0
H689 H 0.29187 0.4047 0.99803 0.0
H690 H 0.32685 0.38001 0.0396 0.0
H691 H 0.35153 0.33123 0.06421 0.0
H692 H 0.34038 0.23838 0.01711 0.0
H693 H 0.3084 0.26383 0.9743 0.0
C694 C 0.28978 0.32627 0.97192 0.0
C695 C 0.28248 0.35958 0.97314 0.0
C696 C 0.31055 0.31208 0.99492 0.0
C697 C 0.29661 0.37885 0.99726 0.0
C698 C 0.31677 0.36476 0.02077 0.0
C699 C 0.34281 0.31661 0.0442 0.0
C700 C 0.34838 0.28277 0.04409 0.0
C701 C 0.32376 0.33133 0.01994 0.0
C702 C 0.33662 0.26438 0.01792 0.0
C703 C 0.31797 0.27887 0.99358 0.0
H704 H 0.71858 0.36078 0.05712 0.0
H705 H 0.80863 0.33644 1.00938 0.0
H706 H 0.77933 0.30422 0.96955 0.0
H707 H 0.72867 0.28004 0.95011 0.0
H708 H 0.6381 0.30624 0.99499 0.0
H709 H 0.66702 0.34019 0.03454 0.0
C710 C 0.7318 0.34895 0.03767 0.0
C711 C 0.76594 0.35105 0.03649 0.0
C712 C 0.71474 0.33009 0.01486 0.0
C713 C 0.78248 0.33541 0.01101 0.0
C714 C 0.76574 0.31667 0.98834 0.0
C715 C 0.71536 0.29292 0.96886 0.0
C716 C 0.68148 0.2899 0.97049 0.0
C717 C 0.73203 0.31318 0.99052 0.0
C718 C 0.66426 0.30766 0.99389 0.0
C719 C 0.6808 0.32721 0.01626 0.0
H720 H 0.21934 0.34193 0.33705 0.0
H721 H 0.12859 0.29776 0.31034 0.0
H722 H 0.14904 0.24479 0.3271 0.0
H723 H 0.19304 0.21068 0.34671 0.0
H724 H 0.28509 0.25318 0.37153 0.0
H725 H 0.26378 0.30715 0.35809 0.0
C726 C 0.20392 0.32075 0.33532 0.0
C727 C 0.17239 0.32385 0.32252 0.0
C728 C 0.21615 0.29006 0.34436 0.0
C729 C 0.15291 0.29609 0.32002 0.0
C730 C 0.16461 0.26576 0.32956 0.0
C731 C 0.20855 0.23168 0.34942 0.0
C732 C 0.24071 0.22775 0.36015 0.0
C733 C 0.19629 0.26241 0.34132 0.0
C734 C 0.26029 0.2554 0.3633 0.0
C735 C 0.24808 0.28629 0.35562 0.0
H736 H 0.80694 0.20336 0.36546 0.0
H737 H 0.76809 0.30049 0.37098 0.0
H738 H 0.71448 0.27996 0.35557 0.0
H739 H 0.68018 0.23465 0.33542 0.0
H740 H 0.72208 0.13912 0.32653 0.0
H741 H 0.773 0.1587 0.34882 0.0
C742 C 0.78681 0.22021 0.36342 0.0
C743 C 0.79165 0.25352 0.36884 0.0
C744 C 0.75658 0.2084 0.35402 0.0
C745 C 0.76506 0.27476 0.36669 0.0
C746 C 0.73445 0.26302 0.35783 0.0
C747 C 0.70032 0.21813 0.3391 0.0
C748 C 0.6975 0.18547 0.32958 0.0
C749 C 0.73009 0.22993 0.35077 0.0
C750 C 0.72379 0.1643 0.3338 0.0
C751 C 0.75291 0.17551 0.34638 0.0
H752 H 0.88674 0.75517 0.24199 0.0
H753 H 0.90046 0.71171 0.33638 0.0
H754 H 0.88657 0.76244 0.36261 0.0
H755 H 0.86232 0.81625 0.35937 0.0
H756 H 0.848 0.86159 0.26642 0.0
H757 H 0.87047 0.81353 0.23903 0.0
C758 C 0.88745 0.75716 0.26821 0.0
C759 C 0.89405 0.72948 0.28714 0.0
C760 C 0.87889 0.78667 0.28348 0.0
C761 C 0.89495 0.73244 0.32117 0.0
C762 C 0.88696 0.76148 0.33631 0.0
C763 C 0.86503 0.81588 0.33316 0.0
C764 C 0.85364 0.84211 0.31485 0.0
C765 C 0.87762 0.78829 0.3178 0.0
C766 C 0.85702 0.8416 0.28093 0.0
C767 C 0.86956 0.81403 0.2653 0.0
H768 H 0.32167 0.77118 0.34017 0.0
H769 H 0.29098 0.87059 0.35197 0.0
H770 H 0.25202 0.85401 0.39349 0.0
H771 H 0.22262 0.81121 0.42118 0.0
H772 H 0.24504 0.71099 0.40146 0.0
H773 H 0.29282 0.72768 0.37016 0.0
C774 C 0.30648 0.78914 0.352 0.0
C775 C 0.30887 0.82205 0.3429 0.0
C776 C 0.28327 0.77922 0.37496 0.0
C777 C 0.28914 0.84514 0.35825 0.0
C778 C 0.26715 0.83569 0.38218 0.0
C779 C 0.2386 0.79294 0.41089 0.0
C780 C 0.23023 0.75992 0.41347 0.0
C781 C 0.26359 0.80278 0.39018 0.0
C782 C 0.25113 0.7365 0.40022 0.0
C783 C 0.27795 0.74613 0.38159 0.0
H784 H 0.13191 0.72048 0.7056 0.0
H785 H 0.12772 0.75712 0.8036 0.0
H786 H 0.14017 0.81185 0.78354 0.0
H787 H 0.15893 0.84731 0.7386 0.0
H788 H 0.16697 0.80788 0.64194 0.0
H789 H 0.14586 0.75599 0.66099 0.0
C790 C 0.13346 0.74042 0.7227 0.0
C791 C 0.12952 0.73469 0.75613 0.0
C792 C 0.14136 0.77122 0.71114 0.0
C793 C 0.13089 0.76092 0.77778 0.0
C794 C 0.13813 0.79212 0.76631 0.0
C795 C 0.15528 0.82751 0.72169 0.0
C796 C 0.16445 0.83116 0.68897 0.0
C797 C 0.14434 0.79732 0.73312 0.0
C798 C 0.16015 0.80539 0.66724 0.0
C799 C 0.14821 0.77578 0.67813 0.0
H800 H 0.29071 0.13817 0.72366 0.0
H801 H 0.34901 0.20774 0.67165 0.0
H802 H 0.30073 0.22735 0.64317 0.0
H803 H 0.24153 0.22803 0.63727 0.0
H804 H 0.18353 0.15897 0.69051 0.0
H805 H 0.23244 0.13558 0.71418 0.0
C806 C 0.29294 0.15752 0.70594 0.0
C807 C 0.32326 0.17191 0.70012 0.0
C808 C 0.26519 0.1688 0.69005 0.0
C809 C 0.32589 0.19642 0.67662 0.0
C810 C 0.29829 0.2077 0.66047 0.0
C811 C 0.23956 0.20764 0.65379 0.0
C812 C 0.20885 0.19555 0.66246 0.0
C813 C 0.26773 0.19459 0.66763 0.0
C814 C 0.20681 0.16889 0.6836 0.0
C815 C 0.23475 0.15556 0.69722 0.0
H816 H 0.79692 0.23302 0.62509 0.0
H817 H 0.86262 0.17931 0.68648 0.0
H818 H 0.88604 0.2301 0.70586 0.0
H819 H 0.88425 0.28942 0.70906 0.0
H820 H 0.81754 0.34303 0.64866 0.0
H821 H 0.79824 0.29235 0.62494 0.0
C822 C 0.81657 0.23234 0.6425 0.0
C823 C 0.82772 0.20241 0.65466 0.0
C824 C 0.82955 0.26156 0.65384 0.0
C825 C 0.85349 0.202 0.67685 0.0
C826 C 0.86679 0.23103 0.68804 0.0
C827 C 0.86563 0.29009 0.69053 0.0
C828 C 0.85199 0.31993 0.68097 0.0
C829 C 0.85443 0.26091 0.6773 0.0
C830 C 0.82829 0.32038 0.65658 0.0
C831 C 0.81719 0.29142 0.64308 0.0
H832 H 0.78599 0.78888 0.62365 0.0
H833 H 0.83885 0.85242 0.68762 0.0
H834 H 0.78796 0.87712 0.70564 0.0
H835 H 0.72859 0.87697 0.70683 0.0
H836 H 0.67577 0.81266 0.64357 0.0
H837 H 0.7268 0.79211 0.62132 0.0
C838 C 0.78646 0.80832 0.64137 0.0
C839 C 0.81615 0.81849 0.65465 0.0
C840 C 0.75718 0.8221 0.65181 0.0
C841 C 0.81634 0.84406 0.67714 0.0
C842 C 0.78725 0.85808 0.68754 0.0
C843 C 0.72818 0.85862 0.68797 0.0
C844 C 0.69842 0.84599 0.67719 0.0
C845 C 0.75754 0.84671 0.67561 0.0
C846 C 0.69832 0.82267 0.65238 0.0
C847 C 0.72749 0.81083 0.63976 0.0
H848 H 0.23395 0.17881 0.28697 0.0
H849 H 0.26104 0.08141 0.26101 0.0
H850 H 0.28708 0.1015 0.21124 0.0
H851 H 0.31072 0.14812 0.1811 0.0
H852 H 0.29064 0.24536 0.21437 0.0
H853 H 0.25394 0.22438 0.25565 0.0
C854 C 0.24427 0.16192 0.26953 0.0
C855 C 0.24506 0.12875 0.277 0.0
C856 C 0.26174 0.17393 0.24308 0.0
C857 C 0.25939 0.10697 0.2551 0.0
C858 C 0.27494 0.11859 0.22713 0.0
C859 C 0.29806 0.16455 0.19731 0.0
C860 C 0.30375 0.19813 0.19522 0.0
C861 C 0.27776 0.15219 0.22185 0.0
C862 C 0.28721 0.21936 0.21614 0.0
C863 C 0.26597 0.20743 0.23948 0.0
H864 H 0.90722 0.32427 0.29694 0.0
H865 H 0.89857 0.22563 0.26343 0.0
H866 H 0.88777 0.24532 0.20818 0.0
H867 H 0.87141 0.29096 0.17223 0.0
H868 H 0.87434 0.38872 0.20907 0.0
H869 H 0.89706 0.36921 0.26023 0.0
C870 C 0.9035 0.307 0.27742 0.0
C871 C 0.90307 0.27359 0.28424 0.0
C872 C 0.89601 0.3185 0.24642 0.0
C873 C 0.89892 0.25148 0.25872 0.0
C874 C 0.89245 0.26277 0.22724 0.0
C875 C 0.87802 0.3079 0.19121 0.0
C876 C 0.87152 0.34117 0.18715 0.0
C877 C 0.88958 0.29626 0.22116 0.0
C878 C 0.87937 0.36305 0.21189 0.0
C879 C 0.89216 0.35188 0.24109 0.0
H880 H 0.68756 0.82957 0.18613 0.0
H881 H 0.61989 0.7785 0.24755 0.0
H882 H 0.64168 0.80558 0.29522 0.0
H883 H 0.68414 0.83815 0.31996 0.0
H884 H 0.75341 0.88785 0.25926 0.0
H885 H 0.72648 0.86725 0.21076 0.0
C886 C 0.67716 0.8249 0.20987 0.0
C887 C 0.65254 0.80172 0.2134 0.0
C888 C 0.69031 0.84 0.23733 0.0
C889 C 0.63921 0.79593 0.24428 0.0
C890 C 0.65166 0.81135 0.27156 0.0
C891 C 0.69316 0.8448 0.29613 0.0
C892 C 0.72103 0.86398 0.2932 0.0
C893 C 0.67795 0.83249 0.26847 0.0
C894 C 0.7321 0.87285 0.26216 0.0
C895 C 0.71679 0.86102 0.23441 0.0
H896 H 0.20503 0.72237 0.2036 0.0
H897 H 0.26769 0.66252 0.26232 0.0
H898 H 0.24245 0.68461 0.31166 0.0
H899 H 0.19989 0.71757 0.33732 0.0
H900 H 0.13776 0.77802 0.27861 0.0
H901 H 0.16572 0.75894 0.22949 0.0
C902 C 0.21325 0.71417 0.22723 0.0
C903 C 0.23776 0.69035 0.22944 0.0
C904 C 0.19858 0.72684 0.25518 0.0
C905 C 0.24879 0.68065 0.26009 0.0
C906 C 0.23423 0.69315 0.28818 0.0
C907 C 0.19234 0.72652 0.31374 0.0
C908 C 0.16623 0.74857 0.31139 0.0
C909 C 0.20861 0.71563 0.28591 0.0
C910 C 0.15748 0.7608 0.2809 0.0
C911 C 0.17344 0.74985 0.25292 0.0
H912 H 0.36295 0.78667 0.78261 0.0
H913 H 0.30524 0.83792 0.85358 0.0
H914 H 0.2779 0.86764 0.81021 0.0
H915 H 0.26853 0.87705 0.75222 0.0
H916 H 0.32608 0.82563 0.68123 0.0
H917 H 0.35551 0.79814 0.72469 0.0
C918 C 0.34448 0.80443 0.78866 0.0
C919 C 0.33598 0.80985 0.82133 0.0
C920 C 0.3288 0.82135 0.76362 0.0
C921 C 0.31221 0.83319 0.82867 0.0
C922 C 0.29651 0.85016 0.80387 0.0
C923 C 0.28764 0.85998 0.74619 0.0
C924 C 0.2949 0.85326 0.71346 0.0
C925 C 0.30433 0.84413 0.77127 0.0
C926 C 0.31991 0.83123 0.70618 0.0
C927 C 0.33671 0.81542 0.73102 0.0
H928 H 0.2194 0.38513 0.78256 0.0
H929 H 0.15514 0.32407 0.83829 0.0
H930 H 0.13389 0.30076 0.78828 0.0
H931 H 0.13685 0.2944 0.7293 0.0
H932 H 0.20161 0.35463 0.67338 0.0
H933 H 0.21924 0.38177 0.72306 0.0
C934 C 0.20047 0.36699 0.78382 0.0
C935 C 0.18913 0.35614 0.81421 0.0
C936 C 0.18865 0.35336 0.75498 0.0
C937 C 0.16443 0.33279 0.81529 0.0
C938 C 0.15234 0.31934 0.78669 0.0
C939 C 0.15469 0.31361 0.72789 0.0
C940 C 0.16822 0.32219 0.6977 0.0
C941 C 0.16483 0.32889 0.75649 0.0
C942 C 0.19093 0.34746 0.6963 0.0
C943 C 0.20107 0.36292 0.72471 0.0
H944 H 0.73145 0.13501 0.72782 0.0
H945 H 0.67101 0.19953 0.67169 0.0
H946 H 0.64748 0.22131 0.72176 0.0
H947 H 0.6476 0.22503 0.78139 0.0
H948 H 0.70911 0.16086 0.83691 0.0
H949 H 0.72858 0.13579 0.78696 0.0
C950 C 0.71296 0.15371 0.72645 0.0
C951 C 0.70329 0.16594 0.69608 0.0
C952 C 0.69987 0.16628 0.7552 0.0
C953 C 0.67896 0.18978 0.69476 0.0
C954 C 0.6656 0.20232 0.72338 0.0
C955 C 0.66504 0.20535 0.78261 0.0
C956 C 0.67715 0.19511 0.81289 0.0
C957 C 0.67641 0.19122 0.75374 0.0
C958 C 0.69952 0.16938 0.81399 0.0
C959 C 0.71073 0.15506 0.78542 0.0
H960 H 0.88299 0.72938 0.73248 0.0
H961 H 0.82854 0.65739 0.6797 0.0
H962 H 0.80951 0.63419 0.73079 0.0
H963 H 0.80493 0.63693 0.78982 0.0
H964 H 0.85836 0.70905 0.84323 0.0
H965 H 0.88167 0.72938 0.79233 0.0
C966 C 0.86715 0.70845 0.7321 0.0
C967 C 0.85691 0.69538 0.70218 0.0
C968 C 0.85609 0.69535 0.76161 0.0
C969 C 0.83666 0.66806 0.70226 0.0
C970 C 0.82572 0.65481 0.73149 0.0
C971 C 0.82185 0.657 0.79044 0.0
C972 C 0.82959 0.67178 0.82025 0.0
C973 C 0.83475 0.66868 0.76121 0.0
C974 C 0.85199 0.69731 0.82063 0.0
C975 C 0.86514 0.70903 0.79151 0.0
H976 H 0.21851 0.39957 0.20721 0.0
H977 H 0.15373 0.3232 0.17804 0.0
H978 H 0.19848 0.29518 0.15058 0.0
H979 H 0.25749 0.28872 0.14249 0.0
H980 H 0.32161 0.36511 0.17382 0.0
H981 H 0.27559 0.39689 0.19261 0.0
C982 C 0.21408 0.37709 0.19429 0.0
C983 C 0.18314 0.36315 0.195 0.0
C984 C 0.23988 0.36092 0.17934 0.0
C985 C 0.17745 0.33434 0.17779 0.0
C986 C 0.20307 0.31819 0.16237 0.0
C987 C 0.26129 0.31259 0.15283 0.0
C988 C 0.29296 0.32424 0.15734 0.0
C989 C 0.23465 0.33065 0.16413 0.0
C990 C 0.29753 0.35531 0.17058 0.0
C991 C 0.27122 0.37356 0.18133 0.0
H992 H 0.33709 0.67088 0.79688 0.0
H993 H 0.2963 0.67934 0.89299 0.0
H994 H 0.24589 0.655 0.87417 0.0
H995 H 0.21157 0.63836 0.8296 0.0
H996 H 0.24938 0.6342 0.73199 0.0
H997 H 0.30319 0.64926 0.75222 0.0
C998 C 0.31736 0.66665 0.81376 0.0
C999 C 0.32018 0.6769 0.84624 0.0
C1000 C 0.28795 0.65383 0.80242 0.0
C1001 C 0.29447 0.67176 0.86788 0.0
C1002 C 0.26569 0.65794 0.85711 0.0
C1003 C 0.23161 0.64037 0.81265 0.0
C1004 C 0.22639 0.63573 0.77924 0.0
C1005 C 0.26184 0.65001 0.82427 0.0
C1006 C 0.25276 0.63782 0.75779 0.0
C1007 C 0.28343 0.64661 0.76936 0.0
H1008 H 0.29812 0.29722 0.88828 0.0
H1009 H 0.34224 0.35356 0.8119 0.0
H1010 H 0.36963 0.30472 0.79152 0.0
H1011 H 0.3761 0.24518 0.79238 0.0
H1012 H 0.32999 0.18955 0.86833 0.0
H1013 H 0.30834 0.2392 0.89204 0.0
C1014 C 0.31393 0.29893 0.86728 0.0
C1015 C 0.31778 0.32879 0.85124 0.0
C1016 C 0.32899 0.27087 0.85554 0.0
C1017 C 0.33884 0.33078 0.82455 0.0
C1018 C 0.35431 0.30285 0.81282 0.0
C1019 C 0.36164 0.24394 0.81434 0.0
C1020 C 0.35431 0.21361 0.8283 0.0
C1021 C 0.34882 0.27261 0.82763 0.0
C1022 C 0.33573 0.21249 0.85688 0.0
C1023 C 0.3233 0.24087 0.87046 0.0
H1024 H 0.74157 0.3021 0.87742 0.0
H1025 H 0.67766 0.35184 0.81108 0.0
H1026 H 0.72424 0.37839 0.78567 0.0
H1027 H 0.78315 0.38293 0.77906 0.0
H1028 H 0.84673 0.33165 0.84469 0.0
H1029 H 0.79994 0.31023 0.87383 0.0
C1030 C 0.73775 0.31894 0.85754 0.0
C1031 C 0.7063 0.32463 0.84575 0.0
C1032 C 0.76452 0.33358 0.84283 0.0
C1033 C 0.70167 0.34699 0.82046 0.0
C1034 C 0.72829 0.362 0.80585 0.0
C1035 C 0.78682 0.36727 0.79989 0.0
C1036 C 0.8184 0.35849 0.8094 0.0
C1037 C 0.75985 0.35475 0.81629 0.0
C1038 C 0.82271 0.33856 0.83671 0.0
C1039 C 0.79598 0.32626 0.85335 0.0
H1040 H 0.67242 0.69094 0.82754 0.0
H1041 H 0.7353 0.74065 0.89457 0.0
H1042 H 0.71496 0.79287 0.87569 0.0
H1043 H 0.68368 0.82448 0.83605 0.0
H1044 H 0.62199 0.77442 0.76812 0.0
H1045 H 0.63734 0.7225 0.79162 0.0
C1046 C 0.68128 0.71317 0.8384 0.0
C1047 C 0.70562 0.71189 0.86206 0.0
C1048 C 0.66996 0.74317 0.82703 0.0
C1049 C 0.71678 0.74094 0.876 0.0
C1050 C 0.70523 0.77087 0.86519 0.0
C1051 C 0.6733 0.80224 0.82669 0.0
C1052 C 0.65218 0.80332 0.80007 0.0
C1053 C 0.68253 0.77229 0.84004 0.0
C1054 C 0.63874 0.77428 0.78832 0.0
C1055 C 0.64744 0.74451 0.80175 0.0
H1056 H 0.68013 0.66171 0.23867 0.0
H1057 H 0.72285 0.6853 0.14597 0.0
H1058 H 0.77538 0.66617 0.16478 0.0
H1059 H 0.8098 0.64692 0.20806 0.0
H1060 H 0.76994 0.62612 0.30267 0.0
H1061 H 0.71551 0.63959 0.28255 0.0
C1062 C 0.70091 0.66214 0.22255 0.0
C1063 C 0.69768 0.67494 0.19097 0.0
C1064 C 0.73149 0.6519 0.23393 0.0
C1065 C 0.72479 0.67575 0.17039 0.0
C1066 C 0.75483 0.66483 0.18114 0.0
C1067 C 0.78931 0.64517 0.22448 0.0
C1068 C 0.79408 0.63589 0.25701 0.0
C1069 C 0.75857 0.65357 0.213 0.0
C1070 C 0.76701 0.63331 0.27757 0.0
C1071 C 0.73592 0.64113 0.26607 0.0
H1072 H 0.26789 0.83676 0.20556 0.0
H1073 H 0.36504 0.81093 0.17699 0.0
H1074 H 0.34397 0.77788 0.13258 0.0
H1075 H 0.2987 0.74936 0.10845 0.0
H1076 H 0.202 0.76553 0.14415 0.0
H1077 H 0.22133 0.81079 0.1774 0.0
C1078 C 0.28426 0.82412 0.18926 0.0
C1079 C 0.31789 0.8258 0.1945 0.0
C1080 C 0.27185 0.80391 0.16468 0.0
C1081 C 0.33907 0.80945 0.17351 0.0
C1082 C 0.32704 0.79081 0.14804 0.0
C1083 C 0.28164 0.76385 0.1224 0.0
C1084 C 0.24907 0.75403 0.12404 0.0
C1085 C 0.29353 0.78704 0.1441 0.0
C1086 C 0.22712 0.7728 0.14216 0.0
C1087 C 0.2384 0.79808 0.16193 0.0
H1088 H 0.70159 0.32481 0.17882 0.0
H1089 H 0.7799 0.26918 0.13693 0.0
H1090 H 0.75265 0.21883 0.15171 0.0
H1091 H 0.70847 0.1906 0.1801 0.0
H1092 H 0.63096 0.24656 0.22297 0.0
H1093 H 0.65572 0.29663 0.20373 0.0
C1094 C 0.71267 0.30169 0.17282 0.0
C1095 C 0.7429 0.30082 0.15713 0.0
C1096 C 0.69693 0.2728 0.18144 0.0
C1097 C 0.75672 0.2706 0.1492 0.0
C1098 C 0.74114 0.24175 0.15761 0.0
C1099 C 0.69668 0.21371 0.18464 0.0
C1100 C 0.66801 0.21485 0.20305 0.0
C1101 C 0.71145 0.24255 0.17414 0.0
C1102 C 0.65315 0.24501 0.20897 0.0
C1103 C 0.66735 0.2737 0.19811 0.0
loop_
_geom_bond_atom_site_label_1
_geom_bond_atom_site_label_2
_geom_bond_distance
_geom_bond_site_symmetry_2
_ccdc_geom_bond_type
C0 O2 1.247 . S
C0 O4 1.258 . S
C1 O8 1.247 . S
C1 O9 1.258 . S
O2 C0 1.247 . S
O2 Zn3 2.028 . S
Zn3 O2 2.028 . S
Zn3 O7 2.035 . S
Zn3 O9 2.035 . S
Zn3 O10 2.028 . S
O4 C0 1.258 . S
O4 Zn5 2.035 . S
Zn5 O4 2.035 . S
Zn5 O6 2.028 . S
Zn5 O8 2.028 . S
Zn5 O11 2.035 . S
O6 Zn5 2.028 . S
O6 C12 1.247 . S
O7 Zn3 2.035 . S
O7 C12 1.258 . S
O8 C1 1.247 . S
O8 Zn5 2.028 . S
O9 C1 1.258 . S
O9 Zn3 2.035 . S
O10 Zn3 2.028 . S
O10 C13 1.247 . S
O11 Zn5 2.035 . S
O11 C13 1.258 . S
C12 O6 1.247 . S
C12 O7 1.258 . S
C13 O10 1.247 . S
C13 O11 1.258 . S
C14 O16 1.247 . S
C14 O18 1.258 . S
C15 O22 1.247 . S
C15 O23 1.258 . S
O16 C14 1.247 . S
O16 Zn17 2.028 . S
Zn17 O16 2.028 . S
Zn17 O21 2.035 . S
Zn17 O23 2.035 . S
Zn17 O24 2.028 . S
O18 C14 1.258 . S
O18 Zn19 2.035 . S
Zn19 O18 2.035 . S
Zn19 O20 2.028 . S
Zn19 O22 2.028 . S
Zn19 O25 2.035 . S
O20 Zn19 2.028 . S
O20 C26 1.247 . S
O21 Zn17 2.035 . S
O21 C26 1.258 . S
O22 C15 1.247 . S
O22 Zn19 2.028 . S
O23 C15 1.258 . S
O23 Zn17 2.035 . S
O24 Zn17 2.028 . S
O24 C27 1.247 . S
O25 Zn19 2.035 . S
O25 C27 1.258 . S
C26 O20 1.247 . S
C26 O21 1.258 . S
C27 O24 1.247 . S
C27 O25 1.258 . S
C28 O30 1.247 . S
C28 O32 1.258 . S
C29 O36 1.247 . S
C29 O37 1.258 . S
O30 C28 1.247 . S
O30 Zn31 2.028 . S
Zn31 O30 2.028 . S
Zn31 O35 2.035 . S
Zn31 O37 2.035 . S
Zn31 O38 2.028 . S
O32 C28 1.258 . S
O32 Zn33 2.035 . S
Zn33 O32 2.035 . S
Zn33 O34 2.028 . S
Zn33 O36 2.028 . S
Zn33 O39 2.035 . S
O34 Zn33 2.028 . S
O34 C40 1.247 . S
O35 Zn31 2.035 . S
O35 C40 1.258 . S
O36 C29 1.247 . S
O36 Zn33 2.028 . S
O37 C29 1.258 . S
O37 Zn31 2.035 . S
O38 Zn31 2.028 . S
O38 C41 1.247 . S
O39 Zn33 2.035 . S
O39 C41 1.258 . S
C40 O34 1.247 . S
C40 O35 1.258 . S
C41 O38 1.247 . S
C41 O39 1.258 . S
C42 O44 1.247 . S
C42 O46 1.258 . S
C43 O50 1.247 . S
C43 O51 1.258 . S
O44 C42 1.247 . S
O44 Zn45 2.028 . S
Zn45 O44 2.028 . S
Zn45 O49 2.035 . S
Zn45 O51 2.035 . S
Zn45 O52 2.028 . S
O46 C42 1.258 . S
O46 Zn47 2.035 . S
Zn47 O46 2.035 . S
Zn47 O48 2.028 . S
Zn47 O50 2.028 . S
Zn47 O53 2.035 . S
O48 Zn47 2.028 . S
O48 C54 1.247 . S
O49 Zn45 2.035 . S
O49 C54 1.258 . S
O50 C43 1.247 . S
O50 Zn47 2.028 . S
O51 C43 1.258 . S
O51 Zn45 2.035 . S
O52 Zn45 2.028 . S
O52 C55 1.247 . S
O53 Zn47 2.035 . S
O53 C55 1.258 . S
C54 O48 1.247 . S
C54 O49 1.258 . S
C55 O52 1.247 . S
C55 O53 1.258 . S
C56 O58 1.247 . S
C56 O60 1.258 . S
C57 O64 1.247 . S
C57 O65 1.258 . S
O58 C56 1.247 . S
O58 Zn59 2.028 . S
Zn59 O58 2.028 . S
Zn59 O63 2.035 . S
Zn59 O65 2.035 . S
Zn59 O66 2.028 . S
O60 C56 1.258 . S
O60 Zn61 2.035 . S
Zn61 O60 2.035 . S
Zn61 O62 2.028 . S
Zn61 O64 2.028 . S
Zn61 O67 2.035 . S
O62 Zn61 2.028 . S
O62 C68 1.247 . S
O63 Zn59 2.035 . S
O63 C68 1.258 . S
O64 C57 1.247 . S
O64 Zn61 2.028 . S
O65 C57 1.258 . S
O65 Zn59 2.035 . S
O66 Zn59 2.028 . S
O66 C69 1.247 . S
O67 Zn61 2.035 . S
O67 C69 1.258 . S
C68 O62 1.247 . S
C68 O63 1.258 . S
C69 O66 1.247 . S
C69 O67 1.258 . S
C70 O72 1.247 . S
C70 O74 1.258 . S
C71 O78 1.247 . S
C71 O79 1.258 . S
O72 C70 1.247 . S
O72 Zn73 2.028 . S
Zn73 O72 2.028 . S
Zn73 O77 2.035 . S
Zn73 O79 2.035 . S
Zn73 O80 2.028 . S
O74 C70 1.258 . S
O74 Zn75 2.035 . S
Zn75 O74 2.035 . S
Zn75 O76 2.028 . S
Zn75 O78 2.028 . S
Zn75 O81 2.035 . S
O76 Zn75 2.028 . S
O76 C82 1.247 . S
O77 Zn73 2.035 . S
O77 C82 1.258 . S
O78 C71 1.247 . S
O78 Zn75 2.028 . S
O79 C71 1.258 . S
O79 Zn73 2.035 . S
O80 Zn73 2.028 . S
O80 C83 1.247 . S
O81 Zn75 2.035 . S
O81 C83 1.258 . S
C82 O76 1.247 . S
C82 O77 1.258 . S
C83 O80 1.247 . S
C83 O81 1.258 . S
C84 O86 1.247 . S
C84 O88 1.258 . S
C85 O92 1.247 . S
C85 O93 1.258 . S
O86 C84 1.247 . S
O86 Zn87 2.028 . S
Zn87 O86 2.028 . S
Zn87 O91 2.035 . S
Zn87 O93 2.035 . S
Zn87 O94 2.028 . S
O88 C84 1.258 . S
O88 Zn89 2.035 . S
Zn89 O88 2.035 . S
Zn89 O90 2.028 . S
Zn89 O92 2.028 . S
Zn89 O95 2.035 . S
O90 Zn89 2.028 . S
O90 C96 1.247 . S
O91 Zn87 2.035 . S
O91 C96 1.258 . S
O92 C85 1.247 . S
O92 Zn89 2.028 . S
O93 C85 1.258 . S
O93 Zn87 2.035 . S
O94 Zn87 2.028 . S
O94 C97 1.247 . S
O95 Zn89 2.035 . S
O95 C97 1.258 . S
C96 O90 1.247 . S
C96 O91 1.258 . S
C97 O94 1.247 . S
C97 O95 1.258 . S
C98 O100 1.247 . S
C98 O102 1.258 . S
C99 O106 1.247 . S
C99 O107 1.258 . S
O100 C98 1.247 . S
O100 Zn101 2.028 . S
Zn101 O100 2.028 . S
Zn101 O105 2.035 . S
Zn101 O107 2.035 . S
Zn101 O108 2.028 . S
O102 C98 1.258 . S
O102 Zn103 2.035 . S
Zn103 O102 2.035 . S
Zn103 O104 2.028 . S
Zn103 O106 2.028 . S
Zn103 O109 2.035 . S
O104 Zn103 2.028 . S
O104 C110 1.247 . S
O105 Zn101 2.035 . S
O105 C110 1.258 . S
O106 C99 1.247 . S
O106 Zn103 2.028 . S
O107 C99 1.258 . S
O107 Zn101 2.035 . S
O108 Zn101 2.028 . S
O108 C111 1.247 . S
O109 Zn103 2.035 . S
O109 C111 1.258 . S
C110 O104 1.247 . S
C110 O105 1.258 . S
C111 O108 1.247 . S
C111 O109 1.258 . S
C112 O114 1.247 . S
C112 O116 1.258 . S
C113 O120 1.247 . S
C113 O121 1.258 . S
O114 C112 1.247 . S
O114 Zn115 2.028 . S
Zn115 O114 2.028 . S
Zn115 O119 2.035 . S
Zn115 O121 2.035 . S
Zn115 O122 2.028 . S
O116 C112 1.258 . S
O116 Zn117 2.035 . S
Zn117 O116 2.035 . S
Zn117 O118 2.028 . S
Zn117 O120 2.028 . S
Zn117 O123 2.035 . S
O118 Zn117 2.028 . S
O118 C124 1.247 . S
O119 Zn115 2.035 . S
O119 C124 1.258 . S
O120 C113 1.247 . S
O120 Zn117 2.028 . S
O121 C113 1.258 . S
O121 Zn115 2.035 . S
O122 Zn115 2.028 . S
O122 C125 1.247 . S
O123 Zn117 2.035 . S
O123 C125 1.258 . S
C124 O118 1.247 . S
C124 O119 1.258 . S
C125 O122 1.247 . S
C125 O123 1.258 . S
C126 O128 1.247 . S
C126 O130 1.258 . S
C127 O134 1.247 . S
C127 O135 1.258 . S
O128 C126 1.247 . S
O128 Zn129 2.028 . S
Zn129 O128 2.028 . S
Zn129 O133 2.035 . S
Zn129 O135 2.035 . S
Zn129 O136 2.028 . S
O130 C126 1.258 . S
O130 Zn131 2.035 . S
Zn131 O130 2.035 . S
Zn131 O132 2.028 . S
Zn131 O134 2.028 . S
Zn131 O137 2.035 . S
O132 Zn131 2.028 . S
O132 C138 1.247 . S
O133 Zn129 2.035 . S
O133 C138 1.258 . S
O134 C127 1.247 . S
O134 Zn131 2.028 . S
O135 C127 1.258 . S
O135 Zn129 2.035 . S
O136 Zn129 2.028 . S
O136 C139 1.247 . S
O137 Zn131 2.035 . S
O137 C139 1.258 . S
C138 O132 1.247 . S
C138 O133 1.258 . S
C139 O136 1.247 . S
C139 O137 1.258 . S
C140 O142 1.247 . S
C140 O144 1.258 . S
C141 O148 1.247 . S
C141 O149 1.258 . S
O142 C140 1.247 . S
O142 Zn143 2.028 . S
Zn143 O142 2.028 . S
Zn143 O147 2.035 . S
Zn143 O149 2.035 . S
Zn143 O150 2.028 . S
O144 C140 1.258 . S
O144 Zn145 2.035 . S
Zn145 O144 2.035 . S
Zn145 O146 2.028 . S
Zn145 O148 2.028 . S
Zn145 O151 2.035 . S
O146 Zn145 2.028 . S
O146 C152 1.247 . S
O147 Zn143 2.035 . S
O147 C152 1.258 . S
O148 C141 1.247 . S
O148 Zn145 2.028 . S
O149 C141 1.258 . S
O149 Zn143 2.035 . S
O150 Zn143 2.028 . S
O150 C153 1.247 . S
O151 Zn145 2.035 . S
O151 C153 1.258 . S
C152 O146 1.247 . S
C152 O147 1.258 . S
C153 O150 1.247 . S
C153 O151 1.258 . S
C154 O156 1.247 . S
C154 O158 1.258 . S
C155 O162 1.247 . S
C155 O163 1.258 . S
O156 C154 1.247 . S
O156 Zn157 2.028 . S
Zn157 O156 2.028 . S
Zn157 O161 2.035 . S
Zn157 O163 2.035 . S
Zn157 O164 2.028 . S
O158 C154 1.258 . S
O158 Zn159 2.035 . S
Zn159 O158 2.035 . S
Zn159 O160 2.028 . S
Zn159 O162 2.028 . S
Zn159 O165 2.035 . S
O160 Zn159 2.028 . S
O160 C166 1.247 . S
O161 Zn157 2.035 . S
O161 C166 1.258 . S
O162 C155 1.247 . S
O162 Zn159 2.028 . S
O163 C155 1.258 . S
O163 Zn157 2.035 . S
O164 Zn157 2.028 . S
O164 C167 1.247 . S
O165 Zn159 2.035 . S
O165 C167 1.258 . S
C166 O160 1.247 . S
C166 O161 1.258 . S
C167 O164 1.247 . S
C167 O165 1.258 . S
C168 O170 1.247 . S
C168 O172 1.258 . S
C169 O176 1.247 . S
C169 O177 1.258 . S
O170 C168 1.247 . S
O170 Zn171 2.028 . S
Zn171 O170 2.028 . S
Zn171 O175 2.035 . S
Zn171 O177 2.035 . S
Zn171 O178 2.028 . S
O172 C168 1.258 . S
O172 Zn173 2.035 . S
Zn173 O172 2.035 . S
Zn173 O174 2.028 . S
Zn173 O176 2.028 . S
Zn173 O179 2.035 . S
O174 Zn173 2.028 . S
O174 C180 1.247 . S
O175 Zn171 2.035 . S
O175 C180 1.258 . S
O176 C169 1.247 . S
O176 Zn173 2.028 . S
O177 C169 1.258 . S
O177 Zn171 2.035 . S
O178 Zn171 2.028 . S
O178 C181 1.247 . S
O179 Zn173 2.035 . S
O179 C181 1.258 . S
C180 O174 1.247 . S
C180 O175 1.258 . S
C181 O178 1.247 . S
C181 O179 1.258 . S
C182 O184 1.247 . S
C182 O186 1.258 . S
C183 O190 1.247 . S
C183 O191 1.258 . S
O184 C182 1.247 . S
O184 Zn185 2.028 . S
Zn185 O184 2.028 . S
Zn185 O189 2.035 . S
Zn185 O191 2.035 . S
Zn185 O192 2.028 . S
O186 C182 1.258 . S
O186 Zn187 2.035 . S
Zn187 O186 2.035 . S
Zn187 O188 2.028 . S
Zn187 O190 2.028 . S
Zn187 O193 2.035 . S
O188 Zn187 2.028 . S
O188 C194 1.247 . S
O189 Zn185 2.035 . S
O189 C194 1.258 . S
O190 C183 1.247 . S
O190 Zn187 2.028 . S
O191 C183 1.258 . S
O191 Zn185 2.035 . S
O192 Zn185 2.028 . S
O192 C195 1.247 . S
O193 Zn187 2.035 . S
O193 C195 1.258 . S
C194 O188 1.247 . S
C194 O189 1.258 . S
C195 O192 1.247 . S
C195 O193 1.258 . S
C196 O198 1.247 . S
C196 O200 1.258 . S
C197 O204 1.247 . S
C197 O205 1.258 . S
O198 C196 1.247 . S
O198 Zn199 2.028 . S
Zn199 O198 2.028 . S
Zn199 O203 2.035 . S
Zn199 O205 2.035 . S
Zn199 O206 2.028 . S
O200 C196 1.258 . S
O200 Zn201 2.035 . S
Zn201 O200 2.035 . S
Zn201 O202 2.028 . S
Zn201 O204 2.028 . S
Zn201 O207 2.035 . S
O202 Zn201 2.028 . S
O202 C208 1.247 . S
O203 Zn199 2.035 . S
O203 C208 1.258 . S
O204 C197 1.247 . S
O204 Zn201 2.028 . S
O205 C197 1.258 . S
O205 Zn199 2.035 . S
O206 Zn199 2.028 . S
O206 C209 1.247 . S
O207 Zn201 2.035 . S
O207 C209 1.258 . S
C208 O202 1.247 . S
C208 O203 1.258 . S
C209 O206 1.247 . S
C209 O207 1.258 . S
C210 O212 1.247 . S
C210 O214 1.258 . S
C211 O218 1.247 . S
C211 O219 1.258 . S
O212 C210 1.247 . S
O212 Zn213 2.028 . S
Zn213 O212 2.028 . S
Zn213 O217 2.035 . S
Zn213 O219 2.035 . S
Zn213 O220 2.028 . S
O214 C210 1.258 . S
O214 Zn215 2.035 . S
Zn215 O214 2.035 . S
Zn215 O216 2.028 . S
Zn215 O218 2.028 . S
Zn215 O221 2.035 . S
O216 Zn215 2.028 . S
O216 C222 1.247 . S
O217 Zn213 2.035 . S
O217 C222 1.258 . S
O218 C211 1.247 . S
O218 Zn215 2.028 . S
O219 C211 1.258 . S
O219 Zn213 2.035 . S
O220 Zn213 2.028 . S
O220 C223 1.247 . S
O221 Zn215 2.035 . S
O221 C223 1.258 . S
C222 O216 1.247 . S
C222 O217 1.258 . S
C223 O220 1.247 . S
C223 O221 1.258 . S
C224 O226 1.247 . S
C224 O228 1.258 . S
C225 O232 1.247 . S
C225 O233 1.258 . S
O226 C224 1.247 . S
O226 Zn227 2.028 . S
Zn227 O226 2.028 . S
Zn227 O231 2.035 . S
Zn227 O233 2.035 . S
Zn227 O234 2.028 . S
O228 C224 1.258 . S
O228 Zn229 2.035 . S
Zn229 O228 2.035 . S
Zn229 O230 2.028 . S
Zn229 O232 2.028 . S
Zn229 O235 2.035 . S
O230 Zn229 2.028 . S
O230 C236 1.247 . S
O231 Zn227 2.035 . S
O231 C236 1.258 . S
O232 C225 1.247 . S
O232 Zn229 2.028 . S
O233 C225 1.258 . S
O233 Zn227 2.035 . S
O234 Zn227 2.028 . S
O234 C237 1.247 . S
O235 Zn229 2.035 . S
O235 C237 1.258 . S
C236 O230 1.247 . S
C236 O231 1.258 . S
C237 O234 1.247 . S
C237 O235 1.258 . S
C238 O240 1.247 . S
C238 O242 1.258 . S
C239 O246 1.247 . S
C239 O247 1.258 . S
O240 C238 1.247 . S
O240 Zn241 2.028 . S
Zn241 O240 2.028 . S
Zn241 O245 2.035 . S
Zn241 O247 2.035 . S
Zn241 O248 2.028 . S
O242 C238 1.258 . S
O242 Zn243 2.035 . S
Zn243 O242 2.035 . S
Zn243 O244 2.028 . S
Zn243 O246 2.028 . S
Zn243 O249 2.035 . S
O244 Zn243 2.028 . S
O244 C250 1.247 . S
O245 Zn241 2.035 . S
O245 C250 1.258 . S
O246 C239 1.247 . S
O246 Zn243 2.028 . S
O247 C239 1.258 . S
O247 Zn241 2.035 . S
O248 Zn241 2.028 . S
O248 C251 1.247 . S
O249 Zn243 2.035 . S
O249 C251 1.258 . S
C250 O244 1.247 . S
C250 O245 1.258 . S
C251 O248 1.247 . S
C251 O249 1.258 . S
C252 O254 1.247 . S
C252 O256 1.258 . S
C253 O260 1.247 . S
C253 O261 1.258 . S
O254 C252 1.247 . S
O254 Zn255 2.028 . S
Zn255 O254 2.028 . S
Zn255 O259 2.035 . S
Zn255 O261 2.035 . S
Zn255 O262 2.028 . S
O256 C252 1.258 . S
O256 Zn257 2.035 . S
Zn257 O256 2.035 . S
Zn257 O258 2.028 . S
Zn257 O260 2.028 . S
Zn257 O263 2.035 . S
O258 Zn257 2.028 . S
O258 C264 1.247 . S
O259 Zn255 2.035 . S
O259 C264 1.258 . S
O260 C253 1.247 . S
O260 Zn257 2.028 . S
O261 C253 1.258 . S
O261 Zn255 2.035 . S
O262 Zn255 2.028 . S
O262 C265 1.247 . S
O263 Zn257 2.035 . S
O263 C265 1.258 . S
C264 O258 1.247 . S
C264 O259 1.258 . S
C265 O262 1.247 . S
C265 O263 1.258 . S
C266 O268 1.247 . S
C266 O270 1.258 . S
C267 O274 1.247 . S
C267 O275 1.258 . S
O268 C266 1.247 . S
O268 Zn269 2.028 . S
Zn269 O268 2.028 . S
Zn269 O273 2.035 . S
Zn269 O275 2.035 . S
Zn269 O276 2.028 . S
O270 C266 1.258 . S
O270 Zn271 2.035 . S
Zn271 O270 2.035 . S
Zn271 O272 2.028 . S
Zn271 O274 2.028 . S
Zn271 O277 2.035 . S
O272 Zn271 2.028 . S
O272 C278 1.247 . S
O273 Zn269 2.035 . S
O273 C278 1.258 . S
O274 C267 1.247 . S
O274 Zn271 2.028 . S
O275 C267 1.258 . S
O275 Zn269 2.035 . S
O276 Zn269 2.028 . S
O276 C279 1.247 . S
O277 Zn271 2.035 . S
O277 C279 1.258 . S
C278 O272 1.247 . S
C278 O273 1.258 . S
C279 O276 1.247 . S
C279 O277 1.258 . S
C280 O282 1.247 . S
C280 O284 1.258 . S
C281 O288 1.247 . S
C281 O289 1.258 . S
O282 C280 1.247 . S
O282 Zn283 2.028 . S
Zn283 O282 2.028 . S
Zn283 O287 2.035 . S
Zn283 O289 2.035 . S
Zn283 O290 2.028 . S
O284 C280 1.258 . S
O284 Zn285 2.035 . S
Zn285 O284 2.035 . S
Zn285 O286 2.028 . S
Zn285 O288 2.028 . S
Zn285 O291 2.035 . S
O286 Zn285 2.028 . S
O286 C292 1.247 . S
O287 Zn283 2.035 . S
O287 C292 1.258 . S
O288 C281 1.247 . S
O288 Zn285 2.028 . S
O289 C281 1.258 . S
O289 Zn283 2.035 . S
O290 Zn283 2.028 . S
O290 C293 1.247 . S
O291 Zn285 2.035 . S
O291 C293 1.258 . S
C292 O286 1.247 . S
C292 O287 1.258 . S
C293 O290 1.247 . S
C293 O291 1.258 . S
C294 O296 1.247 . S
C294 O298 1.258 . S
C295 O302 1.247 . S
C295 O303 1.258 . S
O296 C294 1.247 . S
O296 Zn297 2.028 . S
Zn297 O296 2.028 . S
Zn297 O301 2.035 . S
Zn297 O303 2.035 . S
Zn297 O304 2.028 . S
O298 C294 1.258 . S
O298 Zn299 2.035 . S
Zn299 O298 2.035 . S
Zn299 O300 2.028 . S
Zn299 O302 2.028 . S
Zn299 O305 2.035 . S
O300 Zn299 2.028 . S
O300 C306 1.247 . S
O301 Zn297 2.035 . S
O301 C306 1.258 . S
O302 C295 1.247 . S
O302 Zn299 2.028 . S
O303 C295 1.258 . S
O303 Zn297 2.035 . S
O304 Zn297 2.028 . S
O304 C307 1.247 . S
O305 Zn299 2.035 . S
O305 C307 1.258 . S
C306 O300 1.247 . S
C306 O301 1.258 . S
C307 O304 1.247 . S
C307 O305 1.258 . S
C308 O310 1.247 . S
C308 O312 1.258 . S
C309 O316 1.247 . S
C309 O317 1.258 . S
O310 C308 1.247 . S
O310 Zn311 2.028 . S
Zn311 O310 2.028 . S
Zn311 O315 2.035 . S
Zn311 O317 2.035 . S
Zn311 O318 2.028 . S
O312 C308 1.258 . S
O312 Zn313 2.035 . S
Zn313 O312 2.035 . S
Zn313 O314 2.028 . S
Zn313 O316 2.028 . S
Zn313 O319 2.035 . S
O314 Zn313 2.028 . S
O314 C320 1.247 . S
O315 Zn311 2.035 . S
O315 C320 1.258 . S
O316 C309 1.247 . S
O316 Zn313 2.028 . S
O317 C309 1.258 . S
O317 Zn311 2.035 . S
O318 Zn311 2.028 . S
O318 C321 1.247 . S
O319 Zn313 2.035 . S
O319 C321 1.258 . S
C320 O314 1.247 . S
C320 O315 1.258 . S
C321 O318 1.247 . S
C321 O319 1.258 . S
C322 O324 1.247 . S
C322 O326 1.258 . S
C323 O330 1.247 . S
C323 O331 1.258 . S
O324 C322 1.247 . S
O324 Zn325 2.028 . S
Zn325 O324 2.028 . S
Zn325 O329 2.035 . S
Zn325 O331 2.035 . S
Zn325 O332 2.028 . S
O326 C322 1.258 . S
O326 Zn327 2.035 . S
Zn327 O326 2.035 . S
Zn327 O328 2.028 . S
Zn327 O330 2.028 . S
Zn327 O333 2.035 . S
O328 Zn327 2.028 . S
O328 C334 1.247 . S
O329 Zn325 2.035 . S
O329 C334 1.258 . S
O330 C323 1.247 . S
O330 Zn327 2.028 . S
O331 C323 1.258 . S
O331 Zn325 2.035 . S
O332 Zn325 2.028 . S
O332 C335 1.247 . S
O333 Zn327 2.035 . S
O333 C335 1.258 . S
C334 O328 1.247 . S
C334 O329 1.258 . S
C335 O332 1.247 . S
C335 O333 1.258 . S
H336 C342 0.930 . S
H337 C345 0.930 . S
H338 C346 0.930 . S
H339 C347 0.930 . S
H340 C350 0.930 . S
H341 C351 0.930 . S
C342 H336 0.930 . S
C342 C343 1.355 . S
C342 C344 1.415 . S
C343 C342 1.355 . S
C343 C345 1.419 . S
C344 C342 1.415 . S
C344 C349 1.425 . S
C344 C351 1.409 . S
C345 H337 0.930 . S
C345 C343 1.419 . S
C345 C346 1.362 . S
C346 H338 0.930 . S
C346 C345 1.362 . S
C346 C349 1.409 . S
C347 H339 0.930 . S
C347 C348 1.355 . S
C347 C349 1.415 . S
C348 C347 1.355 . S
C348 C350 1.419 . S
C349 C344 1.425 . S
C349 C346 1.409 . S
C349 C347 1.415 . S
C350 H340 0.930 . S
C350 C348 1.419 . S
C350 C351 1.362 . S
C351 H341 0.930 . S
C351 C344 1.409 . S
C351 C350 1.362 . S
H352 C358 0.930 . S
H353 C361 0.930 . S
H354 C362 0.930 . S
H355 C363 0.930 . S
H356 C366 0.930 . S
H357 C367 0.930 . S
C358 H352 0.930 . S
C358 C359 1.355 . S
C358 C360 1.415 . S
C359 C358 1.355 . S
C359 C361 1.419 . S
C360 C358 1.415 . S
C360 C365 1.425 . S
C360 C367 1.409 . S
C361 H353 0.930 . S
C361 C359 1.419 . S
C361 C362 1.362 . S
C362 H354 0.930 . S
C362 C361 1.362 . S
C362 C365 1.409 . S
C363 H355 0.930 . S
C363 C364 1.355 . S
C363 C365 1.415 . S
C364 C363 1.355 . S
C364 C366 1.419 . S
C365 C360 1.425 . S
C365 C362 1.409 . S
C365 C363 1.415 . S
C366 H356 0.930 . S
C366 C364 1.419 . S
C366 C367 1.362 . S
C367 H357 0.930 . S
C367 C360 1.409 . S
C367 C366 1.362 . S
H368 C374 0.930 . S
H369 C377 0.930 . S
H370 C378 0.930 . S
H371 C379 0.930 . S
H372 C382 0.930 . S
H373 C383 0.930 . S
C374 H368 0.930 . S
C374 C375 1.355 . S
C374 C376 1.415 . S
C375 C374 1.355 . S
C375 C377 1.419 . S
C376 C374 1.415 . S
C376 C381 1.425 . S
C376 C383 1.409 . S
C377 H369 0.930 . S
C377 C375 1.419 . S
C377 C378 1.362 . S
C378 H370 0.930 . S
C378 C377 1.362 . S
C378 C381 1.409 . S
C379 H371 0.930 . S
C379 C380 1.355 . S
C379 C381 1.415 . S
C380 C379 1.355 . S
C380 C382 1.419 . S
C381 C376 1.425 . S
C381 C378 1.409 . S
C381 C379 1.415 . S
C382 H372 0.930 . S
C382 C380 1.419 . S
C382 C383 1.362 . S
C383 H373 0.930 . S
C383 C376 1.409 . S
C383 C382 1.362 . S
H384 C390 0.930 . S
H385 C393 0.930 . S
H386 C394 0.930 . S
H387 C395 0.930 . S
H388 C398 0.930 . S
H389 C399 0.930 . S
C390 H384 0.930 . S
C390 C391 1.355 . S
C390 C392 1.415 . S
C391 C390 1.355 . S
C391 C393 1.419 . S
C392 C390 1.415 . S
C392 C397 1.425 . S
C392 C399 1.409 . S
C393 H385 0.930 . S
C393 C391 1.419 . S
C393 C394 1.362 . S
C394 H386 0.930 . S
C394 C393 1.362 . S
C394 C397 1.409 . S
C395 H387 0.930 . S
C395 C396 1.355 . S
C395 C397 1.415 . S
C396 C395 1.355 . S
C396 C398 1.419 . S
C397 C392 1.425 . S
C397 C394 1.409 . S
C397 C395 1.415 . S
C398 H388 0.930 . S
C398 C396 1.419 . S
C398 C399 1.362 . S
C399 H389 0.930 . S
C399 C392 1.409 . S
C399 C398 1.362 . S
H400 C406 0.930 . S
H401 C409 0.930 . S
H402 C410 0.930 . S
H403 C411 0.930 . S
H404 C414 0.930 . S
H405 C415 0.930 . S
C406 H400 0.930 . S
C406 C407 1.355 . S
C406 C408 1.415 . S
C407 C406 1.355 . S
C407 C409 1.419 . S
C408 C406 1.415 . S
C408 C413 1.425 . S
C408 C415 1.409 . S
C409 H401 0.930 . S
C409 C407 1.419 . S
C409 C410 1.362 . S
C410 H402 0.930 . S
C410 C409 1.362 . S
C410 C413 1.409 . S
C411 H403 0.930 . S
C411 C412 1.355 . S
C411 C413 1.415 . S
C412 C411 1.355 . S
C412 C414 1.419 . S
C413 C408 1.425 . S
C413 C410 1.409 . S
C413 C411 1.415 . S
C414 H404 0.930 . S
C414 C412 1.419 . S
C414 C415 1.362 . S
C415 H405 0.930 . S
C415 C408 1.409 . S
C415 C414 1.362 . S
H416 C422 0.930 . S
H417 C425 0.930 . S
H418 C426 0.930 . S
H419 C427 0.930 . S
H420 C430 0.930 . S
H421 C431 0.930 . S
C422 H416 0.930 . S
C422 C423 1.355 . S
C422 C424 1.415 . S
C423 C422 1.355 . S
C423 C425 1.419 . S
C424 C422 1.415 . S
C424 C429 1.425 . S
C424 C431 1.409 . S
C425 H417 0.930 . S
C425 C423 1.419 . S
C425 C426 1.362 . S
C426 H418 0.930 . S
C426 C425 1.362 . S
C426 C429 1.409 . S
C427 H419 0.930 . S
C427 C428 1.355 . S
C427 C429 1.415 . S
C428 C427 1.355 . S
C428 C430 1.419 . S
C429 C424 1.425 . S
C429 C426 1.409 . S
C429 C427 1.415 . S
C430 H420 0.930 . S
C430 C428 1.419 . S
C430 C431 1.362 . S
C431 H421 0.930 . S
C431 C424 1.409 . S
C431 C430 1.362 . S
H432 C438 0.930 . S
H433 C441 0.930 . S
H434 C442 0.930 . S
H435 C443 0.930 . S
H436 C446 0.930 . S
H437 C447 0.930 . S
C438 H432 0.930 . S
C438 C439 1.355 . S
C438 C440 1.415 . S
C439 C438 1.355 . S
C439 C441 1.419 . S
C440 C438 1.415 . S
C440 C445 1.425 . S
C440 C447 1.409 . S
C441 H433 0.930 . S
C441 C439 1.419 . S
C441 C442 1.362 . S
C442 H434 0.930 . S
C442 C441 1.362 . S
C442 C445 1.409 . S
C443 H435 0.930 . S
C443 C444 1.355 . S
C443 C445 1.415 . S
C444 C443 1.355 . S
C444 C446 1.419 . S
C445 C440 1.425 . S
C445 C442 1.409 . S
C445 C443 1.415 . S
C446 H436 0.930 . S
C446 C444 1.419 . S
C446 C447 1.362 . S
C447 H437 0.930 . S
C447 C440 1.409 . S
C447 C446 1.362 . S
H448 C454 0.930 . S
H449 C457 0.930 . S
H450 C458 0.930 . S
H451 C459 0.930 . S
H452 C462 0.930 . S
H453 C463 0.930 . S
C454 H448 0.930 . S
C454 C455 1.355 . S
C454 C456 1.415 . S
C455 C454 1.355 . S
C455 C457 1.419 . S
C456 C454 1.415 . S
C456 C461 1.425 . S
C456 C463 1.409 . S
C457 H449 0.930 . S
C457 C455 1.419 . S
C457 C458 1.362 . S
C458 H450 0.930 . S
C458 C457 1.362 . S
C458 C461 1.409 . S
C459 H451 0.930 . S
C459 C460 1.355 . S
C459 C461 1.415 . S
C460 C459 1.355 . S
C460 C462 1.419 . S
C461 C456 1.425 . S
C461 C458 1.409 . S
C461 C459 1.415 . S
C462 H452 0.930 . S
C462 C460 1.419 . S
C462 C463 1.362 . S
C463 H453 0.930 . S
C463 C456 1.409 . S
C463 C462 1.362 . S
H464 C470 0.930 . S
H465 C473 0.930 . S
H466 C474 0.930 . S
H467 C475 0.930 . S
H468 C478 0.930 . S
H469 C479 0.930 . S
C470 H464 0.930 . S
C470 C471 1.355 . S
C470 C472 1.415 . S
C471 C470 1.355 . S
C471 C473 1.419 . S
C472 C470 1.415 . S
C472 C477 1.425 . S
C472 C479 1.409 . S
C473 H465 0.930 . S
C473 C471 1.419 . S
C473 C474 1.362 . S
C474 H466 0.930 . S
C474 C473 1.362 . S
C474 C477 1.409 . S
C475 H467 0.930 . S
C475 C476 1.355 . S
C475 C477 1.415 . S
C476 C475 1.355 . S
C476 C478 1.419 . S
C477 C472 1.425 . S
C477 C474 1.409 . S
C477 C475 1.415 . S
C478 H468 0.930 . S
C478 C476 1.419 . S
C478 C479 1.362 . S
C479 H469 0.930 . S
C479 C472 1.409 . S
C479 C478 1.362 . S
H480 C486 0.930 . S
H481 C489 0.930 . S
H482 C490 0.930 . S
H483 C491 0.930 . S
H484 C494 0.930 . S
H485 C495 0.930 . S
C486 H480 0.930 . S
C486 C487 1.355 . S
C486 C488 1.415 . S
C487 C486 1.355 . S
C487 C489 1.419 . S
C488 C486 1.415 . S
C488 C493 1.425 . S
C488 C495 1.409 . S
C489 H481 0.930 . S
C489 C487 1.419 . S
C489 C490 1.362 . S
C490 H482 0.930 . S
C490 C489 1.362 . S
C490 C493 1.409 . S
C491 H483 0.930 . S
C491 C492 1.355 . S
C491 C493 1.415 . S
C492 C491 1.355 . S
C492 C494 1.419 . S
C493 C488 1.425 . S
C493 C490 1.409 . S
C493 C491 1.415 . S
C494 H484 0.930 . S
C494 C492 1.419 . S
C494 C495 1.362 . S
C495 H485 0.930 . S
C495 C488 1.409 . S
C495 C494 1.362 . S
H496 C502 0.930 . S
H497 C505 0.930 . S
H498 C506 0.930 . S
H499 C507 0.930 . S
H500 C510 0.930 . S
H501 C511 0.930 . S
C502 H496 0.930 . S
C502 C503 1.355 . S
C502 C504 1.415 . S
C503 C502 1.355 . S
C503 C505 1.419 . S
C504 C502 1.415 . S
C504 C509 1.425 . S
C504 C511 1.409 . S
C505 H497 0.930 . S
C505 C503 1.419 . S
C505 C506 1.362 . S
C506 H498 0.930 . S
C506 C505 1.362 . S
C506 C509 1.409 . S
C507 H499 0.930 . S
C507 C508 1.355 . S
C507 C509 1.415 . S
C508 C507 1.355 . S
C508 C510 1.419 . S
C509 C504 1.425 . S
C509 C506 1.409 . S
C509 C507 1.415 . S
C510 H500 0.930 . S
C510 C508 1.419 . S
C510 C511 1.362 . S
C511 H501 0.930 . S
C511 C504 1.409 . S
C511 C510 1.362 . S
H512 C518 0.930 . S
H513 C521 0.930 . S
H514 C522 0.930 . S
H515 C523 0.930 . S
H516 C526 0.930 . S
H517 C527 0.930 . S
C518 H512 0.930 . S
C518 C519 1.355 . S
C518 C520 1.415 . S
C519 C518 1.355 . S
C519 C521 1.419 . S
C520 C518 1.415 . S
C520 C525 1.425 . S
C520 C527 1.409 . S
C521 H513 0.930 . S
C521 C519 1.419 . S
C521 C522 1.362 . S
C522 H514 0.930 . S
C522 C521 1.362 . S
C522 C525 1.409 . S
C523 H515 0.930 . S
C523 C524 1.355 . S
C523 C525 1.415 . S
C524 C523 1.355 . S
C524 C526 1.419 . S
C525 C520 1.425 . S
C525 C522 1.409 . S
C525 C523 1.415 . S
C526 H516 0.930 . S
C526 C524 1.419 . S
C526 C527 1.362 . S
C527 H517 0.930 . S
C527 C520 1.409 . S
C527 C526 1.362 . S
H528 C534 0.930 . S
H529 C537 0.930 . S
H530 C538 0.930 . S
H531 C539 0.930 . S
H532 C542 0.930 . S
H533 C543 0.930 . S
C534 H528 0.930 . S
C534 C535 1.355 . S
C534 C536 1.415 . S
C535 C534 1.355 . S
C535 C537 1.419 . S
C536 C534 1.415 . S
C536 C541 1.425 1_565 S
C536 C543 1.409 . S
C537 H529 0.930 . S
C537 C535 1.419 . S
C537 C538 1.362 1_565 S
C538 H530 0.930 . S
C538 C537 1.362 1_545 S
C538 C541 1.409 . S
C539 H531 0.930 . S
C539 C540 1.355 . S
C539 C541 1.415 . S
C540 C539 1.355 . S
C540 C542 1.419 . S
C541 C536 1.425 1_545 S
C541 C538 1.409 . S
C541 C539 1.415 . S
C542 H532 0.930 . S
C542 C540 1.419 . S
C542 C543 1.362 1_545 S
C543 H533 0.930 . S
C543 C536 1.409 . S
C543 C542 1.362 1_565 S
H544 C550 0.930 . S
H545 C553 0.930 . S
H546 C554 0.930 . S
H547 C555 0.930 . S
H548 C558 0.930 . S
H549 C559 0.930 . S
C550 H544 0.930 . S
C550 C551 1.355 . S
C550 C552 1.415 . S
C551 C550 1.355 . S
C551 C553 1.419 . S
C552 C550 1.415 . S
C552 C557 1.425 1_655 S
C552 C559 1.409 1_655 S
C553 H545 0.930 . S
C553 C551 1.419 . S
C553 C554 1.362 . S
C554 H546 0.930 . S
C554 C553 1.362 . S
C554 C557 1.409 1_655 S
C555 H547 0.930 . S
C555 C556 1.355 . S
C555 C557 1.415 . S
C556 C555 1.355 . S
C556 C558 1.419 . S
C557 C552 1.425 1_455 S
C557 C554 1.409 1_455 S
C557 C555 1.415 . S
C558 H548 0.930 . S
C558 C556 1.419 . S
C558 C559 1.362 . S
C559 H549 0.930 . S
C559 C552 1.409 1_455 S
C559 C558 1.362 . S
H560 C566 0.930 . S
H561 C569 0.930 . S
H562 C570 0.930 . S
H563 C571 0.930 . S
H564 C574 0.930 . S
H565 C575 0.930 . S
C566 H560 0.930 . S
C566 C567 1.355 . S
C566 C568 1.415 1_545 S
C567 C566 1.355 . S
C567 C569 1.419 . S
C568 C566 1.415 1_565 S
C568 C573 1.425 1_565 S
C568 C575 1.409 . S
C569 H561 0.930 . S
C569 C567 1.419 . S
C569 C570 1.362 . S
C570 H562 0.930 . S
C570 C569 1.362 . S
C570 C573 1.409 . S
C571 H563 0.930 . S
C571 C572 1.355 . S
C571 C573 1.415 1_565 S
C572 C571 1.355 . S
C572 C574 1.419 . S
C573 C568 1.425 1_545 S
C573 C570 1.409 . S
C573 C571 1.415 1_545 S
C574 H564 0.930 . S
C574 C572 1.419 . S
C574 C575 1.362 . S
C575 H565 0.930 . S
C575 C568 1.409 . S
C575 C574 1.362 . S
H576 C582 0.930 . S
H577 C585 0.930 . S
H578 C586 0.930 . S
H579 C587 0.930 . S
H580 C590 0.930 . S
H581 C591 0.930 . S
C582 H576 0.930 . S
C582 C583 1.355 . S
C582 C584 1.415 1_455 S
C583 C582 1.355 . S
C583 C585 1.419 . S
C584 C582 1.415 1_655 S
C584 C589 1.425 1_655 S
C584 C591 1.409 . S
C585 H577 0.930 . S
C585 C583 1.419 . S
C585 C586 1.362 . S
C586 H578 0.930 . S
C586 C585 1.362 . S
C586 C589 1.409 . S
C587 H579 0.930 . S
C587 C588 1.355 . S
C587 C589 1.415 1_655 S
C588 C587 1.355 . S
C588 C590 1.419 . S
C589 C584 1.425 1_455 S
C589 C586 1.409 . S
C589 C587 1.415 1_455 S
C590 H580 0.930 . S
C590 C588 1.419 . S
C590 C591 1.362 . S
C591 H581 0.930 . S
C591 C584 1.409 . S
C591 C590 1.362 . S
H592 C598 0.930 . S
H593 C601 0.930 . S
H594 C602 0.930 . S
H595 C603 0.930 . S
H596 C606 0.930 . S
H597 C607 0.930 . S
C598 H592 0.930 . S
C598 C599 1.355 . S
C598 C600 1.415 1_565 S
C599 C598 1.355 . S
C599 C601 1.419 . S
C600 C598 1.415 1_545 S
C600 C605 1.425 1_545 S
C600 C607 1.409 . S
C601 H593 0.930 . S
C601 C599 1.419 . S
C601 C602 1.362 . S
C602 H594 0.930 . S
C602 C601 1.362 . S
C602 C605 1.409 . S
C603 H595 0.930 . S
C603 C604 1.355 . S
C603 C605 1.415 1_545 S
C604 C603 1.355 . S
C604 C606 1.419 . S
C605 C600 1.425 1_565 S
C605 C602 1.409 . S
C605 C603 1.415 1_565 S
C606 H596 0.930 . S
C606 C604 1.419 . S
C606 C607 1.362 . S
C607 H597 0.930 . S
C607 C600 1.409 . S
C607 C606 1.362 . S
H608 C614 0.930 . S
H609 C617 0.930 . S
H610 C618 0.930 . S
H611 C619 0.930 . S
H612 C622 0.930 . S
H613 C623 0.930 . S
C614 H608 0.930 . S
C614 C615 1.355 . S
C614 C616 1.415 . S
C615 C614 1.355 . S
C615 C617 1.419 . S
C616 C614 1.415 . S
C616 C621 1.425 1_655 S
C616 C623 1.409 1_655 S
C617 H609 0.930 . S
C617 C615 1.419 . S
C617 C618 1.362 . S
C618 H610 0.930 . S
C618 C617 1.362 . S
C618 C621 1.409 1_655 S
C619 H611 0.930 . S
C619 C620 1.355 . S
C619 C621 1.415 . S
C620 C619 1.355 . S
C620 C622 1.419 . S
C621 C616 1.425 1_455 S
C621 C618 1.409 1_455 S
C621 C619 1.415 . S
C622 H612 0.930 . S
C622 C620 1.419 . S
C622 C623 1.362 . S
C623 H613 0.930 . S
C623 C616 1.409 1_455 S
C623 C622 1.362 . S
H624 C630 0.930 . S
H625 C633 0.930 . S
H626 C634 0.930 . S
H627 C635 0.930 . S
H628 C638 0.930 . S
H629 C639 0.930 . S
C630 H624 0.930 . S
C630 C631 1.355 . S
C630 C632 1.415 . S
C631 C630 1.355 . S
C631 C633 1.419 . S
C632 C630 1.415 . S
C632 C637 1.425 1_565 S
C632 C639 1.409 1_565 S
C633 H625 0.930 . S
C633 C631 1.419 . S
C633 C634 1.362 . S
C634 H626 0.930 . S
C634 C633 1.362 . S
C634 C637 1.409 1_565 S
C635 H627 0.930 . S
C635 C636 1.355 . S
C635 C637 1.415 . S
C636 C635 1.355 . S
C636 C638 1.419 . S
C637 C632 1.425 1_545 S
C637 C634 1.409 1_545 S
C637 C635 1.415 . S
C638 H628 0.930 . S
C638 C636 1.419 . S
C638 C639 1.362 . S
C639 H629 0.930 . S
C639 C632 1.409 1_545 S
C639 C638 1.362 . S
H640 C646 0.930 . S
H641 C649 0.930 . S
H642 C650 0.930 . S
H643 C651 0.930 . S
H644 C654 0.930 . S
H645 C655 0.930 . S
C646 H640 0.930 . S
C646 C647 1.355 . S
C646 C648 1.415 1_455 S
C647 C646 1.355 . S
C647 C649 1.419 . S
C648 C646 1.415 1_655 S
C648 C653 1.425 1_655 S
C648 C655 1.409 . S
C649 H641 0.930 . S
C649 C647 1.419 . S
C649 C650 1.362 . S
C650 H642 0.930 . S
C650 C649 1.362 . S
C650 C653 1.409 . S
C651 H643 0.930 . S
C651 C652 1.355 . S
C651 C653 1.415 1_655 S
C652 C651 1.355 . S
C652 C654 1.419 . S
C653 C648 1.425 1_455 S
C653 C650 1.409 . S
C653 C651 1.415 1_455 S
C654 H644 0.930 . S
C654 C652 1.419 . S
C654 C655 1.362 . S
C655 H645 0.930 . S
C655 C648 1.409 . S
C655 C654 1.362 . S
H656 C662 0.930 . S
H657 C665 0.930 . S
H658 C666 0.930 . S
H659 C667 0.930 . S
H660 C670 0.930 . S
H661 C671 0.930 . S
C662 H656 0.930 . S
C662 C663 1.355 . S
C662 C664 1.415 1_556 S
C663 C662 1.355 . S
C663 C665 1.419 . S
C664 C662 1.415 1_554 S
C664 C669 1.425 1_554 S
C664 C671 1.409 . S
C665 H657 0.930 . S
C665 C663 1.419 . S
C665 C666 1.362 . S
C666 H658 0.930 . S
C666 C665 1.362 . S
C666 C669 1.409 . S
C667 H659 0.930 . S
C667 C668 1.355 . S
C667 C669 1.415 1_554 S
C668 C667 1.355 . S
C668 C670 1.419 . S
C669 C664 1.425 1_556 S
C669 C666 1.409 . S
C669 C667 1.415 1_556 S
C670 H660 0.930 . S
C670 C668 1.419 . S
C670 C671 1.362 . S
C671 H661 0.930 . S
C671 C664 1.409 . S
C671 C670 1.362 . S
H672 C678 0.930 . S
H673 C681 0.930 . S
H674 C682 0.930 . S
H675 C683 0.930 . S
H676 C686 0.930 . S
H677 C687 0.930 . S
C678 H672 0.930 . S
C678 C679 1.355 . S
C678 C680 1.415 . S
C679 C678 1.355 . S
C679 C681 1.419 . S
C680 C678 1.415 . S
C680 C685 1.425 1_554 S
C680 C687 1.409 . S
C681 H673 0.930 . S
C681 C679 1.419 . S
C681 C682 1.362 1_554 S
C682 H674 0.930 . S
C682 C681 1.362 1_556 S
C682 C685 1.409 . S
C683 H675 0.930 . S
C683 C684 1.355 . S
C683 C685 1.415 . S
C684 C683 1.355 . S
C684 C686 1.419 . S
C685 C680 1.425 1_556 S
C685 C682 1.409 . S
C685 C683 1.415 . S
C686 H676 0.930 . S
C686 C684 1.419 . S
C686 C687 1.362 1_556 S
C687 H677 0.930 . S
C687 C680 1.409 . S
C687 C686 1.362 1_554 S
H688 C694 0.930 . S
H689 C697 0.930 . S
H690 C698 0.930 . S
H691 C699 0.930 . S
H692 C702 0.930 . S
H693 C703 0.930 . S
C694 H688 0.930 . S
C694 C695 1.355 . S
C694 C696 1.416 1_556 S
C695 C694 1.355 . S
C695 C697 1.419 . S
C696 C694 1.416 1_554 S
C696 C701 1.425 1_554 S
C696 C703 1.408 . S
C697 H689 0.930 . S
C697 C695 1.419 . S
C697 C698 1.362 . S
C698 H690 0.930 . S
C698 C697 1.362 . S
C698 C701 1.408 . S
C699 H691 0.930 . S
C699 C700 1.355 . S
C699 C701 1.416 1_554 S
C700 C699 1.355 . S
C700 C702 1.419 . S
C701 C696 1.425 1_556 S
C701 C698 1.408 . S
C701 C699 1.416 1_556 S
C702 H692 0.930 . S
C702 C700 1.419 . S
C702 C703 1.362 . S
C703 H693 0.930 . S
C703 C696 1.408 . S
C703 C702 1.362 . S
H704 C710 0.930 . S
H705 C713 0.930 . S
H706 C714 0.930 . S
H707 C715 0.930 . S
H708 C718 0.930 . S
H709 C719 0.930 . S
C710 H704 0.930 . S
C710 C711 1.355 . S
C710 C712 1.415 . S
C711 C710 1.355 . S
C711 C713 1.419 . S
C712 C710 1.415 . S
C712 C717 1.425 1_554 S
C712 C719 1.409 . S
C713 H705 0.930 . S
C713 C711 1.419 . S
C713 C714 1.362 1_554 S
C714 H706 0.930 . S
C714 C713 1.362 1_556 S
C714 C717 1.409 . S
C715 H707 0.930 . S
C715 C716 1.355 . S
C715 C717 1.415 . S
C716 C715 1.355 . S
C716 C718 1.419 . S
C717 C712 1.425 1_556 S
C717 C714 1.409 . S
C717 C715 1.415 . S
C718 H708 0.930 . S
C718 C716 1.419 . S
C718 C719 1.362 1_556 S
C719 H709 0.930 . S
C719 C712 1.409 . S
C719 C718 1.362 1_554 S
H720 C726 0.930 . S
H721 C729 0.930 . S
H722 C730 0.930 . S
H723 C731 0.930 . S
H724 C734 0.930 . S
H725 C735 0.930 . S
C726 H720 0.930 . S
C726 C727 1.355 . S
C726 C728 1.415 . S
C727 C726 1.355 . S
C727 C729 1.419 . S
C728 C726 1.415 . S
C728 C733 1.425 . S
C728 C735 1.409 . S
C729 H721 0.930 . S
C729 C727 1.419 . S
C729 C730 1.362 . S
C730 H722 0.930 . S
C730 C729 1.362 . S
C730 C733 1.409 . S
C731 H723 0.930 . S
C731 C732 1.355 . S
C731 C733 1.415 . S
C732 C731 1.355 . S
C732 C734 1.419 . S
C733 C728 1.425 . S
C733 C730 1.409 . S
C733 C731 1.415 . S
C734 H724 0.930 . S
C734 C732 1.419 . S
C734 C735 1.362 . S
C735 H725 0.930 . S
C735 C728 1.409 . S
C735 C734 1.362 . S
H736 C742 0.930 . S
H737 C745 0.930 . S
H738 C746 0.930 . S
H739 C747 0.930 . S
H740 C750 0.930 . S
H741 C751 0.930 . S
C742 H736 0.930 . S
C742 C743 1.355 . S
C742 C744 1.415 . S
C743 C742 1.355 . S
C743 C745 1.419 . S
C744 C742 1.415 . S
C744 C749 1.425 . S
C744 C751 1.409 . S
C745 H737 0.930 . S
C745 C743 1.419 . S
C745 C746 1.362 . S
C746 H738 0.930 . S
C746 C745 1.362 . S
C746 C749 1.409 . S
C747 H739 0.930 . S
C747 C748 1.355 . S
C747 C749 1.415 . S
C748 C747 1.355 . S
C748 C750 1.419 . S
C749 C744 1.425 . S
C749 C746 1.409 . S
C749 C747 1.415 . S
C750 H740 0.930 . S
C750 C748 1.419 . S
C750 C751 1.362 . S
C751 H741 0.930 . S
C751 C744 1.409 . S
C751 C750 1.362 . S
H752 C758 0.930 . S
H753 C761 0.930 . S
H754 C762 0.930 . S
H755 C763 0.930 . S
H756 C766 0.930 . S
H757 C767 0.930 . S
C758 H752 0.930 . S
C758 C759 1.355 . S
C758 C760 1.415 . S
C759 C758 1.355 . S
C759 C761 1.419 . S
C760 C758 1.415 . S
C760 C765 1.425 . S
C760 C767 1.409 . S
C761 H753 0.930 . S
C761 C759 1.419 . S
C761 C762 1.362 . S
C762 H754 0.930 . S
C762 C761 1.362 . S
C762 C765 1.409 . S
C763 H755 0.930 . S
C763 C764 1.355 . S
C763 C765 1.415 . S
C764 C763 1.355 . S
C764 C766 1.419 . S
C765 C760 1.425 . S
C765 C762 1.409 . S
C765 C763 1.415 . S
C766 H756 0.930 . S
C766 C764 1.419 . S
C766 C767 1.362 . S
C767 H757 0.930 . S
C767 C760 1.409 . S
C767 C766 1.362 . S
H768 C774 0.930 . S
H769 C777 0.930 . S
H770 C778 0.930 . S
H771 C779 0.930 . S
H772 C782 0.930 . S
H773 C783 0.930 . S
C774 H768 0.930 . S
C774 C775 1.355 . S
C774 C776 1.415 . S
C775 C774 1.355 . S
C775 C777 1.419 . S
C776 C774 1.415 . S
C776 C781 1.425 . S
C776 C783 1.409 . S
C777 H769 0.930 . S
C777 C775 1.419 . S
C777 C778 1.362 . S
C778 H770 0.930 . S
C778 C777 1.362 . S
C778 C781 1.409 . S
C779 H771 0.930 . S
C779 C780 1.355 . S
C779 C781 1.415 . S
C780 C779 1.355 . S
C780 C782 1.419 . S
C781 C776 1.425 . S
C781 C778 1.409 . S
C781 C779 1.415 . S
C782 H772 0.930 . S
C782 C780 1.419 . S
C782 C783 1.362 . S
C783 H773 0.930 . S
C783 C776 1.409 . S
C783 C782 1.362 . S
H784 C790 0.930 . S
H785 C793 0.930 . S
H786 C794 0.930 . S
H787 C795 0.930 . S
H788 C798 0.930 . S
H789 C799 0.930 . S
C790 H784 0.930 . S
C790 C791 1.355 . S
C790 C792 1.415 . S
C791 C790 1.355 . S
C791 C793 1.419 . S
C792 C790 1.415 . S
C792 C797 1.425 . S
C792 C799 1.409 . S
C793 H785 0.930 . S
C793 C791 1.419 . S
C793 C794 1.362 . S
C794 H786 0.930 . S
C794 C793 1.362 . S
C794 C797 1.409 . S
C795 H787 0.930 . S
C795 C796 1.355 . S
C795 C797 1.415 . S
C796 C795 1.355 . S
C796 C798 1.419 . S
C797 C792 1.425 . S
C797 C794 1.409 . S
C797 C795 1.415 . S
C798 H788 0.930 . S
C798 C796 1.419 . S
C798 C799 1.362 . S
C799 H789 0.930 . S
C799 C792 1.409 . S
C799 C798 1.362 . S
H800 C806 0.930 . S
H801 C809 0.930 . S
H802 C810 0.930 . S
H803 C811 0.930 . S
H804 C814 0.930 . S
H805 C815 0.930 . S
C806 H800 0.930 . S
C806 C807 1.355 . S
C806 C808 1.415 . S
C807 C806 1.355 . S
C807 C809 1.419 . S
C808 C806 1.415 . S
C808 C813 1.425 . S
C808 C815 1.409 . S
C809 H801 0.930 . S
C809 C807 1.419 . S
C809 C810 1.362 . S
C810 H802 0.930 . S
C810 C809 1.362 . S
C810 C813 1.409 . S
C811 H803 0.930 . S
C811 C812 1.355 . S
C811 C813 1.415 . S
C812 C811 1.355 . S
C812 C814 1.419 . S
C813 C808 1.425 . S
C813 C810 1.409 . S
C813 C811 1.415 . S
C814 H804 0.930 . S
C814 C812 1.419 . S
C814 C815 1.362 . S
C815 H805 0.930 . S
C815 C808 1.409 . S
C815 C814 1.362 . S
H816 C822 0.930 . S
H817 C825 0.930 . S
H818 C826 0.930 . S
H819 C827 0.930 . S
H820 C830 0.930 . S
H821 C831 0.930 . S
C822 H816 0.930 . S
C822 C823 1.355 . S
C822 C824 1.415 . S
C823 C822 1.355 . S
C823 C825 1.419 . S
C824 C822 1.415 . S
C824 C829 1.425 . S
C824 C831 1.409 . S
C825 H817 0.930 . S
C825 C823 1.419 . S
C825 C826 1.362 . S
C826 H818 0.930 . S
C826 C825 1.362 . S
C826 C829 1.409 . S
C827 H819 0.930 . S
C827 C828 1.355 . S
C827 C829 1.415 . S
C828 C827 1.355 . S
C828 C830 1.419 . S
C829 C824 1.425 . S
C829 C826 1.409 . S
C829 C827 1.415 . S
C830 H820 0.930 . S
C830 C828 1.419 . S
C830 C831 1.362 . S
C831 H821 0.930 . S
C831 C824 1.409 . S
C831 C830 1.362 . S
H832 C838 0.930 . S
H833 C841 0.930 . S
H834 C842 0.930 . S
H835 C843 0.930 . S
H836 C846 0.930 . S
H837 C847 0.930 . S
C838 H832 0.930 . S
C838 C839 1.355 . S
C838 C840 1.415 . S
C839 C838 1.355 . S
C839 C841 1.419 . S
C840 C838 1.415 . S
C840 C845 1.425 . S
C840 C847 1.409 . S
C841 H833 0.930 . S
C841 C839 1.419 . S
C841 C842 1.362 . S
C842 H834 0.930 . S
C842 C841 1.362 . S
C842 C845 1.409 . S
C843 H835 0.930 . S
C843 C844 1.355 . S
C843 C845 1.415 . S
C844 C843 1.355 . S
C844 C846 1.419 . S
C845 C840 1.425 . S
C845 C842 1.409 . S
C845 C843 1.415 . S
C846 H836 0.930 . S
C846 C844 1.419 . S
C846 C847 1.362 . S
C847 H837 0.930 . S
C847 C840 1.409 . S
C847 C846 1.362 . S
H848 C854 0.930 . S
H849 C857 0.930 . S
H850 C858 0.930 . S
H851 C859 0.930 . S
H852 C862 0.930 . S
H853 C863 0.930 . S
C854 H848 0.930 . S
C854 C855 1.355 . S
C854 C856 1.415 . S
C855 C854 1.355 . S
C855 C857 1.419 . S
C856 C854 1.415 . S
C856 C861 1.425 . S
C856 C863 1.409 . S
C857 H849 0.930 . S
C857 C855 1.419 . S
C857 C858 1.362 . S
C858 H850 0.930 . S
C858 C857 1.362 . S
C858 C861 1.409 . S
C859 H851 0.930 . S
C859 C860 1.355 . S
C859 C861 1.415 . S
C860 C859 1.355 . S
C860 C862 1.419 . S
C861 C856 1.425 . S
C861 C858 1.409 . S
C861 C859 1.415 . S
C862 H852 0.930 . S
C862 C860 1.419 . S
C862 C863 1.362 . S
C863 H853 0.930 . S
C863 C856 1.409 . S
C863 C862 1.362 . S
H864 C870 0.930 . S
H865 C873 0.930 . S
H866 C874 0.930 . S
H867 C875 0.930 . S
H868 C878 0.930 . S
H869 C879 0.930 . S
C870 H864 0.930 . S
C870 C871 1.355 . S
C870 C872 1.415 . S
C871 C870 1.355 . S
C871 C873 1.419 . S
C872 C870 1.415 . S
C872 C877 1.425 . S
C872 C879 1.409 . S
C873 H865 0.930 . S
C873 C871 1.419 . S
C873 C874 1.362 . S
C874 H866 0.930 . S
C874 C873 1.362 . S
C874 C877 1.409 . S
C875 H867 0.930 . S
C875 C876 1.355 . S
C875 C877 1.415 . S
C876 C875 1.355 . S
C876 C878 1.419 . S
C877 C872 1.425 . S
C877 C874 1.409 . S
C877 C875 1.415 . S
C878 H868 0.930 . S
C878 C876 1.419 . S
C878 C879 1.362 . S
C879 H869 0.930 . S
C879 C872 1.409 . S
C879 C878 1.362 . S
H880 C886 0.930 . S
H881 C889 0.930 . S
H882 C890 0.930 . S
H883 C891 0.930 . S
H884 C894 0.930 . S
H885 C895 0.930 . S
C886 H880 0.930 . S
C886 C887 1.355 . S
C886 C888 1.415 . S
C887 C886 1.355 . S
C887 C889 1.419 . S
C888 C886 1.415 . S
C888 C893 1.425 . S
C888 C895 1.409 . S
C889 H881 0.930 . S
C889 C887 1.419 . S
C889 C890 1.362 . S
C890 H882 0.930 . S
C890 C889 1.362 . S
C890 C893 1.409 . S
C891 H883 0.930 . S
C891 C892 1.355 . S
C891 C893 1.415 . S
C892 C891 1.355 . S
C892 C894 1.419 . S
C893 C888 1.425 . S
C893 C890 1.409 . S
C893 C891 1.415 . S
C894 H884 0.930 . S
C894 C892 1.419 . S
C894 C895 1.362 . S
C895 H885 0.930 . S
C895 C888 1.409 . S
C895 C894 1.362 . S
H896 C902 0.930 . S
H897 C905 0.930 . S
H898 C906 0.930 . S
H899 C907 0.930 . S
H900 C910 0.930 . S
H901 C911 0.930 . S
C902 H896 0.930 . S
C902 C903 1.355 . S
C902 C904 1.415 . S
C903 C902 1.355 . S
C903 C905 1.419 . S
C904 C902 1.415 . S
C904 C909 1.425 . S
C904 C911 1.409 . S
C905 H897 0.930 . S
C905 C903 1.419 . S
C905 C906 1.362 . S
C906 H898 0.930 . S
C906 C905 1.362 . S
C906 C909 1.409 . S
C907 H899 0.930 . S
C907 C908 1.355 . S
C907 C909 1.415 . S
C908 C907 1.355 . S
C908 C910 1.419 . S
C909 C904 1.425 . S
C909 C906 1.409 . S
C909 C907 1.415 . S
C910 H900 0.930 . S
C910 C908 1.419 . S
C910 C911 1.362 . S
C911 H901 0.930 . S
C911 C904 1.409 . S
C911 C910 1.362 . S
H912 C918 0.930 . S
H913 C921 0.930 . S
H914 C922 0.930 . S
H915 C923 0.930 . S
H916 C926 0.930 . S
H917 C927 0.930 . S
C918 H912 0.930 . S
C918 C919 1.355 . S
C918 C920 1.415 . S
C919 C918 1.355 . S
C919 C921 1.419 . S
C920 C918 1.415 . S
C920 C925 1.425 . S
C920 C927 1.409 . S
C921 H913 0.930 . S
C921 C919 1.419 . S
C921 C922 1.362 . S
C922 H914 0.930 . S
C922 C921 1.362 . S
C922 C925 1.409 . S
C923 H915 0.930 . S
C923 C924 1.355 . S
C923 C925 1.415 . S
C924 C923 1.355 . S
C924 C926 1.419 . S
C925 C920 1.425 . S
C925 C922 1.409 . S
C925 C923 1.415 . S
C926 H916 0.930 . S
C926 C924 1.419 . S
C926 C927 1.362 . S
C927 H917 0.930 . S
C927 C920 1.409 . S
C927 C926 1.362 . S
H928 C934 0.930 . S
H929 C937 0.930 . S
H930 C938 0.930 . S
H931 C939 0.930 . S
H932 C942 0.930 . S
H933 C943 0.930 . S
C934 H928 0.930 . S
C934 C935 1.355 . S
C934 C936 1.415 . S
C935 C934 1.355 . S
C935 C937 1.419 . S
C936 C934 1.415 . S
C936 C941 1.425 . S
C936 C943 1.409 . S
C937 H929 0.930 . S
C937 C935 1.419 . S
C937 C938 1.362 . S
C938 H930 0.930 . S
C938 C937 1.362 . S
C938 C941 1.409 . S
C939 H931 0.930 . S
C939 C940 1.355 . S
C939 C941 1.415 . S
C940 C939 1.355 . S
C940 C942 1.419 . S
C941 C936 1.425 . S
C941 C938 1.409 . S
C941 C939 1.415 . S
C942 H932 0.930 . S
C942 C940 1.419 . S
C942 C943 1.362 . S
C943 H933 0.930 . S
C943 C936 1.409 . S
C943 C942 1.362 . S
H944 C950 0.930 . S
H945 C953 0.930 . S
H946 C954 0.930 . S
H947 C955 0.930 . S
H948 C958 0.930 . S
H949 C959 0.930 . S
C950 H944 0.930 . S
C950 C951 1.355 . S
C950 C952 1.415 . S
C951 C950 1.355 . S
C951 C953 1.419 . S
C952 C950 1.415 . S
C952 C957 1.425 . S
C952 C959 1.409 . S
C953 H945 0.930 . S
C953 C951 1.419 . S
C953 C954 1.362 . S
C954 H946 0.930 . S
C954 C953 1.362 . S
C954 C957 1.409 . S
C955 H947 0.930 . S
C955 C956 1.355 . S
C955 C957 1.415 . S
C956 C955 1.355 . S
C956 C958 1.419 . S
C957 C952 1.425 . S
C957 C954 1.409 . S
C957 C955 1.415 . S
C958 H948 0.930 . S
C958 C956 1.419 . S
C958 C959 1.362 . S
C959 H949 0.930 . S
C959 C952 1.409 . S
C959 C958 1.362 . S
H960 C966 0.930 . S
H961 C969 0.930 . S
H962 C970 0.930 . S
H963 C971 0.930 . S
H964 C974 0.930 . S
H965 C975 0.930 . S
C966 H960 0.930 . S
C966 C967 1.355 . S
C966 C968 1.415 . S
C967 C966 1.355 . S
C967 C969 1.419 . S
C968 C966 1.415 . S
C968 C973 1.425 . S
C968 C975 1.409 . S
C969 H961 0.930 . S
C969 C967 1.419 . S
C969 C970 1.362 . S
C970 H962 0.930 . S
C970 C969 1.362 . S
C970 C973 1.409 . S
C971 H963 0.930 . S
C971 C972 1.355 . S
C971 C973 1.415 . S
C972 C971 1.355 . S
C972 C974 1.419 . S
C973 C968 1.425 . S
C973 C970 1.409 . S
C973 C971 1.415 . S
C974 H964 0.930 . S
C974 C972 1.419 . S
C974 C975 1.362 . S
C975 H965 0.930 . S
C975 C968 1.409 . S
C975 C974 1.362 . S
H976 C982 0.930 . S
H977 C985 0.930 . S
H978 C986 0.930 . S
H979 C987 0.930 . S
H980 C990 0.930 . S
H981 C991 0.930 . S
C982 H976 0.930 . S
C982 C983 1.355 . S
C982 C984 1.415 . S
C983 C982 1.355 . S
C983 C985 1.419 . S
C984 C982 1.415 . S
C984 C989 1.425 . S
C984 C991 1.409 . S
C985 H977 0.930 . S
C985 C983 1.419 . S
C985 C986 1.362 . S
C986 H978 0.930 . S
C986 C985 1.362 . S
C986 C989 1.409 . S
C987 H979 0.930 . S
C987 C988 1.355 . S
C987 C989 1.415 . S
C988 C987 1.355 . S
C988 C990 1.419 . S
C989 C984 1.425 . S
C989 C986 1.409 . S
C989 C987 1.415 . S
C990 H980 0.930 . S
C990 C988 1.419 . S
C990 C991 1.362 . S
C991 H981 0.930 . S
C991 C984 1.409 . S
C991 C990 1.362 . S
H992 C998 0.930 . S
H993 C1001 0.930 . S
H994 C1002 0.930 . S
H995 C1003 0.930 . S
H996 C1006 0.930 . S
H997 C1007 0.930 . S
C998 H992 0.930 . S
C998 C999 1.355 . S
C998 C1000 1.415 . S
C999 C998 1.355 . S
C999 C1001 1.419 . S
C1000 C998 1.415 . S
C1000 C1005 1.425 . S
C1000 C1007 1.409 . S
C1001 H993 0.930 . S
C1001 C999 1.419 . S
C1001 C1002 1.362 . S
C1002 H994 0.930 . S
C1002 C1001 1.362 . S
C1002 C1005 1.409 . S
C1003 H995 0.930 . S
C1003 C1004 1.355 . S
C1003 C1005 1.415 . S
C1004 C1003 1.355 . S
C1004 C1006 1.419 . S
C1005 C1000 1.425 . S
C1005 C1002 1.409 . S
C1005 C1003 1.415 . S
C1006 H996 0.930 . S
C1006 C1004 1.419 . S
C1006 C1007 1.362 . S
C1007 H997 0.930 . S
C1007 C1000 1.409 . S
C1007 C1006 1.362 . S
H1008 C1014 0.930 . S
H1009 C1017 0.930 . S
H1010 C1018 0.930 . S
H1011 C1019 0.930 . S
H1012 C1022 0.930 . S
H1013 C1023 0.930 . S
C1014 H1008 0.930 . S
C1014 C1015 1.355 . S
C1014 C1016 1.415 . S
C1015 C1014 1.355 . S
C1015 C1017 1.419 . S
C1016 C1014 1.415 . S
C1016 C1021 1.425 . S
C1016 C1023 1.409 . S
C1017 H1009 0.930 . S
C1017 C1015 1.419 . S
C1017 C1018 1.362 . S
C1018 H1010 0.930 . S
C1018 C1017 1.362 . S
C1018 C1021 1.409 . S
C1019 H1011 0.930 . S
C1019 C1020 1.355 . S
C1019 C1021 1.415 . S
C1020 C1019 1.355 . S
C1020 C1022 1.419 . S
C1021 C1016 1.425 . S
C1021 C1018 1.409 . S
C1021 C1019 1.415 . S
C1022 H1012 0.930 . S
C1022 C1020 1.419 . S
C1022 C1023 1.362 . S
C1023 H1013 0.930 . S
C1023 C1016 1.409 . S
C1023 C1022 1.362 . S
H1024 C1030 0.930 . S
H1025 C1033 0.930 . S
H1026 C1034 0.930 . S
H1027 C1035 0.930 . S
H1028 C1038 0.930 . S
H1029 C1039 0.930 . S
C1030 H1024 0.930 . S
C1030 C1031 1.355 . S
C1030 C1032 1.415 . S
C1031 C1030 1.355 . S
C1031 C1033 1.419 . S
C1032 C1030 1.415 . S
C1032 C1037 1.425 . S
C1032 C1039 1.409 . S
C1033 H1025 0.930 . S
C1033 C1031 1.419 . S
C1033 C1034 1.362 . S
C1034 H1026 0.930 . S
C1034 C1033 1.362 . S
C1034 C1037 1.409 . S
C1035 H1027 0.930 . S
C1035 C1036 1.355 . S
C1035 C1037 1.415 . S
C1036 C1035 1.355 . S
C1036 C1038 1.419 . S
C1037 C1032 1.425 . S
C1037 C1034 1.409 . S
C1037 C1035 1.415 . S
C1038 H1028 0.930 . S
C1038 C1036 1.419 . S
C1038 C1039 1.362 . S
C1039 H1029 0.930 . S
C1039 C1032 1.409 . S
C1039 C1038 1.362 . S
H1040 C1046 0.930 . S
H1041 C1049 0.930 . S
H1042 C1050 0.930 . S
H1043 C1051 0.930 . S
H1044 C1054 0.930 . S
H1045 C1055 0.930 . S
C1046 H1040 0.930 . S
C1046 C1047 1.355 . S
C1046 C1048 1.415 . S
C1047 C1046 1.355 . S
C1047 C1049 1.419 . S
C1048 C1046 1.415 . S
C1048 C1053 1.425 . S
C1048 C1055 1.409 . S
C1049 H1041 0.930 . S
C1049 C1047 1.419 . S
C1049 C1050 1.362 . S
C1050 H1042 0.930 . S
C1050 C1049 1.362 . S
C1050 C1053 1.409 . S
C1051 H1043 0.930 . S
C1051 C1052 1.355 . S
C1051 C1053 1.415 . S
C1052 C1051 1.355 . S
C1052 C1054 1.419 . S
C1053 C1048 1.425 . S
C1053 C1050 1.409 . S
C1053 C1051 1.415 . S
C1054 H1044 0.930 . S
C1054 C1052 1.419 . S
C1054 C1055 1.362 . S
C1055 H1045 0.930 . S
C1055 C1048 1.409 . S
C1055 C1054 1.362 . S
H1056 C1062 0.930 . S
H1057 C1065 0.930 . S
H1058 C1066 0.930 . S
H1059 C1067 0.930 . S
H1060 C1070 0.930 . S
H1061 C1071 0.930 . S
C1062 H1056 0.930 . S
C1062 C1063 1.355 . S
C1062 C1064 1.415 . S
C1063 C1062 1.355 . S
C1063 C1065 1.419 . S
C1064 C1062 1.415 . S
C1064 C1069 1.425 . S
C1064 C1071 1.409 . S
C1065 H1057 0.930 . S
C1065 C1063 1.419 . S
C1065 C1066 1.362 . S
C1066 H1058 0.930 . S
C1066 C1065 1.362 . S
C1066 C1069 1.409 . S
C1067 H1059 0.930 . S
C1067 C1068 1.355 . S
C1067 C1069 1.415 . S
C1068 C1067 1.355 . S
C1068 C1070 1.419 . S
C1069 C1064 1.425 . S
C1069 C1066 1.409 . S
C1069 C1067 1.415 . S
C1070 H1060 0.930 . S
C1070 C1068 1.419 . S
C1070 C1071 1.362 . S
C1071 H1061 0.930 . S
C1071 C1064 1.409 . S
C1071 C1070 1.362 . S
H1072 C1078 0.930 . S
H1073 C1081 0.930 . S
H1074 C1082 0.930 . S
H1075 C1083 0.930 . S
H1076 C1086 0.930 . S
H1077 C1087 0.930 . S
C1078 H1072 0.930 . S
C1078 C1079 1.355 . S
C1078 C1080 1.415 . S
C1079 C1078 1.355 . S
C1079 C1081 1.419 . S
C1080 C1078 1.415 . S
C1080 C1085 1.425 . S
C1080 C1087 1.409 . S
C1081 H1073 0.930 . S
C1081 C1079 1.419 . S
C1081 C1082 1.362 . S
C1082 H1074 0.930 . S
C1082 C1081 1.362 . S
C1082 C1085 1.409 . S
C1083 H1075 0.930 . S
C1083 C1084 1.355 . S
C1083 C1085 1.415 . S
C1084 C1083 1.355 . S
C1084 C1086 1.419 . S
C1085 C1080 1.425 . S
C1085 C1082 1.409 . S
C1085 C1083 1.415 . S
C1086 H1076 0.930 . S
C1086 C1084 1.419 . S
C1086 C1087 1.362 . S
C1087 H1077 0.930 . S
C1087 C1080 1.409 . S
C1087 C1086 1.362 . S
H1088 C1094 0.930 . S
H1089 C1097 0.930 . S
H1090 C1098 0.930 . S
H1091 C1099 0.930 . S
H1092 C1102 0.930 . S
H1093 C1103 0.930 . S
C1094 H1088 0.930 . S
C1094 C1095 1.355 . S
C1094 C1096 1.415 . S
C1095 C1094 1.355 . S
C1095 C1097 1.419 . S
C1096 C1094 1.415 . S
C1096 C1101 1.425 . S
C1096 C1103 1.409 . S
C1097 H1089 0.930 . S
C1097 C1095 1.419 . S
C1097 C1098 1.362 . S
C1098 H1090 0.930 . S
C1098 C1097 1.362 . S
C1098 C1101 1.409 . S
C1099 H1091 0.930 . S
C1099 C1100 1.355 . S
C1099 C1101 1.415 . S
C1100 C1099 1.355 . S
C1100 C1102 1.419 . S
C1101 C1096 1.425 . S
C1101 C1098 1.409 . S
C1101 C1099 1.415 . S
C1102 H1092 0.930 . S
C1102 C1100 1.419 . S
C1102 C1103 1.362 . S
C1103 H1093 0.930 . S
C1103 C1096 1.409 . S
C1103 C1102 1.362 . S
C343 C321 1.859 . S
C348 C13 1.826 . S
C359 C27 1.835 . S
C364 C237 1.815 . S
C375 C334 1.832 . S
C380 C40 1.863 . S
C391 C295 1.847 . S
C396 C43 1.864 . S
C407 C252 1.850 . S
C412 C57 1.818 . S
C423 C267 1.849 . S
C428 C71 1.818 . S
C439 C281 1.854 . S
C444 C85 1.821 . S
C455 C110 1.814 . S
C460 C239 1.842 . S
C471 C182 1.831 . S
C476 C125 1.816 . S
C487 C197 1.824 . S
C492 C138 1.858 . S
C503 C140 1.864 . S
C508 C211 1.839 . S
C519 C167 1.829 . S
C524 C181 1.861 . S
C535 C98 1.863 . S
C540 C209 1.848 . S
C551 C223 1.815 . S
C556 C69 1.843 . S
C567 C83 1.832 . S
C572 C169 1.815 . S
C583 C194 1.819 . S
C588 C97 1.823 . S
C599 C152 1.847 . S
C604 C15 1.817 . S
C615 C28 1.862 . S
C620 C155 1.832 . S
C631 C55 1.816 . S
C636 C113 1.845 . S
C647 C1 1.815 . S
C652 C126 1.833 . S
C663 C293 1.840 . S
C668 C307 1.815 . S
C679 C309 1.862 . S
C684 C251 1.852 . S
C695 C264 1.855 . S
C700 C225 1.822 . S
C711 C322 1.830 . S
C716 C279 1.862 . S
C727 C12 1.227 . S
C732 C112 1.247 . S
C743 C127 1.224 . S
C748 C26 1.160 . S
C759 C41 1.195 . S
C764 C153 1.149 . S
C775 C42 1.233 . S
C780 C154 1.245 . S
C791 C56 1.246 . S
C796 C168 1.231 . S
C807 C70 1.213 . S
C812 C195 1.156 . S
C823 C208 1.229 . S
C828 C84 1.166 . S
C839 C222 1.201 . S
C844 C111 1.151 . S
C855 C124 1.244 . S
C860 C224 1.187 . S
C871 C139 1.235 . S
C876 C323 1.244 . S
C887 C306 1.250 . S
C892 C141 1.209 . S
C903 C308 1.171 . S
C908 C166 1.149 . S
C919 C250 1.147 . S
C924 C180 1.180 . S
C935 C265 1.194 . S
C940 C183 1.149 . S
C951 C196 1.221 . S
C956 C278 1.159 . S
C967 C210 1.226 . S
C972 C292 1.163 . S
C983 C0 1.194 . S
C988 C236 1.147 . S
C999 C238 1.193 . S
C1004 C68 1.246 . S
C1015 C253 1.241 . S
C1020 C82 1.179 . S
C1031 C266 1.206 . S
C1036 C96 1.151 . S
C1047 C280 1.173 . S
C1052 C99 1.237 . S
C1063 C294 1.196 . S
C1068 C29 1.248 . S
C1079 C54 1.249 . S
C1084 C320 1.204 . S
C1095 C335 1.248 . S
C1100 C14 1.194 . S
