# Generated by pormake.
# Topology wjp, (5)-cn, num edge types: 1
# Building blocks:
#     Node 0, Type 0, BuildingBlock: BEQFEK_clean_sbu_0, # of connection points: 5
#     Node 1, Type 0, BuildingBlock: BEQFEK_clean_sbu_0, # of connection points: 5
#     Node 2, Type 0, BuildingBlock: BEQFEK_clean_sbu_0, # of connection points: 5
#     Node 3, Type 0, BuildingBlock: BEQFEK_clean_sbu_0, # of connection points: 5
#     Node 4, Type 0, BuildingBlock: BEQFEK_clean_sbu_0, # of connection points: 5
#     Node 5, Type 0, BuildingBlock: BEQFEK_clean_sbu_0, # of connection points: 5
#     Node 6, Type 0, BuildingBlock: BEQFEK_clean_sbu_0, # of connection points: 5
#     Node 7, Type 0, BuildingBlock: BEQFEK_clean_sbu_0, # of connection points: 5
#     Node 8, Type 0, BuildingBlock: BEQFEK_clean_sbu_0, # of connection points: 5
#     Node 9, Type 0, BuildingBlock: BEQFEK_clean_sbu_0, # of connection points: 5
#     Node 10, Type 0, BuildingBlock: BEQFEK_clean_sbu_0, # of connection points: 5
#     Node 11, Type 0, BuildingBlock: BEQFEK_clean_sbu_0, # of connection points: 5
#     Edge 12, Type (0, 0), BuildingBlock: XUDNAN_clean_linker_2, # of connection points: 2
#     Edge 13, Type (0, 0), BuildingBlock: XUDNAN_clean_linker_2, # of connection points: 2
#     Edge 14, Type (0, 0), BuildingBlock: XUDNAN_clean_linker_2, # of connection points: 2
#     Edge 15, Type (0, 0), BuildingBlock: XUDNAN_clean_linker_2, # of connection points: 2
#     Edge 16, Type (0, 0), BuildingBlock: XUDNAN_clean_linker_2, # of connection points: 2
#     Edge 17, Type (0, 0), BuildingBlock: XUDNAN_clean_linker_2, # of connection points: 2
#     Edge 18, Type (0, 0), BuildingBlock: XUDNAN_clean_linker_2, # of connection points: 2
#     Edge 19, Type (0, 0), BuildingBlock: XUDNAN_clean_linker_2, # of connection points: 2
#     Edge 20, Type (0, 0), BuildingBlock: XUDNAN_clean_linker_2, # of connection points: 2
#     Edge 21, Type (0, 0), BuildingBlock: XUDNAN_clean_linker_2, # of connection points: 2
#     Edge 22, Type (0, 0), BuildingBlock: XUDNAN_clean_linker_2, # of connection points: 2
#     Edge 23, Type (0, 0), BuildingBlock: XUDNAN_clean_linker_2, # of connection points: 2
#     Edge 24, Type (0, 0), BuildingBlock: XUDNAN_clean_linker_2, # of connection points: 2
#     Edge 25, Type (0, 0), BuildingBlock: XUDNAN_clean_linker_2, # of connection points: 2
#     Edge 26, Type (0, 0), BuildingBlock: XUDNAN_clean_linker_2, # of connection points: 2
#     Edge 27, Type (0, 0), BuildingBlock: XUDNAN_clean_linker_2, # of connection points: 2
#     Edge 28, Type (0, 0), BuildingBlock: XUDNAN_clean_linker_2, # of connection points: 2
#     Edge 29, Type (0, 0), BuildingBlock: XUDNAN_clean_linker_2, # of connection points: 2
#     Edge 30, Type (0, 0), BuildingBlock: XUDNAN_clean_linker_2, # of connection points: 2
#     Edge 31, Type (0, 0), BuildingBlock: XUDNAN_clean_linker_2, # of connection points: 2
#     Edge 32, Type (0, 0), BuildingBlock: XUDNAN_clean_linker_2, # of connection points: 2
#     Edge 33, Type (0, 0), BuildingBlock: XUDNAN_clean_linker_2, # of connection points: 2
#     Edge 34, Type (0, 0), BuildingBlock: XUDNAN_clean_linker_2, # of connection points: 2
#     Edge 35, Type (0, 0), BuildingBlock: XUDNAN_clean_linker_2, # of connection points: 2
#     Edge 36, Type (0, 0), BuildingBlock: XUDNAN_clean_linker_2, # of connection points: 2
#     Edge 37, Type (0, 0), BuildingBlock: XUDNAN_clean_linker_2, # of connection points: 2
#     Edge 38, Type (0, 0), BuildingBlock: XUDNAN_clean_linker_2, # of connection points: 2
#     Edge 39, Type (0, 0), BuildingBlock: XUDNAN_clean_linker_2, # of connection points: 2
#     Edge 40, Type (0, 0), BuildingBlock: XUDNAN_clean_linker_2, # of connection points: 2
#     Edge 41, Type (0, 0), BuildingBlock: XUDNAN_clean_linker_2, # of connection points: 2
# Relax obj value: 0.469
# Max RMSD: 0.250
# Mean RMSD: 0.250
data_MOF--net-wjp--node1-BEQFEK_clean_sbu_0--edge1-XUDNAN_clean_linker_2
_symmetry_space_group_name_H-M    P1
_symmetry_Int_Tables_number       1
_symmetry_cell_setting            triclinic
loop_
_symmetry_equiv_pos_as_xyz
'x, y, z'
_cell_length_a     41.479479
_cell_length_b     41.497841
_cell_length_c     59.92741
_cell_angle_alpha  89.97994
_cell_angle_beta   89.997007
_cell_angle_gamma 119.9824
loop_
_atom_site_label
_atom_site_type_symbol
_atom_site_fract_x
_atom_site_fract_y
_atom_site_fract_z
_atom_type_partial_charge
Co0 Co 0.26046 0.21363 0.49233 0.0
Co1 Co 0.33384 0.28935 0.4886 0.0
C2 C 0.32889 0.23628 0.52202 0.0
O3 O 0.29555 0.21652 0.51531 0.0
O4 O 0.35055 0.2676 0.51295 0.0
C5 C 0.23151 0.13809 0.49443 0.0
O6 O 0.26742 0.15014 0.49377 0.0
C7 C 0.40959 0.34918 0.4758 0.0
C8 C 0.39537 0.38994 0.46206 0.0
C9 C 0.42442 0.38274 0.46433 0.0
N10 N 0.3732 0.33681 0.47946 0.0
N11 N 0.36526 0.36184 0.47174 0.0
C12 C 0.42844 0.32733 0.48098 0.0
H13 H 0.40766 0.29784 0.4845 0.0
H14 H 0.44667 0.32901 0.46693 0.0
H15 H 0.44619 0.33938 0.49596 0.0
C16 C 0.27753 0.20548 0.44566 0.0
N17 N 0.28417 0.22586 0.46436 0.0
N18 N 0.31656 0.25666 0.46276 0.0
C19 C 0.3319 0.25617 0.44289 0.0
C20 C 0.30799 0.22354 0.43156 0.0
C21 C 0.24461 0.16732 0.44253 0.0
H22 H 0.2205 0.16428 0.45218 0.0
H23 H 0.2519 0.14625 0.44808 0.0
H24 H 0.23617 0.16174 0.42481 0.0
O25 O 0.24087 0.24587 0.50006 0.0
O26 O 0.294 0.29953 0.50081 0.0
H27 H 0.37265 0.31329 0.4374 0.0
H28 H 0.37316 0.28179 0.41692 0.0
C29 C 0.36939 0.28539 0.43491 0.0
H30 H 0.3911 0.28329 0.44446 0.0
H31 H 0.33866 0.35864 0.47188 0.0
O32 O 0.22034 0.16149 0.4934 0.0
C33 C 0.25881 0.28061 0.50381 0.0
Co34 Co 0.04324 0.25673 0.657 0.0
Co35 Co 0.04162 0.33072 0.65315 0.0
C36 C 0.08723 0.32466 0.68757 0.0
O37 O 0.07353 0.29147 0.6806 0.0
O38 O 0.07921 0.34721 0.67801 0.0
C39 C 0.09013 0.2278 0.66125 0.0
O40 O 0.11398 0.26371 0.66166 0.0
C41 C 0.05594 0.40619 0.64012 0.0
C42 C 0.00057 0.3904 0.62633 0.0
C43 C 0.03639 0.42019 0.62862 0.0
N44 N 0.03278 0.36958 0.64371 0.0
N45 N -0.00043 0.36071 0.63592 0.0
C46 C 0.09654 0.42606 0.64562 0.0
H47 H 0.10587 0.40592 0.64971 0.0
H48 H 0.11306 0.44402 0.63148 0.0
H49 H 0.10151 0.44415 0.66035 0.0
C50 C 0.07182 0.27546 0.61105 0.0
N51 N 0.05651 0.28134 0.62931 0.0
N52 N 0.05803 0.3137 0.62767 0.0
C53 C 0.07511 0.32965 0.60819 0.0
C54 C 0.08493 0.30629 0.59719 0.0
C55 C 0.0782 0.24317 0.6084 0.0
H56 H 0.05631 0.21847 0.61724 0.0
H57 H 0.1059 0.25067 0.6153 0.0
H58 H 0.07777 0.23566 0.59066 0.0
O59 O 0.99087 0.23691 0.66378 0.0
O60 O 0.99156 0.29062 0.66503 0.0
H61 H 0.09208 0.3716 0.58254 0.0
H62 H 0.10699 0.38876 0.61038 0.0
C63 C 0.08373 0.36732 0.60037 0.0
H64 H 0.05894 0.37049 0.60238 0.0
H65 H 0.97667 0.3338 0.63605 0.0
O66 O 0.05576 0.21676 0.65865 0.0
C67 C 0.97463 0.25536 0.66771 0.0
Co68 Co 0.78917 0.04862 0.82444 0.0
Co69 Co 0.71367 0.0471 0.82242 0.0
C70 C 0.76672 0.0926 0.85619 0.0
O71 O 0.78562 0.07858 0.84866 0.0
O72 O 0.73588 0.08499 0.84712 0.0
C73 C 0.86496 0.09487 0.82832 0.0
O74 O 0.85339 0.11911 0.82909 0.0
C75 C 0.6511 0.05987 0.80992 0.0
C76 C 0.61141 0.00348 0.7976 0.0
C77 C 0.61703 0.03924 0.79908 0.0
N78 N 0.66521 0.03734 0.81385 0.0
N79 N 0.64079 0.00354 0.80697 0.0
C80 C 0.6716 0.10078 0.81446 0.0
H81 H 0.70126 0.11064 0.81832 0.0
H82 H 0.66943 0.11623 0.79996 0.0
H83 H 0.6588 0.1065 0.82907 0.0
C84 C 0.79713 0.07673 0.77862 0.0
N85 N 0.77692 0.06209 0.79728 0.0
N86 N 0.74586 0.06331 0.79618 0.0
C87 C 0.74584 0.07952 0.77655 0.0
C88 C 0.77845 0.08896 0.76492 0.0
C89 C 0.83578 0.08324 0.77544 0.0
H90 H 0.83879 0.06114 0.78387 0.0
H91 H 0.85603 0.11068 0.7826 0.0
H92 H 0.84271 0.08341 0.75762 0.0
O93 O 0.75723 0.99616 0.8305 0.0
O94 O 0.70461 0.9973 0.83451 0.0
H95 H 0.68839 0.06257 0.77185 0.0
H96 H 0.719 0.09452 0.75102 0.0
C97 C 0.71608 0.08732 0.76903 0.0
H98 H 0.71834 0.11115 0.77863 0.0
H99 H 0.64518 0.98089 0.80748 0.0
O100 O 0.84137 0.06072 0.82535 0.0
C101 C 0.72305 0.98026 0.83565 0.0
Co102 Co 0.72883 0.78692 1.00165 0.0
Co103 Co 0.65958 0.71097 0.98979 0.0
C104 C 0.65733 0.75316 0.02859 0.0
O105 O 0.69145 0.77635 0.02492 0.0
O106 O 0.63852 0.72558 0.01565 0.0
C107 C 0.76378 0.86212 0.01507 0.0
O108 O 0.72999 0.85244 0.0218 0.0
C109 C 0.58697 0.65322 0.97139 0.0
C110 C 0.60444 0.61573 0.95632 0.0
C111 C 0.57445 0.62156 0.95822 0.0
N112 N 0.62293 0.66574 0.97649 0.0
N113 N 0.63286 0.64276 0.96779 0.0
C114 C 0.56659 0.67328 0.97731 0.0
H115 H 0.58643 0.70243 0.98221 0.0
H116 H 0.54927 0.67288 0.96308 0.0
H117 H 0.5479 0.65903 0.99165 0.0
C118 C 0.71552 0.80679 0.9568 0.0
N119 N 0.70782 0.78181 0.9732 0.0
N120 N 0.67898 0.7497 0.96749 0.0
C121 C 0.66782 0.75331 0.94685 0.0
C122 C 0.6903 0.78973 0.93964 0.0
C123 C 0.74627 0.84646 0.95768 0.0
H124 H 0.77222 0.84777 0.96361 0.0
H125 H 0.73866 0.86199 0.96962 0.0
H126 H 0.75146 0.86001 0.94107 0.0
O127 O 0.74954 0.75441 0.00551 0.0
O128 O 0.69882 0.69952 1.00106 0.0
H129 H 0.63514 0.69689 0.93576 0.0
H130 H 0.63479 0.73065 0.91694 0.0
C131 C 0.63493 0.72342 0.93474 0.0
H132 H 0.60914 0.71974 0.94257 0.0
H133 H 0.65964 0.64651 0.96882 0.0
O134 O 0.76976 0.83803 0.00594 0.0
C135 C 0.73331 0.71917 0.0058 0.0
Co136 Co 0.93477 0.72714 0.16323 0.0
Co137 Co 0.95086 0.663 0.1525 0.0
C138 C 0.9065 0.6566 0.19143 0.0
O139 O 0.91389 0.68943 0.18689 0.0
O140 O 0.9166 0.63888 0.17856 0.0
C141 C 0.87594 0.73705 0.17177 0.0
O142 O 0.86066 0.70077 0.16999 0.0
C143 C 0.94358 0.59263 0.13612 0.0
C144 C -0.00064 0.6128 0.12153 0.0
C145 C 0.96479 0.58112 0.12408 0.0
N146 N 0.96466 0.62936 0.14006 0.0
N147 N 0.9981 0.64108 0.13159 0.0
C148 C 0.90318 0.57037 0.14203 0.0
H149 H 0.89174 0.58897 0.14553 0.0
H150 H 0.88718 0.55096 0.1283 0.0
H151 H 0.89998 0.55384 0.15727 0.0
C152 C 0.90563 0.71184 0.11723 0.0
N153 N 0.92249 0.70558 0.13454 0.0
N154 N 0.92755 0.67743 0.12987 0.0
C155 C 0.91318 0.66443 0.10937 0.0
C156 C 0.89868 0.68564 0.10079 0.0
C157 C 0.89353 0.74036 0.11733 0.0
H158 H 0.91328 0.76499 0.12717 0.0
H159 H 0.86542 0.72805 0.12489 0.0
H160 H 0.89191 0.74968 0.10029 0.0
O161 O 0.98835 0.75508 0.16771 0.0
O162 O -0.00128 0.70762 0.16364 0.0
H163 H 0.94058 0.63441 0.09971 0.0
H164 H 0.90658 0.63173 0.07991 0.0
C165 C 0.91305 0.63236 0.09793 0.0
H166 H 0.89154 0.60606 0.10562 0.0
H167 H 0.01965 0.66869 0.13199 0.0
O168 O 0.91081 0.75729 0.16867 0.0
C169 C 0.01005 0.74173 0.1682 0.0
Co170 Co 0.20542 0.95704 0.324 0.0
Co171 Co 0.28051 0.95884 0.31638 0.0
C172 C 0.22942 0.9084 0.34998 0.0
O173 O 0.20888 0.92203 0.34485 0.0
O174 O 0.26055 0.91935 0.3402 0.0
C175 C 0.12874 0.91283 0.32497 0.0
O176 O 0.13806 0.8874 0.321 0.0
C177 C 0.34413 0.9484 0.30169 0.0
C178 C 0.37467 -0.00021 0.2817 0.0
C179 C 0.37498 0.96775 0.28777 0.0
N180 N 0.3264 0.9681 0.30329 0.0
N181 N 0.3451 -0.00116 0.29144 0.0
C182 C 0.33238 0.91275 0.31388 0.0
H183 H 0.31636 0.91115 0.32905 0.0
H184 H 0.3143 0.88895 0.30293 0.0
H185 H 0.35703 0.91048 0.31865 0.0
C186 C 0.19373 0.93439 0.27686 0.0
N187 N 0.21553 0.94759 0.29503 0.0
N188 N 0.24516 0.94422 0.29234 0.0
C189 C 0.24215 0.9271 0.27261 0.0
C190 C 0.20926 0.9201 0.26224 0.0
C191 C 0.15777 0.93407 0.27362 0.0
H192 H 0.15737 0.95633 0.28363 0.0
H193 H 0.13416 0.90669 0.27863 0.0
H194 H 0.15392 0.93815 0.25571 0.0
O195 O 0.239 0.00803 0.33275 0.0
O196 O 0.29252 0.00849 0.33013 0.0
H197 H 0.29501 0.93717 0.26097 0.0
H198 H 0.25628 0.89442 0.25073 0.0
C199 C 0.26749 0.91315 0.26539 0.0
H200 H 0.2715 0.89809 0.27941 0.0
H201 H 0.33708 0.01885 0.28958 0.0
O202 O 0.15399 0.94667 0.32665 0.0
C203 C 0.27407 0.02461 0.33508 0.0
Co204 Co 0.79057 0.73292 0.34519 0.0
Co205 Co 0.7153 0.65932 0.35148 0.0
C206 C 0.7699 0.66347 0.31809 0.0
O207 O 0.7904 0.69735 0.32363 0.0
O208 O 0.73829 0.64318 0.32733 0.0
C209 C 0.85876 0.78565 0.32638 0.0
O210 O 0.84339 0.76587 0.30835 0.0
C211 C 0.6594 0.58319 0.36624 0.0
C212 C 0.61232 0.59207 0.37404 0.0
C213 C 0.62342 0.56571 0.37472 0.0
N214 N 0.66915 0.61851 0.36111 0.0
N215 N 0.64069 0.62339 0.36557 0.0
C216 C 0.68339 0.56636 0.36193 0.0
H217 H 0.71263 0.58838 0.35888 0.0
H218 H 0.68221 0.54857 0.37605 0.0
H219 H 0.67283 0.54839 0.34692 0.0
C220 C 0.8035 0.71713 0.39072 0.0
N221 N 0.7805 0.71043 0.37335 0.0
N222 N 0.74888 0.67938 0.3767 0.0
C223 C 0.75055 0.66591 0.39699 0.0
C224 C 0.7853 0.68915 0.40645 0.0
C225 C 0.84405 0.74593 0.39009 0.0
H226 H 0.85647 0.74281 0.37442 0.0
H227 H 0.8599 0.74372 0.40429 0.0
H228 H 0.84702 0.77402 0.39004 0.0
O229 O 0.75549 0.74926 0.33701 0.0
O230 O 0.70176 0.69629 0.33904 0.0
H231 H 0.69276 0.6282 0.40353 0.0
H232 H 0.72382 0.63076 0.42545 0.0
C233 C 0.7202 0.6309 0.4071 0.0
H234 H 0.7211 0.60676 0.39997 0.0
H235 H 0.641 0.6485 0.36345 0.0
O236 O 0.84049 0.77715 0.34449 0.0
C237 C 0.72043 0.73097 0.3348 0.0
Co238 Co 0.05724 0.79101 0.50783 0.0
Co239 Co 0.052 0.71461 0.5158 0.0
C240 C 0.0951 0.76055 0.47784 0.0
O241 O 0.08363 0.78269 0.48326 0.0
O242 O 0.0874 0.73202 0.48966 0.0
C243 C 0.10167 0.86657 0.4991 0.0
O244 O 0.12606 0.85564 0.49583 0.0
C245 C 0.06827 0.65628 0.53139 0.0
C246 C 0.01178 0.61251 0.54128 0.0
C247 C 0.04861 0.6212 0.541 0.0
N248 N 0.04403 0.66793 0.52657 0.0
N249 N 0.01032 0.64141 0.53229 0.0
C250 C 0.10885 0.67759 0.52583 0.0
H251 H 0.11752 0.70681 0.52149 0.0
H252 H 0.12586 0.67698 0.53989 0.0
H253 H 0.1141 0.66426 0.5113 0.0
C254 C 0.08927 0.80599 0.55323 0.0
N255 N 0.0729 0.78297 0.5358 0.0
N256 N 0.07101 0.75084 0.53964 0.0
C257 C 0.08632 0.75262 0.55989 0.0
C258 C 0.09864 0.78765 0.56906 0.0
C259 C 0.0995 0.84612 0.55336 0.0
H260 H 0.07593 0.84891 0.54697 0.0
H261 H 0.12388 0.862 0.54231 0.0
H262 H 0.10704 0.85875 0.57015 0.0
O263 O 0.00407 0.75892 0.50352 0.0
O264 O 0.00114 0.7042 0.50517 0.0
H265 H 0.06337 0.6949 0.56794 0.0
H266 H 0.0946 0.72647 0.58875 0.0
C267 C 0.08938 0.72169 0.57056 0.0
H268 H 0.11297 0.72024 0.563 0.0
H269 H 0.98636 0.64345 0.53062 0.0
O270 O 0.06875 0.8428 0.50485 0.0
C271 C 0.9857 0.72375 0.50171 0.0
Co272 Co 0.26259 0.0524 0.67826 0.0
Co273 Co 0.33428 0.04728 0.68549 0.0
C274 C 0.33161 0.09231 0.64877 0.0
O275 O 0.29794 0.08052 0.65427 0.0
O276 O 0.35239 0.08392 0.66011 0.0
C277 C 0.23173 0.09774 0.67122 0.0
O278 O 0.26723 0.1224 0.66906 0.0
C279 C 0.40913 0.0636 0.70053 0.0
C280 C 0.39642 0.0075 0.7113 0.0
C281 C 0.42464 0.04427 0.71052 0.0
N282 N 0.37314 0.03927 0.69602 0.0
N283 N 0.36597 0.00578 0.70224 0.0
C284 C 0.42835 0.10393 0.69436 0.0
H285 H 0.40773 0.11284 0.69073 0.0
H286 H 0.44746 0.12147 0.70775 0.0
H287 H 0.44535 0.10821 0.67917 0.0
C288 C 0.27947 0.08232 0.72416 0.0
N289 N 0.28593 0.06637 0.70643 0.0
N290 N 0.31659 0.065 0.70975 0.0
C291 C 0.33068 0.08042 0.72988 0.0
C292 C 0.30792 0.09224 0.73954 0.0
C293 C 0.24915 0.09196 0.725 0.0
H294 H 0.22335 0.06921 0.71754 0.0
H295 H 0.25799 0.11787 0.71537 0.0
H296 H 0.24293 0.09671 0.74222 0.0
O297 O 0.24211 -0.00042 0.67251 0.0
O298 O 0.29422 0.9971 0.67383 0.0
H299 H 0.3667 0.05879 0.73756 0.0
H300 H 0.36738 0.09109 0.75791 0.0
C301 C 0.36569 0.08474 0.73981 0.0
H302 H 0.38995 0.10799 0.73143 0.0
H303 H 0.33989 0.98185 0.70094 0.0
O304 O 0.22226 0.06423 0.67566 0.0
C305 C 0.25929 0.98165 0.67007 0.0
Co306 Co 0.21128 0.26076 0.84644 0.0
Co307 Co 0.28685 0.33408 0.85047 0.0
C308 C 0.23542 0.32674 0.81494 0.0
O309 O 0.21506 0.29352 0.82169 0.0
O310 O 0.26533 0.34908 0.82514 0.0
C311 C 0.13553 0.23041 0.84348 0.0
O312 O 0.14685 0.26616 0.84282 0.0
C313 C 0.34365 0.41075 0.86247 0.0
C314 C 0.39033 0.4023 0.87212 0.0
C315 C 0.37949 0.42886 0.87109 0.0
N316 N 0.33365 0.37494 0.85894 0.0
N317 N 0.36188 0.37025 0.86444 0.0
C318 C 0.31988 0.42728 0.85663 0.0
H319 H 0.29022 0.40523 0.85535 0.0
H320 H 0.32302 0.44851 0.86897 0.0
H321 H 0.3289 0.44128 0.84018 0.0
C322 C 0.20145 0.27997 0.89228 0.0
N323 N 0.22221 0.28618 0.87382 0.0
N324 N 0.25379 0.31776 0.87594 0.0
C325 C 0.25375 0.3326 0.8961 0.0
C326 C 0.22038 0.3093 0.90683 0.0
C327 C 0.16359 0.24697 0.89599 0.0
H328 H 0.16156 0.2219 0.88806 0.0
H329 H 0.14233 0.25257 0.88866 0.0
H330 H 0.15763 0.24167 0.9141 0.0
O331 O 0.24412 0.24107 0.84057 0.0
O332 O 0.29785 0.29413 0.83966 0.0
H333 H 0.31142 0.37172 0.90166 0.0
H334 H 0.2806 0.37194 0.92286 0.0
C335 C 0.28389 0.36913 0.9047 0.0
H336 H 0.28253 0.39193 0.89597 0.0
H337 H 0.36128 0.34483 0.86364 0.0
O338 O 0.15946 0.22009 0.84566 0.0
C339 C 0.27899 0.25885 0.83715 0.0
Co340 Co 0.95767 0.2074 0.01404 0.0
Co341 Co 0.95937 0.28224 0.02093 0.0
C342 C 0.91612 0.23477 0.9841 0.0
O343 O 0.92929 0.21409 0.98973 0.0
O344 O 0.92306 0.26343 0.99552 0.0
C345 C 0.91073 0.13247 0.00984 0.0
O346 O 0.88729 0.14505 0.01043 0.0
C347 C 0.94313 0.34134 0.03527 0.0
C348 C -0.00061 0.3847 0.04583 0.0
C349 C 0.9628 0.3766 0.04463 0.0
N350 N 0.96713 0.32903 0.03141 0.0
N351 N 0.0007 0.35529 0.03756 0.0
C352 C 0.9028 0.32056 0.02907 0.0
H353 H 0.89425 0.29175 0.02383 0.0
H354 H 0.88528 0.31982 0.04323 0.0
H355 H 0.89803 0.33524 0.0151 0.0
C356 C 0.92831 0.19363 0.06025 0.0
N357 N 0.94297 0.21587 0.04228 0.0
N358 N 0.94181 0.24669 0.04521 0.0
C359 C 0.92519 0.24434 0.06507 0.0
C360 C 0.91564 0.21047 0.07515 0.0
C361 C 0.92324 0.15533 0.06209 0.0
H362 H 0.94468 0.15329 0.05221 0.0
H363 H 0.89507 0.13466 0.05606 0.0
H364 H 0.92572 0.14815 0.07951 0.0
O365 O 0.01058 0.24008 0.00934 0.0
O366 O 0.01014 0.2934 0.00948 0.0
H367 H 0.94243 0.30115 0.07249 0.0
H368 H 0.90938 0.26813 0.09205 0.0
C369 C 0.91739 0.27328 0.07418 0.0
H370 H 0.89421 0.27268 0.06466 0.0
H371 H 0.02448 0.35279 0.0366 0.0
O372 O 0.94538 0.15539 0.01115 0.0
C373 C 0.02706 0.27508 0.00676 0.0
Co374 Co 0.73673 0.93835 0.18267 0.0
Co375 Co 0.66735 0.94824 0.18852 0.0
C376 C 0.66395 0.89728 0.15494 0.0
O377 O 0.6973 0.90851 0.16089 0.0
O378 O 0.64474 0.90939 0.16459 0.0
C379 C 0.74666 0.87938 0.18454 0.0
O380 O 0.71105 0.86635 0.18831 0.0
C381 C 0.59613 0.94453 0.20208 0.0
C382 C 0.61935 0.99536 0.22275 0.0
C383 C 0.58609 0.96469 0.21627 0.0
N384 N 0.63358 0.96225 0.20079 0.0
N385 N 0.64709 0.99279 0.21298 0.0
C386 C 0.57085 0.90997 0.18931 0.0
H387 H 0.58431 0.90895 0.17357 0.0
H388 H 0.5648 0.88518 0.19941 0.0
H389 H 0.5442 0.90893 0.18538 0.0
C390 C 0.7225 0.91769 0.22979 0.0
N391 N 0.71597 0.93178 0.21125 0.0
N392 N 0.68365 0.93017 0.21304 0.0
C393 C 0.66774 0.91313 0.23252 0.0
C394 C 0.69182 0.9044 0.24365 0.0
C395 C 0.75671 0.915 0.23388 0.0
H396 H 0.78 0.93495 0.22318 0.0
H397 H 0.75083 0.88631 0.23045 0.0
H398 H 0.7649 0.9209 0.2517 0.0
O399 O 0.7613 0.99038 0.17361 0.0
O400 O 0.7104 0.99547 0.17517 0.0
H401 H 0.62632 0.9263 0.24258 0.0
H402 H 0.61969 0.8831 0.25393 0.0
C403 C 0.62856 0.90129 0.23896 0.0
H404 H 0.60979 0.88631 0.22482 0.0
H405 H 0.67546 0.01125 0.21525 0.0
O406 O 0.76764 0.91426 0.18162 0.0
C407 C 0.745 0.00915 0.17061 0.0
H408 H 0.55083 0.51585 0.36869 0.0
H409 H 0.64685 0.53736 0.40825 0.0
H410 H 0.60658 0.48512 0.4332 0.0
H411 H 0.49482 0.50398 0.41182 0.0
H412 H 0.45214 0.46778 0.39985 0.0
H413 H 0.48895 0.49985 0.38195 0.0
H414 H 0.49 0.44527 0.36161 0.0
H415 H 0.45252 0.41278 0.37921 0.0
H416 H 0.49515 0.41129 0.37759 0.0
H417 H 0.55404 0.43819 0.45767 0.0
H418 H 0.49489 0.40032 0.47825 0.0
H419 H 0.43402 0.41146 0.42282 0.0
C420 C 0.5635 0.50832 0.382 0.0
C421 C 0.60201 0.52956 0.38607 0.0
C422 C 0.61766 0.52019 0.40418 0.0
C423 C 0.59487 0.49082 0.41861 0.0
C424 C 0.55662 0.47118 0.41461 0.0
C425 C 0.54117 0.47929 0.3965 0.0
C426 C 0.49915 0.45769 0.39732 0.0
C427 C 0.48285 0.4839 0.39778 0.0
C428 C 0.48327 0.43011 0.37777 0.0
C429 C 0.49327 0.43762 0.41926 0.0
C430 C 0.52656 0.44502 0.42887 0.0
C431 C 0.52779 0.43152 0.45003 0.0
C432 C 0.49412 0.41004 0.46161 0.0
C433 C 0.45998 0.40284 0.45205 0.0
C434 C 0.45975 0.4165 0.43054 0.0
H435 H 0.01302 0.4303 0.58849 0.0
H436 H 0.09033 0.49096 0.64191 0.0
H437 H 0.10973 0.55005 0.62178 0.0
H438 H 0.06916 0.49053 0.54195 0.0
H439 H 0.02853 0.4856 0.52788 0.0
H440 H 0.02506 0.44826 0.54499 0.0
H441 H 0.97255 0.44883 0.5682 0.0
H442 H 0.97569 0.48586 0.55111 0.0
H443 H 0.98083 0.49166 0.58095 0.0
H444 H 0.11463 0.60289 0.59764 0.0
H445 H 0.10248 0.64371 0.5732 0.0
H446 H 0.02196 0.54753 0.53599 0.0
C447 C 0.03444 0.45594 0.59588 0.0
C448 C 0.0505 0.45598 0.61665 0.0
C449 C 0.07827 0.49014 0.62577 0.0
C450 C 0.08938 0.52384 0.61446 0.0
C451 C 0.07262 0.52271 0.59402 0.0
C452 C 0.04576 0.48949 0.58486 0.0
C453 C 0.02943 0.49552 0.5638 0.0
C454 C 0.03861 0.479 0.54345 0.0
C455 C 0.98715 0.47954 0.56618 0.0
C456 C 0.05016 0.53749 0.56291 0.0
C457 C 0.07551 0.55282 0.5802 0.0
C458 C 0.09563 0.59119 0.58371 0.0
C459 C 0.08892 0.61424 0.56957 0.0
C460 C 0.06227 0.59875 0.55225 0.0
C461 C 0.04326 0.56004 0.54872 0.0
H462 H 0.4715 0.01712 0.70672 0.0
H463 H 0.45624 0.09972 0.74178 0.0
H464 H 0.50973 0.11354 0.76616 0.0
H465 H 0.48719 0.97917 0.75271 0.0
H466 H 0.52152 0.97004 0.74047 0.0
H467 H 0.4874 0.97213 0.72303 0.0
H468 H 0.53961 0.02335 0.69876 0.0
H469 H 0.57405 0.02102 0.71595 0.0
H470 H 0.5757 0.06486 0.71187 0.0
H471 H 0.55895 0.11095 0.79042 0.0
H472 H 0.59995 0.09365 0.81097 0.0
H473 H 0.58185 0.01256 0.75969 0.0
C474 C 0.48046 0.03917 0.71896 0.0
C475 C 0.46079 0.05837 0.72184 0.0
C476 C 0.47216 0.08601 0.73858 0.0
C477 C 0.50224 0.09369 0.75269 0.0
C478 C 0.52057 0.07351 0.74977 0.0
C479 C 0.51032 0.04712 0.73308 0.0
C480 C 0.53174 0.02658 0.73465 0.0
C481 C 0.50538 0.98451 0.73792 0.0
C482 C 0.55677 0.03444 0.71409 0.0
C483 C 0.55456 0.04438 0.75534 0.0
C484 C 0.54827 0.07174 0.76376 0.0
C485 C 0.56469 0.09016 0.78367 0.0
C486 C 0.58805 0.08026 0.79522 0.0
C487 C 0.59445 0.05206 0.78683 0.0
C488 C 0.57761 0.03431 0.76656 0.0
H489 H 0.56655 0.59101 0.91733 0.0
H490 H 0.50298 0.60275 0.97096 0.0
H491 H 0.44476 0.56241 0.95035 0.0
H492 H 0.50457 0.58438 0.87037 0.0
H493 H 0.51174 0.55007 0.85631 0.0
H494 H 0.54823 0.58521 0.87332 0.0
H495 H 0.55102 0.53386 0.89649 0.0
H496 H 0.51482 0.49874 0.87956 0.0
H497 H 0.50914 0.49792 0.90941 0.0
H498 H 0.39355 0.51322 0.92653 0.0
H499 H 0.35468 0.45855 0.90288 0.0
H500 H 0.45215 0.4793 0.86506 0.0
C501 C 0.54043 0.58576 0.92458 0.0
C502 C 0.53932 0.6005 0.94559 0.0
C503 C 0.50461 0.59264 0.95461 0.0
C504 C 0.47139 0.56964 0.94303 0.0
C505 C 0.47352 0.55507 0.92243 0.0
C506 C 0.50729 0.56302 0.91329 0.0
C507 C 0.50231 0.54091 0.89226 0.0
C508 C 0.51761 0.56669 0.87186 0.0
C509 C 0.52037 0.51641 0.89459 0.0
C510 C 0.46037 0.51781 0.89149 0.0
C511 C 0.44412 0.52689 0.90871 0.0
C512 C 0.40586 0.5067 0.91259 0.0
C513 C 0.38389 0.47593 0.89889 0.0
C514 C 0.40035 0.46574 0.88163 0.0
C515 C 0.43886 0.48738 0.87769 0.0
H516 H 0.99034 0.45033 0.03833 0.0
H517 H 0.90746 0.35562 0.07563 0.0
H518 H 0.89372 0.39732 0.09804 0.0
H519 H 0.02799 0.50876 0.08269 0.0
H520 H 0.03659 0.55076 0.06866 0.0
H521 H 0.03506 0.51317 0.05291 0.0
H522 H 0.98353 0.511 0.02742 0.0
H523 H 0.9853 0.54911 0.04288 0.0
H524 H 0.94175 0.50628 0.03978 0.0
H525 H 0.89683 0.45062 0.1203 0.0
H526 H 0.91314 0.51014 0.13855 0.0
H527 H 0.99284 0.56973 0.08587 0.0
C528 C 0.9683 0.43834 0.05065 0.0
C529 C 0.94901 0.39976 0.05477 0.0
C530 C 0.9213 0.38494 0.07154 0.0
C531 C 0.91366 0.4085 0.08453 0.0
C532 C 0.93388 0.44667 0.08041 0.0
C533 C 0.96024 0.46141 0.06361 0.0
C534 C 0.98033 0.50346 0.06368 0.0
C535 C 0.02247 0.51998 0.0672 0.0
C536 C 0.97223 0.51833 0.04216 0.0
C537 C 0.96227 0.51018 0.08368 0.0
C538 C 0.93534 0.47719 0.09304 0.0
C539 C 0.91704 0.47664 0.1127 0.0
C540 C 0.92632 0.51069 0.12289 0.0
C541 C 0.95353 0.5448 0.11335 0.0
C542 C 0.97157 0.54422 0.09349 0.0
H543 H 0.56543 0.01401 0.23003 0.0
H544 H 0.52426 0.89545 0.2246 0.0
H545 H 0.46542 0.88262 0.24245 0.0
H546 H 0.52912 0.01009 0.28425 0.0
H547 H 0.51832 0.04642 0.27896 0.0
H548 H 0.55595 0.04609 0.2642 0.0
H549 H 0.52602 0.04685 0.22636 0.0
H550 H 0.48854 0.04768 0.241 0.0
H551 H 0.47849 0.01179 0.22073 0.0
H552 H 0.41056 0.88333 0.26153 0.0
H553 H 0.36545 0.8976 0.27928 0.0
H554 H 0.44585 0.01556 0.27487 0.0
C555 C 0.54391 0.98528 0.23232 0.0
C556 C 0.54917 0.9558 0.2252 0.0
C557 C 0.52048 0.91862 0.22891 0.0
C558 C 0.48707 0.91103 0.2394 0.0
C559 C 0.48303 0.94089 0.24635 0.0
C560 C 0.51078 0.97727 0.24293 0.0
C561 C 0.50038 0.00452 0.25251 0.0
C562 C 0.52756 0.02816 0.27108 0.0
C563 C 0.49822 0.02915 0.23405 0.0
C564 C 0.46233 0.97786 0.26185 0.0
C565 C 0.45263 0.94126 0.25815 0.0
C566 C 0.41814 0.91191 0.26479 0.0
C567 C 0.39281 0.9203 0.27521 0.0
C568 C 0.40235 0.95773 0.27911 0.0
C569 C 0.43774 0.98663 0.27239 0.0
H570 H 0.17246 0.9247 0.49563 0.0
H571 H 0.05728 0.8981 0.50043 0.0
H572 H 0.07772 0.96522 0.49948 0.0
H573 H 0.20992 0.00442 0.53111 0.0
H574 H 0.2521 0.02991 0.51512 0.0
H575 H 0.22815 0.97984 0.51557 0.0
H576 H 0.22439 0.97846 0.47231 0.0
H577 H 0.24842 0.02853 0.47174 0.0
H578 H 0.20374 0.00223 0.45835 0.0
H579 H 0.11124 0.03547 0.49808 0.0
H580 H 0.15528 0.10328 0.49684 0.0
H581 H 0.24777 0.08224 0.49386 0.0
C582 C 0.15145 0.9329 0.49634 0.0
C583 C 0.11331 0.90631 0.49799 0.0
C584 C 0.0867 0.91815 0.49912 0.0
C585 C 0.09801 0.95613 0.49859 0.0
C586 C 0.13595 0.98166 0.49706 0.0
C587 C 0.16222 0.9705 0.49602 0.0
C588 C 0.20128 0.00331 0.49491 0.0
C589 C 0.22419 0.00442 0.5154 0.0
C590 C 0.22057 0.00311 0.47302 0.0
C591 C 0.1929 0.03473 0.49538 0.0
C592 C 0.15512 0.02181 0.49659 0.0
C593 C 0.14089 0.04592 0.49715 0.0
C594 C 0.16607 0.08431 0.49644 0.0
C595 C 0.20487 0.09792 0.49526 0.0
C596 C 0.21827 0.07271 0.49477 0.0
H597 H 0.16217 0.24402 0.66401 0.0
H598 H 0.04868 0.15146 0.66227 0.0
H599 H 0.07236 0.10741 0.66499 0.0
H600 H 0.20214 0.20206 0.6305 0.0
H601 H 0.24492 0.22211 0.64619 0.0
H602 H 0.21872 0.24593 0.6446 0.0
H603 H 0.21603 0.2473 0.68783 0.0
H604 H 0.24228 0.22353 0.68957 0.0
H605 H 0.19773 0.20439 0.70324 0.0
H606 H 0.10907 0.07378 0.668 0.0
H607 H 0.15572 0.05333 0.67029 0.0
H608 H 0.24436 0.16871 0.6692 0.0
C609 C 0.14219 0.2145 0.66422 0.0
C610 C 0.1036 0.20111 0.66294 0.0
C611 C 0.07841 0.16227 0.66324 0.0
C612 C 0.09158 0.13709 0.66479 0.0
C613 C 0.12991 0.15132 0.66598 0.0
C614 C 0.15479 0.18913 0.66566 0.0
C615 C 0.19459 0.19749 0.66685 0.0
C616 C 0.21636 0.21811 0.64578 0.0
C617 C 0.21377 0.21947 0.68814 0.0
C618 C 0.18833 0.15843 0.66779 0.0
C619 C 0.15088 0.13212 0.66739 0.0
C620 C 0.13847 0.09413 0.66828 0.0
C621 C 0.16513 0.0828 0.66958 0.0
C622 C 0.20361 0.10945 0.66982 0.0
C623 C 0.21516 0.14766 0.66891 0.0
H624 H 0.07808 0.24439 0.84444 0.0
H625 H 0.10292 0.15464 0.83953 0.0
H626 H 0.03569 0.10932 0.83595 0.0
H627 H 0.99295 0.19355 0.87675 0.0
H628 H 0.97078 0.21561 0.86255 0.0
H629 H 0.0206 0.23999 0.86578 0.0
H630 H 0.02778 0.24979 0.82282 0.0
H631 H 0.97797 0.22484 0.81961 0.0
H632 H 0.0059 0.20993 0.80462 0.0
H633 H 0.96588 0.07442 0.83133 0.0
H634 H 0.89874 0.05246 0.82697 0.0
H635 H 0.92107 0.16576 0.83535 0.0
C636 C 0.06945 0.2152 0.84272 0.0
C637 C 0.0956 0.20296 0.84219 0.0
C638 C 0.08321 0.16453 0.83999 0.0
C639 C 0.04516 0.13863 0.83795 0.0
C640 C 0.02011 0.15174 0.83832 0.0
C641 C 0.03177 0.18909 0.8408 0.0
C642 C -0.00052 0.19622 0.84032 0.0
C643 C 0.99574 0.21228 0.86268 0.0
C644 C 0.003 0.22169 0.82067 0.0
C645 C 0.9678 0.15707 0.83684 0.0
C646 C 0.98015 0.13174 0.83579 0.0
C647 C 0.95584 0.09396 0.83224 0.0
C648 C 0.91784 0.08179 0.82975 0.0
C649 C 0.90479 0.10744 0.8308 0.0
C650 C 0.93018 0.14547 0.83445 0.0
H651 H 0.75772 0.92159 0.02859 0.0
H652 H 0.83673 0.89123 0.00274 0.0
H653 H 0.88483 0.95767 1.00077 0.0
H654 H 0.78308 0.99715 0.99385 0.0
H655 H 0.77729 0.0256 0.01439 0.0
H656 H 0.75057 0.97574 0.0165 0.0
H657 H 0.77557 0.97877 0.05658 0.0
H658 H 0.80213 0.02878 0.05469 0.0
H659 H 0.8251 0.00288 0.06139 0.0
H660 H 0.92295 0.02762 0.99935 0.0
H661 H 0.94764 0.09567 0.99818 0.0
H662 H 0.84231 0.07887 0.0235 0.0
C663 C 0.78531 0.92881 0.02291 0.0
C664 C 0.79355 0.90132 0.01588 0.0
C665 C 0.82988 0.91192 0.00828 0.0
C666 C 0.85739 0.94954 0.00714 0.0
C667 C 0.84805 0.97601 0.01373 0.0
C668 C 0.81293 0.96609 0.02156 0.0
C669 C 0.80914 -0.00019 0.02619 0.0
C670 C 0.7782 -0.00046 0.01187 0.0
C671 C 0.80261 0.00273 0.0512 0.0
C672 C 0.8472 0.03021 0.01903 0.0
C673 C 0.86953 0.01608 0.01228 0.0
C674 C 0.90579 0.03904 0.00471 0.0
C675 C 0.91952 0.07752 0.00405 0.0
C676 C 0.89669 0.09226 0.01055 0.0
C677 C 0.86021 0.06827 0.01818 0.0
H678 H 0.818 0.89409 0.17533 0.0
H679 H 0.70791 0.80593 0.19482 0.0
H680 H 0.73034 0.76134 0.19525 0.0
H681 H 0.8379 0.83886 0.13848 0.0
H682 H 0.88643 0.86025 0.14584 0.0
H683 H 0.86259 0.88636 0.14812 0.0
H684 H 0.88172 0.89989 0.18973 0.0
H685 H 0.90566 0.87382 0.18758 0.0
H686 H 0.8702 0.86168 0.20851 0.0
H687 H 0.76271 0.72568 0.19222 0.0
H688 H 0.80412 0.70016 0.18573 0.0
H689 H 0.894 0.8104 0.16817 0.0
C690 C 0.79877 0.86546 0.17982 0.0
C691 C 0.76125 0.85352 0.18505 0.0
C692 C 0.73679 0.81578 0.19071 0.0
C693 C 0.74924 0.79017 0.19107 0.0
C694 C 0.78622 0.80268 0.18573 0.0
C695 C 0.81073 0.83933 0.18021 0.0
C696 C 0.84878 0.84486 0.1745 0.0
C697 C 0.85954 0.85837 0.1503 0.0
C698 C 0.87834 0.87165 0.19107 0.0
C699 C 0.84148 0.80549 0.17739 0.0
C700 C 0.80521 0.78178 0.18399 0.0
C701 C 0.79127 0.74391 0.18718 0.0
C702 C 0.815 0.7297 0.18338 0.0
C703 C 0.85225 0.75332 0.17647 0.0
C704 C 0.86573 0.79178 0.17362 0.0
H705 H 0.07112 0.85677 0.30252 0.0
H706 H 0.09824 0.94557 0.35001 0.0
H707 H 0.03137 0.9257 0.35345 0.0
H708 H 0.99495 0.86375 0.27492 0.0
H709 H 0.96805 0.81419 0.27051 0.0
H710 H 0.01815 0.83727 0.27098 0.0
H711 H 0.01461 0.79206 0.30208 0.0
H712 H 0.96463 0.76937 0.30174 0.0
H713 H 0.98957 0.78832 0.32745 0.0
H714 H 0.96159 0.8913 0.35508 0.0
H715 H 0.89371 0.8477 0.35248 0.0
H716 H 0.91308 0.78527 0.30146 0.0
C717 C 0.0629 0.87213 0.3135 0.0
C718 C 0.08944 0.90241 0.32616 0.0
C719 C 0.07804 0.92228 0.34019 0.0
C720 C 0.04026 0.91123 0.34222 0.0
C721 C 0.01463 0.88095 0.32966 0.0
C722 C 0.02551 0.86209 0.31528 0.0
C723 C 0.99246 0.8302 0.30388 0.0
C724 C 0.99347 0.83676 0.27857 0.0
C725 C 0.9902 0.79279 0.30912 0.0
C726 C 0.9612 0.83311 0.31482 0.0
C727 C 0.97451 0.86256 0.32962 0.0
C728 C 0.95078 0.8687 0.34316 0.0
C729 C 0.91241 0.84385 0.34163 0.0
C730 C 0.89842 0.81375 0.32646 0.0
C731 C 0.92308 0.80874 0.31269 0.0
H732 H 0.24669 0.07202 0.33829 0.0
H733 H 0.34256 0.06152 0.35564 0.0
H734 H 0.36783 0.11947 0.37782 0.0
H735 H 0.29645 0.17653 0.33638 0.0
H736 H 0.25689 0.17723 0.34827 0.0
H737 H 0.25003 0.13902 0.33073 0.0
H738 H 0.21214 0.09256 0.36227 0.0
H739 H 0.21898 0.13051 0.37984 0.0
H740 H 0.23297 0.09817 0.38945 0.0
H741 H 0.37622 0.17139 0.4035 0.0
H742 H 0.3676 0.21284 0.4294 0.0
H743 H 0.26866 0.19227 0.39331 0.0
C744 C 0.27353 0.0824 0.34624 0.0
C745 C 0.29268 0.06223 0.34523 0.0
C746 C 0.32756 0.07666 0.35601 0.0
C747 C 0.34211 0.10957 0.36864 0.0
C748 C 0.32179 0.12806 0.36992 0.0
C749 C 0.28849 0.11522 0.35868 0.0
C750 C 0.27018 0.13792 0.36432 0.0
C751 C 0.2683 0.15893 0.3437 0.0
C752 C 0.2313 0.11332 0.37458 0.0
C753 C 0.29738 0.16443 0.38136 0.0
C754 C 0.32723 0.15866 0.38421 0.0
C755 C 0.35356 0.17685 0.40095 0.0
C756 C 0.34857 0.20051 0.41552 0.0
C757 C 0.31751 0.20573 0.41325 0.0
C758 C 0.29259 0.18866 0.39539 0.0
H759 H 0.18354 0.25161 0.50534 0.0
H760 H 0.28763 0.34807 0.5253 0.0
H761 H 0.25254 0.37116 0.54699 0.0
H762 H 0.12678 0.29938 0.50291 0.0
H763 H 0.08642 0.25877 0.51383 0.0
H764 H 0.11935 0.25364 0.49674 0.0
H765 H 0.12727 0.21504 0.52808 0.0
H766 H 0.09462 0.2202 0.54523 0.0
H767 H 0.14065 0.23473 0.55565 0.0
H768 H 0.20684 0.37727 0.57186 0.0
H769 H 0.15488 0.36656 0.59675 0.0
H770 H 0.08024 0.26831 0.55887 0.0
C771 C 0.19902 0.27816 0.51374 0.0
C772 C 0.23838 0.29806 0.5136 0.0
C773 C 0.2575 0.33249 0.525 0.0
C774 C 0.23776 0.34582 0.53736 0.0
C775 C 0.19895 0.32474 0.5378 0.0
C776 C 0.17979 0.29189 0.52598 0.0
C777 C 0.13844 0.27251 0.53081 0.0
C778 C 0.11645 0.271 0.50982 0.0
C779 C 0.12446 0.23333 0.54052 0.0
C780 C 0.13743 0.29856 0.54807 0.0
C781 C 0.17251 0.3288 0.5517 0.0
C782 C 0.17912 0.3543 0.56871 0.0
C783 C 0.14941 0.34811 0.58271 0.0
C784 C 0.11361 0.31668 0.57962 0.0
C785 C 0.10737 0.29252 0.56156 0.0
H786 H 0.80899 0.08102 0.72633 0.0
H787 H 0.78774 0.15868 0.76265 0.0
H788 H 0.82786 0.20865 0.73632 0.0
H789 H 0.90183 0.13959 0.72184 0.0
H790 H 0.90774 0.12489 0.69458 0.0
H791 H 0.86983 0.0933 0.71204 0.0
H792 H 0.82271 0.08427 0.68089 0.0
H793 H 0.8606 0.11571 0.66315 0.0
H794 H 0.82295 0.12432 0.66904 0.0
H795 H 0.87888 0.25236 0.71044 0.0
H796 H 0.93669 0.28574 0.68828 0.0
H797 H 0.92773 0.18018 0.67056 0.0
C798 C 0.81209 0.10836 0.72833 0.0
C799 C 0.79531 0.11608 0.74642 0.0
C800 C 0.79987 0.15208 0.74862 0.0
C801 C 0.82274 0.18066 0.73378 0.0
C802 C 0.84074 0.17271 0.71681 0.0
C803 C 0.83544 0.13729 0.71394 0.0
C804 C 0.86205 0.13704 0.69674 0.0
C805 C 0.88682 0.1229 0.70692 0.0
C806 C 0.8408 0.11397 0.67624 0.0
C807 C 0.88432 0.17807 0.69114 0.0
C808 C 0.87105 0.19811 0.70242 0.0
C809 C 0.88907 0.23686 0.7012 0.0
C810 C 0.92193 0.25562 0.68856 0.0
C811 C 0.93679 0.23563 0.67765 0.0
C812 C 0.91701 0.19631 0.67855 0.0
H813 H 0.69187 0.95812 0.87666 0.0
H814 H 0.72074 0.91965 0.81689 0.0
H815 H 0.70561 0.8608 0.83592 0.0
H816 H 0.73685 0.92969 0.91209 0.0
H817 H 0.7045 0.91636 0.935 0.0
H818 H 0.70848 0.95104 0.91547 0.0
H819 H 0.63781 0.91249 0.90713 0.0
H820 H 0.63349 0.87778 0.9269 0.0
H821 H 0.61766 0.8646 0.89859 0.0
H822 H 0.69652 0.81074 0.86288 0.0
H823 H 0.69609 0.7746 0.89597 0.0
H824 H 0.67659 0.84722 0.93872 0.0
C825 C 0.69317 0.93643 0.86735 0.0
C826 C 0.70621 0.94261 0.84516 0.0
C827 C 0.70981 0.91477 0.83374 0.0
C828 C 0.70132 0.88135 0.84442 0.0
C829 C 0.68976 0.8765 0.86663 0.0
C830 C 0.68564 0.90329 0.87798 0.0
C831 C 0.67833 0.8939 0.90257 0.0
C832 C 0.70886 0.92457 0.91712 0.0
C833 C 0.63951 0.88676 0.90918 0.0
C834 C 0.68019 0.8584 0.9034 0.0
C835 C 0.68602 0.84836 0.88244 0.0
C836 C 0.69124 0.81792 0.8793 0.0
C837 C 0.69094 0.79756 0.8981 0.0
C838 C 0.68593 0.80807 0.91967 0.0
C839 C 0.67998 0.83848 0.92228 0.0
H840 H 0.80849 0.75217 0.01104 0.0
H841 H 0.70627 0.64697 0.01994 0.0
H842 H 0.74141 0.62211 0.0399 0.0
H843 H 0.87321 0.71299 0.00628 0.0
H844 H 0.90894 0.7518 0.0216 0.0
H845 H 0.87731 0.75822 0.00402 0.0
H846 H 0.85914 0.78516 0.03766 0.0
H847 H 0.89046 0.77871 0.05527 0.0
H848 H 0.84208 0.75797 0.06285 0.0
H849 H 0.78525 0.61344 0.06508 0.0
H850 H 0.83338 0.62189 0.09262 0.0
H851 H 0.90727 0.73174 0.06612 0.0
C852 C 0.79359 0.72348 0.01655 0.0
C853 C 0.7546 0.7015 0.01391 0.0
C854 C 0.73617 0.66424 0.02159 0.0
C855 C 0.75594 0.64989 0.03293 0.0
C856 C 0.79419 0.67292 0.03608 0.0
C857 C 0.81288 0.7088 0.02778 0.0
C858 C 0.85299 0.7295 0.03549 0.0
C859 C 0.87969 0.73865 0.01566 0.0
C860 C 0.86163 0.76489 0.04859 0.0
C861 C 0.85352 0.70047 0.05048 0.0
C862 C 0.81958 0.66772 0.05032 0.0
C863 C 0.8122 0.63855 0.06487 0.0
C864 C 0.83967 0.6435 0.08041 0.0
C865 C 0.87385 0.67743 0.08133 0.0
C866 C 0.88134 0.7055 0.06559 0.0
H867 H 0.02756 0.75087 0.21176 0.0
H868 H 0.07493 0.78696 0.14593 0.0
H869 H 0.13513 0.83344 0.16299 0.0
H870 H 0.06682 0.8382 0.23546 0.0
H871 H 0.07479 0.82467 0.26256 0.0
H872 H 0.03788 0.79116 0.24523 0.0
H873 H 0.06546 0.74732 0.24774 0.0
H874 H 0.10237 0.7807 0.26527 0.0
H875 H 0.11335 0.76449 0.24006 0.0
H876 H 0.18785 0.88066 0.18781 0.0
H877 H 0.22732 0.92381 0.21783 0.0
H878 H 0.14444 0.8554 0.26683 0.0
C879 C 0.05108 0.76783 0.20102 0.0
C880 C 0.04731 0.76511 0.17765 0.0
C881 C 0.07791 0.78837 0.16392 0.0
C882 C 0.11202 0.81477 0.17347 0.0
C883 C 0.11478 0.81731 0.19672 0.0
C884 C 0.08507 0.79418 0.21028 0.0
C885 C 0.09381 0.80421 0.23464 0.0
C886 C 0.06673 0.81522 0.24506 0.0
C887 C 0.09376 0.77228 0.24769 0.0
C888 C 0.13265 0.83728 0.23272 0.0
C889 C 0.14461 0.84433 0.2108 0.0
C890 C 0.17892 0.87504 0.20503 0.0
C891 C 0.20116 0.89934 0.22209 0.0
C892 C 0.18867 0.89279 0.24445 0.0
C893 C 0.15446 0.86099 0.24978 0.0
H894 H 0.94398 0.75721 0.49554 0.0
H895 H 0.94042 0.65155 0.48753 0.0
H896 H 0.88069 0.6268 0.46732 0.0
H897 H 0.84074 0.71914 0.50014 0.0
H898 H 0.84394 0.75764 0.48438 0.0
H899 H 0.8821 0.76426 0.50193 0.0
H900 H 0.92683 0.78992 0.46803 0.0
H901 H 0.88894 0.78328 0.45045 0.0
H902 H 0.91619 0.76199 0.44315 0.0
H903 H 0.82802 0.61786 0.44214 0.0
H904 H 0.78777 0.62565 0.4148 0.0
H905 H 0.82455 0.73627 0.44028 0.0
C906 C 0.93016 0.72846 0.49016 0.0
C907 C 0.94694 0.70631 0.49319 0.0
C908 C 0.92804 0.669 0.48559 0.0
C909 C 0.89404 0.65469 0.4741 0.0
C910 C 0.87904 0.67784 0.47065 0.0
C911 C 0.89636 0.71384 0.47874 0.0
C912 C 0.87707 0.73455 0.47079 0.0
C913 C 0.85994 0.74447 0.49049 0.0
C914 C 0.90385 0.76947 0.45731 0.0
C915 C 0.84721 0.70524 0.45607 0.0
C916 C 0.84834 0.67248 0.45645 0.0
C917 C 0.8262 0.64299 0.4422 0.0
C918 C 0.80326 0.64755 0.42679 0.0
C919 C 0.80284 0.68141 0.4257 0.0
C920 C 0.82401 0.70993 0.44109 0.0
H921 H 0.0889 0.82401 0.60406 0.0
H922 H 0.16503 0.79119 0.57712 0.0
H923 H 0.21206 0.83005 0.60536 0.0
H924 H 0.15335 0.91564 0.60907 0.0
H925 H 0.13518 0.92419 0.63431 0.0
H926 H 0.10473 0.88722 0.61594 0.0
H927 H 0.0853 0.83986 0.64843 0.0
H928 H 0.11561 0.87683 0.66703 0.0
H929 H 0.12056 0.83629 0.66403 0.0
H930 H 0.25426 0.88069 0.63216 0.0
H931 H 0.28765 0.93844 0.65435 0.0
H932 H 0.18437 0.93978 0.66261 0.0
C933 C 0.11513 0.82428 0.60458 0.0
C934 C 0.12347 0.8047 0.58854 0.0
C935 C 0.15803 0.8057 0.58951 0.0
C936 C 0.1849 0.82776 0.60546 0.0
C937 C 0.17659 0.84841 0.62038 0.0
C938 C 0.14234 0.84657 0.62016 0.0
C939 C 0.1419 0.87502 0.63576 0.0
C940 C 0.13331 0.90211 0.62301 0.0
C941 C 0.1142 0.85585 0.65496 0.0
C942 C 0.18167 0.89424 0.64409 0.0
C943 C 0.20109 0.87807 0.63544 0.0
C944 C 0.23912 0.89312 0.63937 0.0
C945 C 0.25789 0.92597 0.65202 0.0
C946 C 0.23871 0.94371 0.66031 0.0
C947 C 0.19989 0.92684 0.65673 0.0
H948 H 0.24753 0.18358 0.83277 0.0
H949 H 0.34925 0.28731 0.81926 0.0
H950 H 0.37297 0.25287 0.79753 0.0
H951 H 0.29008 0.12187 0.83463 0.0
H952 H 0.25001 0.08469 0.82098 0.0
H953 H 0.2446 0.11633 0.83912 0.0
H954 H 0.21225 0.13152 0.8071 0.0
H955 H 0.21775 0.10024 0.7889 0.0
H956 H 0.23602 0.14808 0.78079 0.0
H957 H 0.3802 0.20899 0.77166 0.0
H958 H 0.37038 0.15988 0.7446 0.0
H959 H 0.26504 0.08454 0.77595 0.0
C960 C 0.27532 0.19903 0.82586 0.0
C961 C 0.29655 0.23821 0.82778 0.0
C962 C 0.33257 0.2573 0.8182 0.0
C963 C 0.34629 0.23793 0.80583 0.0
C964 C 0.3239 0.19945 0.80349 0.0
C965 C 0.28934 0.18017 0.81353 0.0
C966 C 0.26882 0.13969 0.80653 0.0
C967 C 0.26305 0.11414 0.82651 0.0
C968 C 0.23154 0.12931 0.79516 0.0
C969 C 0.29638 0.1395 0.79009 0.0
C970 C 0.32827 0.17405 0.7888 0.0
C971 C 0.35582 0.18162 0.77296 0.0
C972 C 0.35009 0.15356 0.7577 0.0
C973 C 0.31702 0.11855 0.75833 0.0
C974 C 0.29062 0.11109 0.77525 0.0
H975 H 0.05041 0.30687 0.96618 0.0
H976 H 0.08795 0.28012 0.02709 0.0
H977 H 0.1486 0.29815 0.00937 0.0
H978 H 0.08301 0.26441 0.93218 0.0
H979 H 0.09601 0.29643 0.90913 0.0
H980 H 0.06005 0.29112 0.92801 0.0
H981 H 0.09609 0.36198 0.93609 0.0
H982 H 0.1322 0.36755 0.91705 0.0
H983 H 0.14376 0.38382 0.9454 0.0
H984 H 0.20057 0.30904 0.98333 0.0
H985 H 0.23743 0.30854 0.95081 0.0
H986 H 0.1644 0.3247 0.90647 0.0
C987 C 0.07222 0.3067 0.97603 0.0
C988 C 0.06535 0.2935 0.99816 0.0
C989 C 0.09339 0.29128 0.0103 0.0
C990 C 0.12783 0.30144 1.00035 0.0
C991 C 0.13347 0.31324 0.97816 0.0
C992 C 0.10636 0.31589 0.96614 0.0
C993 C 0.11662 0.32323 0.94167 0.0
C994 C 0.08719 0.29193 0.9269 0.0
C995 C 0.12253 0.36142 0.93465 0.0
C996 C 0.15297 0.32297 0.94165 0.0
C997 C 0.16276 0.31806 0.96291 0.0
C998 C 0.19364 0.31373 0.96669 0.0
C999 C 0.21445 0.31354 0.94822 0.0
C1000 C 0.20389 0.3172 0.9264 0.0
C1001 C 0.17335 0.32274 0.92315 0.0
H1002 H 0.8206 0.05163 0.16505 0.0
H1003 H 0.71725 0.05061 0.15171 0.0
H1004 H 0.75188 0.10859 0.12991 0.0
H1005 H 0.88093 0.15504 0.1687 0.0
H1006 H 0.91926 0.1539 0.1553 0.0
H1007 H 0.88705 0.11529 0.17231 0.0
H1008 H 0.87419 0.07039 0.1391 0.0
H1009 H 0.90619 0.10879 0.12205 0.0
H1010 H 0.85893 0.07936 0.11283 0.0
H1011 H 0.79614 0.16036 0.10453 0.0
H1012 H 0.8465 0.2024 0.07898 0.0
H1013 H 0.92221 0.17405 0.11165 0.0
C1014 C 0.8053 0.06402 0.15799 0.0
C1015 C 0.76614 0.04649 0.16012 0.0
C1016 C 0.74723 0.06357 0.15046 0.0
C1017 C 0.76669 0.09656 0.13804 0.0
C1018 C 0.80515 0.11256 0.13579 0.0
C1019 C 0.82433 0.09714 0.1458 0.0
C1020 C 0.86521 0.11823 0.13958 0.0
C1021 C 0.88954 0.13672 0.16021 0.0
C1022 C 0.87678 0.09266 0.12769 0.0
C1023 C 0.8658 0.14698 0.12377 0.0
C1024 C 0.83094 0.14341 0.12187 0.0
C1025 C 0.82376 0.16407 0.10634 0.0
C1026 C 0.8526 0.18808 0.09197 0.0
C1027 C 0.8882 0.19136 0.09331 0.0
C1028 C 0.89513 0.17171 0.11006 0.0
H1029 H 0.70083 0.73298 0.29198 0.0
H1030 H 0.70307 0.77649 0.35788 0.0
H1031 H 0.68514 0.82041 0.34189 0.0
H1032 H 0.74481 0.81688 0.26599 0.0
H1033 H 0.7194 0.8025 0.24012 0.0
H1034 H 0.72396 0.76917 0.25692 0.0
H1035 H 0.65224 0.72708 0.2583 0.0
H1036 H 0.64746 0.76015 0.24114 0.0
H1037 H 0.62394 0.74617 0.26768 0.0
H1038 H 0.67723 0.86615 0.31802 0.0
H1039 H 0.68106 0.90978 0.28832 0.0
H1040 H 0.68429 0.83641 0.23819 0.0
C1041 C 0.69577 0.75061 0.30305 0.0
C1042 C 0.702 0.75077 0.32616 0.0
C1043 C 0.69725 0.77544 0.34019 0.0
C1044 C 0.68716 0.80044 0.33124 0.0
C1045 C 0.68213 0.80042 0.30821 0.0
C1046 C 0.68605 0.77591 0.29431 0.0
C1047 C 0.68408 0.78466 0.26999 0.0
C1048 C 0.72021 0.79385 0.25755 0.0
C1049 C 0.64988 0.7526 0.25861 0.0
C1050 C 0.67985 0.81866 0.27234 0.0
C1051 C 0.67817 0.82709 0.29447 0.0
C1052 C 0.67769 0.85935 0.30063 0.0
C1053 C 0.67981 0.88393 0.28376 0.0
C1054 C 0.68269 0.87609 0.26117 0.0
C1055 C 0.68167 0.84264 0.25542 0.0
H1056 H 0.29031 0.16665 0.53906 0.0
H1057 H 0.39533 0.26975 0.54613 0.0
H1058 H 0.41229 0.24146 0.57738 0.0
H1059 H 0.2718 0.14847 0.59528 0.0
H1060 H 0.25032 0.09875 0.59218 0.0
H1061 H 0.24941 0.12645 0.56942 0.0
H1062 H 0.28022 0.09928 0.54369 0.0
H1063 H 0.28151 0.07161 0.56646 0.0
H1064 H 0.32375 0.10289 0.55183 0.0
H1065 H 0.4142 0.20126 0.61048 0.0
H1066 H 0.39928 0.15642 0.64177 0.0
H1067 H 0.29316 0.08203 0.61093 0.0
C1068 C 0.31718 0.18351 0.54687 0.0
C1069 C 0.34146 0.22057 0.5401 0.0
C1070 C 0.37625 0.24128 0.551 0.0
C1071 C 0.38612 0.22535 0.56869 0.0
C1072 C 0.36104 0.18866 0.57503 0.0
C1073 C 0.32731 0.16819 0.56425 0.0
C1074 C 0.30368 0.1304 0.57467 0.0
C1075 C 0.26665 0.12579 0.58341 0.0
C1076 C 0.29692 0.09922 0.55818 0.0
C1077 C 0.32884 0.13277 0.59351 0.0
C1078 C 0.36209 0.1662 0.59348 0.0
C1079 C 0.38843 0.17488 0.61041 0.0
C1080 C 0.37992 0.14924 0.62803 0.0
C1081 C 0.34519 0.11581 0.6286 0.0
C1082 C 0.32005 0.1073 0.61079 0.0
H1083 H 0.10484 0.27968 0.7108 0.0
H1084 H 0.12997 0.39444 0.70742 0.0
H1085 H 0.17512 0.41013 0.73864 0.0
H1086 H 0.10712 0.2731 0.76916 0.0
H1087 H 0.12705 0.24322 0.76821 0.0
H1088 H 0.09833 0.24278 0.74561 0.0
H1089 H 0.15174 0.25738 0.71763 0.0
H1090 H 0.18079 0.25818 0.74019 0.0
H1091 H 0.19685 0.29784 0.72196 0.0
H1092 H 0.21752 0.41124 0.77175 0.0
H1093 H 0.24789 0.39685 0.80306 0.0
H1094 H 0.19283 0.28159 0.78193 0.0
C1095 C 0.11971 0.30832 0.71639 0.0
C1096 C 0.11377 0.33585 0.70655 0.0
C1097 C 0.13397 0.37281 0.71471 0.0
C1098 C 0.15977 0.38195 0.73235 0.0
C1099 C 0.16501 0.35383 0.74148 0.0
C1100 C 0.14523 0.31775 0.73364 0.0
C1101 C 0.15437 0.29182 0.74613 0.0
C1102 C 0.11967 0.26094 0.75798 0.0
C1103 C 0.17199 0.27536 0.73055 0.0
C1104 C 0.18227 0.31866 0.7626 0.0
C1105 C 0.18856 0.35444 0.75979 0.0
C1106 C 0.21278 0.38331 0.77393 0.0
C1107 C 0.23008 0.37501 0.79157 0.0
C1108 C 0.22261 0.3381 0.79493 0.0
C1109 C 0.19905 0.31007 0.77988 0.0
H1110 H 0.83265 0.11331 0.87642 0.0
H1111 H 0.73865 0.13196 0.87913 0.0
H1112 H 0.76888 0.17572 0.91085 0.0
H1113 H 0.84575 0.11169 0.93385 0.0
H1114 H 0.8957 0.13417 0.93168 0.0
H1115 H 0.86706 0.10673 0.90885 0.0
H1116 H 0.90199 0.16314 0.88229 0.0
H1117 H 0.93064 0.19097 0.90509 0.0
H1118 H 0.90434 0.20661 0.88899 0.0
H1119 H 0.81084 0.21648 0.94408 0.0
H1120 H 0.8563 0.24517 0.97517 0.0
H1121 H 0.9203 0.19753 0.94839 0.0
C1122 C 0.81812 0.12656 0.88342 0.0
C1123 C 0.7831 0.11906 0.87517 0.0
C1124 C 0.76547 0.1372 0.88513 0.0
C1125 C 0.78254 0.16219 0.90309 0.0
C1126 C 0.81726 0.16881 0.9107 0.0
C1127 C 0.83459 0.15126 0.90102 0.0
C1128 C 0.87086 0.16118 0.91234 0.0
C1129 C 0.86974 0.12638 0.92227 0.0
C1130 C 0.90389 0.1817 0.89622 0.0
C1131 C 0.8713 0.18673 0.93034 0.0
C1132 C 0.84056 0.19138 0.9292 0.0
C1133 C 0.83503 0.21308 0.94493 0.0
C1134 C 0.86105 0.22946 0.96246 0.0
C1135 C 0.89176 0.22352 0.96416 0.0
C1136 C 0.89709 0.20258 0.94756 0.0
H1137 H 0.68536 0.76571 0.06993 0.0
H1138 H 0.59467 0.75989 0.03117 0.0
H1139 H 0.5796 0.78982 0.06228 0.0
H1140 H 0.64199 0.75384 0.12703 0.0
H1141 H 0.68664 0.78653 0.13871 0.0
H1142 H 0.68389 0.75739 0.11566 0.0
H1143 H 0.72967 0.81623 0.09332 0.0
H1144 H 0.73195 0.84545 0.11603 0.0
H1145 H 0.71831 0.85235 0.08868 0.0
H1146 H 0.58294 0.83147 0.09564 0.0
H1147 H 0.6025 0.87624 0.12731 0.0
H1148 H 0.69088 0.85271 0.14261 0.0
C1149 C 0.66122 0.76916 0.06845 0.0
C1150 C 0.6407 0.75999 0.04847 0.0
C1151 C 0.61004 0.7659 0.04667 0.0
C1152 C 0.60153 0.78313 0.0642 0.0
C1153 C 0.62368 0.79363 0.0834 0.0
C1154 C 0.65246 0.78603 0.08568 0.0
C1155 C 0.67505 0.80347 0.10647 0.0
C1156 C 0.67166 0.77351 0.12294 0.0
C1157 C 0.71613 0.831 0.10076 0.0
C1158 C 0.65561 0.82339 0.11517 0.0
C1159 C 0.62575 0.8173 0.10201 0.0
C1160 C 0.60585 0.83575 0.10626 0.0
C1161 C 0.61712 0.86117 0.12423 0.0
C1162 C 0.64832 0.86818 0.13739 0.0
C1163 C 0.66695 0.84823 0.13292 0.0
H1164 H 0.923 0.68872 0.23159 0.0
H1165 H 0.84069 0.59055 0.19682 0.0
H1166 H 0.79714 0.57558 0.22875 0.0
H1167 H 0.89807 0.65279 0.29055 0.0
H1168 H 0.90646 0.69762 0.29991 0.0
H1169 H 0.93306 0.6946 0.27707 0.0
H1170 H 0.91334 0.73323 0.25285 0.0
H1171 H 0.88514 0.73521 0.2749 0.0
H1172 H 0.86456 0.71657 0.24814 0.0
H1173 H 0.75896 0.57896 0.26205 0.0
H1174 H 0.73249 0.59863 0.29292 0.0
H1175 H 0.84139 0.69519 0.30408 0.0
C1176 C 0.89649 0.66302 0.23123 0.0
C1177 C 0.88535 0.64031 0.21211 0.0
C1178 C 0.85001 0.60765 0.21169 0.0
C1179 C 0.82507 0.5992 0.22968 0.0
C1180 C 0.83625 0.62354 0.24789 0.0
C1181 C 0.87158 0.65445 0.24885 0.0
C1182 C 0.87583 0.67915 0.26842 0.0
C1183 C 0.90508 0.68112 0.28497 0.0
C1184 C 0.88526 0.71831 0.26059 0.0
C1185 C 0.83714 0.65804 0.27811 0.0
C1186 C 0.81454 0.62584 0.26636 0.0
C1187 C 0.77673 0.60377 0.27157 0.0
C1188 C 0.76186 0.61514 0.28909 0.0
C1189 C 0.78474 0.64853 0.30089 0.0
C1190 C 0.82293 0.66955 0.29544 0.0
H1191 H 0.15885 0.87019 0.36572 0.0
H1192 H 0.2674 0.88027 0.37404 0.0
H1193 H 0.24224 0.83486 0.40536 0.0
H1194 H 0.13945 0.87024 0.42142 0.0
H1195 H 0.09029 0.83807 0.4186 0.0
H1196 H 0.11609 0.86682 0.39541 0.0
H1197 H 0.09386 0.80802 0.37084 0.0
H1198 H 0.0681 0.77895 0.39408 0.0
H1199 H 0.1021 0.77135 0.37996 0.0
H1200 H 0.2049 0.79257 0.43898 0.0
H1201 H 0.16182 0.76218 0.47097 0.0
H1202 H 0.07983 0.78209 0.43901 0.0
C1203 C 0.17748 0.86265 0.37382 0.0
C1204 C 0.21522 0.87898 0.36743 0.0
C1205 C 0.23835 0.86804 0.37858 0.0
C1206 C 0.22423 0.84222 0.39636 0.0
C1207 C 0.18687 0.82731 0.4025 0.0
C1208 C 0.16396 0.83722 0.39134 0.0
C1209 C 0.12587 0.82027 0.40184 0.0
C1210 C 0.11747 0.85065 0.40979 0.0
C1211 C 0.09571 0.79302 0.38572 0.0
C1212 C 0.13094 0.80003 0.42122 0.0
C1213 C 0.16596 0.80366 0.42132 0.0
C1214 C 0.17726 0.78913 0.43878 0.0
C1215 C 0.1526 0.77167 0.4568 0.0
C1216 C 0.11747 0.76952 0.45722 0.0
C1217 C 0.10636 0.78293 0.4389 0.0
loop_
_geom_bond_atom_site_label_1
_geom_bond_atom_site_label_2
_geom_bond_distance
_geom_bond_site_symmetry_2
_ccdc_geom_bond_type
Co0 O3 1.970 . S
Co0 N17 1.989 . S
Co0 O25 1.967 . S
Co0 O32 1.920 . S
Co1 O4 1.966 . S
Co1 N10 2.022 . S
Co1 N18 1.993 . S
Co1 O26 1.941 . S
C2 O3 1.258 . S
C2 O4 1.263 . S
O3 Co0 1.970 . S
O3 C2 1.258 . S
O4 Co1 1.966 . S
O4 C2 1.263 . S
C5 O6 1.235 . S
C5 O32 1.289 . S
O6 C5 1.235 . S
C7 C9 1.400 . S
C7 N10 1.351 . S
C7 C12 1.501 . S
C8 C9 1.387 . S
C8 N11 1.341 . S
C9 C7 1.400 . S
C9 C8 1.387 . S
N10 Co1 2.022 . S
N10 C7 1.351 . S
N10 N11 1.365 . S
N11 C8 1.341 . S
N11 N10 1.365 . S
N11 H31 0.862 . S
C12 C7 1.501 . S
C12 H13 0.961 . S
C12 H14 0.961 . S
C12 H15 0.960 . S
H13 C12 0.961 . S
H14 C12 0.961 . S
H15 C12 0.960 . S
C16 N17 1.342 . S
C16 C20 1.401 . S
C16 C21 1.499 . S
N17 Co0 1.989 . S
N17 C16 1.342 . S
N17 N18 1.388 . S
N18 Co1 1.993 . S
N18 N17 1.388 . S
N18 C19 1.346 . S
C19 N18 1.346 . S
C19 C20 1.396 . S
C19 C29 1.510 . S
C20 C16 1.401 . S
C20 C19 1.396 . S
C21 C16 1.499 . S
C21 H22 0.959 . S
C21 H23 0.960 . S
C21 H24 0.961 . S
H22 C21 0.959 . S
H23 C21 0.960 . S
H24 C21 0.961 . S
O25 Co0 1.967 . S
O25 C33 1.258 . S
O26 Co1 1.941 . S
O26 C33 1.266 . S
H27 C29 0.959 . S
H28 C29 0.961 . S
C29 C19 1.510 . S
C29 H27 0.959 . S
C29 H28 0.961 . S
C29 H30 0.960 . S
H30 C29 0.960 . S
H31 N11 0.862 . S
O32 Co0 1.920 . S
O32 C5 1.289 . S
C33 O25 1.258 . S
C33 O26 1.266 . S
Co34 O37 1.970 . S
Co34 N51 1.989 . S
Co34 O59 1.967 . S
Co34 O66 1.920 . S
Co35 O38 1.966 . S
Co35 N44 2.022 . S
Co35 N52 1.993 . S
Co35 O60 1.941 . S
C36 O37 1.258 . S
C36 O38 1.263 . S
O37 Co34 1.970 . S
O37 C36 1.258 . S
O38 Co35 1.966 . S
O38 C36 1.263 . S
C39 O40 1.235 . S
C39 O66 1.289 . S
O40 C39 1.235 . S
C41 C43 1.400 . S
C41 N44 1.351 . S
C41 C46 1.501 . S
C42 C43 1.387 . S
C42 N45 1.341 . S
C43 C41 1.400 . S
C43 C42 1.387 . S
N44 Co35 2.022 . S
N44 C41 1.351 . S
N44 N45 1.365 . S
N45 C42 1.341 . S
N45 N44 1.365 . S
N45 H65 0.862 . S
C46 C41 1.501 . S
C46 H47 0.961 . S
C46 H48 0.961 . S
C46 H49 0.960 . S
H47 C46 0.961 . S
H48 C46 0.961 . S
H49 C46 0.960 . S
C50 N51 1.342 . S
C50 C54 1.401 . S
C50 C55 1.499 . S
N51 Co34 1.989 . S
N51 C50 1.342 . S
N51 N52 1.388 . S
N52 Co35 1.993 . S
N52 N51 1.388 . S
N52 C53 1.346 . S
C53 N52 1.346 . S
C53 C54 1.396 . S
C53 C63 1.510 . S
C54 C50 1.401 . S
C54 C53 1.396 . S
C55 C50 1.499 . S
C55 H56 0.959 . S
C55 H57 0.960 . S
C55 H58 0.961 . S
H56 C55 0.959 . S
H57 C55 0.960 . S
H58 C55 0.961 . S
O59 Co34 1.967 . S
O59 C67 1.258 . S
O60 Co35 1.941 . S
O60 C67 1.266 . S
H61 C63 0.959 . S
H62 C63 0.961 . S
C63 C53 1.510 . S
C63 H61 0.959 . S
C63 H62 0.961 . S
C63 H64 0.960 . S
H64 C63 0.960 . S
H65 N45 0.862 . S
O66 Co34 1.920 . S
O66 C39 1.289 . S
C67 O59 1.258 . S
C67 O60 1.266 . S
Co68 O71 1.970 . S
Co68 N85 1.989 . S
Co68 O93 1.967 . S
Co68 O100 1.920 . S
Co69 O72 1.966 . S
Co69 N78 2.022 . S
Co69 N86 1.993 . S
Co69 O94 1.941 . S
C70 O71 1.258 . S
C70 O72 1.263 . S
O71 Co68 1.970 . S
O71 C70 1.258 . S
O72 Co69 1.966 . S
O72 C70 1.263 . S
C73 O74 1.235 . S
C73 O100 1.289 . S
O74 C73 1.235 . S
C75 C77 1.400 . S
C75 N78 1.351 . S
C75 C80 1.501 . S
C76 C77 1.387 . S
C76 N79 1.341 . S
C77 C75 1.400 . S
C77 C76 1.387 . S
N78 Co69 2.022 . S
N78 C75 1.351 . S
N78 N79 1.365 . S
N79 C76 1.341 . S
N79 N78 1.365 . S
N79 H99 0.862 . S
C80 C75 1.501 . S
C80 H81 0.961 . S
C80 H82 0.961 . S
C80 H83 0.960 . S
H81 C80 0.961 . S
H82 C80 0.961 . S
H83 C80 0.960 . S
C84 N85 1.342 . S
C84 C88 1.401 . S
C84 C89 1.499 . S
N85 Co68 1.989 . S
N85 C84 1.342 . S
N85 N86 1.388 . S
N86 Co69 1.993 . S
N86 N85 1.388 . S
N86 C87 1.346 . S
C87 N86 1.346 . S
C87 C88 1.396 . S
C87 C97 1.510 . S
C88 C84 1.401 . S
C88 C87 1.396 . S
C89 C84 1.499 . S
C89 H90 0.959 . S
C89 H91 0.960 . S
C89 H92 0.961 . S
H90 C89 0.959 . S
H91 C89 0.960 . S
H92 C89 0.961 . S
O93 Co68 1.967 . S
O93 C101 1.258 . S
O94 Co69 1.941 . S
O94 C101 1.266 . S
H95 C97 0.959 . S
H96 C97 0.961 . S
C97 C87 1.510 . S
C97 H95 0.959 . S
C97 H96 0.961 . S
C97 H98 0.960 . S
H98 C97 0.960 . S
H99 N79 0.862 . S
O100 Co68 1.920 . S
O100 C73 1.289 . S
C101 O93 1.258 . S
C101 O94 1.266 . S
Co102 O105 1.970 . S
Co102 N119 1.989 . S
Co102 O127 1.967 . S
Co102 O134 1.920 . S
Co103 O106 1.966 . S
Co103 N112 2.022 . S
Co103 N120 1.993 . S
Co103 O128 1.941 . S
C104 O105 1.258 1_554 S
C104 O106 1.263 1_554 S
O105 Co102 1.970 . S
O105 C104 1.258 1_556 S
O106 Co103 1.966 . S
O106 C104 1.263 1_556 S
C107 O108 1.235 . S
C107 O134 1.289 . S
O108 C107 1.235 . S
C109 C111 1.400 . S
C109 N112 1.351 . S
C109 C114 1.501 . S
C110 C111 1.387 . S
C110 N113 1.341 . S
C111 C109 1.400 . S
C111 C110 1.387 . S
N112 Co103 2.022 . S
N112 C109 1.351 . S
N112 N113 1.365 . S
N113 C110 1.341 . S
N113 N112 1.365 . S
N113 H133 0.862 . S
C114 C109 1.501 . S
C114 H115 0.961 . S
C114 H116 0.961 . S
C114 H117 0.960 . S
H115 C114 0.961 . S
H116 C114 0.961 . S
H117 C114 0.960 . S
C118 N119 1.342 . S
C118 C122 1.401 . S
C118 C123 1.499 . S
N119 Co102 1.989 . S
N119 C118 1.342 . S
N119 N120 1.388 . S
N120 Co103 1.993 . S
N120 N119 1.388 . S
N120 C121 1.346 . S
C121 N120 1.346 . S
C121 C122 1.396 . S
C121 C131 1.510 . S
C122 C118 1.401 . S
C122 C121 1.396 . S
C123 C118 1.499 . S
C123 H124 0.959 . S
C123 H125 0.960 . S
C123 H126 0.961 . S
H124 C123 0.959 . S
H125 C123 0.960 . S
H126 C123 0.961 . S
O127 Co102 1.967 . S
O127 C135 1.258 . S
O128 Co103 1.941 . S
O128 C135 1.266 . S
H129 C131 0.959 . S
H130 C131 0.961 . S
C131 C121 1.510 . S
C131 H129 0.959 . S
C131 H130 0.961 . S
C131 H132 0.960 . S
H132 C131 0.960 . S
H133 N113 0.862 . S
O134 Co102 1.920 . S
O134 C107 1.289 . S
C135 O127 1.258 . S
C135 O128 1.266 . S
Co136 O139 1.970 . S
Co136 N153 1.989 . S
Co136 O161 1.967 . S
Co136 O168 1.920 . S
Co137 O140 1.966 . S
Co137 N146 2.022 . S
Co137 N154 1.993 . S
Co137 O162 1.941 . S
C138 O139 1.258 . S
C138 O140 1.263 . S
O139 Co136 1.970 . S
O139 C138 1.258 . S
O140 Co137 1.966 . S
O140 C138 1.263 . S
C141 O142 1.235 . S
C141 O168 1.289 . S
O142 C141 1.235 . S
C143 C145 1.400 . S
C143 N146 1.351 . S
C143 C148 1.501 . S
C144 C145 1.387 . S
C144 N147 1.341 . S
C145 C143 1.400 . S
C145 C144 1.387 . S
N146 Co137 2.022 . S
N146 C143 1.351 . S
N146 N147 1.365 . S
N147 C144 1.341 . S
N147 N146 1.365 . S
N147 H167 0.862 . S
C148 C143 1.501 . S
C148 H149 0.961 . S
C148 H150 0.961 . S
C148 H151 0.960 . S
H149 C148 0.961 . S
H150 C148 0.961 . S
H151 C148 0.960 . S
C152 N153 1.342 . S
C152 C156 1.401 . S
C152 C157 1.499 . S
N153 Co136 1.989 . S
N153 C152 1.342 . S
N153 N154 1.388 . S
N154 Co137 1.993 . S
N154 N153 1.388 . S
N154 C155 1.346 . S
C155 N154 1.346 . S
C155 C156 1.396 . S
C155 C165 1.510 . S
C156 C152 1.401 . S
C156 C155 1.396 . S
C157 C152 1.499 . S
C157 H158 0.959 . S
C157 H159 0.960 . S
C157 H160 0.961 . S
H158 C157 0.959 . S
H159 C157 0.960 . S
H160 C157 0.961 . S
O161 Co136 1.967 . S
O161 C169 1.258 . S
O162 Co137 1.941 . S
O162 C169 1.266 . S
H163 C165 0.959 . S
H164 C165 0.961 . S
C165 C155 1.510 . S
C165 H163 0.959 . S
C165 H164 0.961 . S
C165 H166 0.960 . S
H166 C165 0.960 . S
H167 N147 0.862 . S
O168 Co136 1.920 . S
O168 C141 1.289 . S
C169 O161 1.258 . S
C169 O162 1.266 . S
Co170 O173 1.970 . S
Co170 N187 1.989 . S
Co170 O195 1.967 . S
Co170 O202 1.920 . S
Co171 O174 1.966 . S
Co171 N180 2.022 . S
Co171 N188 1.993 . S
Co171 O196 1.941 . S
C172 O173 1.258 . S
C172 O174 1.263 . S
O173 Co170 1.970 . S
O173 C172 1.258 . S
O174 Co171 1.966 . S
O174 C172 1.263 . S
C175 O176 1.235 . S
C175 O202 1.289 . S
O176 C175 1.235 . S
C177 C179 1.400 . S
C177 N180 1.351 . S
C177 C182 1.501 . S
C178 C179 1.387 . S
C178 N181 1.341 . S
C179 C177 1.400 . S
C179 C178 1.387 . S
N180 Co171 2.022 . S
N180 C177 1.351 . S
N180 N181 1.365 . S
N181 C178 1.341 . S
N181 N180 1.365 . S
N181 H201 0.862 . S
C182 C177 1.501 . S
C182 H183 0.961 . S
C182 H184 0.961 . S
C182 H185 0.960 . S
H183 C182 0.961 . S
H184 C182 0.961 . S
H185 C182 0.960 . S
C186 N187 1.342 . S
C186 C190 1.401 . S
C186 C191 1.499 . S
N187 Co170 1.989 . S
N187 C186 1.342 . S
N187 N188 1.388 . S
N188 Co171 1.993 . S
N188 N187 1.388 . S
N188 C189 1.346 . S
C189 N188 1.346 . S
C189 C190 1.396 . S
C189 C199 1.510 . S
C190 C186 1.401 . S
C190 C189 1.396 . S
C191 C186 1.499 . S
C191 H192 0.959 . S
C191 H193 0.960 . S
C191 H194 0.961 . S
H192 C191 0.959 . S
H193 C191 0.960 . S
H194 C191 0.961 . S
O195 Co170 1.967 . S
O195 C203 1.258 . S
O196 Co171 1.941 . S
O196 C203 1.266 . S
H197 C199 0.959 . S
H198 C199 0.961 . S
C199 C189 1.510 . S
C199 H197 0.959 . S
C199 H198 0.961 . S
C199 H200 0.960 . S
H200 C199 0.960 . S
H201 N181 0.862 . S
O202 Co170 1.920 . S
O202 C175 1.289 . S
C203 O195 1.258 . S
C203 O196 1.266 . S
Co204 O207 1.970 . S
Co204 N221 1.989 . S
Co204 O229 1.967 . S
Co204 O236 1.920 . S
Co205 O208 1.966 . S
Co205 N214 2.022 . S
Co205 N222 1.993 . S
Co205 O230 1.941 . S
C206 O207 1.258 . S
C206 O208 1.263 . S
O207 Co204 1.970 . S
O207 C206 1.258 . S
O208 Co205 1.966 . S
O208 C206 1.263 . S
C209 O210 1.235 . S
C209 O236 1.289 . S
O210 C209 1.235 . S
C211 C213 1.400 . S
C211 N214 1.351 . S
C211 C216 1.501 . S
C212 C213 1.387 . S
C212 N215 1.341 . S
C213 C211 1.400 . S
C213 C212 1.387 . S
N214 Co205 2.022 . S
N214 C211 1.351 . S
N214 N215 1.365 . S
N215 C212 1.341 . S
N215 N214 1.365 . S
N215 H235 0.862 . S
C216 C211 1.501 . S
C216 H217 0.961 . S
C216 H218 0.961 . S
C216 H219 0.960 . S
H217 C216 0.961 . S
H218 C216 0.961 . S
H219 C216 0.960 . S
C220 N221 1.342 . S
C220 C224 1.401 . S
C220 C225 1.499 . S
N221 Co204 1.989 . S
N221 C220 1.342 . S
N221 N222 1.388 . S
N222 Co205 1.993 . S
N222 N221 1.388 . S
N222 C223 1.346 . S
C223 N222 1.346 . S
C223 C224 1.396 . S
C223 C233 1.510 . S
C224 C220 1.401 . S
C224 C223 1.396 . S
C225 C220 1.499 . S
C225 H226 0.959 . S
C225 H227 0.960 . S
C225 H228 0.961 . S
H226 C225 0.959 . S
H227 C225 0.960 . S
H228 C225 0.961 . S
O229 Co204 1.967 . S
O229 C237 1.258 . S
O230 Co205 1.941 . S
O230 C237 1.266 . S
H231 C233 0.959 . S
H232 C233 0.961 . S
C233 C223 1.510 . S
C233 H231 0.959 . S
C233 H232 0.961 . S
C233 H234 0.960 . S
H234 C233 0.960 . S
H235 N215 0.862 . S
O236 Co204 1.920 . S
O236 C209 1.289 . S
C237 O229 1.258 . S
C237 O230 1.266 . S
Co238 O241 1.970 . S
Co238 N255 1.989 . S
Co238 O263 1.967 . S
Co238 O270 1.920 . S
Co239 O242 1.966 . S
Co239 N248 2.022 . S
Co239 N256 1.993 . S
Co239 O264 1.941 . S
C240 O241 1.258 . S
C240 O242 1.263 . S
O241 Co238 1.970 . S
O241 C240 1.258 . S
O242 Co239 1.966 . S
O242 C240 1.263 . S
C243 O244 1.235 . S
C243 O270 1.289 . S
O244 C243 1.235 . S
C245 C247 1.400 . S
C245 N248 1.351 . S
C245 C250 1.501 . S
C246 C247 1.387 . S
C246 N249 1.341 . S
C247 C245 1.400 . S
C247 C246 1.387 . S
N248 Co239 2.022 . S
N248 C245 1.351 . S
N248 N249 1.365 . S
N249 C246 1.341 . S
N249 N248 1.365 . S
N249 H269 0.862 . S
C250 C245 1.501 . S
C250 H251 0.961 . S
C250 H252 0.961 . S
C250 H253 0.960 . S
H251 C250 0.961 . S
H252 C250 0.961 . S
H253 C250 0.960 . S
C254 N255 1.342 . S
C254 C258 1.401 . S
C254 C259 1.499 . S
N255 Co238 1.989 . S
N255 C254 1.342 . S
N255 N256 1.388 . S
N256 Co239 1.993 . S
N256 N255 1.388 . S
N256 C257 1.346 . S
C257 N256 1.346 . S
C257 C258 1.396 . S
C257 C267 1.510 . S
C258 C254 1.401 . S
C258 C257 1.396 . S
C259 C254 1.499 . S
C259 H260 0.959 . S
C259 H261 0.960 . S
C259 H262 0.961 . S
H260 C259 0.959 . S
H261 C259 0.960 . S
H262 C259 0.961 . S
O263 Co238 1.967 . S
O263 C271 1.258 . S
O264 Co239 1.941 . S
O264 C271 1.266 . S
H265 C267 0.959 . S
H266 C267 0.961 . S
C267 C257 1.510 . S
C267 H265 0.959 . S
C267 H266 0.961 . S
C267 H268 0.960 . S
H268 C267 0.960 . S
H269 N249 0.862 . S
O270 Co238 1.920 . S
O270 C243 1.289 . S
C271 O263 1.258 . S
C271 O264 1.266 . S
Co272 O275 1.970 . S
Co272 N289 1.989 . S
Co272 O297 1.967 . S
Co272 O304 1.920 . S
Co273 O276 1.966 . S
Co273 N282 2.022 . S
Co273 N290 1.993 . S
Co273 O298 1.941 . S
C274 O275 1.258 . S
C274 O276 1.263 . S
O275 Co272 1.970 . S
O275 C274 1.258 . S
O276 Co273 1.966 . S
O276 C274 1.263 . S
C277 O278 1.235 . S
C277 O304 1.289 . S
O278 C277 1.235 . S
C279 C281 1.400 . S
C279 N282 1.351 . S
C279 C284 1.501 . S
C280 C281 1.387 . S
C280 N283 1.341 . S
C281 C279 1.400 . S
C281 C280 1.387 . S
N282 Co273 2.022 . S
N282 C279 1.351 . S
N282 N283 1.365 . S
N283 C280 1.341 . S
N283 N282 1.365 . S
N283 H303 0.862 . S
C284 C279 1.501 . S
C284 H285 0.961 . S
C284 H286 0.961 . S
C284 H287 0.960 . S
H285 C284 0.961 . S
H286 C284 0.961 . S
H287 C284 0.960 . S
C288 N289 1.342 . S
C288 C292 1.401 . S
C288 C293 1.499 . S
N289 Co272 1.989 . S
N289 C288 1.342 . S
N289 N290 1.388 . S
N290 Co273 1.993 . S
N290 N289 1.388 . S
N290 C291 1.346 . S
C291 N290 1.346 . S
C291 C292 1.396 . S
C291 C301 1.510 . S
C292 C288 1.401 . S
C292 C291 1.396 . S
C293 C288 1.499 . S
C293 H294 0.959 . S
C293 H295 0.960 . S
C293 H296 0.961 . S
H294 C293 0.959 . S
H295 C293 0.960 . S
H296 C293 0.961 . S
O297 Co272 1.967 . S
O297 C305 1.258 . S
O298 Co273 1.941 . S
O298 C305 1.266 . S
H299 C301 0.959 . S
H300 C301 0.961 . S
C301 C291 1.510 . S
C301 H299 0.959 . S
C301 H300 0.961 . S
C301 H302 0.960 . S
H302 C301 0.960 . S
H303 N283 0.862 . S
O304 Co272 1.920 . S
O304 C277 1.289 . S
C305 O297 1.258 . S
C305 O298 1.266 . S
Co306 O309 1.970 . S
Co306 N323 1.989 . S
Co306 O331 1.967 . S
Co306 O338 1.920 . S
Co307 O310 1.966 . S
Co307 N316 2.022 . S
Co307 N324 1.993 . S
Co307 O332 1.941 . S
C308 O309 1.258 . S
C308 O310 1.263 . S
O309 Co306 1.970 . S
O309 C308 1.258 . S
O310 Co307 1.966 . S
O310 C308 1.263 . S
C311 O312 1.235 . S
C311 O338 1.289 . S
O312 C311 1.235 . S
C313 C315 1.400 . S
C313 N316 1.351 . S
C313 C318 1.501 . S
C314 C315 1.387 . S
C314 N317 1.341 . S
C315 C313 1.400 . S
C315 C314 1.387 . S
N316 Co307 2.022 . S
N316 C313 1.351 . S
N316 N317 1.365 . S
N317 C314 1.341 . S
N317 N316 1.365 . S
N317 H337 0.862 . S
C318 C313 1.501 . S
C318 H319 0.961 . S
C318 H320 0.961 . S
C318 H321 0.960 . S
H319 C318 0.961 . S
H320 C318 0.961 . S
H321 C318 0.960 . S
C322 N323 1.342 . S
C322 C326 1.401 . S
C322 C327 1.499 . S
N323 Co306 1.989 . S
N323 C322 1.342 . S
N323 N324 1.388 . S
N324 Co307 1.993 . S
N324 N323 1.388 . S
N324 C325 1.346 . S
C325 N324 1.346 . S
C325 C326 1.396 . S
C325 C335 1.510 . S
C326 C322 1.401 . S
C326 C325 1.396 . S
C327 C322 1.499 . S
C327 H328 0.959 . S
C327 H329 0.960 . S
C327 H330 0.961 . S
H328 C327 0.959 . S
H329 C327 0.960 . S
H330 C327 0.961 . S
O331 Co306 1.967 . S
O331 C339 1.258 . S
O332 Co307 1.941 . S
O332 C339 1.266 . S
H333 C335 0.959 . S
H334 C335 0.961 . S
C335 C325 1.510 . S
C335 H333 0.959 . S
C335 H334 0.961 . S
C335 H336 0.960 . S
H336 C335 0.960 . S
H337 N317 0.862 . S
O338 Co306 1.920 . S
O338 C311 1.289 . S
C339 O331 1.258 . S
C339 O332 1.266 . S
Co340 O343 1.970 . S
Co340 N357 1.989 . S
Co340 O365 1.967 . S
Co340 O372 1.920 . S
Co341 O344 1.966 . S
Co341 N350 2.022 . S
Co341 N358 1.993 . S
Co341 O366 1.941 . S
C342 O343 1.258 1_556 S
C342 O344 1.263 1_556 S
O343 Co340 1.970 . S
O343 C342 1.258 1_554 S
O344 Co341 1.966 . S
O344 C342 1.263 1_554 S
C345 O346 1.235 . S
C345 O372 1.289 . S
O346 C345 1.235 . S
C347 C349 1.400 . S
C347 N350 1.351 . S
C347 C352 1.501 . S
C348 C349 1.387 . S
C348 N351 1.341 . S
C349 C347 1.400 . S
C349 C348 1.387 . S
N350 Co341 2.022 . S
N350 C347 1.351 . S
N350 N351 1.365 . S
N351 C348 1.341 . S
N351 N350 1.365 . S
N351 H371 0.862 . S
C352 C347 1.501 . S
C352 H353 0.961 . S
C352 H354 0.961 . S
C352 H355 0.960 . S
H353 C352 0.961 . S
H354 C352 0.961 . S
H355 C352 0.960 . S
C356 N357 1.342 . S
C356 C360 1.401 . S
C356 C361 1.499 . S
N357 Co340 1.989 . S
N357 C356 1.342 . S
N357 N358 1.388 . S
N358 Co341 1.993 . S
N358 N357 1.388 . S
N358 C359 1.346 . S
C359 N358 1.346 . S
C359 C360 1.396 . S
C359 C369 1.510 . S
C360 C356 1.401 . S
C360 C359 1.396 . S
C361 C356 1.499 . S
C361 H362 0.959 . S
C361 H363 0.960 . S
C361 H364 0.961 . S
H362 C361 0.959 . S
H363 C361 0.960 . S
H364 C361 0.961 . S
O365 Co340 1.967 . S
O365 C373 1.258 . S
O366 Co341 1.941 . S
O366 C373 1.266 . S
H367 C369 0.959 . S
H368 C369 0.961 . S
C369 C359 1.510 . S
C369 H367 0.959 . S
C369 H368 0.961 . S
C369 H370 0.960 . S
H370 C369 0.960 . S
H371 N351 0.862 . S
O372 Co340 1.920 . S
O372 C345 1.289 . S
C373 O365 1.258 . S
C373 O366 1.266 . S
Co374 O377 1.970 . S
Co374 N391 1.989 . S
Co374 O399 1.967 . S
Co374 O406 1.920 . S
Co375 O378 1.966 . S
Co375 N384 2.022 . S
Co375 N392 1.993 . S
Co375 O400 1.941 . S
C376 O377 1.258 . S
C376 O378 1.263 . S
O377 Co374 1.970 . S
O377 C376 1.258 . S
O378 Co375 1.966 . S
O378 C376 1.263 . S
C379 O380 1.235 . S
C379 O406 1.289 . S
O380 C379 1.235 . S
C381 C383 1.400 . S
C381 N384 1.351 . S
C381 C386 1.501 . S
C382 C383 1.387 . S
C382 N385 1.341 . S
C383 C381 1.400 . S
C383 C382 1.387 . S
N384 Co375 2.022 . S
N384 C381 1.351 . S
N384 N385 1.365 . S
N385 C382 1.341 . S
N385 N384 1.365 . S
N385 H405 0.862 . S
C386 C381 1.501 . S
C386 H387 0.961 . S
C386 H388 0.961 . S
C386 H389 0.960 . S
H387 C386 0.961 . S
H388 C386 0.961 . S
H389 C386 0.960 . S
C390 N391 1.342 . S
C390 C394 1.401 . S
C390 C395 1.499 . S
N391 Co374 1.989 . S
N391 C390 1.342 . S
N391 N392 1.388 . S
N392 Co375 1.993 . S
N392 N391 1.388 . S
N392 C393 1.346 . S
C393 N392 1.346 . S
C393 C394 1.396 . S
C393 C403 1.510 . S
C394 C390 1.401 . S
C394 C393 1.396 . S
C395 C390 1.499 . S
C395 H396 0.959 . S
C395 H397 0.960 . S
C395 H398 0.961 . S
H396 C395 0.959 . S
H397 C395 0.960 . S
H398 C395 0.961 . S
O399 Co374 1.967 . S
O399 C407 1.258 . S
O400 Co375 1.941 . S
O400 C407 1.266 . S
H401 C403 0.959 . S
H402 C403 0.961 . S
C403 C393 1.510 . S
C403 H401 0.959 . S
C403 H402 0.961 . S
C403 H404 0.960 . S
H404 C403 0.960 . S
H405 N385 0.862 . S
O406 Co374 1.920 . S
O406 C379 1.289 . S
C407 O399 1.258 . S
C407 O400 1.266 . S
H408 C420 0.930 . S
H409 C422 0.930 . S
H410 C423 0.930 . S
H411 C427 0.959 . S
H412 C427 0.959 . S
H413 C427 0.961 . S
H414 C428 0.960 . S
H415 C428 0.961 . S
H416 C428 0.959 . S
H417 C431 0.929 . S
H418 C432 0.931 . S
H419 C434 0.930 . S
C420 H408 0.930 . S
C420 C421 1.399 . S
C420 C425 1.399 . S
C421 C420 1.399 . S
C421 C422 1.376 . S
C422 H409 0.930 . S
C422 C421 1.376 . S
C422 C423 1.388 . S
C423 H410 0.930 . S
C423 C422 1.388 . S
C423 C424 1.390 . S
C424 C423 1.390 . S
C424 C425 1.394 . S
C424 C430 1.465 . S
C425 C420 1.399 . S
C425 C424 1.394 . S
C425 C426 1.516 . S
C426 C425 1.516 . S
C426 C427 1.502 . S
C426 C428 1.561 . S
C426 C429 1.526 . S
C427 H411 0.959 . S
C427 H412 0.959 . S
C427 H413 0.961 . S
C427 C426 1.502 . S
C428 H414 0.960 . S
C428 H415 0.961 . S
C428 H416 0.959 . S
C428 C426 1.561 . S
C429 C426 1.526 . S
C429 C430 1.396 . S
C429 C434 1.390 . S
C430 C424 1.465 . S
C430 C429 1.396 . S
C430 C431 1.399 . S
C431 H417 0.929 . S
C431 C430 1.399 . S
C431 C432 1.385 . S
C432 H418 0.931 . S
C432 C431 1.385 . S
C432 C433 1.389 . S
C433 C432 1.389 . S
C433 C434 1.387 . S
C434 H419 0.930 . S
C434 C429 1.390 . S
C434 C433 1.387 . S
H435 C447 0.930 . S
H436 C449 0.930 . S
H437 C450 0.930 . S
H438 C454 0.959 . S
H439 C454 0.959 . S
H440 C454 0.961 . S
H441 C455 0.960 . S
H442 C455 0.961 . S
H443 C455 0.959 . S
H444 C458 0.929 . S
H445 C459 0.931 . S
H446 C461 0.930 . S
C447 H435 0.930 . S
C447 C448 1.399 . S
C447 C452 1.399 . S
C448 C447 1.399 . S
C448 C449 1.376 . S
C449 H436 0.930 . S
C449 C448 1.376 . S
C449 C450 1.388 . S
C450 H437 0.930 . S
C450 C449 1.388 . S
C450 C451 1.390 . S
C451 C450 1.390 . S
C451 C452 1.394 . S
C451 C457 1.465 . S
C452 C447 1.399 . S
C452 C451 1.394 . S
C452 C453 1.516 . S
C453 C452 1.516 . S
C453 C454 1.502 . S
C453 C455 1.561 . S
C453 C456 1.526 . S
C454 H438 0.959 . S
C454 H439 0.959 . S
C454 H440 0.961 . S
C454 C453 1.502 . S
C455 H441 0.960 . S
C455 H442 0.961 . S
C455 H443 0.959 . S
C455 C453 1.561 . S
C456 C453 1.526 . S
C456 C457 1.396 . S
C456 C461 1.390 . S
C457 C451 1.465 . S
C457 C456 1.396 . S
C457 C458 1.399 . S
C458 H444 0.929 . S
C458 C457 1.399 . S
C458 C459 1.385 . S
C459 H445 0.931 . S
C459 C458 1.385 . S
C459 C460 1.389 . S
C460 C459 1.389 . S
C460 C461 1.387 . S
C461 H446 0.930 . S
C461 C456 1.390 . S
C461 C460 1.387 . S
H462 C474 0.930 . S
H463 C476 0.930 . S
H464 C477 0.930 . S
H465 C481 0.959 . S
H466 C481 0.959 . S
H467 C481 0.961 . S
H468 C482 0.960 . S
H469 C482 0.961 . S
H470 C482 0.959 . S
H471 C485 0.929 . S
H472 C486 0.931 . S
H473 C488 0.930 . S
C474 H462 0.930 . S
C474 C475 1.399 . S
C474 C479 1.399 . S
C475 C474 1.399 . S
C475 C476 1.376 . S
C476 H463 0.930 . S
C476 C475 1.376 . S
C476 C477 1.388 . S
C477 H464 0.930 . S
C477 C476 1.388 . S
C477 C478 1.390 . S
C478 C477 1.390 . S
C478 C479 1.394 . S
C478 C484 1.465 . S
C479 C474 1.399 . S
C479 C478 1.394 . S
C479 C480 1.516 . S
C480 C479 1.516 . S
C480 C481 1.502 . S
C480 C482 1.561 . S
C480 C483 1.526 . S
C481 H465 0.959 . S
C481 H466 0.959 . S
C481 H467 0.961 . S
C481 C480 1.502 . S
C482 H468 0.960 . S
C482 H469 0.961 . S
C482 H470 0.959 . S
C482 C480 1.561 . S
C483 C480 1.526 . S
C483 C484 1.396 . S
C483 C488 1.390 . S
C484 C478 1.465 . S
C484 C483 1.396 . S
C484 C485 1.399 . S
C485 H471 0.929 . S
C485 C484 1.399 . S
C485 C486 1.385 . S
C486 H472 0.931 . S
C486 C485 1.385 . S
C486 C487 1.389 . S
C487 C486 1.389 . S
C487 C488 1.387 . S
C488 H473 0.930 . S
C488 C483 1.390 . S
C488 C487 1.387 . S
H489 C501 0.930 . S
H490 C503 0.930 . S
H491 C504 0.930 . S
H492 C508 0.959 . S
H493 C508 0.959 . S
H494 C508 0.961 . S
H495 C509 0.960 . S
H496 C509 0.961 . S
H497 C509 0.959 . S
H498 C512 0.929 . S
H499 C513 0.931 . S
H500 C515 0.930 . S
C501 H489 0.930 . S
C501 C502 1.399 . S
C501 C506 1.399 . S
C502 C501 1.399 . S
C502 C503 1.376 . S
C503 H490 0.930 . S
C503 C502 1.376 . S
C503 C504 1.388 . S
C504 H491 0.930 . S
C504 C503 1.388 . S
C504 C505 1.390 . S
C505 C504 1.390 . S
C505 C506 1.394 . S
C505 C511 1.465 . S
C506 C501 1.399 . S
C506 C505 1.394 . S
C506 C507 1.516 . S
C507 C506 1.516 . S
C507 C508 1.502 . S
C507 C509 1.561 . S
C507 C510 1.526 . S
C508 H492 0.959 . S
C508 H493 0.959 . S
C508 H494 0.961 . S
C508 C507 1.502 . S
C509 H495 0.960 . S
C509 H496 0.961 . S
C509 H497 0.959 . S
C509 C507 1.561 . S
C510 C507 1.526 . S
C510 C511 1.396 . S
C510 C515 1.390 . S
C511 C505 1.465 . S
C511 C510 1.396 . S
C511 C512 1.399 . S
C512 H498 0.929 . S
C512 C511 1.399 . S
C512 C513 1.385 . S
C513 H499 0.931 . S
C513 C512 1.385 . S
C513 C514 1.389 . S
C514 C513 1.389 . S
C514 C515 1.387 . S
C515 H500 0.930 . S
C515 C510 1.390 . S
C515 C514 1.387 . S
H516 C528 0.930 . S
H517 C530 0.930 . S
H518 C531 0.930 . S
H519 C535 0.959 . S
H520 C535 0.959 . S
H521 C535 0.961 . S
H522 C536 0.960 . S
H523 C536 0.961 . S
H524 C536 0.959 . S
H525 C539 0.929 . S
H526 C540 0.931 . S
H527 C542 0.930 . S
C528 H516 0.930 . S
C528 C529 1.399 . S
C528 C533 1.399 . S
C529 C528 1.399 . S
C529 C530 1.376 . S
C530 H517 0.930 . S
C530 C529 1.376 . S
C530 C531 1.388 . S
C531 H518 0.930 . S
C531 C530 1.388 . S
C531 C532 1.390 . S
C532 C531 1.390 . S
C532 C533 1.394 . S
C532 C538 1.465 . S
C533 C528 1.399 . S
C533 C532 1.394 . S
C533 C534 1.516 . S
C534 C533 1.516 . S
C534 C535 1.502 . S
C534 C536 1.561 . S
C534 C537 1.526 . S
C535 H519 0.959 . S
C535 H520 0.959 . S
C535 H521 0.961 . S
C535 C534 1.502 . S
C536 H522 0.960 . S
C536 H523 0.961 . S
C536 H524 0.959 . S
C536 C534 1.561 . S
C537 C534 1.526 . S
C537 C538 1.396 . S
C537 C542 1.390 . S
C538 C532 1.465 . S
C538 C537 1.396 . S
C538 C539 1.399 . S
C539 H525 0.929 . S
C539 C538 1.399 . S
C539 C540 1.385 . S
C540 H526 0.931 . S
C540 C539 1.385 . S
C540 C541 1.389 . S
C541 C540 1.389 . S
C541 C542 1.387 . S
C542 H527 0.930 . S
C542 C537 1.390 . S
C542 C541 1.387 . S
H543 C555 0.930 . S
H544 C557 0.930 . S
H545 C558 0.930 . S
H546 C562 0.959 . S
H547 C562 0.959 . S
H548 C562 0.961 . S
H549 C563 0.960 . S
H550 C563 0.961 . S
H551 C563 0.959 . S
H552 C566 0.929 . S
H553 C567 0.931 . S
H554 C569 0.930 . S
C555 H543 0.930 . S
C555 C556 1.399 . S
C555 C560 1.399 . S
C556 C555 1.399 . S
C556 C557 1.376 . S
C557 H544 0.930 . S
C557 C556 1.376 . S
C557 C558 1.388 . S
C558 H545 0.930 . S
C558 C557 1.388 . S
C558 C559 1.390 . S
C559 C558 1.390 . S
C559 C560 1.394 . S
C559 C565 1.465 . S
C560 C555 1.399 . S
C560 C559 1.394 . S
C560 C561 1.516 . S
C561 C560 1.516 . S
C561 C562 1.502 . S
C561 C563 1.561 . S
C561 C564 1.526 . S
C562 H546 0.959 . S
C562 H547 0.959 . S
C562 H548 0.961 . S
C562 C561 1.502 . S
C563 H549 0.960 . S
C563 H550 0.961 . S
C563 H551 0.959 . S
C563 C561 1.561 . S
C564 C561 1.526 . S
C564 C565 1.396 . S
C564 C569 1.390 . S
C565 C559 1.465 . S
C565 C564 1.396 . S
C565 C566 1.399 . S
C566 H552 0.929 . S
C566 C565 1.399 . S
C566 C567 1.385 . S
C567 H553 0.931 . S
C567 C566 1.385 . S
C567 C568 1.389 . S
C568 C567 1.389 . S
C568 C569 1.387 . S
C569 H554 0.930 . S
C569 C564 1.390 . S
C569 C568 1.387 . S
H570 C582 0.930 . S
H571 C584 0.930 . S
H572 C585 0.930 . S
H573 C589 0.959 . S
H574 C589 0.959 . S
H575 C589 0.961 . S
H576 C590 0.960 . S
H577 C590 0.961 . S
H578 C590 0.959 . S
H579 C593 0.929 . S
H580 C594 0.931 . S
H581 C596 0.930 . S
C582 H570 0.930 . S
C582 C583 1.399 . S
C582 C587 1.399 . S
C583 C582 1.399 . S
C583 C584 1.376 . S
C584 H571 0.930 . S
C584 C583 1.376 . S
C584 C585 1.388 . S
C585 H572 0.930 . S
C585 C584 1.388 . S
C585 C586 1.390 . S
C586 C585 1.390 . S
C586 C587 1.394 . S
C586 C592 1.465 1_565 S
C587 C582 1.399 . S
C587 C586 1.394 . S
C587 C588 1.516 . S
C588 C587 1.516 . S
C588 C589 1.502 . S
C588 C590 1.561 . S
C588 C591 1.526 1_565 S
C589 H573 0.959 . S
C589 H574 0.959 . S
C589 H575 0.961 . S
C589 C588 1.502 . S
C590 H576 0.960 . S
C590 H577 0.961 . S
C590 H578 0.959 . S
C590 C588 1.561 . S
C591 C588 1.526 1_545 S
C591 C592 1.396 . S
C591 C596 1.390 . S
C592 C586 1.465 1_545 S
C592 C591 1.396 . S
C592 C593 1.399 . S
C593 H579 0.929 . S
C593 C592 1.399 . S
C593 C594 1.385 . S
C594 H580 0.931 . S
C594 C593 1.385 . S
C594 C595 1.389 . S
C595 C594 1.389 . S
C595 C596 1.387 . S
C596 H581 0.930 . S
C596 C591 1.390 . S
C596 C595 1.387 . S
H597 C609 0.930 . S
H598 C611 0.930 . S
H599 C612 0.930 . S
H600 C616 0.959 . S
H601 C616 0.959 . S
H602 C616 0.961 . S
H603 C617 0.960 . S
H604 C617 0.961 . S
H605 C617 0.959 . S
H606 C620 0.929 . S
H607 C621 0.931 . S
H608 C623 0.930 . S
C609 H597 0.930 . S
C609 C610 1.399 . S
C609 C614 1.399 . S
C610 C609 1.399 . S
C610 C611 1.376 . S
C611 H598 0.930 . S
C611 C610 1.376 . S
C611 C612 1.388 . S
C612 H599 0.930 . S
C612 C611 1.388 . S
C612 C613 1.390 . S
C613 C612 1.390 . S
C613 C614 1.394 . S
C613 C619 1.465 . S
C614 C609 1.399 . S
C614 C613 1.394 . S
C614 C615 1.516 . S
C615 C614 1.516 . S
C615 C616 1.502 . S
C615 C617 1.561 . S
C615 C618 1.526 . S
C616 H600 0.959 . S
C616 H601 0.959 . S
C616 H602 0.961 . S
C616 C615 1.502 . S
C617 H603 0.960 . S
C617 H604 0.961 . S
C617 H605 0.959 . S
C617 C615 1.561 . S
C618 C615 1.526 . S
C618 C619 1.396 . S
C618 C623 1.390 . S
C619 C613 1.465 . S
C619 C618 1.396 . S
C619 C620 1.399 . S
C620 H606 0.929 . S
C620 C619 1.399 . S
C620 C621 1.385 . S
C621 H607 0.931 . S
C621 C620 1.385 . S
C621 C622 1.389 . S
C622 C621 1.389 . S
C622 C623 1.387 . S
C623 H608 0.930 . S
C623 C618 1.390 . S
C623 C622 1.387 . S
H624 C636 0.930 . S
H625 C638 0.930 . S
H626 C639 0.930 . S
H627 C643 0.959 . S
H628 C643 0.959 . S
H629 C643 0.961 . S
H630 C644 0.965 . S
H631 C644 0.961 . S
H632 C644 0.959 . S
H633 C647 0.929 . S
H634 C648 0.931 . S
H635 C650 0.930 . S
C636 H624 0.930 . S
C636 C637 1.399 . S
C636 C641 1.399 . S
C637 C636 1.399 . S
C637 C638 1.376 . S
C638 H625 0.930 . S
C638 C637 1.376 . S
C638 C639 1.388 . S
C639 H626 0.930 . S
C639 C638 1.388 . S
C639 C640 1.390 . S
C640 C639 1.390 . S
C640 C641 1.394 . S
C640 C646 1.465 1_455 S
C641 C636 1.399 . S
C641 C640 1.394 . S
C641 C642 1.516 1_455 S
C642 C641 1.516 1_655 S
C642 C643 1.502 . S
C642 C644 1.561 . S
C642 C645 1.526 . S
C643 H627 0.959 . S
C643 H628 0.959 . S
C643 H629 0.961 . S
C643 C642 1.502 . S
C644 H630 0.965 . S
C644 H631 0.961 . S
C644 H632 0.959 . S
C644 C642 1.561 . S
C645 C642 1.526 . S
C645 C646 1.396 . S
C645 C650 1.390 . S
C646 C640 1.465 1_655 S
C646 C645 1.396 . S
C646 C647 1.399 . S
C647 H633 0.929 . S
C647 C646 1.399 . S
C647 C648 1.385 . S
C648 H634 0.931 . S
C648 C647 1.385 . S
C648 C649 1.389 . S
C649 C648 1.389 . S
C649 C650 1.387 . S
C650 H635 0.930 . S
C650 C645 1.390 . S
C650 C649 1.387 . S
H651 C663 0.969 . S
H652 C665 0.930 . S
H653 C666 0.930 . S
H654 C670 0.959 . S
H655 C670 0.959 . S
H656 C670 0.961 . S
H657 C671 0.960 . S
H658 C671 0.961 . S
H659 C671 0.959 . S
H660 C674 0.929 . S
H661 C675 0.931 . S
H662 C677 0.930 . S
C663 H651 0.969 . S
C663 C664 1.353 1_554 S
C663 C668 1.407 . S
C664 C663 1.353 1_556 S
C664 C665 1.376 . S
C665 H652 0.930 . S
C665 C664 1.376 . S
C665 C666 1.388 . S
C666 H653 0.930 . S
C666 C665 1.388 . S
C666 C667 1.390 . S
C667 C666 1.390 . S
C667 C668 1.394 1_556 S
C667 C673 1.465 1_565 S
C668 C663 1.407 . S
C668 C667 1.394 1_554 S
C668 C669 1.516 . S
C669 C668 1.516 . S
C669 C670 1.502 . S
C669 C671 1.561 . S
C669 C672 1.526 1_565 S
C670 H654 0.959 . S
C670 H655 0.959 . S
C670 H656 0.961 . S
C670 C669 1.502 . S
C671 H657 0.960 . S
C671 H658 0.961 . S
C671 H659 0.959 . S
C671 C669 1.561 . S
C672 C669 1.526 1_545 S
C672 C673 1.396 1_554 S
C672 C677 1.390 . S
C673 C667 1.465 1_545 S
C673 C672 1.396 1_556 S
C673 C674 1.399 . S
C674 H660 0.929 . S
C674 C673 1.399 . S
C674 C675 1.385 . S
C675 H661 0.931 . S
C675 C674 1.385 . S
C675 C676 1.389 1_556 S
C676 C675 1.389 1_554 S
C676 C677 1.387 . S
C677 H662 0.930 . S
C677 C672 1.390 . S
C677 C676 1.387 . S
H678 C690 0.930 . S
H679 C692 0.930 . S
H680 C693 0.930 . S
H681 C697 0.959 . S
H682 C697 0.959 . S
H683 C697 0.961 . S
H684 C698 0.960 . S
H685 C698 0.961 . S
H686 C698 0.959 . S
H687 C701 0.929 . S
H688 C702 0.931 . S
H689 C704 0.930 . S
C690 H678 0.930 . S
C690 C691 1.399 . S
C690 C695 1.399 . S
C691 C690 1.399 . S
C691 C692 1.376 . S
C692 H679 0.930 . S
C692 C691 1.376 . S
C692 C693 1.388 . S
C693 H680 0.930 . S
C693 C692 1.388 . S
C693 C694 1.390 . S
C694 C693 1.390 . S
C694 C695 1.394 . S
C694 C700 1.465 . S
C695 C690 1.399 . S
C695 C694 1.394 . S
C695 C696 1.516 . S
C696 C695 1.516 . S
C696 C697 1.502 . S
C696 C698 1.561 . S
C696 C699 1.526 . S
C697 H681 0.959 . S
C697 H682 0.959 . S
C697 H683 0.961 . S
C697 C696 1.502 . S
C698 H684 0.960 . S
C698 H685 0.961 . S
C698 H686 0.959 . S
C698 C696 1.561 . S
C699 C696 1.526 . S
C699 C700 1.396 . S
C699 C704 1.390 . S
C700 C694 1.465 . S
C700 C699 1.396 . S
C700 C701 1.399 . S
C701 H687 0.929 . S
C701 C700 1.399 . S
C701 C702 1.385 . S
C702 H688 0.931 . S
C702 C701 1.385 . S
C702 C703 1.389 . S
C703 C702 1.389 . S
C703 C704 1.387 . S
C704 H689 0.930 . S
C704 C699 1.390 . S
C704 C703 1.387 . S
H705 C717 0.930 . S
H706 C719 0.930 . S
H707 C720 0.930 . S
H708 C724 0.959 . S
H709 C724 0.959 . S
H710 C724 0.961 . S
H711 C725 0.960 1_455 S
H712 C725 0.961 . S
H713 C725 0.959 . S
H714 C728 0.929 . S
H715 C729 0.931 . S
H716 C731 0.930 . S
C717 H705 0.930 . S
C717 C718 1.399 . S
C717 C722 1.399 . S
C718 C717 1.399 . S
C718 C719 1.376 . S
C719 H706 0.930 . S
C719 C718 1.376 . S
C719 C720 1.388 . S
C720 H707 0.930 . S
C720 C719 1.388 . S
C720 C721 1.390 . S
C721 C720 1.390 . S
C721 C722 1.394 . S
C721 C727 1.465 1_455 S
C722 C717 1.399 . S
C722 C721 1.394 . S
C722 C723 1.516 1_455 S
C723 C722 1.516 1_655 S
C723 C724 1.502 . S
C723 C725 1.561 . S
C723 C726 1.526 . S
C724 H708 0.959 . S
C724 H709 0.959 . S
C724 H710 0.961 . S
C724 C723 1.502 . S
C725 H711 0.960 1_655 S
C725 H712 0.961 . S
C725 H713 0.959 . S
C725 C723 1.561 . S
C726 C723 1.526 . S
C726 C727 1.396 . S
C726 C731 1.390 . S
C727 C721 1.465 1_655 S
C727 C726 1.396 . S
C727 C728 1.399 . S
C728 H714 0.929 . S
C728 C727 1.399 . S
C728 C729 1.385 . S
C729 H715 0.931 . S
C729 C728 1.385 . S
C729 C730 1.389 . S
C730 C729 1.389 . S
C730 C731 1.387 . S
C731 H716 0.930 . S
C731 C726 1.390 . S
C731 C730 1.387 . S
H732 C744 0.930 . S
H733 C746 0.930 . S
H734 C747 0.930 . S
H735 C751 0.959 . S
H736 C751 0.959 . S
H737 C751 0.961 . S
H738 C752 0.960 . S
H739 C752 0.961 . S
H740 C752 0.959 . S
H741 C755 0.929 . S
H742 C756 0.931 . S
H743 C758 0.930 . S
C744 H732 0.930 . S
C744 C745 1.399 . S
C744 C749 1.399 . S
C745 C744 1.399 . S
C745 C746 1.376 1_545 S
C746 H733 0.930 . S
C746 C745 1.376 1_565 S
C746 C747 1.388 1_565 S
C747 H734 0.930 . S
C747 C746 1.388 1_545 S
C747 C748 1.390 . S
C748 C747 1.390 . S
C748 C749 1.394 . S
C748 C754 1.465 . S
C749 C744 1.399 . S
C749 C748 1.394 . S
C749 C750 1.516 . S
C750 C749 1.516 . S
C750 C751 1.502 . S
C750 C752 1.561 . S
C750 C753 1.526 . S
C751 H735 0.959 . S
C751 H736 0.959 . S
C751 H737 0.961 . S
C751 C750 1.502 . S
C752 H738 0.960 . S
C752 H739 0.961 . S
C752 H740 0.959 . S
C752 C750 1.561 . S
C753 C750 1.526 . S
C753 C754 1.396 . S
C753 C758 1.390 . S
C754 C748 1.465 . S
C754 C753 1.396 . S
C754 C755 1.399 . S
C755 H741 0.929 . S
C755 C754 1.399 . S
C755 C756 1.385 . S
C756 H742 0.931 . S
C756 C755 1.385 . S
C756 C757 1.389 . S
C757 C756 1.389 . S
C757 C758 1.387 . S
C758 H743 0.930 . S
C758 C753 1.390 . S
C758 C757 1.387 . S
H759 C771 0.930 . S
H760 C773 0.930 . S
H761 C774 0.930 . S
H762 C778 0.959 . S
H763 C778 0.959 . S
H764 C778 0.961 . S
H765 C779 0.960 . S
H766 C779 0.961 . S
H767 C779 0.959 . S
H768 C782 0.929 . S
H769 C783 0.931 . S
H770 C785 0.930 . S
C771 H759 0.930 . S
C771 C772 1.399 . S
C771 C776 1.399 . S
C772 C771 1.399 . S
C772 C773 1.376 . S
C773 H760 0.930 . S
C773 C772 1.376 . S
C773 C774 1.388 . S
C774 H761 0.930 . S
C774 C773 1.388 . S
C774 C775 1.390 . S
C775 C774 1.390 . S
C775 C776 1.394 . S
C775 C781 1.465 . S
C776 C771 1.399 . S
C776 C775 1.394 . S
C776 C777 1.516 . S
C777 C776 1.516 . S
C777 C778 1.502 . S
C777 C779 1.561 . S
C777 C780 1.526 . S
C778 H762 0.959 . S
C778 H763 0.959 . S
C778 H764 0.961 . S
C778 C777 1.502 . S
C779 H765 0.960 . S
C779 H766 0.961 . S
C779 H767 0.959 . S
C779 C777 1.561 . S
C780 C777 1.526 . S
C780 C781 1.396 . S
C780 C785 1.390 . S
C781 C775 1.465 . S
C781 C780 1.396 . S
C781 C782 1.399 . S
C782 H768 0.929 . S
C782 C781 1.399 . S
C782 C783 1.385 . S
C783 H769 0.931 . S
C783 C782 1.385 . S
C783 C784 1.389 . S
C784 C783 1.389 . S
C784 C785 1.387 . S
C785 H770 0.930 . S
C785 C780 1.390 . S
C785 C784 1.387 . S
H786 C798 0.930 . S
H787 C800 0.930 . S
H788 C801 0.930 . S
H789 C805 0.959 . S
H790 C805 0.959 . S
H791 C805 0.961 . S
H792 C806 0.960 . S
H793 C806 0.961 . S
H794 C806 0.959 . S
H795 C809 0.929 . S
H796 C810 0.931 1_455 S
H797 C812 0.930 . S
C798 H786 0.930 . S
C798 C799 1.399 . S
C798 C803 1.399 . S
C799 C798 1.399 . S
C799 C800 1.376 . S
C800 H787 0.930 . S
C800 C799 1.376 . S
C800 C801 1.388 . S
C801 H788 0.930 . S
C801 C800 1.388 . S
C801 C802 1.390 . S
C802 C801 1.390 . S
C802 C803 1.394 . S
C802 C808 1.465 . S
C803 C798 1.399 . S
C803 C802 1.394 . S
C803 C804 1.516 . S
C804 C803 1.516 . S
C804 C805 1.502 . S
C804 C806 1.561 . S
C804 C807 1.526 . S
C805 H789 0.959 . S
C805 H790 0.959 . S
C805 H791 0.961 . S
C805 C804 1.502 . S
C806 H792 0.960 . S
C806 H793 0.961 . S
C806 H794 0.959 . S
C806 C804 1.561 . S
C807 C804 1.526 . S
C807 C808 1.396 . S
C807 C812 1.390 . S
C808 C802 1.465 . S
C808 C807 1.396 . S
C808 C809 1.399 . S
C809 H795 0.929 . S
C809 C808 1.399 . S
C809 C810 1.385 . S
C810 H796 0.931 1_655 S
C810 C809 1.385 . S
C810 C811 1.389 . S
C811 C810 1.389 . S
C811 C812 1.387 . S
C812 H797 0.930 . S
C812 C807 1.390 . S
C812 C811 1.387 . S
H813 C825 0.930 . S
H814 C827 0.930 . S
H815 C828 0.930 . S
H816 C832 0.959 . S
H817 C832 0.959 . S
H818 C832 0.961 . S
H819 C833 0.960 . S
H820 C833 0.961 . S
H821 C833 0.959 . S
H822 C836 0.929 . S
H823 C837 0.931 . S
H824 C839 0.930 . S
C825 H813 0.930 . S
C825 C826 1.399 . S
C825 C830 1.399 . S
C826 C825 1.399 . S
C826 C827 1.376 1_565 S
C827 H814 0.930 . S
C827 C826 1.376 1_545 S
C827 C828 1.388 1_545 S
C828 H815 0.930 . S
C828 C827 1.388 1_565 S
C828 C829 1.390 . S
C829 C828 1.390 . S
C829 C830 1.394 . S
C829 C835 1.465 . S
C830 C825 1.399 . S
C830 C829 1.394 . S
C830 C831 1.516 . S
C831 C830 1.516 . S
C831 C832 1.502 . S
C831 C833 1.561 . S
C831 C834 1.526 . S
C832 H816 0.959 . S
C832 H817 0.959 . S
C832 H818 0.961 . S
C832 C831 1.502 . S
C833 H819 0.960 . S
C833 H820 0.961 . S
C833 H821 0.959 . S
C833 C831 1.561 . S
C834 C831 1.526 . S
C834 C835 1.396 . S
C834 C839 1.390 . S
C835 C829 1.465 . S
C835 C834 1.396 . S
C835 C836 1.399 . S
C836 H822 0.929 . S
C836 C835 1.399 . S
C836 C837 1.385 . S
C837 H823 0.931 . S
C837 C836 1.385 . S
C837 C838 1.389 . S
C838 C837 1.389 . S
C838 C839 1.387 . S
C839 H824 0.930 . S
C839 C834 1.390 . S
C839 C838 1.387 . S
H840 C852 0.930 . S
H841 C854 0.938 . S
H842 C855 0.930 . S
H843 C859 0.959 1_556 S
H844 C859 0.959 . S
H845 C859 0.961 1_556 S
H846 C860 0.960 . S
H847 C860 0.961 . S
H848 C860 0.959 . S
H849 C863 0.929 . S
H850 C864 0.931 . S
H851 C866 0.930 . S
C852 H840 0.930 . S
C852 C853 1.399 . S
C852 C857 1.399 1_556 S
C853 C852 1.399 . S
C853 C854 1.391 . S
C854 H841 0.938 . S
C854 C853 1.391 . S
C854 C855 1.368 1_556 S
C855 H842 0.930 . S
C855 C854 1.368 1_554 S
C855 C856 1.390 . S
C856 C855 1.390 . S
C856 C857 1.394 . S
C856 C862 1.465 . S
C857 C852 1.399 1_554 S
C857 C856 1.394 . S
C857 C858 1.516 . S
C858 C857 1.516 . S
C858 C859 1.502 . S
C858 C860 1.561 . S
C858 C861 1.526 . S
C859 H843 0.959 1_554 S
C859 H844 0.959 . S
C859 H845 0.961 1_554 S
C859 C858 1.502 . S
C860 H846 0.960 . S
C860 H847 0.961 . S
C860 H848 0.959 . S
C860 C858 1.561 . S
C861 C858 1.526 . S
C861 C862 1.396 . S
C861 C866 1.390 . S
C862 C856 1.465 . S
C862 C861 1.396 . S
C862 C863 1.399 . S
C863 H849 0.929 . S
C863 C862 1.399 . S
C863 C864 1.385 . S
C864 H850 0.931 . S
C864 C863 1.385 . S
C864 C865 1.389 . S
C865 C864 1.389 . S
C865 C866 1.387 . S
C866 H851 0.930 . S
C866 C861 1.390 . S
C866 C865 1.387 . S
H867 C879 0.930 . S
H868 C881 0.930 1_655 S
H869 C882 0.930 . S
H870 C886 0.959 . S
H871 C886 0.959 . S
H872 C886 0.961 . S
H873 C887 0.960 . S
H874 C887 0.961 . S
H875 C887 0.959 . S
H876 C890 0.929 . S
H877 C891 0.931 . S
H878 C893 0.930 . S
C879 H867 0.930 . S
C879 C880 1.399 . S
C879 C884 1.399 . S
C880 C879 1.399 . S
C880 C881 1.376 . S
C881 H868 0.930 1_455 S
C881 C880 1.376 . S
C881 C882 1.388 . S
C882 H869 0.930 . S
C882 C881 1.388 . S
C882 C883 1.390 . S
C883 C882 1.390 . S
C883 C884 1.394 . S
C883 C889 1.465 . S
C884 C879 1.399 . S
C884 C883 1.394 . S
C884 C885 1.516 . S
C885 C884 1.516 . S
C885 C886 1.502 . S
C885 C887 1.561 . S
C885 C888 1.526 . S
C886 H870 0.959 . S
C886 H871 0.959 . S
C886 H872 0.961 . S
C886 C885 1.502 . S
C887 H873 0.960 . S
C887 H874 0.961 . S
C887 H875 0.959 . S
C887 C885 1.561 . S
C888 C885 1.526 . S
C888 C889 1.396 . S
C888 C893 1.390 . S
C889 C883 1.465 . S
C889 C888 1.396 . S
C889 C890 1.399 . S
C890 H876 0.929 . S
C890 C889 1.399 . S
C890 C891 1.385 . S
C891 H877 0.931 . S
C891 C890 1.385 . S
C891 C892 1.389 . S
C892 C891 1.389 . S
C892 C893 1.387 . S
C893 H878 0.930 . S
C893 C888 1.390 . S
C893 C892 1.387 . S
H894 C906 0.930 . S
H895 C908 0.930 . S
H896 C909 0.930 . S
H897 C913 0.959 . S
H898 C913 0.959 . S
H899 C913 0.961 . S
H900 C914 0.960 . S
H901 C914 0.961 . S
H902 C914 0.959 . S
H903 C917 0.929 . S
H904 C918 0.931 . S
H905 C920 0.930 . S
C906 H894 0.930 . S
C906 C907 1.399 . S
C906 C911 1.399 . S
C907 C906 1.399 . S
C907 C908 1.376 . S
C908 H895 0.930 . S
C908 C907 1.376 . S
C908 C909 1.388 . S
C909 H896 0.930 . S
C909 C908 1.388 . S
C909 C910 1.390 . S
C910 C909 1.390 . S
C910 C911 1.394 . S
C910 C916 1.465 . S
C911 C906 1.399 . S
C911 C910 1.394 . S
C911 C912 1.516 . S
C912 C911 1.516 . S
C912 C913 1.502 . S
C912 C914 1.561 . S
C912 C915 1.526 . S
C913 H897 0.959 . S
C913 H898 0.959 . S
C913 H899 0.961 . S
C913 C912 1.502 . S
C914 H900 0.960 . S
C914 H901 0.961 . S
C914 H902 0.959 . S
C914 C912 1.561 . S
C915 C912 1.526 . S
C915 C916 1.396 . S
C915 C920 1.390 . S
C916 C910 1.465 . S
C916 C915 1.396 . S
C916 C917 1.399 . S
C917 H903 0.929 . S
C917 C916 1.399 . S
C917 C918 1.385 . S
C918 H904 0.931 . S
C918 C917 1.385 . S
C918 C919 1.389 . S
C919 C918 1.389 . S
C919 C920 1.387 . S
C920 H905 0.930 . S
C920 C915 1.390 . S
C920 C919 1.387 . S
H921 C933 0.930 . S
H922 C935 0.930 . S
H923 C936 0.930 . S
H924 C940 0.959 . S
H925 C940 0.959 . S
H926 C940 0.961 . S
H927 C941 0.960 . S
H928 C941 0.961 . S
H929 C941 0.959 . S
H930 C944 0.929 . S
H931 C945 0.931 . S
H932 C947 0.930 . S
C933 H921 0.930 . S
C933 C934 1.399 . S
C933 C938 1.399 . S
C934 C933 1.399 . S
C934 C935 1.376 . S
C935 H922 0.930 . S
C935 C934 1.376 . S
C935 C936 1.388 . S
C936 H923 0.930 . S
C936 C935 1.388 . S
C936 C937 1.390 . S
C937 C936 1.390 . S
C937 C938 1.394 . S
C937 C943 1.465 . S
C938 C933 1.399 . S
C938 C937 1.394 . S
C938 C939 1.516 . S
C939 C938 1.516 . S
C939 C940 1.502 . S
C939 C941 1.561 . S
C939 C942 1.526 . S
C940 H924 0.959 . S
C940 H925 0.959 . S
C940 H926 0.961 . S
C940 C939 1.502 . S
C941 H927 0.960 . S
C941 H928 0.961 . S
C941 H929 0.959 . S
C941 C939 1.561 . S
C942 C939 1.526 . S
C942 C943 1.396 . S
C942 C947 1.390 . S
C943 C937 1.465 . S
C943 C942 1.396 . S
C943 C944 1.399 . S
C944 H930 0.929 . S
C944 C943 1.399 . S
C944 C945 1.385 1_565 S
C945 H931 0.931 . S
C945 C944 1.385 1_545 S
C945 C946 1.389 1_545 S
C946 C945 1.389 1_565 S
C946 C947 1.387 . S
C947 H932 0.930 . S
C947 C942 1.390 . S
C947 C946 1.387 . S
H948 C960 0.930 . S
H949 C962 0.930 . S
H950 C963 0.930 . S
H951 C967 0.959 . S
H952 C967 0.959 . S
H953 C967 0.961 . S
H954 C968 0.960 . S
H955 C968 0.961 . S
H956 C968 0.959 . S
H957 C971 0.929 . S
H958 C972 0.931 . S
H959 C974 0.930 . S
C960 H948 0.930 . S
C960 C961 1.399 . S
C960 C965 1.399 . S
C961 C960 1.399 . S
C961 C962 1.376 . S
C962 H949 0.930 . S
C962 C961 1.376 . S
C962 C963 1.388 . S
C963 H950 0.930 . S
C963 C962 1.388 . S
C963 C964 1.390 . S
C964 C963 1.390 . S
C964 C965 1.394 . S
C964 C970 1.465 . S
C965 C960 1.399 . S
C965 C964 1.394 . S
C965 C966 1.516 . S
C966 C965 1.516 . S
C966 C967 1.502 . S
C966 C968 1.561 . S
C966 C969 1.526 . S
C967 H951 0.959 . S
C967 H952 0.959 . S
C967 H953 0.961 . S
C967 C966 1.502 . S
C968 H954 0.960 . S
C968 H955 0.961 . S
C968 H956 0.959 . S
C968 C966 1.561 . S
C969 C966 1.526 . S
C969 C970 1.396 . S
C969 C974 1.390 . S
C970 C964 1.465 . S
C970 C969 1.396 . S
C970 C971 1.399 . S
C971 H957 0.929 . S
C971 C970 1.399 . S
C971 C972 1.385 . S
C972 H958 0.931 . S
C972 C971 1.385 . S
C972 C973 1.389 . S
C973 C972 1.389 . S
C973 C974 1.387 . S
C974 H959 0.930 . S
C974 C969 1.390 . S
C974 C973 1.387 . S
H975 C987 0.930 . S
H976 C989 0.930 1_655 S
H977 C990 0.930 . S
H978 C994 0.959 . S
H979 C994 0.959 . S
H980 C994 0.961 . S
H981 C995 0.960 . S
H982 C995 0.961 1_556 S
H983 C995 0.959 . S
H984 C998 0.929 . S
H985 C999 0.931 . S
H986 C1001 0.930 . S
C987 H975 0.930 . S
C987 C988 1.399 . S
C987 C992 1.399 1_554 S
C988 C987 1.399 . S
C988 C989 1.376 . S
C989 H976 0.930 1_455 S
C989 C988 1.376 . S
C989 C990 1.388 1_554 S
C990 H977 0.930 . S
C990 C989 1.388 1_556 S
C990 C991 1.390 . S
C991 C990 1.390 . S
C991 C992 1.394 . S
C991 C997 1.465 . S
C992 C987 1.399 1_556 S
C992 C991 1.394 . S
C992 C993 1.516 . S
C993 C992 1.516 . S
C993 C994 1.502 . S
C993 C995 1.561 1_556 S
C993 C996 1.526 . S
C994 H978 0.959 . S
C994 H979 0.959 . S
C994 H980 0.961 . S
C994 C993 1.502 . S
C995 H981 0.960 . S
C995 H982 0.961 1_554 S
C995 H983 0.959 . S
C995 C993 1.561 1_554 S
C996 C993 1.526 . S
C996 C997 1.396 . S
C996 C1001 1.390 . S
C997 C991 1.465 . S
C997 C996 1.396 . S
C997 C998 1.399 . S
C998 H984 0.929 . S
C998 C997 1.399 . S
C998 C999 1.385 . S
C999 H985 0.931 . S
C999 C998 1.385 . S
C999 C1000 1.389 . S
C1000 C999 1.389 . S
C1000 C1001 1.387 . S
C1001 H986 0.930 . S
C1001 C996 1.390 . S
C1001 C1000 1.387 . S
H1002 C1014 0.930 . S
H1003 C1016 0.930 . S
H1004 C1017 0.930 . S
H1005 C1021 0.959 . S
H1006 C1021 0.959 . S
H1007 C1021 0.961 . S
H1008 C1022 0.960 . S
H1009 C1022 0.961 . S
H1010 C1022 0.959 . S
H1011 C1025 0.929 . S
H1012 C1026 0.931 . S
H1013 C1028 0.930 . S
C1014 H1002 0.930 . S
C1014 C1015 1.399 . S
C1014 C1019 1.399 . S
C1015 C1014 1.399 . S
C1015 C1016 1.376 1_545 S
C1016 H1003 0.930 . S
C1016 C1015 1.376 1_565 S
C1016 C1017 1.388 1_565 S
C1017 H1004 0.930 . S
C1017 C1016 1.388 1_545 S
C1017 C1018 1.390 . S
C1018 C1017 1.390 . S
C1018 C1019 1.394 . S
C1018 C1024 1.465 . S
C1019 C1014 1.399 . S
C1019 C1018 1.394 . S
C1019 C1020 1.516 . S
C1020 C1019 1.516 . S
C1020 C1021 1.502 . S
C1020 C1022 1.561 . S
C1020 C1023 1.526 . S
C1021 H1005 0.959 . S
C1021 H1006 0.959 . S
C1021 H1007 0.961 . S
C1021 C1020 1.502 . S
C1022 H1008 0.960 . S
C1022 H1009 0.961 . S
C1022 H1010 0.959 . S
C1022 C1020 1.561 . S
C1023 C1020 1.526 . S
C1023 C1024 1.396 . S
C1023 C1028 1.390 . S
C1024 C1018 1.465 . S
C1024 C1023 1.396 . S
C1024 C1025 1.399 . S
C1025 H1011 0.929 . S
C1025 C1024 1.399 . S
C1025 C1026 1.385 . S
C1026 H1012 0.931 . S
C1026 C1025 1.385 . S
C1026 C1027 1.389 . S
C1027 C1026 1.389 . S
C1027 C1028 1.387 . S
C1028 H1013 0.930 . S
C1028 C1023 1.390 . S
C1028 C1027 1.387 . S
H1029 C1041 0.930 . S
H1030 C1043 0.930 . S
H1031 C1044 0.930 . S
H1032 C1048 0.959 . S
H1033 C1048 0.959 . S
H1034 C1048 0.961 . S
H1035 C1049 0.960 . S
H1036 C1049 0.961 . S
H1037 C1049 0.959 . S
H1038 C1052 0.929 . S
H1039 C1053 0.931 . S
H1040 C1055 0.930 . S
C1041 H1029 0.930 . S
C1041 C1042 1.399 . S
C1041 C1046 1.399 . S
C1042 C1041 1.399 . S
C1042 C1043 1.376 . S
C1043 H1030 0.930 . S
C1043 C1042 1.376 . S
C1043 C1044 1.388 . S
C1044 H1031 0.930 . S
C1044 C1043 1.388 . S
C1044 C1045 1.390 . S
C1045 C1044 1.390 . S
C1045 C1046 1.394 . S
C1045 C1051 1.465 . S
C1046 C1041 1.399 . S
C1046 C1045 1.394 . S
C1046 C1047 1.516 . S
C1047 C1046 1.516 . S
C1047 C1048 1.502 . S
C1047 C1049 1.561 . S
C1047 C1050 1.526 . S
C1048 H1032 0.959 . S
C1048 H1033 0.959 . S
C1048 H1034 0.961 . S
C1048 C1047 1.502 . S
C1049 H1035 0.960 . S
C1049 H1036 0.961 . S
C1049 H1037 0.959 . S
C1049 C1047 1.561 . S
C1050 C1047 1.526 . S
C1050 C1051 1.396 . S
C1050 C1055 1.390 . S
C1051 C1045 1.465 . S
C1051 C1050 1.396 . S
C1051 C1052 1.399 . S
C1052 H1038 0.929 . S
C1052 C1051 1.399 . S
C1052 C1053 1.385 . S
C1053 H1039 0.931 . S
C1053 C1052 1.385 . S
C1053 C1054 1.389 . S
C1054 C1053 1.389 . S
C1054 C1055 1.387 . S
C1055 H1040 0.930 . S
C1055 C1050 1.390 . S
C1055 C1054 1.387 . S
H1056 C1068 0.930 . S
H1057 C1070 0.930 . S
H1058 C1071 0.930 . S
H1059 C1075 0.959 . S
H1060 C1075 0.959 . S
H1061 C1075 0.961 . S
H1062 C1076 0.960 . S
H1063 C1076 0.961 . S
H1064 C1076 0.959 . S
H1065 C1079 0.929 . S
H1066 C1080 0.931 . S
H1067 C1082 0.930 . S
C1068 H1056 0.930 . S
C1068 C1069 1.399 . S
C1068 C1073 1.399 . S
C1069 C1068 1.399 . S
C1069 C1070 1.376 . S
C1070 H1057 0.930 . S
C1070 C1069 1.376 . S
C1070 C1071 1.388 . S
C1071 H1058 0.930 . S
C1071 C1070 1.388 . S
C1071 C1072 1.390 . S
C1072 C1071 1.390 . S
C1072 C1073 1.394 . S
C1072 C1078 1.465 . S
C1073 C1068 1.399 . S
C1073 C1072 1.394 . S
C1073 C1074 1.516 . S
C1074 C1073 1.516 . S
C1074 C1075 1.502 . S
C1074 C1076 1.561 . S
C1074 C1077 1.526 . S
C1075 H1059 0.959 . S
C1075 H1060 0.959 . S
C1075 H1061 0.961 . S
C1075 C1074 1.502 . S
C1076 H1062 0.960 . S
C1076 H1063 0.961 . S
C1076 H1064 0.959 . S
C1076 C1074 1.561 . S
C1077 C1074 1.526 . S
C1077 C1078 1.396 . S
C1077 C1082 1.390 . S
C1078 C1072 1.465 . S
C1078 C1077 1.396 . S
C1078 C1079 1.399 . S
C1079 H1065 0.929 . S
C1079 C1078 1.399 . S
C1079 C1080 1.385 . S
C1080 H1066 0.931 . S
C1080 C1079 1.385 . S
C1080 C1081 1.389 . S
C1081 C1080 1.389 . S
C1081 C1082 1.387 . S
C1082 H1067 0.930 . S
C1082 C1077 1.390 . S
C1082 C1081 1.387 . S
H1083 C1095 0.930 . S
H1084 C1097 0.930 . S
H1085 C1098 0.930 . S
H1086 C1102 0.959 . S
H1087 C1102 0.959 . S
H1088 C1102 0.961 . S
H1089 C1103 0.960 . S
H1090 C1103 0.961 . S
H1091 C1103 0.959 . S
H1092 C1106 0.929 . S
H1093 C1107 0.931 . S
H1094 C1109 0.930 . S
C1095 H1083 0.930 . S
C1095 C1096 1.399 . S
C1095 C1100 1.399 . S
C1096 C1095 1.399 . S
C1096 C1097 1.376 . S
C1097 H1084 0.930 . S
C1097 C1096 1.376 . S
C1097 C1098 1.388 . S
C1098 H1085 0.930 . S
C1098 C1097 1.388 . S
C1098 C1099 1.390 . S
C1099 C1098 1.390 . S
C1099 C1100 1.394 . S
C1099 C1105 1.465 . S
C1100 C1095 1.399 . S
C1100 C1099 1.394 . S
C1100 C1101 1.516 . S
C1101 C1100 1.516 . S
C1101 C1102 1.502 . S
C1101 C1103 1.561 . S
C1101 C1104 1.526 . S
C1102 H1086 0.959 . S
C1102 H1087 0.959 . S
C1102 H1088 0.961 . S
C1102 C1101 1.502 . S
C1103 H1089 0.960 . S
C1103 H1090 0.961 . S
C1103 H1091 0.959 . S
C1103 C1101 1.561 . S
C1104 C1101 1.526 . S
C1104 C1105 1.396 . S
C1104 C1109 1.390 . S
C1105 C1099 1.465 . S
C1105 C1104 1.396 . S
C1105 C1106 1.399 . S
C1106 H1092 0.929 . S
C1106 C1105 1.399 . S
C1106 C1107 1.385 . S
C1107 H1093 0.931 . S
C1107 C1106 1.385 . S
C1107 C1108 1.389 . S
C1108 C1107 1.389 . S
C1108 C1109 1.387 . S
C1109 H1094 0.930 . S
C1109 C1104 1.390 . S
C1109 C1108 1.387 . S
H1110 C1122 0.930 . S
H1111 C1124 0.930 . S
H1112 C1125 0.930 . S
H1113 C1129 0.959 . S
H1114 C1129 0.959 . S
H1115 C1129 0.961 . S
H1116 C1130 0.960 . S
H1117 C1130 0.961 . S
H1118 C1130 0.959 . S
H1119 C1133 0.929 . S
H1120 C1134 0.931 . S
H1121 C1136 0.930 . S
C1122 H1110 0.930 . S
C1122 C1123 1.399 . S
C1122 C1127 1.399 . S
C1123 C1122 1.399 . S
C1123 C1124 1.376 . S
C1124 H1111 0.930 . S
C1124 C1123 1.376 . S
C1124 C1125 1.388 . S
C1125 H1112 0.930 . S
C1125 C1124 1.388 . S
C1125 C1126 1.390 . S
C1126 C1125 1.390 . S
C1126 C1127 1.394 . S
C1126 C1132 1.465 . S
C1127 C1122 1.399 . S
C1127 C1126 1.394 . S
C1127 C1128 1.516 . S
C1128 C1127 1.516 . S
C1128 C1129 1.502 . S
C1128 C1130 1.561 . S
C1128 C1131 1.526 . S
C1129 H1113 0.959 . S
C1129 H1114 0.959 . S
C1129 H1115 0.961 . S
C1129 C1128 1.502 . S
C1130 H1116 0.960 . S
C1130 H1117 0.961 . S
C1130 H1118 0.959 . S
C1130 C1128 1.561 . S
C1131 C1128 1.526 . S
C1131 C1132 1.396 . S
C1131 C1136 1.390 . S
C1132 C1126 1.465 . S
C1132 C1131 1.396 . S
C1132 C1133 1.399 . S
C1133 H1119 0.929 . S
C1133 C1132 1.399 . S
C1133 C1134 1.385 . S
C1134 H1120 0.931 . S
C1134 C1133 1.385 . S
C1134 C1135 1.389 . S
C1135 C1134 1.389 . S
C1135 C1136 1.387 . S
C1136 H1121 0.930 . S
C1136 C1131 1.390 . S
C1136 C1135 1.387 . S
H1137 C1149 0.930 . S
H1138 C1151 0.930 . S
H1139 C1152 0.930 . S
H1140 C1156 0.959 . S
H1141 C1156 0.959 . S
H1142 C1156 0.961 . S
H1143 C1157 0.960 . S
H1144 C1157 0.961 . S
H1145 C1157 0.959 . S
H1146 C1160 0.929 . S
H1147 C1161 0.931 . S
H1148 C1163 0.930 . S
C1149 H1137 0.930 . S
C1149 C1150 1.399 . S
C1149 C1154 1.399 . S
C1150 C1149 1.399 . S
C1150 C1151 1.376 . S
C1151 H1138 0.930 . S
C1151 C1150 1.376 . S
C1151 C1152 1.388 . S
C1152 H1139 0.930 . S
C1152 C1151 1.388 . S
C1152 C1153 1.390 . S
C1153 C1152 1.390 . S
C1153 C1154 1.394 . S
C1153 C1159 1.465 . S
C1154 C1149 1.399 . S
C1154 C1153 1.394 . S
C1154 C1155 1.516 . S
C1155 C1154 1.516 . S
C1155 C1156 1.502 . S
C1155 C1157 1.561 . S
C1155 C1158 1.526 . S
C1156 H1140 0.959 . S
C1156 H1141 0.959 . S
C1156 H1142 0.961 . S
C1156 C1155 1.502 . S
C1157 H1143 0.960 . S
C1157 H1144 0.961 . S
C1157 H1145 0.959 . S
C1157 C1155 1.561 . S
C1158 C1155 1.526 . S
C1158 C1159 1.396 . S
C1158 C1163 1.390 . S
C1159 C1153 1.465 . S
C1159 C1158 1.396 . S
C1159 C1160 1.399 . S
C1160 H1146 0.929 . S
C1160 C1159 1.399 . S
C1160 C1161 1.385 . S
C1161 H1147 0.931 . S
C1161 C1160 1.385 . S
C1161 C1162 1.389 . S
C1162 C1161 1.389 . S
C1162 C1163 1.387 . S
C1163 H1148 0.930 . S
C1163 C1158 1.390 . S
C1163 C1162 1.387 . S
H1164 C1176 0.930 . S
H1165 C1178 0.930 . S
H1166 C1179 0.930 . S
H1167 C1183 0.959 . S
H1168 C1183 0.959 . S
H1169 C1183 0.961 . S
H1170 C1184 0.960 . S
H1171 C1184 0.961 . S
H1172 C1184 0.959 . S
H1173 C1187 0.929 . S
H1174 C1188 0.931 . S
H1175 C1190 0.930 . S
C1176 H1164 0.930 . S
C1176 C1177 1.399 . S
C1176 C1181 1.399 . S
C1177 C1176 1.399 . S
C1177 C1178 1.376 . S
C1178 H1165 0.930 . S
C1178 C1177 1.376 . S
C1178 C1179 1.388 . S
C1179 H1166 0.930 . S
C1179 C1178 1.388 . S
C1179 C1180 1.390 . S
C1180 C1179 1.390 . S
C1180 C1181 1.394 . S
C1180 C1186 1.465 . S
C1181 C1176 1.399 . S
C1181 C1180 1.394 . S
C1181 C1182 1.516 . S
C1182 C1181 1.516 . S
C1182 C1183 1.502 . S
C1182 C1184 1.561 . S
C1182 C1185 1.526 . S
C1183 H1167 0.959 . S
C1183 H1168 0.959 . S
C1183 H1169 0.961 . S
C1183 C1182 1.502 . S
C1184 H1170 0.960 . S
C1184 H1171 0.961 . S
C1184 H1172 0.959 . S
C1184 C1182 1.561 . S
C1185 C1182 1.526 . S
C1185 C1186 1.396 . S
C1185 C1190 1.390 . S
C1186 C1180 1.465 . S
C1186 C1185 1.396 . S
C1186 C1187 1.399 . S
C1187 H1173 0.929 . S
C1187 C1186 1.399 . S
C1187 C1188 1.385 . S
C1188 H1174 0.931 . S
C1188 C1187 1.385 . S
C1188 C1189 1.389 . S
C1189 C1188 1.389 . S
C1189 C1190 1.387 . S
C1190 H1175 0.930 . S
C1190 C1185 1.390 . S
C1190 C1189 1.387 . S
H1191 C1203 0.930 . S
H1192 C1205 0.930 . S
H1193 C1206 0.930 . S
H1194 C1210 0.959 . S
H1195 C1210 0.959 . S
H1196 C1210 0.961 . S
H1197 C1211 0.960 . S
H1198 C1211 0.961 . S
H1199 C1211 0.959 . S
H1200 C1214 0.929 . S
H1201 C1215 0.931 . S
H1202 C1217 0.930 . S
C1203 H1191 0.930 . S
C1203 C1204 1.399 . S
C1203 C1208 1.399 . S
C1204 C1203 1.399 . S
C1204 C1205 1.376 . S
C1205 H1192 0.930 . S
C1205 C1204 1.376 . S
C1205 C1206 1.388 . S
C1206 H1193 0.930 . S
C1206 C1205 1.388 . S
C1206 C1207 1.390 . S
C1207 C1206 1.390 . S
C1207 C1208 1.394 . S
C1207 C1213 1.465 . S
C1208 C1203 1.399 . S
C1208 C1207 1.394 . S
C1208 C1209 1.516 . S
C1209 C1208 1.516 . S
C1209 C1210 1.502 . S
C1209 C1211 1.561 . S
C1209 C1212 1.526 . S
C1210 H1194 0.959 . S
C1210 H1195 0.959 . S
C1210 H1196 0.961 . S
C1210 C1209 1.502 . S
C1211 H1197 0.960 . S
C1211 H1198 0.961 . S
C1211 H1199 0.959 . S
C1211 C1209 1.561 . S
C1212 C1209 1.526 . S
C1212 C1213 1.396 . S
C1212 C1217 1.390 . S
C1213 C1207 1.465 . S
C1213 C1212 1.396 . S
C1213 C1214 1.399 . S
C1214 H1200 0.929 . S
C1214 C1213 1.399 . S
C1214 C1215 1.385 . S
C1215 H1201 0.931 . S
C1215 C1214 1.385 . S
C1215 C1216 1.389 . S
C1216 C1215 1.389 . S
C1216 C1217 1.387 . S
C1217 H1202 0.930 . S
C1217 C1212 1.390 . S
C1217 C1216 1.387 . S
C421 C213 1.404 . S
C433 C9 1.412 . S
C448 C43 1.385 . S
C460 C247 1.377 . S
C475 C281 1.357 . S
C487 C77 1.364 . S
C502 C111 1.371 . S
C514 C315 1.364 . S
C529 C349 1.370 . S
C541 C145 1.378 . S
C556 C383 1.424 . S
C568 C179 1.418 . S
C583 C243 0.493 . S
C595 C5 0.442 . S
C610 C39 0.389 . S
C622 C277 0.454 . S
C637 C311 0.346 . S
C649 C73 0.420 . S
C664 C107 0.485 . S
C676 C345 0.429 . S
C691 C379 0.422 . S
C703 C141 0.347 . S
C718 C175 0.398 . S
C730 C209 0.460 . S
C745 C203 1.347 1_545 S
C757 C20 1.264 . S
C772 C33 1.358 . S
C784 C54 1.330 . S
C799 C88 1.301 . S
C811 C67 1.344 1_655 S
C826 C101 1.355 1_565 S
C838 C122 1.272 . S
C853 C135 1.341 . S
C865 C156 1.295 . S
C880 C169 1.376 1_455 S
C892 C190 1.303 . S
C907 C271 1.350 1_655 S
C919 C224 1.316 . S
C934 C258 1.263 . S
C946 C305 1.336 1_565 S
C961 C339 1.336 . S
C973 C292 1.281 . S
C988 C373 1.381 1_455 S
C1000 C326 1.313 . S
C1015 C407 1.345 1_545 S
C1027 C360 1.262 . S
C1042 C237 1.355 . S
C1054 C394 1.272 . S
C1069 C2 1.894 . S
C1081 C274 1.883 . S
C1096 C36 1.893 . S
C1108 C308 1.883 . S
C1123 C70 1.893 . S
C1135 C342 1.861 . S
C1150 C104 1.834 . S
C1162 C376 1.867 . S
C1177 C138 1.853 . S
C1189 C206 1.833 . S
C1204 C172 1.886 . S
C1216 C240 1.849 . S
