# Generated by pormake.
# Topology wfa, (4)-cn, num edge types: 1
# Building blocks:
#     Node 0, Type 0, BuildingBlock: NAWXER_clean_sbu_0, # of connection points: 4
#     Node 1, Type 0, BuildingBlock: NAWXER_clean_sbu_0, # of connection points: 4
#     Node 2, Type 0, BuildingBlock: NAWXER_clean_sbu_0, # of connection points: 4
#     Node 3, Type 0, BuildingBlock: NAWXER_clean_sbu_0, # of connection points: 4
#     Node 4, Type 0, BuildingBlock: NAWXER_clean_sbu_0, # of connection points: 4
#     Node 5, Type 0, BuildingBlock: NAWXER_clean_sbu_0, # of connection points: 4
#     Node 6, Type 0, BuildingBlock: NAWXER_clean_sbu_0, # of connection points: 4
#     Node 7, Type 0, BuildingBlock: NAWXER_clean_sbu_0, # of connection points: 4
#     Node 8, Type 0, BuildingBlock: NAWXER_clean_sbu_0, # of connection points: 4
#     Node 9, Type 0, BuildingBlock: NAWXER_clean_sbu_0, # of connection points: 4
#     Node 10, Type 0, BuildingBlock: NAWXER_clean_sbu_0, # of connection points: 4
#     Node 11, Type 0, BuildingBlock: NAWXER_clean_sbu_0, # of connection points: 4
#     Node 12, Type 0, BuildingBlock: NAWXER_clean_sbu_0, # of connection points: 4
#     Node 13, Type 0, BuildingBlock: NAWXER_clean_sbu_0, # of connection points: 4
#     Node 14, Type 0, BuildingBlock: NAWXER_clean_sbu_0, # of connection points: 4
#     Node 15, Type 0, BuildingBlock: NAWXER_clean_sbu_0, # of connection points: 4
#     Edge 16, Type (0, 0), BuildingBlock: UVAHIK_clean_linker_0, # of connection points: 2
#     Edge 17, Type (0, 0), BuildingBlock: UVAHIK_clean_linker_0, # of connection points: 2
#     Edge 18, Type (0, 0), BuildingBlock: UVAHIK_clean_linker_0, # of connection points: 2
#     Edge 19, Type (0, 0), BuildingBlock: UVAHIK_clean_linker_0, # of connection points: 2
#     Edge 20, Type (0, 0), BuildingBlock: UVAHIK_clean_linker_0, # of connection points: 2
#     Edge 21, Type (0, 0), BuildingBlock: UVAHIK_clean_linker_0, # of connection points: 2
#     Edge 22, Type (0, 0), BuildingBlock: UVAHIK_clean_linker_0, # of connection points: 2
#     Edge 23, Type (0, 0), BuildingBlock: UVAHIK_clean_linker_0, # of connection points: 2
#     Edge 24, Type (0, 0), BuildingBlock: UVAHIK_clean_linker_0, # of connection points: 2
#     Edge 25, Type (0, 0), BuildingBlock: UVAHIK_clean_linker_0, # of connection points: 2
#     Edge 26, Type (0, 0), BuildingBlock: UVAHIK_clean_linker_0, # of connection points: 2
#     Edge 27, Type (0, 0), BuildingBlock: UVAHIK_clean_linker_0, # of connection points: 2
#     Edge 28, Type (0, 0), BuildingBlock: UVAHIK_clean_linker_0, # of connection points: 2
#     Edge 29, Type (0, 0), BuildingBlock: UVAHIK_clean_linker_0, # of connection points: 2
#     Edge 30, Type (0, 0), BuildingBlock: UVAHIK_clean_linker_0, # of connection points: 2
#     Edge 31, Type (0, 0), BuildingBlock: UVAHIK_clean_linker_0, # of connection points: 2
#     Edge 32, Type (0, 0), BuildingBlock: UVAHIK_clean_linker_0, # of connection points: 2
#     Edge 33, Type (0, 0), BuildingBlock: UVAHIK_clean_linker_0, # of connection points: 2
#     Edge 34, Type (0, 0), BuildingBlock: UVAHIK_clean_linker_0, # of connection points: 2
#     Edge 35, Type (0, 0), BuildingBlock: UVAHIK_clean_linker_0, # of connection points: 2
#     Edge 36, Type (0, 0), BuildingBlock: UVAHIK_clean_linker_0, # of connection points: 2
#     Edge 37, Type (0, 0), BuildingBlock: UVAHIK_clean_linker_0, # of connection points: 2
#     Edge 38, Type (0, 0), BuildingBlock: UVAHIK_clean_linker_0, # of connection points: 2
#     Edge 39, Type (0, 0), BuildingBlock: UVAHIK_clean_linker_0, # of connection points: 2
#     Edge 40, Type (0, 0), BuildingBlock: UVAHIK_clean_linker_0, # of connection points: 2
#     Edge 41, Type (0, 0), BuildingBlock: UVAHIK_clean_linker_0, # of connection points: 2
#     Edge 42, Type (0, 0), BuildingBlock: UVAHIK_clean_linker_0, # of connection points: 2
#     Edge 43, Type (0, 0), BuildingBlock: UVAHIK_clean_linker_0, # of connection points: 2
#     Edge 44, Type (0, 0), BuildingBlock: UVAHIK_clean_linker_0, # of connection points: 2
#     Edge 45, Type (0, 0), BuildingBlock: UVAHIK_clean_linker_0, # of connection points: 2
#     Edge 46, Type (0, 0), BuildingBlock: UVAHIK_clean_linker_0, # of connection points: 2
#     Edge 47, Type (0, 0), BuildingBlock: UVAHIK_clean_linker_0, # of connection points: 2
# Relax obj value: 0.153
# Max RMSD: 0.233
# Mean RMSD: 0.220
data_MOF--net-wfa--node1-NAWXER_clean_sbu_0--edge1-UVAHIK_clean_linker_0
_symmetry_space_group_name_H-M    P1
_symmetry_Int_Tables_number       1
_symmetry_cell_setting            triclinic
loop_
_symmetry_equiv_pos_as_xyz
'x, y, z'
_cell_length_a     61.934249
_cell_length_b     61.925707
_cell_length_c     29.026197
_cell_angle_alpha  88.943116
_cell_angle_beta   88.899279
_cell_angle_gamma 88.758282
loop_
_atom_site_label
_atom_site_type_symbol
_atom_site_fract_x
_atom_site_fract_y
_atom_site_fract_z
_atom_type_partial_charge
C0 C 0.62804 0.99275 0.17098 0.0
C1 C 0.68104 1.00567 0.04405 0.0
O2 O 0.63377 0.01227 0.16457 0.0
Zn3 Zn 0.65337 0.03157 0.12094 0.0
O4 O 0.63646 0.97781 0.14633 0.0
Zn5 Zn 0.6554 0.99702 0.109 0.0
O6 O 0.67746 1.00816 0.15883 0.0
O7 O 0.67324 0.04338 0.16587 0.0
O8 O 0.67438 0.98732 0.05809 0.0
O9 O 0.67422 0.02272 0.06464 0.0
O10 O 0.62933 0.04812 0.09189 0.0
O11 O 0.63016 0.01367 0.07393 0.0
C12 C 0.68283 0.02578 0.17771 0.0
C13 C 0.62117 0.0324 0.07091 0.0
C14 C 0.50377 0.68474 0.17985 0.0
C15 C 0.4916 0.62391 0.07653 0.0
O16 O 0.52095 0.67758 0.15937 0.0
Zn17 Zn 0.52979 0.65449 0.1077 0.0
O18 O 0.48563 0.67703 0.16959 0.0
Zn19 Zn 0.49584 0.65601 0.12417 0.0
O20 O 0.51442 0.63404 0.16518 0.0
O21 O 0.54845 0.63354 0.14105 0.0
O22 O 0.47706 0.6341 0.09961 0.0
O23 O 0.51098 0.63063 0.07566 0.0
O24 O 0.54017 0.67236 0.05582 0.0
O25 O 0.50481 0.67506 0.06489 0.0
C26 C 0.53363 0.62623 0.16778 0.0
C27 C 0.5221 0.68017 0.04265 0.0
C28 C 0.83943 0.50168 0.17319 0.0
C29 C 0.90082 0.49253 0.06303 0.0
O30 O 0.84533 0.51911 0.15241 0.0
Zn31 Zn 0.86774 0.52925 0.09952 0.0
O32 O 0.8484 0.48378 0.16194 0.0
Zn33 Zn 0.86847 0.49488 0.11453 0.0
O34 O 0.88893 0.51354 0.15484 0.0
O35 O 0.88747 0.54788 0.13293 0.0
O36 O 0.89187 0.47725 0.08591 0.0
O37 O 0.8925 0.51158 0.06437 0.0
O38 O 0.84914 0.5396 0.04937 0.0
O39 O 0.84788 0.50427 0.05889 0.0
C40 C 0.89547 0.53284 0.15842 0.0
C41 C 0.84171 0.52156 0.03745 0.0
C42 C 0.99604 0.8958 0.16603 0.0
C43 C 1.00828 0.84251 0.04201 0.0
O44 O 0.01544 0.88886 0.16024 0.0
Zn45 Zn 0.03444 0.86836 0.11758 0.0
O46 O 0.98105 0.88842 0.14157 0.0
Zn47 Zn 0.99993 0.86845 0.10547 0.0
O48 O 1.01058 0.84558 0.15678 0.0
O49 O 0.04584 0.84763 0.16384 0.0
O50 O 0.99006 0.85024 0.05557 0.0
O51 O 0.02542 0.84824 0.06223 0.0
O52 O 0.0513 0.8918 0.08777 0.0
O53 O 0.01691 0.89297 0.06941 0.0
C54 C 0.02805 0.83908 0.17616 0.0
C55 C 0.03572 0.90102 0.06638 0.0
C56 C 0.12777 0.02768 0.36028 0.0
C57 C 0.18106 0.01613 0.48435 0.0
O58 O 0.13489 1.00834 0.36607 0.0
Zn59 Zn 0.15556 0.9896 0.40883 0.0
O60 O 0.13501 0.04276 0.38468 0.0
Zn61 Zn 0.15514 0.02411 0.4208 0.0
O62 O 0.17817 0.01358 0.36966 0.0
O63 O 0.17639 0.97827 0.36282 0.0
O64 O 0.17317 0.03426 0.47068 0.0
O65 O 0.17552 0.99889 0.46419 0.0
O66 O 0.13235 0.97248 0.43854 0.0
O67 O 0.13078 1.00689 0.45687 0.0
C68 C 0.18482 0.99611 0.35044 0.0
C69 C 0.12295 0.98799 0.45988 0.0
C70 C 0.5215 0.18612 0.34444 0.0
C71 C 0.53183 0.12481 0.45407 0.0
O72 O 0.50425 0.1801 0.36577 0.0
Zn73 Zn 0.49459 0.15763 0.41888 0.0
O74 O 0.53954 0.17727 0.35507 0.0
Zn75 Zn 0.52891 0.15709 0.40272 0.0
O76 O 0.51 0.13663 0.36304 0.0
O77 O 0.47577 0.13785 0.38592 0.0
O78 O 0.54689 0.13383 0.4307 0.0
O79 O 0.51271 0.13298 0.45327 0.0
O80 O 0.48457 0.17613 0.46946 0.0
O81 O 0.51983 0.17752 0.45869 0.0
C82 C 0.4907 0.13003 0.35989 0.0
C83 C 0.50269 0.18359 0.48079 0.0
C84 C 0.40173 0.529 0.45068 0.0
C85 C 0.34188 0.52022 0.34198 0.0
O86 O 0.39404 0.51002 0.44955 0.0
Zn87 Zn 0.37029 0.49251 0.41488 0.0
O88 O 0.39273 0.54431 0.42755 0.0
Zn89 Zn 0.37037 0.52679 0.39937 0.0
O90 O 0.34959 0.5179 0.45604 0.0
O91 O 0.35159 0.48255 0.46585 0.0
O92 O 0.35039 0.53798 0.35245 0.0
O93 O 0.34806 0.50276 0.36276 0.0
O94 O 0.39092 0.47342 0.38152 0.0
O95 O 0.39219 0.50771 0.35949 0.0
C96 C 0.34371 0.50078 0.47801 0.0
C97 C 0.39919 0.48825 0.35618 0.0
C98 C 0.02999 0.39662 0.34683 0.0
C99 C 0.01726 0.34333 0.47353 0.0
O100 O 1.01049 0.3908 0.35319 0.0
Zn101 Zn 0.99128 0.37112 0.39689 0.0
O102 O 0.04492 0.38821 0.3715 0.0
Zn103 Zn 0.02585 0.3691 0.40872 0.0
O104 O 0.01474 0.3471 0.35878 0.0
O105 O 0.97952 0.35124 0.3518 0.0
O106 O 0.03559 0.35004 0.45946 0.0
O107 O 1.00019 0.35018 0.45306 0.0
O108 O 0.97481 0.39522 0.4263 0.0
O109 O 1.00926 0.39421 0.44416 0.0
C110 C 0.99715 0.3417 0.33988 0.0
C111 C 0.99057 0.40326 0.44738 0.0
C112 C 0.39639 0.03126 0.85141 0.0
C113 C 0.34302 0.01845 0.97766 0.0
O114 O 0.38799 0.0462 0.87607 0.0
Zn115 Zn 0.36878 0.02706 0.91291 0.0
O116 O 0.39047 1.01178 0.8575 0.0
Zn117 Zn 0.37063 0.99254 0.90072 0.0
O118 O 0.35079 0.98092 0.85556 0.0
O119 O 0.34674 0.01616 0.86274 0.0
O120 O 0.34977 1.0014 0.957 0.0
O121 O 0.34978 0.03678 0.96377 0.0
O122 O 0.39385 1.01021 0.94807 0.0
O123 O 0.39455 0.97579 0.92977 0.0
C124 C 0.3413 0.99859 0.84372 0.0
C125 C 0.40275 0.99143 0.95096 0.0
C126 C 0.51992 0.34357 0.83708 0.0
C127 C 0.52626 0.40267 0.94911 0.0
O128 O 0.5375 0.35223 0.84841 0.0
Zn129 Zn 0.5256 0.37188 0.89561 0.0
O130 O 0.50225 0.34944 0.85735 0.0
Zn131 Zn 0.49096 0.37101 0.90926 0.0
O132 O 0.47208 0.39163 0.87556 0.0
O133 O 0.50656 0.39361 0.85532 0.0
O134 O 0.5076 0.39451 0.94559 0.0
O135 O 0.54224 0.39437 0.92675 0.0
O136 O 0.51628 0.35052 0.9509 0.0
O137 O 0.48082 0.3518 0.95917 0.0
C138 C 0.48702 0.40029 0.85116 0.0
C139 C 0.49907 0.34417 0.9719 0.0
C140 C 0.18186 0.50297 0.98546 0.0
C141 C 0.12839 0.49104 0.8643 0.0
O142 O 0.17447 0.48487 0.97384 0.0
Zn143 Zn 0.15604 0.49495 0.92323 0.0
O144 O 0.17578 0.52015 0.96353 0.0
Zn145 Zn 0.15537 0.52923 0.90737 0.0
O146 O 0.13191 0.54706 0.9352 0.0
O147 O 0.13121 0.51285 0.95763 0.0
O148 O 0.13496 0.51035 0.86737 0.0
O149 O 0.13634 0.47614 0.89022 0.0
O150 O 0.17858 0.50475 0.87027 0.0
O151 O 0.17557 0.54004 0.85994 0.0
C152 C 0.1229 0.53192 0.95836 0.0
C153 C 0.18454 0.52208 0.84917 0.0
C154 C 0.01588 0.18144 0.98022 0.0
C155 C 0.028 0.12831 0.85583 0.0
O156 O 0.03409 0.17377 0.96649 0.0
Zn157 Zn 0.02417 0.15556 0.91661 0.0
O158 O 0.99871 0.17566 0.96014 0.0
Zn159 Zn 0.98962 0.15555 0.90486 0.0
O160 O 0.9729 0.13205 0.93479 0.0
O161 O 1.00734 0.13095 0.95277 0.0
O162 O 1.00858 0.13517 0.86189 0.0
O163 O 0.04302 0.13571 0.88017 0.0
O164 O 0.01331 0.17848 0.86558 0.0
O165 O 0.97804 0.1763 0.85884 0.0
C166 C 0.98856 0.12286 0.95599 0.0
C167 C 0.99578 0.18494 0.84641 0.0
C168 C 0.83922 0.02822 0.6713 0.0
C169 C 0.90108 0.03647 0.5619 0.0
O170 O 0.84765 0.04607 0.65901 0.0
Zn171 Zn 0.86848 0.0348 0.61293 0.0
O172 O 0.84586 1.01077 0.65199 0.0
Zn173 Zn 0.86889 1.00031 0.60076 0.0
O174 O 0.88902 0.98161 0.63672 0.0
O175 O 0.88916 0.016 0.65556 0.0
O176 O 0.89325 0.01757 0.5648 0.0
O177 O 0.89169 0.05195 0.58333 0.0
O178 O 0.84852 0.02559 0.5575 0.0
O179 O 0.85086 0.99023 0.55082 0.0
C180 C 0.89628 0.99665 0.6612 0.0
C181 C 0.84298 1.00838 0.53724 0.0
C182 C 0.50205 0.83986 0.67208 0.0
C183 C 0.49585 0.90249 0.56452 0.0
O184 O 0.48466 0.85005 0.66181 0.0
Zn185 Zn 0.49683 0.86992 0.6154 0.0
O186 O 0.51985 0.84515 0.65201 0.0
Zn187 Zn 0.53138 0.86825 0.60186 0.0
O188 O 0.55018 0.88688 0.63799 0.0
O189 O 0.51558 0.88927 0.6574 0.0
O190 O 0.5147 0.89375 0.56676 0.0
O191 O 0.48012 0.89385 0.58647 0.0
O192 O 0.50637 0.84948 0.55955 0.0
O193 O 0.54182 0.85005 0.55122 0.0
C194 C 0.535 0.89503 0.66287 0.0
C195 C 0.5237 0.84313 0.53845 0.0
C196 C 0.6233 0.53516 0.66296 0.0
C197 C 0.68028 0.52215 0.54467 0.0
O198 O 0.63199 0.54982 0.63785 0.0
Zn199 Zn 0.65324 0.53062 0.60673 0.0
O200 O 0.63057 0.51573 0.66116 0.0
Zn201 Zn 0.65333 0.49656 0.62355 0.0
O202 O 0.67293 0.48604 0.67172 0.0
O203 O 0.67507 0.52119 0.66026 0.0
O204 O 0.67444 0.50511 0.567 0.0
O205 O 0.67216 0.54039 0.55612 0.0
O206 O 0.63002 0.51243 0.57173 0.0
O207 O 0.63154 0.47838 0.59542 0.0
C208 C 0.6812 0.50394 0.68189 0.0
C209 C 0.62254 0.49335 0.57128 0.0
C210 C 1.00645 0.68059 0.54896 0.0
C211 C 0.99406 0.62731 0.67584 0.0
O212 O 0.98816 0.67387 0.56324 0.0
Zn213 Zn 0.99804 0.6548 0.61384 0.0
O214 O 0.02358 0.67376 0.56923 0.0
Zn215 Zn 0.03264 0.65282 0.6253 0.0
O216 O 0.04906 0.62874 0.59568 0.0
O217 O 0.01457 0.62972 0.57819 0.0
O218 O 0.01354 0.63313 0.66924 0.0
O219 O 0.97907 0.6357 0.65132 0.0
O220 O 1.00925 0.67682 0.66361 0.0
O221 O 0.0445 0.67272 0.67026 0.0
C222 C 0.03326 0.6207 0.57475 0.0
C223 C 0.02688 0.68225 0.68233 0.0
C224 C 0.48628 0.09048 0.35651 0.0
C225 C 0.48828 0.11037 0.33276 0.0
C226 C 0.49536 0.07149 0.3378 0.0
C227 C 0.54432 0.06017 0.27962 0.0
H228 H 0.52725 1.00171 0.2545 0.0
C229 C 0.60955 0.99755 0.24594 0.0
C230 C 0.60881 0.98978 0.20089 0.0
C231 C 0.59099 1.00631 0.26723 0.0
C232 C 0.53218 0.01795 0.26175 0.0
H233 H 0.49909 0.1256 0.26905 0.0
H234 H 0.51439 0.09256 0.23607 0.0
H235 H 0.49959 0.02924 0.27646 0.0
H236 H 0.58769 0.98312 0.14461 0.0
H237 H 0.5551 0.99814 0.18212 0.0
H238 H 0.57669 0.04931 0.26562 0.0
C239 C 0.50594 0.09157 0.26905 0.0
C240 C 0.51641 0.03363 0.27419 0.0
C241 C 0.49692 0.11045 0.28768 0.0
C242 C 0.58862 0.98842 0.17989 0.0
C243 C 0.56998 0.99729 0.20117 0.0
C244 C 0.55997 0.04455 0.26825 0.0
C245 C 0.50644 0.07224 0.29512 0.0
C246 C 0.52239 0.05497 0.28255 0.0
C247 C 0.57134 1.00761 0.24375 0.0
C248 C 0.55417 0.02328 0.25898 0.0
H249 H 0.48031 0.09004 0.39184 0.0
H250 H 0.49573 0.05684 0.35879 0.0
H251 H 0.5494 0.07643 0.28633 0.0
H252 H 0.62494 0.99922 0.2625 0.0
H253 H 0.59248 0.01394 0.30028 0.0
C254 C 0.4213 0.48868 0.28416 0.0
C255 C 0.42016 0.48551 0.33207 0.0
C256 C 0.44014 0.49653 0.26289 0.0
C257 C 0.49643 0.51606 0.28681 0.0
H258 H 0.48014 0.55998 0.19642 0.0
C259 C 0.53863 0.5865 0.16742 0.0
C260 C 0.53584 0.60544 0.19308 0.0
C261 C 0.53055 0.56685 0.1844 0.0
C262 C 0.48505 0.54751 0.22094 0.0
H263 H 0.43812 0.48692 0.39505 0.0
H264 H 0.47058 0.50114 0.3588 0.0
H265 H 0.4539 0.53368 0.22201 0.0
H266 H 0.5242 0.61828 0.25796 0.0
H267 H 0.51111 0.58375 0.28849 0.0
H268 H 0.5273 0.53149 0.28747 0.0
C269 C 0.45745 0.49693 0.33682 0.0
C270 C 0.47003 0.53223 0.23559 0.0
C271 C 0.4388 0.48853 0.35779 0.0
C272 C 0.52711 0.60384 0.23803 0.0
C273 C 0.51943 0.58414 0.25532 0.0
C274 C 0.51144 0.53162 0.27237 0.0
C275 C 0.45797 0.50222 0.28937 0.0
C276 C 0.47529 0.5164 0.26933 0.0
C277 C 0.52006 0.56577 0.22768 0.0
C278 C 0.50573 0.54758 0.23963 0.0
H279 H 0.40701 0.48695 0.2637 0.0
H280 H 0.44007 0.49962 0.22607 0.0
H281 H 0.50129 0.50409 0.31242 0.0
H282 H 0.54457 0.58739 0.1321 0.0
H283 H 0.53089 0.55296 0.16221 0.0
C284 C 0.9162 0.52568 0.22907 0.0
C285 C 0.91534 0.53525 0.18491 0.0
C286 C 0.93588 0.51834 0.24707 0.0
C287 C 0.987 0.49561 0.20183 0.0
H288 H 0.99742 0.48538 0.33171 0.0
C289 C 0.02316 0.4166 0.27406 0.0
C290 C 0.03296 0.41601 0.31729 0.0
C291 C 0.01625 0.43623 0.25413 0.0
C292 C 0.99522 0.48836 0.29521 0.0
H293 H 0.93458 0.54607 0.12631 0.0
H294 H 0.96913 0.53373 0.15806 0.0
H295 H 0.97104 0.51288 0.30818 0.0
H296 H 0.04481 0.43563 0.37183 0.0
H297 H 0.0333 0.47009 0.33655 0.0
H298 H 1.01083 0.47075 0.18891 0.0
C299 C 0.95457 0.53175 0.17881 0.0
C300 C 0.97981 0.50402 0.28171 0.0
C301 C 0.93481 0.53928 0.16098 0.0
C302 C 0.03778 0.43562 0.33793 0.0
C303 C 0.03073 0.45534 0.31813 0.0
C304 C 1.00248 0.48002 0.21533 0.0
C305 C 0.9552 0.52017 0.22106 0.0
C306 C 0.97484 0.50726 0.23493 0.0
C307 C 0.01881 0.45579 0.27719 0.0
C308 C 1.0062 0.47555 0.26229 0.0
H309 H 0.90139 0.52189 0.24773 0.0
H310 H 0.93553 0.50939 0.27946 0.0
H311 H 0.98362 0.49746 0.16548 0.0
H312 H 0.01878 0.4017 0.25795 0.0
H313 H 1.00704 0.43574 0.22285 0.0
C314 C 1.0027 0.91487 0.23817 0.0
C315 C 0.99332 0.9152 0.19451 0.0
C316 C 1.00968 0.93394 0.25769 0.0
C317 C 0.03165 0.98553 0.21651 0.0
H318 H 0.04058 0.99324 0.34692 0.0
C319 C 0.08826 0.03432 0.35393 0.0
C320 C 0.1083 0.0302 0.33197 0.0
C321 C 0.06911 0.0271 0.33473 0.0
C322 C 0.03796 0.99176 0.31034 0.0
H323 H 0.98253 0.93595 0.13841 0.0
H324 H 0.9942 0.96944 0.17288 0.0
H325 H 0.01412 0.9676 0.32213 0.0
H326 H 0.12387 0.01686 0.27127 0.0
H327 H 0.09078 1.00491 0.23714 0.0
H328 H 0.05582 1.00934 0.20472 0.0
C329 C 0.99632 0.9544 0.19206 0.0
C330 C 0.02291 0.97679 0.29609 0.0
C331 C 0.98916 0.93526 0.1727 0.0
C332 C 0.1086 0.02075 0.28836 0.0
C333 C 0.08953 0.01373 0.26899 0.0
C334 C 0.04664 1.00055 0.23077 0.0
C335 C 1.00767 0.95384 0.23374 0.0
C336 C 0.0201 0.97286 0.24897 0.0
C337 C 0.06965 0.01573 0.29305 0.0
C338 C 0.05061 1.00332 0.27788 0.0
H339 H 1.00662 0.89959 0.25516 0.0
H340 H 0.01847 0.93267 0.28954 0.0
H341 H 0.03015 0.98293 0.17993 0.0
H342 H 0.08759 0.04099 0.38819 0.0
H343 H 0.05409 0.0292 0.354 0.0
C344 C 0.43584 0.03591 0.84404 0.0
C345 C 0.41589 0.03409 0.82222 0.0
C346 C 0.45477 0.02693 0.8241 0.0
C347 C 0.46576 0.97856 0.76346 0.0
H348 H 0.52543 0.99513 0.74549 0.0
C349 C 0.52885 0.91321 0.7367 0.0
C350 C 0.53759 0.91409 0.69173 0.0
C351 C 0.51975 0.93172 0.75674 0.0
C352 C 0.50883 0.99035 0.75066 0.0
H353 H 0.4005 0.02372 0.76045 0.0
H354 H 0.43343 1.00868 0.72514 0.0
H355 H 0.49763 0.02263 0.76681 0.0
H356 H 0.54567 0.93544 0.63443 0.0
H357 H 0.53011 0.96798 0.66989 0.0
H358 H 0.47661 0.94642 0.74848 0.0
C359 C 0.43452 0.01684 0.75769 0.0
C360 C 0.49298 1.00603 0.76271 0.0
C361 C 0.41569 0.02575 0.77759 0.0
C362 C 0.53961 0.93438 0.66965 0.0
C363 C 0.53044 0.953 0.68974 0.0
C364 C 0.48151 0.96297 0.75253 0.0
C365 C 0.45391 0.01607 0.78209 0.0
C366 C 0.47123 1.00025 0.76866 0.0
C367 C 0.51918 0.95149 0.73216 0.0
C368 C 0.50321 0.9686 0.74596 0.0
H369 H 0.43637 0.04165 0.87904 0.0
H370 H 0.46946 0.02643 0.84381 0.0
H371 H 0.44921 0.97355 0.76847 0.0
H372 H 0.52667 0.89774 0.75407 0.0
H373 H 0.51131 0.93014 0.78963 0.0
C374 C 0.58424 0.53173 0.65503 0.0
C375 C 0.60136 0.53771 0.68276 0.0
C376 C 0.56507 0.52403 0.67482 0.0
C377 C 0.54678 0.49859 0.78682 0.0
H378 H 0.49583 0.48787 0.71581 0.0
C379 C 0.48313 0.43986 0.85452 0.0
C380 C 0.48412 0.42131 0.82731 0.0
C381 C 0.49097 0.45953 0.8372 0.0
C382 C 0.50985 0.49098 0.73625 0.0
H383 H 0.61121 0.54215 0.75281 0.0
H384 H 0.57693 0.53118 0.7877 0.0
H385 H 0.52159 0.51461 0.68803 0.0
H386 H 0.49238 0.40918 0.75974 0.0
H387 H 0.50473 0.44386 0.72844 0.0
H388 H 0.5346 0.47514 0.8353 0.0
C389 C 0.57856 0.53109 0.75054 0.0
C390 C 0.52487 0.50614 0.72014 0.0
C391 C 0.5981 0.53806 0.73062 0.0
C392 C 0.4908 0.42337 0.78095 0.0
C393 C 0.49809 0.44317 0.76323 0.0
C394 C 0.53145 0.48398 0.80348 0.0
C395 C 0.56226 0.52254 0.72312 0.0
C396 C 0.54409 0.50963 0.74426 0.0
C397 C 0.49942 0.46109 0.792 0.0
C398 C 0.51319 0.47951 0.77774 0.0
H399 H 0.58658 0.53068 0.61802 0.0
H400 H 0.55341 0.51754 0.65184 0.0
H401 H 0.5613 0.50012 0.80648 0.0
H402 H 0.47879 0.43858 0.89081 0.0
H403 H 0.49193 0.47305 0.86017 0.0
C404 C 1.0011 0.60746 0.74868 0.0
C405 C 0.99115 0.60799 0.70561 0.0
C406 C 1.00793 0.58785 0.76878 0.0
C407 C 0.02849 0.53545 0.72818 0.0
H408 H 0.04042 0.52668 0.85784 0.0
C409 C 0.10751 0.49792 0.79376 0.0
C410 C 0.10846 0.48854 0.83808 0.0
C411 C 0.08781 0.50528 0.77591 0.0
C412 C 0.03694 0.52844 0.82153 0.0
H413 H 0.97899 0.58829 0.65153 0.0
H414 H 0.9904 0.55386 0.68711 0.0
H415 H 0.01331 0.55349 0.8344 0.0
H416 H 0.08933 0.47802 0.89712 0.0
H417 H 0.05474 0.49039 0.86564 0.0
H418 H 0.05248 0.51075 0.71525 0.0
C419 C 0.99313 0.56864 0.70527 0.0
C420 C 0.02152 0.54409 0.80802 0.0
C421 C 0.98614 0.58835 0.6853 0.0
C422 C 0.08904 0.48467 0.86233 0.0
C423 C 0.06926 0.49222 0.84465 0.0
C424 C 0.04385 0.51974 0.7417 0.0
C425 C 1.00517 0.56823 0.74604 0.0
C426 C 0.01769 0.54844 0.76105 0.0
C427 C 0.06855 0.50364 0.80222 0.0
C428 C 0.04894 0.51662 0.78844 0.0
H429 H 1.00561 0.62237 0.76453 0.0
H430 H 0.01725 0.58837 0.79991 0.0
H431 H 0.0262 0.53833 0.69167 0.0
H432 H 0.12227 0.50159 0.77484 0.0
H433 H 0.08809 0.51411 0.74337 0.0
C434 C 0.02126 0.10939 0.78354 0.0
C435 C 0.03072 0.10899 0.82713 0.0
C436 C 0.01431 0.09035 0.76388 0.0
C437 C 0.99253 0.03864 0.80473 0.0
H438 H 0.98341 0.03116 0.67432 0.0
C439 C 0.91552 1.00346 0.73307 0.0
C440 C 0.91578 0.99408 0.68939 0.0
C441 C 0.9346 1.01048 0.75238 0.0
C442 C 0.98609 0.03257 0.71089 0.0
H443 H 0.04168 0.08814 0.88292 0.0
H444 H 0.03004 0.05469 0.8482 0.0
H445 H 1.00985 0.0568 0.69915 0.0
H446 H 0.93643 0.98338 0.633 0.0
H447 H 0.96996 0.99515 0.66709 0.0
H448 H 0.96841 0.01476 0.81648 0.0
C449 C 0.02785 0.06977 0.8292 0.0
C450 C 1.00113 0.04754 0.72517 0.0
C451 C 0.03498 0.08889 0.8487 0.0
C452 C 0.9358 0.99 0.66731 0.0
C453 C 0.95496 0.99721 0.68645 0.0
C454 C 0.97754 0.02362 0.79045 0.0
C455 C 0.01642 0.0704 0.78761 0.0
C456 C 1.004 0.05138 0.7723 0.0
C457 C 0.95446 1.00852 0.7282 0.0
C458 C 0.9735 0.02093 0.74335 0.0
H459 H 0.01727 0.1247 0.76675 0.0
H460 H 1.00546 0.09166 0.73211 0.0
H461 H 0.99408 0.04116 0.84133 0.0
H462 H 0.90026 1.00732 0.75025 0.0
H463 H 0.93339 0.01924 0.78429 0.0
C464 C 0.70424 0.02835 0.99123 0.0
C465 C 0.69676 1.00781 1.00468 0.0
C466 C 0.71918 0.03078 0.95483 0.0
C467 C 0.74194 1.00347 0.85141 0.0
H468 H 0.7879 0.04452 0.86238 0.0
C469 C 0.81352 1.00679 0.72087 0.0
C470 C 0.82216 0.02695 0.70824 0.0
C471 C 0.79789 1.005 0.75607 0.0
C472 C 0.77501 0.03321 0.85836 0.0
H473 H 0.69927 0.97369 0.98975 0.0
H474 H 0.72549 0.9779 0.92615 0.0
H475 H 0.76174 0.03988 0.92543 0.0
H476 H 0.82082 0.06112 0.72304 0.0
H477 H 0.79327 0.05805 0.78438 0.0
H478 H 0.75517 0.9968 0.78434 0.0
C479 C 0.71959 0.99219 0.94372 0.0
C480 C 0.75998 0.0305 0.89467 0.0
C481 C 0.70462 0.98974 0.98038 0.0
C482 C 0.81458 0.04534 0.73181 0.0
C483 C 0.79885 0.04354 0.76721 0.0
C484 C 0.75693 1.00621 0.81506 0.0
C485 C 0.72715 0.01276 0.93056 0.0
C486 C 0.74325 0.01554 0.8918 0.0
C487 C 0.79029 0.0233 0.77988 0.0
C488 C 0.77378 0.02104 0.81805 0.0
H489 H 0.69856 0.04271 1.0089 0.0
H490 H 0.72431 0.0469 0.94536 0.0
H491 H 0.72909 0.9921 0.84751 0.0
H492 H 0.81896 0.9922 0.70378 0.0
H493 H 0.79206 0.98909 0.76518 0.0
C494 C 0.48784 0.82238 0.74542 0.0
C495 C 0.50237 0.8223 0.70769 0.0
C496 C 0.48973 0.80677 0.78095 0.0
C497 C 0.52899 0.76485 0.82805 0.0
H498 H 0.47907 0.7478 0.90109 0.0
C499 C 0.53784 0.70869 0.98958 0.0
C500 C 0.52062 0.69535 1.00246 0.0
C501 C 0.53562 0.724 0.95358 0.0
C502 C 0.49323 0.75201 0.88073 0.0
H503 H 0.52963 0.80519 0.67655 0.0
H504 H 0.53214 0.77739 0.73636 0.0
H505 H 0.47459 0.77344 0.83789 0.0
H506 H 0.48785 0.68702 0.98643 0.0
H507 H 0.48436 0.71256 0.9224 0.0
H508 H 0.54742 0.74246 0.86903 0.0
C509 C 0.51989 0.78997 0.74025 0.0
C510 C 0.49069 0.7672 0.8447 0.0
C511 C 0.51831 0.80584 0.70544 0.0
C512 C 0.50137 0.69723 0.97769 0.0
C513 C 0.49931 0.71213 0.94109 0.0
C514 C 0.53145 0.74933 0.86343 0.0
C515 C 0.50593 0.79036 0.77917 0.0
C516 C 0.50853 0.77395 0.81771 0.0
C517 C 0.51626 0.72606 0.92875 0.0
C518 C 0.51363 0.74264 0.89056 0.0
H519 H 0.47551 0.83499 0.74836 0.0
H520 H 0.4788 0.80801 0.81036 0.0
H521 H 0.54332 0.7698 0.80911 0.0
H522 H 0.55281 0.70778 1.00826 0.0
H523 H 0.549 0.73454 0.94608 0.0
C524 C 0.81809 0.53862 0.97581 0.0
C525 C 0.82573 0.52012 0.99979 0.0
C526 C 0.80269 0.53692 0.94116 0.0
C527 C 0.7609 0.49999 0.89865 0.0
H528 H 0.7649 0.535 0.78694 0.0
C529 C 0.70541 0.4868 0.74236 0.0
C530 C 0.69783 0.50529 0.71828 0.0
C531 C 0.72111 0.48844 0.77639 0.0
C532 C 0.76335 0.52525 0.81812 0.0
H533 H 0.82316 0.48526 1.0054 0.0
H534 H 0.7967 0.48234 0.94521 0.0
H535 H 0.79174 0.53858 0.84652 0.0
H536 H 0.70091 0.54007 0.71168 0.0
H537 H 0.72785 0.54291 0.7709 0.0
H538 H 0.73248 0.48669 0.87036 0.0
C539 C 0.80229 0.49823 0.95349 0.0
C540 C 0.7788 0.52733 0.8524 0.0
C541 C 0.81765 0.49992 0.98794 0.0
C542 C 0.70636 0.52542 0.72924 0.0
C543 C 0.722 0.52705 0.76314 0.0
C544 C 0.74544 0.49792 0.8644 0.0
C545 C 0.79448 0.51669 0.92966 0.0
C546 C 0.77783 0.51472 0.89319 0.0
C547 C 0.72967 0.50861 0.78725 0.0
C548 C 0.7464 0.51053 0.82359 0.0
H549 H 0.82387 0.55445 0.98401 0.0
H550 H 0.79694 0.55154 0.92393 0.0
H551 H 0.75936 0.49023 0.92983 0.0
H552 H 0.69928 0.47103 0.73483 0.0
H553 H 0.72675 0.47382 0.79376 0.0
C554 C 0.03048 0.81803 0.99052 0.0
C555 C 1.01011 0.82666 1.0038 0.0
C556 C 0.03253 0.80282 0.95547 0.0
C557 C 1.00115 0.76296 0.89111 0.0
H558 H 0.05041 0.76407 0.80663 0.0
C559 C 1.00607 0.70899 0.73079 0.0
C560 C 0.02603 0.69922 0.71835 0.0
C561 C 1.00461 0.72452 0.76518 0.0
C562 C 0.03668 0.76333 0.83024 0.0
H563 H 0.97589 0.82596 0.98984 0.0
H564 H 0.97946 0.7996 0.92826 0.0
H565 H 0.04654 0.79131 0.86609 0.0
H566 H 0.06026 0.69851 0.73261 0.0
H567 H 0.05773 0.72568 0.79302 0.0
H568 H 0.99125 0.73505 0.85522 0.0
C569 C 0.99389 0.80442 0.94551 0.0
C570 C 0.03443 0.77902 0.86445 0.0
C571 C 0.99183 0.81968 0.9807 0.0
C572 C 0.04462 0.70567 0.74116 0.0
C573 C 0.04316 0.72133 0.77571 0.0
C574 C 1.00338 0.74733 0.85689 0.0
C575 C 0.01429 0.7957 0.93242 0.0
C576 C 0.0166 0.7791 0.89542 0.0
C577 C 0.02308 0.73087 0.78845 0.0
C578 C 0.02114 0.7473 0.82579 0.0
H579 H 0.04497 0.82289 1.0075 0.0
H580 H 0.04847 0.79633 0.9471 0.0
H581 H 0.98743 0.76214 0.91472 0.0
H582 H 0.99136 0.70462 0.714 0.0
H583 H 0.98893 0.73172 0.77323 0.0
C584 C 0.20564 0.99423 0.53603 0.0
C585 C 0.19688 0.01451 0.52258 0.0
C586 C 0.22083 0.99236 0.57111 0.0
C587 C 0.26042 0.02414 0.63524 0.0
H588 H 0.25949 0.97502 0.72007 0.0
C589 C 0.31462 0.01948 0.79528 0.0
C590 C 0.32436 0.9995 0.80771 0.0
C591 C 0.29906 0.02092 0.76096 0.0
C592 C 0.26018 0.98871 0.69637 0.0
H593 H 0.19732 0.04877 0.53625 0.0
H594 H 0.22365 0.04554 0.59789 0.0
H595 H 0.23224 0.97867 0.66066 0.0
H596 H 0.32502 0.96526 0.79348 0.0
H597 H 0.29783 0.96777 0.73324 0.0
H598 H 0.28831 0.0342 0.67098 0.0
C599 C 0.21895 0.03103 0.58075 0.0
C600 C 0.24449 0.99084 0.66219 0.0
C601 C 0.20371 0.0329 0.54553 0.0
C602 C 0.31788 0.98091 0.78494 0.0
C603 C 0.30219 0.98235 0.7505 0.0
C604 C 0.27607 0.02203 0.66943 0.0
C605 C 0.22779 1.01071 0.59402 0.0
C606 C 0.24435 1.0086 0.63106 0.0
C607 C 0.29266 1.00244 0.7378 0.0
C608 C 0.27617 1.00432 0.70063 0.0
H609 H 0.2009 0.97966 0.51916 0.0
H610 H 0.22743 0.97648 0.57962 0.0
H611 H 0.26119 0.03781 0.61152 0.0
H612 H 0.31904 0.03419 0.81204 0.0
H613 H 0.29187 0.0366 0.75292 0.0
C614 C 0.48605 0.20712 0.54304 0.0
C615 C 0.50439 0.19947 0.51855 0.0
C616 C 0.48799 0.22244 0.57776 0.0
C617 C 0.52818 0.2465 0.65527 0.0
H618 H 0.48516 0.29259 0.66581 0.0
C619 C 0.53792 0.3197 0.77675 0.0
C620 C 0.51922 0.32692 0.80064 0.0
C621 C 0.53662 0.30412 0.74228 0.0
C622 C 0.49724 0.27971 0.66374 0.0
H623 H 0.53923 0.20202 0.51187 0.0
H624 H 0.54252 0.22866 0.57157 0.0
H625 H 0.48152 0.26534 0.60719 0.0
H626 H 0.4845 0.32306 0.80699 0.0
H627 H 0.48235 0.29609 0.74791 0.0
H628 H 0.54391 0.26096 0.71187 0.0
C629 C 0.52664 0.22268 0.56458 0.0
C630 C 0.49511 0.26401 0.63007 0.0
C631 C 0.5247 0.20743 0.52997 0.0
C632 C 0.49929 0.31807 0.78931 0.0
C633 C 0.49799 0.30262 0.75502 0.0
C634 C 0.53033 0.26224 0.68898 0.0
C635 C 0.50833 0.23049 0.58896 0.0
C636 C 0.51051 0.24713 0.62535 0.0
C637 C 0.51658 0.29545 0.73078 0.0
C638 C 0.51483 0.27903 0.69385 0.0
H639 H 0.47017 0.20134 0.53532 0.0
H640 H 0.47354 0.22783 0.59612 0.0
H641 H 0.54025 0.23362 0.6532 0.0
H642 H 0.55353 0.32614 0.78449 0.0
H643 H 0.55127 0.29911 0.72414 0.0
C644 C 0.31908 0.52308 0.52888 0.0
C645 C 0.32772 0.50267 0.51693 0.0
C646 C 0.30393 0.52523 0.565 0.0
C647 C 0.28251 0.49735 0.67005 0.0
H648 H 0.23452 0.53808 0.65627 0.0
C649 C 0.21086 0.50042 0.80088 0.0
C650 C 0.2015 0.52063 0.81207 0.0
C651 C 0.22648 0.49858 0.76562 0.0
C652 C 0.24796 0.52685 0.66105 0.0
H653 H 0.32709 0.46849 0.53415 0.0
H654 H 0.3005 0.47221 0.59716 0.0
H655 H 0.26091 0.53378 0.59356 0.0
H656 H 0.20151 0.55481 0.79468 0.0
H657 H 0.229 0.55164 0.7333 0.0
H658 H 0.26958 0.49042 0.73755 0.0
C659 C 0.30565 0.48662 0.5787 0.0
C660 C 0.26313 0.52433 0.62495 0.0
C661 C 0.32083 0.48445 0.54237 0.0
C662 C 0.20832 0.53899 0.78703 0.0
C663 C 0.22401 0.53714 0.75159 0.0
C664 C 0.26736 0.49988 0.70618 0.0
C665 C 0.29692 0.50705 0.59042 0.0
C666 C 0.28062 0.50953 0.62888 0.0
C667 C 0.2333 0.51687 0.74035 0.0
C668 C 0.24981 0.51463 0.7022 0.0
H669 H 0.32401 0.53753 0.51031 0.0
H670 H 0.2979 0.54126 0.57336 0.0
H671 H 0.29593 0.48607 0.67474 0.0
H672 H 0.20602 0.48586 0.81917 0.0
H673 H 0.23293 0.48266 0.75763 0.0
C674 C 0.03325 0.31978 0.53717 0.0
C675 C 0.01516 0.32755 0.51284 0.0
C676 C 0.03085 0.3048 0.57381 0.0
C677 C 0.99271 0.26422 0.623 0.0
H678 H 0.02646 0.26922 0.73314 0.0
C679 C 0.97839 0.20941 0.78592 0.0
C680 C 0.99685 0.20201 0.80944 0.0
C681 C 0.98004 0.22515 0.75049 0.0
C682 C 0.01703 0.26739 0.70248 0.0
H683 H 0.98029 0.32556 0.50855 0.0
H684 H 0.97619 0.29978 0.57206 0.0
H685 H 0.031 0.29529 0.66997 0.0
H686 H 0.03156 0.20555 0.81375 0.0
H687 H 0.0344 0.23245 0.75236 0.0
H688 H 0.97885 0.23623 0.65536 0.0
C689 C 0.99228 0.30499 0.56263 0.0
C690 C 0.01968 0.2824 0.66612 0.0
C691 C 0.99466 0.31996 0.52624 0.0
C692 C 0.01692 0.21084 0.79673 0.0
C693 C 0.01855 0.22648 0.76151 0.0
C694 C 0.9901 0.24917 0.65933 0.0
C695 C 1.01031 0.29712 0.58696 0.0
C696 C 1.0076 0.28102 0.62577 0.0
C697 C 1.00018 0.23391 0.73775 0.0
C698 C 1.00229 0.25046 0.69958 0.0
H699 H 0.04928 0.32522 0.52785 0.0
H700 H 0.04516 0.29898 0.59139 0.0
H701 H 0.98331 0.26241 0.59229 0.0
H702 H 0.96268 0.20302 0.79474 0.0
H703 H 0.96547 0.23059 0.73337 0.0
C704 C 0.20943 0.97895 0.28992 0.0
C705 C 0.20188 0.99735 0.3135 0.0
C706 C 0.22515 0.98073 0.2545 0.0
C707 C 0.26714 0.01796 0.20666 0.0
H708 H 0.2622 0.98438 0.0962 0.0
C709 C 0.31948 0.0344 0.04138 0.0
C710 C 0.32727 0.01632 0.017 0.0
C711 C 0.3045 0.03197 0.07802 0.0
C712 C 0.26399 0.99374 0.12699 0.0
H713 H 0.20516 0.0321 0.31798 0.0
H714 H 0.23206 0.03516 0.25657 0.0
H715 H 0.23605 0.97977 0.15929 0.0
H716 H 0.32535 0.98145 0.01262 0.0
H717 H 0.29959 0.97728 0.07615 0.0
H718 H 0.29501 0.03202 0.17422 0.0
C719 C 0.22619 0.01926 0.26567 0.0
C720 C 0.24897 0.99105 0.16332 0.0
C721 C 0.21056 0.0175 0.30088 0.0
C722 C 0.31972 0.9958 0.03035 0.0
C723 C 0.30477 0.99339 0.06675 0.0
C724 C 0.28213 0.02069 0.1703 0.0
C725 C 0.23375 1.00095 0.24184 0.0
C726 C 0.25025 1.00318 0.20366 0.0
C727 C 0.29687 1.01141 0.0911 0.0
C728 C 0.28077 1.00865 0.12987 0.0
H729 H 0.20315 0.96318 0.29868 0.0
H730 H 0.2307 0.96621 0.23731 0.0
H731 H 0.26894 0.02735 0.2374 0.0
H732 H 0.32488 0.05044 0.03208 0.0
H733 H 0.29864 0.04626 0.09565 0.0
C734 C 0.49954 0.21204 0.29601 0.0
C735 C 0.51984 0.20291 0.30709 0.0
C736 C 0.49745 0.22738 0.2603 0.0
C737 C 0.52821 0.26672 0.18854 0.0
H738 H 0.4791 0.26368 0.10816 0.0
C739 C 0.52135 0.31961 0.02281 0.0
C740 C 0.50092 0.32811 1.01062 0.0
C741 C 0.52351 0.30458 0.05909 0.0
C742 C 0.49276 0.26499 0.13059 0.0
H743 H 0.55397 0.20306 0.28911 0.0
H744 H 0.55033 0.22985 0.22646 0.0
H745 H 0.48354 0.2371 0.17039 0.0
H746 H 0.46671 0.3273 0.02755 0.0
H747 H 0.4705 0.30118 0.09133 0.0
H748 H 0.53741 0.29464 0.14882 0.0
C749 C 0.536 0.2252 0.24582 0.0
C750 C 0.49534 0.24968 0.16635 0.0
C751 C 0.53809 0.20975 0.28164 0.0
C752 C 0.48268 0.32109 0.03583 0.0
C753 C 0.48486 0.306 0.0723 0.0
C754 C 0.52561 0.28206 0.15282 0.0
C755 C 0.5156 0.23412 0.23447 0.0
C756 C 0.5131 0.25032 0.19588 0.0
C757 C 0.50534 0.29755 0.08451 0.0
C758 C 0.50786 0.28141 0.12324 0.0
H759 H 0.48509 0.2073 0.31486 0.0
H760 H 0.48155 0.23412 0.25323 0.0
H761 H 0.54189 0.26797 0.21095 0.0
H762 H 0.53579 0.3245 1.00416 0.0
H763 H 0.5395 0.29822 0.06676 0.0
C764 C 0.3162 0.49921 0.29506 0.0
C765 C 0.32504 0.5192 0.30598 0.0
C766 C 0.30049 0.49781 0.26128 0.0
C767 C 0.27746 0.52711 0.15995 0.0
H768 H 0.2308 0.48684 0.17774 0.0
C769 C 0.20577 0.52484 0.03487 0.0
C770 C 0.19769 0.50458 0.02336 0.0
C771 C 0.22097 0.52667 0.06962 0.0
C772 C 0.24384 0.49799 0.17189 0.0
H773 H 0.32402 0.55348 0.28956 0.0
H774 H 0.29639 0.5511 0.23076 0.0
H775 H 0.25747 0.49042 0.23765 0.0
H776 H 0.19937 0.47034 0.04003 0.0
H777 H 0.22601 0.4735 0.10059 0.0
H778 H 0.26381 0.53467 0.09417 0.0
C779 C 0.30186 0.5364 0.24811 0.0
C780 C 0.25919 0.50007 0.20636 0.0
C781 C 0.31764 0.53781 0.28206 0.0
C782 C 0.20517 0.4862 0.04795 0.0
C783 C 0.22039 0.48804 0.08289 0.0
C784 C 0.26209 0.52504 0.12549 0.0
C785 C 0.29303 0.51636 0.23725 0.0
C786 C 0.27629 0.51461 0.20088 0.0
C787 C 0.2286 0.50832 0.09407 0.0
C788 C 0.24506 0.51042 0.13088 0.0
H789 H 0.3215 0.48447 0.31249 0.0
H790 H 0.29444 0.48204 0.2535 0.0
H791 H 0.29053 0.53821 0.154 0.0
H792 H 0.2004 0.53941 0.01693 0.0
H793 H 0.22657 0.54259 0.07762 0.0
C794 C 0.03237 0.20429 0.04145 0.0
C795 C 0.01407 0.19728 0.01844 0.0
C796 C 0.03032 0.21955 0.07666 0.0
C797 C 0.9898 0.24488 0.15788 0.0
H798 H 0.0329 0.28893 0.16698 0.0
C799 C 0.97948 0.31826 0.28101 0.0
C800 C 0.99805 0.32474 0.30384 0.0
C801 C 0.98097 0.30258 0.24648 0.0
C802 C 0.02079 0.27663 0.16534 0.0
H803 H 0.9792 0.20099 0.01493 0.0
H804 H 0.97572 0.22754 0.07534 0.0
H805 H 0.03675 0.26183 0.10749 0.0
H806 H 0.03273 0.31941 0.30822 0.0
H807 H 0.03522 0.2923 0.249 0.0
H808 H 0.97381 0.25981 0.21571 0.0
C809 C 0.99166 0.22108 0.06689 0.0
C810 C 0.02304 0.26099 0.13113 0.0
C811 C 0.9937 0.20587 0.03184 0.0
C812 C 0.01804 0.315 0.29142 0.0
C813 C 0.01952 0.29947 0.25703 0.0
C814 C 0.98753 0.26057 0.19207 0.0
C815 C 1.00991 0.22823 0.08985 0.0
C816 C 1.00761 0.24482 0.12686 0.0
C817 C 1.00108 0.29308 0.23377 0.0
C818 C 1.00304 0.27664 0.19647 0.0
H819 H 0.0483 0.19804 0.03223 0.0
H820 H 0.04475 0.22439 0.09383 0.0
H821 H 0.97771 0.23256 0.15628 0.0
H822 H 0.96383 0.32538 0.28954 0.0
H823 H 0.96642 0.29821 0.22916 0.0
C824 C 0.70617 0.04358 0.2365 0.0
C825 C 0.69981 0.02496 0.21365 0.0
C826 C 0.72185 0.04219 0.27097 0.0
C827 C 0.74806 1.00256 0.35198 0.0
H828 H 0.79175 0.04603 0.3611 0.0
C829 C 0.82038 0.99167 0.4759 0.0
C830 C 0.82717 1.01004 0.499 0.0
C831 C 0.80515 0.99357 0.44067 0.0
C832 C 0.77954 0.03383 0.35948 0.0
H833 H 0.70535 0.99031 0.20916 0.0
H834 H 0.73249 0.988 0.26831 0.0
H835 H 0.76453 0.04967 0.30163 0.0
H836 H 0.82309 0.04488 0.50266 0.0
H837 H 0.79658 0.0481 0.44217 0.0
H838 H 0.76295 0.98676 0.40985 0.0
C839 C 0.72522 1.00365 0.26032 0.0
C840 C 0.76387 0.03596 0.32526 0.0
C841 C 0.70968 1.00503 0.22598 0.0
C842 C 0.81838 0.03033 0.48567 0.0
C843 C 0.8032 0.03222 0.45058 0.0
C844 C 0.76369 1.00046 0.38621 0.0
C845 C 0.73149 0.02214 0.28361 0.0
C846 C 0.74793 0.02031 0.32087 0.0
C847 C 0.79628 0.0139 0.42754 0.0
C848 C 0.77972 0.01603 0.3905 0.0
H849 H 0.69894 0.05919 0.22802 0.0
H850 H 0.72613 0.05678 0.28831 0.0
H851 H 0.73586 0.99035 0.35033 0.0
H852 H 0.82679 0.9758 0.48508 0.0
H853 H 0.80048 0.97909 0.42342 0.0
C854 C 0.50186 0.82008 0.48732 0.0
C855 C 0.52218 0.8275 0.50016 0.0
C856 C 0.50005 0.80504 0.4523 0.0
C857 C 0.52916 0.78144 0.35146 0.0
H858 H 0.48736 0.73605 0.36744 0.0
C859 C 0.5258 0.70957 0.22678 0.0
C860 C 0.50547 0.70161 0.21558 0.0
C861 C 0.52775 0.72514 0.26075 0.0
C862 C 0.49891 0.74877 0.36203 0.0
H863 H 0.55658 0.82487 0.48554 0.0
H864 H 0.55343 0.79845 0.42441 0.0
H865 H 0.49131 0.76244 0.42775 0.0
H866 H 0.47117 0.70408 0.23146 0.0
H867 H 0.47453 0.73143 0.29044 0.0
H868 H 0.53676 0.76775 0.2857 0.0
C869 C 0.53884 0.80447 0.44133 0.0
C870 C 0.50122 0.76393 0.39675 0.0
C871 C 0.54066 0.81956 0.47657 0.0
C872 C 0.4871 0.70977 0.23921 0.0
C873 C 0.48905 0.72539 0.27328 0.0
C874 C 0.52684 0.76627 0.31668 0.0
C875 C 0.51849 0.79689 0.42891 0.0
C876 C 0.51635 0.78052 0.39199 0.0
C877 C 0.50943 0.73327 0.28462 0.0
C878 C 0.51168 0.74969 0.32143 0.0
H879 H 0.48722 0.82585 0.50443 0.0
H880 H 0.48408 0.79993 0.44327 0.0
H881 H 0.54075 0.79413 0.34618 0.0
H882 H 0.54035 0.70366 0.20953 0.0
H883 H 0.54374 0.7305 0.26886 0.0
C884 C 0.70525 0.49984 0.49444 0.0
C885 C 0.69639 0.52021 0.50599 0.0
C886 C 0.72042 0.4977 0.45834 0.0
C887 C 0.75974 0.52885 0.38686 0.0
H888 H 0.75795 0.47947 0.30687 0.0
C889 C 0.81308 0.52309 0.22184 0.0
C890 C 0.82258 0.50297 0.21055 0.0
C891 C 0.79766 0.52484 0.25751 0.0
C892 C 0.75888 0.49323 0.32919 0.0
H893 H 0.69665 0.55434 0.48808 0.0
H894 H 0.723 0.5506 0.42475 0.0
H895 H 0.73109 0.48353 0.36884 0.0
H896 H 0.823 0.4688 0.22814 0.0
H897 H 0.7961 0.47185 0.29079 0.0
H898 H 0.78751 0.53857 0.34723 0.0
C899 C 0.71838 0.53626 0.44409 0.0
C900 C 0.74342 0.49559 0.36481 0.0
C901 C 0.70315 0.53841 0.4803 0.0
C902 C 0.81603 0.48455 0.23577 0.0
C903 C 0.80051 0.4863 0.2716 0.0
C904 C 0.77518 0.52651 0.35125 0.0
C905 C 0.72724 0.51585 0.43257 0.0
C906 C 0.74361 0.51345 0.39419 0.0
C907 C 0.79122 0.50652 0.28316 0.0
C908 C 0.77495 0.50869 0.32178 0.0
H909 H 0.70054 0.48543 0.51345 0.0
H910 H 0.72707 0.48177 0.45112 0.0
H911 H 0.76071 0.54261 0.40918 0.0
H912 H 0.81757 0.53766 0.20315 0.0
H913 H 0.79064 0.54061 0.2647 0.0
C914 C 1.00667 0.81346 0.22606 0.0
C915 C 0.02681 0.82213 0.21337 0.0
C916 C 1.00486 0.79806 0.26171 0.0
C917 C 0.03608 0.75762 0.33073 0.0
H918 H 0.98669 0.7619 0.41449 0.0
C919 C 0.02891 0.70393 0.49587 0.0
C920 C 1.00844 0.69639 0.50967 0.0
C921 C 0.03118 0.71894 0.45953 0.0
C922 C 1.00043 0.76023 0.39112 0.0
H923 H 0.06095 0.82101 0.22843 0.0
H924 H 0.0578 0.79405 0.29102 0.0
H925 H 0.99105 0.78859 0.35253 0.0
H926 H 0.97427 0.69884 0.49533 0.0
H927 H 0.97821 0.72489 0.43145 0.0
H928 H 0.04543 0.7292 0.36925 0.0
C929 C 0.04338 0.79916 0.27295 0.0
C930 C 1.00298 0.77562 0.3555 0.0
C931 C 0.0452 0.8147 0.23716 0.0
C932 C 0.99027 0.70429 0.48582 0.0
C933 C 0.99255 0.71935 0.4493 0.0
C934 C 0.03351 0.74218 0.36633 0.0
C935 C 0.02312 0.79076 0.28597 0.0
C936 C 0.02081 0.77454 0.32467 0.0
C937 C 0.01306 0.72693 0.43563 0.0
C938 C 0.01564 0.74323 0.3971 0.0
H939 H 0.99211 0.81863 0.20854 0.0
H940 H 0.98906 0.79173 0.26999 0.0
H941 H 0.04985 0.75604 0.30737 0.0
H942 H 0.04333 0.69834 0.51341 0.0
H943 H 0.0472 0.72457 0.45075 0.0
C944 C 0.42923 1.00422 1.00735 0.0
C945 C 0.42446 0.99002 0.97184 0.0
C946 C 0.45062 1.00808 0.01893 0.0
C947 C 0.50547 1.00724 0.96627 0.0
H948 H 0.52326 0.01952 0.09027 0.0
C949 C 0.59473 0.01941 0.01463 0.0
C950 C 0.59947 0.03371 0.04996 0.0
C951 C 0.57336 0.01555 1.00294 0.0
C952 C 0.5185 0.0165 0.0553 0.0
H953 H 0.43851 0.96805 0.92189 0.0
H954 H 0.476 0.97446 0.94264 0.0
H955 H 0.48677 1.00721 0.07742 0.0
H956 H 0.58538 0.05588 0.09947 0.0
H957 H 0.54791 0.04945 0.07858 0.0
H958 H 0.53722 0.01651 0.94417 0.0
C959 C 0.46312 0.98277 0.96134 0.0
C960 C 0.49755 1.00929 0.04794 0.0
C961 C 0.44161 0.97875 0.95 0.0
C962 C 0.58231 0.04508 0.07151 0.0
C963 C 0.56081 0.04106 0.06008 0.0
C964 C 0.52643 0.01444 0.97364 0.0
C965 C 0.46793 0.998 0.99504 0.0
C966 C 0.49069 1.00454 1.00331 0.0
C967 C 0.55603 0.02573 0.02656 0.0
C968 C 0.53327 0.01919 0.01827 0.0
H969 H 0.4164 0.01337 0.02443 0.0
H970 H 0.45354 0.02001 0.04476 0.0
H971 H 0.5007 1.00423 0.9313 0.0
H972 H 0.60757 1.01019 0.99775 0.0
H973 H 0.57044 1.00355 0.97724 0.0
C974 C 0.54266 0.43921 0.96169 0.0
C975 C 0.52719 0.42364 0.97321 0.0
C976 C 0.53982 0.46066 0.97646 0.0
C977 C 0.52323 0.50732 0.98469 0.0
H978 H 0.48663 0.51991 0.09086 0.0
C979 C 0.49301 0.59513 0.01721 0.0
C980 C 0.48873 0.60137 0.06272 0.0
C981 C 0.49673 0.57329 1.00678 0.0
C982 C 0.4972 0.51705 0.06143 0.0
H983 H 0.49734 0.4182 0.0116 0.0
H984 H 0.49195 0.45487 0.03508 0.0
H985 H 0.49858 0.48339 0.07765 0.0
H986 H 0.48556 0.58989 0.13319 0.0
H987 H 0.49308 0.55237 0.11611 0.0
H988 H 0.52337 0.54128 0.97075 0.0
C989 C 0.50662 0.45099 0.0159 0.0
C990 C 0.50376 0.49569 0.05315 0.0
C991 C 0.50964 0.4297 1.00197 0.0
C992 C 0.48787 0.58539 0.09749 0.0
C993 C 0.49234 0.56371 0.08746 0.0
C994 C 0.51726 0.52885 0.99385 0.0
C995 C 0.52134 0.46705 1.00264 0.0
C996 C 0.51648 0.49031 0.01407 0.0
C997 C 0.49728 0.55723 0.04201 0.0
C998 C 0.50382 0.53413 0.03205 0.0
H999 H 0.55627 0.43516 0.93929 0.0
H1000 H 0.55187 0.47229 0.96625 0.0
H1001 H 0.5328 0.50412 0.9539 0.0
H1002 H 0.49435 0.60725 0.98996 0.0
H1003 H 0.49978 0.56924 0.97114 0.0
C1004 C 0.9289 0.50403 1.00582 0.0
C1005 C 0.923 0.49051 0.04319 0.0
C1006 C 0.95063 0.50799 0.9955 0.0
C1007 C 1.00735 0.49069 0.02067 0.0
H1008 H 0.01922 0.55075 0.99163 0.0
C1009 C 0.0946 0.52065 0.01529 0.0
C1010 C 0.10065 0.53403 0.97779 0.0
C1011 C 0.07284 0.51671 0.02526 0.0
C1012 C 0.01623 0.53388 0.99928 0.0
H1013 H 0.93539 0.46979 0.09788 0.0
H1014 H 0.97342 0.47662 0.07997 0.0
H1015 H 0.98199 0.53935 1.00195 0.0
H1016 H 0.08846 0.55455 0.92256 0.0
H1017 H 0.05035 0.54779 0.93996 0.0
H1018 H 0.04159 0.48524 0.01807 0.0
C1019 C 0.96125 0.48397 0.05808 0.0
C1020 C 0.99482 0.52728 1.00506 0.0
C1021 C 0.93941 0.47985 0.06815 0.0
C1022 C 0.08433 0.5446 0.95238 0.0
C1023 C 0.06246 0.54051 0.96214 0.0
C1024 C 0.02876 0.4973 0.01492 0.0
C1025 C 0.96711 0.49874 0.02266 0.0
C1026 C 0.99004 0.50557 0.01577 0.0
C1027 C 0.05647 0.52585 0.99767 0.0
C1028 C 0.03354 0.51901 1.00428 0.0
H1029 H 0.91662 0.51262 0.9862 0.0
H1030 H 0.95447 0.51898 0.96723 0.0
H1031 H 1.00438 0.47383 0.02832 0.0
H1032 H 0.10681 0.51214 0.03527 0.0
H1033 H 0.06889 0.5058 0.05362 0.0
C1034 C 0.97737 0.08423 0.95266 0.0
C1035 C 0.98731 0.10077 0.97645 0.0
C1036 C 0.98225 0.06241 0.96313 0.0
C1037 C 0.02656 0.02887 0.01473 0.0
H1038 H 0.98625 0.98226 1.0059 0.0
C1039 C 0.04696 0.93963 0.06993 0.0
C1040 C 0.03705 0.92311 0.04596 0.0
C1041 C 0.04209 0.96145 0.05951 0.0
C1042 C 0.99785 0.99503 1.00788 0.0
H1043 H 1.00899 0.1074 0.03182 0.0
H1044 H 0.01668 0.06963 0.0515 0.0
H1045 H 0.97358 0.01949 0.9948 0.0
H1046 H 0.01549 0.91654 0.99036 0.0
H1047 H 1.00783 0.95433 0.97081 0.0
H1048 H 0.05083 1.0044 0.02783 0.0
C1049 C 1.00565 0.07333 0.02381 0.0
C1050 C 0.99051 0.01646 1.00163 0.0
C1051 C 1.00093 0.09502 0.0131 0.0
C1052 C 0.02352 0.9289 1.00921 0.0
C1053 C 0.01881 0.9506 0.99857 0.0
C1054 C 0.0339 1.00744 0.021 0.0
C1055 C 0.99711 0.05669 0.99778 0.0
C1056 C 1.00473 0.03373 1.00505 0.0
C1057 C 0.0273 0.96721 0.02476 0.0
C1058 C 0.01968 0.99017 0.01755 0.0
H1059 H 0.96726 0.08811 0.92347 0.0
H1060 H 0.97541 0.05012 0.94211 0.0
H1061 H 0.03816 0.04163 0.01669 0.0
H1062 H 0.057 0.93572 0.0992 0.0
H1063 H 0.04889 0.97373 0.08065 0.0
C1064 C 0.09482 0.99975 0.51687 0.0
C1065 C 0.1008 0.98648 0.47977 0.0
C1066 C 0.07307 1.0046 0.52679 0.0
C1067 C 0.01633 0.99054 0.50086 0.0
H1068 H 1.00486 0.05084 0.52839 0.0
C1069 C 0.92925 0.02474 0.50496 0.0
C1070 C 0.92325 0.03799 0.54208 0.0
C1071 C 0.951 0.01988 0.49509 0.0
C1072 C 1.00772 0.03392 0.52115 0.0
H1073 H 0.0885 0.96712 0.42519 0.0
H1074 H 0.05044 0.97549 0.44246 0.0
H1075 H 0.04201 0.03765 0.519 0.0
H1076 H 0.93552 0.0573 0.59676 0.0
H1077 H 0.97359 0.04894 0.57958 0.0
H1078 H 0.98205 0.98681 0.50299 0.0
C1079 C 0.06257 0.98195 0.46444 0.0
C1080 C 0.0291 0.02628 0.51591 0.0
C1081 C 0.08442 0.97693 0.45476 0.0
C1082 C 0.93962 0.04751 0.56717 0.0
C1083 C 0.96147 0.04249 0.55755 0.0
C1084 C 0.99496 0.99818 0.50609 0.0
C1085 C 0.05665 0.99654 0.4995 0.0
C1086 C 0.03375 1.00446 0.50579 0.0
C1087 C 0.96741 0.02793 0.52246 0.0
C1088 C 0.99031 0.02 0.51621 0.0
H1089 H 0.10708 1.00753 0.53647 0.0
H1090 H 0.0692 0.01541 0.55481 0.0
H1091 H 0.0192 0.97362 0.49362 0.0
H1092 H 0.917 0.01698 0.48529 0.0
H1093 H 0.95489 1.00909 0.46706 0.0
C1094 C 0.48249 0.94102 0.56641 0.0
C1095 C 0.49436 0.92457 0.544 0.0
C1096 C 0.48632 0.96284 0.55563 0.0
C1097 C 0.53012 0.99701 0.50645 0.0
H1098 H 0.48647 0.04268 0.51123 0.0
C1099 C 0.54571 0.0865 0.45043 0.0
C1100 C 0.53418 0.10274 0.4743 0.0
C1101 C 0.54215 0.06459 0.46082 0.0
C1102 C 0.49895 0.03016 0.51036 0.0
H1103 H 0.51837 0.91805 0.49055 0.0
H1104 H 0.52433 0.95583 0.47038 0.0
H1105 H 0.4759 1.00522 0.52204 0.0
H1106 H 0.51115 0.10876 0.52991 0.0
H1107 H 0.50558 0.0708 0.54913 0.0
H1108 H 0.55314 0.02199 0.49456 0.0
C1109 C 0.51259 0.95207 0.4973 0.0
C1110 C 0.49284 1.00861 0.51647 0.0
C1111 C 0.5089 0.93036 0.50833 0.0
C1112 C 0.52036 0.09662 0.51103 0.0
C1113 C 0.51689 0.07484 0.52154 0.0
C1114 C 0.53622 0.01855 0.50023 0.0
C1115 C 0.50201 0.96865 0.52203 0.0
C1116 C 0.50833 0.9917 0.51459 0.0
C1117 C 0.52703 0.0585 0.49537 0.0
C1118 C 0.52074 0.03545 0.5023 0.0
H1119 H 0.47153 0.93711 0.59472 0.0
H1120 H 0.47791 0.97511 0.57561 0.0
H1121 H 0.54262 0.98452 0.5057 0.0
H1122 H 0.55609 0.09066 0.42127 0.0
H1123 H 0.55021 0.05248 0.43982 0.0
C1124 C 0.58466 0.47974 0.57432 0.0
C1125 C 0.60102 0.49101 0.55056 0.0
C1126 C 0.56288 0.48321 0.563 0.0
C1127 C 0.52645 0.50797 0.47397 0.0
H1128 H 0.487 0.51594 0.57786 0.0
C1129 C 0.43972 0.54237 0.44823 0.0
C1130 C 0.4233 0.53096 0.47144 0.0
C1131 C 0.46147 0.53878 0.45968 0.0
C1132 C 0.49774 0.51366 0.54839 0.0
H1133 H 0.60744 0.51375 0.49466 0.0
H1134 H 0.56981 0.51943 0.47433 0.0
H1135 H 0.52428 0.5044 0.59126 0.0
H1136 H 0.41671 0.50783 0.52651 0.0
H1137 H 0.45431 0.50197 0.54715 0.0
H1138 H 0.49989 0.51723 0.4311 0.0
C1139 C 0.57358 0.50791 0.50166 0.0
C1140 C 0.51914 0.50688 0.55607 0.0
C1141 C 0.59524 0.50458 0.51321 0.0
C1142 C 0.42897 0.51709 0.50838 0.0
C1143 C 0.45059 0.51367 0.52011 0.0
C1144 C 0.50505 0.51475 0.46629 0.0
C1145 C 0.55701 0.49788 0.5274 0.0
C1146 C 0.53384 0.50394 0.51898 0.0
C1147 C 0.46723 0.52386 0.4949 0.0
C1148 C 0.49037 0.51772 0.50338 0.0
H1149 H 0.58852 0.46954 0.60388 0.0
H1150 H 0.55059 0.47497 0.5832 0.0
H1151 H 0.53716 0.50566 0.44447 0.0
H1152 H 0.43593 0.55282 0.41901 0.0
H1153 H 0.47382 0.54714 0.43991 0.0
C1154 C 0.02041 0.5949 0.517 0.0
C1155 C 0.03443 0.59913 0.55315 0.0
C1156 C 0.01617 0.5737 0.50463 0.0
C1157 C 0.03358 0.51596 0.51983 0.0
H1158 H 0.97334 0.50544 0.49558 0.0
C1159 C 1.00336 0.42912 0.50505 0.0
C1160 C 0.98938 0.42486 0.46885 0.0
C1161 C 1.00761 0.45034 0.51729 0.0
C1162 C 0.99026 0.50806 0.50181 0.0
H1163 H 0.05567 0.58428 0.60348 0.0
H1164 H 0.04834 0.54711 0.58192 0.0
H1165 H 0.98484 0.54203 0.51021 0.0
H1166 H 0.96824 0.43966 0.41828 0.0
H1167 H 0.97557 0.47685 0.43965 0.0
H1168 H 0.03899 0.48198 0.51146 0.0
C1169 C 0.04079 0.56026 0.56262 0.0
C1170 C 0.99692 0.52913 0.51011 0.0
C1171 C 0.04518 0.5816 0.57478 0.0
C1172 C 0.97868 0.44237 0.44703 0.0
C1173 C 0.98308 0.46372 0.45908 0.0
C1174 C 0.02692 0.49488 0.51155 0.0
C1175 C 0.02562 0.55601 0.52841 0.0
C1176 C 0.0187 0.53343 0.51915 0.0
C1177 C 0.99821 0.468 0.49334 0.0
C1178 C 1.00514 0.49058 0.50251 0.0
H1179 H 1.01178 0.60806 0.49982 0.0
H1180 H 1.00487 0.57119 0.47732 0.0
H1181 H 0.05049 0.51858 0.52606 0.0
H1182 H 0.01196 0.41599 0.52237 0.0
H1183 H 0.01888 0.45288 0.54464 0.0
loop_
_geom_bond_atom_site_label_1
_geom_bond_atom_site_label_2
_geom_bond_distance
_geom_bond_site_symmetry_2
_ccdc_geom_bond_type
C0 O2 1.247 . S
C0 O4 1.258 1_545 S
C1 O8 1.247 . S
C1 O9 1.258 1_565 S
O2 C0 1.247 . S
O2 Zn3 2.028 . S
Zn3 O2 2.028 . S
Zn3 O7 2.035 . S
Zn3 O9 2.035 . S
Zn3 O10 2.028 . S
O4 C0 1.258 1_565 S
O4 Zn5 2.035 . S
Zn5 O4 2.035 . S
Zn5 O6 2.028 . S
Zn5 O8 2.028 . S
Zn5 O11 2.035 . S
O6 Zn5 2.028 . S
O6 C12 1.247 1_565 S
O7 Zn3 2.035 . S
O7 C12 1.258 . S
O8 C1 1.247 . S
O8 Zn5 2.028 . S
O9 C1 1.258 1_545 S
O9 Zn3 2.035 . S
O10 Zn3 2.028 . S
O10 C13 1.205 1_545 S
O11 Zn5 2.035 . S
O11 C13 1.300 . S
C12 O6 1.247 1_545 S
C12 O7 1.258 . S
C13 O10 1.205 1_565 S
C13 O11 1.300 . S
C14 O16 1.247 . S
C14 O18 1.258 . S
C15 O22 1.247 . S
C15 O23 1.258 . S
O16 C14 1.247 . S
O16 Zn17 2.028 . S
Zn17 O16 2.028 . S
Zn17 O21 2.035 . S
Zn17 O23 2.035 . S
Zn17 O24 2.028 . S
O18 C14 1.258 . S
O18 Zn19 2.035 . S
Zn19 O18 2.035 . S
Zn19 O20 2.028 . S
Zn19 O22 2.028 . S
Zn19 O25 2.035 . S
O20 Zn19 2.028 . S
O20 C26 1.247 . S
O21 Zn17 2.035 . S
O21 C26 1.258 . S
O22 C15 1.247 . S
O22 Zn19 2.028 . S
O23 C15 1.258 . S
O23 Zn17 2.035 . S
O24 Zn17 2.028 . S
O24 C27 1.247 . S
O25 Zn19 2.035 . S
O25 C27 1.258 . S
C26 O20 1.247 . S
C26 O21 1.258 . S
C27 O24 1.247 . S
C27 O25 1.258 . S
C28 O30 1.247 . S
C28 O32 1.258 . S
C29 O36 1.247 . S
C29 O37 1.258 . S
O30 C28 1.247 . S
O30 Zn31 2.028 . S
Zn31 O30 2.028 . S
Zn31 O35 2.035 . S
Zn31 O37 2.035 . S
Zn31 O38 2.028 . S
O32 C28 1.258 . S
O32 Zn33 2.035 . S
Zn33 O32 2.035 . S
Zn33 O34 2.028 . S
Zn33 O36 2.028 . S
Zn33 O39 2.035 . S
O34 Zn33 2.028 . S
O34 C40 1.247 . S
O35 Zn31 2.035 . S
O35 C40 1.258 . S
O36 C29 1.247 . S
O36 Zn33 2.028 . S
O37 C29 1.258 . S
O37 Zn31 2.035 . S
O38 Zn31 2.028 . S
O38 C41 1.247 . S
O39 Zn33 2.035 . S
O39 C41 1.258 . S
C40 O34 1.247 . S
C40 O35 1.258 . S
C41 O38 1.247 . S
C41 O39 1.258 . S
C42 O44 1.247 . S
C42 O46 1.258 1_455 S
C43 O50 1.247 . S
C43 O51 1.258 1_655 S
O44 C42 1.247 . S
O44 Zn45 2.028 . S
Zn45 O44 2.028 . S
Zn45 O49 2.035 . S
Zn45 O51 2.035 . S
Zn45 O52 2.028 . S
O46 C42 1.258 1_655 S
O46 Zn47 2.035 . S
Zn47 O46 2.035 . S
Zn47 O48 2.028 . S
Zn47 O50 2.028 . S
Zn47 O53 2.035 . S
O48 Zn47 2.028 . S
O48 C54 1.211 1_655 S
O49 Zn45 2.035 . S
O49 C54 1.295 . S
O50 C43 1.247 . S
O50 Zn47 2.028 . S
O51 C43 1.258 1_455 S
O51 Zn45 2.035 . S
O52 Zn45 2.028 . S
O52 C55 1.221 1_455 S
O53 Zn47 2.035 . S
O53 C55 1.284 . S
C54 O48 1.211 1_455 S
C54 O49 1.295 . S
C55 O52 1.221 1_655 S
C55 O53 1.284 . S
C56 O58 1.247 . S
C56 O60 1.258 1_565 S
C57 O64 1.247 . S
C57 O65 1.258 1_545 S
O58 C56 1.247 . S
O58 Zn59 2.028 . S
Zn59 O58 2.028 . S
Zn59 O63 2.035 . S
Zn59 O65 2.035 . S
Zn59 O66 2.028 . S
O60 C56 1.258 1_545 S
O60 Zn61 2.035 . S
Zn61 O60 2.035 . S
Zn61 O62 2.028 . S
Zn61 O64 2.028 . S
Zn61 O67 2.035 . S
O62 Zn61 2.028 . S
O62 C68 1.211 1_545 S
O63 Zn59 2.035 . S
O63 C68 1.295 . S
O64 C57 1.247 . S
O64 Zn61 2.028 . S
O65 C57 1.258 1_565 S
O65 Zn59 2.035 . S
O66 Zn59 2.028 . S
O66 C69 1.221 1_565 S
O67 Zn61 2.035 . S
O67 C69 1.284 . S
C68 O62 1.211 1_565 S
C68 O63 1.295 . S
C69 O66 1.221 1_545 S
C69 O67 1.284 . S
C70 O72 1.247 . S
C70 O74 1.258 . S
C71 O78 1.247 . S
C71 O79 1.258 . S
O72 C70 1.247 . S
O72 Zn73 2.028 . S
Zn73 O72 2.028 . S
Zn73 O77 2.035 . S
Zn73 O79 2.035 . S
Zn73 O80 2.028 . S
O74 C70 1.258 . S
O74 Zn75 2.035 . S
Zn75 O74 2.035 . S
Zn75 O76 2.028 . S
Zn75 O78 2.028 . S
Zn75 O81 2.035 . S
O76 Zn75 2.028 . S
O76 C82 1.247 . S
O77 Zn73 2.035 . S
O77 C82 1.258 . S
O78 C71 1.247 . S
O78 Zn75 2.028 . S
O79 C71 1.258 . S
O79 Zn73 2.035 . S
O80 Zn73 2.028 . S
O80 C83 1.247 . S
O81 Zn75 2.035 . S
O81 C83 1.258 . S
C82 O76 1.247 . S
C82 O77 1.258 . S
C83 O80 1.247 . S
C83 O81 1.258 . S
C84 O86 1.247 . S
C84 O88 1.258 . S
C85 O92 1.247 . S
C85 O93 1.258 . S
O86 C84 1.247 . S
O86 Zn87 2.028 . S
Zn87 O86 2.028 . S
Zn87 O91 2.035 . S
Zn87 O93 2.035 . S
Zn87 O94 2.028 . S
O88 C84 1.258 . S
O88 Zn89 2.035 . S
Zn89 O88 2.035 . S
Zn89 O90 2.028 . S
Zn89 O92 2.028 . S
Zn89 O95 2.035 . S
O90 Zn89 2.028 . S
O90 C96 1.247 . S
O91 Zn87 2.035 . S
O91 C96 1.258 . S
O92 C85 1.247 . S
O92 Zn89 2.028 . S
O93 C85 1.258 . S
O93 Zn87 2.035 . S
O94 Zn87 2.028 . S
O94 C97 1.247 . S
O95 Zn89 2.035 . S
O95 C97 1.258 . S
C96 O90 1.247 . S
C96 O91 1.258 . S
C97 O94 1.247 . S
C97 O95 1.258 . S
C98 O100 1.247 . S
C98 O102 1.258 1_655 S
C99 O106 1.247 . S
C99 O107 1.258 1_455 S
O100 C98 1.247 . S
O100 Zn101 2.028 . S
Zn101 O100 2.028 . S
Zn101 O105 2.035 . S
Zn101 O107 2.035 . S
Zn101 O108 2.028 . S
O102 C98 1.258 1_455 S
O102 Zn103 2.035 . S
Zn103 O102 2.035 . S
Zn103 O104 2.028 . S
Zn103 O106 2.028 . S
Zn103 O109 2.035 . S
O104 Zn103 2.028 . S
O104 C110 1.247 1_455 S
O105 Zn101 2.035 . S
O105 C110 1.258 . S
O106 C99 1.247 . S
O106 Zn103 2.028 . S
O107 C99 1.258 1_655 S
O107 Zn101 2.035 . S
O108 Zn101 2.028 . S
O108 C111 1.205 1_655 S
O109 Zn103 2.035 . S
O109 C111 1.300 . S
C110 O104 1.247 1_655 S
C110 O105 1.258 . S
C111 O108 1.205 1_455 S
C111 O109 1.300 . S
C112 O114 1.247 1_565 S
C112 O116 1.258 . S
C113 O120 1.247 1_545 S
C113 O121 1.258 . S
O114 C112 1.247 1_545 S
O114 Zn115 2.028 . S
Zn115 O114 2.028 . S
Zn115 O119 2.035 . S
Zn115 O121 2.035 . S
Zn115 O122 2.028 . S
O116 C112 1.258 . S
O116 Zn117 2.035 . S
Zn117 O116 2.035 . S
Zn117 O118 2.028 . S
Zn117 O120 2.028 . S
Zn117 O123 2.035 . S
O118 Zn117 2.028 . S
O118 C124 1.247 . S
O119 Zn115 2.035 . S
O119 C124 1.258 1_545 S
O120 C113 1.247 1_565 S
O120 Zn117 2.028 . S
O121 C113 1.258 . S
O121 Zn115 2.035 . S
O122 Zn115 2.028 . S
O122 C125 1.247 . S
O123 Zn117 2.035 . S
O123 C125 1.258 1_565 S
C124 O118 1.247 . S
C124 O119 1.258 1_565 S
C125 O122 1.247 . S
C125 O123 1.258 1_545 S
C126 O128 1.247 . S
C126 O130 1.258 . S
C127 O134 1.247 . S
C127 O135 1.258 . S
O128 C126 1.247 . S
O128 Zn129 2.028 . S
Zn129 O128 2.028 . S
Zn129 O133 2.035 . S
Zn129 O135 2.035 . S
Zn129 O136 2.028 . S
O130 C126 1.258 . S
O130 Zn131 2.035 . S
Zn131 O130 2.035 . S
Zn131 O132 2.028 . S
Zn131 O134 2.028 . S
Zn131 O137 2.035 . S
O132 Zn131 2.028 . S
O132 C138 1.247 . S
O133 Zn129 2.035 . S
O133 C138 1.258 . S
O134 C127 1.247 . S
O134 Zn131 2.028 . S
O135 C127 1.258 . S
O135 Zn129 2.035 . S
O136 Zn129 2.028 . S
O136 C139 1.247 . S
O137 Zn131 2.035 . S
O137 C139 1.258 . S
C138 O132 1.247 . S
C138 O133 1.258 . S
C139 O136 1.247 . S
C139 O137 1.258 . S
C140 O142 1.247 . S
C140 O144 1.258 . S
C141 O148 1.247 . S
C141 O149 1.258 . S
O142 C140 1.247 . S
O142 Zn143 2.028 . S
Zn143 O142 2.028 . S
Zn143 O147 2.035 . S
Zn143 O149 2.035 . S
Zn143 O150 2.028 . S
O144 C140 1.258 . S
O144 Zn145 2.035 . S
Zn145 O144 2.035 . S
Zn145 O146 2.028 . S
Zn145 O148 2.028 . S
Zn145 O151 2.035 . S
O146 Zn145 2.028 . S
O146 C152 1.247 . S
O147 Zn143 2.035 . S
O147 C152 1.258 . S
O148 C141 1.247 . S
O148 Zn145 2.028 . S
O149 C141 1.258 . S
O149 Zn143 2.035 . S
O150 Zn143 2.028 . S
O150 C153 1.247 . S
O151 Zn145 2.035 . S
O151 C153 1.258 . S
C152 O146 1.247 . S
C152 O147 1.258 . S
C153 O150 1.247 . S
C153 O151 1.258 . S
C154 O156 1.247 . S
C154 O158 1.258 1_455 S
C155 O162 1.247 . S
C155 O163 1.258 1_655 S
O156 C154 1.247 . S
O156 Zn157 2.028 . S
Zn157 O156 2.028 . S
Zn157 O161 2.035 . S
Zn157 O163 2.035 . S
Zn157 O164 2.028 . S
O158 C154 1.258 1_655 S
O158 Zn159 2.035 . S
Zn159 O158 2.035 . S
Zn159 O160 2.028 . S
Zn159 O162 2.028 . S
Zn159 O165 2.035 . S
O160 Zn159 2.028 . S
O160 C166 1.221 1_655 S
O161 Zn157 2.035 . S
O161 C166 1.284 . S
O162 C155 1.247 . S
O162 Zn159 2.028 . S
O163 C155 1.258 1_455 S
O163 Zn157 2.035 . S
O164 Zn157 2.028 . S
O164 C167 1.211 1_455 S
O165 Zn159 2.035 . S
O165 C167 1.295 . S
C166 O160 1.221 1_455 S
C166 O161 1.284 . S
C167 O164 1.211 1_655 S
C167 O165 1.295 . S
C168 O170 1.292 . S
C168 O172 1.215 1_545 S
C169 O176 1.281 . S
C169 O177 1.225 1_565 S
O170 C168 1.292 . S
O170 Zn171 2.028 . S
Zn171 O170 2.028 . S
Zn171 O175 2.035 . S
Zn171 O177 2.035 . S
Zn171 O178 2.028 . S
O172 C168 1.215 1_565 S
O172 Zn173 2.035 . S
Zn173 O172 2.035 . S
Zn173 O174 2.028 . S
Zn173 O176 2.028 . S
Zn173 O179 2.035 . S
O174 Zn173 2.028 . S
O174 C180 1.247 1_565 S
O175 Zn171 2.035 . S
O175 C180 1.258 . S
O176 C169 1.281 . S
O176 Zn173 2.028 . S
O177 C169 1.225 1_545 S
O177 Zn171 2.035 . S
O178 Zn171 2.028 . S
O178 C181 1.247 1_545 S
O179 Zn173 2.035 . S
O179 C181 1.258 . S
C180 O174 1.247 1_545 S
C180 O175 1.258 . S
C181 O178 1.247 1_565 S
C181 O179 1.258 . S
C182 O184 1.247 . S
C182 O186 1.258 . S
C183 O190 1.247 . S
C183 O191 1.258 . S
O184 C182 1.247 . S
O184 Zn185 2.028 . S
Zn185 O184 2.028 . S
Zn185 O189 2.035 . S
Zn185 O191 2.035 . S
Zn185 O192 2.028 . S
O186 C182 1.258 . S
O186 Zn187 2.035 . S
Zn187 O186 2.035 . S
Zn187 O188 2.028 . S
Zn187 O190 2.028 . S
Zn187 O193 2.035 . S
O188 Zn187 2.028 . S
O188 C194 1.247 . S
O189 Zn185 2.035 . S
O189 C194 1.258 . S
O190 C183 1.247 . S
O190 Zn187 2.028 . S
O191 C183 1.258 . S
O191 Zn185 2.035 . S
O192 Zn185 2.028 . S
O192 C195 1.247 . S
O193 Zn187 2.035 . S
O193 C195 1.258 . S
C194 O188 1.247 . S
C194 O189 1.258 . S
C195 O192 1.247 . S
C195 O193 1.258 . S
C196 O198 1.247 . S
C196 O200 1.258 . S
C197 O204 1.247 . S
C197 O205 1.258 . S
O198 C196 1.247 . S
O198 Zn199 2.028 . S
Zn199 O198 2.028 . S
Zn199 O203 2.035 . S
Zn199 O205 2.035 . S
Zn199 O206 2.028 . S
O200 C196 1.258 . S
O200 Zn201 2.035 . S
Zn201 O200 2.035 . S
Zn201 O202 2.028 . S
Zn201 O204 2.028 . S
Zn201 O207 2.035 . S
O202 Zn201 2.028 . S
O202 C208 1.247 . S
O203 Zn199 2.035 . S
O203 C208 1.258 . S
O204 C197 1.247 . S
O204 Zn201 2.028 . S
O205 C197 1.258 . S
O205 Zn199 2.035 . S
O206 Zn199 2.028 . S
O206 C209 1.247 . S
O207 Zn201 2.035 . S
O207 C209 1.258 . S
C208 O202 1.247 . S
C208 O203 1.258 . S
C209 O206 1.247 . S
C209 O207 1.258 . S
C210 O212 1.247 . S
C210 O214 1.258 1_655 S
C211 O218 1.247 . S
C211 O219 1.258 1_455 S
O212 C210 1.247 . S
O212 Zn213 2.028 . S
Zn213 O212 2.028 . S
Zn213 O217 2.035 . S
Zn213 O219 2.035 . S
Zn213 O220 2.028 . S
O214 C210 1.258 1_455 S
O214 Zn215 2.035 . S
Zn215 O214 2.035 . S
Zn215 O216 2.028 . S
Zn215 O218 2.028 . S
Zn215 O221 2.035 . S
O216 Zn215 2.028 . S
O216 C222 1.205 1_455 S
O217 Zn213 2.035 . S
O217 C222 1.300 . S
O218 C211 1.247 . S
O218 Zn215 2.028 . S
O219 C211 1.258 1_655 S
O219 Zn213 2.035 . S
O220 Zn213 2.028 . S
O220 C223 1.247 1_655 S
O221 Zn215 2.035 . S
O221 C223 1.258 . S
C222 O216 1.205 1_655 S
C222 O217 1.300 . S
C223 O220 1.247 1_455 S
C223 O221 1.258 . S
C224 C225 1.349 . S
C224 C226 1.327 . S
C224 H249 0.950 . S
C225 C224 1.349 . S
C225 C241 1.349 . S
C226 C224 1.327 . S
C226 C245 1.429 . S
C226 H250 0.950 . S
C227 C244 1.574 . S
C227 C246 1.368 . S
C227 H251 0.949 . S
H228 C232 0.949 . S
C229 C230 1.349 . S
C229 C231 1.327 . S
C229 H252 0.950 . S
C230 C229 1.349 . S
C230 C242 1.349 . S
C231 C229 1.327 . S
C231 C247 1.429 . S
C231 H253 0.950 . S
C232 H228 0.949 . S
C232 C240 1.574 . S
C232 C248 1.368 . S
H233 C241 0.950 . S
H234 C239 0.950 . S
H235 C240 0.949 . S
H236 C242 0.950 1_565 S
H237 C243 0.950 . S
H238 C244 0.949 . S
C239 H234 0.950 . S
C239 C241 1.327 . S
C239 C245 1.429 . S
C240 C232 1.574 . S
C240 H235 0.949 . S
C240 C246 1.368 . S
C241 C225 1.349 . S
C241 H233 0.950 . S
C241 C239 1.327 . S
C242 C230 1.349 . S
C242 H236 0.950 1_545 S
C242 C243 1.327 . S
C243 H237 0.950 . S
C243 C242 1.327 . S
C243 C247 1.429 . S
C244 C227 1.574 . S
C244 H238 0.949 . S
C244 C248 1.368 . S
C245 C226 1.429 . S
C245 C239 1.429 . S
C245 C246 1.523 . S
C246 C227 1.368 . S
C246 C240 1.368 . S
C246 C245 1.523 . S
C247 C231 1.429 . S
C247 C243 1.429 . S
C247 C248 1.523 . S
C248 C232 1.368 . S
C248 C244 1.368 . S
C248 C247 1.523 . S
H249 C224 0.950 . S
H250 C226 0.950 . S
H251 C227 0.949 . S
H252 C229 0.950 . S
H253 C231 0.950 . S
C254 C255 1.349 . S
C254 C256 1.327 . S
C254 H279 0.950 . S
C255 C254 1.349 . S
C255 C271 1.349 . S
C256 C254 1.327 . S
C256 C275 1.429 . S
C256 H280 0.950 . S
C257 C274 1.574 . S
C257 C276 1.368 . S
C257 H281 0.949 . S
H258 C262 0.949 . S
C259 C260 1.349 . S
C259 C261 1.327 . S
C259 H282 0.950 . S
C260 C259 1.349 . S
C260 C272 1.349 . S
C261 C259 1.327 . S
C261 C277 1.429 . S
C261 H283 0.950 . S
C262 H258 0.949 . S
C262 C270 1.574 . S
C262 C278 1.368 . S
H263 C271 0.950 . S
H264 C269 0.950 . S
H265 C270 0.949 . S
H266 C272 0.950 . S
H267 C273 0.950 . S
H268 C274 0.949 . S
C269 H264 0.950 . S
C269 C271 1.327 . S
C269 C275 1.429 . S
C270 C262 1.574 . S
C270 H265 0.949 . S
C270 C276 1.368 . S
C271 C255 1.349 . S
C271 H263 0.950 . S
C271 C269 1.327 . S
C272 C260 1.349 . S
C272 H266 0.950 . S
C272 C273 1.327 . S
C273 H267 0.950 . S
C273 C272 1.327 . S
C273 C277 1.429 . S
C274 C257 1.574 . S
C274 H268 0.949 . S
C274 C278 1.368 . S
C275 C256 1.429 . S
C275 C269 1.429 . S
C275 C276 1.523 . S
C276 C257 1.368 . S
C276 C270 1.368 . S
C276 C275 1.523 . S
C277 C261 1.429 . S
C277 C273 1.429 . S
C277 C278 1.523 . S
C278 C262 1.368 . S
C278 C274 1.368 . S
C278 C277 1.523 . S
H279 C254 0.950 . S
H280 C256 0.950 . S
H281 C257 0.949 . S
H282 C259 0.950 . S
H283 C261 0.950 . S
C284 C285 1.349 . S
C284 C286 1.327 . S
C284 H309 0.950 . S
C285 C284 1.349 . S
C285 C301 1.349 . S
C286 C284 1.327 . S
C286 C305 1.429 . S
C286 H310 0.950 . S
C287 C304 1.574 . S
C287 C306 1.368 . S
C287 H311 0.949 . S
H288 C292 0.949 . S
C289 C290 1.349 . S
C289 C291 1.327 . S
C289 H312 0.950 . S
C290 C289 1.349 . S
C290 C302 1.349 . S
C291 C289 1.327 . S
C291 C307 1.429 . S
C291 H313 0.950 . S
C292 H288 0.949 . S
C292 C300 1.574 . S
C292 C308 1.368 . S
H293 C301 0.950 . S
H294 C299 0.950 . S
H295 C300 0.949 . S
H296 C302 0.950 . S
H297 C303 0.950 . S
H298 C304 0.949 . S
C299 H294 0.950 . S
C299 C301 1.327 . S
C299 C305 1.429 . S
C300 C292 1.574 . S
C300 H295 0.949 . S
C300 C306 1.368 . S
C301 C285 1.349 . S
C301 H293 0.950 . S
C301 C299 1.327 . S
C302 C290 1.349 . S
C302 H296 0.950 . S
C302 C303 1.327 . S
C303 H297 0.950 . S
C303 C302 1.327 . S
C303 C307 1.429 . S
C304 C287 1.574 . S
C304 H298 0.949 . S
C304 C308 1.368 . S
C305 C286 1.429 . S
C305 C299 1.429 . S
C305 C306 1.523 . S
C306 C287 1.368 . S
C306 C300 1.368 . S
C306 C305 1.523 . S
C307 C291 1.429 . S
C307 C303 1.429 . S
C307 C308 1.523 . S
C308 C292 1.368 . S
C308 C304 1.368 . S
C308 C307 1.523 . S
H309 C284 0.950 . S
H310 C286 0.950 . S
H311 C287 0.949 . S
H312 C289 0.950 . S
H313 C291 0.950 . S
C314 C315 1.349 . S
C314 C316 1.327 . S
C314 H339 0.950 . S
C315 C314 1.349 . S
C315 C331 1.349 . S
C316 C314 1.327 . S
C316 C335 1.429 . S
C316 H340 0.950 . S
C317 C334 1.574 . S
C317 C336 1.368 . S
C317 H341 0.949 . S
H318 C322 0.949 . S
C319 C320 1.349 . S
C319 C321 1.327 . S
C319 H342 0.950 1_565 S
C320 C319 1.349 . S
C320 C332 1.349 . S
C321 C319 1.327 . S
C321 C337 1.429 . S
C321 H343 0.950 . S
C322 H318 0.949 . S
C322 C330 1.574 . S
C322 C338 1.368 . S
H323 C331 0.950 1_655 S
H324 C329 0.950 . S
H325 C330 0.949 . S
H326 C332 0.950 . S
H327 C333 0.950 . S
H328 C334 0.949 . S
C329 H324 0.950 . S
C329 C331 1.327 . S
C329 C335 1.429 . S
C330 C322 1.574 . S
C330 H325 0.949 . S
C330 C336 1.368 . S
C331 C315 1.349 . S
C331 H323 0.950 1_455 S
C331 C329 1.327 . S
C332 C320 1.349 . S
C332 H326 0.950 . S
C332 C333 1.327 . S
C333 H327 0.950 . S
C333 C332 1.327 . S
C333 C337 1.429 . S
C334 C317 1.574 . S
C334 H328 0.949 . S
C334 C338 1.368 . S
C335 C316 1.429 . S
C335 C329 1.429 . S
C335 C336 1.523 . S
C336 C317 1.368 . S
C336 C330 1.368 . S
C336 C335 1.523 . S
C337 C321 1.429 . S
C337 C333 1.429 . S
C337 C338 1.523 . S
C338 C322 1.368 . S
C338 C334 1.368 . S
C338 C337 1.523 . S
H339 C314 0.950 . S
H340 C316 0.950 . S
H341 C317 0.949 . S
H342 C319 0.950 1_545 S
H343 C321 0.950 . S
C344 C345 1.349 . S
C344 C346 1.327 . S
C344 H369 0.950 1_565 S
C345 C344 1.349 . S
C345 C361 1.349 . S
C346 C344 1.327 . S
C346 C365 1.429 . S
C346 H370 0.950 . S
C347 C364 1.574 . S
C347 C366 1.368 . S
C347 H371 0.949 . S
H348 C352 0.949 . S
C349 C350 1.349 . S
C349 C351 1.327 . S
C349 H372 0.950 . S
C350 C349 1.349 . S
C350 C362 1.349 . S
C351 C349 1.327 . S
C351 C367 1.429 . S
C351 H373 0.950 . S
C352 H348 0.949 . S
C352 C360 1.574 . S
C352 C368 1.368 . S
H353 C361 0.950 . S
H354 C359 0.950 . S
H355 C360 0.949 . S
H356 C362 0.950 . S
H357 C363 0.950 . S
H358 C364 0.949 . S
C359 H354 0.950 . S
C359 C361 1.327 . S
C359 C365 1.429 . S
C360 C352 1.574 . S
C360 H355 0.949 . S
C360 C366 1.368 . S
C361 C345 1.349 . S
C361 H353 0.950 . S
C361 C359 1.327 . S
C362 C350 1.349 . S
C362 H356 0.950 . S
C362 C363 1.327 . S
C363 H357 0.950 . S
C363 C362 1.327 . S
C363 C367 1.429 . S
C364 C347 1.574 . S
C364 H358 0.949 . S
C364 C368 1.368 . S
C365 C346 1.429 . S
C365 C359 1.429 . S
C365 C366 1.523 . S
C366 C347 1.368 . S
C366 C360 1.368 . S
C366 C365 1.523 . S
C367 C351 1.429 . S
C367 C363 1.429 . S
C367 C368 1.523 . S
C368 C352 1.368 . S
C368 C364 1.368 . S
C368 C367 1.523 . S
H369 C344 0.950 1_545 S
H370 C346 0.950 . S
H371 C347 0.949 . S
H372 C349 0.950 . S
H373 C351 0.950 . S
C374 C375 1.349 . S
C374 C376 1.327 . S
C374 H399 0.950 . S
C375 C374 1.349 . S
C375 C391 1.349 . S
C376 C374 1.327 . S
C376 C395 1.429 . S
C376 H400 0.950 . S
C377 C394 1.574 . S
C377 C396 1.368 . S
C377 H401 0.949 . S
H378 C382 0.949 . S
C379 C380 1.349 . S
C379 C381 1.327 . S
C379 H402 0.950 . S
C380 C379 1.349 . S
C380 C392 1.349 . S
C381 C379 1.327 . S
C381 C397 1.429 . S
C381 H403 0.950 . S
C382 H378 0.949 . S
C382 C390 1.574 . S
C382 C398 1.368 . S
H383 C391 0.950 . S
H384 C389 0.950 . S
H385 C390 0.949 . S
H386 C392 0.950 . S
H387 C393 0.950 . S
H388 C394 0.949 . S
C389 H384 0.950 . S
C389 C391 1.327 . S
C389 C395 1.429 . S
C390 C382 1.574 . S
C390 H385 0.949 . S
C390 C396 1.368 . S
C391 C375 1.349 . S
C391 H383 0.950 . S
C391 C389 1.327 . S
C392 C380 1.349 . S
C392 H386 0.950 . S
C392 C393 1.327 . S
C393 H387 0.950 . S
C393 C392 1.327 . S
C393 C397 1.429 . S
C394 C377 1.574 . S
C394 H388 0.949 . S
C394 C398 1.368 . S
C395 C376 1.429 . S
C395 C389 1.429 . S
C395 C396 1.523 . S
C396 C377 1.368 . S
C396 C390 1.368 . S
C396 C395 1.523 . S
C397 C381 1.429 . S
C397 C393 1.429 . S
C397 C398 1.523 . S
C398 C382 1.368 . S
C398 C394 1.368 . S
C398 C397 1.523 . S
H399 C374 0.950 . S
H400 C376 0.950 . S
H401 C377 0.949 . S
H402 C379 0.950 . S
H403 C381 0.950 . S
C404 C405 1.349 . S
C404 C406 1.327 . S
C404 H429 0.950 . S
C405 C404 1.349 . S
C405 C421 1.349 . S
C406 C404 1.327 . S
C406 C425 1.429 . S
C406 H430 0.950 . S
C407 C424 1.574 . S
C407 C426 1.368 . S
C407 H431 0.949 . S
H408 C412 0.949 . S
C409 C410 1.349 . S
C409 C411 1.327 . S
C409 H432 0.950 . S
C410 C409 1.349 . S
C410 C422 1.349 . S
C411 C409 1.327 . S
C411 C427 1.429 . S
C411 H433 0.950 . S
C412 H408 0.949 . S
C412 C420 1.574 . S
C412 C428 1.368 . S
H413 C421 0.950 . S
H414 C419 0.950 . S
H415 C420 0.949 . S
H416 C422 0.950 . S
H417 C423 0.950 . S
H418 C424 0.949 . S
C419 H414 0.950 . S
C419 C421 1.327 . S
C419 C425 1.429 . S
C420 C412 1.574 . S
C420 H415 0.949 . S
C420 C426 1.368 . S
C421 C405 1.349 . S
C421 H413 0.950 . S
C421 C419 1.327 . S
C422 C410 1.349 . S
C422 H416 0.950 . S
C422 C423 1.327 . S
C423 H417 0.950 . S
C423 C422 1.327 . S
C423 C427 1.429 . S
C424 C407 1.574 . S
C424 H418 0.949 . S
C424 C428 1.368 . S
C425 C406 1.429 . S
C425 C419 1.429 . S
C425 C426 1.523 . S
C426 C407 1.368 . S
C426 C420 1.368 . S
C426 C425 1.523 . S
C427 C411 1.429 . S
C427 C423 1.429 . S
C427 C428 1.523 . S
C428 C412 1.368 . S
C428 C424 1.368 . S
C428 C427 1.523 . S
H429 C404 0.950 . S
H430 C406 0.950 . S
H431 C407 0.949 . S
H432 C409 0.950 . S
H433 C411 0.950 . S
C434 C435 1.349 . S
C434 C436 1.327 . S
C434 H459 0.950 1_655 S
C435 C434 1.349 . S
C435 C451 1.349 . S
C436 C434 1.327 . S
C436 C455 1.429 . S
C436 H460 0.950 . S
C437 C454 1.574 . S
C437 C456 1.368 . S
C437 H461 0.949 . S
H438 C442 0.949 . S
C439 C440 1.349 . S
C439 C441 1.327 . S
C439 H462 0.950 . S
C440 C439 1.349 . S
C440 C452 1.349 . S
C441 C439 1.327 . S
C441 C457 1.429 . S
C441 H463 0.950 . S
C442 H438 0.949 . S
C442 C450 1.574 . S
C442 C458 1.368 . S
H443 C451 0.950 . S
H444 C449 0.950 . S
H445 C450 0.949 . S
H446 C452 0.950 . S
H447 C453 0.950 . S
H448 C454 0.949 . S
C449 H444 0.950 . S
C449 C451 1.327 . S
C449 C455 1.429 . S
C450 C442 1.574 . S
C450 H445 0.949 . S
C450 C456 1.368 . S
C451 C435 1.349 . S
C451 H443 0.950 . S
C451 C449 1.327 . S
C452 C440 1.349 . S
C452 H446 0.950 . S
C452 C453 1.327 . S
C453 H447 0.950 . S
C453 C452 1.327 . S
C453 C457 1.429 . S
C454 C437 1.574 . S
C454 H448 0.949 . S
C454 C458 1.368 . S
C455 C436 1.429 . S
C455 C449 1.429 . S
C455 C456 1.523 . S
C456 C437 1.368 . S
C456 C450 1.368 . S
C456 C455 1.523 . S
C457 C441 1.429 . S
C457 C453 1.429 . S
C457 C458 1.523 . S
C458 C442 1.368 . S
C458 C454 1.368 . S
C458 C457 1.523 . S
H459 C434 0.950 1_455 S
H460 C436 0.950 . S
H461 C437 0.949 . S
H462 C439 0.950 . S
H463 C441 0.950 . S
C464 C465 1.349 1_545 S
C464 C466 1.327 . S
C464 H489 0.950 1_556 S
C465 C464 1.349 1_565 S
C465 C481 1.349 . S
C466 C464 1.327 . S
C466 C485 1.429 1_545 S
C466 H490 0.950 . S
C467 C484 1.574 . S
C467 C486 1.368 . S
C467 H491 0.949 . S
H468 C472 0.949 . S
C469 C470 1.380 . S
C469 C471 1.327 . S
C469 H492 0.950 . S
C470 C469 1.380 . S
C470 C482 1.322 1_565 S
C471 C469 1.327 . S
C471 C487 1.429 . S
C471 H493 0.950 . S
C472 H468 0.949 . S
C472 C480 1.574 . S
C472 C488 1.368 1_545 S
H473 C481 0.950 . S
H474 C479 0.950 . S
H475 C480 0.949 . S
H476 C482 0.950 . S
H477 C483 0.950 . S
H478 C484 0.949 . S
C479 H474 0.950 . S
C479 C481 1.327 . S
C479 C485 1.429 . S
C480 C472 1.574 . S
C480 H475 0.949 . S
C480 C486 1.368 1_545 S
C481 C465 1.349 . S
C481 H473 0.950 . S
C481 C479 1.327 . S
C482 C470 1.322 1_545 S
C482 H476 0.950 . S
C482 C483 1.327 . S
C483 H477 0.950 . S
C483 C482 1.327 . S
C483 C487 1.429 1_545 S
C484 C467 1.574 . S
C484 H478 0.949 . S
C484 C488 1.368 . S
C485 C466 1.429 1_565 S
C485 C479 1.429 . S
C485 C486 1.523 . S
C486 C467 1.368 . S
C486 C480 1.368 1_565 S
C486 C485 1.523 . S
C487 C471 1.429 . S
C487 C483 1.429 1_565 S
C487 C488 1.523 . S
C488 C472 1.368 1_565 S
C488 C484 1.368 . S
C488 C487 1.523 . S
H489 C464 0.950 1_554 S
H490 C466 0.950 . S
H491 C467 0.949 . S
H492 C469 0.950 . S
H493 C471 0.950 . S
C494 C495 1.349 . S
C494 C496 1.327 . S
C494 H519 0.950 . S
C495 C494 1.349 . S
C495 C511 1.349 . S
C496 C494 1.327 . S
C496 C515 1.429 . S
C496 H520 0.950 . S
C497 C514 1.574 . S
C497 C516 1.368 . S
C497 H521 0.949 . S
H498 C502 0.949 . S
C499 C500 1.349 . S
C499 C501 1.327 . S
C499 H522 0.950 1_556 S
C500 C499 1.349 . S
C500 C512 1.349 . S
C501 C499 1.327 . S
C501 C517 1.429 . S
C501 H523 0.950 . S
C502 H498 0.949 . S
C502 C510 1.574 . S
C502 C518 1.368 . S
H503 C511 0.950 . S
H504 C509 0.950 . S
H505 C510 0.949 . S
H506 C512 0.950 . S
H507 C513 0.950 . S
H508 C514 0.949 . S
C509 H504 0.950 . S
C509 C511 1.327 . S
C509 C515 1.429 . S
C510 C502 1.574 . S
C510 H505 0.949 . S
C510 C516 1.368 . S
C511 C495 1.349 . S
C511 H503 0.950 . S
C511 C509 1.327 . S
C512 C500 1.349 . S
C512 H506 0.950 . S
C512 C513 1.327 . S
C513 H507 0.950 . S
C513 C512 1.327 . S
C513 C517 1.429 . S
C514 C497 1.574 . S
C514 H508 0.949 . S
C514 C518 1.368 . S
C515 C496 1.429 . S
C515 C509 1.429 . S
C515 C516 1.523 . S
C516 C497 1.368 . S
C516 C510 1.368 . S
C516 C515 1.523 . S
C517 C501 1.429 . S
C517 C513 1.429 . S
C517 C518 1.523 . S
C518 C502 1.368 . S
C518 C514 1.368 . S
C518 C517 1.523 . S
H519 C494 0.950 . S
H520 C496 0.950 . S
H521 C497 0.949 . S
H522 C499 0.950 1_554 S
H523 C501 0.950 . S
C524 C525 1.349 . S
C524 C526 1.327 . S
C524 H549 0.950 . S
C525 C524 1.349 . S
C525 C541 1.349 . S
C526 C524 1.327 . S
C526 C545 1.429 . S
C526 H550 0.950 . S
C527 C544 1.574 . S
C527 C546 1.368 . S
C527 H551 0.949 . S
H528 C532 0.949 . S
C529 C530 1.349 . S
C529 C531 1.327 . S
C529 H552 0.950 . S
C530 C529 1.349 . S
C530 C542 1.349 . S
C531 C529 1.327 . S
C531 C547 1.429 . S
C531 H553 0.950 . S
C532 H528 0.949 . S
C532 C540 1.574 . S
C532 C548 1.368 . S
H533 C541 0.950 1_554 S
H534 C539 0.950 . S
H535 C540 0.949 . S
H536 C542 0.950 . S
H537 C543 0.950 . S
H538 C544 0.949 . S
C539 H534 0.950 . S
C539 C541 1.327 . S
C539 C545 1.429 . S
C540 C532 1.574 . S
C540 H535 0.949 . S
C540 C546 1.368 . S
C541 C525 1.349 . S
C541 H533 0.950 1_556 S
C541 C539 1.327 . S
C542 C530 1.349 . S
C542 H536 0.950 . S
C542 C543 1.327 . S
C543 H537 0.950 . S
C543 C542 1.327 . S
C543 C547 1.429 . S
C544 C527 1.574 . S
C544 H538 0.949 . S
C544 C548 1.368 . S
C545 C526 1.429 . S
C545 C539 1.429 . S
C545 C546 1.523 . S
C546 C527 1.368 . S
C546 C540 1.368 . S
C546 C545 1.523 . S
C547 C531 1.429 . S
C547 C543 1.429 . S
C547 C548 1.523 . S
C548 C532 1.368 . S
C548 C544 1.368 . S
C548 C547 1.523 . S
H549 C524 0.950 . S
H550 C526 0.950 . S
H551 C527 0.949 . S
H552 C529 0.950 . S
H553 C531 0.950 . S
C554 C555 1.349 . S
C554 C556 1.327 . S
C554 H579 0.950 . S
C555 C554 1.349 . S
C555 C571 1.349 . S
C556 C554 1.327 . S
C556 C575 1.429 . S
C556 H580 0.950 . S
C557 C574 1.574 . S
C557 C576 1.368 . S
C557 H581 0.949 . S
H558 C562 0.949 . S
C559 C560 1.353 . S
C559 C561 1.327 . S
C559 H582 0.950 . S
C560 C559 1.353 . S
C560 C572 1.347 1_655 S
C561 C559 1.327 . S
C561 C577 1.429 . S
C561 H583 0.950 . S
C562 H558 0.949 . S
C562 C570 1.574 . S
C562 C578 1.368 . S
H563 C571 0.950 1_554 S
H564 C569 0.950 . S
H565 C570 0.949 . S
H566 C572 0.950 . S
H567 C573 0.946 1_455 S
H568 C574 0.949 . S
C569 H564 0.950 . S
C569 C571 1.327 . S
C569 C575 1.429 . S
C570 C562 1.574 . S
C570 H565 0.949 . S
C570 C576 1.368 . S
C571 C555 1.349 . S
C571 H563 0.950 1_556 S
C571 C569 1.327 . S
C572 C560 1.347 1_455 S
C572 H566 0.950 . S
C572 C573 1.326 1_455 S
C573 H567 0.946 1_655 S
C573 C572 1.326 1_655 S
C573 C577 1.433 . S
C574 C557 1.574 . S
C574 H568 0.949 . S
C574 C578 1.368 . S
C575 C556 1.429 . S
C575 C569 1.429 . S
C575 C576 1.523 . S
C576 C557 1.368 . S
C576 C570 1.368 . S
C576 C575 1.523 . S
C577 C561 1.429 . S
C577 C573 1.433 . S
C577 C578 1.523 . S
C578 C562 1.368 . S
C578 C574 1.368 . S
C578 C577 1.523 . S
H579 C554 0.950 . S
H580 C556 0.950 . S
H581 C557 0.949 . S
H582 C559 0.950 . S
H583 C561 0.950 . S
C584 C585 1.349 . S
C584 C586 1.327 . S
C584 H609 0.950 . S
C585 C584 1.349 . S
C585 C601 1.349 . S
C586 C584 1.327 . S
C586 C605 1.429 . S
C586 H610 0.950 . S
C587 C604 1.574 . S
C587 C606 1.368 . S
C587 H611 0.949 . S
H588 C592 0.949 . S
C589 C590 1.354 . S
C589 C591 1.327 . S
C589 H612 0.950 . S
C590 C589 1.354 . S
C590 C602 1.346 1_545 S
C591 C589 1.327 . S
C591 C607 1.429 . S
C591 H613 0.950 . S
C592 H588 0.949 . S
C592 C600 1.574 . S
C592 C608 1.368 . S
H593 C601 0.950 . S
H594 C599 0.950 . S
H595 C600 0.949 . S
H596 C602 0.950 . S
H597 C603 0.945 1_565 S
H598 C604 0.949 . S
C599 H594 0.950 . S
C599 C601 1.327 . S
C599 C605 1.429 . S
C600 C592 1.574 . S
C600 H595 0.949 . S
C600 C606 1.368 . S
C601 C585 1.349 . S
C601 H593 0.950 . S
C601 C599 1.327 . S
C602 C590 1.346 1_565 S
C602 H596 0.950 . S
C602 C603 1.326 1_565 S
C603 H597 0.945 1_545 S
C603 C602 1.326 1_545 S
C603 C607 1.431 . S
C604 C587 1.574 . S
C604 H598 0.949 . S
C604 C608 1.368 . S
C605 C586 1.429 . S
C605 C599 1.429 . S
C605 C606 1.523 . S
C606 C587 1.368 . S
C606 C600 1.368 . S
C606 C605 1.523 . S
C607 C591 1.429 . S
C607 C603 1.431 . S
C607 C608 1.523 . S
C608 C592 1.368 . S
C608 C604 1.368 . S
C608 C607 1.523 . S
H609 C584 0.950 . S
H610 C586 0.950 . S
H611 C587 0.949 . S
H612 C589 0.950 . S
H613 C591 0.950 . S
C614 C615 1.349 . S
C614 C616 1.327 . S
C614 H639 0.950 . S
C615 C614 1.349 . S
C615 C631 1.349 . S
C616 C614 1.327 . S
C616 C635 1.429 . S
C616 H640 0.950 . S
C617 C634 1.574 . S
C617 C636 1.368 . S
C617 H641 0.949 . S
H618 C622 0.949 . S
C619 C620 1.349 . S
C619 C621 1.327 . S
C619 H642 0.950 . S
C620 C619 1.349 . S
C620 C632 1.349 . S
C621 C619 1.327 . S
C621 C637 1.429 . S
C621 H643 0.950 . S
C622 H618 0.949 . S
C622 C630 1.574 . S
C622 C638 1.368 . S
H623 C631 0.950 . S
H624 C629 0.950 . S
H625 C630 0.949 . S
H626 C632 0.950 . S
H627 C633 0.950 . S
H628 C634 0.949 . S
C629 H624 0.950 . S
C629 C631 1.327 . S
C629 C635 1.429 . S
C630 C622 1.574 . S
C630 H625 0.949 . S
C630 C636 1.368 . S
C631 C615 1.349 . S
C631 H623 0.950 . S
C631 C629 1.327 . S
C632 C620 1.349 . S
C632 H626 0.950 . S
C632 C633 1.327 . S
C633 H627 0.950 . S
C633 C632 1.327 . S
C633 C637 1.429 . S
C634 C617 1.574 . S
C634 H628 0.949 . S
C634 C638 1.368 . S
C635 C616 1.429 . S
C635 C629 1.429 . S
C635 C636 1.523 . S
C636 C617 1.368 . S
C636 C630 1.368 . S
C636 C635 1.523 . S
C637 C621 1.429 . S
C637 C633 1.429 . S
C637 C638 1.523 . S
C638 C622 1.368 . S
C638 C634 1.368 . S
C638 C637 1.523 . S
H639 C614 0.950 . S
H640 C616 0.950 . S
H641 C617 0.949 . S
H642 C619 0.950 . S
H643 C621 0.950 . S
C644 C645 1.349 . S
C644 C646 1.327 . S
C644 H669 0.950 . S
C645 C644 1.349 . S
C645 C661 1.349 . S
C646 C644 1.327 . S
C646 C665 1.429 . S
C646 H670 0.950 . S
C647 C664 1.574 . S
C647 C666 1.368 . S
C647 H671 0.949 . S
H648 C652 0.949 . S
C649 C650 1.349 . S
C649 C651 1.327 . S
C649 H672 0.950 . S
C650 C649 1.349 . S
C650 C662 1.349 . S
C651 C649 1.327 . S
C651 C667 1.429 . S
C651 H673 0.950 . S
C652 H648 0.949 . S
C652 C660 1.574 . S
C652 C668 1.368 . S
H653 C661 0.950 . S
H654 C659 0.950 . S
H655 C660 0.949 . S
H656 C662 0.950 . S
H657 C663 0.950 . S
H658 C664 0.949 . S
C659 H654 0.950 . S
C659 C661 1.327 . S
C659 C665 1.429 . S
C660 C652 1.574 . S
C660 H655 0.949 . S
C660 C666 1.368 . S
C661 C645 1.349 . S
C661 H653 0.950 . S
C661 C659 1.327 . S
C662 C650 1.349 . S
C662 H656 0.950 . S
C662 C663 1.327 . S
C663 H657 0.950 . S
C663 C662 1.327 . S
C663 C667 1.429 . S
C664 C647 1.574 . S
C664 H658 0.949 . S
C664 C668 1.368 . S
C665 C646 1.429 . S
C665 C659 1.429 . S
C665 C666 1.523 . S
C666 C647 1.368 . S
C666 C660 1.368 . S
C666 C665 1.523 . S
C667 C651 1.429 . S
C667 C663 1.429 . S
C667 C668 1.523 . S
C668 C652 1.368 . S
C668 C664 1.368 . S
C668 C667 1.523 . S
H669 C644 0.950 . S
H670 C646 0.950 . S
H671 C647 0.949 . S
H672 C649 0.950 . S
H673 C651 0.950 . S
C674 C675 1.349 . S
C674 C676 1.327 . S
C674 H699 0.950 . S
C675 C674 1.349 . S
C675 C691 1.331 1_455 S
C676 C674 1.327 . S
C676 C695 1.429 . S
C676 H700 0.950 . S
C677 C694 1.574 . S
C677 C696 1.368 1_655 S
C677 H701 0.949 . S
H678 C682 0.949 . S
C679 C680 1.324 1_655 S
C679 C681 1.327 . S
C679 H702 0.950 . S
C680 C679 1.324 1_455 S
C680 C692 1.377 . S
C681 C679 1.327 . S
C681 C697 1.429 1_655 S
C681 H703 0.950 . S
C682 H678 0.949 . S
C682 C690 1.574 . S
C682 C698 1.368 . S
H683 C691 0.966 . S
H684 C689 0.950 . S
H685 C690 0.949 . S
H686 C692 0.950 . S
H687 C693 0.950 . S
H688 C694 0.949 . S
C689 H684 0.950 . S
C689 C691 1.330 . S
C689 C695 1.429 1_655 S
C690 C682 1.574 . S
C690 H685 0.949 . S
C690 C696 1.368 . S
C691 C675 1.331 1_655 S
C691 H683 0.966 . S
C691 C689 1.330 . S
C692 C680 1.377 . S
C692 H686 0.950 . S
C692 C693 1.327 . S
C693 H687 0.950 . S
C693 C692 1.327 . S
C693 C697 1.429 . S
C694 C677 1.574 . S
C694 H688 0.949 . S
C694 C698 1.368 1_655 S
C695 C676 1.429 . S
C695 C689 1.429 1_455 S
C695 C696 1.523 . S
C696 C677 1.368 1_455 S
C696 C690 1.368 . S
C696 C695 1.523 . S
C697 C681 1.429 1_455 S
C697 C693 1.429 . S
C697 C698 1.523 . S
C698 C682 1.368 . S
C698 C694 1.368 1_455 S
C698 C697 1.523 . S
H699 C674 0.950 . S
H700 C676 0.950 . S
H701 C677 0.949 . S
H702 C679 0.950 . S
H703 C681 0.950 . S
C704 C705 1.317 1_565 S
C704 C706 1.327 . S
C704 H729 0.950 . S
C705 C704 1.317 1_545 S
C705 C721 1.384 . S
C706 C704 1.327 . S
C706 C725 1.429 1_565 S
C706 H730 0.950 . S
C707 C724 1.574 . S
C707 C726 1.368 . S
C707 H731 0.949 . S
H708 C712 0.949 . S
C709 C710 1.349 . S
C709 C711 1.327 . S
C709 H732 0.950 . S
C710 C709 1.349 . S
C710 C722 1.349 1_545 S
C711 C709 1.327 . S
C711 C727 1.429 . S
C711 H733 0.950 . S
C712 H708 0.949 . S
C712 C720 1.574 . S
C712 C728 1.368 1_565 S
H713 C721 0.950 . S
H714 C719 0.950 . S
H715 C720 0.949 . S
H716 C722 0.950 1_556 S
H717 C723 0.950 . S
H718 C724 0.949 . S
C719 H714 0.950 . S
C719 C721 1.327 . S
C719 C725 1.429 . S
C720 C712 1.574 . S
C720 H715 0.949 . S
C720 C726 1.368 1_565 S
C721 C705 1.384 . S
C721 H713 0.950 . S
C721 C719 1.327 . S
C722 C710 1.349 1_565 S
C722 H716 0.950 1_554 S
C722 C723 1.327 . S
C723 H717 0.950 . S
C723 C722 1.327 . S
C723 C727 1.429 1_565 S
C724 C707 1.574 . S
C724 H718 0.949 . S
C724 C728 1.368 . S
C725 C706 1.429 1_545 S
C725 C719 1.429 . S
C725 C726 1.523 . S
C726 C707 1.368 . S
C726 C720 1.368 1_545 S
C726 C725 1.523 . S
C727 C711 1.429 . S
C727 C723 1.429 1_545 S
C727 C728 1.523 . S
C728 C712 1.368 1_545 S
C728 C724 1.368 . S
C728 C727 1.523 . S
H729 C704 0.950 . S
H730 C706 0.950 . S
H731 C707 0.949 . S
H732 C709 0.950 . S
H733 C711 0.950 . S
C734 C735 1.349 . S
C734 C736 1.327 . S
C734 H759 0.950 . S
C735 C734 1.349 . S
C735 C751 1.349 . S
C736 C734 1.327 . S
C736 C755 1.429 . S
C736 H760 0.950 . S
C737 C754 1.574 . S
C737 C756 1.368 . S
C737 H761 0.949 . S
H738 C742 0.949 . S
C739 C740 1.349 . S
C739 C741 1.327 . S
C739 H762 0.950 . S
C740 C739 1.349 . S
C740 C752 1.349 . S
C741 C739 1.327 . S
C741 C757 1.429 . S
C741 H763 0.950 . S
C742 H738 0.949 . S
C742 C750 1.574 . S
C742 C758 1.368 . S
H743 C751 0.950 . S
H744 C749 0.950 . S
H745 C750 0.949 . S
H746 C752 0.950 1_556 S
H747 C753 0.950 . S
H748 C754 0.949 . S
C749 H744 0.950 . S
C749 C751 1.327 . S
C749 C755 1.429 . S
C750 C742 1.574 . S
C750 H745 0.949 . S
C750 C756 1.368 . S
C751 C735 1.349 . S
C751 H743 0.950 . S
C751 C749 1.327 . S
C752 C740 1.349 . S
C752 H746 0.950 1_554 S
C752 C753 1.327 . S
C753 H747 0.950 . S
C753 C752 1.327 . S
C753 C757 1.429 . S
C754 C737 1.574 . S
C754 H748 0.949 . S
C754 C758 1.368 . S
C755 C736 1.429 . S
C755 C749 1.429 . S
C755 C756 1.523 . S
C756 C737 1.368 . S
C756 C750 1.368 . S
C756 C755 1.523 . S
C757 C741 1.429 . S
C757 C753 1.429 . S
C757 C758 1.523 . S
C758 C742 1.368 . S
C758 C754 1.368 . S
C758 C757 1.523 . S
H759 C734 0.950 . S
H760 C736 0.950 . S
H761 C737 0.949 . S
H762 C739 0.950 . S
H763 C741 0.950 . S
C764 C765 1.349 . S
C764 C766 1.327 . S
C764 H789 0.950 . S
C765 C764 1.349 . S
C765 C781 1.349 . S
C766 C764 1.327 . S
C766 C785 1.429 . S
C766 H790 0.950 . S
C767 C784 1.574 . S
C767 C786 1.368 . S
C767 H791 0.949 . S
H768 C772 0.949 . S
C769 C770 1.349 . S
C769 C771 1.327 . S
C769 H792 0.950 1_554 S
C770 C769 1.349 . S
C770 C782 1.349 . S
C771 C769 1.327 . S
C771 C787 1.429 . S
C771 H793 0.950 . S
C772 H768 0.949 . S
C772 C780 1.574 . S
C772 C788 1.368 . S
H773 C781 0.950 . S
H774 C779 0.950 . S
H775 C780 0.949 . S
H776 C782 0.950 . S
H777 C783 0.950 . S
H778 C784 0.949 . S
C779 H774 0.950 . S
C779 C781 1.327 . S
C779 C785 1.429 . S
C780 C772 1.574 . S
C780 H775 0.949 . S
C780 C786 1.368 . S
C781 C765 1.349 . S
C781 H773 0.950 . S
C781 C779 1.327 . S
C782 C770 1.349 . S
C782 H776 0.950 . S
C782 C783 1.327 . S
C783 H777 0.950 . S
C783 C782 1.327 . S
C783 C787 1.429 . S
C784 C767 1.574 . S
C784 H778 0.949 . S
C784 C788 1.368 . S
C785 C766 1.429 . S
C785 C779 1.429 . S
C785 C786 1.523 . S
C786 C767 1.368 . S
C786 C780 1.368 . S
C786 C785 1.523 . S
C787 C771 1.429 . S
C787 C783 1.429 . S
C787 C788 1.523 . S
C788 C772 1.368 . S
C788 C784 1.368 . S
C788 C787 1.523 . S
H789 C764 0.950 . S
H790 C766 0.950 . S
H791 C767 0.949 . S
H792 C769 0.950 1_556 S
H793 C771 0.950 . S
C794 C795 1.349 . S
C794 C796 1.327 . S
C794 H819 0.950 1_554 S
C795 C794 1.349 . S
C795 C811 1.349 . S
C796 C794 1.327 . S
C796 C815 1.429 . S
C796 H820 0.950 . S
C797 C814 1.574 . S
C797 C816 1.368 . S
C797 H821 0.949 . S
H798 C802 0.949 . S
C799 C800 1.345 1_655 S
C799 C801 1.328 . S
C799 H822 0.950 . S
C800 C799 1.345 1_455 S
C800 C812 1.355 . S
C801 C799 1.328 . S
C801 C817 1.426 1_655 S
C801 H823 0.951 . S
C802 H798 0.949 . S
C802 C810 1.574 . S
C802 C818 1.368 . S
H803 C811 0.950 . S
H804 C809 0.950 . S
H805 C810 0.949 . S
H806 C812 0.950 . S
H807 C813 0.950 . S
H808 C814 0.949 . S
C809 H804 0.950 . S
C809 C811 1.327 . S
C809 C815 1.429 . S
C810 C802 1.574 . S
C810 H805 0.949 . S
C810 C816 1.368 . S
C811 C795 1.349 . S
C811 H803 0.950 . S
C811 C809 1.327 . S
C812 C800 1.355 . S
C812 H806 0.950 . S
C812 C813 1.327 . S
C813 H807 0.950 . S
C813 C812 1.327 . S
C813 C817 1.429 . S
C814 C797 1.574 . S
C814 H808 0.949 . S
C814 C818 1.368 . S
C815 C796 1.429 . S
C815 C809 1.429 . S
C815 C816 1.523 . S
C816 C797 1.368 . S
C816 C810 1.368 . S
C816 C815 1.523 . S
C817 C801 1.426 1_455 S
C817 C813 1.429 . S
C817 C818 1.523 . S
C818 C802 1.368 . S
C818 C814 1.368 . S
C818 C817 1.523 . S
H819 C794 0.950 1_556 S
H820 C796 0.950 . S
H821 C797 0.949 . S
H822 C799 0.950 . S
H823 C801 0.951 . S
C824 C825 1.351 . S
C824 C826 1.327 . S
C824 H849 0.950 . S
C825 C824 1.351 . S
C825 C841 1.349 . S
C826 C824 1.327 . S
C826 C845 1.429 . S
C826 H850 0.950 . S
C827 C844 1.574 . S
C827 C846 1.368 . S
C827 H851 0.949 . S
H828 C832 0.949 . S
C829 C830 1.349 . S
C829 C831 1.327 . S
C829 H852 0.950 . S
C830 C829 1.349 . S
C830 C842 1.349 . S
C831 C829 1.327 . S
C831 C847 1.429 . S
C831 H853 0.950 . S
C832 H828 0.949 . S
C832 C840 1.574 . S
C832 C848 1.368 . S
H833 C841 0.948 1_545 S
H834 C839 0.950 . S
H835 C840 0.949 . S
H836 C842 0.950 . S
H837 C843 0.950 . S
H838 C844 0.949 . S
C839 H834 0.950 . S
C839 C841 1.329 . S
C839 C845 1.429 . S
C840 C832 1.574 . S
C840 H835 0.949 . S
C840 C846 1.368 . S
C841 C825 1.349 . S
C841 H833 0.948 1_565 S
C841 C839 1.329 . S
C842 C830 1.349 . S
C842 H836 0.950 . S
C842 C843 1.327 . S
C843 H837 0.950 . S
C843 C842 1.327 . S
C843 C847 1.429 . S
C844 C827 1.574 . S
C844 H838 0.949 . S
C844 C848 1.368 . S
C845 C826 1.429 . S
C845 C839 1.429 . S
C845 C846 1.523 . S
C846 C827 1.368 . S
C846 C840 1.368 . S
C846 C845 1.523 . S
C847 C831 1.429 . S
C847 C843 1.429 . S
C847 C848 1.523 . S
C848 C832 1.368 . S
C848 C844 1.368 . S
C848 C847 1.523 . S
H849 C824 0.950 . S
H850 C826 0.950 . S
H851 C827 0.949 . S
H852 C829 0.950 . S
H853 C831 0.950 . S
C854 C855 1.349 . S
C854 C856 1.327 . S
C854 H879 0.950 . S
C855 C854 1.349 . S
C855 C871 1.349 . S
C856 C854 1.327 . S
C856 C875 1.429 . S
C856 H880 0.950 . S
C857 C874 1.574 . S
C857 C876 1.368 . S
C857 H881 0.949 . S
H858 C862 0.949 . S
C859 C860 1.349 . S
C859 C861 1.327 . S
C859 H882 0.950 . S
C860 C859 1.349 . S
C860 C872 1.349 . S
C861 C859 1.327 . S
C861 C877 1.429 . S
C861 H883 0.950 . S
C862 H858 0.949 . S
C862 C870 1.574 . S
C862 C878 1.368 . S
H863 C871 0.950 . S
H864 C869 0.950 . S
H865 C870 0.949 . S
H866 C872 0.950 . S
H867 C873 0.950 . S
H868 C874 0.949 . S
C869 H864 0.950 . S
C869 C871 1.327 . S
C869 C875 1.429 . S
C870 C862 1.574 . S
C870 H865 0.949 . S
C870 C876 1.368 . S
C871 C855 1.349 . S
C871 H863 0.950 . S
C871 C869 1.327 . S
C872 C860 1.349 . S
C872 H866 0.950 . S
C872 C873 1.327 . S
C873 H867 0.950 . S
C873 C872 1.327 . S
C873 C877 1.429 . S
C874 C857 1.574 . S
C874 H868 0.949 . S
C874 C878 1.368 . S
C875 C856 1.429 . S
C875 C869 1.429 . S
C875 C876 1.523 . S
C876 C857 1.368 . S
C876 C870 1.368 . S
C876 C875 1.523 . S
C877 C861 1.429 . S
C877 C873 1.429 . S
C877 C878 1.523 . S
C878 C862 1.368 . S
C878 C874 1.368 . S
C878 C877 1.523 . S
H879 C854 0.950 . S
H880 C856 0.950 . S
H881 C857 0.949 . S
H882 C859 0.950 . S
H883 C861 0.950 . S
C884 C885 1.349 . S
C884 C886 1.327 . S
C884 H909 0.950 . S
C885 C884 1.349 . S
C885 C901 1.349 . S
C886 C884 1.327 . S
C886 C905 1.429 . S
C886 H910 0.950 . S
C887 C904 1.574 . S
C887 C906 1.368 . S
C887 H911 0.949 . S
H888 C892 0.949 . S
C889 C890 1.349 . S
C889 C891 1.327 . S
C889 H912 0.950 . S
C890 C889 1.349 . S
C890 C902 1.349 . S
C891 C889 1.327 . S
C891 C907 1.429 . S
C891 H913 0.950 . S
C892 H888 0.949 . S
C892 C900 1.574 . S
C892 C908 1.368 . S
H893 C901 0.950 . S
H894 C899 0.950 . S
H895 C900 0.949 . S
H896 C902 0.950 . S
H897 C903 0.950 . S
H898 C904 0.949 . S
C899 H894 0.950 . S
C899 C901 1.327 . S
C899 C905 1.429 . S
C900 C892 1.574 . S
C900 H895 0.949 . S
C900 C906 1.368 . S
C901 C885 1.349 . S
C901 H893 0.950 . S
C901 C899 1.327 . S
C902 C890 1.349 . S
C902 H896 0.950 . S
C902 C903 1.327 . S
C903 H897 0.950 . S
C903 C902 1.327 . S
C903 C907 1.429 . S
C904 C887 1.574 . S
C904 H898 0.949 . S
C904 C908 1.368 . S
C905 C886 1.429 . S
C905 C899 1.429 . S
C905 C906 1.523 . S
C906 C887 1.368 . S
C906 C900 1.368 . S
C906 C905 1.523 . S
C907 C891 1.429 . S
C907 C903 1.429 . S
C907 C908 1.523 . S
C908 C892 1.368 . S
C908 C904 1.368 . S
C908 C907 1.523 . S
H909 C884 0.950 . S
H910 C886 0.950 . S
H911 C887 0.949 . S
H912 C889 0.950 . S
H913 C891 0.950 . S
C914 C915 1.370 . S
C914 C916 1.327 . S
C914 H939 0.950 . S
C915 C914 1.370 . S
C915 C931 1.332 1_655 S
C916 C914 1.327 . S
C916 C935 1.429 . S
C916 H940 0.950 . S
C917 C934 1.574 . S
C917 C936 1.368 1_455 S
C917 H941 0.949 . S
H918 C922 0.949 . S
C919 C920 1.349 . S
C919 C921 1.332 . S
C919 H942 0.950 1_655 S
C920 C919 1.349 . S
C920 C932 1.349 . S
C921 C919 1.332 . S
C921 C937 1.451 . S
C921 H943 0.925 1_655 S
C922 H918 0.949 . S
C922 C930 1.574 . S
C922 C938 1.368 . S
H923 C931 0.950 . S
H924 C929 0.950 . S
H925 C930 0.949 . S
H926 C932 0.950 . S
H927 C933 0.950 . S
H928 C934 0.949 . S
C929 H924 0.950 . S
C929 C931 1.327 . S
C929 C935 1.429 1_455 S
C930 C922 1.574 . S
C930 H925 0.949 . S
C930 C936 1.368 . S
C931 C915 1.332 1_455 S
C931 H923 0.950 . S
C931 C929 1.327 . S
C932 C920 1.349 . S
C932 H926 0.950 . S
C932 C933 1.327 . S
C933 H927 0.950 . S
C933 C932 1.327 . S
C933 C937 1.429 . S
C934 C917 1.574 . S
C934 H928 0.949 . S
C934 C938 1.368 1_455 S
C935 C916 1.429 . S
C935 C929 1.429 1_655 S
C935 C936 1.523 . S
C936 C917 1.368 1_655 S
C936 C930 1.368 . S
C936 C935 1.523 . S
C937 C921 1.451 . S
C937 C933 1.429 . S
C937 C938 1.523 . S
C938 C922 1.368 . S
C938 C934 1.368 1_655 S
C938 C937 1.523 . S
H939 C914 0.950 . S
H940 C916 0.950 . S
H941 C917 0.949 . S
H942 C919 0.950 1_455 S
H943 C921 0.925 1_455 S
C944 C945 1.379 . S
C944 C946 1.327 1_556 S
C944 H969 0.950 1_556 S
C945 C944 1.379 . S
C945 C961 1.320 1_545 S
C946 C944 1.327 1_554 S
C946 C965 1.439 1_554 S
C946 H970 0.950 . S
C947 C964 1.574 . S
C947 C966 1.368 1_565 S
C947 H971 0.949 . S
H948 C952 0.949 . S
C949 C950 1.389 . S
C949 C951 1.327 1_554 S
C949 H972 0.950 1_554 S
C950 C949 1.389 . S
C950 C962 1.311 1_565 S
C951 C949 1.327 1_556 S
C951 C967 1.448 1_556 S
C951 H973 0.950 . S
C952 H948 0.949 . S
C952 C960 1.574 . S
C952 C968 1.359 1_545 S
H953 C961 0.950 . S
H954 C959 0.950 . S
H955 C960 0.949 . S
H956 C962 0.950 . S
H957 C963 0.950 . S
H958 C964 0.949 . S
C959 H954 0.950 . S
C959 C961 1.327 . S
C959 C965 1.418 1_565 S
C960 C952 1.574 . S
C960 H955 0.949 . S
C960 C966 1.368 1_554 S
C961 C945 1.320 1_565 S
C961 H953 0.950 . S
C961 C959 1.327 . S
C962 C950 1.311 1_545 S
C962 H956 0.950 . S
C962 C963 1.327 . S
C963 H957 0.950 . S
C963 C962 1.327 . S
C963 C967 1.409 1_545 S
C964 C947 1.574 . S
C964 H958 0.949 . S
C964 C968 1.378 1_556 S
C965 C946 1.439 1_556 S
C965 C959 1.418 1_545 S
C965 C966 1.523 . S
C966 C947 1.368 1_545 S
C966 C960 1.368 1_556 S
C966 C965 1.523 . S
C967 C951 1.448 1_554 S
C967 C963 1.409 1_565 S
C967 C968 1.523 . S
C968 C952 1.359 1_565 S
C968 C964 1.378 1_554 S
C968 C967 1.523 . S
H969 C944 0.950 1_554 S
H970 C946 0.950 . S
H971 C947 0.949 . S
H972 C949 0.950 1_556 S
H973 C951 0.950 . S
C974 C975 1.349 1_554 S
C974 C976 1.327 . S
C974 H999 0.950 . S
C975 C974 1.349 1_556 S
C975 C991 1.349 . S
C976 C974 1.327 . S
C976 C995 1.429 1_554 S
C976 H1000 0.950 . S
C977 C994 1.574 . S
C977 C996 1.368 . S
C977 H1001 0.949 . S
H978 C982 0.949 . S
C979 C980 1.349 1_556 S
C979 C981 1.327 . S
C979 H1002 0.950 . S
C980 C979 1.349 1_554 S
C980 C992 1.349 . S
C981 C979 1.327 . S
C981 C997 1.429 1_556 S
C981 H1003 0.950 . S
C982 H978 0.949 . S
C982 C990 1.574 . S
C982 C998 1.368 . S
H983 C991 0.950 . S
H984 C989 0.950 . S
H985 C990 0.949 . S
H986 C992 0.950 . S
H987 C993 0.950 . S
H988 C994 0.949 . S
C989 H984 0.950 . S
C989 C991 1.327 . S
C989 C995 1.429 . S
C990 C982 1.574 . S
C990 H985 0.949 . S
C990 C996 1.368 1_554 S
C991 C975 1.349 . S
C991 H983 0.950 . S
C991 C989 1.327 . S
C992 C980 1.349 . S
C992 H986 0.950 . S
C992 C993 1.327 . S
C993 H987 0.950 . S
C993 C992 1.327 . S
C993 C997 1.429 . S
C994 C977 1.574 . S
C994 H988 0.949 . S
C994 C998 1.368 1_556 S
C995 C976 1.429 1_556 S
C995 C989 1.429 . S
C995 C996 1.523 . S
C996 C977 1.368 . S
C996 C990 1.368 1_556 S
C996 C995 1.523 . S
C997 C981 1.429 1_554 S
C997 C993 1.429 . S
C997 C998 1.523 . S
C998 C982 1.368 . S
C998 C994 1.368 1_554 S
C998 C997 1.523 . S
H999 C974 0.950 . S
H1000 C976 0.950 . S
H1001 C977 0.949 . S
H1002 C979 0.950 . S
H1003 C981 0.950 . S
C1004 C1005 1.349 . S
C1004 C1006 1.327 . S
C1004 H1029 0.950 . S
C1005 C1004 1.349 . S
C1005 C1021 1.349 1_554 S
C1006 C1004 1.327 . S
C1006 C1025 1.429 . S
C1006 H1030 0.950 . S
C1007 C1024 1.574 1_655 S
C1007 C1026 1.368 1_556 S
C1007 H1031 0.949 . S
H1008 C1012 0.949 . S
C1009 C1010 1.349 . S
C1009 C1011 1.327 . S
C1009 H1032 0.950 . S
C1010 C1009 1.349 . S
C1010 C1022 1.349 1_556 S
C1011 C1009 1.327 . S
C1011 C1027 1.429 . S
C1011 H1033 0.950 . S
C1012 H1008 0.949 . S
C1012 C1020 1.574 1_455 S
C1012 C1028 1.368 1_554 S
H1013 C1021 0.950 . S
H1014 C1019 0.950 . S
H1015 C1020 0.949 . S
H1016 C1022 0.950 . S
H1017 C1023 0.950 . S
H1018 C1024 0.949 . S
C1019 H1014 0.950 . S
C1019 C1021 1.327 . S
C1019 C1025 1.429 1_556 S
C1020 C1012 1.574 1_655 S
C1020 H1015 0.949 . S
C1020 C1026 1.368 . S
C1021 C1005 1.349 1_556 S
C1021 H1013 0.950 . S
C1021 C1019 1.327 . S
C1022 C1010 1.349 1_554 S
C1022 H1016 0.950 . S
C1022 C1023 1.327 . S
C1023 H1017 0.950 . S
C1023 C1022 1.327 . S
C1023 C1027 1.429 1_554 S
C1024 C1007 1.574 1_455 S
C1024 H1018 0.949 . S
C1024 C1028 1.368 . S
C1025 C1006 1.429 . S
C1025 C1019 1.429 1_554 S
C1025 C1026 1.523 . S
C1026 C1007 1.368 1_554 S
C1026 C1020 1.368 . S
C1026 C1025 1.523 . S
C1027 C1011 1.429 . S
C1027 C1023 1.429 1_556 S
C1027 C1028 1.523 . S
C1028 C1012 1.368 1_556 S
C1028 C1024 1.368 . S
C1028 C1027 1.523 . S
H1029 C1004 0.950 . S
H1030 C1006 0.950 . S
H1031 C1007 0.949 . S
H1032 C1009 0.950 . S
H1033 C1011 0.950 . S
C1034 C1035 1.341 1_654 S
C1034 C1036 1.327 . S
C1034 H1059 0.950 . S
C1035 C1034 1.341 1_456 S
C1035 C1051 1.356 . S
C1036 C1034 1.327 . S
C1036 C1055 1.428 1_654 S
C1036 H1060 0.950 . S
C1037 C1054 1.574 1_545 S
C1037 C1056 1.366 . S
C1037 H1061 0.949 . S
H1038 C1042 0.949 . S
C1039 C1040 1.336 1_456 S
C1039 C1041 1.327 . S
C1039 H1062 0.950 . S
C1040 C1039 1.336 1_654 S
C1040 C1052 1.362 . S
C1041 C1039 1.327 . S
C1041 C1057 1.422 1_456 S
C1041 H1063 0.950 . S
C1042 H1038 0.949 . S
C1042 C1050 1.574 1_565 S
C1042 C1058 1.372 . S
H1043 C1051 0.950 . S
H1044 C1049 0.950 . S
H1045 C1050 0.949 . S
H1046 C1052 0.950 . S
H1047 C1053 0.950 . S
H1048 C1054 0.949 . S
C1049 H1044 0.950 . S
C1049 C1051 1.327 . S
C1049 C1055 1.430 . S
C1050 C1042 1.574 1_545 S
C1050 H1045 0.949 . S
C1050 C1056 1.371 1_654 S
C1051 C1035 1.356 . S
C1051 H1043 0.950 . S
C1051 C1049 1.327 . S
C1052 C1040 1.362 . S
C1052 H1046 0.950 . S
C1052 C1053 1.327 . S
C1053 H1047 0.950 . S
C1053 C1052 1.327 . S
C1053 C1057 1.435 . S
C1054 C1037 1.574 1_565 S
C1054 H1048 0.949 . S
C1054 C1058 1.365 1_456 S
C1055 C1036 1.428 1_456 S
C1055 C1049 1.430 . S
C1055 C1056 1.523 . S
C1056 C1037 1.366 . S
C1056 C1050 1.371 1_456 S
C1056 C1055 1.523 . S
C1057 C1041 1.422 1_654 S
C1057 C1053 1.435 . S
C1057 C1058 1.523 . S
C1058 C1042 1.372 . S
C1058 C1054 1.365 1_654 S
C1058 C1057 1.523 . S
H1059 C1034 0.950 . S
H1060 C1036 0.950 . S
H1061 C1037 0.949 . S
H1062 C1039 0.950 . S
H1063 C1041 0.950 . S
C1064 C1065 1.362 . S
C1064 C1066 1.327 . S
C1064 H1089 0.950 . S
C1065 C1064 1.362 . S
C1065 C1081 1.336 1_545 S
C1066 C1064 1.327 . S
C1066 C1085 1.430 . S
C1066 H1090 0.950 . S
C1067 C1084 1.574 1_455 S
C1067 C1086 1.373 1_565 S
C1067 H1091 0.949 . S
H1068 C1072 0.949 . S
C1069 C1070 1.371 . S
C1069 C1071 1.327 . S
C1069 H1092 0.950 . S
C1070 C1069 1.371 . S
C1070 C1082 1.326 1_565 S
C1071 C1069 1.327 . S
C1071 C1087 1.440 . S
C1071 H1093 0.950 . S
C1072 H1068 0.949 . S
C1072 C1080 1.574 1_655 S
C1072 C1088 1.363 1_545 S
H1073 C1081 0.950 . S
H1074 C1079 0.950 . S
H1075 C1080 0.949 . S
H1076 C1082 0.950 . S
H1077 C1083 0.950 . S
H1078 C1084 0.949 . S
C1079 H1074 0.950 . S
C1079 C1081 1.327 . S
C1079 C1085 1.427 1_565 S
C1080 C1072 1.574 1_455 S
C1080 H1075 0.949 . S
C1080 C1086 1.364 . S
C1081 C1065 1.336 1_565 S
C1081 H1073 0.950 . S
C1081 C1079 1.327 . S
C1082 C1070 1.326 1_545 S
C1082 H1076 0.950 . S
C1082 C1083 1.327 . S
C1083 H1077 0.950 . S
C1083 C1082 1.327 . S
C1083 C1087 1.418 1_545 S
C1084 C1067 1.574 1_655 S
C1084 H1078 0.949 . S
C1084 C1088 1.374 . S
C1085 C1066 1.430 . S
C1085 C1079 1.427 1_545 S
C1085 C1086 1.523 . S
C1086 C1067 1.373 1_545 S
C1086 C1080 1.364 . S
C1086 C1085 1.523 . S
C1087 C1071 1.440 . S
C1087 C1083 1.418 1_565 S
C1087 C1088 1.523 . S
C1088 C1072 1.363 1_565 S
C1088 C1084 1.374 . S
C1088 C1087 1.523 . S
H1089 C1064 0.950 . S
H1090 C1066 0.950 . S
H1091 C1067 0.949 . S
H1092 C1069 0.950 . S
H1093 C1071 0.950 . S
C1094 C1095 1.349 . S
C1094 C1096 1.327 . S
C1094 H1119 0.950 . S
C1095 C1094 1.349 . S
C1095 C1111 1.349 . S
C1096 C1094 1.327 . S
C1096 C1115 1.429 . S
C1096 H1120 0.950 . S
C1097 C1114 1.574 1_565 S
C1097 C1116 1.368 . S
C1097 H1121 0.949 . S
H1098 C1102 0.949 . S
C1099 C1100 1.349 . S
C1099 C1101 1.327 . S
C1099 H1122 0.950 . S
C1100 C1099 1.349 . S
C1100 C1112 1.349 . S
C1101 C1099 1.327 . S
C1101 C1117 1.429 . S
C1101 H1123 0.950 . S
C1102 H1098 0.949 . S
C1102 C1110 1.574 1_545 S
C1102 C1118 1.368 . S
H1103 C1111 0.950 . S
H1104 C1109 0.950 . S
H1105 C1110 0.949 . S
H1106 C1112 0.950 . S
H1107 C1113 0.950 . S
H1108 C1114 0.949 . S
C1109 H1104 0.950 . S
C1109 C1111 1.327 . S
C1109 C1115 1.429 . S
C1110 C1102 1.574 1_565 S
C1110 H1105 0.949 . S
C1110 C1116 1.368 . S
C1111 C1095 1.349 . S
C1111 H1103 0.950 . S
C1111 C1109 1.327 . S
C1112 C1100 1.349 . S
C1112 H1106 0.950 . S
C1112 C1113 1.327 . S
C1113 H1107 0.950 . S
C1113 C1112 1.327 . S
C1113 C1117 1.429 . S
C1114 C1097 1.574 1_545 S
C1114 H1108 0.949 . S
C1114 C1118 1.368 . S
C1115 C1096 1.429 . S
C1115 C1109 1.429 . S
C1115 C1116 1.523 . S
C1116 C1097 1.368 . S
C1116 C1110 1.368 . S
C1116 C1115 1.523 . S
C1117 C1101 1.429 . S
C1117 C1113 1.429 . S
C1117 C1118 1.523 . S
C1118 C1102 1.368 . S
C1118 C1114 1.368 . S
C1118 C1117 1.523 . S
H1119 C1094 0.950 . S
H1120 C1096 0.950 . S
H1121 C1097 0.949 . S
H1122 C1099 0.950 . S
H1123 C1101 0.950 . S
C1124 C1125 1.349 . S
C1124 C1126 1.327 . S
C1124 H1149 0.950 . S
C1125 C1124 1.349 . S
C1125 C1141 1.349 . S
C1126 C1124 1.327 . S
C1126 C1145 1.429 . S
C1126 H1150 0.950 . S
C1127 C1144 1.574 . S
C1127 C1146 1.368 . S
C1127 H1151 0.949 . S
H1128 C1132 0.949 . S
C1129 C1130 1.349 . S
C1129 C1131 1.327 . S
C1129 H1152 0.950 . S
C1130 C1129 1.349 . S
C1130 C1142 1.349 . S
C1131 C1129 1.327 . S
C1131 C1147 1.429 . S
C1131 H1153 0.950 . S
C1132 H1128 0.949 . S
C1132 C1140 1.574 . S
C1132 C1148 1.368 . S
H1133 C1141 0.950 . S
H1134 C1139 0.950 . S
H1135 C1140 0.949 . S
H1136 C1142 0.950 . S
H1137 C1143 0.950 . S
H1138 C1144 0.949 . S
C1139 H1134 0.950 . S
C1139 C1141 1.327 . S
C1139 C1145 1.429 . S
C1140 C1132 1.574 . S
C1140 H1135 0.949 . S
C1140 C1146 1.368 . S
C1141 C1125 1.349 . S
C1141 H1133 0.950 . S
C1141 C1139 1.327 . S
C1142 C1130 1.349 . S
C1142 H1136 0.950 . S
C1142 C1143 1.327 . S
C1143 H1137 0.950 . S
C1143 C1142 1.327 . S
C1143 C1147 1.429 . S
C1144 C1127 1.574 . S
C1144 H1138 0.949 . S
C1144 C1148 1.368 . S
C1145 C1126 1.429 . S
C1145 C1139 1.429 . S
C1145 C1146 1.523 . S
C1146 C1127 1.368 . S
C1146 C1140 1.368 . S
C1146 C1145 1.523 . S
C1147 C1131 1.429 . S
C1147 C1143 1.429 . S
C1147 C1148 1.523 . S
C1148 C1132 1.368 . S
C1148 C1144 1.368 . S
C1148 C1147 1.523 . S
H1149 C1124 0.950 . S
H1150 C1126 0.950 . S
H1151 C1127 0.949 . S
H1152 C1129 0.950 . S
H1153 C1131 0.950 . S
C1154 C1155 1.371 . S
C1154 C1156 1.327 . S
C1154 H1179 0.950 . S
C1155 C1154 1.371 . S
C1155 C1171 1.329 1_655 S
C1156 C1154 1.327 . S
C1156 C1175 1.436 . S
C1156 H1180 0.950 . S
C1157 C1174 1.574 . S
C1157 C1176 1.368 1_455 S
C1157 H1181 0.949 . S
H1158 C1162 0.949 . S
C1159 C1160 1.377 . S
C1159 C1161 1.327 . S
C1159 H1182 0.950 . S
C1160 C1159 1.377 . S
C1160 C1172 1.323 1_455 S
C1161 C1159 1.327 . S
C1161 C1177 1.442 . S
C1161 H1183 0.950 . S
C1162 H1158 0.949 . S
C1162 C1170 1.574 . S
C1162 C1178 1.362 1_655 S
H1163 C1171 0.950 . S
H1164 C1169 0.950 . S
H1165 C1170 0.949 . S
H1166 C1172 0.950 . S
H1167 C1173 0.950 . S
H1168 C1174 0.949 . S
C1169 H1164 0.950 . S
C1169 C1171 1.327 . S
C1169 C1175 1.421 1_455 S
C1170 C1162 1.574 . S
C1170 H1165 0.949 . S
C1170 C1176 1.368 . S
C1171 C1155 1.329 1_455 S
C1171 H1163 0.950 . S
C1171 C1169 1.327 . S
C1172 C1160 1.323 1_655 S
C1172 H1166 0.950 . S
C1172 C1173 1.327 . S
C1173 H1167 0.950 . S
C1173 C1172 1.327 . S
C1173 C1177 1.415 1_655 S
C1174 C1157 1.574 . S
C1174 H1168 0.949 . S
C1174 C1178 1.375 . S
C1175 C1156 1.436 . S
C1175 C1169 1.421 1_655 S
C1175 C1176 1.523 . S
C1176 C1157 1.368 1_655 S
C1176 C1170 1.368 . S
C1176 C1175 1.523 . S
C1177 C1161 1.442 . S
C1177 C1173 1.415 1_455 S
C1177 C1178 1.523 . S
C1178 C1162 1.362 1_455 S
C1178 C1174 1.375 . S
C1178 C1177 1.523 . S
H1179 C1154 0.950 . S
H1180 C1156 0.950 . S
H1181 C1157 0.949 . S
H1182 C1159 0.950 . S
H1183 C1161 0.950 . S
C225 C82 0.553 . S
C230 C0 0.535 . S
C255 C97 0.810 . S
C260 C26 0.810 . S
C285 C40 0.553 . S
C290 C98 0.535 . S
C315 C42 0.289 . S
C320 C56 0.290 . S
C345 C112 0.535 . S
C350 C194 0.547 . S
C375 C196 0.810 . S
C380 C138 0.810 . S
C405 C211 0.536 . S
C410 C141 0.549 . S
C435 C155 0.289 . S
C440 C180 0.282 . S
C465 C1 1.952 1_556 S
C470 C168 1.951 1_565 S
C495 C182 2.148 . S
C500 C27 2.136 1_556 S
C525 C41 2.277 1_556 S
C530 C208 2.307 . S
C555 C43 2.059 1_556 S
C560 C223 2.068 1_655 S
C585 C57 2.059 . S
C590 C124 2.069 1_545 S
C615 C83 2.277 . S
C620 C126 2.307 . S
C645 C96 2.133 . S
C650 C153 2.147 . S
C675 C99 1.952 . S
C680 C167 1.951 1_455 S
C705 C68 1.951 1_545 S
C710 C113 1.950 1_554 S
C735 C70 2.147 . S
C740 C139 2.133 1_554 S
C765 C85 2.307 . S
C770 C140 2.277 1_554 S
C795 C154 2.059 1_554 S
C800 C110 2.068 1_455 S
C825 C12 2.068 1_565 S
C830 C181 2.056 . S
C855 C195 2.274 . S
C860 C14 2.307 . S
C885 C197 2.133 . S
C890 C28 2.147 . S
C915 C54 1.951 1_655 S
C920 C210 1.952 . S
C945 C125 1.366 . S
C950 C13 1.366 . S
C975 C127 1.470 . S
C980 C15 1.470 . S
C1005 C29 1.857 . S
C1010 C152 1.857 . S
C1035 C166 1.690 . S
C1040 C55 1.690 . S
C1065 C69 1.690 . S
C1070 C169 1.689 . S
C1095 C183 1.858 . S
C1100 C71 1.857 . S
C1125 C209 1.470 . S
C1130 C84 1.470 . S
C1155 C222 1.366 . S
C1160 C111 1.366 . S
