# Generated by pormake.
# Topology vcu, (8)-cn, num edge types: 1
# Building blocks:
#     Node 0, Type 0, BuildingBlock: TAGTUT_clean_sbu_3, # of connection points: 8
#     Node 1, Type 0, BuildingBlock: TAGTUT_clean_sbu_3, # of connection points: 8
#     Node 2, Type 0, BuildingBlock: TAGTUT_clean_sbu_3, # of connection points: 8
#     Node 3, Type 0, BuildingBlock: TAGTUT_clean_sbu_3, # of connection points: 8
#     Node 4, Type 0, BuildingBlock: TAGTUT_clean_sbu_3, # of connection points: 8
#     Node 5, Type 0, BuildingBlock: TAGTUT_clean_sbu_3, # of connection points: 8
#     Node 6, Type 0, BuildingBlock: TAGTUT_clean_sbu_3, # of connection points: 8
#     Node 7, Type 0, BuildingBlock: TAGTUT_clean_sbu_3, # of connection points: 8
#     Edge 8, Type (0, 0), BuildingBlock: OJICUG_clean_linker_0, # of connection points: 2
#     Edge 9, Type (0, 0), BuildingBlock: OJICUG_clean_linker_0, # of connection points: 2
#     Edge 10, Type (0, 0), BuildingBlock: OJICUG_clean_linker_0, # of connection points: 2
#     Edge 11, Type (0, 0), BuildingBlock: OJICUG_clean_linker_0, # of connection points: 2
#     Edge 12, Type (0, 0), BuildingBlock: OJICUG_clean_linker_0, # of connection points: 2
#     Edge 13, Type (0, 0), BuildingBlock: OJICUG_clean_linker_0, # of connection points: 2
#     Edge 14, Type (0, 0), BuildingBlock: OJICUG_clean_linker_0, # of connection points: 2
#     Edge 15, Type (0, 0), BuildingBlock: OJICUG_clean_linker_0, # of connection points: 2
#     Edge 16, Type (0, 0), BuildingBlock: OJICUG_clean_linker_0, # of connection points: 2
#     Edge 17, Type (0, 0), BuildingBlock: OJICUG_clean_linker_0, # of connection points: 2
#     Edge 18, Type (0, 0), BuildingBlock: OJICUG_clean_linker_0, # of connection points: 2
#     Edge 19, Type (0, 0), BuildingBlock: OJICUG_clean_linker_0, # of connection points: 2
#     Edge 20, Type (0, 0), BuildingBlock: OJICUG_clean_linker_0, # of connection points: 2
#     Edge 21, Type (0, 0), BuildingBlock: OJICUG_clean_linker_0, # of connection points: 2
#     Edge 22, Type (0, 0), BuildingBlock: OJICUG_clean_linker_0, # of connection points: 2
#     Edge 23, Type (0, 0), BuildingBlock: OJICUG_clean_linker_0, # of connection points: 2
#     Edge 24, Type (0, 0), BuildingBlock: OJICUG_clean_linker_0, # of connection points: 2
#     Edge 25, Type (0, 0), BuildingBlock: OJICUG_clean_linker_0, # of connection points: 2
#     Edge 26, Type (0, 0), BuildingBlock: OJICUG_clean_linker_0, # of connection points: 2
#     Edge 27, Type (0, 0), BuildingBlock: OJICUG_clean_linker_0, # of connection points: 2
#     Edge 28, Type (0, 0), BuildingBlock: OJICUG_clean_linker_0, # of connection points: 2
#     Edge 29, Type (0, 0), BuildingBlock: OJICUG_clean_linker_0, # of connection points: 2
#     Edge 30, Type (0, 0), BuildingBlock: OJICUG_clean_linker_0, # of connection points: 2
#     Edge 31, Type (0, 0), BuildingBlock: OJICUG_clean_linker_0, # of connection points: 2
#     Edge 32, Type (0, 0), BuildingBlock: OJICUG_clean_linker_0, # of connection points: 2
#     Edge 33, Type (0, 0), BuildingBlock: OJICUG_clean_linker_0, # of connection points: 2
#     Edge 34, Type (0, 0), BuildingBlock: OJICUG_clean_linker_0, # of connection points: 2
#     Edge 35, Type (0, 0), BuildingBlock: OJICUG_clean_linker_0, # of connection points: 2
#     Edge 36, Type (0, 0), BuildingBlock: OJICUG_clean_linker_0, # of connection points: 2
#     Edge 37, Type (0, 0), BuildingBlock: OJICUG_clean_linker_0, # of connection points: 2
#     Edge 38, Type (0, 0), BuildingBlock: OJICUG_clean_linker_0, # of connection points: 2
#     Edge 39, Type (0, 0), BuildingBlock: OJICUG_clean_linker_0, # of connection points: 2
# Relax obj value: 0.226
# Max RMSD: 0.292
# Mean RMSD: 0.290
data_MOF--net-vcu--node1-TAGTUT_clean_sbu_3--edge1-OJICUG_clean_linker_0
_symmetry_space_group_name_H-M    P1
_symmetry_Int_Tables_number       1
_symmetry_cell_setting            triclinic
loop_
_symmetry_equiv_pos_as_xyz
'x, y, z'
_cell_length_a     14.780208
_cell_length_b     25.194944
_cell_length_c     38.460261
_cell_angle_alpha  90.746753
_cell_angle_beta   90.359926
_cell_angle_gamma 89.999481
loop_
_atom_site_label
_atom_site_type_symbol
_atom_site_fract_x
_atom_site_fract_y
_atom_site_fract_z
_atom_type_partial_charge
C0 C 0.45031 0.37474 0.29562 0.0
C1 C 0.70345 0.34666 0.36641 0.0
C2 C 0.53795 0.25262 0.43597 0.0
Mg3 Mg 0.25 0.39436 0.30613 0.0
Mg4 Mg 0.18685 0.45295 0.37731 0.0
O5 O 0.23177 0.39036 0.35812 0.0
Mg6 Mg 0.3594 0.37808 0.37215 0.0
O7 O 0.48836 0.3606 0.37993 0.0
Mg8 Mg 0.5049 0.29111 0.35374 0.0
Mg9 Mg 0.55359 0.36981 0.41992 0.0
C10 C 0.23948 0.38545 0.44257 0.0
O11 O 0.38192 0.46181 0.39752 0.0
O12 O 0.09611 0.39538 0.30329 0.0
O13 O 0.48604 0.43874 0.43804 0.0
O14 O 0.25544 0.48908 0.30383 0.0
O15 O 0.06074 0.44548 0.35036 0.0
O16 O 0.26173 0.51856 0.35857 0.0
O17 O 0.34879 0.29303 0.35439 0.0
O18 O 0.25499 0.29804 0.30926 0.0
C19 C 0.30161 0.27026 0.33098 0.0
C20 C 0.03848 0.41885 0.32298 0.0
O21 O 0.30204 0.36061 0.42568 0.0
O22 O 0.65732 0.30846 0.35286 0.0
O23 O 0.19766 0.42591 0.43031 0.0
O24 O 0.52199 0.24367 0.40381 0.0
O25 O 0.67609 0.37487 0.39218 0.0
O26 O 0.54525 0.2995 0.44827 0.0
O27 O 0.39908 0.39787 0.31722 0.0
O28 O 0.4963 0.33421 0.30358 0.0
C29 C 0.2708 0.52642 0.3262 0.0
C30 C 0.42663 0.47053 0.4259 0.0
C31 C 0.08923 0.00836 0.92531 0.0
C32 C 0.30652 0.91532 0.84601 0.0
C33 C 0.46566 0.06395 0.85005 0.0
Mg34 Mg 0.01369 0.12394 0.92524 0.0
Mg35 Mg 0.00372 0.19385 0.85342 0.0
O36 O 0.07903 0.15892 0.88645 0.0
Mg37 Mg 0.15583 0.09696 0.87033 0.0
O38 O 0.2281 0.03383 0.85752 0.0
Mg39 Mg 0.29559 0.01872 0.90122 0.0
Mg40 Mg 0.29128 0.02787 0.8157 0.0
C41 C 0.1868 0.19353 0.82013 0.0
O42 O 0.07193 0.08031 0.8213 0.0
O43 O 0.9682 0.20914 0.93862 0.0
O44 O 0.17897 0.05184 0.7835 0.0
O45 O 0.8809 0.11207 0.89446 0.0
O46 O 0.96845 0.25756 0.88944 0.0
O47 O 0.88137 0.15068 0.84302 0.0
O48 O 0.25032 0.10541 0.91742 0.0
O49 O 0.14735 0.1327 0.95596 0.0
C50 C 0.22917 0.12084 0.94809 0.0
C51 C 0.95693 0.25304 0.9224 0.0
O52 O 0.23204 0.16086 0.83897 0.0
O53 O 0.31353 0.93424 0.87717 0.0
O54 O 0.1043 0.18388 0.81286 0.0
O55 O 0.42736 0.04799 0.87763 0.0
O56 O 0.30254 0.94471 0.81923 0.0
O57 O 0.42305 0.06505 0.8211 0.0
O58 O 0.0695 0.04533 0.90444 0.0
O59 O 0.16875 0.98932 0.92666 0.0
C60 C 0.84253 0.12224 0.8655 0.0
C61 C 0.09747 0.06562 0.7908 0.0
C62 C 0.79836 0.22243 0.62673 0.0
C63 C 0.54228 0.07501 0.62119 0.0
C64 C 0.76545 0.96296 0.62649 0.0
Mg65 Mg 0.00614 0.20693 0.60807 0.0
Mg66 Mg 0.04309 0.14446 0.53582 0.0
O67 O -0.00048 0.13778 0.5803 0.0
Mg68 Mg 0.87102 0.11717 0.58517 0.0
O69 O 0.74307 0.10088 0.59522 0.0
Mg70 Mg 0.74962 0.09615 0.64736 0.0
Mg71 Mg 0.70157 0.03968 0.57282 0.0
C72 C 0.94675 0.03295 0.52845 0.0
O73 O 0.81851 0.13754 0.53175 0.0
O74 O 0.15837 0.19229 0.60694 0.0
O75 O 0.72679 0.0674 0.52068 0.0
O76 O 0.02455 0.26035 0.56092 0.0
O77 O 0.17734 0.14908 0.55557 0.0
O78 O -0.0002 0.21524 0.51232 0.0
O79 O 0.9024 0.09473 0.64069 0.0
O80 O -0.00327 0.1591 0.65676 0.0
C81 C 0.95114 0.1178 0.66343 0.0
C82 C 0.20705 0.16637 0.58501 0.0
O83 O 0.90518 0.03586 0.55789 0.0
O84 O 0.59608 0.09484 0.6442 0.0
O85 O -0.00732 0.07118 0.51591 0.0
O86 O 0.75215 0.00129 0.64827 0.0
O87 O 0.56963 0.04996 0.59396 0.0
O88 O 0.76457 0.97102 0.59389 0.0
O89 O 0.85104 0.20149 0.60462 0.0
O90 O 0.75016 0.1926 0.64635 0.0
C91 C 0.01868 0.25841 0.52798 0.0
C92 C 0.7603 0.11257 0.5126 0.0
C93 C 0.73162 0.36945 0.01182 0.0
C94 C 0.45934 0.2369 0.03714 0.0
C95 C 0.34803 0.36702 0.09467 0.0
Mg96 Mg 0.79941 0.47087 0.0594 0.0
Mg97 Mg 0.79828 0.45987 0.1449 0.0
O98 O 0.73373 0.45478 0.10307 0.0
Mg99 Mg 0.66129 0.3917 0.08986 0.0
O100 O 0.58402 0.33004 0.07334 0.0
Mg101 Mg 0.51708 0.36577 0.03493 0.0
Mg102 Mg 0.50946 0.29529 0.10627 0.0
C103 C 0.60512 0.42206 0.16944 0.0
O104 O 0.73805 0.32707 0.12078 0.0
O105 O 0.81853 0.55507 0.08418 0.0
O106 O 0.61123 0.30368 0.147 0.0
O107 O 0.93221 0.44121 0.08274 0.0
O108 O 0.8108 0.54305 0.14202 0.0
O109 O 0.92953 0.42256 0.13906 0.0
O110 O 0.57368 0.44384 0.05645 0.0
O111 O 0.67111 0.5005 0.03419 0.0
C112 C 0.59182 0.48121 0.03582 0.0
C113 C 0.81396 0.57319 0.11559 0.0
O114 O 0.57911 0.40755 0.13886 0.0
O115 O 0.47063 0.28086 0.02102 0.0
O116 O 0.68672 0.43582 0.17699 0.0
O117 O 0.38536 0.37731 0.06572 0.0
O118 O 0.47195 0.23212 0.07008 0.0
O119 O 0.38777 0.33854 0.11708 0.0
O120 O 0.75379 0.38426 0.04262 0.0
O121 O 0.64953 0.35758 0.00396 0.0
C122 C 0.97131 0.42452 0.11015 0.0
C123 C 0.69375 0.29449 0.13982 0.0
C124 C 0.692 0.65603 0.51591 0.0
C125 C 0.47162 0.79335 0.56 0.0
C126 C 0.30999 0.67562 0.59826 0.0
Mg127 Mg 0.75768 0.56021 0.56526 0.0
Mg128 Mg 0.76333 0.56912 0.65034 0.0
O129 O 0.69554 0.5796 0.60939 0.0
Mg130 Mg 0.62384 0.64496 0.59581 0.0
O131 O 0.54568 0.70666 0.57817 0.0
Mg132 Mg 0.47602 0.66892 0.53515 0.0
Mg133 Mg 0.4834 0.74208 0.61826 0.0
C134 C 0.57707 0.61953 0.6774 0.0
O135 O 0.7086 0.71008 0.62492 0.0
O136 O 0.7857 0.47536 0.58917 0.0
O137 O 0.59562 0.74728 0.65529 0.0
O138 O 0.89444 0.59236 0.58615 0.0
O139 O 0.77439 0.48278 0.64719 0.0
O140 O 0.8954 0.60661 0.64335 0.0
O141 O 0.53078 0.5949 0.56277 0.0
O142 O 0.62254 0.53137 0.54318 0.0
C143 C 0.54574 0.55466 0.54316 0.0
C144 C 0.78405 0.45432 0.61959 0.0
O145 O 0.54859 0.63398 0.64721 0.0
O146 O 0.51432 0.74878 0.56047 0.0
O147 O 0.657 0.60112 0.68318 0.0
O148 O 0.34528 0.66625 0.56837 0.0
O149 O 0.45652 0.81432 0.58969 0.0
O150 O 0.35407 0.6993 0.62285 0.0
O151 O 0.71076 0.6452 0.54749 0.0
O152 O 0.61198 0.66938 0.50624 0.0
C153 C 0.93485 0.60827 0.61389 0.0
C154 C 0.67888 0.74632 0.64597 0.0
C155 C 0.71381 0.86827 0.01701 0.0
C156 C 0.98781 0.73564 0.0388 0.0
C157 C 0.10382 0.86372 0.09857 0.0
Mg158 Mg 0.64989 0.96988 0.06605 0.0
Mg159 Mg 0.65689 0.95854 0.15242 0.0
O160 O 0.71697 0.95247 0.10957 0.0
Mg161 Mg 0.78844 0.88996 0.09497 0.0
O162 O 0.86592 0.82849 0.07745 0.0
Mg163 Mg 0.93091 0.86516 0.03923 0.0
Mg164 Mg 0.94203 0.79125 0.10923 0.0
C165 C 0.84716 0.91192 0.17573 0.0
O166 O 0.71251 0.82547 0.1252 0.0
O167 O 0.63428 0.05356 0.09159 0.0
O168 O 0.84171 0.80158 0.14992 0.0
O169 O 0.51798 0.94071 0.08939 0.0
O170 O 0.6534 0.04325 0.14935 0.0
O171 O 0.52142 0.92466 0.14611 0.0
O172 O 0.8753 0.94274 0.06183 0.0
O173 O 0.77644 -0.00011 0.04077 0.0
C174 C 0.85582 0.98072 0.04175 0.0
C175 C 0.646 0.07264 0.12254 0.0
O176 O 0.87149 0.90388 0.14409 0.0
O177 O 0.97681 0.78051 0.0237 0.0
O178 O 0.76632 0.92569 0.18431 0.0
O179 O 0.06487 0.87608 0.07006 0.0
O180 O 0.97582 0.72931 0.0716 0.0
O181 O 0.06561 0.83317 0.12001 0.0
O182 O 0.69314 0.8832 0.04789 0.0
O183 O 0.79584 0.85723 0.00883 0.0
C184 C 0.4791 0.92547 0.11702 0.0
C185 C 0.75918 0.79178 0.14264 0.0
C186 C 0.24017 0.83626 0.44261 0.0
C187 C 0.95283 0.71052 0.42034 0.0
C188 C 0.86138 0.83296 0.3546 0.0
Mg189 Mg 0.31301 0.93364 0.39273 0.0
Mg190 Mg 0.30541 0.92511 0.3064 0.0
O191 O 0.24723 0.91354 0.34897 0.0
Mg192 Mg 0.17274 0.85124 0.36311 0.0
O193 O 0.09352 0.79305 0.38108 0.0
Mg194 Mg 0.02591 0.83473 0.4172 0.0
Mg195 Mg 0.01627 0.75557 0.35003 0.0
C196 C 0.11507 0.87782 0.28205 0.0
O197 O 0.24509 0.78055 0.33302 0.0
O198 O 0.33336 0.0184 0.36785 0.0
O199 O 0.12355 0.73196 0.3151 0.0
O200 O 0.44538 0.90376 0.36831 0.0
O201 O 0.31254 0.01084 0.31007 0.0
O202 O 0.44038 0.89076 0.31088 0.0
O203 O 0.08535 0.90858 0.39526 0.0
O204 O 0.18541 0.96373 0.41867 0.0
C205 C 0.10554 0.94503 0.41704 0.0
C206 C 0.32485 0.03932 0.33751 0.0
O207 O 0.09161 0.86372 0.31277 0.0
O208 O 0.97246 0.7553 0.43462 0.0
O209 O 0.19479 0.89458 0.27458 0.0
O210 O 0.89738 0.8448 0.38395 0.0
O211 O 0.96255 0.70098 0.38775 0.0
O212 O 0.90138 0.80197 0.33323 0.0
O213 O 0.26675 0.84738 0.41175 0.0
O214 O 0.15648 0.82774 0.44927 0.0
C215 C 0.48336 0.88989 0.33983 0.0
C216 C 0.20934 0.74051 0.31632 0.0
C217 C 0.34936 0.50484 0.9209 0.0
C218 C 0.13606 0.41469 0.84018 0.0
C219 C 0.96768 0.56115 0.84786 0.0
Mg220 Mg 0.42358 0.61982 0.9253 0.0
Mg221 Mg 0.43214 0.69543 0.85647 0.0
O222 O 0.3566 0.65816 0.88791 0.0
Mg223 Mg 0.27814 0.59739 0.86951 0.0
O224 O 0.2059 0.53525 0.85434 0.0
Mg225 Mg 0.14171 0.51589 0.89785 0.0
Mg226 Mg 0.14337 0.52955 0.8118 0.0
C227 C 0.24678 0.69714 0.82302 0.0
O228 O 0.35757 0.58576 0.81945 0.0
O229 O 0.47208 0.70362 0.94222 0.0
O230 O 0.24805 0.56539 0.78007 0.0
O231 O 0.55532 0.60964 0.89431 0.0
O232 O 0.47086 0.75579 0.89478 0.0
O233 O 0.55388 0.65266 0.84445 0.0
O234 O 0.18544 0.60199 0.91712 0.0
O235 O 0.29054 0.62675 0.95609 0.0
C236 C 0.20812 0.61585 0.9481 0.0
C237 C 0.48432 0.74865 0.92749 0.0
O238 O 0.20146 0.66335 0.84071 0.0
O239 O 0.12536 0.43291 0.87133 0.0
O240 O 0.32954 0.68837 0.81583 0.0
O241 O 0.00786 0.54551 0.87533 0.0
O242 O 0.14202 0.44482 0.8137 0.0
O243 O 0.00849 0.56242 0.81872 0.0
O244 O 0.36662 0.54346 0.90121 0.0
O245 O 0.27024 0.48539 0.9223 0.0
C246 C 0.59294 0.62199 0.86578 0.0
C247 C 0.32926 0.57969 0.78796 0.0
C248 C 0.921 0.35013 0.31616 0.0
C249 C 0.94341 0.40409 0.32036 0.0
H250 H 0.82652 0.28868 0.32877 0.0
C251 C 0.87959 0.4396 0.33392 0.0
H252 H 0.96969 0.322 0.30583 0.0
C253 C 0.80024 0.42043 0.34797 0.0
C254 C 0.78298 0.36563 0.34803 0.0
H255 H 0.8954 0.48142 0.33706 0.0
H256 H 0.75431 0.44839 0.36023 0.0
C257 C 0.84049 0.33088 0.32998 0.0
C258 C 0.60878 0.10272 0.82515 0.0
C259 C 0.56279 0.07821 0.8525 0.0
H260 H 0.73407 0.13585 0.80761 0.0
C261 C 0.61114 0.06591 0.88299 0.0
H262 H 0.57363 0.11234 0.80126 0.0
C263 C 0.70233 0.07856 0.88644 0.0
C264 C 0.74809 0.10439 0.85966 0.0
H265 H 0.5786 0.04639 0.90451 0.0
H266 H 0.73633 0.06893 0.91059 0.0
C267 C 0.70067 0.11593 0.82876 0.0
C268 C 0.31003 0.09014 0.58713 0.0
C269 C 0.29076 0.14252 0.59759 0.0
H270 H 0.40294 0.02578 0.58883 0.0
C271 C 0.34619 0.16802 0.6223 0.0
H272 H 0.26567 0.0684 0.56948 0.0
C273 C 0.42525 0.14315 0.63365 0.0
C274 C 0.44813 0.09246 0.62062 0.0
H275 H 0.33043 0.20769 0.63162 0.0
H276 H 0.47141 0.16517 0.65041 0.0
C277 C 0.38738 0.06512 0.59886 0.0
C278 C 0.11532 0.38568 0.13492 0.0
C279 C 0.06842 0.41038 0.10764 0.0
H280 H 0.2413 0.35264 0.15242 0.0
C281 C 0.11584 0.42311 0.07726 0.0
H282 H 0.08091 0.37574 0.15875 0.0
C283 C 0.20702 0.41069 0.07382 0.0
C284 C 0.25369 0.38469 0.10053 0.0
H285 H 0.08259 0.44279 0.05581 0.0
H286 H 0.24031 0.42064 0.04974 0.0
C287 C 0.2072 0.37271 0.13133 0.0
C288 C 0.1724 0.6602 0.63632 0.0
C289 C 0.21399 0.65907 0.60343 0.0
H290 H 0.05176 0.64504 0.66571 0.0
C291 C 0.16217 0.64224 0.57452 0.0
H292 H 0.21013 0.67293 0.65918 0.0
C293 C 0.07213 0.6268 0.57819 0.0
C294 C 0.0303 0.62721 0.61095 0.0
H295 H 0.19094 0.64111 0.54869 0.0
H296 H 0.03552 0.61412 0.55505 0.0
C297 C 0.08155 0.64427 0.64006 0.0
C298 C 0.33318 0.92558 0.08421 0.0
C299 C 0.38182 0.9111 0.11422 0.0
H300 H 0.20851 0.92305 0.05612 0.0
C301 C 0.33646 0.88335 0.14036 0.0
H302 H 0.36515 0.94766 0.06366 0.0
C303 C 0.24524 0.86886 0.13586 0.0
C304 C 0.19767 0.88242 0.10534 0.0
H305 H 0.3718 0.87187 0.16384 0.0
H306 H 0.21258 0.84627 0.15599 0.0
C307 C 0.24262 0.91168 0.0799 0.0
C308 C 0.71807 0.83561 0.31793 0.0
C309 C 0.76756 0.85159 0.34773 0.0
H310 H 0.58869 0.8351 0.29175 0.0
C311 C 0.72358 0.88219 0.37333 0.0
H312 H 0.74994 0.81209 0.29767 0.0
C313 C 0.63216 0.89434 0.37024 0.0
C314 C 0.5814 0.87698 0.34123 0.0
H315 H 0.75906 0.89572 0.39653 0.0
H316 H 0.60115 0.91735 0.39096 0.0
C317 C 0.62573 0.84853 0.3146 0.0
C318 C 0.82409 0.60227 0.8242 0.0
C319 C 0.87063 0.57546 0.8507 0.0
H320 H 0.69912 0.63814 0.80801 0.0
C321 C 0.82328 0.56158 0.88088 0.0
H322 H 0.85847 0.61319 0.80056 0.0
C323 C 0.7327 0.57513 0.88495 0.0
C324 C 0.68655 0.60344 0.85913 0.0
H325 H 0.85624 0.54024 0.90169 0.0
H326 H 0.69956 0.56427 0.90888 0.0
C327 C 0.73284 0.61639 0.82845 0.0
C328 C 0.54908 0.45475 0.22611 0.0
C329 C 0.54142 0.41875 0.1981 0.0
H330 H 0.52081 0.46922 0.27987 0.0
C331 C 0.48354 0.37489 0.20043 0.0
H332 H 0.59246 0.4893 0.22449 0.0
C333 C 0.4447 0.36285 0.2322 0.0
C334 C 0.4608 0.39588 0.26112 0.0
H335 H 0.47573 0.34708 0.17897 0.0
H336 H 0.40838 0.32577 0.2349 0.0
C337 C 0.50777 0.44361 0.25753 0.0
C338 C 0.04239 0.0344 0.73339 0.0
C339 C 0.03403 0.06964 0.76176 0.0
H340 H 0.01783 0.02204 0.67902 0.0
C341 C 0.97757 0.11413 0.75917 0.0
H342 H 0.08464 -0.00063 0.73516 0.0
C343 C 0.94185 0.12776 0.72696 0.0
C344 C 0.95933 0.0956 0.69782 0.0
H345 H 0.96887 0.14128 0.7809 0.0
H346 H 0.90687 0.1653 0.72425 0.0
C347 C 0.00403 0.0471 0.70149 0.0
C348 C 0.54467 0.60826 0.74015 0.0
C349 C 0.51256 0.61708 0.70626 0.0
H350 H 0.51204 0.58774 0.79213 0.0
C351 C 0.41896 0.61615 0.69971 0.0
H352 H 0.61644 0.60876 0.74605 0.0
C353 C 0.35892 0.6041 0.72631 0.0
C354 C 0.39166 0.59312 0.75983 0.0
H355 H 0.39226 0.62238 0.6738 0.0
H356 H 0.28714 0.60281 0.7205 0.0
C357 C 0.48485 0.59622 0.76661 0.0
C358 C 0.0066 0.8983 0.19455 0.0
C359 C 0.91458 0.90173 0.20315 0.0
H360 H 0.14171 0.88646 0.21251 0.0
C361 C 0.88822 0.89406 0.23774 0.0
H362 H 0.02919 0.90485 0.16825 0.0
C363 C 0.95315 0.88391 0.2633 0.0
C364 C 0.04532 0.88111 0.25467 0.0
H365 H 0.81768 0.89624 0.24511 0.0
H366 H 0.9314 0.88036 0.28995 0.0
C367 C 0.07119 0.88786 0.21997 0.0
C368 C 0.66908 0.13026 0.45896 0.0
C369 C 0.70094 0.1459 0.49188 0.0
H370 H 0.58869 0.15214 0.41488 0.0
C371 C 0.66385 0.19065 0.5085 0.0
H372 H 0.69395 0.09431 0.44656 0.0
C373 C 0.60064 0.22169 0.4916 0.0
C374 C 0.57545 0.20974 0.45718 0.0
H375 H 0.68352 0.20166 0.53484 0.0
H376 H 0.5763 0.25714 0.50479 0.0
C377 C 0.60724 0.16252 0.44139 0.0
C378 C 0.88543 0.33434 -0.0006 0.0
C379 C 0.80291 0.35452 -0.01299 0.0
H380 H 0.00027 0.28549 -0.01205 0.0
C381 C 0.78317 0.35124 0.95126 0.0
H382 H 0.90255 0.33653 0.02682 0.0
C383 C 0.84043 0.32319 0.92888 0.0
C384 C 0.91673 0.29715 0.94223 0.0
H385 H 0.72031 0.36703 0.94108 0.0
H386 H 0.82004 0.31737 0.90198 0.0
C387 C 0.94137 0.30515 0.97721 0.0
C388 C 0.15896 0.27346 0.49627 0.0
C389 C 0.07815 0.29447 0.50954 0.0
H390 H 0.2772 0.28681 0.46642 0.0
C391 C 0.06083 0.34884 0.50715 0.0
H392 H 0.17537 0.23183 0.49936 0.0
C393 C 0.11964 0.3808 0.48818 0.0
C394 C 0.19669 0.35855 0.47202 0.0
H395 H 0.00041 0.36591 0.51852 0.0
H396 H 0.10167 0.42199 0.48434 0.0
C397 C 0.21825 0.30525 0.47804 0.0
C398 C 0.44053 0.18517 -0.01774 0.0
C399 C 0.41761 0.19313 0.01729 0.0
H400 H 0.39928 0.15384 0.93274 0.0
C401 C 0.3417 0.16731 0.03078 0.0
H402 H 0.49909 0.20468 0.97141 0.0
C403 C 0.28322 0.13942 0.00852 0.0
C404 C 0.30139 0.13603 0.97275 0.0
H405 H 0.32262 0.17313 0.05772 0.0
H406 H 0.22077 0.12373 0.01882 0.0
C407 C 0.38341 0.15609 0.96019 0.0
C408 C 0.27558 0.8416 0.50586 0.0
C409 C 0.30516 0.83112 0.47177 0.0
H410 H 0.30561 0.8392 0.56022 0.0
C411 C 0.39254 0.81057 0.46673 0.0
H412 H 0.2081 0.85647 0.51073 0.0
C413 C 0.44751 0.79859 0.49549 0.0
C414 C 0.41691 0.80867 0.52951 0.0
H415 H 0.41656 0.80145 0.44078 0.0
H416 H 0.51344 0.78097 0.49119 0.0
C417 C 0.33132 0.83142 0.53433 0.0
C418 C 0.00388 0.68666 -0.01739 0.0
C419 C 0.02719 0.6922 0.01792 0.0
H420 H 0.04187 0.65588 0.93272 0.0
C421 C 0.1004 0.66315 0.03118 0.0
H422 H 0.94739 0.70858 0.97188 0.0
C423 C 0.15587 0.63403 0.00865 0.0
C424 C 0.13736 0.63255 0.97276 0.0
H425 H 0.11984 0.66698 0.05831 0.0
H426 H 0.21654 0.61568 0.01892 0.0
C427 C 0.05784 0.65637 0.96026 0.0
C428 C 0.8109 0.66301 0.43003 0.0
C429 C 0.89894 0.67485 0.44138 0.0
H430 H 0.67434 0.64918 0.44527 0.0
C431 C 0.92209 0.66893 0.47653 0.0
H432 H 0.79162 0.66795 0.40303 0.0
C433 C 0.85526 0.65797 0.50074 0.0
C434 C 0.76453 0.65381 0.49 0.0
H435 H -0.0102 0.6783 0.48571 0.0
H436 H 0.87352 0.65793 0.52805 0.0
C437 C 0.74358 0.65323 0.45431 0.0
C438 C 0.50753 0.79612 -0.01591 0.0
C439 C 0.52712 0.79114 0.94852 0.0
H440 H 0.55013 0.82663 0.03374 0.0
C441 C 0.59925 0.82025 0.93477 0.0
H442 H 0.45206 0.77411 -0.00475 0.0
C443 C 0.65681 0.84921 0.9569 0.0
C444 C 0.64149 0.85061 -0.00708 0.0
H445 H 0.61599 0.81684 0.90744 0.0
H446 H 0.71632 0.86782 0.94615 0.0
C447 C 0.56352 0.82631 0.00607 0.0
C448 C 0.33927 0.13059 0.36374 0.0
C449 C 0.32111 0.09843 0.33454 0.0
H450 H 0.34514 0.20849 0.38549 0.0
C451 C 0.29359 0.12336 0.30342 0.0
H452 H 0.35976 0.11329 0.3882 0.0
C453 C 0.28458 0.17907 0.30175 0.0
C454 C 0.30368 0.21094 0.33111 0.0
H455 H 0.27801 0.09982 0.2804 0.0
H456 H 0.26411 0.19708 0.27753 0.0
C457 C 0.33069 0.18563 0.36206 0.0
C458 C 0.18596 0.28306 0.79599 0.0
C459 C 0.20392 0.25039 0.82444 0.0
H460 H 0.14752 0.35999 0.77864 0.0
C461 C 0.20343 0.27247 0.85815 0.0
H462 H 0.18303 0.2664 0.76988 0.0
C463 C 0.17964 0.32565 0.86341 0.0
C464 C 0.1568 0.35774 0.835 0.0
H465 H 0.21382 0.24761 0.88062 0.0
H466 H 0.17766 0.34127 0.88977 0.0
C467 C 0.16303 0.33622 0.80117 0.0
C468 C 0.8157 0.36388 0.59402 0.0
C469 C 0.78872 0.39505 0.6226 0.0
H470 H 0.83865 0.28645 0.57302 0.0
C471 C 0.76277 0.36869 0.65327 0.0
H472 H 0.83573 0.38224 0.56994 0.0
C473 C 0.76361 0.31266 0.65506 0.0
C474 C 0.79183 0.28182 0.6264 0.0
H475 H 0.7407 0.39132 0.67579 0.0
H476 H 0.7435 0.29367 0.6789 0.0
C477 C 0.81754 0.30851 0.59594 0.0
C478 C 0.68786 0.16118 0.09826 0.0
C479 C 0.66627 0.12981 0.12705 0.0
H480 H 0.72032 0.23886 0.0801 0.0
C481 C 0.6733 0.15231 0.16062 0.0
H482 H 0.68529 0.14481 0.07209 0.0
C483 C 0.69562 0.20572 0.16516 0.0
C484 C 0.71219 0.23767 0.13631 0.0
H485 H 0.6588 0.12911 0.18344 0.0
H486 H 0.69317 0.22311 0.19107 0.0
C487 C 0.71106 0.2146 0.10287 0.0
C488 C 0.78648 0.81328 0.62192 0.0
C489 C 0.72835 0.79788 0.64882 0.0
H490 H 0.84373 0.87784 0.59374 0.0
C491 C 0.69953 0.83714 0.67279 0.0
H492 H 0.81001 0.78448 0.60287 0.0
C493 C 0.7196 0.89097 0.66765 0.0
C494 C 0.76796 0.90677 0.63818 0.0
H495 H 0.65482 0.8268 0.69386 0.0
H496 H 0.69007 0.92039 0.68495 0.0
C497 C 0.80525 0.86709 0.61648 0.0
C498 C 0.78835 0.6489 0.15648 0.0
C499 C 0.79451 0.62988 0.12199 0.0
H500 H 0.7653 0.71563 0.19006 0.0
C501 C 0.77036 0.66366 0.09465 0.0
H502 H 0.80488 0.62385 0.1783 0.0
C503 C 0.74495 0.71614 0.1017 0.0
C504 C 0.74369 0.73544 0.13614 0.0
H505 H 0.7723 0.64989 0.06787 0.0
H506 H 0.73349 0.74264 0.08014 0.0
C507 C 0.76296 0.701 0.16343 0.0
C508 C 0.24389 0.6022 0.28557 0.0
C509 C 0.28694 0.582 0.31522 0.0
H510 H 0.18854 0.67133 0.26148 0.0
C511 C 0.3308 0.61783 0.33815 0.0
H512 H 0.21008 0.57571 0.26727 0.0
C513 C 0.32049 0.67275 0.33434 0.0
C514 C 0.2641 0.69271 0.30805 0.0
H515 H 0.36601 0.6034 0.36095 0.0
H516 H 0.34564 0.69875 0.35488 0.0
C517 C 0.23242 0.65718 0.28205 0.0
C518 C 0.24528 0.78681 0.80055 0.0
C519 C 0.22914 0.75337 0.82857 0.0
H520 H 0.2872 0.8631 0.78406 0.0
C521 C 0.23457 0.77383 0.86268 0.0
H522 H 0.24435 0.77126 0.77413 0.0
C523 C 0.26215 0.82621 0.86865 0.0
C524 C 0.28411 0.8588 0.84055 0.0
H525 H 0.22554 0.74808 0.88475 0.0
H526 H 0.26782 0.84073 0.89521 0.0
C527 C 0.27279 0.83889 0.80643 0.0
C528 C 0.40507 0.52824 0.51002 0.0
C529 C 0.49252 0.54965 0.5108 0.0
H530 H 0.30614 0.48837 0.47818 0.0
C531 C 0.53407 0.56282 0.47935 0.0
H532 H 0.37104 0.51855 0.53397 0.0
C533 C 0.49297 0.5506 0.44762 0.0
C534 C 0.41558 0.51867 0.44693 0.0
H535 H 0.60221 0.5781 0.47909 0.0
H536 H 0.53219 0.55577 0.42416 0.0
C537 C 0.36654 0.5127 0.47799 0.0
C538 C 0.88079 0.00767 -0.01935 0.0
C539 C 0.91648 0.99127 0.01271 0.0
H540 H 0.90742 0.02338 0.92723 0.0
C541 C 0.00868 0.9791 0.01552 0.0
H542 H 0.80941 0.01634 0.97757 0.0
C543 C 0.06434 0.98259 -0.01337 0.0
C544 C 0.02861 -0.00121 0.95453 0.0
H545 H 0.03769 0.96686 0.04004 0.0
H546 H 0.13567 0.97382 -0.01028 0.0
C547 C 0.93646 0.01119 0.95176 0.0
C548 C 0.91061 0.98278 0.47559 0.0
C549 C 0.95498 0.98382 0.50814 0.0
H550 H 0.92475 0.97027 0.42036 0.0
C551 C 0.0398 0.95935 0.51099 0.0
H552 H 0.84534 0.00185 0.47261 0.0
C553 C 0.08755 0.9456 0.48106 0.0
C554 C 0.04839 0.95192 0.44804 0.0
H555 H 0.0759 0.95999 0.53563 0.0
H556 H 0.15751 0.93358 0.4836 0.0
C557 C 0.95707 0.9665 0.44556 0.0
C558 C 0.43685 0.47931 0.01087 0.0
C559 C 0.52915 0.49031 0.00695 0.0
H560 H 0.30734 0.47395 -0.01373 0.0
C561 C 0.56268 0.50353 0.97409 0.0
H562 H 0.40964 0.46932 0.03602 0.0
C563 C 0.50458 0.50547 0.94557 0.0
C564 C 0.41223 0.49471 0.94954 0.0
H565 H 0.63407 0.51097 0.97019 0.0
H566 H 0.5317 0.51551 0.92042 0.0
C567 C 0.37876 0.48128 -0.01765 0.0
loop_
_geom_bond_atom_site_label_1
_geom_bond_atom_site_label_2
_geom_bond_distance
_geom_bond_site_symmetry_2
_ccdc_geom_bond_type
C0 O27 1.312 . S
C0 O28 1.208 . S
C1 O22 1.331 . S
C1 O25 1.244 . S
C2 O24 1.264 . S
C2 O26 1.273 . S
Mg3 O5 1.936 . S
Mg3 O12 2.081 . S
Mg3 O14 2.023 . S
Mg3 O18 2.031 . S
Mg3 O27 2.291 . S
Mg4 O5 1.963 . S
Mg4 O15 1.942 . S
Mg4 O16 1.955 . S
Mg4 O23 1.986 . S
O5 Mg3 1.936 . S
O5 Mg4 1.963 . S
O5 Mg6 1.915 . S
Mg6 O5 1.915 . S
Mg6 O7 1.915 . S
Mg6 O11 2.013 . S
Mg6 O17 2.114 . S
Mg6 O21 2.013 . S
Mg6 O27 2.114 . S
O7 Mg6 1.915 . S
O7 Mg8 1.936 . S
O7 Mg9 1.963 . S
Mg8 O7 1.936 . S
Mg8 O17 2.291 . S
Mg8 O22 2.081 . S
Mg8 O24 2.023 . S
Mg8 O28 2.031 . S
Mg9 O7 1.963 . S
Mg9 O13 1.986 . S
Mg9 O25 1.942 . S
Mg9 O26 1.955 . S
C10 O21 1.191 . S
C10 O23 1.307 . S
O11 Mg6 2.013 . S
O11 C30 1.191 . S
O12 Mg3 2.081 . S
O12 C20 1.331 . S
O13 Mg9 1.986 . S
O13 C30 1.307 . S
O14 Mg3 2.023 . S
O14 C29 1.264 . S
O15 Mg4 1.942 . S
O15 C20 1.244 . S
O16 Mg4 1.955 . S
O16 C29 1.273 . S
O17 Mg6 2.114 . S
O17 Mg8 2.291 . S
O17 C19 1.312 . S
O18 Mg3 2.031 . S
O18 C19 1.208 . S
C19 O17 1.312 . S
C19 O18 1.208 . S
C20 O12 1.331 . S
C20 O15 1.244 . S
O21 Mg6 2.013 . S
O21 C10 1.191 . S
O22 C1 1.331 . S
O22 Mg8 2.081 . S
O23 Mg4 1.986 . S
O23 C10 1.307 . S
O24 C2 1.264 . S
O24 Mg8 2.023 . S
O25 C1 1.244 . S
O25 Mg9 1.942 . S
O26 C2 1.273 . S
O26 Mg9 1.955 . S
O27 C0 1.312 . S
O27 Mg3 2.291 . S
O27 Mg6 2.114 . S
O28 C0 1.208 . S
O28 Mg8 2.031 . S
C29 O14 1.264 . S
C29 O16 1.273 . S
C30 O11 1.191 . S
C30 O13 1.307 . S
C31 O58 1.312 . S
C31 O59 1.208 . S
C32 O53 1.331 . S
C32 O56 1.244 1_565 S
C33 O55 1.264 . S
C33 O57 1.273 . S
Mg34 O36 1.936 1_655 S
Mg34 O43 2.081 . S
Mg34 O45 2.023 . S
Mg34 O49 2.031 1_655 S
Mg34 O58 2.291 1_655 S
Mg35 O36 1.963 1_655 S
Mg35 O46 1.942 . S
Mg35 O47 1.955 . S
Mg35 O54 1.986 1_655 S
O36 Mg34 1.936 1_455 S
O36 Mg35 1.963 1_455 S
O36 Mg37 1.915 . S
Mg37 O36 1.915 . S
Mg37 O38 1.915 . S
Mg37 O42 2.013 . S
Mg37 O48 2.114 . S
Mg37 O52 2.013 . S
Mg37 O58 2.114 . S
O38 Mg37 1.915 . S
O38 Mg39 1.936 . S
O38 Mg40 1.963 . S
Mg39 O38 1.936 . S
Mg39 O48 2.291 . S
Mg39 O53 2.081 1_545 S
Mg39 O55 2.023 . S
Mg39 O59 2.031 . S
Mg40 O38 1.963 . S
Mg40 O44 1.986 . S
Mg40 O56 1.942 . S
Mg40 O57 1.955 . S
C41 O52 1.191 . S
C41 O54 1.307 . S
O42 Mg37 2.013 . S
O42 C61 1.191 . S
O43 Mg34 2.081 . S
O43 C51 1.331 . S
O44 Mg40 1.986 . S
O44 C61 1.307 . S
O45 Mg34 2.023 . S
O45 C60 1.264 . S
O46 Mg35 1.942 . S
O46 C51 1.244 . S
O47 Mg35 1.955 . S
O47 C60 1.273 . S
O48 Mg37 2.114 . S
O48 Mg39 2.291 . S
O48 C50 1.312 . S
O49 Mg34 2.031 1_455 S
O49 C50 1.208 . S
C50 O48 1.312 . S
C50 O49 1.208 . S
C51 O43 1.331 . S
C51 O46 1.244 . S
O52 Mg37 2.013 . S
O52 C41 1.191 . S
O53 C32 1.331 . S
O53 Mg39 2.081 1_565 S
O54 Mg35 1.986 1_455 S
O54 C41 1.307 . S
O55 C33 1.264 . S
O55 Mg39 2.023 . S
O56 C32 1.244 1_545 S
O56 Mg40 1.942 . S
O57 C33 1.273 . S
O57 Mg40 1.955 . S
O58 C31 1.312 . S
O58 Mg34 2.291 1_455 S
O58 Mg37 2.114 . S
O59 C31 1.208 . S
O59 Mg39 2.031 . S
C60 O45 1.264 . S
C60 O47 1.273 . S
C61 O42 1.191 . S
C61 O44 1.307 . S
C62 O89 1.312 . S
C62 O90 1.208 . S
C63 O84 1.331 . S
C63 O87 1.244 . S
C64 O86 1.264 1_565 S
C64 O88 1.273 1_565 S
Mg65 O67 1.936 . S
Mg65 O74 2.081 . S
Mg65 O76 2.023 . S
Mg65 O80 2.031 . S
Mg65 O89 2.291 1_455 S
Mg66 O67 1.963 . S
Mg66 O77 1.942 . S
Mg66 O78 1.955 . S
Mg66 O85 1.986 . S
O67 Mg65 1.936 . S
O67 Mg66 1.963 . S
O67 Mg68 1.915 1_455 S
Mg68 O67 1.915 1_655 S
Mg68 O69 1.915 . S
Mg68 O73 2.013 . S
Mg68 O79 2.114 . S
Mg68 O83 2.013 . S
Mg68 O89 2.114 . S
O69 Mg68 1.915 . S
O69 Mg70 1.936 . S
O69 Mg71 1.963 . S
Mg70 O69 1.936 . S
Mg70 O79 2.291 . S
Mg70 O84 2.081 . S
Mg70 O86 2.023 . S
Mg70 O90 2.031 . S
Mg71 O69 1.963 . S
Mg71 O75 1.986 . S
Mg71 O87 1.942 . S
Mg71 O88 1.955 . S
C72 O83 1.191 . S
C72 O85 1.307 1_655 S
O73 Mg68 2.013 . S
O73 C92 1.191 . S
O74 Mg65 2.081 . S
O74 C82 1.331 . S
O75 Mg71 1.986 . S
O75 C92 1.307 . S
O76 Mg65 2.023 . S
O76 C91 1.264 . S
O77 Mg66 1.942 . S
O77 C82 1.244 . S
O78 Mg66 1.955 . S
O78 C91 1.273 . S
O79 Mg68 2.114 . S
O79 Mg70 2.291 . S
O79 C81 1.312 . S
O80 Mg65 2.031 . S
O80 C81 1.208 1_455 S
C81 O79 1.312 . S
C81 O80 1.208 1_655 S
C82 O74 1.331 . S
C82 O77 1.244 . S
O83 Mg68 2.013 . S
O83 C72 1.191 . S
O84 C63 1.331 . S
O84 Mg70 2.081 . S
O85 Mg66 1.986 . S
O85 C72 1.307 1_455 S
O86 C64 1.264 1_545 S
O86 Mg70 2.023 . S
O87 C63 1.244 . S
O87 Mg71 1.942 . S
O88 C64 1.273 1_545 S
O88 Mg71 1.955 . S
O89 C62 1.312 . S
O89 Mg65 2.291 1_655 S
O89 Mg68 2.114 . S
O90 C62 1.208 . S
O90 Mg70 2.031 . S
C91 O76 1.264 . S
C91 O78 1.273 . S
C92 O73 1.191 . S
C92 O75 1.307 . S
C93 O120 1.312 . S
C93 O121 1.208 . S
C94 O115 1.331 . S
C94 O118 1.244 . S
C95 O117 1.264 . S
C95 O119 1.273 . S
Mg96 O98 1.936 . S
Mg96 O105 2.081 . S
Mg96 O107 2.023 . S
Mg96 O111 2.031 . S
Mg96 O120 2.291 . S
Mg97 O98 1.963 . S
Mg97 O108 1.942 . S
Mg97 O109 1.955 . S
Mg97 O116 1.986 . S
O98 Mg96 1.936 . S
O98 Mg97 1.963 . S
O98 Mg99 1.915 . S
Mg99 O98 1.915 . S
Mg99 O100 1.915 . S
Mg99 O104 2.013 . S
Mg99 O110 2.114 . S
Mg99 O114 2.013 . S
Mg99 O120 2.114 . S
O100 Mg99 1.915 . S
O100 Mg101 1.936 . S
O100 Mg102 1.963 . S
Mg101 O100 1.936 . S
Mg101 O110 2.291 . S
Mg101 O115 2.081 . S
Mg101 O117 2.023 . S
Mg101 O121 2.031 . S
Mg102 O100 1.963 . S
Mg102 O106 1.986 . S
Mg102 O118 1.942 . S
Mg102 O119 1.955 . S
C103 O114 1.191 . S
C103 O116 1.307 . S
O104 Mg99 2.013 . S
O104 C123 1.191 . S
O105 Mg96 2.081 . S
O105 C113 1.331 . S
O106 Mg102 1.986 . S
O106 C123 1.307 . S
O107 Mg96 2.023 . S
O107 C122 1.264 . S
O108 Mg97 1.942 . S
O108 C113 1.244 . S
O109 Mg97 1.955 . S
O109 C122 1.273 . S
O110 Mg99 2.114 . S
O110 Mg101 2.291 . S
O110 C112 1.312 . S
O111 Mg96 2.031 . S
O111 C112 1.208 . S
C112 O110 1.312 . S
C112 O111 1.208 . S
C113 O105 1.331 . S
C113 O108 1.244 . S
O114 Mg99 2.013 . S
O114 C103 1.191 . S
O115 C94 1.331 . S
O115 Mg101 2.081 . S
O116 Mg97 1.986 . S
O116 C103 1.307 . S
O117 C95 1.264 . S
O117 Mg101 2.023 . S
O118 C94 1.244 . S
O118 Mg102 1.942 . S
O119 C95 1.273 . S
O119 Mg102 1.955 . S
O120 C93 1.312 . S
O120 Mg96 2.291 . S
O120 Mg99 2.114 . S
O121 C93 1.208 . S
O121 Mg101 2.031 . S
C122 O107 1.264 . S
C122 O109 1.273 . S
C123 O104 1.191 . S
C123 O106 1.307 . S
C124 O151 1.312 . S
C124 O152 1.208 . S
C125 O146 1.331 . S
C125 O149 1.244 . S
C126 O148 1.264 . S
C126 O150 1.273 . S
Mg127 O129 1.936 . S
Mg127 O136 2.081 . S
Mg127 O138 2.023 . S
Mg127 O142 2.031 . S
Mg127 O151 2.291 . S
Mg128 O129 1.963 . S
Mg128 O139 1.942 . S
Mg128 O140 1.955 . S
Mg128 O147 1.986 . S
O129 Mg127 1.936 . S
O129 Mg128 1.963 . S
O129 Mg130 1.915 . S
Mg130 O129 1.915 . S
Mg130 O131 1.915 . S
Mg130 O135 2.013 . S
Mg130 O141 2.114 . S
Mg130 O145 2.013 . S
Mg130 O151 2.114 . S
O131 Mg130 1.915 . S
O131 Mg132 1.936 . S
O131 Mg133 1.963 . S
Mg132 O131 1.936 . S
Mg132 O141 2.291 . S
Mg132 O146 2.081 . S
Mg132 O148 2.023 . S
Mg132 O152 2.031 . S
Mg133 O131 1.963 . S
Mg133 O137 1.986 . S
Mg133 O149 1.942 . S
Mg133 O150 1.955 . S
C134 O145 1.191 . S
C134 O147 1.307 . S
O135 Mg130 2.013 . S
O135 C154 1.191 . S
O136 Mg127 2.081 . S
O136 C144 1.331 . S
O137 Mg133 1.986 . S
O137 C154 1.307 . S
O138 Mg127 2.023 . S
O138 C153 1.264 . S
O139 Mg128 1.942 . S
O139 C144 1.244 . S
O140 Mg128 1.955 . S
O140 C153 1.273 . S
O141 Mg130 2.114 . S
O141 Mg132 2.291 . S
O141 C143 1.312 . S
O142 Mg127 2.031 . S
O142 C143 1.208 . S
C143 O141 1.312 . S
C143 O142 1.208 . S
C144 O136 1.331 . S
C144 O139 1.244 . S
O145 Mg130 2.013 . S
O145 C134 1.191 . S
O146 C125 1.331 . S
O146 Mg132 2.081 . S
O147 Mg128 1.986 . S
O147 C134 1.307 . S
O148 C126 1.264 . S
O148 Mg132 2.023 . S
O149 C125 1.244 . S
O149 Mg133 1.942 . S
O150 C126 1.273 . S
O150 Mg133 1.955 . S
O151 C124 1.312 . S
O151 Mg127 2.291 . S
O151 Mg130 2.114 . S
O152 C124 1.208 . S
O152 Mg132 2.031 . S
C153 O138 1.264 . S
C153 O140 1.273 . S
C154 O135 1.191 . S
C154 O137 1.307 . S
C155 O182 1.312 . S
C155 O183 1.208 . S
C156 O177 1.331 . S
C156 O180 1.244 . S
C157 O179 1.264 . S
C157 O181 1.273 . S
Mg158 O160 1.936 . S
Mg158 O167 2.081 1_565 S
Mg158 O169 2.023 . S
Mg158 O173 2.031 . S
Mg158 O182 2.291 . S
Mg159 O160 1.963 . S
Mg159 O170 1.942 . S
Mg159 O171 1.955 . S
Mg159 O178 1.986 . S
O160 Mg158 1.936 . S
O160 Mg159 1.963 . S
O160 Mg161 1.915 . S
Mg161 O160 1.915 . S
Mg161 O162 1.915 . S
Mg161 O166 2.013 . S
Mg161 O172 2.114 . S
Mg161 O176 2.013 . S
Mg161 O182 2.114 . S
O162 Mg161 1.915 . S
O162 Mg163 1.936 1_655 S
O162 Mg164 1.963 1_655 S
Mg163 O162 1.936 1_455 S
Mg163 O172 2.291 1_455 S
Mg163 O177 2.081 . S
Mg163 O179 2.023 . S
Mg163 O183 2.031 1_455 S
Mg164 O162 1.963 1_455 S
Mg164 O168 1.986 1_455 S
Mg164 O180 1.942 . S
Mg164 O181 1.955 . S
C165 O176 1.191 . S
C165 O178 1.307 . S
O166 Mg161 2.013 . S
O166 C185 1.191 . S
O167 Mg158 2.081 1_545 S
O167 C175 1.331 . S
O168 Mg164 1.986 1_655 S
O168 C185 1.307 . S
O169 Mg158 2.023 . S
O169 C184 1.264 . S
O170 Mg159 1.942 . S
O170 C175 1.244 1_565 S
O171 Mg159 1.955 . S
O171 C184 1.273 . S
O172 Mg161 2.114 . S
O172 Mg163 2.291 1_655 S
O172 C174 1.312 . S
O173 Mg158 2.031 . S
O173 C174 1.208 . S
C174 O172 1.312 . S
C174 O173 1.208 . S
C175 O167 1.331 . S
C175 O170 1.244 1_545 S
O176 Mg161 2.013 . S
O176 C165 1.191 . S
O177 C156 1.331 . S
O177 Mg163 2.081 . S
O178 Mg159 1.986 . S
O178 C165 1.307 . S
O179 C157 1.264 . S
O179 Mg163 2.023 . S
O180 C156 1.244 . S
O180 Mg164 1.942 . S
O181 C157 1.273 . S
O181 Mg164 1.955 . S
O182 C155 1.312 . S
O182 Mg158 2.291 . S
O182 Mg161 2.114 . S
O183 C155 1.208 . S
O183 Mg163 2.031 1_655 S
C184 O169 1.264 . S
C184 O171 1.273 . S
C185 O166 1.191 . S
C185 O168 1.307 . S
C186 O213 1.312 . S
C186 O214 1.208 . S
C187 O208 1.331 . S
C187 O211 1.244 . S
C188 O210 1.264 . S
C188 O212 1.273 . S
Mg189 O191 1.936 . S
Mg189 O198 2.081 1_565 S
Mg189 O200 2.023 . S
Mg189 O204 2.031 . S
Mg189 O213 2.291 . S
Mg190 O191 1.963 . S
Mg190 O201 1.942 . S
Mg190 O202 1.955 . S
Mg190 O209 1.986 . S
O191 Mg189 1.936 . S
O191 Mg190 1.963 . S
O191 Mg192 1.915 . S
Mg192 O191 1.915 . S
Mg192 O193 1.915 . S
Mg192 O197 2.013 . S
Mg192 O203 2.114 . S
Mg192 O207 2.013 . S
Mg192 O213 2.114 . S
O193 Mg192 1.915 . S
O193 Mg194 1.936 1_455 S
O193 Mg195 1.963 1_455 S
Mg194 O193 1.936 1_655 S
Mg194 O203 2.291 1_655 S
Mg194 O208 2.081 . S
Mg194 O210 2.023 . S
Mg194 O214 2.031 1_655 S
Mg195 O193 1.963 1_655 S
Mg195 O199 1.986 1_655 S
Mg195 O211 1.942 . S
Mg195 O212 1.955 . S
C196 O207 1.191 . S
C196 O209 1.307 . S
O197 Mg192 2.013 . S
O197 C216 1.191 . S
O198 Mg189 2.081 1_545 S
O198 C206 1.331 . S
O199 Mg195 1.986 1_455 S
O199 C216 1.307 . S
O200 Mg189 2.023 . S
O200 C215 1.264 . S
O201 Mg190 1.942 . S
O201 C206 1.244 1_565 S
O202 Mg190 1.955 . S
O202 C215 1.273 . S
O203 Mg192 2.114 . S
O203 Mg194 2.291 1_455 S
O203 C205 1.312 . S
O204 Mg189 2.031 . S
O204 C205 1.208 . S
C205 O203 1.312 . S
C205 O204 1.208 . S
C206 O198 1.331 . S
C206 O201 1.244 1_545 S
O207 Mg192 2.013 . S
O207 C196 1.191 . S
O208 C187 1.331 . S
O208 Mg194 2.081 . S
O209 Mg190 1.986 . S
O209 C196 1.307 . S
O210 C188 1.264 . S
O210 Mg194 2.023 . S
O211 C187 1.244 . S
O211 Mg195 1.942 . S
O212 C188 1.273 . S
O212 Mg195 1.955 . S
O213 C186 1.312 . S
O213 Mg189 2.291 . S
O213 Mg192 2.114 . S
O214 C186 1.208 . S
O214 Mg194 2.031 1_455 S
C215 O200 1.264 . S
C215 O202 1.273 . S
C216 O197 1.191 . S
C216 O199 1.307 . S
C217 O244 1.312 . S
C217 O245 1.208 . S
C218 O239 1.331 . S
C218 O242 1.244 . S
C219 O241 1.264 . S
C219 O243 1.273 . S
Mg220 O222 1.936 . S
Mg220 O229 2.081 . S
Mg220 O231 2.023 . S
Mg220 O235 2.031 . S
Mg220 O244 2.291 . S
Mg221 O222 1.963 . S
Mg221 O232 1.942 . S
Mg221 O233 1.955 . S
Mg221 O240 1.986 . S
O222 Mg220 1.936 . S
O222 Mg221 1.963 . S
O222 Mg223 1.915 . S
Mg223 O222 1.915 . S
Mg223 O224 1.915 . S
Mg223 O228 2.013 . S
Mg223 O234 2.114 . S
Mg223 O238 2.013 . S
Mg223 O244 2.114 . S
O224 Mg223 1.915 . S
O224 Mg225 1.936 . S
O224 Mg226 1.963 . S
Mg225 O224 1.936 . S
Mg225 O234 2.291 . S
Mg225 O239 2.081 . S
Mg225 O241 2.023 . S
Mg225 O245 2.031 . S
Mg226 O224 1.963 . S
Mg226 O230 1.986 . S
Mg226 O242 1.942 . S
Mg226 O243 1.955 . S
C227 O238 1.191 . S
C227 O240 1.307 . S
O228 Mg223 2.013 . S
O228 C247 1.191 . S
O229 Mg220 2.081 . S
O229 C237 1.331 . S
O230 Mg226 1.986 . S
O230 C247 1.307 . S
O231 Mg220 2.023 . S
O231 C246 1.264 . S
O232 Mg221 1.942 . S
O232 C237 1.244 . S
O233 Mg221 1.955 . S
O233 C246 1.273 . S
O234 Mg223 2.114 . S
O234 Mg225 2.291 . S
O234 C236 1.312 . S
O235 Mg220 2.031 . S
O235 C236 1.208 . S
C236 O234 1.312 . S
C236 O235 1.208 . S
C237 O229 1.331 . S
C237 O232 1.244 . S
O238 Mg223 2.013 . S
O238 C227 1.191 . S
O239 C218 1.331 . S
O239 Mg225 2.081 . S
O240 Mg221 1.986 . S
O240 C227 1.307 . S
O241 C219 1.264 . S
O241 Mg225 2.023 . S
O242 C218 1.244 . S
O242 Mg226 1.942 . S
O243 C219 1.273 . S
O243 Mg226 1.955 . S
O244 C217 1.312 . S
O244 Mg220 2.291 . S
O244 Mg223 2.114 . S
O245 C217 1.208 . S
O245 Mg225 2.031 . S
C246 O231 1.264 . S
C246 O233 1.273 . S
C247 O228 1.191 . S
C247 O230 1.307 . S
C248 C249 1.387 . S
C248 H252 0.950 . S
C248 C257 1.390 . S
C249 C248 1.387 . S
C249 C251 1.387 . S
H250 C257 0.950 . S
C251 C249 1.387 . S
C251 C253 1.390 . S
C251 H255 0.950 . S
H252 C248 0.950 . S
C253 C251 1.390 . S
C253 C254 1.387 . S
C253 H256 0.950 . S
C254 C253 1.387 . S
C254 C257 1.387 . S
H255 C251 0.950 . S
H256 C253 0.950 . S
C257 C248 1.390 . S
C257 H250 0.950 . S
C257 C254 1.387 . S
C258 C259 1.387 . S
C258 H262 0.950 . S
C258 C267 1.390 . S
C259 C258 1.387 . S
C259 C261 1.387 . S
H260 C267 0.950 . S
C261 C259 1.387 . S
C261 C263 1.390 . S
C261 H265 0.950 . S
H262 C258 0.950 . S
C263 C261 1.390 . S
C263 C264 1.387 . S
C263 H266 0.950 . S
C264 C263 1.387 . S
C264 C267 1.387 . S
H265 C261 0.950 . S
H266 C263 0.950 . S
C267 C258 1.390 . S
C267 H260 0.950 . S
C267 C264 1.387 . S
C268 C269 1.387 . S
C268 H272 0.950 . S
C268 C277 1.390 . S
C269 C268 1.387 . S
C269 C271 1.387 . S
H270 C277 0.950 . S
C271 C269 1.387 . S
C271 C273 1.390 . S
C271 H275 0.950 . S
H272 C268 0.950 . S
C273 C271 1.390 . S
C273 C274 1.387 . S
C273 H276 0.950 . S
C274 C273 1.387 . S
C274 C277 1.387 . S
H275 C271 0.950 . S
H276 C273 0.950 . S
C277 C268 1.390 . S
C277 H270 0.950 . S
C277 C274 1.387 . S
C278 C279 1.387 . S
C278 H282 0.950 . S
C278 C287 1.390 . S
C279 C278 1.387 . S
C279 C281 1.387 . S
H280 C287 0.950 . S
C281 C279 1.387 . S
C281 C283 1.390 . S
C281 H285 0.950 . S
H282 C278 0.950 . S
C283 C281 1.390 . S
C283 C284 1.387 . S
C283 H286 0.950 . S
C284 C283 1.387 . S
C284 C287 1.387 . S
H285 C281 0.950 . S
H286 C283 0.950 . S
C287 C278 1.390 . S
C287 H280 0.950 . S
C287 C284 1.387 . S
C288 C289 1.387 . S
C288 H292 0.950 . S
C288 C297 1.390 . S
C289 C288 1.387 . S
C289 C291 1.387 . S
H290 C297 0.950 . S
C291 C289 1.387 . S
C291 C293 1.390 . S
C291 H295 0.950 . S
H292 C288 0.950 . S
C293 C291 1.390 . S
C293 C294 1.387 . S
C293 H296 0.950 . S
C294 C293 1.387 . S
C294 C297 1.387 . S
H295 C291 0.950 . S
H296 C293 0.950 . S
C297 C288 1.390 . S
C297 H290 0.950 . S
C297 C294 1.387 . S
C298 C299 1.387 . S
C298 H302 0.950 . S
C298 C307 1.390 . S
C299 C298 1.387 . S
C299 C301 1.387 . S
H300 C307 0.950 . S
C301 C299 1.387 . S
C301 C303 1.390 . S
C301 H305 0.950 . S
H302 C298 0.950 . S
C303 C301 1.390 . S
C303 C304 1.387 . S
C303 H306 0.950 . S
C304 C303 1.387 . S
C304 C307 1.387 . S
H305 C301 0.950 . S
H306 C303 0.950 . S
C307 C298 1.390 . S
C307 H300 0.950 . S
C307 C304 1.387 . S
C308 C309 1.387 . S
C308 H312 0.950 . S
C308 C317 1.390 . S
C309 C308 1.387 . S
C309 C311 1.387 . S
H310 C317 0.950 . S
C311 C309 1.387 . S
C311 C313 1.390 . S
C311 H315 0.950 . S
H312 C308 0.950 . S
C313 C311 1.390 . S
C313 C314 1.387 . S
C313 H316 0.950 . S
C314 C313 1.387 . S
C314 C317 1.387 . S
H315 C311 0.950 . S
H316 C313 0.950 . S
C317 C308 1.390 . S
C317 H310 0.950 . S
C317 C314 1.387 . S
C318 C319 1.387 . S
C318 H322 0.950 . S
C318 C327 1.390 . S
C319 C318 1.387 . S
C319 C321 1.387 . S
H320 C327 0.950 . S
C321 C319 1.387 . S
C321 C323 1.390 . S
C321 H325 0.950 . S
H322 C318 0.950 . S
C323 C321 1.390 . S
C323 C324 1.387 . S
C323 H326 0.950 . S
C324 C323 1.387 . S
C324 C327 1.387 . S
H325 C321 0.950 . S
H326 C323 0.950 . S
C327 C318 1.390 . S
C327 H320 0.950 . S
C327 C324 1.387 . S
C328 C329 1.387 . S
C328 H332 0.950 . S
C328 C337 1.390 . S
C329 C328 1.387 . S
C329 C331 1.387 . S
H330 C337 0.950 . S
C331 C329 1.387 . S
C331 C333 1.390 . S
C331 H335 0.950 . S
H332 C328 0.950 . S
C333 C331 1.390 . S
C333 C334 1.387 . S
C333 H336 0.950 . S
C334 C333 1.387 . S
C334 C337 1.387 . S
H335 C331 0.950 . S
H336 C333 0.950 . S
C337 C328 1.390 . S
C337 H330 0.950 . S
C337 C334 1.387 . S
C338 C339 1.387 1_655 S
C338 H342 0.950 1_655 S
C338 C347 1.390 . S
C339 C338 1.387 1_455 S
C339 C341 1.388 . S
H340 C347 0.950 . S
C341 C339 1.388 . S
C341 C343 1.390 1_455 S
C341 H345 0.950 . S
H342 C338 0.950 1_455 S
C343 C341 1.390 1_655 S
C343 C344 1.387 . S
C343 H346 0.950 . S
C344 C343 1.387 . S
C344 C347 1.387 . S
H345 C341 0.950 . S
H346 C343 0.950 . S
C347 C338 1.390 . S
C347 H340 0.950 . S
C347 C344 1.387 . S
C348 C349 1.387 . S
C348 H352 0.950 . S
C348 C357 1.390 . S
C349 C348 1.387 . S
C349 C351 1.387 . S
H350 C357 0.950 . S
C351 C349 1.387 . S
C351 C353 1.390 . S
C351 H355 0.950 . S
H352 C348 0.950 . S
C353 C351 1.390 . S
C353 C354 1.387 . S
C353 H356 0.950 . S
C354 C353 1.387 . S
C354 C357 1.387 . S
H355 C351 0.950 . S
H356 C353 0.950 . S
C357 C348 1.390 . S
C357 H350 0.950 . S
C357 C354 1.387 . S
C358 C359 1.387 1_455 S
C358 H362 0.950 . S
C358 C367 1.390 . S
C359 C358 1.387 1_655 S
C359 C361 1.387 . S
H360 C367 0.950 . S
C361 C359 1.387 . S
C361 C363 1.390 . S
C361 H365 0.950 . S
H362 C358 0.950 . S
C363 C361 1.390 . S
C363 C364 1.387 1_655 S
C363 H366 0.950 . S
C364 C363 1.387 1_455 S
C364 C367 1.387 . S
H365 C361 0.950 . S
H366 C363 0.950 . S
C367 C358 1.390 . S
C367 H360 0.950 . S
C367 C364 1.387 . S
C368 C369 1.387 . S
C368 H372 0.950 . S
C368 C377 1.390 . S
C369 C368 1.387 . S
C369 C371 1.387 . S
H370 C377 0.950 . S
C371 C369 1.387 . S
C371 C373 1.390 . S
C371 H375 0.950 . S
H372 C368 0.950 . S
C373 C371 1.390 . S
C373 C374 1.387 . S
C373 H376 0.950 . S
C374 C373 1.387 . S
C374 C377 1.387 . S
H375 C371 0.950 . S
H376 C373 0.950 . S
C377 C368 1.390 . S
C377 H370 0.950 . S
C377 C374 1.387 . S
C378 C379 1.387 . S
C378 H382 0.950 . S
C378 C387 1.390 1_554 S
C379 C378 1.387 . S
C379 C381 1.387 1_554 S
H380 C387 0.950 . S
C381 C379 1.387 1_556 S
C381 C383 1.390 . S
C381 H385 0.950 . S
H382 C378 0.950 . S
C383 C381 1.390 . S
C383 C384 1.387 . S
C383 H386 0.950 . S
C384 C383 1.387 . S
C384 C387 1.387 . S
H385 C381 0.950 . S
H386 C383 0.950 . S
C387 C378 1.390 1_556 S
C387 H380 0.950 . S
C387 C384 1.387 . S
C388 C389 1.387 . S
C388 H392 0.950 . S
C388 C397 1.390 . S
C389 C388 1.387 . S
C389 C391 1.387 . S
H390 C397 0.950 . S
C391 C389 1.387 . S
C391 C393 1.390 . S
C391 H395 0.950 . S
H392 C388 0.950 . S
C393 C391 1.390 . S
C393 C394 1.387 . S
C393 H396 0.950 . S
C394 C393 1.387 . S
C394 C397 1.387 . S
H395 C391 0.950 . S
H396 C393 0.950 . S
C397 C388 1.390 . S
C397 H390 0.950 . S
C397 C394 1.387 . S
C398 C399 1.387 . S
C398 H402 0.950 . S
C398 C407 1.390 1_554 S
C399 C398 1.387 . S
C399 C401 1.387 . S
H400 C407 0.950 . S
C401 C399 1.387 . S
C401 C403 1.390 . S
C401 H405 0.950 . S
H402 C398 0.950 . S
C403 C401 1.390 . S
C403 C404 1.387 1_554 S
C403 H406 0.950 . S
C404 C403 1.387 1_556 S
C404 C407 1.387 . S
H405 C401 0.950 . S
H406 C403 0.950 . S
C407 C398 1.390 1_556 S
C407 H400 0.950 . S
C407 C404 1.387 . S
C408 C409 1.387 . S
C408 H412 0.950 . S
C408 C417 1.390 . S
C409 C408 1.387 . S
C409 C411 1.387 . S
H410 C417 0.950 . S
C411 C409 1.387 . S
C411 C413 1.390 . S
C411 H415 0.950 . S
H412 C408 0.950 . S
C413 C411 1.390 . S
C413 C414 1.387 . S
C413 H416 0.950 . S
C414 C413 1.387 . S
C414 C417 1.387 . S
H415 C411 0.950 . S
H416 C413 0.950 . S
C417 C408 1.390 . S
C417 H410 0.950 . S
C417 C414 1.387 . S
C418 C419 1.387 . S
C418 H422 0.950 . S
C418 C427 1.390 1_554 S
C419 C418 1.387 . S
C419 C421 1.387 . S
H420 C427 0.950 . S
C421 C419 1.387 . S
C421 C423 1.390 . S
C421 H425 0.950 . S
H422 C418 0.950 . S
C423 C421 1.390 . S
C423 C424 1.387 1_554 S
C423 H426 0.950 . S
C424 C423 1.387 1_556 S
C424 C427 1.387 . S
H425 C421 0.950 . S
H426 C423 0.950 . S
C427 C418 1.390 1_556 S
C427 H420 0.950 . S
C427 C424 1.387 . S
C428 C429 1.387 . S
C428 H432 0.950 . S
C428 C437 1.390 . S
C429 C428 1.387 . S
C429 C431 1.387 . S
H430 C437 0.950 . S
C431 C429 1.387 . S
C431 C433 1.390 . S
C431 H435 0.950 . S
H432 C428 0.950 . S
C433 C431 1.390 . S
C433 C434 1.387 . S
C433 H436 0.950 . S
C434 C433 1.387 . S
C434 C437 1.387 . S
H435 C431 0.950 . S
H436 C433 0.950 . S
C437 C428 1.390 . S
C437 H430 0.950 . S
C437 C434 1.387 . S
C438 C439 1.387 . S
C438 H442 0.950 . S
C438 C447 1.390 1_556 S
C439 C438 1.387 . S
C439 C441 1.387 . S
H440 C447 0.950 . S
C441 C439 1.387 . S
C441 C443 1.390 . S
C441 H445 0.950 . S
H442 C438 0.950 . S
C443 C441 1.390 . S
C443 C444 1.387 1_556 S
C443 H446 0.950 . S
C444 C443 1.387 1_554 S
C444 C447 1.387 . S
H445 C441 0.950 . S
H446 C443 0.950 . S
C447 C438 1.390 1_554 S
C447 H440 0.950 . S
C447 C444 1.387 . S
C448 C449 1.387 . S
C448 H452 0.950 . S
C448 C457 1.390 . S
C449 C448 1.387 . S
C449 C451 1.387 . S
H450 C457 0.950 . S
C451 C449 1.387 . S
C451 C453 1.390 . S
C451 H455 0.950 . S
H452 C448 0.950 . S
C453 C451 1.390 . S
C453 C454 1.387 . S
C453 H456 0.950 . S
C454 C453 1.387 . S
C454 C457 1.387 . S
H455 C451 0.950 . S
H456 C453 0.950 . S
C457 C448 1.390 . S
C457 H450 0.950 . S
C457 C454 1.387 . S
C458 C459 1.387 . S
C458 H462 0.950 . S
C458 C467 1.390 . S
C459 C458 1.387 . S
C459 C461 1.387 . S
H460 C467 0.950 . S
C461 C459 1.387 . S
C461 C463 1.390 . S
C461 H465 0.950 . S
H462 C458 0.950 . S
C463 C461 1.390 . S
C463 C464 1.387 . S
C463 H466 0.950 . S
C464 C463 1.387 . S
C464 C467 1.387 . S
H465 C461 0.950 . S
H466 C463 0.950 . S
C467 C458 1.390 . S
C467 H460 0.950 . S
C467 C464 1.387 . S
C468 C469 1.387 . S
C468 H472 0.950 . S
C468 C477 1.390 . S
C469 C468 1.387 . S
C469 C471 1.387 . S
H470 C477 0.950 . S
C471 C469 1.387 . S
C471 C473 1.390 . S
C471 H475 0.950 . S
H472 C468 0.950 . S
C473 C471 1.390 . S
C473 C474 1.387 . S
C473 H476 0.950 . S
C474 C473 1.387 . S
C474 C477 1.387 . S
H475 C471 0.950 . S
H476 C473 0.950 . S
C477 C468 1.390 . S
C477 H470 0.950 . S
C477 C474 1.387 . S
C478 C479 1.387 . S
C478 H482 0.950 . S
C478 C487 1.390 . S
C479 C478 1.387 . S
C479 C481 1.387 . S
H480 C487 0.950 . S
C481 C479 1.387 . S
C481 C483 1.390 . S
C481 H485 0.950 . S
H482 C478 0.950 . S
C483 C481 1.390 . S
C483 C484 1.387 . S
C483 H486 0.950 . S
C484 C483 1.387 . S
C484 C487 1.387 . S
H485 C481 0.950 . S
H486 C483 0.950 . S
C487 C478 1.390 . S
C487 H480 0.950 . S
C487 C484 1.387 . S
C488 C489 1.387 . S
C488 H492 0.950 . S
C488 C497 1.390 . S
C489 C488 1.387 . S
C489 C491 1.387 . S
H490 C497 0.950 . S
C491 C489 1.387 . S
C491 C493 1.390 . S
C491 H495 0.950 . S
H492 C488 0.950 . S
C493 C491 1.390 . S
C493 C494 1.387 . S
C493 H496 0.950 . S
C494 C493 1.387 . S
C494 C497 1.387 . S
H495 C491 0.950 . S
H496 C493 0.950 . S
C497 C488 1.390 . S
C497 H490 0.950 . S
C497 C494 1.387 . S
C498 C499 1.387 . S
C498 H502 0.950 . S
C498 C507 1.390 . S
C499 C498 1.387 . S
C499 C501 1.387 . S
H500 C507 0.950 . S
C501 C499 1.387 . S
C501 C503 1.390 . S
C501 H505 0.950 . S
H502 C498 0.950 . S
C503 C501 1.390 . S
C503 C504 1.387 . S
C503 H506 0.950 . S
C504 C503 1.387 . S
C504 C507 1.387 . S
H505 C501 0.950 . S
H506 C503 0.950 . S
C507 C498 1.390 . S
C507 H500 0.950 . S
C507 C504 1.387 . S
C508 C509 1.387 . S
C508 H512 0.950 . S
C508 C517 1.390 . S
C509 C508 1.387 . S
C509 C511 1.387 . S
H510 C517 0.950 . S
C511 C509 1.387 . S
C511 C513 1.390 . S
C511 H515 0.950 . S
H512 C508 0.950 . S
C513 C511 1.390 . S
C513 C514 1.387 . S
C513 H516 0.950 . S
C514 C513 1.387 . S
C514 C517 1.387 . S
H515 C511 0.950 . S
H516 C513 0.950 . S
C517 C508 1.390 . S
C517 H510 0.950 . S
C517 C514 1.387 . S
C518 C519 1.387 . S
C518 H522 0.950 . S
C518 C527 1.390 . S
C519 C518 1.387 . S
C519 C521 1.387 . S
H520 C527 0.950 . S
C521 C519 1.387 . S
C521 C523 1.390 . S
C521 H525 0.950 . S
H522 C518 0.950 . S
C523 C521 1.390 . S
C523 C524 1.387 . S
C523 H526 0.950 . S
C524 C523 1.387 . S
C524 C527 1.387 . S
H525 C521 0.950 . S
H526 C523 0.950 . S
C527 C518 1.390 . S
C527 H520 0.950 . S
C527 C524 1.387 . S
C528 C529 1.387 . S
C528 H532 0.950 . S
C528 C537 1.390 . S
C529 C528 1.387 . S
C529 C531 1.387 . S
H530 C537 0.950 . S
C531 C529 1.387 . S
C531 C533 1.390 . S
C531 H535 0.950 . S
H532 C528 0.950 . S
C533 C531 1.390 . S
C533 C534 1.387 . S
C533 H536 0.950 . S
C534 C533 1.387 . S
C534 C537 1.387 . S
H535 C531 0.950 . S
H536 C533 0.950 . S
C537 C528 1.390 . S
C537 H530 0.950 . S
C537 C534 1.387 . S
C538 C539 1.387 1_445 S
C538 H542 0.950 . S
C538 C547 1.390 1_554 S
C539 C538 1.387 1_665 S
C539 C541 1.387 . S
H540 C547 0.950 . S
C541 C539 1.387 . S
C541 C543 1.390 1_554 S
C541 H545 0.950 . S
H542 C538 0.950 . S
C543 C541 1.390 1_556 S
C543 C544 1.387 1_665 S
C543 H546 0.950 . S
C544 C543 1.387 1_445 S
C544 C547 1.387 . S
H545 C541 0.950 . S
H546 C543 0.950 . S
C547 C538 1.390 1_556 S
C547 H540 0.950 . S
C547 C544 1.387 . S
C548 C549 1.387 1_455 S
C548 H552 0.950 . S
C548 C557 1.390 . S
C549 C548 1.387 1_655 S
C549 C551 1.387 1_545 S
H550 C557 0.950 . S
C551 C549 1.387 1_565 S
C551 C553 1.390 . S
C551 H555 0.950 . S
H552 C548 0.950 . S
C553 C551 1.390 . S
C553 C554 1.387 1_655 S
C553 H556 0.950 . S
C554 C553 1.387 1_455 S
C554 C557 1.387 1_565 S
H555 C551 0.950 . S
H556 C553 0.950 . S
C557 C548 1.390 . S
C557 H550 0.950 . S
C557 C554 1.387 1_545 S
C558 C559 1.387 . S
C558 H562 0.950 . S
C558 C567 1.390 1_554 S
C559 C558 1.387 . S
C559 C561 1.387 . S
H560 C567 0.950 . S
C561 C559 1.387 . S
C561 C563 1.390 1_554 S
C561 H565 0.950 . S
H562 C558 0.950 . S
C563 C561 1.390 1_556 S
C563 C564 1.387 . S
C563 H566 0.950 . S
C564 C563 1.387 . S
C564 C567 1.387 . S
H565 C561 0.950 . S
H566 C563 0.950 . S
C567 C558 1.390 1_556 S
C567 H560 0.950 . S
C567 C564 1.387 . S
C249 C20 1.072 1_655 S
C254 C1 1.086 . S
C259 C33 1.597 . S
C264 C60 1.605 . S
C269 C82 1.087 . S
C274 C63 1.070 . S
C279 C122 1.597 1_455 S
C284 C95 1.605 . S
C289 C126 1.604 . S
C294 C153 1.596 1_455 S
C299 C184 1.597 . S
C304 C157 1.605 . S
C309 C188 1.604 . S
C314 C215 1.596 . S
C319 C219 1.597 1_655 S
C324 C246 1.605 . S
C329 C103 1.466 . S
C334 C0 1.481 . S
C339 C61 1.466 . S
C344 C81 1.482 . S
C349 C134 1.365 . S
C354 C247 1.361 . S
C359 C165 1.361 . S
C364 C196 1.365 . S
C369 C92 1.326 . S
C374 C2 1.240 . S
C379 C93 1.327 . S
C384 C51 1.157 . S
C389 C91 1.234 . S
C394 C10 1.322 . S
C399 C94 1.157 . S
C404 C50 1.327 . S
C409 C186 1.293 . S
C414 C125 1.118 . S
C419 C156 1.145 . S
C424 C236 1.310 . S
C429 C187 1.119 . S
C434 C124 1.292 . S
C439 C237 1.145 . S
C444 C155 1.310 . S
C449 C206 1.879 . S
C454 C19 1.908 . S
C459 C41 1.715 . S
C464 C218 1.794 . S
C469 C144 1.879 . S
C474 C62 1.907 . S
C479 C175 1.794 . S
C484 C123 1.713 . S
C489 C154 1.925 . S
C494 C64 1.996 . S
C499 C113 1.797 . S
C504 C185 1.719 . S
C509 C29 1.996 . S
C514 C216 1.923 . S
C519 C227 1.719 . S
C524 C32 1.797 . S
C529 C143 1.377 . S
C534 C30 1.354 . S
C539 C174 1.421 . S
C544 C31 1.420 . S
C549 C72 1.355 . S
C554 C205 1.377 . S
C559 C112 1.419 . S
C564 C217 1.420 . S
