# Generated by pormake.
# Topology whw, (6)-cn, num edge types: 1
# Building blocks:
#     Node 0, Type 0, BuildingBlock: CIFDUS_clean_sbu_1, # of connection points: 6
#     Node 1, Type 0, BuildingBlock: CIFDUS_clean_sbu_1, # of connection points: 6
#     Node 2, Type 0, BuildingBlock: CIFDUS_clean_sbu_1, # of connection points: 6
#     Node 3, Type 0, BuildingBlock: CIFDUS_clean_sbu_1, # of connection points: 6
#     Node 4, Type 0, BuildingBlock: CIFDUS_clean_sbu_1, # of connection points: 6
#     Node 5, Type 0, BuildingBlock: CIFDUS_clean_sbu_1, # of connection points: 6
#     Node 6, Type 0, BuildingBlock: CIFDUS_clean_sbu_1, # of connection points: 6
#     Node 7, Type 0, BuildingBlock: CIFDUS_clean_sbu_1, # of connection points: 6
#     Node 8, Type 0, BuildingBlock: CIFDUS_clean_sbu_1, # of connection points: 6
#     Node 9, Type 0, BuildingBlock: CIFDUS_clean_sbu_1, # of connection points: 6
#     Node 10, Type 0, BuildingBlock: CIFDUS_clean_sbu_1, # of connection points: 6
#     Node 11, Type 0, BuildingBlock: CIFDUS_clean_sbu_1, # of connection points: 6
#     Node 12, Type 0, BuildingBlock: CIFDUS_clean_sbu_1, # of connection points: 6
#     Node 13, Type 0, BuildingBlock: CIFDUS_clean_sbu_1, # of connection points: 6
#     Node 14, Type 0, BuildingBlock: CIFDUS_clean_sbu_1, # of connection points: 6
#     Node 15, Type 0, BuildingBlock: CIFDUS_clean_sbu_1, # of connection points: 6
#     Edge 16, Type (0, 0), BuildingBlock: OJICUG_clean_linker_0, # of connection points: 2
#     Edge 17, Type (0, 0), BuildingBlock: OJICUG_clean_linker_0, # of connection points: 2
#     Edge 18, Type (0, 0), BuildingBlock: OJICUG_clean_linker_0, # of connection points: 2
#     Edge 19, Type (0, 0), BuildingBlock: OJICUG_clean_linker_0, # of connection points: 2
#     Edge 20, Type (0, 0), BuildingBlock: OJICUG_clean_linker_0, # of connection points: 2
#     Edge 21, Type (0, 0), BuildingBlock: OJICUG_clean_linker_0, # of connection points: 2
#     Edge 22, Type (0, 0), BuildingBlock: OJICUG_clean_linker_0, # of connection points: 2
#     Edge 23, Type (0, 0), BuildingBlock: OJICUG_clean_linker_0, # of connection points: 2
#     Edge 24, Type (0, 0), BuildingBlock: OJICUG_clean_linker_0, # of connection points: 2
#     Edge 25, Type (0, 0), BuildingBlock: OJICUG_clean_linker_0, # of connection points: 2
#     Edge 26, Type (0, 0), BuildingBlock: OJICUG_clean_linker_0, # of connection points: 2
#     Edge 27, Type (0, 0), BuildingBlock: OJICUG_clean_linker_0, # of connection points: 2
#     Edge 28, Type (0, 0), BuildingBlock: OJICUG_clean_linker_0, # of connection points: 2
#     Edge 29, Type (0, 0), BuildingBlock: OJICUG_clean_linker_0, # of connection points: 2
#     Edge 30, Type (0, 0), BuildingBlock: OJICUG_clean_linker_0, # of connection points: 2
#     Edge 31, Type (0, 0), BuildingBlock: OJICUG_clean_linker_0, # of connection points: 2
#     Edge 32, Type (0, 0), BuildingBlock: OJICUG_clean_linker_0, # of connection points: 2
#     Edge 33, Type (0, 0), BuildingBlock: OJICUG_clean_linker_0, # of connection points: 2
#     Edge 34, Type (0, 0), BuildingBlock: OJICUG_clean_linker_0, # of connection points: 2
#     Edge 35, Type (0, 0), BuildingBlock: OJICUG_clean_linker_0, # of connection points: 2
#     Edge 36, Type (0, 0), BuildingBlock: OJICUG_clean_linker_0, # of connection points: 2
#     Edge 37, Type (0, 0), BuildingBlock: OJICUG_clean_linker_0, # of connection points: 2
#     Edge 38, Type (0, 0), BuildingBlock: OJICUG_clean_linker_0, # of connection points: 2
#     Edge 39, Type (0, 0), BuildingBlock: OJICUG_clean_linker_0, # of connection points: 2
#     Edge 40, Type (0, 0), BuildingBlock: OJICUG_clean_linker_0, # of connection points: 2
#     Edge 41, Type (0, 0), BuildingBlock: OJICUG_clean_linker_0, # of connection points: 2
#     Edge 42, Type (0, 0), BuildingBlock: OJICUG_clean_linker_0, # of connection points: 2
#     Edge 43, Type (0, 0), BuildingBlock: OJICUG_clean_linker_0, # of connection points: 2
#     Edge 44, Type (0, 0), BuildingBlock: OJICUG_clean_linker_0, # of connection points: 2
#     Edge 45, Type (0, 0), BuildingBlock: OJICUG_clean_linker_0, # of connection points: 2
#     Edge 46, Type (0, 0), BuildingBlock: OJICUG_clean_linker_0, # of connection points: 2
#     Edge 47, Type (0, 0), BuildingBlock: OJICUG_clean_linker_0, # of connection points: 2
#     Edge 48, Type (0, 0), BuildingBlock: OJICUG_clean_linker_0, # of connection points: 2
#     Edge 49, Type (0, 0), BuildingBlock: OJICUG_clean_linker_0, # of connection points: 2
#     Edge 50, Type (0, 0), BuildingBlock: OJICUG_clean_linker_0, # of connection points: 2
#     Edge 51, Type (0, 0), BuildingBlock: OJICUG_clean_linker_0, # of connection points: 2
#     Edge 52, Type (0, 0), BuildingBlock: OJICUG_clean_linker_0, # of connection points: 2
#     Edge 53, Type (0, 0), BuildingBlock: OJICUG_clean_linker_0, # of connection points: 2
#     Edge 54, Type (0, 0), BuildingBlock: OJICUG_clean_linker_0, # of connection points: 2
#     Edge 55, Type (0, 0), BuildingBlock: OJICUG_clean_linker_0, # of connection points: 2
#     Edge 56, Type (0, 0), BuildingBlock: OJICUG_clean_linker_0, # of connection points: 2
#     Edge 57, Type (0, 0), BuildingBlock: OJICUG_clean_linker_0, # of connection points: 2
#     Edge 58, Type (0, 0), BuildingBlock: OJICUG_clean_linker_0, # of connection points: 2
#     Edge 59, Type (0, 0), BuildingBlock: OJICUG_clean_linker_0, # of connection points: 2
#     Edge 60, Type (0, 0), BuildingBlock: OJICUG_clean_linker_0, # of connection points: 2
#     Edge 61, Type (0, 0), BuildingBlock: OJICUG_clean_linker_0, # of connection points: 2
#     Edge 62, Type (0, 0), BuildingBlock: OJICUG_clean_linker_0, # of connection points: 2
#     Edge 63, Type (0, 0), BuildingBlock: OJICUG_clean_linker_0, # of connection points: 2
# Relax obj value: 0.548
# Max RMSD: 0.240
# Mean RMSD: 0.240
data_MOF--net-whw--node1-CIFDUS_clean_sbu_1--edge1-OJICUG_clean_linker_0
_symmetry_space_group_name_H-M    P1
_symmetry_Int_Tables_number       1
_symmetry_cell_setting            triclinic
loop_
_symmetry_equiv_pos_as_xyz
'x, y, z'
_cell_length_a     37.167252
_cell_length_b     37.142403
_cell_length_c     17.546732
_cell_angle_alpha  89.941627
_cell_angle_beta   89.827424
_cell_angle_gamma 89.928455
loop_
_atom_site_label
_atom_site_type_symbol
_atom_site_fract_x
_atom_site_fract_y
_atom_site_fract_z
_atom_type_partial_charge
O0 O 0.06498 0.12362 0.07471 0.0
Mn1 Mn 0.02607 0.12909 0.16612 0.0
O2 O 0.08781 0.17909 0.06157 0.0
Mn3 Mn 0.04483 0.20096 0.08412 0.0
O4 O 0.98778 0.13652 0.25338 0.0
O5 O 0.01804 0.07423 0.17134 0.0
Mn6 Mn 0.01919 0.06479 0.27206 0.0
O7 O 0.06754 0.12525 0.24539 0.0
O8 O 0.98295 0.08745 0.32605 0.0
O9 O 0.98624 0.1371 0.08105 0.0
O10 O 0.00552 0.18862 1.02327 0.0
O11 O 0.01092 0.02155 0.23052 0.0
O12 O 0.06433 0.07353 0.30987 0.0
C13 C 0.03211 0.21368 0.20076 0.0
C14 C 0.08844 0.14579 0.04557 0.0
C15 C 0.97406 0.11952 0.31025 0.0
C16 C 0.01297 0.03938 0.16701 0.0
C17 C 0.08007 0.10282 0.29411 0.0
C18 C 0.98357 0.16212 0.0294 0.0
O19 O 0.03328 0.18206 0.17121 0.0
O20 O 0.04177 0.23855 0.1533 0.0
O21 O 0.12688 0.81146 0.47756 0.0
Mn22 Mn 0.12527 0.7703 0.39703 0.0
O23 O 0.17523 0.80531 0.55212 0.0
Mn24 Mn 0.18406 0.75912 0.51836 0.0
O25 O 0.1213 0.72872 0.31235 0.0
O26 O 0.07422 0.78397 0.38323 0.0
Mn27 Mn 0.05952 0.78192 0.28941 0.0
O28 O 0.13922 0.80869 0.31008 0.0
O29 O 0.06524 0.73418 0.26398 0.0
O30 O 0.10896 0.73285 0.48254 0.0
O31 O 0.15491 0.725 0.56397 0.0
O32 O 0.02188 0.80031 0.34599 0.0
O33 O 0.08837 0.8141 0.23958 0.0
C34 C 0.21207 0.75115 0.4145 0.0
C35 C 0.14738 0.82254 0.53131 0.0
C36 C 0.09488 0.71722 0.27055 0.0
C37 C 0.04398 0.79791 0.40283 0.0
C38 C 0.12046 0.82326 0.25553 0.0
C39 C 0.12276 0.7187 0.54324 0.0
O40 O 0.17784 0.75831 0.41785 0.0
O41 O 0.22815 0.74773 0.47957 0.0
O42 O 0.44922 0.88092 0.56701 0.0
Mn43 Mn 0.48841 0.87049 0.65427 0.0
O44 O 0.4396 0.82637 0.51263 0.0
Mn45 Mn 0.47452 0.80017 0.56108 0.0
O46 O 0.52737 0.85737 0.73774 0.0
O47 O 0.49976 0.92402 0.66686 0.0
Mn48 Mn 0.50057 0.93187 0.76752 0.0
O49 O 0.44823 0.87419 0.73664 0.0
O50 O 0.53639 0.90509 0.81337 0.0
O51 O 0.52828 0.86377 0.56711 0.0
O52 O 0.52098 0.80649 0.52552 0.0
O53 O 0.51045 0.97542 0.72587 0.0
O54 O 0.45549 0.9234 0.80802 0.0
C55 C 0.46416 0.78936 0.68022 0.0
C56 C 0.43252 0.85978 0.51965 0.0
C57 C 0.54283 0.87266 0.79491 0.0
C58 C 0.50654 0.95838 0.66194 0.0
C59 C 0.43793 0.89541 0.78991 0.0
C60 C 0.53819 0.83623 0.52647 0.0
O61 O 0.47584 0.8189 0.65154 0.0
O62 O 0.46012 0.76468 0.62876 0.0
O63 O 0.37743 0.19383 0.8259 0.0
Mn64 Mn 0.38342 0.23281 0.91657 0.0
O65 O 0.43237 0.1696 0.81406 0.0
Mn66 Mn 0.45499 0.21227 0.83524 0.0
O67 O 0.39118 0.2711 1.0032 0.0
O68 O 0.3289 0.24204 0.92147 0.0
Mn69 Mn 0.31859 0.24124 1.02178 0.0
O70 O 0.37867 0.19169 0.99675 0.0
O71 O 0.34185 0.27723 0.07494 0.0
O72 O 0.39227 0.27226 0.83084 0.0
O73 O 0.44332 0.25158 0.77325 0.0
O74 O 0.27588 0.25027 0.97785 0.0
O75 O 0.32678 0.19599 0.06062 0.0
C76 C 0.46779 0.22534 0.95153 0.0
C77 C 0.39917 0.16974 0.79752 0.0
C78 C 0.37416 0.28533 0.05946 0.0
C79 C 0.29432 0.24787 0.91514 0.0
C80 C 0.35594 0.17975 0.04565 0.0
C81 C 0.41727 0.27415 0.77898 0.0
O82 O 0.43621 0.22458 0.922 0.0
O83 O 0.49253 0.21497 0.90439 0.0
O84 O 0.06356 0.88133 0.96822 0.0
Mn85 Mn 0.02236 0.87199 0.88393 0.0
O86 O 0.09394 0.82946 0.96855 0.0
Mn87 Mn 0.05225 0.80326 0.96298 0.0
O88 O 0.98314 0.86102 0.80024 0.0
O89 O 0.01002 0.92603 0.88064 0.0
Mn90 Mn 0.00252 0.93529 0.7815 0.0
O91 O 0.06024 0.87981 0.79837 0.0
O92 O 0.96297 0.91115 0.74514 0.0
O93 O 0.98605 0.85969 0.9744 0.0
O94 O 0.01562 0.81372 0.03376 0.0
O95 O 0.99564 0.9782 0.82628 0.0
O96 O 0.04433 0.9271 0.72664 0.0
C97 C 0.031 0.78761 0.85412 0.0
C98 C 0.0915 0.8623 0.98757 0.0
C99 C 0.96189 0.87739 0.7539 0.0
C100 C 0.00315 0.96043 0.88793 0.0
C101 C 0.06551 0.90124 0.74217 0.0
C102 C 0.98922 0.836 0.02886 0.0
O103 O 0.03404 0.81986 0.87926 0.0
O104 O 0.04629 0.76423 0.89803 0.0
O105 O 0.37714 0.80577 0.21847 0.0
Mn106 Mn 0.38373 0.76407 0.13396 0.0
O107 O 0.43162 0.83089 0.22769 0.0
Mn108 Mn 0.45479 0.78796 0.21141 0.0
O109 O 0.39134 0.72268 0.05283 0.0
O110 O 0.32888 0.7553 0.13225 0.0
Mn111 Mn 0.31962 0.75314 0.03137 0.0
O112 O 0.37919 0.80288 0.04898 0.0
O113 O 0.34151 0.71449 0.9846 0.0
O114 O 0.39334 0.72717 0.22455 0.0
O115 O 0.44423 0.75009 0.27815 0.0
O116 O 0.27641 0.74621 0.07385 0.0
O117 O 0.32826 0.79655 0.98386 0.0
C118 C 0.46824 0.77259 0.09679 0.0
C119 C 0.39825 0.83111 0.24292 0.0
C120 C 0.37371 0.70628 1.00027 0.0
C121 C 0.29406 0.74992 0.13706 0.0
C122 C 0.35713 0.81334 0.9977 0.0
C123 C 0.41869 0.72688 0.27562 0.0
O124 O 0.43654 0.77277 0.12638 0.0
O125 O 0.49256 0.78468 0.14267 0.0
O126 O 0.45088 0.12058 0.4715 0.0
Mn127 Mn 0.48973 0.12699 0.38035 0.0
O128 O 0.42614 0.17532 0.48322 0.0
Mn129 Mn 0.46856 0.19835 0.46142 0.0
O130 O 0.52791 0.13538 0.29327 0.0
O131 O 0.49944 0.07241 0.37624 0.0
Mn132 Mn 0.49921 0.06268 0.27559 0.0
O133 O 0.44866 0.12185 0.30062 0.0
O134 O 0.53509 0.08616 0.22217 0.0
O135 O 0.52908 0.13616 0.46553 0.0
O136 O 0.508 0.18703 0.52301 0.0
O137 O 0.50852 0.01982 0.31844 0.0
O138 O 0.45408 0.07032 0.23618 0.0
C139 C 0.48129 0.21139 0.34492 0.0
C140 C 0.42663 0.14209 0.50001 0.0
C141 C 0.54257 0.11863 0.23716 0.0
C142 C 0.50547 0.03774 0.3816 0.0
C143 C 0.43727 0.09913 0.25142 0.0
C144 C 0.53079 0.16117 0.51717 0.0
O145 O 0.48097 0.17975 0.37459 0.0
O146 O 0.47076 0.236 0.39212 0.0
O147 O 0.13699 0.1953 0.54817 0.0
Mn148 Mn 0.1306 0.23606 0.6283 0.0
O149 O 0.18831 0.2024 0.48303 0.0
Mn150 Mn 0.19534 0.2475 0.52354 0.0
O151 O 0.12044 0.27511 0.71381 0.0
O152 O 0.07805 0.22636 0.62264 0.0
Mn153 Mn 0.05975 0.21311 0.70927 0.0
O154 O 0.13767 0.19728 0.7193 0.0
O155 O 0.0704 0.25243 0.7719 0.0
O156 O 0.12163 0.2741 0.54139 0.0
O157 O 0.17109 0.28333 0.4717 0.0
O158 O 0.02205 0.21519 0.64045 0.0
O159 O 0.08373 0.17098 0.72932 0.0
C160 C 0.21917 0.25316 0.63101 0.0
C161 C 0.16001 0.18477 0.49843 0.0
C162 C 0.09557 0.27593 0.76603 0.0
C163 C 0.0464 0.2265 0.59339 0.0
C164 C 0.11674 0.1724 0.74719 0.0
C165 C 0.13829 0.28964 0.48619 0.0
O166 O 0.18477 0.24674 0.62366 0.0
O167 O 0.23765 0.25715 0.56872 0.0
O168 O 0.87608 0.30687 0.72575 0.0
Mn169 Mn 0.88769 0.26549 0.64415 0.0
O170 O 0.93013 0.32113 0.77673 0.0
Mn171 Mn 0.95715 0.28466 0.73562 0.0
O172 O 0.90146 0.22428 0.56565 0.0
O173 O 0.83393 0.25374 0.63358 0.0
Mn174 Mn 0.82738 0.24982 0.5327 0.0
O175 O 0.8838 0.30359 0.55783 0.0
O176 O 0.85352 0.21198 0.49352 0.0
O177 O 0.89537 0.2279 0.73578 0.0
O178 O 0.95154 0.23979 0.77967 0.0
O179 O 0.78339 0.24126 0.57193 0.0
O180 O 0.83591 0.29331 0.48488 0.0
C181 C 0.96853 0.29036 0.61539 0.0
C182 C 0.89648 0.32649 0.76912 0.0
C183 C 0.88601 0.20636 0.51201 0.0
C184 C 0.79944 0.2469 0.63637 0.0
C185 C 0.86315 0.31206 0.50246 0.0
C186 C 0.9229 0.22082 0.77907 0.0
O187 O 0.93914 0.27889 0.64529 0.0
O188 O 0.99279 0.29693 0.66644 0.0
O189 O 0.62914 0.69086 0.06107 0.0
Mn190 Mn 0.62598 0.73119 0.14288 0.0
O191 O 0.67816 0.69769 0.98852 0.0
Mn192 Mn 0.68714 0.74264 0.02852 0.0
O193 O 0.61984 0.77122 0.22972 0.0
O194 O 0.57427 0.71932 0.14636 0.0
Mn195 Mn 0.55553 0.71834 0.23696 0.0
O196 O 0.6359 0.69189 0.23059 0.0
O197 O 0.56247 0.76479 0.2717 0.0
O198 O 0.61323 0.77034 0.05918 0.0
O199 O 0.66089 0.77891 0.98289 0.0
O200 O 0.51992 0.70426 0.16973 0.0
O201 O 0.58127 0.68314 0.28573 0.0
C202 C 0.71415 0.7479 0.13297 0.0
C203 C 0.65016 0.68032 1.00758 0.0
C204 C 0.59243 0.78157 0.2704 0.0
C205 C 0.54464 0.70796 0.11804 0.0
C206 C 0.61455 0.67556 0.27847 0.0
C207 C 0.6286 0.78572 1.00176 0.0
O208 O 0.67966 0.7417 0.12934 0.0
O209 O 0.73094 0.75183 0.06858 0.0
O210 O 0.62865 0.30456 0.98684 0.0
Mn211 Mn 0.62517 0.26626 0.90113 0.0
O212 O 0.67692 0.29529 0.05927 0.0
Mn213 Mn 0.68584 0.25177 1.01208 0.0
O214 O 0.61786 0.22849 0.81013 0.0
O215 O 0.5735 0.27904 0.90054 0.0
Mn216 Mn 0.55518 0.28442 0.81036 0.0
O217 O 0.6359 0.30767 0.81879 0.0
O218 O 0.5614 0.23956 0.76676 0.0
O219 O 0.61221 0.22498 0.98025 0.0
O220 O 0.66042 0.21376 0.05247 0.0
O221 O 0.51951 0.29631 0.87977 0.0
O222 O 0.58148 0.32118 0.76846 0.0
C223 C 0.71376 0.24856 0.90863 0.0
C224 C 0.64931 0.31354 0.04173 0.0
C225 C 0.59035 0.22099 0.76726 0.0
C226 C 0.54398 0.29011 0.93064 0.0
C227 C 0.61508 0.32695 0.77545 0.0
C228 C 0.62803 0.20751 0.03419 0.0
O229 O 0.67917 0.25514 0.91106 0.0
O230 O 0.7299 0.2435 0.97323 0.0
O231 O 0.87435 0.69077 0.32901 0.0
Mn232 Mn 0.88336 0.73207 0.41336 0.0
O233 O 0.92643 0.66079 0.32812 0.0
Mn234 Mn 0.9523 0.70269 0.33403 0.0
O235 O 0.89402 0.77137 0.49718 0.0
O236 O 0.82921 0.74401 0.41644 0.0
Mn237 Mn 0.82015 0.75112 0.51597 0.0
O238 O 0.87591 0.69402 0.49876 0.0
O239 O 0.8438 0.79083 0.55307 0.0
O240 O 0.89544 0.76849 0.32301 0.0
O241 O 0.94166 0.73929 0.26348 0.0
O242 O 0.77714 0.75788 0.47246 0.0
O243 O 0.82843 0.70932 0.57052 0.0
C244 C 0.96772 0.72399 0.44302 0.0
C245 C 0.89356 0.66295 0.3095 0.0
C246 C 0.8775 0.79235 0.54397 0.0
C247 C 0.79476 0.75087 0.41024 0.0
C248 C 0.85451 0.68844 0.5549 0.0
C249 C 0.91918 0.76553 0.26853 0.0
O250 O 0.93553 0.72076 0.41789 0.0
O251 O 0.99122 0.70888 0.39898 0.0
O252 O 0.5602 0.62047 0.58129 0.0
Mn253 Mn 0.51866 0.62756 0.66633 0.0
O254 O 0.58601 0.67465 0.57168 0.0
Mn255 Mn 0.54336 0.69832 0.58784 0.0
O256 O 0.47742 0.63569 0.74786 0.0
O257 O 0.50941 0.57283 0.66916 0.0
Mn258 Mn 0.50661 0.56337 0.76984 0.0
O259 O 0.55735 0.62242 0.75093 0.0
O260 O 0.46808 0.5858 0.81592 0.0
O261 O 0.48185 0.63755 0.57601 0.0
O262 O 0.50545 0.68807 0.52144 0.0
O263 O 0.49953 0.52025 0.72708 0.0
O264 O 0.54997 0.5717 0.81714 0.0
C265 C 0.52806 0.7121 0.70229 0.0
C266 C 0.58578 0.6413 0.55641 0.0
C267 C 0.46054 0.61821 0.80029 0.0
C268 C 0.50386 0.53806 0.66405 0.0
C269 C 0.56731 0.60021 0.80251 0.0
C270 C 0.48191 0.66284 0.52454 0.0
O271 O 0.52793 0.68032 0.6732 0.0
O272 O 0.54045 0.73624 0.65599 0.0
O273 O 0.94819 0.38092 0.07 0.0
Mn274 Mn 0.98972 0.37036 0.15166 0.0
O275 O 0.93428 0.32634 1.02097 0.0
Mn276 Mn 0.97132 0.30015 0.06188 0.0
O277 O 0.03113 0.35778 0.23024 0.0
O278 O 0.00078 0.42433 0.16069 0.0
Mn279 Mn 0.00412 0.43171 0.26146 0.0
O280 O 0.95167 0.37412 0.23807 0.0
O281 O 0.04221 0.40639 0.30162 0.0
O282 O 0.02727 0.36275 0.06015 0.0
O283 O 0.01592 0.30631 1.01681 0.0
O284 O 0.01224 0.47553 0.22095 0.0
O285 O 0.96073 0.42282 0.3095 0.0
C286 C 0.96629 0.2891 0.18235 0.0
C287 C 0.92866 0.36002 0.02753 0.0
C288 C 0.04856 0.37391 0.28371 0.0
C289 C 0.0073 0.45887 0.15687 0.0
C290 C 0.94269 0.39498 0.29283 0.0
C291 C 0.03456 0.33519 1.01702 0.0
O292 O 0.97705 0.31864 0.15188 0.0
O293 O 0.95992 0.26455 0.13171 0.0
O294 O 0.56234 0.38066 0.47341 0.0
Mn295 Mn 0.52093 0.3695 0.39183 0.0
O296 O 0.57668 0.32632 0.52357 0.0
Mn297 Mn 0.54006 0.29965 0.48277 0.0
O298 O 0.47971 0.35633 0.31346 0.0
O299 O 0.50924 0.42318 0.38108 0.0
Mn300 Mn 0.50528 0.43078 0.28067 0.0
O301 O 0.55888 0.37362 0.30529 0.0
O302 O 0.46742 0.40474 0.2419 0.0
O303 O 0.48343 0.36173 0.4836 0.0
O304 O 0.49534 0.30542 0.5275 0.0
O305 O 0.49699 0.4745 0.32222 0.0
O306 O 0.54876 0.42198 0.23283 0.0
C307 C 0.54537 0.28847 0.36244 0.0
C308 C 0.58199 0.36002 0.51644 0.0
C309 C 0.46178 0.37216 0.2602 0.0
C310 C 0.50257 0.45762 0.38585 0.0
C311 C 0.56737 0.39451 0.25012 0.0
C312 C 0.47641 0.33415 0.52704 0.0
O313 O 0.53421 0.31793 0.39256 0.0
O314 O 0.552 0.26406 0.41338 0.0
O315 O 0.94712 0.61531 0.98722 0.0
Mn316 Mn 0.98545 0.62957 0.90041 0.0
O317 O 0.94116 0.66616 0.05787 0.0
Mn318 Mn 0.97326 0.69524 1.0084 0.0
O319 O 0.02287 0.64619 0.81505 0.0
O320 O 0.99774 0.57699 0.87957 0.0
Mn321 Mn 0.99714 0.571 0.77892 0.0
O322 O 0.9444 0.62776 0.8198 0.0
O323 O 0.03115 0.60029 0.73346 0.0
O324 O 0.02689 0.63376 0.98512 0.0
O325 O 0.02095 0.68976 0.03405 0.0
O326 O 0.0087 0.52687 0.81685 0.0
O327 O 0.95102 0.57949 0.7449 0.0
C328 C 0.95742 0.71078 0.89503 0.0
C329 C 0.93231 0.63396 0.04176 0.0
C330 C 0.03719 0.6325 0.75431 0.0
C331 C 0.00507 0.54274 0.88222 0.0
C332 C 0.93357 0.60722 0.76582 0.0
C333 C 0.03813 0.66023 0.0272 0.0
O334 O 0.97147 0.68057 0.91446 0.0
O335 O 0.95481 0.73285 0.95202 0.0
C336 C 0.13783 0.16129 0.95381 0.0
C337 C 0.10964 0.13755 0.97488 0.0
H338 H 0.1629 0.19123 0.86329 0.0
C339 C 0.09454 0.11619 0.91743 0.0
H340 H 0.15059 0.17788 0.99668 0.0
C341 C 0.10261 0.12319 0.84041 0.0
C342 C 0.12519 0.15229 0.81911 0.0
H343 H 0.07298 0.09761 0.93081 0.0
H344 H 0.08709 0.10922 0.79745 0.0
C345 C 0.14522 0.16894 0.87677 0.0
C346 C 0.15507 0.83953 0.14097 0.0
C347 C 0.13432 0.8513 0.20289 0.0
H348 H 0.15875 0.83643 1.01959 0.0
C349 C 0.11088 0.8808 0.1905 0.0
H350 H 0.17374 0.81734 0.14809 0.0
C351 C 0.10036 0.89026 0.11617 0.0
C352 C 0.11501 0.8718 0.05363 0.0
H353 H 0.09491 0.89108 0.23749 0.0
H354 H 0.07711 0.90753 0.10891 0.0
C355 C 0.14587 0.85025 0.06672 0.0
C356 C 0.36873 0.84044 0.3698 0.0
C357 C 0.38882 0.8547 0.30909 0.0
H358 H 0.36546 0.83421 0.4908 0.0
C359 C 0.41154 0.88436 0.3248 0.0
H360 H 0.35072 0.81796 0.36042 0.0
C361 C 0.42091 0.89298 0.40017 0.0
C362 C 0.40691 0.87268 0.4607 0.0
H363 H 0.42687 0.89671 0.27912 0.0
H364 H 0.44348 0.91087 0.4096 0.0
C365 C 0.37726 0.84999 0.44515 0.0
C366 C 0.36992 0.16451 0.66913 0.0
C367 C 0.39081 0.14883 0.72676 0.0
H368 H 0.3636 0.17253 0.54913 0.0
C369 C 0.41412 0.12022 0.70587 0.0
H370 H 0.35165 0.18639 0.68239 0.0
C371 C 0.42196 0.11296 0.6289 0.0
C372 C 0.40592 0.13355 0.57118 0.0
H373 H 0.43031 0.107 0.74888 0.0
H374 H 0.44403 0.09491 0.6156 0.0
C375 C 0.37709 0.15657 0.59218 0.0
C376 C 0.91553 0.78728 0.13345 0.0
C377 C 0.92451 0.79429 0.20994 0.0
H378 H 0.9278 0.79687 1.01522 0.0
C379 C 0.94953 0.82188 0.2244 0.0
H380 H 0.89747 0.76532 0.12001 0.0
C381 C 0.96755 0.83948 0.16412 0.0
C382 C 0.96054 0.8305 0.08761 0.0
H383 H 0.95806 0.82711 0.28232 0.0
H384 H 0.98945 0.85761 0.17754 0.0
C385 C 0.93303 0.8054 0.07316 0.0
C386 C 0.94779 0.1641 0.83202 0.0
C387 C 0.92245 0.19217 0.8383 0.0
H388 H 0.98641 0.13091 0.88994 0.0
C389 C 0.91011 0.20136 0.91167 0.0
H390 H 0.95877 0.15717 0.77665 0.0
C391 C 0.92635 0.18651 0.977 0.0
C392 C 0.95492 0.16178 0.97043 0.0
H393 H 0.8916 0.22368 0.9188 0.0
H394 H 0.91967 0.19781 0.03219 0.0
C395 C 0.96378 0.14902 0.89729 0.0
C396 C 0.60346 0.20161 0.63492 0.0
C397 C 0.59118 0.19232 0.70829 0.0
H398 H 0.59406 0.19785 0.5144 0.0
C399 C 0.56622 0.16399 0.71475 0.0
H400 H 0.62168 0.22413 0.62771 0.0
C401 C 0.5505 0.1487 0.64957 0.0
C402 C 0.55927 0.16149 0.5764 0.0
H403 H 0.55531 0.15698 0.77015 0.0
H404 H 0.52813 0.13031 0.65695 0.0
C405 C 0.58749 0.18654 0.56967 0.0
C406 C 0.55671 0.85325 0.39588 0.0
C407 C 0.56655 0.83876 0.4669 0.0
H408 H 0.55851 0.84653 0.27445 0.0
C409 C 0.59501 0.81371 0.46873 0.0
H410 H 0.53427 0.87184 0.39222 0.0
C411 C 0.60955 0.79969 0.40084 0.0
C412 C 0.59534 0.80986 0.32981 0.0
H413 H 0.60261 0.80134 0.52229 0.0
H414 H 0.62782 0.77699 0.40454 0.0
C415 C 0.57068 0.83867 0.32799 0.0
C416 C 0.64756 0.6635 0.39787 0.0
C417 C 0.62705 0.64978 0.33765 0.0
H418 H 0.65156 0.66927 0.51881 0.0
C419 C 0.60396 0.62044 0.3537 0.0
H420 H 0.66572 0.68585 0.38805 0.0
C421 C 0.59442 0.61193 0.42924 0.0
C422 C 0.60906 0.63173 0.48969 0.0
H423 H 0.588 0.60889 0.30829 0.0
H424 H 0.57175 0.59419 0.439 0.0
C425 C 0.63894 0.65414 0.47341 0.0
C426 C 0.6488 0.34135 0.6581 0.0
C427 C 0.62868 0.35407 0.72019 0.0
H428 H 0.65079 0.3368 0.53675 0.0
C429 C 0.60633 0.38437 0.70783 0.0
H430 H 0.66671 0.31855 0.66522 0.0
C431 C 0.59583 0.39382 0.63354 0.0
C432 C 0.60888 0.37393 0.57147 0.0
H433 H 0.59104 0.39551 0.75495 0.0
H434 H 0.57285 0.41149 0.62648 0.0
C435 C 0.6394 0.35191 0.58383 0.0
C436 C 0.87142 0.3513 0.96003 0.0
C437 C 0.90165 0.37364 0.97234 0.0
H438 H 0.84462 0.31764 0.8788 0.0
C439 C 0.91445 0.39369 0.91023 0.0
H440 H 0.8602 0.33611 1.00721 0.0
C441 C 0.90413 0.38412 0.83597 0.0
C442 C 0.88225 0.35353 0.82375 0.0
H443 H 0.93718 0.41162 0.91731 0.0
H444 H 0.91932 0.39541 0.78887 0.0
C445 C 0.8622 0.34065 0.88579 0.0
C446 C 0.86536 0.65359 0.18143 0.0
C447 C 0.88407 0.63921 0.24376 0.0
H448 H 0.86425 0.65885 0.06016 0.0
C449 C 0.90579 0.60845 0.23053 0.0
H450 H 0.84794 0.67674 0.18887 0.0
C451 C 0.91641 0.59918 0.15617 0.0
C452 C 0.90441 0.61981 0.09437 0.0
H453 H 0.91977 0.59575 0.27755 0.0
H454 H 0.93872 0.58067 0.14887 0.0
C455 C 0.87473 0.64299 0.10703 0.0
C456 C 0.41976 0.30946 0.5808 0.0
C457 C 0.44789 0.33467 0.5866 0.0
H458 H 0.3864 0.27117 0.63945 0.0
C459 C 0.45717 0.34703 0.65974 0.0
H460 H 0.41278 0.29847 0.52561 0.0
C461 C 0.44227 0.33099 0.72537 0.0
C462 C 0.41738 0.3026 0.7193 0.0
H463 H 0.47954 0.36544 0.66648 0.0
H464 H 0.45356 0.33768 0.78043 0.0
C465 C 0.40463 0.29368 0.64636 0.0
C466 C 0.46229 0.65417 0.39013 0.0
C467 C 0.45375 0.66537 0.46461 0.0
H468 H 0.45632 0.66426 0.27019 0.0
C469 C 0.42593 0.69078 0.47386 0.0
H470 H 0.48451 0.63576 0.38079 0.0
C471 C 0.40975 0.70724 0.41022 0.0
C472 C 0.42092 0.69865 0.33572 0.0
H473 H 0.41968 0.70105 0.53015 0.0
H474 H 0.39156 0.72964 0.41955 0.0
C475 C 0.44605 0.67058 0.3265 0.0
C476 C 0.11235 0.69595 0.1426 0.0
C477 C 0.09881 0.68722 0.21525 0.0
H478 H 0.10372 0.69265 1.02196 0.0
C479 C 0.07445 0.65831 0.2208 0.0
H480 H 0.13049 0.71857 0.136 0.0
C481 C 0.05952 0.64283 0.15494 0.0
C482 C 0.06814 0.65647 0.08233 0.0
H483 H 0.06288 0.6514 0.27564 0.0
H484 H 0.03701 0.62455 0.1616 0.0
C485 C 0.0969 0.68098 0.07675 0.0
C486 C 0.06938 0.33233 0.81916 0.0
C487 C 0.0946 0.30422 0.8258 0.0
H488 H 0.03144 0.36636 0.87731 0.0
C489 C 0.10715 0.29533 0.89897 0.0
H490 H 0.05827 0.33895 0.76386 0.0
C491 C 0.09157 0.31092 0.9642 0.0
C492 C 0.06318 0.33586 0.95779 0.0
H493 H 0.12565 0.27302 0.90621 0.0
H494 H 0.09848 0.29997 1.01954 0.0
C495 C 0.05401 0.34817 0.88449 0.0
C496 C 0.95076 0.24607 0.27733 0.0
C497 C 0.96565 0.28029 0.26525 0.0
H498 H 0.96385 0.19387 0.24049 0.0
C499 C 0.99854 0.28552 0.30237 0.0
H500 H 0.92286 0.24156 0.26231 0.0
C501 C 0.02283 0.25653 0.3034 0.0
C502 C 0.01197 0.22387 0.26987 0.0
H503 H 0.00753 0.31216 0.31678 0.0
H504 H 0.05096 0.26162 0.3144 0.0
C505 C 0.97463 0.2171 0.26875 0.0
C506 C 0.97004 0.78855 0.47384 0.0
C507 C 0.97965 0.75293 0.49345 0.0
H508 H 0.98912 0.84186 0.45698 0.0
C509 C 0.01209 0.74774 0.53335 0.0
H510 H 0.94663 0.79439 0.43969 0.0
C511 C 0.03802 0.77514 0.53105 0.0
C512 C 0.03139 0.8042 0.48216 0.0
H513 H 0.01943 0.72138 0.55441 0.0
H514 H 0.06478 0.77013 0.55213 0.0
C515 C 0.99555 0.81593 0.48185 0.0
C516 C 0.46944 0.71735 0.76451 0.0
C517 C 0.50677 0.72364 0.76868 0.0
H518 H 0.41808 0.74225 0.75511 0.0
C519 C 0.51763 0.75615 0.80296 0.0
H520 H 0.45923 0.69471 0.73357 0.0
C521 C 0.49328 0.78509 0.80292 0.0
C522 C 0.46109 0.78055 0.76286 0.0
H523 H 0.54571 0.76119 0.815 0.0
H524 H 0.50189 0.81143 0.82017 0.0
C525 C 0.44568 0.74645 0.77275 0.0
C526 C 0.50108 0.30674 0.02512 0.0
C527 C 0.53512 0.29131 1.01349 0.0
H528 H 0.44874 0.29416 0.98914 0.0
C529 C 0.53998 0.25853 0.05165 0.0
H530 H 0.49689 0.33463 1.00915 0.0
C531 C 0.51073 0.23464 0.05364 0.0
C532 C 0.47822 0.24577 1.01988 0.0
H533 H 0.56651 0.24921 0.06608 0.0
H534 H 0.51551 0.20649 0.06555 0.0
C535 C 0.47186 0.28321 1.01754 0.0
C536 C 0.00741 0.74299 0.7641 0.0
C537 C 0.00207 0.77545 0.80406 0.0
H538 H 0.98536 0.69011 0.74551 0.0
C539 C 0.96644 0.78487 0.82405 0.0
H540 H 0.03376 0.7358 0.74276 0.0
C541 C 0.93922 0.75916 0.81634 0.0
C542 C 0.95115 0.72337 0.81576 0.0
H543 H 0.96051 0.8083 0.85822 0.0
H544 H 0.91329 0.76544 0.84145 0.0
C545 C 0.98018 0.71687 0.76664 0.0
C546 C 0.54063 0.73713 0.99516 0.0
C547 C 0.53581 0.70495 0.03548 0.0
H548 H 0.51731 0.78986 0.98316 0.0
C549 C 0.50157 0.68988 0.02606 0.0
H550 H 0.56702 0.74543 0.97731 0.0
C551 C 0.47275 0.71396 0.03464 0.0
C552 C 0.47943 0.75125 0.03028 0.0
H553 H 0.49723 0.66225 0.04375 0.0
H554 H 0.45013 0.70387 0.06607 0.0
C555 C 0.51197 0.76181 0.99544 0.0
C556 C 0.48957 0.25448 0.24215 0.0
C557 C 0.50128 0.22213 0.27596 0.0
H558 H 0.50345 0.31039 0.22797 0.0
C559 C 0.53878 0.21621 0.27718 0.0
H560 H 0.46131 0.25891 0.23126 0.0
C561 C 0.56193 0.24567 0.26794 0.0
C562 C 0.5462 0.27957 0.27965 0.0
H563 H 0.55011 0.19327 0.30571 0.0
H564 H 0.58993 0.24172 0.28294 0.0
C565 C 0.51315 0.284 0.24262 0.0
C566 C 0.00292 0.23562 0.49207 0.0
C567 C 0.03524 0.24719 0.52581 0.0
H568 H 0.94686 0.24922 0.48 0.0
C569 C 0.04084 0.28473 0.52882 0.0
H570 H 0.99871 0.20743 0.4799 0.0
C571 C 0.01121 0.3078 0.52116 0.0
C572 C 0.97747 0.29178 0.53261 0.0
H573 H 0.06375 0.29592 0.55744 0.0
H574 H 0.01498 0.33569 0.53742 0.0
C575 C 0.97321 0.259 0.4943 0.0
C576 C 0.01198 0.98161 0.09632 0.0
C577 C 0.01114 0.01958 0.09512 0.0
H578 H 0.0103 0.93288 0.03126 0.0
C579 C 0.00845 0.03772 0.02567 0.0
H580 H 0.01438 0.96688 0.14938 0.0
C581 C 0.00591 0.01814 0.95841 0.0
C582 C 0.00637 0.98017 0.95966 0.0
H583 H 0.00794 0.06686 0.02331 0.0
H584 H 0.00363 0.03289 0.90535 0.0
C585 C 0.00977 0.96202 0.02896 0.0
C586 C 0.27083 0.74866 0.34635 0.0
C587 C 0.23292 0.74998 0.34352 0.0
H588 H 0.32026 0.74802 0.28284 0.0
C589 C 0.21567 0.75131 0.27305 0.0
H590 H 0.28487 0.74787 0.40033 0.0
C591 C 0.2359 0.75114 0.20633 0.0
C592 C 0.2738 0.74998 0.20891 0.0
H593 H 0.18664 0.75254 0.26928 0.0
H594 H 0.22166 0.75226 0.1526 0.0
C595 C 0.29117 0.74887 0.27941 0.0
C596 C 0.50615 0.98006 0.45276 0.0
C597 C 0.50656 0.01802 0.45394 0.0
H598 H 0.50559 0.93132 0.51776 0.0
C599 C 0.50737 0.03609 0.52372 0.0
H600 H 0.50529 0.96532 0.39955 0.0
C601 C 0.5079 0.01641 0.59136 0.0
C602 C 0.50719 0.97845 0.59004 0.0
H603 H 0.5076 0.06523 0.52608 0.0
H604 H 0.5084 0.03103 0.64474 0.0
C605 C 0.50627 0.96044 0.52028 0.0
C606 C 0.23755 0.2503 0.84138 0.0
C607 C 0.27549 0.25008 0.84216 0.0
H608 H 0.18976 0.25135 0.77358 0.0
C609 C 0.29454 0.25152 0.77353 0.0
H610 H 0.22211 0.24904 0.89378 0.0
C611 C 0.2759 0.25318 0.70499 0.0
C612 C 0.23796 0.25303 0.70417 0.0
H613 H 0.32368 0.25131 0.77269 0.0
H614 H 0.29134 0.25406 0.65257 0.0
C615 C 0.21891 0.2516 0.7728 0.0
C616 C 0.71885 0.24882 0.76699 0.0
C617 C 0.73525 0.24902 0.83847 0.0
H618 H 0.72662 0.24772 0.64672 0.0
C619 C 0.77312 0.24939 0.84346 0.0
H620 H 0.68981 0.24872 0.7617 0.0
C621 C 0.79431 0.24913 0.7779 0.0
C622 C 0.77791 0.24808 0.70645 0.0
H623 H 0.78654 0.24991 0.89817 0.0
H624 H 0.82334 0.24932 0.7832 0.0
C625 C 0.74004 0.24814 0.70143 0.0
C626 C 0.79253 0.74837 0.26842 0.0
C627 C 0.7748 0.74871 0.33868 0.0
H628 H 0.78685 0.74824 0.14758 0.0
C629 C 0.73689 0.74792 0.34118 0.0
H630 H 0.82165 0.74886 0.2652 0.0
C631 C 0.71694 0.74738 0.27436 0.0
C632 C 0.73459 0.74794 0.20407 0.0
H633 H 0.72245 0.74779 0.39492 0.0
H634 H 0.68784 0.7469 0.27784 0.0
C635 C 0.77252 0.74819 0.20144 0.0
C636 C 0.50318 0.53589 0.52208 0.0
C637 C 0.50448 0.5181 0.59217 0.0
H638 H 0.50125 0.53032 0.4013 0.0
C639 C 0.50599 0.48017 0.59422 0.0
H640 H 0.50218 0.56501 0.51912 0.0
C641 C 0.50571 0.46026 0.52719 0.0
C642 C 0.5036 0.47798 0.45716 0.0
H643 H 0.50739 0.46568 0.64775 0.0
H644 H 0.50677 0.43116 0.53031 0.0
C645 C 0.50255 0.51593 0.45496 0.0
C646 C 0.00566 0.53838 0.02379 0.0
C647 C 0.00618 0.52154 0.95269 0.0
H648 H 0.00579 0.53152 0.14421 0.0
C649 C 0.00688 0.48362 0.94863 0.0
H650 H 0.00489 0.56743 0.02848 0.0
C651 C 0.00695 0.46286 1.01486 0.0
C652 C 0.00681 0.47978 0.08595 0.0
H653 H 0.00699 0.46988 0.89421 0.0
H654 H 0.00732 0.43378 1.01038 0.0
C655 C 0.00619 0.51768 0.0899 0.0
C656 C 0.13454 0.13985 0.31697 0.0
C657 C 0.10923 0.11492 0.34389 0.0
H658 H 0.17207 0.18099 0.34648 0.0
C659 C 0.10724 0.10743 0.42231 0.0
H660 H 0.13654 0.14591 0.25667 0.0
C661 C 0.12682 0.12809 0.47378 0.0
C662 C 0.14934 0.15562 0.44712 0.0
H663 H 0.08781 0.08835 0.44446 0.0
H664 H 0.12221 0.12448 0.53432 0.0
C665 C 0.15493 0.15976 0.36837 0.0
C666 C 0.10604 0.8743 0.5556 0.0
C667 C 0.13414 0.8519 0.58048 0.0
H668 H 0.06257 0.90876 0.58838 0.0
C669 C 0.14436 0.85285 0.65758 0.0
H670 H 0.09774 0.87429 0.49645 0.0
C671 C 0.12381 0.87201 0.71035 0.0
C672 C 0.09337 0.89125 0.68648 0.0
H673 H 0.16598 0.836 0.67859 0.0
H674 H 0.1301 0.86958 0.7704 0.0
C675 C 0.086 0.89416 0.60823 0.0
C676 C 0.36339 0.83777 0.86663 0.0
C677 C 0.36904 0.84179 0.94525 0.0
H678 H 0.38129 0.85202 0.75451 0.0
C679 C 0.39196 0.86906 0.97136 0.0
H680 H 0.34598 0.81674 0.84513 0.0
C681 C 0.4115 0.88982 0.91953 0.0
C682 C 0.4091 0.88282 0.84101 0.0
H683 H 0.39665 0.87263 0.03182 0.0
H684 H 0.43102 0.90879 0.94141 0.0
C685 C 0.38365 0.85786 0.81478 0.0
C686 C 0.41153 0.10405 0.1219 0.0
C687 C 0.4082 0.11055 0.20049 0.0
H688 H 0.39722 0.12167 1.00976 0.0
C689 C 0.38157 0.13422 0.22694 0.0
H690 H 0.43205 0.08601 0.10013 0.0
C691 C 0.36098 0.15385 0.17519 0.0
C692 C 0.36766 0.15075 0.0966 0.0
H693 H 0.37857 0.13956 0.28734 0.0
H694 H 0.34264 0.1741 0.19696 0.0
C695 C 0.39174 0.12447 0.07016 0.0
C696 C 0.93128 0.80225 0.62515 0.0
C697 C 0.89859 0.81515 0.59662 0.0
H698 H 0.97906 0.81426 0.68664 0.0
C699 C 0.88564 0.84855 0.62288 0.0
H700 H 0.9406 0.77552 0.61115 0.0
C701 C 0.90578 0.86884 0.6752 0.0
C702 C 0.93922 0.8561 0.70135 0.0
H703 H 0.86005 0.85888 0.60313 0.0
H704 H 0.8953 0.89441 0.69501 0.0
C705 C 0.9523 0.82342 0.67275 0.0
C706 C 0.93802 0.16357 0.49018 0.0
C707 C 0.9072 0.18131 0.46313 0.0
H708 H 0.98306 0.12951 0.46263 0.0
C709 C 0.89737 0.17651 0.3862 0.0
H710 H 0.94631 0.16669 0.54894 0.0
C711 C 0.91854 0.15573 0.33688 0.0
C712 C 0.94981 0.13888 0.36341 0.0
H713 H 0.87391 0.18992 0.36314 0.0
H714 H 0.91085 0.1534 0.27758 0.0
C715 C 0.95893 0.14224 0.44089 0.0
C716 C 0.61747 0.17762 0.16041 0.0
C717 C 0.60743 0.18213 0.08349 0.0
H718 H 0.60478 0.15424 0.26926 0.0
C719 C 0.57703 0.16366 0.05678 0.0
H720 H 0.64061 0.19161 0.18323 0.0
C721 C 0.55677 0.14184 0.10636 0.0
C722 C 0.56614 0.13868 0.18377 0.0
H723 H 0.56859 0.16653 0.99805 0.0
H724 H 0.53297 0.12851 0.08486 0.0
C725 C 0.59695 0.15635 0.21 0.0
C726 C 0.59041 0.82564 0.81936 0.0
C727 C 0.56578 0.85107 0.84718 0.0
H728 H 0.63013 0.78577 0.84682 0.0
C729 C 0.56206 0.85515 0.92675 0.0
H730 H 0.59361 0.82166 0.75857 0.0
C731 C 0.58215 0.83392 0.9774 0.0
C732 C 0.60727 0.80895 0.94957 0.0
H733 H 0.54284 0.8742 0.94991 0.0
H734 H 0.5782 0.83714 0.03821 0.0
C735 C 0.61133 0.80523 0.87 0.0
C736 C 0.59179 0.60623 0.93315 0.0
C737 C 0.59597 0.61161 0.85441 0.0
H738 H 0.60617 0.62432 0.04475 0.0
C739 C 0.62364 0.63396 0.82759 0.0
H740 H 0.57048 0.58924 0.95513 0.0
C741 C 0.64459 0.65337 0.87884 0.0
C742 C 0.63739 0.65141 0.9574 0.0
H743 H 0.62733 0.63838 0.76701 0.0
H744 H 0.66387 0.67253 0.8564 0.0
C745 C 0.61211 0.62636 0.9844 0.0
C746 C 0.6227 0.35875 0.22391 0.0
C747 C 0.59589 0.38237 0.19779 0.0
H748 H 0.6618 0.31896 0.19392 0.0
C749 C 0.59237 0.38851 0.11919 0.0
H750 H 0.62599 0.35367 0.28432 0.0
C751 C 0.61238 0.36817 0.06741 0.0
C752 C 0.63672 0.34202 0.0936 0.0
H753 H 0.57181 0.40647 0.09749 0.0
H754 H 0.60695 0.37108 1.00707 0.0
C755 C 0.64328 0.33899 0.17212 0.0
C756 C 0.88821 0.35819 0.31994 0.0
C757 C 0.91462 0.38226 0.34567 0.0
H758 H 0.8501 0.31759 0.35041 0.0
C759 C 0.91845 0.38817 0.42426 0.0
H760 H 0.88472 0.35323 0.25956 0.0
C761 C 0.89915 0.36727 0.4763 0.0
C762 C 0.87521 0.34076 0.45042 0.0
H763 H 0.93875 0.40643 0.44566 0.0
H764 H 0.90481 0.37011 0.53654 0.0
C765 C 0.86833 0.33787 0.372 0.0
C766 C 0.90357 0.61006 0.63938 0.0
C767 C 0.90426 0.62029 0.71654 0.0
H768 H 0.88693 0.62417 0.52653 0.0
C769 C 0.8816 0.64822 0.74143 0.0
H770 H 0.92064 0.58857 0.61835 0.0
C771 C 0.86166 0.66807 0.68878 0.0
C772 C 0.86476 0.6607 0.61052 0.0
H773 H 0.88142 0.65652 0.80061 0.0
H774 H 0.8468 0.69137 0.70867 0.0
C775 C 0.88433 0.63044 0.5866 0.0
C776 C 0.43202 0.36117 0.1345 0.0
C777 C 0.43659 0.35129 0.21152 0.0
H778 H 0.40888 0.34798 0.02603 0.0
C779 C 0.41848 0.32073 0.23891 0.0
H780 H 0.44576 0.38443 0.11121 0.0
C781 C 0.39694 0.30013 0.18987 0.0
C782 C 0.39374 0.30931 0.11233 0.0
H783 H 0.42143 0.31242 0.29776 0.0
H784 H 0.38388 0.27619 0.21185 0.0
C785 C 0.41104 0.34029 0.08542 0.0
C786 C 0.41582 0.65399 0.97933 0.0
C787 C 0.39239 0.68013 0.94987 0.0
H788 H 0.45603 0.61416 0.95465 0.0
C789 C 0.38808 0.68247 0.87034 0.0
H790 H 0.41862 0.65057 0.04033 0.0
C791 C 0.4089 0.66112 0.82125 0.0
C792 C 0.43466 0.63728 0.8507 0.0
H793 H 0.36966 0.70191 0.84592 0.0
H794 H 0.40555 0.66399 0.76025 0.0
C795 C 0.43688 0.63288 0.93024 0.0
C796 C 0.07491 0.67192 0.56989 0.0
C797 C 0.10019 0.69688 0.59645 0.0
H798 H 0.03561 0.63194 0.59916 0.0
C799 C 0.10434 0.70093 0.67601 0.0
H800 H 0.071 0.6682 0.50925 0.0
C801 C 0.08367 0.68066 0.72772 0.0
C802 C 0.05885 0.65525 0.70115 0.0
H803 H 0.12342 0.7202 0.69844 0.0
H804 H 0.0874 0.68456 0.78836 0.0
C805 C 0.05478 0.65112 0.62159 0.0
C806 C 0.09306 0.32346 0.30608 0.0
C807 C 0.07401 0.35356 0.33299 0.0
H808 H 0.12892 0.27992 0.33392 0.0
C809 C 0.07805 0.36358 0.41003 0.0
H810 H 0.09053 0.31505 0.24724 0.0
C811 C 0.09952 0.34334 0.45953 0.0
C812 C 0.11784 0.31285 0.43305 0.0
H813 H 0.06359 0.3865 0.43296 0.0
H814 H 0.10133 0.35114 0.51887 0.0
C815 C 0.11507 0.30348 0.35557 0.0
loop_
_geom_bond_atom_site_label_1
_geom_bond_atom_site_label_2
_geom_bond_distance
_geom_bond_site_symmetry_2
_ccdc_geom_bond_type
O0 Mn1 2.163 . S
O0 C14 1.244 1_554 S
Mn1 O0 2.163 . S
Mn1 O4 2.160 1_455 S
Mn1 O5 2.221 1_455 S
Mn1 O7 2.163 . S
Mn1 O9 2.160 1_455 S
Mn1 O19 2.221 . S
O2 Mn3 2.087 . S
O2 C14 1.256 . S
Mn3 O2 2.087 . S
Mn3 O10 2.089 1_455 S
Mn3 O19 2.291 1_556 S
Mn3 O20 2.251 1_556 S
O4 Mn1 2.160 1_655 S
O4 C15 1.239 . S
O5 Mn1 2.221 1_655 S
O5 Mn6 2.290 1_655 S
O5 C16 1.279 1_655 S
Mn6 O5 2.290 1_455 S
Mn6 O8 2.089 1_455 S
Mn6 O11 2.251 . S
Mn6 O12 2.087 . S
O7 Mn1 2.163 . S
O7 C17 1.244 . S
O8 Mn6 2.089 1_655 S
O8 C15 1.256 . S
O9 Mn1 2.160 1_655 S
O9 C18 1.239 1_554 S
O10 Mn3 2.089 1_655 S
O10 C18 1.256 . S
O11 Mn6 2.251 . S
O11 C16 1.241 . S
O12 Mn6 2.087 . S
O12 C17 1.256 . S
C13 O19 1.281 . S
C13 O20 1.241 . S
C14 O0 1.244 1_556 S
C14 O2 1.256 . S
C15 O4 1.239 . S
C15 O8 1.256 . S
C16 O5 1.279 1_455 S
C16 O11 1.241 . S
C17 O7 1.244 . S
C17 O12 1.256 . S
C18 O9 1.239 1_556 S
C18 O10 1.256 . S
O19 Mn1 2.221 . S
O19 Mn3 2.291 1_554 S
O19 C13 1.281 . S
O20 Mn3 2.251 1_554 S
O20 C13 1.241 . S
O21 Mn22 2.163 . S
O21 C35 1.244 . S
Mn22 O21 2.163 . S
Mn22 O25 2.160 . S
Mn22 O26 2.221 . S
Mn22 O28 2.163 . S
Mn22 O30 2.160 . S
Mn22 O40 2.221 . S
O23 Mn24 2.087 . S
O23 C35 1.256 . S
Mn24 O23 2.087 . S
Mn24 O31 2.089 . S
Mn24 O40 2.290 . S
Mn24 O41 2.251 . S
O25 Mn22 2.160 . S
O25 C36 1.239 . S
O26 Mn22 2.221 . S
O26 Mn27 2.290 . S
O26 C37 1.278 . S
Mn27 O26 2.290 . S
Mn27 O29 2.089 . S
Mn27 O32 2.251 . S
Mn27 O33 2.087 . S
O28 Mn22 2.163 . S
O28 C38 1.244 . S
O29 Mn27 2.089 . S
O29 C36 1.256 . S
O30 Mn22 2.160 . S
O30 C39 1.239 . S
O31 Mn24 2.089 . S
O31 C39 1.256 . S
O32 Mn27 2.251 . S
O32 C37 1.241 . S
O33 Mn27 2.087 . S
O33 C38 1.256 . S
C34 O40 1.278 . S
C34 O41 1.241 . S
C35 O21 1.244 . S
C35 O23 1.256 . S
C36 O25 1.239 . S
C36 O29 1.256 . S
C37 O26 1.278 . S
C37 O32 1.241 . S
C38 O28 1.244 . S
C38 O33 1.256 . S
C39 O30 1.239 . S
C39 O31 1.256 . S
O40 Mn22 2.221 . S
O40 Mn24 2.290 . S
O40 C34 1.278 . S
O41 Mn24 2.251 . S
O41 C34 1.241 . S
O42 Mn43 2.163 . S
O42 C56 1.244 . S
Mn43 O42 2.163 . S
Mn43 O46 2.160 . S
Mn43 O47 2.221 . S
Mn43 O49 2.163 . S
Mn43 O51 2.160 . S
Mn43 O61 2.221 . S
O44 Mn45 2.087 . S
O44 C56 1.256 . S
Mn45 O44 2.087 . S
Mn45 O52 2.089 . S
Mn45 O61 2.290 . S
Mn45 O62 2.251 . S
O46 Mn43 2.160 . S
O46 C57 1.239 . S
O47 Mn43 2.221 . S
O47 Mn48 2.290 . S
O47 C58 1.278 . S
Mn48 O47 2.290 . S
Mn48 O50 2.089 . S
Mn48 O53 2.251 . S
Mn48 O54 2.087 . S
O49 Mn43 2.163 . S
O49 C59 1.244 . S
O50 Mn48 2.089 . S
O50 C57 1.256 . S
O51 Mn43 2.160 . S
O51 C60 1.239 . S
O52 Mn45 2.089 . S
O52 C60 1.256 . S
O53 Mn48 2.251 . S
O53 C58 1.241 . S
O54 Mn48 2.087 . S
O54 C59 1.256 . S
C55 O61 1.278 . S
C55 O62 1.241 . S
C56 O42 1.244 . S
C56 O44 1.256 . S
C57 O46 1.239 . S
C57 O50 1.256 . S
C58 O47 1.278 . S
C58 O53 1.241 . S
C59 O49 1.244 . S
C59 O54 1.256 . S
C60 O51 1.239 . S
C60 O52 1.256 . S
O61 Mn43 2.221 . S
O61 Mn45 2.290 . S
O61 C55 1.278 . S
O62 Mn45 2.251 . S
O62 C55 1.241 . S
O63 Mn64 2.163 . S
O63 C77 1.244 . S
Mn64 O63 2.163 . S
Mn64 O67 2.160 . S
Mn64 O68 2.221 . S
Mn64 O70 2.163 . S
Mn64 O72 2.160 . S
Mn64 O82 2.221 . S
O65 Mn66 2.087 . S
O65 C77 1.256 . S
Mn66 O65 2.087 . S
Mn66 O73 2.089 . S
Mn66 O82 2.290 . S
Mn66 O83 2.251 . S
O67 Mn64 2.160 . S
O67 C78 1.239 1_556 S
O68 Mn64 2.221 . S
O68 Mn69 2.290 1_556 S
O68 C79 1.278 . S
Mn69 O68 2.290 1_554 S
Mn69 O71 2.089 . S
Mn69 O74 2.251 1_554 S
Mn69 O75 2.087 . S
O70 Mn64 2.163 . S
O70 C80 1.244 1_556 S
O71 Mn69 2.089 . S
O71 C78 1.256 . S
O72 Mn64 2.160 . S
O72 C81 1.239 . S
O73 Mn66 2.089 . S
O73 C81 1.256 . S
O74 Mn69 2.251 1_556 S
O74 C79 1.241 . S
O75 Mn69 2.087 . S
O75 C80 1.256 . S
C76 O82 1.278 . S
C76 O83 1.241 . S
C77 O63 1.244 . S
C77 O65 1.256 . S
C78 O67 1.239 1_554 S
C78 O71 1.256 . S
C79 O68 1.278 . S
C79 O74 1.241 . S
C80 O70 1.244 1_554 S
C80 O75 1.256 . S
C81 O72 1.239 . S
C81 O73 1.256 . S
O82 Mn64 2.221 . S
O82 Mn66 2.290 . S
O82 C76 1.278 . S
O83 Mn66 2.251 . S
O83 C76 1.241 . S
O84 Mn85 2.163 . S
O84 C98 1.244 1_556 S
Mn85 O84 2.163 . S
Mn85 O88 2.160 1_455 S
Mn85 O89 2.221 1_455 S
Mn85 O91 2.163 . S
Mn85 O93 2.160 1_455 S
Mn85 O103 2.221 . S
O86 Mn87 2.087 . S
O86 C98 1.256 . S
Mn87 O86 2.087 . S
Mn87 O94 2.089 1_455 S
Mn87 O103 2.291 1_554 S
Mn87 O104 2.251 1_554 S
O88 Mn85 2.160 1_655 S
O88 C99 1.239 . S
O89 Mn85 2.221 1_655 S
O89 Mn90 2.290 1_655 S
O89 C100 1.279 1_655 S
Mn90 O89 2.290 1_455 S
Mn90 O92 2.089 1_455 S
Mn90 O95 2.251 . S
Mn90 O96 2.087 . S
O91 Mn85 2.163 . S
O91 C101 1.244 . S
O92 Mn90 2.089 1_655 S
O92 C99 1.256 . S
O93 Mn85 2.160 1_655 S
O93 C102 1.239 1_556 S
O94 Mn87 2.089 1_655 S
O94 C102 1.256 . S
O95 Mn90 2.251 . S
O95 C100 1.241 . S
O96 Mn90 2.087 . S
O96 C101 1.256 . S
C97 O103 1.281 . S
C97 O104 1.241 . S
C98 O84 1.244 1_554 S
C98 O86 1.256 . S
C99 O88 1.239 . S
C99 O92 1.256 . S
C100 O89 1.279 1_455 S
C100 O95 1.241 . S
C101 O91 1.244 . S
C101 O96 1.256 . S
C102 O93 1.239 1_554 S
C102 O94 1.256 . S
O103 Mn85 2.221 . S
O103 Mn87 2.291 1_556 S
O103 C97 1.281 . S
O104 Mn87 2.251 1_556 S
O104 C97 1.241 . S
O105 Mn106 2.163 . S
O105 C119 1.244 . S
Mn106 O105 2.163 . S
Mn106 O109 2.160 . S
Mn106 O110 2.221 . S
Mn106 O112 2.163 . S
Mn106 O114 2.160 . S
Mn106 O124 2.221 . S
O107 Mn108 2.087 . S
O107 C119 1.256 . S
Mn108 O107 2.087 . S
Mn108 O115 2.089 . S
Mn108 O124 2.290 . S
Mn108 O125 2.251 . S
O109 Mn106 2.160 . S
O109 C120 1.239 1_554 S
O110 Mn106 2.221 . S
O110 Mn111 2.290 1_554 S
O110 C121 1.278 . S
Mn111 O110 2.290 1_556 S
Mn111 O113 2.089 . S
Mn111 O116 2.251 1_556 S
Mn111 O117 2.087 . S
O112 Mn106 2.163 . S
O112 C122 1.244 1_554 S
O113 Mn111 2.089 . S
O113 C120 1.256 . S
O114 Mn106 2.160 . S
O114 C123 1.239 . S
O115 Mn108 2.089 . S
O115 C123 1.256 . S
O116 Mn111 2.251 1_554 S
O116 C121 1.241 . S
O117 Mn111 2.087 . S
O117 C122 1.256 . S
C118 O124 1.278 . S
C118 O125 1.241 . S
C119 O105 1.244 . S
C119 O107 1.256 . S
C120 O109 1.239 1_556 S
C120 O113 1.256 . S
C121 O110 1.278 . S
C121 O116 1.241 . S
C122 O112 1.244 1_556 S
C122 O117 1.256 . S
C123 O114 1.239 . S
C123 O115 1.256 . S
O124 Mn106 2.221 . S
O124 Mn108 2.290 . S
O124 C118 1.278 . S
O125 Mn108 2.251 . S
O125 C118 1.241 . S
O126 Mn127 2.163 . S
O126 C140 1.244 . S
Mn127 O126 2.163 . S
Mn127 O130 2.160 . S
Mn127 O131 2.221 . S
Mn127 O133 2.163 . S
Mn127 O135 2.160 . S
Mn127 O145 2.221 . S
O128 Mn129 2.087 . S
O128 C140 1.256 . S
Mn129 O128 2.087 . S
Mn129 O136 2.089 . S
Mn129 O145 2.290 . S
Mn129 O146 2.251 . S
O130 Mn127 2.160 . S
O130 C141 1.239 . S
O131 Mn127 2.221 . S
O131 Mn132 2.290 . S
O131 C142 1.278 . S
Mn132 O131 2.290 . S
Mn132 O134 2.089 . S
Mn132 O137 2.251 . S
Mn132 O138 2.087 . S
O133 Mn127 2.163 . S
O133 C143 1.244 . S
O134 Mn132 2.089 . S
O134 C141 1.256 . S
O135 Mn127 2.160 . S
O135 C144 1.239 . S
O136 Mn129 2.089 . S
O136 C144 1.256 . S
O137 Mn132 2.251 . S
O137 C142 1.241 . S
O138 Mn132 2.087 . S
O138 C143 1.256 . S
C139 O145 1.278 . S
C139 O146 1.241 . S
C140 O126 1.244 . S
C140 O128 1.256 . S
C141 O130 1.239 . S
C141 O134 1.256 . S
C142 O131 1.278 . S
C142 O137 1.241 . S
C143 O133 1.244 . S
C143 O138 1.256 . S
C144 O135 1.239 . S
C144 O136 1.256 . S
O145 Mn127 2.221 . S
O145 Mn129 2.290 . S
O145 C139 1.278 . S
O146 Mn129 2.251 . S
O146 C139 1.241 . S
O147 Mn148 2.163 . S
O147 C161 1.244 . S
Mn148 O147 2.163 . S
Mn148 O151 2.160 . S
Mn148 O152 2.221 . S
Mn148 O154 2.163 . S
Mn148 O156 2.160 . S
Mn148 O166 2.221 . S
O149 Mn150 2.087 . S
O149 C161 1.256 . S
Mn150 O149 2.087 . S
Mn150 O157 2.089 . S
Mn150 O166 2.290 . S
Mn150 O167 2.251 . S
O151 Mn148 2.160 . S
O151 C162 1.239 . S
O152 Mn148 2.221 . S
O152 Mn153 2.290 . S
O152 C163 1.278 . S
Mn153 O152 2.290 . S
Mn153 O155 2.089 . S
Mn153 O158 2.251 . S
Mn153 O159 2.087 . S
O154 Mn148 2.163 . S
O154 C164 1.244 . S
O155 Mn153 2.089 . S
O155 C162 1.256 . S
O156 Mn148 2.160 . S
O156 C165 1.239 . S
O157 Mn150 2.089 . S
O157 C165 1.256 . S
O158 Mn153 2.251 . S
O158 C163 1.241 . S
O159 Mn153 2.087 . S
O159 C164 1.256 . S
C160 O166 1.278 . S
C160 O167 1.241 . S
C161 O147 1.244 . S
C161 O149 1.256 . S
C162 O151 1.239 . S
C162 O155 1.256 . S
C163 O152 1.278 . S
C163 O158 1.241 . S
C164 O154 1.244 . S
C164 O159 1.256 . S
C165 O156 1.239 . S
C165 O157 1.256 . S
O166 Mn148 2.221 . S
O166 Mn150 2.290 . S
O166 C160 1.278 . S
O167 Mn150 2.251 . S
O167 C160 1.241 . S
O168 Mn169 2.163 . S
O168 C182 1.244 . S
Mn169 O168 2.163 . S
Mn169 O172 2.160 . S
Mn169 O173 2.221 . S
Mn169 O175 2.163 . S
Mn169 O177 2.160 . S
Mn169 O187 2.221 . S
O170 Mn171 2.087 . S
O170 C182 1.256 . S
Mn171 O170 2.087 . S
Mn171 O178 2.089 . S
Mn171 O187 2.290 . S
Mn171 O188 2.251 . S
O172 Mn169 2.160 . S
O172 C183 1.239 . S
O173 Mn169 2.221 . S
O173 Mn174 2.290 . S
O173 C184 1.278 . S
Mn174 O173 2.290 . S
Mn174 O176 2.089 . S
Mn174 O179 2.251 . S
Mn174 O180 2.087 . S
O175 Mn169 2.163 . S
O175 C185 1.244 . S
O176 Mn174 2.089 . S
O176 C183 1.256 . S
O177 Mn169 2.160 . S
O177 C186 1.239 . S
O178 Mn171 2.089 . S
O178 C186 1.256 . S
O179 Mn174 2.251 . S
O179 C184 1.241 . S
O180 Mn174 2.087 . S
O180 C185 1.256 . S
C181 O187 1.278 . S
C181 O188 1.241 . S
C182 O168 1.244 . S
C182 O170 1.256 . S
C183 O172 1.239 . S
C183 O176 1.256 . S
C184 O173 1.278 . S
C184 O179 1.241 . S
C185 O175 1.244 . S
C185 O180 1.256 . S
C186 O177 1.239 . S
C186 O178 1.256 . S
O187 Mn169 2.221 . S
O187 Mn171 2.290 . S
O187 C181 1.278 . S
O188 Mn171 2.251 . S
O188 C181 1.241 . S
O189 Mn190 2.163 . S
O189 C203 1.244 1_554 S
Mn190 O189 2.163 . S
Mn190 O193 2.160 . S
Mn190 O194 2.221 . S
Mn190 O196 2.163 . S
Mn190 O198 2.160 . S
Mn190 O208 2.221 . S
O191 Mn192 2.087 . S
O191 C203 1.256 . S
Mn192 O191 2.087 . S
Mn192 O199 2.089 . S
Mn192 O208 2.290 1_556 S
Mn192 O209 2.251 1_556 S
O193 Mn190 2.160 . S
O193 C204 1.239 . S
O194 Mn190 2.221 . S
O194 Mn195 2.290 . S
O194 C205 1.278 . S
Mn195 O194 2.290 . S
Mn195 O197 2.089 . S
Mn195 O200 2.251 . S
Mn195 O201 2.087 . S
O196 Mn190 2.163 . S
O196 C206 1.244 . S
O197 Mn195 2.089 . S
O197 C204 1.256 . S
O198 Mn190 2.160 . S
O198 C207 1.239 1_554 S
O199 Mn192 2.089 . S
O199 C207 1.256 . S
O200 Mn195 2.251 . S
O200 C205 1.241 . S
O201 Mn195 2.087 . S
O201 C206 1.256 . S
C202 O208 1.278 . S
C202 O209 1.241 . S
C203 O189 1.244 1_556 S
C203 O191 1.256 . S
C204 O193 1.239 . S
C204 O197 1.256 . S
C205 O194 1.278 . S
C205 O200 1.241 . S
C206 O196 1.244 . S
C206 O201 1.256 . S
C207 O198 1.239 1_556 S
C207 O199 1.256 . S
O208 Mn190 2.221 . S
O208 Mn192 2.290 1_554 S
O208 C202 1.278 . S
O209 Mn192 2.251 1_554 S
O209 C202 1.241 . S
O210 Mn211 2.163 . S
O210 C224 1.244 1_556 S
Mn211 O210 2.163 . S
Mn211 O214 2.160 . S
Mn211 O215 2.221 . S
Mn211 O217 2.163 . S
Mn211 O219 2.160 . S
Mn211 O229 2.221 . S
O212 Mn213 2.087 . S
O212 C224 1.256 . S
Mn213 O212 2.087 . S
Mn213 O220 2.089 . S
Mn213 O229 2.290 1_554 S
Mn213 O230 2.251 1_554 S
O214 Mn211 2.160 . S
O214 C225 1.239 . S
O215 Mn211 2.221 . S
O215 Mn216 2.290 . S
O215 C226 1.278 . S
Mn216 O215 2.290 . S
Mn216 O218 2.089 . S
Mn216 O221 2.251 . S
Mn216 O222 2.087 . S
O217 Mn211 2.163 . S
O217 C227 1.244 . S
O218 Mn216 2.089 . S
O218 C225 1.256 . S
O219 Mn211 2.160 . S
O219 C228 1.239 1_556 S
O220 Mn213 2.089 . S
O220 C228 1.256 . S
O221 Mn216 2.251 . S
O221 C226 1.241 . S
O222 Mn216 2.087 . S
O222 C227 1.256 . S
C223 O229 1.278 . S
C223 O230 1.241 . S
C224 O210 1.244 1_554 S
C224 O212 1.256 . S
C225 O214 1.239 . S
C225 O218 1.256 . S
C226 O215 1.278 . S
C226 O221 1.241 . S
C227 O217 1.244 . S
C227 O222 1.256 . S
C228 O219 1.239 1_554 S
C228 O220 1.256 . S
O229 Mn211 2.221 . S
O229 Mn213 2.290 1_556 S
O229 C223 1.278 . S
O230 Mn213 2.251 1_556 S
O230 C223 1.241 . S
O231 Mn232 2.163 . S
O231 C245 1.244 . S
Mn232 O231 2.163 . S
Mn232 O235 2.160 . S
Mn232 O236 2.221 . S
Mn232 O238 2.163 . S
Mn232 O240 2.160 . S
Mn232 O250 2.221 . S
O233 Mn234 2.087 . S
O233 C245 1.256 . S
Mn234 O233 2.087 . S
Mn234 O241 2.089 . S
Mn234 O250 2.290 . S
Mn234 O251 2.251 . S
O235 Mn232 2.160 . S
O235 C246 1.239 . S
O236 Mn232 2.221 . S
O236 Mn237 2.290 . S
O236 C247 1.278 . S
Mn237 O236 2.290 . S
Mn237 O239 2.089 . S
Mn237 O242 2.251 . S
Mn237 O243 2.087 . S
O238 Mn232 2.163 . S
O238 C248 1.244 . S
O239 Mn237 2.089 . S
O239 C246 1.256 . S
O240 Mn232 2.160 . S
O240 C249 1.239 . S
O241 Mn234 2.089 . S
O241 C249 1.256 . S
O242 Mn237 2.251 . S
O242 C247 1.241 . S
O243 Mn237 2.087 . S
O243 C248 1.256 . S
C244 O250 1.278 . S
C244 O251 1.241 . S
C245 O231 1.244 . S
C245 O233 1.256 . S
C246 O235 1.239 . S
C246 O239 1.256 . S
C247 O236 1.278 . S
C247 O242 1.241 . S
C248 O238 1.244 . S
C248 O243 1.256 . S
C249 O240 1.239 . S
C249 O241 1.256 . S
O250 Mn232 2.221 . S
O250 Mn234 2.290 . S
O250 C244 1.278 . S
O251 Mn234 2.251 . S
O251 C244 1.241 . S
O252 Mn253 2.163 . S
O252 C266 1.244 . S
Mn253 O252 2.163 . S
Mn253 O256 2.160 . S
Mn253 O257 2.221 . S
Mn253 O259 2.163 . S
Mn253 O261 2.160 . S
Mn253 O271 2.221 . S
O254 Mn255 2.087 . S
O254 C266 1.256 . S
Mn255 O254 2.087 . S
Mn255 O262 2.089 . S
Mn255 O271 2.290 . S
Mn255 O272 2.251 . S
O256 Mn253 2.160 . S
O256 C267 1.239 . S
O257 Mn253 2.221 . S
O257 Mn258 2.290 . S
O257 C268 1.278 . S
Mn258 O257 2.290 . S
Mn258 O260 2.089 . S
Mn258 O263 2.251 . S
Mn258 O264 2.087 . S
O259 Mn253 2.163 . S
O259 C269 1.244 . S
O260 Mn258 2.089 . S
O260 C267 1.256 . S
O261 Mn253 2.160 . S
O261 C270 1.239 . S
O262 Mn255 2.089 . S
O262 C270 1.256 . S
O263 Mn258 2.251 . S
O263 C268 1.241 . S
O264 Mn258 2.087 . S
O264 C269 1.256 . S
C265 O271 1.278 . S
C265 O272 1.241 . S
C266 O252 1.244 . S
C266 O254 1.256 . S
C267 O256 1.239 . S
C267 O260 1.256 . S
C268 O257 1.278 . S
C268 O263 1.241 . S
C269 O259 1.244 . S
C269 O264 1.256 . S
C270 O261 1.239 . S
C270 O262 1.256 . S
O271 Mn253 2.221 . S
O271 Mn255 2.290 . S
O271 C265 1.278 . S
O272 Mn255 2.251 . S
O272 C265 1.241 . S
O273 Mn274 2.163 1_655 S
O273 C287 1.244 1_554 S
Mn274 O273 2.163 1_455 S
Mn274 O277 2.160 . S
Mn274 O278 2.221 . S
Mn274 O280 2.163 1_455 S
Mn274 O282 2.160 . S
Mn274 O292 2.221 . S
O275 Mn276 2.087 1_655 S
O275 C287 1.256 . S
Mn276 O275 2.087 1_455 S
Mn276 O283 2.089 . S
Mn276 O292 2.290 1_556 S
Mn276 O293 2.251 1_456 S
O277 Mn274 2.160 . S
O277 C288 1.239 . S
O278 Mn274 2.221 . S
O278 Mn279 2.290 . S
O278 C289 1.278 1_455 S
Mn279 O278 2.290 . S
Mn279 O281 2.089 . S
Mn279 O284 2.251 1_455 S
Mn279 O285 2.087 1_455 S
O280 Mn274 2.163 1_655 S
O280 C290 1.244 . S
O281 Mn279 2.089 . S
O281 C288 1.256 . S
O282 Mn274 2.160 . S
O282 C291 1.239 1_554 S
O283 Mn276 2.089 . S
O283 C291 1.256 . S
O284 Mn279 2.251 1_655 S
O284 C289 1.241 . S
O285 Mn279 2.087 1_655 S
O285 C290 1.256 . S
C286 O292 1.278 1_655 S
C286 O293 1.241 . S
C287 O273 1.244 1_556 S
C287 O275 1.256 . S
C288 O277 1.239 . S
C288 O281 1.256 . S
C289 O278 1.278 1_655 S
C289 O284 1.241 . S
C290 O280 1.244 . S
C290 O285 1.256 . S
C291 O282 1.239 1_556 S
C291 O283 1.256 . S
O292 Mn274 2.221 . S
O292 Mn276 2.290 1_554 S
O292 C286 1.278 1_455 S
O293 Mn276 2.251 1_654 S
O293 C286 1.241 . S
O294 Mn295 2.163 . S
O294 C308 1.244 . S
Mn295 O294 2.163 . S
Mn295 O298 2.160 . S
Mn295 O299 2.221 . S
Mn295 O301 2.163 . S
Mn295 O303 2.160 . S
Mn295 O313 2.221 . S
O296 Mn297 2.087 . S
O296 C308 1.256 . S
Mn297 O296 2.087 . S
Mn297 O304 2.089 . S
Mn297 O313 2.290 . S
Mn297 O314 2.251 . S
O298 Mn295 2.160 . S
O298 C309 1.239 . S
O299 Mn295 2.221 . S
O299 Mn300 2.290 . S
O299 C310 1.278 . S
Mn300 O299 2.290 . S
Mn300 O302 2.089 . S
Mn300 O305 2.251 . S
Mn300 O306 2.087 . S
O301 Mn295 2.163 . S
O301 C311 1.244 . S
O302 Mn300 2.089 . S
O302 C309 1.256 . S
O303 Mn295 2.160 . S
O303 C312 1.239 . S
O304 Mn297 2.089 . S
O304 C312 1.256 . S
O305 Mn300 2.251 . S
O305 C310 1.241 . S
O306 Mn300 2.087 . S
O306 C311 1.256 . S
C307 O313 1.278 . S
C307 O314 1.241 . S
C308 O294 1.244 . S
C308 O296 1.256 . S
C309 O298 1.239 . S
C309 O302 1.256 . S
C310 O299 1.278 . S
C310 O305 1.241 . S
C311 O301 1.244 . S
C311 O306 1.256 . S
C312 O303 1.239 . S
C312 O304 1.256 . S
O313 Mn295 2.221 . S
O313 Mn297 2.290 . S
O313 C307 1.278 . S
O314 Mn297 2.251 . S
O314 C307 1.241 . S
O315 Mn316 2.163 1_655 S
O315 C329 1.244 1_556 S
Mn316 O315 2.163 1_455 S
Mn316 O319 2.160 . S
Mn316 O320 2.221 . S
Mn316 O322 2.163 1_455 S
Mn316 O324 2.160 . S
Mn316 O334 2.221 . S
O317 Mn318 2.087 1_655 S
O317 C329 1.256 . S
Mn318 O317 2.087 1_455 S
Mn318 O325 2.089 . S
Mn318 O334 2.290 1_554 S
Mn318 O335 2.251 1_454 S
O319 Mn316 2.160 . S
O319 C330 1.239 . S
O320 Mn316 2.221 . S
O320 Mn321 2.290 . S
O320 C331 1.278 1_455 S
Mn321 O320 2.290 . S
Mn321 O323 2.089 . S
Mn321 O326 2.251 1_455 S
Mn321 O327 2.087 1_455 S
O322 Mn316 2.163 1_655 S
O322 C332 1.244 . S
O323 Mn321 2.089 . S
O323 C330 1.256 . S
O324 Mn316 2.160 . S
O324 C333 1.239 1_556 S
O325 Mn318 2.089 . S
O325 C333 1.256 . S
O326 Mn321 2.251 1_655 S
O326 C331 1.241 . S
O327 Mn321 2.087 1_655 S
O327 C332 1.256 . S
C328 O334 1.278 1_655 S
C328 O335 1.241 . S
C329 O315 1.244 1_554 S
C329 O317 1.256 . S
C330 O319 1.239 . S
C330 O323 1.256 . S
C331 O320 1.278 1_655 S
C331 O326 1.241 . S
C332 O322 1.244 . S
C332 O327 1.256 . S
C333 O324 1.239 1_554 S
C333 O325 1.256 . S
O334 Mn316 2.221 . S
O334 Mn318 2.290 1_556 S
O334 C328 1.278 1_455 S
O335 Mn318 2.251 1_656 S
O335 C328 1.241 . S
C336 C337 1.387 . S
C336 H340 0.950 . S
C336 C345 1.390 . S
C337 C336 1.387 . S
C337 C339 1.387 . S
H338 C345 0.950 . S
C339 C337 1.387 . S
C339 C341 1.390 . S
C339 H343 0.950 . S
H340 C336 0.950 . S
C341 C339 1.390 . S
C341 C342 1.387 . S
C341 H344 0.950 . S
C342 C341 1.387 . S
C342 C345 1.387 . S
H343 C339 0.950 . S
H344 C341 0.950 . S
C345 C336 1.390 . S
C345 H338 0.950 . S
C345 C342 1.387 . S
C346 C347 1.387 . S
C346 H350 0.950 . S
C346 C355 1.390 . S
C347 C346 1.387 . S
C347 C349 1.387 . S
H348 C355 0.950 . S
C349 C347 1.387 . S
C349 C351 1.390 . S
C349 H353 0.950 . S
H350 C346 0.950 . S
C351 C349 1.390 . S
C351 C352 1.387 . S
C351 H354 0.950 . S
C352 C351 1.387 . S
C352 C355 1.387 . S
H353 C349 0.950 . S
H354 C351 0.950 . S
C355 C346 1.390 . S
C355 H348 0.950 . S
C355 C352 1.387 . S
C356 C357 1.387 . S
C356 H360 0.950 . S
C356 C365 1.390 . S
C357 C356 1.387 . S
C357 C359 1.387 . S
H358 C365 0.950 . S
C359 C357 1.387 . S
C359 C361 1.390 . S
C359 H363 0.950 . S
H360 C356 0.950 . S
C361 C359 1.390 . S
C361 C362 1.387 . S
C361 H364 0.950 . S
C362 C361 1.387 . S
C362 C365 1.387 . S
H363 C359 0.950 . S
H364 C361 0.950 . S
C365 C356 1.390 . S
C365 H358 0.950 . S
C365 C362 1.387 . S
C366 C367 1.387 . S
C366 H370 0.950 . S
C366 C375 1.390 . S
C367 C366 1.387 . S
C367 C369 1.387 . S
H368 C375 0.950 . S
C369 C367 1.387 . S
C369 C371 1.390 . S
C369 H373 0.950 . S
H370 C366 0.950 . S
C371 C369 1.390 . S
C371 C372 1.387 . S
C371 H374 0.950 . S
C372 C371 1.387 . S
C372 C375 1.387 . S
H373 C369 0.950 . S
H374 C371 0.950 . S
C375 C366 1.390 . S
C375 H368 0.950 . S
C375 C372 1.387 . S
C376 C377 1.387 . S
C376 H380 0.950 . S
C376 C385 1.390 . S
C377 C376 1.387 . S
C377 C379 1.387 . S
H378 C385 0.950 . S
C379 C377 1.387 . S
C379 C381 1.390 . S
C379 H383 0.950 . S
H380 C376 0.950 . S
C381 C379 1.390 . S
C381 C382 1.387 . S
C381 H384 0.950 . S
C382 C381 1.387 . S
C382 C385 1.387 . S
H383 C379 0.950 . S
H384 C381 0.950 . S
C385 C376 1.390 . S
C385 H378 0.950 . S
C385 C382 1.387 . S
C386 C387 1.387 . S
C386 H390 0.950 . S
C386 C395 1.390 . S
C387 C386 1.387 . S
C387 C389 1.387 . S
H388 C395 0.950 . S
C389 C387 1.387 . S
C389 C391 1.390 . S
C389 H393 0.950 . S
H390 C386 0.950 . S
C391 C389 1.390 . S
C391 C392 1.387 . S
C391 H394 0.950 . S
C392 C391 1.387 . S
C392 C395 1.387 . S
H393 C389 0.950 . S
H394 C391 0.950 . S
C395 C386 1.390 . S
C395 H388 0.950 . S
C395 C392 1.387 . S
C396 C397 1.387 . S
C396 H400 0.950 . S
C396 C405 1.390 . S
C397 C396 1.387 . S
C397 C399 1.387 . S
H398 C405 0.950 . S
C399 C397 1.387 . S
C399 C401 1.390 . S
C399 H403 0.950 . S
H400 C396 0.950 . S
C401 C399 1.390 . S
C401 C402 1.387 . S
C401 H404 0.950 . S
C402 C401 1.387 . S
C402 C405 1.387 . S
H403 C399 0.950 . S
H404 C401 0.950 . S
C405 C396 1.390 . S
C405 H398 0.950 . S
C405 C402 1.387 . S
C406 C407 1.387 . S
C406 H410 0.950 . S
C406 C415 1.390 . S
C407 C406 1.387 . S
C407 C409 1.387 . S
H408 C415 0.950 . S
C409 C407 1.387 . S
C409 C411 1.390 . S
C409 H413 0.950 . S
H410 C406 0.950 . S
C411 C409 1.390 . S
C411 C412 1.387 . S
C411 H414 0.950 . S
C412 C411 1.387 . S
C412 C415 1.387 . S
H413 C409 0.950 . S
H414 C411 0.950 . S
C415 C406 1.390 . S
C415 H408 0.950 . S
C415 C412 1.387 . S
C416 C417 1.387 . S
C416 H420 0.950 . S
C416 C425 1.390 . S
C417 C416 1.387 . S
C417 C419 1.387 . S
H418 C425 0.950 . S
C419 C417 1.387 . S
C419 C421 1.390 . S
C419 H423 0.950 . S
H420 C416 0.950 . S
C421 C419 1.390 . S
C421 C422 1.387 . S
C421 H424 0.950 . S
C422 C421 1.387 . S
C422 C425 1.387 . S
H423 C419 0.950 . S
H424 C421 0.950 . S
C425 C416 1.390 . S
C425 H418 0.950 . S
C425 C422 1.387 . S
C426 C427 1.387 . S
C426 H430 0.950 . S
C426 C435 1.390 . S
C427 C426 1.387 . S
C427 C429 1.387 . S
H428 C435 0.950 . S
C429 C427 1.387 . S
C429 C431 1.390 . S
C429 H433 0.950 . S
H430 C426 0.950 . S
C431 C429 1.390 . S
C431 C432 1.387 . S
C431 H434 0.950 . S
C432 C431 1.387 . S
C432 C435 1.387 . S
H433 C429 0.950 . S
H434 C431 0.950 . S
C435 C426 1.390 . S
C435 H428 0.950 . S
C435 C432 1.387 . S
C436 C437 1.387 . S
C436 H440 0.950 . S
C436 C445 1.390 . S
C437 C436 1.387 . S
C437 C439 1.387 . S
H438 C445 0.950 . S
C439 C437 1.387 . S
C439 C441 1.390 . S
C439 H443 0.950 . S
H440 C436 0.950 . S
C441 C439 1.390 . S
C441 C442 1.387 . S
C441 H444 0.950 . S
C442 C441 1.387 . S
C442 C445 1.387 . S
H443 C439 0.950 . S
H444 C441 0.950 . S
C445 C436 1.390 . S
C445 H438 0.950 . S
C445 C442 1.387 . S
C446 C447 1.387 . S
C446 H450 0.950 . S
C446 C455 1.390 . S
C447 C446 1.387 . S
C447 C449 1.387 . S
H448 C455 0.950 . S
C449 C447 1.387 . S
C449 C451 1.390 . S
C449 H453 0.950 . S
H450 C446 0.950 . S
C451 C449 1.390 . S
C451 C452 1.387 . S
C451 H454 0.950 . S
C452 C451 1.387 . S
C452 C455 1.387 . S
H453 C449 0.950 . S
H454 C451 0.950 . S
C455 C446 1.390 . S
C455 H448 0.950 . S
C455 C452 1.387 . S
C456 C457 1.387 . S
C456 H460 0.950 . S
C456 C465 1.390 . S
C457 C456 1.387 . S
C457 C459 1.387 . S
H458 C465 0.950 . S
C459 C457 1.387 . S
C459 C461 1.390 . S
C459 H463 0.950 . S
H460 C456 0.950 . S
C461 C459 1.390 . S
C461 C462 1.387 . S
C461 H464 0.950 . S
C462 C461 1.387 . S
C462 C465 1.387 . S
H463 C459 0.950 . S
H464 C461 0.950 . S
C465 C456 1.390 . S
C465 H458 0.950 . S
C465 C462 1.387 . S
C466 C467 1.387 . S
C466 H470 0.950 . S
C466 C475 1.390 . S
C467 C466 1.387 . S
C467 C469 1.387 . S
H468 C475 0.950 . S
C469 C467 1.387 . S
C469 C471 1.390 . S
C469 H473 0.950 . S
H470 C466 0.950 . S
C471 C469 1.390 . S
C471 C472 1.387 . S
C471 H474 0.950 . S
C472 C471 1.387 . S
C472 C475 1.387 . S
H473 C469 0.950 . S
H474 C471 0.950 . S
C475 C466 1.390 . S
C475 H468 0.950 . S
C475 C472 1.387 . S
C476 C477 1.387 . S
C476 H480 0.950 . S
C476 C485 1.390 . S
C477 C476 1.387 . S
C477 C479 1.387 . S
H478 C485 0.950 . S
C479 C477 1.387 . S
C479 C481 1.390 . S
C479 H483 0.950 . S
H480 C476 0.950 . S
C481 C479 1.390 . S
C481 C482 1.387 . S
C481 H484 0.950 . S
C482 C481 1.387 . S
C482 C485 1.387 . S
H483 C479 0.950 . S
H484 C481 0.950 . S
C485 C476 1.390 . S
C485 H478 0.950 . S
C485 C482 1.387 . S
C486 C487 1.387 . S
C486 H490 0.950 . S
C486 C495 1.390 . S
C487 C486 1.387 . S
C487 C489 1.387 . S
H488 C495 0.950 . S
C489 C487 1.387 . S
C489 C491 1.390 . S
C489 H493 0.950 . S
H490 C486 0.950 . S
C491 C489 1.390 . S
C491 C492 1.387 . S
C491 H494 0.950 . S
C492 C491 1.387 . S
C492 C495 1.387 . S
H493 C489 0.950 . S
H494 C491 0.950 . S
C495 C486 1.390 . S
C495 H488 0.950 . S
C495 C492 1.387 . S
C496 C497 1.387 . S
C496 H500 0.950 . S
C496 C505 1.390 1_655 S
C497 C496 1.387 . S
C497 C499 1.387 . S
H498 C505 0.950 . S
C499 C497 1.387 . S
C499 C501 1.390 1_655 S
C499 H503 0.950 . S
H500 C496 0.950 . S
C501 C499 1.390 1_455 S
C501 C502 1.387 . S
C501 H504 0.950 . S
C502 C501 1.387 . S
C502 C505 1.387 . S
H503 C499 0.950 . S
H504 C501 0.950 . S
C505 C496 1.390 1_455 S
C505 H498 0.950 . S
C505 C502 1.387 . S
C506 C507 1.387 . S
C506 H510 0.950 . S
C506 C515 1.390 1_655 S
C507 C506 1.387 . S
C507 C509 1.387 . S
H508 C515 0.950 . S
C509 C507 1.387 . S
C509 C511 1.390 1_655 S
C509 H513 0.950 . S
H510 C506 0.950 . S
C511 C509 1.390 1_455 S
C511 C512 1.387 . S
C511 H514 0.950 . S
C512 C511 1.387 . S
C512 C515 1.387 . S
H513 C509 0.950 . S
H514 C511 0.950 . S
C515 C506 1.390 1_455 S
C515 H508 0.950 . S
C515 C512 1.387 . S
C516 C517 1.387 . S
C516 H520 0.950 . S
C516 C525 1.390 . S
C517 C516 1.387 . S
C517 C519 1.387 . S
H518 C525 0.950 . S
C519 C517 1.387 . S
C519 C521 1.390 . S
C519 H523 0.950 . S
H520 C516 0.950 . S
C521 C519 1.390 . S
C521 C522 1.387 . S
C521 H524 0.950 . S
C522 C521 1.387 . S
C522 C525 1.387 . S
H523 C519 0.950 . S
H524 C521 0.950 . S
C525 C516 1.390 . S
C525 H518 0.950 . S
C525 C522 1.387 . S
C526 C527 1.387 . S
C526 H530 0.950 . S
C526 C535 1.390 . S
C527 C526 1.387 . S
C527 C529 1.387 . S
H528 C535 0.950 . S
C529 C527 1.387 . S
C529 C531 1.390 . S
C529 H533 0.950 1_556 S
H530 C526 0.950 . S
C531 C529 1.390 . S
C531 C532 1.387 . S
C531 H534 0.950 1_556 S
C532 C531 1.387 . S
C532 C535 1.387 . S
H533 C529 0.950 1_554 S
H534 C531 0.950 1_554 S
C535 C526 1.390 . S
C535 H528 0.950 . S
C535 C532 1.387 . S
C536 C537 1.387 . S
C536 H540 0.950 . S
C536 C545 1.390 1_455 S
C537 C536 1.387 . S
C537 C539 1.387 . S
H538 C545 0.950 . S
C539 C537 1.387 . S
C539 C541 1.390 1_455 S
C539 H543 0.950 . S
H540 C536 0.950 . S
C541 C539 1.390 1_655 S
C541 C542 1.387 . S
C541 H544 0.950 . S
C542 C541 1.387 . S
C542 C545 1.387 . S
H543 C539 0.950 . S
H544 C541 0.950 . S
C545 C536 1.390 1_655 S
C545 H538 0.950 . S
C545 C542 1.387 . S
C546 C547 1.387 . S
C546 H550 0.950 1_554 S
C546 C555 1.390 . S
C547 C546 1.387 . S
C547 C549 1.387 . S
H548 C555 0.950 1_556 S
C549 C547 1.387 . S
C549 C551 1.390 . S
C549 H553 0.950 . S
H550 C546 0.950 1_556 S
C551 C549 1.390 . S
C551 C552 1.387 . S
C551 H554 0.950 . S
C552 C551 1.387 . S
C552 C555 1.387 . S
H553 C549 0.950 . S
H554 C551 0.950 . S
C555 C546 1.390 . S
C555 H548 0.950 1_554 S
C555 C552 1.387 . S
C556 C557 1.387 . S
C556 H560 0.950 . S
C556 C565 1.390 . S
C557 C556 1.387 . S
C557 C559 1.387 . S
H558 C565 0.950 . S
C559 C557 1.387 . S
C559 C561 1.390 . S
C559 H563 0.950 . S
H560 C556 0.950 . S
C561 C559 1.390 . S
C561 C562 1.387 . S
C561 H564 0.950 . S
C562 C561 1.387 . S
C562 C565 1.387 . S
H563 C559 0.950 . S
H564 C561 0.950 . S
C565 C556 1.390 . S
C565 H558 0.950 . S
C565 C562 1.387 . S
C566 C567 1.387 . S
C566 H570 0.950 . S
C566 C575 1.390 1_455 S
C567 C566 1.387 . S
C567 C569 1.387 . S
H568 C575 0.950 . S
C569 C567 1.387 . S
C569 C571 1.390 1_455 S
C569 H573 0.950 . S
H570 C566 0.950 . S
C571 C569 1.390 1_655 S
C571 C572 1.387 . S
C571 H574 0.950 . S
C572 C571 1.387 . S
C572 C575 1.387 . S
H573 C569 0.950 . S
H574 C571 0.950 . S
C575 C566 1.390 1_655 S
C575 H568 0.950 . S
C575 C572 1.387 . S
C576 C577 1.387 . S
C576 H580 0.950 . S
C576 C585 1.390 1_544 S
C577 C576 1.387 . S
C577 C579 1.387 1_455 S
H578 C585 0.950 . S
C579 C577 1.387 1_655 S
C579 C581 1.390 1_544 S
C579 H583 0.950 . S
H580 C576 0.950 . S
C581 C579 1.390 1_566 S
C581 C582 1.387 1_655 S
C581 H584 0.950 . S
C582 C581 1.387 1_455 S
C582 C585 1.387 . S
H583 C579 0.950 . S
H584 C581 0.950 . S
C585 C576 1.390 1_566 S
C585 H578 0.950 . S
C585 C582 1.387 . S
C586 C587 1.387 . S
C586 H590 0.950 . S
C586 C595 1.390 . S
C587 C586 1.387 . S
C587 C589 1.387 . S
H588 C595 0.950 . S
C589 C587 1.387 . S
C589 C591 1.390 . S
C589 H593 0.950 . S
H590 C586 0.950 . S
C591 C589 1.390 . S
C591 C592 1.387 . S
C591 H594 0.950 . S
C592 C591 1.387 . S
C592 C595 1.387 . S
H593 C589 0.950 . S
H594 C591 0.950 . S
C595 C586 1.390 . S
C595 H588 0.950 . S
C595 C592 1.387 . S
C596 C597 1.387 . S
C596 H600 0.950 . S
C596 C605 1.390 1_545 S
C597 C596 1.387 . S
C597 C599 1.387 . S
H598 C605 0.950 . S
C599 C597 1.387 . S
C599 C601 1.390 1_545 S
C599 H603 0.950 . S
H600 C596 0.950 . S
C601 C599 1.390 1_565 S
C601 C602 1.387 . S
C601 H604 0.950 . S
C602 C601 1.387 . S
C602 C605 1.387 . S
H603 C599 0.950 . S
H604 C601 0.950 . S
C605 C596 1.390 1_565 S
C605 H598 0.950 . S
C605 C602 1.387 . S
C606 C607 1.387 . S
C606 H610 0.950 . S
C606 C615 1.390 . S
C607 C606 1.387 . S
C607 C609 1.387 . S
H608 C615 0.950 . S
C609 C607 1.387 . S
C609 C611 1.390 . S
C609 H613 0.950 . S
H610 C606 0.950 . S
C611 C609 1.390 . S
C611 C612 1.387 . S
C611 H614 0.950 . S
C612 C611 1.387 . S
C612 C615 1.387 . S
H613 C609 0.950 . S
H614 C611 0.950 . S
C615 C606 1.390 . S
C615 H608 0.950 . S
C615 C612 1.387 . S
C616 C617 1.387 . S
C616 H620 0.950 . S
C616 C625 1.390 . S
C617 C616 1.387 . S
C617 C619 1.387 . S
H618 C625 0.950 . S
C619 C617 1.387 . S
C619 C621 1.390 . S
C619 H623 0.950 . S
H620 C616 0.950 . S
C621 C619 1.390 . S
C621 C622 1.387 . S
C621 H624 0.950 . S
C622 C621 1.387 . S
C622 C625 1.387 . S
H623 C619 0.950 . S
H624 C621 0.950 . S
C625 C616 1.390 . S
C625 H618 0.950 . S
C625 C622 1.387 . S
C626 C627 1.387 . S
C626 H630 0.950 . S
C626 C635 1.390 . S
C627 C626 1.387 . S
C627 C629 1.387 . S
H628 C635 0.950 . S
C629 C627 1.387 . S
C629 C631 1.390 . S
C629 H633 0.950 . S
H630 C626 0.950 . S
C631 C629 1.390 . S
C631 C632 1.387 . S
C631 H634 0.950 . S
C632 C631 1.387 . S
C632 C635 1.387 . S
H633 C629 0.950 . S
H634 C631 0.950 . S
C635 C626 1.390 . S
C635 H628 0.950 . S
C635 C632 1.387 . S
C636 C637 1.387 . S
C636 H640 0.950 . S
C636 C645 1.390 . S
C637 C636 1.387 . S
C637 C639 1.387 . S
H638 C645 0.950 . S
C639 C637 1.387 . S
C639 C641 1.390 . S
C639 H643 0.950 . S
H640 C636 0.950 . S
C641 C639 1.390 . S
C641 C642 1.387 . S
C641 H644 0.950 . S
C642 C641 1.387 . S
C642 C645 1.387 . S
H643 C639 0.950 . S
H644 C641 0.950 . S
C645 C636 1.390 . S
C645 H638 0.950 . S
C645 C642 1.387 . S
C646 C647 1.387 1_455 S
C646 H650 0.950 . S
C646 C655 1.390 1_556 S
C647 C646 1.387 1_655 S
C647 C649 1.387 . S
H648 C655 0.950 . S
C649 C647 1.387 . S
C649 C651 1.390 1_556 S
C649 H653 0.950 . S
H650 C646 0.950 . S
C651 C649 1.390 1_554 S
C651 C652 1.387 . S
C651 H654 0.950 . S
C652 C651 1.387 . S
C652 C655 1.387 1_655 S
H653 C649 0.950 . S
H654 C651 0.950 . S
C655 C646 1.390 1_554 S
C655 H648 0.950 . S
C655 C652 1.387 1_455 S
C656 C657 1.387 . S
C656 H660 0.950 . S
C656 C665 1.390 . S
C657 C656 1.387 . S
C657 C659 1.387 . S
H658 C665 0.950 . S
C659 C657 1.387 . S
C659 C661 1.390 . S
C659 H663 0.950 . S
H660 C656 0.950 . S
C661 C659 1.390 . S
C661 C662 1.387 . S
C661 H664 0.950 . S
C662 C661 1.387 . S
C662 C665 1.387 . S
H663 C659 0.950 . S
H664 C661 0.950 . S
C665 C656 1.390 . S
C665 H658 0.950 . S
C665 C662 1.387 . S
C666 C667 1.387 . S
C666 H670 0.950 . S
C666 C675 1.390 . S
C667 C666 1.387 . S
C667 C669 1.387 . S
H668 C675 0.950 . S
C669 C667 1.387 . S
C669 C671 1.390 . S
C669 H673 0.950 . S
H670 C666 0.950 . S
C671 C669 1.390 . S
C671 C672 1.387 . S
C671 H674 0.950 . S
C672 C671 1.387 . S
C672 C675 1.387 . S
H673 C669 0.950 . S
H674 C671 0.950 . S
C675 C666 1.390 . S
C675 H668 0.950 . S
C675 C672 1.387 . S
C676 C677 1.387 . S
C676 H680 0.950 . S
C676 C685 1.390 . S
C677 C676 1.387 . S
C677 C679 1.387 . S
H678 C685 0.950 . S
C679 C677 1.387 . S
C679 C681 1.390 . S
C679 H683 0.950 . S
H680 C676 0.950 . S
C681 C679 1.390 . S
C681 C682 1.387 . S
C681 H684 0.950 . S
C682 C681 1.387 . S
C682 C685 1.387 . S
H683 C679 0.950 . S
H684 C681 0.950 . S
C685 C676 1.390 . S
C685 H678 0.950 . S
C685 C682 1.387 . S
C686 C687 1.387 . S
C686 H690 0.950 . S
C686 C695 1.390 . S
C687 C686 1.387 . S
C687 C689 1.387 . S
H688 C695 0.950 . S
C689 C687 1.387 . S
C689 C691 1.390 . S
C689 H693 0.950 . S
H690 C686 0.950 . S
C691 C689 1.390 . S
C691 C692 1.387 . S
C691 H694 0.950 . S
C692 C691 1.387 . S
C692 C695 1.387 . S
H693 C689 0.950 . S
H694 C691 0.950 . S
C695 C686 1.390 . S
C695 H688 0.950 . S
C695 C692 1.387 . S
C696 C697 1.387 . S
C696 H700 0.950 . S
C696 C705 1.390 . S
C697 C696 1.387 . S
C697 C699 1.387 . S
H698 C705 0.950 . S
C699 C697 1.387 . S
C699 C701 1.390 . S
C699 H703 0.950 . S
H700 C696 0.950 . S
C701 C699 1.390 . S
C701 C702 1.387 . S
C701 H704 0.950 . S
C702 C701 1.387 . S
C702 C705 1.387 . S
H703 C699 0.950 . S
H704 C701 0.950 . S
C705 C696 1.390 . S
C705 H698 0.950 . S
C705 C702 1.387 . S
C706 C707 1.387 . S
C706 H710 0.950 . S
C706 C715 1.390 . S
C707 C706 1.387 . S
C707 C709 1.387 . S
H708 C715 0.950 . S
C709 C707 1.387 . S
C709 C711 1.390 . S
C709 H713 0.950 . S
H710 C706 0.950 . S
C711 C709 1.390 . S
C711 C712 1.387 . S
C711 H714 0.950 . S
C712 C711 1.387 . S
C712 C715 1.387 . S
H713 C709 0.950 . S
H714 C711 0.950 . S
C715 C706 1.390 . S
C715 H708 0.950 . S
C715 C712 1.387 . S
C716 C717 1.387 . S
C716 H720 0.950 . S
C716 C725 1.390 . S
C717 C716 1.387 . S
C717 C719 1.387 . S
H718 C725 0.950 . S
C719 C717 1.387 . S
C719 C721 1.390 . S
C719 H723 0.950 . S
H720 C716 0.950 . S
C721 C719 1.390 . S
C721 C722 1.387 . S
C721 H724 0.950 . S
C722 C721 1.387 . S
C722 C725 1.387 . S
H723 C719 0.950 . S
H724 C721 0.950 . S
C725 C716 1.390 . S
C725 H718 0.950 . S
C725 C722 1.387 . S
C726 C727 1.387 . S
C726 H730 0.950 . S
C726 C735 1.390 . S
C727 C726 1.387 . S
C727 C729 1.387 . S
H728 C735 0.950 . S
C729 C727 1.387 . S
C729 C731 1.390 . S
C729 H733 0.950 . S
H730 C726 0.950 . S
C731 C729 1.390 . S
C731 C732 1.387 . S
C731 H734 0.950 . S
C732 C731 1.387 . S
C732 C735 1.387 . S
H733 C729 0.950 . S
H734 C731 0.950 . S
C735 C726 1.390 . S
C735 H728 0.950 . S
C735 C732 1.387 . S
C736 C737 1.387 . S
C736 H740 0.950 . S
C736 C745 1.390 . S
C737 C736 1.387 . S
C737 C739 1.387 . S
H738 C745 0.950 . S
C739 C737 1.387 . S
C739 C741 1.390 . S
C739 H743 0.950 . S
H740 C736 0.950 . S
C741 C739 1.390 . S
C741 C742 1.387 . S
C741 H744 0.950 . S
C742 C741 1.387 . S
C742 C745 1.387 . S
H743 C739 0.950 . S
H744 C741 0.950 . S
C745 C736 1.390 . S
C745 H738 0.950 . S
C745 C742 1.387 . S
C746 C747 1.387 . S
C746 H750 0.950 . S
C746 C755 1.390 . S
C747 C746 1.387 . S
C747 C749 1.387 . S
H748 C755 0.950 . S
C749 C747 1.387 . S
C749 C751 1.390 . S
C749 H753 0.950 . S
H750 C746 0.950 . S
C751 C749 1.390 . S
C751 C752 1.387 . S
C751 H754 0.950 . S
C752 C751 1.387 . S
C752 C755 1.387 . S
H753 C749 0.950 . S
H754 C751 0.950 . S
C755 C746 1.390 . S
C755 H748 0.950 . S
C755 C752 1.387 . S
C756 C757 1.387 . S
C756 H760 0.950 . S
C756 C765 1.390 . S
C757 C756 1.387 . S
C757 C759 1.387 . S
H758 C765 0.950 . S
C759 C757 1.387 . S
C759 C761 1.390 . S
C759 H763 0.950 . S
H760 C756 0.950 . S
C761 C759 1.390 . S
C761 C762 1.387 . S
C761 H764 0.950 . S
C762 C761 1.387 . S
C762 C765 1.387 . S
H763 C759 0.950 . S
H764 C761 0.950 . S
C765 C756 1.390 . S
C765 H758 0.950 . S
C765 C762 1.387 . S
C766 C767 1.387 . S
C766 H770 0.950 . S
C766 C775 1.390 . S
C767 C766 1.387 . S
C767 C769 1.387 . S
H768 C775 0.950 . S
C769 C767 1.387 . S
C769 C771 1.390 . S
C769 H773 0.950 . S
H770 C766 0.950 . S
C771 C769 1.390 . S
C771 C772 1.387 . S
C771 H774 0.950 . S
C772 C771 1.387 . S
C772 C775 1.387 . S
H773 C769 0.950 . S
H774 C771 0.950 . S
C775 C766 1.390 . S
C775 H768 0.950 . S
C775 C772 1.387 . S
C776 C777 1.387 . S
C776 H780 0.950 . S
C776 C785 1.390 . S
C777 C776 1.387 . S
C777 C779 1.387 . S
H778 C785 0.950 . S
C779 C777 1.387 . S
C779 C781 1.390 . S
C779 H783 0.950 . S
H780 C776 0.950 . S
C781 C779 1.390 . S
C781 C782 1.387 . S
C781 H784 0.950 . S
C782 C781 1.387 . S
C782 C785 1.387 . S
H783 C779 0.950 . S
H784 C781 0.950 . S
C785 C776 1.390 . S
C785 H778 0.950 . S
C785 C782 1.387 . S
C786 C787 1.387 . S
C786 H790 0.950 . S
C786 C795 1.390 . S
C787 C786 1.387 . S
C787 C789 1.387 . S
H788 C795 0.950 . S
C789 C787 1.387 . S
C789 C791 1.390 . S
C789 H793 0.950 . S
H790 C786 0.950 . S
C791 C789 1.390 . S
C791 C792 1.387 . S
C791 H794 0.950 . S
C792 C791 1.387 . S
C792 C795 1.387 . S
H793 C789 0.950 . S
H794 C791 0.950 . S
C795 C786 1.390 . S
C795 H788 0.950 . S
C795 C792 1.387 . S
C796 C797 1.387 . S
C796 H800 0.950 . S
C796 C805 1.390 . S
C797 C796 1.387 . S
C797 C799 1.387 . S
H798 C805 0.950 . S
C799 C797 1.387 . S
C799 C801 1.390 . S
C799 H803 0.950 . S
H800 C796 0.950 . S
C801 C799 1.390 . S
C801 C802 1.387 . S
C801 H804 0.950 . S
C802 C801 1.387 . S
C802 C805 1.387 . S
H803 C799 0.950 . S
H804 C801 0.950 . S
C805 C796 1.390 . S
C805 H798 0.950 . S
C805 C802 1.387 . S
C806 C807 1.387 . S
C806 H810 0.950 . S
C806 C815 1.390 . S
C807 C806 1.387 . S
C807 C809 1.387 . S
H808 C815 0.950 . S
C809 C807 1.387 . S
C809 C811 1.390 . S
C809 H813 0.950 . S
H810 C806 0.950 . S
C811 C809 1.390 . S
C811 C812 1.387 . S
C811 H814 0.950 . S
C812 C811 1.387 . S
C812 C815 1.387 . S
H813 C809 0.950 . S
H814 C811 0.950 . S
C815 C806 1.390 . S
C815 H808 0.950 . S
C815 C812 1.387 . S
C337 C14 1.459 . S
C342 C164 1.460 . S
C347 C38 1.461 . S
C352 C98 1.456 . S
C357 C119 1.461 . S
C362 C56 1.458 . S
C367 C77 1.460 . S
C372 C140 1.459 . S
C377 C249 1.330 . S
C382 C102 1.335 . S
C387 C186 1.335 . S
C392 C18 1.331 . S
C397 C225 1.330 . S
C402 C144 1.335 . S
C407 C60 1.330 . S
C412 C204 1.335 . S
C417 C206 1.461 . S
C422 C266 1.457 . S
C427 C227 1.461 . S
C432 C308 1.457 . S
C437 C287 1.457 . S
C442 C182 1.460 . S
C447 C245 1.461 . S
C452 C329 1.458 . S
C457 C312 1.335 . S
C462 C81 1.330 . S
C467 C270 1.331 . S
C472 C123 1.335 . S
C477 C36 1.330 . S
C482 C333 1.336 . S
C487 C162 1.335 . S
C492 C291 1.331 . S
C497 C286 0.726 . S
C502 C13 0.726 . S
C507 C244 0.726 . S
C512 C37 0.726 . S
C517 C265 0.726 . S
C522 C55 0.726 . S
C527 C226 0.726 . S
C532 C76 0.726 . S
C537 C97 0.724 . S
C542 C328 0.724 . S
C547 C205 0.724 . S
C552 C118 0.724 . S
C557 C139 0.724 . S
C562 C307 0.724 . S
C567 C163 0.724 . S
C572 C181 0.724 . S
C577 C16 1.349 . S
C582 C100 1.349 . S
C587 C34 1.346 . S
C592 C121 1.346 . S
C597 C142 1.349 . S
C602 C58 1.349 . S
C607 C79 1.349 . S
C612 C160 1.349 . S
C617 C223 1.346 . S
C622 C184 1.346 . S
C627 C247 1.346 . S
C632 C202 1.346 . S
C637 C268 1.347 . S
C642 C310 1.347 . S
C647 C331 1.346 . S
C652 C289 1.346 . S
C657 C17 1.567 . S
C662 C161 1.567 . S
C667 C35 1.566 . S
C672 C101 1.566 . S
C677 C122 1.566 . S
C682 C59 1.566 . S
C687 C143 1.566 . S
C692 C80 1.566 . S
C697 C246 1.476 . S
C702 C99 1.475 . S
C707 C183 1.476 . S
C712 C15 1.477 . S
C717 C228 1.476 . S
C722 C141 1.477 . S
C727 C57 1.475 . S
C732 C207 1.476 . S
C737 C269 1.566 . S
C742 C203 1.566 . S
C747 C311 1.566 . S
C752 C224 1.566 . S
C757 C290 1.567 . S
C762 C185 1.566 . S
C767 C332 1.566 . S
C772 C248 1.567 . S
C777 C309 1.477 . S
C782 C78 1.475 . S
C787 C120 1.476 . S
C792 C267 1.477 . S
C797 C39 1.476 . S
C802 C330 1.477 . S
C807 C288 1.475 . S
C812 C165 1.476 . S
