# Generated by pormake.
# Topology smc, (6)-cn, num edge types: 1
# Building blocks:
#     Node 0, Type 0, BuildingBlock: BETDIP_clean_sbu_0, # of connection points: 6
#     Node 1, Type 0, BuildingBlock: BETDIP_clean_sbu_0, # of connection points: 6
#     Node 2, Type 0, BuildingBlock: BETDIP_clean_sbu_0, # of connection points: 6
#     Node 3, Type 0, BuildingBlock: BETDIP_clean_sbu_0, # of connection points: 6
#     Node 4, Type 0, BuildingBlock: BETDIP_clean_sbu_0, # of connection points: 6
#     Node 5, Type 0, BuildingBlock: BETDIP_clean_sbu_0, # of connection points: 6
#     Node 6, Type 0, BuildingBlock: BETDIP_clean_sbu_0, # of connection points: 6
#     Node 7, Type 0, BuildingBlock: BETDIP_clean_sbu_0, # of connection points: 6
#     Node 8, Type 0, BuildingBlock: BETDIP_clean_sbu_0, # of connection points: 6
#     Edge 9, Type (0, 0), None
#     Edge 10, Type (0, 0), None
#     Edge 11, Type (0, 0), None
#     Edge 12, Type (0, 0), None
#     Edge 13, Type (0, 0), None
#     Edge 14, Type (0, 0), None
#     Edge 15, Type (0, 0), None
#     Edge 16, Type (0, 0), None
#     Edge 17, Type (0, 0), None
#     Edge 18, Type (0, 0), None
#     Edge 19, Type (0, 0), None
#     Edge 20, Type (0, 0), None
#     Edge 21, Type (0, 0), None
#     Edge 22, Type (0, 0), None
#     Edge 23, Type (0, 0), None
#     Edge 24, Type (0, 0), None
#     Edge 25, Type (0, 0), None
#     Edge 26, Type (0, 0), None
#     Edge 27, Type (0, 0), None
#     Edge 28, Type (0, 0), None
#     Edge 29, Type (0, 0), None
#     Edge 30, Type (0, 0), None
#     Edge 31, Type (0, 0), None
#     Edge 32, Type (0, 0), None
#     Edge 33, Type (0, 0), None
#     Edge 34, Type (0, 0), None
#     Edge 35, Type (0, 0), None
# Relax obj value: 0.239
# Max RMSD: 0.411
# Mean RMSD: 0.411
data_MOF--net-smc--node1-BETDIP_clean_sbu_0--edge1-none
_symmetry_space_group_name_H-M    P1
_symmetry_Int_Tables_number       1
_symmetry_cell_setting            triclinic
loop_
_symmetry_equiv_pos_as_xyz
'x, y, z'
_cell_length_a     22.141861
_cell_length_b     22.143998
_cell_length_c     15.998684
_cell_angle_alpha  89.994449
_cell_angle_beta   90.01463
_cell_angle_gamma 120.00988
loop_
_atom_site_label
_atom_site_type_symbol
_atom_site_fract_x
_atom_site_fract_y
_atom_site_fract_z
_atom_type_partial_charge
Tb0 Tb 0.13237 0.54031 0.9732 0.0
Tb1 Tb 1.03936 0.40855 0.04849 0.0
C2 C 0.21994 0.6684 0.9657 0.0
C3 C 0.2352 0.74184 0.96723 0.0
C4 C 0.25559 0.78029 0.04194 0.0
C5 C 0.28768 0.85324 0.04069 0.0
C6 C 0.30208 0.89041 0.96495 0.0
C7 C 0.27902 0.85097 0.89093 0.0
C8 C 0.24476 0.77804 0.89196 0.0
C9 C 1.0431 0.44124 0.86716 0.0
C10 C 0.1912 0.44519 0.95884 0.0
C11 C 0.93943 0.28763 0.06737 0.0
C12 C 0.86316 0.2606 0.06176 0.0
C13 C 0.83137 0.26018 0.98554 0.0
C14 C 0.75926 0.23291 0.98129 0.0
C15 C 0.71746 0.20679 0.05313 0.0
C16 C 0.74918 0.20925 0.12982 0.0
C17 C 0.82148 0.2361 0.13412 0.0
C18 C 0.13904 0.47645 0.15855 0.0
C19 C 0.99723 0.52772 0.0445 0.0
O20 O 0.20135 0.63257 0.03576 0.0
O21 O 0.18913 0.6299 0.89971 0.0
O22 O 1.0315 0.45478 0.94011 0.0
O23 O 0.10607 0.49047 0.84858 0.0
O24 O 0.19885 0.50442 0.93352 0.0
O25 O 0.13444 0.40033 1.00452 0.0
O26 O 0.97612 0.30834 0.99839 0.0
O27 O 0.97096 0.32993 0.12969 0.0
O28 O 0.14413 0.48174 0.07904 0.0
O29 O 1.07292 0.44427 0.17514 0.0
O30 O 0.98009 0.46401 0.06892 0.0
O31 O 1.05448 0.56667 1.00335 0.0
H32 H 0.25179 0.75465 0.10096 0.0
H33 H 0.30892 0.8801 0.09839 0.0
H34 H 0.296 0.87616 0.83123 0.0
H35 H 0.23244 0.75064 0.83278 0.0
H36 H 0.86171 0.27918 0.92868 0.0
H37 H 0.73552 0.22944 0.92093 0.0
H38 H 0.71773 0.18675 0.18528 0.0
H39 H 0.84463 0.23613 0.19377 0.0
Tb40 Tb 0.61106 0.63098 0.9728 0.0
Tb41 Tb 0.74294 0.67045 0.04821 0.0
C42 C 0.48314 0.59144 0.96503 0.0
C43 C 0.4095 0.53362 0.96687 0.0
C44 C 0.37088 0.51611 0.04139 0.0
C45 C 0.29792 0.4747 0.03997 0.0
C46 C 0.26079 0.4507 0.96431 0.0
C47 C 0.30054 0.46743 0.89048 0.0
C48 C 0.37344 0.50654 0.89166 0.0
C49 C 0.71066 0.64192 0.86687 0.0
C50 C 0.70541 0.78392 0.9564 0.0
C51 C 0.86453 0.69321 0.06696 0.0
C52 C 0.89275 0.64495 0.06172 0.0
C53 C 0.8944 0.61396 0.98563 0.0
C54 C 0.92358 0.57069 0.98186 0.0
C55 C 0.95026 0.55625 0.05411 0.0
C56 C 0.9464 0.58492 0.13056 0.0
C57 C 0.91772 0.62873 0.13437 0.0
C58 C 0.67439 0.70148 0.15796 0.0
C59 C 0.62426 0.50917 0.0444 0.0
O60 O 0.51905 0.60939 0.03506 0.0
O61 O 0.52146 0.59777 0.8994 0.0
O62 O 0.69715 0.61649 0.93971 0.0
O63 O 0.66099 0.65497 0.84825 0.0
O64 O 0.64721 0.73206 0.92954 0.0
O65 O 0.74977 0.77286 1.0041 0.0
O66 O 0.84317 0.70826 0.99786 0.0
O67 O 0.82223 0.68217 0.12937 0.0
O68 O 0.66945 0.7017 0.07844 0.0
O69 O 0.70665 0.66763 0.17462 0.0
O70 O 0.68795 0.55588 0.06877 0.0
O71 O 0.58508 0.52707 1.00307 0.0
H72 H 0.39638 0.53859 0.1003 0.0
H73 H 0.27107 0.46947 0.09736 0.0
H74 H 0.27566 0.45929 0.83068 0.0
H75 H 0.40088 0.52149 0.83252 0.0
H76 H 0.875 0.62454 0.92855 0.0
H77 H 0.92796 0.55067 0.92174 0.0
H78 H 0.96899 0.57657 0.18638 0.0
H79 H 0.91672 0.65148 0.19392 0.0
Tb80 Tb 0.52108 1.02412 0.97179 0.0
Tb81 Tb 0.48041 0.11325 0.04843 0.0
C82 C 0.58251 0.95609 0.96853 0.0
C83 C 0.61902 0.91575 0.96606 0.0
C84 C 0.63454 0.89257 0.0401 0.0
C85 C 0.67345 0.85862 0.03795 0.0
C86 C 0.69775 0.84637 0.96208 0.0
C87 C 0.68058 0.86903 0.88827 0.0
C88 C 0.6435 0.90475 0.89013 0.0
C89 C 0.50803 0.11086 0.86648 0.0
C90 C 0.36707 0.95895 0.96036 0.0
C91 C 0.45719 0.21169 0.06672 0.0
C92 C 0.50608 0.28801 0.06177 0.0
C93 C 0.5374 0.32047 0.98572 0.0
C94 C 0.58128 0.39278 0.98201 0.0
C95 C 0.59593 0.43387 0.05425 0.0
C96 C 0.56709 0.40153 0.13071 0.0
C97 C 0.52274 0.32914 0.13449 0.0
C98 C 0.45083 1.01515 0.15857 0.0
C99 C 0.64195 0.16062 0.0419 0.0
O100 O 0.56535 0.97426 0.03906 0.0
O101 O 0.55986 0.97154 0.90044 0.0
O102 O 0.53425 0.12387 0.93895 0.0
O103 O 0.49455 1.04792 0.84798 0.0
O104 O 0.41905 0.95026 0.93893 0.0
O105 O 0.37823 1.01697 1.00299 0.0
O106 O 0.44257 0.17547 0.99763 0.0
O107 O 0.46722 0.17998 0.12938 0.0
O108 O 0.45112 1.00913 0.0792 0.0
O109 O 0.48384 0.0812 0.17498 0.0
O110 O 0.5943 0.17253 0.07511 0.0
O111 O 0.62416 0.10852 0.99158 0.0
H112 H 0.61554 0.89946 0.09968 0.0
H113 H 0.67854 0.83667 0.09515 0.0
H114 H 0.68893 0.85265 0.82828 0.0
H115 H 0.63181 0.92137 0.83162 0.0
H116 H 0.52658 0.2905 0.92862 0.0
H117 H 0.60144 0.41713 0.92189 0.0
H118 H 0.57564 0.43255 0.18648 0.0
H119 H 0.49995 0.30551 0.19405 0.0
Tb120 Tb 0.79279 0.87184 0.30566 0.0
Tb121 Tb 0.70482 0.74273 0.38253 0.0
C122 C 0.86155 1.00136 0.30232 0.0
C123 C 0.9023 0.07822 0.29985 0.0
C124 C 0.92594 0.11694 0.37385 0.0
C125 C 0.96024 0.18984 0.37161 0.0
C126 C 0.97238 0.2264 0.29574 0.0
C127 C 0.94938 0.18654 0.22198 0.0
C128 C 0.91341 0.11373 0.22392 0.0
C129 C 0.70693 0.77175 0.20033 0.0
C130 C 0.85777 0.7841 0.29129 0.0
C131 C 0.60706 0.62067 0.40075 0.0
C132 C 0.53072 0.59281 0.39547 0.0
C133 C 0.49839 0.59177 0.31934 0.0
C134 C 0.4261 0.56334 0.31545 0.0
C135 C 0.38491 0.53686 0.38761 0.0
C136 C 0.41713 0.54018 0.46412 0.0
C137 C 0.48949 0.56815 0.46806 0.0
C138 C 0.80362 0.81105 0.49236 0.0
C139 C 0.65678 0.85622 0.37548 0.0
O140 O 0.84401 0.96598 0.37279 0.0
O141 O 0.84477 0.96325 0.23416 0.0
O142 O 0.69321 0.7848 0.27257 0.0
O143 O 0.76974 0.82154 0.18197 0.0
O144 O 0.86544 0.84398 0.26861 0.0
O145 O 0.80108 0.73776 0.33613 0.0
O146 O 0.64342 0.64249 0.3318 0.0
O147 O 0.63838 0.66253 0.46342 0.0
O148 O 0.80926 0.81735 0.41288 0.0
O149 O 0.73761 0.77784 0.50908 0.0
O150 O 0.64577 0.79739 0.40995 0.0
O151 O 0.70808 0.88992 0.32402 0.0
H152 H 0.91906 0.09105 0.43344 0.0
H153 H 0.98244 0.2169 0.42874 0.0
H154 H 0.96544 0.21129 0.16194 0.0
H155 H 0.89652 0.0854 0.16545 0.0
H156 H 0.52846 0.61106 0.26233 0.0
H157 H 0.40183 0.55925 0.25529 0.0
H158 H 0.38601 0.51764 0.51981 0.0
H159 H 0.51305 0.56884 0.52765 0.0
Tb160 Tb 0.28071 0.96441 0.30505 0.0
Tb161 Tb 0.41021 1.00516 0.38228 0.0
C162 C 0.15134 0.90298 0.30153 0.0
C163 C 1.07458 0.86653 0.29935 0.0
C164 C 1.03629 0.85123 0.37366 0.0
C165 C 0.96348 0.81309 0.37186 0.0
C166 C 0.92671 0.78954 0.29605 0.0
C167 C 0.96595 0.80583 0.22195 0.0
C168 C 1.03878 0.84225 0.2235 0.0
C169 C 0.38039 0.97729 0.20004 0.0
C170 C 0.36944 0.11847 0.29392 0.0
C171 C 0.53175 1.02808 0.40111 0.0
C172 C 0.55843 0.97859 0.39567 0.0
C173 C 0.55827 0.94688 0.31948 0.0
C174 C 0.58482 0.9015 0.31522 0.0
C175 C 0.6108 0.88562 0.38701 0.0
C176 C 0.6088 0.91508 0.46372 0.0
C177 C 0.58262 0.96107 0.46803 0.0
C178 C 0.3411 1.0346 0.49198 0.0
C179 C 0.2961 0.8436 0.37539 0.0
O180 O 0.18666 0.91994 0.37208 0.0
O181 O 0.18941 0.92577 0.23343 0.0
O182 O 0.36732 0.9512 0.27258 0.0
O183 O 0.331 0.99084 0.1814 0.0
O184 O 0.30888 0.06643 0.2722 0.0
O185 O 0.41623 0.10733 0.33675 0.0
O186 O 0.51051 1.04331 0.3321 0.0
O187 O 0.48986 1.01793 0.46361 0.0
O188 O 0.33521 1.03434 0.41257 0.0
O189 O 0.37451 1.00202 0.5087 0.0
O190 O 0.35542 0.89129 0.40912 0.0
O191 O 0.26212 0.86137 0.32454 0.0
H192 H 1.06246 0.86998 0.43316 0.0
H193 H 0.93668 0.80827 0.42925 0.0
H194 H 0.94074 0.79705 0.16211 0.0
H195 H 1.0669 0.85362 0.1649 0.0
H196 H 0.53937 0.95835 0.26262 0.0
H197 H 0.58797 0.88106 0.25483 0.0
H198 H 0.63123 0.90592 0.51912 0.0
H199 H 0.58289 0.98435 0.52767 0.0
Tb200 Tb 0.18763 0.35511 0.3063 0.0
Tb201 Tb 0.14837 0.44731 0.38186 0.0
C202 C 0.22704 0.26674 0.29844 0.0
C203 C 0.28473 0.25085 0.30041 0.0
C204 C 0.30234 0.23017 0.37521 0.0
C205 C 0.34292 0.1978 0.3741 0.0
C206 C 0.36579 0.18341 0.29846 0.0
C207 C 0.34961 0.20648 0.22434 0.0
C208 C 0.3113 0.24108 0.22523 0.0
C209 C 0.17679 0.44359 0.20047 0.0
C210 C 1.03476 0.29654 0.28986 0.0
C211 C 0.1258 0.54615 0.40102 0.0
C212 C 0.17473 0.62246 0.3954 0.0
C213 C 0.20613 0.65422 0.31917 0.0
C214 C 0.251 0.72629 0.31489 0.0
C215 C 0.26669 0.76811 0.38671 0.0
C216 C 0.2374 0.73646 0.46341 0.0
C217 C 0.19191 0.66418 0.46773 0.0
C218 C 0.11759 0.34779 0.49155 0.0
C219 C 0.30963 0.49 0.37765 0.0
O220 O 0.20903 0.2846 0.36848 0.0
O221 O 0.22085 0.29882 0.2328 0.0
O222 O 0.20238 0.45582 0.27322 0.0
O223 O 0.16336 0.38075 0.18192 0.0
O224 O 0.08658 0.2903 0.26271 0.0
O225 O 1.04588 0.3518 0.33785 0.0
O226 O 0.11024 0.50957 0.33197 0.0
O227 O 0.13682 0.5148 0.46334 0.0
O228 O 0.11704 0.34257 0.41204 0.0
O229 O 0.15164 0.4139 0.50816 0.0
O230 O 0.26295 0.50687 0.40238 0.0
O231 O 0.29165 0.43305 0.33603 0.0
H232 H 0.28042 0.23404 0.43413 0.0
H233 H 0.34824 0.17644 0.43179 0.0
H234 H 0.35769 0.18935 0.16471 0.0
H235 H 0.29643 0.25352 0.16598 0.0
H236 H 0.19484 0.62386 0.26233 0.0
H237 H 0.27131 0.74999 0.25453 0.0
H238 H 0.24639 0.76796 0.51884 0.0
H239 H 0.16878 0.64104 0.52738 0.0
Tb240 Tb 0.45915 0.20462 0.63888 0.0
Tb241 Tb 0.37128 0.07558 0.71561 0.0
C242 C 0.5278 0.33395 0.63532 0.0
C243 C 0.56847 0.41064 0.63282 0.0
C244 C 0.59221 0.44905 0.7069 0.0
C245 C 0.6272 0.52182 0.70482 0.0
C246 C 0.63995 0.55854 0.62905 0.0
C247 C 0.61672 0.51908 0.55513 0.0
C248 C 0.57992 0.44628 0.5569 0.0
C249 C 0.37293 0.10497 0.5335 0.0
C250 C 0.52453 0.11732 0.62442 0.0
C251 C 0.27319 0.95378 0.73429 0.0
C252 C 0.19697 0.92686 0.72906 0.0
C253 C 0.16521 0.92681 0.65295 0.0
C254 C 0.09326 0.90017 0.64891 0.0
C255 C 1.05154 0.87426 0.72084 0.0
C256 C 0.08323 0.87653 0.79747 0.0
C257 C 0.15543 0.90284 0.80157 0.0
C258 C 0.46979 0.14328 0.8253 0.0
C259 C 0.32344 0.18928 0.70894 0.0
O260 O 0.51022 0.29869 0.70591 0.0
O261 O 0.51112 0.29585 0.56719 0.0
O262 O 0.35948 0.11787 0.60593 0.0
O263 O 0.43581 0.15458 0.51518 0.0
O264 O 0.53197 0.17706 0.6016 0.0
O265 O 0.46778 0.07087 0.66917 0.0
O266 O 0.30956 0.97525 0.66525 0.0
O267 O 0.3049 0.99562 0.79683 0.0
O268 O 0.47569 0.15005 0.74592 0.0
O269 O 0.40384 0.11033 0.84222 0.0
O270 O 0.3124 0.1304 0.74328 0.0
O271 O 0.3747 0.22298 0.65746 0.0
H272 H 0.58515 0.42301 0.76642 0.0
H273 H 0.64987 0.54852 0.76193 0.0
H274 H 0.63324 0.54401 0.49521 0.0
H275 H 0.56288 0.41806 0.49838 0.0
H276 H 0.19545 0.94564 0.596 0.0
H277 H 1.06952 0.8969 0.58858 0.0
H278 H 1.05179 0.85423 0.85299 0.0
H279 H 0.17861 0.90285 0.86119 0.0
Tb280 Tb 0.94795 0.29667 0.63975 0.0
Tb281 Tb 1.07641 0.33748 0.71625 0.0
C282 C 0.81846 0.2357 0.63617 0.0
C283 C 0.74166 0.19951 0.63366 0.0
C284 C 0.70309 0.18434 0.70774 0.0
C285 C 0.63024 0.14653 0.70552 0.0
C286 C 0.59369 0.12313 0.62954 0.0
C287 C 0.63325 0.13965 0.55567 0.0
C288 C 0.70607 0.17566 0.55762 0.0
C289 C 1.04745 0.31027 0.53409 0.0
C290 C 1.03512 0.44904 0.62426 0.0
C291 C 0.19807 0.3607 0.73438 0.0
C292 C 0.22496 0.31143 0.72889 0.0
C293 C 0.22496 0.27985 0.6527 0.0
C294 C 0.25152 0.2345 0.64852 0.0
C295 C 0.27742 0.2186 0.72038 0.0
C296 C 0.27532 0.24798 0.79707 0.0
C297 C 0.24904 0.29386 0.80132 0.0
C298 C 1.01032 0.37015 0.82626 0.0
C299 C 0.96277 0.17596 0.70914 0.0
O300 O 0.85377 0.25316 0.70672 0.0
O301 O 0.8566 0.2575 0.5681 0.0
O302 O 1.03453 0.28357 0.60637 0.0
O303 O 0.99791 0.32367 0.51596 0.0
O304 O 0.97538 0.39674 0.60146 0.0
O305 O 1.08143 0.43871 0.66928 0.0
O306 O 0.17664 0.37593 0.66556 0.0
O307 O 0.15631 0.3504 0.79702 0.0
O308 O 1.00263 0.36839 0.74683 0.0
O309 O 1.04303 0.33692 0.84319 0.0
O310 O 1.02104 0.22382 0.74463 0.0
O311 O 0.92978 0.19373 0.65684 0.0
H312 H 0.72908 0.20291 0.76736 0.0
H313 H 0.6033 0.14179 0.76276 0.0
H314 H 0.60838 0.13142 0.4957 0.0
H315 H 0.73437 0.18712 0.49915 0.0
H316 H 0.2061 0.29136 0.59582 0.0
H317 H 0.25475 0.21408 0.58816 0.0
H318 H 0.29768 0.2388 0.85252 0.0
H319 H 0.24907 0.31693 0.86102 0.0
Tb320 Tb 0.85554 0.6928 0.63956 0.0
Tb321 Tb 0.81453 0.78039 0.71645 0.0
C322 C 0.91648 0.62428 0.6359 0.0
C323 C 0.95265 0.58367 0.63337 0.0
C324 C 0.96748 0.55997 0.70744 0.0
C325 C 1.00533 0.52501 0.70531 0.0
C326 C 1.02925 0.51232 0.62946 0.0
C327 C 1.01314 0.53569 0.55555 0.0
C328 C 0.97692 0.5723 0.55742 0.0
C329 C 0.84215 0.77912 0.53408 0.0
C330 C 0.70318 0.62773 0.62397 0.0
C331 C 0.79139 0.87892 0.73474 0.0
C332 C 0.84061 0.95512 0.72918 0.0
C333 C 0.87219 0.98672 0.65298 0.0
C334 C 0.91743 0.05869 0.64875 0.0
C335 C 0.93328 0.10053 0.72058 0.0
C336 C 0.90395 0.069 0.79729 0.0
C337 C 0.85809 0.99681 0.80156 0.0
C338 C 0.7818 0.68107 0.82606 0.0
C339 C 0.97611 0.82824 0.70948 0.0
O340 O 0.89901 0.64206 0.70647 0.0
O341 O 0.89469 0.64067 0.56784 0.0
O342 O 0.86853 0.7925 0.60658 0.0
O343 O 0.82899 0.71629 0.51571 0.0
O344 O 0.75546 0.62029 0.6012 0.0
O345 O 0.71339 0.68425 0.66916 0.0
O346 O 0.77607 0.84224 0.66592 0.0
O347 O 0.80186 0.84749 0.7973 0.0
O348 O 0.78376 0.67559 0.74658 0.0
O349 O 0.81449 0.74697 0.84331 0.0
O350 O 0.92822 0.83865 0.74488 0.0
O351 O 0.95842 0.77752 0.65716 0.0
H352 H 0.94856 0.56704 0.76698 0.0
H353 H 1.00959 0.50239 0.76244 0.0
H354 H 1.02204 0.51959 0.49557 0.0
H355 H 0.96574 0.58941 0.49895 0.0
H356 H 0.86074 0.95635 0.59613 0.0
H357 H 0.93783 0.08232 0.58837 0.0
H358 H 0.91311 0.10053 0.85272 0.0
H359 H 0.83491 0.97374 0.86122 0.0
loop_
_geom_bond_atom_site_label_1
_geom_bond_atom_site_label_2
_geom_bond_distance
_geom_bond_site_symmetry_2
_ccdc_geom_bond_type
Tb0 C2 2.809 . S
Tb0 O20 2.484 1_556 S
Tb0 O21 2.440 . S
Tb0 O22 2.658 1_455 S
Tb0 O23 2.409 . S
Tb0 O24 2.378 . S
Tb0 O28 2.325 1_556 S
Tb0 O31 2.341 1_456 S
Tb1 C11 2.809 . S
Tb1 O22 2.325 1_554 S
Tb1 O25 2.341 1_654 S
Tb1 O26 2.484 1_554 S
Tb1 O27 2.440 . S
Tb1 O28 2.658 1_655 S
Tb1 O29 2.409 . S
Tb1 O30 2.378 . S
C2 Tb0 2.809 . S
C2 C3 1.514 . S
C2 O20 1.248 1_556 S
C2 O21 1.266 . S
C3 C2 1.514 . S
C3 C4 1.359 1_556 S
C3 C8 1.348 . S
C4 C3 1.359 1_554 S
C4 C5 1.380 . S
C4 H32 0.929 . S
C5 C4 1.380 . S
C5 C6 1.347 1_554 S
C5 H33 0.931 . S
C6 C5 1.347 1_556 S
C6 C7 1.369 . S
C7 C6 1.369 . S
C7 C8 1.408 . S
C7 H34 0.930 . S
C8 C3 1.348 . S
C8 C7 1.408 . S
C8 H35 0.930 . S
C9 O22 1.281 . S
C9 O23 1.254 1_655 S
C10 O24 1.236 . S
C10 O25 1.266 . S
C11 Tb1 2.809 . S
C11 C12 1.514 . S
C11 O26 1.248 1_554 S
C11 O27 1.266 . S
C12 C11 1.514 . S
C12 C13 1.359 1_554 S
C12 C17 1.348 . S
C13 C12 1.359 1_556 S
C13 C14 1.380 . S
C13 H36 0.929 . S
C14 C13 1.380 . S
C14 C15 1.347 1_556 S
C14 H37 0.931 . S
C15 C14 1.347 1_554 S
C15 C16 1.369 . S
C16 C15 1.369 . S
C16 C17 1.408 . S
C16 H38 0.930 . S
C17 C12 1.348 . S
C17 C16 1.408 . S
C17 H39 0.930 . S
C18 O28 1.281 . S
C18 O29 1.254 1_455 S
C19 O30 1.236 . S
C19 O31 1.266 . S
O20 Tb0 2.484 1_554 S
O20 C2 1.248 1_554 S
O21 Tb0 2.440 . S
O21 C2 1.266 . S
O22 Tb0 2.658 1_655 S
O22 Tb1 2.325 1_556 S
O22 C9 1.281 . S
O23 Tb0 2.409 . S
O23 C9 1.254 1_455 S
O24 Tb0 2.378 . S
O24 C10 1.236 . S
O25 Tb1 2.341 1_456 S
O25 C10 1.266 . S
O26 Tb1 2.484 1_556 S
O26 C11 1.248 1_556 S
O27 Tb1 2.440 . S
O27 C11 1.266 . S
O28 Tb0 2.325 1_554 S
O28 Tb1 2.658 1_455 S
O28 C18 1.281 . S
O29 Tb1 2.409 . S
O29 C18 1.254 1_655 S
O30 Tb1 2.378 . S
O30 C19 1.236 . S
O31 Tb0 2.341 1_654 S
O31 C19 1.266 . S
H32 C4 0.929 . S
H33 C5 0.931 . S
H34 C7 0.930 . S
H35 C8 0.930 . S
H36 C13 0.929 . S
H37 C14 0.931 . S
H38 C16 0.930 . S
H39 C17 0.930 . S
Tb40 C42 2.809 . S
Tb40 O60 2.484 1_556 S
Tb40 O61 2.440 . S
Tb40 O62 2.658 . S
Tb40 O63 2.409 . S
Tb40 O64 2.378 . S
Tb40 O68 2.325 1_556 S
Tb40 O71 2.341 1_556 S
Tb41 C51 2.809 . S
Tb41 O62 2.325 1_554 S
Tb41 O65 2.341 1_554 S
Tb41 O66 2.484 1_554 S
Tb41 O67 2.440 . S
Tb41 O68 2.658 . S
Tb41 O69 2.409 . S
Tb41 O70 2.378 . S
C42 Tb40 2.809 . S
C42 C43 1.514 . S
C42 O60 1.248 1_556 S
C42 O61 1.266 . S
C43 C42 1.514 . S
C43 C44 1.359 1_556 S
C43 C48 1.348 . S
C44 C43 1.359 1_554 S
C44 C45 1.380 . S
C44 H72 0.929 . S
C45 C44 1.380 . S
C45 C46 1.347 1_554 S
C45 H73 0.931 . S
C46 C45 1.347 1_556 S
C46 C47 1.369 . S
C47 C46 1.369 . S
C47 C48 1.408 . S
C47 H74 0.930 . S
C48 C43 1.348 . S
C48 C47 1.408 . S
C48 H75 0.930 . S
C49 O62 1.281 . S
C49 O63 1.254 . S
C50 O64 1.236 . S
C50 O65 1.266 . S
C51 Tb41 2.809 . S
C51 C52 1.514 . S
C51 O66 1.248 1_554 S
C51 O67 1.266 . S
C52 C51 1.514 . S
C52 C53 1.359 1_554 S
C52 C57 1.348 . S
C53 C52 1.359 1_556 S
C53 C54 1.380 . S
C53 H76 0.929 . S
C54 C53 1.380 . S
C54 C55 1.347 1_556 S
C54 H77 0.931 . S
C55 C54 1.347 1_554 S
C55 C56 1.369 . S
C56 C55 1.369 . S
C56 C57 1.408 . S
C56 H78 0.930 . S
C57 C52 1.348 . S
C57 C56 1.408 . S
C57 H79 0.930 . S
C58 O68 1.281 . S
C58 O69 1.254 . S
C59 O70 1.236 . S
C59 O71 1.266 . S
O60 Tb40 2.484 1_554 S
O60 C42 1.248 1_554 S
O61 Tb40 2.440 . S
O61 C42 1.266 . S
O62 Tb40 2.658 . S
O62 Tb41 2.325 1_556 S
O62 C49 1.281 . S
O63 Tb40 2.409 . S
O63 C49 1.254 . S
O64 Tb40 2.378 . S
O64 C50 1.236 . S
O65 Tb41 2.341 1_556 S
O65 C50 1.266 . S
O66 Tb41 2.484 1_556 S
O66 C51 1.248 1_556 S
O67 Tb41 2.440 . S
O67 C51 1.266 . S
O68 Tb40 2.325 1_554 S
O68 Tb41 2.658 . S
O68 C58 1.281 . S
O69 Tb41 2.409 . S
O69 C58 1.254 . S
O70 Tb41 2.378 . S
O70 C59 1.236 . S
O71 Tb40 2.341 1_554 S
O71 C59 1.266 . S
H72 C44 0.929 . S
H73 C45 0.931 . S
H74 C47 0.930 . S
H75 C48 0.930 . S
H76 C53 0.929 . S
H77 C54 0.931 . S
H78 C56 0.930 . S
H79 C57 0.930 . S
Tb80 C82 2.809 . S
Tb80 O100 2.484 1_556 S
Tb80 O101 2.440 . S
Tb80 O102 2.658 1_565 S
Tb80 O103 2.409 . S
Tb80 O104 2.378 . S
Tb80 O108 2.325 1_556 S
Tb80 O111 2.341 1_566 S
Tb81 C91 2.809 . S
Tb81 O102 2.325 1_554 S
Tb81 O105 2.341 1_544 S
Tb81 O106 2.484 1_554 S
Tb81 O107 2.440 . S
Tb81 O108 2.658 1_545 S
Tb81 O109 2.409 . S
Tb81 O110 2.378 . S
C82 Tb80 2.809 . S
C82 C83 1.514 . S
C82 O100 1.248 1_556 S
C82 O101 1.266 . S
C83 C82 1.514 . S
C83 C84 1.359 1_556 S
C83 C88 1.348 . S
C84 C83 1.359 1_554 S
C84 C85 1.380 . S
C84 H112 0.929 . S
C85 C84 1.380 . S
C85 C86 1.347 1_554 S
C85 H113 0.931 . S
C86 C85 1.347 1_556 S
C86 C87 1.369 . S
C87 C86 1.369 . S
C87 C88 1.408 . S
C87 H114 0.930 . S
C88 C83 1.348 . S
C88 C87 1.408 . S
C88 H115 0.930 . S
C89 O102 1.281 . S
C89 O103 1.254 1_545 S
C90 O104 1.236 . S
C90 O105 1.266 . S
C91 Tb81 2.809 . S
C91 C92 1.514 . S
C91 O106 1.248 1_554 S
C91 O107 1.266 . S
C92 C91 1.514 . S
C92 C93 1.359 1_554 S
C92 C97 1.348 . S
C93 C92 1.359 1_556 S
C93 C94 1.380 . S
C93 H116 0.929 . S
C94 C93 1.380 . S
C94 C95 1.347 1_556 S
C94 H117 0.931 . S
C95 C94 1.347 1_554 S
C95 C96 1.369 . S
C96 C95 1.369 . S
C96 C97 1.408 . S
C96 H118 0.930 . S
C97 C92 1.348 . S
C97 C96 1.408 . S
C97 H119 0.930 . S
C98 O108 1.281 . S
C98 O109 1.254 1_565 S
C99 O110 1.236 . S
C99 O111 1.266 . S
O100 Tb80 2.484 1_554 S
O100 C82 1.248 1_554 S
O101 Tb80 2.440 . S
O101 C82 1.266 . S
O102 Tb80 2.658 1_545 S
O102 Tb81 2.325 1_556 S
O102 C89 1.281 . S
O103 Tb80 2.409 . S
O103 C89 1.254 1_565 S
O104 Tb80 2.378 . S
O104 C90 1.236 . S
O105 Tb81 2.341 1_566 S
O105 C90 1.266 . S
O106 Tb81 2.484 1_556 S
O106 C91 1.248 1_556 S
O107 Tb81 2.440 . S
O107 C91 1.266 . S
O108 Tb80 2.325 1_554 S
O108 Tb81 2.658 1_565 S
O108 C98 1.281 . S
O109 Tb81 2.409 . S
O109 C98 1.254 1_545 S
O110 Tb81 2.378 . S
O110 C99 1.236 . S
O111 Tb80 2.341 1_544 S
O111 C99 1.266 . S
H112 C84 0.929 . S
H113 C85 0.931 . S
H114 C87 0.930 . S
H115 C88 0.930 . S
H116 C93 0.929 . S
H117 C94 0.931 . S
H118 C96 0.930 . S
H119 C97 0.930 . S
Tb120 C122 2.809 . S
Tb120 O140 2.484 . S
Tb120 O141 2.440 . S
Tb120 O142 2.658 . S
Tb120 O143 2.409 . S
Tb120 O144 2.378 . S
Tb120 O148 2.325 . S
Tb120 O151 2.341 . S
Tb121 C131 2.809 . S
Tb121 O142 2.325 . S
Tb121 O145 2.341 . S
Tb121 O146 2.484 . S
Tb121 O147 2.440 . S
Tb121 O148 2.658 . S
Tb121 O149 2.409 . S
Tb121 O150 2.378 . S
C122 Tb120 2.809 . S
C122 C123 1.514 1_565 S
C122 O140 1.248 . S
C122 O141 1.266 . S
C123 C122 1.514 1_545 S
C123 C124 1.359 . S
C123 C128 1.348 . S
C124 C123 1.359 . S
C124 C125 1.380 1_655 S
C124 H152 0.929 . S
C125 C124 1.380 1_455 S
C125 C126 1.347 . S
C125 H153 0.931 . S
C126 C125 1.347 . S
C126 C127 1.369 1_455 S
C127 C126 1.369 1_655 S
C127 C128 1.408 . S
C127 H154 0.930 1_655 S
C128 C123 1.348 . S
C128 C127 1.408 . S
C128 H155 0.930 . S
C129 O142 1.281 . S
C129 O143 1.254 . S
C130 O144 1.236 . S
C130 O145 1.266 . S
C131 Tb121 2.809 . S
C131 C132 1.514 . S
C131 O146 1.248 . S
C131 O147 1.266 . S
C132 C131 1.514 . S
C132 C133 1.359 . S
C132 C137 1.348 . S
C133 C132 1.359 . S
C133 C134 1.380 . S
C133 H156 0.929 . S
C134 C133 1.380 . S
C134 C135 1.347 . S
C134 H157 0.931 . S
C135 C134 1.347 . S
C135 C136 1.369 . S
C136 C135 1.369 . S
C136 C137 1.408 . S
C136 H158 0.930 . S
C137 C132 1.348 . S
C137 C136 1.408 . S
C137 H159 0.930 . S
C138 O148 1.281 . S
C138 O149 1.254 . S
C139 O150 1.236 . S
C139 O151 1.266 . S
O140 Tb120 2.484 . S
O140 C122 1.248 . S
O141 Tb120 2.440 . S
O141 C122 1.266 . S
O142 Tb120 2.658 . S
O142 Tb121 2.325 . S
O142 C129 1.281 . S
O143 Tb120 2.409 . S
O143 C129 1.254 . S
O144 Tb120 2.378 . S
O144 C130 1.236 . S
O145 Tb121 2.341 . S
O145 C130 1.266 . S
O146 Tb121 2.484 . S
O146 C131 1.248 . S
O147 Tb121 2.440 . S
O147 C131 1.266 . S
O148 Tb120 2.325 . S
O148 Tb121 2.658 . S
O148 C138 1.281 . S
O149 Tb121 2.409 . S
O149 C138 1.254 . S
O150 Tb121 2.378 . S
O150 C139 1.236 . S
O151 Tb120 2.341 . S
O151 C139 1.266 . S
H152 C124 0.929 . S
H153 C125 0.931 . S
H154 C127 0.930 1_455 S
H155 C128 0.930 . S
H156 C133 0.929 . S
H157 C134 0.931 . S
H158 C136 0.930 . S
H159 C137 0.930 . S
Tb160 C162 2.809 . S
Tb160 O180 2.484 . S
Tb160 O181 2.440 . S
Tb160 O182 2.658 . S
Tb160 O183 2.409 . S
Tb160 O184 2.378 . S
Tb160 O188 2.325 . S
Tb160 O191 2.341 . S
Tb161 C171 2.809 . S
Tb161 O182 2.325 . S
Tb161 O185 2.341 1_565 S
Tb161 O186 2.484 . S
Tb161 O187 2.440 . S
Tb161 O188 2.658 . S
Tb161 O189 2.409 . S
Tb161 O190 2.378 . S
C162 Tb160 2.809 . S
C162 C163 1.514 1_455 S
C162 O180 1.248 . S
C162 O181 1.266 . S
C163 C162 1.514 1_655 S
C163 C164 1.359 . S
C163 C168 1.348 . S
C164 C163 1.359 . S
C164 C165 1.380 . S
C164 H192 0.929 . S
C165 C164 1.380 . S
C165 C166 1.347 . S
C165 H193 0.931 . S
C166 C165 1.347 . S
C166 C167 1.369 . S
C167 C166 1.369 . S
C167 C168 1.408 . S
C167 H194 0.930 . S
C168 C163 1.348 . S
C168 C167 1.408 . S
C168 H195 0.930 . S
C169 O182 1.281 . S
C169 O183 1.254 . S
C170 O184 1.236 1_545 S
C170 O185 1.266 . S
C171 Tb161 2.809 . S
C171 C172 1.514 . S
C171 O186 1.248 . S
C171 O187 1.266 . S
C172 C171 1.514 . S
C172 C173 1.359 . S
C172 C177 1.348 . S
C173 C172 1.359 . S
C173 C174 1.380 . S
C173 H196 0.929 . S
C174 C173 1.380 . S
C174 C175 1.347 . S
C174 H197 0.931 . S
C175 C174 1.347 . S
C175 C176 1.369 . S
C176 C175 1.369 . S
C176 C177 1.408 . S
C176 H198 0.930 . S
C177 C172 1.348 . S
C177 C176 1.408 . S
C177 H199 0.930 . S
C178 O188 1.281 . S
C178 O189 1.254 . S
C179 O190 1.236 . S
C179 O191 1.266 . S
O180 Tb160 2.484 . S
O180 C162 1.248 . S
O181 Tb160 2.440 . S
O181 C162 1.266 . S
O182 Tb160 2.658 . S
O182 Tb161 2.325 . S
O182 C169 1.281 . S
O183 Tb160 2.409 . S
O183 C169 1.254 . S
O184 Tb160 2.378 . S
O184 C170 1.236 1_565 S
O185 Tb161 2.341 1_545 S
O185 C170 1.266 . S
O186 Tb161 2.484 . S
O186 C171 1.248 . S
O187 Tb161 2.440 . S
O187 C171 1.266 . S
O188 Tb160 2.325 . S
O188 Tb161 2.658 . S
O188 C178 1.281 . S
O189 Tb161 2.409 . S
O189 C178 1.254 . S
O190 Tb161 2.378 . S
O190 C179 1.236 . S
O191 Tb160 2.341 . S
O191 C179 1.266 . S
H192 C164 0.929 . S
H193 C165 0.931 . S
H194 C167 0.930 . S
H195 C168 0.930 . S
H196 C173 0.929 . S
H197 C174 0.931 . S
H198 C176 0.930 . S
H199 C177 0.930 . S
Tb200 C202 2.809 . S
Tb200 O220 2.484 . S
Tb200 O221 2.440 . S
Tb200 O222 2.658 . S
Tb200 O223 2.409 . S
Tb200 O224 2.378 . S
Tb200 O228 2.325 . S
Tb200 O231 2.341 . S
Tb201 C211 2.809 . S
Tb201 O222 2.325 . S
Tb201 O225 2.341 . S
Tb201 O226 2.484 . S
Tb201 O227 2.440 . S
Tb201 O228 2.658 . S
Tb201 O229 2.409 . S
Tb201 O230 2.378 . S
C202 Tb200 2.809 . S
C202 C203 1.514 . S
C202 O220 1.248 . S
C202 O221 1.266 . S
C203 C202 1.514 . S
C203 C204 1.359 . S
C203 C208 1.348 . S
C204 C203 1.359 . S
C204 C205 1.380 . S
C204 H232 0.929 . S
C205 C204 1.380 . S
C205 C206 1.347 1_545 S
C205 H233 0.931 1_545 S
C206 C205 1.347 1_565 S
C206 C207 1.369 1_565 S
C207 C206 1.369 1_545 S
C207 C208 1.408 . S
C207 H234 0.930 . S
C208 C203 1.348 . S
C208 C207 1.408 . S
C208 H235 0.930 . S
C209 O222 1.281 . S
C209 O223 1.254 . S
C210 O224 1.236 . S
C210 O225 1.266 . S
C211 Tb201 2.809 . S
C211 C212 1.514 . S
C211 O226 1.248 . S
C211 O227 1.266 . S
C212 C211 1.514 . S
C212 C213 1.359 . S
C212 C217 1.348 . S
C213 C212 1.359 . S
C213 C214 1.380 . S
C213 H236 0.929 . S
C214 C213 1.380 . S
C214 C215 1.347 . S
C214 H237 0.931 . S
C215 C214 1.347 . S
C215 C216 1.369 . S
C216 C215 1.369 . S
C216 C217 1.408 . S
C216 H238 0.930 . S
C217 C212 1.348 . S
C217 C216 1.408 . S
C217 H239 0.930 . S
C218 O228 1.281 . S
C218 O229 1.254 . S
C219 O230 1.236 . S
C219 O231 1.266 . S
O220 Tb200 2.484 . S
O220 C202 1.248 . S
O221 Tb200 2.440 . S
O221 C202 1.266 . S
O222 Tb200 2.658 . S
O222 Tb201 2.325 . S
O222 C209 1.281 . S
O223 Tb200 2.409 . S
O223 C209 1.254 . S
O224 Tb200 2.378 . S
O224 C210 1.236 . S
O225 Tb201 2.341 . S
O225 C210 1.266 . S
O226 Tb201 2.484 . S
O226 C211 1.248 . S
O227 Tb201 2.440 . S
O227 C211 1.266 . S
O228 Tb200 2.325 . S
O228 Tb201 2.658 . S
O228 C218 1.281 . S
O229 Tb201 2.409 . S
O229 C218 1.254 . S
O230 Tb201 2.378 . S
O230 C219 1.236 . S
O231 Tb200 2.341 . S
O231 C219 1.266 . S
H232 C204 0.929 . S
H233 C205 0.931 1_565 S
H234 C207 0.930 . S
H235 C208 0.930 . S
H236 C213 0.929 . S
H237 C214 0.931 . S
H238 C216 0.930 . S
H239 C217 0.930 . S
Tb240 C242 2.809 . S
Tb240 O260 2.484 . S
Tb240 O261 2.440 . S
Tb240 O262 2.658 . S
Tb240 O263 2.409 . S
Tb240 O264 2.378 . S
Tb240 O268 2.325 . S
Tb240 O271 2.341 . S
Tb241 C251 2.809 1_545 S
Tb241 O262 2.325 . S
Tb241 O265 2.341 . S
Tb241 O266 2.484 1_545 S
Tb241 O267 2.440 1_545 S
Tb241 O268 2.658 . S
Tb241 O269 2.409 . S
Tb241 O270 2.378 . S
C242 Tb240 2.809 . S
C242 C243 1.514 . S
C242 O260 1.248 . S
C242 O261 1.266 . S
C243 C242 1.514 . S
C243 C244 1.359 . S
C243 C248 1.348 . S
C244 C243 1.359 . S
C244 C245 1.380 . S
C244 H272 0.929 . S
C245 C244 1.380 . S
C245 C246 1.347 . S
C245 H273 0.931 . S
C246 C245 1.347 . S
C246 C247 1.369 . S
C247 C246 1.369 . S
C247 C248 1.408 . S
C247 H274 0.930 . S
C248 C243 1.348 . S
C248 C247 1.408 . S
C248 H275 0.930 . S
C249 O262 1.281 . S
C249 O263 1.254 . S
C250 O264 1.236 . S
C250 O265 1.266 . S
C251 Tb241 2.809 1_565 S
C251 C252 1.514 . S
C251 O266 1.248 . S
C251 O267 1.266 . S
C252 C251 1.514 . S
C252 C253 1.359 . S
C252 C257 1.348 . S
C253 C252 1.359 . S
C253 C254 1.380 . S
C253 H276 0.929 . S
C254 C253 1.380 . S
C254 C255 1.347 1_455 S
C254 H277 0.931 1_455 S
C255 C254 1.347 1_655 S
C255 C256 1.369 1_655 S
C256 C255 1.369 1_455 S
C256 C257 1.408 . S
C256 H278 0.930 . S
C257 C252 1.348 . S
C257 C256 1.408 . S
C257 H279 0.930 . S
C258 O268 1.281 . S
C258 O269 1.254 . S
C259 O270 1.236 . S
C259 O271 1.266 . S
O260 Tb240 2.484 . S
O260 C242 1.248 . S
O261 Tb240 2.440 . S
O261 C242 1.266 . S
O262 Tb240 2.658 . S
O262 Tb241 2.325 . S
O262 C249 1.281 . S
O263 Tb240 2.409 . S
O263 C249 1.254 . S
O264 Tb240 2.378 . S
O264 C250 1.236 . S
O265 Tb241 2.341 . S
O265 C250 1.266 . S
O266 Tb241 2.484 1_565 S
O266 C251 1.248 . S
O267 Tb241 2.440 1_565 S
O267 C251 1.266 . S
O268 Tb240 2.325 . S
O268 Tb241 2.658 . S
O268 C258 1.281 . S
O269 Tb241 2.409 . S
O269 C258 1.254 . S
O270 Tb241 2.378 . S
O270 C259 1.236 . S
O271 Tb240 2.341 . S
O271 C259 1.266 . S
H272 C244 0.929 . S
H273 C245 0.931 . S
H274 C247 0.930 . S
H275 C248 0.930 . S
H276 C253 0.929 . S
H277 C254 0.931 1_655 S
H278 C256 0.930 . S
H279 C257 0.930 . S
Tb280 C282 2.809 . S
Tb280 O300 2.484 . S
Tb280 O301 2.440 . S
Tb280 O302 2.658 . S
Tb280 O303 2.409 . S
Tb280 O304 2.378 . S
Tb280 O308 2.325 . S
Tb280 O311 2.341 . S
Tb281 C291 2.809 1_655 S
Tb281 O302 2.325 . S
Tb281 O305 2.341 . S
Tb281 O306 2.484 1_655 S
Tb281 O307 2.440 1_655 S
Tb281 O308 2.658 . S
Tb281 O309 2.409 . S
Tb281 O310 2.378 . S
C282 Tb280 2.809 . S
C282 C283 1.514 . S
C282 O300 1.248 . S
C282 O301 1.266 . S
C283 C282 1.514 . S
C283 C284 1.359 . S
C283 C288 1.348 . S
C284 C283 1.359 . S
C284 C285 1.380 . S
C284 H312 0.929 . S
C285 C284 1.380 . S
C285 C286 1.347 . S
C285 H313 0.931 . S
C286 C285 1.347 . S
C286 C287 1.369 . S
C287 C286 1.369 . S
C287 C288 1.408 . S
C287 H314 0.930 . S
C288 C283 1.348 . S
C288 C287 1.408 . S
C288 H315 0.930 . S
C289 O302 1.281 . S
C289 O303 1.254 . S
C290 O304 1.236 . S
C290 O305 1.266 . S
C291 Tb281 2.809 1_455 S
C291 C292 1.514 . S
C291 O306 1.248 . S
C291 O307 1.266 . S
C292 C291 1.514 . S
C292 C293 1.359 . S
C292 C297 1.348 . S
C293 C292 1.359 . S
C293 C294 1.380 . S
C293 H316 0.929 . S
C294 C293 1.380 . S
C294 C295 1.347 . S
C294 H317 0.931 . S
C295 C294 1.347 . S
C295 C296 1.369 . S
C296 C295 1.369 . S
C296 C297 1.408 . S
C296 H318 0.930 . S
C297 C292 1.348 . S
C297 C296 1.408 . S
C297 H319 0.930 . S
C298 O308 1.281 . S
C298 O309 1.254 . S
C299 O310 1.236 . S
C299 O311 1.266 . S
O300 Tb280 2.484 . S
O300 C282 1.248 . S
O301 Tb280 2.440 . S
O301 C282 1.266 . S
O302 Tb280 2.658 . S
O302 Tb281 2.325 . S
O302 C289 1.281 . S
O303 Tb280 2.409 . S
O303 C289 1.254 . S
O304 Tb280 2.378 . S
O304 C290 1.236 . S
O305 Tb281 2.341 . S
O305 C290 1.266 . S
O306 Tb281 2.484 1_455 S
O306 C291 1.248 . S
O307 Tb281 2.440 1_455 S
O307 C291 1.266 . S
O308 Tb280 2.325 . S
O308 Tb281 2.658 . S
O308 C298 1.281 . S
O309 Tb281 2.409 . S
O309 C298 1.254 . S
O310 Tb281 2.378 . S
O310 C299 1.236 . S
O311 Tb280 2.341 . S
O311 C299 1.266 . S
H312 C284 0.929 . S
H313 C285 0.931 . S
H314 C287 0.930 . S
H315 C288 0.930 . S
H316 C293 0.929 . S
H317 C294 0.931 . S
H318 C296 0.930 . S
H319 C297 0.930 . S
Tb320 C322 2.809 . S
Tb320 O340 2.484 . S
Tb320 O341 2.440 . S
Tb320 O342 2.658 . S
Tb320 O343 2.409 . S
Tb320 O344 2.378 . S
Tb320 O348 2.325 . S
Tb320 O351 2.341 . S
Tb321 C331 2.809 . S
Tb321 O342 2.325 . S
Tb321 O345 2.341 . S
Tb321 O346 2.484 . S
Tb321 O347 2.440 . S
Tb321 O348 2.658 . S
Tb321 O349 2.409 . S
Tb321 O350 2.378 . S
C322 Tb320 2.809 . S
C322 C323 1.514 . S
C322 O340 1.248 . S
C322 O341 1.266 . S
C323 C322 1.514 . S
C323 C324 1.359 . S
C323 C328 1.348 . S
C324 C323 1.359 . S
C324 C325 1.380 . S
C324 H352 0.929 . S
C325 C324 1.380 . S
C325 C326 1.347 . S
C325 H353 0.931 . S
C326 C325 1.347 . S
C326 C327 1.369 . S
C327 C326 1.369 . S
C327 C328 1.408 . S
C327 H354 0.930 . S
C328 C323 1.348 . S
C328 C327 1.408 . S
C328 H355 0.930 . S
C329 O342 1.281 . S
C329 O343 1.254 . S
C330 O344 1.236 . S
C330 O345 1.266 . S
C331 Tb321 2.809 . S
C331 C332 1.514 . S
C331 O346 1.248 . S
C331 O347 1.266 . S
C332 C331 1.514 . S
C332 C333 1.359 . S
C332 C337 1.348 . S
C333 C332 1.359 . S
C333 C334 1.380 1_565 S
C333 H356 0.929 . S
C334 C333 1.380 1_545 S
C334 C335 1.347 . S
C334 H357 0.931 . S
C335 C334 1.347 . S
C335 C336 1.359 1_545 S
C336 C335 1.359 1_565 S
C336 C337 1.429 . S
C336 H358 0.920 1_565 S
C337 C332 1.348 . S
C337 C336 1.429 . S
C337 H359 0.930 . S
C338 O348 1.281 . S
C338 O349 1.254 . S
C339 O350 1.236 . S
C339 O351 1.266 . S
O340 Tb320 2.484 . S
O340 C322 1.248 . S
O341 Tb320 2.440 . S
O341 C322 1.266 . S
O342 Tb320 2.658 . S
O342 Tb321 2.325 . S
O342 C329 1.281 . S
O343 Tb320 2.409 . S
O343 C329 1.254 . S
O344 Tb320 2.378 . S
O344 C330 1.236 . S
O345 Tb321 2.341 . S
O345 C330 1.266 . S
O346 Tb321 2.484 . S
O346 C331 1.248 . S
O347 Tb321 2.440 . S
O347 C331 1.266 . S
O348 Tb320 2.325 . S
O348 Tb321 2.658 . S
O348 C338 1.281 . S
O349 Tb321 2.409 . S
O349 C338 1.254 . S
O350 Tb321 2.378 . S
O350 C339 1.236 . S
O351 Tb320 2.341 . S
O351 C339 1.266 . S
H352 C324 0.929 . S
H353 C325 0.931 . S
H354 C327 0.930 . S
H355 C328 0.930 . S
H356 C333 0.929 . S
H357 C334 0.931 . S
H358 C336 0.920 1_545 S
H359 C337 0.930 . S
C46 C10 2.966 . S
C86 C50 2.966 . S
C90 C6 2.966 . S
C95 C59 2.173 . S
C99 C15 2.173 . S
C19 C55 2.173 . S
C130 C166 2.966 . S
C206 C170 2.966 1_565 S
C210 C126 2.966 . S
C179 C215 2.173 . S
C219 C135 2.173 . S
C175 C139 2.173 . S
C286 C250 2.966 . S
C290 C326 2.966 . S
C330 C246 2.966 . S
C335 C299 2.173 . S
C339 C255 2.173 . S
C259 C295 2.173 . S
C209 C18 4.453 . S
C129 C58 4.453 . S
C98 C169 4.453 . S
C89 C258 4.453 . S
C9 C298 4.453 . S
C338 C49 4.453 . S
C138 C329 4.453 . S
C178 C249 4.453 1_565 S
C289 C218 4.453 1_655 S
