# Generated by pormake.
# Topology uoj, (4)-cn, num edge types: 1
# Building blocks:
#     Node 0, Type 0, BuildingBlock: CEKHIL_clean_sbu_0, # of connection points: 4
#     Node 1, Type 0, BuildingBlock: CEKHIL_clean_sbu_0, # of connection points: 4
#     Node 2, Type 0, BuildingBlock: CEKHIL_clean_sbu_0, # of connection points: 4
#     Node 3, Type 0, BuildingBlock: CEKHIL_clean_sbu_0, # of connection points: 4
#     Node 4, Type 0, BuildingBlock: CEKHIL_clean_sbu_0, # of connection points: 4
#     Node 5, Type 0, BuildingBlock: CEKHIL_clean_sbu_0, # of connection points: 4
#     Node 6, Type 0, BuildingBlock: CEKHIL_clean_sbu_0, # of connection points: 4
#     Node 7, Type 0, BuildingBlock: CEKHIL_clean_sbu_0, # of connection points: 4
#     Edge 8, Type (0, 0), BuildingBlock: ZUJKAS_clean_linker_0, # of connection points: 2
#     Edge 9, Type (0, 0), BuildingBlock: ZUJKAS_clean_linker_0, # of connection points: 2
#     Edge 10, Type (0, 0), BuildingBlock: ZUJKAS_clean_linker_0, # of connection points: 2
#     Edge 11, Type (0, 0), BuildingBlock: ZUJKAS_clean_linker_0, # of connection points: 2
#     Edge 12, Type (0, 0), BuildingBlock: ZUJKAS_clean_linker_0, # of connection points: 2
#     Edge 13, Type (0, 0), BuildingBlock: ZUJKAS_clean_linker_0, # of connection points: 2
#     Edge 14, Type (0, 0), BuildingBlock: ZUJKAS_clean_linker_0, # of connection points: 2
#     Edge 15, Type (0, 0), BuildingBlock: ZUJKAS_clean_linker_0, # of connection points: 2
#     Edge 16, Type (0, 0), BuildingBlock: ZUJKAS_clean_linker_0, # of connection points: 2
#     Edge 17, Type (0, 0), BuildingBlock: ZUJKAS_clean_linker_0, # of connection points: 2
#     Edge 18, Type (0, 0), BuildingBlock: ZUJKAS_clean_linker_0, # of connection points: 2
#     Edge 19, Type (0, 0), BuildingBlock: ZUJKAS_clean_linker_0, # of connection points: 2
#     Edge 20, Type (0, 0), BuildingBlock: ZUJKAS_clean_linker_0, # of connection points: 2
#     Edge 21, Type (0, 0), BuildingBlock: ZUJKAS_clean_linker_0, # of connection points: 2
#     Edge 22, Type (0, 0), BuildingBlock: ZUJKAS_clean_linker_0, # of connection points: 2
#     Edge 23, Type (0, 0), BuildingBlock: ZUJKAS_clean_linker_0, # of connection points: 2
# Relax obj value: 0.110
# Max RMSD: 0.137
# Mean RMSD: 0.135
data_MOF--net-uoj--node1-CEKHIL_clean_sbu_0--edge1-ZUJKAS_clean_linker_0
_symmetry_space_group_name_H-M    P1
_symmetry_Int_Tables_number       1
_symmetry_cell_setting            triclinic
loop_
_symmetry_equiv_pos_as_xyz
'x, y, z'
_cell_length_a     42.761041
_cell_length_b     42.582648
_cell_length_c     45.493221
_cell_angle_alpha  90.042849
_cell_angle_beta   89.958413
_cell_angle_gamma 89.045051
loop_
_atom_site_label
_atom_site_type_symbol
_atom_site_fract_x
_atom_site_fract_y
_atom_site_fract_z
_atom_type_partial_charge
Co0 Co 0.07664 0.29011 0.43726 0.0
O1 O 0.10955 0.31043 0.41602 0.0
O2 O 0.061 0.30465 0.39999 0.0
C3 C 0.10456 0.24772 0.45142 0.0
O4 O 0.03686 0.26988 0.45171 0.0
Co5 Co 0.08067 0.27831 0.50453 0.0
O6 O 0.04314 0.25238 0.49804 0.0
C7 C 0.06537 0.34181 0.48258 0.0
C8 C 0.08905 0.31484 0.39528 0.0
C9 C 0.0275 0.25468 0.47432 0.0
O10 O 0.06422 0.331 0.45622 0.0
O11 O 0.07352 0.32509 0.50476 0.0
O12 O 0.09266 0.24906 0.42516 0.0
O13 O 0.10179 0.27298 0.46704 0.0
Co14 Co 0.28813 0.914 0.56962 0.0
O15 O 0.2499 0.8916 0.57181 0.0
O16 O 0.27736 0.89811 0.53099 0.0
C17 C 0.3103 0.89243 0.60979 0.0
O18 O 0.32913 0.93545 0.55988 0.0
Co19 Co 0.30364 0.95981 0.62105 0.0
O20 O 0.34389 0.96293 0.59975 0.0
C21 C 0.25636 0.97814 0.57716 0.0
C22 C 0.25264 0.88692 0.54376 0.0
C23 C 0.34868 0.95281 0.57369 0.0
O24 O 0.26396 0.95404 0.56148 0.0
O25 O 0.26741 0.98303 0.60287 0.0
O26 O 0.31165 0.8776 0.58482 0.0
O27 O 0.29312 0.91757 0.61005 0.0
Co28 Co 0.92523 0.70212 0.43777 0.0
O29 O 0.89235 0.68217 0.41626 0.0
O30 O 0.94132 0.68686 0.40085 0.0
C31 C 0.89753 0.74487 0.45117 0.0
O32 O 0.96497 0.72224 0.45246 0.0
Co33 Co 0.92056 0.71438 0.50469 0.0
O34 O 0.95749 0.74115 0.49802 0.0
C35 C 0.9353 0.65058 0.48346 0.0
C36 C 0.91313 0.67723 0.39584 0.0
C37 C 0.97388 0.73838 0.47472 0.0
O38 O 0.93684 0.66128 0.4571 0.0
O39 O 0.92721 0.66754 0.50554 0.0
O40 O 0.91001 0.74317 0.42514 0.0
O41 O 0.89972 0.71977 0.46707 0.0
Co42 Co 0.70828 0.07772 0.56539 0.0
O43 O 0.74979 0.09336 0.5678 0.0
O44 O 0.72035 0.09499 0.52766 0.0
C45 C 0.69158 0.09939 0.60773 0.0
O46 O 0.6641 0.06405 0.55536 0.0
Co47 Co 0.68468 0.03207 0.61375 0.0
O48 O 0.64347 0.04186 0.59571 0.0
C49 C 0.72867 0.00918 0.56814 0.0
C50 C 0.74689 0.10096 0.54035 0.0
C51 C 0.6409 0.05273 0.5697 0.0
O52 O 0.72572 0.03529 0.55413 0.0
O53 O 0.7161 0.00423 0.59323 0.0
O54 O 0.69117 0.11594 0.58373 0.0
O55 O 0.70404 0.07173 0.60569 0.0
Co56 Co 0.41587 0.79033 0.94217 0.0
O57 O 0.3862 0.8075 0.91454 0.0
O58 O 0.43667 0.79909 0.90568 0.0
C59 C 0.3868 0.75025 0.95764 0.0
O60 O 0.45324 0.77173 0.96373 0.0
Co61 Co 0.40291 0.78831 0.00894 0.0
O62 O 0.4402 0.75996 0.01015 0.0
C63 C 0.42256 0.84767 0.98192 0.0
C64 C 0.40939 0.80824 0.89608 0.0
C65 C 0.45931 0.75889 0.98866 0.0
O66 O 0.42553 0.83347 0.95712 0.0
O67 O 0.41225 0.83429 0.00511 0.0
O68 O 0.40241 0.74827 0.93319 0.0
O69 O 0.38655 0.77744 0.97045 0.0
Co70 Co 0.79313 0.57578 0.06447 0.0
O71 O 0.81115 0.6072 0.08922 0.0
O72 O 0.80693 0.55682 0.10075 0.0
C73 C 0.75045 0.60379 0.0517 0.0
O74 O 0.77466 0.53698 0.04574 0.0
Co75 Co 0.78436 0.58637 0.99779 0.0
O76 O 0.75749 0.54894 0.00044 0.0
C77 C 0.84678 0.56928 0.02039 0.0
C78 C 0.81548 0.58486 0.10828 0.0
C79 C 0.75954 0.53022 0.02222 0.0
O80 O 0.83494 0.56644 0.04619 0.0
O81 O 0.83092 0.57862 0.99809 0.0
O82 O 0.75156 0.58899 0.07665 0.0
O83 O 0.77612 0.60377 0.03659 0.0
Co84 Co 0.58229 0.20158 0.94142 0.0
O85 O 0.61259 0.18389 0.91463 0.0
O86 O 0.56248 0.19267 0.90445 0.0
C87 C 0.61113 0.24168 0.95732 0.0
O88 O 0.54451 0.22065 0.96208 0.0
Co89 Co 0.59416 0.20298 0.00839 0.0
O90 O 0.5537 0.22631 0.01048 0.0
C91 C 0.57517 0.14393 0.9808 0.0
C92 C 0.58994 0.18307 0.89563 0.0
C93 C 0.53638 0.22975 0.98792 0.0
O94 O 0.57189 0.15854 0.95626 0.0
O95 O 0.58587 0.15692 0.00401 0.0
O96 O 0.59619 0.24345 0.93254 0.0
O97 O 0.61107 0.21456 0.97024 0.0
Co98 Co 0.20487 0.41711 0.06301 0.0
O99 O 0.18617 0.38609 0.08784 0.0
O100 O 0.1929 0.43601 0.09987 0.0
C101 C 0.2463 0.38811 0.04879 0.0
O102 O 0.22428 0.45548 0.04459 0.0
Co103 Co 0.21162 0.4076 0.99609 0.0
O104 O 0.23751 0.44584 0.99765 0.0
C105 C 0.15032 0.42612 0.02034 0.0
C106 C 0.18329 0.40832 0.10729 0.0
C107 C 0.23746 0.46335 0.02037 0.0
O108 O 0.16292 0.42834 0.04587 0.0
O109 O 0.16529 0.41632 0.99765 0.0
O110 O 0.2463 0.40254 0.07394 0.0
O111 O 0.22023 0.38886 0.0343 0.0
H112 H 0.18012 0.44849 0.1541 0.0
H113 H 0.16372 0.43632 0.20434 0.0
H114 H 0.14219 0.3419 0.17765 0.0
H115 H 0.15903 0.35365 0.12756 0.0
H116 H 0.10717 0.4153 0.22688 0.0
H117 H 0.20317 0.3285 0.24587 0.0
H118 H 0.20297 0.35527 0.21512 0.0
H119 H 0.18016 0.32018 0.2139 0.0
C120 C 0.17175 0.42518 0.15891 0.0
C121 C 0.17111 0.40192 0.13699 0.0
C122 C 0.1624 0.41829 0.18759 0.0
C123 C 0.15235 0.38806 0.19475 0.0
C124 C 0.15057 0.36517 0.17266 0.0
H125 H 0.05273 0.32177 0.34636 0.0
H126 H 0.06825 0.34266 0.29862 0.0
C127 C 0.16003 0.37198 0.14404 0.0
C128 C 0.14405 0.38027 0.2254 0.0
H129 H 0.16239 0.33019 0.28148 0.0
C130 C 0.11933 0.39684 0.23894 0.0
C131 C 0.16037 0.35658 0.2412 0.0
C132 C 0.18835 0.3393 0.22842 0.0
C133 C 0.10984 0.38965 0.26766 0.0
C134 C 0.12519 0.36491 0.2829 0.0
C135 C 0.15049 0.34898 0.26964 0.0
C136 C 0.11505 0.35451 0.31237 0.0
C137 C 0.08367 0.40875 0.28146 0.0
C138 C 0.13637 0.35385 0.3358 0.0
C139 C 0.1277 0.34158 0.36301 0.0
C140 C 0.09756 0.32969 0.36718 0.0
C141 C 0.07606 0.33092 0.34385 0.0
C142 C 0.08481 0.34305 0.31661 0.0
H143 H 0.08095 0.43211 0.27082 0.0
H144 H 0.06136 0.39613 0.27872 0.0
H145 H 0.08775 0.41225 0.30534 0.0
H146 H 0.15988 0.36244 0.3329 0.0
H147 H 0.14476 0.34096 0.38059 0.0
H148 H 0.31363 0.92268 0.66214 0.0
H149 H 0.33976 0.90495 0.70677 0.0
H150 H 0.37196 0.82097 0.66226 0.0
H151 H 0.34551 0.83861 0.6171 0.0
H152 H 0.34261 0.81005 0.71633 0.0
H153 H 0.43282 0.90085 0.72774 0.0
H154 H 0.39465 0.91761 0.7214 0.0
H155 H 0.41284 0.89352 0.69348 0.0
C156 C 0.32654 0.90059 0.66165 0.0
C157 C 0.32758 0.88202 0.63613 0.0
C158 C 0.34168 0.89062 0.68714 0.0
C159 C 0.35826 0.86197 0.68761 0.0
C160 C 0.35954 0.84334 0.66215 0.0
H161 H 0.45306 0.81005 0.85224 0.0
H162 H 0.44384 0.82032 0.79994 0.0
C163 C 0.34444 0.85341 0.63646 0.0
C164 C 0.37189 0.85072 0.71556 0.0
H165 H 0.41821 0.87394 0.77232 0.0
C166 C 0.35961 0.82364 0.72836 0.0
C167 C 0.39435 0.86828 0.73101 0.0
C168 C 0.40968 0.89651 0.71756 0.0
C169 C 0.3677 0.81479 0.75707 0.0
C170 C 0.38819 0.83383 0.77337 0.0
C171 C 0.40209 0.85971 0.75988 0.0
C172 C 0.39403 0.8283 0.80494 0.0
C173 C 0.35371 0.78554 0.76992 0.0
C174 C 0.36918 0.83032 0.82503 0.0
C175 C 0.37435 0.8246 0.85483 0.0
C176 C 0.4045 0.81691 0.86504 0.0
C177 C 0.42954 0.81586 0.84498 0.0
C178 C 0.42434 0.82163 0.81514 0.0
H179 H 0.34637 0.76899 0.75243 0.0
H180 H 0.37056 0.77324 0.78468 0.0
H181 H 0.33267 0.79215 0.78297 0.0
H182 H 0.34574 0.83618 0.81762 0.0
H183 H 0.35461 0.82572 0.86976 0.0
H184 H 0.9524 0.65149 0.3548 0.0
H185 H 0.9383 0.63062 0.30654 0.0
H186 H 0.84091 0.65081 0.32458 0.0
H187 H 0.85474 0.67037 0.37328 0.0
H188 H 0.8474 0.59611 0.29748 0.0
H189 H 0.91599 0.68538 0.23796 0.0
H190 H 0.93946 0.66155 0.26214 0.0
H191 H 0.90952 0.68717 0.27708 0.0
C192 C 0.92798 0.65126 0.3485 0.0
C193 C 0.90467 0.66277 0.36761 0.0
C194 C 0.91998 0.63954 0.32088 0.0
C195 C 0.88864 0.63991 0.31168 0.0
C196 C 0.86526 0.65046 0.33117 0.0
H197 H 0.8201 0.64183 0.1346 0.0
H198 H 0.83836 0.65304 0.18422 0.0
C199 C 0.87319 0.66165 0.35896 0.0
C200 C 0.88009 0.63007 0.28155 0.0
H201 H 0.89317 0.64567 0.20909 0.0
C202 C 0.85739 0.60691 0.27812 0.0
C203 C 0.89281 0.64459 0.25636 0.0
C204 C 0.91554 0.67127 0.25849 0.0
C205 C 0.84684 0.59804 0.25018 0.0
C206 C 0.86024 0.61191 0.22497 0.0
C207 C 0.88318 0.63482 0.22843 0.0
C208 C 0.84953 0.60456 0.19482 0.0
C209 C 0.8206 0.57485 0.24808 0.0
C210 C 0.85011 0.57361 0.18412 0.0
C211 C 0.83915 0.56708 0.15586 0.0
C212 C 0.82817 0.59151 0.13767 0.0
C213 C 0.82852 0.62254 0.1481 0.0
C214 C 0.83894 0.62897 0.17646 0.0
H215 H 0.80728 0.57339 0.269 0.0
H216 H 0.80407 0.58132 0.23019 0.0
H217 H 0.83054 0.55116 0.2433 0.0
H218 H 0.85901 0.55452 0.19759 0.0
H219 H 0.83939 0.54298 0.14822 0.0
H220 H 0.64363 0.1581 0.87252 0.0
H221 H 0.65416 0.14505 0.82104 0.0
H222 H 0.56015 0.17342 0.79784 0.0
H223 H 0.54921 0.18642 0.84942 0.0
H224 H 0.60887 0.1019 0.78138 0.0
H225 H 0.63054 0.22501 0.7459 0.0
H226 H 0.63776 0.21276 0.78335 0.0
H227 H 0.59841 0.21643 0.77019 0.0
C228 C 0.62511 0.16139 0.85653 0.0
C229 C 0.59561 0.17331 0.86497 0.0
C230 C 0.63118 0.15396 0.82719 0.0
C231 C 0.60796 0.15855 0.80586 0.0
C232 C 0.57832 0.16993 0.81415 0.0
H233 H 0.6438 0.14219 0.61603 0.0
H234 H 0.61927 0.1568 0.66316 0.0
C235 C 0.57214 0.17721 0.84356 0.0
C236 C 0.61507 0.15142 0.77489 0.0
H237 H 0.64097 0.18488 0.71152 0.0
C238 C 0.61555 0.11998 0.76592 0.0
C239 C 0.62328 0.17523 0.7549 0.0
C240 C 0.62259 0.20935 0.76384 0.0
C241 C 0.62501 0.11154 0.73747 0.0
C242 C 0.63523 0.13517 0.71794 0.0
C243 C 0.63336 0.1668 0.72658 0.0
C244 C 0.65005 0.12724 0.68942 0.0
C245 C 0.62406 0.07735 0.72877 0.0
C246 C 0.67597 0.10664 0.68872 0.0
C247 C 0.68946 0.09793 0.66204 0.0
C248 C 0.67795 0.11043 0.63558 0.0
C249 C 0.65301 0.13226 0.63622 0.0
C250 C 0.639 0.14052 0.66304 0.0
H251 H 0.60579 0.06477 0.74129 0.0
H252 H 0.61938 0.07453 0.70492 0.0
H253 H 0.6469 0.06592 0.73395 0.0
H254 H 0.68569 0.09708 0.70885 0.0
H255 H 0.70904 0.08144 0.66212 0.0
H256 H 0.23364 0.0316 0.60341 0.0
H257 H 0.20473 0.07478 0.5803 0.0
H258 H 0.20402 0.02409 0.49823 0.0
H259 H 0.23275 0.98046 0.52114 0.0
H260 H 0.22862 0.10789 0.53109 0.0
H261 H 0.11258 0.05606 0.50801 0.0
H262 H 0.13954 0.03932 0.53448 0.0
H263 H 0.14616 0.0336 0.49587 0.0
C264 C 0.22698 0.02932 0.58056 0.0
C265 C 0.23571 0.00259 0.5641 0.0
C266 C 0.21046 0.05405 0.56741 0.0
C267 C 0.20217 0.05248 0.53767 0.0
C268 C 0.20985 0.02549 0.52135 0.0
H269 H 0.11526 0.19226 0.42269 0.0
H270 H 0.13976 0.14438 0.44255 0.0
C271 C 0.22638 0.00066 0.53449 0.0
C272 C 0.18777 0.08019 0.52331 0.0
H273 H 0.12129 0.10719 0.48976 0.0
C274 C 0.20514 0.1078 0.52207 0.0
C275 C 0.15733 0.07972 0.51132 0.0
C276 C 0.13762 0.05069 0.51259 0.0
C277 C 0.19279 0.13517 0.50922 0.0
C278 C 0.16202 0.135 0.4979 0.0
C279 C 0.14485 0.10719 0.4986 0.0
C280 C 0.14698 0.16373 0.48597 0.0
C281 C 0.21296 0.16388 0.5076 0.0
C282 C 0.14258 0.19018 0.50397 0.0
C283 C 0.12882 0.21752 0.49269 0.0
C284 C 0.1189 0.21872 0.46328 0.0
C285 C 0.12278 0.192 0.44541 0.0
C286 C 0.1367 0.16467 0.45671 0.0
H287 H 0.23822 0.15762 0.50926 0.0
H288 H 0.20895 0.17692 0.48677 0.0
H289 H 0.20702 0.17978 0.52619 0.0
H290 H 0.14974 0.18965 0.52681 0.0
H291 H 0.1259 0.23766 0.50704 0.0
H292 H 0.25258 0.86624 0.48624 0.0
H293 H 0.20926 0.8403 0.46047 0.0
H294 H 0.15323 0.84647 0.53913 0.0
H295 H 0.19578 0.87172 0.56485 0.0
H296 H 0.17111 0.78025 0.49024 0.0
H297 H 0.10527 0.88962 0.46179 0.0
H298 H 0.14747 0.88795 0.46466 0.0
H299 H 0.12385 0.88899 0.4973 0.0
C300 C 0.23101 0.86195 0.49794 0.0
C301 C 0.22759 0.87093 0.52756 0.0
C302 C 0.20641 0.84719 0.48325 0.0
C303 C 0.17819 0.84174 0.498 0.0
C304 C 0.17487 0.85064 0.52744 0.0
H305 H -0.00109 0.77874 0.51477 0.0
H306 H 0.05018 0.803 0.51324 0.0
C307 C 0.19929 0.865 0.5421 0.0
C308 C 0.15158 0.82655 0.48354 0.0
H309 H 0.07572 0.84252 0.46513 0.0
C310 C 0.15049 0.79368 0.48369 0.0
C311 C 0.12483 0.84434 0.47539 0.0
C312 C 0.12529 0.87972 0.47451 0.0
C313 C 0.1224 0.77814 0.47808 0.0
C314 C 0.09506 0.79611 0.47205 0.0
C315 C 0.09677 0.82888 0.46984 0.0
C316 C 0.06386 0.78178 0.47187 0.0
C317 C 0.12151 0.74287 0.48087 0.0
C318 C 0.05459 0.76204 0.44894 0.0
C319 C 0.02521 0.74811 0.44969 0.0
C320 C 0.0047 0.75368 0.47346 0.0
C321 C 0.01409 0.7738 0.49621 0.0
C322 C 0.04335 0.78777 0.49534 0.0
H323 H 0.14434 0.73261 0.48796 0.0
H324 H 0.1033 0.73613 0.49699 0.0
H325 H 0.11522 0.73244 0.45936 0.0
H326 H 0.07009 0.75737 0.43054 0.0
H327 H 0.01873 0.73278 0.43178 0.0
H328 H 0.76276 0.01072 0.51706 0.0
H329 H 0.79222 0.96733 0.49429 0.0
H330 H 0.7661 0.90628 0.56545 0.0
H331 H 0.73643 0.94913 0.58828 0.0
H332 H 0.84244 0.93045 0.51931 0.0
H333 H 0.73966 0.85879 0.49035 0.0
H334 H 0.73642 0.90003 0.4994 0.0
H335 H 0.74046 0.87122 0.52808 0.0
C336 C 0.76318 0.98803 0.52785 0.0
C337 C 0.74704 0.98336 0.55443 0.0
C338 C 0.78006 0.96336 0.51481 0.0
C339 C 0.78084 0.93364 0.52802 0.0
C340 C 0.76523 0.92899 0.5547 0.0
H341 H 0.8667 0.75297 0.50304 0.0
H342 H 0.83961 0.80047 0.52051 0.0
C343 C 0.74843 0.95358 0.56778 0.0
C344 C 0.79833 0.90738 0.51428 0.0
H345 H 0.78961 0.83331 0.48735 0.0
C346 C 0.83096 0.90931 0.51198 0.0
C347 C 0.78309 0.88 0.50475 0.0
C348 C 0.74795 0.87739 0.50547 0.0
C349 C 0.84895 0.88391 0.50136 0.0
C350 C 0.83374 0.85624 0.49263 0.0
C351 C 0.80108 0.85461 0.49428 0.0
C352 C 0.85132 0.82828 0.48242 0.0
C353 C 0.88409 0.88635 0.50043 0.0
C354 C 0.86672 0.82842 0.45522 0.0
C355 C 0.88209 0.80131 0.44511 0.0
C356 C 0.8822 0.77377 0.46211 0.0
C357 C 0.867 0.77387 0.48949 0.0
C358 C 0.85154 0.80091 0.4995 0.0
H359 H 0.89245 0.90736 0.51238 0.0
H360 H 0.89527 0.86504 0.51014 0.0
H361 H 0.89187 0.88797 0.47721 0.0
H362 H 0.86642 0.84932 0.44165 0.0
H363 H 0.89362 0.80186 0.42392 0.0
H364 H 0.8081 0.09181 0.5518 0.0
H365 H 0.85202 0.12091 0.53217 0.0
H366 H 0.78935 0.17306 0.47539 0.0
H367 H 0.74492 0.14308 0.4946 0.0
H368 H 0.84969 0.15596 0.44952 0.0
H369 H 0.86077 0.21302 0.55842 0.0
H370 H 0.86105 0.17096 0.5607 0.0
H371 H 0.82655 0.19147 0.54785 0.0
C372 C 0.80368 0.10919 0.53485 0.0
C373 C 0.77315 0.11563 0.52499 0.0
C374 C 0.82877 0.1258 0.5237 0.0
C375 C 0.82375 0.14962 0.50294 0.0
C376 C 0.79355 0.15488 0.49163 0.0
H377 H 0.97348 0.28527 0.48675 0.0
H378 H 0.92091 0.26305 0.48896 0.0
C379 C 0.7683 0.13781 0.50254 0.0
C380 C 0.84998 0.17011 0.49498 0.0
H381 H 0.9048 0.21673 0.52625 0.0
C382 C 0.86154 0.16966 0.46611 0.0
C383 C 0.86498 0.18841 0.51658 0.0
C384 C 0.85252 0.1913 0.54755 0.0
C385 C 0.8889 0.18573 0.45872 0.0
C386 C 0.90512 0.2021 0.48091 0.0
C387 C 0.89253 0.20388 0.50933 0.0
C388 C 0.936 0.2163 0.47584 0.0
C389 C 0.90031 0.18486 0.42736 0.0
C390 C 0.96182 0.19736 0.46774 0.0
C391 C 0.99176 0.21 0.46666 0.0
C392 C 0.99612 0.24164 0.4737 0.0
C393 C 0.97035 0.26077 0.48118 0.0
C394 C 0.94047 0.24815 0.48235 0.0
H395 H 0.8809 0.18021 0.41181 0.0
H396 H 0.91141 0.20731 0.42117 0.0
H397 H 0.91799 0.16566 0.42492 0.0
H398 H 0.959 0.17257 0.46334 0.0
H399 H 0.01155 0.19498 0.46094 0.0
H400 H 0.25359 0.50167 0.06601 0.0
H401 H 0.27778 0.55332 0.06315 0.0
H402 H 0.2792 0.54689 0.9686 0.0
H403 H 0.25532 0.49516 0.9711 0.0
H404 H 0.33919 0.56637 0.02833 0.0
H405 H 0.23264 0.63411 0.99499 0.0
H406 H 0.23093 0.59769 0.0153 0.0
H407 H 0.23955 0.5971 0.97671 0.0
C408 C 0.259 0.51123 0.04458 0.0
C409 C 0.25249 0.49432 0.01875 0.0
C410 C 0.27281 0.54069 0.04305 0.0
C411 C 0.2799 0.55382 0.01569 0.0
C412 C 0.27358 0.53708 0.98989 0.0
H413 H 0.39241 0.68997 0.93885 0.0
H414 H 0.36681 0.64383 0.95862 0.0
C415 C 0.26009 0.50751 0.99139 0.0
C416 C 0.29463 0.58477 0.01383 0.0
H417 H 0.28138 0.65967 0.9899 0.0
C418 C 0.32653 0.58695 0.02038 0.0
C419 C 0.27782 0.61149 0.0038 0.0
C420 C 0.24326 0.61026 0.99745 0.0
C421 C 0.34254 0.61494 0.01554 0.0
C422 C 0.32614 0.64113 0.00377 0.0
C423 C 0.29384 0.63946 -0.00115 0.0
C424 C 0.34268 0.66913 0.99334 0.0
C425 C 0.37705 0.61607 0.02222 0.0
C426 C 0.33722 0.69868 0.0062 0.0
C427 C 0.35194 0.72523 0.99495 0.0
C428 C 0.37184 0.7225 0.97044 0.0
C429 C 0.37719 0.69282 0.95773 0.0
C430 C 0.36275 0.6664 0.9691 0.0
H431 H 0.38419 0.59763 0.03825 0.0
H432 H 0.39047 0.61205 0.00164 0.0
H433 H 0.38345 0.6394 0.03112 0.0
H434 H 0.32154 0.70117 0.0248 0.0
H435 H 0.34739 0.74785 0.00512 0.0
H436 H 0.69518 0.6084 0.08089 0.0
H437 H 0.64757 0.63605 0.06537 0.0
H438 H 0.69245 0.6629 0.9845 0.0
H439 H 0.74049 0.63507 -0.00013 0.0
H440 H 0.64485 0.70305 0.04972 0.0
H441 H 0.60655 0.62289 0.96024 0.0
H442 H 0.6332 0.61013 0.9888 0.0
H443 H 0.64657 0.63543 0.9601 0.0
C444 C 0.69494 0.62001 0.05971 0.0
C445 C 0.72154 0.61964 0.04158 0.0
C446 C 0.66774 0.63579 0.05092 0.0
C447 C 0.66657 0.65127 0.02379 0.0
C448 C 0.69292 0.65075 0.00541 0.0
H449 H 0.50703 0.75355 0.94873 0.0
H450 H 0.55847 0.72897 0.95595 0.0
C451 C 0.72029 0.63499 0.01425 0.0
C452 C 0.63793 0.66886 0.01555 0.0
H453 H 0.57405 0.66664 0.9708 0.0
C454 C 0.62943 0.69527 0.03234 0.0
C455 C 0.61815 0.65866 0.99274 0.0
C456 C 0.62631 0.63013 0.97442 0.0
C457 C 0.60122 0.71152 0.02727 0.0
C458 C 0.58077 0.70056 0.00527 0.0
C459 C 0.58976 0.67478 0.98779 0.0
C460 C 0.54949 0.71496 0.0008 0.0
C461 C 0.59355 0.74027 0.04549 0.0
C462 C 0.52729 0.71465 0.02351 0.0
C463 C 0.49789 0.7287 0.01955 0.0
C464 C 0.49011 0.74315 0.99269 0.0
C465 C 0.51226 0.74277 0.96976 0.0
C466 C 0.54167 0.72873 0.97378 0.0
H467 H 0.61494 0.75057 0.05514 0.0
H468 H 0.58133 0.75852 0.03215 0.0
H469 H 0.57792 0.7336 0.06386 0.0
H470 H 0.53273 0.70351 0.04433 0.0
H471 H 0.48136 0.72832 0.03758 0.0
H472 H 0.76598 0.48009 0.05968 0.0
H473 H 0.74411 0.42767 0.05389 0.0
H474 H 0.69807 0.45752 0.97412 0.0
H475 H 0.72005 0.50969 0.97938 0.0
H476 H 0.68147 0.40825 0.04933 0.0
H477 H 0.7489 0.37985 0.94847 0.0
H478 H 0.75852 0.41228 0.97223 0.0
H479 H 0.72748 0.41632 0.94574 0.0
C480 C 0.75114 0.47554 0.04092 0.0
C481 C 0.74506 0.49901 0.01979 0.0
C482 C 0.73869 0.44558 0.03769 0.0
C483 C 0.72005 0.43863 0.01328 0.0
C484 C 0.71306 0.46226 0.99274 0.0
H485 H 0.6093 0.30094 0.93582 0.0
H486 H 0.63753 0.34639 0.95349 0.0
C487 C 0.72556 0.4921 0.99586 0.0
C488 C 0.7078 0.40671 0.00897 0.0
H489 H 0.7048 0.34759 0.95855 0.0
C490 C 0.68689 0.39466 0.02975 0.0
C491 C 0.7153 0.38898 0.98357 0.0
C492 C 0.73903 0.39986 0.96137 0.0
C493 C 0.67169 0.36615 0.02479 0.0
C494 C 0.67789 0.3494 -0.00145 0.0
C495 C 0.69999 0.36068 0.97856 0.0
C496 C 0.65958 0.32185 0.98977 0.0
C497 C 0.64797 0.3549 0.04678 0.0
C498 C 0.66248 0.29304 0.00457 0.0
C499 C 0.64623 0.26683 0.99451 0.0
C500 C 0.62713 0.26921 0.96944 0.0
C501 C 0.62395 0.29829 0.9551 0.0
C502 C 0.64004 0.32431 0.96516 0.0
H503 H 0.64313 0.37257 0.06425 0.0
H504 H 0.62568 0.34933 0.03555 0.0
H505 H 0.65686 0.33304 0.05733 0.0
H506 H 0.67777 0.29067 0.02344 0.0
H507 H 0.6491 0.24467 0.00593 0.0
H508 H 0.49236 0.21337 0.02752 0.0
H509 H 0.43982 0.23617 0.03334 0.0
H510 H 0.45903 0.3025 0.96405 0.0
H511 H 0.51059 0.27783 0.95671 0.0
H512 H 0.42258 0.28882 0.05081 0.0
H513 H 0.37521 0.27886 0.93849 0.0
H514 H 0.4114 0.25979 0.94914 0.0
H515 H 0.41077 0.30043 0.93787 0.0
C516 C 0.48507 0.2326 0.01339 0.0
C517 C 0.50519 0.24395 0.99168 0.0
C518 C 0.4551 0.2456 0.01664 0.0
C519 C 0.44507 0.27075 -0.00124 0.0
C520 C 0.46559 0.2824 0.97736 0.0
H521 H 0.30615 0.40402 0.05941 0.0
H522 H 0.3536 0.37532 0.04496 0.0
C523 C 0.49518 0.26864 0.97343 0.0
C524 C 0.41418 0.28617 0.00413 0.0
H525 H 0.34907 0.31638 0.97026 0.0
C526 C 0.40639 0.29439 0.03315 0.0
C527 C 0.39259 0.29302 0.98129 0.0
C528 C 0.3978 0.2822 0.95004 0.0
C529 C 0.37815 0.30982 0.03991 0.0
C530 C 0.35781 0.319 0.01682 0.0
C531 C 0.36501 0.30999 0.98788 0.0
C532 C 0.32919 0.33819 0.02243 0.0
C533 C 0.37031 0.31555 0.07187 0.0
C534 C 0.29982 0.32814 0.01268 0.0
C535 C 0.27268 0.34517 0.0201 0.0
C536 C 0.27463 0.37213 0.03773 0.0
C537 C 0.30407 0.38292 0.04628 0.0
C538 C 0.33114 0.36641 0.03823 0.0
H539 H 0.38206 0.29792 0.08629 0.0
H540 H 0.37871 0.33904 0.07845 0.0
H541 H 0.34472 0.31466 0.07586 0.0
H542 H 0.2978 0.30662 0.00016 0.0
H543 H 0.25016 0.33653 0.01319 0.0
H544 H 0.94791 0.60588 0.44198 0.0
H545 H 0.97026 0.55355 0.44962 0.0
H546 H 0.96836 0.56796 0.54342 0.0
H547 H 0.94577 0.62065 0.53613 0.0
H548 H 0.02946 0.54466 0.48121 0.0
H549 H 0.9303 0.4785 0.5293 0.0
H550 H 0.9241 0.51364 0.5077 0.0
H551 H 0.93901 0.51648 0.5444 0.0
C552 C 0.95184 0.59792 0.46431 0.0
C553 C 0.94529 0.61761 0.48845 0.0
C554 C 0.9646 0.56798 0.46859 0.0
C555 C 0.97089 0.55705 0.49703 0.0
C556 C 0.96335 0.576 0.52131 0.0
H557 H 0.05515 0.37196 0.53517 0.0
H558 H 0.03512 0.42562 0.54259 0.0
C559 C 0.95051 0.60608 0.51707 0.0
C560 C 0.9875 0.52672 0.50074 0.0
H561 H 0.97718 0.45032 0.52036 0.0
C562 C 0.01819 0.52407 0.49006 0.0
C563 C 0.97273 0.50016 0.51261 0.0
C564 C 0.93966 0.50203 0.52409 0.0
C565 C 0.03423 0.49516 0.48993 0.0
C566 C 0.0189 0.46822 0.50032 0.0
C567 C 0.98875 0.47112 0.51236 0.0
C568 C 0.03258 0.43649 0.49622 0.0
C569 C 0.06722 0.49358 0.47816 0.0
C570 C 0.03767 0.42502 0.4677 0.0
C571 C 0.04903 0.39454 0.46335 0.0
C572 C 0.0554 0.37482 0.48748 0.0
C573 C 0.05064 0.38656 0.51611 0.0
C574 C 0.03912 0.41714 0.52042 0.0
H575 H 0.07867 0.51677 0.47953 0.0
H576 H 0.08164 0.47601 0.49035 0.0
H577 H 0.06665 0.48651 0.45468 0.0
H578 H 0.03221 0.43949 0.44874 0.0
H579 H 0.05237 0.38631 0.44101 0.0
H580 H 0.58369 0.05491 0.59519 0.0
H581 H 0.53413 0.0395 0.57338 0.0
H582 H 0.5795 0.02556 0.48962 0.0
H583 H 0.62957 0.04151 0.51134 0.0
H584 H 0.50278 0.06234 0.5101 0.0
H585 H 0.53893 0.93742 0.5275 0.0
H586 H 0.55509 0.96687 0.55134 0.0
H587 H 0.56551 0.9662 0.51316 0.0
C588 C 0.58303 0.04924 0.57197 0.0
C589 C 0.61045 0.04921 0.55498 0.0
C590 C 0.55474 0.04052 0.55955 0.0
C591 C 0.55336 0.03128 0.53002 0.0
C592 C 0.58026 0.03273 0.51245 0.0
H593 H 0.37645 0.929 0.52331 0.0
H594 H 0.42497 0.94707 0.49997 0.0
C595 C 0.60869 0.04193 0.52485 0.0
C596 C 0.52417 0.01732 0.51932 0.0
H597 H 0.48452 0.94917 0.52792 0.0
C598 C 0.49887 0.0374 0.51275 0.0
C599 C 0.51928 0.98476 0.52244 0.0
C600 C 0.54608 0.96234 0.52887 0.0
C601 C 0.46824 0.02616 0.51244 0.0
C602 C 0.46299 0.99437 0.51968 0.0
C603 C 0.48858 0.9736 0.52261 0.0
C604 C 0.43242 0.98441 0.53134 0.0
C605 C 0.44155 0.04892 0.50676 0.0
C606 C 0.42107 -0.00101 0.55691 0.0
C607 C 0.39398 0.98859 0.57038 0.0
C608 C 0.37744 0.96322 0.55866 0.0
C609 C 0.38863 0.94864 0.53283 0.0
C610 C 0.41621 0.95897 0.51942 0.0
H611 H 0.44868 0.06755 0.49116 0.0
H612 H 0.42086 0.03678 0.49774 0.0
H613 H 0.43472 0.06053 0.5277 0.0
H614 H 0.43368 0.01807 0.56697 0.0
H615 H 0.38609 0.00054 0.59013 0.0
H616 H 0.56606 0.10852 0.03034 0.0
H617 H 0.53996 0.05801 0.0336 0.0
H618 H 0.53125 0.05544 0.9392 0.0
H619 H 0.55687 0.10605 0.93566 0.0
H620 H 0.47521 0.04626 0.96852 0.0
H621 H 0.56938 0.9687 0.01358 0.0
H622 H 0.56202 0.00414 0.03408 0.0
H623 H 0.5772 0.00644 0.99733 0.0
C624 C 0.55914 0.09696 0.01021 0.0
C625 C 0.56346 0.11145 0.98273 0.0
C626 C 0.54428 0.06803 0.01214 0.0
C627 C 0.53384 0.05294 0.98663 0.0
C628 C 0.53913 0.06676 0.95915 0.0
H629 H 0.43732 0.88704 0.9368 0.0
H630 H 0.46179 0.93824 0.94013 0.0
C631 C 0.55383 0.09569 0.95719 0.0
C632 C 0.51544 0.02389 0.98853 0.0
H633 H 0.51893 0.94702 0.00965 0.0
C634 C 0.48477 0.02455 0.97751 0.0
C635 C 0.5279 0.99573 0.00052 0.0
C636 C 0.56101 0.99348 0.01185 0.0
C637 C 0.46627 -0.00231 0.97791 0.0
C638 C 0.47894 0.9694 0.98934 0.0
C639 C 0.50932 0.96886 0.00099 0.0
C640 C 0.46179 0.93961 0.98767 0.0
C641 C 0.43333 -0.00024 0.96614 0.0
C642 C 0.45365 0.92347 0.01334 0.0
C643 C 0.43956 0.89413 0.01156 0.0
C644 C 0.43382 0.88029 0.98402 0.0
C645 C 0.4414 0.89696 0.95837 0.0
C646 C 0.45527 0.92632 0.9602 0.0
H647 H 0.42442 0.02442 0.96552 0.0
H648 H 0.433 0.9904 0.94337 0.0
H649 H 0.41721 0.98557 0.97968 0.0
H650 H 0.45866 0.93337 0.03474 0.0
H651 H 0.4342 0.88187 0.03174 0.0
H652 H 0.10987 0.44487 0.06366 0.0
H653 H 0.05856 0.46984 0.05786 0.0
H654 H 0.06553 0.45976 0.96377 0.0
H655 H 0.11701 0.43445 0.96923 0.0
H656 H 0.04847 0.52625 0.02526 0.0
H657 H 0.97701 0.42752 0.98372 0.0
H658 H 0.01391 0.42123 0.00227 0.0
H659 H 0.01321 0.4345 0.96484 0.0
C660 C 0.10043 0.44753 0.04169 0.0
C661 C 0.11769 0.43775 0.01688 0.0
C662 C 0.07109 0.46185 0.03846 0.0
C663 C 0.05831 0.46655 0.01043 0.0
C664 C 0.07489 0.45597 0.98562 0.0
H665 H 0.87781 0.55692 0.96868 0.0
H666 H 0.93087 0.53501 0.963 0.0
C667 C 0.10433 0.44157 0.98881 0.0
C668 C 0.02849 0.48425 0.00737 0.0
H669 H 0.95178 0.47692 0.98841 0.0
C670 C 0.02735 0.51555 0.01703 0.0
C671 C 0.00115 0.47024 0.99639 0.0
C672 C 0.0011 0.43646 0.98636 0.0
C673 C -0.00067 0.53308 0.01661 0.0
C674 C 0.97174 0.51874 0.00664 0.0
C675 C 0.97308 0.4878 0.99597 0.0
C676 C 0.94082 0.53442 0.0096 0.0
C677 C -0.00058 0.56669 0.02713 0.0
C678 C 0.92909 0.54143 0.03765 0.0
C679 C 0.89894 0.55383 0.041 0.0
C680 C 0.87983 0.55938 0.01632 0.0
C681 C 0.89197 0.5531 0.98812 0.0
C682 C 0.92219 0.54049 0.98482 0.0
H683 H 0.02316 0.57683 0.02572 0.0
H684 H 0.98295 0.58156 0.01413 0.0
H685 H 0.99194 0.56754 0.05048 0.0
H686 H 0.94295 0.53643 0.05707 0.0
H687 H 0.89038 0.55839 0.06304 0.0
loop_
_geom_bond_atom_site_label_1
_geom_bond_atom_site_label_2
_geom_bond_distance
_geom_bond_site_symmetry_2
_ccdc_geom_bond_type
Co0 O1 2.216 . S
Co0 O2 2.091 . S
Co0 O4 2.004 . S
Co0 O10 2.021 . S
Co0 O12 2.137 . S
Co0 O13 2.244 . S
O1 Co0 2.216 . S
O1 C8 1.247 . S
O2 Co0 2.091 . S
O2 C8 1.261 . S
C3 O12 1.247 . S
C3 O13 1.272 . S
O4 Co0 2.004 . S
O4 C9 1.259 . S
Co5 O6 2.061 . S
Co5 O11 2.052 . S
Co5 O13 2.135 . S
O6 Co5 2.061 . S
O6 C9 1.235 . S
C7 O10 1.238 . S
C7 O11 1.241 . S
C8 O1 1.247 . S
C8 O2 1.261 . S
C9 O4 1.259 . S
C9 O6 1.235 . S
O10 Co0 2.021 . S
O10 C7 1.238 . S
O11 Co5 2.052 . S
O11 C7 1.241 . S
O12 Co0 2.137 . S
O12 C3 1.247 . S
O13 Co0 2.244 . S
O13 C3 1.272 . S
O13 Co5 2.135 . S
Co14 O15 2.216 . S
Co14 O16 2.091 . S
Co14 O18 2.004 . S
Co14 O24 2.021 . S
Co14 O26 2.137 . S
Co14 O27 2.244 . S
O15 Co14 2.216 . S
O15 C22 1.247 . S
O16 Co14 2.091 . S
O16 C22 1.261 . S
C17 O26 1.247 . S
C17 O27 1.272 . S
O18 Co14 2.004 . S
O18 C23 1.259 . S
Co19 O20 2.061 . S
Co19 O25 2.052 . S
Co19 O27 2.135 . S
O20 Co19 2.061 . S
O20 C23 1.235 . S
C21 O24 1.238 . S
C21 O25 1.241 . S
C22 O15 1.247 . S
C22 O16 1.261 . S
C23 O18 1.259 . S
C23 O20 1.235 . S
O24 Co14 2.021 . S
O24 C21 1.238 . S
O25 Co19 2.052 . S
O25 C21 1.241 . S
O26 Co14 2.137 . S
O26 C17 1.247 . S
O27 Co14 2.244 . S
O27 C17 1.272 . S
O27 Co19 2.135 . S
Co28 O29 2.216 . S
Co28 O30 2.091 . S
Co28 O32 2.004 . S
Co28 O38 2.021 . S
Co28 O40 2.137 . S
Co28 O41 2.244 . S
O29 Co28 2.216 . S
O29 C36 1.247 . S
O30 Co28 2.091 . S
O30 C36 1.261 . S
C31 O40 1.247 . S
C31 O41 1.272 . S
O32 Co28 2.004 . S
O32 C37 1.259 . S
Co33 O34 2.061 . S
Co33 O39 2.052 . S
Co33 O41 2.135 . S
O34 Co33 2.061 . S
O34 C37 1.235 . S
C35 O38 1.238 . S
C35 O39 1.241 . S
C36 O29 1.247 . S
C36 O30 1.261 . S
C37 O32 1.259 . S
C37 O34 1.235 . S
O38 Co28 2.021 . S
O38 C35 1.238 . S
O39 Co33 2.052 . S
O39 C35 1.241 . S
O40 Co28 2.137 . S
O40 C31 1.247 . S
O41 Co28 2.244 . S
O41 C31 1.272 . S
O41 Co33 2.135 . S
Co42 O43 2.216 . S
Co42 O44 2.091 . S
Co42 O46 2.004 . S
Co42 O52 2.021 . S
Co42 O54 2.137 . S
Co42 O55 2.244 . S
O43 Co42 2.216 . S
O43 C50 1.247 . S
O44 Co42 2.091 . S
O44 C50 1.261 . S
C45 O54 1.247 . S
C45 O55 1.272 . S
O46 Co42 2.004 . S
O46 C51 1.259 . S
Co47 O48 2.061 . S
Co47 O53 2.052 . S
Co47 O55 2.135 . S
O48 Co47 2.061 . S
O48 C51 1.235 . S
C49 O52 1.238 . S
C49 O53 1.241 . S
C50 O43 1.247 . S
C50 O44 1.261 . S
C51 O46 1.259 . S
C51 O48 1.235 . S
O52 Co42 2.021 . S
O52 C49 1.238 . S
O53 Co47 2.052 . S
O53 C49 1.241 . S
O54 Co42 2.137 . S
O54 C45 1.247 . S
O55 Co42 2.244 . S
O55 C45 1.272 . S
O55 Co47 2.135 . S
Co56 O57 2.216 . S
Co56 O58 2.091 . S
Co56 O60 2.004 . S
Co56 O66 2.021 . S
Co56 O68 2.137 . S
Co56 O69 2.244 . S
O57 Co56 2.216 . S
O57 C64 1.247 . S
O58 Co56 2.091 . S
O58 C64 1.261 . S
C59 O68 1.247 . S
C59 O69 1.272 . S
O60 Co56 2.004 . S
O60 C65 1.259 . S
Co61 O62 2.061 . S
Co61 O67 2.052 . S
Co61 O69 2.135 1_554 S
O62 Co61 2.061 . S
O62 C65 1.235 1_554 S
C63 O66 1.238 . S
C63 O67 1.241 1_556 S
C64 O57 1.247 . S
C64 O58 1.261 . S
C65 O60 1.259 . S
C65 O62 1.235 1_556 S
O66 Co56 2.021 . S
O66 C63 1.238 . S
O67 Co61 2.052 . S
O67 C63 1.241 1_554 S
O68 Co56 2.137 . S
O68 C59 1.247 . S
O69 Co56 2.244 . S
O69 C59 1.272 . S
O69 Co61 2.135 1_556 S
Co70 O71 2.216 . S
Co70 O72 2.091 . S
Co70 O74 2.004 . S
Co70 O80 2.021 . S
Co70 O82 2.137 . S
Co70 O83 2.244 . S
O71 Co70 2.216 . S
O71 C78 1.247 . S
O72 Co70 2.091 . S
O72 C78 1.261 . S
C73 O82 1.247 . S
C73 O83 1.272 . S
O74 Co70 2.004 . S
O74 C79 1.259 . S
Co75 O76 2.061 1_556 S
Co75 O81 2.052 1_556 S
Co75 O83 2.135 1_556 S
O76 Co75 2.061 1_554 S
O76 C79 1.235 . S
C77 O80 1.238 . S
C77 O81 1.241 . S
C78 O71 1.247 . S
C78 O72 1.261 . S
C79 O74 1.259 . S
C79 O76 1.235 . S
O80 Co70 2.021 . S
O80 C77 1.238 . S
O81 Co75 2.052 1_554 S
O81 C77 1.241 . S
O82 Co70 2.137 . S
O82 C73 1.247 . S
O83 Co70 2.244 . S
O83 C73 1.272 . S
O83 Co75 2.135 1_554 S
Co84 O85 2.216 . S
Co84 O86 2.091 . S
Co84 O88 2.004 . S
Co84 O94 2.021 . S
Co84 O96 2.137 . S
Co84 O97 2.244 . S
O85 Co84 2.216 . S
O85 C92 1.247 . S
O86 Co84 2.091 . S
O86 C92 1.261 . S
C87 O96 1.247 . S
C87 O97 1.272 . S
O88 Co84 2.004 . S
O88 C93 1.259 . S
Co89 O90 2.061 . S
Co89 O95 2.052 . S
Co89 O97 2.135 1_554 S
O90 Co89 2.061 . S
O90 C93 1.235 1_554 S
C91 O94 1.238 . S
C91 O95 1.241 1_556 S
C92 O85 1.247 . S
C92 O86 1.261 . S
C93 O88 1.259 . S
C93 O90 1.235 1_556 S
O94 Co84 2.021 . S
O94 C91 1.238 . S
O95 Co89 2.052 . S
O95 C91 1.241 1_554 S
O96 Co84 2.137 . S
O96 C87 1.247 . S
O97 Co84 2.244 . S
O97 C87 1.272 . S
O97 Co89 2.135 1_556 S
Co98 O99 2.216 . S
Co98 O100 2.091 . S
Co98 O102 2.004 . S
Co98 O108 2.021 . S
Co98 O110 2.137 . S
Co98 O111 2.244 . S
O99 Co98 2.216 . S
O99 C106 1.247 . S
O100 Co98 2.091 . S
O100 C106 1.261 . S
C101 O110 1.247 . S
C101 O111 1.272 . S
O102 Co98 2.004 . S
O102 C107 1.259 . S
Co103 O104 2.061 1_556 S
Co103 O109 2.052 1_556 S
Co103 O111 2.135 1_556 S
O104 Co103 2.061 1_554 S
O104 C107 1.235 . S
C105 O108 1.238 . S
C105 O109 1.241 . S
C106 O99 1.247 . S
C106 O100 1.261 . S
C107 O102 1.259 . S
C107 O104 1.235 . S
O108 Co98 2.021 . S
O108 C105 1.238 . S
O109 Co103 2.052 1_554 S
O109 C105 1.241 . S
O110 Co98 2.137 . S
O110 C101 1.247 . S
O111 Co98 2.244 . S
O111 C101 1.272 . S
O111 Co103 2.135 1_554 S
H112 C120 0.929 . S
H113 C122 0.930 . S
H114 C124 0.930 . S
H115 C127 0.929 . S
H116 C130 0.930 . S
H117 C132 0.960 . S
H118 C132 0.960 . S
H119 C132 0.960 . S
C120 H112 0.929 . S
C120 C121 1.377 . S
C120 C122 1.384 . S
C121 C120 1.377 . S
C121 C127 1.390 . S
C122 H113 0.930 . S
C122 C120 1.384 . S
C122 C123 1.372 . S
C123 C122 1.372 . S
C123 C124 1.400 . S
C123 C128 1.490 . S
C124 H114 0.930 . S
C124 C123 1.400 . S
C124 C127 1.386 . S
H125 C141 0.930 . S
H126 C142 0.931 . S
C127 H115 0.929 . S
C127 C121 1.390 . S
C127 C124 1.386 . S
C128 C123 1.490 . S
C128 C130 1.395 . S
C128 C131 1.403 . S
H129 C135 0.930 . S
C130 H116 0.930 . S
C130 C128 1.395 . S
C130 C133 1.403 . S
C131 C128 1.403 . S
C131 C132 1.524 . S
C131 C135 1.400 . S
C132 H117 0.960 . S
C132 H118 0.960 . S
C132 H119 0.960 . S
C132 C131 1.524 . S
C133 C130 1.403 . S
C133 C134 1.392 . S
C133 C137 1.495 . S
C134 C133 1.392 . S
C134 C135 1.385 . S
C134 C136 1.478 . S
C135 H129 0.930 . S
C135 C131 1.400 . S
C135 C134 1.385 . S
C136 C134 1.478 . S
C136 C138 1.381 . S
C136 C142 1.383 . S
C137 C133 1.495 . S
C137 H143 0.959 . S
C137 H144 0.961 . S
C137 H145 0.960 . S
C138 C136 1.381 . S
C138 C139 1.394 . S
C138 H146 0.930 . S
C139 C138 1.394 . S
C139 C140 1.383 . S
C139 H147 0.929 . S
C140 C139 1.383 . S
C140 C141 1.377 . S
C141 H125 0.930 . S
C141 C140 1.377 . S
C141 C142 1.379 . S
C142 H126 0.931 . S
C142 C136 1.383 . S
C142 C141 1.379 . S
H143 C137 0.959 . S
H144 C137 0.961 . S
H145 C137 0.960 . S
H146 C138 0.930 . S
H147 C139 0.929 . S
H148 C156 0.929 . S
H149 C158 0.930 . S
H150 C160 0.930 . S
H151 C163 0.929 . S
H152 C166 0.930 . S
H153 C168 0.960 . S
H154 C168 0.960 . S
H155 C168 0.960 . S
C156 H148 0.929 . S
C156 C157 1.377 . S
C156 C158 1.384 . S
C157 C156 1.377 . S
C157 C163 1.390 . S
C158 H149 0.930 . S
C158 C156 1.384 . S
C158 C159 1.372 . S
C159 C158 1.372 . S
C159 C160 1.400 . S
C159 C164 1.490 . S
C160 H150 0.930 . S
C160 C159 1.400 . S
C160 C163 1.386 . S
H161 C177 0.930 . S
H162 C178 0.931 . S
C163 H151 0.929 . S
C163 C157 1.390 . S
C163 C160 1.386 . S
C164 C159 1.490 . S
C164 C166 1.395 . S
C164 C167 1.403 . S
H165 C171 0.930 . S
C166 H152 0.930 . S
C166 C164 1.395 . S
C166 C169 1.403 . S
C167 C164 1.403 . S
C167 C168 1.524 . S
C167 C171 1.400 . S
C168 H153 0.960 . S
C168 H154 0.960 . S
C168 H155 0.960 . S
C168 C167 1.524 . S
C169 C166 1.403 . S
C169 C170 1.392 . S
C169 C173 1.495 . S
C170 C169 1.392 . S
C170 C171 1.385 . S
C170 C172 1.478 . S
C171 H165 0.930 . S
C171 C167 1.400 . S
C171 C170 1.385 . S
C172 C170 1.478 . S
C172 C174 1.381 . S
C172 C178 1.383 . S
C173 C169 1.495 . S
C173 H179 0.959 . S
C173 H180 0.961 . S
C173 H181 0.960 . S
C174 C172 1.381 . S
C174 C175 1.394 . S
C174 H182 0.930 . S
C175 C174 1.394 . S
C175 C176 1.383 . S
C175 H183 0.929 . S
C176 C175 1.383 . S
C176 C177 1.377 . S
C177 H161 0.930 . S
C177 C176 1.377 . S
C177 C178 1.379 . S
C178 H162 0.931 . S
C178 C172 1.383 . S
C178 C177 1.379 . S
H179 C173 0.959 . S
H180 C173 0.961 . S
H181 C173 0.960 . S
H182 C174 0.930 . S
H183 C175 0.929 . S
H184 C192 0.929 . S
H185 C194 0.930 . S
H186 C196 0.930 . S
H187 C199 0.929 . S
H188 C202 0.930 . S
H189 C204 0.960 . S
H190 C204 0.960 . S
H191 C204 0.960 . S
C192 H184 0.929 . S
C192 C193 1.377 . S
C192 C194 1.384 . S
C193 C192 1.377 . S
C193 C199 1.390 . S
C194 H185 0.930 . S
C194 C192 1.384 . S
C194 C195 1.372 . S
C195 C194 1.372 . S
C195 C196 1.400 . S
C195 C200 1.490 . S
C196 H186 0.930 . S
C196 C195 1.400 . S
C196 C199 1.386 . S
H197 C213 0.930 . S
H198 C214 0.931 . S
C199 H187 0.929 . S
C199 C193 1.390 . S
C199 C196 1.386 . S
C200 C195 1.490 . S
C200 C202 1.395 . S
C200 C203 1.403 . S
H201 C207 0.930 . S
C202 H188 0.930 . S
C202 C200 1.395 . S
C202 C205 1.403 . S
C203 C200 1.403 . S
C203 C204 1.524 . S
C203 C207 1.400 . S
C204 H189 0.960 . S
C204 H190 0.960 . S
C204 H191 0.960 . S
C204 C203 1.524 . S
C205 C202 1.403 . S
C205 C206 1.392 . S
C205 C209 1.495 . S
C206 C205 1.392 . S
C206 C207 1.385 . S
C206 C208 1.478 . S
C207 H201 0.930 . S
C207 C203 1.400 . S
C207 C206 1.385 . S
C208 C206 1.478 . S
C208 C210 1.381 . S
C208 C214 1.383 . S
C209 C205 1.495 . S
C209 H215 0.959 . S
C209 H216 0.961 . S
C209 H217 0.960 . S
C210 C208 1.381 . S
C210 C211 1.394 . S
C210 H218 0.930 . S
C211 C210 1.394 . S
C211 C212 1.383 . S
C211 H219 0.929 . S
C212 C211 1.383 . S
C212 C213 1.377 . S
C213 H197 0.930 . S
C213 C212 1.377 . S
C213 C214 1.379 . S
C214 H198 0.931 . S
C214 C208 1.383 . S
C214 C213 1.379 . S
H215 C209 0.959 . S
H216 C209 0.961 . S
H217 C209 0.960 . S
H218 C210 0.930 . S
H219 C211 0.929 . S
H220 C228 0.929 . S
H221 C230 0.930 . S
H222 C232 0.930 . S
H223 C235 0.929 . S
H224 C238 0.930 . S
H225 C240 0.960 . S
H226 C240 0.960 . S
H227 C240 0.960 . S
C228 H220 0.929 . S
C228 C229 1.377 . S
C228 C230 1.384 . S
C229 C228 1.377 . S
C229 C235 1.390 . S
C230 H221 0.930 . S
C230 C228 1.384 . S
C230 C231 1.372 . S
C231 C230 1.372 . S
C231 C232 1.400 . S
C231 C236 1.490 . S
C232 H222 0.930 . S
C232 C231 1.400 . S
C232 C235 1.386 . S
H233 C249 0.930 . S
H234 C250 0.931 . S
C235 H223 0.929 . S
C235 C229 1.390 . S
C235 C232 1.386 . S
C236 C231 1.490 . S
C236 C238 1.395 . S
C236 C239 1.403 . S
H237 C243 0.930 . S
C238 H224 0.930 . S
C238 C236 1.395 . S
C238 C241 1.403 . S
C239 C236 1.403 . S
C239 C240 1.524 . S
C239 C243 1.400 . S
C240 H225 0.960 . S
C240 H226 0.960 . S
C240 H227 0.960 . S
C240 C239 1.524 . S
C241 C238 1.403 . S
C241 C242 1.392 . S
C241 C245 1.495 . S
C242 C241 1.392 . S
C242 C243 1.385 . S
C242 C244 1.478 . S
C243 H237 0.930 . S
C243 C239 1.400 . S
C243 C242 1.385 . S
C244 C242 1.478 . S
C244 C246 1.381 . S
C244 C250 1.383 . S
C245 C241 1.495 . S
C245 H251 0.959 . S
C245 H252 0.961 . S
C245 H253 0.960 . S
C246 C244 1.381 . S
C246 C247 1.394 . S
C246 H254 0.930 . S
C247 C246 1.394 . S
C247 C248 1.383 . S
C247 H255 0.929 . S
C248 C247 1.383 . S
C248 C249 1.377 . S
C249 H233 0.930 . S
C249 C248 1.377 . S
C249 C250 1.379 . S
C250 H234 0.931 . S
C250 C244 1.383 . S
C250 C249 1.379 . S
H251 C245 0.959 . S
H252 C245 0.961 . S
H253 C245 0.960 . S
H254 C246 0.930 . S
H255 C247 0.929 . S
H256 C264 0.929 . S
H257 C266 0.930 . S
H258 C268 0.930 . S
H259 C271 0.929 . S
H260 C274 0.930 . S
H261 C276 0.960 . S
H262 C276 0.960 . S
H263 C276 0.960 . S
C264 H256 0.929 . S
C264 C265 1.377 . S
C264 C266 1.384 . S
C265 C264 1.377 . S
C265 C271 1.390 . S
C266 H257 0.930 . S
C266 C264 1.384 . S
C266 C267 1.372 . S
C267 C266 1.372 . S
C267 C268 1.400 . S
C267 C272 1.490 . S
C268 H258 0.930 . S
C268 C267 1.400 . S
C268 C271 1.386 . S
H269 C285 0.930 . S
H270 C286 0.931 . S
C271 H259 0.929 . S
C271 C265 1.390 . S
C271 C268 1.386 . S
C272 C267 1.490 . S
C272 C274 1.395 . S
C272 C275 1.403 . S
H273 C279 0.930 . S
C274 H260 0.930 . S
C274 C272 1.395 . S
C274 C277 1.403 . S
C275 C272 1.403 . S
C275 C276 1.524 . S
C275 C279 1.400 . S
C276 H261 0.960 . S
C276 H262 0.960 . S
C276 H263 0.960 . S
C276 C275 1.524 . S
C277 C274 1.403 . S
C277 C278 1.392 . S
C277 C281 1.495 . S
C278 C277 1.392 . S
C278 C279 1.385 . S
C278 C280 1.478 . S
C279 H273 0.930 . S
C279 C275 1.400 . S
C279 C278 1.385 . S
C280 C278 1.478 . S
C280 C282 1.381 . S
C280 C286 1.383 . S
C281 C277 1.495 . S
C281 H287 0.959 . S
C281 H288 0.961 . S
C281 H289 0.960 . S
C282 C280 1.381 . S
C282 C283 1.394 . S
C282 H290 0.930 . S
C283 C282 1.394 . S
C283 C284 1.383 . S
C283 H291 0.929 . S
C284 C283 1.383 . S
C284 C285 1.377 . S
C285 H269 0.930 . S
C285 C284 1.377 . S
C285 C286 1.379 . S
C286 H270 0.931 . S
C286 C280 1.383 . S
C286 C285 1.379 . S
H287 C281 0.959 . S
H288 C281 0.961 . S
H289 C281 0.960 . S
H290 C282 0.930 . S
H291 C283 0.929 . S
H292 C300 0.929 . S
H293 C302 0.930 . S
H294 C304 0.930 . S
H295 C307 0.929 . S
H296 C310 0.930 . S
H297 C312 0.960 . S
H298 C312 0.960 . S
H299 C312 0.960 . S
C300 H292 0.929 . S
C300 C301 1.377 . S
C300 C302 1.384 . S
C301 C300 1.377 . S
C301 C307 1.390 . S
C302 H293 0.930 . S
C302 C300 1.384 . S
C302 C303 1.372 . S
C303 C302 1.372 . S
C303 C304 1.400 . S
C303 C308 1.490 . S
C304 H294 0.930 . S
C304 C303 1.400 . S
C304 C307 1.386 . S
H305 C321 0.930 1_655 S
H306 C322 0.931 . S
C307 H295 0.929 . S
C307 C301 1.390 . S
C307 C304 1.386 . S
C308 C303 1.490 . S
C308 C310 1.395 . S
C308 C311 1.403 . S
H309 C315 0.930 . S
C310 H296 0.930 . S
C310 C308 1.395 . S
C310 C313 1.403 . S
C311 C308 1.403 . S
C311 C312 1.524 . S
C311 C315 1.400 . S
C312 H297 0.960 . S
C312 H298 0.960 . S
C312 H299 0.960 . S
C312 C311 1.524 . S
C313 C310 1.403 . S
C313 C314 1.392 . S
C313 C317 1.495 . S
C314 C313 1.392 . S
C314 C315 1.385 . S
C314 C316 1.478 . S
C315 H309 0.930 . S
C315 C311 1.400 . S
C315 C314 1.385 . S
C316 C314 1.478 . S
C316 C318 1.381 . S
C316 C322 1.383 . S
C317 C313 1.495 . S
C317 H323 0.959 . S
C317 H324 0.961 . S
C317 H325 0.960 . S
C318 C316 1.381 . S
C318 C319 1.394 . S
C318 H326 0.930 . S
C319 C318 1.394 . S
C319 C320 1.383 . S
C319 H327 0.929 . S
C320 C319 1.383 . S
C320 C321 1.377 . S
C321 H305 0.930 1_455 S
C321 C320 1.377 . S
C321 C322 1.379 . S
C322 H306 0.931 . S
C322 C316 1.383 . S
C322 C321 1.379 . S
H323 C317 0.959 . S
H324 C317 0.961 . S
H325 C317 0.960 . S
H326 C318 0.930 . S
H327 C319 0.929 . S
H328 C336 0.929 1_545 S
H329 C338 0.930 . S
H330 C340 0.930 . S
H331 C343 0.929 . S
H332 C346 0.930 . S
H333 C348 0.960 . S
H334 C348 0.960 . S
H335 C348 0.960 . S
C336 H328 0.929 1_565 S
C336 C337 1.377 . S
C336 C338 1.384 . S
C337 C336 1.377 . S
C337 C343 1.390 . S
C338 H329 0.930 . S
C338 C336 1.384 . S
C338 C339 1.372 . S
C339 C338 1.372 . S
C339 C340 1.400 . S
C339 C344 1.490 . S
C340 H330 0.930 . S
C340 C339 1.400 . S
C340 C343 1.386 . S
H341 C357 0.930 . S
H342 C358 0.931 . S
C343 H331 0.929 . S
C343 C337 1.390 . S
C343 C340 1.386 . S
C344 C339 1.490 . S
C344 C346 1.395 . S
C344 C347 1.403 . S
H345 C351 0.930 . S
C346 H332 0.930 . S
C346 C344 1.395 . S
C346 C349 1.403 . S
C347 C344 1.403 . S
C347 C348 1.524 . S
C347 C351 1.400 . S
C348 H333 0.960 . S
C348 H334 0.960 . S
C348 H335 0.960 . S
C348 C347 1.524 . S
C349 C346 1.403 . S
C349 C350 1.392 . S
C349 C353 1.495 . S
C350 C349 1.392 . S
C350 C351 1.385 . S
C350 C352 1.478 . S
C351 H345 0.930 . S
C351 C347 1.400 . S
C351 C350 1.385 . S
C352 C350 1.478 . S
C352 C354 1.381 . S
C352 C358 1.383 . S
C353 C349 1.495 . S
C353 H359 0.959 . S
C353 H360 0.961 . S
C353 H361 0.960 . S
C354 C352 1.381 . S
C354 C355 1.394 . S
C354 H362 0.930 . S
C355 C354 1.394 . S
C355 C356 1.383 . S
C355 H363 0.929 . S
C356 C355 1.383 . S
C356 C357 1.377 . S
C357 H341 0.930 . S
C357 C356 1.377 . S
C357 C358 1.379 . S
C358 H342 0.931 . S
C358 C352 1.383 . S
C358 C357 1.379 . S
H359 C353 0.959 . S
H360 C353 0.961 . S
H361 C353 0.960 . S
H362 C354 0.930 . S
H363 C355 0.929 . S
H364 C372 0.929 . S
H365 C374 0.930 . S
H366 C376 0.930 . S
H367 C379 0.929 . S
H368 C382 0.930 . S
H369 C384 0.960 . S
H370 C384 0.960 . S
H371 C384 0.960 . S
C372 H364 0.929 . S
C372 C373 1.377 . S
C372 C374 1.384 . S
C373 C372 1.377 . S
C373 C379 1.390 . S
C374 H365 0.930 . S
C374 C372 1.384 . S
C374 C375 1.372 . S
C375 C374 1.372 . S
C375 C376 1.400 . S
C375 C380 1.490 . S
C376 H366 0.930 . S
C376 C375 1.400 . S
C376 C379 1.386 . S
H377 C393 0.930 . S
H378 C394 0.931 . S
C379 H367 0.929 . S
C379 C373 1.390 . S
C379 C376 1.386 . S
C380 C375 1.490 . S
C380 C382 1.395 . S
C380 C383 1.403 . S
H381 C387 0.930 . S
C382 H368 0.930 . S
C382 C380 1.395 . S
C382 C385 1.403 . S
C383 C380 1.403 . S
C383 C384 1.524 . S
C383 C387 1.400 . S
C384 H369 0.960 . S
C384 H370 0.960 . S
C384 H371 0.960 . S
C384 C383 1.524 . S
C385 C382 1.403 . S
C385 C386 1.392 . S
C385 C389 1.495 . S
C386 C385 1.392 . S
C386 C387 1.385 . S
C386 C388 1.478 . S
C387 H381 0.930 . S
C387 C383 1.400 . S
C387 C386 1.385 . S
C388 C386 1.478 . S
C388 C390 1.381 . S
C388 C394 1.383 . S
C389 C385 1.495 . S
C389 H395 0.959 . S
C389 H396 0.961 . S
C389 H397 0.960 . S
C390 C388 1.381 . S
C390 C391 1.394 . S
C390 H398 0.930 . S
C391 C390 1.394 . S
C391 C392 1.383 . S
C391 H399 0.929 1_655 S
C392 C391 1.383 . S
C392 C393 1.377 . S
C393 H377 0.930 . S
C393 C392 1.377 . S
C393 C394 1.379 . S
C394 H378 0.931 . S
C394 C388 1.383 . S
C394 C393 1.379 . S
H395 C389 0.959 . S
H396 C389 0.961 . S
H397 C389 0.960 . S
H398 C390 0.930 . S
H399 C391 0.929 1_455 S
H400 C408 0.929 . S
H401 C410 0.930 . S
H402 C412 0.930 . S
H403 C415 0.929 1_556 S
H404 C418 0.930 . S
H405 C420 0.960 . S
H406 C420 0.960 . S
H407 C420 0.960 . S
C408 H400 0.929 . S
C408 C409 1.377 . S
C408 C410 1.384 . S
C409 C408 1.377 . S
C409 C415 1.390 . S
C410 H401 0.930 . S
C410 C408 1.384 . S
C410 C411 1.372 . S
C411 C410 1.372 . S
C411 C412 1.400 1_554 S
C411 C416 1.490 . S
C412 H402 0.930 . S
C412 C411 1.400 1_556 S
C412 C415 1.386 1_556 S
H413 C429 0.930 . S
H414 C430 0.931 . S
C415 H403 0.929 1_554 S
C415 C409 1.390 . S
C415 C412 1.386 1_554 S
C416 C411 1.490 . S
C416 C418 1.395 . S
C416 C419 1.403 . S
H417 C423 0.930 . S
C418 H404 0.930 . S
C418 C416 1.395 . S
C418 C421 1.403 . S
C419 C416 1.403 . S
C419 C420 1.524 . S
C419 C423 1.400 . S
C420 H405 0.960 . S
C420 H406 0.960 . S
C420 H407 0.960 . S
C420 C419 1.524 . S
C421 C418 1.403 . S
C421 C422 1.393 . S
C421 C425 1.495 1_554 S
C422 C421 1.393 . S
C422 C423 1.386 . S
C422 C424 1.476 1_554 S
C423 H417 0.930 . S
C423 C419 1.400 . S
C423 C422 1.386 . S
C424 C422 1.476 1_556 S
C424 C426 1.381 1_556 S
C424 C430 1.383 . S
C425 C421 1.495 1_556 S
C425 H431 0.959 . S
C425 H432 0.961 . S
C425 H433 0.960 1_556 S
C426 C424 1.381 1_554 S
C426 C427 1.394 . S
C426 H434 0.930 . S
C427 C426 1.394 . S
C427 C428 1.383 1_554 S
C427 H435 0.929 . S
C428 C427 1.383 1_556 S
C428 C429 1.377 . S
C429 H413 0.930 . S
C429 C428 1.377 . S
C429 C430 1.379 . S
C430 H414 0.931 . S
C430 C424 1.383 . S
C430 C429 1.379 . S
H431 C425 0.959 . S
H432 C425 0.961 . S
H433 C425 0.960 1_554 S
H434 C426 0.930 . S
H435 C427 0.929 . S
H436 C444 0.929 . S
H437 C446 0.930 . S
H438 C448 0.930 . S
H439 C451 0.929 . S
H440 C454 0.930 . S
H441 C456 0.960 . S
H442 C456 0.960 . S
H443 C456 0.960 . S
C444 H436 0.929 . S
C444 C445 1.377 . S
C444 C446 1.384 . S
C445 C444 1.377 . S
C445 C451 1.390 1_554 S
C446 H437 0.930 . S
C446 C444 1.384 . S
C446 C447 1.372 . S
C447 C446 1.372 . S
C447 C448 1.400 1_554 S
C447 C452 1.490 . S
C448 H438 0.930 . S
C448 C447 1.400 1_556 S
C448 C451 1.386 . S
H449 C465 0.930 . S
H450 C466 0.931 . S
C451 H439 0.929 . S
C451 C445 1.390 1_556 S
C451 C448 1.386 . S
C452 C447 1.490 . S
C452 C454 1.395 . S
C452 C455 1.403 1_554 S
H453 C459 0.930 . S
C454 H440 0.930 . S
C454 C452 1.395 . S
C454 C457 1.403 . S
C455 C452 1.403 1_556 S
C455 C456 1.524 . S
C455 C459 1.400 . S
C456 H441 0.960 . S
C456 H442 0.960 . S
C456 H443 0.960 . S
C456 C455 1.524 . S
C457 C454 1.403 . S
C457 C458 1.392 . S
C457 C461 1.495 . S
C458 C457 1.392 . S
C458 C459 1.385 1_554 S
C458 C460 1.478 1_554 S
C459 H453 0.930 . S
C459 C455 1.400 . S
C459 C458 1.385 1_556 S
C460 C458 1.478 1_556 S
C460 C462 1.381 1_556 S
C460 C466 1.383 . S
C461 C457 1.495 . S
C461 H467 0.959 . S
C461 H468 0.961 . S
C461 H469 0.960 . S
C462 C460 1.381 1_554 S
C462 C463 1.394 . S
C462 H470 0.930 . S
C463 C462 1.394 . S
C463 C464 1.383 1_554 S
C463 H471 0.929 . S
C464 C463 1.383 1_556 S
C464 C465 1.377 . S
C465 H449 0.930 . S
C465 C464 1.377 . S
C465 C466 1.379 . S
C466 H450 0.931 . S
C466 C460 1.383 . S
C466 C465 1.379 . S
H467 C461 0.959 . S
H468 C461 0.961 . S
H469 C461 0.960 . S
H470 C462 0.930 . S
H471 C463 0.929 . S
H472 C480 0.929 . S
H473 C482 0.930 . S
H474 C484 0.930 . S
H475 C487 0.929 . S
H476 C490 0.930 . S
H477 C492 0.960 . S
H478 C492 0.960 . S
H479 C492 0.960 . S
C480 H472 0.929 . S
C480 C481 1.377 . S
C480 C482 1.384 . S
C481 C480 1.377 . S
C481 C487 1.390 . S
C482 H473 0.930 . S
C482 C480 1.384 . S
C482 C483 1.372 . S
C483 C482 1.372 . S
C483 C484 1.400 . S
C483 C488 1.490 . S
C484 H474 0.930 . S
C484 C483 1.400 . S
C484 C487 1.386 . S
H485 C501 0.930 . S
H486 C502 0.926 1_554 S
C487 H475 0.929 . S
C487 C481 1.390 . S
C487 C484 1.386 . S
C488 C483 1.490 . S
C488 C490 1.395 . S
C488 C491 1.403 1_554 S
H489 C495 0.930 . S
C490 H476 0.930 . S
C490 C488 1.395 . S
C490 C493 1.403 . S
C491 C488 1.403 1_556 S
C491 C492 1.524 . S
C491 C495 1.400 . S
C492 H477 0.960 . S
C492 H478 0.960 . S
C492 H479 0.960 . S
C492 C491 1.524 . S
C493 C490 1.403 . S
C493 C494 1.392 . S
C493 C497 1.495 . S
C494 C493 1.392 . S
C494 C495 1.385 1_554 S
C494 C496 1.477 1_554 S
C495 H489 0.930 . S
C495 C491 1.400 . S
C495 C494 1.385 1_556 S
C496 C494 1.477 1_556 S
C496 C498 1.382 . S
C496 C502 1.382 . S
C497 C493 1.495 . S
C497 H503 0.959 . S
C497 H504 0.961 . S
C497 H505 0.960 . S
C498 C496 1.382 . S
C498 C499 1.394 . S
C498 H506 0.930 . S
C499 C498 1.394 . S
C499 C500 1.383 . S
C499 H507 0.929 . S
C500 C499 1.383 . S
C500 C501 1.377 . S
C501 H485 0.930 . S
C501 C500 1.377 . S
C501 C502 1.385 . S
C502 H486 0.926 1_556 S
C502 C496 1.382 . S
C502 C501 1.385 . S
H503 C497 0.959 . S
H504 C497 0.961 . S
H505 C497 0.960 . S
H506 C498 0.930 . S
H507 C499 0.929 . S
H508 C516 0.929 . S
H509 C518 0.930 1_554 S
H510 C520 0.930 . S
H511 C523 0.929 . S
H512 C526 0.930 . S
H513 C528 0.960 . S
H514 C528 0.960 . S
H515 C528 0.960 . S
C516 H508 0.929 . S
C516 C517 1.377 . S
C516 C518 1.384 . S
C517 C516 1.377 . S
C517 C523 1.390 . S
C518 H509 0.930 1_556 S
C518 C516 1.384 . S
C518 C519 1.372 . S
C519 C518 1.372 . S
C519 C520 1.400 . S
C519 C524 1.490 . S
C520 H510 0.930 . S
C520 C519 1.400 . S
C520 C523 1.386 . S
H521 C537 0.930 . S
H522 C538 0.931 . S
C523 H511 0.929 . S
C523 C517 1.390 . S
C523 C520 1.386 . S
C524 C519 1.490 . S
C524 C526 1.395 1_556 S
C524 C527 1.403 . S
H525 C531 0.930 . S
C526 H512 0.930 . S
C526 C524 1.395 1_554 S
C526 C529 1.403 . S
C527 C524 1.403 . S
C527 C528 1.524 . S
C527 C531 1.400 . S
C528 H513 0.960 . S
C528 H514 0.960 . S
C528 H515 0.960 . S
C528 C527 1.524 . S
C529 C526 1.403 . S
C529 C530 1.392 . S
C529 C533 1.495 . S
C530 C529 1.392 . S
C530 C531 1.385 1_554 S
C530 C532 1.478 . S
C531 H525 0.930 . S
C531 C527 1.400 . S
C531 C530 1.385 1_556 S
C532 C530 1.478 . S
C532 C534 1.381 . S
C532 C538 1.383 . S
C533 C529 1.495 . S
C533 H539 0.959 . S
C533 H540 0.961 . S
C533 H541 0.960 . S
C534 C532 1.381 . S
C534 C535 1.394 . S
C534 H542 0.930 . S
C535 C534 1.394 . S
C535 C536 1.383 . S
C535 H543 0.929 . S
C536 C535 1.383 . S
C536 C537 1.377 . S
C537 H521 0.930 . S
C537 C536 1.377 . S
C537 C538 1.379 . S
C538 H522 0.931 . S
C538 C532 1.383 . S
C538 C537 1.379 . S
H539 C533 0.959 . S
H540 C533 0.961 . S
H541 C533 0.960 . S
H542 C534 0.930 . S
H543 C535 0.929 . S
H544 C552 0.929 . S
H545 C554 0.930 . S
H546 C556 0.930 . S
H547 C559 0.929 . S
H548 C562 0.930 . S
H549 C564 0.960 . S
H550 C564 0.960 . S
H551 C564 0.960 . S
C552 H544 0.929 . S
C552 C553 1.377 . S
C552 C554 1.384 . S
C553 C552 1.377 . S
C553 C559 1.390 . S
C554 H545 0.930 . S
C554 C552 1.384 . S
C554 C555 1.372 . S
C555 C554 1.372 . S
C555 C556 1.400 . S
C555 C560 1.490 . S
C556 H546 0.930 . S
C556 C555 1.400 . S
C556 C559 1.386 . S
H557 C573 0.930 . S
H558 C574 0.931 . S
C559 H547 0.929 . S
C559 C553 1.390 . S
C559 C556 1.386 . S
C560 C555 1.490 . S
C560 C562 1.395 1_655 S
C560 C563 1.403 . S
H561 C567 0.930 . S
C562 H548 0.930 . S
C562 C560 1.395 1_455 S
C562 C565 1.403 . S
C563 C560 1.403 . S
C563 C564 1.524 . S
C563 C567 1.400 . S
C564 H549 0.960 . S
C564 H550 0.960 . S
C564 H551 0.960 . S
C564 C563 1.524 . S
C565 C562 1.403 . S
C565 C566 1.392 . S
C565 C569 1.495 . S
C566 C565 1.392 . S
C566 C567 1.385 1_455 S
C566 C568 1.478 . S
C567 H561 0.930 . S
C567 C563 1.400 . S
C567 C566 1.385 1_655 S
C568 C566 1.478 . S
C568 C570 1.381 . S
C568 C574 1.383 . S
C569 C565 1.495 . S
C569 H575 0.959 . S
C569 H576 0.961 . S
C569 H577 0.960 . S
C570 C568 1.381 . S
C570 C571 1.394 . S
C570 H578 0.930 . S
C571 C570 1.394 . S
C571 C572 1.383 . S
C571 H579 0.929 . S
C572 C571 1.383 . S
C572 C573 1.377 . S
C573 H557 0.930 . S
C573 C572 1.377 . S
C573 C574 1.379 . S
C574 H558 0.931 . S
C574 C568 1.383 . S
C574 C573 1.379 . S
H575 C569 0.959 . S
H576 C569 0.961 . S
H577 C569 0.960 . S
H578 C570 0.930 . S
H579 C571 0.929 . S
H580 C588 0.929 . S
H581 C590 0.930 . S
H582 C592 0.930 1_565 S
H583 C595 0.929 . S
H584 C598 0.930 . S
H585 C600 0.960 . S
H586 C600 0.960 . S
H587 C600 0.960 . S
C588 H580 0.929 . S
C588 C589 1.377 . S
C588 C590 1.384 . S
C589 C588 1.377 . S
C589 C595 1.390 . S
C590 H581 0.930 . S
C590 C588 1.384 . S
C590 C591 1.372 . S
C591 C590 1.372 . S
C591 C592 1.400 . S
C591 C596 1.490 . S
C592 H582 0.930 1_545 S
C592 C591 1.400 . S
C592 C595 1.386 . S
H593 C609 0.930 . S
H594 C610 0.931 . S
C595 H583 0.929 . S
C595 C589 1.390 . S
C595 C592 1.386 . S
C596 C591 1.490 . S
C596 C598 1.395 . S
C596 C599 1.403 1_545 S
H597 C603 0.930 . S
C598 H584 0.930 . S
C598 C596 1.395 . S
C598 C601 1.403 . S
C599 C596 1.403 1_565 S
C599 C600 1.524 . S
C599 C603 1.400 . S
C600 H585 0.960 . S
C600 H586 0.960 . S
C600 H587 0.960 . S
C600 C599 1.524 . S
C601 C598 1.403 . S
C601 C602 1.392 1_545 S
C601 C605 1.495 . S
C602 C601 1.392 1_565 S
C602 C603 1.385 . S
C602 C604 1.478 . S
C603 H597 0.930 . S
C603 C599 1.400 . S
C603 C602 1.385 . S
C604 C602 1.478 . S
C604 C606 1.381 . S
C604 C610 1.383 . S
C605 C601 1.495 . S
C605 H611 0.959 . S
C605 H612 0.961 . S
C605 H613 0.960 . S
C606 C604 1.381 . S
C606 C607 1.394 . S
C606 H614 0.930 1_565 S
C607 C606 1.394 . S
C607 C608 1.383 . S
C607 H615 0.929 . S
C608 C607 1.383 . S
C608 C609 1.377 . S
C609 H593 0.930 . S
C609 C608 1.377 . S
C609 C610 1.379 . S
C610 H594 0.931 . S
C610 C604 1.383 . S
C610 C609 1.379 . S
H611 C605 0.959 . S
H612 C605 0.961 . S
H613 C605 0.960 . S
H614 C606 0.930 1_545 S
H615 C607 0.929 . S
H616 C624 0.929 1_554 S
H617 C626 0.930 1_554 S
H618 C628 0.930 . S
H619 C631 0.929 . S
H620 C634 0.930 . S
H621 C636 0.961 1_565 S
H622 C636 0.959 1_554 S
H623 C636 0.960 . S
C624 H616 0.929 1_556 S
C624 C625 1.377 . S
C624 C626 1.384 . S
C625 C624 1.377 . S
C625 C631 1.390 . S
C626 H617 0.930 1_556 S
C626 C624 1.384 . S
C626 C627 1.372 . S
C627 C626 1.372 . S
C627 C628 1.400 . S
C627 C632 1.490 . S
C628 H618 0.930 . S
C628 C627 1.400 . S
C628 C631 1.386 . S
H629 C645 0.930 . S
H630 C646 0.931 . S
C631 H619 0.929 . S
C631 C625 1.390 . S
C631 C628 1.386 . S
C632 C627 1.490 . S
C632 C634 1.395 . S
C632 C635 1.403 . S
H633 C639 0.930 . S
C634 H620 0.930 . S
C634 C632 1.395 . S
C634 C637 1.403 . S
C635 C632 1.403 . S
C635 C636 1.524 . S
C635 C639 1.400 1_545 S
C636 H621 0.961 1_545 S
C636 H622 0.959 1_556 S
C636 H623 0.960 . S
C636 C635 1.524 . S
C637 C634 1.403 . S
C637 C638 1.392 1_545 S
C637 C641 1.495 . S
C638 C637 1.392 1_565 S
C638 C639 1.385 . S
C638 C640 1.478 . S
C639 H633 0.930 . S
C639 C635 1.400 1_565 S
C639 C638 1.385 . S
C640 C638 1.478 . S
C640 C642 1.381 . S
C640 C646 1.383 . S
C641 C637 1.495 . S
C641 H647 0.959 . S
C641 H648 0.961 1_545 S
C641 H649 0.960 1_545 S
C642 C640 1.381 . S
C642 C643 1.394 . S
C642 H650 0.930 1_556 S
C643 C642 1.394 . S
C643 C644 1.383 . S
C643 H651 0.929 1_556 S
C644 C643 1.383 . S
C644 C645 1.377 . S
C645 H629 0.930 . S
C645 C644 1.377 . S
C645 C646 1.379 . S
C646 H630 0.931 . S
C646 C640 1.383 . S
C646 C645 1.379 . S
H647 C641 0.959 . S
H648 C641 0.961 1_565 S
H649 C641 0.960 1_565 S
H650 C642 0.930 1_554 S
H651 C643 0.929 1_554 S
H652 C660 0.929 . S
H653 C662 0.930 . S
H654 C664 0.930 1_556 S
H655 C667 0.929 1_556 S
H656 C670 0.930 . S
H657 C672 0.960 1_655 S
H658 C672 0.960 . S
H659 C672 0.960 . S
C660 H652 0.929 . S
C660 C661 1.377 . S
C660 C662 1.384 . S
C661 C660 1.377 . S
C661 C667 1.390 . S
C662 H653 0.930 . S
C662 C660 1.384 . S
C662 C663 1.372 . S
C663 C662 1.372 . S
C663 C664 1.400 . S
C663 C668 1.490 . S
C664 H654 0.930 1_554 S
C664 C663 1.400 . S
C664 C667 1.386 . S
H665 C681 0.930 1_556 S
H666 C682 0.931 1_556 S
C667 H655 0.929 1_554 S
C667 C661 1.390 . S
C667 C664 1.386 . S
C668 C663 1.490 . S
C668 C670 1.395 . S
C668 C671 1.403 . S
H669 C675 0.930 . S
C670 H656 0.930 . S
C670 C668 1.395 . S
C670 C673 1.403 1_455 S
C671 C668 1.403 . S
C671 C672 1.524 . S
C671 C675 1.400 1_455 S
C672 H657 0.960 1_455 S
C672 H658 0.960 . S
C672 H659 0.960 . S
C672 C671 1.524 . S
C673 C670 1.403 1_655 S
C673 C674 1.392 . S
C673 C677 1.495 . S
C674 C673 1.392 . S
C674 C675 1.385 . S
C674 C676 1.478 . S
C675 H669 0.930 . S
C675 C671 1.400 1_655 S
C675 C674 1.385 . S
C676 C674 1.478 . S
C676 C678 1.381 . S
C676 C682 1.383 . S
C677 C673 1.495 . S
C677 H683 0.959 1_655 S
C677 H684 0.961 . S
C677 H685 0.960 . S
C678 C676 1.381 . S
C678 C679 1.394 . S
C678 H686 0.930 . S
C679 C678 1.394 . S
C679 C680 1.383 . S
C679 H687 0.929 . S
C680 C679 1.383 . S
C680 C681 1.377 . S
C681 H665 0.930 1_554 S
C681 C680 1.377 . S
C681 C682 1.379 . S
C682 H666 0.931 1_554 S
C682 C676 1.383 . S
C682 C681 1.379 . S
H683 C677 0.959 1_455 S
H684 C677 0.961 . S
H685 C677 0.960 . S
H686 C678 0.930 . S
H687 C679 0.929 . S
C121 C106 1.566 . S
C140 C8 1.558 . S
C157 C17 1.550 . S
C176 C64 1.543 . S
C193 C36 1.564 . S
C212 C78 1.556 . S
C229 C92 1.546 . S
C248 C45 1.548 . S
C265 C21 1.338 1_545 S
C284 C3 1.357 . S
C301 C22 1.397 . S
C320 C37 1.401 1_455 S
C337 C49 1.341 1_565 S
C356 C31 1.323 . S
C373 C50 1.393 . S
C392 C9 1.409 1_655 S
C409 C107 1.451 . S
C428 C59 1.390 . S
C445 C73 1.395 . S
C464 C65 1.424 . S
C481 C79 1.449 . S
C500 C87 1.432 . S
C517 C93 1.433 . S
C536 C101 1.380 . S
C553 C35 0.881 . S
C572 C7 0.902 . S
C589 C51 0.858 . S
C608 C23 0.859 . S
C625 C91 0.895 . S
C644 C63 0.920 . S
C661 C105 0.940 . S
C680 C77 0.956 . S
