# Generated by pormake.
# Topology dia-g, (3)-cn, num edge types: 1
# Building blocks:
#     Node 0, Type 0, BuildingBlock: WUSLED_clean_sbu_0, # of connection points: 3
#     Node 1, Type 0, BuildingBlock: WUSLED_clean_sbu_0, # of connection points: 3
#     Node 2, Type 0, BuildingBlock: WUSLED_clean_sbu_0, # of connection points: 3
#     Node 3, Type 0, BuildingBlock: WUSLED_clean_sbu_0, # of connection points: 3
#     Node 4, Type 0, BuildingBlock: WUSLED_clean_sbu_0, # of connection points: 3
#     Node 5, Type 0, BuildingBlock: WUSLED_clean_sbu_0, # of connection points: 3
#     Node 6, Type 0, BuildingBlock: WUSLED_clean_sbu_0, # of connection points: 3
#     Node 7, Type 0, BuildingBlock: WUSLED_clean_sbu_0, # of connection points: 3
#     Node 8, Type 0, BuildingBlock: WUSLED_clean_sbu_0, # of connection points: 3
#     Node 9, Type 0, BuildingBlock: WUSLED_clean_sbu_0, # of connection points: 3
#     Node 10, Type 0, BuildingBlock: WUSLED_clean_sbu_0, # of connection points: 3
#     Node 11, Type 0, BuildingBlock: WUSLED_clean_sbu_0, # of connection points: 3
#     Node 12, Type 0, BuildingBlock: WUSLED_clean_sbu_0, # of connection points: 3
#     Node 13, Type 0, BuildingBlock: WUSLED_clean_sbu_0, # of connection points: 3
#     Node 14, Type 0, BuildingBlock: WUSLED_clean_sbu_0, # of connection points: 3
#     Node 15, Type 0, BuildingBlock: WUSLED_clean_sbu_0, # of connection points: 3
#     Edge 16, Type (0, 0), BuildingBlock: OJICUG_clean_linker_0, # of connection points: 2
#     Edge 17, Type (0, 0), BuildingBlock: OJICUG_clean_linker_0, # of connection points: 2
#     Edge 18, Type (0, 0), BuildingBlock: OJICUG_clean_linker_0, # of connection points: 2
#     Edge 19, Type (0, 0), BuildingBlock: OJICUG_clean_linker_0, # of connection points: 2
#     Edge 20, Type (0, 0), BuildingBlock: OJICUG_clean_linker_0, # of connection points: 2
#     Edge 21, Type (0, 0), BuildingBlock: OJICUG_clean_linker_0, # of connection points: 2
#     Edge 22, Type (0, 0), BuildingBlock: OJICUG_clean_linker_0, # of connection points: 2
#     Edge 23, Type (0, 0), BuildingBlock: OJICUG_clean_linker_0, # of connection points: 2
#     Edge 24, Type (0, 0), BuildingBlock: OJICUG_clean_linker_0, # of connection points: 2
#     Edge 25, Type (0, 0), BuildingBlock: OJICUG_clean_linker_0, # of connection points: 2
#     Edge 26, Type (0, 0), BuildingBlock: OJICUG_clean_linker_0, # of connection points: 2
#     Edge 27, Type (0, 0), BuildingBlock: OJICUG_clean_linker_0, # of connection points: 2
#     Edge 28, Type (0, 0), BuildingBlock: OJICUG_clean_linker_0, # of connection points: 2
#     Edge 29, Type (0, 0), BuildingBlock: OJICUG_clean_linker_0, # of connection points: 2
#     Edge 30, Type (0, 0), BuildingBlock: OJICUG_clean_linker_0, # of connection points: 2
#     Edge 31, Type (0, 0), BuildingBlock: OJICUG_clean_linker_0, # of connection points: 2
#     Edge 32, Type (0, 0), BuildingBlock: OJICUG_clean_linker_0, # of connection points: 2
#     Edge 33, Type (0, 0), BuildingBlock: OJICUG_clean_linker_0, # of connection points: 2
#     Edge 34, Type (0, 0), BuildingBlock: OJICUG_clean_linker_0, # of connection points: 2
#     Edge 35, Type (0, 0), BuildingBlock: OJICUG_clean_linker_0, # of connection points: 2
#     Edge 36, Type (0, 0), BuildingBlock: OJICUG_clean_linker_0, # of connection points: 2
#     Edge 37, Type (0, 0), BuildingBlock: OJICUG_clean_linker_0, # of connection points: 2
#     Edge 38, Type (0, 0), BuildingBlock: OJICUG_clean_linker_0, # of connection points: 2
#     Edge 39, Type (0, 0), BuildingBlock: OJICUG_clean_linker_0, # of connection points: 2
# Relax obj value: 0.110
# Max RMSD: 0.095
# Mean RMSD: 0.094
data_MOF--net-dia-g--node1-WUSLED_clean_sbu_0--edge1-OJICUG_clean_linker_0
_symmetry_space_group_name_H-M    P1
_symmetry_Int_Tables_number       1
_symmetry_cell_setting            triclinic
loop_
_symmetry_equiv_pos_as_xyz
'x, y, z'
_cell_length_a     56.589202
_cell_length_b     58.163342
_cell_length_c     117.98288
_cell_angle_alpha  90.837542
_cell_angle_beta   90.037823
_cell_angle_gamma 90.14485
loop_
_atom_site_label
_atom_site_type_symbol
_atom_site_fract_x
_atom_site_fract_y
_atom_site_fract_z
_atom_type_partial_charge
C0 C 0.10627 0.07873 0.42261 0.0
C1 C 0.08964 0.08215 0.43128 0.0
C2 C 0.06922 0.04695 0.42566 0.0
C3 C 0.07124 0.06649 0.43275 0.0
C4 C 0.08537 0.04404 0.41669 0.0
C5 C 0.10384 0.0598 0.41521 0.0
U6 U 0.14641 0.11913 0.43821 0.0
O7 O 0.18498 0.12053 0.4399 0.0
O8 O 0.16589 0.15026 0.43325 0.0
C9 C 0.18656 0.14077 0.43515 0.0
C10 C 0.12742 0.0934 0.42222 0.0
C11 C 0.2037 0.14198 0.42585 0.0
C12 C 0.21934 0.12685 0.40812 0.0
C13 C 0.20159 0.12736 0.41635 0.0
C14 C 0.24094 0.1563 0.41857 0.0
C15 C 0.23944 0.14099 0.40926 0.0
C16 C 0.22321 0.15673 0.42682 0.0
C17 C 0.12885 0.12997 0.4694 0.0
C18 C 0.15485 0.13801 0.48538 0.0
C19 C 0.11236 0.13909 0.48788 0.0
C20 C 0.10925 0.13377 0.4764 0.0
C21 C 0.13518 0.14063 0.49258 0.0
C22 C 0.1517 0.13276 0.47386 0.0
C23 C 0.12497 0.12063 0.45791 0.0
O24 O 0.12356 0.11565 0.42316 0.0
O25 O 0.14476 0.08637 0.4287 0.0
O26 O 0.13938 0.10406 0.45476 0.0
O27 O 0.12077 0.13551 0.44987 0.0
H28 H 0.09133 0.09656 0.43716 0.0
H29 H 0.05888 0.06943 0.43962 0.0
H30 H 0.08435 0.02907 0.41113 0.0
H31 H 0.11669 0.05677 0.40855 0.0
H32 H 0.21756 0.11508 0.40097 0.0
H33 H 0.18655 0.1159 0.41546 0.0
H34 H 0.2563 0.16723 0.41975 0.0
H35 H 0.2251 0.16807 0.43414 0.0
H36 H 0.17264 0.13934 0.48872 0.0
H37 H 0.09684 0.14072 0.4932 0.0
H38 H 0.0915 0.13157 0.47311 0.0
H39 H 0.16708 0.12998 0.46856 0.0
C40 C 0.97756 0.60805 0.67177 0.0
C41 C 0.97341 0.59029 0.67944 0.0
C42 C 1.00439 0.56727 0.67057 0.0
C43 C 0.9866 0.57006 0.67881 0.0
C44 C 1.00832 0.58508 0.66284 0.0
C45 C 0.995 0.60532 0.66344 0.0
U46 U 0.94032 0.64832 0.68952 0.0
O47 O 0.9412 0.68587 0.69176 0.0
O48 O 0.90906 0.66899 0.68531 0.0
C49 C 0.92018 0.68854 0.68722 0.0
C50 C 0.96443 0.62976 0.67278 0.0
C51 C 0.91913 0.70507 0.67795 0.0
C52 C 0.93371 0.71899 0.65995 0.0
C53 C 0.93439 0.70292 0.66863 0.0
C54 C 0.90212 0.73924 0.66969 0.0
C55 C 0.91764 0.7374 0.66041 0.0
C56 C 0.90292 0.72321 0.67841 0.0
C57 C 0.92742 0.62882 0.71994 0.0
C58 C 0.90369 0.64998 0.7337 0.0
C59 C 0.92394 0.61518 0.73917 0.0
C60 C 0.93293 0.61273 0.72822 0.0
C61 C 0.90914 0.63377 0.74205 0.0
C62 C 0.91278 0.64751 0.7227 0.0
C63 C 0.93762 0.62581 0.70859 0.0
O64 O 0.94139 0.6276 0.67379 0.0
O65 O 0.97354 0.64483 0.67996 0.0
O66 O 0.95512 0.63977 0.70615 0.0
O67 O 0.92249 0.62295 0.70022 0.0
H68 H 0.96007 0.59215 0.68597 0.0
H69 H 0.98282 0.55658 0.68479 0.0
H70 H 1.02205 0.58364 0.65648 0.0
H71 H 0.99855 0.61895 0.65751 0.0
H72 H 0.94565 0.71693 0.65284 0.0
H73 H 0.94691 0.68887 0.66811 0.0
H74 H 0.88969 0.75333 0.67032 0.0
H75 H 0.891 0.72507 0.68554 0.0
H76 H 0.89227 0.66442 0.73564 0.0
H77 H 0.92895 0.60266 0.74543 0.0
H78 H 0.94438 0.59832 0.72623 0.0
H79 H 0.90844 0.66014 0.71637 0.0
C80 C 0.38045 0.39865 0.97078 0.0
C81 C 0.40095 0.40902 0.97519 0.0
C82 C 0.38947 0.39845 0.99425 0.0
C83 C 0.40538 0.40898 0.9868 0.0
C84 C 0.36935 0.38727 0.9898 0.0
C85 C 0.36479 0.38751 0.97811 0.0
U86 U 0.40069 0.42024 0.9429 0.0
O87 O 0.3977 0.40736 0.92533 0.0
O88 O 0.38326 0.44122 0.93003 0.0
C89 C 0.38532 0.42524 0.92211 0.0
C90 C 0.37519 0.40091 0.95866 0.0
C91 C 0.36366 0.42033 0.91566 0.0
C92 C 0.32661 0.39976 0.91292 0.0
C93 C 0.34751 0.40341 0.91906 0.0
C94 C 0.33786 0.42996 0.90003 0.0
C95 C 0.3215 0.41316 0.9034 0.0
C96 C 0.35874 0.43347 0.90611 0.0
C97 C 0.46157 0.44978 0.94366 0.0
C98 C 0.47573 0.47945 0.93104 0.0
C99 C 0.50246 0.46222 0.94452 0.0
C100 C 0.48425 0.44804 0.9483 0.0
C101 C 0.49827 0.47852 0.93606 0.0
C102 C 0.4575 0.46516 0.93481 0.0
C103 C 0.44218 0.4367 0.9488 0.0
O104 O 0.37215 0.42225 0.95548 0.0
O105 O 0.38908 0.38912 0.9518 0.0
O106 O 0.4391 0.41553 0.94502 0.0
O107 O 0.42231 0.44801 0.95025 0.0
H108 H 0.41329 0.41763 0.96965 0.0
H109 H 0.4212 0.41741 0.98998 0.0
H110 H 0.35683 0.37905 0.99538 0.0
H111 H 0.34886 0.37945 0.97483 0.0
H112 H 0.31424 0.3868 0.91574 0.0
H113 H 0.35096 0.39323 0.92649 0.0
H114 H 0.33458 0.44031 0.89264 0.0
H115 H 0.37102 0.44661 0.90338 0.0
H116 H 0.47189 0.49189 0.92455 0.0
H117 H 0.51973 0.46076 0.9484 0.0
H118 H 0.48773 0.43617 0.95509 0.0
H119 H 0.44007 0.46669 0.9311 0.0
C120 C 0.58613 0.94192 0.17038 0.0
C121 C 0.59128 0.95981 0.1781 0.0
C122 C 0.56079 0.9836 0.16966 0.0
C123 C 0.57884 0.98049 0.1777 0.0
C124 C 0.55599 0.96572 0.16181 0.0
C125 C 0.56856 0.94505 0.16218 0.0
U126 U 0.61795 0.89925 0.18858 0.0
O127 O 0.61378 0.86192 0.19027 0.0
O128 O 0.64801 0.87622 0.18512 0.0
C129 C 0.63519 0.85759 0.18649 0.0
C130 C 0.59783 0.91949 0.17139 0.0
C131 C 0.63654 0.84048 0.17725 0.0
C132 C 0.62262 0.82521 0.15918 0.0
C133 C 0.62176 0.84204 0.16774 0.0
C134 C 0.6535 0.80543 0.16939 0.0
C135 C 0.6384 0.80664 0.15995 0.0
C136 C 0.65252 0.82221 0.17799 0.0
C137 C 0.62719 0.91624 0.21976 0.0
C138 C 0.63385 0.88948 0.23505 0.0
C139 C 0.63639 0.93054 0.23866 0.0
C140 C 0.63138 0.93463 0.22728 0.0
C141 C 0.63721 0.90793 0.24273 0.0
C142 C 0.62895 0.8936 0.22364 0.0
C143 C 0.61939 0.92109 0.20817 0.0
O144 O 0.62074 0.92022 0.17327 0.0
O145 O 0.5867 0.90484 0.17788 0.0
O146 O 0.60101 0.90915 0.20462 0.0
O147 O 0.63611 0.92291 0.2005 0.0
H148 H 0.60467 0.95766 0.18457 0.0
H149 H 0.58329 0.994 0.18375 0.0
H150 H 0.54202 0.9674 0.1556 0.0
H151 H 0.56419 0.93131 0.15623 0.0
H152 H 0.611 0.82676 0.15194 0.0
H153 H 0.60944 0.85617 0.16699 0.0
H154 H 0.6657 0.79125 0.17026 0.0
H155 H 0.66407 0.82079 0.18527 0.0
H156 H 0.63459 0.87188 0.23792 0.0
H157 H 0.63857 0.94514 0.24437 0.0
H158 H 0.63003 0.9522 0.22443 0.0
H159 H 0.62587 0.87916 0.21791 0.0
C160 C 0.10561 0.46331 0.86152 0.0
C161 C 0.08895 0.45974 0.85286 0.0
C162 C 0.06857 0.49491 0.8584 0.0
C163 C 0.07056 0.47531 0.85135 0.0
C164 C 0.08476 0.49798 0.86736 0.0
C165 C 0.10322 0.4823 0.86888 0.0
U166 U 0.14607 0.4235 0.8459 0.0
O167 O 0.18467 0.4224 0.84436 0.0
O168 O 0.16553 0.3924 0.85077 0.0
C169 C 0.18621 0.40207 0.84901 0.0
C170 C 0.12679 0.44878 0.86192 0.0
C171 C 0.2032 0.40078 0.85837 0.0
C172 C 0.2183 0.41542 0.87634 0.0
C173 C 0.2007 0.41493 0.86802 0.0
C174 C 0.24055 0.38689 0.86566 0.0
C175 C 0.23865 0.40175 0.87513 0.0
C176 C 0.22296 0.38647 0.85733 0.0
C177 C 0.12908 0.4132 0.81458 0.0
C178 C 0.15541 0.40575 0.79869 0.0
C179 C 0.11298 0.40426 0.79598 0.0
C180 C 0.10964 0.40933 0.80747 0.0
C181 C 0.13589 0.40306 0.79139 0.0
C182 C 0.15203 0.41073 0.81022 0.0
C183 C 0.12495 0.42228 0.8261 0.0
O184 O 0.12299 0.42652 0.86086 0.0
O185 O 0.14422 0.45606 0.85555 0.0
O186 O 0.13926 0.43889 0.8294 0.0
O187 O 0.12065 0.40719 0.83403 0.0
H188 H 0.09062 0.4453 0.84701 0.0
H189 H 0.05817 0.47225 0.84449 0.0
H190 H 0.08378 0.51299 0.87288 0.0
H191 H 0.1161 0.48545 0.87552 0.0
H192 H 0.21622 0.42684 0.8836 0.0
H193 H 0.18547 0.42605 0.86896 0.0
H194 H 0.2561 0.37633 0.86443 0.0
H195 H 0.22516 0.3755 0.84991 0.0
H196 H 0.17326 0.40468 0.79543 0.0
H197 H 0.09756 0.40256 0.79058 0.0
H198 H 0.09181 0.41127 0.81069 0.0
H199 H 0.1673 0.41358 0.81561 0.0
C200 C 0.58343 0.60191 0.11325 0.0
C201 C 0.5776 0.58983 0.10325 0.0
C202 C 0.55738 0.56063 0.1142 0.0
C203 C 0.56464 0.56942 0.10372 0.0
C204 C 0.56369 0.57254 0.12422 0.0
C205 C 0.57657 0.5931 0.12374 0.0
U206 U 0.61721 0.6442 0.09568 0.0
O207 O 0.61459 0.68168 0.0943 0.0
O208 O 0.6481 0.6661 0.09952 0.0
C209 C 0.63604 0.68518 0.09826 0.0
C210 C 0.59625 0.62383 0.11262 0.0
C211 C 0.63763 0.70183 0.1077 0.0
C212 C 0.62374 0.7163 0.12591 0.0
C213 C 0.62304 0.69969 0.11724 0.0
C214 C 0.65418 0.73696 0.11577 0.0
C215 C 0.63917 0.73523 0.12522 0.0
C216 C 0.65335 0.72041 0.10706 0.0
C217 C 0.62578 0.628 0.0643 0.0
C218 C 0.63268 0.65464 0.04896 0.0
C219 C 0.63541 0.61356 0.04548 0.0
C220 C 0.63018 0.60957 0.05685 0.0
C221 C 0.63625 0.63612 0.04135 0.0
C222 C 0.62755 0.65061 0.06037 0.0
C223 C 0.61778 0.62317 0.07587 0.0
O224 O 0.61904 0.62208 0.11065 0.0
O225 O 0.58591 0.63942 0.10639 0.0
O226 O 0.59992 0.63562 0.07952 0.0
O227 O 0.63442 0.62048 0.08351 0.0
H228 H 0.58292 0.59631 0.09507 0.0
H229 H 0.56039 0.56045 0.09587 0.0
H230 H 0.55824 0.56623 0.13241 0.0
H231 H 0.58096 0.60223 0.13153 0.0
H232 H 0.61221 0.71434 0.13316 0.0
H233 H 0.61089 0.68534 0.1179 0.0
H234 H 0.66611 0.75144 0.11496 0.0
H235 H 0.66472 0.72229 0.09975 0.0
H236 H 0.63344 0.6722 0.04606 0.0
H237 H 0.63774 0.59891 0.03983 0.0
H238 H 0.62882 0.59201 0.05974 0.0
H239 H 0.62433 0.66509 0.06604 0.0
C240 C 0.378 0.14025 0.3132 0.0
C241 C 0.3953 0.12609 0.30825 0.0
C242 C 0.38533 0.14025 0.28959 0.0
C243 C 0.39883 0.12599 0.29657 0.0
C244 C 0.36854 0.15505 0.29457 0.0
C245 C 0.36479 0.15494 0.30633 0.0
U246 U 0.40008 0.12087 0.34124 0.0
O247 O 0.39807 0.13512 0.35859 0.0
O248 O 0.38342 0.10086 0.35471 0.0
C249 C 0.38589 0.11745 0.3623 0.0
C250 C 0.37376 0.13903 0.32546 0.0
C251 C 0.36453 0.12271 0.36888 0.0
C252 C 0.32728 0.14281 0.37149 0.0
C253 C 0.34806 0.13909 0.36529 0.0
C254 C 0.33934 0.11381 0.38485 0.0
C255 C 0.32261 0.12999 0.38126 0.0
C256 C 0.3601 0.11024 0.37872 0.0
C257 C 0.46062 0.09104 0.34026 0.0
C258 C 0.47515 0.06185 0.35303 0.0
C259 C 0.50155 0.07891 0.33933 0.0
C260 C 0.48321 0.09283 0.33552 0.0
C261 C 0.49758 0.0628 0.34791 0.0
C262 C 0.4568 0.07588 0.34924 0.0
C263 C 0.44107 0.10381 0.33512 0.0
O264 O 0.37065 0.11803 0.32917 0.0
O265 O 0.38829 0.15129 0.33183 0.0
O266 O 0.43839 0.12526 0.33854 0.0
O267 O 0.42103 0.09252 0.3341 0.0
H268 H 0.40588 0.11483 0.31343 0.0
H269 H 0.41217 0.11472 0.29298 0.0
H270 H 0.35796 0.16623 0.28935 0.0
H271 H 0.35145 0.16606 0.31002 0.0
H272 H 0.31463 0.15529 0.36851 0.0
H273 H 0.35112 0.14873 0.35764 0.0
H274 H 0.33638 0.10392 0.39243 0.0
H275 H 0.37262 0.0975 0.38159 0.0
H276 H 0.47148 0.04956 0.35961 0.0
H277 H 0.51873 0.08039 0.33536 0.0
H278 H 0.4865 0.10454 0.32864 0.0
H279 H 0.43946 0.07433 0.35304 0.0
C280 C 0.97985 0.93259 0.61247 0.0
C281 C 0.98691 0.94378 0.60258 0.0
C282 C 1.007 0.97322 0.61387 0.0
C283 C 1.00044 0.96386 0.60327 0.0
C284 C 0.9996 0.96212 0.62378 0.0
C285 C 0.98617 0.94189 0.62308 0.0
U286 U 0.94183 0.89245 0.59494 0.0
O287 O 0.94153 0.85482 0.59316 0.0
O288 O 0.90978 0.87281 0.59919 0.0
C289 C 0.92034 0.85291 0.59761 0.0
C290 C 0.96574 0.91139 0.61169 0.0
C291 C 0.91875 0.83696 0.60711 0.0
C292 C 0.93256 0.82417 0.62545 0.0
C293 C 0.9333 0.83997 0.61665 0.0
C294 C 0.90225 0.80252 0.6154 0.0
C295 C 0.91717 0.80517 0.62488 0.0
C296 C 0.9031 0.81828 0.60657 0.0
C297 C 0.93135 0.9106 0.56404 0.0
C298 C 0.90478 0.89204 0.55051 0.0
C299 C 0.93162 0.9219 0.54436 0.0
C300 C 0.94034 0.92421 0.55537 0.0
C301 C 0.91359 0.90595 0.54179 0.0
C302 C 0.91361 0.89437 0.56158 0.0
C303 C 0.94094 0.9138 0.57551 0.0
O304 O 0.94293 0.91447 0.61028 0.0
O305 O 0.97448 0.89534 0.60495 0.0
O306 O 0.95782 0.89954 0.57837 0.0
O307 O 0.92545 0.91755 0.58363 0.0
H308 H 0.98196 0.93697 0.59431 0.0
H309 H 1.00552 0.97222 0.5955 0.0
H310 H 1.00449 0.96888 0.63206 0.0
H311 H 0.98078 0.93349 0.63079 0.0
H312 H 0.94403 0.82685 0.63271 0.0
H313 H 0.94541 0.8544 0.61722 0.0
H314 H 0.89035 0.78795 0.61469 0.0
H315 H 0.89176 0.81573 0.59925 0.0
H316 H 0.89085 0.87966 0.54881 0.0
H317 H 0.93921 0.93251 0.53782 0.0
H318 H 0.95418 0.93669 0.55711 0.0
H319 H 0.90654 0.88363 0.5682 0.0
C320 C 0.60641 0.57871 0.92257 0.0
C321 C 0.58985 0.58208 0.93127 0.0
C322 C 0.56928 0.547 0.92558 0.0
C323 C 0.57141 0.56645 0.93273 0.0
C324 C 0.58537 0.54415 0.91657 0.0
C325 C 0.60388 0.55988 0.91511 0.0
U326 U 0.64668 0.61892 0.93821 0.0
O327 O 0.68526 0.62022 0.93991 0.0
O328 O 0.66624 0.65003 0.93329 0.0
C329 C 0.68689 0.64048 0.93517 0.0
C330 C 0.62761 0.59333 0.9222 0.0
C331 C 0.70404 0.64172 0.92589 0.0
C332 C 0.71998 0.6264 0.90825 0.0
C333 C 0.70219 0.62686 0.91646 0.0
C334 C 0.74109 0.6564 0.91856 0.0
C335 C 0.73986 0.64085 0.90933 0.0
C336 C 0.72333 0.65677 0.92679 0.0
C337 C 0.62919 0.62965 0.96942 0.0
C338 C 0.65522 0.6375 0.98541 0.0
C339 C 0.61274 0.63885 0.98791 0.0
C340 C 0.60961 0.63355 0.97642 0.0
C341 C 0.63557 0.64025 0.9926 0.0
C342 C 0.65206 0.6323 0.97389 0.0
C343 C 0.62527 0.62037 0.95792 0.0
O344 O 0.6238 0.61558 0.92317 0.0
O345 O 0.64493 0.58622 0.92867 0.0
O346 O 0.63963 0.60378 0.95475 0.0
O347 O 0.6211 0.63531 0.94991 0.0
H348 H 0.59162 0.59641 0.93719 0.0
H349 H 0.5591 0.56934 0.93963 0.0
H350 H 0.58427 0.52926 0.91098 0.0
H351 H 0.61668 0.5569 0.90843 0.0
H352 H 0.71841 0.61444 0.90116 0.0
H353 H 0.68733 0.61517 0.91562 0.0
H354 H 0.75628 0.66757 0.91969 0.0
H355 H 0.72502 0.6683 0.93404 0.0
H356 H 0.67301 0.63872 0.98876 0.0
H357 H 0.59722 0.64057 0.99322 0.0
H358 H 0.59185 0.63148 0.97312 0.0
H359 H 0.66743 0.62943 0.96859 0.0
C360 C 0.47729 0.10753 0.17166 0.0
C361 C 0.47312 0.08975 0.17932 0.0
C362 C 0.50409 0.06673 0.17046 0.0
C363 C 0.48629 0.06951 0.17869 0.0
C364 C 0.50803 0.08456 0.16272 0.0
C365 C 0.49473 0.1048 0.16333 0.0
U366 U 0.44043 0.14791 0.18953 0.0
O367 O 0.44152 0.18544 0.1918 0.0
O368 O 0.40922 0.16873 0.18542 0.0
C369 C 0.42046 0.18822 0.18731 0.0
C370 C 0.46423 0.12927 0.17271 0.0
C371 C 0.41943 0.20475 0.17804 0.0
C372 C 0.43407 0.21866 0.16005 0.0
C373 C 0.43469 0.20257 0.16872 0.0
C374 C 0.40251 0.23898 0.16978 0.0
C375 C 0.41806 0.23711 0.16051 0.0
C376 C 0.40325 0.22293 0.17849 0.0
C377 C 0.42804 0.12847 0.22001 0.0
C378 C 0.40333 0.14878 0.23369 0.0
C379 C 0.42612 0.1157 0.23944 0.0
C380 C 0.43493 0.11326 0.22846 0.0
C381 C 0.41012 0.1334 0.2422 0.0
C382 C 0.41224 0.14632 0.22265 0.0
C383 C 0.43798 0.12542 0.20861 0.0
O384 O 0.4412 0.12718 0.1738 0.0
O385 O 0.47349 0.14433 0.17985 0.0
O386 O 0.45551 0.13928 0.2061 0.0
O387 O 0.42268 0.12263 0.20031 0.0
H388 H 0.45978 0.09161 0.18586 0.0
H389 H 0.4825 0.05603 0.18466 0.0
H390 H 0.52178 0.08312 0.15637 0.0
H391 H 0.4983 0.11845 0.15742 0.0
H392 H 0.44602 0.21659 0.15295 0.0
H393 H 0.44717 0.1885 0.1682 0.0
H394 H 0.39012 0.2531 0.17042 0.0
H395 H 0.39133 0.22481 0.18563 0.0
H396 H 0.39098 0.16253 0.23552 0.0
H397 H 0.43216 0.10387 0.24582 0.0
H398 H 0.44727 0.09951 0.22657 0.0
H399 H 0.40684 0.15829 0.2162 0.0
C400 C 0.87948 0.89971 0.47094 0.0
C401 C 0.89851 0.91207 0.47563 0.0
C402 C 0.8877 0.89954 0.49448 0.0
C403 C 0.90252 0.91207 0.48728 0.0
C404 C 0.86912 0.88645 0.48975 0.0
C405 C 0.86493 0.88666 0.47802 0.0
U406 U 0.90061 0.92023 0.44298 0.0
O407 O 0.89805 0.90669 0.42551 0.0
O408 O 0.8836 0.94075 0.42981 0.0
C409 C 0.88584 0.92449 0.42204 0.0
C410 C 0.87468 0.90145 0.45875 0.0
C411 C 0.86433 0.91944 0.4155 0.0
C412 C 0.82691 0.89944 0.41287 0.0
C413 C 0.84776 0.90305 0.41906 0.0
C414 C 0.83908 0.92859 0.39959 0.0
C415 C 0.82227 0.91239 0.40314 0.0
C416 C 0.85991 0.93205 0.40572 0.0
C417 C 0.96137 0.94996 0.44386 0.0
C418 C 0.97572 0.97937 0.43113 0.0
C419 C 1.00226 0.9624 0.44478 0.0
C420 C 0.98399 0.9483 0.44857 0.0
C421 C 0.99819 0.97853 0.43623 0.0
C422 C 0.95743 0.96517 0.43492 0.0
C423 C 0.94189 0.93701 0.44899 0.0
O424 O 0.87164 0.92263 0.45531 0.0
O425 O 0.88886 0.88944 0.45212 0.0
O426 O 0.93897 0.91571 0.44539 0.0
O427 O 0.92195 0.9483 0.45023 0.0
H428 H 0.91004 0.9221 0.47028 0.0
H429 H 0.9172 0.92199 0.49067 0.0
H430 H 0.85748 0.87664 0.49514 0.0
H431 H 0.8502 0.87698 0.47452 0.0
H432 H 0.8142 0.88694 0.41583 0.0
H433 H 0.85083 0.89329 0.42667 0.0
H434 H 0.83616 0.93857 0.39204 0.0
H435 H 0.87251 0.94479 0.40286 0.0
H436 H 0.97197 0.99168 0.42457 0.0
H437 H 1.01948 0.96101 0.44872 0.0
H438 H 0.98736 0.93657 0.45543 0.0
H439 H 0.94005 0.96662 0.43114 0.0
C440 C 0.08618 0.44229 0.6704 0.0
C441 C 0.09139 0.46015 0.67813 0.0
C442 C 0.06094 0.48404 0.66972 0.0
C443 C 0.079 0.48086 0.67775 0.0
C444 C 0.05607 0.46618 0.66186 0.0
C445 C 0.0686 0.44548 0.66221 0.0
U446 U 0.11803 0.39952 0.68853 0.0
O447 O 0.11374 0.36221 0.69024 0.0
O448 O 0.14797 0.37639 0.68502 0.0
C449 C 0.13509 0.3578 0.68641 0.0
C450 C 0.09783 0.41984 0.67139 0.0
C451 C 0.13629 0.34068 0.67717 0.0
C452 C 0.12214 0.32547 0.65913 0.0
C453 C 0.12144 0.34231 0.66769 0.0
C454 C 0.15301 0.30555 0.66928 0.0
C455 C 0.13783 0.30683 0.65987 0.0
C456 C 0.15218 0.32233 0.67788 0.0
C457 C 0.12754 0.41645 0.71971 0.0
C458 C 0.13419 0.38963 0.73498 0.0
C459 C 0.13676 0.43068 0.73862 0.0
C460 C 0.13175 0.43481 0.72724 0.0
C461 C 0.13756 0.40806 0.74267 0.0
C462 C 0.12929 0.39379 0.72356 0.0
C463 C 0.11968 0.42134 0.70813 0.0
O464 O 0.12076 0.4205 0.67323 0.0
O465 O 0.08671 0.40521 0.67789 0.0
O466 O 0.10124 0.40947 0.7046 0.0
O467 O 0.13636 0.4231 0.70044 0.0
H468 H 0.10479 0.45796 0.68459 0.0
H469 H 0.08349 0.49434 0.68381 0.0
H470 H 0.0421 0.4679 0.65566 0.0
H471 H 0.06419 0.43177 0.65626 0.0
H472 H 0.11047 0.32708 0.6519 0.0
H473 H 0.10918 0.3565 0.66696 0.0
H474 H 0.16514 0.29131 0.67012 0.0
H475 H 0.16378 0.32086 0.68514 0.0
H476 H 0.13493 0.37203 0.73782 0.0
H477 H 0.13894 0.44527 0.74434 0.0
H478 H 0.1304 0.4524 0.7244 0.0
H479 H 0.12619 0.37938 0.71783 0.0
C480 C 0.60583 0.96331 0.3616 0.0
C481 C 0.5892 0.9598 0.35292 0.0
C482 C 0.56875 0.99488 0.35853 0.0
C483 C 0.57079 0.97535 0.35144 0.0
C484 C 0.5849 0.99789 0.36751 0.0
C485 C 0.60339 0.98223 0.36901 0.0
U486 U 0.64623 0.9235 0.34596 0.0
O487 O 0.68483 0.92241 0.34437 0.0
O488 O 0.66573 0.89241 0.35083 0.0
C489 C 0.6864 0.90208 0.34903 0.0
C490 C 0.62702 0.94879 0.362 0.0
C491 C 0.70346 0.90079 0.35837 0.0
C492 C 0.71908 0.91579 0.37616 0.0
C493 C 0.70138 0.91535 0.36789 0.0
C494 C 0.74056 0.88637 0.3657 0.0
C495 C 0.7391 0.90163 0.37504 0.0
C496 C 0.72288 0.88602 0.35742 0.0
C497 C 0.62909 0.91316 0.31467 0.0
C498 C 0.65532 0.90572 0.29874 0.0
C499 C 0.61287 0.90421 0.29608 0.0
C500 C 0.60959 0.90928 0.30758 0.0
C501 C 0.63575 0.90302 0.29146 0.0
C502 C 0.65201 0.9107 0.31027 0.0
C503 C 0.62502 0.92224 0.32619 0.0
O504 O 0.62322 0.92653 0.36095 0.0
O505 O 0.64442 0.95607 0.35561 0.0
O506 O 0.63934 0.93886 0.32946 0.0
O507 O 0.62077 0.90716 0.33413 0.0
H508 H 0.59091 0.94541 0.34705 0.0
H509 H 0.55842 0.97234 0.34456 0.0
H510 H 0.58388 1.01285 0.37306 0.0
H511 H 0.61624 0.98534 0.37567 0.0
H512 H 0.71734 0.92752 0.38332 0.0
H513 H 0.68642 0.92683 0.36876 0.0
H514 H 0.75585 0.87543 0.36454 0.0
H515 H 0.72475 0.87472 0.35009 0.0
H516 H 0.67315 0.90465 0.29545 0.0
H517 H 0.59742 0.9025 0.29071 0.0
H518 H 0.59179 0.91121 0.31082 0.0
H519 H 0.66731 0.91356 0.31563 0.0
C520 C 0.08431 0.10095 0.61327 0.0
C521 C 0.07937 0.08838 0.60331 0.0
C522 C 0.06048 0.05838 0.61431 0.0
C523 C 0.06752 0.06736 0.60382 0.0
C524 C 0.06562 0.07102 0.62428 0.0
C525 C 0.07745 0.09216 0.62376 0.0
U526 U 0.11669 0.14408 0.59562 0.0
O527 O 0.11326 0.18152 0.59429 0.0
O528 O 0.14719 0.16656 0.59935 0.0
C529 C 0.13472 0.18542 0.59815 0.0
C530 C 0.0964 0.12326 0.61261 0.0
C531 C 0.13626 0.20212 0.60756 0.0
C532 C 0.12248 0.21663 0.62578 0.0
C533 C 0.12168 0.20003 0.61711 0.0
C534 C 0.15295 0.2372 0.61562 0.0
C535 C 0.13799 0.23549 0.62509 0.0
C536 C 0.15204 0.22066 0.60691 0.0
C537 C 0.1255 0.12798 0.56425 0.0
C538 C 0.13214 0.15476 0.54895 0.0
C539 C 0.13524 0.11373 0.54542 0.0
C540 C 0.13005 0.10962 0.55677 0.0
C541 C 0.13589 0.13632 0.54132 0.0
C542 C 0.12706 0.15063 0.56035 0.0
C543 C 0.11762 0.12301 0.57582 0.0
O544 O 0.11923 0.12215 0.61063 0.0
O545 O 0.08556 0.13851 0.60636 0.0
O546 O 0.09952 0.13513 0.57948 0.0
O547 O 0.13433 0.12067 0.58345 0.0
H548 H 0.08453 0.09496 0.59513 0.0
H549 H 0.06352 0.05833 0.59595 0.0
H550 H 0.0607 0.0645 0.6325 0.0
H551 H 0.0812 0.10165 0.63153 0.0
H552 H 0.11097 0.21469 0.63304 0.0
H553 H 0.10951 0.1857 0.61778 0.0
H554 H 0.16495 0.25163 0.61482 0.0
H555 H 0.16342 0.22249 0.5996 0.0
H556 H 0.13275 0.17235 0.54607 0.0
H557 H 0.1377 0.09912 0.53974 0.0
H558 H 0.12887 0.09204 0.55964 0.0
H559 H 0.12372 0.16504 0.56604 0.0
C560 C 0.87736 0.63995 0.81308 0.0
C561 C 0.89342 0.6247 0.80795 0.0
C562 C 0.88434 0.64017 0.78945 0.0
C563 C 0.89675 0.6247 0.79626 0.0
C564 C 0.86879 0.65598 0.79461 0.0
C565 C 0.86521 0.65577 0.80638 0.0
U566 U 0.90003 0.62098 0.84112 0.0
O567 O 0.89831 0.6355 0.85843 0.0
O568 O 0.88364 0.60117 0.85473 0.0
C569 C 0.88623 0.61787 0.86225 0.0
C570 C 0.87344 0.63892 0.82539 0.0
C571 C 0.86498 0.62319 0.86891 0.0
C572 C 0.8275 0.64289 0.87148 0.0
C573 C 0.84823 0.63922 0.86523 0.0
C574 C 0.84019 0.61457 0.88505 0.0
C575 C 0.82317 0.63037 0.88137 0.0
C576 C 0.86091 0.61105 0.87887 0.0
C577 C 0.96046 0.59101 0.84003 0.0
C578 C 0.97507 0.56197 0.85286 0.0
C579 C 1.00136 0.57879 0.83904 0.0
C580 C 0.98301 0.59269 0.83523 0.0
C581 C 0.99745 0.56282 0.84769 0.0
C582 C 0.9567 0.57598 0.84906 0.0
C583 C 0.94088 0.60375 0.83489 0.0
O584 O 0.87033 0.61801 0.82921 0.0
O585 O 0.88813 0.65126 0.83163 0.0
O586 O 0.9383 0.62525 0.83825 0.0
O587 O 0.92079 0.59249 0.83398 0.0
H588 H 0.90323 0.61256 0.81299 0.0
H589 H 0.90916 0.61262 0.79253 0.0
H590 H 0.85907 0.6681 0.78953 0.0
H591 H 0.85287 0.66777 0.81022 0.0
H592 H 0.81461 0.65507 0.86842 0.0
H593 H 0.85102 0.64859 0.85748 0.0
H594 H 0.83749 0.60492 0.89273 0.0
H595 H 0.87364 0.59859 0.88181 0.0
H596 H 0.97144 0.54978 0.85949 0.0
H597 H 1.01851 0.5802 0.83503 0.0
H598 H 0.98625 0.6043 0.8283 0.0
H599 H 0.9394 0.57451 0.85291 0.0
C600 C 0.47859 0.43367 0.11261 0.0
C601 C 0.48467 0.44524 0.10268 0.0
C602 C 0.50369 0.47559 0.11385 0.0
C603 C 0.49718 0.46593 0.10329 0.0
C604 C 0.49755 0.46387 0.12379 0.0
C605 C 0.48507 0.44306 0.12316 0.0
U606 U 0.44228 0.39231 0.09502 0.0
O607 O 0.44287 0.35467 0.09338 0.0
O608 O 0.4105 0.37207 0.09905 0.0
C609 C 0.42154 0.35238 0.09764 0.0
C610 C 0.46517 0.41204 0.11188 0.0
C611 C 0.41985 0.33649 0.10716 0.0
C612 C 0.43338 0.32386 0.12557 0.0
C613 C 0.43424 0.33959 0.11674 0.0
C614 C 0.40324 0.30211 0.11545 0.0
C615 C 0.418 0.30484 0.12498 0.0
C616 C 0.40422 0.3178 0.10659 0.0
C617 C 0.43254 0.40983 0.06395 0.0
C618 C 0.40479 0.39297 0.05043 0.0
C619 C 0.43522 0.41915 0.04404 0.0
C620 C 0.44354 0.42153 0.05512 0.0
C621 C 0.41557 0.40507 0.04156 0.0
C622 C 0.41322 0.39534 0.06157 0.0
C623 C 0.4416 0.41335 0.07551 0.0
O624 O 0.44232 0.41448 0.11031 0.0
O625 O 0.47453 0.39613 0.10527 0.0
O626 O 0.45871 0.39952 0.07856 0.0
O627 O 0.42577 0.41691 0.0835 0.0
H628 H 0.47976 0.43824 0.09445 0.0
H629 H 0.50195 0.47424 0.09546 0.0
H630 H 0.50205 0.47094 0.13206 0.0
H631 H 0.48038 0.43438 0.13091 0.0
H632 H 0.44472 0.3266 0.13287 0.0
H633 H 0.44632 0.35405 0.11734 0.0
H634 H 0.39136 0.28753 0.11472 0.0
H635 H 0.393 0.31519 0.09924 0.0
H636 H 0.3896 0.38205 0.04881 0.0
H637 H 0.4443 0.42829 0.0374 0.0
H638 H 0.45859 0.43263 0.0568 0.0
H639 H 0.40458 0.38607 0.06831 0.0
C640 C 0.12348 0.15569 0.52343 0.0
C641 C 0.13851 0.14026 0.52897 0.0
H642 H 0.1109 0.16822 0.50755 0.0
C643 C 0.15439 0.12704 0.52247 0.0
H644 H 0.11094 0.16603 0.52818 0.0
C645 C 0.15425 0.12817 0.51065 0.0
C646 C 0.13817 0.14253 0.50507 0.0
H647 H 0.1664 0.11521 0.52651 0.0
H648 H 0.16584 0.11684 0.50588 0.0
C649 C 0.12329 0.15678 0.5116 0.0
C650 C 0.89294 0.6165 0.75977 0.0
C651 C 0.89997 0.63614 0.75383 0.0
H652 H 0.8823 0.60251 0.77564 0.0
C653 C 0.89955 0.65764 0.75946 0.0
H654 H 0.89245 0.59977 0.75562 0.0
C655 C 0.89342 0.65922 0.77096 0.0
C656 C 0.88776 0.63932 0.777 0.0
H657 H 0.90498 0.67309 0.75515 0.0
H658 H 0.89417 0.67581 0.77524 0.0
C659 C 0.88702 0.61806 0.77122 0.0
C660 C 0.39311 0.38052 1.01346 0.0
C661 C 0.39376 0.40009 1.00662 0.0
H662 H 0.39986 0.36662 0.02989 0.0
C663 C 0.39978 0.42142 1.01156 0.0
H664 H 0.38855 0.36387 1.00984 0.0
C665 C 0.406 0.42305 0.02297 0.0
C666 C 0.40657 0.40335 0.02973 0.0
H667 H 0.39995 0.43686 1.00654 0.0
H668 H 0.41067 0.43977 0.02647 0.0
C669 C 0.39954 0.38212 0.02492 0.0
C670 C 0.65524 0.91732 0.2617 0.0
C671 C 0.63961 0.90394 0.25509 0.0
H672 H 0.66633 0.92746 0.27837 0.0
C673 C 0.62462 0.88825 0.26052 0.0
H674 H 0.6672 0.92937 0.25775 0.0
C675 C 0.62425 0.887 0.27234 0.0
C676 C 0.63891 0.90137 0.27898 0.0
H677 H 0.61226 0.87778 0.25568 0.0
H678 H 0.61191 0.87534 0.2763 0.0
C679 C 0.65492 0.91604 0.27351 0.0
C680 C 0.15516 0.41609 0.77347 0.0
C681 C 0.13912 0.40142 0.77891 0.0
H682 H 0.16752 0.42944 0.75772 0.0
C683 C 0.12449 0.38706 0.77225 0.0
H684 H 0.16656 0.4275 0.77834 0.0
C685 C 0.12491 0.38833 0.76043 0.0
C686 C 0.13993 0.40403 0.75502 0.0
H687 H 0.11213 0.3754 0.77619 0.0
H688 H 0.11257 0.37787 0.75557 0.0
C689 C 0.15554 0.41739 0.76166 0.0
C690 C 0.62378 0.65653 1.01161 0.0
C691 C 0.63855 0.64214 1.0051 0.0
H692 H 0.61151 0.66594 0.02819 0.0
C693 C 0.65451 0.62769 1.01069 0.0
H694 H 0.61148 0.66804 1.00755 0.0
C695 C 0.65466 0.6266 0.02251 0.0
C696 C 0.63888 0.63998 0.029 0.0
H697 H 0.66602 0.61626 1.00593 0.0
H698 H 0.66657 0.6147 0.02656 0.0
C699 C 0.62397 0.65549 0.02344 0.0
C700 C 0.39911 0.15735 0.25939 0.0
C701 C 0.40102 0.13569 0.25399 0.0
H702 H 0.39255 0.17581 0.27498 0.0
C703 C 0.3955 0.11591 0.26017 0.0
H704 H 0.40334 0.17292 0.25489 0.0
C705 C 0.3896 0.11758 0.27161 0.0
C706 C 0.38883 0.13908 0.27715 0.0
H707 H 0.39617 0.09901 0.2562 0.0
H708 H 0.38604 0.10196 0.27621 0.0
C709 C 0.39298 0.15903 0.27088 0.0
C710 C 0.8934 0.88093 0.5134 0.0
C711 C 0.89162 0.90088 0.50689 0.0
H712 H 0.90211 0.8668 0.52957 0.0
C713 C 0.89505 0.92241 0.51217 0.0
H714 H 0.89087 0.86412 0.50951 0.0
C715 C 0.90122 0.92399 0.52359 0.0
C716 C 0.90434 0.90405 0.53001 0.0
H717 H 0.89333 0.93809 0.50739 0.0
H718 H 0.90395 0.94089 0.52735 0.0
C719 C 0.89979 0.88249 0.52487 0.0
C720 C 0.03031 1.00597 0.44193 0.0
C721 C 1.01681 0.9955 0.43328 0.0
H722 H 0.05747 0.03005 0.44628 0.0
C723 C 1.02081 1.00191 0.42199 0.0
H724 H 0.02747 1.0017 0.45073 0.0
C725 C 0.03795 1.01848 0.41944 0.0
C726 C 0.05122 0.02909 0.42814 0.0
H727 H 1.01077 0.99406 0.41513 0.0
H728 H 0.04054 0.02325 0.41069 0.0
C729 C 0.0473 0.02249 0.4394 0.0
C730 C 0.04001 0.51587 0.68019 0.0
C731 C 0.04671 0.50554 0.66984 0.0
H732 H 1.02191 0.54349 0.68854 0.0
C733 C 0.03945 0.51575 0.65968 0.0
H734 H 0.04497 0.50833 0.68818 0.0
C735 C 0.02578 0.53578 0.65989 0.0
C736 C 1.01906 0.54605 0.67026 0.0
H737 H 0.04446 0.50837 0.65156 0.0
H738 H 1.02023 0.54303 0.65192 0.0
C739 C 0.02645 0.53589 0.6804 0.0
C740 C 0.54742 0.52241 0.93928 0.0
C741 C 0.55126 0.52915 0.92804 0.0
H742 H 0.52768 0.50147 0.95058 0.0
C743 C 0.53788 0.5187 0.91933 0.0
H744 H 0.55768 0.52986 0.94617 0.0
C745 C 0.52074 0.50212 0.92186 0.0
C746 C 0.51684 0.49554 0.93314 0.0
H747 H 0.5404 0.52359 0.91059 0.0
H748 H 0.51063 0.49437 0.915 0.0
C749 C 0.53044 0.50587 0.94179 0.0
C750 C 0.53925 1.01525 0.1596 0.0
C751 C 0.54651 1.00507 0.16976 0.0
H752 H 0.52 0.04249 0.15182 0.0
C753 C 0.53977 1.0154 0.18011 0.0
H754 H 0.5443 1.00787 0.15148 0.0
C755 C 0.52617 0.0354 0.1803 0.0
C756 C 0.51879 0.04554 0.17015 0.0
H757 H 0.54473 1.00789 0.1881 0.0
H758 H 0.52161 0.043 0.18844 0.0
C759 C 0.52555 0.03526 0.15979 0.0
C760 C 0.02955 0.5355 0.84203 0.0
C761 C 1.01613 0.54602 0.85067 0.0
H762 H 0.05668 0.51148 0.83773 0.0
C763 C 1.02024 0.5398 0.86198 0.0
H764 H 0.02663 0.53961 0.83322 0.0
C765 C 0.03739 0.52335 0.86456 0.0
C766 C 0.05058 0.51267 0.85588 0.0
H767 H 1.01027 0.5477 0.86882 0.0
H768 H 0.04005 0.51871 0.87333 0.0
C769 C 0.04656 0.51909 0.84461 0.0
C770 C 0.51125 0.5155 0.10686 0.0
C771 C 0.51681 0.49779 0.11439 0.0
H772 H 0.5195 0.5492 0.10099 0.0
C773 C 0.53531 0.50131 0.12221 0.0
H774 H 0.49678 0.51362 0.1009 0.0
C775 C 0.54824 0.52186 0.12231 0.0
C776 C 0.54303 0.53925 0.11456 0.0
H777 H 0.54022 0.48796 0.12806 0.0
H778 H 0.56274 0.52388 0.12824 0.0
C779 C 0.52423 0.53593 0.10692 0.0
C780 C 0.52975 0.03559 0.34223 0.0
C781 C 0.51626 0.04599 0.35087 0.0
H782 H 0.55694 1.01166 0.33789 0.0
C783 C 0.52031 0.03964 0.36217 0.0
H784 H 0.52688 0.0398 0.33342 0.0
C785 C 0.53747 0.02319 0.36473 0.0
C786 C 0.55074 1.01264 0.35604 0.0
H787 H 0.51028 0.04745 0.36902 0.0
H788 H 0.5401 1.01846 0.37349 0.0
C789 C 0.54677 1.01918 0.34478 0.0
C790 C 0.05377 1.01786 0.60735 0.0
C791 C 0.04758 0.03607 0.61473 0.0
H792 H 0.046 0.98375 0.60139 0.0
C793 C 0.02852 0.03302 0.62221 0.0
H794 H 0.06866 1.0194 0.60164 0.0
C795 C 1.01563 1.01245 0.62212 0.0
C796 C 1.02145 0.99455 0.6145 0.0
H797 H 1.02309 0.04677 0.62792 0.0
H798 H 1.00066 1.01083 0.62777 0.0
C799 C 0.04082 0.99739 0.60721 0.0
C800 C 0.292 0.15516 0.39057 0.0
C801 C 0.30032 0.13309 0.3877 0.0
H802 H 0.26608 0.17503 0.39962 0.0
C803 C 0.28767 0.11379 0.3914 0.0
H804 H 0.30145 0.17034 0.38785 0.0
C805 C 0.26753 0.11645 0.3981 0.0
C806 C 0.2596 0.13848 0.4013 0.0
H807 H 0.29351 0.09657 0.38921 0.0
H808 H 0.25862 0.10119 0.40109 0.0
C809 C 0.27189 0.15784 0.39736 0.0
C810 C 0.9387 0.7636 0.64707 0.0
C811 C 0.91738 0.75479 0.65132 0.0
H812 H 0.95532 0.78629 0.63538 0.0
C813 C 0.89592 0.76274 0.64685 0.0
H814 H 0.95552 0.75798 0.65042 0.0
C815 C 0.8958 0.77905 0.63825 0.0
C816 C 0.91714 0.78789 0.63403 0.0
H817 H 0.87921 0.75615 0.6499 0.0
H818 H 0.879 0.78493 0.635 0.0
C819 C 0.93858 0.78 0.63854 0.0
C820 C 0.29131 0.3878 0.89378 0.0
C821 C 0.29921 0.40991 0.89694 0.0
H822 H 0.26583 0.36782 0.88443 0.0
C823 C 0.28619 0.42911 0.89348 0.0
H824 H 0.30105 0.3727 0.8963 0.0
C825 C 0.26613 0.42634 0.88671 0.0
C826 C 0.25865 0.4043 0.88321 0.0
H827 H 0.29169 0.44634 0.8959 0.0
H828 H 0.25695 0.44155 0.8839 0.0
C829 C 0.27128 0.38503 0.88693 0.0
C830 C 0.61744 0.77927 0.14676 0.0
C831 C 0.63873 0.78837 0.15104 0.0
H832 H 0.60093 0.75541 0.13526 0.0
C833 C 0.66023 0.77978 0.14681 0.0
H834 H 0.60059 0.78538 0.14994 0.0
C835 C 0.66042 0.76254 0.13842 0.0
C836 C 0.63911 0.75341 0.13417 0.0
H837 H 0.67691 0.78657 0.1499 0.0
H838 H 0.67725 0.75621 0.13534 0.0
C839 C 0.61763 0.76194 0.13845 0.0
C840 C 0.78857 0.61393 0.89168 0.0
C841 C 0.80087 0.63331 0.88783 0.0
H842 H 0.75974 0.60115 0.90146 0.0
C843 C 0.79219 0.65532 0.89055 0.0
H844 H 0.79469 0.59674 0.88961 0.0
C845 C 0.77205 0.65787 0.89733 0.0
C846 C 0.76009 0.63844 0.9014 0.0
H847 H 0.80137 0.67056 0.88772 0.0
H848 H 0.76595 0.67502 0.89947 0.0
C849 C 0.76839 0.61646 0.89836 0.0
C850 C 0.43925 0.27972 0.13871 0.0
C851 C 0.41786 0.28762 0.13414 0.0
H852 H 0.45604 0.25769 0.15063 0.0
C853 C 0.39647 0.27881 0.13833 0.0
H854 H 0.45602 0.286 0.13559 0.0
C855 C 0.39648 0.26251 0.14693 0.0
C856 C 0.4179 0.25453 0.15144 0.0
H857 H 0.37971 0.28469 0.13502 0.0
H858 H 0.37974 0.25593 0.14994 0.0
C859 C 0.43926 0.26332 0.14724 0.0
C860 C 0.78742 0.92868 0.39301 0.0
C861 C 0.79995 0.90935 0.39669 0.0
H862 H 0.75848 0.94136 0.38331 0.0
C863 C 0.7915 0.8873 0.39378 0.0
H864 H 0.79336 0.94588 0.39523 0.0
C865 C 0.77139 0.88469 0.38697 0.0
C866 C 0.75923 0.90408 0.38304 0.0
H867 H 0.80085 0.8721 0.39648 0.0
H868 H 0.76549 0.86751 0.38467 0.0
C869 C 0.76729 0.92608 0.38628 0.0
C870 C 0.15943 0.27987 0.64669 0.0
C871 C 0.138 0.28856 0.65096 0.0
H872 H 0.17624 0.25624 0.63517 0.0
C873 C 0.11663 0.27956 0.64671 0.0
H874 H 0.17616 0.28657 0.64975 0.0
C875 C 0.11667 0.26225 0.63839 0.0
C876 C 0.13808 0.25363 0.63407 0.0
H877 H 0.09984 0.28575 0.64992 0.0
H878 H 0.09991 0.25581 0.63522 0.0
C879 C 0.15947 0.26265 0.63829 0.0
loop_
_geom_bond_atom_site_label_1
_geom_bond_atom_site_label_2
_geom_bond_distance
_geom_bond_site_symmetry_2
_ccdc_geom_bond_type
C0 C1 1.264 . S
C0 C5 1.479 . S
C0 C10 1.465 . S
C1 C0 1.264 . S
C1 C3 1.339 . S
C1 H28 0.931 . S
C2 C3 1.395 . S
C2 C4 1.320 . S
C3 C1 1.339 . S
C3 C2 1.395 . S
C3 H29 0.929 . S
C4 C2 1.320 . S
C4 C5 1.405 . S
C4 H30 0.930 . S
C5 C0 1.479 . S
C5 C4 1.405 . S
C5 H31 0.931 . S
U6 O7 2.454 . S
U6 O8 2.458 . S
U6 C9 2.984 . S
U6 C10 2.847 . S
U6 C23 2.882 . S
U6 O24 2.441 . S
U6 O25 2.420 . S
U6 O26 2.455 . S
U6 O27 2.449 . S
O7 U6 2.454 . S
O7 C9 1.353 . S
O8 U6 2.458 . S
O8 C9 1.286 . S
C9 U6 2.984 . S
C9 O7 1.353 . S
C9 O8 1.286 . S
C9 C11 1.363 . S
C10 C0 1.465 . S
C10 U6 2.847 . S
C10 O24 1.249 . S
C10 O25 1.202 . S
C11 C9 1.363 . S
C11 C13 1.408 . S
C11 C16 1.342 . S
C12 C13 1.310 . S
C12 C15 1.461 . S
C12 H32 0.932 . S
C13 C11 1.408 . S
C13 C12 1.310 . S
C13 H33 0.930 . S
C14 C15 1.474 . S
C14 C16 1.285 . S
C14 H34 0.929 . S
C15 C12 1.461 . S
C15 C14 1.474 . S
C16 C11 1.342 . S
C16 C14 1.285 . S
C16 H35 0.930 . S
C17 C20 1.424 . S
C17 C22 1.245 . S
C17 C23 1.428 . S
C18 C21 1.260 . S
C18 C22 1.477 . S
C18 H36 0.932 . S
C19 C20 1.384 . S
C19 C21 1.479 . S
C19 H37 0.929 . S
C20 C17 1.424 . S
C20 C19 1.384 . S
C20 H38 0.928 . S
C21 C18 1.260 . S
C21 C19 1.479 . S
C22 C17 1.245 . S
C22 C18 1.477 . S
C22 H39 0.932 . S
C23 U6 2.882 . S
C23 C17 1.428 . S
C23 O26 1.301 . S
C23 O27 1.282 . S
O24 U6 2.441 . S
O24 C10 1.249 . S
O25 U6 2.420 . S
O25 C10 1.202 . S
O26 U6 2.455 . S
O26 C23 1.301 . S
O27 U6 2.449 . S
O27 C23 1.282 . S
H28 C1 0.931 . S
H29 C3 0.929 . S
H30 C4 0.930 . S
H31 C5 0.931 . S
H32 C12 0.932 . S
H33 C13 0.930 . S
H34 C14 0.929 . S
H35 C16 0.930 . S
H36 C18 0.932 . S
H37 C19 0.929 . S
H38 C20 0.928 . S
H39 C22 0.932 . S
C40 C41 1.264 . S
C40 C45 1.479 . S
C40 C50 1.465 . S
C41 C40 1.264 . S
C41 C43 1.339 . S
C41 H68 0.931 . S
C42 C43 1.395 . S
C42 C44 1.320 . S
C43 C41 1.339 . S
C43 C42 1.395 . S
C43 H69 0.929 . S
C44 C42 1.320 . S
C44 C45 1.405 . S
C44 H70 0.930 . S
C45 C40 1.479 . S
C45 C44 1.405 . S
C45 H71 0.931 . S
U46 O47 2.454 . S
U46 O48 2.458 . S
U46 C49 2.984 . S
U46 C50 2.847 . S
U46 C63 2.882 . S
U46 O64 2.441 . S
U46 O65 2.420 . S
U46 O66 2.455 . S
U46 O67 2.449 . S
O47 U46 2.454 . S
O47 C49 1.353 . S
O48 U46 2.458 . S
O48 C49 1.286 . S
C49 U46 2.984 . S
C49 O47 1.353 . S
C49 O48 1.286 . S
C49 C51 1.363 . S
C50 C40 1.465 . S
C50 U46 2.847 . S
C50 O64 1.249 . S
C50 O65 1.202 . S
C51 C49 1.363 . S
C51 C53 1.408 . S
C51 C56 1.342 . S
C52 C53 1.310 . S
C52 C55 1.461 . S
C52 H72 0.932 . S
C53 C51 1.408 . S
C53 C52 1.310 . S
C53 H73 0.930 . S
C54 C55 1.474 . S
C54 C56 1.285 . S
C54 H74 0.929 . S
C55 C52 1.461 . S
C55 C54 1.474 . S
C56 C51 1.342 . S
C56 C54 1.285 . S
C56 H75 0.930 . S
C57 C60 1.424 . S
C57 C62 1.245 . S
C57 C63 1.428 . S
C58 C61 1.260 . S
C58 C62 1.477 . S
C58 H76 0.932 . S
C59 C60 1.384 . S
C59 C61 1.479 . S
C59 H77 0.929 . S
C60 C57 1.424 . S
C60 C59 1.384 . S
C60 H78 0.928 . S
C61 C58 1.260 . S
C61 C59 1.479 . S
C62 C57 1.245 . S
C62 C58 1.477 . S
C62 H79 0.932 . S
C63 U46 2.882 . S
C63 C57 1.428 . S
C63 O66 1.301 . S
C63 O67 1.282 . S
O64 U46 2.441 . S
O64 C50 1.249 . S
O65 U46 2.420 . S
O65 C50 1.202 . S
O66 U46 2.455 . S
O66 C63 1.301 . S
O67 U46 2.449 . S
O67 C63 1.282 . S
H68 C41 0.931 . S
H69 C43 0.929 . S
H70 C44 0.930 . S
H71 C45 0.931 . S
H72 C52 0.932 . S
H73 C53 0.930 . S
H74 C54 0.929 . S
H75 C56 0.930 . S
H76 C58 0.932 . S
H77 C59 0.929 . S
H78 C60 0.928 . S
H79 C62 0.932 . S
C80 C81 1.264 . S
C80 C85 1.479 . S
C80 C90 1.465 . S
C81 C80 1.264 . S
C81 C83 1.339 . S
C81 H108 0.931 . S
C82 C83 1.395 . S
C82 C84 1.320 . S
C83 C81 1.339 . S
C83 C82 1.395 . S
C83 H109 0.929 . S
C84 C82 1.320 . S
C84 C85 1.405 . S
C84 H110 0.930 . S
C85 C80 1.479 . S
C85 C84 1.405 . S
C85 H111 0.931 . S
U86 O87 2.454 . S
U86 O88 2.458 . S
U86 C89 2.984 . S
U86 C90 2.847 . S
U86 C103 2.882 . S
U86 O104 2.441 . S
U86 O105 2.420 . S
U86 O106 2.455 . S
U86 O107 2.449 . S
O87 U86 2.454 . S
O87 C89 1.353 . S
O88 U86 2.458 . S
O88 C89 1.286 . S
C89 U86 2.984 . S
C89 O87 1.353 . S
C89 O88 1.286 . S
C89 C91 1.363 . S
C90 C80 1.465 . S
C90 U86 2.847 . S
C90 O104 1.249 . S
C90 O105 1.202 . S
C91 C89 1.363 . S
C91 C93 1.408 . S
C91 C96 1.342 . S
C92 C93 1.310 . S
C92 C95 1.461 . S
C92 H112 0.932 . S
C93 C91 1.408 . S
C93 C92 1.310 . S
C93 H113 0.930 . S
C94 C95 1.474 . S
C94 C96 1.285 . S
C94 H114 0.929 . S
C95 C92 1.461 . S
C95 C94 1.474 . S
C96 C91 1.342 . S
C96 C94 1.285 . S
C96 H115 0.930 . S
C97 C100 1.424 . S
C97 C102 1.245 . S
C97 C103 1.428 . S
C98 C101 1.260 . S
C98 C102 1.477 . S
C98 H116 0.932 . S
C99 C100 1.384 . S
C99 C101 1.479 . S
C99 H117 0.929 . S
C100 C97 1.424 . S
C100 C99 1.384 . S
C100 H118 0.928 . S
C101 C98 1.260 . S
C101 C99 1.479 . S
C102 C97 1.245 . S
C102 C98 1.477 . S
C102 H119 0.932 . S
C103 U86 2.882 . S
C103 C97 1.428 . S
C103 O106 1.301 . S
C103 O107 1.282 . S
O104 U86 2.441 . S
O104 C90 1.249 . S
O105 U86 2.420 . S
O105 C90 1.202 . S
O106 U86 2.455 . S
O106 C103 1.301 . S
O107 U86 2.449 . S
O107 C103 1.282 . S
H108 C81 0.931 . S
H109 C83 0.929 . S
H110 C84 0.930 . S
H111 C85 0.931 . S
H112 C92 0.932 . S
H113 C93 0.930 . S
H114 C94 0.929 . S
H115 C96 0.930 . S
H116 C98 0.932 . S
H117 C99 0.929 . S
H118 C100 0.928 . S
H119 C102 0.932 . S
C120 C121 1.264 . S
C120 C125 1.479 . S
C120 C130 1.465 . S
C121 C120 1.264 . S
C121 C123 1.339 . S
C121 H148 0.931 . S
C122 C123 1.395 . S
C122 C124 1.320 . S
C123 C121 1.339 . S
C123 C122 1.395 . S
C123 H149 0.929 . S
C124 C122 1.320 . S
C124 C125 1.405 . S
C124 H150 0.930 . S
C125 C120 1.479 . S
C125 C124 1.405 . S
C125 H151 0.931 . S
U126 O127 2.454 . S
U126 O128 2.458 . S
U126 C129 2.984 . S
U126 C130 2.847 . S
U126 C143 2.882 . S
U126 O144 2.441 . S
U126 O145 2.420 . S
U126 O146 2.455 . S
U126 O147 2.449 . S
O127 U126 2.454 . S
O127 C129 1.353 . S
O128 U126 2.458 . S
O128 C129 1.286 . S
C129 U126 2.984 . S
C129 O127 1.353 . S
C129 O128 1.286 . S
C129 C131 1.363 . S
C130 C120 1.465 . S
C130 U126 2.847 . S
C130 O144 1.249 . S
C130 O145 1.202 . S
C131 C129 1.363 . S
C131 C133 1.408 . S
C131 C136 1.342 . S
C132 C133 1.310 . S
C132 C135 1.461 . S
C132 H152 0.932 . S
C133 C131 1.408 . S
C133 C132 1.310 . S
C133 H153 0.930 . S
C134 C135 1.474 . S
C134 C136 1.285 . S
C134 H154 0.929 . S
C135 C132 1.461 . S
C135 C134 1.474 . S
C136 C131 1.342 . S
C136 C134 1.285 . S
C136 H155 0.930 . S
C137 C140 1.424 . S
C137 C142 1.245 . S
C137 C143 1.428 . S
C138 C141 1.260 . S
C138 C142 1.477 . S
C138 H156 0.932 . S
C139 C140 1.384 . S
C139 C141 1.479 . S
C139 H157 0.929 . S
C140 C137 1.424 . S
C140 C139 1.384 . S
C140 H158 0.928 . S
C141 C138 1.260 . S
C141 C139 1.479 . S
C142 C137 1.245 . S
C142 C138 1.477 . S
C142 H159 0.932 . S
C143 U126 2.882 . S
C143 C137 1.428 . S
C143 O146 1.301 . S
C143 O147 1.282 . S
O144 U126 2.441 . S
O144 C130 1.249 . S
O145 U126 2.420 . S
O145 C130 1.202 . S
O146 U126 2.455 . S
O146 C143 1.301 . S
O147 U126 2.449 . S
O147 C143 1.282 . S
H148 C121 0.931 . S
H149 C123 0.929 . S
H150 C124 0.930 . S
H151 C125 0.931 . S
H152 C132 0.932 . S
H153 C133 0.930 . S
H154 C134 0.929 . S
H155 C136 0.930 . S
H156 C138 0.932 . S
H157 C139 0.929 . S
H158 C140 0.928 . S
H159 C142 0.932 . S
C160 C161 1.264 . S
C160 C165 1.479 . S
C160 C170 1.465 . S
C161 C160 1.264 . S
C161 C163 1.339 . S
C161 H188 0.931 . S
C162 C163 1.395 . S
C162 C164 1.320 . S
C163 C161 1.339 . S
C163 C162 1.395 . S
C163 H189 0.929 . S
C164 C162 1.320 . S
C164 C165 1.405 . S
C164 H190 0.930 . S
C165 C160 1.479 . S
C165 C164 1.405 . S
C165 H191 0.931 . S
U166 O167 2.454 . S
U166 O168 2.458 . S
U166 C169 2.984 . S
U166 C170 2.847 . S
U166 C183 2.882 . S
U166 O184 2.441 . S
U166 O185 2.420 . S
U166 O186 2.455 . S
U166 O187 2.449 . S
O167 U166 2.454 . S
O167 C169 1.353 . S
O168 U166 2.458 . S
O168 C169 1.286 . S
C169 U166 2.984 . S
C169 O167 1.353 . S
C169 O168 1.286 . S
C169 C171 1.363 . S
C170 C160 1.465 . S
C170 U166 2.847 . S
C170 O184 1.249 . S
C170 O185 1.202 . S
C171 C169 1.363 . S
C171 C173 1.408 . S
C171 C176 1.342 . S
C172 C173 1.310 . S
C172 C175 1.461 . S
C172 H192 0.932 . S
C173 C171 1.408 . S
C173 C172 1.310 . S
C173 H193 0.930 . S
C174 C175 1.474 . S
C174 C176 1.285 . S
C174 H194 0.929 . S
C175 C172 1.461 . S
C175 C174 1.474 . S
C176 C171 1.342 . S
C176 C174 1.285 . S
C176 H195 0.930 . S
C177 C180 1.424 . S
C177 C182 1.245 . S
C177 C183 1.428 . S
C178 C181 1.260 . S
C178 C182 1.477 . S
C178 H196 0.932 . S
C179 C180 1.384 . S
C179 C181 1.479 . S
C179 H197 0.929 . S
C180 C177 1.424 . S
C180 C179 1.384 . S
C180 H198 0.928 . S
C181 C178 1.260 . S
C181 C179 1.479 . S
C182 C177 1.245 . S
C182 C178 1.477 . S
C182 H199 0.932 . S
C183 U166 2.882 . S
C183 C177 1.428 . S
C183 O186 1.301 . S
C183 O187 1.282 . S
O184 U166 2.441 . S
O184 C170 1.249 . S
O185 U166 2.420 . S
O185 C170 1.202 . S
O186 U166 2.455 . S
O186 C183 1.301 . S
O187 U166 2.449 . S
O187 C183 1.282 . S
H188 C161 0.931 . S
H189 C163 0.929 . S
H190 C164 0.930 . S
H191 C165 0.931 . S
H192 C172 0.932 . S
H193 C173 0.930 . S
H194 C174 0.929 . S
H195 C176 0.930 . S
H196 C178 0.932 . S
H197 C179 0.929 . S
H198 C180 0.928 . S
H199 C182 0.932 . S
C200 C201 1.264 . S
C200 C205 1.479 . S
C200 C210 1.465 . S
C201 C200 1.264 . S
C201 C203 1.339 . S
C201 H228 0.931 . S
C202 C203 1.395 . S
C202 C204 1.320 . S
C203 C201 1.339 . S
C203 C202 1.395 . S
C203 H229 0.929 . S
C204 C202 1.320 . S
C204 C205 1.405 . S
C204 H230 0.930 . S
C205 C200 1.479 . S
C205 C204 1.405 . S
C205 H231 0.931 . S
U206 O207 2.454 . S
U206 O208 2.458 . S
U206 C209 2.984 . S
U206 C210 2.847 . S
U206 C223 2.882 . S
U206 O224 2.441 . S
U206 O225 2.420 . S
U206 O226 2.455 . S
U206 O227 2.449 . S
O207 U206 2.454 . S
O207 C209 1.353 . S
O208 U206 2.458 . S
O208 C209 1.286 . S
C209 U206 2.984 . S
C209 O207 1.353 . S
C209 O208 1.286 . S
C209 C211 1.363 . S
C210 C200 1.465 . S
C210 U206 2.847 . S
C210 O224 1.249 . S
C210 O225 1.202 . S
C211 C209 1.363 . S
C211 C213 1.408 . S
C211 C216 1.342 . S
C212 C213 1.310 . S
C212 C215 1.461 . S
C212 H232 0.932 . S
C213 C211 1.408 . S
C213 C212 1.310 . S
C213 H233 0.930 . S
C214 C215 1.474 . S
C214 C216 1.285 . S
C214 H234 0.929 . S
C215 C212 1.461 . S
C215 C214 1.474 . S
C216 C211 1.342 . S
C216 C214 1.285 . S
C216 H235 0.930 . S
C217 C220 1.424 . S
C217 C222 1.245 . S
C217 C223 1.428 . S
C218 C221 1.260 . S
C218 C222 1.477 . S
C218 H236 0.932 . S
C219 C220 1.384 . S
C219 C221 1.479 . S
C219 H237 0.929 . S
C220 C217 1.424 . S
C220 C219 1.384 . S
C220 H238 0.928 . S
C221 C218 1.260 . S
C221 C219 1.479 . S
C222 C217 1.245 . S
C222 C218 1.477 . S
C222 H239 0.932 . S
C223 U206 2.882 . S
C223 C217 1.428 . S
C223 O226 1.301 . S
C223 O227 1.282 . S
O224 U206 2.441 . S
O224 C210 1.249 . S
O225 U206 2.420 . S
O225 C210 1.202 . S
O226 U206 2.455 . S
O226 C223 1.301 . S
O227 U206 2.449 . S
O227 C223 1.282 . S
H228 C201 0.931 . S
H229 C203 0.929 . S
H230 C204 0.930 . S
H231 C205 0.931 . S
H232 C212 0.932 . S
H233 C213 0.930 . S
H234 C214 0.929 . S
H235 C216 0.930 . S
H236 C218 0.932 . S
H237 C219 0.929 . S
H238 C220 0.928 . S
H239 C222 0.932 . S
C240 C241 1.264 . S
C240 C245 1.479 . S
C240 C250 1.465 . S
C241 C240 1.264 . S
C241 C243 1.339 . S
C241 H268 0.931 . S
C242 C243 1.395 . S
C242 C244 1.320 . S
C243 C241 1.339 . S
C243 C242 1.395 . S
C243 H269 0.929 . S
C244 C242 1.320 . S
C244 C245 1.405 . S
C244 H270 0.930 . S
C245 C240 1.479 . S
C245 C244 1.405 . S
C245 H271 0.931 . S
U246 O247 2.454 . S
U246 O248 2.458 . S
U246 C249 2.984 . S
U246 C250 2.847 . S
U246 C263 2.882 . S
U246 O264 2.441 . S
U246 O265 2.420 . S
U246 O266 2.455 . S
U246 O267 2.449 . S
O247 U246 2.454 . S
O247 C249 1.353 . S
O248 U246 2.458 . S
O248 C249 1.286 . S
C249 U246 2.984 . S
C249 O247 1.353 . S
C249 O248 1.286 . S
C249 C251 1.363 . S
C250 C240 1.465 . S
C250 U246 2.847 . S
C250 O264 1.249 . S
C250 O265 1.202 . S
C251 C249 1.363 . S
C251 C253 1.408 . S
C251 C256 1.342 . S
C252 C253 1.310 . S
C252 C255 1.461 . S
C252 H272 0.932 . S
C253 C251 1.408 . S
C253 C252 1.310 . S
C253 H273 0.930 . S
C254 C255 1.474 . S
C254 C256 1.285 . S
C254 H274 0.929 . S
C255 C252 1.461 . S
C255 C254 1.474 . S
C256 C251 1.342 . S
C256 C254 1.285 . S
C256 H275 0.930 . S
C257 C260 1.424 . S
C257 C262 1.245 . S
C257 C263 1.428 . S
C258 C261 1.260 . S
C258 C262 1.477 . S
C258 H276 0.932 . S
C259 C260 1.384 . S
C259 C261 1.479 . S
C259 H277 0.929 . S
C260 C257 1.424 . S
C260 C259 1.384 . S
C260 H278 0.928 . S
C261 C258 1.260 . S
C261 C259 1.479 . S
C262 C257 1.245 . S
C262 C258 1.477 . S
C262 H279 0.932 . S
C263 U246 2.882 . S
C263 C257 1.428 . S
C263 O266 1.301 . S
C263 O267 1.282 . S
O264 U246 2.441 . S
O264 C250 1.249 . S
O265 U246 2.420 . S
O265 C250 1.202 . S
O266 U246 2.455 . S
O266 C263 1.301 . S
O267 U246 2.449 . S
O267 C263 1.282 . S
H268 C241 0.931 . S
H269 C243 0.929 . S
H270 C244 0.930 . S
H271 C245 0.931 . S
H272 C252 0.932 . S
H273 C253 0.930 . S
H274 C254 0.929 . S
H275 C256 0.930 . S
H276 C258 0.932 . S
H277 C259 0.929 . S
H278 C260 0.928 . S
H279 C262 0.932 . S
C280 C281 1.264 . S
C280 C285 1.479 . S
C280 C290 1.465 . S
C281 C280 1.264 . S
C281 C283 1.339 . S
C281 H308 0.931 . S
C282 C283 1.395 . S
C282 C284 1.320 . S
C283 C281 1.339 . S
C283 C282 1.395 . S
C283 H309 0.929 . S
C284 C282 1.320 . S
C284 C285 1.405 . S
C284 H310 0.930 . S
C285 C280 1.479 . S
C285 C284 1.405 . S
C285 H311 0.931 . S
U286 O287 2.454 . S
U286 O288 2.458 . S
U286 C289 2.984 . S
U286 C290 2.847 . S
U286 C303 2.882 . S
U286 O304 2.441 . S
U286 O305 2.420 . S
U286 O306 2.455 . S
U286 O307 2.449 . S
O287 U286 2.454 . S
O287 C289 1.353 . S
O288 U286 2.458 . S
O288 C289 1.286 . S
C289 U286 2.984 . S
C289 O287 1.353 . S
C289 O288 1.286 . S
C289 C291 1.363 . S
C290 C280 1.465 . S
C290 U286 2.847 . S
C290 O304 1.249 . S
C290 O305 1.202 . S
C291 C289 1.363 . S
C291 C293 1.408 . S
C291 C296 1.342 . S
C292 C293 1.310 . S
C292 C295 1.461 . S
C292 H312 0.932 . S
C293 C291 1.408 . S
C293 C292 1.310 . S
C293 H313 0.930 . S
C294 C295 1.474 . S
C294 C296 1.285 . S
C294 H314 0.929 . S
C295 C292 1.461 . S
C295 C294 1.474 . S
C296 C291 1.342 . S
C296 C294 1.285 . S
C296 H315 0.930 . S
C297 C300 1.424 . S
C297 C302 1.245 . S
C297 C303 1.428 . S
C298 C301 1.260 . S
C298 C302 1.477 . S
C298 H316 0.932 . S
C299 C300 1.384 . S
C299 C301 1.479 . S
C299 H317 0.929 . S
C300 C297 1.424 . S
C300 C299 1.384 . S
C300 H318 0.928 . S
C301 C298 1.260 . S
C301 C299 1.479 . S
C302 C297 1.245 . S
C302 C298 1.477 . S
C302 H319 0.932 . S
C303 U286 2.882 . S
C303 C297 1.428 . S
C303 O306 1.301 . S
C303 O307 1.282 . S
O304 U286 2.441 . S
O304 C290 1.249 . S
O305 U286 2.420 . S
O305 C290 1.202 . S
O306 U286 2.455 . S
O306 C303 1.301 . S
O307 U286 2.449 . S
O307 C303 1.282 . S
H308 C281 0.931 . S
H309 C283 0.929 . S
H310 C284 0.930 . S
H311 C285 0.931 . S
H312 C292 0.932 . S
H313 C293 0.930 . S
H314 C294 0.929 . S
H315 C296 0.930 . S
H316 C298 0.932 . S
H317 C299 0.929 . S
H318 C300 0.928 . S
H319 C302 0.932 . S
C320 C321 1.264 . S
C320 C325 1.479 . S
C320 C330 1.465 . S
C321 C320 1.264 . S
C321 C323 1.339 . S
C321 H348 0.931 . S
C322 C323 1.395 . S
C322 C324 1.320 . S
C323 C321 1.339 . S
C323 C322 1.395 . S
C323 H349 0.929 . S
C324 C322 1.320 . S
C324 C325 1.405 . S
C324 H350 0.930 . S
C325 C320 1.479 . S
C325 C324 1.405 . S
C325 H351 0.931 . S
U326 O327 2.454 . S
U326 O328 2.458 . S
U326 C329 2.984 . S
U326 C330 2.847 . S
U326 C343 2.882 . S
U326 O344 2.441 . S
U326 O345 2.420 . S
U326 O346 2.455 . S
U326 O347 2.449 . S
O327 U326 2.454 . S
O327 C329 1.353 . S
O328 U326 2.458 . S
O328 C329 1.286 . S
C329 U326 2.984 . S
C329 O327 1.353 . S
C329 O328 1.286 . S
C329 C331 1.363 . S
C330 C320 1.465 . S
C330 U326 2.847 . S
C330 O344 1.249 . S
C330 O345 1.202 . S
C331 C329 1.363 . S
C331 C333 1.408 . S
C331 C336 1.342 . S
C332 C333 1.310 . S
C332 C335 1.461 . S
C332 H352 0.932 . S
C333 C331 1.408 . S
C333 C332 1.310 . S
C333 H353 0.930 . S
C334 C335 1.474 . S
C334 C336 1.285 . S
C334 H354 0.929 . S
C335 C332 1.461 . S
C335 C334 1.474 . S
C336 C331 1.342 . S
C336 C334 1.285 . S
C336 H355 0.930 . S
C337 C340 1.424 . S
C337 C342 1.245 . S
C337 C343 1.428 . S
C338 C341 1.260 . S
C338 C342 1.477 . S
C338 H356 0.932 . S
C339 C340 1.384 . S
C339 C341 1.479 . S
C339 H357 0.929 . S
C340 C337 1.424 . S
C340 C339 1.384 . S
C340 H358 0.928 . S
C341 C338 1.260 . S
C341 C339 1.479 . S
C342 C337 1.245 . S
C342 C338 1.477 . S
C342 H359 0.932 . S
C343 U326 2.882 . S
C343 C337 1.428 . S
C343 O346 1.301 . S
C343 O347 1.282 . S
O344 U326 2.441 . S
O344 C330 1.249 . S
O345 U326 2.420 . S
O345 C330 1.202 . S
O346 U326 2.455 . S
O346 C343 1.301 . S
O347 U326 2.449 . S
O347 C343 1.282 . S
H348 C321 0.931 . S
H349 C323 0.929 . S
H350 C324 0.930 . S
H351 C325 0.931 . S
H352 C332 0.932 . S
H353 C333 0.930 . S
H354 C334 0.929 . S
H355 C336 0.930 . S
H356 C338 0.932 . S
H357 C339 0.929 . S
H358 C340 0.928 . S
H359 C342 0.932 . S
C360 C361 1.264 . S
C360 C365 1.479 . S
C360 C370 1.465 . S
C361 C360 1.264 . S
C361 C363 1.339 . S
C361 H388 0.931 . S
C362 C363 1.395 . S
C362 C364 1.320 . S
C363 C361 1.339 . S
C363 C362 1.395 . S
C363 H389 0.929 . S
C364 C362 1.320 . S
C364 C365 1.405 . S
C364 H390 0.930 . S
C365 C360 1.479 . S
C365 C364 1.405 . S
C365 H391 0.931 . S
U366 O367 2.454 . S
U366 O368 2.458 . S
U366 C369 2.984 . S
U366 C370 2.847 . S
U366 C383 2.882 . S
U366 O384 2.441 . S
U366 O385 2.420 . S
U366 O386 2.455 . S
U366 O387 2.449 . S
O367 U366 2.454 . S
O367 C369 1.353 . S
O368 U366 2.458 . S
O368 C369 1.286 . S
C369 U366 2.984 . S
C369 O367 1.353 . S
C369 O368 1.286 . S
C369 C371 1.363 . S
C370 C360 1.465 . S
C370 U366 2.847 . S
C370 O384 1.249 . S
C370 O385 1.202 . S
C371 C369 1.363 . S
C371 C373 1.408 . S
C371 C376 1.342 . S
C372 C373 1.310 . S
C372 C375 1.461 . S
C372 H392 0.932 . S
C373 C371 1.408 . S
C373 C372 1.310 . S
C373 H393 0.930 . S
C374 C375 1.474 . S
C374 C376 1.285 . S
C374 H394 0.929 . S
C375 C372 1.461 . S
C375 C374 1.474 . S
C376 C371 1.342 . S
C376 C374 1.285 . S
C376 H395 0.930 . S
C377 C380 1.424 . S
C377 C382 1.245 . S
C377 C383 1.428 . S
C378 C381 1.260 . S
C378 C382 1.477 . S
C378 H396 0.932 . S
C379 C380 1.384 . S
C379 C381 1.479 . S
C379 H397 0.929 . S
C380 C377 1.424 . S
C380 C379 1.384 . S
C380 H398 0.928 . S
C381 C378 1.260 . S
C381 C379 1.479 . S
C382 C377 1.245 . S
C382 C378 1.477 . S
C382 H399 0.932 . S
C383 U366 2.882 . S
C383 C377 1.428 . S
C383 O386 1.301 . S
C383 O387 1.282 . S
O384 U366 2.441 . S
O384 C370 1.249 . S
O385 U366 2.420 . S
O385 C370 1.202 . S
O386 U366 2.455 . S
O386 C383 1.301 . S
O387 U366 2.449 . S
O387 C383 1.282 . S
H388 C361 0.931 . S
H389 C363 0.929 . S
H390 C364 0.930 . S
H391 C365 0.931 . S
H392 C372 0.932 . S
H393 C373 0.930 . S
H394 C374 0.929 . S
H395 C376 0.930 . S
H396 C378 0.932 . S
H397 C379 0.929 . S
H398 C380 0.928 . S
H399 C382 0.932 . S
C400 C401 1.264 . S
C400 C405 1.479 . S
C400 C410 1.465 . S
C401 C400 1.264 . S
C401 C403 1.339 . S
C401 H428 0.931 . S
C402 C403 1.395 . S
C402 C404 1.320 . S
C403 C401 1.339 . S
C403 C402 1.395 . S
C403 H429 0.929 . S
C404 C402 1.320 . S
C404 C405 1.405 . S
C404 H430 0.930 . S
C405 C400 1.479 . S
C405 C404 1.405 . S
C405 H431 0.931 . S
U406 O407 2.454 . S
U406 O408 2.458 . S
U406 C409 2.984 . S
U406 C410 2.847 . S
U406 C423 2.882 . S
U406 O424 2.441 . S
U406 O425 2.420 . S
U406 O426 2.455 . S
U406 O427 2.449 . S
O407 U406 2.454 . S
O407 C409 1.353 . S
O408 U406 2.458 . S
O408 C409 1.286 . S
C409 U406 2.984 . S
C409 O407 1.353 . S
C409 O408 1.286 . S
C409 C411 1.363 . S
C410 C400 1.465 . S
C410 U406 2.847 . S
C410 O424 1.249 . S
C410 O425 1.202 . S
C411 C409 1.363 . S
C411 C413 1.408 . S
C411 C416 1.342 . S
C412 C413 1.310 . S
C412 C415 1.461 . S
C412 H432 0.932 . S
C413 C411 1.408 . S
C413 C412 1.310 . S
C413 H433 0.930 . S
C414 C415 1.474 . S
C414 C416 1.285 . S
C414 H434 0.929 . S
C415 C412 1.461 . S
C415 C414 1.474 . S
C416 C411 1.342 . S
C416 C414 1.285 . S
C416 H435 0.930 . S
C417 C420 1.424 . S
C417 C422 1.245 . S
C417 C423 1.428 . S
C418 C421 1.260 . S
C418 C422 1.477 . S
C418 H436 0.932 . S
C419 C420 1.384 . S
C419 C421 1.479 . S
C419 H437 0.929 . S
C420 C417 1.424 . S
C420 C419 1.384 . S
C420 H438 0.928 . S
C421 C418 1.260 . S
C421 C419 1.479 . S
C422 C417 1.245 . S
C422 C418 1.477 . S
C422 H439 0.932 . S
C423 U406 2.882 . S
C423 C417 1.428 . S
C423 O426 1.301 . S
C423 O427 1.282 . S
O424 U406 2.441 . S
O424 C410 1.249 . S
O425 U406 2.420 . S
O425 C410 1.202 . S
O426 U406 2.455 . S
O426 C423 1.301 . S
O427 U406 2.449 . S
O427 C423 1.282 . S
H428 C401 0.931 . S
H429 C403 0.929 . S
H430 C404 0.930 . S
H431 C405 0.931 . S
H432 C412 0.932 . S
H433 C413 0.930 . S
H434 C414 0.929 . S
H435 C416 0.930 . S
H436 C418 0.932 . S
H437 C419 0.929 . S
H438 C420 0.928 . S
H439 C422 0.932 . S
C440 C441 1.264 . S
C440 C445 1.479 . S
C440 C450 1.465 . S
C441 C440 1.264 . S
C441 C443 1.339 . S
C441 H468 0.931 . S
C442 C443 1.395 . S
C442 C444 1.320 . S
C443 C441 1.339 . S
C443 C442 1.395 . S
C443 H469 0.929 . S
C444 C442 1.320 . S
C444 C445 1.405 . S
C444 H470 0.930 . S
C445 C440 1.479 . S
C445 C444 1.405 . S
C445 H471 0.931 . S
U446 O447 2.454 . S
U446 O448 2.458 . S
U446 C449 2.984 . S
U446 C450 2.847 . S
U446 C463 2.882 . S
U446 O464 2.441 . S
U446 O465 2.420 . S
U446 O466 2.455 . S
U446 O467 2.449 . S
O447 U446 2.454 . S
O447 C449 1.353 . S
O448 U446 2.458 . S
O448 C449 1.286 . S
C449 U446 2.984 . S
C449 O447 1.353 . S
C449 O448 1.286 . S
C449 C451 1.363 . S
C450 C440 1.465 . S
C450 U446 2.847 . S
C450 O464 1.249 . S
C450 O465 1.202 . S
C451 C449 1.363 . S
C451 C453 1.408 . S
C451 C456 1.342 . S
C452 C453 1.310 . S
C452 C455 1.461 . S
C452 H472 0.932 . S
C453 C451 1.408 . S
C453 C452 1.310 . S
C453 H473 0.930 . S
C454 C455 1.474 . S
C454 C456 1.285 . S
C454 H474 0.929 . S
C455 C452 1.461 . S
C455 C454 1.474 . S
C456 C451 1.342 . S
C456 C454 1.285 . S
C456 H475 0.930 . S
C457 C460 1.424 . S
C457 C462 1.245 . S
C457 C463 1.428 . S
C458 C461 1.260 . S
C458 C462 1.477 . S
C458 H476 0.932 . S
C459 C460 1.384 . S
C459 C461 1.479 . S
C459 H477 0.929 . S
C460 C457 1.424 . S
C460 C459 1.384 . S
C460 H478 0.928 . S
C461 C458 1.260 . S
C461 C459 1.479 . S
C462 C457 1.245 . S
C462 C458 1.477 . S
C462 H479 0.932 . S
C463 U446 2.882 . S
C463 C457 1.428 . S
C463 O466 1.301 . S
C463 O467 1.282 . S
O464 U446 2.441 . S
O464 C450 1.249 . S
O465 U446 2.420 . S
O465 C450 1.202 . S
O466 U446 2.455 . S
O466 C463 1.301 . S
O467 U446 2.449 . S
O467 C463 1.282 . S
H468 C441 0.931 . S
H469 C443 0.929 . S
H470 C444 0.930 . S
H471 C445 0.931 . S
H472 C452 0.932 . S
H473 C453 0.930 . S
H474 C454 0.929 . S
H475 C456 0.930 . S
H476 C458 0.932 . S
H477 C459 0.929 . S
H478 C460 0.928 . S
H479 C462 0.932 . S
C480 C481 1.264 . S
C480 C485 1.479 . S
C480 C490 1.465 . S
C481 C480 1.264 . S
C481 C483 1.339 . S
C481 H508 0.931 . S
C482 C483 1.395 . S
C482 C484 1.320 . S
C483 C481 1.339 . S
C483 C482 1.395 . S
C483 H509 0.929 . S
C484 C482 1.320 . S
C484 C485 1.405 . S
C484 H510 0.930 . S
C485 C480 1.479 . S
C485 C484 1.405 . S
C485 H511 0.931 . S
U486 O487 2.454 . S
U486 O488 2.458 . S
U486 C489 2.984 . S
U486 C490 2.847 . S
U486 C503 2.882 . S
U486 O504 2.441 . S
U486 O505 2.420 . S
U486 O506 2.455 . S
U486 O507 2.449 . S
O487 U486 2.454 . S
O487 C489 1.353 . S
O488 U486 2.458 . S
O488 C489 1.286 . S
C489 U486 2.984 . S
C489 O487 1.353 . S
C489 O488 1.286 . S
C489 C491 1.363 . S
C490 C480 1.465 . S
C490 U486 2.847 . S
C490 O504 1.249 . S
C490 O505 1.202 . S
C491 C489 1.363 . S
C491 C493 1.408 . S
C491 C496 1.342 . S
C492 C493 1.310 . S
C492 C495 1.461 . S
C492 H512 0.932 . S
C493 C491 1.408 . S
C493 C492 1.310 . S
C493 H513 0.930 . S
C494 C495 1.474 . S
C494 C496 1.285 . S
C494 H514 0.929 . S
C495 C492 1.461 . S
C495 C494 1.474 . S
C496 C491 1.342 . S
C496 C494 1.285 . S
C496 H515 0.930 . S
C497 C500 1.424 . S
C497 C502 1.245 . S
C497 C503 1.428 . S
C498 C501 1.260 . S
C498 C502 1.477 . S
C498 H516 0.932 . S
C499 C500 1.384 . S
C499 C501 1.479 . S
C499 H517 0.929 . S
C500 C497 1.424 . S
C500 C499 1.384 . S
C500 H518 0.928 . S
C501 C498 1.260 . S
C501 C499 1.479 . S
C502 C497 1.245 . S
C502 C498 1.477 . S
C502 H519 0.932 . S
C503 U486 2.882 . S
C503 C497 1.428 . S
C503 O506 1.301 . S
C503 O507 1.282 . S
O504 U486 2.441 . S
O504 C490 1.249 . S
O505 U486 2.420 . S
O505 C490 1.202 . S
O506 U486 2.455 . S
O506 C503 1.301 . S
O507 U486 2.449 . S
O507 C503 1.282 . S
H508 C481 0.931 . S
H509 C483 0.929 . S
H510 C484 0.930 . S
H511 C485 0.931 . S
H512 C492 0.932 . S
H513 C493 0.930 . S
H514 C494 0.929 . S
H515 C496 0.930 . S
H516 C498 0.932 . S
H517 C499 0.929 . S
H518 C500 0.928 . S
H519 C502 0.932 . S
C520 C521 1.264 . S
C520 C525 1.479 . S
C520 C530 1.465 . S
C521 C520 1.264 . S
C521 C523 1.339 . S
C521 H548 0.931 . S
C522 C523 1.395 . S
C522 C524 1.320 . S
C523 C521 1.339 . S
C523 C522 1.395 . S
C523 H549 0.929 . S
C524 C522 1.320 . S
C524 C525 1.405 . S
C524 H550 0.930 . S
C525 C520 1.479 . S
C525 C524 1.405 . S
C525 H551 0.931 . S
U526 O527 2.454 . S
U526 O528 2.458 . S
U526 C529 2.984 . S
U526 C530 2.847 . S
U526 C543 2.882 . S
U526 O544 2.441 . S
U526 O545 2.420 . S
U526 O546 2.455 . S
U526 O547 2.449 . S
O527 U526 2.454 . S
O527 C529 1.353 . S
O528 U526 2.458 . S
O528 C529 1.286 . S
C529 U526 2.984 . S
C529 O527 1.353 . S
C529 O528 1.286 . S
C529 C531 1.363 . S
C530 C520 1.465 . S
C530 U526 2.847 . S
C530 O544 1.249 . S
C530 O545 1.202 . S
C531 C529 1.363 . S
C531 C533 1.408 . S
C531 C536 1.342 . S
C532 C533 1.310 . S
C532 C535 1.461 . S
C532 H552 0.932 . S
C533 C531 1.408 . S
C533 C532 1.310 . S
C533 H553 0.930 . S
C534 C535 1.474 . S
C534 C536 1.285 . S
C534 H554 0.929 . S
C535 C532 1.461 . S
C535 C534 1.474 . S
C536 C531 1.342 . S
C536 C534 1.285 . S
C536 H555 0.930 . S
C537 C540 1.424 . S
C537 C542 1.245 . S
C537 C543 1.428 . S
C538 C541 1.260 . S
C538 C542 1.477 . S
C538 H556 0.932 . S
C539 C540 1.384 . S
C539 C541 1.479 . S
C539 H557 0.929 . S
C540 C537 1.424 . S
C540 C539 1.384 . S
C540 H558 0.928 . S
C541 C538 1.260 . S
C541 C539 1.479 . S
C542 C537 1.245 . S
C542 C538 1.477 . S
C542 H559 0.932 . S
C543 U526 2.882 . S
C543 C537 1.428 . S
C543 O546 1.301 . S
C543 O547 1.282 . S
O544 U526 2.441 . S
O544 C530 1.249 . S
O545 U526 2.420 . S
O545 C530 1.202 . S
O546 U526 2.455 . S
O546 C543 1.301 . S
O547 U526 2.449 . S
O547 C543 1.282 . S
H548 C521 0.931 . S
H549 C523 0.929 . S
H550 C524 0.930 . S
H551 C525 0.931 . S
H552 C532 0.932 . S
H553 C533 0.930 . S
H554 C534 0.929 . S
H555 C536 0.930 . S
H556 C538 0.932 . S
H557 C539 0.929 . S
H558 C540 0.928 . S
H559 C542 0.932 . S
C560 C561 1.264 . S
C560 C565 1.479 . S
C560 C570 1.465 . S
C561 C560 1.264 . S
C561 C563 1.339 . S
C561 H588 0.931 . S
C562 C563 1.395 . S
C562 C564 1.320 . S
C563 C561 1.339 . S
C563 C562 1.395 . S
C563 H589 0.929 . S
C564 C562 1.320 . S
C564 C565 1.405 . S
C564 H590 0.930 . S
C565 C560 1.479 . S
C565 C564 1.405 . S
C565 H591 0.931 . S
U566 O567 2.454 . S
U566 O568 2.458 . S
U566 C569 2.984 . S
U566 C570 2.847 . S
U566 C583 2.882 . S
U566 O584 2.441 . S
U566 O585 2.420 . S
U566 O586 2.455 . S
U566 O587 2.449 . S
O567 U566 2.454 . S
O567 C569 1.353 . S
O568 U566 2.458 . S
O568 C569 1.286 . S
C569 U566 2.984 . S
C569 O567 1.353 . S
C569 O568 1.286 . S
C569 C571 1.363 . S
C570 C560 1.465 . S
C570 U566 2.847 . S
C570 O584 1.249 . S
C570 O585 1.202 . S
C571 C569 1.363 . S
C571 C573 1.408 . S
C571 C576 1.342 . S
C572 C573 1.310 . S
C572 C575 1.461 . S
C572 H592 0.932 . S
C573 C571 1.408 . S
C573 C572 1.310 . S
C573 H593 0.930 . S
C574 C575 1.474 . S
C574 C576 1.285 . S
C574 H594 0.929 . S
C575 C572 1.461 . S
C575 C574 1.474 . S
C576 C571 1.342 . S
C576 C574 1.285 . S
C576 H595 0.930 . S
C577 C580 1.424 . S
C577 C582 1.245 . S
C577 C583 1.428 . S
C578 C581 1.260 . S
C578 C582 1.477 . S
C578 H596 0.932 . S
C579 C580 1.384 . S
C579 C581 1.479 . S
C579 H597 0.929 . S
C580 C577 1.424 . S
C580 C579 1.384 . S
C580 H598 0.928 . S
C581 C578 1.260 . S
C581 C579 1.479 . S
C582 C577 1.245 . S
C582 C578 1.477 . S
C582 H599 0.932 . S
C583 U566 2.882 . S
C583 C577 1.428 . S
C583 O586 1.301 . S
C583 O587 1.282 . S
O584 U566 2.441 . S
O584 C570 1.249 . S
O585 U566 2.420 . S
O585 C570 1.202 . S
O586 U566 2.455 . S
O586 C583 1.301 . S
O587 U566 2.449 . S
O587 C583 1.282 . S
H588 C561 0.931 . S
H589 C563 0.929 . S
H590 C564 0.930 . S
H591 C565 0.931 . S
H592 C572 0.932 . S
H593 C573 0.930 . S
H594 C574 0.929 . S
H595 C576 0.930 . S
H596 C578 0.932 . S
H597 C579 0.929 . S
H598 C580 0.928 . S
H599 C582 0.932 . S
C600 C601 1.264 . S
C600 C605 1.479 . S
C600 C610 1.465 . S
C601 C600 1.264 . S
C601 C603 1.339 . S
C601 H628 0.931 . S
C602 C603 1.395 . S
C602 C604 1.320 . S
C603 C601 1.339 . S
C603 C602 1.395 . S
C603 H629 0.929 . S
C604 C602 1.320 . S
C604 C605 1.405 . S
C604 H630 0.930 . S
C605 C600 1.479 . S
C605 C604 1.405 . S
C605 H631 0.931 . S
U606 O607 2.454 . S
U606 O608 2.458 . S
U606 C609 2.984 . S
U606 C610 2.847 . S
U606 C623 2.882 . S
U606 O624 2.441 . S
U606 O625 2.420 . S
U606 O626 2.455 . S
U606 O627 2.449 . S
O607 U606 2.454 . S
O607 C609 1.353 . S
O608 U606 2.458 . S
O608 C609 1.286 . S
C609 U606 2.984 . S
C609 O607 1.353 . S
C609 O608 1.286 . S
C609 C611 1.363 . S
C610 C600 1.465 . S
C610 U606 2.847 . S
C610 O624 1.249 . S
C610 O625 1.202 . S
C611 C609 1.363 . S
C611 C613 1.408 . S
C611 C616 1.342 . S
C612 C613 1.310 . S
C612 C615 1.461 . S
C612 H632 0.932 . S
C613 C611 1.408 . S
C613 C612 1.310 . S
C613 H633 0.930 . S
C614 C615 1.474 . S
C614 C616 1.285 . S
C614 H634 0.929 . S
C615 C612 1.461 . S
C615 C614 1.474 . S
C616 C611 1.342 . S
C616 C614 1.285 . S
C616 H635 0.930 . S
C617 C620 1.424 . S
C617 C622 1.245 . S
C617 C623 1.428 . S
C618 C621 1.260 . S
C618 C622 1.477 . S
C618 H636 0.932 . S
C619 C620 1.384 . S
C619 C621 1.479 . S
C619 H637 0.929 . S
C620 C617 1.424 . S
C620 C619 1.384 . S
C620 H638 0.928 . S
C621 C618 1.260 . S
C621 C619 1.479 . S
C622 C617 1.245 . S
C622 C618 1.477 . S
C622 H639 0.932 . S
C623 U606 2.882 . S
C623 C617 1.428 . S
C623 O626 1.301 . S
C623 O627 1.282 . S
O624 U606 2.441 . S
O624 C610 1.249 . S
O625 U606 2.420 . S
O625 C610 1.202 . S
O626 U606 2.455 . S
O626 C623 1.301 . S
O627 U606 2.449 . S
O627 C623 1.282 . S
H628 C601 0.931 . S
H629 C603 0.929 . S
H630 C604 0.930 . S
H631 C605 0.931 . S
H632 C612 0.932 . S
H633 C613 0.930 . S
H634 C614 0.929 . S
H635 C616 0.930 . S
H636 C618 0.932 . S
H637 C619 0.929 . S
H638 C620 0.928 . S
H639 C622 0.932 . S
C640 C641 1.387 . S
C640 H644 0.950 . S
C640 C649 1.390 . S
C641 C640 1.387 . S
C641 C643 1.387 . S
H642 C649 0.950 . S
C643 C641 1.387 . S
C643 C645 1.390 . S
C643 H647 0.950 . S
H644 C640 0.950 . S
C645 C643 1.390 . S
C645 C646 1.387 . S
C645 H648 0.950 . S
C646 C645 1.387 . S
C646 C649 1.387 . S
H647 C643 0.950 . S
H648 C645 0.950 . S
C649 C640 1.390 . S
C649 H642 0.950 . S
C649 C646 1.387 . S
C650 C651 1.387 . S
C650 H654 0.950 . S
C650 C659 1.390 . S
C651 C650 1.387 . S
C651 C653 1.387 . S
H652 C659 0.950 . S
C653 C651 1.387 . S
C653 C655 1.390 . S
C653 H657 0.950 . S
H654 C650 0.950 . S
C655 C653 1.390 . S
C655 C656 1.387 . S
C655 H658 0.950 . S
C656 C655 1.387 . S
C656 C659 1.387 . S
H657 C653 0.950 . S
H658 C655 0.950 . S
C659 C650 1.390 . S
C659 H652 0.950 . S
C659 C656 1.387 . S
C660 C661 1.314 1_554 S
C660 H664 0.948 . S
C660 C669 1.472 . S
C661 C660 1.314 1_556 S
C661 C663 1.387 . S
H662 C669 0.950 . S
C663 C661 1.387 . S
C663 C665 1.390 1_556 S
C663 H667 0.950 . S
H664 C660 0.948 . S
C665 C663 1.390 1_554 S
C665 C666 1.387 . S
C665 H668 0.950 . S
C666 C665 1.387 . S
C666 C669 1.387 . S
H667 C663 0.950 . S
H668 C665 0.950 . S
C669 C660 1.472 . S
C669 H662 0.950 . S
C669 C666 1.387 . S
C670 C671 1.387 . S
C670 H674 0.950 . S
C670 C679 1.390 . S
C671 C670 1.387 . S
C671 C673 1.387 . S
H672 C679 0.950 . S
C673 C671 1.387 . S
C673 C675 1.390 . S
C673 H677 0.950 . S
H674 C670 0.950 . S
C675 C673 1.390 . S
C675 C676 1.387 . S
C675 H678 0.950 . S
C676 C675 1.387 . S
C676 C679 1.387 . S
H677 C673 0.950 . S
H678 C675 0.950 . S
C679 C670 1.390 . S
C679 H672 0.950 . S
C679 C676 1.387 . S
C680 C681 1.387 . S
C680 H684 0.950 . S
C680 C689 1.390 . S
C681 C680 1.387 . S
C681 C683 1.387 . S
H682 C689 0.950 . S
C683 C681 1.387 . S
C683 C685 1.390 . S
C683 H687 0.950 . S
H684 C680 0.950 . S
C685 C683 1.390 . S
C685 C686 1.387 . S
C685 H688 0.950 . S
C686 C685 1.387 . S
C686 C689 1.387 . S
H687 C683 0.950 . S
H688 C685 0.950 . S
C689 C680 1.390 . S
C689 H682 0.950 . S
C689 C686 1.387 . S
C690 C691 1.403 . S
C690 H694 0.947 . S
C690 C699 1.373 1_556 S
C691 C690 1.403 . S
C691 C693 1.387 . S
H692 C699 0.950 . S
C693 C691 1.387 . S
C693 C695 1.390 1_556 S
C693 H697 0.950 . S
H694 C690 0.947 . S
C695 C693 1.390 1_554 S
C695 C696 1.387 . S
C695 H698 0.950 . S
C696 C695 1.387 . S
C696 C699 1.387 . S
H697 C693 0.950 . S
H698 C695 0.950 . S
C699 C690 1.373 1_554 S
C699 H692 0.950 . S
C699 C696 1.387 . S
C700 C701 1.387 . S
C700 H704 0.950 . S
C700 C709 1.390 . S
C701 C700 1.387 . S
C701 C703 1.387 . S
H702 C709 0.950 . S
C703 C701 1.387 . S
C703 C705 1.390 . S
C703 H707 0.950 . S
H704 C700 0.950 . S
C705 C703 1.390 . S
C705 C706 1.387 . S
C705 H708 0.950 . S
C706 C705 1.387 . S
C706 C709 1.387 . S
H707 C703 0.950 . S
H708 C705 0.950 . S
C709 C700 1.390 . S
C709 H702 0.950 . S
C709 C706 1.387 . S
C710 C711 1.387 . S
C710 H714 0.950 . S
C710 C719 1.390 . S
C711 C710 1.387 . S
C711 C713 1.387 . S
H712 C719 0.950 . S
C713 C711 1.387 . S
C713 C715 1.390 . S
C713 H717 0.950 . S
H714 C710 0.950 . S
C715 C713 1.390 . S
C715 C716 1.387 . S
C715 H718 0.950 . S
C716 C715 1.387 . S
C716 C719 1.387 . S
H717 C713 0.950 . S
H718 C715 0.950 . S
C719 C710 1.390 . S
C719 H712 0.950 . S
C719 C716 1.387 . S
C720 C721 1.387 . S
C720 H724 0.950 . S
C720 C729 1.390 1_565 S
C721 C720 1.387 . S
C721 C723 1.387 . S
H722 C729 0.951 . S
C723 C721 1.387 . S
C723 C725 1.390 1_565 S
C723 H727 0.950 . S
H724 C720 0.950 . S
C725 C723 1.390 1_545 S
C725 C726 1.389 . S
C725 H728 0.950 . S
C726 C725 1.389 . S
C726 C729 1.388 . S
H727 C723 0.950 . S
H728 C725 0.950 . S
C729 C720 1.390 1_545 S
C729 H722 0.951 . S
C729 C726 1.388 . S
C730 C731 1.387 . S
C730 H734 0.950 . S
C730 C739 1.390 1_455 S
C731 C730 1.387 . S
C731 C733 1.387 . S
H732 C739 0.950 . S
C733 C731 1.387 . S
C733 C735 1.390 1_455 S
C733 H737 0.950 . S
H734 C730 0.950 . S
C735 C733 1.390 1_655 S
C735 C736 1.387 . S
C735 H738 0.950 . S
C736 C735 1.387 . S
C736 C739 1.387 . S
H737 C733 0.950 . S
H738 C735 0.950 . S
C739 C730 1.390 1_655 S
C739 H732 0.950 . S
C739 C736 1.387 . S
C740 C741 1.387 . S
C740 H744 0.950 . S
C740 C749 1.390 . S
C741 C740 1.387 . S
C741 C743 1.387 . S
H742 C749 0.950 . S
C743 C741 1.387 . S
C743 C745 1.390 . S
C743 H747 0.950 . S
H744 C740 0.950 . S
C745 C743 1.390 . S
C745 C746 1.387 . S
C745 H748 0.950 . S
C746 C745 1.387 . S
C746 C749 1.387 . S
H747 C743 0.950 . S
H748 C745 0.950 . S
C749 C740 1.390 . S
C749 H742 0.950 . S
C749 C746 1.387 . S
C750 C751 1.387 . S
C750 H754 0.950 . S
C750 C759 1.384 1_565 S
C751 C750 1.387 . S
C751 C753 1.387 1_565 S
H752 C759 0.950 . S
C753 C751 1.387 1_545 S
C753 C755 1.390 . S
C753 H757 0.950 . S
H754 C750 0.950 . S
C755 C753 1.390 . S
C755 C756 1.387 . S
C755 H758 0.950 . S
C756 C755 1.387 . S
C756 C759 1.395 . S
H757 C753 0.950 . S
H758 C755 0.950 . S
C759 C750 1.384 1_545 S
C759 H752 0.950 . S
C759 C756 1.395 . S
C760 C761 1.387 . S
C760 H764 0.950 . S
C760 C769 1.390 . S
C761 C760 1.387 . S
C761 C763 1.387 . S
H762 C769 0.950 . S
C763 C761 1.387 . S
C763 C765 1.390 . S
C763 H767 0.950 . S
H764 C760 0.950 . S
C765 C763 1.390 . S
C765 C766 1.389 . S
C765 H768 0.950 . S
C766 C765 1.389 . S
C766 C769 1.388 . S
H767 C763 0.950 . S
H768 C765 0.950 . S
C769 C760 1.390 . S
C769 H762 0.950 . S
C769 C766 1.388 . S
C770 C771 1.387 . S
C770 H774 0.950 . S
C770 C779 1.390 . S
C771 C770 1.387 . S
C771 C773 1.387 . S
H772 C779 0.950 . S
C773 C771 1.387 . S
C773 C775 1.390 . S
C773 H777 0.950 . S
H774 C770 0.950 . S
C775 C773 1.390 . S
C775 C776 1.387 . S
C775 H778 0.950 . S
C776 C775 1.387 . S
C776 C779 1.387 . S
H777 C773 0.950 . S
H778 C775 0.950 . S
C779 C770 1.390 . S
C779 H772 0.950 . S
C779 C776 1.387 . S
C780 C781 1.387 . S
C780 H784 0.950 . S
C780 C789 1.390 1_545 S
C781 C780 1.387 . S
C781 C783 1.387 . S
H782 C789 0.950 . S
C783 C781 1.387 . S
C783 C785 1.390 1_545 S
C783 H787 0.950 . S
H784 C780 0.950 . S
C785 C783 1.390 1_565 S
C785 C786 1.387 . S
C785 H788 0.950 . S
C786 C785 1.387 . S
C786 C789 1.387 . S
H787 C783 0.950 . S
H788 C785 0.950 . S
C789 C780 1.390 1_565 S
C789 H782 0.950 . S
C789 C786 1.387 . S
C790 C791 1.387 1_565 S
C790 H794 0.950 . S
C790 C799 1.390 1_455 S
C791 C790 1.387 1_545 S
C791 C793 1.387 . S
H792 C799 0.950 . S
C793 C791 1.387 . S
C793 C795 1.390 1_455 S
C793 H797 0.950 . S
H794 C790 0.950 . S
C795 C793 1.390 1_655 S
C795 C796 1.387 1_545 S
C795 H798 0.950 . S
C796 C795 1.387 1_565 S
C796 C799 1.387 . S
H797 C793 0.950 . S
H798 C795 0.950 . S
C799 C790 1.390 1_655 S
C799 H792 0.950 . S
C799 C796 1.387 . S
C800 C801 1.387 . S
C800 H804 0.950 . S
C800 C809 1.390 . S
C801 C800 1.387 . S
C801 C803 1.387 . S
H802 C809 0.950 . S
C803 C801 1.387 . S
C803 C805 1.390 . S
C803 H807 0.950 . S
H804 C800 0.950 . S
C805 C803 1.390 . S
C805 C806 1.387 . S
C805 H808 0.950 . S
C806 C805 1.387 . S
C806 C809 1.387 . S
H807 C803 0.950 . S
H808 C805 0.950 . S
C809 C800 1.390 . S
C809 H802 0.950 . S
C809 C806 1.387 . S
C810 C811 1.387 . S
C810 H814 0.950 . S
C810 C819 1.390 . S
C811 C810 1.387 . S
C811 C813 1.387 . S
H812 C819 0.950 . S
C813 C811 1.387 . S
C813 C815 1.390 . S
C813 H817 0.950 . S
H814 C810 0.950 . S
C815 C813 1.390 . S
C815 C816 1.387 . S
C815 H818 0.950 . S
C816 C815 1.387 . S
C816 C819 1.387 . S
H817 C813 0.950 . S
H818 C815 0.950 . S
C819 C810 1.390 . S
C819 H812 0.950 . S
C819 C816 1.387 . S
C820 C821 1.387 . S
C820 H824 0.950 . S
C820 C829 1.390 . S
C821 C820 1.387 . S
C821 C823 1.387 . S
H822 C829 0.950 . S
C823 C821 1.387 . S
C823 C825 1.390 . S
C823 H827 0.950 . S
H824 C820 0.950 . S
C825 C823 1.390 . S
C825 C826 1.387 . S
C825 H828 0.950 . S
C826 C825 1.387 . S
C826 C829 1.387 . S
H827 C823 0.950 . S
H828 C825 0.950 . S
C829 C820 1.390 . S
C829 H822 0.950 . S
C829 C826 1.387 . S
C830 C831 1.387 . S
C830 H834 0.950 . S
C830 C839 1.390 . S
C831 C830 1.387 . S
C831 C833 1.387 . S
H832 C839 0.950 . S
C833 C831 1.387 . S
C833 C835 1.390 . S
C833 H837 0.950 . S
H834 C830 0.950 . S
C835 C833 1.390 . S
C835 C836 1.387 . S
C835 H838 0.950 . S
C836 C835 1.387 . S
C836 C839 1.387 . S
H837 C833 0.950 . S
H838 C835 0.950 . S
C839 C830 1.390 . S
C839 H832 0.950 . S
C839 C836 1.387 . S
C840 C841 1.387 . S
C840 H844 0.950 . S
C840 C849 1.390 . S
C841 C840 1.387 . S
C841 C843 1.387 . S
H842 C849 0.950 . S
C843 C841 1.387 . S
C843 C845 1.390 . S
C843 H847 0.950 . S
H844 C840 0.950 . S
C845 C843 1.390 . S
C845 C846 1.387 . S
C845 H848 0.950 . S
C846 C845 1.387 . S
C846 C849 1.387 . S
H847 C843 0.950 . S
H848 C845 0.950 . S
C849 C840 1.390 . S
C849 H842 0.950 . S
C849 C846 1.387 . S
C850 C851 1.387 . S
C850 H854 0.950 . S
C850 C859 1.390 . S
C851 C850 1.387 . S
C851 C853 1.387 . S
H852 C859 0.950 . S
C853 C851 1.387 . S
C853 C855 1.390 . S
C853 H857 0.950 . S
H854 C850 0.950 . S
C855 C853 1.390 . S
C855 C856 1.387 . S
C855 H858 0.950 . S
C856 C855 1.387 . S
C856 C859 1.387 . S
H857 C853 0.950 . S
H858 C855 0.950 . S
C859 C850 1.390 . S
C859 H852 0.950 . S
C859 C856 1.387 . S
C860 C861 1.387 . S
C860 H864 0.950 . S
C860 C869 1.390 . S
C861 C860 1.387 . S
C861 C863 1.387 . S
H862 C869 0.950 . S
C863 C861 1.387 . S
C863 C865 1.390 . S
C863 H867 0.950 . S
H864 C860 0.950 . S
C865 C863 1.390 . S
C865 C866 1.387 . S
C865 H868 0.950 . S
C866 C865 1.387 . S
C866 C869 1.387 . S
H867 C863 0.950 . S
H868 C865 0.950 . S
C869 C860 1.390 . S
C869 H862 0.950 . S
C869 C866 1.387 . S
C870 C871 1.387 . S
C870 H874 0.950 . S
C870 C879 1.390 . S
C871 C870 1.387 . S
C871 C873 1.387 . S
H872 C879 0.950 . S
C873 C871 1.387 . S
C873 C875 1.390 . S
C873 H877 0.950 . S
H874 C870 0.950 . S
C875 C873 1.390 . S
C875 C876 1.387 . S
C875 H878 0.950 . S
C876 C875 1.387 . S
C876 C879 1.387 . S
H877 C873 0.950 . S
H878 C875 0.950 . S
C879 C870 1.390 . S
C879 H872 0.950 . S
C879 C876 1.387 . S
C641 C541 2.135 . S
C646 C21 2.143 . S
C651 C61 2.111 . S
C656 C562 2.298 . S
C661 C82 2.297 . S
C666 C621 2.109 . S
C671 C141 2.138 . S
C676 C501 2.143 . S
C681 C181 2.143 . S
C686 C461 2.138 . S
C691 C341 2.142 . S
C696 C221 2.135 . S
C701 C381 2.109 . S
C706 C242 2.298 . S
C711 C402 2.297 . S
C716 C301 2.109 . S
C721 C421 2.310 . S
C726 C2 2.112 1_655 S
C731 C442 2.097 . S
C736 C42 2.101 . S
C741 C322 2.117 . S
C746 C101 2.310 . S
C751 C122 2.101 . S
C756 C362 2.104 . S
C761 C581 2.309 . S
C766 C162 2.112 1_655 S
C771 C602 2.101 . S
C776 C202 2.098 . S
C781 C261 2.309 . S
C786 C482 2.117 . S
C791 C522 2.098 . S
C796 C282 2.102 . S
C801 C255 1.904 . S
C806 C15 1.898 . S
C811 C55 1.889 . S
C816 C295 1.889 . S
C821 C95 1.903 . S
C826 C175 1.898 . S
C831 C135 1.910 . S
C836 C215 1.910 . S
C841 C575 1.901 . S
C846 C335 1.896 . S
C851 C615 1.889 . S
C856 C375 1.889 . S
C861 C415 1.901 . S
C866 C495 1.895 . S
C871 C455 1.913 . S
C876 C535 1.913 . S
