# Generated by pormake.
# Topology zfc, (5)-cn, num edge types: 1
# Building blocks:
#     Node 0, Type 0, BuildingBlock: BEQFEK_clean_sbu_0, # of connection points: 5
#     Node 1, Type 0, BuildingBlock: BEQFEK_clean_sbu_0, # of connection points: 5
#     Node 2, Type 0, BuildingBlock: BEQFEK_clean_sbu_0, # of connection points: 5
#     Node 3, Type 0, BuildingBlock: BEQFEK_clean_sbu_0, # of connection points: 5
#     Node 4, Type 0, BuildingBlock: BEQFEK_clean_sbu_0, # of connection points: 5
#     Node 5, Type 0, BuildingBlock: BEQFEK_clean_sbu_0, # of connection points: 5
#     Node 6, Type 0, BuildingBlock: BEQFEK_clean_sbu_0, # of connection points: 5
#     Node 7, Type 0, BuildingBlock: BEQFEK_clean_sbu_0, # of connection points: 5
#     Node 8, Type 0, BuildingBlock: BEQFEK_clean_sbu_0, # of connection points: 5
#     Node 9, Type 0, BuildingBlock: BEQFEK_clean_sbu_0, # of connection points: 5
#     Node 10, Type 0, BuildingBlock: BEQFEK_clean_sbu_0, # of connection points: 5
#     Node 11, Type 0, BuildingBlock: BEQFEK_clean_sbu_0, # of connection points: 5
#     Node 12, Type 0, BuildingBlock: BEQFEK_clean_sbu_0, # of connection points: 5
#     Node 13, Type 0, BuildingBlock: BEQFEK_clean_sbu_0, # of connection points: 5
#     Node 14, Type 0, BuildingBlock: BEQFEK_clean_sbu_0, # of connection points: 5
#     Node 15, Type 0, BuildingBlock: BEQFEK_clean_sbu_0, # of connection points: 5
#     Edge 16, Type (0, 0), None
#     Edge 17, Type (0, 0), None
#     Edge 18, Type (0, 0), None
#     Edge 19, Type (0, 0), None
#     Edge 20, Type (0, 0), None
#     Edge 21, Type (0, 0), None
#     Edge 22, Type (0, 0), None
#     Edge 23, Type (0, 0), None
#     Edge 24, Type (0, 0), None
#     Edge 25, Type (0, 0), None
#     Edge 26, Type (0, 0), None
#     Edge 27, Type (0, 0), None
#     Edge 28, Type (0, 0), None
#     Edge 29, Type (0, 0), None
#     Edge 30, Type (0, 0), None
#     Edge 31, Type (0, 0), None
#     Edge 32, Type (0, 0), None
#     Edge 33, Type (0, 0), None
#     Edge 34, Type (0, 0), None
#     Edge 35, Type (0, 0), None
#     Edge 36, Type (0, 0), None
#     Edge 37, Type (0, 0), None
#     Edge 38, Type (0, 0), None
#     Edge 39, Type (0, 0), None
#     Edge 40, Type (0, 0), None
#     Edge 41, Type (0, 0), None
#     Edge 42, Type (0, 0), None
#     Edge 43, Type (0, 0), None
#     Edge 44, Type (0, 0), None
#     Edge 45, Type (0, 0), None
#     Edge 46, Type (0, 0), None
#     Edge 47, Type (0, 0), None
#     Edge 48, Type (0, 0), None
#     Edge 49, Type (0, 0), None
#     Edge 50, Type (0, 0), None
#     Edge 51, Type (0, 0), None
#     Edge 52, Type (0, 0), None
#     Edge 53, Type (0, 0), None
#     Edge 54, Type (0, 0), None
#     Edge 55, Type (0, 0), None
# Relax obj value: 0.238
# Max RMSD: 0.235
# Mean RMSD: 0.235
data_MOF--net-zfc--node1-BEQFEK_clean_sbu_0--edge1-none
_symmetry_space_group_name_H-M    P1
_symmetry_Int_Tables_number       1
_symmetry_cell_setting            triclinic
loop_
_symmetry_equiv_pos_as_xyz
'x, y, z'
_cell_length_a     34.836113
_cell_length_b     34.836178
_cell_length_c     9.9302838
_cell_angle_alpha  90.007906
_cell_angle_beta   90.002895
_cell_angle_gamma 89.999802
loop_
_atom_site_label
_atom_site_type_symbol
_atom_site_fract_x
_atom_site_fract_y
_atom_site_fract_z
_atom_type_partial_charge
Co0 Co 0.23117 0.11526 0.26001 0.0
Co1 Co 0.27244 0.13266 0.98203 0.0
C2 C 0.19412 0.16571 0.06365 0.0
O3 O 0.19089 0.14941 0.17796 0.0
O4 O 0.22412 0.16137 0.99398 0.0
C5 C 0.22753 0.08924 0.54294 0.0
O6 O 0.20993 0.06815 0.63359 0.0
C7 C 0.25291 0.13801 0.69744 0.0
C8 C 0.2965 0.10148 0.60724 0.0
C9 C 0.25922 0.11436 0.58833 0.0
N10 N 0.28243 0.13568 0.78577 0.0
N11 N 0.30992 0.11635 0.72403 0.0
C12 C 0.21581 0.15868 0.71915 0.0
H13 H 0.22104 0.18673 0.76861 0.0
H14 H 0.1962 0.14032 0.77904 0.0
H15 H 0.20147 0.16421 0.62125 0.0
C16 C 0.23629 0.03603 0.15904 0.0
N17 N 0.24335 0.0739 0.14388 0.0
N18 N 0.26275 0.07959 1.03168 0.0
C19 C 0.26931 0.04475 0.97473 0.0
C20 C 0.25235 0.01653 0.05232 0.0
C21 C 0.2137 0.01865 0.27182 0.0
H22 H 0.18712 0.03548 0.28882 0.0
H23 H 0.20584 0.98842 0.2498 0.0
H24 H 0.23121 0.01923 0.36512 0.0
O25 O 0.2772 0.14512 0.31018 0.0
O26 O 0.30866 0.15861 0.12009 0.0
H27 H 0.30189 0.00628 0.84795 0.0
H28 H 0.27766 0.04442 0.76323 0.0
C29 C 0.29393 0.03706 0.85505 0.0
H30 H 0.32069 0.05388 0.8629 0.0
H31 H 0.33592 0.10891 0.76868 0.0
O32 O 0.21282 0.0913 0.42613 0.0
C33 C 0.30539 0.16047 0.24952 0.0
Co34 Co 0.87596 0.23115 0.26003 0.0
Co35 Co 0.85854 0.27241 0.98206 0.0
C36 C 0.82548 0.1941 0.06372 0.0
O37 O 0.84181 0.19087 0.17801 0.0
O38 O 0.82981 0.22409 0.99405 0.0
C39 C 0.90199 0.22751 0.54295 0.0
O40 O 0.92311 0.20993 0.63359 0.0
C41 C 0.85322 0.25285 0.69749 0.0
C42 C 0.8897 0.29648 0.60727 0.0
C43 C 0.87686 0.25918 0.58837 0.0
N44 N 0.85552 0.28238 0.7858 0.0
N45 N 0.87482 0.30988 0.72405 0.0
C46 C 0.83261 0.21572 0.71925 0.0
H47 H 0.80453 0.22092 0.76858 0.0
H48 H 0.85098 0.19616 0.77931 0.0
H49 H 0.82713 0.20133 0.62139 0.0
C50 C 0.95519 0.23626 0.15901 0.0
N51 N 0.91731 0.24332 0.14388 0.0
N52 N 0.91161 0.26273 1.03169 0.0
C53 C 0.94644 0.26929 0.97473 0.0
C54 C 0.97467 0.25232 0.05228 0.0
C55 C 0.97258 0.21368 0.27178 0.0
H56 H 0.95575 0.1871 0.2888 0.0
H57 H 0.00281 0.20581 0.24973 0.0
H58 H 0.97201 0.23119 0.36508 0.0
O59 O 0.84611 0.27718 0.31021 0.0
O60 O 0.8326 0.30864 0.12011 0.0
H61 H 0.98489 0.30191 0.84805 0.0
H62 H 0.94677 0.27765 0.76324 0.0
C63 C 0.95412 0.29392 0.85509 0.0
H64 H 0.93728 0.32067 0.86295 0.0
H65 H 0.88224 0.3359 0.7687 0.0
O66 O 0.89994 0.2128 0.42614 0.0
C67 C 0.83075 0.30537 0.24954 0.0
Co68 Co 0.76 0.87595 0.26009 0.0
Co69 Co 0.71874 0.85854 0.98209 0.0
C70 C 0.79706 0.82548 0.06377 0.0
O71 O 0.80029 0.8418 0.17807 0.0
O72 O 0.76706 0.82982 0.99409 0.0
C73 C 0.76364 0.90199 0.54302 0.0
O74 O 0.78123 0.9231 0.63368 0.0
C75 C 0.7383 0.85322 0.69752 0.0
C76 C 0.69468 0.8897 0.60729 0.0
C77 C 0.73198 0.87685 0.58841 0.0
N78 N 0.70877 0.85552 0.78582 0.0
N79 N 0.68127 0.87482 0.72405 0.0
C80 C 0.77542 0.8326 0.71929 0.0
H81 H 0.77023 0.80452 0.76862 0.0
H82 H 0.79499 0.85096 0.77935 0.0
H83 H 0.78981 0.82711 0.62143 0.0
C84 C 0.7549 0.95518 0.15909 0.0
N85 N 0.74784 0.91731 0.14394 0.0
N86 N 0.72843 0.9116 1.03175 0.0
C87 C 0.72187 0.94644 0.97479 0.0
C88 C 0.73884 0.97467 0.05236 0.0
C89 C 0.77749 0.97257 0.27187 0.0
H90 H 0.80406 0.95574 0.28889 0.0
H91 H 0.78536 0.0028 0.24982 0.0
H92 H 0.75998 0.97201 0.36516 0.0
O93 O 0.71398 0.8461 0.31023 0.0
O94 O 0.68252 0.8326 0.12012 0.0
H95 H 0.68925 0.98489 0.8481 0.0
H96 H 0.7135 0.94677 0.76329 0.0
C97 C 0.69723 0.95412 0.85514 0.0
H98 H 0.67048 0.93728 0.86298 0.0
H99 H 0.65526 0.88224 0.76869 0.0
O100 O 0.77835 0.89994 0.42622 0.0
C101 C 0.68579 0.83074 0.24955 0.0
Co102 Co 0.11523 0.76005 0.26005 0.0
Co103 Co 0.13263 0.71877 0.98205 0.0
C104 C 0.1657 0.79709 0.06375 0.0
O105 O 0.14938 0.80032 0.17804 0.0
O106 O 0.16136 0.7671 0.99406 0.0
C107 C 0.0892 0.76369 0.54297 0.0
O108 O 0.06809 0.78128 0.63362 0.0
C109 C 0.13796 0.73833 0.69748 0.0
C110 C 0.10146 0.69472 0.60723 0.0
C111 C 0.11432 0.73201 0.58836 0.0
N112 N 0.13565 0.7088 0.78578 0.0
N113 N 0.11633 0.68131 0.724 0.0
C114 C 0.1586 0.77544 0.71926 0.0
H115 H 0.18667 0.77023 0.76863 0.0
H116 H 0.14024 0.79502 0.77927 0.0
H117 H 0.1641 0.78982 0.6214 0.0
C118 C 0.036 0.75494 0.15906 0.0
N119 N 0.07387 0.74788 0.1439 0.0
N120 N 0.07957 0.72846 1.0317 0.0
C121 C 0.04473 0.7219 0.97475 0.0
C122 C 0.01651 0.73887 0.05233 0.0
C123 C 0.01861 0.77752 0.27184 0.0
H124 H 0.03544 0.8041 0.28887 0.0
H125 H 0.98838 0.78539 0.2498 0.0
H126 H 0.01918 0.76001 0.36513 0.0
O127 O 0.14508 0.71401 0.3102 0.0
O128 O 0.15857 0.68255 0.12009 0.0
H129 H 0.00627 0.68929 0.84802 0.0
H130 H 0.0444 0.71354 0.76325 0.0
C131 C 0.03705 0.69727 0.85508 0.0
H132 H 0.05388 0.67052 0.86293 0.0
H133 H 0.1089 0.6553 0.76863 0.0
O134 O 0.09125 0.7784 0.42618 0.0
C135 C 0.16043 0.68583 0.24952 0.0
Co136 Co 0.23116 0.87596 0.82032 0.0
Co137 Co 0.27243 0.85856 0.09831 0.0
C138 C 0.19411 0.82551 1.01666 0.0
O139 O 0.19088 0.84181 0.90236 0.0
O140 O 0.2241 0.82984 0.08634 0.0
C141 C 0.22752 0.90199 0.5374 0.0
O142 O 0.20992 0.92309 0.44675 0.0
C143 C 0.25289 0.85322 0.3829 0.0
C144 C 0.29649 0.88974 0.47311 0.0
C145 C 0.2592 0.87687 0.49201 0.0
N146 N 0.28241 0.85555 0.29458 0.0
N147 N 0.3099 0.87487 0.35634 0.0
C148 C 0.21579 0.83256 0.36116 0.0
H149 H 0.22101 0.8045 0.31173 0.0
H150 H 0.19618 0.85092 0.30123 0.0
H151 H 0.20143 0.82704 0.45905 0.0
C152 C 0.23628 0.95519 0.92128 0.0
N153 N 0.24333 0.91732 0.93646 0.0
N154 N 0.26274 0.91163 0.04866 0.0
C155 C 0.26931 0.94647 0.10559 0.0
C156 C 0.25235 0.97469 1.02798 0.0
C157 C 0.21369 0.97258 0.8085 0.0
H158 H 0.18711 0.95574 0.7915 0.0
H159 H 0.20583 0.00281 0.83053 0.0
H160 H 0.2312 0.972 0.7152 0.0
O161 O 0.27719 0.84611 0.77016 0.0
O162 O 0.30865 0.83261 0.96026 0.0
H163 H 0.30189 0.98494 0.23237 0.0
H164 H 0.27766 0.9468 0.3171 0.0
C165 C 0.29393 0.95416 0.22528 0.0
H166 H 0.32068 0.93734 0.21744 0.0
H167 H 0.33591 0.88231 0.31169 0.0
O168 O 0.2128 0.89993 0.65419 0.0
C169 C 0.30537 0.83076 0.83083 0.0
Co170 Co 0.11523 0.23117 0.82024 0.0
Co171 Co 0.13263 0.27244 0.09825 0.0
C172 C 0.1657 0.19413 1.01656 0.0
O173 O 0.14939 0.19089 0.90226 0.0
O174 O 0.16136 0.22412 0.08625 0.0
C175 C 0.0892 0.22753 0.53732 0.0
O176 O 0.06809 0.20994 0.44666 0.0
C177 C 0.13796 0.25288 0.38282 0.0
C178 C 0.10146 0.2965 0.47306 0.0
C179 C 0.11432 0.2592 0.49193 0.0
N180 N 0.13565 0.28241 0.29452 0.0
N181 N 0.11633 0.30991 0.35629 0.0
C182 C 0.15859 0.21577 0.36105 0.0
H183 H 0.18667 0.22098 0.3117 0.0
H184 H 0.14023 0.19619 0.30101 0.0
H185 H 0.16409 0.20139 0.4589 0.0
C186 C 0.036 0.23626 0.92122 0.0
N187 N 0.07388 0.24333 0.93639 0.0
N188 N 0.07957 0.26274 0.04859 0.0
C189 C 0.04473 0.2693 0.10553 0.0
C190 C 0.01651 0.25233 1.02793 0.0
C191 C 0.01862 0.21367 0.80844 0.0
H192 H 0.03546 0.1871 0.79142 0.0
H193 H 0.98839 0.2058 0.83048 0.0
H194 H 0.01918 0.23118 0.71515 0.0
O195 O 0.14508 0.2772 0.7701 0.0
O196 O 0.15857 0.30866 0.96022 0.0
H197 H 0.00627 0.3019 0.23226 0.0
H198 H 0.0444 0.27766 0.31703 0.0
C199 C 0.03705 0.29393 0.2252 0.0
H200 H 0.05388 0.32068 0.21737 0.0
H201 H 0.10891 0.33592 0.31166 0.0
O202 O 0.09126 0.21281 0.65411 0.0
C203 C 0.16043 0.30539 0.83079 0.0
Co204 Co 0.76001 0.11522 0.82031 0.0
Co205 Co 0.71875 0.13264 0.0983 0.0
C206 C 0.79706 0.16569 1.01664 0.0
O207 O 0.8003 0.14937 0.90234 0.0
O208 O 0.76707 0.16136 0.08632 0.0
C209 C 0.76365 0.08919 0.53737 0.0
O210 O 0.78124 0.06808 0.44672 0.0
C211 C 0.73831 0.13796 0.38287 0.0
C212 C 0.69469 0.10148 0.47308 0.0
C213 C 0.73198 0.11432 0.49198 0.0
N214 N 0.70878 0.13566 0.29456 0.0
N215 N 0.68128 0.11635 0.35631 0.0
C216 C 0.77543 0.15858 0.36112 0.0
H217 H 0.77023 0.18666 0.31177 0.0
H218 H 0.795 0.14022 0.30108 0.0
H219 H 0.78981 0.16408 0.45899 0.0
C220 C 0.7549 0.03599 0.92129 0.0
N221 N 0.74784 0.07387 0.93645 0.0
N222 N 0.72843 0.07957 0.04864 0.0
C223 C 0.72187 0.04473 0.10559 0.0
C224 C 0.73883 0.01651 1.028 0.0
C225 C 0.77749 0.0186 0.80852 0.0
H226 H 0.80407 0.03543 0.79151 0.0
H227 H 0.78535 0.98837 0.83056 0.0
H228 H 0.75998 0.01917 0.71522 0.0
O229 O 0.71398 0.14507 0.77015 0.0
O230 O 0.68253 0.15858 0.96026 0.0
H231 H 0.68926 0.00628 0.23229 0.0
H232 H 0.71351 0.0444 0.31708 0.0
C233 C 0.69724 0.03706 0.22524 0.0
H234 H 0.67049 0.05389 0.21741 0.0
H235 H 0.65526 0.10893 0.31166 0.0
O236 O 0.77836 0.09124 0.65418 0.0
C237 C 0.6858 0.16043 0.83083 0.0
Co238 Co 0.87593 0.76003 0.82032 0.0
Co239 Co 0.85854 0.71876 0.0983 0.0
C240 C 0.82548 0.79707 1.01668 0.0
O241 O 0.84178 0.8003 0.90238 0.0
O242 O 0.82981 0.76708 0.08635 0.0
C243 C 0.90196 0.76367 0.53739 0.0
O244 O 0.92306 0.78127 0.44675 0.0
C245 C 0.8532 0.7383 0.38288 0.0
C246 C 0.88971 0.6947 0.47307 0.0
C247 C 0.87684 0.73199 0.49199 0.0
N248 N 0.85552 0.70878 0.29455 0.0
N249 N 0.87485 0.68129 0.35629 0.0
C250 C 0.83254 0.7754 0.36117 0.0
H251 H 0.80448 0.77018 0.31175 0.0
H252 H 0.85089 0.795 0.30123 0.0
H253 H 0.82702 0.78976 0.45906 0.0
C254 C 0.95517 0.75492 0.92129 0.0
N255 N 0.9173 0.74786 0.93645 0.0
N256 N 0.9116 0.72845 0.04865 0.0
C257 C 0.94645 0.7219 0.10559 0.0
C258 C 0.97467 0.73886 1.02799 0.0
C259 C 0.97255 0.77751 0.80851 0.0
H260 H 0.95571 0.80409 0.79152 0.0
H261 H 0.00278 0.78538 0.83054 0.0
H262 H 0.97198 0.76 0.71521 0.0
O263 O 0.84609 0.714 0.77014 0.0
O264 O 0.8326 0.68254 0.96023 0.0
H265 H 0.98491 0.68931 0.23234 0.0
H266 H 0.94677 0.71355 0.31708 0.0
C267 C 0.95413 0.69728 0.22526 0.0
H268 H 0.93731 0.67052 0.21741 0.0
H269 H 0.88228 0.65528 0.31162 0.0
O270 O 0.8999 0.77838 0.6542 0.0
C271 C 0.83074 0.68581 0.83081 0.0
Co272 Co 0.73115 0.61524 0.76001 0.0
Co273 Co 0.77242 0.63264 0.48203 0.0
C274 C 0.69411 0.6657 0.56369 0.0
O275 O 0.69087 0.64938 0.67798 0.0
O276 O 0.7241 0.66136 0.49401 0.0
C277 C 0.72752 0.5892 0.04292 0.0
O278 O 0.70993 0.56809 0.13356 0.0
C279 C 0.75287 0.63797 0.19745 0.0
C280 C 0.79649 0.60147 0.10723 0.0
C281 C 0.75919 0.61433 0.08834 0.0
N282 N 0.7824 0.63565 0.28577 0.0
N283 N 0.80989 0.61634 0.22402 0.0
C284 C 0.71576 0.65861 0.2192 0.0
H285 H 0.72097 0.68668 0.2686 0.0
H286 H 0.69618 0.64025 0.27918 0.0
H287 H 0.70139 0.66412 0.12133 0.0
C288 C 0.73627 0.536 0.65901 0.0
N289 N 0.74332 0.57388 0.64386 0.0
N290 N 0.76273 0.57957 0.53167 0.0
C291 C 0.7693 0.54473 0.47472 0.0
C292 C 0.75233 0.51651 0.55229 0.0
C293 C 0.71368 0.51862 0.77178 0.0
H294 H 0.6871 0.53545 0.78879 0.0
H295 H 0.70582 0.48839 0.74974 0.0
H296 H 0.73119 0.51919 0.86508 0.0
O297 O 0.77718 0.64508 0.81019 0.0
O298 O 0.80864 0.65858 0.62009 0.0
H299 H 0.8019 0.50627 0.34798 0.0
H300 H 0.77766 0.5444 0.26322 0.0
C301 C 0.79393 0.53705 0.35506 0.0
H302 H 0.82068 0.55388 0.36291 0.0
H303 H 0.83591 0.60891 0.26867 0.0
O304 O 0.7128 0.59126 0.92612 0.0
C305 C 0.80537 0.66043 0.74952 0.0
Co306 Co 0.37595 0.73117 0.76004 0.0
Co307 Co 0.35853 0.77244 0.48207 0.0
C308 C 0.32547 0.69412 0.56371 0.0
O309 O 0.34179 0.69089 0.678 0.0
O310 O 0.32981 0.72412 0.49404 0.0
C311 C 0.40198 0.72753 0.04296 0.0
O312 O 0.42309 0.70994 0.1336 0.0
C313 C 0.35321 0.75287 0.19749 0.0
C314 C 0.38969 0.7965 0.10728 0.0
C315 C 0.37685 0.7592 0.08838 0.0
N316 N 0.35552 0.7824 0.2858 0.0
N317 N 0.37482 0.8099 0.22405 0.0
C318 C 0.33258 0.71576 0.21924 0.0
H319 H 0.30451 0.72096 0.26859 0.0
H320 H 0.35095 0.69619 0.27926 0.0
H321 H 0.32709 0.70138 0.12137 0.0
C322 C 0.45517 0.73627 0.65903 0.0
N323 N 0.4173 0.74333 0.64389 0.0
N324 N 0.4116 0.76274 0.5317 0.0
C325 C 0.44644 0.7693 0.47475 0.0
C326 C 0.47466 0.75233 0.5523 0.0
C327 C 0.47256 0.71369 0.7718 0.0
H328 H 0.45573 0.68711 0.78881 0.0
H329 H 0.50279 0.70582 0.74975 0.0
H330 H 0.472 0.7312 0.8651 0.0
O331 O 0.3461 0.7772 0.81021 0.0
O332 O 0.33259 0.80866 0.62012 0.0
H333 H 0.48489 0.80191 0.34806 0.0
H334 H 0.44677 0.77767 0.26325 0.0
C335 C 0.45412 0.79394 0.35511 0.0
H336 H 0.43728 0.82068 0.36296 0.0
H337 H 0.38224 0.83592 0.26871 0.0
O338 O 0.39993 0.71282 0.92615 0.0
C339 C 0.33075 0.80539 0.74955 0.0
Co340 Co 0.26 0.37597 0.76005 0.0
Co341 Co 0.21873 0.35856 0.48204 0.0
C342 C 0.29705 0.32551 0.56371 0.0
O343 O 0.30028 0.34183 0.67801 0.0
O344 O 0.26706 0.32984 0.49402 0.0
C345 C 0.26365 0.40199 0.043 0.0
O346 O 0.28124 0.42309 0.13368 0.0
C347 C 0.23829 0.35322 0.19747 0.0
C348 C 0.19468 0.38972 0.10725 0.0
C349 C 0.23197 0.37686 0.08837 0.0
N350 N 0.20876 0.35554 0.28577 0.0
N351 N 0.18127 0.37485 0.22401 0.0
C352 C 0.2754 0.33258 0.21921 0.0
H353 H 0.27019 0.30451 0.2686 0.0
H354 H 0.29499 0.35094 0.27919 0.0
H355 H 0.28976 0.32706 0.12133 0.0
C356 C 0.25489 0.4552 0.65907 0.0
N357 N 0.24783 0.41733 0.64391 0.0
N358 N 0.22842 0.41163 0.53171 0.0
C359 C 0.22186 0.44646 0.47475 0.0
C360 C 0.23883 0.47469 0.55233 0.0
C361 C 0.27747 0.47259 0.77186 0.0
H362 H 0.30405 0.45576 0.78887 0.0
H363 H 0.28533 0.50282 0.74983 0.0
H364 H 0.25996 0.47202 0.86515 0.0
O365 O 0.21397 0.34612 0.8102 0.0
O366 O 0.18252 0.33261 0.62008 0.0
H367 H 0.18925 0.48492 0.34803 0.0
H368 H 0.2135 0.44679 0.26325 0.0
C369 C 0.19723 0.45414 0.35509 0.0
H370 H 0.17048 0.43731 0.36292 0.0
H371 H 0.15525 0.38227 0.26865 0.0
O372 O 0.27835 0.39995 0.92619 0.0
C373 C 0.18579 0.33076 0.74951 0.0
Co374 Co 0.61524 0.26003 0.7601 0.0
Co375 Co 0.63264 0.21875 0.48209 0.0
C376 C 0.66571 0.29707 0.56377 0.0
O377 O 0.6494 0.3003 0.67807 0.0
O378 O 0.66136 0.26707 0.49407 0.0
C379 C 0.58921 0.26367 0.04302 0.0
O380 O 0.56811 0.28126 0.13368 0.0
C381 C 0.63797 0.2383 0.19751 0.0
C382 C 0.60146 0.19469 0.10728 0.0
C383 C 0.61433 0.23198 0.0884 0.0
N384 N 0.63565 0.20877 0.28582 0.0
N385 N 0.61633 0.18128 0.22405 0.0
C386 C 0.65863 0.2754 0.21926 0.0
H387 H 0.68669 0.27018 0.26867 0.0
H388 H 0.64027 0.295 0.27924 0.0
H389 H 0.66414 0.28976 0.12139 0.0
C390 C 0.53601 0.25493 0.65911 0.0
N391 N 0.57388 0.24786 0.64395 0.0
N392 N 0.57957 0.22845 0.53175 0.0
C393 C 0.54473 0.2219 0.47479 0.0
C394 C 0.51651 0.23887 0.55238 0.0
C395 C 0.51863 0.27752 0.7719 0.0
H396 H 0.53547 0.30409 0.78892 0.0
H397 H 0.4884 0.28539 0.74987 0.0
H398 H 0.5192 0.26001 0.86519 0.0
O399 O 0.64508 0.21399 0.81024 0.0
O400 O 0.65858 0.18253 0.62012 0.0
H401 H 0.50626 0.18931 0.34803 0.0
H402 H 0.5444 0.21354 0.26329 0.0
C403 C 0.53704 0.19727 0.35511 0.0
H404 H 0.55386 0.17052 0.36295 0.0
H405 H 0.60889 0.15527 0.26869 0.0
O406 O 0.59127 0.27838 0.92623 0.0
C407 C 0.66043 0.1858 0.74955 0.0
Co408 Co 0.73116 0.37593 0.32031 0.0
Co409 Co 0.77244 0.35854 0.59831 0.0
C410 C 0.69412 0.32548 0.51667 0.0
O411 O 0.69089 0.34178 0.40236 0.0
O412 O 0.72411 0.32982 0.58635 0.0
C413 C 0.72752 0.40196 1.03738 0.0
O414 O 0.70992 0.42305 0.94673 0.0
C415 C 0.7529 0.35319 0.88289 0.0
C416 C 0.7965 0.38973 0.9731 0.0
C417 C 0.75921 0.37685 0.992 0.0
N418 N 0.78242 0.35553 0.79457 0.0
N419 N 0.80991 0.37486 0.85632 0.0
C420 C 0.71581 0.33252 0.86118 0.0
H421 H 0.72104 0.30446 0.81171 0.0
H422 H 0.6962 0.35087 0.80127 0.0
H423 H 0.70147 0.32698 0.95907 0.0
C424 C 0.73628 0.45517 0.42125 0.0
N425 N 0.74333 0.4173 0.43644 0.0
N426 N 0.76275 0.41161 0.54864 0.0
C427 C 0.76931 0.44645 0.60557 0.0
C428 C 0.75235 0.47467 0.52795 0.0
C429 C 0.71369 0.47255 0.30847 0.0
H430 H 0.68711 0.45571 0.29147 0.0
H431 H 0.70582 0.50278 0.33049 0.0
H432 H 0.73119 0.47197 0.21517 0.0
O433 O 0.77719 0.34608 0.27015 0.0
O434 O 0.80866 0.33259 0.46025 0.0
H435 H 0.80188 0.48493 0.73237 0.0
H436 H 0.77765 0.44678 0.81708 0.0
C437 C 0.79392 0.45414 0.72527 0.0
H438 H 0.82068 0.43733 0.71743 0.0
H439 H 0.83592 0.3823 0.81167 0.0
O440 O 0.7128 0.3999 0.15418 0.0
C441 C 0.80538 0.33074 0.33082 0.0
Co442 Co 0.61522 0.73116 0.32028 0.0
Co443 Co 0.63263 0.77243 0.59829 0.0
C444 C 0.66569 0.69411 0.5166 0.0
O445 O 0.64938 0.69088 0.4023 0.0
O446 O 0.66135 0.72411 0.58629 0.0
C447 C 0.58919 0.72751 1.03735 0.0
O448 O 0.56809 0.70992 0.94668 0.0
C449 C 0.63796 0.75287 0.88286 0.0
C450 C 0.60146 0.79648 0.9731 0.0
C451 C 0.61432 0.75919 0.99197 0.0
N452 N 0.63564 0.7824 0.79456 0.0
N453 N 0.61633 0.8099 0.85633 0.0
C454 C 0.6586 0.71576 0.8611 0.0
H455 H 0.68667 0.72097 0.81172 0.0
H456 H 0.64024 0.69618 0.80108 0.0
H457 H 0.66411 0.70139 0.95896 0.0
C458 C 0.53599 0.73627 0.42125 0.0
N459 N 0.57387 0.74333 0.43642 0.0
N460 N 0.57956 0.76274 0.54862 0.0
C461 C 0.54472 0.7693 0.60556 0.0
C462 C 0.5165 0.75234 0.52796 0.0
C463 C 0.51861 0.71368 0.30846 0.0
H464 H 0.53544 0.6871 0.29145 0.0
H465 H 0.48838 0.70581 0.33049 0.0
H466 H 0.51918 0.73119 0.21517 0.0
O467 O 0.64507 0.77719 0.27014 0.0
O468 O 0.65857 0.80865 0.46026 0.0
H469 H 0.50626 0.8019 0.7323 0.0
H470 H 0.54439 0.77766 0.81706 0.0
C471 C 0.53704 0.79393 0.72523 0.0
H472 H 0.55387 0.82068 0.7174 0.0
H473 H 0.6089 0.83591 0.8117 0.0
O474 O 0.59125 0.7128 0.15414 0.0
C475 C 0.66042 0.80538 0.33083 0.0
Co476 Co 0.26 0.61524 0.32029 0.0
Co477 Co 0.21874 0.63266 0.59827 0.0
C478 C 0.29705 0.66571 0.51662 0.0
O479 O 0.30029 0.64939 0.40232 0.0
O480 O 0.26706 0.66138 0.58629 0.0
C481 C 0.26365 0.58921 1.03735 0.0
O482 O 0.28123 0.5681 0.9467 0.0
C483 C 0.2383 0.63798 0.88285 0.0
C484 C 0.19468 0.6015 0.97306 0.0
C485 C 0.23198 0.61434 0.99195 0.0
N486 N 0.20877 0.63568 0.79454 0.0
N487 N 0.18127 0.61637 0.8563 0.0
C488 C 0.27542 0.6586 0.86109 0.0
H489 H 0.27022 0.68668 0.81175 0.0
H490 H 0.29499 0.64024 0.80105 0.0
H491 H 0.2898 0.6641 0.95896 0.0
C492 C 0.25489 0.53601 0.42127 0.0
N493 N 0.24784 0.57389 0.43643 0.0
N494 N 0.22842 0.57959 0.54861 0.0
C495 C 0.22186 0.54475 0.60556 0.0
C496 C 0.23882 0.51653 0.52798 0.0
C497 C 0.27748 0.51862 0.3085 0.0
H498 H 0.30406 0.53546 0.2915 0.0
H499 H 0.28535 0.4884 0.33055 0.0
H500 H 0.25997 0.51919 0.2152 0.0
O501 O 0.21398 0.64509 0.27013 0.0
O502 O 0.18252 0.6586 0.46023 0.0
H503 H 0.18924 0.5063 0.73224 0.0
H504 H 0.2135 0.54442 0.81705 0.0
C505 C 0.19723 0.53708 0.72521 0.0
H506 H 0.17048 0.55391 0.71736 0.0
H507 H 0.15526 0.60895 0.81165 0.0
O508 O 0.27835 0.59126 0.15416 0.0
C509 C 0.18579 0.66045 0.3308 0.0
Co510 Co 0.37595 0.26006 0.32033 0.0
Co511 Co 0.35854 0.21879 0.59829 0.0
C512 C 0.32548 0.2971 0.51662 0.0
O513 O 0.3418 0.30034 0.40235 0.0
O514 O 0.32981 0.26711 0.58629 0.0
C515 C 0.402 0.26369 1.03743 0.0
O516 O 0.42312 0.28128 0.94681 0.0
C517 C 0.35323 0.23836 0.88286 0.0
C518 C 0.38971 0.19473 0.97309 0.0
C519 C 0.37687 0.23203 0.99199 0.0
N520 N 0.35553 0.20883 0.79455 0.0
N521 N 0.37483 0.18133 0.85631 0.0
C522 C 0.33263 0.27549 0.86108 0.0
H523 H 0.30455 0.2703 0.81178 0.0
H524 H 0.351 0.29504 0.80099 0.0
H525 H 0.32716 0.28989 0.95893 0.0
C526 C 0.45518 0.25495 0.42134 0.0
N527 N 0.41731 0.2479 0.43648 0.0
N528 N 0.41161 0.22848 0.54866 0.0
C529 C 0.44645 0.22191 0.60561 0.0
C530 C 0.47467 0.23887 0.52804 0.0
C531 C 0.47258 0.27754 0.30858 0.0
H532 H 0.45574 0.30412 0.29157 0.0
H533 H 0.5028 0.2854 0.33064 0.0
H534 H 0.47201 0.26003 0.21528 0.0
O535 O 0.34611 0.21403 0.27014 0.0
O536 O 0.33261 0.18257 0.46024 0.0
H537 H 0.4849 0.18929 0.73229 0.0
H538 H 0.44678 0.21355 0.8171 0.0
C539 C 0.45412 0.19728 0.72525 0.0
H540 H 0.43728 0.17053 0.71738 0.0
H541 H 0.38225 0.15531 0.81165 0.0
O542 O 0.39994 0.27841 0.15423 0.0
C543 C 0.33076 0.18584 0.33081 0.0
loop_
_geom_bond_atom_site_label_1
_geom_bond_atom_site_label_2
_geom_bond_distance
_geom_bond_site_symmetry_2
_ccdc_geom_bond_type
Co0 O3 1.970 . S
Co0 N17 1.989 . S
Co0 O25 1.967 . S
Co0 O32 1.920 . S
Co1 O4 1.966 . S
Co1 N10 2.022 . S
Co1 N18 1.992 1_556 S
Co1 O26 1.941 1_556 S
C2 O3 1.258 . S
C2 O4 1.263 1_554 S
O3 Co0 1.970 . S
O3 C2 1.258 . S
O4 Co1 1.966 . S
O4 C2 1.263 1_556 S
C5 O6 1.235 . S
C5 O32 1.289 . S
O6 C5 1.235 . S
C7 C9 1.400 . S
C7 N10 1.351 . S
C7 C12 1.501 . S
C8 C9 1.387 . S
C8 N11 1.341 . S
C9 C7 1.400 . S
C9 C8 1.387 . S
N10 Co1 2.022 . S
N10 C7 1.351 . S
N10 N11 1.365 . S
N11 C8 1.341 . S
N11 N10 1.365 . S
N11 H31 0.862 . S
C12 C7 1.501 . S
C12 H13 0.961 . S
C12 H14 0.961 . S
C12 H15 0.960 . S
H13 C12 0.961 . S
H14 C12 0.961 . S
H15 C12 0.960 . S
C16 N17 1.342 . S
C16 C20 1.401 . S
C16 C21 1.499 . S
N17 Co0 1.989 . S
N17 C16 1.342 . S
N17 N18 1.393 . S
N18 Co1 1.992 1_554 S
N18 N17 1.393 . S
N18 C19 1.344 1_554 S
C19 N18 1.344 1_556 S
C19 C20 1.396 1_556 S
C19 C29 1.510 . S
C20 C16 1.401 . S
C20 C19 1.396 1_554 S
C21 C16 1.499 . S
C21 H22 0.959 . S
C21 H23 0.960 . S
C21 H24 0.961 . S
H22 C21 0.959 . S
H23 C21 0.960 . S
H24 C21 0.961 . S
O25 Co0 1.967 . S
O25 C33 1.258 . S
O26 Co1 1.941 1_554 S
O26 C33 1.266 . S
H27 C29 0.959 . S
H28 C29 0.961 . S
C29 C19 1.510 . S
C29 H27 0.959 . S
C29 H28 0.961 . S
C29 H30 0.960 . S
H30 C29 0.960 . S
H31 N11 0.862 . S
O32 Co0 1.920 . S
O32 C5 1.289 . S
C33 O25 1.258 . S
C33 O26 1.266 . S
Co34 O37 1.970 . S
Co34 N51 1.989 . S
Co34 O59 1.967 . S
Co34 O66 1.920 . S
Co35 O38 1.966 . S
Co35 N44 2.022 . S
Co35 N52 1.992 1_556 S
Co35 O60 1.941 1_556 S
C36 O37 1.258 . S
C36 O38 1.263 1_554 S
O37 Co34 1.970 . S
O37 C36 1.258 . S
O38 Co35 1.966 . S
O38 C36 1.263 1_556 S
C39 O40 1.235 . S
C39 O66 1.289 . S
O40 C39 1.235 . S
C41 C43 1.400 . S
C41 N44 1.351 . S
C41 C46 1.501 . S
C42 C43 1.387 . S
C42 N45 1.341 . S
C43 C41 1.400 . S
C43 C42 1.387 . S
N44 Co35 2.022 . S
N44 C41 1.351 . S
N44 N45 1.365 . S
N45 C42 1.341 . S
N45 N44 1.365 . S
N45 H65 0.862 . S
C46 C41 1.501 . S
C46 H47 0.961 . S
C46 H48 0.961 . S
C46 H49 0.960 . S
H47 C46 0.961 . S
H48 C46 0.961 . S
H49 C46 0.960 . S
C50 N51 1.342 . S
C50 C54 1.401 . S
C50 C55 1.499 . S
N51 Co34 1.989 . S
N51 C50 1.342 . S
N51 N52 1.393 . S
N52 Co35 1.992 1_554 S
N52 N51 1.393 . S
N52 C53 1.344 1_554 S
C53 N52 1.344 1_556 S
C53 C54 1.396 1_556 S
C53 C63 1.510 . S
C54 C50 1.401 . S
C54 C53 1.396 1_554 S
C55 C50 1.499 . S
C55 H56 0.959 . S
C55 H57 0.960 . S
C55 H58 0.961 . S
H56 C55 0.959 . S
H57 C55 0.960 . S
H58 C55 0.961 . S
O59 Co34 1.967 . S
O59 C67 1.258 . S
O60 Co35 1.941 1_554 S
O60 C67 1.266 . S
H61 C63 0.959 . S
H62 C63 0.961 . S
C63 C53 1.510 . S
C63 H61 0.959 . S
C63 H62 0.961 . S
C63 H64 0.960 . S
H64 C63 0.960 . S
H65 N45 0.862 . S
O66 Co34 1.920 . S
O66 C39 1.289 . S
C67 O59 1.258 . S
C67 O60 1.266 . S
Co68 O71 1.970 . S
Co68 N85 1.989 . S
Co68 O93 1.967 . S
Co68 O100 1.920 . S
Co69 O72 1.966 . S
Co69 N78 2.022 . S
Co69 N86 1.992 1_556 S
Co69 O94 1.941 1_556 S
C70 O71 1.258 . S
C70 O72 1.263 1_554 S
O71 Co68 1.970 . S
O71 C70 1.258 . S
O72 Co69 1.966 . S
O72 C70 1.263 1_556 S
C73 O74 1.235 . S
C73 O100 1.289 . S
O74 C73 1.235 . S
C75 C77 1.400 . S
C75 N78 1.351 . S
C75 C80 1.501 . S
C76 C77 1.387 . S
C76 N79 1.341 . S
C77 C75 1.400 . S
C77 C76 1.387 . S
N78 Co69 2.022 . S
N78 C75 1.351 . S
N78 N79 1.365 . S
N79 C76 1.341 . S
N79 N78 1.365 . S
N79 H99 0.862 . S
C80 C75 1.501 . S
C80 H81 0.961 . S
C80 H82 0.961 . S
C80 H83 0.960 . S
H81 C80 0.961 . S
H82 C80 0.961 . S
H83 C80 0.960 . S
C84 N85 1.342 . S
C84 C88 1.401 . S
C84 C89 1.499 . S
N85 Co68 1.989 . S
N85 C84 1.342 . S
N85 N86 1.393 . S
N86 Co69 1.992 1_554 S
N86 N85 1.393 . S
N86 C87 1.344 1_554 S
C87 N86 1.344 1_556 S
C87 C88 1.396 1_556 S
C87 C97 1.510 . S
C88 C84 1.401 . S
C88 C87 1.396 1_554 S
C89 C84 1.499 . S
C89 H90 0.959 . S
C89 H91 0.960 . S
C89 H92 0.961 . S
H90 C89 0.959 . S
H91 C89 0.960 . S
H92 C89 0.961 . S
O93 Co68 1.967 . S
O93 C101 1.258 . S
O94 Co69 1.941 1_554 S
O94 C101 1.266 . S
H95 C97 0.959 . S
H96 C97 0.961 . S
C97 C87 1.510 . S
C97 H95 0.959 . S
C97 H96 0.961 . S
C97 H98 0.960 . S
H98 C97 0.960 . S
H99 N79 0.862 . S
O100 Co68 1.920 . S
O100 C73 1.289 . S
C101 O93 1.258 . S
C101 O94 1.266 . S
Co102 O105 1.970 . S
Co102 N119 1.989 . S
Co102 O127 1.967 . S
Co102 O134 1.920 . S
Co103 O106 1.966 . S
Co103 N112 2.022 . S
Co103 N120 1.992 1_556 S
Co103 O128 1.941 1_556 S
C104 O105 1.258 . S
C104 O106 1.263 1_554 S
O105 Co102 1.970 . S
O105 C104 1.258 . S
O106 Co103 1.966 . S
O106 C104 1.263 1_556 S
C107 O108 1.235 . S
C107 O134 1.289 . S
O108 C107 1.235 . S
C109 C111 1.400 . S
C109 N112 1.351 . S
C109 C114 1.501 . S
C110 C111 1.387 . S
C110 N113 1.341 . S
C111 C109 1.400 . S
C111 C110 1.387 . S
N112 Co103 2.022 . S
N112 C109 1.351 . S
N112 N113 1.365 . S
N113 C110 1.341 . S
N113 N112 1.365 . S
N113 H133 0.862 . S
C114 C109 1.501 . S
C114 H115 0.961 . S
C114 H116 0.961 . S
C114 H117 0.960 . S
H115 C114 0.961 . S
H116 C114 0.961 . S
H117 C114 0.960 . S
C118 N119 1.342 . S
C118 C122 1.401 . S
C118 C123 1.499 . S
N119 Co102 1.989 . S
N119 C118 1.342 . S
N119 N120 1.393 . S
N120 Co103 1.992 1_554 S
N120 N119 1.393 . S
N120 C121 1.344 1_554 S
C121 N120 1.344 1_556 S
C121 C122 1.396 1_556 S
C121 C131 1.510 . S
C122 C118 1.401 . S
C122 C121 1.396 1_554 S
C123 C118 1.499 . S
C123 H124 0.959 . S
C123 H125 0.960 . S
C123 H126 0.961 . S
H124 C123 0.959 . S
H125 C123 0.960 . S
H126 C123 0.961 . S
O127 Co102 1.967 . S
O127 C135 1.258 . S
O128 Co103 1.941 1_554 S
O128 C135 1.266 . S
H129 C131 0.959 . S
H130 C131 0.961 . S
C131 C121 1.510 . S
C131 H129 0.959 . S
C131 H130 0.961 . S
C131 H132 0.960 . S
H132 C131 0.960 . S
H133 N113 0.862 . S
O134 Co102 1.920 . S
O134 C107 1.289 . S
C135 O127 1.258 . S
C135 O128 1.266 . S
Co136 O139 1.970 . S
Co136 N153 1.989 . S
Co136 O161 1.967 . S
Co136 O168 1.920 . S
Co137 O140 1.966 . S
Co137 N146 2.022 . S
Co137 N154 1.992 1_554 S
Co137 O162 1.941 1_554 S
C138 O139 1.258 . S
C138 O140 1.263 1_556 S
O139 Co136 1.970 . S
O139 C138 1.258 . S
O140 Co137 1.966 . S
O140 C138 1.263 1_554 S
C141 O142 1.235 . S
C141 O168 1.289 . S
O142 C141 1.235 . S
C143 C145 1.400 . S
C143 N146 1.351 . S
C143 C148 1.501 . S
C144 C145 1.387 . S
C144 N147 1.341 . S
C145 C143 1.400 . S
C145 C144 1.387 . S
N146 Co137 2.022 . S
N146 C143 1.351 . S
N146 N147 1.365 . S
N147 C144 1.341 . S
N147 N146 1.365 . S
N147 H167 0.862 . S
C148 C143 1.501 . S
C148 H149 0.961 . S
C148 H150 0.961 . S
C148 H151 0.960 . S
H149 C148 0.961 . S
H150 C148 0.961 . S
H151 C148 0.960 . S
C152 N153 1.342 . S
C152 C156 1.401 . S
C152 C157 1.499 . S
N153 Co136 1.989 . S
N153 C152 1.342 . S
N153 N154 1.393 . S
N154 Co137 1.992 1_556 S
N154 N153 1.393 . S
N154 C155 1.344 1_556 S
C155 N154 1.344 1_554 S
C155 C156 1.396 1_554 S
C155 C165 1.510 . S
C156 C152 1.401 . S
C156 C155 1.396 1_556 S
C157 C152 1.499 . S
C157 H158 0.959 . S
C157 H159 0.960 . S
C157 H160 0.961 . S
H158 C157 0.959 . S
H159 C157 0.960 . S
H160 C157 0.961 . S
O161 Co136 1.967 . S
O161 C169 1.258 . S
O162 Co137 1.941 1_556 S
O162 C169 1.266 . S
H163 C165 0.959 . S
H164 C165 0.961 . S
C165 C155 1.510 . S
C165 H163 0.959 . S
C165 H164 0.961 . S
C165 H166 0.960 . S
H166 C165 0.960 . S
H167 N147 0.862 . S
O168 Co136 1.920 . S
O168 C141 1.289 . S
C169 O161 1.258 . S
C169 O162 1.266 . S
Co170 O173 1.970 . S
Co170 N187 1.989 . S
Co170 O195 1.967 . S
Co170 O202 1.920 . S
Co171 O174 1.966 . S
Co171 N180 2.022 . S
Co171 N188 1.992 1_554 S
Co171 O196 1.941 1_554 S
C172 O173 1.258 . S
C172 O174 1.263 1_556 S
O173 Co170 1.970 . S
O173 C172 1.258 . S
O174 Co171 1.966 . S
O174 C172 1.263 1_554 S
C175 O176 1.235 . S
C175 O202 1.289 . S
O176 C175 1.235 . S
C177 C179 1.400 . S
C177 N180 1.351 . S
C177 C182 1.501 . S
C178 C179 1.387 . S
C178 N181 1.341 . S
C179 C177 1.400 . S
C179 C178 1.387 . S
N180 Co171 2.022 . S
N180 C177 1.351 . S
N180 N181 1.365 . S
N181 C178 1.341 . S
N181 N180 1.365 . S
N181 H201 0.862 . S
C182 C177 1.501 . S
C182 H183 0.961 . S
C182 H184 0.961 . S
C182 H185 0.960 . S
H183 C182 0.961 . S
H184 C182 0.961 . S
H185 C182 0.960 . S
C186 N187 1.342 . S
C186 C190 1.401 . S
C186 C191 1.499 . S
N187 Co170 1.989 . S
N187 C186 1.342 . S
N187 N188 1.393 . S
N188 Co171 1.992 1_556 S
N188 N187 1.393 . S
N188 C189 1.344 1_556 S
C189 N188 1.344 1_554 S
C189 C190 1.396 1_554 S
C189 C199 1.510 . S
C190 C186 1.401 . S
C190 C189 1.396 1_556 S
C191 C186 1.499 . S
C191 H192 0.959 . S
C191 H193 0.960 . S
C191 H194 0.961 . S
H192 C191 0.959 . S
H193 C191 0.960 . S
H194 C191 0.961 . S
O195 Co170 1.967 . S
O195 C203 1.258 . S
O196 Co171 1.941 1_556 S
O196 C203 1.266 . S
H197 C199 0.959 . S
H198 C199 0.961 . S
C199 C189 1.510 . S
C199 H197 0.959 . S
C199 H198 0.961 . S
C199 H200 0.960 . S
H200 C199 0.960 . S
H201 N181 0.862 . S
O202 Co170 1.920 . S
O202 C175 1.289 . S
C203 O195 1.258 . S
C203 O196 1.266 . S
Co204 O207 1.970 . S
Co204 N221 1.989 . S
Co204 O229 1.967 . S
Co204 O236 1.920 . S
Co205 O208 1.966 . S
Co205 N214 2.022 . S
Co205 N222 1.992 1_554 S
Co205 O230 1.941 1_554 S
C206 O207 1.258 . S
C206 O208 1.263 1_556 S
O207 Co204 1.970 . S
O207 C206 1.258 . S
O208 Co205 1.966 . S
O208 C206 1.263 1_554 S
C209 O210 1.235 . S
C209 O236 1.289 . S
O210 C209 1.235 . S
C211 C213 1.400 . S
C211 N214 1.351 . S
C211 C216 1.501 . S
C212 C213 1.387 . S
C212 N215 1.341 . S
C213 C211 1.400 . S
C213 C212 1.387 . S
N214 Co205 2.022 . S
N214 C211 1.351 . S
N214 N215 1.365 . S
N215 C212 1.341 . S
N215 N214 1.365 . S
N215 H235 0.862 . S
C216 C211 1.501 . S
C216 H217 0.961 . S
C216 H218 0.961 . S
C216 H219 0.960 . S
H217 C216 0.961 . S
H218 C216 0.961 . S
H219 C216 0.960 . S
C220 N221 1.342 . S
C220 C224 1.401 . S
C220 C225 1.499 . S
N221 Co204 1.989 . S
N221 C220 1.342 . S
N221 N222 1.393 . S
N222 Co205 1.992 1_556 S
N222 N221 1.393 . S
N222 C223 1.344 1_556 S
C223 N222 1.344 1_554 S
C223 C224 1.396 1_554 S
C223 C233 1.510 . S
C224 C220 1.401 . S
C224 C223 1.396 1_556 S
C225 C220 1.499 . S
C225 H226 0.959 . S
C225 H227 0.960 . S
C225 H228 0.961 . S
H226 C225 0.959 . S
H227 C225 0.960 . S
H228 C225 0.961 . S
O229 Co204 1.967 . S
O229 C237 1.258 . S
O230 Co205 1.941 1_556 S
O230 C237 1.266 . S
H231 C233 0.959 . S
H232 C233 0.961 . S
C233 C223 1.510 . S
C233 H231 0.959 . S
C233 H232 0.961 . S
C233 H234 0.960 . S
H234 C233 0.960 . S
H235 N215 0.862 . S
O236 Co204 1.920 . S
O236 C209 1.289 . S
C237 O229 1.258 . S
C237 O230 1.266 . S
Co238 O241 1.970 . S
Co238 N255 1.989 . S
Co238 O263 1.967 . S
Co238 O270 1.920 . S
Co239 O242 1.966 . S
Co239 N248 2.022 . S
Co239 N256 1.992 1_554 S
Co239 O264 1.941 1_554 S
C240 O241 1.258 . S
C240 O242 1.263 1_556 S
O241 Co238 1.970 . S
O241 C240 1.258 . S
O242 Co239 1.966 . S
O242 C240 1.263 1_554 S
C243 O244 1.235 . S
C243 O270 1.289 . S
O244 C243 1.235 . S
C245 C247 1.400 . S
C245 N248 1.351 . S
C245 C250 1.501 . S
C246 C247 1.387 . S
C246 N249 1.341 . S
C247 C245 1.400 . S
C247 C246 1.387 . S
N248 Co239 2.022 . S
N248 C245 1.351 . S
N248 N249 1.365 . S
N249 C246 1.341 . S
N249 N248 1.365 . S
N249 H269 0.862 . S
C250 C245 1.501 . S
C250 H251 0.961 . S
C250 H252 0.961 . S
C250 H253 0.960 . S
H251 C250 0.961 . S
H252 C250 0.961 . S
H253 C250 0.960 . S
C254 N255 1.342 . S
C254 C258 1.401 . S
C254 C259 1.499 . S
N255 Co238 1.989 . S
N255 C254 1.342 . S
N255 N256 1.393 . S
N256 Co239 1.992 1_556 S
N256 N255 1.393 . S
N256 C257 1.344 1_556 S
C257 N256 1.344 1_554 S
C257 C258 1.396 1_554 S
C257 C267 1.510 . S
C258 C254 1.401 . S
C258 C257 1.396 1_556 S
C259 C254 1.499 . S
C259 H260 0.959 . S
C259 H261 0.960 . S
C259 H262 0.961 . S
H260 C259 0.959 . S
H261 C259 0.960 . S
H262 C259 0.961 . S
O263 Co238 1.967 . S
O263 C271 1.258 . S
O264 Co239 1.941 1_556 S
O264 C271 1.266 . S
H265 C267 0.959 . S
H266 C267 0.961 . S
C267 C257 1.510 . S
C267 H265 0.959 . S
C267 H266 0.961 . S
C267 H268 0.960 . S
H268 C267 0.960 . S
H269 N249 0.862 . S
O270 Co238 1.920 . S
O270 C243 1.289 . S
C271 O263 1.258 . S
C271 O264 1.266 . S
Co272 O275 1.970 . S
Co272 N289 1.989 . S
Co272 O297 1.967 . S
Co272 O304 1.920 . S
Co273 O276 1.966 . S
Co273 N282 2.022 . S
Co273 N290 1.993 . S
Co273 O298 1.941 . S
C274 O275 1.258 . S
C274 O276 1.263 . S
O275 Co272 1.970 . S
O275 C274 1.258 . S
O276 Co273 1.966 . S
O276 C274 1.263 . S
C277 O278 1.235 . S
C277 O304 1.289 . S
O278 C277 1.235 . S
C279 C281 1.400 . S
C279 N282 1.351 . S
C279 C284 1.501 . S
C280 C281 1.387 . S
C280 N283 1.341 . S
C281 C279 1.400 . S
C281 C280 1.387 . S
N282 Co273 2.022 . S
N282 C279 1.351 . S
N282 N283 1.365 . S
N283 C280 1.341 . S
N283 N282 1.365 . S
N283 H303 0.862 . S
C284 C279 1.501 . S
C284 H285 0.961 . S
C284 H286 0.961 . S
C284 H287 0.960 . S
H285 C284 0.961 . S
H286 C284 0.961 . S
H287 C284 0.960 . S
C288 N289 1.342 . S
C288 C292 1.401 . S
C288 C293 1.499 . S
N289 Co272 1.989 . S
N289 C288 1.342 . S
N289 N290 1.388 . S
N290 Co273 1.993 . S
N290 N289 1.388 . S
N290 C291 1.346 . S
C291 N290 1.346 . S
C291 C292 1.396 . S
C291 C301 1.510 . S
C292 C288 1.401 . S
C292 C291 1.396 . S
C293 C288 1.499 . S
C293 H294 0.959 . S
C293 H295 0.960 . S
C293 H296 0.961 . S
H294 C293 0.959 . S
H295 C293 0.960 . S
H296 C293 0.961 . S
O297 Co272 1.967 . S
O297 C305 1.258 . S
O298 Co273 1.941 . S
O298 C305 1.266 . S
H299 C301 0.959 . S
H300 C301 0.961 . S
C301 C291 1.510 . S
C301 H299 0.959 . S
C301 H300 0.961 . S
C301 H302 0.960 . S
H302 C301 0.960 . S
H303 N283 0.862 . S
O304 Co272 1.920 . S
O304 C277 1.289 . S
C305 O297 1.258 . S
C305 O298 1.266 . S
Co306 O309 1.970 . S
Co306 N323 1.989 . S
Co306 O331 1.967 . S
Co306 O338 1.920 . S
Co307 O310 1.966 . S
Co307 N316 2.022 . S
Co307 N324 1.993 . S
Co307 O332 1.941 . S
C308 O309 1.258 . S
C308 O310 1.263 . S
O309 Co306 1.970 . S
O309 C308 1.258 . S
O310 Co307 1.966 . S
O310 C308 1.263 . S
C311 O312 1.235 . S
C311 O338 1.289 . S
O312 C311 1.235 . S
C313 C315 1.400 . S
C313 N316 1.351 . S
C313 C318 1.501 . S
C314 C315 1.387 . S
C314 N317 1.341 . S
C315 C313 1.400 . S
C315 C314 1.387 . S
N316 Co307 2.022 . S
N316 C313 1.351 . S
N316 N317 1.365 . S
N317 C314 1.341 . S
N317 N316 1.365 . S
N317 H337 0.862 . S
C318 C313 1.501 . S
C318 H319 0.961 . S
C318 H320 0.961 . S
C318 H321 0.960 . S
H319 C318 0.961 . S
H320 C318 0.961 . S
H321 C318 0.960 . S
C322 N323 1.342 . S
C322 C326 1.401 . S
C322 C327 1.499 . S
N323 Co306 1.989 . S
N323 C322 1.342 . S
N323 N324 1.388 . S
N324 Co307 1.993 . S
N324 N323 1.388 . S
N324 C325 1.346 . S
C325 N324 1.346 . S
C325 C326 1.396 . S
C325 C335 1.510 . S
C326 C322 1.401 . S
C326 C325 1.396 . S
C327 C322 1.499 . S
C327 H328 0.959 . S
C327 H329 0.960 . S
C327 H330 0.961 . S
H328 C327 0.959 . S
H329 C327 0.960 . S
H330 C327 0.961 . S
O331 Co306 1.967 . S
O331 C339 1.258 . S
O332 Co307 1.941 . S
O332 C339 1.266 . S
H333 C335 0.959 . S
H334 C335 0.961 . S
C335 C325 1.510 . S
C335 H333 0.959 . S
C335 H334 0.961 . S
C335 H336 0.960 . S
H336 C335 0.960 . S
H337 N317 0.862 . S
O338 Co306 1.920 . S
O338 C311 1.289 . S
C339 O331 1.258 . S
C339 O332 1.266 . S
Co340 O343 1.970 . S
Co340 N357 1.989 . S
Co340 O365 1.967 . S
Co340 O372 1.920 . S
Co341 O344 1.966 . S
Co341 N350 2.022 . S
Co341 N358 1.993 . S
Co341 O366 1.941 . S
C342 O343 1.258 . S
C342 O344 1.263 . S
O343 Co340 1.970 . S
O343 C342 1.258 . S
O344 Co341 1.966 . S
O344 C342 1.263 . S
C345 O346 1.235 . S
C345 O372 1.289 . S
O346 C345 1.235 . S
C347 C349 1.400 . S
C347 N350 1.351 . S
C347 C352 1.501 . S
C348 C349 1.387 . S
C348 N351 1.341 . S
C349 C347 1.400 . S
C349 C348 1.387 . S
N350 Co341 2.022 . S
N350 C347 1.351 . S
N350 N351 1.365 . S
N351 C348 1.341 . S
N351 N350 1.365 . S
N351 H371 0.862 . S
C352 C347 1.501 . S
C352 H353 0.961 . S
C352 H354 0.961 . S
C352 H355 0.960 . S
H353 C352 0.961 . S
H354 C352 0.961 . S
H355 C352 0.960 . S
C356 N357 1.342 . S
C356 C360 1.401 . S
C356 C361 1.499 . S
N357 Co340 1.989 . S
N357 C356 1.342 . S
N357 N358 1.388 . S
N358 Co341 1.993 . S
N358 N357 1.388 . S
N358 C359 1.346 . S
C359 N358 1.346 . S
C359 C360 1.396 . S
C359 C369 1.510 . S
C360 C356 1.401 . S
C360 C359 1.396 . S
C361 C356 1.499 . S
C361 H362 0.959 . S
C361 H363 0.960 . S
C361 H364 0.961 . S
H362 C361 0.959 . S
H363 C361 0.960 . S
H364 C361 0.961 . S
O365 Co340 1.967 . S
O365 C373 1.258 . S
O366 Co341 1.941 . S
O366 C373 1.266 . S
H367 C369 0.959 . S
H368 C369 0.961 . S
C369 C359 1.510 . S
C369 H367 0.959 . S
C369 H368 0.961 . S
C369 H370 0.960 . S
H370 C369 0.960 . S
H371 N351 0.862 . S
O372 Co340 1.920 . S
O372 C345 1.289 . S
C373 O365 1.258 . S
C373 O366 1.266 . S
Co374 O377 1.970 . S
Co374 N391 1.989 . S
Co374 O399 1.967 . S
Co374 O406 1.920 . S
Co375 O378 1.966 . S
Co375 N384 2.022 . S
Co375 N392 1.993 . S
Co375 O400 1.941 . S
C376 O377 1.258 . S
C376 O378 1.263 . S
O377 Co374 1.970 . S
O377 C376 1.258 . S
O378 Co375 1.966 . S
O378 C376 1.263 . S
C379 O380 1.235 . S
C379 O406 1.289 . S
O380 C379 1.235 . S
C381 C383 1.400 . S
C381 N384 1.351 . S
C381 C386 1.501 . S
C382 C383 1.387 . S
C382 N385 1.341 . S
C383 C381 1.400 . S
C383 C382 1.387 . S
N384 Co375 2.022 . S
N384 C381 1.351 . S
N384 N385 1.365 . S
N385 C382 1.341 . S
N385 N384 1.365 . S
N385 H405 0.862 . S
C386 C381 1.501 . S
C386 H387 0.961 . S
C386 H388 0.961 . S
C386 H389 0.960 . S
H387 C386 0.961 . S
H388 C386 0.961 . S
H389 C386 0.960 . S
C390 N391 1.342 . S
C390 C394 1.401 . S
C390 C395 1.499 . S
N391 Co374 1.989 . S
N391 C390 1.342 . S
N391 N392 1.388 . S
N392 Co375 1.993 . S
N392 N391 1.388 . S
N392 C393 1.346 . S
C393 N392 1.346 . S
C393 C394 1.396 . S
C393 C403 1.510 . S
C394 C390 1.401 . S
C394 C393 1.396 . S
C395 C390 1.499 . S
C395 H396 0.959 . S
C395 H397 0.960 . S
C395 H398 0.961 . S
H396 C395 0.959 . S
H397 C395 0.960 . S
H398 C395 0.961 . S
O399 Co374 1.967 . S
O399 C407 1.258 . S
O400 Co375 1.941 . S
O400 C407 1.266 . S
H401 C403 0.959 . S
H402 C403 0.961 . S
C403 C393 1.510 . S
C403 H401 0.959 . S
C403 H402 0.961 . S
C403 H404 0.960 . S
H404 C403 0.960 . S
H405 N385 0.862 . S
O406 Co374 1.920 . S
O406 C379 1.289 . S
C407 O399 1.258 . S
C407 O400 1.266 . S
Co408 O411 1.970 . S
Co408 N425 1.989 . S
Co408 O433 1.967 . S
Co408 O440 1.920 . S
Co409 O412 1.966 . S
Co409 N418 2.022 . S
Co409 N426 1.993 . S
Co409 O434 1.941 . S
C410 O411 1.258 . S
C410 O412 1.263 . S
O411 Co408 1.970 . S
O411 C410 1.258 . S
O412 Co409 1.966 . S
O412 C410 1.263 . S
C413 O414 1.235 . S
C413 O440 1.289 . S
O414 C413 1.235 . S
C415 C417 1.400 . S
C415 N418 1.351 . S
C415 C420 1.501 . S
C416 C417 1.387 . S
C416 N419 1.341 . S
C417 C415 1.400 . S
C417 C416 1.387 . S
N418 Co409 2.022 . S
N418 C415 1.351 . S
N418 N419 1.365 . S
N419 C416 1.341 . S
N419 N418 1.365 . S
N419 H439 0.862 . S
C420 C415 1.501 . S
C420 H421 0.961 . S
C420 H422 0.961 . S
C420 H423 0.960 . S
H421 C420 0.961 . S
H422 C420 0.961 . S
H423 C420 0.960 . S
C424 N425 1.342 . S
C424 C428 1.401 . S
C424 C429 1.499 . S
N425 Co408 1.989 . S
N425 C424 1.342 . S
N425 N426 1.388 . S
N426 Co409 1.993 . S
N426 N425 1.388 . S
N426 C427 1.346 . S
C427 N426 1.346 . S
C427 C428 1.396 . S
C427 C437 1.510 . S
C428 C424 1.401 . S
C428 C427 1.396 . S
C429 C424 1.499 . S
C429 H430 0.959 . S
C429 H431 0.960 . S
C429 H432 0.961 . S
H430 C429 0.959 . S
H431 C429 0.960 . S
H432 C429 0.961 . S
O433 Co408 1.967 . S
O433 C441 1.258 . S
O434 Co409 1.941 . S
O434 C441 1.266 . S
H435 C437 0.959 . S
H436 C437 0.961 . S
C437 C427 1.510 . S
C437 H435 0.959 . S
C437 H436 0.961 . S
C437 H438 0.960 . S
H438 C437 0.960 . S
H439 N419 0.862 . S
O440 Co408 1.920 . S
O440 C413 1.289 . S
C441 O433 1.258 . S
C441 O434 1.266 . S
Co442 O445 1.970 . S
Co442 N459 1.989 . S
Co442 O467 1.967 . S
Co442 O474 1.920 . S
Co443 O446 1.966 . S
Co443 N452 2.022 . S
Co443 N460 1.993 . S
Co443 O468 1.941 . S
C444 O445 1.258 . S
C444 O446 1.263 . S
O445 Co442 1.970 . S
O445 C444 1.258 . S
O446 Co443 1.966 . S
O446 C444 1.263 . S
C447 O448 1.235 . S
C447 O474 1.289 . S
O448 C447 1.235 . S
C449 C451 1.400 . S
C449 N452 1.351 . S
C449 C454 1.501 . S
C450 C451 1.387 . S
C450 N453 1.341 . S
C451 C449 1.400 . S
C451 C450 1.387 . S
N452 Co443 2.022 . S
N452 C449 1.351 . S
N452 N453 1.365 . S
N453 C450 1.341 . S
N453 N452 1.365 . S
N453 H473 0.862 . S
C454 C449 1.501 . S
C454 H455 0.961 . S
C454 H456 0.961 . S
C454 H457 0.960 . S
H455 C454 0.961 . S
H456 C454 0.961 . S
H457 C454 0.960 . S
C458 N459 1.342 . S
C458 C462 1.401 . S
C458 C463 1.499 . S
N459 Co442 1.989 . S
N459 C458 1.342 . S
N459 N460 1.388 . S
N460 Co443 1.993 . S
N460 N459 1.388 . S
N460 C461 1.346 . S
C461 N460 1.346 . S
C461 C462 1.396 . S
C461 C471 1.510 . S
C462 C458 1.401 . S
C462 C461 1.396 . S
C463 C458 1.499 . S
C463 H464 0.959 . S
C463 H465 0.960 . S
C463 H466 0.961 . S
H464 C463 0.959 . S
H465 C463 0.960 . S
H466 C463 0.961 . S
O467 Co442 1.967 . S
O467 C475 1.258 . S
O468 Co443 1.941 . S
O468 C475 1.266 . S
H469 C471 0.959 . S
H470 C471 0.961 . S
C471 C461 1.510 . S
C471 H469 0.959 . S
C471 H470 0.961 . S
C471 H472 0.960 . S
H472 C471 0.960 . S
H473 N453 0.862 . S
O474 Co442 1.920 . S
O474 C447 1.289 . S
C475 O467 1.258 . S
C475 O468 1.266 . S
Co476 O479 1.970 . S
Co476 N493 1.989 . S
Co476 O501 1.967 . S
Co476 O508 1.920 . S
Co477 O480 1.966 . S
Co477 N486 2.022 . S
Co477 N494 1.993 . S
Co477 O502 1.941 . S
C478 O479 1.258 . S
C478 O480 1.263 . S
O479 Co476 1.970 . S
O479 C478 1.258 . S
O480 Co477 1.966 . S
O480 C478 1.263 . S
C481 O482 1.235 . S
C481 O508 1.289 . S
O482 C481 1.235 . S
C483 C485 1.400 . S
C483 N486 1.351 . S
C483 C488 1.501 . S
C484 C485 1.387 . S
C484 N487 1.341 . S
C485 C483 1.400 . S
C485 C484 1.387 . S
N486 Co477 2.022 . S
N486 C483 1.351 . S
N486 N487 1.365 . S
N487 C484 1.341 . S
N487 N486 1.365 . S
N487 H507 0.862 . S
C488 C483 1.501 . S
C488 H489 0.961 . S
C488 H490 0.961 . S
C488 H491 0.960 . S
H489 C488 0.961 . S
H490 C488 0.961 . S
H491 C488 0.960 . S
C492 N493 1.342 . S
C492 C496 1.401 . S
C492 C497 1.499 . S
N493 Co476 1.989 . S
N493 C492 1.342 . S
N493 N494 1.388 . S
N494 Co477 1.993 . S
N494 N493 1.388 . S
N494 C495 1.346 . S
C495 N494 1.346 . S
C495 C496 1.396 . S
C495 C505 1.510 . S
C496 C492 1.401 . S
C496 C495 1.396 . S
C497 C492 1.499 . S
C497 H498 0.959 . S
C497 H499 0.960 . S
C497 H500 0.961 . S
H498 C497 0.959 . S
H499 C497 0.960 . S
H500 C497 0.961 . S
O501 Co476 1.967 . S
O501 C509 1.258 . S
O502 Co477 1.941 . S
O502 C509 1.266 . S
H503 C505 0.959 . S
H504 C505 0.961 . S
C505 C495 1.510 . S
C505 H503 0.959 . S
C505 H504 0.961 . S
C505 H506 0.960 . S
H506 C505 0.960 . S
H507 N487 0.862 . S
O508 Co476 1.920 . S
O508 C481 1.289 . S
C509 O501 1.258 . S
C509 O502 1.266 . S
Co510 O513 1.970 . S
Co510 N527 1.989 . S
Co510 O535 1.967 . S
Co510 O542 1.920 . S
Co511 O514 1.966 . S
Co511 N520 2.022 . S
Co511 N528 1.993 . S
Co511 O536 1.941 . S
C512 O513 1.258 . S
C512 O514 1.263 . S
O513 Co510 1.970 . S
O513 C512 1.258 . S
O514 Co511 1.966 . S
O514 C512 1.263 . S
C515 O516 1.235 . S
C515 O542 1.289 . S
O516 C515 1.235 . S
C517 C519 1.400 . S
C517 N520 1.351 . S
C517 C522 1.501 . S
C518 C519 1.387 . S
C518 N521 1.341 . S
C519 C517 1.400 . S
C519 C518 1.387 . S
N520 Co511 2.022 . S
N520 C517 1.351 . S
N520 N521 1.365 . S
N521 C518 1.341 . S
N521 N520 1.365 . S
N521 H541 0.862 . S
C522 C517 1.501 . S
C522 H523 0.961 . S
C522 H524 0.961 . S
C522 H525 0.960 . S
H523 C522 0.961 . S
H524 C522 0.961 . S
H525 C522 0.960 . S
C526 N527 1.342 . S
C526 C530 1.401 . S
C526 C531 1.499 . S
N527 Co510 1.989 . S
N527 C526 1.342 . S
N527 N528 1.388 . S
N528 Co511 1.993 . S
N528 N527 1.388 . S
N528 C529 1.346 . S
C529 N528 1.346 . S
C529 C530 1.396 . S
C529 C539 1.510 . S
C530 C526 1.401 . S
C530 C529 1.396 . S
C531 C526 1.499 . S
C531 H532 0.959 . S
C531 H533 0.960 . S
C531 H534 0.961 . S
H532 C531 0.959 . S
H533 C531 0.960 . S
H534 C531 0.961 . S
O535 Co510 1.967 . S
O535 C543 1.258 . S
O536 Co511 1.941 . S
O536 C543 1.266 . S
H537 C539 0.959 . S
H538 C539 0.961 . S
C539 C529 1.510 . S
C539 H537 0.959 . S
C539 H538 0.961 . S
C539 H540 0.960 . S
H540 C539 0.960 . S
H541 N521 0.862 . S
O542 Co510 1.920 . S
O542 C515 1.289 . S
C543 O535 1.258 . S
C543 O536 1.266 . S
C9 C5 2.534 . S
C43 C39 2.534 . S
C73 C77 2.534 . S
C107 C111 2.534 . S
C145 C141 2.534 . S
C175 C179 2.534 . S
C209 C213 2.534 . S
C243 C247 2.534 . S
C281 C277 2.534 1_554 S
C315 C311 2.534 1_554 S
C349 C345 2.534 1_554 S
C383 C379 2.534 1_554 S
C413 C417 2.534 1_554 S
C447 C451 2.534 1_554 S
C481 C485 2.534 1_554 S
C515 C519 2.534 1_554 S
C33 C543 2.446 . S
C441 C67 2.446 . S
C475 C101 2.446 . S
C509 C135 2.446 . S
C339 C169 2.446 . S
C203 C373 2.446 . S
C237 C407 2.446 . S
C305 C271 2.446 . S
C20 C156 1.808 1_544 S
C190 C54 1.808 1_456 S
C88 C224 1.808 1_564 S
C258 C122 1.808 1_656 S
C428 C292 1.808 . S
C326 C462 1.808 . S
C360 C496 1.808 . S
C394 C530 1.808 . S
C2 C172 2.106 1_554 S
C36 C206 2.106 1_554 S
C240 C70 2.106 1_556 S
C104 C138 2.106 1_554 S
C444 C274 2.106 . S
C308 C478 2.106 . S
C512 C342 2.106 . S
C410 C376 2.106 . S
