# Generated by pormake.
# Topology umb, (4)-cn, num edge types: 1
# Building blocks:
#     Node 0, Type 0, BuildingBlock: MUDLON_clean_sbu_0, # of connection points: 4
#     Node 1, Type 0, BuildingBlock: MUDLON_clean_sbu_0, # of connection points: 4
#     Node 2, Type 0, BuildingBlock: MUDLON_clean_sbu_0, # of connection points: 4
#     Node 3, Type 0, BuildingBlock: MUDLON_clean_sbu_0, # of connection points: 4
#     Node 4, Type 0, BuildingBlock: MUDLON_clean_sbu_0, # of connection points: 4
#     Node 5, Type 0, BuildingBlock: MUDLON_clean_sbu_0, # of connection points: 4
#     Node 6, Type 0, BuildingBlock: MUDLON_clean_sbu_0, # of connection points: 4
#     Node 7, Type 0, BuildingBlock: MUDLON_clean_sbu_0, # of connection points: 4
#     Node 8, Type 0, BuildingBlock: MUDLON_clean_sbu_0, # of connection points: 4
#     Node 9, Type 0, BuildingBlock: MUDLON_clean_sbu_0, # of connection points: 4
#     Node 10, Type 0, BuildingBlock: MUDLON_clean_sbu_0, # of connection points: 4
#     Node 11, Type 0, BuildingBlock: MUDLON_clean_sbu_0, # of connection points: 4
#     Edge 12, Type (0, 0), BuildingBlock: EZIPEK_clean_linker_0, # of connection points: 2
#     Edge 13, Type (0, 0), BuildingBlock: EZIPEK_clean_linker_0, # of connection points: 2
#     Edge 14, Type (0, 0), BuildingBlock: EZIPEK_clean_linker_0, # of connection points: 2
#     Edge 15, Type (0, 0), BuildingBlock: EZIPEK_clean_linker_0, # of connection points: 2
#     Edge 16, Type (0, 0), BuildingBlock: EZIPEK_clean_linker_0, # of connection points: 2
#     Edge 17, Type (0, 0), BuildingBlock: EZIPEK_clean_linker_0, # of connection points: 2
#     Edge 18, Type (0, 0), BuildingBlock: EZIPEK_clean_linker_0, # of connection points: 2
#     Edge 19, Type (0, 0), BuildingBlock: EZIPEK_clean_linker_0, # of connection points: 2
#     Edge 20, Type (0, 0), BuildingBlock: EZIPEK_clean_linker_0, # of connection points: 2
#     Edge 21, Type (0, 0), BuildingBlock: EZIPEK_clean_linker_0, # of connection points: 2
#     Edge 22, Type (0, 0), BuildingBlock: EZIPEK_clean_linker_0, # of connection points: 2
#     Edge 23, Type (0, 0), BuildingBlock: EZIPEK_clean_linker_0, # of connection points: 2
#     Edge 24, Type (0, 0), BuildingBlock: EZIPEK_clean_linker_0, # of connection points: 2
#     Edge 25, Type (0, 0), BuildingBlock: EZIPEK_clean_linker_0, # of connection points: 2
#     Edge 26, Type (0, 0), BuildingBlock: EZIPEK_clean_linker_0, # of connection points: 2
#     Edge 27, Type (0, 0), BuildingBlock: EZIPEK_clean_linker_0, # of connection points: 2
#     Edge 28, Type (0, 0), BuildingBlock: EZIPEK_clean_linker_0, # of connection points: 2
#     Edge 29, Type (0, 0), BuildingBlock: EZIPEK_clean_linker_0, # of connection points: 2
#     Edge 30, Type (0, 0), BuildingBlock: EZIPEK_clean_linker_0, # of connection points: 2
#     Edge 31, Type (0, 0), BuildingBlock: EZIPEK_clean_linker_0, # of connection points: 2
#     Edge 32, Type (0, 0), BuildingBlock: EZIPEK_clean_linker_0, # of connection points: 2
#     Edge 33, Type (0, 0), BuildingBlock: EZIPEK_clean_linker_0, # of connection points: 2
#     Edge 34, Type (0, 0), BuildingBlock: EZIPEK_clean_linker_0, # of connection points: 2
#     Edge 35, Type (0, 0), BuildingBlock: EZIPEK_clean_linker_0, # of connection points: 2
# Relax obj value: 0.247
# Max RMSD: 0.215
# Mean RMSD: 0.215
data_MOF--net-umb--node1-MUDLON_clean_sbu_0--edge1-EZIPEK_clean_linker_0
_symmetry_space_group_name_H-M    P1
_symmetry_Int_Tables_number       1
_symmetry_cell_setting            triclinic
loop_
_symmetry_equiv_pos_as_xyz
'x, y, z'
_cell_length_a     36.880943
_cell_length_b     36.923897
_cell_length_c     29.127492
_cell_angle_alpha  90.303056
_cell_angle_beta   89.473759
_cell_angle_gamma 120.47055
loop_
_atom_site_label
_atom_site_type_symbol
_atom_site_fract_x
_atom_site_fract_y
_atom_site_fract_z
_atom_type_partial_charge
Mg0 Mg 0.48623 0.16089 0.39305 0.0
C1 C 0.57464 0.17433 0.39997 0.0
O2 O 0.55812 0.14765 0.434 0.0
C3 C 0.45662 0.0824 0.33647 0.0
O4 O 0.47485 0.10981 0.30323 0.0
C5 C 0.49246 0.21111 0.31068 0.0
O6 O 0.5216 0.20134 0.3031 0.0
O7 O 0.46967 0.19714 0.34681 0.0
O8 O 0.55129 0.18413 0.37806 0.0
O9 O 0.48717 0.17098 0.46742 0.0
C10 C 0.47723 0.14055 0.49493 0.0
O11 O 0.46036 0.10219 0.47855 0.0
O12 O 0.45499 0.09491 0.37673 0.0
Mg13 Mg 0.39024 0.55071 0.66508 0.0
C14 C 0.38916 0.55082 0.76398 0.0
O15 O 0.4253 0.5548 0.75133 0.0
C16 C 0.31209 0.52817 0.60614 0.0
O17 O 0.29413 0.52635 0.64588 0.0
C18 C 0.45128 0.52303 0.63833 0.0
O19 O 0.46472 0.55501 0.61012 0.0
O20 O 0.41958 0.51298 0.66396 0.0
O21 O 0.36214 0.54399 0.73313 0.0
O22 O 0.44042 0.61591 0.66734 0.0
C23 C 0.42761 0.64132 0.67553 0.0
O24 O 0.38699 0.62722 0.67592 0.0
O25 O 0.35034 0.53747 0.60476 0.0
Mg26 Mg 0.78629 0.39422 1.02151 0.0
C27 C 0.73497 0.42826 0.05462 0.0
O28 O 0.71501 0.38892 0.0683 0.0
C29 C 0.87496 0.45714 0.9925 0.0
O30 O 0.8652 0.48313 1.01225 0.0
C31 C 0.72844 0.3401 0.94363 0.0
O32 O 0.75181 0.37464 0.92004 0.0
O33 O 0.736 0.33905 0.98607 0.0
O34 O 0.76796 0.44125 1.03015 0.0
O35 O 0.7945 0.38131 0.09262 0.0
C36 C 0.81033 0.41321 0.1191 0.0
O37 O 0.82346 0.45039 0.10104 0.0
O38 O 0.84726 0.41847 0.98893 0.0
Mg39 Mg 0.41852 0.83227 0.34142 0.0
C40 C 0.32529 0.7774 0.35852 0.0
O41 O 0.33283 0.80043 0.39546 0.0
C42 C 0.4109 0.90851 0.32892 0.0
O43 O 0.37166 0.88122 0.33972 0.0
C44 C 0.43055 0.79384 0.25802 0.0
O45 O 0.40011 0.80072 0.24697 0.0
O46 O 0.44868 0.80729 0.29656 0.0
O47 O 0.35285 0.78952 0.32695 0.0
O48 O 0.4265 0.82654 0.41558 0.0
C49 C 0.41498 0.84477 0.44467 0.0
O50 O 0.40191 0.86972 0.42998 0.0
O51 O 0.43731 0.89627 0.32456 0.0
Mg52 Mg 0.60347 0.41493 0.70939 0.0
C53 C 0.61505 0.405 0.80853 0.0
O54 O 0.6178 0.37387 0.79051 0.0
C55 C 0.6679 0.44294 0.63212 0.0
O56 O 0.65371 0.46864 0.62497 0.0
C57 C 0.53771 0.43536 0.68503 0.0
O58 O 0.5148 0.4001 0.70761 0.0
O59 O 0.57679 0.44945 0.67917 0.0
O60 O 0.61491 0.43217 0.78191 0.0
O61 O 0.55363 0.35065 0.71798 0.0
C62 C 0.55263 0.31766 0.7038 0.0
O63 O 0.58175 0.32041 0.67535 0.0
O64 O 0.65427 0.41829 0.66655 0.0
Mg65 Mg 0.14034 0.54617 0.99349 0.0
C66 C 0.16798 0.48258 0.96638 0.0
O67 O 0.16348 0.44805 0.94786 0.0
C68 C 0.04985 0.50867 0.96449 0.0
O69 O 0.0599 0.48637 0.93767 0.0
C70 C 0.1774 0.61312 0.91736 0.0
O71 O 0.13921 0.59139 0.90071 0.0
O72 O 0.18564 0.60263 0.95575 0.0
O73 O 0.13843 0.49072 0.96329 0.0
O74 O 0.15449 0.54935 0.06692 0.0
C75 C 0.14271 0.51532 0.08877 0.0
O76 O 0.12174 0.47957 0.06653 0.0
O77 O 0.07763 0.53704 0.98996 0.0
Mg78 Mg 0.81009 0.40199 0.41768 0.0
C79 C 0.79744 0.41554 0.31701 0.0
O80 O 0.7597 0.40508 0.33192 0.0
C81 C 0.76871 0.41468 0.49941 0.0
O82 O 0.76757 0.37942 0.50912 0.0
C83 C 0.90017 0.43588 0.42714 0.0
O84 O 0.89842 0.46415 0.40162 0.0
O85 O 0.86636 0.40553 0.44321 0.0
O86 O 0.82525 0.42049 0.34574 0.0
O87 O 0.76237 0.33643 0.41352 0.0
C88 C 0.72394 0.32617 0.41321 0.0
O89 O 0.71367 0.35525 0.41753 0.0
O90 O 0.78681 0.43393 0.46241 0.0
Mg91 Mg 0.37742 0.79958 0.74063 0.0
C92 C 0.45678 0.78799 0.74536 0.0
O93 O 0.48173 0.82868 0.74999 0.0
C94 C 0.43497 0.89189 0.75819 0.0
O95 O 0.45687 0.88627 0.72619 0.0
C96 C 0.3182 0.74614 0.81607 0.0
O97 O 0.35338 0.76739 0.83906 0.0
O98 O 0.31792 0.75358 0.77342 0.0
O99 O 0.41711 0.77195 0.74367 0.0
O100 O 0.37215 0.80856 0.66681 0.0
C101 C 0.40413 0.81748 0.64168 0.0
O102 O 0.43761 0.82057 0.66066 0.0
O103 O 0.40134 0.86051 0.77327 0.0
Mg104 Mg 0.53363 0.3893 0.09438 0.0
C105 C 0.62035 0.4675 0.10327 0.0
O106 O 0.6036 0.48429 0.07768 0.0
C107 C 0.49577 0.4415 0.07204 0.0
O108 O 0.51256 0.44182 1.03199 0.0
C109 C 0.51958 0.33586 0.17677 0.0
O110 O 0.54935 0.37295 0.19082 0.0
O111 O 0.50551 0.33223 0.13619 0.0
O112 O 0.59703 0.43005 0.11753 0.0
O113 O 0.53961 0.38106 1.02031 0.0
C114 C 0.57542 0.39098 1.00313 0.0
O115 O 0.60748 0.40202 1.03043 0.0
O116 O 0.49897 0.4212 0.1052 0.0
Mg117 Mg 0.15247 0.51168 0.38548 0.0
C118 C 0.17427 0.50056 0.28172 0.0
O119 O 0.20755 0.49981 0.29604 0.0
C120 C 0.22353 0.5072 0.43524 0.0
O121 O 0.24638 0.52895 0.39994 0.0
C122 C 0.06141 0.45058 0.40867 0.0
O123 O 0.07122 0.4224 0.39597 0.0
O124 O 0.08926 0.48923 0.40873 0.0
O125 O 0.14894 0.50198 0.31067 0.0
O126 O 0.18248 0.57873 0.39282 0.0
C127 C 0.21478 0.59912 0.36771 0.0
O128 O 0.22779 0.57865 0.34205 0.0
O129 O 0.18394 0.49227 0.43484 0.0
Mg130 Mg 0.51044 0.15164 0.79271 0.0
C131 C 0.44911 0.18022 0.82497 0.0
O132 O 0.41811 0.17849 0.84931 0.0
C133 C 0.46796 0.06012 0.79166 0.0
O134 O 0.43836 0.06784 0.77932 0.0
C135 C 0.58622 0.19688 0.85605 0.0
O136 O 0.56584 0.16098 0.87814 0.0
O137 O 0.57193 0.20097 0.81795 0.0
O138 O 0.45943 0.15248 0.83086 0.0
O139 O 0.4981 0.15083 0.71895 0.0
C140 C 0.52099 0.1767 0.68797 0.0
O141 O 0.55715 0.20975 0.69898 0.0
O142 O 0.50388 0.09062 0.80239 0.0
Mg143 Mg 0.41303 0.61657 0.05146 0.0
C144 C 0.32732 0.59909 1.04577 0.0
O145 O 0.35081 0.63603 1.0266 0.0
C146 C 0.41483 0.53967 0.08094 0.0
O147 O 0.37432 0.52488 0.08641 0.0
C148 C 0.42218 0.6717 0.12998 0.0
O149 O 0.39096 0.6348 0.14271 0.0
O150 O 0.44011 0.67479 0.09142 0.0
O151 O 0.3464 0.58227 0.06359 0.0
O152 O 0.41578 0.61939 0.9764 0.0
C153 C 0.38969 0.58427 0.95809 0.0
O154 O 0.36529 0.55231 0.98467 0.0
O155 O 0.43893 0.57782 0.06962 0.0
C156 C 0.51837 0.14106 0.56409 0.0
C157 C 0.48744 0.14856 0.54471 0.0
C158 C 0.47431 0.16844 0.62092 0.0
C159 C 0.50903 0.16655 0.63879 0.0
N160 N 0.56659 0.1541 0.6265 0.0
N161 N 0.43844 0.17319 0.55388 0.0
C162 C 0.53192 0.15398 0.61 0.0
C163 C 0.46637 0.16368 0.57286 0.0
N164 N 0.53401 0.12039 0.53932 0.0
N165 N 0.44783 0.17309 0.65009 0.0
H166 H 0.42955 0.1675 0.51952 0.0
H167 H 0.42609 0.18917 0.57152 0.0
H168 H 0.45184 0.17482 0.68541 0.0
H169 H 0.41971 0.17074 0.63996 0.0
H170 H 0.55298 0.10994 0.55326 0.0
H171 H 0.52496 0.10988 0.50593 0.0
H172 H 0.58785 0.15086 0.60562 0.0
H173 H 0.57576 0.16006 0.66076 0.0
C174 C 0.39242 0.5336 0.84578 0.0
C175 C 0.38226 0.55569 0.81357 0.0
C176 C 0.37315 0.5947 0.87713 0.0
C177 C 0.38933 0.57687 0.90799 0.0
N178 N 0.42058 0.5341 0.92062 0.0
N179 N 0.36672 0.61079 0.79822 0.0
C180 C 0.40059 0.54754 0.89201 0.0
C181 C 0.3732 0.58697 0.82909 0.0
N182 N 0.3931 0.49842 0.83233 0.0
N183 N 0.35661 0.61799 0.89377 0.0
H184 H 0.36582 0.60606 0.76294 0.0
H185 H 0.36532 0.63737 0.80739 0.0
H186 H 0.3567 0.62482 0.92858 0.0
H187 H 0.33987 0.62766 0.87363 0.0
H188 H 0.39637 0.47866 0.85518 0.0
H189 H 0.3857 0.48641 0.79903 0.0
H190 H 0.43327 0.51594 0.90958 0.0
H191 H 0.42827 0.54455 0.95442 0.0
C192 C 0.83885 0.44623 0.24333 0.0
C193 C 0.80469 0.41279 0.2671 0.0
C194 C 0.77498 0.37715 0.19431 0.0
C195 C 0.81024 0.40945 0.17015 0.0
N196 N 0.88205 0.4671 0.17451 0.0
N197 N 0.75189 0.33926 0.26588 0.0
C198 C 0.84423 0.44167 0.19559 0.0
C199 C 0.77635 0.37597 0.24281 0.0
N200 N 0.86527 0.48282 0.26565 0.0
N201 N 0.73895 0.34919 0.17213 0.0
H202 H 0.7552 0.33653 0.30102 0.0
H203 H 0.73288 0.31074 0.24922 0.0
H204 H 0.73433 0.34994 0.1371 0.0
H205 H 0.7116 0.32799 0.18975 0.0
H206 H 0.88801 0.5097 0.24868 0.0
H207 H 0.86218 0.48741 0.30049 0.0
H208 H 0.9088 0.48876 0.19228 0.0
H209 H 0.88794 0.46303 0.14033 0.0
C210 C 0.38489 0.79648 0.51325 0.0
C211 C 0.41384 0.83685 0.49496 0.0
C212 C 0.43511 0.86473 0.57315 0.0
C213 C 0.40492 0.82486 0.59143 0.0
N214 N 0.34922 0.75333 0.5801 0.0
N215 N 0.46512 0.90998 0.50654 0.0
C216 C 0.37922 0.79091 0.56177 0.0
C217 C 0.43854 0.87111 0.52474 0.0
N218 N 0.36304 0.76334 0.48414 0.0
N219 N 0.46105 0.89642 0.60226 0.0
H220 H 0.47172 0.91508 0.47152 0.0
H221 H 0.47974 0.93762 0.5256 0.0
H222 H 0.45738 0.89428 0.63778 0.0
H223 H 0.48731 0.92438 0.59175 0.0
H224 H 0.34513 0.73216 0.49444 0.0
H225 H 0.36446 0.76659 0.44871 0.0
H226 H 0.3261 0.72862 0.56108 0.0
H227 H 0.34575 0.74717 0.61523 0.0
C228 C 0.56113 0.36 0.92339 0.0
C229 C 0.58272 0.39523 0.95264 0.0
C230 C 0.62631 0.43744 0.88753 0.0
C231 C 0.60305 0.40291 0.8578 0.0
N232 N 0.5392 0.33639 0.84572 0.0
N233 N 0.62652 0.47042 0.95952 0.0
C234 C 0.56781 0.36554 0.8752 0.0
C235 C 0.61267 0.43487 0.93384 0.0
N236 N 0.53523 0.32101 0.94145 0.0
N237 N 0.66213 0.47216 0.87218 0.0
H238 H 0.6155 0.46984 0.99272 0.0
H239 H 0.645 0.50056 0.94612 0.0
H240 H 0.67332 0.47508 0.8386 0.0
H241 H 0.68255 0.49644 0.89381 0.0
H242 H 0.52231 0.29366 0.92177 0.0
H243 H 0.52957 0.31564 0.97661 0.0
H244 H 0.51084 0.31073 0.8567 0.0
H245 H 0.54135 0.34057 0.81025 0.0
C246 C 0.12832 0.47584 0.21188 0.0
C247 C 0.16772 0.50422 0.23178 0.0
C248 C 0.19158 0.54191 0.15797 0.0
C249 C 0.15106 0.51485 0.139 0.0
N250 N 0.07763 0.46495 0.15344 0.0
N251 N 0.23406 0.5696 0.22621 0.0
C252 C 0.11852 0.48429 0.16756 0.0
C253 C 0.19862 0.53871 0.2055 0.0
N254 N 0.1005 0.44002 0.23482 0.0
N255 N 0.22399 0.56993 0.13068 0.0
H256 H 0.24156 0.56827 0.26021 0.0
H257 H 0.25459 0.59833 0.21078 0.0
H258 H 0.22086 0.57467 0.09619 0.0
H259 H 0.25518 0.58652 0.14129 0.0
H260 H 0.07313 0.41609 0.21999 0.0
H261 H 0.10679 0.43222 0.26697 0.0
H262 H 0.05224 0.44543 0.17458 0.0
H263 H 0.06865 0.47247 0.12274 0.0
C264 C 0.68279 0.25077 0.43833 0.0
C265 C 0.69106 0.28215 0.40496 0.0
C266 C 0.63524 0.22954 0.35682 0.0
C267 C 0.62092 0.2018 0.39439 0.0
N268 N 0.64202 0.17662 0.45869 0.0
N269 N 0.67357 0.30171 0.33272 0.0
C270 C 0.64821 0.20934 0.43158 0.0
C271 C 0.66743 0.27151 0.36376 0.0
N272 N 0.7059 0.26128 0.47769 0.0
N273 N 0.61752 0.21533 0.31476 0.0
H274 H 0.69624 0.3332 0.33666 0.0
H275 H 0.65395 0.29606 0.30478 0.0
H276 H 0.59457 0.18387 0.30955 0.0
H277 H 0.62872 0.23312 0.28484 0.0
H278 H 0.69854 0.2411 0.50551 0.0
H279 H 0.73131 0.29129 0.48388 0.0
H280 H 0.66202 0.17921 0.48508 0.0
H281 H 0.61963 0.14562 0.45069 0.0
C282 C 0.48137 0.75878 0.6841 0.0
C283 C 0.47324 0.76057 0.7314 0.0
C284 C 0.4614 0.68988 0.74102 0.0
C285 C 0.45627 0.68412 0.69296 0.0
N286 N 0.46611 0.71365 0.61745 0.0
N287 N 0.46072 0.73023 0.80669 0.0
C288 C 0.46867 0.71905 0.66393 0.0
C289 C 0.46589 0.72712 0.76067 0.0
N290 N 0.50015 0.79478 0.65877 0.0
N291 N 0.46145 0.65959 0.76743 0.0
H292 H 0.46568 0.75815 0.82164 0.0
H293 H 0.45022 0.70504 0.82931 0.0
H294 H 0.4604 0.63336 0.75264 0.0
H295 H 0.46722 0.66275 0.80258 0.0
H296 H 0.50899 0.7959 0.62451 0.0
H297 H 0.51069 0.82413 0.67381 0.0
H298 H 0.47008 0.73691 0.59444 0.0
H299 H 0.45844 0.68497 0.60225 0.0
C300 C 0.68822 0.49927 0.06036 0.0
C301 C 0.66637 0.48376 0.10225 0.0
C302 C 0.7114 0.45535 0.12025 0.0
C303 C 0.72104 0.45699 0.07259 0.0
N304 N 0.72316 0.48598 0.99746 0.0
N305 N 0.66684 0.46096 0.17873 0.0
C306 C 0.71202 0.48173 1.04278 0.0
C307 C 0.6823 0.46747 0.1349 0.0
N308 N 0.68593 0.53029 1.03787 0.0
N309 N 0.7297 0.44179 0.15086 0.0
H310 H 0.64666 0.47155 0.18937 0.0
H311 H 0.67313 0.44494 0.20376 0.0
H312 H 0.75181 0.43383 0.14058 0.0
H313 H 0.72589 0.44175 0.18629 0.0
H314 H 0.70354 0.54494 1.00848 0.0
H315 H 0.67004 0.54439 0.05214 0.0
H316 H 0.71354 0.50036 0.97374 0.0
H317 H 0.74026 0.47341 0.98292 0.0
C318 C 0.25208 0.7154 0.35649 0.0
C319 C 0.29578 0.73201 0.36251 0.0
C320 C 0.28322 0.66266 0.38341 0.0
C321 C 0.24069 0.64508 0.37075 0.0
N322 N 0.18441 0.65339 0.34118 0.0
N323 N 0.3541 0.72037 0.3753 0.0
C324 C 0.22478 0.67106 0.3566 0.0
C325 C 0.31175 0.70537 0.37401 0.0
N326 N 0.23683 0.74192 0.35052 0.0
N327 N 0.29602 0.6389 0.40629 0.0
H328 H 0.37691 0.75187 0.3712 0.0
H329 H 0.36678 0.70083 0.37755 0.0
H330 H 0.27535 0.6078 0.41562 0.0
H331 H 0.32577 0.65131 0.42068 0.0
H332 H 0.20486 0.73191 0.35062 0.0
H333 H 0.2563 0.77449 0.34869 0.0
H334 H 0.17252 0.67052 0.32568 0.0
H335 H 0.1635 0.62104 0.3409 0.0
C336 C 0.48147 0.25716 0.72474 0.0
C337 C 0.52583 0.2788 0.73006 0.0
C338 C 0.51732 0.24259 0.80265 0.0
C339 C 0.47411 0.21608 0.7938 0.0
N340 N 0.41365 0.19745 0.74675 0.0
N341 N 0.58652 0.28713 0.77071 0.0
C342 C 0.45556 0.22344 0.75516 0.0
C343 C 0.54392 0.2697 0.76777 0.0
N344 N 0.46432 0.26902 0.69077 0.0
N345 N 0.53235 0.24447 0.84577 0.0
H346 H 0.60741 0.3066 0.74546 0.0
H347 H 0.60092 0.27952 0.79648 0.0
H348 H 0.51317 0.22615 0.87281 0.0
H349 H 0.56251 0.26749 0.85564 0.0
H350 H 0.43225 0.25785 0.68792 0.0
H351 H 0.48263 0.2918 0.66639 0.0
H352 H 0.39886 0.19872 0.71706 0.0
H353 H 0.39395 0.17239 0.76809 0.0
C354 C 0.23324 0.55256 0.97017 0.0
C355 C 0.20764 0.51235 0.98949 0.0
C356 C 0.25665 0.53167 0.05386 0.0
C357 C 0.28156 0.57256 1.03441 0.0
N358 N 0.27968 0.62553 0.98755 0.0
N359 N 0.19193 0.46364 0.05165 0.0
C360 C 0.26568 0.58426 0.9967 0.0
C361 C 0.21853 0.50176 1.03194 0.0
N362 N 0.2279 0.56016 0.92568 0.0
N363 N 0.2687 0.52214 0.09409 0.0
H364 H 0.16442 0.4408 1.0359 0.0
H365 H 0.19548 0.45514 0.08455 0.0
H366 H 0.29098 0.54526 0.11557 0.0
H367 H 0.25606 0.49185 0.10697 0.0
H368 H 0.24927 0.58781 0.90878 0.0
H369 H 0.20468 0.5374 0.90465 0.0
H370 H 0.26814 0.63523 0.96067 0.0
H371 H 0.29754 0.64934 1.01097 0.0
C372 C 0.41278 0.0102 0.30287 0.0
C373 C 0.44716 0.03884 0.33008 0.0
C374 C 0.45823 -0.01756 0.35611 0.0
C375 C 0.42506 0.95381 0.32722 0.0
N376 N 0.37695 0.94202 0.26562 0.0
N377 N 0.50995 0.055 0.37146 0.0
C378 C 0.40408 0.96815 0.29833 0.0
C379 C 0.47217 0.02579 0.35325 0.0
N380 N 0.38771 0.02279 0.28261 0.0
N381 N 0.47498 0.96831 0.38819 0.0
H382 H 0.52184 0.08723 0.36868 0.0
H383 H 0.53147 0.04748 0.38471 0.0
H384 H 0.4656 0.9368 0.3925 0.0
H385 H 0.49554 -0.01247 0.41361 0.0
H386 H 0.35942 0.00218 0.26663 0.0
H387 H 0.3938 0.05361 0.28452 0.0
H388 H 0.36381 0.95186 0.24065 0.0
H389 H 0.37063 0.91135 0.26066 0.0
C390 C 0.51287 0.52299 0.67291 0.0
C391 C 0.47619 0.50252 0.64555 0.0
C392 C 0.48463 0.44111 0.63769 0.0
C393 C 0.51835 0.45962 0.66929 0.0
N394 N 0.56107 0.51546 0.72232 0.0
N395 N 0.42464 0.44134 0.60448 0.0
C396 C 0.53194 0.50008 0.68796 0.0
C397 C 0.46137 0.46134 0.62858 0.0
N398 N 0.52922 0.56422 0.68495 0.0
N399 N 0.47579 0.4049 0.61534 0.0
H400 H 0.40791 0.45599 0.59524 0.0
H401 H 0.40943 0.40959 0.59593 0.0
H402 H 0.4926 0.38957 0.62078 0.0
H403 H 0.45438 0.39198 0.58859 0.0
H404 H 0.55854 0.58225 0.70015 0.0
H405 H 0.51501 0.58158 0.67672 0.0
H406 H 0.56857 0.54243 0.74106 0.0
H407 H 0.57534 0.49945 0.73513 0.0
C408 C 0.9407 0.45979 1.01808 0.0
C409 C 0.91971 0.47052 0.9849 0.0
C410 C -0.01641 0.50464 0.93711 0.0
C411 C 0.00511 0.49571 0.97131 0.0
N412 N 0.00623 0.4677 1.04565 0.0
N413 N 0.921 0.50661 0.91578 0.0
C414 C -0.01577 0.47414 1.01222 0.0
C415 C 0.94113 0.49397 0.9452 0.0
N416 N 0.91871 0.43525 0.05486 0.0
N417 N 0.00368 0.52284 0.89674 0.0
H418 H 0.88955 0.49816 0.92002 0.0
H419 H 0.93582 0.52744 0.88875 0.0
H420 H 0.03523 0.53259 0.89051 0.0
H421 H -0.01123 0.52623 0.86833 0.0
H422 H 0.9304 0.42191 0.07734 0.0
H423 H 0.88747 0.42612 0.06198 0.0
H424 H -0.00526 0.45724 0.07862 0.0
H425 H 0.03723 0.47472 1.04141 0.0
C426 C -0.00981 0.42742 0.37728 0.0
C427 C 0.01721 0.43894 0.41569 0.0
C428 C 0.96536 0.44453 0.46378 0.0
C429 C 0.93844 0.43283 0.42537 0.0
N430 N 0.91968 0.4025 0.34961 0.0
N431 N 0.02818 0.45014 0.4971 0.0
C432 C 0.9491 0.42078 0.3834 0.0
C433 C 0.00395 0.4448 0.45958 0.0
N434 N 0.00459 0.42539 0.33443 0.0
N435 N 0.95473 0.4569 0.5035 0.0
H436 H 0.05651 0.45027 0.49486 0.0
H437 H 0.01876 0.45092 0.5307 0.0
H438 H 0.9261 0.45585 0.5079 0.0
H439 H -0.02501 0.47029 0.53114 0.0
H440 H -0.01185 0.42245 0.30444 0.0
H441 H 0.03445 0.42979 0.32821 0.0
H442 H 0.92421 0.38914 0.32013 0.0
H443 H 0.88911 0.39701 0.35295 0.0
C444 C 0.46222 -0.00663 0.8211 0.0
C445 C 0.46187 0.01782 0.78384 0.0
C446 C 0.43982 0.95827 0.73172 0.0
C447 C 0.44361 0.93487 0.76789 0.0
N448 N 0.46336 0.93112 0.84556 0.0
N449 N 0.46038 0.0271 0.702 0.0
C450 C 0.45618 0.95267 0.8123 0.0
C451 C 0.45362 0.00131 0.73863 0.0
N452 N 0.46686 0.00847 0.86491 0.0
N453 N 0.42117 0.93893 0.69138 0.0
H454 H 0.47159 0.0592 0.70543 0.0
H455 H 0.4591 0.01761 0.66801 0.0
H456 H 0.40895 0.90693 0.68549 0.0
H457 H 0.41378 0.95356 0.66564 0.0
H458 H 0.46288 -0.00951 0.89397 0.0
H459 H 0.47184 0.03831 0.87242 0.0
H460 H 0.47678 0.94408 0.87714 0.0
H461 H 0.45867 0.90107 0.84029 0.0
C462 C 0.46491 0.52005 0.1136 0.0
C463 C 0.43203 0.51126 0.0826 0.0
C464 C 0.43597 0.45155 0.05162 0.0
C465 C 0.47252 0.464 0.078 0.0
N466 N 0.52494 0.51259 0.13079 0.0
N467 N 0.38945 0.47193 1.01773 0.0
C468 C 0.48772 0.49872 0.10846 0.0
C469 C 0.41807 0.47764 0.05066 0.0
N470 N 0.47366 0.54809 0.14855 0.0
N471 N 0.41773 0.4142 1.02837 0.0
H472 H 0.37537 0.49016 1.01544 0.0
H473 H 0.38226 0.45137 0.99015 0.0
H474 H 0.42981 0.39404 1.0286 0.0
H475 H 0.38853 0.40129 1.01258 0.0
H476 H 0.49437 0.55273 0.17503 0.0
H477 H 0.45718 0.56392 0.15353 0.0
H478 H 0.54001 0.54059 0.14926 0.0
H479 H 0.54266 0.49788 0.12797 0.0
C480 C 0.48788 0.22888 0.22922 0.0
C481 C 0.48773 0.23831 0.27651 0.0
C482 C 0.49303 0.30491 0.25486 0.0
C483 C 0.50286 0.29951 0.20897 0.0
N484 N 0.51368 0.25681 0.15341 0.0
N485 N 0.49378 0.28801 0.33479 0.0
C486 C 0.50071 0.26132 0.19606 0.0
C487 C 0.49057 0.27677 0.28959 0.0
N488 N 0.47562 0.18873 0.21605 0.0
N489 N 0.48544 0.33662 0.26516 0.0
H490 H 0.49261 0.2689 0.36158 0.0
H491 H 0.50099 0.31789 0.3455 0.0
H492 H 0.4855 0.35685 0.24023 0.0
H493 H 0.47446 0.33975 0.29717 0.0
H494 H 0.47159 0.17917 0.18183 0.0
H495 H 0.4649 0.16409 0.23955 0.0
H496 H 0.5171 0.23135 0.14437 0.0
H497 H 0.5248 0.28004 0.12829 0.0
C498 C 0.25074 0.54336 0.51086 0.0
C499 C 0.2447 0.51101 0.47969 0.0
C500 C 0.27978 0.48763 0.5333 0.0
C501 C 0.28868 0.52199 0.5627 0.0
N502 N 0.28938 0.58688 0.57576 0.0
N503 N 0.25744 0.45544 0.45799 0.0
C504 C 0.27579 0.55092 0.5506 0.0
C505 C 0.26045 0.48405 0.48997 0.0
N506 N 0.23228 0.56679 0.50267 0.0
N507 N 0.28839 0.45759 0.5476 0.0
H508 H 0.24216 0.45105 0.42672 0.0
H509 H 0.27235 0.43802 0.46102 0.0
H510 H 0.30239 0.45912 0.57906 0.0
H511 H 0.27874 0.42952 0.53013 0.0
H512 H 0.23124 0.58727 0.52664 0.0
H513 H 0.21521 0.5637 0.47313 0.0
H514 H 0.28534 0.61161 0.56571 0.0
H515 H 0.30815 0.59388 0.60479 0.0
C516 C 0.65064 0.28874 0.93765 0.0
C517 C 0.69212 0.30334 0.92118 0.0
C518 C 0.6637 0.25115 0.85871 0.0
C519 C 0.62275 0.23375 0.87813 0.0
N520 N 0.57782 0.23279 0.93973 0.0
N521 N 0.73905 0.2949 0.86997 0.0
C522 C 0.61647 0.25146 0.91883 0.0
C523 C 0.69889 0.28374 0.88256 0.0
N524 N 0.64349 0.31183 0.9695 0.0
N525 N 0.66904 0.2365 0.81751 0.0
H526 H 0.76554 0.31807 0.88694 0.0
H527 H 0.74616 0.27883 0.84538 0.0
H528 H 0.64457 0.2112 0.80029 0.0
H529 H 0.69711 0.25113 0.79886 0.0
H530 H 0.61354 0.30568 0.97874 0.0
H531 H 0.66745 0.33974 0.9835 0.0
H532 H 0.57267 0.24122 0.97227 0.0
H533 H 0.55119 0.20697 0.92608 0.0
C534 C 0.43723 0.7457 0.14613 0.0
C535 C 0.43548 0.70833 0.16129 0.0
C536 C 0.43818 0.73043 0.24148 0.0
C537 C 0.44039 0.76806 0.22633 0.0
N538 N 0.456 0.8172 0.16475 0.0
N539 N 0.44892 0.67265 0.22194 0.0
C540 C 0.4447 0.77756 0.17873 0.0
C541 C 0.44089 0.7033 0.20855 0.0
N542 N 0.42882 0.7498 0.10149 0.0
N543 N 0.4304 0.71872 0.28657 0.0
H544 H 0.45224 0.65304 0.19849 0.0
H545 H 0.45689 0.66991 0.25546 0.0
H546 H 0.42748 0.73684 0.31216 0.0
H547 H 0.42336 0.68915 0.29803 0.0
H548 H 0.4249 0.77431 0.09012 0.0
H549 H 0.42218 0.72711 0.07643 0.0
H550 H 0.46329 0.8271 0.13075 0.0
H551 H 0.46254 0.84136 0.18797 0.0
C552 C 0.73609 0.44675 0.61013 0.0
C553 C 0.69591 0.43952 0.59736 0.0
C554 C 0.71003 0.42872 0.51729 0.0
C555 C 0.7474 0.42991 0.53123 0.0
N556 N 0.79627 0.43941 0.59097 0.0
N557 N 0.64155 0.41676 0.5402 0.0
C558 C 0.76052 0.43883 0.57773 0.0
C559 C 0.6822 0.42911 0.55121 0.0
N560 N 0.7515 0.46256 0.65269 0.0
N561 N 0.70079 0.42696 0.47172 0.0
H562 H 0.6195 0.41498 0.56411 0.0
H563 H 0.62835 0.40414 0.50843 0.0
H564 H 0.71993 0.42626 0.4457 0.0
H565 H 0.67632 0.43051 0.45945 0.0
H566 H 0.78222 0.47262 0.66263 0.0
H567 H 0.73462 0.46902 0.67704 0.0
H568 H 0.80475 0.44018 0.62511 0.0
H569 H 0.81681 0.43737 0.56763 0.0
C570 C 0.22604 0.63788 0.8486 0.0
C571 C 0.21172 0.64756 0.88982 0.0
C572 C 0.26302 0.7226 0.87825 0.0
C573 C 0.28005 0.71239 0.83973 0.0
N574 N 0.28273 0.65959 0.7931 0.0
N575 N 0.21883 0.6985 0.94657 0.0
C576 C 0.26268 0.66986 0.82592 0.0
C577 C 0.23099 0.68976 0.90549 0.0
N578 N 0.20493 0.59799 0.83115 0.0
N579 N 0.27635 0.76379 0.8877 0.0
H580 H 0.1938 0.67584 0.96609 0.0
H581 H 0.23506 0.72765 0.9627 0.0
H582 H 0.2992 0.78857 0.86809 0.0
H583 H 0.26228 0.77339 0.91226 0.0
H584 H 0.21069 0.5903 0.79851 0.0
H585 H 0.17969 0.57288 0.8479 0.0
H586 H 0.27473 0.62882 0.78563 0.0
H587 H 0.30993 0.68183 0.77605 0.0
loop_
_geom_bond_atom_site_label_1
_geom_bond_atom_site_label_2
_geom_bond_distance
_geom_bond_site_symmetry_2
_ccdc_geom_bond_type
Mg0 O7 2.141 . S
Mg0 O8 2.048 . S
Mg0 O9 2.048 . S
Mg0 O12 2.141 . S
C1 O2 1.313 . S
C1 O8 1.195 . S
O2 C1 1.313 . S
C3 O4 1.245 . S
C3 O12 1.289 . S
O4 C3 1.245 . S
C5 O6 1.245 . S
C5 O7 1.289 . S
O6 C5 1.245 . S
O7 Mg0 2.141 . S
O7 C5 1.289 . S
O8 Mg0 2.048 . S
O8 C1 1.195 . S
O9 Mg0 2.048 . S
O9 C10 1.195 . S
C10 O9 1.195 . S
C10 O11 1.313 . S
O11 C10 1.313 . S
O12 Mg0 2.141 . S
O12 C3 1.289 . S
Mg13 O20 2.141 . S
Mg13 O21 2.048 . S
Mg13 O22 2.048 . S
Mg13 O25 2.141 . S
C14 O15 1.313 . S
C14 O21 1.195 . S
O15 C14 1.313 . S
C16 O17 1.245 . S
C16 O25 1.289 . S
O17 C16 1.245 . S
C18 O19 1.245 . S
C18 O20 1.289 . S
O19 C18 1.245 . S
O20 Mg13 2.141 . S
O20 C18 1.289 . S
O21 Mg13 2.048 . S
O21 C14 1.195 . S
O22 Mg13 2.048 . S
O22 C23 1.195 . S
C23 O22 1.195 . S
C23 O24 1.313 . S
O24 C23 1.313 . S
O25 Mg13 2.141 . S
O25 C16 1.289 . S
Mg26 O33 2.141 1_554 S
Mg26 O34 2.048 . S
Mg26 O35 2.048 . S
Mg26 O38 2.141 1_554 S
C27 O28 1.313 . S
C27 O34 1.195 . S
O28 C27 1.313 . S
C29 O30 1.245 . S
C29 O38 1.291 . S
O30 C29 1.245 . S
C31 O32 1.245 . S
C31 O33 1.289 . S
O32 C31 1.245 . S
O33 Mg26 2.141 1_556 S
O33 C31 1.289 . S
O34 Mg26 2.048 . S
O34 C27 1.195 . S
O35 Mg26 2.048 . S
O35 C36 1.195 . S
C36 O35 1.195 . S
C36 O37 1.313 . S
O37 C36 1.313 . S
O38 Mg26 2.141 1_556 S
O38 C29 1.291 . S
Mg39 O46 2.141 . S
Mg39 O47 2.048 . S
Mg39 O48 2.048 . S
Mg39 O51 2.141 . S
C40 O41 1.313 . S
C40 O47 1.195 . S
O41 C40 1.313 . S
C42 O43 1.245 . S
C42 O51 1.289 . S
O43 C42 1.245 . S
C44 O45 1.245 . S
C44 O46 1.289 . S
O45 C44 1.245 . S
O46 Mg39 2.141 . S
O46 C44 1.289 . S
O47 Mg39 2.048 . S
O47 C40 1.195 . S
O48 Mg39 2.048 . S
O48 C49 1.195 . S
C49 O48 1.195 . S
C49 O50 1.313 . S
O50 C49 1.313 . S
O51 Mg39 2.141 . S
O51 C42 1.289 . S
Mg52 O59 2.141 . S
Mg52 O60 2.048 . S
Mg52 O61 2.048 . S
Mg52 O64 2.141 . S
C53 O54 1.313 . S
C53 O60 1.195 . S
O54 C53 1.313 . S
C55 O56 1.245 . S
C55 O64 1.289 . S
O56 C55 1.245 . S
C57 O58 1.245 . S
C57 O59 1.289 . S
O58 C57 1.245 . S
O59 Mg52 2.141 . S
O59 C57 1.289 . S
O60 Mg52 2.048 . S
O60 C53 1.195 . S
O61 Mg52 2.048 . S
O61 C62 1.195 . S
C62 O61 1.195 . S
C62 O63 1.313 . S
O63 C62 1.313 . S
O64 Mg52 2.141 . S
O64 C55 1.289 . S
Mg65 O72 2.141 1_554 S
Mg65 O73 2.048 . S
Mg65 O74 2.048 . S
Mg65 O77 2.141 1_554 S
C66 O67 1.313 . S
C66 O73 1.195 . S
O67 C66 1.313 . S
C68 O69 1.245 . S
C68 O77 1.291 . S
O69 C68 1.245 . S
C70 O71 1.245 . S
C70 O72 1.289 . S
O71 C70 1.245 . S
O72 Mg65 2.141 1_556 S
O72 C70 1.289 . S
O73 Mg65 2.048 . S
O73 C66 1.195 . S
O74 Mg65 2.048 . S
O74 C75 1.195 . S
C75 O74 1.195 . S
C75 O76 1.313 . S
O76 C75 1.313 . S
O77 Mg65 2.141 1_556 S
O77 C68 1.291 . S
Mg78 O85 2.141 . S
Mg78 O86 2.048 . S
Mg78 O87 2.048 . S
Mg78 O90 2.141 . S
C79 O80 1.313 . S
C79 O86 1.195 . S
O80 C79 1.313 . S
C81 O82 1.245 . S
C81 O90 1.289 . S
O82 C81 1.245 . S
C83 O84 1.245 . S
C83 O85 1.289 . S
O84 C83 1.245 . S
O85 Mg78 2.141 . S
O85 C83 1.289 . S
O86 Mg78 2.048 . S
O86 C79 1.195 . S
O87 Mg78 2.048 . S
O87 C88 1.195 . S
C88 O87 1.195 . S
C88 O89 1.313 . S
O89 C88 1.313 . S
O90 Mg78 2.141 . S
O90 C81 1.289 . S
Mg91 O98 2.141 . S
Mg91 O99 2.048 . S
Mg91 O100 2.048 . S
Mg91 O103 2.141 . S
C92 O93 1.313 . S
C92 O99 1.195 . S
O93 C92 1.313 . S
C94 O95 1.245 . S
C94 O103 1.289 . S
O95 C94 1.245 . S
C96 O97 1.245 . S
C96 O98 1.289 . S
O97 C96 1.245 . S
O98 Mg91 2.141 . S
O98 C96 1.289 . S
O99 Mg91 2.048 . S
O99 C92 1.195 . S
O100 Mg91 2.048 . S
O100 C101 1.195 . S
C101 O100 1.195 . S
C101 O102 1.313 . S
O102 C101 1.313 . S
O103 Mg91 2.141 . S
O103 C94 1.289 . S
Mg104 O111 2.141 1_556 S
Mg104 O112 2.048 . S
Mg104 O113 2.048 . S
Mg104 O116 2.141 1_556 S
C105 O106 1.313 . S
C105 O112 1.195 . S
O106 C105 1.313 . S
C107 O108 1.245 . S
C107 O116 1.289 . S
O108 C107 1.245 . S
C109 O110 1.245 . S
C109 O111 1.289 . S
O110 C109 1.245 . S
O111 Mg104 2.141 1_554 S
O111 C109 1.289 . S
O112 Mg104 2.048 . S
O112 C105 1.195 . S
O113 Mg104 2.048 . S
O113 C114 1.195 . S
C114 O113 1.195 . S
C114 O115 1.313 . S
O115 C114 1.313 . S
O116 Mg104 2.141 1_554 S
O116 C107 1.289 . S
Mg117 O124 2.141 . S
Mg117 O125 2.048 . S
Mg117 O126 2.048 . S
Mg117 O129 2.141 . S
C118 O119 1.313 . S
C118 O125 1.195 . S
O119 C118 1.313 . S
C120 O121 1.245 . S
C120 O129 1.289 . S
O121 C120 1.245 . S
C122 O123 1.245 . S
C122 O124 1.289 . S
O123 C122 1.245 . S
O124 Mg117 2.141 . S
O124 C122 1.289 . S
O125 Mg117 2.048 . S
O125 C118 1.195 . S
O126 Mg117 2.048 . S
O126 C127 1.195 . S
C127 O126 1.195 . S
C127 O128 1.313 . S
O128 C127 1.313 . S
O129 Mg117 2.141 . S
O129 C120 1.289 . S
Mg130 O137 2.141 . S
Mg130 O138 2.048 . S
Mg130 O139 2.048 . S
Mg130 O142 2.141 . S
C131 O132 1.313 . S
C131 O138 1.195 . S
O132 C131 1.313 . S
C133 O134 1.245 . S
C133 O142 1.289 . S
O134 C133 1.245 . S
C135 O136 1.245 . S
C135 O137 1.289 . S
O136 C135 1.245 . S
O137 Mg130 2.141 . S
O137 C135 1.289 . S
O138 Mg130 2.048 . S
O138 C131 1.195 . S
O139 Mg130 2.048 . S
O139 C140 1.195 . S
C140 O139 1.195 . S
C140 O141 1.313 . S
O141 C140 1.313 . S
O142 Mg130 2.141 . S
O142 C133 1.289 . S
Mg143 O150 2.141 1_556 S
Mg143 O151 2.048 . S
Mg143 O152 2.048 . S
Mg143 O155 2.141 1_556 S
C144 O145 1.313 . S
C144 O151 1.195 . S
O145 C144 1.313 . S
C146 O147 1.245 . S
C146 O155 1.289 . S
O147 C146 1.245 . S
C148 O149 1.245 . S
C148 O150 1.289 . S
O149 C148 1.245 . S
O150 Mg143 2.141 1_554 S
O150 C148 1.289 . S
O151 Mg143 2.048 . S
O151 C144 1.195 . S
O152 Mg143 2.048 . S
O152 C153 1.195 . S
C153 O152 1.195 . S
C153 O154 1.313 . S
O154 C153 1.313 . S
O155 Mg143 2.141 1_554 S
O155 C146 1.289 . S
C156 C157 1.363 . S
C156 C162 1.379 . S
C156 N164 1.356 . S
C157 C156 1.363 . S
C157 C163 1.363 . S
C158 C159 1.363 . S
C158 C163 1.379 . S
C158 N165 1.356 . S
C159 C158 1.363 . S
C159 C162 1.363 . S
N160 C162 1.356 . S
N160 H172 0.984 . S
N160 H173 0.985 . S
N161 C163 1.356 . S
N161 H166 0.984 . S
N161 H167 0.985 . S
C162 C156 1.379 . S
C162 C159 1.363 . S
C162 N160 1.356 . S
C163 C157 1.363 . S
C163 C158 1.379 . S
C163 N161 1.356 . S
N164 C156 1.356 . S
N164 H170 0.984 . S
N164 H171 0.984 . S
N165 C158 1.356 . S
N165 H168 0.984 . S
N165 H169 0.985 . S
H166 N161 0.984 . S
H167 N161 0.985 . S
H168 N165 0.984 . S
H169 N165 0.985 . S
H170 N164 0.984 . S
H171 N164 0.984 . S
H172 N160 0.984 . S
H173 N160 0.985 . S
C174 C175 1.363 . S
C174 C180 1.379 . S
C174 N182 1.356 . S
C175 C174 1.363 . S
C175 C181 1.363 . S
C176 C177 1.363 . S
C176 C181 1.379 . S
C176 N183 1.356 . S
C177 C176 1.363 . S
C177 C180 1.363 . S
N178 C180 1.356 . S
N178 H190 0.984 . S
N178 H191 0.985 . S
N179 C181 1.356 . S
N179 H184 0.984 . S
N179 H185 0.985 . S
C180 C174 1.379 . S
C180 C177 1.363 . S
C180 N178 1.356 . S
C181 C175 1.363 . S
C181 C176 1.379 . S
C181 N179 1.356 . S
N182 C174 1.356 . S
N182 H188 0.984 . S
N182 H189 0.984 . S
N183 C176 1.356 . S
N183 H186 0.984 . S
N183 H187 0.985 . S
H184 N179 0.984 . S
H185 N179 0.985 . S
H186 N183 0.984 . S
H187 N183 0.985 . S
H188 N182 0.984 . S
H189 N182 0.984 . S
H190 N178 0.984 . S
H191 N178 0.985 . S
C192 C193 1.363 . S
C192 C198 1.379 . S
C192 N200 1.356 . S
C193 C192 1.363 . S
C193 C199 1.363 . S
C194 C195 1.363 . S
C194 C199 1.379 . S
C194 N201 1.356 . S
C195 C194 1.363 . S
C195 C198 1.363 . S
N196 C198 1.356 . S
N196 H208 0.984 . S
N196 H209 0.985 . S
N197 C199 1.356 . S
N197 H202 0.984 . S
N197 H203 0.985 . S
C198 C192 1.379 . S
C198 C195 1.363 . S
C198 N196 1.356 . S
C199 C193 1.363 . S
C199 C194 1.379 . S
C199 N197 1.356 . S
N200 C192 1.356 . S
N200 H206 0.984 . S
N200 H207 0.984 . S
N201 C194 1.356 . S
N201 H204 0.984 . S
N201 H205 0.985 . S
H202 N197 0.984 . S
H203 N197 0.985 . S
H204 N201 0.984 . S
H205 N201 0.985 . S
H206 N200 0.984 . S
H207 N200 0.984 . S
H208 N196 0.984 . S
H209 N196 0.985 . S
C210 C211 1.363 . S
C210 C216 1.379 . S
C210 N218 1.356 . S
C211 C210 1.363 . S
C211 C217 1.363 . S
C212 C213 1.363 . S
C212 C217 1.379 . S
C212 N219 1.356 . S
C213 C212 1.363 . S
C213 C216 1.363 . S
N214 C216 1.356 . S
N214 H226 0.984 . S
N214 H227 0.985 . S
N215 C217 1.356 . S
N215 H220 0.984 . S
N215 H221 0.985 . S
C216 C210 1.379 . S
C216 C213 1.363 . S
C216 N214 1.356 . S
C217 C211 1.363 . S
C217 C212 1.379 . S
C217 N215 1.356 . S
N218 C210 1.356 . S
N218 H224 0.984 . S
N218 H225 0.984 . S
N219 C212 1.356 . S
N219 H222 0.984 . S
N219 H223 0.985 . S
H220 N215 0.984 . S
H221 N215 0.985 . S
H222 N219 0.984 . S
H223 N219 0.985 . S
H224 N218 0.984 . S
H225 N218 0.984 . S
H226 N214 0.984 . S
H227 N214 0.985 . S
C228 C229 1.363 . S
C228 C234 1.379 . S
C228 N236 1.356 . S
C229 C228 1.363 . S
C229 C235 1.363 . S
C230 C231 1.363 . S
C230 C235 1.379 . S
C230 N237 1.356 . S
C231 C230 1.363 . S
C231 C234 1.363 . S
N232 C234 1.356 . S
N232 H244 0.984 . S
N232 H245 0.985 . S
N233 C235 1.356 . S
N233 H238 0.984 . S
N233 H239 0.985 . S
C234 C228 1.379 . S
C234 C231 1.363 . S
C234 N232 1.356 . S
C235 C229 1.363 . S
C235 C230 1.379 . S
C235 N233 1.356 . S
N236 C228 1.356 . S
N236 H242 0.984 . S
N236 H243 0.984 . S
N237 C230 1.356 . S
N237 H240 0.984 . S
N237 H241 0.985 . S
H238 N233 0.984 . S
H239 N233 0.985 . S
H240 N237 0.984 . S
H241 N237 0.985 . S
H242 N236 0.984 . S
H243 N236 0.984 . S
H244 N232 0.984 . S
H245 N232 0.985 . S
C246 C247 1.363 . S
C246 C252 1.379 . S
C246 N254 1.356 . S
C247 C246 1.363 . S
C247 C253 1.363 . S
C248 C249 1.363 . S
C248 C253 1.379 . S
C248 N255 1.356 . S
C249 C248 1.363 . S
C249 C252 1.363 . S
N250 C252 1.356 . S
N250 H262 0.984 . S
N250 H263 0.985 . S
N251 C253 1.356 . S
N251 H256 0.984 . S
N251 H257 0.985 . S
C252 C246 1.379 . S
C252 C249 1.363 . S
C252 N250 1.356 . S
C253 C247 1.363 . S
C253 C248 1.379 . S
C253 N251 1.356 . S
N254 C246 1.356 . S
N254 H260 0.984 . S
N254 H261 0.984 . S
N255 C248 1.356 . S
N255 H258 0.984 . S
N255 H259 0.985 . S
H256 N251 0.984 . S
H257 N251 0.985 . S
H258 N255 0.984 . S
H259 N255 0.985 . S
H260 N254 0.984 . S
H261 N254 0.984 . S
H262 N250 0.984 . S
H263 N250 0.985 . S
C264 C265 1.363 . S
C264 C270 1.379 . S
C264 N272 1.356 . S
C265 C264 1.363 . S
C265 C271 1.363 . S
C266 C267 1.363 . S
C266 C271 1.379 . S
C266 N273 1.356 . S
C267 C266 1.363 . S
C267 C270 1.363 . S
N268 C270 1.356 . S
N268 H280 0.984 . S
N268 H281 0.985 . S
N269 C271 1.356 . S
N269 H274 0.984 . S
N269 H275 0.985 . S
C270 C264 1.379 . S
C270 C267 1.363 . S
C270 N268 1.356 . S
C271 C265 1.363 . S
C271 C266 1.379 . S
C271 N269 1.356 . S
N272 C264 1.356 . S
N272 H278 0.984 . S
N272 H279 0.984 . S
N273 C266 1.356 . S
N273 H276 0.984 . S
N273 H277 0.985 . S
H274 N269 0.984 . S
H275 N269 0.985 . S
H276 N273 0.984 . S
H277 N273 0.985 . S
H278 N272 0.984 . S
H279 N272 0.984 . S
H280 N268 0.984 . S
H281 N268 0.985 . S
C282 C283 1.363 . S
C282 C288 1.379 . S
C282 N290 1.356 . S
C283 C282 1.363 . S
C283 C289 1.363 . S
C284 C285 1.363 . S
C284 C289 1.379 . S
C284 N291 1.356 . S
C285 C284 1.363 . S
C285 C288 1.363 . S
N286 C288 1.356 . S
N286 H298 0.984 . S
N286 H299 0.985 . S
N287 C289 1.356 . S
N287 H292 0.984 . S
N287 H293 0.985 . S
C288 C282 1.379 . S
C288 C285 1.363 . S
C288 N286 1.356 . S
C289 C283 1.363 . S
C289 C284 1.379 . S
C289 N287 1.356 . S
N290 C282 1.356 . S
N290 H296 0.984 . S
N290 H297 0.984 . S
N291 C284 1.356 . S
N291 H294 0.984 . S
N291 H295 0.985 . S
H292 N287 0.984 . S
H293 N287 0.985 . S
H294 N291 0.984 . S
H295 N291 0.985 . S
H296 N290 0.984 . S
H297 N290 0.984 . S
H298 N286 0.984 . S
H299 N286 0.985 . S
C300 C301 1.363 . S
C300 C306 1.379 . S
C300 N308 1.356 . S
C301 C300 1.363 . S
C301 C307 1.363 1_556 S
C302 C303 1.363 . S
C302 C307 1.379 . S
C302 N309 1.356 . S
C303 C302 1.363 . S
C303 C306 1.363 1_554 S
N304 C306 1.356 . S
N304 H316 0.984 . S
N304 H317 0.985 . S
N305 C307 1.356 . S
N305 H310 0.984 . S
N305 H311 0.985 . S
C306 C300 1.379 . S
C306 C303 1.363 1_556 S
C306 N304 1.356 . S
C307 C301 1.363 1_554 S
C307 C302 1.379 . S
C307 N305 1.356 . S
N308 C300 1.356 . S
N308 H314 0.984 . S
N308 H315 0.984 . S
N309 C302 1.356 . S
N309 H312 0.984 . S
N309 H313 0.985 . S
H310 N305 0.984 . S
H311 N305 0.985 . S
H312 N309 0.984 . S
H313 N309 0.985 . S
H314 N308 0.984 . S
H315 N308 0.984 . S
H316 N304 0.984 . S
H317 N304 0.985 . S
C318 C319 1.363 . S
C318 C324 1.379 . S
C318 N326 1.356 . S
C319 C318 1.363 . S
C319 C325 1.363 . S
C320 C321 1.363 . S
C320 C325 1.379 . S
C320 N327 1.356 . S
C321 C320 1.363 . S
C321 C324 1.363 . S
N322 C324 1.356 . S
N322 H334 0.984 . S
N322 H335 0.985 . S
N323 C325 1.356 . S
N323 H328 0.984 . S
N323 H329 0.985 . S
C324 C318 1.379 . S
C324 C321 1.363 . S
C324 N322 1.356 . S
C325 C319 1.363 . S
C325 C320 1.379 . S
C325 N323 1.356 . S
N326 C318 1.356 . S
N326 H332 0.984 . S
N326 H333 0.984 . S
N327 C320 1.356 . S
N327 H330 0.984 . S
N327 H331 0.985 . S
H328 N323 0.984 . S
H329 N323 0.985 . S
H330 N327 0.984 . S
H331 N327 0.985 . S
H332 N326 0.984 . S
H333 N326 0.984 . S
H334 N322 0.984 . S
H335 N322 0.985 . S
C336 C337 1.363 . S
C336 C342 1.379 . S
C336 N344 1.356 . S
C337 C336 1.363 . S
C337 C343 1.363 . S
C338 C339 1.363 . S
C338 C343 1.379 . S
C338 N345 1.356 . S
C339 C338 1.363 . S
C339 C342 1.363 . S
N340 C342 1.356 . S
N340 H352 0.984 . S
N340 H353 0.985 . S
N341 C343 1.356 . S
N341 H346 0.984 . S
N341 H347 0.985 . S
C342 C336 1.379 . S
C342 C339 1.363 . S
C342 N340 1.356 . S
C343 C337 1.363 . S
C343 C338 1.379 . S
C343 N341 1.356 . S
N344 C336 1.356 . S
N344 H350 0.984 . S
N344 H351 0.984 . S
N345 C338 1.356 . S
N345 H348 0.984 . S
N345 H349 0.985 . S
H346 N341 0.984 . S
H347 N341 0.985 . S
H348 N345 0.984 . S
H349 N345 0.985 . S
H350 N344 0.984 . S
H351 N344 0.984 . S
H352 N340 0.984 . S
H353 N340 0.985 . S
C354 C355 1.363 1_556 S
C354 C360 1.379 . S
C354 N362 1.356 . S
C355 C354 1.363 1_554 S
C355 C361 1.363 . S
C356 C357 1.363 1_554 S
C356 C361 1.379 . S
C356 N363 1.356 . S
C357 C356 1.363 1_556 S
C357 C360 1.363 . S
N358 C360 1.356 . S
N358 H370 0.984 . S
N358 H371 0.985 . S
N359 C361 1.356 . S
N359 H364 0.984 . S
N359 H365 0.985 . S
C360 C354 1.379 . S
C360 C357 1.363 . S
C360 N358 1.356 . S
C361 C355 1.363 . S
C361 C356 1.379 . S
C361 N359 1.356 . S
N362 C354 1.356 . S
N362 H368 0.984 . S
N362 H369 0.984 . S
N363 C356 1.356 . S
N363 H366 0.984 . S
N363 H367 0.985 . S
H364 N359 0.984 . S
H365 N359 0.985 . S
H366 N363 0.984 . S
H367 N363 0.985 . S
H368 N362 0.984 . S
H369 N362 0.984 . S
H370 N358 0.984 . S
H371 N358 0.985 . S
C372 C373 1.363 1_565 S
C372 C378 1.379 . S
C372 N380 1.356 1_565 S
C373 C372 1.363 1_545 S
C373 C379 1.363 . S
C374 C375 1.363 1_545 S
C374 C379 1.379 . S
C374 N381 1.356 1_545 S
C375 C374 1.363 1_565 S
C375 C378 1.363 . S
N376 C378 1.356 . S
N376 H388 0.984 . S
N376 H389 0.985 . S
N377 C379 1.356 . S
N377 H382 0.984 . S
N377 H383 0.985 . S
C378 C372 1.379 . S
C378 C375 1.363 . S
C378 N376 1.356 . S
C379 C373 1.363 . S
C379 C374 1.379 . S
C379 N377 1.356 . S
N380 C372 1.356 1_545 S
N380 H386 0.984 1_545 S
N380 H387 0.984 . S
N381 C374 1.356 1_565 S
N381 H384 0.984 . S
N381 H385 0.985 1_565 S
H382 N377 0.984 . S
H383 N377 0.985 . S
H384 N381 0.984 . S
H385 N381 0.985 1_545 S
H386 N380 0.984 1_565 S
H387 N380 0.984 . S
H388 N376 0.984 . S
H389 N376 0.985 . S
C390 C391 1.363 . S
C390 C396 1.379 . S
C390 N398 1.356 . S
C391 C390 1.363 . S
C391 C397 1.363 . S
C392 C393 1.363 . S
C392 C397 1.379 . S
C392 N399 1.356 . S
C393 C392 1.363 . S
C393 C396 1.363 . S
N394 C396 1.356 . S
N394 H406 0.984 . S
N394 H407 0.985 . S
N395 C397 1.356 . S
N395 H400 0.984 . S
N395 H401 0.985 . S
C396 C390 1.379 . S
C396 C393 1.363 . S
C396 N394 1.356 . S
C397 C391 1.363 . S
C397 C392 1.379 . S
C397 N395 1.356 . S
N398 C390 1.356 . S
N398 H404 0.984 . S
N398 H405 0.984 . S
N399 C392 1.356 . S
N399 H402 0.984 . S
N399 H403 0.985 . S
H400 N395 0.984 . S
H401 N395 0.985 . S
H402 N399 0.984 . S
H403 N399 0.985 . S
H404 N398 0.984 . S
H405 N398 0.984 . S
H406 N394 0.984 . S
H407 N394 0.985 . S
C408 C409 1.363 1_554 S
C408 C414 1.379 . S
C408 N416 1.356 . S
C409 C408 1.363 1_556 S
C409 C415 1.363 1_655 S
C410 C411 1.363 . S
C410 C415 1.379 . S
C410 N417 1.356 . S
C411 C410 1.363 . S
C411 C414 1.363 1_456 S
N412 C414 1.356 1_455 S
N412 H424 0.984 1_455 S
N412 H425 0.985 . S
N413 C415 1.356 1_655 S
N413 H418 0.984 . S
N413 H419 0.985 1_655 S
C414 C408 1.379 . S
C414 C411 1.363 1_654 S
C414 N412 1.356 1_655 S
C415 C409 1.363 1_455 S
C415 C410 1.379 . S
C415 N413 1.356 1_455 S
N416 C408 1.356 . S
N416 H422 0.984 . S
N416 H423 0.984 . S
N417 C410 1.356 . S
N417 H420 0.984 . S
N417 H421 0.985 . S
H418 N413 0.984 . S
H419 N413 0.985 1_455 S
H420 N417 0.984 . S
H421 N417 0.985 . S
H422 N416 0.984 . S
H423 N416 0.984 . S
H424 N412 0.984 1_655 S
H425 N412 0.985 . S
C426 C427 1.363 . S
C426 C432 1.379 . S
C426 N434 1.356 . S
C427 C426 1.363 . S
C427 C433 1.363 1_455 S
C428 C429 1.363 . S
C428 C433 1.379 . S
C428 N435 1.356 . S
C429 C428 1.363 . S
C429 C432 1.363 1_655 S
N430 C432 1.356 1_655 S
N430 H442 0.984 1_655 S
N430 H443 0.985 . S
N431 C433 1.356 1_455 S
N431 H436 0.984 . S
N431 H437 0.985 1_455 S
C432 C426 1.379 . S
C432 C429 1.363 1_455 S
C432 N430 1.356 1_455 S
C433 C427 1.363 1_655 S
C433 C428 1.379 . S
C433 N431 1.356 1_655 S
N434 C426 1.356 . S
N434 H440 0.984 . S
N434 H441 0.984 . S
N435 C428 1.356 . S
N435 H438 0.984 . S
N435 H439 0.985 . S
H436 N431 0.984 . S
H437 N431 0.985 1_655 S
H438 N435 0.984 . S
H439 N435 0.985 . S
H440 N434 0.984 . S
H441 N434 0.984 . S
H442 N430 0.984 1_455 S
H443 N430 0.985 . S
C444 C445 1.363 1_565 S
C444 C450 1.379 . S
C444 N452 1.356 1_565 S
C445 C444 1.363 1_545 S
C445 C451 1.363 . S
C446 C447 1.363 1_545 S
C446 C451 1.379 . S
C446 N453 1.356 1_545 S
C447 C446 1.363 1_565 S
C447 C450 1.363 . S
N448 C450 1.356 . S
N448 H460 0.984 . S
N448 H461 0.985 . S
N449 C451 1.356 . S
N449 H454 0.984 . S
N449 H455 0.985 . S
C450 C444 1.379 . S
C450 C447 1.363 . S
C450 N448 1.356 . S
C451 C445 1.363 . S
C451 C446 1.379 . S
C451 N449 1.356 . S
N452 C444 1.356 1_545 S
N452 H458 0.984 1_545 S
N452 H459 0.984 . S
N453 C446 1.356 1_565 S
N453 H456 0.984 . S
N453 H457 0.985 1_565 S
H454 N449 0.984 . S
H455 N449 0.985 . S
H456 N453 0.984 . S
H457 N453 0.985 1_545 S
H458 N452 0.984 1_565 S
H459 N452 0.984 . S
H460 N448 0.984 . S
H461 N448 0.985 . S
C462 C463 1.363 . S
C462 C468 1.379 . S
C462 N470 1.356 . S
C463 C462 1.363 . S
C463 C469 1.363 1_554 S
C464 C465 1.363 1_556 S
C464 C469 1.379 . S
C464 N471 1.356 . S
C465 C464 1.363 1_554 S
C465 C468 1.363 . S
N466 C468 1.356 . S
N466 H478 0.984 . S
N466 H479 0.985 . S
N467 C469 1.356 . S
N467 H472 0.984 . S
N467 H473 0.985 . S
C468 C462 1.379 . S
C468 C465 1.363 . S
C468 N466 1.356 . S
C469 C463 1.363 1_556 S
C469 C464 1.379 . S
C469 N467 1.356 . S
N470 C462 1.356 . S
N470 H476 0.984 . S
N470 H477 0.984 . S
N471 C464 1.356 . S
N471 H474 0.984 . S
N471 H475 0.985 . S
H472 N467 0.984 . S
H473 N467 0.985 . S
H474 N471 0.984 . S
H475 N471 0.985 . S
H476 N470 0.984 . S
H477 N470 0.984 . S
H478 N466 0.984 . S
H479 N466 0.985 . S
C480 C481 1.363 . S
C480 C486 1.379 . S
C480 N488 1.356 . S
C481 C480 1.363 . S
C481 C487 1.363 . S
C482 C483 1.363 . S
C482 C487 1.379 . S
C482 N489 1.356 . S
C483 C482 1.363 . S
C483 C486 1.363 . S
N484 C486 1.356 . S
N484 H496 0.984 . S
N484 H497 0.985 . S
N485 C487 1.356 . S
N485 H490 0.984 . S
N485 H491 0.985 . S
C486 C480 1.379 . S
C486 C483 1.363 . S
C486 N484 1.356 . S
C487 C481 1.363 . S
C487 C482 1.379 . S
C487 N485 1.356 . S
N488 C480 1.356 . S
N488 H494 0.984 . S
N488 H495 0.984 . S
N489 C482 1.356 . S
N489 H492 0.984 . S
N489 H493 0.985 . S
H490 N485 0.984 . S
H491 N485 0.985 . S
H492 N489 0.984 . S
H493 N489 0.985 . S
H494 N488 0.984 . S
H495 N488 0.984 . S
H496 N484 0.984 . S
H497 N484 0.985 . S
C498 C499 1.363 . S
C498 C504 1.379 . S
C498 N506 1.356 . S
C499 C498 1.363 . S
C499 C505 1.363 . S
C500 C501 1.363 . S
C500 C505 1.379 . S
C500 N507 1.356 . S
C501 C500 1.363 . S
C501 C504 1.363 . S
N502 C504 1.356 . S
N502 H514 0.984 . S
N502 H515 0.985 . S
N503 C505 1.356 . S
N503 H508 0.984 . S
N503 H509 0.985 . S
C504 C498 1.379 . S
C504 C501 1.363 . S
C504 N502 1.356 . S
C505 C499 1.363 . S
C505 C500 1.379 . S
C505 N503 1.356 . S
N506 C498 1.356 . S
N506 H512 0.984 . S
N506 H513 0.984 . S
N507 C500 1.356 . S
N507 H510 0.984 . S
N507 H511 0.985 . S
H508 N503 0.984 . S
H509 N503 0.985 . S
H510 N507 0.984 . S
H511 N507 0.985 . S
H512 N506 0.984 . S
H513 N506 0.984 . S
H514 N502 0.984 . S
H515 N502 0.985 . S
C516 C517 1.363 . S
C516 C522 1.379 . S
C516 N524 1.356 . S
C517 C516 1.363 . S
C517 C523 1.363 . S
C518 C519 1.363 . S
C518 C523 1.379 . S
C518 N525 1.356 . S
C519 C518 1.363 . S
C519 C522 1.363 . S
N520 C522 1.356 . S
N520 H532 0.984 . S
N520 H533 0.985 . S
N521 C523 1.356 . S
N521 H526 0.984 . S
N521 H527 0.985 . S
C522 C516 1.379 . S
C522 C519 1.363 . S
C522 N520 1.356 . S
C523 C517 1.363 . S
C523 C518 1.379 . S
C523 N521 1.356 . S
N524 C516 1.356 . S
N524 H530 0.984 . S
N524 H531 0.984 . S
N525 C518 1.356 . S
N525 H528 0.984 . S
N525 H529 0.985 . S
H526 N521 0.984 . S
H527 N521 0.985 . S
H528 N525 0.984 . S
H529 N525 0.985 . S
H530 N524 0.984 . S
H531 N524 0.984 . S
H532 N520 0.984 . S
H533 N520 0.985 . S
C534 C535 1.363 . S
C534 C540 1.379 . S
C534 N542 1.356 . S
C535 C534 1.363 . S
C535 C541 1.363 . S
C536 C537 1.363 . S
C536 C541 1.379 . S
C536 N543 1.356 . S
C537 C536 1.363 . S
C537 C540 1.363 . S
N538 C540 1.356 . S
N538 H550 0.984 . S
N538 H551 0.985 . S
N539 C541 1.356 . S
N539 H544 0.984 . S
N539 H545 0.985 . S
C540 C534 1.379 . S
C540 C537 1.363 . S
C540 N538 1.356 . S
C541 C535 1.363 . S
C541 C536 1.379 . S
C541 N539 1.356 . S
N542 C534 1.356 . S
N542 H548 0.984 . S
N542 H549 0.984 . S
N543 C536 1.356 . S
N543 H546 0.984 . S
N543 H547 0.985 . S
H544 N539 0.984 . S
H545 N539 0.985 . S
H546 N543 0.984 . S
H547 N543 0.985 . S
H548 N542 0.984 . S
H549 N542 0.984 . S
H550 N538 0.984 . S
H551 N538 0.985 . S
C552 C553 1.363 . S
C552 C558 1.379 . S
C552 N560 1.356 . S
C553 C552 1.363 . S
C553 C559 1.363 . S
C554 C555 1.363 . S
C554 C559 1.379 . S
C554 N561 1.356 . S
C555 C554 1.363 . S
C555 C558 1.363 . S
N556 C558 1.356 . S
N556 H568 0.984 . S
N556 H569 0.985 . S
N557 C559 1.356 . S
N557 H562 0.984 . S
N557 H563 0.985 . S
C558 C552 1.379 . S
C558 C555 1.363 . S
C558 N556 1.356 . S
C559 C553 1.363 . S
C559 C554 1.379 . S
C559 N557 1.356 . S
N560 C552 1.356 . S
N560 H566 0.984 . S
N560 H567 0.984 . S
N561 C554 1.356 . S
N561 H564 0.984 . S
N561 H565 0.985 . S
H562 N557 0.984 . S
H563 N557 0.985 . S
H564 N561 0.984 . S
H565 N561 0.985 . S
H566 N560 0.984 . S
H567 N560 0.984 . S
H568 N556 0.984 . S
H569 N556 0.985 . S
C570 C571 1.363 . S
C570 C576 1.379 . S
C570 N578 1.356 . S
C571 C570 1.363 . S
C571 C577 1.363 . S
C572 C573 1.363 . S
C572 C577 1.379 . S
C572 N579 1.356 . S
C573 C572 1.363 . S
C573 C576 1.363 . S
N574 C576 1.356 . S
N574 H586 0.984 . S
N574 H587 0.985 . S
N575 C577 1.356 . S
N575 H580 0.984 . S
N575 H581 0.985 . S
C576 C570 1.379 . S
C576 C573 1.363 . S
C576 N574 1.356 . S
C577 C571 1.363 . S
C577 C572 1.379 . S
C577 N575 1.356 . S
N578 C570 1.356 . S
N578 H584 0.984 . S
N578 H585 0.984 . S
N579 C572 1.356 . S
N579 H582 0.984 . S
N579 H583 0.985 . S
H580 N575 0.984 . S
H581 N575 0.985 . S
H582 N579 0.984 . S
H583 N579 0.985 . S
H584 N578 0.984 . S
H585 N578 0.984 . S
H586 N574 0.984 . S
H587 N574 0.985 . S
C157 C10 1.614 . S
C159 C140 1.614 . S
C175 C14 1.642 . S
C177 C153 1.614 . S
C193 C79 1.642 . S
C195 C36 1.614 . S
C211 C49 1.614 . S
C213 C101 1.614 . S
C229 C114 1.614 . S
C231 C53 1.642 . S
C247 C118 1.642 . S
C249 C75 1.614 . S
C265 C88 1.230 . S
C267 C1 1.178 . S
C283 C92 1.178 . S
C285 C23 1.230 . S
C301 C105 1.178 . S
C303 C27 1.178 . S
C319 C40 1.178 . S
C321 C127 1.230 . S
C337 C62 1.230 . S
C339 C131 1.178 . S
C355 C66 1.178 . S
C357 C144 1.178 . S
C373 C3 2.207 . S
C375 C42 2.207 . S
C391 C18 2.428 . S
C393 C57 2.428 . S
C409 C29 2.207 . S
C411 C68 2.207 . S
C427 C122 2.428 . S
C429 C83 2.428 . S
C445 C133 2.207 . S
C447 C94 2.207 . S
C463 C146 2.207 . S
C465 C107 2.207 . S
C481 C5 1.792 . S
C483 C109 1.792 . S
C499 C120 1.765 . S
C501 C16 1.765 . S
C517 C31 1.792 . S
C519 C135 1.792 . S
C535 C148 1.792 . S
C537 C44 1.792 . S
C553 C55 1.765 . S
C555 C81 1.765 . S
C571 C70 1.792 . S
C573 C96 1.792 . S
