# Generated by pormake.
# Topology ukd, (4)-cn, num edge types: 1
# Building blocks:
#     Node 0, Type 0, BuildingBlock: TATPOV_clean_sbu_0, # of connection points: 4
#     Node 1, Type 0, BuildingBlock: TATPOV_clean_sbu_0, # of connection points: 4
#     Node 2, Type 0, BuildingBlock: TATPOV_clean_sbu_0, # of connection points: 4
#     Node 3, Type 0, BuildingBlock: TATPOV_clean_sbu_0, # of connection points: 4
#     Node 4, Type 0, BuildingBlock: TATPOV_clean_sbu_0, # of connection points: 4
#     Node 5, Type 0, BuildingBlock: TATPOV_clean_sbu_0, # of connection points: 4
#     Node 6, Type 0, BuildingBlock: TATPOV_clean_sbu_0, # of connection points: 4
#     Node 7, Type 0, BuildingBlock: TATPOV_clean_sbu_0, # of connection points: 4
#     Node 8, Type 0, BuildingBlock: TATPOV_clean_sbu_0, # of connection points: 4
#     Node 9, Type 0, BuildingBlock: TATPOV_clean_sbu_0, # of connection points: 4
#     Node 10, Type 0, BuildingBlock: TATPOV_clean_sbu_0, # of connection points: 4
#     Node 11, Type 0, BuildingBlock: TATPOV_clean_sbu_0, # of connection points: 4
#     Node 12, Type 0, BuildingBlock: TATPOV_clean_sbu_0, # of connection points: 4
#     Node 13, Type 0, BuildingBlock: TATPOV_clean_sbu_0, # of connection points: 4
#     Node 14, Type 0, BuildingBlock: TATPOV_clean_sbu_0, # of connection points: 4
#     Node 15, Type 0, BuildingBlock: TATPOV_clean_sbu_0, # of connection points: 4
#     Node 16, Type 0, BuildingBlock: TATPOV_clean_sbu_0, # of connection points: 4
#     Node 17, Type 0, BuildingBlock: TATPOV_clean_sbu_0, # of connection points: 4
#     Node 18, Type 0, BuildingBlock: TATPOV_clean_sbu_0, # of connection points: 4
#     Node 19, Type 0, BuildingBlock: TATPOV_clean_sbu_0, # of connection points: 4
#     Node 20, Type 0, BuildingBlock: TATPOV_clean_sbu_0, # of connection points: 4
#     Node 21, Type 0, BuildingBlock: TATPOV_clean_sbu_0, # of connection points: 4
#     Node 22, Type 0, BuildingBlock: TATPOV_clean_sbu_0, # of connection points: 4
#     Node 23, Type 0, BuildingBlock: TATPOV_clean_sbu_0, # of connection points: 4
#     Node 24, Type 0, BuildingBlock: TATPOV_clean_sbu_0, # of connection points: 4
#     Node 25, Type 0, BuildingBlock: TATPOV_clean_sbu_0, # of connection points: 4
#     Node 26, Type 0, BuildingBlock: TATPOV_clean_sbu_0, # of connection points: 4
#     Node 27, Type 0, BuildingBlock: TATPOV_clean_sbu_0, # of connection points: 4
#     Node 28, Type 0, BuildingBlock: TATPOV_clean_sbu_0, # of connection points: 4
#     Node 29, Type 0, BuildingBlock: TATPOV_clean_sbu_0, # of connection points: 4
#     Node 30, Type 0, BuildingBlock: TATPOV_clean_sbu_0, # of connection points: 4
#     Node 31, Type 0, BuildingBlock: TATPOV_clean_sbu_0, # of connection points: 4
#     Edge 32, Type (0, 0), BuildingBlock: XIVTED_clean_linker_0, # of connection points: 2
#     Edge 33, Type (0, 0), BuildingBlock: XIVTED_clean_linker_0, # of connection points: 2
#     Edge 34, Type (0, 0), BuildingBlock: XIVTED_clean_linker_0, # of connection points: 2
#     Edge 35, Type (0, 0), BuildingBlock: XIVTED_clean_linker_0, # of connection points: 2
#     Edge 36, Type (0, 0), BuildingBlock: XIVTED_clean_linker_0, # of connection points: 2
#     Edge 37, Type (0, 0), BuildingBlock: XIVTED_clean_linker_0, # of connection points: 2
#     Edge 38, Type (0, 0), BuildingBlock: XIVTED_clean_linker_0, # of connection points: 2
#     Edge 39, Type (0, 0), BuildingBlock: XIVTED_clean_linker_0, # of connection points: 2
#     Edge 40, Type (0, 0), BuildingBlock: XIVTED_clean_linker_0, # of connection points: 2
#     Edge 41, Type (0, 0), BuildingBlock: XIVTED_clean_linker_0, # of connection points: 2
#     Edge 42, Type (0, 0), BuildingBlock: XIVTED_clean_linker_0, # of connection points: 2
#     Edge 43, Type (0, 0), BuildingBlock: XIVTED_clean_linker_0, # of connection points: 2
#     Edge 44, Type (0, 0), BuildingBlock: XIVTED_clean_linker_0, # of connection points: 2
#     Edge 45, Type (0, 0), BuildingBlock: XIVTED_clean_linker_0, # of connection points: 2
#     Edge 46, Type (0, 0), BuildingBlock: XIVTED_clean_linker_0, # of connection points: 2
#     Edge 47, Type (0, 0), BuildingBlock: XIVTED_clean_linker_0, # of connection points: 2
#     Edge 48, Type (0, 0), BuildingBlock: XIVTED_clean_linker_0, # of connection points: 2
#     Edge 49, Type (0, 0), BuildingBlock: XIVTED_clean_linker_0, # of connection points: 2
#     Edge 50, Type (0, 0), BuildingBlock: XIVTED_clean_linker_0, # of connection points: 2
#     Edge 51, Type (0, 0), BuildingBlock: XIVTED_clean_linker_0, # of connection points: 2
#     Edge 52, Type (0, 0), BuildingBlock: XIVTED_clean_linker_0, # of connection points: 2
#     Edge 53, Type (0, 0), BuildingBlock: XIVTED_clean_linker_0, # of connection points: 2
#     Edge 54, Type (0, 0), BuildingBlock: XIVTED_clean_linker_0, # of connection points: 2
#     Edge 55, Type (0, 0), BuildingBlock: XIVTED_clean_linker_0, # of connection points: 2
#     Edge 56, Type (0, 0), BuildingBlock: XIVTED_clean_linker_0, # of connection points: 2
#     Edge 57, Type (0, 0), BuildingBlock: XIVTED_clean_linker_0, # of connection points: 2
#     Edge 58, Type (0, 0), BuildingBlock: XIVTED_clean_linker_0, # of connection points: 2
#     Edge 59, Type (0, 0), BuildingBlock: XIVTED_clean_linker_0, # of connection points: 2
#     Edge 60, Type (0, 0), BuildingBlock: XIVTED_clean_linker_0, # of connection points: 2
#     Edge 61, Type (0, 0), BuildingBlock: XIVTED_clean_linker_0, # of connection points: 2
#     Edge 62, Type (0, 0), BuildingBlock: XIVTED_clean_linker_0, # of connection points: 2
#     Edge 63, Type (0, 0), BuildingBlock: XIVTED_clean_linker_0, # of connection points: 2
#     Edge 64, Type (0, 0), BuildingBlock: XIVTED_clean_linker_0, # of connection points: 2
#     Edge 65, Type (0, 0), BuildingBlock: XIVTED_clean_linker_0, # of connection points: 2
#     Edge 66, Type (0, 0), BuildingBlock: XIVTED_clean_linker_0, # of connection points: 2
#     Edge 67, Type (0, 0), BuildingBlock: XIVTED_clean_linker_0, # of connection points: 2
#     Edge 68, Type (0, 0), BuildingBlock: XIVTED_clean_linker_0, # of connection points: 2
#     Edge 69, Type (0, 0), BuildingBlock: XIVTED_clean_linker_0, # of connection points: 2
#     Edge 70, Type (0, 0), BuildingBlock: XIVTED_clean_linker_0, # of connection points: 2
#     Edge 71, Type (0, 0), BuildingBlock: XIVTED_clean_linker_0, # of connection points: 2
#     Edge 72, Type (0, 0), BuildingBlock: XIVTED_clean_linker_0, # of connection points: 2
#     Edge 73, Type (0, 0), BuildingBlock: XIVTED_clean_linker_0, # of connection points: 2
#     Edge 74, Type (0, 0), BuildingBlock: XIVTED_clean_linker_0, # of connection points: 2
#     Edge 75, Type (0, 0), BuildingBlock: XIVTED_clean_linker_0, # of connection points: 2
#     Edge 76, Type (0, 0), BuildingBlock: XIVTED_clean_linker_0, # of connection points: 2
#     Edge 77, Type (0, 0), BuildingBlock: XIVTED_clean_linker_0, # of connection points: 2
#     Edge 78, Type (0, 0), BuildingBlock: XIVTED_clean_linker_0, # of connection points: 2
#     Edge 79, Type (0, 0), BuildingBlock: XIVTED_clean_linker_0, # of connection points: 2
#     Edge 80, Type (0, 0), BuildingBlock: XIVTED_clean_linker_0, # of connection points: 2
#     Edge 81, Type (0, 0), BuildingBlock: XIVTED_clean_linker_0, # of connection points: 2
#     Edge 82, Type (0, 0), BuildingBlock: XIVTED_clean_linker_0, # of connection points: 2
#     Edge 83, Type (0, 0), BuildingBlock: XIVTED_clean_linker_0, # of connection points: 2
#     Edge 84, Type (0, 0), BuildingBlock: XIVTED_clean_linker_0, # of connection points: 2
#     Edge 85, Type (0, 0), BuildingBlock: XIVTED_clean_linker_0, # of connection points: 2
#     Edge 86, Type (0, 0), BuildingBlock: XIVTED_clean_linker_0, # of connection points: 2
#     Edge 87, Type (0, 0), BuildingBlock: XIVTED_clean_linker_0, # of connection points: 2
#     Edge 88, Type (0, 0), BuildingBlock: XIVTED_clean_linker_0, # of connection points: 2
#     Edge 89, Type (0, 0), BuildingBlock: XIVTED_clean_linker_0, # of connection points: 2
#     Edge 90, Type (0, 0), BuildingBlock: XIVTED_clean_linker_0, # of connection points: 2
#     Edge 91, Type (0, 0), BuildingBlock: XIVTED_clean_linker_0, # of connection points: 2
#     Edge 92, Type (0, 0), BuildingBlock: XIVTED_clean_linker_0, # of connection points: 2
#     Edge 93, Type (0, 0), BuildingBlock: XIVTED_clean_linker_0, # of connection points: 2
#     Edge 94, Type (0, 0), BuildingBlock: XIVTED_clean_linker_0, # of connection points: 2
#     Edge 95, Type (0, 0), BuildingBlock: XIVTED_clean_linker_0, # of connection points: 2
# Relax obj value: 0.129
# Max RMSD: 0.184
# Mean RMSD: 0.177
data_MOF--net-ukd--node1-TATPOV_clean_sbu_0--edge1-XIVTED_clean_linker_0
_symmetry_space_group_name_H-M    P1
_symmetry_Int_Tables_number       1
_symmetry_cell_setting            triclinic
loop_
_symmetry_equiv_pos_as_xyz
'x, y, z'
_cell_length_a     43.536506
_cell_length_b     42.680381
_cell_length_c     77.498782
_cell_angle_alpha  90.052471
_cell_angle_beta   90.035759
_cell_angle_gamma 89.855356
loop_
_atom_site_label
_atom_site_type_symbol
_atom_site_fract_x
_atom_site_fract_y
_atom_site_fract_z
_atom_type_partial_charge
Zn0 Zn 0.11312 0.20896 0.29584 0.0
Zn1 Zn 0.16958 0.19258 0.30943 0.0
O2 O 0.14381 0.15378 0.31348 0.0
O3 O 0.09803 0.16543 0.30319 0.0
O4 O 0.21064 0.18076 0.31928 0.0
O5 O 0.13392 0.21505 0.27256 0.0
O6 O 0.17834 0.20245 0.2843 0.0
C7 C 0.11609 0.14614 0.31047 0.0
C8 C 0.13479 0.24891 0.32384 0.0
O9 O 0.15735 0.22996 0.32396 0.0
O10 O 0.11313 0.24552 0.31304 0.0
C11 C 0.23559 0.1934 0.31444 0.0
O12 O 0.235 0.21506 0.30242 0.0
C13 C 0.16267 0.21091 0.27125 0.0
Zn14 Zn 0.06309 0.00331 0.64356 0.0
Zn15 Zn 0.05665 0.00338 0.60885 0.0
O16 O 0.01264 0.00044 0.61758 0.0
O17 O 0.01693 -0.00231 0.64581 0.0
O18 O 0.0513 0.00185 0.58327 0.0
O19 O 0.08156 0.04651 0.64177 0.0
O20 O 0.07973 0.0444 0.61339 0.0
C21 C 0.00033 -0.00238 0.63237 0.0
C22 C 0.09466 0.95238 0.62637 0.0
O23 O 0.08195 0.96407 0.61308 0.0
O24 O 0.09115 0.96515 0.64102 0.0
C25 C 0.0342 0.98099 0.57658 0.0
O26 O 0.0197 0.96119 0.58664 0.0
C27 C 0.08741 0.05856 0.6272 0.0
Zn28 Zn 0.38355 0.79498 0.82419 0.0
Zn29 Zn 0.32907 0.79599 0.84193 0.0
O30 O 0.34742 0.83862 0.84717 0.0
O31 O 0.39125 0.83935 0.83305 0.0
O32 O 0.28779 0.79864 0.85318 0.0
O33 O 0.36082 0.78796 0.8018 0.0
O34 O 0.31789 0.78758 0.8168 0.0
C35 C 0.3719 0.85275 0.84283 0.0
C36 C 0.37643 0.74684 0.8509 0.0
O37 O 0.35082 0.76007 0.85399 0.0
O38 O 0.39376 0.75671 0.83894 0.0
C39 C 0.2843 0.80679 0.86882 0.0
O40 O 0.30868 0.81205 0.87839 0.0
C41 C 0.33191 0.78509 0.80245 0.0
Zn42 Zn 0.41768 0.00024 0.14708 0.0
Zn43 Zn 0.44318 0.98739 0.1164 0.0
O44 O 0.47949 -0.00227 0.13208 0.0
O45 O 0.45933 0.01045 0.15713 0.0
O46 O 0.46478 0.97719 0.09435 0.0
O47 O 0.40174 0.9562 0.14818 0.0
O48 O 0.41817 0.94772 0.12171 0.0
C49 C 0.48269 0.00689 0.1476 0.0
C50 C 0.39709 0.04062 0.11908 0.0
O51 O 0.41689 0.02551 0.1103 0.0
O52 O 0.39242 0.03374 0.13478 0.0
C53 C 0.48157 -0.00227 0.08719 0.0
O54 O 0.48366 0.02575 0.09413 0.0
C55 C 0.4038 0.93856 0.13509 0.0
Zn56 Zn 0.11753 0.75972 0.17401 0.0
Zn57 Zn 0.1733 0.78226 0.1632 0.0
O58 O 0.14451 0.81552 0.15375 0.0
O59 O 0.09942 0.79961 0.16323 0.0
O60 O 0.21548 0.79755 0.15774 0.0
O61 O 0.13172 0.75994 0.19896 0.0
O62 O 0.17541 0.77887 0.18931 0.0
C63 C 0.11562 0.81934 0.15506 0.0
C64 C 0.15107 0.71936 0.14998 0.0
O65 O 0.17073 0.74129 0.15024 0.0
O66 O 0.12681 0.72131 0.15899 0.0
C67 C 0.2271 0.79894 0.14274 0.0
O68 O 0.21057 0.79076 0.12929 0.0
C69 C 0.15859 0.76999 0.20179 0.0
Zn70 Zn 0.427 0.99663 0.33152 0.0
Zn71 Zn 0.4443 0.01106 0.36382 0.0
O72 O 0.48449 -0.00038 0.35176 0.0
O73 O 0.47104 0.98579 0.3255 0.0
O74 O 0.45909 0.02206 0.38746 0.0
O75 O 0.41129 0.04063 0.32832 0.0
O76 O 0.42101 0.0504 0.35569 0.0
C77 C 0.49167 0.98957 0.33684 0.0
C78 C 0.39934 0.95781 0.35816 0.0
O79 O 0.41668 0.97341 0.36817 0.0
O80 O 0.3987 0.96376 0.34213 0.0
C81 C 0.47305 0.0014 0.39631 0.0
O82 O 0.477 0.97323 0.38981 0.0
C83 C 0.41003 0.05891 0.34118 0.0
Zn84 Zn 0.3736 0.20102 0.68367 0.0
Zn85 Zn 0.31614 0.19542 0.66926 0.0
O86 O 0.33807 0.15654 0.66066 0.0
O87 O 0.3843 0.1592 0.67207 0.0
O88 O 0.27359 0.1902 0.66001 0.0
O89 O 0.35452 0.20263 0.70752 0.0
O90 O 0.30916 0.1987 0.69511 0.0
C91 C 0.36481 0.14509 0.6627 0.0
C92 C 0.35558 0.2512 0.65995 0.0
O93 O 0.3312 0.23527 0.65804 0.0
O94 O 0.37659 0.24206 0.67014 0.0
C95 C 0.26837 0.18717 0.64397 0.0
O96 O 0.29144 0.18827 0.63306 0.0
C97 C 0.32553 0.20149 0.70863 0.0
Zn98 Zn 0.09782 0.00351 0.86236 0.0
Zn99 Zn 0.07662 0.00167 0.89525 0.0
O100 O 0.0382 0.00378 0.88015 0.0
O101 O 0.05432 0.00967 0.85349 0.0
O102 O 0.05863 0.00433 0.91898 0.0
O103 O 0.11363 0.95962 0.86664 0.0
O104 O 0.10106 0.96058 0.89422 0.0
C105 C 0.03246 0.00788 0.86422 0.0
C106 C 0.12052 0.05356 0.88393 0.0
O107 O 0.10259 0.04104 0.89484 0.0
O108 O 0.1238 0.04149 0.86909 0.0
C109 C 0.03754 0.02459 0.92126 0.0
O110 O 0.02864 0.04218 0.90828 0.0
C111 C 0.1134 0.94678 0.88138 0.0
Zn112 Zn 0.82485 0.79091 0.6421 0.0
Zn113 Zn 0.77835 0.81195 0.62481 0.0
O114 O 0.8077 0.85003 0.62735 0.0
O115 O 0.84164 0.83352 0.64633 0.0
O116 O 0.74195 0.83186 0.61291 0.0
O117 O 0.79768 0.77183 0.66006 0.0
O118 O 0.75903 0.79568 0.64736 0.0
C119 C 0.83049 0.85532 0.63725 0.0
C120 C 0.81856 0.76055 0.60955 0.0
O121 O 0.79305 0.77532 0.60933 0.0
O122 O 0.83783 0.76561 0.62146 0.0
C123 C 0.7274 0.85118 0.6224 0.0
O124 O 0.737 0.85583 0.63827 0.0
C125 C 0.76951 0.77912 0.6597 0.0
Zn126 Zn 9e-05 0.05211 0.42494 0.0
Zn127 Zn 0.96569 0.00316 0.41654 0.0
O128 O 0.9365 0.04067 0.41427 0.0
O129 O 0.96349 0.08103 0.42328 0.0
O130 O 0.93748 0.96706 0.41102 0.0
O131 O 0.01224 0.03302 0.44709 0.0
O132 O 0.98205 0.99303 0.44123 0.0
C133 C 0.93859 0.06982 0.41756 0.0
C134 C 0.02007 0.02171 0.39385 0.0
O135 O -0.00263 0.00362 0.39666 0.0
O136 O 0.02616 0.04384 0.40416 0.0
C137 C 0.92814 0.96348 0.39561 0.0
O138 O 0.93812 0.98262 0.3836 0.0
C139 C 0.00078 0.00698 0.45131 0.0
Zn140 Zn 0.65113 0.21731 0.17782 0.0
Zn141 Zn 0.70086 0.19528 0.16269 0.0
O142 O 0.67089 0.15774 0.1641 0.0
O143 O 0.63316 0.17474 0.18052 0.0
O144 O 0.73871 0.17461 0.15294 0.0
O145 O 0.67628 0.23554 0.19704 0.0
O146 O 0.71679 0.21256 0.18568 0.0
C147 C 0.64599 0.15274 0.17229 0.0
C148 C 0.66362 0.24626 0.14515 0.0
O149 O 0.68867 0.23084 0.14608 0.0
O150 O 0.64291 0.24268 0.15642 0.0
C151 C 0.75472 0.18284 0.14002 0.0
O152 O 0.74687 0.20784 0.13117 0.0
C153 C 0.7046 0.22892 0.19761 0.0
Zn154 Zn 0.52767 0.9089 0.94114 0.0
Zn155 Zn 0.55613 0.96061 0.93166 0.0
O156 O 0.57742 0.92524 0.91804 0.0
O157 O 0.55468 0.8818 0.92631 0.0
O158 O 0.58204 -0.00211 0.92556 0.0
O159 O 0.53727 0.91515 0.96596 0.0
O160 O 0.55649 0.96076 0.95845 0.0
C161 C 0.57431 0.89562 0.91703 0.0
C162 C 0.48956 0.95335 0.92211 0.0
O163 O 0.5142 0.96917 0.92087 0.0
O164 O 0.48921 0.92805 0.93067 0.0
C165 C 0.58461 0.00613 0.90987 0.0
O166 O 0.56906 0.99087 0.89802 0.0
C167 C 0.54905 0.94111 0.97011 0.0
Zn168 Zn 0.84408 0.20032 0.83376 0.0
Zn169 Zn 0.79607 0.17523 0.84835 0.0
O170 O 0.82899 0.13981 0.84833 0.0
O171 O 0.86586 0.1594 0.83223 0.0
O172 O 0.75914 0.15398 0.85849 0.0
O173 O 0.81859 0.21484 0.8137 0.0
O174 O 0.77962 0.18901 0.8247 0.0
C175 C 0.85467 0.13672 0.84058 0.0
C176 C 0.82742 0.23133 0.86503 0.0
O177 O 0.80409 0.21347 0.86395 0.0
O178 O 0.84937 0.22842 0.85444 0.0
C179 C 0.75516 0.14904 0.87449 0.0
O180 O 0.77601 0.1586 0.88556 0.0
C181 C 0.79104 0.20566 0.81269 0.0
Zn182 Zn 0.50815 0.0938 0.54762 0.0
Zn183 Zn 0.53661 0.04027 0.55597 0.0
O184 O 0.5636 0.07486 0.56633 0.0
O185 O 0.54143 0.11927 0.55893 0.0
O186 O 0.5608 0.00159 0.5622 0.0
O187 O 0.51086 0.08353 0.52266 0.0
O188 O 0.53195 0.03816 0.52933 0.0
C189 C 0.56275 0.10468 0.56661 0.0
C190 C 0.47341 0.05421 0.57081 0.0
O191 O 0.49697 0.03656 0.56999 0.0
O192 O 0.47207 0.07912 0.56194 0.0
C193 C 0.56511 0.99669 0.5782 0.0
O194 O 0.55262 0.01596 0.58943 0.0
C195 C 0.52179 0.05736 0.51806 0.0
Zn196 Zn 0.6616 0.77441 0.32455 0.0
Zn197 Zn 0.70988 0.79618 0.34008 0.0
O198 O 0.68106 0.83473 0.33723 0.0
O199 O 0.64526 0.81711 0.31972 0.0
O200 O 0.74789 0.81561 0.35027 0.0
O201 O 0.68711 0.75269 0.30661 0.0
O202 O 0.72696 0.77705 0.31767 0.0
C203 C 0.65738 0.83953 0.32789 0.0
C204 C 0.66997 0.74796 0.35803 0.0
O205 O 0.69573 0.762 0.35715 0.0
O206 O 0.65003 0.75182 0.34632 0.0
C207 C 0.75233 0.82227 0.36606 0.0
O208 O 0.73112 0.81537 0.37748 0.0
C209 C 0.71541 0.75928 0.30617 0.0
Zn210 Zn 0.94008 0.9358 0.05349 0.0
Zn211 Zn 0.93055 0.98759 0.07167 0.0
O212 O 0.89499 0.95794 0.07773 0.0
O213 O 0.90199 0.9152 0.06238 0.0
O214 O 0.91694 0.02732 0.08336 0.0
O215 O 0.93897 0.95867 0.03111 0.0
O216 O 0.93827 0.00197 0.04658 0.0
C217 C 0.8867 0.93041 0.07345 0.0
C218 C 0.98647 0.94952 0.08004 0.0
O219 O 0.96924 0.97262 0.08395 0.0
O220 O 0.97983 0.93192 0.06737 0.0
C221 C 0.90925 0.0269 0.09917 0.0
O222 O 0.91297 0.00093 0.10802 0.0
C223 C 0.93981 0.98819 0.03202 0.0
Zn224 Zn 0.59825 0.71695 0.78887 0.0
Zn225 Zn 0.65549 0.70219 0.80225 0.0
O226 O 0.63243 0.6616 0.80477 0.0
O227 O 0.58602 0.67142 0.79481 0.0
O228 O 0.69764 0.69147 0.81061 0.0
O229 O 0.61884 0.72652 0.76567 0.0
O230 O 0.66328 0.7148 0.77762 0.0
C231 C 0.60532 0.6525 0.80136 0.0
C232 C 0.61784 0.75436 0.81867 0.0
O233 O 0.64133 0.73668 0.81823 0.0
O234 O 0.59664 0.75138 0.80753 0.0
C235 C 0.70472 0.68879 0.82644 0.0
O236 O 0.68365 0.69365 0.83828 0.0
C237 C 0.64775 0.72351 0.76459 0.0
Zn238 Zn 0.55404 0.50231 0.13576 0.0
Zn239 Zn 0.54964 0.50241 0.10109 0.0
O240 O 0.50478 0.49951 0.10869 0.0
O241 O 0.50785 0.49711 0.13699 0.0
O242 O 0.54717 0.50092 0.07537 0.0
O243 O 0.57268 0.54534 0.13475 0.0
O244 O 0.57315 0.54307 0.10635 0.0
C245 C 0.49184 0.49687 0.12333 0.0
C246 C 0.58607 0.45107 0.11932 0.0
O247 O 0.57404 0.46277 0.10584 0.0
O248 O 0.58211 0.46401 0.13388 0.0
C249 C 0.53126 0.47983 0.06802 0.0
O250 O 0.51534 0.46017 0.07749 0.0
C251 C 0.57988 0.5572 0.12034 0.0
Zn252 Zn 0.86982 0.28999 0.32725 0.0
Zn253 Zn 0.81386 0.29946 0.3424 0.0
O254 O 0.83704 0.33848 0.34997 0.0
O255 O 0.88195 0.33237 0.33728 0.0
O256 O 0.77069 0.30673 0.35026 0.0
O257 O 0.85125 0.28734 0.30348 0.0
O258 O 0.8069 0.29427 0.31653 0.0
C259 C 0.86395 0.34837 0.34669 0.0
C260 C 0.85123 0.24288 0.35274 0.0
O261 O 0.82766 0.26009 0.35493 0.0
O262 O 0.87158 0.25016 0.34176 0.0
C263 C 0.76156 0.31141 0.3656 0.0
O264 O 0.78157 0.31148 0.3783 0.0
C265 C 0.82232 0.28983 0.3028 0.0
Zn266 Zn 0.91125 0.51527 0.64074 0.0
Zn267 Zn 0.93592 0.49981 0.61016 0.0
O268 O 0.97256 0.50938 0.62566 0.0
O269 O 0.95339 0.52476 0.65049 0.0
O270 O 0.95778 0.48803 0.5885 0.0
O271 O 0.89466 0.47144 0.64252 0.0
O272 O 0.9103 0.46094 0.61609 0.0
C273 C 0.97643 0.51934 0.64096 0.0
C274 C 0.89132 0.55442 0.61201 0.0
O275 O 0.91062 0.53828 0.60344 0.0
O276 O 0.88667 0.54863 0.62784 0.0
C277 C 0.97547 0.50793 0.58149 0.0
O278 O 0.97753 0.53622 0.58809 0.0
C279 C 0.8962 0.4529 0.62978 0.0
Zn280 Zn 0.6192 0.28615 0.68704 0.0
Zn281 Zn 0.67535 0.29927 0.67252 0.0
O282 O 0.65262 0.34036 0.66959 0.0
O283 O 0.60723 0.33158 0.68109 0.0
O284 O 0.71752 0.30862 0.66386 0.0
O285 O 0.64014 0.27565 0.70987 0.0
O286 O 0.68408 0.28588 0.69709 0.0
C287 C 0.62583 0.34986 0.67353 0.0
C288 C 0.63606 0.24799 0.657 0.0
O289 O 0.65992 0.26506 0.65672 0.0
O290 O 0.61585 0.25171 0.66863 0.0
C291 C 0.72438 0.31231 0.64807 0.0
O292 O 0.70286 0.30974 0.63626 0.0
C293 C 0.66917 0.27735 0.71037 0.0
Zn294 Zn 0.89409 0.48333 0.83714 0.0
Zn295 Zn 0.91436 0.50052 0.86862 0.0
O296 O 0.95321 0.49119 0.8549 0.0
O297 O 0.93782 0.47417 0.82957 0.0
O298 O 0.93264 0.51191 0.89137 0.0
O299 O 0.87682 0.52695 0.83451 0.0
O300 O 0.88907 0.53887 0.86133 0.0
C301 C 0.95937 0.48043 0.83999 0.0
C302 C 0.87176 0.4444 0.86514 0.0
O303 O 0.88918 0.46168 0.87423 0.0
O304 O 0.86885 0.44942 0.84909 0.0
C305 C 0.94807 0.49083 0.89909 0.0
O306 O 0.95008 0.46276 0.89219 0.0
C307 C 0.87651 0.54607 0.84702 0.0
Zn308 Zn 0.87122 0.71593 0.17204 0.0
Zn309 Zn 0.81511 0.69739 0.15978 0.0
O310 O 0.84353 0.6642 0.14974 0.0
O311 O 0.88898 0.67725 0.15996 0.0
O312 O 0.77315 0.68429 0.15224 0.0
O313 O 0.85546 0.71314 0.19658 0.0
O314 O 0.81086 0.6984 0.18596 0.0
C315 C 0.87224 0.65911 0.15103 0.0
C316 C 0.84024 0.76105 0.14965 0.0
O317 O 0.81979 0.73995 0.14864 0.0
O318 O 0.86409 0.75678 0.15878 0.0
C319 C 0.76519 0.6826 0.13649 0.0
O320 O 0.78532 0.68904 0.12438 0.0
C321 C 0.82781 0.70497 0.19884 0.0
Zn322 Zn 0.56077 0.49777 0.35148 0.0
Zn323 Zn 0.54356 0.49491 0.38472 0.0
O324 O 0.50348 0.50227 0.37172 0.0
O325 O 0.51673 0.50696 0.34448 0.0
O326 O 0.52864 0.49097 0.40894 0.0
O327 O 0.57626 0.45325 0.35287 0.0
O328 O 0.56691 0.45371 0.38077 0.0
C329 C 0.4962 0.50722 0.35606 0.0
C330 C 0.58878 0.5448 0.3739 0.0
O331 O 0.57131 0.53314 0.38534 0.0
O332 O 0.5893 0.53344 0.35877 0.0
C333 C 0.51828 0.51412 0.41748 0.0
O334 O 0.518 0.54213 0.41047 0.0
C335 C 0.57774 0.44007 0.36748 0.0
Zn336 Zn 0.33206 0.28586 0.14525 0.0
Zn337 Zn 0.28134 0.2993 0.12893 0.0
O338 O 0.30674 0.34035 0.1279 0.0
O339 O 0.34459 0.33072 0.14599 0.0
O340 O 0.24159 0.3127 0.11794 0.0
O341 O 0.30885 0.26813 0.16533 0.0
O342 O 0.26669 0.28557 0.15296 0.0
C343 C 0.33017 0.34953 0.13634 0.0
C344 C 0.32408 0.24911 0.1147 0.0
O345 O 0.29752 0.26178 0.11478 0.0
O346 O 0.34422 0.2577 0.1255 0.0
C347 C 0.23896 0.32086 0.10226 0.0
O348 O 0.26292 0.31873 0.09202 0.0
C349 C 0.2801 0.27247 0.16567 0.0
Zn350 Zn 0.52774 0.5372 0.91459 0.0
Zn351 Zn 0.48488 0.49531 0.90675 0.0
O352 O 0.46098 0.53644 0.90633 0.0
O353 O 0.49547 0.57159 0.91378 0.0
O354 O 0.45233 0.46331 0.90119 0.0
O355 O 0.53781 0.51586 0.93654 0.0
O356 O 0.50085 0.48218 0.93102 0.0
C357 C 0.46829 0.56478 0.90934 0.0
C358 C 0.53887 0.5076 0.8822 0.0
O359 O 0.51358 0.49395 0.88558 0.0
O360 O 0.55071 0.52617 0.89304 0.0
C361 C 0.43462 0.46869 0.88848 0.0
O362 O 0.43876 0.49425 0.87933 0.0
C363 C 0.52197 0.49243 0.94095 0.0
Zn364 Zn 0.1558 0.71118 0.67898 0.0
Zn365 Zn 0.20523 0.69075 0.66349 0.0
O366 O 0.17518 0.65298 0.66313 0.0
O367 O 0.13801 0.66847 0.6804 0.0
O368 O 0.24385 0.67244 0.65326 0.0
O369 O 0.17985 0.72754 0.69901 0.0
O370 O 0.22046 0.70534 0.68731 0.0
C371 C 0.15041 0.64735 0.67133 0.0
C372 C 0.16836 0.74358 0.64743 0.0
O373 O 0.19344 0.72817 0.64804 0.0
O374 O 0.14744 0.73874 0.65844 0.0
C375 C 0.24774 0.66608 0.63739 0.0
O376 O 0.22569 0.67241 0.62634 0.0
C377 C 0.20805 0.7205 0.69966 0.0
Zn378 Zn 0.044 0.4084 0.44136 0.0
Zn379 Zn 0.06659 0.46197 0.43037 0.0
O380 O 0.09142 0.42804 0.4175 0.0
O381 O 0.0737 0.38321 0.42728 0.0
O382 O 0.08912 0.50145 0.42406 0.0
O383 O 0.05247 0.41728 0.46602 0.0
O384 O 0.06635 0.46403 0.45712 0.0
C385 C 0.09161 0.39818 0.41746 0.0
C386 C 0.00108 0.44704 0.42157 0.0
O387 O 0.02385 0.46537 0.41963 0.0
O388 O 0.0037 0.42249 0.43066 0.0
C389 C 0.08627 0.51535 0.40966 0.0
O390 O 0.06683 0.50437 0.39819 0.0
C391 C 0.06102 0.44488 0.46938 0.0
Zn392 Zn 0.3267 0.71892 0.3291 0.0
Zn393 Zn 0.27974 0.70047 0.34656 0.0
O394 O 0.30875 0.66181 0.34543 0.0
O395 O 0.3432 0.67569 0.32618 0.0
O396 O 0.24321 0.68292 0.35907 0.0
O397 O 0.29958 0.73711 0.31072 0.0
O398 O 0.26058 0.71428 0.32355 0.0
C399 C 0.33175 0.65509 0.33593 0.0
C400 C 0.32039 0.75241 0.36059 0.0
O401 O 0.29456 0.73841 0.3609 0.0
O402 O 0.33995 0.74571 0.34909 0.0
C403 C 0.24555 0.66993 0.37376 0.0
O404 O 0.2723 0.66979 0.38161 0.0
C405 C 0.27138 0.73007 0.31101 0.0
Zn406 Zn 0.04218 0.58231 0.04147 0.0
Zn407 Zn 0.05503 0.52399 0.05081 0.0
O408 O 0.09015 0.55071 0.06052 0.0
O409 O 0.08134 0.5988 0.05165 0.0
O410 O 0.07087 0.48069 0.05602 0.0
O411 O 0.0398 0.57155 0.01663 0.0
O412 O 0.04696 0.52253 0.02443 0.0
C413 C 0.09775 0.57946 0.05991 0.0
C414 C -0.00134 0.5545 0.06578 0.0
O415 O 0.01646 0.53076 0.0655 0.0
O416 O 0.00422 0.57822 0.05647 0.0
C417 C 0.07359 0.47113 0.07147 0.0
O418 O 0.06332 0.48884 0.0841 0.0
C419 C 0.04173 0.54287 0.01273 0.0
Zn420 Zn 0.15155 0.28386 0.83029 0.0
Zn421 Zn 0.19837 0.31434 0.84227 0.0
O422 O 0.16451 0.3481 0.83833 0.0
O423 O 0.12895 0.32261 0.82387 0.0
O424 O 0.23391 0.34022 0.85079 0.0
O425 O 0.17796 0.26274 0.81259 0.0
O426 O 0.21594 0.29347 0.82049 0.0
C427 C 0.13926 0.34794 0.82997 0.0
C428 C 0.16742 0.26411 0.86405 0.0
O429 O 0.19068 0.2814 0.86121 0.0
O430 O 0.14537 0.26353 0.85341 0.0
C431 C 0.25683 0.32913 0.85895 0.0
O432 O 0.25768 0.29909 0.86259 0.0
C433 C 0.2052 0.2723 0.81059 0.0
Zn434 Zn 0.48606 0.43579 0.57001 0.0
Zn435 Zn 0.45547 0.48647 0.57916 0.0
O436 O 0.42794 0.45034 0.58729 0.0
O437 O 0.45313 0.4079 0.57939 0.0
O438 O 0.42941 0.52397 0.58529 0.0
O439 O 0.48507 0.44694 0.54539 0.0
O440 O 0.46208 0.49107 0.55258 0.0
C441 C 0.43014 0.42062 0.58652 0.0
C442 C 0.51786 0.47251 0.59538 0.0
O443 O 0.49356 0.4892 0.59493 0.0
O444 O 0.52094 0.44943 0.58525 0.0
C445 C 0.42331 0.52952 0.60104 0.0
O446 O 0.43567 0.51169 0.613 0.0
C447 C 0.47343 0.47293 0.54111 0.0
H448 H 0.1078 0.41863 0.38535 0.0
H449 H 0.10269 0.30405 0.32197 0.0
H450 H 0.11236 0.33786 0.41873 0.0
H451 H 0.16434 0.25185 0.35485 0.0
H452 H 0.09957 0.34494 0.34409 0.0
H453 H 0.12375 0.38556 0.36105 0.0
C454 C 0.11293 0.39413 0.38765 0.0
C455 C 0.1084 0.38079 0.404 0.0
C456 C 0.11429 0.32484 0.34628 0.0
C457 C 0.12601 0.34301 0.37635 0.0
C458 C 0.11576 0.30135 0.33377 0.0
C459 C 0.13372 0.27453 0.33662 0.0
C460 C 0.13047 0.32115 0.36184 0.0
C461 C 0.15027 0.27221 0.35213 0.0
C462 C 0.12157 0.37526 0.37375 0.0
C463 C 0.11524 0.34892 0.40627 0.0
N464 N 0.1478 0.29497 0.36431 0.0
N465 N 0.12357 0.33103 0.39254 0.0
H466 H 0.95878 0.99026 0.60606 0.0
H467 H 0.85727 0.88289 0.66487 0.0
H468 H 0.96681 0.98608 0.66156 0.0
H469 H 0.83806 0.89743 0.61088 0.0
H470 H 0.8908 0.92843 0.66467 0.0
H471 H 0.90871 0.96494 0.60807 0.0
C472 C 0.94974 0.98466 0.61871 0.0
C473 C 0.96741 0.98954 0.63365 0.0
C474 C 0.8789 0.92214 0.65289 0.0
C475 C 0.91025 0.96028 0.63598 0.0
C476 C 0.8598 0.89609 0.65301 0.0
C477 C 0.84542 0.88618 0.63779 0.0
C478 C 0.88435 0.93794 0.63731 0.0
C479 C 0.849 0.90427 0.62284 0.0
C480 C 0.92111 0.97018 0.61983 0.0
C481 C 0.95432 0.98219 0.64967 0.0
N482 N 0.86875 0.92894 0.62287 0.0
N483 N 0.92681 0.96737 0.65038 0.0
H484 H 0.46619 0.62469 0.92204 0.0
H485 H 0.40272 0.6938 0.83858 0.0
H486 H 0.42281 0.56283 0.88533 0.0
H487 H 0.37081 0.73705 0.88561 0.0
H488 H 0.41846 0.64757 0.85518 0.0
H489 H 0.43792 0.66896 0.90929 0.0
C490 C 0.45022 0.62035 0.91158 0.0
C491 C 0.44688 0.59016 0.90465 0.0
C492 C 0.40781 0.66715 0.8618 0.0
C493 C 0.41563 0.64039 0.88986 0.0
C494 C 0.39911 0.6935 0.85241 0.0
C495 C 0.38559 0.71907 0.86082 0.0
C496 C 0.40385 0.66691 0.87974 0.0
C497 C 0.38114 0.71761 0.87873 0.0
C498 C 0.43417 0.64552 0.90437 0.0
C499 C 0.42599 0.58573 0.89107 0.0
N500 N 0.39082 0.69206 0.88774 0.0
N501 N 0.41174 0.61075 0.8838 0.0
H502 H 0.4988 0.02474 0.18028 0.0
H503 H 0.65148 0.10735 0.14733 0.0
H504 H 0.53599 0.01261 0.12906 0.0
H505 H 0.60476 0.12884 0.195 0.0
H506 H 0.61771 0.06193 0.14351 0.0
H507 H 0.54583 0.05147 0.18881 0.0
C508 C 0.51705 0.02724 0.1709 0.0
C509 C 0.51315 0.01712 0.15382 0.0
C510 C 0.61528 0.07628 0.15496 0.0
C511 C 0.56691 0.04805 0.16344 0.0
C512 C 0.63459 0.1021 0.15717 0.0
C513 C 0.63039 0.12219 0.17131 0.0
C514 C 0.59188 0.0706 0.16704 0.0
C515 C 0.6083 0.11431 0.18372 0.0
C516 C 0.54392 0.04254 0.17577 0.0
C517 C 0.53782 0.02051 0.1423 0.0
N518 N 0.58964 0.08937 0.18119 0.0
N519 N 0.56346 0.03624 0.14723 0.0
H520 H 0.18651 0.71751 0.12095 0.0
H521 H 0.11575 0.55471 0.09071 0.0
H522 H 0.1252 0.6611 0.15166 0.0
H523 H 0.13198 0.63265 0.0565 0.0
H524 H 0.14052 0.58389 0.11407 0.0
H525 H 0.18651 0.67663 0.09874 0.0
C526 C 0.17361 0.69623 0.1232 0.0
C527 C 0.15529 0.69288 0.13799 0.0
C528 C 0.13951 0.59409 0.10129 0.0
C529 C 0.15575 0.64611 0.11287 0.0
C530 C 0.12562 0.57742 0.08792 0.0
C531 C 0.12129 0.59165 0.07178 0.0
C532 C 0.14948 0.62483 0.09832 0.0
C533 C 0.13443 0.62114 0.06887 0.0
C534 C 0.17368 0.673 0.11054 0.0
C535 C 0.13915 0.66482 0.14029 0.0
N536 N 0.14756 0.63703 0.08213 0.0
N537 N 0.13952 0.64256 0.12776 0.0
H538 H 0.51618 0.97011 0.30615 0.0
H539 H 0.65724 0.88591 0.35251 0.0
H540 H 0.53917 0.98337 0.35987 0.0
H541 H 0.62285 0.86315 0.30182 0.0
H542 H 0.62337 0.93203 0.35303 0.0
H543 H 0.56446 0.94204 0.30208 0.0
C544 C 0.53161 0.96758 0.31703 0.0
C545 C 0.52328 0.97846 0.33346 0.0
C546 C 0.62373 0.91724 0.34167 0.0
C547 C 0.57844 0.94596 0.32894 0.0
C548 C 0.64312 0.89105 0.34135 0.0
C549 C 0.64231 0.87046 0.32725 0.0
C550 C 0.60374 0.92279 0.32774 0.0
C551 C 0.62368 0.87813 0.3131 0.0
C552 C 0.55918 0.9515 0.31471 0.0
C553 C 0.54445 0.97494 0.34702 0.0
N554 N 0.6049 0.90346 0.31379 0.0
N555 N 0.57083 0.95845 0.34454 0.0
H556 H 0.38764 0.30342 0.66914 0.0
H557 H 0.40076 0.43405 0.6167 0.0
H558 H 0.3333 0.26424 0.62787 0.0
H559 H 0.41166 0.36156 0.57833 0.0
H560 H 0.37549 0.396 0.6357 0.0
H561 H 0.39722 0.34975 0.65129 0.0
C562 C 0.37751 0.30477 0.65639 0.0
C563 C 0.35978 0.28007 0.64989 0.0
C564 C 0.38296 0.38872 0.62298 0.0
C565 C 0.37058 0.33264 0.62955 0.0
C566 C 0.39702 0.41039 0.61209 0.0
C567 C 0.40857 0.40067 0.59606 0.0
C568 C 0.3801 0.35747 0.61759 0.0
C569 C 0.40335 0.36975 0.59071 0.0
C570 C 0.38265 0.33128 0.64632 0.0
C571 C 0.34704 0.2829 0.63332 0.0
N572 N 0.38958 0.34911 0.60151 0.0
N573 N 0.35329 0.30847 0.62352 0.0
H574 H 0.0115 0.02017 0.83157 0.0
H575 H 0.85513 0.09346 0.86683 0.0
H576 H 0.98081 0.01176 0.88435 0.0
H577 H 0.89598 0.1143 0.81747 0.0
H578 H 0.89328 0.05161 0.87094 0.0
H579 H 0.96156 0.04207 0.82385 0.0
C580 C 0.9941 0.0224 0.84149 0.0
C581 C 0.00063 0.01482 0.85871 0.0
C582 C 0.89346 0.06498 0.85907 0.0
C583 C 0.94351 0.04023 0.84999 0.0
C584 C 0.87165 0.08873 0.8567 0.0
C585 C 0.87289 0.10768 0.84195 0.0
C586 C 0.91633 0.06018 0.84652 0.0
C587 C 0.89466 0.1006 0.8292 0.0
C588 C 0.96558 0.03498 0.83707 0.0
C589 C 0.97699 0.01781 0.87095 0.0
N590 N 0.91572 0.07768 0.83186 0.0
N591 N 0.94964 0.03082 0.86642 0.0
H592 H 0.91288 0.59272 0.58648 0.0
H593 H 0.77712 0.7152 0.60165 0.0
H594 H 0.83448 0.57762 0.61942 0.0
H595 H 0.87178 0.74141 0.59439 0.0
H596 H 0.79078 0.66074 0.595 0.0
H597 H 0.8903 0.64282 0.57724 0.0
C598 C 0.89056 0.59956 0.59141 0.0
C599 C 0.87572 0.58143 0.60396 0.0
C600 C 0.80828 0.67868 0.59421 0.0
C601 C 0.8497 0.63797 0.59323 0.0
C602 C 0.80046 0.70978 0.59779 0.0
C603 C 0.8235 0.73259 0.59878 0.0
C604 C 0.83919 0.67071 0.59139 0.0
C605 C 0.85346 0.7243 0.59391 0.0
C606 C 0.87776 0.62805 0.58613 0.0
C607 C 0.84688 0.59127 0.60995 0.0
N608 N 0.86061 0.69386 0.59071 0.0
N609 N 0.83491 0.61903 0.60463 0.0
H610 H 0.14844 0.10007 0.32702 0.0
H611 H 0.9957 0.02044 0.36153 0.0
H612 H 0.0572 0.12306 0.30908 0.0
H613 H 0.08163 0.02433 0.38903 0.0
H614 H 0.02168 0.04034 0.33566 0.0
H615 H 0.12734 0.05563 0.34277 0.0
C616 C 0.12402 0.0955 0.32612 0.0
C617 C 0.10442 0.11591 0.3171 0.0
C618 C 0.03503 0.03574 0.34719 0.0
C619 C 0.08021 0.06496 0.33512 0.0
C620 C 0.02032 0.02405 0.36185 0.0
C621 C 0.03663 0.02111 0.37737 0.0
C622 C 0.06617 0.04416 0.34816 0.0
C623 C 0.06833 0.02655 0.37728 0.0
C624 C 0.11203 0.07005 0.3351 0.0
C625 C 0.07308 0.10835 0.31616 0.0
N626 N 0.08201 0.03829 0.36297 0.0
N627 N 0.06184 0.08378 0.32534 0.0
H628 H 0.57787 0.4036 0.09621 0.0
H629 H 0.70413 0.29331 0.13956 0.0
H630 H 0.63382 0.43155 0.13952 0.0
H631 H 0.61444 0.26001 0.12492 0.0
H632 H 0.69057 0.34534 0.12829 0.0
H633 H 0.60335 0.35217 0.09637 0.0
C634 C 0.59592 0.3991 0.10552 0.0
C635 C 0.6035 0.42154 0.11806 0.0
C636 C 0.67436 0.32626 0.12701 0.0
C637 C 0.63307 0.36354 0.11793 0.0
C638 C 0.68216 0.2966 0.13323 0.0
C639 C 0.66024 0.27261 0.13317 0.0
C640 C 0.64477 0.33148 0.12042 0.0
C641 C 0.63186 0.27808 0.12518 0.0
C642 C 0.61038 0.36989 0.10557 0.0
C643 C 0.62701 0.41463 0.12983 0.0
N644 N 0.62475 0.30713 0.11925 0.0
N645 N 0.64095 0.38613 0.12952 0.0
H646 H 0.49103 0.97939 0.88999 0.0
H647 H 0.34139 0.88253 0.86905 0.0
H648 H 0.42905 0.94053 0.92766 0.0
H649 H 0.41998 0.89196 0.8355 0.0
H650 H 0.36153 0.92471 0.88706 0.0
H651 H 0.45279 0.96951 0.8675 0.0
C652 C 0.46883 0.97012 0.89367 0.0
C653 C 0.46341 0.95988 0.91059 0.0
C654 C 0.3739 0.9181 0.87549 0.0
C655 C 0.41999 0.94829 0.88501 0.0
C656 C 0.36248 0.89398 0.86519 0.0
C657 C 0.37962 0.88297 0.85107 0.0
C658 C 0.40258 0.93125 0.87162 0.0
C659 C 0.40647 0.8991 0.84655 0.0
C660 C 0.44714 0.96425 0.88079 0.0
C661 C 0.43431 0.94805 0.91466 0.0
N662 N 0.41748 0.92204 0.85701 0.0
N663 N 0.41389 0.9419 0.90188 0.0
H664 H 0.89219 0.41031 0.89267 0.0
H665 H 0.77872 0.27009 0.87048 0.0
H666 H 0.81947 0.41443 0.85489 0.0
H667 H 0.87471 0.25825 0.88258 0.0
H668 H 0.78293 0.32583 0.87778 0.0
H669 H 0.87465 0.35795 0.90113 0.0
C670 C 0.872 0.4006 0.88651 0.0
C671 C 0.85759 0.41634 0.87281 0.0
C672 C 0.80271 0.3107 0.87948 0.0
C673 C 0.83726 0.35706 0.88263 0.0
C674 C 0.80029 0.27888 0.87549 0.0
C675 C 0.82657 0.25983 0.87569 0.0
C676 C 0.83147 0.32312 0.88393 0.0
C677 C 0.85404 0.2724 0.88207 0.0
C678 C 0.86206 0.37079 0.89135 0.0
C679 C 0.83154 0.40275 0.86528 0.0
N680 N 0.85595 0.30346 0.88568 0.0
N681 N 0.82237 0.37369 0.87017 0.0
H682 H 0.33273 0.11652 0.63675 0.0
H683 H 0.48241 0.02924 0.6028 0.0
H684 H 0.41852 0.11135 0.66463 0.0
H685 H 0.41286 0.07062 0.5703 0.0
H686 H 0.4497 0.03888 0.62798 0.0
H687 H 0.3532 0.07973 0.61551 0.0
C688 C 0.3556 0.1071 0.63866 0.0
C689 C 0.37428 0.11771 0.65225 0.0
C690 C 0.44123 0.04487 0.61526 0.0
C691 C 0.39761 0.07549 0.62802 0.0
C692 C 0.45973 0.03915 0.60087 0.0
C693 C 0.45046 0.04972 0.58453 0.0
C694 C 0.41326 0.06083 0.61315 0.0
C695 C 0.42098 0.0626 0.58275 0.0
C696 C 0.36722 0.0861 0.62651 0.0
C697 C 0.40358 0.10434 0.65415 0.0
N698 N 0.40358 0.06826 0.59694 0.0
N699 N 0.41456 0.08428 0.64199 0.0
H700 H 0.61831 0.73554 0.37639 0.0
H701 H 0.64297 0.56252 0.35929 0.0
H702 H 0.70939 0.70072 0.36593 0.0
H703 H 0.57629 0.59084 0.39743 0.0
H704 H 0.66939 0.61253 0.36314 0.0
H705 H 0.60375 0.68372 0.387 0.0
C706 C 0.63558 0.71724 0.37702 0.0
C707 C 0.66499 0.72218 0.37023 0.0
C708 C 0.64939 0.60752 0.37096 0.0
C709 C 0.64819 0.66274 0.3815 0.0
C710 C 0.63416 0.57914 0.36865 0.0
C711 C 0.60721 0.57283 0.37787 0.0
C712 C 0.63701 0.6301 0.38218 0.0
C713 C 0.59692 0.59496 0.38998 0.0
C714 C 0.62726 0.68766 0.38299 0.0
C715 C 0.6865 0.69775 0.37112 0.0
N716 N 0.61141 0.62302 0.39149 0.0
N717 N 0.67738 0.66869 0.37609 0.0
H718 H 0.06011 0.84651 0.16228 0.0
H719 H 0.03959 0.91948 0.07135 0.0
H720 H 0.13682 0.85178 0.12715 0.0
H721 H 0.99003 0.95687 0.11496 0.0
H722 H 0.0757 0.89424 0.09122 0.0
H723 H 0.03329 0.88625 0.14512 0.0
C724 C 0.07141 0.85627 0.15106 0.0
C725 C 0.10059 0.84568 0.14603 0.0
C726 C 0.05732 0.90854 0.09642 0.0
C727 C 0.06996 0.89068 0.1263 0.0
C728 C 0.03674 0.9229 0.08511 0.0
C729 C 0.01179 0.94012 0.09156 0.0
C730 C 0.05231 0.91066 0.11427 0.0
C731 C 0.00905 0.94385 0.10949 0.0
C732 C 0.05621 0.87906 0.14136 0.0
C733 C 0.11431 0.85926 0.13146 0.0
N734 N 0.02867 0.92859 0.12027 0.0
N735 N 0.09862 0.88064 0.12189 0.0
H736 H 0.5853 0.80938 0.81836 0.0
H737 H 0.59278 0.91747 0.88563 0.0
H738 H 0.6443 0.75271 0.85052 0.0
H739 H 0.58905 0.83339 0.91645 0.0
H740 H 0.60716 0.88562 0.86053 0.0
H741 H 0.58066 0.84738 0.84202 0.0
C742 C 0.59737 0.80505 0.83036 0.0
C743 C 0.61521 0.77794 0.83252 0.0
C744 C 0.60348 0.8743 0.87285 0.0
C745 C 0.6101 0.82109 0.85945 0.0
C746 C 0.59572 0.89242 0.88721 0.0
C747 C 0.5895 0.87793 0.90308 0.0
C748 C 0.60546 0.84162 0.87451 0.0
C749 C 0.59341 0.84538 0.90439 0.0
C750 C 0.59501 0.82686 0.84374 0.0
C751 C 0.63044 0.77343 0.84831 0.0
N752 N 0.60113 0.82826 0.89026 0.0
N753 N 0.62712 0.79454 0.8613 0.0
H754 H 0.45271 0.4814 0.09687 0.0
H755 H 0.35161 0.38672 0.16182 0.0
H756 H 0.45596 0.4931 0.15218 0.0
H757 H 0.33644 0.38441 0.10689 0.0
H758 H 0.38191 0.43417 0.15844 0.0
H759 H 0.40319 0.45514 0.0998 0.0
C760 C 0.44267 0.47917 0.1096 0.0
C761 C 0.45892 0.48865 0.12437 0.0
C762 C 0.37153 0.42381 0.1471 0.0
C763 C 0.40247 0.45836 0.12779 0.0
C764 C 0.35423 0.3967 0.14906 0.0
C765 C 0.34203 0.38156 0.13458 0.0
C766 C 0.37751 0.43529 0.13046 0.0
C767 C 0.34571 0.39545 0.11834 0.0
C768 C 0.41438 0.46411 0.11126 0.0
C769 C 0.44463 0.48548 0.14048 0.0
N770 N 0.36385 0.42119 0.11664 0.0
N771 N 0.41753 0.47006 0.14178 0.0
H772 H 0.92518 0.12813 0.43016 0.0
H773 H 0.87356 0.18679 0.34203 0.0
H774 H 0.89797 0.06131 0.39126 0.0
H775 H 0.83846 0.23462 0.38694 0.0
H776 H 0.88478 0.14092 0.35992 0.0
H777 H 0.89441 0.16831 0.41551 0.0
C778 C 0.91207 0.12174 0.41881 0.0
C779 C 0.91433 0.09152 0.41178 0.0
C780 C 0.87413 0.16126 0.36579 0.0
C781 C 0.88009 0.13731 0.39483 0.0
C782 C 0.86799 0.18744 0.35565 0.0
C783 C 0.85531 0.21439 0.36312 0.0
C784 C 0.86848 0.16252 0.3836 0.0
C785 C 0.84828 0.21414 0.38078 0.0
C786 C 0.89454 0.14461 0.4105 0.0
C787 C 0.8969 0.08438 0.39707 0.0
N788 N 0.85565 0.18877 0.39057 0.0
N789 N 0.88117 0.10738 0.38877 0.0
H790 H 0.11401 0.61875 0.69484 0.0
H791 H 0.0299 0.52002 0.62229 0.0
H792 H 0.14867 0.60878 0.643 0.0
H793 H 0.99412 0.5368 0.67344 0.0
H794 H 0.07934 0.54132 0.63147 0.0
H795 H 0.07707 0.57724 0.68921 0.0
C796 C 0.11419 0.60731 0.68235 0.0
C797 C 0.13392 0.61753 0.66924 0.0
C798 C 0.06082 0.53984 0.64075 0.0
C799 C 0.09118 0.57057 0.66253 0.0
C800 C 0.03256 0.52769 0.63554 0.0
C801 C 0.00763 0.52727 0.64704 0.0
C802 C 0.06411 0.55164 0.65757 0.0
C803 C 0.01252 0.53722 0.66406 0.0
C804 C 0.09305 0.58366 0.67912 0.0
C805 C 0.13361 0.60168 0.65339 0.0
N806 N 0.04006 0.54936 0.66873 0.0
N807 N 0.112 0.57938 0.65032 0.0
H808 H 0.58763 0.0847 0.59691 0.0
H809 H 0.65694 0.24996 0.62387 0.0
H810 H 0.58321 0.16476 0.56302 0.0
H811 H 0.60492 0.19264 0.65911 0.0
H812 H 0.64623 0.21217 0.60074 0.0
H813 H 0.61148 0.11776 0.61907 0.0
C814 C 0.59254 0.10898 0.59395 0.0
C815 C 0.5833 0.12218 0.5782 0.0
C816 C 0.63754 0.20781 0.61361 0.0
C817 C 0.61052 0.15971 0.60331 0.0
C818 C 0.64362 0.22923 0.62677 0.0
C819 C 0.63149 0.22446 0.64334 0.0
C820 C 0.61998 0.18115 0.6172 0.0
C821 C 0.61435 0.19729 0.64645 0.0
C822 C 0.60585 0.12779 0.60662 0.0
C823 C 0.58985 0.15383 0.57507 0.0
N824 N 0.60913 0.17654 0.63348 0.0
N825 N 0.603 0.17163 0.58758 0.0
H826 H 0.10031 0.36214 0.80382 0.0
H827 H 0.01064 0.48617 0.86031 0.0
H828 H 0.13508 0.39817 0.85201 0.0
H829 H 0.98107 0.45441 0.81006 0.0
H830 H 0.06084 0.46233 0.85519 0.0
H831 H 0.06185 0.40361 0.80339 0.0
C832 C 0.10009 0.37917 0.8142 0.0
C833 C 0.12047 0.37647 0.82813 0.0
C834 C 0.04357 0.46107 0.84516 0.0
C835 C 0.07606 0.42369 0.82794 0.0
C836 C 0.01486 0.4747 0.84806 0.0
C837 C 0.99136 0.47168 0.83574 0.0
C838 C 0.04872 0.44416 0.82989 0.0
C839 C -0.00171 0.45686 0.82005 0.0
C840 C 0.07813 0.40288 0.81396 0.0
C841 C 0.11957 0.39936 0.84111 0.0
N842 N 0.02617 0.44322 0.8177 0.0
N843 N 0.09721 0.4217 0.8409 0.0
H844 H 0.87004 0.94298 0.10668 0.0
H845 H 0.80609 0.77007 0.12048 0.0
H846 H 0.8537 0.87824 0.06487 0.0
H847 H 0.86611 0.81815 0.15602 0.0
H848 H 0.80503 0.81703 0.10227 0.0
H849 H 0.84825 0.90494 0.12679 0.0
C850 C 0.86078 0.9213 0.10161 0.0
C851 C 0.86428 0.91338 0.08414 0.0
C852 C 0.81792 0.81737 0.11423 0.0
C853 C 0.83957 0.87002 0.10704 0.0
C854 C 0.81861 0.79068 0.1246 0.0
C855 C 0.83669 0.79013 0.1396 0.0
C856 C 0.83493 0.84379 0.11911 0.0
C857 C 0.85235 0.81745 0.14438 0.0
C858 C 0.84863 0.89954 0.11313 0.0
C859 C 0.85189 0.88496 0.0783 0.0
N860 N 0.85125 0.84317 0.1341 0.0
N861 N 0.84051 0.864 0.0898 0.0
H862 H 0.44751 0.51553 0.37805 0.0
H863 H 0.365 0.62616 0.31093 0.0
H864 H 0.47293 0.52275 0.32435 0.0
H865 H 0.33326 0.61413 0.36321 0.0
H866 H 0.39799 0.58045 0.31424 0.0
H867 H 0.39962 0.54307 0.37169 0.0
C868 C 0.44278 0.52234 0.36485 0.0
C869 C 0.46464 0.51749 0.35178 0.0
C870 C 0.38351 0.58739 0.32494 0.0
C871 C 0.40997 0.54926 0.34447 0.0
C872 C 0.36469 0.61355 0.32305 0.0
C873 C 0.34689 0.62423 0.33694 0.0
C874 C 0.38507 0.57215 0.34097 0.0
C875 C 0.3469 0.60676 0.35225 0.0
C876 C 0.4154 0.5381 0.36124 0.0
C877 C 0.45705 0.52649 0.3349 0.0
N878 N 0.36628 0.5819 0.354 0.0
N879 N 0.4306 0.54241 0.3318 0.0
H880 H 0.34024 0.06279 0.1273 0.0
H881 H 0.37794 0.22974 0.10034 0.0
H882 H 0.41741 0.08015 0.0938 0.0
H883 H 0.284 0.20161 0.10831 0.0
H884 H 0.39165 0.17524 0.09437 0.0
H885 H 0.31737 0.11237 0.1181 0.0
C886 C 0.35211 0.07687 0.11779 0.0
C887 C 0.38093 0.06769 0.11148 0.0
C888 C 0.36782 0.18108 0.09683 0.0
C889 C 0.35519 0.1246 0.10111 0.0
C890 C 0.36 0.21219 0.10018 0.0
C891 C 0.32991 0.22 0.10502 0.0
C892 C 0.34558 0.15764 0.09891 0.0
C893 C 0.30749 0.19648 0.10467 0.0
C894 C 0.33896 0.10503 0.11244 0.0
C895 C 0.39522 0.08655 0.09905 0.0
N896 N 0.31596 0.16611 0.10225 0.0
N897 N 0.38257 0.11457 0.09458 0.0
H898 H 0.59846 0.50822 0.87171 0.0
H899 H 0.54747 0.62651 0.80144 0.0
H900 H 0.50558 0.51287 0.85266 0.0
H901 H 0.6423 0.60524 0.81293 0.0
H902 H 0.53245 0.57726 0.81515 0.0
H903 H 0.61629 0.5333 0.84533 0.0
C904 C 0.58199 0.51337 0.86161 0.0
C905 C 0.55053 0.50897 0.86442 0.0
C906 C 0.55661 0.58304 0.81432 0.0
C907 C 0.57039 0.53925 0.83464 0.0
C908 C 0.56518 0.61124 0.80654 0.0
C909 C 0.59609 0.62047 0.80649 0.0
C910 C 0.5791 0.56418 0.82224 0.0
C911 C 0.61809 0.59951 0.81307 0.0
C912 C 0.59208 0.52801 0.84659 0.0
C913 C 0.53006 0.51606 0.85098 0.0
N914 N 0.60912 0.5727 0.82096 0.0
N915 N 0.54021 0.53188 0.83688 0.0
H916 H 0.11949 0.75887 0.62735 0.0
H917 H 0.1419 0.93208 0.64672 0.0
H918 H 0.20857 0.79148 0.6435 0.0
H919 H 0.08719 0.90579 0.6026 0.0
H920 H 0.16704 0.88069 0.64574 0.0
H921 H 0.10729 0.81164 0.61697 0.0
C922 C 0.13686 0.77696 0.6281 0.0
C923 C 0.16503 0.77104 0.63622 0.0
C924 C 0.14997 0.88645 0.63607 0.0
C925 C 0.1508 0.83141 0.62524 0.0
C926 C 0.13544 0.91558 0.63673 0.0
C927 C 0.11224 0.92295 0.62485 0.0
C928 C 0.14054 0.86428 0.62378 0.0
C929 C 0.1049 0.90091 0.61204 0.0
C930 C 0.12989 0.80703 0.62226 0.0
C931 C 0.18669 0.79522 0.63717 0.0
N932 N 0.11851 0.87222 0.61208 0.0
N933 N 0.17877 0.82471 0.63223 0.0
H934 H 0.99677 0.47056 0.38892 0.0
H935 H 0.84089 0.37729 0.37546 0.0
H936 H 0.94262 0.43026 0.42981 0.0
H937 H 0.91378 0.38382 0.33791 0.0
H938 H 0.86716 0.41648 0.39316 0.0
H939 H 0.95509 0.4593 0.36858 0.0
C940 C 0.97562 0.46053 0.39375 0.0
C941 C 0.97326 0.45066 0.41095 0.0
C942 C 0.87693 0.40988 0.38082 0.0
C943 C 0.92591 0.43767 0.38787 0.0
C944 C 0.86199 0.38755 0.37071 0.0
C945 C 0.87565 0.37671 0.35542 0.0
C946 C 0.90552 0.42154 0.37551 0.0
C947 C 0.90286 0.391 0.34982 0.0
C948 C 0.95198 0.45391 0.38212 0.0
C949 C 0.94546 0.43767 0.41655 0.0
N950 N 0.91717 0.41237 0.36 0.0
N951 N 0.92301 0.43103 0.40497 0.0
H952 H 0.37288 0.77015 0.37686 0.0
H953 H 0.34458 0.93574 0.34627 0.0
H954 H 0.28055 0.80058 0.36571 0.0
H955 H 0.4135 0.91953 0.38529 0.0
H956 H 0.31904 0.88723 0.35486 0.0
H957 H 0.3871 0.82441 0.38303 0.0
C958 C 0.35531 0.78816 0.37643 0.0
C959 C 0.3256 0.78108 0.37068 0.0
C960 C 0.33934 0.89465 0.36183 0.0
C961 C 0.34197 0.8431 0.37687 0.0
C962 C 0.35405 0.92215 0.35682 0.0
C963 C 0.38137 0.93131 0.36493 0.0
C964 C 0.35261 0.87571 0.37464 0.0
C965 C 0.39254 0.9131 0.37865 0.0
C966 C 0.36344 0.81913 0.37987 0.0
C967 C 0.3037 0.80518 0.37014 0.0
N968 N 0.37856 0.88566 0.3828 0.0
N969 N 0.31257 0.83538 0.37261 0.0
H970 H 0.94167 0.57878 0.06083 0.0
H971 H 0.92867 0.63182 0.1557 0.0
H972 H -3e-05 0.53753 0.09967 0.0
H973 H 0.84854 0.62901 0.1229 0.0
H974 H 0.95473 0.59567 0.13597 0.0
H975 H 0.90585 0.59521 0.0834 0.0
C976 C 0.94642 0.57245 0.07411 0.0
C977 C 0.9737 0.55689 0.07847 0.0
C978 C 0.93121 0.60247 0.1333 0.0
C979 C 0.9336 0.57656 0.10435 0.0
C980 C 0.91641 0.62324 0.14449 0.0
C981 C 0.88656 0.63376 0.1408 0.0
C982 C 0.91632 0.59282 0.11814 0.0
C983 C 0.87164 0.62167 0.12618 0.0
C984 C 0.92604 0.58184 0.08698 0.0
C985 C 0.97903 0.54937 0.09583 0.0
N986 N 0.88691 0.60236 0.11518 0.0
N987 N 0.95952 0.56003 0.10824 0.0
H988 H 0.21586 0.2263 0.87144 0.0
H989 H 0.10268 0.09638 0.90814 0.0
H990 H 0.12122 0.24361 0.88478 0.0
H991 H 0.17134 0.07977 0.869 0.0
H992 H 0.12139 0.15017 0.9112 0.0
H993 H 0.21122 0.17308 0.88305 0.0
C994 C 0.1946 0.21944 0.87762 0.0
C995 C 0.16872 0.23904 0.877 0.0
C996 C 0.1328 0.13441 0.90229 0.0
C997 C 0.16332 0.17864 0.8901 0.0
C998 C 0.12218 0.10378 0.9005 0.0
C999 C 0.13512 0.08384 0.88802 0.0
C1000 C 0.15683 0.14491 0.89176 0.0
C1001 C 0.16037 0.09461 0.87852 0.0
C1002 C 0.19189 0.18902 0.88405 0.0
C1003 C 0.14157 0.22896 0.88492 0.0
N1004 N 0.17024 0.12458 0.88046 0.0
N1005 N 0.13939 0.19918 0.89092 0.0
H1006 H 0.50413 0.48215 0.62922 0.0
H1007 H 0.65757 0.39186 0.65375 0.0
H1008 H 0.57993 0.46519 0.59468 0.0
H1009 H 0.57013 0.37876 0.67899 0.0
H1010 H 0.63629 0.43691 0.63845 0.0
H1011 H 0.53581 0.46367 0.65333 0.0
C1012 C 0.52792 0.47601 0.62685 0.0
C1013 C 0.5394 0.47467 0.60996 0.0
C1014 C 0.62201 0.42459 0.64764 0.0
C1015 C 0.57538 0.45325 0.63728 0.0
C1016 C 0.63409 0.39881 0.65639 0.0
C1017 C 0.61532 0.3809 0.66731 0.0
C1018 C 0.59099 0.43257 0.64985 0.0
C1019 C 0.58524 0.39144 0.6704 0.0
C1020 C 0.54584 0.46512 0.64057 0.0
C1021 C 0.57021 0.46619 0.60753 0.0
N1022 N 0.57381 0.41628 0.66146 0.0
N1023 N 0.587 0.45524 0.621 0.0
H1024 H 0.30169 0.24282 0.19443 0.0
H1025 H 0.13823 0.2344 0.24122 0.0
H1026 H 0.21804 0.27791 0.1714 0.0
H1027 H 0.22337 0.20222 0.26381 0.0
H1028 H 0.16612 0.24797 0.21487 0.0
H1029 H 0.27243 0.22565 0.21938 0.0
C1030 C 0.27713 0.24694 0.19461 0.0
C1031 C 0.26232 0.26197 0.18081 0.0
C1032 C 0.17862 0.23782 0.22558 0.0
C1033 C 0.22857 0.24225 0.20945 0.0
C1034 C 0.16272 0.22999 0.24061 0.0
C1035 C 0.17851 0.21731 0.25479 0.0
C1036 C 0.21049 0.23289 0.22476 0.0
C1037 C 0.21023 0.2121 0.25326 0.0
C1038 C 0.26041 0.23707 0.20888 0.0
C1039 C 0.23041 0.26652 0.18178 0.0
N1040 N 0.22515 0.22001 0.23856 0.0
N1041 N 0.21458 0.25675 0.19589 0.0
H1042 H 0.99173 0.94774 0.55787 0.0
H1043 H 0.05402 0.01547 0.46853 0.0
H1044 H 0.06927 0.00977 0.55226 0.0
H1045 H 0.96595 0.97005 0.47288 0.0
H1046 H 0.06452 0.00328 0.49856 0.0
H1047 H 0.98585 0.94703 0.52636 0.0
C1048 C 0.00761 0.96102 0.55002 0.0
C1049 C 0.03085 0.9791 0.55768 0.0
C1050 C 0.04297 0.99568 0.49298 0.0
C1051 C 0.02445 0.97808 0.52182 0.0
C1052 C 0.037 0.00255 0.47581 0.0
C1053 C 0.00887 0.99418 0.46835 0.0
C1054 C 0.0205 0.98063 0.50291 0.0
C1055 C 0.98786 0.97702 0.47825 0.0
C1056 C 0.00424 0.96058 0.53208 0.0
C1057 C 0.05083 0.99579 0.54694 0.0
N1058 N 0.99389 0.9712 0.4952 0.0
N1059 N 0.04711 0.99491 0.52959 0.0
H1060 H 0.18743 0.74781 0.72931 0.0
H1061 H 0.3543 0.76908 0.77056 0.0
H1062 H 0.27047 0.71615 0.70421 0.0
H1063 H 0.26961 0.78361 0.79849 0.0
H1064 H 0.3245 0.75391 0.74514 0.0
H1065 H 0.21783 0.76502 0.75389 0.0
C1066 C 0.21209 0.74444 0.72896 0.0
C1067 C 0.22643 0.73044 0.71469 0.0
C1068 C 0.3125 0.76048 0.75683 0.0
C1069 C 0.26143 0.75026 0.74283 0.0
C1070 C 0.32946 0.76927 0.77132 0.0
C1071 C 0.31441 0.77753 0.78669 0.0
C1072 C 0.2803 0.76017 0.75771 0.0
C1073 C 0.2822 0.77729 0.78695 0.0
C1074 C 0.22944 0.75427 0.74303 0.0
C1075 C 0.25847 0.72672 0.71498 0.0
N1076 N 0.26624 0.76873 0.77268 0.0
N1077 N 0.27494 0.73663 0.72884 0.0
H1078 H 0.51095 0.03799 0.06513 0.0
H1079 H 0.5476 0.9016 -0.00239 0.0
H1080 H 0.49055 0.94006 0.07287 0.0
H1081 H 0.55245 -0.00022 0.98461 0.0
H1082 H 0.53809 0.91569 0.02756 0.0
H1083 H 0.53601 0.02462 0.03776 0.0
C1084 C 0.51195 0.01368 0.06115 0.0
C1085 C 0.49829 0.99013 0.07116 0.0
C1086 C 0.5416 0.93421 0.01823 0.0
C1087 C 0.5271 0.97473 0.04008 0.0
C1088 C 0.54716 0.92617 0.00112 0.0
C1089 C 0.55025 0.94958 0.98856 0.0
C1090 C 0.53882 0.96589 0.02282 0.0
C1091 C 0.54994 0.98101 0.99389 0.0
C1092 C 0.52626 0.00609 0.04555 0.0
C1093 C 0.50039 0.95903 0.06545 0.0
N1094 N 0.54375 0.98831 0.01062 0.0
N1095 N 0.51438 0.95228 0.05027 0.0
H1096 H 0.21151 0.71327 0.30455 0.0
H1097 H 0.21073 0.79871 0.21293 0.0
H1098 H 0.28586 0.76938 0.28459 0.0
H1099 H 0.13614 0.74055 0.23066 0.0
H1100 H 0.23532 0.79327 0.24092 0.0
H1101 H 0.18061 0.72755 0.27929 0.0
C1102 C 0.22125 0.72874 0.29494 0.0
C1103 C 0.25144 0.73983 0.29657 0.0
C1104 C 0.21346 0.78184 0.23879 0.0
C1105 C 0.21631 0.75627 0.26778 0.0
C1106 C 0.19939 0.78495 0.22277 0.0
C1107 C 0.17154 0.76971 0.21938 0.0
C1108 C 0.1998 0.7631 0.25151 0.0
C1109 C 0.15772 0.75254 0.23271 0.0
C1110 C 0.20361 0.73688 0.28055 0.0
C1111 C 0.26285 0.75993 0.28379 0.0
N1112 N 0.1722 0.74937 0.24817 0.0
N1113 N 0.24534 0.76733 0.26992 0.0
H1114 H 0.4981 0.96155 0.42032 0.0
H1115 H 0.51354 0.09695 0.49103 0.0
H1116 H 0.47406 0.0586 0.41202 0.0
H1117 H 0.52802 -0.0008 0.50293 0.0
H1118 H 0.50592 0.0833 0.46094 0.0
H1119 H 0.51509 0.97487 0.44957 0.0
C1120 C 0.49652 0.98566 0.42461 0.0
C1121 C 0.48442 0.00898 0.41377 0.0
C1122 C 0.51092 0.06477 0.47006 0.0
C1123 C 0.50392 0.02431 0.44707 0.0
C1124 C 0.51532 0.07255 0.48729 0.0
C1125 C 0.52101 0.04911 0.49956 0.0
C1126 C 0.51199 0.03324 0.46497 0.0
C1127 C 0.52351 0.01797 0.49388 0.0
C1128 C 0.50622 0.99321 0.44129 0.0
C1129 C 0.48299 0.03981 0.41996 0.0
N1130 N 0.51864 0.01086 0.47697 0.0
N1131 N 0.49254 0.04652 0.4362 0.0
H1132 H 0.18786 0.22928 0.78648 0.0
H1133 H 0.35024 0.22491 0.73853 0.0
H1134 H 0.26593 0.28371 0.80324 0.0
H1135 H 0.26586 0.1894 0.71679 0.0
H1136 H 0.32227 0.23911 0.76483 0.0
H1137 H 0.21881 0.20748 0.76327 0.0
C1138 C 0.21156 0.23664 0.78531 0.0
C1139 C 0.22424 0.25862 0.79673 0.0
C1140 C 0.31001 0.22795 0.75434 0.0
C1141 C 0.25987 0.23356 0.77013 0.0
C1142 C 0.32596 0.21966 0.73939 0.0
C1143 C 0.31025 0.20623 0.72541 0.0
C1144 C 0.27828 0.22249 0.75531 0.0
C1145 C 0.27881 0.20001 0.72719 0.0
C1146 C 0.22923 0.22414 0.77203 0.0
C1147 C 0.25516 0.26705 0.79462 0.0
N1148 N 0.26384 0.20834 0.74183 0.0
N1149 N 0.27194 0.25457 0.78151 0.0
H1150 H 0.06228 0.01559 0.95318 0.0
H1151 H 0.91313 0.98307 0.00048 0.0
H1152 H 0.97776 0.03979 0.92727 0.0
H1153 H 0.98537 0.03071 0.02797 0.0
H1154 H 0.93532 0.00106 0.97315 0.0
H1155 H 0.03504 0.01725 0.98088 0.0
C1156 C 0.03805 0.02143 0.95338 0.0
C1157 C 0.02209 0.02736 0.93803 0.0
C1158 C 0.94574 0.00832 0.9852 0.0
C1159 C 0.99101 0.02891 0.96937 0.0
C1160 C 0.93312 -0.00185 0.00072 0.0
C1161 C 0.94749 0.00563 0.01635 0.0
C1162 C 0.97351 0.02488 0.98542 0.0
C1163 C 0.97356 0.0248 0.01611 0.0
C1164 C 0.02266 0.02268 0.96912 0.0
C1165 C 0.99078 0.03506 0.93889 0.0
N1166 N 0.98635 0.03307 0.0008 0.0
N1167 N 0.97601 0.03495 0.95432 0.0
H1168 H 0.70858 0.79361 0.6651 0.0
H1169 H 0.70702 0.70919 0.75698 0.0
H1170 H 0.7845 0.74147 0.68676 0.0
H1171 H 0.62588 0.75186 0.73502 0.0
H1172 H 0.73492 0.72068 0.73073 0.0
H1173 H 0.677 0.77828 0.6899 0.0
C1174 C 0.71855 0.77883 0.67499 0.0
C1175 C 0.74931 0.76899 0.67392 0.0
C1176 C 0.71099 0.72751 0.73154 0.0
C1177 C 0.71346 0.75152 0.7022 0.0
C1178 C 0.695 0.72101 0.7466 0.0
C1179 C 0.66407 0.72976 0.74826 0.0
C1180 C 0.69614 0.74312 0.71796 0.0
C1181 C 0.64973 0.74477 0.73428 0.0
C1182 C 0.70052 0.7701 0.68912 0.0
C1183 C 0.76102 0.74983 0.68707 0.0
N1184 N 0.66597 0.75119 0.7197 0.0
N1185 N 0.74313 0.74188 0.70065 0.0
H1186 H 0.76654 0.22137 0.20286 0.0
H1187 H 0.76179 0.30097 0.29603 0.0
H1188 H 0.68533 0.2628 0.22546 0.0
H1189 H 0.84563 0.26871 0.27203 0.0
H1190 H 0.734 0.28902 0.26959 0.0
H1191 H 0.79651 0.23987 0.22754 0.0
C1192 C 0.75502 0.23438 0.21298 0.0
C1193 C 0.72334 0.24035 0.21216 0.0
C1194 C 0.75851 0.28475 0.27003 0.0
C1195 C 0.75744 0.26159 0.24035 0.0
C1196 C 0.77441 0.29157 0.28515 0.0
C1197 C 0.80603 0.28558 0.28628 0.0
C1198 C 0.77427 0.27158 0.25598 0.0
C1199 C 0.82122 0.2736 0.27172 0.0
C1200 C 0.77216 0.24502 0.22703 0.0
C1201 C 0.70966 0.25749 0.22558 0.0
N1202 N 0.80512 0.2667 0.25719 0.0
N1203 N 0.72676 0.26736 0.23914 0.0
H1204 H 0.72948 0.19529 0.80713 0.0
H1205 H 0.73021 0.28508 0.71662 0.0
H1206 H 0.80938 0.23857 0.78441 0.0
H1207 H 0.64733 0.24899 0.73979 0.0
H1208 H 0.75918 0.26767 0.74162 0.0
H1209 H 0.69869 0.21368 0.78265 0.0
C1210 C 0.74057 0.20853 0.79699 0.0
C1211 C 0.77207 0.21537 0.79781 0.0
C1212 C 0.73465 0.26359 0.74132 0.0
C1213 C 0.73704 0.23652 0.76991 0.0
C1214 C 0.71804 0.27356 0.72701 0.0
C1215 C 0.68628 0.26839 0.72607 0.0
C1216 C 0.71952 0.24815 0.75483 0.0
C1217 C 0.67179 0.25346 0.73999 0.0
C1218 C 0.72297 0.2191 0.78307 0.0
C1219 C 0.7852 0.23271 0.78435 0.0
N1220 N 0.68858 0.2437 0.7538 0.0
N1221 N 0.76764 0.24264 0.77098 0.0
H1222 H 0.77649 0.77038 0.29979 0.0
H1223 H 0.7719 0.68268 0.20891 0.0
H1224 H 0.69811 0.71948 0.28037 0.0
H1225 H 0.85239 0.72993 0.2284 0.0
H1226 H 0.74663 0.69117 0.23654 0.0
H1227 H 0.80657 0.75167 0.27517 0.0
C1228 C 0.76566 0.75514 0.29043 0.0
C1229 C 0.73463 0.7468 0.29203 0.0
C1230 C 0.76994 0.69943 0.23487 0.0
C1231 C 0.76886 0.72531 0.2639 0.0
C1232 C 0.7844 0.69455 0.21907 0.0
C1233 C 0.81416 0.70596 0.21627 0.0
C1234 C 0.78519 0.71612 0.24792 0.0
C1235 C 0.82934 0.7209 0.22997 0.0
C1236 C 0.78285 0.74442 0.2764 0.0
C1237 C 0.72185 0.72681 0.27958 0.0
N1238 N 0.81453 0.72592 0.24516 0.0
N1239 N 0.73895 0.71696 0.26599 0.0
H1240 H 0.57195 0.50595 0.04566 0.0
H1241 H 0.48081 0.45966 0.9609 0.0
H1242 H 0.49202 0.44638 0.04732 0.0
H1243 H 0.57251 0.49786 0.9612 0.0
H1244 H 0.48487 0.45097 0.99215 0.0
H1245 H 0.57248 0.50142 0.01439 0.0
C1246 C 0.55447 0.49191 0.03942 0.0
C1247 C 0.53175 0.47674 0.04908 0.0
C1248 C 0.50427 0.46069 0.98527 0.0
C1249 C 0.53219 0.47138 0.01317 0.0
C1250 C 0.50204 0.46546 0.96745 0.0
C1251 C 0.52615 0.48001 0.95854 0.0
C1252 C 0.53073 0.4707 -0.00591 0.0
C1253 C 0.55313 0.48713 0.96763 0.0
C1254 C 0.55491 0.48911 0.02155 0.0
C1255 C 0.50988 0.45855 0.04032 0.0
N1256 N 0.5545 0.48283 0.98491 0.0
N1257 N 0.51042 0.45663 0.02279 0.0
H1258 H 0.06047 0.50533 0.4816 0.0
H1259 H 0.98724 0.44903 0.56963 0.0
H1260 H 0.05832 0.4089 0.49833 0.0
H1261 H 0.0065 0.54637 0.55921 0.0
H1262 H 0.0167 0.43438 0.5442 0.0
H1263 H 0.04584 0.52168 0.51076 0.0
C1264 C 0.05768 0.48766 0.49149 0.0
C1265 C 0.05997 0.45567 0.48746 0.0
C1266 C 0.01476 0.45896 0.54751 0.0
C1267 C 0.0428 0.47412 0.52063 0.0
C1268 C -0.00229 0.46735 0.56197 0.0
C1269 C 0.99411 0.49898 0.5664 0.0
C1270 C 0.02796 0.48239 0.5372 0.0
C1271 C 0.00856 0.52169 0.55616 0.0
C1272 C 0.04917 0.49699 0.50811 0.0
C1273 C 0.0562 0.43379 0.50078 0.0
N1274 N 0.02457 0.51298 0.54187 0.0
N1275 N 0.04731 0.44339 0.51668 0.0
H1276 H 0.03317 0.48335 -0.00011 0.0
H1277 H 0.95763 0.54833 0.91348 0.0
H1278 H 0.03348 0.58079 0.98488 0.0
H1279 H 0.97617 0.44992 0.92131 0.0
H1280 H 0.98512 0.56009 0.94007 0.0
H1281 H 0.0133 0.46971 0.97124 0.0
C1282 C 0.02953 0.50179 0.99051 0.0
C1283 C 0.0346 0.53329 -0.00514 0.0
C1284 C 0.98334 0.53591 0.93596 0.0
C1285 C 0.01157 0.51795 0.9623 0.0
C1286 C 0.96746 0.52917 0.92082 0.0
C1287 C 0.9645 0.4981 0.91523 0.0
C1288 C 0.9961 0.51138 0.94571 0.0
C1289 C 0.9779 0.47422 0.92519 0.0
C1290 C 0.0181 0.49401 0.9742 0.0
C1291 C 0.02953 0.55623 0.9822 0.0
N1292 N 0.99298 0.48134 0.94004 0.0
N1293 N 0.01799 0.54813 0.9666 0.0
H1294 H 0.50607 0.45853 0.43304 0.0
H1295 H 0.47125 0.53161 0.52606 0.0
H1296 H 0.50405 0.55835 0.4421 0.0
H1297 H 0.4756 0.43288 0.51418 0.0
H1298 H 0.47762 0.54321 0.49512 0.0
H1299 H 0.48951 0.44987 0.4625 0.0
C1300 C 0.50211 0.47869 0.44126 0.0
C1301 C 0.5068 0.50919 0.43517 0.0
C1302 C 0.47686 0.51905 0.49935 0.0
C1303 C 0.48785 0.49945 0.46915 0.0
C1304 C 0.47313 0.51246 0.51694 0.0
C1305 C 0.4734 0.48128 0.52267 0.0
C1306 C 0.48062 0.49421 0.48758 0.0
C1307 C 0.47583 0.45729 0.51038 0.0
C1308 C 0.49254 0.47374 0.45812 0.0
C1309 C 0.50087 0.53442 0.44635 0.0
N1310 N 0.47952 0.46427 0.4935 0.0
N1311 N 0.49195 0.52899 0.46291 0.0
H1312 H 0.24539 0.16133 0.34438 0.0
H1313 H 0.38294 0.09297 0.36705 0.0
H1314 H 0.29271 0.19867 0.30005 0.0
H1315 H 0.39571 0.09103 0.31183 0.0
H1316 H 0.34403 0.13399 0.36341 0.0
H1317 H 0.29308 0.13654 0.35377 0.0
C1318 C 0.26599 0.16475 0.33679 0.0
C1319 C 0.26508 0.18182 0.32134 0.0
C1320 C 0.35554 0.12471 0.35212 0.0
C1321 C 0.31984 0.1538 0.33208 0.0
C1322 C 0.378 0.1016 0.3542 0.0
C1323 C 0.39203 0.08812 0.33967 0.0
C1324 C 0.34726 0.13434 0.33542 0.0
C1325 C 0.38495 0.10035 0.32334 0.0
C1326 C 0.29333 0.15091 0.34227 0.0
C1327 C 0.29243 0.18563 0.31202 0.0
N1328 N 0.36281 0.12257 0.32164 0.0
N1329 N 0.3186 0.17112 0.31735 0.0
H1330 H 0.11556 0.08487 0.59898 0.0
H1331 H 0.25104 0.16551 0.61211 0.0
H1332 H 0.1032 0.09716 0.65383 0.0
H1333 H 0.21508 0.18814 0.66249 0.0
H1334 H 0.20197 0.14223 0.6045 0.0
H1335 H 0.15509 0.12521 0.59941 0.0
C1336 C 0.12093 0.09632 0.61108 0.0
C1337 C 0.10664 0.08701 0.62648 0.0
C1338 C 0.20427 0.15298 0.61705 0.0
C1339 C 0.1527 0.1325 0.62723 0.0
C1340 C 0.23253 0.16622 0.62144 0.0
C1341 C 0.23735 0.17821 0.63807 0.0
C1342 C 0.18065 0.15185 0.62944 0.0
C1343 C 0.21257 0.17863 0.64961 0.0
C1344 C 0.14388 0.11916 0.61138 0.0
C1345 C 0.11412 0.10302 0.64171 0.0
N1346 N 0.18549 0.16522 0.64516 0.0
N1347 N 0.13689 0.12462 0.64173 0.0
H1348 H 0.22923 0.79634 0.85297 0.0
H1349 H 0.14454 0.92568 0.90987 0.0
H1350 H 0.26894 0.83845 0.89846 0.0
H1351 H 0.1204 0.90048 0.85769 0.0
H1352 H 0.18105 0.8817 0.91056 0.0
H1353 H 0.18041 0.82159 0.85972 0.0
C1354 C 0.22755 0.81046 0.86456 0.0
C1355 C 0.25342 0.81601 0.87491 0.0
C1356 C 0.16722 0.88544 0.89913 0.0
C1357 C 0.19766 0.84518 0.88261 0.0
C1358 C 0.14632 0.91037 0.89875 0.0
C1359 C 0.12996 0.91694 0.88358 0.0
C1360 C 0.17133 0.86694 0.88429 0.0
C1361 C 0.13305 0.8965 0.86953 0.0
C1362 C 0.19966 0.82488 0.8684 0.0
C1363 C 0.24971 0.83399 0.88995 0.0
N1364 N 0.15361 0.87263 0.87015 0.0
N1365 N 0.22246 0.84849 0.89318 0.0
H1366 H 0.27008 0.80759 0.1678 0.0
H1367 H 0.3813 0.90638 0.10717 0.0
H1368 H 0.25582 0.81804 0.11297 0.0
H1369 H 0.38586 0.90413 0.16278 0.0
H1370 H 0.34296 0.86438 0.10799 0.0
H1371 H 0.31964 0.8332 0.165 0.0
C1372 C 0.27747 0.81512 0.15512 0.0
C1373 C 0.25852 0.81126 0.14064 0.0
C1374 C 0.35281 0.87272 0.11997 0.0
C1375 C 0.31533 0.84085 0.13735 0.0
C1376 C 0.37481 0.89651 0.11951 0.0
C1377 C 0.3863 0.90906 0.13495 0.0
C1378 C 0.34253 0.86144 0.13598 0.0
C1379 C 0.37715 0.89549 0.15058 0.0
C1380 C 0.30586 0.82968 0.15352 0.0
C1381 C 0.26958 0.82091 0.1245 0.0
N1382 N 0.35556 0.87268 0.1507 0.0
N1383 N 0.29713 0.83573 0.12331 0.0
H1384 H 0.68782 0.88742 0.64089 0.0
H1385 H 0.59908 0.95537 0.55866 0.0
H1386 H 0.70638 0.85605 0.58895 0.0
H1387 H 0.57876 0.98063 0.61139 0.0
H1388 H 0.63645 0.91681 0.56918 0.0
H1389 H 0.64595 0.91963 0.63004 0.0
C1390 C 0.68303 0.88722 0.62717 0.0
C1391 C 0.70081 0.86917 0.61579 0.0
C1392 C 0.62362 0.93065 0.57842 0.0
C1393 C 0.65272 0.90629 0.60321 0.0
C1394 C 0.60227 0.95264 0.57244 0.0
C1395 C 0.58591 0.97144 0.58416 0.0
C1396 C 0.62866 0.92752 0.59625 0.0
C1397 C 0.59095 0.96685 0.60186 0.0
C1398 C 0.65901 0.90563 0.62098 0.0
C1399 C 0.6933 0.86968 0.59817 0.0
N1400 N 0.61196 0.94553 0.60733 0.0
N1401 N 0.66993 0.88817 0.59238 0.0
H1402 H 0.90889 0.94499 0.36365 0.0
H1403 H 0.7706 0.84013 0.39859 0.0
H1404 H 0.89391 0.92768 0.41786 0.0
H1405 H 0.79775 0.84444 0.34506 0.0
H1406 H 0.81541 0.87195 0.40616 0.0
H1407 H 0.868 0.90808 0.35677 0.0
C1408 C 0.8971 0.9333 0.37412 0.0
C1409 C 0.90477 0.93955 0.39136 0.0
C1410 C 0.81163 0.86572 0.39278 0.0
C1411 C 0.85766 0.89731 0.38357 0.0
C1412 C 0.78604 0.84758 0.38844 0.0
C1413 C 0.78028 0.83973 0.37115 0.0
C1414 C 0.83144 0.87626 0.37972 0.0
C1415 C 0.80115 0.84999 0.35856 0.0
C1416 C 0.87375 0.91216 0.37018 0.0
C1417 C 0.88875 0.92358 0.40438 0.0
N1418 N 0.82562 0.86786 0.36308 0.0
N1419 N 0.86577 0.90337 0.40022 0.0
H1420 H 0.79064 0.18832 0.111 0.0
H1421 H 0.88621 0.03234 0.13187 0.0
H1422 H 0.77959 0.133 0.15719 0.0
H1423 H 0.89263 0.08208 0.08353 0.0
H1424 H 0.85216 0.07324 0.14281 0.0
H1425 H 0.83259 0.15355 0.10206 0.0
C1426 C 0.79714 0.16902 0.11931 0.0
C1427 C 0.78135 0.1634 0.13479 0.0
C1428 C 0.86121 0.07537 0.12985 0.0
C1429 C 0.82932 0.12362 0.12467 0.0
C1430 C 0.88076 0.05204 0.12361 0.0
C1431 C 0.89205 0.05357 0.10669 0.0
C1432 C 0.85276 0.10044 0.11909 0.0
C1433 C 0.88429 0.0798 0.09662 0.0
C1434 C 0.82107 0.14918 0.1142 0.0
C1435 C 0.79087 0.1381 0.14508 0.0
N1436 N 0.8649 0.10205 0.10292 0.0
N1437 N 0.81408 0.11911 0.1398 0.0
H1438 H 0.59588 0.02927 0.87758 0.0
H1439 H 0.73949 0.13265 0.90759 0.0
H1440 H 0.62409 0.03882 0.93075 0.0
H1441 H 0.7088 0.12485 0.85477 0.0
H1442 H 0.69573 0.10079 0.91663 0.0
H1443 H 0.63534 0.06684 0.86928 0.0
C1444 C 0.61023 0.03942 0.88754 0.0
C1445 C 0.60679 0.0307 0.90488 0.0
C1446 C 0.6985 0.1062 0.90308 0.0
C1447 C 0.65222 0.07366 0.89544 0.0
C1448 C 0.72349 0.12439 0.8979 0.0
C1449 C 0.72797 0.13127 0.88038 0.0
C1450 C 0.67788 0.09475 0.89063 0.0
C1451 C 0.70641 0.12001 0.86841 0.0
C1452 C 0.63281 0.06088 0.88278 0.0
C1453 C 0.626 0.04474 0.91721 0.0
N1454 N 0.68244 0.1022 0.87375 0.0
N1455 N 0.64803 0.06537 0.91224 0.0
H1456 H 0.72567 0.67098 0.85843 0.0
H1457 H 0.86503 0.57821 0.81747 0.0
H1458 H 0.75373 0.67908 0.80519 0.0
H1459 H 0.84792 0.58039 0.87228 0.0
H1460 H 0.82868 0.62105 0.81362 0.0
H1461 H 0.7739 0.64373 0.86479 0.0
C1462 C 0.74214 0.66746 0.84814 0.0
C1463 C 0.73539 0.67671 0.83118 0.0
C1464 C 0.83313 0.61258 0.82655 0.0
C1465 C 0.79043 0.64554 0.83834 0.0
C1466 C 0.85389 0.58807 0.82873 0.0
C1467 C 0.85908 0.5755 0.84517 0.0
C1468 C 0.8169 0.62417 0.84087 0.0
C1469 C 0.84438 0.58937 0.85937 0.0
C1470 C 0.76969 0.65194 0.85178 0.0
C1471 C 0.75769 0.67183 0.81839 0.0
N1472 N 0.82342 0.61262 0.85685 0.0
N1473 N 0.78399 0.65622 0.82219 0.0
H1474 H 0.743 0.66456 0.10482 0.0
H1475 H 0.58829 0.59961 0.1462 0.0
H1476 H 0.71611 0.67663 0.15803 0.0
H1477 H 0.61733 0.57794 0.0943 0.0
H1478 H 0.6294 0.63799 0.14835 0.0
H1479 H 0.69241 0.64203 0.09868 0.0
C1480 C 0.72636 0.66281 0.11516 0.0
C1481 C 0.73394 0.67195 0.13203 0.0
C1482 C 0.62657 0.6252 0.13638 0.0
C1483 C 0.67618 0.64645 0.12509 0.0
C1484 C 0.60302 0.60334 0.13513 0.0
C1485 C 0.59978 0.58514 0.12017 0.0
C1486 C 0.64734 0.62863 0.12266 0.0
C1487 C 0.61921 0.59129 0.10613 0.0
C1488 C 0.69751 0.64998 0.11164 0.0
C1489 C 0.71146 0.66939 0.1449 0.0
N1490 N 0.6426 0.61214 0.10783 0.0
N1491 N 0.68373 0.65665 0.14119 0.0
H1492 H 0.73517 0.33523 0.39508 0.0
H1493 H 0.59212 0.39761 0.34241 0.0
H1494 H 0.71412 0.3082 0.3427 0.0
H1495 H 0.60568 0.41711 0.39652 0.0
H1496 H 0.63156 0.35713 0.34399 0.0
H1497 H 0.68363 0.35786 0.39766 0.0
C1498 C 0.71956 0.33358 0.38423 0.0
C1499 C 0.72919 0.32046 0.36853 0.0
C1500 C 0.6256 0.36983 0.35562 0.0
C1501 C 0.67038 0.34636 0.37134 0.0
C1502 C 0.60303 0.39294 0.35471 0.0
C1503 C 0.59605 0.41111 0.36927 0.0
C1504 C 0.64178 0.36527 0.37112 0.0
C1505 C 0.61058 0.4038 0.38494 0.0
C1506 C 0.69014 0.3465 0.3857 0.0
C1507 C 0.70792 0.31869 0.35494 0.0
N1508 N 0.63329 0.38188 0.38538 0.0
N1509 N 0.67973 0.3319 0.35659 0.0
H1510 H 0.87024 0.42001 0.60312 0.0
H1511 H 0.77474 0.31491 0.66894 0.0
H1512 H 0.88288 0.41876 0.65834 0.0
H1513 H 0.74503 0.33428 0.61685 0.0
H1514 H 0.8234 0.34058 0.66281 0.0
H1515 H 0.83342 0.37678 0.60584 0.0
C1516 C 0.86583 0.41012 0.61574 0.0
C1517 C 0.87913 0.42321 0.63057 0.0
C1518 C 0.8064 0.33888 0.65264 0.0
C1519 C 0.83737 0.37411 0.63375 0.0
C1520 C 0.77858 0.32424 0.65613 0.0
C1521 C 0.7555 0.32313 0.6435 0.0
C1522 C 0.81117 0.35271 0.63645 0.0
C1523 C 0.76203 0.33506 0.62704 0.0
C1524 C 0.84475 0.38563 0.61729 0.0
C1525 C 0.87269 0.40964 0.64662 0.0
N1526 N 0.78914 0.34986 0.62405 0.0
N1527 N 0.85205 0.38603 0.6478 0.0
H1528 H 0.08206 0.44227 0.10266 0.0
H1529 H 0.22495 0.34228 0.06979 0.0
H1530 H 0.10821 0.43612 0.04903 0.0
H1531 H 0.18805 0.33555 0.12136 0.0
H1532 H 0.18041 0.37382 0.06141 0.0
H1533 H 0.11852 0.40041 0.10934 0.0
C1534 C 0.09519 0.43186 0.09225 0.0
C1535 C 0.09229 0.44296 0.07529 0.0
C1536 C 0.18189 0.36512 0.0745 0.0
C1537 C 0.13438 0.39525 0.08288 0.0
C1538 C 0.20734 0.34711 0.0793 0.0
C1539 C 0.21045 0.33653 0.09635 0.0
C1540 C 0.15954 0.37286 0.08689 0.0
C1541 C 0.18679 0.34339 0.10809 0.0
C1542 C 0.11603 0.40794 0.09607 0.0
C1543 C 0.1098 0.42844 0.06231 0.0
N1544 N 0.16255 0.36142 0.1032 0.0
N1545 N 0.13038 0.40563 0.06641 0.0
H1546 H 0.42211 0.41105 0.90255 0.0
H1547 H 0.2653 0.39042 0.84993 0.0
H1548 H 0.38859 0.47758 0.86502 0.0
H1549 H 0.30743 0.31512 0.87871 0.0
H1550 H 0.30862 0.42401 0.85723 0.0
H1551 H 0.37874 0.37672 0.89569 0.0
C1552 C 0.40567 0.41843 0.89286 0.0
C1553 C 0.409 0.44724 0.88434 0.0
C1554 C 0.30843 0.40014 0.86195 0.0
C1555 C 0.35931 0.4082 0.87653 0.0
C1556 C 0.28362 0.38094 0.85783 0.0
C1557 C 0.28272 0.34985 0.86369 0.0
C1558 C 0.33252 0.38832 0.87211 0.0
C1559 C 0.3072 0.33891 0.87388 0.0
C1560 C 0.38097 0.3988 0.88895 0.0
C1561 C 0.38702 0.45557 0.8719 0.0
N1562 N 0.33109 0.35814 0.87779 0.0
N1563 N 0.36309 0.43622 0.86842 0.0
H1564 H 0.38626 0.56408 0.57955 0.0
H1565 H 0.29584 0.64634 0.65738 0.0
H1566 H 0.4078 0.54983 0.63337 0.0
H1567 H 0.2643 0.64845 0.60456 0.0
H1568 H 0.3408 0.61648 0.64825 0.0
H1569 H 0.34543 0.60052 0.58799 0.0
C1570 C 0.38261 0.56882 0.59313 0.0
C1571 C 0.40037 0.5537 0.60578 0.0
C1572 C 0.32413 0.62357 0.63863 0.0
C1573 C 0.35364 0.59532 0.6155 0.0
C1574 C 0.29843 0.64069 0.64383 0.0
C1575 C 0.27608 0.64975 0.63174 0.0
C1576 C 0.32767 0.61542 0.62119 0.0
C1577 C 0.28082 0.64182 0.61435 0.0
C1578 C 0.35922 0.58954 0.59793 0.0
C1579 C 0.39458 0.56076 0.62317 0.0
N1580 N 0.30604 0.625 0.6096 0.0
N1581 N 0.37168 0.58095 0.62751 0.0
H1582 H 0.08606 0.55155 0.38043 0.0
H1583 H 0.24217 0.63905 0.4047 0.0
H1584 H 0.13275 0.54 0.42919 0.0
H1585 H 0.18953 0.65922 0.35878 0.0
H1586 H 0.20095 0.60474 0.4146 0.0
H1587 H 0.12234 0.59293 0.37286 0.0
C1588 C 0.1038 0.55784 0.3896 0.0
C1589 C 0.10649 0.54209 0.40541 0.0
C1590 C 0.19829 0.6169 0.40243 0.0
C1591 C 0.14822 0.58935 0.3968 0.0
C1592 C 0.22183 0.63652 0.39677 0.0
C1593 C 0.21945 0.65185 0.38082 0.0
C1594 C 0.17224 0.61237 0.392 0.0
C1595 C 0.19246 0.64776 0.37113 0.0
C1596 C 0.1245 0.58151 0.38528 0.0
C1597 C 0.12986 0.55138 0.41682 0.0
N1598 N 0.17007 0.62819 0.37679 0.0
N1599 N 0.14996 0.57419 0.41222 0.0
loop_
_geom_bond_atom_site_label_1
_geom_bond_atom_site_label_2
_geom_bond_distance
_geom_bond_site_symmetry_2
_ccdc_geom_bond_type
Zn0 O3 2.031 . S
Zn0 O5 2.049 . S
Zn0 O10 2.067 . S
Zn1 O2 1.962 . S
Zn1 O4 1.986 . S
Zn1 O6 1.996 . S
Zn1 O9 1.943 . S
O2 Zn1 1.962 . S
O2 C7 1.254 . S
O3 Zn0 2.031 . S
O3 C7 1.269 . S
O4 Zn1 1.986 . S
O4 C11 1.262 . S
O5 Zn0 2.049 . S
O5 C13 1.260 . S
O6 Zn1 1.996 . S
O6 C13 1.257 . S
C7 O2 1.254 . S
C7 O3 1.269 . S
C8 O9 1.249 . S
C8 O10 1.270 . S
O9 Zn1 1.943 . S
O9 C8 1.249 . S
O10 Zn0 2.067 . S
O10 C8 1.270 . S
C11 O4 1.262 . S
C11 O12 1.232 . S
O12 C11 1.232 . S
C13 O5 1.260 . S
C13 O6 1.257 . S
Zn14 O17 2.031 . S
Zn14 O19 2.049 1_565 S
Zn14 O24 2.067 . S
Zn15 O16 1.962 . S
Zn15 O18 1.986 . S
Zn15 O20 1.972 1_565 S
Zn15 O23 1.943 . S
O16 Zn15 1.962 . S
O16 C21 1.254 . S
O17 Zn14 2.031 . S
O17 C21 1.269 . S
O18 Zn15 1.986 . S
O18 C25 1.262 . S
O19 Zn14 2.049 1_545 S
O19 C27 1.260 . S
O20 Zn15 1.972 1_545 S
O20 C27 1.272 . S
C21 O16 1.254 . S
C21 O17 1.269 . S
C22 O23 1.249 . S
C22 O24 1.270 . S
O23 Zn15 1.943 . S
O23 C22 1.249 . S
O24 Zn14 2.067 . S
O24 C22 1.270 . S
C25 O18 1.262 . S
C25 O26 1.232 . S
O26 C25 1.232 . S
C27 O19 1.260 . S
C27 O20 1.272 . S
Zn28 O31 2.031 . S
Zn28 O33 2.049 . S
Zn28 O38 2.067 . S
Zn29 O30 1.962 . S
Zn29 O32 1.986 . S
Zn29 O34 1.996 . S
Zn29 O37 1.943 . S
O30 Zn29 1.962 . S
O30 C35 1.254 . S
O31 Zn28 2.031 . S
O31 C35 1.269 . S
O32 Zn29 1.986 . S
O32 C39 1.262 . S
O33 Zn28 2.049 . S
O33 C41 1.260 . S
O34 Zn29 1.996 . S
O34 C41 1.257 . S
C35 O30 1.254 . S
C35 O31 1.269 . S
C36 O37 1.249 . S
C36 O38 1.270 . S
O37 Zn29 1.943 . S
O37 C36 1.249 . S
O38 Zn28 2.067 . S
O38 C36 1.270 . S
C39 O32 1.262 . S
C39 O40 1.232 . S
O40 C39 1.232 . S
C41 O33 1.260 . S
C41 O34 1.257 . S
Zn42 O45 2.031 . S
Zn42 O47 2.049 1_545 S
Zn42 O52 2.067 . S
Zn43 O44 1.962 . S
Zn43 O46 1.986 . S
Zn43 O48 1.972 1_545 S
Zn43 O51 1.943 . S
O44 Zn43 1.962 . S
O44 C49 1.254 . S
O45 Zn42 2.031 . S
O45 C49 1.269 . S
O46 Zn43 1.986 . S
O46 C53 1.262 . S
O47 Zn42 2.049 1_565 S
O47 C55 1.260 . S
O48 Zn43 1.972 1_565 S
O48 C55 1.272 . S
C49 O44 1.254 . S
C49 O45 1.269 . S
C50 O51 1.249 . S
C50 O52 1.270 . S
O51 Zn43 1.943 . S
O51 C50 1.249 . S
O52 Zn42 2.067 . S
O52 C50 1.270 . S
C53 O46 1.262 . S
C53 O54 1.232 . S
O54 C53 1.232 . S
C55 O47 1.260 . S
C55 O48 1.272 . S
Zn56 O59 2.031 . S
Zn56 O61 2.049 . S
Zn56 O66 2.067 . S
Zn57 O58 1.962 . S
Zn57 O60 1.986 . S
Zn57 O62 1.996 . S
Zn57 O65 1.943 . S
O58 Zn57 1.962 . S
O58 C63 1.254 . S
O59 Zn56 2.031 . S
O59 C63 1.269 . S
O60 Zn57 1.986 . S
O60 C67 1.262 . S
O61 Zn56 2.049 . S
O61 C69 1.260 . S
O62 Zn57 1.996 . S
O62 C69 1.257 . S
C63 O58 1.254 . S
C63 O59 1.269 . S
C64 O65 1.249 . S
C64 O66 1.270 . S
O65 Zn57 1.943 . S
O65 C64 1.249 . S
O66 Zn56 2.067 . S
O66 C64 1.270 . S
C67 O60 1.262 . S
C67 O68 1.232 . S
O68 C67 1.232 . S
C69 O61 1.260 . S
C69 O62 1.257 . S
Zn70 O73 2.031 . S
Zn70 O75 2.049 1_565 S
Zn70 O80 2.067 . S
Zn71 O72 1.962 . S
Zn71 O74 1.986 . S
Zn71 O76 1.972 1_565 S
Zn71 O79 1.943 . S
O72 Zn71 1.962 . S
O72 C77 1.254 . S
O73 Zn70 2.031 . S
O73 C77 1.269 . S
O74 Zn71 1.986 . S
O74 C81 1.262 . S
O75 Zn70 2.049 1_545 S
O75 C83 1.260 . S
O76 Zn71 1.972 1_545 S
O76 C83 1.272 . S
C77 O72 1.254 . S
C77 O73 1.269 . S
C78 O79 1.249 . S
C78 O80 1.270 . S
O79 Zn71 1.943 . S
O79 C78 1.249 . S
O80 Zn70 2.067 . S
O80 C78 1.270 . S
C81 O74 1.262 . S
C81 O82 1.232 . S
O82 C81 1.232 . S
C83 O75 1.260 . S
C83 O76 1.272 . S
Zn84 O87 2.031 . S
Zn84 O89 2.049 . S
Zn84 O94 2.067 . S
Zn85 O86 1.962 . S
Zn85 O88 1.986 . S
Zn85 O90 1.996 . S
Zn85 O93 1.943 . S
O86 Zn85 1.962 . S
O86 C91 1.254 . S
O87 Zn84 2.031 . S
O87 C91 1.269 . S
O88 Zn85 1.986 . S
O88 C95 1.262 . S
O89 Zn84 2.049 . S
O89 C97 1.260 . S
O90 Zn85 1.996 . S
O90 C97 1.257 . S
C91 O86 1.254 . S
C91 O87 1.269 . S
C92 O93 1.249 . S
C92 O94 1.270 . S
O93 Zn85 1.943 . S
O93 C92 1.249 . S
O94 Zn84 2.067 . S
O94 C92 1.270 . S
C95 O88 1.262 . S
C95 O96 1.232 . S
O96 C95 1.232 . S
C97 O89 1.260 . S
C97 O90 1.257 . S
Zn98 O101 2.031 . S
Zn98 O103 2.049 1_545 S
Zn98 O108 2.067 . S
Zn99 O100 1.962 . S
Zn99 O102 1.986 . S
Zn99 O104 1.972 1_545 S
Zn99 O107 1.943 . S
O100 Zn99 1.962 . S
O100 C105 1.254 . S
O101 Zn98 2.031 . S
O101 C105 1.269 . S
O102 Zn99 1.986 . S
O102 C109 1.262 . S
O103 Zn98 2.049 1_565 S
O103 C111 1.260 . S
O104 Zn99 1.972 1_565 S
O104 C111 1.272 . S
C105 O100 1.254 . S
C105 O101 1.269 . S
C106 O107 1.249 . S
C106 O108 1.270 . S
O107 Zn99 1.943 . S
O107 C106 1.249 . S
O108 Zn98 2.067 . S
O108 C106 1.270 . S
C109 O102 1.262 . S
C109 O110 1.232 . S
O110 C109 1.232 . S
C111 O103 1.260 . S
C111 O104 1.272 . S
Zn112 O115 2.031 . S
Zn112 O117 2.049 . S
Zn112 O122 2.067 . S
Zn113 O114 1.962 . S
Zn113 O116 1.986 . S
Zn113 O118 1.996 . S
Zn113 O121 1.943 . S
O114 Zn113 1.962 . S
O114 C119 1.254 . S
O115 Zn112 2.031 . S
O115 C119 1.269 . S
O116 Zn113 1.986 . S
O116 C123 1.262 . S
O117 Zn112 2.049 . S
O117 C125 1.260 . S
O118 Zn113 1.996 . S
O118 C125 1.257 . S
C119 O114 1.254 . S
C119 O115 1.269 . S
C120 O121 1.249 . S
C120 O122 1.270 . S
O121 Zn113 1.943 . S
O121 C120 1.249 . S
O122 Zn112 2.067 . S
O122 C120 1.270 . S
C123 O116 1.262 . S
C123 O124 1.232 . S
O124 C123 1.232 . S
C125 O117 1.260 . S
C125 O118 1.257 . S
Zn126 O129 2.031 . S
Zn126 O131 2.049 . S
Zn126 O136 2.067 1_655 S
Zn127 O128 1.962 . S
Zn127 O130 1.986 1_545 S
Zn127 O132 1.996 . S
Zn127 O135 1.943 . S
O128 Zn127 1.962 . S
O128 C133 1.254 . S
O129 Zn126 2.031 . S
O129 C133 1.269 . S
O130 Zn127 1.986 1_565 S
O130 C137 1.262 . S
O131 Zn126 2.049 . S
O131 C139 1.260 . S
O132 Zn127 1.996 . S
O132 C139 1.257 . S
C133 O128 1.254 . S
C133 O129 1.269 . S
C134 O135 1.249 . S
C134 O136 1.270 1_655 S
O135 Zn127 1.943 . S
O135 C134 1.249 . S
O136 Zn126 2.067 1_455 S
O136 C134 1.270 1_455 S
C137 O130 1.262 . S
C137 O138 1.232 1_565 S
O138 C137 1.232 1_545 S
C139 O131 1.260 . S
C139 O132 1.257 . S
Zn140 O143 2.031 . S
Zn140 O145 2.049 . S
Zn140 O150 2.067 . S
Zn141 O142 1.962 . S
Zn141 O144 1.986 . S
Zn141 O146 1.996 . S
Zn141 O149 1.943 . S
O142 Zn141 1.962 . S
O142 C147 1.254 . S
O143 Zn140 2.031 . S
O143 C147 1.269 . S
O144 Zn141 1.986 . S
O144 C151 1.262 . S
O145 Zn140 2.049 . S
O145 C153 1.260 . S
O146 Zn141 1.996 . S
O146 C153 1.257 . S
C147 O142 1.254 . S
C147 O143 1.269 . S
C148 O149 1.249 . S
C148 O150 1.270 . S
O149 Zn141 1.943 . S
O149 C148 1.249 . S
O150 Zn140 2.067 . S
O150 C148 1.270 . S
C151 O144 1.262 . S
C151 O152 1.232 . S
O152 C151 1.232 . S
C153 O145 1.260 . S
C153 O146 1.257 . S
Zn154 O157 2.031 . S
Zn154 O159 2.049 . S
Zn154 O164 2.067 . S
Zn155 O156 1.962 . S
Zn155 O158 1.986 1_565 S
Zn155 O160 1.996 . S
Zn155 O163 1.943 . S
O156 Zn155 1.962 . S
O156 C161 1.254 . S
O157 Zn154 2.031 . S
O157 C161 1.269 . S
O158 Zn155 1.986 1_545 S
O158 C165 1.262 . S
O159 Zn154 2.049 . S
O159 C167 1.260 . S
O160 Zn155 1.996 . S
O160 C167 1.257 . S
C161 O156 1.254 . S
C161 O157 1.269 . S
C162 O163 1.249 . S
C162 O164 1.270 . S
O163 Zn155 1.943 . S
O163 C162 1.249 . S
O164 Zn154 2.067 . S
O164 C162 1.270 . S
C165 O158 1.262 . S
C165 O166 1.232 1_545 S
O166 C165 1.232 1_565 S
C167 O159 1.260 . S
C167 O160 1.257 . S
Zn168 O171 2.031 . S
Zn168 O173 2.049 . S
Zn168 O178 2.067 . S
Zn169 O170 1.962 . S
Zn169 O172 1.986 . S
Zn169 O174 1.996 . S
Zn169 O177 1.943 . S
O170 Zn169 1.962 . S
O170 C175 1.254 . S
O171 Zn168 2.031 . S
O171 C175 1.269 . S
O172 Zn169 1.986 . S
O172 C179 1.262 . S
O173 Zn168 2.049 . S
O173 C181 1.260 . S
O174 Zn169 1.996 . S
O174 C181 1.257 . S
C175 O170 1.254 . S
C175 O171 1.269 . S
C176 O177 1.249 . S
C176 O178 1.270 . S
O177 Zn169 1.943 . S
O177 C176 1.249 . S
O178 Zn168 2.067 . S
O178 C176 1.270 . S
C179 O172 1.262 . S
C179 O180 1.232 . S
O180 C179 1.232 . S
C181 O173 1.260 . S
C181 O174 1.257 . S
Zn182 O185 2.031 . S
Zn182 O187 2.049 . S
Zn182 O192 2.067 . S
Zn183 O184 1.962 . S
Zn183 O186 1.986 1_545 S
Zn183 O188 1.996 . S
Zn183 O191 1.943 . S
O184 Zn183 1.962 . S
O184 C189 1.254 . S
O185 Zn182 2.031 . S
O185 C189 1.269 . S
O186 Zn183 1.986 1_565 S
O186 C193 1.262 . S
O187 Zn182 2.049 . S
O187 C195 1.260 . S
O188 Zn183 1.996 . S
O188 C195 1.257 . S
C189 O184 1.254 . S
C189 O185 1.269 . S
C190 O191 1.249 . S
C190 O192 1.270 . S
O191 Zn183 1.943 . S
O191 C190 1.249 . S
O192 Zn182 2.067 . S
O192 C190 1.270 . S
C193 O186 1.262 . S
C193 O194 1.232 1_565 S
O194 C193 1.232 1_545 S
C195 O187 1.260 . S
C195 O188 1.257 . S
Zn196 O199 2.031 . S
Zn196 O201 2.049 . S
Zn196 O206 2.067 . S
Zn197 O198 1.962 . S
Zn197 O200 1.986 . S
Zn197 O202 1.996 . S
Zn197 O205 1.943 . S
O198 Zn197 1.962 . S
O198 C203 1.254 . S
O199 Zn196 2.031 . S
O199 C203 1.269 . S
O200 Zn197 1.986 . S
O200 C207 1.262 . S
O201 Zn196 2.049 . S
O201 C209 1.260 . S
O202 Zn197 1.996 . S
O202 C209 1.257 . S
C203 O198 1.254 . S
C203 O199 1.269 . S
C204 O205 1.249 . S
C204 O206 1.270 . S
O205 Zn197 1.943 . S
O205 C204 1.249 . S
O206 Zn196 2.067 . S
O206 C204 1.270 . S
C207 O200 1.262 . S
C207 O208 1.232 . S
O208 C207 1.232 . S
C209 O201 1.260 . S
C209 O202 1.257 . S
Zn210 O213 2.031 . S
Zn210 O215 2.049 . S
Zn210 O220 2.067 1_655 S
Zn211 O212 1.962 . S
Zn211 O214 1.986 1_565 S
Zn211 O216 1.996 . S
Zn211 O219 1.943 . S
O212 Zn211 1.962 . S
O212 C217 1.254 . S
O213 Zn210 2.031 . S
O213 C217 1.269 . S
O214 Zn211 1.986 1_545 S
O214 C221 1.262 . S
O215 Zn210 2.049 . S
O215 C223 1.260 . S
O216 Zn211 1.996 . S
O216 C223 1.257 . S
C217 O212 1.254 . S
C217 O213 1.269 . S
C218 O219 1.249 . S
C218 O220 1.270 1_655 S
O219 Zn211 1.943 . S
O219 C218 1.249 . S
O220 Zn210 2.067 1_455 S
O220 C218 1.270 1_455 S
C221 O214 1.262 . S
C221 O222 1.232 1_545 S
O222 C221 1.232 1_565 S
C223 O215 1.260 . S
C223 O216 1.257 . S
Zn224 O227 2.031 . S
Zn224 O229 2.049 . S
Zn224 O234 2.067 . S
Zn225 O226 1.962 . S
Zn225 O228 1.986 . S
Zn225 O230 1.996 . S
Zn225 O233 1.943 . S
O226 Zn225 1.962 . S
O226 C231 1.254 . S
O227 Zn224 2.031 . S
O227 C231 1.269 . S
O228 Zn225 1.986 . S
O228 C235 1.262 . S
O229 Zn224 2.049 . S
O229 C237 1.260 . S
O230 Zn225 1.996 . S
O230 C237 1.257 . S
C231 O226 1.254 . S
C231 O227 1.269 . S
C232 O233 1.249 . S
C232 O234 1.270 . S
O233 Zn225 1.943 . S
O233 C232 1.249 . S
O234 Zn224 2.067 . S
O234 C232 1.270 . S
C235 O228 1.262 . S
C235 O236 1.232 . S
O236 C235 1.232 . S
C237 O229 1.260 . S
C237 O230 1.257 . S
Zn238 O241 2.031 . S
Zn238 O243 2.049 . S
Zn238 O248 2.067 . S
Zn239 O240 1.962 . S
Zn239 O242 1.986 . S
Zn239 O244 1.996 . S
Zn239 O247 1.943 . S
O240 Zn239 1.962 . S
O240 C245 1.254 . S
O241 Zn238 2.031 . S
O241 C245 1.269 . S
O242 Zn239 1.986 . S
O242 C249 1.262 . S
O243 Zn238 2.049 . S
O243 C251 1.260 . S
O244 Zn239 1.996 . S
O244 C251 1.257 . S
C245 O240 1.254 . S
C245 O241 1.269 . S
C246 O247 1.249 . S
C246 O248 1.270 . S
O247 Zn239 1.943 . S
O247 C246 1.249 . S
O248 Zn238 2.067 . S
O248 C246 1.270 . S
C249 O242 1.262 . S
C249 O250 1.232 . S
O250 C249 1.232 . S
C251 O243 1.260 . S
C251 O244 1.257 . S
Zn252 O255 2.031 . S
Zn252 O257 2.049 . S
Zn252 O262 2.067 . S
Zn253 O254 1.962 . S
Zn253 O256 1.986 . S
Zn253 O258 1.996 . S
Zn253 O261 1.943 . S
O254 Zn253 1.962 . S
O254 C259 1.254 . S
O255 Zn252 2.031 . S
O255 C259 1.269 . S
O256 Zn253 1.986 . S
O256 C263 1.262 . S
O257 Zn252 2.049 . S
O257 C265 1.260 . S
O258 Zn253 1.996 . S
O258 C265 1.257 . S
C259 O254 1.254 . S
C259 O255 1.269 . S
C260 O261 1.249 . S
C260 O262 1.270 . S
O261 Zn253 1.943 . S
O261 C260 1.249 . S
O262 Zn252 2.067 . S
O262 C260 1.270 . S
C263 O256 1.262 . S
C263 O264 1.232 . S
O264 C263 1.232 . S
C265 O257 1.260 . S
C265 O258 1.257 . S
Zn266 O269 2.031 . S
Zn266 O271 2.049 . S
Zn266 O276 2.067 . S
Zn267 O268 1.962 . S
Zn267 O270 1.986 . S
Zn267 O272 1.996 . S
Zn267 O275 1.943 . S
O268 Zn267 1.962 . S
O268 C273 1.254 . S
O269 Zn266 2.031 . S
O269 C273 1.269 . S
O270 Zn267 1.986 . S
O270 C277 1.262 . S
O271 Zn266 2.049 . S
O271 C279 1.260 . S
O272 Zn267 1.996 . S
O272 C279 1.257 . S
C273 O268 1.254 . S
C273 O269 1.269 . S
C274 O275 1.249 . S
C274 O276 1.270 . S
O275 Zn267 1.943 . S
O275 C274 1.249 . S
O276 Zn266 2.067 . S
O276 C274 1.270 . S
C277 O270 1.262 . S
C277 O278 1.232 . S
O278 C277 1.232 . S
C279 O271 1.260 . S
C279 O272 1.257 . S
Zn280 O283 2.031 . S
Zn280 O285 2.049 . S
Zn280 O290 2.067 . S
Zn281 O282 1.962 . S
Zn281 O284 1.986 . S
Zn281 O286 1.996 . S
Zn281 O289 1.943 . S
O282 Zn281 1.962 . S
O282 C287 1.254 . S
O283 Zn280 2.031 . S
O283 C287 1.269 . S
O284 Zn281 1.986 . S
O284 C291 1.262 . S
O285 Zn280 2.049 . S
O285 C293 1.260 . S
O286 Zn281 1.996 . S
O286 C293 1.257 . S
C287 O282 1.254 . S
C287 O283 1.269 . S
C288 O289 1.249 . S
C288 O290 1.270 . S
O289 Zn281 1.943 . S
O289 C288 1.249 . S
O290 Zn280 2.067 . S
O290 C288 1.270 . S
C291 O284 1.262 . S
C291 O292 1.232 . S
O292 C291 1.232 . S
C293 O285 1.260 . S
C293 O286 1.257 . S
Zn294 O297 2.031 . S
Zn294 O299 2.049 . S
Zn294 O304 2.067 . S
Zn295 O296 1.962 . S
Zn295 O298 1.986 . S
Zn295 O300 1.996 . S
Zn295 O303 1.943 . S
O296 Zn295 1.962 . S
O296 C301 1.254 . S
O297 Zn294 2.031 . S
O297 C301 1.269 . S
O298 Zn295 1.986 . S
O298 C305 1.262 . S
O299 Zn294 2.049 . S
O299 C307 1.260 . S
O300 Zn295 1.996 . S
O300 C307 1.257 . S
C301 O296 1.254 . S
C301 O297 1.269 . S
C302 O303 1.249 . S
C302 O304 1.270 . S
O303 Zn295 1.943 . S
O303 C302 1.249 . S
O304 Zn294 2.067 . S
O304 C302 1.270 . S
C305 O298 1.262 . S
C305 O306 1.232 . S
O306 C305 1.232 . S
C307 O299 1.260 . S
C307 O300 1.257 . S
Zn308 O311 2.031 . S
Zn308 O313 2.049 . S
Zn308 O318 2.067 . S
Zn309 O310 1.962 . S
Zn309 O312 1.986 . S
Zn309 O314 1.996 . S
Zn309 O317 1.943 . S
O310 Zn309 1.962 . S
O310 C315 1.254 . S
O311 Zn308 2.031 . S
O311 C315 1.269 . S
O312 Zn309 1.986 . S
O312 C319 1.262 . S
O313 Zn308 2.049 . S
O313 C321 1.260 . S
O314 Zn309 1.996 . S
O314 C321 1.257 . S
C315 O310 1.254 . S
C315 O311 1.269 . S
C316 O317 1.249 . S
C316 O318 1.270 . S
O317 Zn309 1.943 . S
O317 C316 1.249 . S
O318 Zn308 2.067 . S
O318 C316 1.270 . S
C319 O312 1.262 . S
C319 O320 1.232 . S
O320 C319 1.232 . S
C321 O313 1.260 . S
C321 O314 1.257 . S
Zn322 O325 2.031 . S
Zn322 O327 2.049 . S
Zn322 O332 2.067 . S
Zn323 O324 1.962 . S
Zn323 O326 1.986 . S
Zn323 O328 1.996 . S
Zn323 O331 1.943 . S
O324 Zn323 1.962 . S
O324 C329 1.254 . S
O325 Zn322 2.031 . S
O325 C329 1.269 . S
O326 Zn323 1.986 . S
O326 C333 1.262 . S
O327 Zn322 2.049 . S
O327 C335 1.260 . S
O328 Zn323 1.996 . S
O328 C335 1.257 . S
C329 O324 1.254 . S
C329 O325 1.269 . S
C330 O331 1.249 . S
C330 O332 1.270 . S
O331 Zn323 1.943 . S
O331 C330 1.249 . S
O332 Zn322 2.067 . S
O332 C330 1.270 . S
C333 O326 1.262 . S
C333 O334 1.232 . S
O334 C333 1.232 . S
C335 O327 1.260 . S
C335 O328 1.257 . S
Zn336 O339 2.031 . S
Zn336 O341 2.049 . S
Zn336 O346 2.067 . S
Zn337 O338 1.962 . S
Zn337 O340 1.986 . S
Zn337 O342 1.996 . S
Zn337 O345 1.943 . S
O338 Zn337 1.962 . S
O338 C343 1.254 . S
O339 Zn336 2.031 . S
O339 C343 1.269 . S
O340 Zn337 1.986 . S
O340 C347 1.262 . S
O341 Zn336 2.049 . S
O341 C349 1.260 . S
O342 Zn337 1.996 . S
O342 C349 1.257 . S
C343 O338 1.254 . S
C343 O339 1.269 . S
C344 O345 1.249 . S
C344 O346 1.270 . S
O345 Zn337 1.943 . S
O345 C344 1.249 . S
O346 Zn336 2.067 . S
O346 C344 1.270 . S
C347 O340 1.262 . S
C347 O348 1.232 . S
O348 C347 1.232 . S
C349 O341 1.260 . S
C349 O342 1.257 . S
Zn350 O353 2.031 . S
Zn350 O355 2.049 . S
Zn350 O360 2.067 . S
Zn351 O352 1.962 . S
Zn351 O354 1.986 . S
Zn351 O356 1.996 . S
Zn351 O359 1.943 . S
O352 Zn351 1.962 . S
O352 C357 1.254 . S
O353 Zn350 2.031 . S
O353 C357 1.269 . S
O354 Zn351 1.986 . S
O354 C361 1.262 . S
O355 Zn350 2.049 . S
O355 C363 1.260 . S
O356 Zn351 1.996 . S
O356 C363 1.257 . S
C357 O352 1.254 . S
C357 O353 1.269 . S
C358 O359 1.249 . S
C358 O360 1.270 . S
O359 Zn351 1.943 . S
O359 C358 1.249 . S
O360 Zn350 2.067 . S
O360 C358 1.270 . S
C361 O354 1.262 . S
C361 O362 1.232 . S
O362 C361 1.232 . S
C363 O355 1.260 . S
C363 O356 1.257 . S
Zn364 O367 2.031 . S
Zn364 O369 2.049 . S
Zn364 O374 2.067 . S
Zn365 O366 1.962 . S
Zn365 O368 1.986 . S
Zn365 O370 1.996 . S
Zn365 O373 1.943 . S
O366 Zn365 1.962 . S
O366 C371 1.254 . S
O367 Zn364 2.031 . S
O367 C371 1.269 . S
O368 Zn365 1.986 . S
O368 C375 1.262 . S
O369 Zn364 2.049 . S
O369 C377 1.260 . S
O370 Zn365 1.996 . S
O370 C377 1.257 . S
C371 O366 1.254 . S
C371 O367 1.269 . S
C372 O373 1.249 . S
C372 O374 1.270 . S
O373 Zn365 1.943 . S
O373 C372 1.249 . S
O374 Zn364 2.067 . S
O374 C372 1.270 . S
C375 O368 1.262 . S
C375 O376 1.232 . S
O376 C375 1.232 . S
C377 O369 1.260 . S
C377 O370 1.257 . S
Zn378 O381 2.031 . S
Zn378 O383 2.049 . S
Zn378 O388 2.067 1_455 S
Zn379 O380 1.962 . S
Zn379 O382 1.986 . S
Zn379 O384 1.996 . S
Zn379 O387 1.943 . S
O380 Zn379 1.962 . S
O380 C385 1.254 . S
O381 Zn378 2.031 . S
O381 C385 1.269 . S
O382 Zn379 1.986 . S
O382 C389 1.262 . S
O383 Zn378 2.049 . S
O383 C391 1.260 . S
O384 Zn379 1.996 . S
O384 C391 1.257 . S
C385 O380 1.254 . S
C385 O381 1.269 . S
C386 O387 1.249 . S
C386 O388 1.270 1_455 S
O387 Zn379 1.943 . S
O387 C386 1.249 . S
O388 Zn378 2.067 1_655 S
O388 C386 1.270 1_655 S
C389 O382 1.262 . S
C389 O390 1.232 . S
O390 C389 1.232 . S
C391 O383 1.260 . S
C391 O384 1.257 . S
Zn392 O395 2.031 . S
Zn392 O397 2.049 . S
Zn392 O402 2.067 . S
Zn393 O394 1.962 . S
Zn393 O396 1.986 . S
Zn393 O398 1.996 . S
Zn393 O401 1.943 . S
O394 Zn393 1.962 . S
O394 C399 1.254 . S
O395 Zn392 2.031 . S
O395 C399 1.269 . S
O396 Zn393 1.986 . S
O396 C403 1.262 . S
O397 Zn392 2.049 . S
O397 C405 1.260 . S
O398 Zn393 1.996 . S
O398 C405 1.257 . S
C399 O394 1.254 . S
C399 O395 1.269 . S
C400 O401 1.249 . S
C400 O402 1.270 . S
O401 Zn393 1.943 . S
O401 C400 1.249 . S
O402 Zn392 2.067 . S
O402 C400 1.270 . S
C403 O396 1.262 . S
C403 O404 1.232 . S
O404 C403 1.232 . S
C405 O397 1.260 . S
C405 O398 1.257 . S
Zn406 O409 2.031 . S
Zn406 O411 2.049 . S
Zn406 O416 2.067 1_455 S
Zn407 O408 1.962 . S
Zn407 O410 1.986 . S
Zn407 O412 1.996 . S
Zn407 O415 1.943 . S
O408 Zn407 1.962 . S
O408 C413 1.254 . S
O409 Zn406 2.031 . S
O409 C413 1.269 . S
O410 Zn407 1.986 . S
O410 C417 1.262 . S
O411 Zn406 2.049 . S
O411 C419 1.260 . S
O412 Zn407 1.996 . S
O412 C419 1.257 . S
C413 O408 1.254 . S
C413 O409 1.269 . S
C414 O415 1.249 . S
C414 O416 1.270 1_455 S
O415 Zn407 1.943 . S
O415 C414 1.249 . S
O416 Zn406 2.067 1_655 S
O416 C414 1.270 1_655 S
C417 O410 1.262 . S
C417 O418 1.232 . S
O418 C417 1.232 . S
C419 O411 1.260 . S
C419 O412 1.257 . S
Zn420 O423 2.031 . S
Zn420 O425 2.049 . S
Zn420 O430 2.067 . S
Zn421 O422 1.962 . S
Zn421 O424 1.986 . S
Zn421 O426 1.996 . S
Zn421 O429 1.943 . S
O422 Zn421 1.962 . S
O422 C427 1.254 . S
O423 Zn420 2.031 . S
O423 C427 1.269 . S
O424 Zn421 1.986 . S
O424 C431 1.262 . S
O425 Zn420 2.049 . S
O425 C433 1.260 . S
O426 Zn421 1.996 . S
O426 C433 1.257 . S
C427 O422 1.254 . S
C427 O423 1.269 . S
C428 O429 1.249 . S
C428 O430 1.270 . S
O429 Zn421 1.943 . S
O429 C428 1.249 . S
O430 Zn420 2.067 . S
O430 C428 1.270 . S
C431 O424 1.262 . S
C431 O432 1.232 . S
O432 C431 1.232 . S
C433 O425 1.260 . S
C433 O426 1.257 . S
Zn434 O437 2.031 . S
Zn434 O439 2.049 . S
Zn434 O444 2.067 . S
Zn435 O436 1.962 . S
Zn435 O438 1.986 . S
Zn435 O440 1.996 . S
Zn435 O443 1.943 . S
O436 Zn435 1.962 . S
O436 C441 1.254 . S
O437 Zn434 2.031 . S
O437 C441 1.269 . S
O438 Zn435 1.986 . S
O438 C445 1.262 . S
O439 Zn434 2.049 . S
O439 C447 1.260 . S
O440 Zn435 1.996 . S
O440 C447 1.257 . S
C441 O436 1.254 . S
C441 O437 1.269 . S
C442 O443 1.249 . S
C442 O444 1.270 . S
O443 Zn435 1.943 . S
O443 C442 1.249 . S
O444 Zn434 2.067 . S
O444 C442 1.270 . S
C445 O438 1.262 . S
C445 O446 1.232 . S
O446 C445 1.232 . S
C447 O439 1.260 . S
C447 O440 1.257 . S
H448 C454 0.930 . S
H449 C458 0.930 . S
H450 C463 0.929 . S
H451 C461 0.929 . S
H452 C456 0.929 . S
H453 C462 0.929 . S
C454 H448 0.930 . S
C454 C455 1.367 . S
C454 C462 1.378 . S
C455 C454 1.367 . S
C455 C463 1.433 . S
C456 H452 0.929 . S
C456 C458 1.378 . S
C456 C460 1.350 . S
C457 C460 1.463 . S
C457 C462 1.350 . S
C457 N465 1.427 . S
C458 H449 0.930 . S
C458 C456 1.378 . S
C458 C459 1.367 . S
C459 C458 1.367 . S
C459 C461 1.433 . S
C460 C456 1.350 . S
C460 C457 1.463 . S
C460 N464 1.427 . S
C461 H451 0.929 . S
C461 C459 1.433 . S
C461 N464 1.384 . S
C462 H453 0.929 . S
C462 C454 1.378 . S
C462 C457 1.350 . S
C463 H450 0.929 . S
C463 C455 1.433 . S
C463 N465 1.384 . S
N464 C460 1.427 . S
N464 C461 1.384 . S
N465 C457 1.427 . S
N465 C463 1.384 . S
H466 C472 0.930 . S
H467 C476 0.930 . S
H468 C481 0.929 . S
H469 C479 0.929 . S
H470 C474 0.929 . S
H471 C480 0.929 . S
C472 H466 0.930 . S
C472 C473 1.367 . S
C472 C480 1.378 . S
C473 C472 1.367 . S
C473 C481 1.433 . S
C474 H470 0.929 . S
C474 C476 1.378 . S
C474 C478 1.350 . S
C475 C478 1.463 . S
C475 C480 1.350 . S
C475 N483 1.427 . S
C476 H467 0.930 . S
C476 C474 1.378 . S
C476 C477 1.367 . S
C477 C476 1.367 . S
C477 C479 1.433 . S
C478 C474 1.350 . S
C478 C475 1.463 . S
C478 N482 1.427 . S
C479 H469 0.929 . S
C479 C477 1.433 . S
C479 N482 1.384 . S
C480 H471 0.929 . S
C480 C472 1.378 . S
C480 C475 1.350 . S
C481 H468 0.929 . S
C481 C473 1.433 . S
C481 N483 1.384 . S
N482 C478 1.427 . S
N482 C479 1.384 . S
N483 C475 1.427 . S
N483 C481 1.384 . S
H484 C490 0.930 . S
H485 C494 0.930 . S
H486 C499 0.929 . S
H487 C497 0.929 . S
H488 C492 0.929 . S
H489 C498 0.929 . S
C490 H484 0.930 . S
C490 C491 1.367 . S
C490 C498 1.378 . S
C491 C490 1.367 . S
C491 C499 1.433 . S
C492 H488 0.929 . S
C492 C494 1.378 . S
C492 C496 1.350 . S
C493 C496 1.463 . S
C493 C498 1.350 . S
C493 N501 1.427 . S
C494 H485 0.930 . S
C494 C492 1.378 . S
C494 C495 1.367 . S
C495 C494 1.367 . S
C495 C497 1.433 . S
C496 C492 1.350 . S
C496 C493 1.463 . S
C496 N500 1.427 . S
C497 H487 0.929 . S
C497 C495 1.433 . S
C497 N500 1.384 . S
C498 H489 0.929 . S
C498 C490 1.378 . S
C498 C493 1.350 . S
C499 H486 0.929 . S
C499 C491 1.433 . S
C499 N501 1.384 . S
N500 C496 1.427 . S
N500 C497 1.384 . S
N501 C493 1.427 . S
N501 C499 1.384 . S
H502 C508 0.930 . S
H503 C512 0.930 . S
H504 C517 0.929 . S
H505 C515 0.929 . S
H506 C510 0.929 . S
H507 C516 0.929 . S
C508 H502 0.930 . S
C508 C509 1.367 . S
C508 C516 1.378 . S
C509 C508 1.367 . S
C509 C517 1.433 . S
C510 H506 0.929 . S
C510 C512 1.378 . S
C510 C514 1.350 . S
C511 C514 1.463 . S
C511 C516 1.350 . S
C511 N519 1.427 . S
C512 H503 0.930 . S
C512 C510 1.378 . S
C512 C513 1.367 . S
C513 C512 1.367 . S
C513 C515 1.433 . S
C514 C510 1.350 . S
C514 C511 1.463 . S
C514 N518 1.427 . S
C515 H505 0.929 . S
C515 C513 1.433 . S
C515 N518 1.384 . S
C516 H507 0.929 . S
C516 C508 1.378 . S
C516 C511 1.350 . S
C517 H504 0.929 . S
C517 C509 1.433 . S
C517 N519 1.384 . S
N518 C514 1.427 . S
N518 C515 1.384 . S
N519 C511 1.427 . S
N519 C517 1.384 . S
H520 C526 0.930 . S
H521 C530 0.930 . S
H522 C535 0.929 . S
H523 C533 0.929 . S
H524 C528 0.929 . S
H525 C534 0.929 . S
C526 H520 0.930 . S
C526 C527 1.367 . S
C526 C534 1.378 . S
C527 C526 1.367 . S
C527 C535 1.433 . S
C528 H524 0.929 . S
C528 C530 1.378 . S
C528 C532 1.350 . S
C529 C532 1.463 . S
C529 C534 1.350 . S
C529 N537 1.427 . S
C530 H521 0.930 . S
C530 C528 1.378 . S
C530 C531 1.367 . S
C531 C530 1.367 . S
C531 C533 1.433 . S
C532 C528 1.350 . S
C532 C529 1.463 . S
C532 N536 1.427 . S
C533 H523 0.929 . S
C533 C531 1.433 . S
C533 N536 1.384 . S
C534 H525 0.929 . S
C534 C526 1.378 . S
C534 C529 1.350 . S
C535 H522 0.929 . S
C535 C527 1.433 . S
C535 N537 1.384 . S
N536 C532 1.427 . S
N536 C533 1.384 . S
N537 C529 1.427 . S
N537 C535 1.384 . S
H538 C544 0.930 . S
H539 C548 0.930 . S
H540 C553 0.929 . S
H541 C551 0.929 . S
H542 C546 0.929 . S
H543 C552 0.929 . S
C544 H538 0.930 . S
C544 C545 1.367 . S
C544 C552 1.378 . S
C545 C544 1.367 . S
C545 C553 1.433 . S
C546 H542 0.929 . S
C546 C548 1.378 . S
C546 C550 1.350 . S
C547 C550 1.463 . S
C547 C552 1.350 . S
C547 N555 1.427 . S
C548 H539 0.930 . S
C548 C546 1.378 . S
C548 C549 1.367 . S
C549 C548 1.367 . S
C549 C551 1.433 . S
C550 C546 1.350 . S
C550 C547 1.463 . S
C550 N554 1.427 . S
C551 H541 0.929 . S
C551 C549 1.433 . S
C551 N554 1.384 . S
C552 H543 0.929 . S
C552 C544 1.378 . S
C552 C547 1.350 . S
C553 H540 0.929 . S
C553 C545 1.433 . S
C553 N555 1.384 . S
N554 C550 1.427 . S
N554 C551 1.384 . S
N555 C547 1.427 . S
N555 C553 1.384 . S
H556 C562 0.930 . S
H557 C566 0.930 . S
H558 C571 0.929 . S
H559 C569 0.929 . S
H560 C564 0.929 . S
H561 C570 0.929 . S
C562 H556 0.930 . S
C562 C563 1.367 . S
C562 C570 1.378 . S
C563 C562 1.367 . S
C563 C571 1.433 . S
C564 H560 0.929 . S
C564 C566 1.378 . S
C564 C568 1.350 . S
C565 C568 1.463 . S
C565 C570 1.350 . S
C565 N573 1.427 . S
C566 H557 0.930 . S
C566 C564 1.378 . S
C566 C567 1.367 . S
C567 C566 1.367 . S
C567 C569 1.433 . S
C568 C564 1.350 . S
C568 C565 1.463 . S
C568 N572 1.427 . S
C569 H559 0.929 . S
C569 C567 1.433 . S
C569 N572 1.384 . S
C570 H561 0.929 . S
C570 C562 1.378 . S
C570 C565 1.350 . S
C571 H558 0.929 . S
C571 C563 1.433 . S
C571 N573 1.384 . S
N572 C568 1.427 . S
N572 C569 1.384 . S
N573 C565 1.427 . S
N573 C571 1.384 . S
H574 C580 0.930 . S
H575 C584 0.930 . S
H576 C589 0.929 1_455 S
H577 C587 0.929 . S
H578 C582 0.929 . S
H579 C588 0.929 . S
C580 H574 0.930 . S
C580 C581 1.367 . S
C580 C588 1.378 . S
C581 C580 1.367 . S
C581 C589 1.433 . S
C582 H578 0.929 . S
C582 C584 1.378 . S
C582 C586 1.350 . S
C583 C586 1.463 . S
C583 C588 1.350 . S
C583 N591 1.427 . S
C584 H575 0.930 . S
C584 C582 1.378 . S
C584 C585 1.367 . S
C585 C584 1.367 . S
C585 C587 1.433 . S
C586 C582 1.350 . S
C586 C583 1.463 . S
C586 N590 1.427 . S
C587 H577 0.929 . S
C587 C585 1.433 . S
C587 N590 1.384 . S
C588 H579 0.929 . S
C588 C580 1.378 . S
C588 C583 1.350 . S
C589 H576 0.929 1_655 S
C589 C581 1.433 . S
C589 N591 1.384 . S
N590 C586 1.427 . S
N590 C587 1.384 . S
N591 C583 1.427 . S
N591 C589 1.384 . S
H592 C598 0.930 . S
H593 C602 0.930 . S
H594 C607 0.929 . S
H595 C605 0.929 . S
H596 C600 0.929 . S
H597 C606 0.929 . S
C598 H592 0.930 . S
C598 C599 1.367 . S
C598 C606 1.378 . S
C599 C598 1.367 . S
C599 C607 1.433 . S
C600 H596 0.929 . S
C600 C602 1.378 . S
C600 C604 1.350 . S
C601 C604 1.463 . S
C601 C606 1.350 . S
C601 N609 1.427 . S
C602 H593 0.930 . S
C602 C600 1.378 . S
C602 C603 1.367 . S
C603 C602 1.367 . S
C603 C605 1.433 . S
C604 C600 1.350 . S
C604 C601 1.463 . S
C604 N608 1.427 . S
C605 H595 0.929 . S
C605 C603 1.433 . S
C605 N608 1.384 . S
C606 H597 0.929 . S
C606 C598 1.378 . S
C606 C601 1.350 . S
C607 H594 0.929 . S
C607 C599 1.433 . S
C607 N609 1.384 . S
N608 C604 1.427 . S
N608 C605 1.384 . S
N609 C601 1.427 . S
N609 C607 1.384 . S
H610 C616 0.930 . S
H611 C620 0.930 1_655 S
H612 C625 0.929 . S
H613 C623 0.929 . S
H614 C618 0.929 . S
H615 C624 0.929 . S
C616 H610 0.930 . S
C616 C617 1.367 . S
C616 C624 1.378 . S
C617 C616 1.367 . S
C617 C625 1.433 . S
C618 H614 0.929 . S
C618 C620 1.378 . S
C618 C622 1.350 . S
C619 C622 1.463 . S
C619 C624 1.350 . S
C619 N627 1.427 . S
C620 H611 0.930 1_455 S
C620 C618 1.378 . S
C620 C621 1.367 . S
C621 C620 1.367 . S
C621 C623 1.433 . S
C622 C618 1.350 . S
C622 C619 1.463 . S
C622 N626 1.427 . S
C623 H613 0.929 . S
C623 C621 1.433 . S
C623 N626 1.384 . S
C624 H615 0.929 . S
C624 C616 1.378 . S
C624 C619 1.350 . S
C625 H612 0.929 . S
C625 C617 1.433 . S
C625 N627 1.384 . S
N626 C622 1.427 . S
N626 C623 1.384 . S
N627 C619 1.427 . S
N627 C625 1.384 . S
H628 C634 0.930 . S
H629 C638 0.930 . S
H630 C643 0.929 . S
H631 C641 0.929 . S
H632 C636 0.929 . S
H633 C642 0.929 . S
C634 H628 0.930 . S
C634 C635 1.367 . S
C634 C642 1.378 . S
C635 C634 1.367 . S
C635 C643 1.433 . S
C636 H632 0.929 . S
C636 C638 1.378 . S
C636 C640 1.350 . S
C637 C640 1.463 . S
C637 C642 1.350 . S
C637 N645 1.427 . S
C638 H629 0.930 . S
C638 C636 1.378 . S
C638 C639 1.367 . S
C639 C638 1.367 . S
C639 C641 1.433 . S
C640 C636 1.350 . S
C640 C637 1.463 . S
C640 N644 1.427 . S
C641 H631 0.929 . S
C641 C639 1.433 . S
C641 N644 1.384 . S
C642 H633 0.929 . S
C642 C634 1.378 . S
C642 C637 1.350 . S
C643 H630 0.929 . S
C643 C635 1.433 . S
C643 N645 1.384 . S
N644 C640 1.427 . S
N644 C641 1.384 . S
N645 C637 1.427 . S
N645 C643 1.384 . S
H646 C652 0.930 . S
H647 C656 0.930 . S
H648 C661 0.929 . S
H649 C659 0.929 . S
H650 C654 0.929 . S
H651 C660 0.929 . S
C652 H646 0.930 . S
C652 C653 1.367 . S
C652 C660 1.378 . S
C653 C652 1.367 . S
C653 C661 1.433 . S
C654 H650 0.929 . S
C654 C656 1.378 . S
C654 C658 1.350 . S
C655 C658 1.463 . S
C655 C660 1.350 . S
C655 N663 1.427 . S
C656 H647 0.930 . S
C656 C654 1.378 . S
C656 C657 1.367 . S
C657 C656 1.367 . S
C657 C659 1.433 . S
C658 C654 1.350 . S
C658 C655 1.463 . S
C658 N662 1.427 . S
C659 H649 0.929 . S
C659 C657 1.433 . S
C659 N662 1.384 . S
C660 H651 0.929 . S
C660 C652 1.378 . S
C660 C655 1.350 . S
C661 H648 0.929 . S
C661 C653 1.433 . S
C661 N663 1.384 . S
N662 C658 1.427 . S
N662 C659 1.384 . S
N663 C655 1.427 . S
N663 C661 1.384 . S
H664 C670 0.930 . S
H665 C674 0.930 . S
H666 C679 0.929 . S
H667 C677 0.929 . S
H668 C672 0.929 . S
H669 C678 0.929 . S
C670 H664 0.930 . S
C670 C671 1.367 . S
C670 C678 1.378 . S
C671 C670 1.367 . S
C671 C679 1.433 . S
C672 H668 0.929 . S
C672 C674 1.378 . S
C672 C676 1.350 . S
C673 C676 1.463 . S
C673 C678 1.350 . S
C673 N681 1.427 . S
C674 H665 0.930 . S
C674 C672 1.378 . S
C674 C675 1.367 . S
C675 C674 1.367 . S
C675 C677 1.433 . S
C676 C672 1.350 . S
C676 C673 1.463 . S
C676 N680 1.427 . S
C677 H667 0.929 . S
C677 C675 1.433 . S
C677 N680 1.384 . S
C678 H669 0.929 . S
C678 C670 1.378 . S
C678 C673 1.350 . S
C679 H666 0.929 . S
C679 C671 1.433 . S
C679 N681 1.384 . S
N680 C676 1.427 . S
N680 C677 1.384 . S
N681 C673 1.427 . S
N681 C679 1.384 . S
H682 C688 0.930 . S
H683 C692 0.930 . S
H684 C697 0.929 . S
H685 C695 0.929 . S
H686 C690 0.929 . S
H687 C696 0.929 . S
C688 H682 0.930 . S
C688 C689 1.367 . S
C688 C696 1.378 . S
C689 C688 1.367 . S
C689 C697 1.433 . S
C690 H686 0.929 . S
C690 C692 1.378 . S
C690 C694 1.350 . S
C691 C694 1.463 . S
C691 C696 1.350 . S
C691 N699 1.427 . S
C692 H683 0.930 . S
C692 C690 1.378 . S
C692 C693 1.367 . S
C693 C692 1.367 . S
C693 C695 1.433 . S
C694 C690 1.350 . S
C694 C691 1.463 . S
C694 N698 1.427 . S
C695 H685 0.929 . S
C695 C693 1.433 . S
C695 N698 1.384 . S
C696 H687 0.929 . S
C696 C688 1.378 . S
C696 C691 1.350 . S
C697 H684 0.929 . S
C697 C689 1.433 . S
C697 N699 1.384 . S
N698 C694 1.427 . S
N698 C695 1.384 . S
N699 C691 1.427 . S
N699 C697 1.384 . S
H700 C706 0.930 . S
H701 C710 0.930 . S
H702 C715 0.929 . S
H703 C713 0.929 . S
H704 C708 0.929 . S
H705 C714 0.929 . S
C706 H700 0.930 . S
C706 C707 1.367 . S
C706 C714 1.378 . S
C707 C706 1.367 . S
C707 C715 1.433 . S
C708 H704 0.929 . S
C708 C710 1.378 . S
C708 C712 1.350 . S
C709 C712 1.463 . S
C709 C714 1.350 . S
C709 N717 1.427 . S
C710 H701 0.930 . S
C710 C708 1.378 . S
C710 C711 1.367 . S
C711 C710 1.367 . S
C711 C713 1.433 . S
C712 C708 1.350 . S
C712 C709 1.463 . S
C712 N716 1.427 . S
C713 H703 0.929 . S
C713 C711 1.433 . S
C713 N716 1.384 . S
C714 H705 0.929 . S
C714 C706 1.378 . S
C714 C709 1.350 . S
C715 H702 0.929 . S
C715 C707 1.433 . S
C715 N717 1.384 . S
N716 C712 1.427 . S
N716 C713 1.384 . S
N717 C709 1.427 . S
N717 C715 1.384 . S
H718 C724 0.930 . S
H719 C728 0.930 . S
H720 C733 0.929 . S
H721 C731 0.929 . S
H722 C726 0.929 . S
H723 C732 0.929 . S
C724 H718 0.930 . S
C724 C725 1.367 . S
C724 C732 1.378 . S
C725 C724 1.367 . S
C725 C733 1.433 . S
C726 H722 0.929 . S
C726 C728 1.378 . S
C726 C730 1.350 . S
C727 C730 1.463 . S
C727 C732 1.350 . S
C727 N735 1.427 . S
C728 H719 0.930 . S
C728 C726 1.378 . S
C728 C729 1.367 . S
C729 C728 1.367 . S
C729 C731 1.433 . S
C730 C726 1.350 . S
C730 C727 1.463 . S
C730 N734 1.427 . S
C731 H721 0.929 . S
C731 C729 1.433 . S
C731 N734 1.384 . S
C732 H723 0.929 . S
C732 C724 1.378 . S
C732 C727 1.350 . S
C733 H720 0.929 . S
C733 C725 1.433 . S
C733 N735 1.384 . S
N734 C730 1.427 . S
N734 C731 1.384 . S
N735 C727 1.427 . S
N735 C733 1.384 . S
H736 C742 0.930 . S
H737 C746 0.930 . S
H738 C751 0.929 . S
H739 C749 0.929 . S
H740 C744 0.929 . S
H741 C750 0.929 . S
C742 H736 0.930 . S
C742 C743 1.367 . S
C742 C750 1.378 . S
C743 C742 1.367 . S
C743 C751 1.433 . S
C744 H740 0.929 . S
C744 C746 1.378 . S
C744 C748 1.350 . S
C745 C748 1.463 . S
C745 C750 1.350 . S
C745 N753 1.427 . S
C746 H737 0.930 . S
C746 C744 1.378 . S
C746 C747 1.367 . S
C747 C746 1.367 . S
C747 C749 1.433 . S
C748 C744 1.350 . S
C748 C745 1.463 . S
C748 N752 1.427 . S
C749 H739 0.929 . S
C749 C747 1.433 . S
C749 N752 1.384 . S
C750 H741 0.929 . S
C750 C742 1.378 . S
C750 C745 1.350 . S
C751 H738 0.929 . S
C751 C743 1.433 . S
C751 N753 1.384 . S
N752 C748 1.427 . S
N752 C749 1.384 . S
N753 C745 1.427 . S
N753 C751 1.384 . S
H754 C760 0.930 . S
H755 C764 0.930 . S
H756 C769 0.929 . S
H757 C767 0.929 . S
H758 C762 0.929 . S
H759 C768 0.929 . S
C760 H754 0.930 . S
C760 C761 1.367 . S
C760 C768 1.378 . S
C761 C760 1.367 . S
C761 C769 1.433 . S
C762 H758 0.929 . S
C762 C764 1.378 . S
C762 C766 1.350 . S
C763 C766 1.463 . S
C763 C768 1.350 . S
C763 N771 1.427 . S
C764 H755 0.930 . S
C764 C762 1.378 . S
C764 C765 1.367 . S
C765 C764 1.367 . S
C765 C767 1.433 . S
C766 C762 1.350 . S
C766 C763 1.463 . S
C766 N770 1.427 . S
C767 H757 0.929 . S
C767 C765 1.433 . S
C767 N770 1.384 . S
C768 H759 0.929 . S
C768 C760 1.378 . S
C768 C763 1.350 . S
C769 H756 0.929 . S
C769 C761 1.433 . S
C769 N771 1.384 . S
N770 C766 1.427 . S
N770 C767 1.384 . S
N771 C763 1.427 . S
N771 C769 1.384 . S
H772 C778 0.930 . S
H773 C782 0.930 . S
H774 C787 0.929 . S
H775 C785 0.929 . S
H776 C780 0.929 . S
H777 C786 0.929 . S
C778 H772 0.930 . S
C778 C779 1.367 . S
C778 C786 1.378 . S
C779 C778 1.367 . S
C779 C787 1.433 . S
C780 H776 0.929 . S
C780 C782 1.378 . S
C780 C784 1.350 . S
C781 C784 1.463 . S
C781 C786 1.350 . S
C781 N789 1.427 . S
C782 H773 0.930 . S
C782 C780 1.378 . S
C782 C783 1.367 . S
C783 C782 1.367 . S
C783 C785 1.433 . S
C784 C780 1.350 . S
C784 C781 1.463 . S
C784 N788 1.427 . S
C785 H775 0.929 . S
C785 C783 1.433 . S
C785 N788 1.384 . S
C786 H777 0.929 . S
C786 C778 1.378 . S
C786 C781 1.350 . S
C787 H774 0.929 . S
C787 C779 1.433 . S
C787 N789 1.384 . S
N788 C784 1.427 . S
N788 C785 1.384 . S
N789 C781 1.427 . S
N789 C787 1.384 . S
H790 C796 0.930 . S
H791 C800 0.930 . S
H792 C805 0.929 . S
H793 C803 0.929 . S
H794 C798 0.929 . S
H795 C804 0.929 . S
C796 H790 0.930 . S
C796 C797 1.367 . S
C796 C804 1.378 . S
C797 C796 1.367 . S
C797 C805 1.433 . S
C798 H794 0.929 . S
C798 C800 1.378 . S
C798 C802 1.350 . S
C799 C802 1.463 . S
C799 C804 1.350 . S
C799 N807 1.427 . S
C800 H791 0.930 . S
C800 C798 1.378 . S
C800 C801 1.367 . S
C801 C800 1.367 . S
C801 C803 1.433 . S
C802 C798 1.350 . S
C802 C799 1.463 . S
C802 N806 1.427 . S
C803 H793 0.929 . S
C803 C801 1.433 . S
C803 N806 1.384 . S
C804 H795 0.929 . S
C804 C796 1.378 . S
C804 C799 1.350 . S
C805 H792 0.929 . S
C805 C797 1.433 . S
C805 N807 1.384 . S
N806 C802 1.427 . S
N806 C803 1.384 . S
N807 C799 1.427 . S
N807 C805 1.384 . S
H808 C814 0.930 . S
H809 C818 0.930 . S
H810 C823 0.929 . S
H811 C821 0.929 . S
H812 C816 0.929 . S
H813 C822 0.929 . S
C814 H808 0.930 . S
C814 C815 1.367 . S
C814 C822 1.378 . S
C815 C814 1.367 . S
C815 C823 1.433 . S
C816 H812 0.929 . S
C816 C818 1.378 . S
C816 C820 1.350 . S
C817 C820 1.463 . S
C817 C822 1.350 . S
C817 N825 1.427 . S
C818 H809 0.930 . S
C818 C816 1.378 . S
C818 C819 1.367 . S
C819 C818 1.367 . S
C819 C821 1.433 . S
C820 C816 1.350 . S
C820 C817 1.463 . S
C820 N824 1.427 . S
C821 H811 0.929 . S
C821 C819 1.433 . S
C821 N824 1.384 . S
C822 H813 0.929 . S
C822 C814 1.378 . S
C822 C817 1.350 . S
C823 H810 0.929 . S
C823 C815 1.433 . S
C823 N825 1.384 . S
N824 C820 1.427 . S
N824 C821 1.384 . S
N825 C817 1.427 . S
N825 C823 1.384 . S
H826 C832 0.930 . S
H827 C836 0.930 . S
H828 C841 0.929 . S
H829 C839 0.929 1_655 S
H830 C834 0.929 . S
H831 C840 0.929 . S
C832 H826 0.930 . S
C832 C833 1.367 . S
C832 C840 1.378 . S
C833 C832 1.367 . S
C833 C841 1.433 . S
C834 H830 0.929 . S
C834 C836 1.378 . S
C834 C838 1.350 . S
C835 C838 1.463 . S
C835 C840 1.350 . S
C835 N843 1.427 . S
C836 H827 0.930 . S
C836 C834 1.378 . S
C836 C837 1.367 . S
C837 C836 1.367 . S
C837 C839 1.433 . S
C838 C834 1.350 . S
C838 C835 1.463 . S
C838 N842 1.427 . S
C839 H829 0.929 1_455 S
C839 C837 1.433 . S
C839 N842 1.384 . S
C840 H831 0.929 . S
C840 C832 1.378 . S
C840 C835 1.350 . S
C841 H828 0.929 . S
C841 C833 1.433 . S
C841 N843 1.384 . S
N842 C838 1.427 . S
N842 C839 1.384 . S
N843 C835 1.427 . S
N843 C841 1.384 . S
H844 C850 0.930 . S
H845 C854 0.930 . S
H846 C859 0.929 . S
H847 C857 0.929 . S
H848 C852 0.929 . S
H849 C858 0.929 . S
C850 H844 0.930 . S
C850 C851 1.367 . S
C850 C858 1.378 . S
C851 C850 1.367 . S
C851 C859 1.433 . S
C852 H848 0.929 . S
C852 C854 1.378 . S
C852 C856 1.350 . S
C853 C856 1.463 . S
C853 C858 1.350 . S
C853 N861 1.427 . S
C854 H845 0.930 . S
C854 C852 1.378 . S
C854 C855 1.367 . S
C855 C854 1.367 . S
C855 C857 1.433 . S
C856 C852 1.350 . S
C856 C853 1.463 . S
C856 N860 1.427 . S
C857 H847 0.929 . S
C857 C855 1.433 . S
C857 N860 1.384 . S
C858 H849 0.929 . S
C858 C850 1.378 . S
C858 C853 1.350 . S
C859 H846 0.929 . S
C859 C851 1.433 . S
C859 N861 1.384 . S
N860 C856 1.427 . S
N860 C857 1.384 . S
N861 C853 1.427 . S
N861 C859 1.384 . S
H862 C868 0.930 . S
H863 C872 0.930 . S
H864 C877 0.929 . S
H865 C875 0.929 . S
H866 C870 0.929 . S
H867 C876 0.929 . S
C868 H862 0.930 . S
C868 C869 1.367 . S
C868 C876 1.378 . S
C869 C868 1.367 . S
C869 C877 1.433 . S
C870 H866 0.929 . S
C870 C872 1.378 . S
C870 C874 1.350 . S
C871 C874 1.463 . S
C871 C876 1.350 . S
C871 N879 1.427 . S
C872 H863 0.930 . S
C872 C870 1.378 . S
C872 C873 1.367 . S
C873 C872 1.367 . S
C873 C875 1.433 . S
C874 C870 1.350 . S
C874 C871 1.463 . S
C874 N878 1.427 . S
C875 H865 0.929 . S
C875 C873 1.433 . S
C875 N878 1.384 . S
C876 H867 0.929 . S
C876 C868 1.378 . S
C876 C871 1.350 . S
C877 H864 0.929 . S
C877 C869 1.433 . S
C877 N879 1.384 . S
N878 C874 1.427 . S
N878 C875 1.384 . S
N879 C871 1.427 . S
N879 C877 1.384 . S
H880 C886 0.930 . S
H881 C890 0.930 . S
H882 C895 0.929 . S
H883 C893 0.929 . S
H884 C888 0.929 . S
H885 C894 0.929 . S
C886 H880 0.930 . S
C886 C887 1.367 . S
C886 C894 1.378 . S
C887 C886 1.367 . S
C887 C895 1.433 . S
C888 H884 0.929 . S
C888 C890 1.378 . S
C888 C892 1.350 . S
C889 C892 1.463 . S
C889 C894 1.350 . S
C889 N897 1.427 . S
C890 H881 0.930 . S
C890 C888 1.378 . S
C890 C891 1.367 . S
C891 C890 1.367 . S
C891 C893 1.433 . S
C892 C888 1.350 . S
C892 C889 1.463 . S
C892 N896 1.427 . S
C893 H883 0.929 . S
C893 C891 1.433 . S
C893 N896 1.384 . S
C894 H885 0.929 . S
C894 C886 1.378 . S
C894 C889 1.350 . S
C895 H882 0.929 . S
C895 C887 1.433 . S
C895 N897 1.384 . S
N896 C892 1.427 . S
N896 C893 1.384 . S
N897 C889 1.427 . S
N897 C895 1.384 . S
H898 C904 0.930 . S
H899 C908 0.930 . S
H900 C913 0.929 . S
H901 C911 0.929 . S
H902 C906 0.929 . S
H903 C912 0.929 . S
C904 H898 0.930 . S
C904 C905 1.367 . S
C904 C912 1.378 . S
C905 C904 1.367 . S
C905 C913 1.433 . S
C906 H902 0.929 . S
C906 C908 1.378 . S
C906 C910 1.350 . S
C907 C910 1.463 . S
C907 C912 1.350 . S
C907 N915 1.427 . S
C908 H899 0.930 . S
C908 C906 1.378 . S
C908 C909 1.367 . S
C909 C908 1.367 . S
C909 C911 1.433 . S
C910 C906 1.350 . S
C910 C907 1.463 . S
C910 N914 1.427 . S
C911 H901 0.929 . S
C911 C909 1.433 . S
C911 N914 1.384 . S
C912 H903 0.929 . S
C912 C904 1.378 . S
C912 C907 1.350 . S
C913 H900 0.929 . S
C913 C905 1.433 . S
C913 N915 1.384 . S
N914 C910 1.427 . S
N914 C911 1.384 . S
N915 C907 1.427 . S
N915 C913 1.384 . S
H916 C922 0.930 . S
H917 C926 0.930 . S
H918 C931 0.929 . S
H919 C929 0.929 . S
H920 C924 0.929 . S
H921 C930 0.929 . S
C922 H916 0.930 . S
C922 C923 1.367 . S
C922 C930 1.378 . S
C923 C922 1.367 . S
C923 C931 1.433 . S
C924 H920 0.929 . S
C924 C926 1.378 . S
C924 C928 1.350 . S
C925 C928 1.463 . S
C925 C930 1.350 . S
C925 N933 1.427 . S
C926 H917 0.930 . S
C926 C924 1.378 . S
C926 C927 1.367 . S
C927 C926 1.367 . S
C927 C929 1.433 . S
C928 C924 1.350 . S
C928 C925 1.463 . S
C928 N932 1.427 . S
C929 H919 0.929 . S
C929 C927 1.433 . S
C929 N932 1.384 . S
C930 H921 0.929 . S
C930 C922 1.378 . S
C930 C925 1.350 . S
C931 H918 0.929 . S
C931 C923 1.433 . S
C931 N933 1.384 . S
N932 C928 1.427 . S
N932 C929 1.384 . S
N933 C925 1.427 . S
N933 C931 1.384 . S
H934 C940 0.930 1_455 S
H935 C944 0.930 . S
H936 C949 0.929 . S
H937 C947 0.929 . S
H938 C942 0.929 . S
H939 C948 0.929 . S
C940 H934 0.930 1_655 S
C940 C941 1.367 . S
C940 C948 1.378 . S
C941 C940 1.367 . S
C941 C949 1.433 . S
C942 H938 0.929 . S
C942 C944 1.378 . S
C942 C946 1.350 . S
C943 C946 1.463 . S
C943 C948 1.350 . S
C943 N951 1.427 . S
C944 H935 0.930 . S
C944 C942 1.378 . S
C944 C945 1.367 . S
C945 C944 1.367 . S
C945 C947 1.433 . S
C946 C942 1.350 . S
C946 C943 1.463 . S
C946 N950 1.427 . S
C947 H937 0.929 . S
C947 C945 1.433 . S
C947 N950 1.384 . S
C948 H939 0.929 . S
C948 C940 1.378 . S
C948 C943 1.350 . S
C949 H936 0.929 . S
C949 C941 1.433 . S
C949 N951 1.384 . S
N950 C946 1.427 . S
N950 C947 1.384 . S
N951 C943 1.427 . S
N951 C949 1.384 . S
H952 C958 0.930 . S
H953 C962 0.930 . S
H954 C967 0.929 . S
H955 C965 0.929 . S
H956 C960 0.929 . S
H957 C966 0.929 . S
C958 H952 0.930 . S
C958 C959 1.367 . S
C958 C966 1.378 . S
C959 C958 1.367 . S
C959 C967 1.433 . S
C960 H956 0.929 . S
C960 C962 1.378 . S
C960 C964 1.350 . S
C961 C964 1.463 . S
C961 C966 1.350 . S
C961 N969 1.427 . S
C962 H953 0.930 . S
C962 C960 1.378 . S
C962 C963 1.367 . S
C963 C962 1.367 . S
C963 C965 1.433 . S
C964 C960 1.350 . S
C964 C961 1.463 . S
C964 N968 1.427 . S
C965 H955 0.929 . S
C965 C963 1.433 . S
C965 N968 1.384 . S
C966 H957 0.929 . S
C966 C958 1.378 . S
C966 C961 1.350 . S
C967 H954 0.929 . S
C967 C959 1.433 . S
C967 N969 1.384 . S
N968 C964 1.427 . S
N968 C965 1.384 . S
N969 C961 1.427 . S
N969 C967 1.384 . S
H970 C976 0.930 . S
H971 C980 0.930 . S
H972 C985 0.929 1_455 S
H973 C983 0.929 . S
H974 C978 0.929 . S
H975 C984 0.929 . S
C976 H970 0.930 . S
C976 C977 1.367 . S
C976 C984 1.378 . S
C977 C976 1.367 . S
C977 C985 1.433 . S
C978 H974 0.929 . S
C978 C980 1.378 . S
C978 C982 1.350 . S
C979 C982 1.463 . S
C979 C984 1.350 . S
C979 N987 1.427 . S
C980 H971 0.930 . S
C980 C978 1.378 . S
C980 C981 1.367 . S
C981 C980 1.367 . S
C981 C983 1.433 . S
C982 C978 1.350 . S
C982 C979 1.463 . S
C982 N986 1.427 . S
C983 H973 0.929 . S
C983 C981 1.433 . S
C983 N986 1.384 . S
C984 H975 0.929 . S
C984 C976 1.378 . S
C984 C979 1.350 . S
C985 H972 0.929 1_655 S
C985 C977 1.433 . S
C985 N987 1.384 . S
N986 C982 1.427 . S
N986 C983 1.384 . S
N987 C979 1.427 . S
N987 C985 1.384 . S
H988 C994 0.930 . S
H989 C998 0.930 . S
H990 C1003 0.929 . S
H991 C1001 0.929 . S
H992 C996 0.929 . S
H993 C1002 0.929 . S
C994 H988 0.930 . S
C994 C995 1.367 . S
C994 C1002 1.378 . S
C995 C994 1.367 . S
C995 C1003 1.433 . S
C996 H992 0.929 . S
C996 C998 1.378 . S
C996 C1000 1.350 . S
C997 C1000 1.463 . S
C997 C1002 1.350 . S
C997 N1005 1.427 . S
C998 H989 0.930 . S
C998 C996 1.378 . S
C998 C999 1.367 . S
C999 C998 1.367 . S
C999 C1001 1.433 . S
C1000 C996 1.350 . S
C1000 C997 1.463 . S
C1000 N1004 1.427 . S
C1001 H991 0.929 . S
C1001 C999 1.433 . S
C1001 N1004 1.384 . S
C1002 H993 0.929 . S
C1002 C994 1.378 . S
C1002 C997 1.350 . S
C1003 H990 0.929 . S
C1003 C995 1.433 . S
C1003 N1005 1.384 . S
N1004 C1000 1.427 . S
N1004 C1001 1.384 . S
N1005 C997 1.427 . S
N1005 C1003 1.384 . S
H1006 C1012 0.930 . S
H1007 C1016 0.930 . S
H1008 C1021 0.929 . S
H1009 C1019 0.929 . S
H1010 C1014 0.929 . S
H1011 C1020 0.929 . S
C1012 H1006 0.930 . S
C1012 C1013 1.367 . S
C1012 C1020 1.378 . S
C1013 C1012 1.367 . S
C1013 C1021 1.433 . S
C1014 H1010 0.929 . S
C1014 C1016 1.378 . S
C1014 C1018 1.350 . S
C1015 C1018 1.463 . S
C1015 C1020 1.350 . S
C1015 N1023 1.427 . S
C1016 H1007 0.930 . S
C1016 C1014 1.378 . S
C1016 C1017 1.367 . S
C1017 C1016 1.367 . S
C1017 C1019 1.433 . S
C1018 C1014 1.350 . S
C1018 C1015 1.463 . S
C1018 N1022 1.427 . S
C1019 H1009 0.929 . S
C1019 C1017 1.433 . S
C1019 N1022 1.384 . S
C1020 H1011 0.929 . S
C1020 C1012 1.378 . S
C1020 C1015 1.350 . S
C1021 H1008 0.929 . S
C1021 C1013 1.433 . S
C1021 N1023 1.384 . S
N1022 C1018 1.427 . S
N1022 C1019 1.384 . S
N1023 C1015 1.427 . S
N1023 C1021 1.384 . S
H1024 C1030 0.930 . S
H1025 C1034 0.930 . S
H1026 C1039 0.929 . S
H1027 C1037 0.929 . S
H1028 C1032 0.929 . S
H1029 C1038 0.929 . S
C1030 H1024 0.930 . S
C1030 C1031 1.367 . S
C1030 C1038 1.378 . S
C1031 C1030 1.367 . S
C1031 C1039 1.433 . S
C1032 H1028 0.929 . S
C1032 C1034 1.378 . S
C1032 C1036 1.350 . S
C1033 C1036 1.463 . S
C1033 C1038 1.350 . S
C1033 N1041 1.427 . S
C1034 H1025 0.930 . S
C1034 C1032 1.378 . S
C1034 C1035 1.367 . S
C1035 C1034 1.367 . S
C1035 C1037 1.433 . S
C1036 C1032 1.350 . S
C1036 C1033 1.463 . S
C1036 N1040 1.427 . S
C1037 H1027 0.929 . S
C1037 C1035 1.433 . S
C1037 N1040 1.384 . S
C1038 H1029 0.929 . S
C1038 C1030 1.378 . S
C1038 C1033 1.350 . S
C1039 H1026 0.929 . S
C1039 C1031 1.433 . S
C1039 N1041 1.384 . S
N1040 C1036 1.427 . S
N1040 C1037 1.384 . S
N1041 C1033 1.427 . S
N1041 C1039 1.384 . S
H1042 C1048 0.930 1_655 S
H1043 C1052 0.930 1_455 S
H1044 C1057 0.929 . S
H1045 C1055 0.929 . S
H1046 C1050 0.929 . S
H1047 C1056 0.929 . S
C1048 H1042 0.930 1_455 S
C1048 C1049 1.367 . S
C1048 C1056 1.378 1_455 S
C1049 C1048 1.367 . S
C1049 C1057 1.433 1_565 S
C1050 H1046 0.929 . S
C1050 C1052 1.378 1_455 S
C1050 C1054 1.350 1_455 S
C1051 C1054 1.463 1_465 S
C1051 C1056 1.350 1_455 S
C1051 N1059 1.427 1_565 S
C1052 H1043 0.930 1_655 S
C1052 C1050 1.378 1_655 S
C1052 C1053 1.367 . S
C1053 C1052 1.367 . S
C1053 C1055 1.433 1_545 S
C1054 C1050 1.350 1_655 S
C1054 C1051 1.463 1_645 S
C1054 N1058 1.427 1_545 S
C1055 H1045 0.929 . S
C1055 C1053 1.433 1_565 S
C1055 N1058 1.384 . S
C1056 H1047 0.929 . S
C1056 C1048 1.378 1_655 S
C1056 C1051 1.350 1_655 S
C1057 H1044 0.929 . S
C1057 C1049 1.433 1_545 S
C1057 N1059 1.384 . S
N1058 C1054 1.427 1_565 S
N1058 C1055 1.384 . S
N1059 C1051 1.427 1_545 S
N1059 C1057 1.384 . S
H1060 C1066 0.930 . S
H1061 C1070 0.930 . S
H1062 C1075 0.929 . S
H1063 C1073 0.929 . S
H1064 C1068 0.929 . S
H1065 C1074 0.929 . S
C1066 H1060 0.930 . S
C1066 C1067 1.367 . S
C1066 C1074 1.378 . S
C1067 C1066 1.367 . S
C1067 C1075 1.433 . S
C1068 H1064 0.929 . S
C1068 C1070 1.378 . S
C1068 C1072 1.350 . S
C1069 C1072 1.463 . S
C1069 C1074 1.350 . S
C1069 N1077 1.427 . S
C1070 H1061 0.930 . S
C1070 C1068 1.378 . S
C1070 C1071 1.367 . S
C1071 C1070 1.367 . S
C1071 C1073 1.433 . S
C1072 C1068 1.350 . S
C1072 C1069 1.463 . S
C1072 N1076 1.427 . S
C1073 H1063 0.929 . S
C1073 C1071 1.433 . S
C1073 N1076 1.384 . S
C1074 H1065 0.929 . S
C1074 C1066 1.378 . S
C1074 C1069 1.350 . S
C1075 H1062 0.929 . S
C1075 C1067 1.433 . S
C1075 N1077 1.384 . S
N1076 C1072 1.427 . S
N1076 C1073 1.384 . S
N1077 C1069 1.427 . S
N1077 C1075 1.384 . S
H1078 C1084 0.930 . S
H1079 C1088 0.930 . S
H1080 C1093 0.929 . S
H1081 C1091 0.929 . S
H1082 C1086 0.929 . S
H1083 C1092 0.929 . S
C1084 H1078 0.930 . S
C1084 C1085 1.367 . S
C1084 C1092 1.378 . S
C1085 C1084 1.367 . S
C1085 C1093 1.433 1_545 S
C1086 H1082 0.929 . S
C1086 C1088 1.378 . S
C1086 C1090 1.350 . S
C1087 C1090 1.463 1_544 S
C1087 C1092 1.350 . S
C1087 N1095 1.427 1_545 S
C1088 H1079 0.930 . S
C1088 C1086 1.378 . S
C1088 C1089 1.367 . S
C1089 C1088 1.367 . S
C1089 C1091 1.433 1_565 S
C1090 C1086 1.350 . S
C1090 C1087 1.463 1_566 S
C1090 N1094 1.427 1_565 S
C1091 H1081 0.929 . S
C1091 C1089 1.433 1_545 S
C1091 N1094 1.384 . S
C1092 H1083 0.929 . S
C1092 C1084 1.378 . S
C1092 C1087 1.350 . S
C1093 H1080 0.929 . S
C1093 C1085 1.433 1_565 S
C1093 N1095 1.384 . S
N1094 C1090 1.427 1_545 S
N1094 C1091 1.384 . S
N1095 C1087 1.427 1_565 S
N1095 C1093 1.384 . S
H1096 C1102 0.930 . S
H1097 C1106 0.930 . S
H1098 C1111 0.929 . S
H1099 C1109 0.929 . S
H1100 C1104 0.929 . S
H1101 C1110 0.929 . S
C1102 H1096 0.930 . S
C1102 C1103 1.367 . S
C1102 C1110 1.378 . S
C1103 C1102 1.367 . S
C1103 C1111 1.433 . S
C1104 H1100 0.929 . S
C1104 C1106 1.378 . S
C1104 C1108 1.350 . S
C1105 C1108 1.463 . S
C1105 C1110 1.350 . S
C1105 N1113 1.427 . S
C1106 H1097 0.930 . S
C1106 C1104 1.378 . S
C1106 C1107 1.367 . S
C1107 C1106 1.367 . S
C1107 C1109 1.433 . S
C1108 C1104 1.350 . S
C1108 C1105 1.463 . S
C1108 N1112 1.427 . S
C1109 H1099 0.929 . S
C1109 C1107 1.433 . S
C1109 N1112 1.384 . S
C1110 H1101 0.929 . S
C1110 C1102 1.378 . S
C1110 C1105 1.350 . S
C1111 H1098 0.929 . S
C1111 C1103 1.433 . S
C1111 N1113 1.384 . S
N1112 C1108 1.427 . S
N1112 C1109 1.384 . S
N1113 C1105 1.427 . S
N1113 C1111 1.384 . S
H1114 C1120 0.930 . S
H1115 C1124 0.930 . S
H1116 C1129 0.929 . S
H1117 C1127 0.929 . S
H1118 C1122 0.929 . S
H1119 C1128 0.929 . S
C1120 H1114 0.930 . S
C1120 C1121 1.367 . S
C1120 C1128 1.378 . S
C1121 C1120 1.367 . S
C1121 C1129 1.433 1_565 S
C1122 H1118 0.929 . S
C1122 C1124 1.378 . S
C1122 C1126 1.350 . S
C1123 C1126 1.463 1_565 S
C1123 C1128 1.350 . S
C1123 N1131 1.427 1_565 S
C1124 H1115 0.930 . S
C1124 C1122 1.378 . S
C1124 C1125 1.367 . S
C1125 C1124 1.367 . S
C1125 C1127 1.433 1_545 S
C1126 C1122 1.350 . S
C1126 C1123 1.463 1_545 S
C1126 N1130 1.427 1_545 S
C1127 H1117 0.929 . S
C1127 C1125 1.433 1_565 S
C1127 N1130 1.384 . S
C1128 H1119 0.929 . S
C1128 C1120 1.378 . S
C1128 C1123 1.350 . S
C1129 H1116 0.929 . S
C1129 C1121 1.433 1_545 S
C1129 N1131 1.384 . S
N1130 C1126 1.427 1_565 S
N1130 C1127 1.384 . S
N1131 C1123 1.427 1_545 S
N1131 C1129 1.384 . S
H1132 C1138 0.930 . S
H1133 C1142 0.930 . S
H1134 C1147 0.929 . S
H1135 C1145 0.929 . S
H1136 C1140 0.929 . S
H1137 C1146 0.929 . S
C1138 H1132 0.930 . S
C1138 C1139 1.367 . S
C1138 C1146 1.378 . S
C1139 C1138 1.367 . S
C1139 C1147 1.433 . S
C1140 H1136 0.929 . S
C1140 C1142 1.378 . S
C1140 C1144 1.350 . S
C1141 C1144 1.463 . S
C1141 C1146 1.350 . S
C1141 N1149 1.427 . S
C1142 H1133 0.930 . S
C1142 C1140 1.378 . S
C1142 C1143 1.367 . S
C1143 C1142 1.367 . S
C1143 C1145 1.433 . S
C1144 C1140 1.350 . S
C1144 C1141 1.463 . S
C1144 N1148 1.427 . S
C1145 H1135 0.929 . S
C1145 C1143 1.433 . S
C1145 N1148 1.384 . S
C1146 H1137 0.929 . S
C1146 C1138 1.378 . S
C1146 C1141 1.350 . S
C1147 H1134 0.929 . S
C1147 C1139 1.433 . S
C1147 N1149 1.384 . S
N1148 C1144 1.427 . S
N1148 C1145 1.384 . S
N1149 C1141 1.427 . S
N1149 C1147 1.384 . S
H1150 C1156 0.930 . S
H1151 C1160 0.930 . S
H1152 C1165 0.929 . S
H1153 C1163 0.929 . S
H1154 C1158 0.929 . S
H1155 C1164 0.929 1_554 S
C1156 H1150 0.930 . S
C1156 C1157 1.367 . S
C1156 C1164 1.378 . S
C1157 C1156 1.367 . S
C1157 C1165 1.433 1_455 S
C1158 H1154 0.929 . S
C1158 C1160 1.378 . S
C1158 C1162 1.350 . S
C1159 C1162 1.463 1_446 S
C1159 C1164 1.350 . S
C1159 N1167 1.427 1_445 S
C1160 H1151 0.930 . S
C1160 C1158 1.378 . S
C1160 C1161 1.367 . S
C1161 C1160 1.367 . S
C1161 C1163 1.433 1_655 S
C1162 C1158 1.350 . S
C1162 C1159 1.463 1_664 S
C1162 N1166 1.427 1_655 S
C1163 H1153 0.929 . S
C1163 C1161 1.433 1_455 S
C1163 N1166 1.384 . S
C1164 H1155 0.929 1_556 S
C1164 C1156 1.378 . S
C1164 C1159 1.350 . S
C1165 H1152 0.929 . S
C1165 C1157 1.433 1_655 S
C1165 N1167 1.383 1_545 S
N1166 C1162 1.427 1_455 S
N1166 C1163 1.384 . S
N1167 C1159 1.427 1_665 S
N1167 C1165 1.383 1_565 S
H1168 C1174 0.930 . S
H1169 C1178 0.930 . S
H1170 C1183 0.929 . S
H1171 C1181 0.929 . S
H1172 C1176 0.929 . S
H1173 C1182 0.929 . S
C1174 H1168 0.930 . S
C1174 C1175 1.367 . S
C1174 C1182 1.378 . S
C1175 C1174 1.367 . S
C1175 C1183 1.433 . S
C1176 H1172 0.929 . S
C1176 C1178 1.378 . S
C1176 C1180 1.350 . S
C1177 C1180 1.463 . S
C1177 C1182 1.350 . S
C1177 N1185 1.427 . S
C1178 H1169 0.930 . S
C1178 C1176 1.378 . S
C1178 C1179 1.367 . S
C1179 C1178 1.367 . S
C1179 C1181 1.433 . S
C1180 C1176 1.350 . S
C1180 C1177 1.463 . S
C1180 N1184 1.427 . S
C1181 H1171 0.929 . S
C1181 C1179 1.433 . S
C1181 N1184 1.384 . S
C1182 H1173 0.929 . S
C1182 C1174 1.378 . S
C1182 C1177 1.350 . S
C1183 H1170 0.929 . S
C1183 C1175 1.433 . S
C1183 N1185 1.384 . S
N1184 C1180 1.427 . S
N1184 C1181 1.384 . S
N1185 C1177 1.427 . S
N1185 C1183 1.384 . S
H1186 C1192 0.930 . S
H1187 C1196 0.930 . S
H1188 C1201 0.929 . S
H1189 C1199 0.929 . S
H1190 C1194 0.929 . S
H1191 C1200 0.929 . S
C1192 H1186 0.930 . S
C1192 C1193 1.367 . S
C1192 C1200 1.378 . S
C1193 C1192 1.367 . S
C1193 C1201 1.433 . S
C1194 H1190 0.929 . S
C1194 C1196 1.378 . S
C1194 C1198 1.350 . S
C1195 C1198 1.463 . S
C1195 C1200 1.350 . S
C1195 N1203 1.427 . S
C1196 H1187 0.930 . S
C1196 C1194 1.378 . S
C1196 C1197 1.367 . S
C1197 C1196 1.367 . S
C1197 C1199 1.433 . S
C1198 C1194 1.350 . S
C1198 C1195 1.463 . S
C1198 N1202 1.427 . S
C1199 H1189 0.929 . S
C1199 C1197 1.433 . S
C1199 N1202 1.384 . S
C1200 H1191 0.929 . S
C1200 C1192 1.378 . S
C1200 C1195 1.350 . S
C1201 H1188 0.929 . S
C1201 C1193 1.433 . S
C1201 N1203 1.384 . S
N1202 C1198 1.427 . S
N1202 C1199 1.384 . S
N1203 C1195 1.427 . S
N1203 C1201 1.384 . S
H1204 C1210 0.930 . S
H1205 C1214 0.930 . S
H1206 C1219 0.929 . S
H1207 C1217 0.929 . S
H1208 C1212 0.929 . S
H1209 C1218 0.929 . S
C1210 H1204 0.930 . S
C1210 C1211 1.367 . S
C1210 C1218 1.378 . S
C1211 C1210 1.367 . S
C1211 C1219 1.433 . S
C1212 H1208 0.929 . S
C1212 C1214 1.378 . S
C1212 C1216 1.350 . S
C1213 C1216 1.463 . S
C1213 C1218 1.350 . S
C1213 N1221 1.427 . S
C1214 H1205 0.930 . S
C1214 C1212 1.378 . S
C1214 C1215 1.367 . S
C1215 C1214 1.367 . S
C1215 C1217 1.433 . S
C1216 C1212 1.350 . S
C1216 C1213 1.463 . S
C1216 N1220 1.427 . S
C1217 H1207 0.929 . S
C1217 C1215 1.433 . S
C1217 N1220 1.384 . S
C1218 H1209 0.929 . S
C1218 C1210 1.378 . S
C1218 C1213 1.350 . S
C1219 H1206 0.929 . S
C1219 C1211 1.433 . S
C1219 N1221 1.384 . S
N1220 C1216 1.427 . S
N1220 C1217 1.384 . S
N1221 C1213 1.427 . S
N1221 C1219 1.384 . S
H1222 C1228 0.930 . S
H1223 C1232 0.930 . S
H1224 C1237 0.929 . S
H1225 C1235 0.929 . S
H1226 C1230 0.929 . S
H1227 C1236 0.929 . S
C1228 H1222 0.930 . S
C1228 C1229 1.367 . S
C1228 C1236 1.378 . S
C1229 C1228 1.367 . S
C1229 C1237 1.433 . S
C1230 H1226 0.929 . S
C1230 C1232 1.378 . S
C1230 C1234 1.350 . S
C1231 C1234 1.463 . S
C1231 C1236 1.350 . S
C1231 N1239 1.427 . S
C1232 H1223 0.930 . S
C1232 C1230 1.378 . S
C1232 C1233 1.367 . S
C1233 C1232 1.367 . S
C1233 C1235 1.433 . S
C1234 C1230 1.350 . S
C1234 C1231 1.463 . S
C1234 N1238 1.427 . S
C1235 H1225 0.929 . S
C1235 C1233 1.433 . S
C1235 N1238 1.384 . S
C1236 H1227 0.929 . S
C1236 C1228 1.378 . S
C1236 C1231 1.350 . S
C1237 H1224 0.929 . S
C1237 C1229 1.433 . S
C1237 N1239 1.384 . S
N1238 C1234 1.427 . S
N1238 C1235 1.384 . S
N1239 C1231 1.427 . S
N1239 C1237 1.384 . S
H1240 C1246 0.930 . S
H1241 C1250 0.930 . S
H1242 C1255 0.929 . S
H1243 C1253 0.929 . S
H1244 C1248 0.929 . S
H1245 C1254 0.929 . S
C1246 H1240 0.930 . S
C1246 C1247 1.367 . S
C1246 C1254 1.378 . S
C1247 C1246 1.367 . S
C1247 C1255 1.433 . S
C1248 H1244 0.929 . S
C1248 C1250 1.378 . S
C1248 C1252 1.350 . S
C1249 C1252 1.463 1_554 S
C1249 C1254 1.350 . S
C1249 N1257 1.427 . S
C1250 H1241 0.930 . S
C1250 C1248 1.378 . S
C1250 C1251 1.367 . S
C1251 C1250 1.367 . S
C1251 C1253 1.433 . S
C1252 C1248 1.350 . S
C1252 C1249 1.463 1_556 S
C1252 N1256 1.427 . S
C1253 H1243 0.929 . S
C1253 C1251 1.433 . S
C1253 N1256 1.384 . S
C1254 H1245 0.929 . S
C1254 C1246 1.378 . S
C1254 C1249 1.350 . S
C1255 H1242 0.929 . S
C1255 C1247 1.433 . S
C1255 N1257 1.384 . S
N1256 C1252 1.427 . S
N1256 C1253 1.384 . S
N1257 C1249 1.427 . S
N1257 C1255 1.384 . S
H1258 C1264 0.930 . S
H1259 C1268 0.930 . S
H1260 C1273 0.929 . S
H1261 C1271 0.929 . S
H1262 C1266 0.947 . S
H1263 C1272 0.929 . S
C1264 H1258 0.930 . S
C1264 C1265 1.367 . S
C1264 C1272 1.378 1_455 S
C1265 C1264 1.367 . S
C1265 C1273 1.433 . S
C1266 H1262 0.947 . S
C1266 C1268 1.367 1_455 S
C1266 C1270 1.343 1_455 S
C1267 C1270 1.463 1_455 S
C1267 C1272 1.350 1_455 S
C1267 N1275 1.427 . S
C1268 H1259 0.930 . S
C1268 C1266 1.367 1_655 S
C1268 C1269 1.367 . S
C1269 C1268 1.367 . S
C1269 C1271 1.433 . S
C1270 C1266 1.343 1_655 S
C1270 C1267 1.463 1_655 S
C1270 N1274 1.427 . S
C1271 H1261 0.929 . S
C1271 C1269 1.433 . S
C1271 N1274 1.384 . S
C1272 H1263 0.929 . S
C1272 C1264 1.378 1_655 S
C1272 C1267 1.350 1_655 S
C1273 H1260 0.929 . S
C1273 C1265 1.433 . S
C1273 N1275 1.384 . S
N1274 C1270 1.427 . S
N1274 C1271 1.384 . S
N1275 C1267 1.427 . S
N1275 C1273 1.384 . S
H1276 C1282 0.930 1_655 S
H1277 C1286 0.936 . S
H1278 C1291 0.929 . S
H1279 C1289 0.929 . S
H1280 C1284 0.929 . S
H1281 C1290 0.929 . S
C1282 H1276 0.930 1_455 S
C1282 C1283 1.367 . S
C1282 C1290 1.378 1_455 S
C1283 C1282 1.367 . S
C1283 C1291 1.433 . S
C1284 H1280 0.929 . S
C1284 C1286 1.378 1_455 S
C1284 C1288 1.350 1_455 S
C1285 C1288 1.463 1_454 S
C1285 C1290 1.350 1_455 S
C1285 N1293 1.427 . S
C1286 H1277 0.936 . S
C1286 C1284 1.378 1_655 S
C1286 C1287 1.367 . S
C1287 C1286 1.367 . S
C1287 C1289 1.433 . S
C1288 C1284 1.350 1_655 S
C1288 C1285 1.463 1_656 S
C1288 N1292 1.427 . S
C1289 H1279 0.929 . S
C1289 C1287 1.433 . S
C1289 N1292 1.384 . S
C1290 H1281 0.929 . S
C1290 C1282 1.378 1_655 S
C1290 C1285 1.350 1_655 S
C1291 H1278 0.929 . S
C1291 C1283 1.433 . S
C1291 N1293 1.384 . S
N1292 C1288 1.427 . S
N1292 C1289 1.384 . S
N1293 C1285 1.427 . S
N1293 C1291 1.384 . S
H1294 C1300 0.930 . S
H1295 C1304 0.930 . S
H1296 C1309 0.929 . S
H1297 C1307 0.929 . S
H1298 C1302 0.929 . S
H1299 C1308 0.929 . S
C1300 H1294 0.930 . S
C1300 C1301 1.367 . S
C1300 C1308 1.378 . S
C1301 C1300 1.367 . S
C1301 C1309 1.433 . S
C1302 H1298 0.929 . S
C1302 C1304 1.378 . S
C1302 C1306 1.350 . S
C1303 C1306 1.463 . S
C1303 C1308 1.350 . S
C1303 N1311 1.427 . S
C1304 H1295 0.930 . S
C1304 C1302 1.378 . S
C1304 C1305 1.367 . S
C1305 C1304 1.367 . S
C1305 C1307 1.433 . S
C1306 C1302 1.350 . S
C1306 C1303 1.463 . S
C1306 N1310 1.427 . S
C1307 H1297 0.929 . S
C1307 C1305 1.433 . S
C1307 N1310 1.384 . S
C1308 H1299 0.929 . S
C1308 C1300 1.378 . S
C1308 C1303 1.350 . S
C1309 H1296 0.929 . S
C1309 C1301 1.433 . S
C1309 N1311 1.384 . S
N1310 C1306 1.427 . S
N1310 C1307 1.384 . S
N1311 C1303 1.427 . S
N1311 C1309 1.384 . S
H1312 C1318 0.930 . S
H1313 C1322 0.930 . S
H1314 C1327 0.929 . S
H1315 C1325 0.929 . S
H1316 C1320 0.929 . S
H1317 C1326 0.929 . S
C1318 H1312 0.930 . S
C1318 C1319 1.367 . S
C1318 C1326 1.378 . S
C1319 C1318 1.367 . S
C1319 C1327 1.433 . S
C1320 H1316 0.929 . S
C1320 C1322 1.378 . S
C1320 C1324 1.350 . S
C1321 C1324 1.463 . S
C1321 C1326 1.350 . S
C1321 N1329 1.427 . S
C1322 H1313 0.930 . S
C1322 C1320 1.378 . S
C1322 C1323 1.367 . S
C1323 C1322 1.367 . S
C1323 C1325 1.433 . S
C1324 C1320 1.350 . S
C1324 C1321 1.463 . S
C1324 N1328 1.427 . S
C1325 H1315 0.929 . S
C1325 C1323 1.433 . S
C1325 N1328 1.384 . S
C1326 H1317 0.929 . S
C1326 C1318 1.378 . S
C1326 C1321 1.350 . S
C1327 H1314 0.929 . S
C1327 C1319 1.433 . S
C1327 N1329 1.384 . S
N1328 C1324 1.427 . S
N1328 C1325 1.384 . S
N1329 C1321 1.427 . S
N1329 C1327 1.384 . S
H1330 C1336 0.930 . S
H1331 C1340 0.930 . S
H1332 C1345 0.929 . S
H1333 C1343 0.929 . S
H1334 C1338 0.929 . S
H1335 C1344 0.929 . S
C1336 H1330 0.930 . S
C1336 C1337 1.367 . S
C1336 C1344 1.378 . S
C1337 C1336 1.367 . S
C1337 C1345 1.433 . S
C1338 H1334 0.929 . S
C1338 C1340 1.378 . S
C1338 C1342 1.350 . S
C1339 C1342 1.463 . S
C1339 C1344 1.350 . S
C1339 N1347 1.427 . S
C1340 H1331 0.930 . S
C1340 C1338 1.378 . S
C1340 C1341 1.367 . S
C1341 C1340 1.367 . S
C1341 C1343 1.433 . S
C1342 C1338 1.350 . S
C1342 C1339 1.463 . S
C1342 N1346 1.427 . S
C1343 H1333 0.929 . S
C1343 C1341 1.433 . S
C1343 N1346 1.384 . S
C1344 H1335 0.929 . S
C1344 C1336 1.378 . S
C1344 C1339 1.350 . S
C1345 H1332 0.929 . S
C1345 C1337 1.433 . S
C1345 N1347 1.384 . S
N1346 C1342 1.427 . S
N1346 C1343 1.384 . S
N1347 C1339 1.427 . S
N1347 C1345 1.384 . S
H1348 C1354 0.930 . S
H1349 C1358 0.930 . S
H1350 C1363 0.929 . S
H1351 C1361 0.929 . S
H1352 C1356 0.929 . S
H1353 C1362 0.929 . S
C1354 H1348 0.930 . S
C1354 C1355 1.367 . S
C1354 C1362 1.378 . S
C1355 C1354 1.367 . S
C1355 C1363 1.433 . S
C1356 H1352 0.929 . S
C1356 C1358 1.378 . S
C1356 C1360 1.350 . S
C1357 C1360 1.463 . S
C1357 C1362 1.350 . S
C1357 N1365 1.427 . S
C1358 H1349 0.930 . S
C1358 C1356 1.378 . S
C1358 C1359 1.367 . S
C1359 C1358 1.367 . S
C1359 C1361 1.433 . S
C1360 C1356 1.350 . S
C1360 C1357 1.463 . S
C1360 N1364 1.427 . S
C1361 H1351 0.929 . S
C1361 C1359 1.433 . S
C1361 N1364 1.384 . S
C1362 H1353 0.929 . S
C1362 C1354 1.378 . S
C1362 C1357 1.350 . S
C1363 H1350 0.929 . S
C1363 C1355 1.433 . S
C1363 N1365 1.384 . S
N1364 C1360 1.427 . S
N1364 C1361 1.384 . S
N1365 C1357 1.427 . S
N1365 C1363 1.384 . S
H1366 C1372 0.930 . S
H1367 C1376 0.930 . S
H1368 C1381 0.929 . S
H1369 C1379 0.929 . S
H1370 C1374 0.929 . S
H1371 C1380 0.929 . S
C1372 H1366 0.930 . S
C1372 C1373 1.367 . S
C1372 C1380 1.378 . S
C1373 C1372 1.367 . S
C1373 C1381 1.433 . S
C1374 H1370 0.929 . S
C1374 C1376 1.378 . S
C1374 C1378 1.350 . S
C1375 C1378 1.463 . S
C1375 C1380 1.350 . S
C1375 N1383 1.427 . S
C1376 H1367 0.930 . S
C1376 C1374 1.378 . S
C1376 C1377 1.367 . S
C1377 C1376 1.367 . S
C1377 C1379 1.433 . S
C1378 C1374 1.350 . S
C1378 C1375 1.463 . S
C1378 N1382 1.427 . S
C1379 H1369 0.929 . S
C1379 C1377 1.433 . S
C1379 N1382 1.384 . S
C1380 H1371 0.929 . S
C1380 C1372 1.378 . S
C1380 C1375 1.350 . S
C1381 H1368 0.929 . S
C1381 C1373 1.433 . S
C1381 N1383 1.384 . S
N1382 C1378 1.427 . S
N1382 C1379 1.384 . S
N1383 C1375 1.427 . S
N1383 C1381 1.384 . S
H1384 C1390 0.930 . S
H1385 C1394 0.930 . S
H1386 C1399 0.929 . S
H1387 C1397 0.929 . S
H1388 C1392 0.929 . S
H1389 C1398 0.929 . S
C1390 H1384 0.930 . S
C1390 C1391 1.367 . S
C1390 C1398 1.378 . S
C1391 C1390 1.367 . S
C1391 C1399 1.433 . S
C1392 H1388 0.929 . S
C1392 C1394 1.378 . S
C1392 C1396 1.350 . S
C1393 C1396 1.463 . S
C1393 C1398 1.350 . S
C1393 N1401 1.427 . S
C1394 H1385 0.930 . S
C1394 C1392 1.378 . S
C1394 C1395 1.367 . S
C1395 C1394 1.367 . S
C1395 C1397 1.433 . S
C1396 C1392 1.350 . S
C1396 C1393 1.463 . S
C1396 N1400 1.427 . S
C1397 H1387 0.929 . S
C1397 C1395 1.433 . S
C1397 N1400 1.384 . S
C1398 H1389 0.929 . S
C1398 C1390 1.378 . S
C1398 C1393 1.350 . S
C1399 H1386 0.929 . S
C1399 C1391 1.433 . S
C1399 N1401 1.384 . S
N1400 C1396 1.427 . S
N1400 C1397 1.384 . S
N1401 C1393 1.427 . S
N1401 C1399 1.384 . S
H1402 C1408 0.930 . S
H1403 C1412 0.930 . S
H1404 C1417 0.929 . S
H1405 C1415 0.929 . S
H1406 C1410 0.929 . S
H1407 C1416 0.929 . S
C1408 H1402 0.930 . S
C1408 C1409 1.367 . S
C1408 C1416 1.378 . S
C1409 C1408 1.367 . S
C1409 C1417 1.433 . S
C1410 H1406 0.929 . S
C1410 C1412 1.378 . S
C1410 C1414 1.350 . S
C1411 C1414 1.463 . S
C1411 C1416 1.350 . S
C1411 N1419 1.427 . S
C1412 H1403 0.930 . S
C1412 C1410 1.378 . S
C1412 C1413 1.367 . S
C1413 C1412 1.367 . S
C1413 C1415 1.433 . S
C1414 C1410 1.350 . S
C1414 C1411 1.463 . S
C1414 N1418 1.427 . S
C1415 H1405 0.929 . S
C1415 C1413 1.433 . S
C1415 N1418 1.384 . S
C1416 H1407 0.929 . S
C1416 C1408 1.378 . S
C1416 C1411 1.350 . S
C1417 H1404 0.929 . S
C1417 C1409 1.433 . S
C1417 N1419 1.384 . S
N1418 C1414 1.427 . S
N1418 C1415 1.384 . S
N1419 C1411 1.427 . S
N1419 C1417 1.384 . S
H1420 C1426 0.930 . S
H1421 C1430 0.930 . S
H1422 C1435 0.929 . S
H1423 C1433 0.929 . S
H1424 C1428 0.929 . S
H1425 C1434 0.929 . S
C1426 H1420 0.930 . S
C1426 C1427 1.367 . S
C1426 C1434 1.378 . S
C1427 C1426 1.367 . S
C1427 C1435 1.433 . S
C1428 H1424 0.929 . S
C1428 C1430 1.378 . S
C1428 C1432 1.350 . S
C1429 C1432 1.463 . S
C1429 C1434 1.350 . S
C1429 N1437 1.427 . S
C1430 H1421 0.930 . S
C1430 C1428 1.378 . S
C1430 C1431 1.367 . S
C1431 C1430 1.367 . S
C1431 C1433 1.433 . S
C1432 C1428 1.350 . S
C1432 C1429 1.463 . S
C1432 N1436 1.427 . S
C1433 H1423 0.929 . S
C1433 C1431 1.433 . S
C1433 N1436 1.384 . S
C1434 H1425 0.929 . S
C1434 C1426 1.378 . S
C1434 C1429 1.350 . S
C1435 H1422 0.929 . S
C1435 C1427 1.433 . S
C1435 N1437 1.384 . S
N1436 C1432 1.427 . S
N1436 C1433 1.384 . S
N1437 C1429 1.427 . S
N1437 C1435 1.384 . S
H1438 C1444 0.930 . S
H1439 C1448 0.930 . S
H1440 C1453 0.929 . S
H1441 C1451 0.929 . S
H1442 C1446 0.929 . S
H1443 C1452 0.929 . S
C1444 H1438 0.930 . S
C1444 C1445 1.367 . S
C1444 C1452 1.378 . S
C1445 C1444 1.367 . S
C1445 C1453 1.433 . S
C1446 H1442 0.929 . S
C1446 C1448 1.378 . S
C1446 C1450 1.350 . S
C1447 C1450 1.463 . S
C1447 C1452 1.350 . S
C1447 N1455 1.427 . S
C1448 H1439 0.930 . S
C1448 C1446 1.378 . S
C1448 C1449 1.367 . S
C1449 C1448 1.367 . S
C1449 C1451 1.433 . S
C1450 C1446 1.350 . S
C1450 C1447 1.463 . S
C1450 N1454 1.427 . S
C1451 H1441 0.929 . S
C1451 C1449 1.433 . S
C1451 N1454 1.384 . S
C1452 H1443 0.929 . S
C1452 C1444 1.378 . S
C1452 C1447 1.350 . S
C1453 H1440 0.929 . S
C1453 C1445 1.433 . S
C1453 N1455 1.384 . S
N1454 C1450 1.427 . S
N1454 C1451 1.384 . S
N1455 C1447 1.427 . S
N1455 C1453 1.384 . S
H1456 C1462 0.930 . S
H1457 C1466 0.930 . S
H1458 C1471 0.929 . S
H1459 C1469 0.929 . S
H1460 C1464 0.929 . S
H1461 C1470 0.929 . S
C1462 H1456 0.930 . S
C1462 C1463 1.367 . S
C1462 C1470 1.378 . S
C1463 C1462 1.367 . S
C1463 C1471 1.433 . S
C1464 H1460 0.929 . S
C1464 C1466 1.378 . S
C1464 C1468 1.350 . S
C1465 C1468 1.463 . S
C1465 C1470 1.350 . S
C1465 N1473 1.427 . S
C1466 H1457 0.930 . S
C1466 C1464 1.378 . S
C1466 C1467 1.367 . S
C1467 C1466 1.367 . S
C1467 C1469 1.433 . S
C1468 C1464 1.350 . S
C1468 C1465 1.463 . S
C1468 N1472 1.427 . S
C1469 H1459 0.929 . S
C1469 C1467 1.433 . S
C1469 N1472 1.384 . S
C1470 H1461 0.929 . S
C1470 C1462 1.378 . S
C1470 C1465 1.350 . S
C1471 H1458 0.929 . S
C1471 C1463 1.433 . S
C1471 N1473 1.384 . S
N1472 C1468 1.427 . S
N1472 C1469 1.384 . S
N1473 C1465 1.427 . S
N1473 C1471 1.384 . S
H1474 C1480 0.930 . S
H1475 C1484 0.930 . S
H1476 C1489 0.929 . S
H1477 C1487 0.929 . S
H1478 C1482 0.929 . S
H1479 C1488 0.929 . S
C1480 H1474 0.930 . S
C1480 C1481 1.367 . S
C1480 C1488 1.378 . S
C1481 C1480 1.367 . S
C1481 C1489 1.433 . S
C1482 H1478 0.929 . S
C1482 C1484 1.378 . S
C1482 C1486 1.350 . S
C1483 C1486 1.463 . S
C1483 C1488 1.350 . S
C1483 N1491 1.427 . S
C1484 H1475 0.930 . S
C1484 C1482 1.378 . S
C1484 C1485 1.367 . S
C1485 C1484 1.367 . S
C1485 C1487 1.433 . S
C1486 C1482 1.350 . S
C1486 C1483 1.463 . S
C1486 N1490 1.427 . S
C1487 H1477 0.929 . S
C1487 C1485 1.433 . S
C1487 N1490 1.384 . S
C1488 H1479 0.929 . S
C1488 C1480 1.378 . S
C1488 C1483 1.350 . S
C1489 H1476 0.929 . S
C1489 C1481 1.433 . S
C1489 N1491 1.384 . S
N1490 C1486 1.427 . S
N1490 C1487 1.384 . S
N1491 C1483 1.427 . S
N1491 C1489 1.384 . S
H1492 C1498 0.930 . S
H1493 C1502 0.930 . S
H1494 C1507 0.929 . S
H1495 C1505 0.929 . S
H1496 C1500 0.929 . S
H1497 C1506 0.929 . S
C1498 H1492 0.930 . S
C1498 C1499 1.367 . S
C1498 C1506 1.378 . S
C1499 C1498 1.367 . S
C1499 C1507 1.433 . S
C1500 H1496 0.929 . S
C1500 C1502 1.378 . S
C1500 C1504 1.350 . S
C1501 C1504 1.463 . S
C1501 C1506 1.350 . S
C1501 N1509 1.427 . S
C1502 H1493 0.930 . S
C1502 C1500 1.378 . S
C1502 C1503 1.367 . S
C1503 C1502 1.367 . S
C1503 C1505 1.433 . S
C1504 C1500 1.350 . S
C1504 C1501 1.463 . S
C1504 N1508 1.427 . S
C1505 H1495 0.929 . S
C1505 C1503 1.433 . S
C1505 N1508 1.384 . S
C1506 H1497 0.929 . S
C1506 C1498 1.378 . S
C1506 C1501 1.350 . S
C1507 H1494 0.929 . S
C1507 C1499 1.433 . S
C1507 N1509 1.384 . S
N1508 C1504 1.427 . S
N1508 C1505 1.384 . S
N1509 C1501 1.427 . S
N1509 C1507 1.384 . S
H1510 C1516 0.930 . S
H1511 C1520 0.930 . S
H1512 C1525 0.929 . S
H1513 C1523 0.929 . S
H1514 C1518 0.929 . S
H1515 C1524 0.929 . S
C1516 H1510 0.930 . S
C1516 C1517 1.367 . S
C1516 C1524 1.378 . S
C1517 C1516 1.367 . S
C1517 C1525 1.433 . S
C1518 H1514 0.929 . S
C1518 C1520 1.378 . S
C1518 C1522 1.350 . S
C1519 C1522 1.463 . S
C1519 C1524 1.350 . S
C1519 N1527 1.427 . S
C1520 H1511 0.930 . S
C1520 C1518 1.378 . S
C1520 C1521 1.367 . S
C1521 C1520 1.367 . S
C1521 C1523 1.433 . S
C1522 C1518 1.350 . S
C1522 C1519 1.463 . S
C1522 N1526 1.427 . S
C1523 H1513 0.929 . S
C1523 C1521 1.433 . S
C1523 N1526 1.384 . S
C1524 H1515 0.929 . S
C1524 C1516 1.378 . S
C1524 C1519 1.350 . S
C1525 H1512 0.929 . S
C1525 C1517 1.433 . S
C1525 N1527 1.384 . S
N1526 C1522 1.427 . S
N1526 C1523 1.384 . S
N1527 C1519 1.427 . S
N1527 C1525 1.384 . S
H1528 C1534 0.930 . S
H1529 C1538 0.930 . S
H1530 C1543 0.929 . S
H1531 C1541 0.929 . S
H1532 C1536 0.929 . S
H1533 C1542 0.929 . S
C1534 H1528 0.930 . S
C1534 C1535 1.367 . S
C1534 C1542 1.378 . S
C1535 C1534 1.367 . S
C1535 C1543 1.433 . S
C1536 H1532 0.929 . S
C1536 C1538 1.378 . S
C1536 C1540 1.350 . S
C1537 C1540 1.463 . S
C1537 C1542 1.350 . S
C1537 N1545 1.427 . S
C1538 H1529 0.930 . S
C1538 C1536 1.378 . S
C1538 C1539 1.367 . S
C1539 C1538 1.367 . S
C1539 C1541 1.433 . S
C1540 C1536 1.350 . S
C1540 C1537 1.463 . S
C1540 N1544 1.427 . S
C1541 H1531 0.929 . S
C1541 C1539 1.433 . S
C1541 N1544 1.384 . S
C1542 H1533 0.929 . S
C1542 C1534 1.378 . S
C1542 C1537 1.350 . S
C1543 H1530 0.929 . S
C1543 C1535 1.433 . S
C1543 N1545 1.384 . S
N1544 C1540 1.427 . S
N1544 C1541 1.384 . S
N1545 C1537 1.427 . S
N1545 C1543 1.384 . S
H1546 C1552 0.930 . S
H1547 C1556 0.930 . S
H1548 C1561 0.929 . S
H1549 C1559 0.929 . S
H1550 C1554 0.929 . S
H1551 C1560 0.929 . S
C1552 H1546 0.930 . S
C1552 C1553 1.367 . S
C1552 C1560 1.378 . S
C1553 C1552 1.367 . S
C1553 C1561 1.433 . S
C1554 H1550 0.929 . S
C1554 C1556 1.378 . S
C1554 C1558 1.350 . S
C1555 C1558 1.463 . S
C1555 C1560 1.350 . S
C1555 N1563 1.427 . S
C1556 H1547 0.930 . S
C1556 C1554 1.378 . S
C1556 C1557 1.367 . S
C1557 C1556 1.367 . S
C1557 C1559 1.433 . S
C1558 C1554 1.350 . S
C1558 C1555 1.463 . S
C1558 N1562 1.427 . S
C1559 H1549 0.929 . S
C1559 C1557 1.433 . S
C1559 N1562 1.384 . S
C1560 H1551 0.929 . S
C1560 C1552 1.378 . S
C1560 C1555 1.350 . S
C1561 H1548 0.929 . S
C1561 C1553 1.433 . S
C1561 N1563 1.384 . S
N1562 C1558 1.427 . S
N1562 C1559 1.384 . S
N1563 C1555 1.427 . S
N1563 C1561 1.384 . S
H1564 C1570 0.930 . S
H1565 C1574 0.930 . S
H1566 C1579 0.929 . S
H1567 C1577 0.929 . S
H1568 C1572 0.929 . S
H1569 C1578 0.929 . S
C1570 H1564 0.930 . S
C1570 C1571 1.367 . S
C1570 C1578 1.378 . S
C1571 C1570 1.367 . S
C1571 C1579 1.433 . S
C1572 H1568 0.929 . S
C1572 C1574 1.378 . S
C1572 C1576 1.350 . S
C1573 C1576 1.463 . S
C1573 C1578 1.350 . S
C1573 N1581 1.427 . S
C1574 H1565 0.930 . S
C1574 C1572 1.378 . S
C1574 C1575 1.367 . S
C1575 C1574 1.367 . S
C1575 C1577 1.433 . S
C1576 C1572 1.350 . S
C1576 C1573 1.463 . S
C1576 N1580 1.427 . S
C1577 H1567 0.929 . S
C1577 C1575 1.433 . S
C1577 N1580 1.384 . S
C1578 H1569 0.929 . S
C1578 C1570 1.378 . S
C1578 C1573 1.350 . S
C1579 H1566 0.929 . S
C1579 C1571 1.433 . S
C1579 N1581 1.384 . S
N1580 C1576 1.427 . S
N1580 C1577 1.384 . S
N1581 C1573 1.427 . S
N1581 C1579 1.384 . S
H1582 C1588 0.930 . S
H1583 C1592 0.930 . S
H1584 C1597 0.929 . S
H1585 C1595 0.929 . S
H1586 C1590 0.929 . S
H1587 C1596 0.929 . S
C1588 H1582 0.930 . S
C1588 C1589 1.367 . S
C1588 C1596 1.378 . S
C1589 C1588 1.367 . S
C1589 C1597 1.433 . S
C1590 H1586 0.929 . S
C1590 C1592 1.378 . S
C1590 C1594 1.350 . S
C1591 C1594 1.463 . S
C1591 C1596 1.350 . S
C1591 N1599 1.427 . S
C1592 H1583 0.930 . S
C1592 C1590 1.378 . S
C1592 C1593 1.367 . S
C1593 C1592 1.367 . S
C1593 C1595 1.433 . S
C1594 C1590 1.350 . S
C1594 C1591 1.463 . S
C1594 N1598 1.427 . S
C1595 H1585 0.929 . S
C1595 C1593 1.433 . S
C1595 N1598 1.384 . S
C1596 H1587 0.929 . S
C1596 C1588 1.378 . S
C1596 C1591 1.350 . S
C1597 H1584 0.929 . S
C1597 C1589 1.433 . S
C1597 N1599 1.384 . S
N1598 C1594 1.427 . S
N1598 C1595 1.384 . S
N1599 C1591 1.427 . S
N1599 C1597 1.384 . S
C455 C385 1.342 . S
C459 C8 1.264 . S
C473 C21 1.207 1_655 S
C477 C119 1.224 . S
C491 C357 1.342 . S
C495 C36 1.266 . S
C509 C49 1.213 . S
C513 C147 1.223 . S
C527 C64 1.282 . S
C531 C413 1.343 . S
C545 C77 1.209 . S
C549 C203 1.224 . S
C563 C92 1.265 . S
C567 C441 1.343 . S
C581 C105 1.216 1_655 S
C585 C175 1.223 . S
C599 C274 1.234 . S
C603 C120 1.209 . S
C617 C7 1.179 . S
C621 C134 1.115 1_455 S
C635 C246 1.222 . S
C639 C148 1.228 . S
C653 C162 1.127 . S
C657 C35 1.179 . S
C671 C302 1.232 . S
C675 C176 1.221 . S
C689 C91 1.179 . S
C693 C190 1.118 . S
C707 C204 1.210 . S
C711 C330 1.222 . S
C725 C63 1.178 . S
C729 C218 1.111 1_455 S
C743 C232 1.265 . S
C747 C161 1.343 . S
C761 C245 1.212 . S
C765 C343 1.223 . S
C779 C133 1.342 . S
C783 C260 1.276 . S
C797 C371 1.224 . S
C801 C273 1.208 1_455 S
C815 C189 1.343 . S
C819 C288 1.281 . S
C833 C427 1.223 . S
C837 C301 1.215 1_455 S
C851 C217 1.343 . S
C855 C316 1.282 . S
C869 C329 1.216 . S
C873 C399 1.223 . S
C887 C50 1.218 . S
C891 C344 1.228 . S
C905 C358 1.125 . S
C909 C231 1.176 . S
C923 C372 1.228 . S
C927 C22 1.219 . S
C941 C386 1.116 1_655 S
C945 C259 1.179 . S
C959 C400 1.218 . S
C963 C78 1.215 . S
C977 C414 1.117 1_655 S
C981 C315 1.177 . S
C995 C428 1.212 . S
C999 C106 1.235 . S
C1013 C442 1.115 . S
C1017 C287 1.179 . S
C1031 C349 1.379 . S
C1035 C13 1.376 . S
C1049 C25 1.498 . S
C1053 C139 1.415 . S
C1067 C377 1.380 . S
C1071 C41 1.376 . S
C1085 C53 1.501 . S
C1089 C167 1.414 . S
C1103 C405 1.398 . S
C1107 C69 1.394 . S
C1121 C81 1.501 . S
C1125 C195 1.414 . S
C1139 C433 1.384 . S
C1143 C97 1.380 . S
C1157 C109 1.507 . S
C1161 C223 1.425 . S
C1175 C125 1.396 . S
C1179 C237 1.393 . S
C1193 C153 1.386 . S
C1197 C265 1.382 . S
C1211 C181 1.394 . S
C1215 C293 1.390 . S
C1229 C209 1.398 . S
C1233 C321 1.394 . S
C1247 C249 1.507 . S
C1251 C363 1.432 . S
C1265 C391 1.430 . S
C1269 C277 1.500 . S
C1283 C419 1.428 . S
C1287 C305 1.499 . S
C1301 C333 1.506 . S
C1305 C447 1.433 . S
C1319 C11 1.194 . S
C1323 C83 1.172 . S
C1337 C27 1.166 . S
C1341 C95 1.193 . S
C1355 C39 1.202 . S
C1359 C111 1.168 . S
C1373 C67 1.205 . S
C1377 C55 1.162 . S
C1391 C123 1.217 . S
C1395 C193 1.238 . S
C1409 C137 1.234 . S
C1413 C207 1.224 . S
C1427 C151 1.223 . S
C1431 C221 1.235 . S
C1445 C165 1.234 . S
C1449 C179 1.224 . S
C1463 C235 1.200 . S
C1467 C307 1.153 . S
C1481 C319 1.200 . S
C1485 C251 1.152 . S
C1499 C263 1.196 . S
C1503 C335 1.158 . S
C1517 C279 1.172 . S
C1521 C291 1.197 . S
C1535 C417 1.237 . S
C1539 C347 1.219 . S
C1553 C361 1.233 . S
C1557 C431 1.220 . S
C1571 C445 1.236 . S
C1575 C375 1.217 . S
C1589 C389 1.237 . S
C1593 C403 1.218 . S
