# Generated by pormake.
# Topology wkj, (6)-cn, num edge types: 1
# Building blocks:
#     Node 0, Type 0, BuildingBlock: INOVEN_clean_sbu_0, # of connection points: 6
#     Node 1, Type 0, BuildingBlock: INOVEN_clean_sbu_0, # of connection points: 6
#     Node 2, Type 0, BuildingBlock: INOVEN_clean_sbu_0, # of connection points: 6
#     Node 3, Type 0, BuildingBlock: INOVEN_clean_sbu_0, # of connection points: 6
#     Node 4, Type 0, BuildingBlock: INOVEN_clean_sbu_0, # of connection points: 6
#     Node 5, Type 0, BuildingBlock: INOVEN_clean_sbu_0, # of connection points: 6
#     Node 6, Type 0, BuildingBlock: INOVEN_clean_sbu_0, # of connection points: 6
#     Node 7, Type 0, BuildingBlock: INOVEN_clean_sbu_0, # of connection points: 6
#     Node 8, Type 0, BuildingBlock: INOVEN_clean_sbu_0, # of connection points: 6
#     Node 9, Type 0, BuildingBlock: INOVEN_clean_sbu_0, # of connection points: 6
#     Node 10, Type 0, BuildingBlock: INOVEN_clean_sbu_0, # of connection points: 6
#     Node 11, Type 0, BuildingBlock: INOVEN_clean_sbu_0, # of connection points: 6
#     Edge 12, Type (0, 0), BuildingBlock: XIVTED_clean_linker_0, # of connection points: 2
#     Edge 13, Type (0, 0), BuildingBlock: XIVTED_clean_linker_0, # of connection points: 2
#     Edge 14, Type (0, 0), BuildingBlock: XIVTED_clean_linker_0, # of connection points: 2
#     Edge 15, Type (0, 0), BuildingBlock: XIVTED_clean_linker_0, # of connection points: 2
#     Edge 16, Type (0, 0), BuildingBlock: XIVTED_clean_linker_0, # of connection points: 2
#     Edge 17, Type (0, 0), BuildingBlock: XIVTED_clean_linker_0, # of connection points: 2
#     Edge 18, Type (0, 0), BuildingBlock: XIVTED_clean_linker_0, # of connection points: 2
#     Edge 19, Type (0, 0), BuildingBlock: XIVTED_clean_linker_0, # of connection points: 2
#     Edge 20, Type (0, 0), BuildingBlock: XIVTED_clean_linker_0, # of connection points: 2
#     Edge 21, Type (0, 0), BuildingBlock: XIVTED_clean_linker_0, # of connection points: 2
#     Edge 22, Type (0, 0), BuildingBlock: XIVTED_clean_linker_0, # of connection points: 2
#     Edge 23, Type (0, 0), BuildingBlock: XIVTED_clean_linker_0, # of connection points: 2
#     Edge 24, Type (0, 0), BuildingBlock: XIVTED_clean_linker_0, # of connection points: 2
#     Edge 25, Type (0, 0), BuildingBlock: XIVTED_clean_linker_0, # of connection points: 2
#     Edge 26, Type (0, 0), BuildingBlock: XIVTED_clean_linker_0, # of connection points: 2
#     Edge 27, Type (0, 0), BuildingBlock: XIVTED_clean_linker_0, # of connection points: 2
#     Edge 28, Type (0, 0), BuildingBlock: XIVTED_clean_linker_0, # of connection points: 2
#     Edge 29, Type (0, 0), BuildingBlock: XIVTED_clean_linker_0, # of connection points: 2
#     Edge 30, Type (0, 0), BuildingBlock: XIVTED_clean_linker_0, # of connection points: 2
#     Edge 31, Type (0, 0), BuildingBlock: XIVTED_clean_linker_0, # of connection points: 2
#     Edge 32, Type (0, 0), BuildingBlock: XIVTED_clean_linker_0, # of connection points: 2
#     Edge 33, Type (0, 0), BuildingBlock: XIVTED_clean_linker_0, # of connection points: 2
#     Edge 34, Type (0, 0), BuildingBlock: XIVTED_clean_linker_0, # of connection points: 2
#     Edge 35, Type (0, 0), BuildingBlock: XIVTED_clean_linker_0, # of connection points: 2
#     Edge 36, Type (0, 0), BuildingBlock: XIVTED_clean_linker_0, # of connection points: 2
#     Edge 37, Type (0, 0), BuildingBlock: XIVTED_clean_linker_0, # of connection points: 2
#     Edge 38, Type (0, 0), BuildingBlock: XIVTED_clean_linker_0, # of connection points: 2
#     Edge 39, Type (0, 0), BuildingBlock: XIVTED_clean_linker_0, # of connection points: 2
#     Edge 40, Type (0, 0), BuildingBlock: XIVTED_clean_linker_0, # of connection points: 2
#     Edge 41, Type (0, 0), BuildingBlock: XIVTED_clean_linker_0, # of connection points: 2
#     Edge 42, Type (0, 0), BuildingBlock: XIVTED_clean_linker_0, # of connection points: 2
#     Edge 43, Type (0, 0), BuildingBlock: XIVTED_clean_linker_0, # of connection points: 2
#     Edge 44, Type (0, 0), BuildingBlock: XIVTED_clean_linker_0, # of connection points: 2
#     Edge 45, Type (0, 0), BuildingBlock: XIVTED_clean_linker_0, # of connection points: 2
#     Edge 46, Type (0, 0), BuildingBlock: XIVTED_clean_linker_0, # of connection points: 2
#     Edge 47, Type (0, 0), BuildingBlock: XIVTED_clean_linker_0, # of connection points: 2
# Relax obj value: 0.718
# Max RMSD: 0.170
# Mean RMSD: 0.170
data_MOF--net-wkj--node1-INOVEN_clean_sbu_0--edge1-XIVTED_clean_linker_0
_symmetry_space_group_name_H-M    P1
_symmetry_Int_Tables_number       1
_symmetry_cell_setting            triclinic
loop_
_symmetry_equiv_pos_as_xyz
'x, y, z'
_cell_length_a     48.543282
_cell_length_b     48.552008
_cell_length_c     30.162847
_cell_angle_alpha  89.953846
_cell_angle_beta   90.049537
_cell_angle_gamma 120.09307
loop_
_atom_site_label
_atom_site_type_symbol
_atom_site_fract_x
_atom_site_fract_y
_atom_site_fract_z
_atom_type_partial_charge
Gd0 Gd 0.47259 0.10104 0.38109 0.0
Gd1 Gd 0.53 0.10417 0.36618 0.0
C2 C 0.52346 0.11467 0.46882 0.0
C3 C 0.41925 0.09588 0.40731 0.0
C4 C 0.39375 0.0782 0.43956 0.0
C5 C 0.37993 0.09371 0.46156 0.0
C6 C 0.38227 0.04576 0.44754 0.0
C7 C 0.34333 0.04453 0.49925 0.0
C8 C 0.35714 0.02904 0.47695 0.0
C9 C 0.355 0.07705 0.49146 0.0
C10 C 0.51203 0.15545 0.33447 0.0
C11 C 0.47642 0.06691 0.28764 0.0
C12 C 0.58593 0.12455 0.3328 0.0
C13 C 0.60429 0.15306 0.30502 0.0
C14 C 0.61658 0.15049 0.26424 0.0
C15 C 0.60545 0.18182 0.3159 0.0
C16 C 0.62667 0.20327 0.24303 0.0
C17 C 0.61671 0.20671 0.28534 0.0
C18 C 0.62768 0.17536 0.23349 0.0
C19 C 0.48907 0.05041 0.41161 0.0
O20 O 0.49401 0.10719 0.45479 0.0
O21 O 0.54406 0.1179 0.43798 0.0
O22 O 0.44689 0.11713 0.42295 0.0
O23 O 0.42161 0.0793 0.37516 0.0
O24 O 0.48303 0.13517 0.32448 0.0
O25 O 0.51969 0.14465 0.36774 0.0
O26 O 0.50686 0.08029 0.29922 0.0
O27 O 0.45695 0.06997 0.31606 0.0
O28 O 0.56012 0.10174 0.31469 0.0
O29 O 0.58131 0.12986 0.37368 0.0
O30 O 0.51979 0.06507 0.41573 0.0
O31 O 0.48182 0.06211 0.37984 0.0
H32 H 0.38847 0.11873 0.45563 0.0
H33 H 0.39273 0.03333 0.43115 0.0
H34 H 0.3491 0.00416 0.48319 0.0
H35 H 0.34485 0.08953 0.50849 0.0
H36 H 0.61568 0.12849 0.25503 0.0
H37 H 0.59595 0.1845 0.34705 0.0
H38 H 0.61596 0.22798 0.29399 0.0
H39 H 0.63475 0.17162 0.20104 0.0
Gd40 Gd 0.37019 0.47513 0.70518 0.0
Gd41 Gd 0.42449 0.53189 0.69406 0.0
C42 C 0.40294 0.5251 0.79453 0.0
C43 C 0.32115 0.42139 0.72882 0.0
C44 C 0.31369 0.39595 0.76078 0.0
C45 C 0.28207 0.37586 0.77395 0.0
C46 C 0.33787 0.39115 0.77762 0.0
C47 C 0.29879 0.34617 0.82073 0.0
C48 C 0.33044 0.36636 0.8072 0.0
C49 C 0.27464 0.35119 0.804 0.0
C50 C 0.35581 0.51571 0.66076 0.0
C51 C 0.41229 0.47917 0.6155 0.0
C52 C 0.46134 0.5878 0.66131 0.0
C53 C 0.45329 0.61246 0.65089 0.0
C54 C 0.46644 0.63119 0.61305 0.0
C55 C 0.42651 0.61113 0.67085 0.0
C56 C 0.42137 0.64011 0.60867 0.0
C57 C 0.41081 0.62511 0.65008 0.0
C58 C 0.45069 0.64505 0.59213 0.0
C59 C 0.43605 0.49095 0.74097 0.0
O60 O 0.38316 0.49522 0.7797 0.0
O61 O 0.41963 0.54652 0.76404 0.0
O62 O 0.32743 0.44878 0.74508 0.0
O63 O 0.34067 0.42426 0.69726 0.0
O64 O 0.34815 0.48742 0.64832 0.0
O65 O 0.3738 0.52248 0.69451 0.0
O66 O 0.4311 0.50857 0.63045 0.0
O67 O 0.38664 0.46044 0.6401 0.0
O68 O 0.4458 0.56229 0.6371 0.0
O69 O 0.46189 0.58117 0.70312 0.0
O70 O 0.45166 0.52158 0.74592 0.0
O71 O 0.41824 0.4837 0.70773 0.0
H72 H 0.26318 0.37935 0.7611 0.0
H73 H 0.36246 0.40664 0.768 0.0
H74 H 0.34963 0.36353 0.82047 0.0
H75 H 0.25013 0.33607 0.81418 0.0
H76 H 0.48691 0.63224 0.59698 0.0
H77 H 0.41582 0.59657 0.7 0.0
H78 H 0.38869 0.6214 0.6642 0.0
H79 H 0.45965 0.65629 0.56028 0.0
Gd80 Gd 0.89221 0.37003 1.04747 0.0
Gd81 Gd 0.88442 0.42231 1.03202 0.0
C82 C 0.87514 0.40436 0.13588 0.0
C83 C 0.90146 0.32379 1.07045 0.0
C84 C 0.91121 0.31114 1.10739 0.0
C85 C 0.92513 0.29255 1.09803 0.0
C86 C 0.90804 0.31824 0.15143 0.0
C87 C 0.93454 0.28975 0.17641 0.0
C88 C 0.91951 0.30746 0.18578 0.0
C89 C 0.93683 0.28199 0.13229 0.0
C90 C 0.83721 0.3517 1.0007 0.0
C91 C 0.92349 0.4083 0.95239 0.0
C92 C 0.86072 0.45556 1.00052 0.0
C93 C 0.8368 0.44663 0.96547 0.0
C94 C 0.82636 0.41774 0.94325 0.0
C95 C 0.82154 0.46423 0.95775 0.0
C96 C 0.78506 0.42352 0.90632 0.0
C97 C 0.79596 0.45288 0.9279 0.0
C98 C 0.80075 0.40626 0.91411 0.0
C99 C 0.93857 0.43808 1.07772 0.0
O100 O 0.88358 0.38312 1.12158 0.0
O101 O 0.87197 0.42204 1.10517 0.0
O102 O 0.87405 0.32251 1.07386 0.0
O103 O 0.92354 0.35052 1.0535 0.0
O104 O 0.85935 0.34576 0.98959 0.0
O105 O 0.84697 0.37018 1.03409 0.0
O106 O 0.90792 0.42341 0.96367 0.0
O107 O 0.92222 0.38673 0.98135 0.0
O108 O 0.88848 0.4599 0.98837 0.0
O109 O 0.84976 0.4377 1.03568 0.0
O110 O 0.92207 0.45217 1.08285 0.0
O111 O 0.92803 0.4195 1.04538 0.0
H112 H 0.92767 0.28689 1.06407 0.0
H113 H 0.8975 0.33276 0.15913 0.0
H114 H 0.91799 0.31428 0.21948 0.0
H115 H 0.94833 0.26842 1.12426 0.0
H116 H 0.8377 0.40371 0.94912 0.0
H117 H 0.82904 0.48635 0.97525 0.0
H118 H 0.78447 0.46677 0.92214 0.0
H119 H 0.79355 0.38402 0.8971 0.0
Gd120 Gd 0.51794 0.89385 0.37972 0.0
Gd121 Gd 0.45905 0.88942 0.36393 0.0
C122 C 0.46755 0.88122 0.46774 0.0
C123 C 0.57223 0.9002 0.40321 0.0
C124 C 0.59391 0.9086 0.44087 0.0
C125 C 0.62629 0.9202 0.43262 0.0
C126 C 0.58319 0.90676 0.48445 0.0
C127 C 0.63769 0.93025 0.51112 0.0
C128 C 0.60496 0.91738 0.51943 0.0
C129 C 0.6481 0.93107 0.4675 0.0
C130 C 0.47873 0.83984 0.33293 0.0
C131 C 0.5126 0.92539 0.28435 0.0
C132 C 0.40258 0.86678 0.33138 0.0
C133 C 0.3855 0.83925 0.30148 0.0
C134 C 0.37114 0.84198 0.26271 0.0
C135 C 0.38676 0.81126 0.30885 0.0
C136 C 0.36305 0.79086 0.23671 0.0
C137 C 0.37548 0.78727 0.27695 0.0
C138 C 0.35998 0.81799 0.23058 0.0
C139 C 0.50001 0.94401 0.40689 0.0
O140 O 0.49631 0.8868 0.45327 0.0
O141 O 0.44699 0.87907 0.43729 0.0
O142 O 0.54533 0.87335 0.40565 0.0
O143 O 0.56903 0.92327 0.38668 0.0
O144 O 0.50744 0.86068 0.32196 0.0
O145 O 0.47102 0.85023 0.36661 0.0
O146 O 0.48213 0.9122 0.29611 0.0
O147 O 0.53228 0.92273 0.3129 0.0
O148 O 0.42743 0.89158 0.3145 0.0
O149 O 0.40801 0.8601 0.37116 0.0
O150 O 0.46928 0.9296 0.41122 0.0
O151 O 0.50705 0.9315 0.37599 0.0
H152 H 0.63484 0.92171 0.39902 0.0
H153 H 0.55824 0.89803 0.49125 0.0
H154 H 0.59639 0.91703 0.55269 0.0
H155 H 0.67316 0.94087 0.4603 0.0
H156 H 0.37013 0.86341 0.25622 0.0
H157 H 0.39787 0.80847 0.33835 0.0
H158 H 0.37791 0.76659 0.28294 0.0
H159 H 0.35097 0.82178 0.19969 0.0
Gd160 Gd 0.6199 0.52321 0.70634 0.0
Gd161 Gd 0.56616 0.4646 0.69431 0.0
C162 C 0.58772 0.47295 0.79556 0.0
C163 C 0.66797 0.57804 0.72814 0.0
C164 C 0.68103 0.59974 0.76582 0.0
C165 C 0.70042 0.63239 0.75769 0.0
C166 C 0.67322 0.58863 0.80946 0.0
C167 C 0.70245 0.64311 0.83651 0.0
C168 C 0.68401 0.61019 0.84462 0.0
C169 C 0.711 0.65399 0.7928 0.0
C170 C 0.63515 0.48357 0.66186 0.0
C171 C 0.5783 0.51721 0.61505 0.0
C172 C 0.53191 0.40819 0.66189 0.0
C173 C 0.54146 0.38426 0.65479 0.0
C174 C 0.52953 0.36416 0.618 0.0
C175 C 0.56848 0.38756 0.67682 0.0
C176 C 0.57627 0.3578 0.61826 0.0
C177 C 0.58563 0.37418 0.65887 0.0
C178 C 0.5467 0.35085 0.59994 0.0
C179 C 0.55259 0.50425 0.73991 0.0
O180 O 0.60757 0.5028 0.78068 0.0
O181 O 0.57121 0.45128 0.76518 0.0
O182 O 0.66818 0.55133 0.7308 0.0
O183 O 0.64151 0.5744 0.71167 0.0
O184 O 0.64147 0.51139 0.64849 0.0
O185 O 0.61748 0.47648 0.69603 0.0
O186 O 0.5593 0.48798 0.63072 0.0
O187 O 0.60416 0.5362 0.63919 0.0
O188 O 0.54781 0.43354 0.63741 0.0
O189 O 0.52932 0.41508 0.70294 0.0
O190 O 0.53719 0.47355 0.74439 0.0
O191 O 0.57099 0.51204 0.70726 0.0
H192 H 0.70661 0.64125 0.72406 0.0
H193 H 0.65807 0.56346 0.81623 0.0
H194 H 0.67657 0.60121 0.87796 0.0
H195 H 0.72514 0.67922 0.78573 0.0
H196 H 0.5089 0.36157 0.60038 0.0
H197 H 0.57821 0.40319 0.70523 0.0
H198 H 0.60792 0.37948 0.67431 0.0
H199 H 0.5386 0.33846 0.56862 0.0
Gd200 Gd 0.10177 0.62735 1.0454 0.0
Gd201 Gd 0.10662 0.57377 1.03204 0.0
C202 C 0.11759 0.59285 0.13466 0.0
C203 C 0.09549 0.67547 1.06801 0.0
C204 C 0.08688 0.68852 1.10567 0.0
C205 C 0.07465 0.70875 1.09754 0.0
C206 C 0.08933 0.68 0.14925 0.0
C207 C 0.06537 0.71038 0.17624 0.0
C208 C 0.07877 0.69101 0.18436 0.0
C209 C 0.06385 0.71957 0.13259 0.0
C210 C 0.1566 0.64315 0.99996 0.0
C211 C 0.06605 0.58668 0.95344 0.0
C212 C 0.12772 0.53887 0.9982 0.0
C213 C 0.15954 0.54847 0.98092 0.0
C214 C 0.16269 0.53186 0.94527 0.0
C215 C 0.18573 0.57769 0.99391 0.0
C216 C 0.21586 0.5764 0.93038 0.0
C217 C 0.21377 0.59144 0.96903 0.0
C218 C 0.19068 0.54564 0.92024 0.0
C219 C 0.053 0.5598 1.07701 0.0
O220 O 0.109 0.61383 1.11981 0.0
O221 O 0.12191 0.57585 1.10417 0.0
O222 O 0.12224 0.67535 1.07089 0.0
O223 O 0.07252 0.64925 1.05114 0.0
O224 O 0.13499 0.6495 0.98738 0.0
O225 O 0.14615 0.62514 1.03383 0.0
O226 O 0.07715 0.56816 0.96801 0.0
O227 O 0.07233 0.61193 0.97856 0.0
O228 O 0.11244 0.54979 0.97538 0.0
O229 O 0.12554 0.54192 1.04076 0.0
O230 O 0.068 0.54412 1.08127 0.0
O231 O 0.06406 0.57856 1.04489 0.0
H232 H 0.07266 0.7155 1.06394 0.0
H233 H 0.09855 0.6642 0.156 0.0
H234 H 0.07963 0.68304 0.21762 0.0
H235 H 0.0536 0.73443 1.12552 0.0
H236 H 0.14263 0.50945 0.93455 0.0
H237 H 0.18369 0.59103 1.02125 0.0
H238 H 0.23282 0.61493 0.9781 0.0
H239 H 0.19119 0.53344 0.89049 0.0
Gd240 Gd 0.89594 0.52442 0.56108 0.0
Gd241 Gd 0.89006 0.46563 0.57538 0.0
C242 C 0.87733 0.47294 0.47333 0.0
C243 C 0.90326 0.57918 0.53777 0.0
C244 C 0.91226 0.60056 0.49973 0.0
C245 C 0.92074 0.63238 0.50665 0.0
C246 C 0.91421 0.59015 0.45721 0.0
C247 C 0.93524 0.64401 0.42912 0.0
C248 C 0.92553 0.61173 0.42207 0.0
C249 C 0.93224 0.65403 0.47158 0.0
C250 C 0.84076 0.48581 0.60591 0.0
C251 C 0.93062 0.51907 0.65398 0.0
C252 C 0.86655 0.40918 0.60805 0.0
C253 C 0.83263 0.38559 0.61284 0.0
C254 C 0.82258 0.36539 0.64966 0.0
C255 C 0.81016 0.38947 0.58833 0.0
C256 C 0.77009 0.36034 0.64454 0.0
C257 C 0.77901 0.37671 0.60389 0.0
C258 C 0.79147 0.35267 0.6653 0.0
C259 C 0.94389 0.50444 0.52984 0.0
O260 O 0.88776 0.50307 0.48724 0.0
O261 O 0.8716 0.45165 0.50459 0.0
O262 O 0.87625 0.55252 0.53504 0.0
O263 O 0.9259 0.57549 0.55479 0.0
O264 O 0.86254 0.51369 0.6187 0.0
O265 O 0.85111 0.47805 0.57218 0.0
O266 O 0.91906 0.48923 0.63996 0.0
O267 O 0.92524 0.53828 0.62794 0.0
O268 O 0.87548 0.43448 0.63241 0.0
O269 O 0.87764 0.41617 0.56769 0.0
O270 O 0.92825 0.47372 0.52604 0.0
O271 O 0.93322 0.51269 0.56188 0.0
H272 H 0.91931 0.64066 0.53945 0.0
H273 H 0.90793 0.56565 0.4515 0.0
H274 H 0.92815 0.60344 0.38987 0.0
H275 H 0.93949 0.67872 0.47785 0.0
H276 H 0.83963 0.36234 0.66916 0.0
H277 H 0.81749 0.40517 0.55983 0.0
H278 H 0.76304 0.38258 0.58663 0.0
H279 H 0.78572 0.34023 0.69674 0.0
Gd280 Gd 0.36793 0.90143 0.89425 0.0
Gd281 Gd 0.42574 0.90381 0.90616 0.0
C282 C 0.40448 0.88976 0.80358 0.0
C283 C 0.3158 0.90009 0.87202 0.0
C284 C 0.30152 0.90631 0.83333 0.0
C285 C 0.28125 0.91875 0.8396 0.0
C286 C 0.30901 0.90143 0.79026 0.0
C287 C 0.27755 0.92328 0.75993 0.0
C288 C 0.29699 0.90972 0.75384 0.0
C289 C 0.2694 0.92729 0.80314 0.0
C290 C 0.3592 0.85032 0.94393 0.0
C291 C 0.40862 0.93806 0.9854 0.0
C292 C 0.46682 0.88597 0.92088 0.0
C293 C 0.46005 0.85301 0.92545 0.0
C294 C 0.47341 0.84546 0.96122 0.0
C295 C 0.43348 0.82844 0.90363 0.0
C296 C 0.42801 0.79143 0.96191 0.0
C297 C 0.41778 0.79773 0.92146 0.0
C298 C 0.45756 0.81487 0.97934 0.0
C299 C 0.43193 0.96022 0.87456 0.0
O300 O 0.3803 0.89351 0.81913 0.0
O301 O 0.4251 0.89097 0.83323 0.0
O302 O 0.31958 0.87527 0.86984 0.0
O303 O 0.34025 0.92504 0.88949 0.0
O304 O 0.35137 0.87094 0.95582 0.0
O305 O 0.37586 0.86075 0.90891 0.0
O306 O 0.42375 0.92251 0.97551 0.0
O307 O 0.38754 0.9367 0.95542 0.0
O308 O 0.45411 0.8944 0.95233 0.0
O309 O 0.46271 0.89483 0.88172 0.0
O310 O 0.45174 0.95864 0.9021 0.0
O311 O 0.41243 0.93236 0.86442 0.0
H312 H 0.27528 0.92264 0.87274 0.0
H313 H 0.32482 0.89208 0.78477 0.0
H314 H 0.30424 0.90699 0.72095 0.0
H315 H 0.25452 0.93772 0.8087 0.0
H316 H 0.49382 0.86407 0.9786 0.0
H317 H 0.42268 0.83364 0.87583 0.0
H318 H 0.39569 0.78003 0.90631 0.0
H319 H 0.46652 0.81117 1.01031 0.0
Gd320 Gd 0.47299 0.37342 0.2226 0.0
Gd321 Gd 0.53292 0.42692 0.23628 0.0
C322 C 0.52365 0.40724 0.13356 0.0
C323 C 0.41779 0.32649 0.19946 0.0
C324 C 0.39804 0.31313 0.16001 0.0
C325 C 0.36631 0.28883 0.1648 0.0
C326 C 0.41012 0.32517 1.11787 0.0
C327 C 0.35818 0.28965 1.08548 0.0
C328 C 0.39035 0.31347 1.08084 0.0
C329 C 0.34645 0.27717 1.12778 0.0
C330 C 0.5113 0.35761 0.26958 0.0
C331 C 0.48002 0.41295 0.31612 0.0
C332 C 0.58992 0.46104 0.26762 0.0
C333 C 0.60927 0.45042 0.29187 0.0
C334 C 0.62665 0.46715 0.3293 0.0
C335 C 0.60719 0.42124 0.28112 0.0
C336 C 0.63606 0.42368 0.34824 0.0
C337 C 0.62066 0.40814 0.30884 0.0
C338 C 0.63997 0.45393 0.35727 0.0
C339 C 0.49315 0.44135 0.19186 0.0
O340 O 0.49438 0.38561 0.14866 0.0
O341 O 0.54487 0.42537 0.16353 0.0
O342 O 0.44358 0.3245 0.20137 0.0
O343 O 0.42246 0.35416 0.21228 0.0
O344 O 0.48306 0.35106 0.28118 0.0
O345 O 0.51934 0.37526 0.23531 0.0
O346 O 0.51039 0.42946 0.30339 0.0
O347 O 0.45973 0.38996 0.28873 0.0
O348 O 0.56467 0.45717 0.28844 0.0
O349 O 0.58401 0.45226 0.2263 0.0
O350 O 0.52384 0.45677 0.18725 0.0
O351 O 0.48574 0.4226 0.2239 0.0
H352 H 0.35674 0.27935 0.1973 0.0
H353 H 0.43455 0.34409 1.11375 0.0
H354 H 0.39994 0.32406 1.04883 0.0
H355 H 0.32183 0.2588 0.13229 0.0
H356 H 0.62831 0.48953 0.33832 0.0
H357 H 0.5937 0.40769 0.25251 0.0
H358 H 0.61749 0.38501 0.30063 0.0
H359 H 0.65123 0.46639 0.38764 0.0
Gd360 Gd 0.09553 0.47243 0.56128 0.0
Gd361 Gd 0.09897 0.52998 0.57321 0.0
C362 C 0.11347 0.52309 0.47213 0.0
C363 C 0.09048 0.41833 0.53972 0.0
C364 C 0.08264 0.3965 0.50238 0.0
C365 C 0.07015 0.36402 0.51105 0.0
C366 C 0.08594 0.40724 0.45854 0.0
C367 C 0.06202 0.35264 0.43234 0.0
C368 C 0.07583 0.38543 0.4237 0.0
C369 C 0.0598 0.34218 0.47626 0.0
C370 C 0.14999 0.51274 0.60652 0.0
C371 C 0.05879 0.47679 0.65233 0.0
C372 C 0.11962 0.58585 0.60679 0.0
C373 C 0.1528 0.60958 0.61693 0.0
C374 C 0.15939 0.62896 0.65427 0.0
C375 C 0.17748 0.60685 0.59699 0.0
C376 C 0.21287 0.63633 0.65789 0.0
C377 C 0.20738 0.62032 0.61717 0.0
C378 C 0.18925 0.64237 0.67454 0.0
C379 C 0.04616 0.48949 0.52683 0.0
O380 O 0.10381 0.49322 0.48682 0.0
O381 O 0.11781 0.54433 0.50273 0.0
O382 O 0.11699 0.4455 0.53715 0.0
O383 O 0.06704 0.42114 0.55559 0.0
O384 O 0.12867 0.48478 0.61973 0.0
O385 O 0.13937 0.51959 0.5722 0.0
O386 O 0.06877 0.50598 0.63669 0.0
O387 O 0.06617 0.45825 0.62815 0.0
O388 O 0.10888 0.5601 0.63068 0.0
O389 O 0.11209 0.57963 0.56499 0.0
O390 O 0.0613 0.52015 0.52194 0.0
O391 O 0.05683 0.48215 0.55986 0.0
H392 H 0.06753 0.35546 0.54484 0.0
H393 H 0.09537 0.43226 0.45137 0.0
H394 H 0.07725 0.39407 0.39017 0.0
H395 H 0.04922 0.31706 0.48372 0.0
H396 H 0.14056 0.63102 0.67038 0.0
H397 H 0.17279 0.59173 0.56828 0.0
H398 H 0.22514 0.61563 0.60308 0.0
H399 H 0.19236 0.65436 0.70596 0.0
Gd400 Gd 0.62376 0.09333 0.89355 0.0
Gd401 Gd 0.56669 0.09217 0.90579 0.0
C402 C 0.5876 0.10629 0.80348 0.0
C403 C 0.67525 0.09327 0.87171 0.0
C404 C 0.6889 0.08492 0.8344 0.0
C405 C 0.70786 0.07129 0.84318 0.0
C406 C 0.68146 0.08812 0.7905 0.0
C407 C 0.70963 0.06155 0.76467 0.0
C408 C 0.69194 0.07668 0.75582 0.0
C409 C 0.71808 0.05955 0.80857 0.0
C410 C 0.63372 0.14481 0.94354 0.0
C411 C 0.58227 0.05602 0.98381 0.0
C412 C 0.52655 0.11107 0.92148 0.0
C413 C 0.53394 0.14414 0.92686 0.0
C414 C 0.5188 0.15128 0.96065 0.0
C415 C 0.56211 0.16877 0.90823 0.0
C416 C 0.56463 0.20483 0.96591 0.0
C417 C 0.57723 0.19902 0.92742 0.0
C418 C 0.53396 0.18149 0.97999 0.0
C419 C 0.55895 0.03541 0.87284 0.0
O420 O 0.61138 0.10166 0.81853 0.0
O421 O 0.56747 0.10563 0.83341 0.0
O422 O 0.67162 0.11806 0.86689 0.0
O423 O 0.651 0.06926 0.89109 0.0
O424 O 0.6412 0.12386 0.95509 0.0
O425 O 0.61692 0.13462 0.90863 0.0
O426 O 0.5677 0.07214 0.97435 0.0
O427 O 0.60343 0.05745 0.95402 0.0
O428 O 0.53898 0.10195 0.95254 0.0
O429 O 0.5305 0.10255 0.88202 0.0
O430 O 0.53953 0.0374 0.90062 0.0
O431 O 0.57911 0.0632 0.86334 0.0
H432 H 0.71376 0.06865 0.877 0.0
H433 H 0.66661 0.09834 0.78312 0.0
H434 H 0.68459 0.07798 0.72233 0.0
H435 H 0.73164 0.04797 0.81618 0.0
H436 H 0.4972 0.13257 0.97565 0.0
H437 H 0.57434 0.16378 0.88217 0.0
H438 H 0.60048 0.21665 0.9152 0.0
H439 H 0.52341 0.18496 1.00952 0.0
Gd440 Gd 0.51749 0.6229 0.22187 0.0
Gd441 Gd 0.45867 0.56872 0.23338 0.0
C442 C 0.46746 0.59071 1.13214 0.0
C443 C 0.57216 0.67144 0.20071 0.0
C444 C 0.59427 0.68481 0.1635 0.0
C445 C 0.62688 0.70374 0.17237 0.0
C446 C 0.58361 0.67763 1.11959 0.0
C447 C 0.63843 0.70648 1.09376 0.0
C448 C 0.60557 0.68856 1.0849 0.0
C449 C 0.64887 0.71444 0.13774 0.0
C450 C 0.47776 0.63697 0.26859 0.0
C451 C 0.51101 0.58231 0.31398 0.0
C452 C 0.40199 0.53275 0.26458 0.0
C453 C 0.38103 0.5431 0.28445 0.0
C454 C 0.36291 0.52739 0.32189 0.0
C455 C 0.38382 0.57221 0.27143 0.0
C456 C 0.35534 0.57244 0.33751 0.0
C457 C 0.3709 0.58664 0.29757 0.0
C458 C 0.35006 0.54189 0.34818 0.0
C459 C 0.49943 0.55627 0.18771 0.0
O460 O 0.49718 0.61094 0.14731 0.0
O461 O 0.4459 0.57331 0.16213 0.0
O462 O 0.54526 0.67124 0.19746 0.0
O463 O 0.56876 0.64512 0.21733 0.0
O464 O 0.50594 0.64377 0.28081 0.0
O465 O 0.47054 0.61988 0.2339 0.0
O466 O 0.48105 0.56487 0.29997 0.0
O467 O 0.53098 0.60641 0.28786 0.0
O468 O 0.42771 0.54056 0.28731 0.0
O469 O 0.40784 0.53844 0.22241 0.0
O470 O 0.46883 0.5408 0.18237 0.0
O471 O 0.50638 0.57407 0.22078 0.0
H472 H 0.6354 0.70945 0.20621 0.0
H473 H 0.55848 0.66282 1.11224 0.0
H474 H 0.59692 0.68157 1.05133 0.0
H475 H 0.67404 0.72818 0.14537 0.0
H476 H 0.3608 0.50513 0.33271 0.0
H477 H 0.39796 0.58496 0.2428 0.0
H478 H 0.37511 0.60998 0.28815 0.0
H479 H 0.33856 0.53038 0.37896 0.0
H480 H 0.5207 0.18444 0.25387 0.0
H481 H 0.50947 0.33122 0.35017 0.0
H482 H 0.52686 0.20447 0.39361 0.0
H483 H 0.53542 0.32882 0.2144 0.0
H484 H 0.51698 0.28592 0.36682 0.0
H485 H 0.52762 0.23729 0.23836 0.0
C486 C 0.52433 0.2003 0.28132 0.0
C487 C 0.52374 0.19001 0.32513 0.0
C488 C 0.52157 0.29552 0.3335 0.0
C489 C 0.53022 0.2505 0.30762 0.0
C490 C 0.51742 0.32159 0.32398 0.0
C491 C 0.52211 0.33428 0.28087 0.0
C492 C 0.52969 0.28106 0.29947 0.0
C493 C 0.53193 0.32028 0.24824 0.0
C494 C 0.52806 0.23048 0.27243 0.0
C495 C 0.52781 0.21147 0.35931 0.0
N496 N 0.53486 0.29425 0.258 0.0
N497 N 0.53035 0.24029 0.3499 0.0
H498 H 0.33176 0.52117 0.58136 0.0
H499 H 0.17727 0.51305 0.68602 0.0
H500 H 0.32376 0.53258 0.72137 0.0
H501 H 0.20134 0.53558 0.54836 0.0
H502 H 0.2307 0.52113 0.69988 0.0
H503 H 0.2853 0.52758 0.56829 0.0
C504 C 0.32069 0.52577 0.60935 0.0
C505 C 0.33223 0.52677 0.65252 0.0
C506 C 0.2246 0.5248 0.66672 0.0
C507 C 0.27752 0.53276 0.63788 0.0
C508 C 0.19401 0.52032 0.65877 0.0
C509 C 0.18457 0.52388 0.61598 0.0
C510 C 0.24612 0.53205 0.6314 0.0
C511 C 0.20744 0.53293 0.582 0.0
C512 C 0.29392 0.52924 0.60185 0.0
C513 C 0.31627 0.53219 0.68746 0.0
N514 N 0.23674 0.53615 0.59026 0.0
N515 N 0.28961 0.53443 0.67947 0.0
H516 H 0.80999 0.3251 0.92091 0.0
H517 H 0.65934 0.17241 1.02363 0.0
H518 H 0.78689 0.31954 1.05953 0.0
H519 H 0.66441 0.1956 0.88504 0.0
H520 H 0.70537 0.22554 1.0378 0.0
H521 H 0.75744 0.27815 0.90692 0.0
C522 C 0.79362 0.3144 0.94836 0.0
C523 C 0.80299 0.32685 0.99141 0.0
C524 C 0.6962 0.21932 1.00435 0.0
C525 C 0.74256 0.27168 0.9758 0.0
C526 C 0.66968 0.18892 0.99623 0.0
C527 C 0.65742 0.17935 0.9531 0.0
C528 C 0.71163 0.24044 0.96893 0.0
C529 C 0.67248 0.20185 0.91893 0.0
C530 C 0.76354 0.2874 0.94034 0.0
C531 C 0.78071 0.31135 1.02568 0.0
N532 N 0.69889 0.23091 0.92743 0.0
N533 N 0.75196 0.2845 1.01727 0.0
H534 H 0.47589 0.66116 0.3495 0.0
H535 H 0.47427 0.8127 0.25205 0.0
H536 H 0.45707 0.66781 0.21161 0.0
H537 H 0.45957 0.78909 0.39082 0.0
H538 H 0.46673 0.7597 0.23627 0.0
H539 H 0.46871 0.70677 0.36556 0.0
C540 C 0.46955 0.67179 0.32267 0.0
C541 C 0.46677 0.66021 0.27917 0.0
C542 C 0.46456 0.76577 0.27012 0.0
C543 C 0.45971 0.71377 0.29714 0.0
C544 C 0.4687 0.79607 0.27915 0.0
C545 C 0.46714 0.80542 0.3228 0.0
C546 C 0.45975 0.74462 0.30511 0.0
C547 C 0.46045 0.78289 0.35659 0.0
C548 C 0.4656 0.69802 0.33186 0.0
C549 C 0.45901 0.67546 0.24574 0.0
N550 N 0.45755 0.75392 0.34716 0.0
N551 N 0.4563 0.70162 0.25526 0.0
H552 H 0.66044 0.48074 0.58213 0.0
H553 H 0.81469 0.4883 0.68489 0.0
H554 H 0.66679 0.46531 0.72137 0.0
H555 H 0.78866 0.46166 0.54861 0.0
H556 H 0.76165 0.48111 0.69883 0.0
H557 H 0.70698 0.47453 0.56851 0.0
C558 C 0.6712 0.47536 0.6098 0.0
C559 C 0.65919 0.47319 0.65295 0.0
C560 C 0.76724 0.47632 0.66599 0.0
C561 C 0.71388 0.46732 0.6377 0.0
C562 C 0.7976 0.48031 0.658 0.0
C563 C 0.80636 0.47531 0.61556 0.0
C564 C 0.7452 0.46796 0.63111 0.0
C565 C 0.78307 0.4654 0.582 0.0
C566 C 0.69797 0.47196 0.60198 0.0
C567 C 0.6747 0.46671 0.68748 0.0
N568 N 0.75393 0.46257 0.59029 0.0
N569 N 0.70138 0.46458 0.67924 0.0
H570 H 0.33296 0.823 1.02382 0.0
H571 H 0.18504 0.66849 0.92033 0.0
H572 H 0.33009 0.79894 0.88594 0.0
H573 H 0.20617 0.67574 1.05983 0.0
H574 H 0.23765 0.71543 0.90682 0.0
H575 H 0.28731 0.76968 1.03794 0.0
C576 C 0.3232 0.80627 0.99659 0.0
C577 C 0.33593 0.81568 0.95366 0.0
C578 C 0.23112 0.70654 0.94035 0.0
C579 C 0.28222 0.75425 0.96942 0.0
C580 C 0.20102 0.67952 0.9481 0.0
C581 C 0.19104 0.66759 0.99126 0.0
C582 C 0.2515 0.7228 0.97614 0.0
C583 C 0.21281 0.68353 1.02591 0.0
C584 C 0.29688 0.77576 1.00467 0.0
C585 C 0.32163 0.79285 0.9197 0.0
N586 N 0.24158 0.71041 1.01772 0.0
N587 N 0.29544 0.76361 0.92815 0.0
H588 H 0.55143 0.24197 1.0216 0.0
H589 H 0.59185 0.23266 0.22823 0.0
H590 H 0.6269 0.22407 0.98461 0.0
H591 H 0.67 0.22486 0.1744 0.0
H592 H 0.58781 0.25566 0.15954 0.0
H593 H 0.57801 0.26325 1.09199 0.0
C594 C 0.57401 0.24323 1.02787 0.0
C595 C 0.58601 0.22969 0.99797 0.0
C596 C 0.60641 0.24975 0.16241 0.0
C597 C 0.61605 0.25262 1.07957 0.0
C598 C 0.60892 0.23669 0.20235 0.0
C599 C 0.63059 0.22568 0.20671 0.0
C600 C 0.62535 0.25127 1.12614 0.0
C601 C 0.65206 0.23181 0.17191 0.0
C602 C 0.58913 0.25506 1.06856 0.0
C603 C 0.61607 0.23332 1.00698 0.0
N604 N 0.64837 0.24343 0.13278 0.0
N605 N 0.62949 0.24347 1.04749 0.0
H606 H 0.30559 0.5538 0.39642 0.0
H607 H 0.35714 0.5993 0.60017 0.0
H608 H 0.3952 0.63509 0.35809 0.0
H609 H 0.43377 0.68618 0.54541 0.0
H610 H 0.32712 0.59092 0.53328 0.0
H611 H 0.30812 0.58013 0.4662 0.0
C612 C 0.32555 0.57744 0.40241 0.0
C613 C 0.35082 0.59161 0.37209 0.0
C614 C 0.35001 0.61241 0.5357 0.0
C615 C 0.3548 0.62152 0.45289 0.0
C616 C 0.3673 0.61744 0.57472 0.0
C617 C 0.39885 0.64276 0.57778 0.0
C618 C 0.36461 0.63261 0.49918 0.0
C619 C 0.41015 0.66548 0.54368 0.0
C620 C 0.3272 0.59248 0.44262 0.0
C621 C 0.3754 0.6228 0.38072 0.0
N622 N 0.3935 0.65932 0.50522 0.0
N623 N 0.37717 0.63628 0.42076 0.0
H624 H 0.7348 0.36292 0.89636 0.0
H625 H 0.75174 0.40537 0.64844 0.0
H626 H 0.77704 0.45683 0.83915 0.0
H627 H 0.72884 0.31418 0.70321 0.0
H628 H 0.73114 0.41662 0.71495 0.0
H629 H 0.70557 0.34059 0.82742 0.0
C630 C 0.73715 0.37893 0.86971 0.0
C631 C 0.7594 0.4116 0.87262 0.0
C632 C 0.72964 0.3937 0.71185 0.0
C633 C 0.72629 0.38624 0.79381 0.0
C634 C 0.74117 0.38698 0.67348 0.0
C635 C 0.74394 0.35952 0.67134 0.0
C636 C 0.72153 0.37313 0.74833 0.0
C637 C 0.7289 0.33649 0.7046 0.0
C638 C 0.72035 0.36618 0.83045 0.0
C639 C 0.76074 0.4314 0.83787 0.0
N640 N 0.71949 0.34431 0.74263 0.0
N641 N 0.74515 0.41831 0.79932 0.0
H642 H 0.36347 0.76787 0.96884 0.0
H643 H 0.31558 0.76758 0.17354 0.0
H644 H 0.43893 0.75612 1.02444 0.0
H645 H 0.39982 0.76518 0.21302 0.0
H646 H 0.31689 0.74492 1.10237 0.0
H647 H 0.33301 0.7462 1.03532 0.0
C648 C 0.37341 0.75979 0.99443 0.0
C649 C 0.40487 0.76572 0.99176 0.0
C650 C 0.33502 0.74891 1.12642 0.0
C651 C 0.37033 0.74235 1.07022 0.0
C652 C 0.33413 0.76185 0.16738 0.0
C653 C 0.35825 0.76941 0.19874 0.0
C654 C 0.36074 0.74423 1.11642 0.0
C655 C 0.38094 0.7603 0.18972 0.0
C656 C 0.35593 0.74775 1.03334 0.0
C657 C 0.41557 0.75377 1.02595 0.0
N658 N 0.38204 0.74894 0.14909 0.0
N659 N 0.39887 0.74379 1.06442 0.0
H660 H 0.6869 0.44661 0.4062 0.0
H661 H 0.64 0.40116 0.61056 0.0
H662 H 0.60013 0.3608 0.37099 0.0
H663 H 0.56743 0.31086 0.55846 0.0
H664 H 0.67031 0.41047 0.54376 0.0
H665 H 0.68796 0.42197 0.47602 0.0
C666 C 0.66831 0.4224 0.41291 0.0
C667 C 0.64269 0.40633 0.38344 0.0
C668 C 0.6483 0.3881 0.54678 0.0
C669 C 0.64291 0.37818 0.46424 0.0
C670 C 0.63087 0.38254 0.58577 0.0
C671 C 0.60008 0.35593 0.58926 0.0
C672 C 0.63452 0.36713 0.51081 0.0
C673 C 0.59027 0.33255 0.55621 0.0
C674 C 0.66876 0.40828 0.4531 0.0
C675 C 0.62008 0.37452 0.39292 0.0
N676 N 0.60685 0.3392 0.51766 0.0
N677 N 0.62029 0.36185 0.43291 0.0
H678 H 0.24734 0.55666 0.87379 0.0
H679 H 0.23491 0.59468 0.66857 0.0
H680 H 0.23922 0.63873 0.90716 0.0
H681 H 0.24897 0.68433 0.71747 0.0
H682 H 0.25829 0.58834 0.73526 0.0
H683 H 0.27017 0.58099 0.80251 0.0
C684 C 0.25091 0.58007 0.86645 0.0
C685 C 0.23995 0.59493 0.89576 0.0
C686 C 0.25745 0.61003 0.73144 0.0
C687 C 0.26473 0.62245 0.81332 0.0
C688 C 0.24411 0.61381 0.69259 0.0
C689 C 0.23852 0.63943 0.68813 0.0
C690 C 0.2648 0.63182 0.7664 0.0
C691 C 0.25144 0.66345 0.72039 0.0
C692 C 0.2637 0.59392 0.82538 0.0
C693 C 0.24653 0.62586 0.88538 0.0
N694 N 0.26302 0.65857 0.75878 0.0
N695 N 0.25763 0.63814 0.84457 0.0
H696 H 0.3802 0.97059 1.02775 0.0
H697 H 0.50567 0.04112 0.23591 0.0
H698 H 0.45621 0.95069 1.0482 0.0
H699 H 0.42012 0.04686 0.23518 0.0
H700 H 0.48858 0.0106 0.1667 0.0
H701 H 0.39459 0.00028 1.09895 0.0
C702 C 0.39992 0.97225 1.04672 0.0
C703 C 0.41664 0.95732 1.03018 0.0
C704 C 0.47344 0.01861 0.18098 0.0
C705 C 0.43394 0.99266 1.11441 0.0
C706 C 0.48329 0.03633 0.22138 0.0
C707 C 0.46476 0.04737 0.2432 0.0
C708 C 0.44468 0.01164 0.15954 0.0
C709 C 0.43573 0.03934 0.22094 0.0
C710 C 0.40819 0.98943 1.08805 0.0
C711 C 0.44205 0.96116 1.05808 0.0
N712 N 0.42698 0.02259 0.18106 0.0
N713 N 0.44965 0.97804 1.09754 0.0
H714 H 0.51597 0.45996 0.37951 0.0
H715 H 0.37629 0.42362 0.56234 0.0
H716 H 0.41893 0.38636 0.35833 0.0
H717 H 0.46895 0.50765 0.565 0.0
H718 H 0.39111 0.4073 0.49254 0.0
H719 H 0.49988 0.47403 0.44923 0.0
C720 C 0.49113 0.44658 0.38896 0.0
C721 C 0.46922 0.42156 0.361 0.0
C722 C 0.40837 0.42933 0.50823 0.0
C723 C 0.44975 0.43878 0.44427 0.0
C724 C 0.39983 0.43882 0.54884 0.0
C725 C 0.42101 0.46753 0.57145 0.0
C726 C 0.4389 0.44806 0.48866 0.0
C727 C 0.45119 0.48546 0.55025 0.0
C728 C 0.48179 0.45499 0.4295 0.0
C729 C 0.4373 0.40577 0.37736 0.0
N730 N 0.45893 0.47552 0.51138 0.0
N731 N 0.42884 0.41448 0.41691 0.0
H732 H 0.03287 0.50661 0.70363 0.0
H733 H 0.95631 0.38008 0.91064 0.0
H734 H 0.03704 0.42024 0.70569 0.0
H735 H 0.93756 0.45664 0.8886 0.0
H736 H 0.98745 0.39461 0.84079 0.0
H737 H 0.00172 0.48975 0.7724 0.0
C738 C 0.02743 0.48401 0.71806 0.0
C739 C 0.03849 0.46529 0.69668 0.0
C740 C 0.97657 0.40835 0.85091 0.0
C741 C 0.00095 0.44518 0.77964 0.0
C742 C 0.95844 0.39996 0.89157 0.0
C743 C 0.94328 0.41669 0.90751 0.0
C744 C 0.98073 0.43435 0.82429 0.0
C745 C 0.94803 0.44237 0.87932 0.0
C746 C 0.00912 0.47425 0.75816 0.0
C747 C 0.02963 0.4361 0.71934 0.0
N748 N 0.96587 0.45011 0.84046 0.0
N749 N 0.01197 0.42732 0.75863 0.0
H750 H 0.57223 0.95145 0.23966 0.0
H751 H 0.52859 0.03537 1.03699 0.0
H752 H 0.48059 0.94378 0.22365 0.0
H753 H 0.61387 0.02914 1.03349 0.0
H754 H 0.513 0.00438 1.10578 0.0
H755 H 0.58945 0.98124 0.16875 0.0
C756 C 0.55549 0.95582 0.22167 0.0
C757 C 0.52443 0.94425 0.23934 0.0
C758 C 0.53522 0.00976 1.09055 0.0
C759 C 0.54484 0.97985 0.15549 0.0
C760 C 0.54439 0.02777 1.05043 0.0
C761 C 0.573 0.0357 1.02761 0.0
C762 C 0.55461 -0.0008 1.11065 0.0
C763 C 0.5916 0.02413 1.04853 0.0
C764 C 0.56552 0.97307 0.18052 0.0
C765 C 0.50462 0.95151 0.21275 0.0
N766 N 0.58235 0.00707 1.08818 0.0
N767 N 0.51502 0.96851 0.17341 0.0
H768 H 0.61413 0.57266 0.56173 0.0
H769 H 0.47537 0.53382 0.37577 0.0
H770 H 0.52185 0.48812 0.56395 0.0
H771 H 0.57152 0.61039 0.35815 0.0
H772 H 0.49128 0.51992 0.4459 0.0
H773 H 0.59935 0.58869 0.49158 0.0
C774 C 0.59068 0.55726 0.54803 0.0
C775 C 0.5696 0.52851 0.57063 0.0
C776 C 0.50923 0.53959 0.42685 0.0
C777 C 0.55177 0.54762 0.4874 0.0
C778 C 0.49999 0.54788 0.38608 0.0
C779 C 0.5217 0.57368 0.359 0.0
C780 C 0.54099 0.55669 0.44272 0.0
C781 C 0.55331 0.59034 0.37645 0.0
C782 C 0.58216 0.5666 0.50723 0.0
C783 C 0.53953 0.51035 0.5492 0.0
N784 N 0.5617 0.58171 0.41617 0.0
N785 N 0.53182 0.52012 0.51011 0.0
H786 H 0.03629 0.52918 0.90587 0.0
H787 H 0.9636 0.58044 0.6953 0.0
H788 H 0.04711 0.62249 0.89763 0.0
H789 H 0.94389 0.48486 0.71833 0.0
H790 H 0.99465 0.59715 0.76532 0.0
H791 H 0.00409 0.51413 0.83801 0.0
C792 C 0.0323 0.54689 0.89 0.0
C793 C 0.0454 0.57759 0.90947 0.0
C794 C 0.98354 0.57244 0.75537 0.0
C795 C 0.00736 0.55978 0.82703 0.0
C796 C 0.96549 0.56267 0.71463 0.0
C797 C 0.95032 0.53071 0.6988 0.0
C798 C 0.98723 0.55048 0.78237 0.0
C799 C 0.95459 0.5097 0.72736 0.0
C800 C 0.01355 0.53804 0.85027 0.0
C801 C 0.03813 0.59855 0.88539 0.0
N802 N 0.97204 0.51978 0.76649 0.0
N803 N 0.02028 0.58949 0.8463 0.0
H804 H 0.44577 0.98583 0.40567 0.0
H805 H 0.51947 0.93463 0.4928 0.0
H806 H 0.47596 0.06177 0.49961 0.0
H807 H 0.53756 0.00981 0.40369 0.0
H808 H 0.49354 0.95342 0.54468 0.0
H809 H 0.44382 0.95181 0.46701 0.0
C810 C 0.45195 0.99573 0.43878 0.0
C811 C 0.46683 0.02867 0.44568 0.0
C812 C 0.50472 0.96678 0.51483 0.0
C813 C 0.47174 0.99214 0.51006 0.0
C814 C 0.51783 0.95518 0.48411 0.0
C815 C 0.5224 0.9664 0.44022 0.0
C816 C 0.50209 0.99302 0.50255 0.0
C817 C 0.52974 -0.00212 0.43538 0.0
C818 C 0.45112 0.97641 0.47405 0.0
C819 C 0.47177 0.03881 0.49017 0.0
N820 N 0.51864 0.01021 0.46623 0.0
N821 N 0.47525 0.02071 0.52148 0.0
H822 H 0.45725 0.44768 0.73697 0.0
H823 H 0.58039 0.52064 0.8262 0.0
H824 H 0.41044 0.47878 0.82776 0.0
H825 H 0.52495 0.54234 0.73888 0.0
H826 H 0.53509 0.49354 0.8767 0.0
H827 H 0.48828 0.44579 0.79969 0.0
C828 C 0.45294 0.45381 0.76975 0.0
C829 C 0.4348 0.46867 0.77545 0.0
C830 C 0.5334 0.50584 0.84775 0.0
C831 C 0.47493 0.47336 0.8418 0.0
C832 C 0.55857 0.51988 0.81776 0.0
C833 C 0.55261 0.52596 0.77425 0.0
C834 C 0.50471 0.5037 0.83552 0.0
C835 C 0.52857 0.53349 0.77002 0.0
C836 C 0.47081 0.45299 0.80585 0.0
C837 C 0.42884 0.47374 0.81952 0.0
N838 N 0.50458 0.52127 0.80014 0.0
N839 N 0.44972 0.47697 0.85183 0.0
H840 H 0.00221 0.45686 1.06793 0.0
H841 H 0.06296 0.58517 0.16504 0.0
H842 H 0.9291 0.41794 0.16708 0.0
H843 H 0.98752 0.53428 1.07356 0.0
H844 H 0.04387 0.53724 0.21109 0.0
H845 H 0.03988 0.48791 1.1267 0.0
C846 C 0.99377 0.45435 1.10174 0.0
C847 C 0.96113 0.43874 1.11118 0.0
C848 C 0.03057 0.53701 0.18211 0.0
C849 C 0.00229 0.47844 0.17355 0.0
C850 C 0.04215 0.56365 0.15475 0.0
C851 C 0.03102 0.5597 1.11087 0.0
C852 C 0.00392 0.5092 0.16757 0.0
C853 C -0.00063 0.53627 1.1048 0.0
C854 C 0.01524 0.47201 0.13568 0.0
C855 C 0.9525 0.43471 0.15625 0.0
N856 N 0.98696 0.51081 0.1324 0.0
N857 N 0.97321 0.45509 0.18672 0.0
H858 H 0.98149 0.44665 0.53086 0.0
H859 H 0.93283 0.52102 0.44323 0.0
H860 H 0.05937 0.47721 0.43993 0.0
H861 H 0.00973 0.54124 0.53053 0.0
H862 H 0.95072 0.49422 0.3921 0.0
H863 H 0.94887 0.44581 0.4685 0.0
C864 C 0.99197 0.45283 0.49809 0.0
C865 C 0.02499 0.46731 0.49236 0.0
C866 C 0.96472 0.50614 0.42122 0.0
C867 C 0.98998 0.47311 0.42641 0.0
C868 C 0.95369 0.51993 0.45167 0.0
C869 C 0.96579 0.52569 0.49518 0.0
C870 C 0.99108 0.50362 0.43315 0.0
C871 C -0.00275 0.5328 0.49931 0.0
C872 C 0.97344 0.45259 0.46216 0.0
C873 C 0.03602 0.47249 0.44828 0.0
N874 N 0.00886 0.52075 0.46875 0.0
N875 N 0.01863 0.47633 0.41619 0.0
H876 H 0.47905 0.02463 0.87498 0.0
H877 H 0.51138 0.9712 0.87246 0.0
H878 H 0.40672 0.95373 0.79068 0.0
H879 H 0.58225 0.04293 0.78751 0.0
H880 H 0.47615 0.9506 0.80831 0.0
H881 H 0.51301 0.04625 0.80978 0.0
C882 C 0.46999 0.01385 0.84291 0.0
C883 C 0.44181 0.98458 0.83934 0.0
C884 C 0.49976 0.97087 0.80344 0.0
C885 C 0.48284 0.00462 0.7696 0.0
C886 C 0.51984 0.98242 0.84046 0.0
C887 C 0.54806 0.01163 0.83673 0.0
C888 C 0.50562 0.99275 0.76863 0.0
C889 C 0.55859 0.02309 0.79336 0.0
C890 C 0.48933 0.026 0.80528 0.0
C891 C 0.43042 0.97369 0.79605 0.0
N892 N 0.53649 0.01507 0.76084 0.0
N893 N 0.45186 0.98231 0.76253 0.0
H894 H 0.54492 0.53795 0.19373 0.0
H895 H 0.4758 0.41305 1.10525 0.0
H896 H 0.51078 0.58035 1.09997 0.0
H897 H 0.45388 0.46758 0.19353 0.0
H898 H 0.50158 0.45831 1.05419 0.0
H899 H 0.54936 0.5075 0.13229 0.0
C900 C 0.5386 0.54141 0.16058 0.0
C901 C 0.52206 0.55782 0.1536 0.0
C902 C 0.4896 0.45978 1.0836 0.0
C903 C 0.52052 0.51833 1.08867 0.0
C904 C 0.47666 0.43483 1.11398 0.0
C905 C 0.47102 0.44081 0.15767 0.0
C906 C 0.49085 0.48804 1.09575 0.0
C907 C 0.4625 0.4641 0.16214 0.0
C908 C 0.54098 0.52394 1.12516 0.0
C909 C 0.51691 0.56291 1.10914 0.0
N910 N 0.47337 0.48771 1.1315 0.0
N911 N 0.51556 0.5425 1.0774 0.0
H912 H 0.25557 0.89609 0.67863 0.0
H913 H 0.29 0.98565 0.49289 0.0
H914 H 0.28221 0.98152 0.7534 0.0
H915 H 0.34116 0.06394 0.5833 0.0
H916 H 0.25727 0.95296 0.55439 0.0
H917 H 0.25727 0.92398 0.61103 0.0
C918 C 0.26086 0.92053 0.68083 0.0
C919 C 0.2695 0.93675 0.7214 0.0
C920 C 0.2756 0.97724 0.56098 0.0
C921 C 0.27133 0.96914 0.64408 0.0
C922 C 0.29408 0.99597 0.52575 0.0
C923 C 0.31888 0.02714 0.53342 0.0
C924 C 0.28267 0.98963 0.60425 0.0
C925 C 0.32256 0.03984 0.57613 0.0
C926 C 0.26157 0.93654 0.64211 0.0
C927 C 0.27563 0.9682 0.72269 0.0
N928 N 0.30512 0.02079 0.61015 0.0
N929 N 0.27721 0.98361 0.6844 0.0
H930 H 0.29788 0.28089 1.08217 0.0
H931 H 0.26308 0.33455 0.89557 0.0
H932 H 0.36917 0.27757 1.00071 0.0
H933 H 0.31949 0.30328 0.82448 0.0
H934 H 0.26401 0.30539 0.96027 0.0
H935 H 0.26834 0.27839 1.01568 0.0
C936 C 0.30705 0.27907 1.05025 0.0
C937 C 0.3366 0.28056 1.04681 0.0
C938 C 0.27531 0.30373 0.93035 0.0
C939 C 0.3038 0.27944 0.97029 0.0
C940 C 0.27474 0.32054 0.89319 0.0
C941 C 0.29195 0.32195 0.85516 0.0
C942 C 0.29339 0.28838 0.92931 0.0
C943 C 0.30668 0.30346 0.85374 0.0
C944 C 0.29038 0.27819 1.01207 0.0
C945 C 0.34707 0.27769 1.00472 0.0
N946 N 0.30764 0.28799 0.89063 0.0
N947 N 0.33101 0.27791 0.96807 0.0
H948 H 0.91215 0.26521 0.25887 0.0
H949 H 0.0851 0.35265 0.34954 0.0
H950 H 0.99498 0.29975 0.17515 0.0
H951 H 0.00248 0.30063 0.43269 0.0
H952 H 0.05344 0.32292 0.2854 0.0
H953 H 0.94427 0.26679 0.32223 0.0
C954 C 0.93697 0.27247 0.25376 0.0
C955 C 0.95117 0.28305 0.21211 0.0
C956 C 0.04238 0.31736 0.31782 0.0
C957 C 0.98817 0.28548 0.28423 0.0
C958 C 0.06046 0.33441 0.35436 0.0
C959 C 0.04613 0.32955 0.39612 0.0
C960 C 0.00963 0.29594 0.32311 0.0
C961 C 0.01434 0.30529 0.40091 0.0
C962 C 0.95531 0.27327 0.28982 0.0
C963 C 0.9832 0.29165 0.20687 0.0
N964 N -0.00309 0.28992 0.3646 0.0
N965 N 0.00085 0.29342 0.24278 0.0
H966 H 0.73247 0.08234 0.681 0.0
H967 H 0.63686 0.90845 0.59511 0.0
H968 H 0.69795 0.00057 0.7669 0.0
H969 H 0.69088 0.98895 0.50908 0.0
H970 H 0.66814 0.94047 0.65813 0.0
H971 H 0.72756 0.04869 0.61787 0.0
C972 C 0.72459 0.05743 0.68662 0.0
C973 C 0.71497 0.04402 0.72889 0.0
C974 C 0.67374 0.95095 0.62533 0.0
C975 C 0.70865 0.00528 0.65705 0.0
C976 C 0.6558 0.93269 0.58945 0.0
C977 C 0.66091 0.94634 0.54716 0.0
C978 C 0.69638 0.98325 0.61887 0.0
C979 C 0.68604 0.97761 0.54129 0.0
C980 C 0.72184 0.03821 0.65066 0.0
C981 C 0.70539 0.01178 0.7347 0.0
N982 N 0.70237 0.99529 0.57695 0.0
N983 N 0.70172 0.9933 0.69896 0.0
H984 H 0.6398 0.7304 1.01107 0.0
H985 H 0.72514 0.64298 0.91958 0.0
H986 H 0.68886 0.69652 1.09439 0.0
H987 H 0.69377 0.69435 0.83652 0.0
H988 H 0.72291 0.67242 0.98379 0.0
H989 H 0.66956 0.72816 0.94726 0.0
C990 C 0.65739 0.72317 1.016 0.0
C991 C 0.66144 0.71298 1.0577 0.0
C992 C 0.71727 0.67788 0.95138 0.0
C993 C 0.6951 0.70978 0.98506 0.0
C994 C 0.71846 0.66099 0.91481 0.0
C995 C 0.70896 0.66581 0.87302 0.0
C996 C 0.70579 0.69913 0.94612 0.0
C997 C 0.70105 0.68976 0.86831 0.0
C998 C 0.67446 0.72198 0.97966 0.0
C999 C 0.68486 0.70435 1.06265 0.0
N1000 N 0.6989 0.70501 0.90464 0.0
N1001 N 0.70029 0.70221 1.02651 0.0
H1002 H 0.08778 0.73146 0.2599 0.0
H1003 H 0.99001 0.70166 0.43536 0.0
H1004 H 0.00631 0.70394 0.17546 0.0
H1005 H 0.91851 0.6396 0.34166 0.0
H1006 H 0.02346 0.73353 0.37382 0.0
H1007 H 0.05596 0.72892 0.32373 0.0
C1008 C 0.06341 0.72584 0.25474 0.0
C1009 C 0.04944 0.71732 0.21263 0.0
C1010 C 0.00038 0.71309 0.3667 0.0
C1011 C 0.01278 0.71457 0.28531 0.0
C1012 C 0.98105 0.69513 0.40184 0.0
C1013 C 0.95187 0.66741 0.3934 0.0
C1014 C 0.99049 0.70289 0.32304 0.0
C1015 C 0.94132 0.66024 0.34944 0.0
C1016 C 0.04525 0.72472 0.29116 0.0
C1017 C 0.01793 0.71054 0.20748 0.0
N1018 N 0.96089 0.67756 0.3158 0.0
N1019 N 0.00038 0.70847 0.24362 0.0
H1020 H 0.57829 0.11767 0.50384 0.0
H1021 H 0.53643 0.10963 0.76774 0.0
H1022 H 0.49196 0.11173 0.55134 0.0
H1023 H 0.61921 0.10767 0.72131 0.0
H1024 H 0.52136 0.11187 0.6908 0.0
H1025 H 0.59406 0.11581 0.58078 0.0
C1026 C 0.56243 0.11623 0.5301 0.0
C1027 C 0.53336 0.11511 0.51891 0.0
C1028 C 0.54293 0.11108 0.69692 0.0
C1029 C 0.55218 0.11275 0.61108 0.0
C1030 C 0.5519 0.10986 0.74173 0.0
C1031 C 0.57976 0.10868 0.75327 0.0
C1032 C 0.5616 0.11131 0.66086 0.0
C1033 C 0.59774 0.10877 0.71588 0.0
C1034 C 0.57168 0.11501 0.57484 0.0
C1035 C 0.51457 0.11289 0.5565 0.0
N1036 N 0.58853 0.11013 0.67246 0.0
N1037 N 0.52418 0.11186 0.59973 0.0
H1038 H 0.37186 0.49207 0.87467 0.0
H1039 H 0.50075 0.62217 1.05215 0.0
H1040 H 0.45274 0.58046 0.83341 0.0
H1041 H 0.41252 0.5408 1.09279 0.0
H1042 H 0.48509 0.60695 0.9737 0.0
H1043 H 0.38694 0.50815 0.95298 0.0
C1044 C 0.39269 0.51494 0.88144 0.0
C1045 C 0.41049 0.53461 0.84522 0.0
C1046 C 0.46894 0.59234 0.99961 0.0
C1047 C 0.42887 0.55373 0.93842 0.0
C1048 C 0.47798 0.60123 1.04522 0.0
C1049 C 0.45821 0.58334 1.08131 0.0
C1050 C 0.43966 0.56475 0.98801 0.0
C1051 C 0.42903 0.5561 1.0677 0.0
C1052 C 0.40149 0.52425 0.92697 0.0
C1053 C 0.43754 0.564 0.85863 0.0
N1054 N 0.42103 0.5479 1.02349 0.0
N1055 N 0.44566 0.57227 0.90282 0.0
H1056 H 0.8718 0.45578 0.17241 0.0
H1057 H 0.87045 0.41649 0.43732 0.0
H1058 H 0.87632 0.37433 0.21853 0.0
H1059 H 0.88118 0.50503 0.39067 0.0
H1060 H 0.86979 0.39991 0.35999 0.0
H1061 H 0.87232 0.4721 0.24975 0.0
C1062 C 0.8726 0.44081 0.19839 0.0
C1063 C 0.87371 0.41295 0.1865 0.0
C1064 C 0.87215 0.42295 0.36616 0.0
C1065 C 0.87438 0.43259 0.27962 0.0
C1066 C 0.8724 0.43267 0.41121 0.0
C1067 C 0.87558 0.4626 0.4229 0.0
C1068 C 0.87481 0.44272 0.32991 0.0
C1069 C 0.8784 0.48174 0.38529 0.0
C1070 C 0.87305 0.45053 0.24348 0.0
C1071 C 0.87513 0.39573 0.22404 0.0
N1072 N 0.8778 0.47158 0.34178 0.0
N1073 N 0.87529 0.40558 0.26762 0.0
H1074 H 0.50025 0.88369 0.54848 0.0
H1075 H 0.37167 0.88841 0.72308 0.0
H1076 H 0.41373 0.87948 0.50549 0.0
H1077 H 0.45534 0.88649 0.76529 0.0
H1078 H 0.38641 0.88596 0.64491 0.0
H1079 H 0.48486 0.88544 0.62637 0.0
C1080 C 0.4779 0.88288 0.55479 0.0
C1081 C 0.45851 0.88103 0.51825 0.0
C1082 C 0.40163 0.88597 0.67116 0.0
C1083 C 0.44021 0.8835 0.61087 0.0
C1084 C 0.39303 0.88732 0.71658 0.0
C1085 C 0.41171 0.8874 0.75298 0.0
C1086 C 0.4296 0.88486 0.66014 0.0
C1087 C 0.43945 0.88626 0.73994 0.0
C1088 C 0.46902 0.884 0.60007 0.0
C1089 C 0.4299 0.88053 0.53102 0.0
N1090 N 0.44724 0.88511 0.69595 0.0
N1091 N 0.42196 0.88177 0.57495 0.0
H1092 H 0.61811 0.50667 0.87565 0.0
H1093 H 0.49065 0.37542 1.05356 0.0
H1094 H 0.53839 0.41733 0.8347 0.0
H1095 H 0.57771 0.45826 1.09409 0.0
H1096 H 0.50609 0.39076 0.97507 0.0
H1097 H 0.60303 0.49074 0.95402 0.0
C1098 C 0.59755 0.4836 0.88249 0.0
C1099 C 0.58013 0.46359 0.84633 0.0
C1100 C 0.52204 0.40567 1.00097 0.0
C1101 C 0.5617 0.44467 0.93963 0.0
C1102 C 0.51312 0.39671 1.04661 0.0
C1103 C 0.53267 0.41492 1.0827 0.0
C1104 C 0.55097 0.43366 0.9893 0.0
C1105 C 0.56142 0.44264 1.06903 0.0
C1106 C 0.58875 0.47439 0.92807 0.0
C1107 C 0.55335 0.43403 0.85986 0.0
N1108 N 0.56932 0.45088 1.02479 0.0
N1109 N 0.54522 0.42585 0.90407 0.0
H1110 H 0.11123 0.49046 0.39114 0.0
H1111 H 0.1152 0.62316 0.21557 0.0
H1112 H 0.11982 0.57893 0.43367 0.0
H1113 H 0.12106 0.54174 0.17318 0.0
H1114 H 0.1148 0.60685 0.29369 0.0
H1115 H 0.11271 0.50727 0.31302 0.0
C1116 C 0.11361 0.5135 0.38474 0.0
C1117 C 0.11567 0.53295 0.42135 0.0
C1118 C 0.1163 0.59245 0.26748 0.0
C1119 C 0.11693 0.55295 0.32817 0.0
C1120 C 0.11663 0.60198 0.22202 0.0
C1121 C 0.11857 0.58448 0.18546 0.0
C1122 C 0.11753 0.56455 0.27861 0.0
C1123 C 0.11991 0.55685 0.19859 0.0
C1124 C 0.11439 0.52323 0.33926 0.0
C1125 C 0.1184 0.56257 0.40824 0.0
N1126 N 0.11927 0.54804 0.24268 0.0
N1127 N 0.11881 0.57123 0.36413 0.0
loop_
_geom_bond_atom_site_label_1
_geom_bond_atom_site_label_2
_geom_bond_distance
_geom_bond_site_symmetry_2
_ccdc_geom_bond_type
Gd0 C3 2.818 . S
Gd0 O20 2.377 . S
Gd0 O22 2.448 . S
Gd0 O23 2.506 . S
Gd0 O24 2.435 . S
Gd0 O25 2.717 . S
Gd0 O27 2.395 . S
Gd0 O31 2.327 . S
Gd1 C12 2.818 . S
Gd1 O21 2.395 . S
Gd1 O25 2.327 . S
Gd1 O26 2.377 . S
Gd1 O28 2.448 . S
Gd1 O29 2.506 . S
Gd1 O30 2.435 . S
Gd1 O31 2.717 . S
C2 O20 1.240 . S
C2 O21 1.240 . S
C3 Gd0 2.818 . S
C3 C4 1.510 . S
C3 O22 1.249 . S
C3 O23 1.252 . S
C4 C3 1.510 . S
C4 C5 1.404 . S
C4 C6 1.352 . S
C5 C4 1.404 . S
C5 C9 1.389 . S
C5 H32 0.930 . S
C6 C4 1.352 . S
C6 C8 1.374 . S
C6 H33 0.931 . S
C7 C8 1.359 . S
C7 C9 1.364 . S
C8 C6 1.374 . S
C8 C7 1.359 . S
C8 H34 0.931 . S
C9 C5 1.389 . S
C9 C7 1.364 . S
C9 H35 0.931 . S
C10 O24 1.256 . S
C10 O25 1.257 . S
C11 O26 1.240 . S
C11 O27 1.240 . S
C12 Gd1 2.818 . S
C12 C13 1.510 . S
C12 O28 1.249 . S
C12 O29 1.252 . S
C13 C12 1.510 . S
C13 C14 1.404 . S
C13 C15 1.352 . S
C14 C13 1.404 . S
C14 C18 1.389 . S
C14 H36 0.930 . S
C15 C13 1.352 . S
C15 C17 1.374 . S
C15 H37 0.931 . S
C16 C17 1.359 . S
C16 C18 1.364 . S
C17 C15 1.374 . S
C17 C16 1.359 . S
C17 H38 0.931 . S
C18 C14 1.389 . S
C18 C16 1.364 . S
C18 H39 0.931 . S
C19 O30 1.256 . S
C19 O31 1.257 . S
O20 Gd0 2.377 . S
O20 C2 1.240 . S
O21 Gd1 2.395 . S
O21 C2 1.240 . S
O22 Gd0 2.448 . S
O22 C3 1.249 . S
O23 Gd0 2.506 . S
O23 C3 1.252 . S
O24 Gd0 2.435 . S
O24 C10 1.256 . S
O25 Gd0 2.717 . S
O25 Gd1 2.327 . S
O25 C10 1.257 . S
O26 Gd1 2.377 . S
O26 C11 1.240 . S
O27 Gd0 2.395 . S
O27 C11 1.240 . S
O28 Gd1 2.448 . S
O28 C12 1.249 . S
O29 Gd1 2.506 . S
O29 C12 1.252 . S
O30 Gd1 2.435 . S
O30 C19 1.256 . S
O31 Gd0 2.327 . S
O31 Gd1 2.717 . S
O31 C19 1.257 . S
H32 C5 0.930 . S
H33 C6 0.931 . S
H34 C8 0.931 . S
H35 C9 0.931 . S
H36 C14 0.930 . S
H37 C15 0.931 . S
H38 C17 0.931 . S
H39 C18 0.931 . S
Gd40 C43 2.818 . S
Gd40 O60 2.377 . S
Gd40 O62 2.448 . S
Gd40 O63 2.506 . S
Gd40 O64 2.435 . S
Gd40 O65 2.717 . S
Gd40 O67 2.395 . S
Gd40 O71 2.327 . S
Gd41 C52 2.818 . S
Gd41 O61 2.395 . S
Gd41 O65 2.327 . S
Gd41 O66 2.377 . S
Gd41 O68 2.448 . S
Gd41 O69 2.506 . S
Gd41 O70 2.435 . S
Gd41 O71 2.717 . S
C42 O60 1.240 . S
C42 O61 1.240 . S
C43 Gd40 2.818 . S
C43 C44 1.510 . S
C43 O62 1.249 . S
C43 O63 1.252 . S
C44 C43 1.510 . S
C44 C45 1.404 . S
C44 C46 1.352 . S
C45 C44 1.404 . S
C45 C49 1.389 . S
C45 H72 0.930 . S
C46 C44 1.352 . S
C46 C48 1.374 . S
C46 H73 0.931 . S
C47 C48 1.359 . S
C47 C49 1.364 . S
C48 C46 1.374 . S
C48 C47 1.359 . S
C48 H74 0.931 . S
C49 C45 1.389 . S
C49 C47 1.364 . S
C49 H75 0.931 . S
C50 O64 1.256 . S
C50 O65 1.257 . S
C51 O66 1.240 . S
C51 O67 1.240 . S
C52 Gd41 2.818 . S
C52 C53 1.510 . S
C52 O68 1.249 . S
C52 O69 1.252 . S
C53 C52 1.510 . S
C53 C54 1.404 . S
C53 C55 1.352 . S
C54 C53 1.404 . S
C54 C58 1.389 . S
C54 H76 0.930 . S
C55 C53 1.352 . S
C55 C57 1.374 . S
C55 H77 0.931 . S
C56 C57 1.359 . S
C56 C58 1.364 . S
C57 C55 1.374 . S
C57 C56 1.359 . S
C57 H78 0.931 . S
C58 C54 1.389 . S
C58 C56 1.364 . S
C58 H79 0.931 . S
C59 O70 1.256 . S
C59 O71 1.257 . S
O60 Gd40 2.377 . S
O60 C42 1.240 . S
O61 Gd41 2.395 . S
O61 C42 1.240 . S
O62 Gd40 2.448 . S
O62 C43 1.249 . S
O63 Gd40 2.506 . S
O63 C43 1.252 . S
O64 Gd40 2.435 . S
O64 C50 1.256 . S
O65 Gd40 2.717 . S
O65 Gd41 2.327 . S
O65 C50 1.257 . S
O66 Gd41 2.377 . S
O66 C51 1.240 . S
O67 Gd40 2.395 . S
O67 C51 1.240 . S
O68 Gd41 2.448 . S
O68 C52 1.249 . S
O69 Gd41 2.506 . S
O69 C52 1.252 . S
O70 Gd41 2.435 . S
O70 C59 1.256 . S
O71 Gd40 2.327 . S
O71 Gd41 2.717 . S
O71 C59 1.257 . S
H72 C45 0.930 . S
H73 C46 0.931 . S
H74 C48 0.931 . S
H75 C49 0.931 . S
H76 C54 0.930 . S
H77 C55 0.931 . S
H78 C57 0.931 . S
H79 C58 0.931 . S
Gd80 C83 2.818 1_556 S
Gd80 O100 2.377 . S
Gd80 O102 2.448 . S
Gd80 O103 2.506 . S
Gd80 O104 2.435 . S
Gd80 O105 2.717 . S
Gd80 O107 2.395 . S
Gd80 O111 2.327 . S
Gd81 C92 2.818 . S
Gd81 O101 2.395 . S
Gd81 O105 2.327 . S
Gd81 O106 2.377 . S
Gd81 O108 2.448 . S
Gd81 O109 2.506 . S
Gd81 O110 2.435 . S
Gd81 O111 2.717 . S
C82 O100 1.240 . S
C82 O101 1.240 . S
C83 Gd80 2.818 1_554 S
C83 C84 1.510 . S
C83 O102 1.249 1_554 S
C83 O103 1.252 1_554 S
C84 C83 1.510 . S
C84 C85 1.404 . S
C84 C86 1.352 . S
C85 C84 1.404 . S
C85 C89 1.389 . S
C85 H112 0.930 . S
C86 C84 1.352 . S
C86 C88 1.374 . S
C86 H113 0.931 . S
C87 C88 1.359 . S
C87 C89 1.364 . S
C88 C86 1.374 . S
C88 C87 1.359 . S
C88 H114 0.931 . S
C89 C85 1.389 . S
C89 C87 1.364 . S
C89 H115 0.931 . S
C90 O104 1.256 . S
C90 O105 1.257 . S
C91 O106 1.240 . S
C91 O107 1.240 . S
C92 Gd81 2.818 . S
C92 C93 1.510 . S
C92 O108 1.249 . S
C92 O109 1.252 . S
C93 C92 1.510 . S
C93 C94 1.404 . S
C93 C95 1.352 . S
C94 C93 1.404 . S
C94 C98 1.389 . S
C94 H116 0.930 . S
C95 C93 1.352 . S
C95 C97 1.374 . S
C95 H117 0.931 . S
C96 C97 1.359 . S
C96 C98 1.364 . S
C97 C95 1.374 . S
C97 C96 1.359 . S
C97 H118 0.931 . S
C98 C94 1.389 . S
C98 C96 1.364 . S
C98 H119 0.931 . S
C99 O110 1.256 . S
C99 O111 1.257 . S
O100 Gd80 2.377 . S
O100 C82 1.240 . S
O101 Gd81 2.395 . S
O101 C82 1.240 . S
O102 Gd80 2.448 . S
O102 C83 1.249 1_556 S
O103 Gd80 2.506 . S
O103 C83 1.252 1_556 S
O104 Gd80 2.435 . S
O104 C90 1.256 . S
O105 Gd80 2.717 . S
O105 Gd81 2.327 . S
O105 C90 1.257 . S
O106 Gd81 2.377 . S
O106 C91 1.240 . S
O107 Gd80 2.395 . S
O107 C91 1.240 . S
O108 Gd81 2.448 . S
O108 C92 1.249 . S
O109 Gd81 2.506 . S
O109 C92 1.252 . S
O110 Gd81 2.435 . S
O110 C99 1.256 . S
O111 Gd80 2.327 . S
O111 Gd81 2.717 . S
O111 C99 1.257 . S
H112 C85 0.930 . S
H113 C86 0.931 . S
H114 C88 0.931 . S
H115 C89 0.931 . S
H116 C94 0.930 . S
H117 C95 0.931 . S
H118 C97 0.931 . S
H119 C98 0.931 . S
Gd120 C123 2.818 . S
Gd120 O140 2.377 . S
Gd120 O142 2.448 . S
Gd120 O143 2.506 . S
Gd120 O144 2.435 . S
Gd120 O145 2.717 . S
Gd120 O147 2.395 . S
Gd120 O151 2.327 . S
Gd121 C132 2.818 . S
Gd121 O141 2.395 . S
Gd121 O145 2.327 . S
Gd121 O146 2.377 . S
Gd121 O148 2.448 . S
Gd121 O149 2.506 . S
Gd121 O150 2.435 . S
Gd121 O151 2.717 . S
C122 O140 1.240 . S
C122 O141 1.240 . S
C123 Gd120 2.818 . S
C123 C124 1.510 . S
C123 O142 1.249 . S
C123 O143 1.252 . S
C124 C123 1.510 . S
C124 C125 1.404 . S
C124 C126 1.352 . S
C125 C124 1.404 . S
C125 C129 1.389 . S
C125 H152 0.930 . S
C126 C124 1.352 . S
C126 C128 1.374 . S
C126 H153 0.931 . S
C127 C128 1.359 . S
C127 C129 1.364 . S
C128 C126 1.374 . S
C128 C127 1.359 . S
C128 H154 0.931 . S
C129 C125 1.389 . S
C129 C127 1.364 . S
C129 H155 0.931 . S
C130 O144 1.256 . S
C130 O145 1.257 . S
C131 O146 1.240 . S
C131 O147 1.240 . S
C132 Gd121 2.818 . S
C132 C133 1.510 . S
C132 O148 1.249 . S
C132 O149 1.252 . S
C133 C132 1.510 . S
C133 C134 1.404 . S
C133 C135 1.352 . S
C134 C133 1.404 . S
C134 C138 1.389 . S
C134 H156 0.930 . S
C135 C133 1.352 . S
C135 C137 1.374 . S
C135 H157 0.931 . S
C136 C137 1.359 . S
C136 C138 1.364 . S
C137 C135 1.374 . S
C137 C136 1.359 . S
C137 H158 0.931 . S
C138 C134 1.389 . S
C138 C136 1.364 . S
C138 H159 0.931 . S
C139 O150 1.256 . S
C139 O151 1.257 . S
O140 Gd120 2.377 . S
O140 C122 1.240 . S
O141 Gd121 2.395 . S
O141 C122 1.240 . S
O142 Gd120 2.448 . S
O142 C123 1.249 . S
O143 Gd120 2.506 . S
O143 C123 1.252 . S
O144 Gd120 2.435 . S
O144 C130 1.256 . S
O145 Gd120 2.717 . S
O145 Gd121 2.327 . S
O145 C130 1.257 . S
O146 Gd121 2.377 . S
O146 C131 1.240 . S
O147 Gd120 2.395 . S
O147 C131 1.240 . S
O148 Gd121 2.448 . S
O148 C132 1.249 . S
O149 Gd121 2.506 . S
O149 C132 1.252 . S
O150 Gd121 2.435 . S
O150 C139 1.256 . S
O151 Gd120 2.327 . S
O151 Gd121 2.717 . S
O151 C139 1.257 . S
H152 C125 0.930 . S
H153 C126 0.931 . S
H154 C128 0.931 . S
H155 C129 0.931 . S
H156 C134 0.930 . S
H157 C135 0.931 . S
H158 C137 0.931 . S
H159 C138 0.931 . S
Gd160 C163 2.818 . S
Gd160 O180 2.377 . S
Gd160 O182 2.448 . S
Gd160 O183 2.506 . S
Gd160 O184 2.435 . S
Gd160 O185 2.717 . S
Gd160 O187 2.395 . S
Gd160 O191 2.327 . S
Gd161 C172 2.818 . S
Gd161 O181 2.395 . S
Gd161 O185 2.327 . S
Gd161 O186 2.377 . S
Gd161 O188 2.448 . S
Gd161 O189 2.506 . S
Gd161 O190 2.435 . S
Gd161 O191 2.717 . S
C162 O180 1.240 . S
C162 O181 1.240 . S
C163 Gd160 2.818 . S
C163 C164 1.510 . S
C163 O182 1.249 . S
C163 O183 1.252 . S
C164 C163 1.510 . S
C164 C165 1.404 . S
C164 C166 1.352 . S
C165 C164 1.404 . S
C165 C169 1.389 . S
C165 H192 0.930 . S
C166 C164 1.352 . S
C166 C168 1.374 . S
C166 H193 0.931 . S
C167 C168 1.359 . S
C167 C169 1.364 . S
C168 C166 1.374 . S
C168 C167 1.359 . S
C168 H194 0.931 . S
C169 C165 1.389 . S
C169 C167 1.364 . S
C169 H195 0.931 . S
C170 O184 1.256 . S
C170 O185 1.257 . S
C171 O186 1.240 . S
C171 O187 1.240 . S
C172 Gd161 2.818 . S
C172 C173 1.510 . S
C172 O188 1.249 . S
C172 O189 1.252 . S
C173 C172 1.510 . S
C173 C174 1.404 . S
C173 C175 1.352 . S
C174 C173 1.404 . S
C174 C178 1.389 . S
C174 H196 0.930 . S
C175 C173 1.352 . S
C175 C177 1.374 . S
C175 H197 0.931 . S
C176 C177 1.359 . S
C176 C178 1.364 . S
C177 C175 1.374 . S
C177 C176 1.359 . S
C177 H198 0.931 . S
C178 C174 1.389 . S
C178 C176 1.364 . S
C178 H199 0.931 . S
C179 O190 1.256 . S
C179 O191 1.257 . S
O180 Gd160 2.377 . S
O180 C162 1.240 . S
O181 Gd161 2.395 . S
O181 C162 1.240 . S
O182 Gd160 2.448 . S
O182 C163 1.249 . S
O183 Gd160 2.506 . S
O183 C163 1.252 . S
O184 Gd160 2.435 . S
O184 C170 1.256 . S
O185 Gd160 2.717 . S
O185 Gd161 2.327 . S
O185 C170 1.257 . S
O186 Gd161 2.377 . S
O186 C171 1.240 . S
O187 Gd160 2.395 . S
O187 C171 1.240 . S
O188 Gd161 2.448 . S
O188 C172 1.249 . S
O189 Gd161 2.506 . S
O189 C172 1.252 . S
O190 Gd161 2.435 . S
O190 C179 1.256 . S
O191 Gd160 2.327 . S
O191 Gd161 2.717 . S
O191 C179 1.257 . S
H192 C165 0.930 . S
H193 C166 0.931 . S
H194 C168 0.931 . S
H195 C169 0.931 . S
H196 C174 0.930 . S
H197 C175 0.931 . S
H198 C177 0.931 . S
H199 C178 0.931 . S
Gd200 C203 2.818 1_556 S
Gd200 O220 2.377 . S
Gd200 O222 2.448 . S
Gd200 O223 2.506 . S
Gd200 O224 2.435 . S
Gd200 O225 2.717 . S
Gd200 O227 2.395 . S
Gd200 O231 2.327 . S
Gd201 C212 2.818 . S
Gd201 O221 2.395 . S
Gd201 O225 2.327 . S
Gd201 O226 2.377 . S
Gd201 O228 2.448 . S
Gd201 O229 2.506 . S
Gd201 O230 2.435 . S
Gd201 O231 2.717 . S
C202 O220 1.240 . S
C202 O221 1.240 . S
C203 Gd200 2.818 1_554 S
C203 C204 1.510 . S
C203 O222 1.249 1_554 S
C203 O223 1.252 1_554 S
C204 C203 1.510 . S
C204 C205 1.404 . S
C204 C206 1.352 . S
C205 C204 1.404 . S
C205 C209 1.389 . S
C205 H232 0.930 . S
C206 C204 1.352 . S
C206 C208 1.374 . S
C206 H233 0.931 . S
C207 C208 1.359 . S
C207 C209 1.364 . S
C208 C206 1.374 . S
C208 C207 1.359 . S
C208 H234 0.931 . S
C209 C205 1.389 . S
C209 C207 1.364 . S
C209 H235 0.931 . S
C210 O224 1.256 . S
C210 O225 1.257 . S
C211 O226 1.240 . S
C211 O227 1.240 . S
C212 Gd201 2.818 . S
C212 C213 1.510 . S
C212 O228 1.249 . S
C212 O229 1.252 . S
C213 C212 1.510 . S
C213 C214 1.404 . S
C213 C215 1.352 . S
C214 C213 1.404 . S
C214 C218 1.389 . S
C214 H236 0.930 . S
C215 C213 1.352 . S
C215 C217 1.374 . S
C215 H237 0.931 . S
C216 C217 1.359 . S
C216 C218 1.364 . S
C217 C215 1.374 . S
C217 C216 1.359 . S
C217 H238 0.931 . S
C218 C214 1.389 . S
C218 C216 1.364 . S
C218 H239 0.931 . S
C219 O230 1.256 . S
C219 O231 1.257 . S
O220 Gd200 2.377 . S
O220 C202 1.240 . S
O221 Gd201 2.395 . S
O221 C202 1.240 . S
O222 Gd200 2.448 . S
O222 C203 1.249 1_556 S
O223 Gd200 2.506 . S
O223 C203 1.252 1_556 S
O224 Gd200 2.435 . S
O224 C210 1.256 . S
O225 Gd200 2.717 . S
O225 Gd201 2.327 . S
O225 C210 1.257 . S
O226 Gd201 2.377 . S
O226 C211 1.240 . S
O227 Gd200 2.395 . S
O227 C211 1.240 . S
O228 Gd201 2.448 . S
O228 C212 1.249 . S
O229 Gd201 2.506 . S
O229 C212 1.252 . S
O230 Gd201 2.435 . S
O230 C219 1.256 . S
O231 Gd200 2.327 . S
O231 Gd201 2.717 . S
O231 C219 1.257 . S
H232 C205 0.930 . S
H233 C206 0.931 . S
H234 C208 0.931 . S
H235 C209 0.931 . S
H236 C214 0.930 . S
H237 C215 0.931 . S
H238 C217 0.931 . S
H239 C218 0.931 . S
Gd240 C243 2.818 . S
Gd240 O260 2.377 . S
Gd240 O262 2.448 . S
Gd240 O263 2.506 . S
Gd240 O264 2.435 . S
Gd240 O265 2.717 . S
Gd240 O267 2.395 . S
Gd240 O271 2.327 . S
Gd241 C252 2.818 . S
Gd241 O261 2.395 . S
Gd241 O265 2.327 . S
Gd241 O266 2.377 . S
Gd241 O268 2.448 . S
Gd241 O269 2.506 . S
Gd241 O270 2.435 . S
Gd241 O271 2.717 . S
C242 O260 1.240 . S
C242 O261 1.240 . S
C243 Gd240 2.818 . S
C243 C244 1.510 . S
C243 O262 1.249 . S
C243 O263 1.252 . S
C244 C243 1.510 . S
C244 C245 1.404 . S
C244 C246 1.352 . S
C245 C244 1.404 . S
C245 C249 1.389 . S
C245 H272 0.930 . S
C246 C244 1.352 . S
C246 C248 1.374 . S
C246 H273 0.931 . S
C247 C248 1.359 . S
C247 C249 1.364 . S
C248 C246 1.374 . S
C248 C247 1.359 . S
C248 H274 0.931 . S
C249 C245 1.389 . S
C249 C247 1.364 . S
C249 H275 0.931 . S
C250 O264 1.256 . S
C250 O265 1.257 . S
C251 O266 1.240 . S
C251 O267 1.240 . S
C252 Gd241 2.818 . S
C252 C253 1.510 . S
C252 O268 1.249 . S
C252 O269 1.252 . S
C253 C252 1.510 . S
C253 C254 1.404 . S
C253 C255 1.352 . S
C254 C253 1.404 . S
C254 C258 1.389 . S
C254 H276 0.930 . S
C255 C253 1.352 . S
C255 C257 1.374 . S
C255 H277 0.931 . S
C256 C257 1.359 . S
C256 C258 1.364 . S
C257 C255 1.374 . S
C257 C256 1.359 . S
C257 H278 0.931 . S
C258 C254 1.389 . S
C258 C256 1.364 . S
C258 H279 0.931 . S
C259 O270 1.256 . S
C259 O271 1.257 . S
O260 Gd240 2.377 . S
O260 C242 1.240 . S
O261 Gd241 2.395 . S
O261 C242 1.240 . S
O262 Gd240 2.448 . S
O262 C243 1.249 . S
O263 Gd240 2.506 . S
O263 C243 1.252 . S
O264 Gd240 2.435 . S
O264 C250 1.256 . S
O265 Gd240 2.717 . S
O265 Gd241 2.327 . S
O265 C250 1.257 . S
O266 Gd241 2.377 . S
O266 C251 1.240 . S
O267 Gd240 2.395 . S
O267 C251 1.240 . S
O268 Gd241 2.448 . S
O268 C252 1.249 . S
O269 Gd241 2.506 . S
O269 C252 1.252 . S
O270 Gd241 2.435 . S
O270 C259 1.256 . S
O271 Gd240 2.327 . S
O271 Gd241 2.717 . S
O271 C259 1.257 . S
H272 C245 0.930 . S
H273 C246 0.931 . S
H274 C248 0.931 . S
H275 C249 0.931 . S
H276 C254 0.930 . S
H277 C255 0.931 . S
H278 C257 0.931 . S
H279 C258 0.931 . S
Gd280 C283 2.818 . S
Gd280 O300 2.377 . S
Gd280 O302 2.448 . S
Gd280 O303 2.506 . S
Gd280 O304 2.435 . S
Gd280 O305 2.717 . S
Gd280 O307 2.395 . S
Gd280 O311 2.327 . S
Gd281 C292 2.818 . S
Gd281 O301 2.395 . S
Gd281 O305 2.327 . S
Gd281 O306 2.377 . S
Gd281 O308 2.448 . S
Gd281 O309 2.506 . S
Gd281 O310 2.435 . S
Gd281 O311 2.717 . S
C282 O300 1.240 . S
C282 O301 1.240 . S
C283 Gd280 2.818 . S
C283 C284 1.510 . S
C283 O302 1.249 . S
C283 O303 1.252 . S
C284 C283 1.510 . S
C284 C285 1.404 . S
C284 C286 1.352 . S
C285 C284 1.404 . S
C285 C289 1.389 . S
C285 H312 0.930 . S
C286 C284 1.352 . S
C286 C288 1.374 . S
C286 H313 0.931 . S
C287 C288 1.359 . S
C287 C289 1.364 . S
C288 C286 1.374 . S
C288 C287 1.359 . S
C288 H314 0.931 . S
C289 C285 1.389 . S
C289 C287 1.364 . S
C289 H315 0.931 . S
C290 O304 1.256 . S
C290 O305 1.257 . S
C291 O306 1.240 . S
C291 O307 1.240 . S
C292 Gd281 2.818 . S
C292 C293 1.510 . S
C292 O308 1.249 . S
C292 O309 1.252 . S
C293 C292 1.510 . S
C293 C294 1.404 . S
C293 C295 1.352 . S
C294 C293 1.404 . S
C294 C298 1.389 . S
C294 H316 0.930 . S
C295 C293 1.352 . S
C295 C297 1.374 . S
C295 H317 0.931 . S
C296 C297 1.359 . S
C296 C298 1.364 . S
C297 C295 1.374 . S
C297 C296 1.359 . S
C297 H318 0.931 . S
C298 C294 1.389 . S
C298 C296 1.364 . S
C298 H319 0.931 . S
C299 O310 1.256 . S
C299 O311 1.257 . S
O300 Gd280 2.377 . S
O300 C282 1.240 . S
O301 Gd281 2.395 . S
O301 C282 1.240 . S
O302 Gd280 2.448 . S
O302 C283 1.249 . S
O303 Gd280 2.506 . S
O303 C283 1.252 . S
O304 Gd280 2.435 . S
O304 C290 1.256 . S
O305 Gd280 2.717 . S
O305 Gd281 2.327 . S
O305 C290 1.257 . S
O306 Gd281 2.377 . S
O306 C291 1.240 . S
O307 Gd280 2.395 . S
O307 C291 1.240 . S
O308 Gd281 2.448 . S
O308 C292 1.249 . S
O309 Gd281 2.506 . S
O309 C292 1.252 . S
O310 Gd281 2.435 . S
O310 C299 1.256 . S
O311 Gd280 2.327 . S
O311 Gd281 2.717 . S
O311 C299 1.257 . S
H312 C285 0.930 . S
H313 C286 0.931 . S
H314 C288 0.931 . S
H315 C289 0.931 . S
H316 C294 0.930 . S
H317 C295 0.931 . S
H318 C297 0.931 . S
H319 C298 0.931 . S
Gd320 C323 2.818 1_554 S
Gd320 O340 2.377 . S
Gd320 O342 2.448 . S
Gd320 O343 2.506 . S
Gd320 O344 2.435 . S
Gd320 O345 2.717 . S
Gd320 O347 2.395 . S
Gd320 O351 2.327 . S
Gd321 C332 2.818 . S
Gd321 O341 2.395 . S
Gd321 O345 2.327 . S
Gd321 O346 2.377 . S
Gd321 O348 2.448 . S
Gd321 O349 2.506 . S
Gd321 O350 2.435 . S
Gd321 O351 2.717 . S
C322 O340 1.240 . S
C322 O341 1.240 . S
C323 Gd320 2.818 1_556 S
C323 C324 1.510 . S
C323 O342 1.249 1_556 S
C323 O343 1.252 1_556 S
C324 C323 1.510 . S
C324 C325 1.404 . S
C324 C326 1.352 . S
C325 C324 1.404 . S
C325 C329 1.389 . S
C325 H352 0.930 . S
C326 C324 1.352 . S
C326 C328 1.374 . S
C326 H353 0.931 . S
C327 C328 1.359 . S
C327 C329 1.364 . S
C328 C326 1.374 . S
C328 C327 1.359 . S
C328 H354 0.931 . S
C329 C325 1.389 . S
C329 C327 1.364 . S
C329 H355 0.931 . S
C330 O344 1.256 . S
C330 O345 1.257 . S
C331 O346 1.240 . S
C331 O347 1.240 . S
C332 Gd321 2.818 . S
C332 C333 1.510 . S
C332 O348 1.249 . S
C332 O349 1.252 . S
C333 C332 1.510 . S
C333 C334 1.404 . S
C333 C335 1.352 . S
C334 C333 1.404 . S
C334 C338 1.389 . S
C334 H356 0.930 . S
C335 C333 1.352 . S
C335 C337 1.374 . S
C335 H357 0.931 . S
C336 C337 1.359 . S
C336 C338 1.364 . S
C337 C335 1.374 . S
C337 C336 1.359 . S
C337 H358 0.931 . S
C338 C334 1.389 . S
C338 C336 1.364 . S
C338 H359 0.931 . S
C339 O350 1.256 . S
C339 O351 1.257 . S
O340 Gd320 2.377 . S
O340 C322 1.240 . S
O341 Gd321 2.395 . S
O341 C322 1.240 . S
O342 Gd320 2.448 . S
O342 C323 1.249 1_554 S
O343 Gd320 2.506 . S
O343 C323 1.252 1_554 S
O344 Gd320 2.435 . S
O344 C330 1.256 . S
O345 Gd320 2.717 . S
O345 Gd321 2.327 . S
O345 C330 1.257 . S
O346 Gd321 2.377 . S
O346 C331 1.240 . S
O347 Gd320 2.395 . S
O347 C331 1.240 . S
O348 Gd321 2.448 . S
O348 C332 1.249 . S
O349 Gd321 2.506 . S
O349 C332 1.252 . S
O350 Gd321 2.435 . S
O350 C339 1.256 . S
O351 Gd320 2.327 . S
O351 Gd321 2.717 . S
O351 C339 1.257 . S
H352 C325 0.930 . S
H353 C326 0.931 . S
H354 C328 0.931 . S
H355 C329 0.931 . S
H356 C334 0.930 . S
H357 C335 0.931 . S
H358 C337 0.931 . S
H359 C338 0.931 . S
Gd360 C363 2.818 . S
Gd360 O380 2.377 . S
Gd360 O382 2.448 . S
Gd360 O383 2.506 . S
Gd360 O384 2.435 . S
Gd360 O385 2.717 . S
Gd360 O387 2.395 . S
Gd360 O391 2.327 . S
Gd361 C372 2.818 . S
Gd361 O381 2.395 . S
Gd361 O385 2.327 . S
Gd361 O386 2.377 . S
Gd361 O388 2.448 . S
Gd361 O389 2.506 . S
Gd361 O390 2.435 . S
Gd361 O391 2.717 . S
C362 O380 1.240 . S
C362 O381 1.240 . S
C363 Gd360 2.818 . S
C363 C364 1.510 . S
C363 O382 1.249 . S
C363 O383 1.252 . S
C364 C363 1.510 . S
C364 C365 1.404 . S
C364 C366 1.352 . S
C365 C364 1.404 . S
C365 C369 1.389 . S
C365 H392 0.930 . S
C366 C364 1.352 . S
C366 C368 1.374 . S
C366 H393 0.931 . S
C367 C368 1.359 . S
C367 C369 1.364 . S
C368 C366 1.374 . S
C368 C367 1.359 . S
C368 H394 0.931 . S
C369 C365 1.389 . S
C369 C367 1.364 . S
C369 H395 0.931 . S
C370 O384 1.256 . S
C370 O385 1.257 . S
C371 O386 1.240 . S
C371 O387 1.240 . S
C372 Gd361 2.818 . S
C372 C373 1.510 . S
C372 O388 1.249 . S
C372 O389 1.252 . S
C373 C372 1.510 . S
C373 C374 1.404 . S
C373 C375 1.352 . S
C374 C373 1.404 . S
C374 C378 1.389 . S
C374 H396 0.930 . S
C375 C373 1.352 . S
C375 C377 1.374 . S
C375 H397 0.931 . S
C376 C377 1.359 . S
C376 C378 1.364 . S
C377 C375 1.374 . S
C377 C376 1.359 . S
C377 H398 0.931 . S
C378 C374 1.389 . S
C378 C376 1.364 . S
C378 H399 0.931 . S
C379 O390 1.256 . S
C379 O391 1.257 . S
O380 Gd360 2.377 . S
O380 C362 1.240 . S
O381 Gd361 2.395 . S
O381 C362 1.240 . S
O382 Gd360 2.448 . S
O382 C363 1.249 . S
O383 Gd360 2.506 . S
O383 C363 1.252 . S
O384 Gd360 2.435 . S
O384 C370 1.256 . S
O385 Gd360 2.717 . S
O385 Gd361 2.327 . S
O385 C370 1.257 . S
O386 Gd361 2.377 . S
O386 C371 1.240 . S
O387 Gd360 2.395 . S
O387 C371 1.240 . S
O388 Gd361 2.448 . S
O388 C372 1.249 . S
O389 Gd361 2.506 . S
O389 C372 1.252 . S
O390 Gd361 2.435 . S
O390 C379 1.256 . S
O391 Gd360 2.327 . S
O391 Gd361 2.717 . S
O391 C379 1.257 . S
H392 C365 0.930 . S
H393 C366 0.931 . S
H394 C368 0.931 . S
H395 C369 0.931 . S
H396 C374 0.930 . S
H397 C375 0.931 . S
H398 C377 0.931 . S
H399 C378 0.931 . S
Gd400 C403 2.818 . S
Gd400 O420 2.377 . S
Gd400 O422 2.448 . S
Gd400 O423 2.506 . S
Gd400 O424 2.435 . S
Gd400 O425 2.717 . S
Gd400 O427 2.395 . S
Gd400 O431 2.327 . S
Gd401 C412 2.818 . S
Gd401 O421 2.395 . S
Gd401 O425 2.327 . S
Gd401 O426 2.377 . S
Gd401 O428 2.448 . S
Gd401 O429 2.506 . S
Gd401 O430 2.435 . S
Gd401 O431 2.717 . S
C402 O420 1.240 . S
C402 O421 1.240 . S
C403 Gd400 2.818 . S
C403 C404 1.510 . S
C403 O422 1.249 . S
C403 O423 1.252 . S
C404 C403 1.510 . S
C404 C405 1.404 . S
C404 C406 1.352 . S
C405 C404 1.404 . S
C405 C409 1.389 . S
C405 H432 0.930 . S
C406 C404 1.352 . S
C406 C408 1.374 . S
C406 H433 0.931 . S
C407 C408 1.359 . S
C407 C409 1.364 . S
C408 C406 1.374 . S
C408 C407 1.359 . S
C408 H434 0.931 . S
C409 C405 1.389 . S
C409 C407 1.364 . S
C409 H435 0.931 . S
C410 O424 1.256 . S
C410 O425 1.257 . S
C411 O426 1.240 . S
C411 O427 1.240 . S
C412 Gd401 2.818 . S
C412 C413 1.510 . S
C412 O428 1.249 . S
C412 O429 1.252 . S
C413 C412 1.510 . S
C413 C414 1.404 . S
C413 C415 1.352 . S
C414 C413 1.404 . S
C414 C418 1.389 . S
C414 H436 0.930 . S
C415 C413 1.352 . S
C415 C417 1.374 . S
C415 H437 0.931 . S
C416 C417 1.359 . S
C416 C418 1.364 . S
C417 C415 1.374 . S
C417 C416 1.359 . S
C417 H438 0.931 . S
C418 C414 1.389 . S
C418 C416 1.364 . S
C418 H439 0.931 . S
C419 O430 1.256 . S
C419 O431 1.257 . S
O420 Gd400 2.377 . S
O420 C402 1.240 . S
O421 Gd401 2.395 . S
O421 C402 1.240 . S
O422 Gd400 2.448 . S
O422 C403 1.249 . S
O423 Gd400 2.506 . S
O423 C403 1.252 . S
O424 Gd400 2.435 . S
O424 C410 1.256 . S
O425 Gd400 2.717 . S
O425 Gd401 2.327 . S
O425 C410 1.257 . S
O426 Gd401 2.377 . S
O426 C411 1.240 . S
O427 Gd400 2.395 . S
O427 C411 1.240 . S
O428 Gd401 2.448 . S
O428 C412 1.249 . S
O429 Gd401 2.506 . S
O429 C412 1.252 . S
O430 Gd401 2.435 . S
O430 C419 1.256 . S
O431 Gd400 2.327 . S
O431 Gd401 2.717 . S
O431 C419 1.257 . S
H432 C405 0.930 . S
H433 C406 0.931 . S
H434 C408 0.931 . S
H435 C409 0.931 . S
H436 C414 0.930 . S
H437 C415 0.931 . S
H438 C417 0.931 . S
H439 C418 0.931 . S
Gd440 C443 2.818 1_554 S
Gd440 O460 2.377 . S
Gd440 O462 2.448 . S
Gd440 O463 2.506 . S
Gd440 O464 2.435 . S
Gd440 O465 2.717 . S
Gd440 O467 2.395 . S
Gd440 O471 2.327 . S
Gd441 C452 2.818 . S
Gd441 O461 2.395 . S
Gd441 O465 2.327 . S
Gd441 O466 2.377 . S
Gd441 O468 2.448 . S
Gd441 O469 2.506 . S
Gd441 O470 2.435 . S
Gd441 O471 2.717 . S
C442 O460 1.240 . S
C442 O461 1.240 . S
C443 Gd440 2.818 1_556 S
C443 C444 1.510 . S
C443 O462 1.249 1_556 S
C443 O463 1.252 1_556 S
C444 C443 1.510 . S
C444 C445 1.404 . S
C444 C446 1.352 . S
C445 C444 1.404 . S
C445 C449 1.389 . S
C445 H472 0.930 . S
C446 C444 1.352 . S
C446 C448 1.374 . S
C446 H473 0.931 . S
C447 C448 1.359 . S
C447 C449 1.364 . S
C448 C446 1.374 . S
C448 C447 1.359 . S
C448 H474 0.931 . S
C449 C445 1.389 . S
C449 C447 1.364 . S
C449 H475 0.931 . S
C450 O464 1.256 . S
C450 O465 1.257 . S
C451 O466 1.240 . S
C451 O467 1.240 . S
C452 Gd441 2.818 . S
C452 C453 1.510 . S
C452 O468 1.249 . S
C452 O469 1.252 . S
C453 C452 1.510 . S
C453 C454 1.404 . S
C453 C455 1.352 . S
C454 C453 1.404 . S
C454 C458 1.389 . S
C454 H476 0.930 . S
C455 C453 1.352 . S
C455 C457 1.374 . S
C455 H477 0.931 . S
C456 C457 1.359 . S
C456 C458 1.364 . S
C457 C455 1.374 . S
C457 C456 1.359 . S
C457 H478 0.931 . S
C458 C454 1.389 . S
C458 C456 1.364 . S
C458 H479 0.931 . S
C459 O470 1.256 . S
C459 O471 1.257 . S
O460 Gd440 2.377 . S
O460 C442 1.240 . S
O461 Gd441 2.395 . S
O461 C442 1.240 . S
O462 Gd440 2.448 . S
O462 C443 1.249 1_554 S
O463 Gd440 2.506 . S
O463 C443 1.252 1_554 S
O464 Gd440 2.435 . S
O464 C450 1.256 . S
O465 Gd440 2.717 . S
O465 Gd441 2.327 . S
O465 C450 1.257 . S
O466 Gd441 2.377 . S
O466 C451 1.240 . S
O467 Gd440 2.395 . S
O467 C451 1.240 . S
O468 Gd441 2.448 . S
O468 C452 1.249 . S
O469 Gd441 2.506 . S
O469 C452 1.252 . S
O470 Gd441 2.435 . S
O470 C459 1.256 . S
O471 Gd440 2.327 . S
O471 Gd441 2.717 . S
O471 C459 1.257 . S
H472 C445 0.930 . S
H473 C446 0.931 . S
H474 C448 0.931 . S
H475 C449 0.931 . S
H476 C454 0.930 . S
H477 C455 0.931 . S
H478 C457 0.931 . S
H479 C458 0.931 . S
H480 C486 0.930 . S
H481 C490 0.930 . S
H482 C495 0.929 . S
H483 C493 0.929 . S
H484 C488 0.929 . S
H485 C494 0.929 . S
C486 H480 0.930 . S
C486 C487 1.367 . S
C486 C494 1.378 . S
C487 C486 1.367 . S
C487 C495 1.433 . S
C488 H484 0.929 . S
C488 C490 1.378 . S
C488 C492 1.350 . S
C489 C492 1.463 . S
C489 C494 1.350 . S
C489 N497 1.427 . S
C490 H481 0.930 . S
C490 C488 1.378 . S
C490 C491 1.367 . S
C491 C490 1.367 . S
C491 C493 1.433 . S
C492 C488 1.350 . S
C492 C489 1.463 . S
C492 N496 1.427 . S
C493 H483 0.929 . S
C493 C491 1.433 . S
C493 N496 1.384 . S
C494 H485 0.929 . S
C494 C486 1.378 . S
C494 C489 1.350 . S
C495 H482 0.929 . S
C495 C487 1.433 . S
C495 N497 1.384 . S
N496 C492 1.427 . S
N496 C493 1.384 . S
N497 C489 1.427 . S
N497 C495 1.384 . S
H498 C504 0.930 . S
H499 C508 0.930 . S
H500 C513 0.929 . S
H501 C511 0.929 . S
H502 C506 0.929 . S
H503 C512 0.929 . S
C504 H498 0.930 . S
C504 C505 1.367 . S
C504 C512 1.378 . S
C505 C504 1.367 . S
C505 C513 1.433 . S
C506 H502 0.929 . S
C506 C508 1.378 . S
C506 C510 1.350 . S
C507 C510 1.463 . S
C507 C512 1.350 . S
C507 N515 1.427 . S
C508 H499 0.930 . S
C508 C506 1.378 . S
C508 C509 1.367 . S
C509 C508 1.367 . S
C509 C511 1.433 . S
C510 C506 1.350 . S
C510 C507 1.463 . S
C510 N514 1.427 . S
C511 H501 0.929 . S
C511 C509 1.433 . S
C511 N514 1.384 . S
C512 H503 0.929 . S
C512 C504 1.378 . S
C512 C507 1.350 . S
C513 H500 0.929 . S
C513 C505 1.433 . S
C513 N515 1.384 . S
N514 C510 1.427 . S
N514 C511 1.384 . S
N515 C507 1.427 . S
N515 C513 1.384 . S
H516 C522 0.930 . S
H517 C526 0.930 . S
H518 C531 0.929 . S
H519 C529 0.929 . S
H520 C524 0.929 . S
H521 C530 0.929 . S
C522 H516 0.930 . S
C522 C523 1.367 . S
C522 C530 1.378 . S
C523 C522 1.367 . S
C523 C531 1.433 . S
C524 H520 0.929 . S
C524 C526 1.378 . S
C524 C528 1.350 . S
C525 C528 1.463 . S
C525 C530 1.350 . S
C525 N533 1.427 . S
C526 H517 0.930 . S
C526 C524 1.378 . S
C526 C527 1.367 . S
C527 C526 1.367 . S
C527 C529 1.433 . S
C528 C524 1.350 . S
C528 C525 1.463 . S
C528 N532 1.427 . S
C529 H519 0.929 . S
C529 C527 1.433 . S
C529 N532 1.384 . S
C530 H521 0.929 . S
C530 C522 1.378 . S
C530 C525 1.350 . S
C531 H518 0.929 . S
C531 C523 1.433 . S
C531 N533 1.384 . S
N532 C528 1.427 . S
N532 C529 1.384 . S
N533 C525 1.427 . S
N533 C531 1.384 . S
H534 C540 0.930 . S
H535 C544 0.930 . S
H536 C549 0.929 . S
H537 C547 0.929 . S
H538 C542 0.929 . S
H539 C548 0.929 . S
C540 H534 0.930 . S
C540 C541 1.367 . S
C540 C548 1.378 . S
C541 C540 1.367 . S
C541 C549 1.433 . S
C542 H538 0.929 . S
C542 C544 1.378 . S
C542 C546 1.350 . S
C543 C546 1.463 . S
C543 C548 1.350 . S
C543 N551 1.427 . S
C544 H535 0.930 . S
C544 C542 1.378 . S
C544 C545 1.367 . S
C545 C544 1.367 . S
C545 C547 1.433 . S
C546 C542 1.350 . S
C546 C543 1.463 . S
C546 N550 1.427 . S
C547 H537 0.929 . S
C547 C545 1.433 . S
C547 N550 1.384 . S
C548 H539 0.929 . S
C548 C540 1.378 . S
C548 C543 1.350 . S
C549 H536 0.929 . S
C549 C541 1.433 . S
C549 N551 1.384 . S
N550 C546 1.427 . S
N550 C547 1.384 . S
N551 C543 1.427 . S
N551 C549 1.384 . S
H552 C558 0.930 . S
H553 C562 0.930 . S
H554 C567 0.929 . S
H555 C565 0.929 . S
H556 C560 0.929 . S
H557 C566 0.929 . S
C558 H552 0.930 . S
C558 C559 1.367 . S
C558 C566 1.378 . S
C559 C558 1.367 . S
C559 C567 1.433 . S
C560 H556 0.929 . S
C560 C562 1.378 . S
C560 C564 1.350 . S
C561 C564 1.463 . S
C561 C566 1.350 . S
C561 N569 1.427 . S
C562 H553 0.930 . S
C562 C560 1.378 . S
C562 C563 1.367 . S
C563 C562 1.367 . S
C563 C565 1.433 . S
C564 C560 1.350 . S
C564 C561 1.463 . S
C564 N568 1.427 . S
C565 H555 0.929 . S
C565 C563 1.433 . S
C565 N568 1.384 . S
C566 H557 0.929 . S
C566 C558 1.378 . S
C566 C561 1.350 . S
C567 H554 0.929 . S
C567 C559 1.433 . S
C567 N569 1.384 . S
N568 C564 1.427 . S
N568 C565 1.384 . S
N569 C561 1.427 . S
N569 C567 1.384 . S
H570 C576 0.930 . S
H571 C580 0.930 . S
H572 C585 0.929 . S
H573 C583 0.929 . S
H574 C578 0.929 . S
H575 C584 0.929 . S
C576 H570 0.930 . S
C576 C577 1.367 . S
C576 C584 1.378 . S
C577 C576 1.367 . S
C577 C585 1.433 . S
C578 H574 0.929 . S
C578 C580 1.378 . S
C578 C582 1.350 . S
C579 C582 1.463 . S
C579 C584 1.350 . S
C579 N587 1.427 . S
C580 H571 0.930 . S
C580 C578 1.378 . S
C580 C581 1.367 . S
C581 C580 1.367 . S
C581 C583 1.433 . S
C582 C578 1.350 . S
C582 C579 1.463 . S
C582 N586 1.427 . S
C583 H573 0.929 . S
C583 C581 1.433 . S
C583 N586 1.384 . S
C584 H575 0.929 . S
C584 C576 1.378 . S
C584 C579 1.350 . S
C585 H572 0.929 . S
C585 C577 1.433 . S
C585 N587 1.384 . S
N586 C582 1.427 . S
N586 C583 1.384 . S
N587 C579 1.427 . S
N587 C585 1.384 . S
H588 C594 0.930 . S
H589 C598 0.930 . S
H590 C603 0.929 . S
H591 C601 0.929 . S
H592 C596 0.929 . S
H593 C602 0.929 . S
C594 H588 0.930 . S
C594 C595 1.367 . S
C594 C602 1.378 . S
C595 C594 1.367 . S
C595 C603 1.433 . S
C596 H592 0.929 . S
C596 C598 1.378 . S
C596 C600 1.350 . S
C597 C600 1.463 1_556 S
C597 C602 1.350 . S
C597 N605 1.427 . S
C598 H589 0.930 . S
C598 C596 1.378 . S
C598 C599 1.367 . S
C599 C598 1.367 . S
C599 C601 1.433 . S
C600 C596 1.350 . S
C600 C597 1.463 1_554 S
C600 N604 1.427 . S
C601 H591 0.929 . S
C601 C599 1.433 . S
C601 N604 1.384 . S
C602 H593 0.929 . S
C602 C594 1.378 . S
C602 C597 1.350 . S
C603 H590 0.929 . S
C603 C595 1.433 . S
C603 N605 1.384 . S
N604 C600 1.427 . S
N604 C601 1.384 . S
N605 C597 1.427 . S
N605 C603 1.384 . S
H606 C612 0.930 . S
H607 C616 0.930 . S
H608 C621 0.929 . S
H609 C619 0.929 . S
H610 C614 0.929 . S
H611 C620 0.929 . S
C612 H606 0.930 . S
C612 C613 1.367 . S
C612 C620 1.378 . S
C613 C612 1.367 . S
C613 C621 1.433 . S
C614 H610 0.929 . S
C614 C616 1.378 . S
C614 C618 1.350 . S
C615 C618 1.463 . S
C615 C620 1.350 . S
C615 N623 1.427 . S
C616 H607 0.930 . S
C616 C614 1.378 . S
C616 C617 1.367 . S
C617 C616 1.367 . S
C617 C619 1.433 . S
C618 C614 1.350 . S
C618 C615 1.463 . S
C618 N622 1.427 . S
C619 H609 0.929 . S
C619 C617 1.433 . S
C619 N622 1.384 . S
C620 H611 0.929 . S
C620 C612 1.378 . S
C620 C615 1.350 . S
C621 H608 0.929 . S
C621 C613 1.433 . S
C621 N623 1.384 . S
N622 C618 1.427 . S
N622 C619 1.384 . S
N623 C615 1.427 . S
N623 C621 1.384 . S
H624 C630 0.930 . S
H625 C634 0.930 . S
H626 C639 0.929 . S
H627 C637 0.929 . S
H628 C632 0.929 . S
H629 C638 0.929 . S
C630 H624 0.930 . S
C630 C631 1.367 . S
C630 C638 1.378 . S
C631 C630 1.367 . S
C631 C639 1.433 . S
C632 H628 0.929 . S
C632 C634 1.378 . S
C632 C636 1.350 . S
C633 C636 1.463 . S
C633 C638 1.350 . S
C633 N641 1.427 . S
C634 H625 0.930 . S
C634 C632 1.378 . S
C634 C635 1.367 . S
C635 C634 1.367 . S
C635 C637 1.433 . S
C636 C632 1.350 . S
C636 C633 1.463 . S
C636 N640 1.427 . S
C637 H627 0.929 . S
C637 C635 1.433 . S
C637 N640 1.384 . S
C638 H629 0.929 . S
C638 C630 1.378 . S
C638 C633 1.350 . S
C639 H626 0.929 . S
C639 C631 1.433 . S
C639 N641 1.384 . S
N640 C636 1.427 . S
N640 C637 1.384 . S
N641 C633 1.427 . S
N641 C639 1.384 . S
H642 C648 0.930 . S
H643 C652 0.930 . S
H644 C657 0.929 . S
H645 C655 0.929 . S
H646 C650 0.929 . S
H647 C656 0.929 . S
C648 H642 0.930 . S
C648 C649 1.367 . S
C648 C656 1.378 . S
C649 C648 1.367 . S
C649 C657 1.433 . S
C650 H646 0.929 . S
C650 C652 1.378 . S
C650 C654 1.350 . S
C651 C654 1.463 1_556 S
C651 C656 1.350 . S
C651 N659 1.427 . S
C652 H643 0.930 . S
C652 C650 1.378 . S
C652 C653 1.367 . S
C653 C652 1.367 . S
C653 C655 1.433 . S
C654 C650 1.350 . S
C654 C651 1.463 1_554 S
C654 N658 1.427 . S
C655 H645 0.929 . S
C655 C653 1.433 . S
C655 N658 1.384 . S
C656 H647 0.929 . S
C656 C648 1.378 . S
C656 C651 1.350 . S
C657 H644 0.929 . S
C657 C649 1.433 . S
C657 N659 1.384 . S
N658 C654 1.427 . S
N658 C655 1.384 . S
N659 C651 1.427 . S
N659 C657 1.384 . S
H660 C666 0.930 . S
H661 C670 0.930 . S
H662 C675 0.929 . S
H663 C673 0.929 . S
H664 C668 0.929 . S
H665 C674 0.929 . S
C666 H660 0.930 . S
C666 C667 1.367 . S
C666 C674 1.378 . S
C667 C666 1.367 . S
C667 C675 1.433 . S
C668 H664 0.929 . S
C668 C670 1.378 . S
C668 C672 1.350 . S
C669 C672 1.463 . S
C669 C674 1.350 . S
C669 N677 1.427 . S
C670 H661 0.930 . S
C670 C668 1.378 . S
C670 C671 1.367 . S
C671 C670 1.367 . S
C671 C673 1.433 . S
C672 C668 1.350 . S
C672 C669 1.463 . S
C672 N676 1.427 . S
C673 H663 0.929 . S
C673 C671 1.433 . S
C673 N676 1.384 . S
C674 H665 0.929 . S
C674 C666 1.378 . S
C674 C669 1.350 . S
C675 H662 0.929 . S
C675 C667 1.433 . S
C675 N677 1.384 . S
N676 C672 1.427 . S
N676 C673 1.384 . S
N677 C669 1.427 . S
N677 C675 1.384 . S
H678 C684 0.930 . S
H679 C688 0.930 . S
H680 C693 0.929 . S
H681 C691 0.929 . S
H682 C686 0.929 . S
H683 C692 0.929 . S
C684 H678 0.930 . S
C684 C685 1.367 . S
C684 C692 1.378 . S
C685 C684 1.367 . S
C685 C693 1.433 . S
C686 H682 0.929 . S
C686 C688 1.378 . S
C686 C690 1.350 . S
C687 C690 1.463 . S
C687 C692 1.350 . S
C687 N695 1.427 . S
C688 H679 0.930 . S
C688 C686 1.378 . S
C688 C689 1.367 . S
C689 C688 1.367 . S
C689 C691 1.433 . S
C690 C686 1.350 . S
C690 C687 1.463 . S
C690 N694 1.427 . S
C691 H681 0.929 . S
C691 C689 1.433 . S
C691 N694 1.384 . S
C692 H683 0.929 . S
C692 C684 1.378 . S
C692 C687 1.350 . S
C693 H680 0.929 . S
C693 C685 1.433 . S
C693 N695 1.384 . S
N694 C690 1.427 . S
N694 C691 1.384 . S
N695 C687 1.427 . S
N695 C693 1.384 . S
H696 C702 0.930 1_545 S
H697 C706 0.930 1_565 S
H698 C711 0.929 . S
H699 C709 0.929 . S
H700 C704 0.929 . S
H701 C710 0.929 . S
C702 H696 0.930 1_565 S
C702 C703 1.367 . S
C702 C710 1.378 1_565 S
C703 C702 1.367 . S
C703 C711 1.433 . S
C704 H700 0.929 . S
C704 C706 1.378 1_565 S
C704 C708 1.350 1_565 S
C705 C708 1.463 1_566 S
C705 C710 1.350 1_565 S
C705 N713 1.427 . S
C706 H697 0.930 1_545 S
C706 C704 1.378 1_545 S
C706 C707 1.367 . S
C707 C706 1.367 . S
C707 C709 1.433 . S
C708 C704 1.350 1_545 S
C708 C705 1.463 1_544 S
C708 N712 1.427 . S
C709 H699 0.929 . S
C709 C707 1.433 . S
C709 N712 1.384 . S
C710 H701 0.929 . S
C710 C702 1.378 1_545 S
C710 C705 1.350 1_545 S
C711 H698 0.929 . S
C711 C703 1.433 . S
C711 N713 1.384 . S
N712 C708 1.427 . S
N712 C709 1.384 . S
N713 C705 1.427 . S
N713 C711 1.384 . S
H714 C720 0.930 . S
H715 C724 0.930 . S
H716 C729 0.929 . S
H717 C727 0.929 . S
H718 C722 0.929 . S
H719 C728 0.929 . S
C720 H714 0.930 . S
C720 C721 1.367 . S
C720 C728 1.378 . S
C721 C720 1.367 . S
C721 C729 1.433 . S
C722 H718 0.929 . S
C722 C724 1.378 . S
C722 C726 1.350 . S
C723 C726 1.463 . S
C723 C728 1.350 . S
C723 N731 1.427 . S
C724 H715 0.930 . S
C724 C722 1.378 . S
C724 C725 1.367 . S
C725 C724 1.367 . S
C725 C727 1.433 . S
C726 C722 1.350 . S
C726 C723 1.463 . S
C726 N730 1.427 . S
C727 H717 0.929 . S
C727 C725 1.433 . S
C727 N730 1.384 . S
C728 H719 0.929 . S
C728 C720 1.378 . S
C728 C723 1.350 . S
C729 H716 0.929 . S
C729 C721 1.433 . S
C729 N731 1.384 . S
N730 C726 1.427 . S
N730 C727 1.384 . S
N731 C723 1.427 . S
N731 C729 1.384 . S
H732 C738 0.930 . S
H733 C742 0.930 . S
H734 C747 0.929 1_655 S
H735 C745 0.929 1_455 S
H736 C740 0.929 . S
H737 C746 0.929 . S
C738 H732 0.930 . S
C738 C739 1.367 . S
C738 C746 1.378 . S
C739 C738 1.367 . S
C739 C747 1.433 . S
C740 H736 0.929 . S
C740 C742 1.378 . S
C740 C744 1.350 . S
C741 C744 1.463 1_455 S
C741 C746 1.350 . S
C741 N749 1.427 1_455 S
C742 H733 0.930 . S
C742 C740 1.378 . S
C742 C743 1.367 . S
C743 C742 1.367 . S
C743 C745 1.433 . S
C744 C740 1.350 . S
C744 C741 1.463 1_655 S
C744 N748 1.427 1_655 S
C745 H735 0.929 1_655 S
C745 C743 1.433 . S
C745 N748 1.384 1_655 S
C746 H737 0.929 . S
C746 C738 1.378 . S
C746 C741 1.350 . S
C747 H734 0.929 1_455 S
C747 C739 1.433 . S
C747 N749 1.384 1_455 S
N748 C744 1.427 1_455 S
N748 C745 1.384 1_455 S
N749 C741 1.427 1_655 S
N749 C747 1.384 1_655 S
H750 C756 0.930 . S
H751 C760 0.930 . S
H752 C765 0.929 1_545 S
H753 C763 0.929 1_565 S
H754 C758 0.929 1_554 S
H755 C764 0.929 1_556 S
C756 H750 0.930 . S
C756 C757 1.367 . S
C756 C764 1.378 . S
C757 C756 1.367 . S
C757 C765 1.433 . S
C758 H754 0.929 1_556 S
C758 C760 1.378 . S
C758 C762 1.350 . S
C759 C762 1.463 1_564 S
C759 C764 1.350 . S
C759 N767 1.427 1_565 S
C760 H751 0.930 . S
C760 C758 1.378 . S
C760 C761 1.367 . S
C761 C760 1.367 . S
C761 C763 1.433 . S
C762 C758 1.350 . S
C762 C759 1.463 1_546 S
C762 N766 1.427 1_545 S
C763 H753 0.929 1_545 S
C763 C761 1.433 . S
C763 N766 1.384 1_545 S
C764 H755 0.929 1_554 S
C764 C756 1.378 . S
C764 C759 1.350 . S
C765 H752 0.929 1_565 S
C765 C757 1.433 . S
C765 N767 1.384 1_565 S
N766 C762 1.427 1_565 S
N766 C763 1.384 1_565 S
N767 C759 1.427 1_545 S
N767 C765 1.384 1_545 S
H768 C774 0.930 . S
H769 C778 0.930 . S
H770 C783 0.929 . S
H771 C781 0.929 . S
H772 C776 0.929 . S
H773 C782 0.929 . S
C774 H768 0.930 . S
C774 C775 1.367 . S
C774 C782 1.378 . S
C775 C774 1.367 . S
C775 C783 1.433 . S
C776 H772 0.929 . S
C776 C778 1.378 . S
C776 C780 1.350 . S
C777 C780 1.463 . S
C777 C782 1.350 . S
C777 N785 1.427 . S
C778 H769 0.930 . S
C778 C776 1.378 . S
C778 C779 1.367 . S
C779 C778 1.367 . S
C779 C781 1.433 . S
C780 C776 1.350 . S
C780 C777 1.463 . S
C780 N784 1.427 . S
C781 H771 0.929 . S
C781 C779 1.433 . S
C781 N784 1.384 . S
C782 H773 0.929 . S
C782 C774 1.378 . S
C782 C777 1.350 . S
C783 H770 0.929 . S
C783 C775 1.433 . S
C783 N785 1.384 . S
N784 C780 1.427 . S
N784 C781 1.384 . S
N785 C777 1.427 . S
N785 C783 1.384 . S
H786 C792 0.930 . S
H787 C796 0.930 . S
H788 C801 0.929 . S
H789 C799 0.929 . S
H790 C794 0.929 . S
H791 C800 0.929 . S
C792 H786 0.930 . S
C792 C793 1.367 . S
C792 C800 1.378 1_455 S
C793 C792 1.367 . S
C793 C801 1.433 . S
C794 H790 0.929 . S
C794 C796 1.378 1_455 S
C794 C798 1.350 1_455 S
C795 C798 1.463 1_455 S
C795 C800 1.350 1_455 S
C795 N803 1.427 . S
C796 H787 0.930 . S
C796 C794 1.378 1_655 S
C796 C797 1.367 . S
C797 C796 1.367 . S
C797 C799 1.433 . S
C798 C794 1.350 1_655 S
C798 C795 1.463 1_655 S
C798 N802 1.427 . S
C799 H789 0.929 . S
C799 C797 1.433 . S
C799 N802 1.384 . S
C800 H791 0.929 . S
C800 C792 1.378 1_655 S
C800 C795 1.350 1_655 S
C801 H788 0.929 . S
C801 C793 1.433 . S
C801 N803 1.384 . S
N802 C798 1.427 . S
N802 C799 1.384 . S
N803 C795 1.427 . S
N803 C801 1.384 . S
H804 C810 0.930 . S
H805 C814 0.930 . S
H806 C819 0.929 . S
H807 C817 0.929 . S
H808 C812 0.929 . S
H809 C818 0.929 . S
C810 H804 0.930 . S
C810 C811 1.367 . S
C810 C818 1.378 . S
C811 C810 1.367 . S
C811 C819 1.433 . S
C812 H808 0.929 . S
C812 C814 1.378 . S
C812 C816 1.350 . S
C813 C816 1.463 1_545 S
C813 C818 1.350 . S
C813 N821 1.427 . S
C814 H805 0.930 . S
C814 C812 1.378 . S
C814 C815 1.367 . S
C815 C814 1.367 . S
C815 C817 1.433 . S
C816 C812 1.350 . S
C816 C813 1.463 1_565 S
C816 N820 1.427 . S
C817 H807 0.929 . S
C817 C815 1.433 . S
C817 N820 1.384 . S
C818 H809 0.929 . S
C818 C810 1.378 . S
C818 C813 1.350 . S
C819 H806 0.929 . S
C819 C811 1.433 . S
C819 N821 1.384 . S
N820 C816 1.427 . S
N820 C817 1.384 . S
N821 C813 1.427 . S
N821 C819 1.384 . S
H822 C828 0.930 . S
H823 C832 0.930 . S
H824 C837 0.929 . S
H825 C835 0.929 . S
H826 C830 0.929 . S
H827 C836 0.929 . S
C828 H822 0.930 . S
C828 C829 1.367 . S
C828 C836 1.378 . S
C829 C828 1.367 . S
C829 C837 1.433 . S
C830 H826 0.929 . S
C830 C832 1.378 . S
C830 C834 1.350 . S
C831 C834 1.463 . S
C831 C836 1.350 . S
C831 N839 1.427 . S
C832 H823 0.930 . S
C832 C830 1.378 . S
C832 C833 1.367 . S
C833 C832 1.367 . S
C833 C835 1.433 . S
C834 C830 1.350 . S
C834 C831 1.463 . S
C834 N838 1.427 . S
C835 H825 0.929 . S
C835 C833 1.433 . S
C835 N838 1.384 . S
C836 H827 0.929 . S
C836 C828 1.378 . S
C836 C831 1.350 . S
C837 H824 0.929 . S
C837 C829 1.433 . S
C837 N839 1.384 . S
N838 C834 1.427 . S
N838 C835 1.384 . S
N839 C831 1.427 . S
N839 C837 1.384 . S
H840 C846 0.930 . S
H841 C850 0.930 . S
H842 C855 0.929 . S
H843 C853 0.929 . S
H844 C848 0.929 . S
H845 C854 0.929 . S
C846 H840 0.930 . S
C846 C847 1.367 . S
C846 C854 1.378 . S
C847 C846 1.367 . S
C847 C855 1.433 . S
C848 H844 0.929 . S
C848 C850 1.378 . S
C848 C852 1.350 . S
C849 C852 1.463 1_655 S
C849 C854 1.350 . S
C849 N857 1.427 . S
C850 H841 0.930 . S
C850 C848 1.378 . S
C850 C851 1.367 . S
C851 C850 1.367 . S
C851 C853 1.433 . S
C852 C848 1.350 . S
C852 C849 1.463 1_455 S
C852 N856 1.427 . S
C853 H843 0.929 . S
C853 C851 1.433 . S
C853 N856 1.384 . S
C854 H845 0.929 . S
C854 C846 1.378 . S
C854 C849 1.350 . S
C855 H842 0.929 . S
C855 C847 1.433 . S
C855 N857 1.384 . S
N856 C852 1.427 . S
N856 C853 1.384 . S
N857 C849 1.427 . S
N857 C855 1.384 . S
H858 C864 0.930 . S
H859 C868 0.930 . S
H860 C873 0.929 . S
H861 C871 0.929 . S
H862 C866 0.929 1_455 S
H863 C872 0.929 1_655 S
C864 H858 0.930 . S
C864 C865 1.367 . S
C864 C872 1.378 . S
C865 C864 1.367 . S
C865 C873 1.433 . S
C866 H862 0.929 1_655 S
C866 C868 1.378 . S
C866 C870 1.350 . S
C867 C870 1.463 1_455 S
C867 C872 1.350 . S
C867 N875 1.427 . S
C868 H859 0.930 . S
C868 C866 1.378 . S
C868 C869 1.367 . S
C869 C868 1.367 . S
C869 C871 1.433 . S
C870 C866 1.350 . S
C870 C867 1.463 1_655 S
C870 N874 1.427 . S
C871 H861 0.929 . S
C871 C869 1.433 . S
C871 N874 1.384 . S
C872 H863 0.929 1_455 S
C872 C864 1.378 . S
C872 C867 1.350 . S
C873 H860 0.929 . S
C873 C865 1.433 . S
C873 N875 1.384 . S
N874 C870 1.427 . S
N874 C871 1.384 . S
N875 C867 1.427 . S
N875 C873 1.384 . S
H876 C882 0.930 . S
H877 C886 0.930 . S
H878 C891 0.929 . S
H879 C889 0.929 . S
H880 C884 0.915 1_565 S
H881 C890 0.915 1_545 S
C882 H876 0.930 . S
C882 C883 1.367 . S
C882 C890 1.381 . S
C883 C882 1.367 . S
C883 C891 1.433 . S
C884 H880 0.915 1_545 S
C884 C886 1.381 . S
C884 C888 1.361 . S
C885 C888 1.463 1_565 S
C885 C890 1.361 . S
C885 N893 1.427 . S
C886 H877 0.930 . S
C886 C884 1.381 . S
C886 C887 1.367 . S
C887 C886 1.367 . S
C887 C889 1.433 . S
C888 C884 1.361 . S
C888 C885 1.463 1_545 S
C888 N892 1.427 . S
C889 H879 0.929 . S
C889 C887 1.433 . S
C889 N892 1.384 . S
C890 H881 0.915 1_565 S
C890 C882 1.381 . S
C890 C885 1.361 . S
C891 H878 0.929 . S
C891 C883 1.433 . S
C891 N893 1.384 . S
N892 C888 1.427 . S
N892 C889 1.384 . S
N893 C885 1.427 . S
N893 C891 1.384 . S
H894 C900 0.930 . S
H895 C904 0.930 . S
H896 C909 0.929 . S
H897 C907 0.929 . S
H898 C902 0.929 . S
H899 C908 0.929 . S
C900 H894 0.930 . S
C900 C901 1.367 . S
C900 C908 1.378 . S
C901 C900 1.367 . S
C901 C909 1.433 . S
C902 H898 0.929 . S
C902 C904 1.378 . S
C902 C906 1.350 . S
C903 C906 1.463 . S
C903 C908 1.350 . S
C903 N911 1.427 . S
C904 H895 0.930 . S
C904 C902 1.378 . S
C904 C905 1.367 . S
C905 C904 1.367 . S
C905 C907 1.433 . S
C906 C902 1.350 . S
C906 C903 1.463 . S
C906 N910 1.427 . S
C907 H897 0.929 . S
C907 C905 1.433 . S
C907 N910 1.384 . S
C908 H899 0.929 . S
C908 C900 1.378 . S
C908 C903 1.350 . S
C909 H896 0.929 . S
C909 C901 1.433 . S
C909 N911 1.384 . S
N910 C906 1.427 . S
N910 C907 1.384 . S
N911 C903 1.427 . S
N911 C909 1.384 . S
H912 C918 0.930 . S
H913 C922 0.930 . S
H914 C927 0.929 . S
H915 C925 0.929 . S
H916 C920 0.929 . S
H917 C926 0.929 . S
C918 H912 0.930 . S
C918 C919 1.367 . S
C918 C926 1.378 . S
C919 C918 1.367 . S
C919 C927 1.433 . S
C920 H916 0.929 . S
C920 C922 1.378 . S
C920 C924 1.350 . S
C921 C924 1.463 1_565 S
C921 C926 1.350 . S
C921 N929 1.427 . S
C922 H913 0.930 . S
C922 C920 1.378 . S
C922 C923 1.367 . S
C923 C922 1.367 . S
C923 C925 1.433 . S
C924 C920 1.350 . S
C924 C921 1.463 1_545 S
C924 N928 1.427 . S
C925 H915 0.929 . S
C925 C923 1.433 . S
C925 N928 1.384 . S
C926 H917 0.929 . S
C926 C918 1.378 . S
C926 C921 1.350 . S
C927 H914 0.929 . S
C927 C919 1.433 . S
C927 N929 1.384 . S
N928 C924 1.427 . S
N928 C925 1.384 . S
N929 C921 1.427 . S
N929 C927 1.384 . S
H930 C936 0.930 . S
H931 C940 0.930 . S
H932 C945 0.929 . S
H933 C943 0.929 . S
H934 C938 0.929 . S
H935 C944 0.929 . S
C936 H930 0.930 . S
C936 C937 1.367 . S
C936 C944 1.378 . S
C937 C936 1.367 . S
C937 C945 1.433 . S
C938 H934 0.929 . S
C938 C940 1.378 . S
C938 C942 1.350 . S
C939 C942 1.463 . S
C939 C944 1.350 . S
C939 N947 1.427 . S
C940 H931 0.930 . S
C940 C938 1.378 . S
C940 C941 1.367 . S
C941 C940 1.367 . S
C941 C943 1.433 . S
C942 C938 1.350 . S
C942 C939 1.463 . S
C942 N946 1.427 . S
C943 H933 0.929 . S
C943 C941 1.433 . S
C943 N946 1.384 . S
C944 H935 0.929 . S
C944 C936 1.378 . S
C944 C939 1.350 . S
C945 H932 0.929 . S
C945 C937 1.433 . S
C945 N947 1.384 . S
N946 C942 1.427 . S
N946 C943 1.384 . S
N947 C939 1.427 . S
N947 C945 1.384 . S
H948 C954 0.930 . S
H949 C958 0.930 . S
H950 C963 0.929 . S
H951 C961 0.929 . S
H952 C956 0.929 . S
H953 C962 0.929 . S
C954 H948 0.930 . S
C954 C955 1.367 . S
C954 C962 1.378 . S
C955 C954 1.367 . S
C955 C963 1.433 . S
C956 H952 0.929 . S
C956 C958 1.378 . S
C956 C960 1.350 . S
C957 C960 1.463 1_655 S
C957 C962 1.350 . S
C957 N965 1.427 . S
C958 H949 0.930 . S
C958 C956 1.378 . S
C958 C959 1.367 . S
C959 C958 1.367 . S
C959 C961 1.433 . S
C960 C956 1.350 . S
C960 C957 1.463 1_455 S
C960 N964 1.427 . S
C961 H951 0.929 . S
C961 C959 1.433 . S
C961 N964 1.384 . S
C962 H953 0.929 . S
C962 C954 1.378 . S
C962 C957 1.350 . S
C963 H950 0.929 . S
C963 C955 1.433 . S
C963 N965 1.384 . S
N964 C960 1.427 . S
N964 C961 1.384 . S
N965 C957 1.427 . S
N965 C963 1.384 . S
H966 C972 0.930 . S
H967 C976 0.930 . S
H968 C981 0.929 . S
H969 C979 0.929 . S
H970 C974 0.929 . S
H971 C980 0.929 . S
C972 H966 0.930 . S
C972 C973 1.367 . S
C972 C980 1.378 . S
C973 C972 1.367 . S
C973 C981 1.433 . S
C974 H970 0.929 . S
C974 C976 1.378 . S
C974 C978 1.350 . S
C975 C978 1.463 1_545 S
C975 C980 1.350 . S
C975 N983 1.427 . S
C976 H967 0.930 . S
C976 C974 1.378 . S
C976 C977 1.367 . S
C977 C976 1.367 . S
C977 C979 1.433 . S
C978 C974 1.350 . S
C978 C975 1.463 1_565 S
C978 N982 1.427 . S
C979 H969 0.929 . S
C979 C977 1.433 . S
C979 N982 1.384 . S
C980 H971 0.929 . S
C980 C972 1.378 . S
C980 C975 1.350 . S
C981 H968 0.929 . S
C981 C973 1.433 . S
C981 N983 1.384 . S
N982 C978 1.427 . S
N982 C979 1.384 . S
N983 C975 1.427 . S
N983 C981 1.384 . S
H984 C990 0.930 . S
H985 C994 0.930 . S
H986 C999 0.929 . S
H987 C997 0.929 . S
H988 C992 0.929 . S
H989 C998 0.929 . S
C990 H984 0.930 . S
C990 C991 1.367 . S
C990 C998 1.378 . S
C991 C990 1.367 . S
C991 C999 1.433 . S
C992 H988 0.929 . S
C992 C994 1.378 . S
C992 C996 1.350 . S
C993 C996 1.463 . S
C993 C998 1.350 . S
C993 N1001 1.427 . S
C994 H985 0.930 . S
C994 C992 1.378 . S
C994 C995 1.367 . S
C995 C994 1.367 . S
C995 C997 1.433 . S
C996 C992 1.350 . S
C996 C993 1.463 . S
C996 N1000 1.427 . S
C997 H987 0.929 . S
C997 C995 1.433 . S
C997 N1000 1.384 . S
C998 H989 0.929 . S
C998 C990 1.378 . S
C998 C993 1.350 . S
C999 H986 0.929 . S
C999 C991 1.433 . S
C999 N1001 1.384 . S
N1000 C996 1.427 . S
N1000 C997 1.384 . S
N1001 C993 1.427 . S
N1001 C999 1.384 . S
H1002 C1008 0.930 . S
H1003 C1012 0.930 . S
H1004 C1017 0.929 . S
H1005 C1015 0.929 . S
H1006 C1010 0.929 . S
H1007 C1016 0.929 . S
C1008 H1002 0.930 . S
C1008 C1009 1.367 . S
C1008 C1016 1.378 . S
C1009 C1008 1.367 . S
C1009 C1017 1.433 . S
C1010 H1006 0.929 . S
C1010 C1012 1.378 . S
C1010 C1014 1.350 . S
C1011 C1014 1.463 1_455 S
C1011 C1016 1.350 . S
C1011 N1019 1.427 . S
C1012 H1003 0.930 . S
C1012 C1010 1.378 . S
C1012 C1013 1.367 . S
C1013 C1012 1.367 . S
C1013 C1015 1.433 . S
C1014 C1010 1.350 . S
C1014 C1011 1.463 1_655 S
C1014 N1018 1.427 . S
C1015 H1005 0.929 . S
C1015 C1013 1.433 . S
C1015 N1018 1.384 . S
C1016 H1007 0.929 . S
C1016 C1008 1.378 . S
C1016 C1011 1.350 . S
C1017 H1004 0.929 . S
C1017 C1009 1.433 . S
C1017 N1019 1.384 . S
N1018 C1014 1.427 . S
N1018 C1015 1.384 . S
N1019 C1011 1.427 . S
N1019 C1017 1.384 . S
H1020 C1026 0.930 . S
H1021 C1030 0.930 . S
H1022 C1035 0.929 . S
H1023 C1033 0.929 . S
H1024 C1028 0.929 . S
H1025 C1034 0.929 . S
C1026 H1020 0.930 . S
C1026 C1027 1.367 . S
C1026 C1034 1.378 . S
C1027 C1026 1.367 . S
C1027 C1035 1.433 . S
C1028 H1024 0.929 . S
C1028 C1030 1.378 . S
C1028 C1032 1.350 . S
C1029 C1032 1.463 . S
C1029 C1034 1.350 . S
C1029 N1037 1.427 . S
C1030 H1021 0.930 . S
C1030 C1028 1.378 . S
C1030 C1031 1.367 . S
C1031 C1030 1.367 . S
C1031 C1033 1.433 . S
C1032 C1028 1.350 . S
C1032 C1029 1.463 . S
C1032 N1036 1.427 . S
C1033 H1023 0.929 . S
C1033 C1031 1.433 . S
C1033 N1036 1.384 . S
C1034 H1025 0.929 . S
C1034 C1026 1.378 . S
C1034 C1029 1.350 . S
C1035 H1022 0.929 . S
C1035 C1027 1.433 . S
C1035 N1037 1.384 . S
N1036 C1032 1.427 . S
N1036 C1033 1.384 . S
N1037 C1029 1.427 . S
N1037 C1035 1.384 . S
H1038 C1044 0.930 . S
H1039 C1048 0.930 . S
H1040 C1053 0.929 . S
H1041 C1051 0.929 . S
H1042 C1046 0.929 . S
H1043 C1052 0.929 . S
C1044 H1038 0.930 . S
C1044 C1045 1.367 . S
C1044 C1052 1.378 . S
C1045 C1044 1.367 . S
C1045 C1053 1.433 . S
C1046 H1042 0.929 . S
C1046 C1048 1.378 . S
C1046 C1050 1.350 . S
C1047 C1050 1.463 . S
C1047 C1052 1.350 . S
C1047 N1055 1.427 . S
C1048 H1039 0.930 . S
C1048 C1046 1.378 . S
C1048 C1049 1.367 . S
C1049 C1048 1.367 . S
C1049 C1051 1.433 . S
C1050 C1046 1.350 . S
C1050 C1047 1.463 . S
C1050 N1054 1.427 . S
C1051 H1041 0.929 . S
C1051 C1049 1.433 . S
C1051 N1054 1.384 . S
C1052 H1043 0.929 . S
C1052 C1044 1.378 . S
C1052 C1047 1.350 . S
C1053 H1040 0.929 . S
C1053 C1045 1.433 . S
C1053 N1055 1.384 . S
N1054 C1050 1.427 . S
N1054 C1051 1.384 . S
N1055 C1047 1.427 . S
N1055 C1053 1.384 . S
H1056 C1062 0.930 . S
H1057 C1066 0.930 . S
H1058 C1071 0.929 . S
H1059 C1069 0.929 . S
H1060 C1064 0.929 . S
H1061 C1070 0.929 . S
C1062 H1056 0.930 . S
C1062 C1063 1.367 . S
C1062 C1070 1.378 . S
C1063 C1062 1.367 . S
C1063 C1071 1.433 . S
C1064 H1060 0.929 . S
C1064 C1066 1.378 . S
C1064 C1068 1.350 . S
C1065 C1068 1.463 . S
C1065 C1070 1.350 . S
C1065 N1073 1.427 . S
C1066 H1057 0.930 . S
C1066 C1064 1.378 . S
C1066 C1067 1.367 . S
C1067 C1066 1.367 . S
C1067 C1069 1.433 . S
C1068 C1064 1.350 . S
C1068 C1065 1.463 . S
C1068 N1072 1.427 . S
C1069 H1059 0.929 . S
C1069 C1067 1.433 . S
C1069 N1072 1.384 . S
C1070 H1061 0.929 . S
C1070 C1062 1.378 . S
C1070 C1065 1.350 . S
C1071 H1058 0.929 . S
C1071 C1063 1.433 . S
C1071 N1073 1.384 . S
N1072 C1068 1.427 . S
N1072 C1069 1.384 . S
N1073 C1065 1.427 . S
N1073 C1071 1.384 . S
H1074 C1080 0.930 . S
H1075 C1084 0.930 . S
H1076 C1089 0.929 . S
H1077 C1087 0.929 . S
H1078 C1082 0.929 . S
H1079 C1088 0.929 . S
C1080 H1074 0.930 . S
C1080 C1081 1.367 . S
C1080 C1088 1.378 . S
C1081 C1080 1.367 . S
C1081 C1089 1.433 . S
C1082 H1078 0.929 . S
C1082 C1084 1.378 . S
C1082 C1086 1.350 . S
C1083 C1086 1.463 . S
C1083 C1088 1.350 . S
C1083 N1091 1.427 . S
C1084 H1075 0.930 . S
C1084 C1082 1.378 . S
C1084 C1085 1.367 . S
C1085 C1084 1.367 . S
C1085 C1087 1.433 . S
C1086 C1082 1.350 . S
C1086 C1083 1.463 . S
C1086 N1090 1.427 . S
C1087 H1077 0.929 . S
C1087 C1085 1.433 . S
C1087 N1090 1.384 . S
C1088 H1079 0.929 . S
C1088 C1080 1.378 . S
C1088 C1083 1.350 . S
C1089 H1076 0.929 . S
C1089 C1081 1.433 . S
C1089 N1091 1.384 . S
N1090 C1086 1.427 . S
N1090 C1087 1.384 . S
N1091 C1083 1.427 . S
N1091 C1089 1.384 . S
H1092 C1098 0.930 . S
H1093 C1102 0.930 . S
H1094 C1107 0.929 . S
H1095 C1105 0.929 . S
H1096 C1100 0.929 . S
H1097 C1106 0.929 . S
C1098 H1092 0.930 . S
C1098 C1099 1.367 . S
C1098 C1106 1.378 . S
C1099 C1098 1.367 . S
C1099 C1107 1.433 . S
C1100 H1096 0.929 . S
C1100 C1102 1.378 . S
C1100 C1104 1.350 . S
C1101 C1104 1.463 . S
C1101 C1106 1.350 . S
C1101 N1109 1.427 . S
C1102 H1093 0.930 . S
C1102 C1100 1.378 . S
C1102 C1103 1.367 . S
C1103 C1102 1.367 . S
C1103 C1105 1.433 . S
C1104 C1100 1.350 . S
C1104 C1101 1.463 . S
C1104 N1108 1.427 . S
C1105 H1095 0.929 . S
C1105 C1103 1.433 . S
C1105 N1108 1.384 . S
C1106 H1097 0.929 . S
C1106 C1098 1.378 . S
C1106 C1101 1.350 . S
C1107 H1094 0.929 . S
C1107 C1099 1.433 . S
C1107 N1109 1.384 . S
N1108 C1104 1.427 . S
N1108 C1105 1.384 . S
N1109 C1101 1.427 . S
N1109 C1107 1.384 . S
H1110 C1116 0.930 . S
H1111 C1120 0.930 . S
H1112 C1125 0.929 . S
H1113 C1123 0.929 . S
H1114 C1118 0.929 . S
H1115 C1124 0.929 . S
C1116 H1110 0.930 . S
C1116 C1117 1.367 . S
C1116 C1124 1.378 . S
C1117 C1116 1.367 . S
C1117 C1125 1.433 . S
C1118 H1114 0.929 . S
C1118 C1120 1.378 . S
C1118 C1122 1.350 . S
C1119 C1122 1.463 . S
C1119 C1124 1.350 . S
C1119 N1127 1.427 . S
C1120 H1111 0.930 . S
C1120 C1118 1.378 . S
C1120 C1121 1.367 . S
C1121 C1120 1.367 . S
C1121 C1123 1.433 . S
C1122 C1118 1.350 . S
C1122 C1119 1.463 . S
C1122 N1126 1.427 . S
C1123 H1113 0.929 . S
C1123 C1121 1.433 . S
C1123 N1126 1.384 . S
C1124 H1115 0.929 . S
C1124 C1116 1.378 . S
C1124 C1119 1.350 . S
C1125 H1112 0.929 . S
C1125 C1117 1.433 . S
C1125 N1127 1.384 . S
N1126 C1122 1.427 . S
N1126 C1123 1.384 . S
N1127 C1119 1.427 . S
N1127 C1125 1.384 . S
C487 C10 1.083 . S
C491 C330 1.075 . S
C505 C50 1.079 . S
C509 C370 1.074 . S
C523 C90 1.086 . S
C527 C410 1.077 . S
C541 C450 1.074 . S
C545 C130 1.079 . S
C559 C170 1.078 . S
C563 C250 1.075 . S
C577 C290 1.075 . S
C581 C210 1.079 . S
C595 C416 1.437 . S
C599 C16 1.431 . S
C613 C456 1.442 . S
C617 C56 1.437 . S
C631 C96 1.441 . S
C635 C256 1.442 . S
C649 C296 1.436 . S
C653 C136 1.441 . S
C667 C336 1.441 . S
C671 C176 1.436 . S
C685 C216 1.437 . S
C689 C376 1.431 . S
C703 C291 4.331 . S
C707 C11 4.331 . S
C721 C331 4.330 . S
C725 C51 4.333 . S
C739 C371 4.333 . S
C743 C91 4.334 . S
C757 C131 4.334 . S
C761 C411 4.333 . S
C775 C171 4.334 . S
C779 C451 4.330 . S
C793 C211 4.330 . S
C797 C251 4.332 . S
C811 C19 0.505 . S
C815 C139 0.536 . S
C829 C59 0.510 . S
C833 C179 0.539 . S
C847 C99 0.503 . S
C851 C219 0.535 . S
C865 C379 0.523 . S
C869 C259 0.543 . S
C883 C299 0.539 . S
C887 C419 0.538 . S
C901 C459 0.499 . S
C905 C339 0.530 . S
C919 C287 0.764 . S
C923 C7 0.780 . S
C937 C327 0.772 . S
C941 C47 0.754 . S
C955 C87 0.780 . S
C959 C367 0.779 . S
C973 C407 0.781 . S
C977 C127 0.768 . S
C991 C447 0.782 . S
C995 C167 0.776 . S
C1009 C207 0.750 . S
C1013 C247 0.769 . S
C1027 C2 4.665 . S
C1031 C402 4.666 . S
C1045 C42 4.665 . S
C1049 C442 4.667 1_556 S
C1063 C82 4.665 1_554 S
C1067 C242 4.666 . S
C1081 C122 4.667 . S
C1085 C282 4.665 . S
C1099 C162 4.667 . S
C1103 C322 4.665 1_556 S
C1117 C362 4.666 . S
C1121 C202 4.667 1_554 S
