# Generated by pormake.
# Topology uml, (4)-cn, num edge types: 1
# Building blocks:
#     Node 0, Type 0, BuildingBlock: KUFVIS_clean_sbu_0, # of connection points: 4
#     Node 1, Type 0, BuildingBlock: KUFVIS_clean_sbu_0, # of connection points: 4
#     Node 2, Type 0, BuildingBlock: KUFVIS_clean_sbu_0, # of connection points: 4
#     Node 3, Type 0, BuildingBlock: KUFVIS_clean_sbu_0, # of connection points: 4
#     Node 4, Type 0, BuildingBlock: KUFVIS_clean_sbu_0, # of connection points: 4
#     Node 5, Type 0, BuildingBlock: KUFVIS_clean_sbu_0, # of connection points: 4
#     Node 6, Type 0, BuildingBlock: KUFVIS_clean_sbu_0, # of connection points: 4
#     Node 7, Type 0, BuildingBlock: KUFVIS_clean_sbu_0, # of connection points: 4
#     Node 8, Type 0, BuildingBlock: KUFVIS_clean_sbu_0, # of connection points: 4
#     Node 9, Type 0, BuildingBlock: KUFVIS_clean_sbu_0, # of connection points: 4
#     Node 10, Type 0, BuildingBlock: KUFVIS_clean_sbu_0, # of connection points: 4
#     Node 11, Type 0, BuildingBlock: KUFVIS_clean_sbu_0, # of connection points: 4
#     Node 12, Type 0, BuildingBlock: KUFVIS_clean_sbu_0, # of connection points: 4
#     Node 13, Type 0, BuildingBlock: KUFVIS_clean_sbu_0, # of connection points: 4
#     Node 14, Type 0, BuildingBlock: KUFVIS_clean_sbu_0, # of connection points: 4
#     Node 15, Type 0, BuildingBlock: KUFVIS_clean_sbu_0, # of connection points: 4
#     Node 16, Type 0, BuildingBlock: KUFVIS_clean_sbu_0, # of connection points: 4
#     Node 17, Type 0, BuildingBlock: KUFVIS_clean_sbu_0, # of connection points: 4
#     Node 18, Type 0, BuildingBlock: KUFVIS_clean_sbu_0, # of connection points: 4
#     Node 19, Type 0, BuildingBlock: KUFVIS_clean_sbu_0, # of connection points: 4
#     Node 20, Type 0, BuildingBlock: KUFVIS_clean_sbu_0, # of connection points: 4
#     Node 21, Type 0, BuildingBlock: KUFVIS_clean_sbu_0, # of connection points: 4
#     Node 22, Type 0, BuildingBlock: KUFVIS_clean_sbu_0, # of connection points: 4
#     Node 23, Type 0, BuildingBlock: KUFVIS_clean_sbu_0, # of connection points: 4
#     Node 24, Type 0, BuildingBlock: KUFVIS_clean_sbu_0, # of connection points: 4
#     Node 25, Type 0, BuildingBlock: KUFVIS_clean_sbu_0, # of connection points: 4
#     Node 26, Type 0, BuildingBlock: KUFVIS_clean_sbu_0, # of connection points: 4
#     Node 27, Type 0, BuildingBlock: KUFVIS_clean_sbu_0, # of connection points: 4
#     Node 28, Type 0, BuildingBlock: KUFVIS_clean_sbu_0, # of connection points: 4
#     Node 29, Type 0, BuildingBlock: KUFVIS_clean_sbu_0, # of connection points: 4
#     Node 30, Type 0, BuildingBlock: KUFVIS_clean_sbu_0, # of connection points: 4
#     Node 31, Type 0, BuildingBlock: KUFVIS_clean_sbu_0, # of connection points: 4
#     Node 32, Type 0, BuildingBlock: KUFVIS_clean_sbu_0, # of connection points: 4
#     Node 33, Type 0, BuildingBlock: KUFVIS_clean_sbu_0, # of connection points: 4
#     Node 34, Type 0, BuildingBlock: KUFVIS_clean_sbu_0, # of connection points: 4
#     Node 35, Type 0, BuildingBlock: KUFVIS_clean_sbu_0, # of connection points: 4
#     Edge 36, Type (0, 0), BuildingBlock: UVAHIK_clean_linker_0, # of connection points: 2
#     Edge 37, Type (0, 0), BuildingBlock: UVAHIK_clean_linker_0, # of connection points: 2
#     Edge 38, Type (0, 0), BuildingBlock: UVAHIK_clean_linker_0, # of connection points: 2
#     Edge 39, Type (0, 0), BuildingBlock: UVAHIK_clean_linker_0, # of connection points: 2
#     Edge 40, Type (0, 0), BuildingBlock: UVAHIK_clean_linker_0, # of connection points: 2
#     Edge 41, Type (0, 0), BuildingBlock: UVAHIK_clean_linker_0, # of connection points: 2
#     Edge 42, Type (0, 0), BuildingBlock: UVAHIK_clean_linker_0, # of connection points: 2
#     Edge 43, Type (0, 0), BuildingBlock: UVAHIK_clean_linker_0, # of connection points: 2
#     Edge 44, Type (0, 0), BuildingBlock: UVAHIK_clean_linker_0, # of connection points: 2
#     Edge 45, Type (0, 0), BuildingBlock: UVAHIK_clean_linker_0, # of connection points: 2
#     Edge 46, Type (0, 0), BuildingBlock: UVAHIK_clean_linker_0, # of connection points: 2
#     Edge 47, Type (0, 0), BuildingBlock: UVAHIK_clean_linker_0, # of connection points: 2
#     Edge 48, Type (0, 0), BuildingBlock: UVAHIK_clean_linker_0, # of connection points: 2
#     Edge 49, Type (0, 0), BuildingBlock: UVAHIK_clean_linker_0, # of connection points: 2
#     Edge 50, Type (0, 0), BuildingBlock: UVAHIK_clean_linker_0, # of connection points: 2
#     Edge 51, Type (0, 0), BuildingBlock: UVAHIK_clean_linker_0, # of connection points: 2
#     Edge 52, Type (0, 0), BuildingBlock: UVAHIK_clean_linker_0, # of connection points: 2
#     Edge 53, Type (0, 0), BuildingBlock: UVAHIK_clean_linker_0, # of connection points: 2
#     Edge 54, Type (0, 0), BuildingBlock: UVAHIK_clean_linker_0, # of connection points: 2
#     Edge 55, Type (0, 0), BuildingBlock: UVAHIK_clean_linker_0, # of connection points: 2
#     Edge 56, Type (0, 0), BuildingBlock: UVAHIK_clean_linker_0, # of connection points: 2
#     Edge 57, Type (0, 0), BuildingBlock: UVAHIK_clean_linker_0, # of connection points: 2
#     Edge 58, Type (0, 0), BuildingBlock: UVAHIK_clean_linker_0, # of connection points: 2
#     Edge 59, Type (0, 0), BuildingBlock: UVAHIK_clean_linker_0, # of connection points: 2
#     Edge 60, Type (0, 0), BuildingBlock: UVAHIK_clean_linker_0, # of connection points: 2
#     Edge 61, Type (0, 0), BuildingBlock: UVAHIK_clean_linker_0, # of connection points: 2
#     Edge 62, Type (0, 0), BuildingBlock: UVAHIK_clean_linker_0, # of connection points: 2
#     Edge 63, Type (0, 0), BuildingBlock: UVAHIK_clean_linker_0, # of connection points: 2
#     Edge 64, Type (0, 0), BuildingBlock: UVAHIK_clean_linker_0, # of connection points: 2
#     Edge 65, Type (0, 0), BuildingBlock: UVAHIK_clean_linker_0, # of connection points: 2
#     Edge 66, Type (0, 0), BuildingBlock: UVAHIK_clean_linker_0, # of connection points: 2
#     Edge 67, Type (0, 0), BuildingBlock: UVAHIK_clean_linker_0, # of connection points: 2
#     Edge 68, Type (0, 0), BuildingBlock: UVAHIK_clean_linker_0, # of connection points: 2
#     Edge 69, Type (0, 0), BuildingBlock: UVAHIK_clean_linker_0, # of connection points: 2
#     Edge 70, Type (0, 0), BuildingBlock: UVAHIK_clean_linker_0, # of connection points: 2
#     Edge 71, Type (0, 0), BuildingBlock: UVAHIK_clean_linker_0, # of connection points: 2
#     Edge 72, Type (0, 0), BuildingBlock: UVAHIK_clean_linker_0, # of connection points: 2
#     Edge 73, Type (0, 0), BuildingBlock: UVAHIK_clean_linker_0, # of connection points: 2
#     Edge 74, Type (0, 0), BuildingBlock: UVAHIK_clean_linker_0, # of connection points: 2
#     Edge 75, Type (0, 0), BuildingBlock: UVAHIK_clean_linker_0, # of connection points: 2
#     Edge 76, Type (0, 0), BuildingBlock: UVAHIK_clean_linker_0, # of connection points: 2
#     Edge 77, Type (0, 0), BuildingBlock: UVAHIK_clean_linker_0, # of connection points: 2
#     Edge 78, Type (0, 0), BuildingBlock: UVAHIK_clean_linker_0, # of connection points: 2
#     Edge 79, Type (0, 0), BuildingBlock: UVAHIK_clean_linker_0, # of connection points: 2
#     Edge 80, Type (0, 0), BuildingBlock: UVAHIK_clean_linker_0, # of connection points: 2
#     Edge 81, Type (0, 0), BuildingBlock: UVAHIK_clean_linker_0, # of connection points: 2
#     Edge 82, Type (0, 0), BuildingBlock: UVAHIK_clean_linker_0, # of connection points: 2
#     Edge 83, Type (0, 0), BuildingBlock: UVAHIK_clean_linker_0, # of connection points: 2
#     Edge 84, Type (0, 0), BuildingBlock: UVAHIK_clean_linker_0, # of connection points: 2
#     Edge 85, Type (0, 0), BuildingBlock: UVAHIK_clean_linker_0, # of connection points: 2
#     Edge 86, Type (0, 0), BuildingBlock: UVAHIK_clean_linker_0, # of connection points: 2
#     Edge 87, Type (0, 0), BuildingBlock: UVAHIK_clean_linker_0, # of connection points: 2
#     Edge 88, Type (0, 0), BuildingBlock: UVAHIK_clean_linker_0, # of connection points: 2
#     Edge 89, Type (0, 0), BuildingBlock: UVAHIK_clean_linker_0, # of connection points: 2
#     Edge 90, Type (0, 0), BuildingBlock: UVAHIK_clean_linker_0, # of connection points: 2
#     Edge 91, Type (0, 0), BuildingBlock: UVAHIK_clean_linker_0, # of connection points: 2
#     Edge 92, Type (0, 0), BuildingBlock: UVAHIK_clean_linker_0, # of connection points: 2
#     Edge 93, Type (0, 0), BuildingBlock: UVAHIK_clean_linker_0, # of connection points: 2
#     Edge 94, Type (0, 0), BuildingBlock: UVAHIK_clean_linker_0, # of connection points: 2
#     Edge 95, Type (0, 0), BuildingBlock: UVAHIK_clean_linker_0, # of connection points: 2
#     Edge 96, Type (0, 0), BuildingBlock: UVAHIK_clean_linker_0, # of connection points: 2
#     Edge 97, Type (0, 0), BuildingBlock: UVAHIK_clean_linker_0, # of connection points: 2
#     Edge 98, Type (0, 0), BuildingBlock: UVAHIK_clean_linker_0, # of connection points: 2
#     Edge 99, Type (0, 0), BuildingBlock: UVAHIK_clean_linker_0, # of connection points: 2
#     Edge 100, Type (0, 0), BuildingBlock: UVAHIK_clean_linker_0, # of connection points: 2
#     Edge 101, Type (0, 0), BuildingBlock: UVAHIK_clean_linker_0, # of connection points: 2
#     Edge 102, Type (0, 0), BuildingBlock: UVAHIK_clean_linker_0, # of connection points: 2
#     Edge 103, Type (0, 0), BuildingBlock: UVAHIK_clean_linker_0, # of connection points: 2
#     Edge 104, Type (0, 0), BuildingBlock: UVAHIK_clean_linker_0, # of connection points: 2
#     Edge 105, Type (0, 0), BuildingBlock: UVAHIK_clean_linker_0, # of connection points: 2
#     Edge 106, Type (0, 0), BuildingBlock: UVAHIK_clean_linker_0, # of connection points: 2
#     Edge 107, Type (0, 0), BuildingBlock: UVAHIK_clean_linker_0, # of connection points: 2
# Relax obj value: 0.176
# Max RMSD: 0.463
# Mean RMSD: 0.280
data_MOF--net-uml--node1-KUFVIS_clean_sbu_0--edge1-UVAHIK_clean_linker_0
_symmetry_space_group_name_H-M    P1
_symmetry_Int_Tables_number       1
_symmetry_cell_setting            triclinic
loop_
_symmetry_equiv_pos_as_xyz
'x, y, z'
_cell_length_a     113.95557
_cell_length_b     117.56121
_cell_length_c     34.881428
_cell_angle_alpha  90.006169
_cell_angle_beta   90.077117
_cell_angle_gamma 118.90913
loop_
_atom_site_label
_atom_site_type_symbol
_atom_site_fract_x
_atom_site_fract_y
_atom_site_fract_z
_atom_type_partial_charge
Mn0 Mn 0.37906 0.13812 0.17229 0.0
Mn1 Mn 0.34809 0.13498 0.18074 0.0
C2 C 0.36691 0.13642 0.1178 0.0
C3 C 0.39218 0.12793 0.17051 0.0
C4 C 0.37378 0.16079 0.18718 0.0
O5 O 0.37504 0.13464 0.22932 0.0
O6 O 0.3535 0.13017 0.22936 0.0
C7 C 0.33324 0.10635 0.18819 0.0
N8 N 0.33519 0.11736 0.16991 0.0
C9 C 0.31723 0.10506 0.12568 0.0
C10 C 0.31497 0.09359 0.14418 0.0
C11 C 0.32304 0.09424 0.1755 0.0
C12 C 0.32761 0.11683 0.13943 0.0
H13 H 0.33945 0.10681 0.21221 0.0
C14 C 0.36387 0.13103 0.24619 0.0
O15 O 0.39748 0.14025 0.17842 0.0
O16 O 0.37931 0.12154 0.1658 0.0
N17 N 0.34111 0.13928 0.13645 0.0
C18 C 0.34407 0.1513 0.12326 0.0
C19 C 0.33667 0.1524 0.09264 0.0
C20 C 0.32611 0.14117 0.07646 0.0
C21 C 0.32292 0.12895 0.09143 0.0
C22 C 0.33058 0.12846 0.12219 0.0
H23 H 0.35205 0.15998 0.13591 0.0
O24 O 0.37963 0.14037 0.1158 0.0
O25 O 0.3614 0.1327 0.15139 0.0
O26 O 0.38209 0.15673 0.17915 0.0
O27 O 0.36111 0.15338 0.19061 0.0
C28 C 0.31238 0.11723 0.07719 0.0
C29 C 0.3096 0.10529 0.09415 0.0
H30 H 0.30708 0.08424 0.13456 0.0
H31 H 0.32139 0.08542 0.18983 0.0
H32 H 0.33909 0.16188 0.08156 0.0
H33 H 0.32042 0.14204 0.05283 0.0
H34 H 0.30637 0.11729 0.05321 0.0
H35 H 0.3015 0.09634 0.08288 0.0
Mn36 Mn 0.85487 0.33876 0.13257 0.0
Mn37 Mn 0.86558 0.3172 0.11305 0.0
C38 C 0.85209 0.33025 0.07203 0.0
C39 C 0.86056 0.36057 0.13577 0.0
C40 C 0.8395 0.3101 0.15463 0.0
O41 O 0.86638 0.34018 0.17867 0.0
O42 O 0.87447 0.32697 0.16038 0.0
C43 C 0.89367 0.33607 0.09396 0.0
N44 N 0.88175 0.32567 0.08397 0.0
C45 C 0.89043 0.32397 0.02268 0.0
C46 C 0.90284 0.33461 0.03239 0.0
C47 C 0.90445 0.34071 0.06815 0.0
C48 C 0.88005 0.31981 0.04954 0.0
H49 H 0.89491 0.34079 0.12139 0.0
C50 C 0.87369 0.33486 0.18418 0.0
O51 O 0.85032 0.35195 0.15494 0.0
O52 O 0.86754 0.35658 0.1165 0.0
N53 N 0.85789 0.30681 0.06826 0.0
C54 C 0.84525 0.29674 0.06322 0.0
C55 C 0.84198 0.28957 0.02895 0.0
C56 C 0.85177 0.29272 0.00047 0.0
C57 C 0.86476 0.30298 0.00657 0.0
C58 C 0.86747 0.30969 0.04145 0.0
H59 H 0.83771 0.2942 0.08515 0.0
O60 O 0.84527 0.33585 0.0829 0.0
O61 O 0.86074 0.33025 0.09643 0.0
O62 O 0.83991 0.32117 0.15263 0.0
O63 O 0.84873 0.30787 0.14191 0.0
C64 C 0.87511 0.30689 0.97928 0.0
C65 C 0.88791 0.31742 0.98726 0.0
H66 H 0.91117 0.33822 0.01255 0.0
H67 H 0.91397 0.34896 0.07578 0.0
H68 H 0.83194 0.28164 0.02451 0.0
H69 H 0.84921 0.28719 0.97406 0.0
H70 H 0.87328 0.30195 0.95193 0.0
H71 H 0.89575 0.32042 0.96591 0.0
Mn72 Mn 0.65374 0.61677 0.13927 0.0
Mn73 Mn 0.67736 0.64766 0.12164 0.0
C74 C 0.66161 0.6227 0.07798 0.0
C75 C 0.63096 0.6024 0.14484 0.0
C76 C 0.68329 0.62745 0.15785 0.0
O77 O 0.65408 0.62642 0.18799 0.0
O78 O 0.668 0.64703 0.17013 0.0
C79 C 0.6594 0.65879 0.10703 0.0
N80 N 0.66942 0.65646 0.09517 0.0
C81 C 0.67167 0.66771 0.03575 0.0
C82 C 0.66143 0.67031 0.0474 0.0
C83 C 0.65524 0.66579 0.08314 0.0
C84 C 0.67533 0.66062 0.06066 0.0
H85 H 0.65464 0.65533 0.13451 0.0
C86 C 0.6601 0.63863 0.19429 0.0
O87 O 0.63966 0.59972 0.16078 0.0
O88 O 0.63545 0.61338 0.12728 0.0
N89 N 0.68747 0.65001 0.07576 0.0
C90 C 0.69719 0.64668 0.06883 0.0
C91 C 0.70435 0.65044 0.03422 0.0
C92 C 0.70162 0.65777 0.00742 0.0
C93 C 0.69182 0.66137 0.01563 0.0
C94 C 0.68502 0.65736 0.0506 0.0
H95 H 0.69945 0.64117 0.08948 0.0
O96 O 0.65512 0.61054 0.08734 0.0
O97 O 0.66279 0.63102 0.10433 0.0
O98 O 0.67158 0.61757 0.15498 0.0
O99 O 0.6862 0.63899 0.14789 0.0
C100 C 0.68851 0.66877 0.99046 0.0
C101 C 0.67837 0.67184 0.00035 0.0
H102 H 0.65822 0.67573 0.02909 0.0
H103 H 0.64729 0.66771 0.09227 0.0
H104 H 0.71196 0.6477 0.02822 0.0
H105 H 0.70711 0.6606 0.98067 0.0
H106 H 0.69364 0.67205 0.96327 0.0
H107 H 0.6758 0.67739 0.98054 0.0
Mn108 Mn 0.05972 0.34401 0.33929 0.0
Mn109 Mn 0.03737 0.31313 0.3628 0.0
C110 C 0.05521 0.33818 0.40265 0.0
C111 C 0.06457 0.36525 0.32622 0.0
C112 C 0.06557 0.32132 0.33513 0.0
O113 O 0.04947 0.3367 0.28943 0.0
O114 O 0.03387 0.31685 0.3098 0.0
C115 C 0.01237 0.31497 0.36295 0.0
N116 N 0.02115 0.31212 0.38152 0.0
C117 C 0.00742 0.30555 0.43819 0.0
C118 C 0.99819 0.30835 0.4196 0.0
C119 C 0.0007 0.3131 0.38185 0.0
C120 C 0.01883 0.30751 0.41781 0.0
H121 H 0.01427 0.31864 0.33395 0.0
C122 C 0.03899 0.32571 0.28406 0.0
O123 O 0.07266 0.36097 0.31559 0.0
O124 O 0.05337 0.35698 0.34195 0.0
N125 N 0.03964 0.30842 0.41373 0.0
C126 C 0.05005 0.30721 0.42859 0.0
C127 C 0.04942 0.30312 0.46672 0.0
C128 C 0.03807 0.30023 0.48907 0.0
C129 C 0.02745 0.30146 0.47308 0.0
C130 C 0.02861 0.30553 0.43487 0.0
H131 H 0.0588 0.30944 0.41158 0.0
O132 O 0.06631 0.34833 0.39305 0.0
O133 O 0.04708 0.33171 0.3749 0.0
O134 O 0.06961 0.33349 0.33283 0.0
O135 O 0.05368 0.31296 0.34472 0.0
C136 C 0.01591 0.29915 0.49387 0.0
C137 C 0.0059 0.30119 0.47643 0.0
H138 H 0.98922 0.30701 0.43416 0.0
H139 H 0.99365 0.31534 0.36739 0.0
H140 H 0.05768 0.30224 0.4789 0.0
H141 H 0.03769 0.29721 0.5186 0.0
H142 H 0.01477 0.29606 0.52353 0.0
H143 H 0.99719 0.2996 0.49292 0.0
Mn144 Mn 0.6518 0.82039 0.3559 0.0
Mn145 Mn 0.68392 0.82943 0.37904 0.0
C146 C 0.65794 0.82084 0.41895 0.0
C147 C 0.63004 0.80446 0.34165 0.0
C148 C 0.67442 0.84861 0.35764 0.0
O149 O 0.65956 0.81873 0.30491 0.0
O150 O 0.68053 0.8242 0.32436 0.0
C151 C 0.68262 0.80378 0.37051 0.0
N152 N 0.6852 0.81431 0.39253 0.0
C153 C 0.69135 0.80548 0.44635 0.0
C154 C 0.68883 0.79458 0.42418 0.0
C155 C 0.68441 0.79372 0.38613 0.0
C156 C 0.68936 0.81519 0.42926 0.0
H157 H 0.67921 0.80307 0.34126 0.0
C158 C 0.67137 0.82046 0.29863 0.0
O159 O 0.63422 0.81655 0.33287 0.0
O160 O 0.63875 0.80156 0.35604 0.0
N161 N 0.68849 0.83456 0.4314 0.0
C162 C 0.69018 0.84557 0.44921 0.0
C163 C 0.69443 0.84784 0.48761 0.0
C164 C 0.69703 0.83885 0.50715 0.0
C165 C 0.69543 0.8277 0.48804 0.0
C166 C 0.69122 0.82597 0.44973 0.0
H167 H 0.68825 0.85254 0.43432 0.0
O168 O 0.64721 0.82149 0.4104 0.0
O169 O 0.66474 0.81993 0.39043 0.0
O170 O 0.66214 0.84023 0.35248 0.0
O171 O 0.68345 0.84561 0.36675 0.0
C172 C 0.69775 0.81817 0.50559 0.0
C173 C 0.69564 0.80704 0.48483 0.0
H174 H 0.69019 0.78679 0.43612 0.0
H175 H 0.6824 0.78531 0.36888 0.0
H176 H 0.69567 0.85649 0.50213 0.0
H177 H 0.70022 0.84059 0.53685 0.0
H178 H 0.701 0.81924 0.5352 0.0
H179 H 0.69728 0.7997 0.4988 0.0
Mn180 Mn 0.18196 0.94217 0.30973 0.0
Mn181 Mn 0.17669 0.96784 0.32023 0.0
C182 C 0.18075 0.94947 0.37003 0.0
C183 C 0.19711 0.93431 0.30417 0.0
C184 C 0.1548 0.94076 0.29874 0.0
O185 O 0.18598 0.95035 0.25652 0.0
O186 O 0.18466 0.96855 0.26923 0.0
C187 C 0.20491 0.98887 0.3211 0.0
N188 N 0.19267 0.98256 0.33821 0.0
C189 C 0.20049 0.99709 0.39227 0.0
C190 C 0.21312 0.00387 0.37493 0.0
C191 C 0.21535 0.9997 0.33927 0.0
C192 C 0.19046 0.9864 0.37273 0.0
H193 H 0.20672 0.98561 0.29393 0.0
C194 C 0.1874 0.96145 0.24705 0.0
O195 O 0.18469 0.92723 0.29358 0.0
O196 O 0.20075 0.94602 0.31559 0.0
N197 N 0.16921 0.96835 0.36894 0.0
C198 C 0.15671 0.96029 0.38286 0.0
C199 C 0.15303 0.96282 0.41897 0.0
C200 C 0.16219 0.97365 0.44025 0.0
C201 C 0.17493 0.98187 0.42517 0.0
C202 C 0.17801 0.9789 0.38893 0.0
H203 H 0.14962 0.95197 0.36667 0.0
O204 O 0.17888 0.93778 0.36541 0.0
O205 O 0.1834 0.95652 0.33939 0.0
O206 O 0.16185 0.93503 0.30154 0.0
O207 O 0.15956 0.95302 0.30292 0.0
C208 C 0.18477 0.99277 0.44493 0.0
C209 C 0.19755 1.00037 0.42853 0.0
H210 H 0.22122 0.01219 0.38895 0.0
H211 H 0.22511 0.0048 0.32589 0.0
H212 H 0.14318 0.95643 0.43041 0.0
H213 H 0.15935 0.97551 0.46822 0.0
H214 H 0.18269 0.99529 0.47304 0.0
H215 H 0.20511 0.0086 0.4443 0.0
Mn216 Mn 0.66308 0.93882 0.81612 0.0
Mn217 Mn 0.65519 0.91281 0.87306 0.0
C218 C 0.6756 0.92818 0.81308 0.0
C219 C 0.66025 0.94812 0.76045 0.0
C220 C 0.67055 0.94049 0.90124 0.0
O221 O 0.64444 0.93424 0.83494 0.0
O222 O 0.64025 0.91696 0.87151 0.0
C223 C 0.63381 0.89351 0.82315 0.0
N224 N 0.6455 0.89751 0.84278 0.0
C225 C 0.64624 0.87802 0.82612 0.0
C226 C 0.63418 0.87366 0.80582 0.0
C227 C 0.62799 0.88148 0.80413 0.0
C228 C 0.6517 0.89022 0.84379 0.0
H229 H 0.62897 0.89945 0.82214 0.0
C230 C 0.63696 0.92509 0.85764 0.0
O231 O 0.6651 0.95489 0.79147 0.0
O232 O 0.65685 0.93587 0.76187 0.0
N233 N 0.66837 0.90727 0.87866 0.0
C234 C 0.67967 0.91267 0.90068 0.0
C235 C 0.68695 0.90597 0.90594 0.0
C236 C 0.68234 0.89364 0.88942 0.0
C237 C 0.67046 0.8881 0.86792 0.0
C238 C 0.66369 0.89528 0.8634 0.0
H239 H 0.6831 0.92202 0.9141 0.0
O240 O 0.68045 0.93997 0.80042 0.0
O241 O 0.66336 0.92272 0.82602 0.0
O242 O 0.67051 0.94582 0.86942 0.0
O243 O 0.66537 0.92821 0.90586 0.0
C244 C 0.66494 0.87564 0.85129 0.0
C245 C 0.65295 0.87068 0.82991 0.0
H246 H 0.62958 0.86431 0.7915 0.0
H247 H 0.6187 0.8782 0.78849 0.0
H248 H 0.69604 0.91027 0.92289 0.0
H249 H 0.68796 0.88849 0.89363 0.0
H250 H 0.66987 0.8698 0.85463 0.0
H251 H 0.6489 0.86116 0.81688 0.0
Mn252 Mn 0.07122 0.82444 0.84222 0.0
Mn253 Mn 0.04733 0.83322 0.85382 0.0
C254 C 0.06485 0.82678 0.90322 0.0
C255 C 0.07683 0.80797 0.83488 0.0
C256 C 0.07608 0.85206 0.83111 0.0
O257 O 0.06263 0.82152 0.7891 0.0
O258 O 0.04508 0.82471 0.80305 0.0
C259 C 0.02353 0.80705 0.85725 0.0
N260 N 0.03124 0.81898 0.87313 0.0
C261 C 0.01648 0.81357 0.92743 0.0
C262 C 0.00825 0.80131 0.91128 0.0
C263 C 0.01183 0.79801 0.87613 0.0
C264 C 0.02799 0.82218 0.90721 0.0
H265 H 0.02635 0.80442 0.83054 0.0
C266 C 0.0516 0.82125 0.78027 0.0
O267 O 0.0851 0.81983 0.8246 0.0
O268 O 0.06519 0.80565 0.84742 0.0
N269 N 0.0482 0.84142 0.90201 0.0
C270 C 0.05765 0.8533 0.9149 0.0
C271 C 0.05579 0.85792 0.95025 0.0
C272 C 0.0442 0.85032 0.97186 0.0
C273 C 0.03459 0.83815 0.95799 0.0
C274 C 0.03692 0.83411 0.92236 0.0
H275 H 0.06654 0.85924 0.89837 0.0
O276 O 0.07619 0.82698 0.89773 0.0
O277 O 0.05747 0.82494 0.873 0.0
O278 O 0.08068 0.84413 0.8343 0.0
O279 O 0.06367 0.84872 0.83515 0.0
C280 C 0.02291 0.82977 0.9784 0.0
C281 C 0.01388 0.81747 0.9632 0.0
H282 H 0.99926 0.79429 0.92586 0.0
H283 H 0.00562 0.78851 0.86371 0.0
H284 H 0.06326 0.86732 0.96081 0.0
H285 H 0.04282 0.85391 -0.00087 0.0
H286 H 0.02089 0.8326 0.00613 0.0
H287 H 0.00506 0.81102 0.97948 0.0
Mn288 Mn 0.1728 0.34234 0.83163 0.0
Mn289 Mn 0.15345 0.34999 0.88776 0.0
C290 C 0.15011 0.32813 0.8361 0.0
C291 C 0.18327 0.34337 0.77347 0.0
C292 C 0.17147 0.33989 0.91897 0.0
O293 O 0.18476 0.3616 0.84215 0.0
O294 O 0.17063 0.36591 0.8763 0.0
C295 C 0.14792 0.36545 0.83077 0.0
N296 N 0.14337 0.35535 0.85591 0.0
C297 C 0.12041 0.34952 0.84263 0.0
C298 C 0.12485 0.3599 0.81673 0.0
C299 C 0.13867 0.36788 0.81069 0.0
C300 C 0.1301 0.34755 0.86168 0.0
H301 H 0.15853 0.37159 0.82609 0.0
C302 C 0.18202 0.3694 0.86057 0.0
O303 O 0.1877 0.34122 0.80546 0.0
O304 O 0.17304 0.34536 0.77547 0.0
N305 N 0.13649 0.33572 0.90191 0.0
C306 C 0.13388 0.32599 0.92738 0.0
C307 C 0.12053 0.31718 0.93679 0.0
C308 C 0.11004 0.31855 0.92033 0.0
C309 C 0.11297 0.32872 0.89452 0.0
C310 C 0.12647 0.33728 0.88652 0.0
H311 H 0.14192 0.32498 0.94044 0.0
O312 O 0.15825 0.32411 0.82425 0.0
O313 O 0.15542 0.34048 0.84399 0.0
O314 O 0.17565 0.33829 0.88662 0.0
O315 O 0.16327 0.34433 0.92279 0.0
C316 C 0.10304 0.33061 0.8761 0.0
C317 C 0.10676 0.34096 0.85001 0.0
H318 H 0.11775 0.36181 0.80118 0.0
H319 H 0.14217 0.37588 0.79064 0.0
H320 H 0.11834 0.30936 0.95677 0.0
H321 H 0.09976 0.31175 0.9277 0.0
H322 H 0.09251 0.32408 0.88147 0.0
H323 H 0.09903 0.34224 0.8357 0.0
Mn324 Mn 0.84803 0.61869 0.68026 0.0
Mn325 Mn 0.82516 0.59335 0.62821 0.0
C326 C 0.82673 0.61586 0.67366 0.0
C327 C 0.85875 0.627 0.73875 0.0
C328 C 0.845 0.61874 0.5922 0.0
O329 O 0.85733 0.60791 0.67227 0.0
O330 O 0.84182 0.59214 0.63562 0.0
C331 C 0.82011 0.57409 0.68942 0.0
N332 N 0.81542 0.57998 0.66486 0.0
C333 C 0.79299 0.56745 0.68922 0.0
C334 C 0.79757 0.5612 0.71464 0.0
C335 C 0.81119 0.56456 0.71478 0.0
C336 C 0.80237 0.57695 0.66488 0.0
H337 H 0.83058 0.57668 0.68973 0.0
C338 C 0.85334 0.59776 0.6517 0.0
O339 O 0.86422 0.63266 0.70658 0.0
O340 O 0.84752 0.61624 0.73655 0.0
N341 N 0.80838 0.59267 0.61736 0.0
C342 C 0.80534 0.59844 0.58795 0.0
C343 C 0.79203 0.59582 0.58284 0.0
C344 C 0.78193 0.58695 0.60711 0.0
C345 C 0.78517 0.58051 0.63561 0.0
C346 C 0.7986 0.58353 0.63932 0.0
H347 H 0.81306 0.60512 0.56889 0.0
O348 O 0.83644 0.62678 0.68563 0.0
O349 O 0.82949 0.60638 0.66863 0.0
O350 O 0.85129 0.62422 0.62324 0.0
O351 O 0.83486 0.60729 0.59077 0.0
C352 C 0.77556 0.57105 0.66002 0.0
C353 C 0.77948 0.56457 0.68695 0.0
H354 H 0.79071 0.5538 0.73412 0.0
H355 H 0.81481 0.5598 0.73437 0.0
H356 H 0.78958 0.60063 0.56024 0.0
H357 H 0.77168 0.58498 0.60314 0.0
H358 H 0.76511 0.5686 0.65806 0.0
H359 H 0.772 0.55727 0.70544 0.0
Mn360 Mn 0.37654 0.34127 0.65041 0.0
Mn361 Mn 0.34614 0.31505 0.63638 0.0
C362 C 0.37017 0.33348 0.58912 0.0
C363 C 0.38887 0.3637 0.65715 0.0
C364 C 0.37039 0.31342 0.66556 0.0
O365 O 0.36719 0.33901 0.70172 0.0
O366 O 0.34649 0.32329 0.68633 0.0
C367 C 0.33056 0.32902 0.62829 0.0
N368 N 0.33438 0.32053 0.6141 0.0
C369 C 0.3206 0.31651 0.55806 0.0
C370 C 0.31643 0.32516 0.57217 0.0
C371 C 0.32148 0.33147 0.60738 0.0
C372 C 0.32972 0.31452 0.58007 0.0
H373 H 0.33443 0.33389 0.65535 0.0
C374 C 0.35491 0.33154 0.70994 0.0
O375 O 0.3935 0.35627 0.67003 0.0
O376 O 0.37702 0.35811 0.64202 0.0
N377 N 0.34389 0.30569 0.58964 0.0
C378 C 0.34887 0.29759 0.58018 0.0
C379 C 0.34477 0.29046 0.54587 0.0
C380 C 0.3354 0.29152 0.52204 0.0
C381 C 0.33015 0.29964 0.53286 0.0
C382 C 0.33456 0.30646 0.56748 0.0
H383 H 0.35595 0.29661 0.59859 0.0
O384 O 0.38257 0.34153 0.597 0.0
O385 O 0.3616 0.3308 0.61696 0.0
O386 O 0.37911 0.32544 0.66234 0.0
O387 O 0.35789 0.30876 0.65834 0.0
C388 C 0.32084 0.30137 0.51043 0.0
C389 C 0.31612 0.30986 0.52292 0.0
H390 H 0.30942 0.32706 0.55615 0.0
H391 H 0.31835 0.3382 0.61838 0.0
H392 H 0.34882 0.28416 0.53782 0.0
H393 H 0.33234 0.28608 0.49547 0.0
H394 H 0.31733 0.29631 0.48337 0.0
H395 H 0.30905 0.31119 0.50528 0.0
Mn396 Mn 0.67029 0.16924 0.68877 0.0
Mn397 Mn 0.66416 0.18995 0.63645 0.0
C398 C 0.68759 0.18943 0.67479 0.0
C399 C 0.67089 0.16015 0.74754 0.0
C400 C 0.67021 0.17034 0.59996 0.0
O401 O 0.65004 0.16022 0.68801 0.0
O402 O 0.64743 0.17345 0.64694 0.0
C403 C 0.65022 0.19478 0.70083 0.0
N404 N 0.6603 0.19938 0.67452 0.0
C405 C 0.66939 0.22112 0.69934 0.0
C406 C 0.65909 0.21662 0.72662 0.0
C407 C 0.64947 0.20339 0.72737 0.0
C408 C 0.6697 0.21206 0.67388 0.0
H409 H 0.64284 0.18462 0.70165 0.0
C410 C 0.64278 0.16295 0.66638 0.0
O411 O 0.6699 0.15405 0.71559 0.0
O412 O 0.67082 0.17112 0.74522 0.0
N413 N 0.67892 0.20641 0.62277 0.0
C414 C 0.68667 0.20948 0.59069 0.0
C415 C 0.69654 0.22242 0.58448 0.0
C416 C 0.69789 0.23215 0.61033 0.0
C417 C 0.68905 0.22889 0.64141 0.0
C418 C 0.67948 0.21581 0.6462 0.0
H419 H 0.68547 0.20204 0.57042 0.0
O420 O 0.68991 0.18033 0.68718 0.0
O421 O 0.67505 0.18684 0.67422 0.0
O422 O 0.67029 0.16466 0.63143 0.0
O423 O 0.66868 0.18045 0.5981 0.0
C424 C 0.68908 0.23816 0.66708 0.0
C425 C 0.67929 0.23426 0.69615 0.0
H426 H 0.65844 0.22324 0.74701 0.0
H427 H 0.6415 0.19984 0.74836 0.0
H428 H 0.70305 0.2249 0.55977 0.0
H429 H 0.70549 0.24212 0.60541 0.0
H430 H 0.69643 0.24833 0.66431 0.0
H431 H 0.67932 0.24149 0.71549 0.0
Mn432 Mn 0.04174 0.4745 0.50147 0.0
Mn433 Mn 0.01134 0.47277 0.50701 0.0
C434 C 0.0315 0.47597 0.44642 0.0
C435 C 0.0539 0.46338 0.4967 0.0
C436 C 0.03747 0.49713 0.52545 0.0
O437 O 0.03579 0.4684 0.55615 0.0
O438 O 0.01462 0.46504 0.55347 0.0
C439 C 0.9948 0.44418 0.50177 0.0
N440 N 0.9981 0.45622 0.48824 0.0
C441 C 0.98153 0.44717 0.43823 0.0
C442 C 0.97789 0.43467 0.45176 0.0
C443 C 0.98459 0.43317 0.48361 0.0
C444 C 0.99182 0.45777 0.45737 0.0
H445 H 0.99995 0.443 0.52619 0.0
C446 C 0.02424 0.46452 0.57091 0.0
O447 O 0.05951 0.47525 0.50945 0.0
O448 O 0.04125 0.4579 0.48857 0.0
N449 N 0.00652 0.47989 0.46432 0.0
C450 C 0.01091 0.49263 0.4557 0.0
C451 C 0.00506 0.49583 0.42501 0.0
C452 C 0.99461 0.48592 0.40394 0.0
C453 C 0.99001 0.4729 0.414 0.0
C454 C 0.99613 0.47031 0.44512 0.0
H455 H 0.01883 0.5003 0.47204 0.0
O456 O 0.04415 0.47947 0.44649 0.0
O457 O 0.02498 0.47094 0.47799 0.0
O458 O 0.04552 0.49293 0.51586 0.0
O459 O 0.02468 0.49018 0.52532 0.0
C460 C 0.97956 0.46239 0.39443 0.0
C461 C 0.97537 0.44953 0.40641 0.0
H462 H 0.97001 0.42615 0.43787 0.0
H463 H 0.98187 0.42355 0.49414 0.0
H464 H 0.00859 0.5059 0.41766 0.0
H465 H 0.99011 0.48842 0.38033 0.0
H466 H 0.97471 0.46409 0.37007 0.0
H467 H 0.96738 0.44152 0.39102 0.0
Mn468 Mn 0.5188 0.67267 0.4766 0.0
Mn469 Mn 0.52425 0.64736 0.45915 0.0
C470 C 0.51696 0.66513 0.41512 0.0
C471 C 0.52824 0.69505 0.48337 0.0
C472 C 0.49829 0.64443 0.49228 0.0
O473 O 0.52712 0.67083 0.52613 0.0
O474 O 0.53253 0.65553 0.50883 0.0
C475 C 0.55362 0.66235 0.44842 0.0
N476 N 0.54128 0.65367 0.43486 0.0
C477 C 0.5507 0.65091 0.37621 0.0
C478 C 0.56353 0.65975 0.38963 0.0
C479 C 0.56499 0.66553 0.42584 0.0
C480 C 0.53974 0.64818 0.39988 0.0
H481 H 0.55477 0.66681 0.47624 0.0
C482 C 0.53249 0.66371 0.53292 0.0
O483 O 0.51648 0.68735 0.49765 0.0
O484 O 0.53454 0.68977 0.46679 0.0
N485 N 0.51684 0.63827 0.41219 0.0
C486 C 0.50378 0.62981 0.40368 0.0
C487 C 0.50059 0.62318 0.36847 0.0
C488 C 0.51085 0.62511 0.34271 0.0
C489 C 0.52424 0.63356 0.35259 0.0
C490 C 0.52681 0.63987 0.38812 0.0
H491 H 0.49586 0.62819 0.4235 0.0
O492 O 0.512 0.6726 0.4242 0.0
O493 O 0.52351 0.66281 0.44186 0.0
O494 O 0.50104 0.65634 0.49015 0.0
O495 O 0.5064 0.64025 0.48309 0.0
C496 C 0.53513 0.63598 0.32857 0.0
C497 C 0.54834 0.64472 0.34023 0.0
H498 H 0.57232 0.66221 0.37234 0.0
H499 H 0.57485 0.6724 0.43634 0.0
H500 H 0.49024 0.6166 0.36119 0.0
H501 H 0.50834 0.62005 0.31547 0.0
H502 H 0.53345 0.63121 0.30096 0.0
H503 H 0.55662 0.6466 0.32134 0.0
Mn504 Mn 0.32548 0.94957 0.47615 0.0
Mn505 Mn 0.34992 0.98014 0.45896 0.0
C506 C 0.33338 0.95551 0.41477 0.0
C507 C 0.30259 0.93574 0.48184 0.0
C508 C 0.35475 0.95923 0.4952 0.0
O509 O 0.32629 0.95932 0.52518 0.0
O510 O 0.34052 0.97984 0.50702 0.0
C511 C 0.33297 0.99234 0.44354 0.0
N512 N 0.34269 0.98951 0.43209 0.0
C513 C 0.34577 0.00106 0.3728 0.0
C514 C 0.33584 0.00417 0.38401 0.0
C515 C 0.32938 0.99974 0.41947 0.0
C516 C 0.34885 0.99357 0.39784 0.0
H517 H 0.32801 0.98896 0.47082 0.0
C518 C 0.33253 0.97156 0.53129 0.0
O519 O 0.31106 0.93264 0.49724 0.0
O520 O 0.30738 0.94683 0.4647 0.0
N521 N 0.36007 0.9821 0.41341 0.0
C522 C 0.3694 0.97823 0.40684 0.0
C523 C 0.37675 0.98182 0.37254 0.0
C524 C 0.37462 0.98954 0.34569 0.0
C525 C 0.36521 0.99367 0.35351 0.0
C526 C 0.35818 0.98979 0.38817 0.0
H527 H 0.37122 0.97244 0.42756 0.0
O528 O 0.32655 0.94334 0.42381 0.0
O529 O 0.33492 0.96382 0.44149 0.0
O530 O 0.34294 0.9496 0.49158 0.0
O531 O 0.35809 0.97091 0.48568 0.0
C532 C 0.3625 0.00147 0.32826 0.0
C533 C 0.35271 0.00507 0.33773 0.0
H534 H 0.33308 0.00991 0.36559 0.0
H535 H 0.32168 0.00206 0.42827 0.0
H536 H 0.38407 0.97866 0.36685 0.0
H537 H 0.38026 0.99224 0.31919 0.0
H538 H 0.36782 0.00465 0.3013 0.0
H539 H 0.35059 0.01092 0.31783 0.0
Mn540 Mn 0.71893 0.67307 0.64169 0.0
Mn541 Mn 0.69551 0.64134 0.64274 0.0
C542 C 0.71134 0.6623 0.69902 0.0
C543 C 0.72442 0.69488 0.64242 0.0
C544 C 0.72487 0.65081 0.62557 0.0
O545 O 0.71136 0.6701 0.58739 0.0
O546 O 0.69503 0.6493 0.59312 0.0
C547 C 0.67126 0.64449 0.64071 0.0
N548 N 0.67869 0.63975 0.65818 0.0
C549 C 0.66241 0.63016 0.70861 0.0
C550 C 0.65455 0.63488 0.69103 0.0
C551 C 0.65901 0.6421 0.65697 0.0
C552 C 0.67452 0.63283 0.69103 0.0
H553 H 0.67467 0.65009 0.61461 0.0
C554 C 0.70129 0.6599 0.57418 0.0
O555 O 0.73298 0.69134 0.63061 0.0
O556 O 0.71257 0.68576 0.65161 0.0
N557 N 0.69477 0.6325 0.68954 0.0
C558 C 0.7037 0.62895 0.70347 0.0
C559 C 0.7008 0.62175 0.73759 0.0
C560 C 0.68871 0.61821 0.75689 0.0
C561 C 0.6796 0.62185 0.74179 0.0
C562 C 0.68297 0.62889 0.70744 0.0
H563 H 0.713 0.63161 0.68876 0.0
O564 O 0.72273 0.67292 0.69746 0.0
O565 O 0.70465 0.65841 0.6672 0.0
O566 O 0.7289 0.66291 0.63023 0.0
O567 O 0.71258 0.64206 0.6279 0.0
C568 C 0.66739 0.61891 0.75972 0.0
C569 C 0.65882 0.62309 0.7432 0.0
H570 H 0.64512 0.6331 0.70355 0.0
H571 H 0.65302 0.64582 0.64333 0.0
H572 H 0.70787 0.61897 0.74904 0.0
H573 H 0.68654 0.61273 0.78332 0.0
H574 H 0.66456 0.61356 0.78645 0.0
H575 H 0.64953 0.6209 0.75748 0.0
Mn576 Mn 0.3241 0.15834 0.6856 0.0
Mn577 Mn 0.35547 0.1648 0.7091 0.0
C578 C 0.33007 0.15866 0.7489 0.0
C579 C 0.3019 0.14335 0.6716 0.0
C580 C 0.34849 0.18565 0.68558 0.0
O581 O 0.33121 0.15548 0.63502 0.0
O582 O 0.35172 0.15939 0.65453 0.0
C583 C 0.3515 0.13807 0.70202 0.0
N584 N 0.35508 0.14893 0.7235 0.0
C585 C 0.35988 0.13933 0.77807 0.0
C586 C 0.35632 0.12807 0.75646 0.0
C587 C 0.35208 0.12742 0.7183 0.0
C588 C 0.35908 0.14962 0.76033 0.0
H589 H 0.34821 0.13752 0.6727 0.0
C590 C 0.3426 0.15617 0.62885 0.0
O591 O 0.30682 0.15552 0.6623 0.0
O592 O 0.31002 0.13987 0.6869 0.0
N593 N 0.36036 0.16998 0.76131 0.0
C594 C 0.36313 0.18141 0.77856 0.0
C595 C 0.36742 0.18357 0.81693 0.0
C596 C 0.36891 0.174 0.83707 0.0
C597 C 0.36616 0.16238 0.81859 0.0
C598 C 0.36201 0.16081 0.78023 0.0
H599 H 0.36199 0.1888 0.76328 0.0
O600 O 0.31995 0.16031 0.74004 0.0
O601 O 0.33638 0.15691 0.72055 0.0
O602 O 0.33595 0.17809 0.68044 0.0
O603 O 0.35665 0.18166 0.69585 0.0
C604 C 0.36726 0.15224 0.83681 0.0
C605 C 0.36407 0.1407 0.81662 0.0
H606 H 0.35674 0.11983 0.76892 0.0
H607 H 0.34926 0.11874 0.70148 0.0
H608 H 0.36952 0.19257 0.83099 0.0
H609 H 0.37211 0.17565 0.86676 0.0
H610 H 0.37041 0.15316 0.86649 0.0
H611 H 0.36479 0.13292 0.8311 0.0
Mn612 Mn 0.85044 0.28036 0.62867 0.0
Mn613 Mn 0.84391 0.3055 0.63201 0.0
C614 C 0.84629 0.28714 0.68641 0.0
C615 C 0.86553 0.27235 0.6306 0.0
C616 C 0.82327 0.27822 0.60865 0.0
O617 O 0.85677 0.28878 0.57637 0.0
O618 O 0.85294 0.30577 0.58315 0.0
C619 C 0.87195 0.32687 0.63534 0.0
N620 N 0.85942 0.32054 0.65076 0.0
C621 C 0.86603 0.33565 0.70338 0.0
C622 C 0.87898 0.34237 0.68793 0.0
C623 C 0.88195 0.33794 0.65381 0.0
C624 C 0.85648 0.32468 0.6837 0.0
H625 H 0.87429 0.32348 0.60917 0.0
C626 C 0.8573 0.29926 0.56413 0.0
O627 O 0.85365 0.26553 0.61585 0.0
O628 O 0.86884 0.284 0.64213 0.0
N629 N 0.83534 0.30656 0.678 0.0
C630 C 0.82245 0.29882 0.68959 0.0
C631 C 0.81791 0.30184 0.72353 0.0
C632 C 0.82661 0.31284 0.74494 0.0
C633 C 0.83975 0.3208 0.73205 0.0
C634 C 0.84368 0.31735 0.6979 0.0
H635 H 0.8157 0.29037 0.67324 0.0
O636 O 0.84486 0.27557 0.68292 0.0
O637 O 0.85036 0.29453 0.65626 0.0
O638 O 0.8308 0.27306 0.61289 0.0
O639 O 0.8273 0.29032 0.61376 0.0
C640 C 0.84913 0.33193 0.75197 0.0
C641 C 0.86228 0.33932 0.73776 0.0
H642 H 0.88673 0.3509 0.70213 0.0
H643 H 0.89193 0.34305 0.64179 0.0
H644 H 0.80775 0.29567 0.73321 0.0
H645 H 0.82311 0.31508 0.77127 0.0
H646 H 0.84637 0.33483 0.77849 0.0
H647 H 0.86945 0.34776 0.7536 0.0
Mn648 Mn 0.3316 0.27037 0.13827 0.0
Mn649 Mn 0.32032 0.24235 0.18797 0.0
C650 C 0.34323 0.25887 0.13533 0.0
C651 C 0.33078 0.28137 0.08388 0.0
C652 C 0.33538 0.26903 0.22446 0.0
O653 O 0.31273 0.26621 0.15379 0.0
O654 O 0.30566 0.24669 0.18136 0.0
C655 C 0.3016 0.22475 0.12922 0.0
N656 N 0.31221 0.22806 0.15317 0.0
C657 C 0.31373 0.20905 0.1354 0.0
C658 C 0.30279 0.2054 0.1106 0.0
C659 C 0.29676 0.21333 0.10731 0.0
C660 C 0.31829 0.22068 0.15585 0.0
H661 H 0.29687 0.23077 0.12697 0.0
C662 C 0.30374 0.25604 0.17029 0.0
O663 O 0.33512 0.28735 0.11636 0.0
O664 O 0.32677 0.26899 0.08311 0.0
N665 N 0.33313 0.23658 0.19767 0.0
C666 C 0.34334 0.2413 0.22369 0.0
C667 C 0.35036 0.23444 0.23073 0.0
C668 C 0.34657 0.22262 0.2118 0.0
C669 C 0.33575 0.21774 0.1861 0.0
C670 C 0.32923 0.22507 0.17993 0.0
H671 H 0.3461 0.25023 0.239 0.0
O672 O 0.34893 0.27098 0.12516 0.0
O673 O 0.33068 0.25365 0.14535 0.0
O674 O 0.33779 0.2756 0.19356 0.0
O675 O 0.32876 0.25662 0.2256 0.0
C676 C 0.33106 0.2058 0.16675 0.0
C677 C 0.3202 0.20156 0.14096 0.0
H678 H 0.29892 0.19652 0.09401 0.0
H679 H 0.28832 0.21059 0.08821 0.0
H680 H 0.3586 0.23821 0.25092 0.0
H681 H 0.35198 0.21734 0.21738 0.0
H682 H 0.3358 0.19984 0.17131 0.0
H683 H 0.31681 0.19245 0.12586 0.0
Mn684 Mn 0.72953 0.15129 0.18629 0.0
Mn685 Mn 0.70534 0.16007 0.19068 0.0
C686 C 0.72162 0.15352 0.24501 0.0
C687 C 0.73598 0.13534 0.18288 0.0
C688 C 0.73463 0.17914 0.17552 0.0
O689 O 0.7224 0.14833 0.13148 0.0
O690 O 0.7054 0.1528 0.13935 0.0
C691 C 0.68179 0.13379 0.18503 0.0
N692 N 0.68865 0.14531 0.2039 0.0
C693 C 0.67153 0.13861 0.2522 0.0
C694 C 0.66421 0.12672 0.23306 0.0
C695 C 0.66939 0.12428 0.19941 0.0
C696 C 0.68383 0.1477 0.23652 0.0
H697 H 0.68578 0.13186 0.15926 0.0
C698 C 0.71219 0.14898 0.11901 0.0
O699 O 0.74414 0.14725 0.17294 0.0
O700 O 0.7239 0.13259 0.19245 0.0
N701 N 0.70389 0.16719 0.23868 0.0
C702 C 0.7124 0.17896 0.25441 0.0
C703 C 0.70876 0.18285 0.2884 0.0
C704 C 0.69635 0.17469 0.3056 0.0
C705 C 0.6877 0.16268 0.28872 0.0
C706 C 0.69181 0.15937 0.25465 0.0
H707 H 0.72191 0.18534 0.24117 0.0
O708 O 0.73314 0.15389 0.24231 0.0
O709 O 0.71485 0.15156 0.21336 0.0
O710 O 0.73893 0.17096 0.17828 0.0
O711 O 0.72223 0.17599 0.17817 0.0
C712 C 0.67524 0.15378 0.30464 0.0
C713 C 0.66718 0.14173 0.28649 0.0
H714 H 0.65465 0.11936 0.24409 0.0
H715 H 0.66385 0.1151 0.18462 0.0
H716 H 0.71549 0.19214 0.30128 0.0
H717 H 0.69357 0.17771 0.33183 0.0
H718 H 0.67183 0.15604 0.33111 0.0
H719 H 0.65771 0.1349 0.29928 0.0
Mn720 Mn 0.84447 0.68047 0.15476 0.0
Mn721 Mn 0.82817 0.69242 0.20832 0.0
C722 C 0.82131 0.66923 0.1588 0.0
C723 C 0.85419 0.67905 0.09732 0.0
C724 C 0.84196 0.67834 0.24243 0.0
O725 O 0.8589 0.69922 0.16372 0.0
O726 O 0.8469 0.70604 0.19854 0.0
C727 C 0.82775 0.7105 0.15002 0.0
N728 N 0.82109 0.70048 0.17489 0.0
C729 C 0.8001 0.69982 0.16097 0.0
C730 C 0.80672 0.71017 0.13528 0.0
C731 C 0.8206 0.71548 0.12961 0.0
C732 C 0.80772 0.69513 0.17997 0.0
H733 H 0.83843 0.71469 0.14592 0.0
C734 C 0.85781 0.70796 0.18258 0.0
O735 O 0.85769 0.67632 0.13001 0.0
O736 O 0.84534 0.68299 0.09815 0.0
N737 N 0.80991 0.68062 0.22086 0.0
C738 C 0.80504 0.6707 0.2467 0.0
C739 C 0.79131 0.66427 0.2555 0.0
C740 C 0.78279 0.66835 0.23846 0.0
C741 C 0.78809 0.67882 0.21278 0.0
C742 C 0.80182 0.68474 0.20476 0.0
H743 H 0.81159 0.66768 0.26042 0.0
O744 O 0.82791 0.66333 0.14852 0.0
O745 O 0.82839 0.68164 0.16553 0.0
O746 O 0.84625 0.6763 0.21078 0.0
O747 O 0.83492 0.6841 0.2448 0.0
C748 C 0.78031 0.68367 0.19498 0.0
C749 C 0.78627 0.69405 0.1687 0.0
H750 H 0.80126 0.71412 0.11977 0.0
H751 H 0.82578 0.72345 0.1098 0.0
H752 H 0.78731 0.65626 0.27556 0.0
H753 H 0.77221 0.66339 0.24538 0.0
H754 H 0.7697 0.67942 0.20104 0.0
H755 H 0.78013 0.69755 0.15475 0.0
Mn756 Mn 0.52031 0.95743 0.03428 0.0
Mn757 Mn 0.49918 0.9312 0.98174 0.0
C758 C 0.49873 0.95339 0.0242 0.0
C759 C 0.53015 0.96639 0.09318 0.0
C760 C 0.51899 0.95672 0.94608 0.0
O761 O 0.53058 0.94744 0.02927 0.0
O762 O 0.51581 0.93049 0.99447 0.0
C763 C 0.493 0.91243 0.04513 0.0
N764 N 0.48875 0.91796 0.018 0.0
C765 C 0.46579 0.90505 0.03776 0.0
C766 C 0.46991 0.89916 0.06577 0.0
C767 C 0.48357 0.90289 0.06951 0.0
C768 C 0.47565 0.91456 0.0145 0.0
H769 H 0.5035 0.91532 0.04821 0.0
C770 C 0.52715 0.93688 0.0112 0.0
O771 O 0.53578 0.97199 0.06112 0.0
O772 O 0.51923 0.95534 0.09079 0.0
N773 N 0.48256 0.93007 0.96607 0.0
C774 C 0.48014 0.9357 0.9351 0.0
C775 C 0.46692 0.93276 0.92656 0.0
C776 C 0.45629 0.92374 0.94915 0.0
C777 C 0.45897 0.9175 0.97951 0.0
C778 C 0.47235 0.92083 0.9866 0.0
H779 H 0.48826 0.94253 0.91739 0.0
O780 O 0.50782 0.96459 0.03654 0.0
O781 O 0.50223 0.94437 0.02086 0.0
O782 O 0.52416 0.96277 0.97749 0.0
O783 O 0.50957 0.94492 0.94411 0.0
C784 C 0.44887 0.908 0.00268 0.0
C785 C 0.45229 0.90182 0.03191 0.0
H786 H 0.46266 0.89176 0.08454 0.0
H787 H 0.48684 0.89842 0.09114 0.0
H788 H 0.46492 0.93744 0.90263 0.0
H789 H 0.44612 0.92153 0.94257 0.0
H790 H 0.43845 0.9053 -0.0019 0.0
H791 H 0.44444 0.8945 0.04949 0.0
Mn792 Mn 0.03357 0.67496 0.99031 0.0
Mn793 Mn 1.00014 0.65441 0.9909 0.0
C794 C 0.02237 0.66828 0.93289 0.0
C795 C 0.0508 0.69634 0.99373 0.0
C796 C 0.0208 0.64528 -0.00144 0.0
O797 O 0.02874 0.67469 0.04634 0.0
O798 O 0.00647 0.66194 0.04267 0.0
C799 C 0.99255 0.67489 0.0037 0.0
N800 N 0.99164 0.66478 0.98242 0.0
C801 C 0.97681 0.66686 0.9373 0.0
C802 C 0.97752 0.67725 0.95886 0.0
C803 C 0.98546 0.6813 0.99214 0.0
C804 C 0.98422 0.66095 0.95 0.0
H805 H 0.99868 0.67806 0.02924 0.0
C806 C 0.01719 0.66894 0.06165 0.0
O807 O 0.05305 0.68674 0.00132 0.0
O808 O 0.03857 0.69351 0.98603 0.0
N809 N 0.99185 0.64592 0.94389 0.0
C810 C 0.99116 0.63492 0.92865 0.0
C811 C 0.98324 0.62928 0.89598 0.0
C812 C 0.97577 0.63473 0.88003 0.0
C813 C 0.97607 0.64563 0.89741 0.0
C814 C 0.98412 0.6508 0.93003 0.0
H815 H 0.9967 0.63056 0.94115 0.0
O816 O 0.03532 0.67408 0.93424 0.0
O817 O 0.01624 0.66762 0.96512 0.0
O818 O 0.03135 0.65647 0.99603 0.0
O819 O 0.00881 0.64359 -0.00205 0.0
C820 C 0.96856 0.65144 0.88401 0.0
C821 C 0.96899 0.66211 0.90381 0.0
H822 H 0.972 0.68217 0.95015 0.0
H823 H 0.9861 0.68934 0.00887 0.0
H824 H 0.98288 0.62073 0.88315 0.0
H825 H 0.96971 0.63038 0.85474 0.0
H826 H 0.96234 0.64774 0.85866 0.0
H827 H 0.96315 0.66649 0.89327 0.0
Mn828 Mn 0.32385 0.49023 0.0297 0.0
Mn829 Mn 0.31795 0.5099 0.97147 0.0
C830 C 0.34088 0.51075 0.0174 0.0
C831 C 0.32281 0.48181 0.09083 0.0
C832 C 0.326 0.49066 0.94131 0.0
O833 O 0.30371 0.48026 0.02314 0.0
O834 O 0.3011 0.49354 0.98223 0.0
C835 C 0.30291 0.51553 0.03078 0.0
N836 N 0.31337 0.51982 0.00581 0.0
C837 C 0.32183 0.54192 0.02677 0.0
C838 C 0.31112 0.53775 0.05259 0.0
C839 C 0.30163 0.5245 0.05463 0.0
C840 C 0.32266 0.53252 0.004 0.0
H841 H 0.29564 0.50535 0.03262 0.0
C842 C 0.29647 0.48295 0.00125 0.0
O843 O 0.32342 0.47567 0.06052 0.0
O844 O 0.32216 0.49239 0.08528 0.0
N845 N 0.33284 0.5262 0.9572 0.0
C846 C 0.34118 0.52882 0.92658 0.0
C847 C 0.35105 0.54169 0.91938 0.0
C848 C 0.35182 0.55179 0.94263 0.0
C849 C 0.34243 0.54895 0.97206 0.0
C850 C 0.33288 0.53592 0.97795 0.0
H851 H 0.34045 0.52109 0.90828 0.0
O852 O 0.34329 0.50215 0.0332 0.0
O853 O 0.32824 0.50751 0.01271 0.0
O854 O 0.32617 0.48561 0.9739 0.0
O855 O 0.32328 0.49998 0.93695 0.0
C856 C 0.34192 0.55856 0.995 0.0
C857 C 0.33166 0.55504 0.02248 0.0
H858 H 0.31006 0.54464 0.07089 0.0
H859 H 0.29335 0.5212 0.07454 0.0
H860 H 0.358 0.54383 0.89592 0.0
H861 H 0.35941 0.56171 0.93696 0.0
H862 H 0.34923 0.56871 0.99135 0.0
H863 H 0.3313 0.56253 0.03974 0.0
Mn864 Mn 0.71333 0.80977 0.84137 0.0
Mn865 Mn 0.68369 0.80918 0.852 0.0
C866 C 0.701 0.80865 0.78777 0.0
C867 C 0.72464 0.7978 0.83932 0.0
C868 C 0.71072 0.83361 0.85949 0.0
O869 O 0.70936 0.80658 0.89865 0.0
O870 O 0.68784 0.8023 0.89878 0.0
C871 C 0.66586 0.78072 0.85408 0.0
N872 N 0.66934 0.79251 0.83818 0.0
C873 C 0.65116 0.78291 0.79292 0.0
C874 C 0.64731 0.77067 0.80897 0.0
C875 C 0.65473 0.76957 0.8396 0.0
C876 C 0.66238 0.79366 0.80842 0.0
H877 H 0.67156 0.77985 0.87758 0.0
C878 C 0.69809 0.80277 0.91531 0.0
O879 O 0.73107 0.8102 0.84646 0.0
O880 O 0.71178 0.79241 0.83515 0.0
N881 N 0.67826 0.8156 0.80887 0.0
C882 C 0.68316 0.82814 0.79704 0.0
C883 C 0.67672 0.83096 0.76712 0.0
C884 C 0.66522 0.82091 0.75001 0.0
C885 C 0.66024 0.80811 0.76302 0.0
C886 C 0.66697 0.80592 0.79331 0.0
H887 H 0.69184 0.83596 0.81041 0.0
O888 O 0.71352 0.81179 0.78456 0.0
O889 O 0.69591 0.8056 0.8219 0.0
O890 O 0.71812 0.82888 0.84793 0.0
O891 O 0.69809 0.82679 0.86534 0.0
C892 C 0.64883 0.79746 0.74724 0.0
C893 C 0.64435 0.78486 0.762 0.0
H894 H 0.63873 0.76205 0.79791 0.0
H895 H 0.65186 0.76015 0.85203 0.0
H896 H 0.68057 0.84088 0.75745 0.0
H897 H 0.66024 0.82316 0.72717 0.0
H898 H 0.64348 0.79885 0.72359 0.0
H899 H 0.63563 0.77673 0.74942 0.0
Mn900 Mn 0.19689 0.01225 0.80122 0.0
Mn901 Mn 0.20899 0.99113 0.79712 0.0
C902 C 0.19905 0.00466 0.74266 0.0
C903 C 0.20237 0.03404 0.80409 0.0
C904 C 0.18014 0.98327 0.81827 0.0
O905 O 0.20371 0.01256 0.85503 0.0
O906 O 0.21399 1.00054 0.84681 0.0
C907 C 0.23777 0.0106 0.79425 0.0
N908 N 0.22699 1.00014 0.7787 0.0
C909 C 0.24027 0.99927 0.72639 0.0
C910 C 0.25154 0.00999 0.74196 0.0
C911 C 0.25027 0.01571 0.77598 0.0
C912 C 0.22806 0.99467 0.74574 0.0
H913 H 0.2368 0.01503 0.82035 0.0
C914 C 0.21074 0.00759 0.86738 0.0
O915 O 0.19062 0.02505 0.81516 0.0
O916 O 0.21082 0.0304 0.79273 0.0
N917 N 0.20507 0.98099 0.75127 0.0
C918 C 0.19333 0.97042 0.74081 0.0
C919 C 0.19292 0.96344 0.7077 0.0
C920 C 0.20463 0.96721 0.68617 0.0
C921 C 0.21669 0.97784 0.69823 0.0
C922 C 0.2165 0.98437 0.73162 0.0
H923 H 0.18433 0.96737 0.75748 0.0
O924 O 0.19198 0.01051 0.74623 0.0
O925 O 0.20541 0.00415 0.77311 0.0
O926 O 0.18057 0.99425 0.81245 0.0
O927 O 0.19028 0.9814 0.81493 0.0
C928 C 0.22889 0.98224 0.6784 0.0
C929 C 0.24065 0.99299 0.69235 0.0
H930 H 0.26121 0.01394 0.728 0.0
H931 H 0.25891 0.02402 0.7881 0.0
H932 H 0.1836 0.95516 0.69878 0.0
H933 H 0.20427 0.96185 0.66053 0.0
H934 H 0.22932 0.97746 0.65232 0.0
H935 H 0.24996 0.99633 0.67674 0.0
Mn936 Mn 0.98978 0.28378 0.82963 0.0
Mn937 Mn 0.01749 0.31321 0.83331 0.0
C938 C 0.99989 0.29397 0.77338 0.0
C939 C 0.96651 0.27194 0.82817 0.0
C940 C 0.01747 0.2878 0.8495 0.0
O941 O 0.99033 0.2895 0.88502 0.0
O942 O 0.00702 0.31017 0.88108 0.0
C943 C 0.00479 0.32999 0.83192 0.0
N944 N 0.01363 0.32653 0.81684 0.0
C945 C 0.02111 0.3436 0.76988 0.0
C946 C 0.01214 0.34741 0.78504 0.0
C947 C 0.00392 0.34055 0.81611 0.0
C948 C 0.02154 0.33303 0.78685 0.0
H949 H 0.99848 0.32474 0.85583 0.0
C950 C 0.99757 0.30078 0.89938 0.0
O951 O 0.97358 0.26651 0.83873 0.0
O952 O 0.9729 0.28424 0.82051 0.0
N953 N 0.02877 0.31761 0.78906 0.0
C954 C 0.03632 0.31223 0.77646 0.0
C955 C 0.04483 0.31771 0.74483 0.0
C956 C 0.04566 0.32877 0.72686 0.0
C957 C 0.03797 0.33426 0.74073 0.0
C958 C 0.02969 0.32839 0.77243 0.0
H959 H 0.03581 0.3038 0.79029 0.0
O960 O 0.99147 0.28164 0.77382 0.0
O961 O 0.00174 0.30017 0.80568 0.0
O962 O 0.00532 0.27997 0.84022 0.0
O963 O 0.02255 0.30015 0.84989 0.0
C964 C 0.03792 0.3451 0.72372 0.0
C965 C 0.02946 0.34975 0.73821 0.0
H966 H 0.01141 0.35552 0.77286 0.0
H967 H 0.99694 0.34339 0.82785 0.0
H968 H 0.05074 0.31342 0.73431 0.0
H969 H 0.05214 0.33289 0.70223 0.0
H970 H 0.04416 0.3498 0.69905 0.0
H971 H 0.02935 0.35796 0.7245 0.0
Mn972 Mn 0.39088 0.00831 0.9792 0.0
Mn973 Mn 0.36666 0.97685 0.98142 0.0
C974 C 0.38317 0.99784 0.03693 0.0
C975 C 0.39753 0.03039 0.97922 0.0
C976 C 0.39578 0.98529 0.96425 0.0
O977 O 0.38319 0.0054 0.92502 0.0
O978 O 0.36658 0.98476 0.9314 0.0
C979 C 0.34309 0.98109 0.97847 0.0
N980 N 0.35011 0.97597 0.99633 0.0
C981 C 0.33357 0.96684 0.04628 0.0
C982 C 0.32613 0.97196 0.0283 0.0
C983 C 0.33093 0.97914 0.9943 0.0
C984 C 0.34562 0.96911 0.02918 0.0
H985 H 0.34676 0.98665 0.95238 0.0
C986 C 0.37301 0.99525 0.91206 0.0
O987 O 0.40551 0.02617 0.96722 0.0
O988 O 0.38549 0.02176 0.98892 0.0
N989 N 0.36545 0.96798 0.02851 0.0
C990 C 0.37395 0.9639 0.04265 0.0
C991 C 0.3706 0.95657 0.07656 0.0
C992 C 0.35853 0.9534 0.09538 0.0
C993 C 0.34988 0.9576 0.0801 0.0
C994 C 0.35367 0.96475 0.04597 0.0
H995 H 0.38321 0.96622 0.02822 0.0
O996 O 0.39478 0.00819 0.0349 0.0
O997 O 0.37632 0.99401 0.00534 0.0
O998 O 0.40013 0.99748 0.96792 0.0
O999 O 0.38341 0.9768 0.96717 0.0
C1000 C 0.33771 0.95505 0.09755 0.0
C1001 C 0.32959 0.95972 0.08074 0.0
H1002 H 0.31676 0.9705 0.04046 0.0
H1003 H 0.32527 0.98317 0.98035 0.0
H1004 H 0.37732 0.95335 0.08815 0.0
H1005 H 0.35599 0.94775 0.12153 0.0
H1006 H 0.33457 0.94963 0.12412 0.0
H1007 H 0.32032 0.95782 0.09465 0.0
Mn1008 Mn 0.98576 0.49031 0.01016 0.0
Mn1009 Mn 0.01877 0.50153 0.02528 0.0
C1010 C 0.99442 0.49466 0.0714 0.0
C1011 C 0.96415 0.47276 0.00608 0.0
C1012 C 0.0073 0.51846 0.99625 0.0
O1013 O 0.99185 0.4861 0.95975 0.0
O1014 O 0.01355 0.49298 0.97437 0.0
C1015 C 0.01843 0.47621 0.02939 0.0
N1016 N 0.02129 0.48778 0.04582 0.0
C1017 C 0.02934 0.48246 0.10321 0.0
C1018 C 0.02656 0.47052 0.0868 0.0
C1019 C 0.02106 0.46738 0.04975 0.0
C1020 C 0.02654 0.49088 0.08151 0.0
H1021 H 0.01413 0.47371 0.001 0.0
C1022 C 0.00345 0.48758 0.95169 0.0
O1023 O 0.96694 0.48399 0.99163 0.0
O1024 O 0.97402 0.47165 0.02047 0.0
N1025 N 0.02499 0.50978 0.07405 0.0
C1026 C 0.02669 0.5215 0.08625 0.0
C1027 C 0.03196 0.52601 0.12297 0.0
C1028 C 0.03547 0.51847 0.14668 0.0
C1029 C 0.03376 0.50651 0.13335 0.0
C1030 C 0.0286 0.50257 0.09634 0.0
H1031 H 0.024 0.52734 0.0682 0.0
O1032 O 0.98311 0.49433 0.06411 0.0
O1033 O 1.00026 0.49248 0.04269 0.0
O1034 O 0.99499 0.50967 0.99658 0.0
O1035 O 0.01694 0.51634 0.00544 0.0
C1036 C 0.03683 0.49826 0.1555 0.0
C1037 C 0.0346 0.48624 0.14047 0.0
H1038 H 0.02852 0.46366 0.10248 0.0
H1039 H 0.01882 0.45816 0.03697 0.0
H1040 H 0.03325 0.53525 0.13305 0.0
H1041 H 0.03941 0.52192 0.17513 0.0
H1042 H 0.04076 0.50101 0.18431 0.0
H1043 H 0.03685 0.47992 0.15795 0.0
Mn1044 Mn 0.50499 0.60681 0.98019 0.0
Mn1045 Mn 0.49622 0.63042 0.9784 0.0
C1046 C 0.50079 0.61445 0.03634 0.0
C1047 C 0.52168 0.60081 0.9845 0.0
C1048 C 0.47697 0.60222 0.95945 0.0
O1049 O 0.5104 0.61422 0.92636 0.0
O1050 O 0.5054 0.63056 0.93002 0.0
C1051 C 0.5234 0.65328 0.97891 0.0
N1052 N 0.51106 0.64639 0.99517 0.0
C1053 C 0.517 0.66199 0.04627 0.0
C1054 C 0.52973 0.66929 0.02992 0.0
C1055 C 0.53295 0.6649 0.99612 0.0
C1056 C 0.50787 0.65052 0.0277 0.0
H1057 H 0.52595 0.64991 0.95306 0.0
C1058 C 0.51024 0.62419 0.91237 0.0
O1059 O 0.50988 0.59278 0.97098 0.0
O1060 O 0.52387 0.61238 0.99328 0.0
N1061 N 0.48746 0.63142 0.02411 0.0
C1062 C 0.47492 0.62301 0.037 0.0
C1063 C 0.47023 0.62587 0.07092 0.0
C1064 C 0.47846 0.63736 0.09113 0.0
C1065 C 0.49127 0.64593 0.07708 0.0
C1066 C 0.49533 0.64264 0.04289 0.0
H1067 H 0.46855 0.61415 0.02167 0.0
O1068 O 0.50013 0.60314 0.03545 0.0
O1069 O 0.50396 0.62094 0.0045 0.0
O1070 O 0.4851 0.59783 0.96557 0.0
O1071 O 0.48025 0.61424 0.96205 0.0
C1072 C 0.50023 0.65751 0.09599 0.0
C1073 C 0.51309 0.66552 0.08063 0.0
H1074 H 0.53715 0.67822 0.04323 0.0
H1075 H 0.54278 0.67045 0.98344 0.0
H1076 H 0.46034 0.6192 0.08157 0.0
H1077 H 0.47487 0.63946 0.11751 0.0
H1078 H 0.49739 0.66026 0.12261 0.0
H1079 H 0.51995 0.67432 0.09566 0.0
Mn1080 Mn 0.99283 0.60298 0.48902 0.0
Mn1081 Mn 0.98167 0.57482 0.5379 0.0
C1082 C 0.00652 0.5937 0.49545 0.0
C1083 C 0.99421 0.61413 0.43258 0.0
C1084 C 0.99155 0.60099 0.57628 0.0
O1085 O 0.9728 0.59654 0.49406 0.0
O1086 O 0.96623 0.57717 0.52224 0.0
C1087 C 0.96794 0.55683 0.47352 0.0
N1088 N 0.97713 0.56093 0.50242 0.0
C1089 C 0.9827 0.54402 0.48909 0.0
C1090 C 0.97325 0.53957 0.45928 0.0
C1091 C 0.96588 0.54604 0.45138 0.0
C1092 C 0.98438 0.55488 0.50999 0.0
H1093 H 0.96226 0.56178 0.46749 0.0
C1094 C 0.96377 0.58587 0.50818 0.0
O1095 O 0.99558 0.61956 0.4659 0.0
O1096 O 0.99171 0.60212 0.43214 0.0
N1097 N 0.99526 0.57101 0.55584 0.0
C1098 C 0.00411 0.57666 0.58521 0.0
C1099 C 0.01216 0.57128 0.59712 0.0
C1100 C 0.01089 0.56006 0.57909 0.0
C1101 C 0.00167 0.55437 0.54909 0.0
C1102 C 0.99382 0.56008 0.53875 0.0
H1103 H 0.00497 0.58517 0.59956 0.0
O1104 O 0.01156 0.60587 0.4865 0.0
O1105 O 0.99353 0.58717 0.49916 0.0
O1106 O 0.9951 0.60781 0.54577 0.0
O1107 O 0.9863 0.58861 0.57661 0.0
C1108 C 1.00001 0.54331 0.52887 0.0
C1109 C 0.9906 0.53819 0.49871 0.0
H1110 H 0.97161 0.53124 0.44218 0.0
H1111 H 0.9586 0.54268 0.42834 0.0
H1112 H 0.01926 0.57573 0.6203 0.0
H1113 H 0.01704 0.55588 0.58852 0.0
H1114 H 0.00603 0.53876 0.53598 0.0
H1115 H 0.98952 0.52978 0.48307 0.0
Mn1116 Mn 0.392 0.48876 0.52618 0.0
Mn1117 Mn 0.36654 0.49493 0.54446 0.0
C1118 C 0.38609 0.48998 0.58875 0.0
C1119 C 0.39951 0.47382 0.5157 0.0
C1120 C 0.39431 0.51567 0.51962 0.0
O1121 O 0.38244 0.48529 0.47455 0.0
O1122 O 0.3647 0.48774 0.49182 0.0
C1123 C 0.34426 0.46783 0.54427 0.0
N1124 N 0.35125 0.47952 0.56222 0.0
C1125 C 0.33654 0.47195 0.61682 0.0
C1126 C 0.32907 0.45989 0.59864 0.0
C1127 C 0.33299 0.45781 0.5623 0.0
C1128 C 0.34767 0.48157 0.59741 0.0
H1129 H 0.34732 0.46616 0.51651 0.0
C1130 C 0.37119 0.48477 0.46741 0.0
O1131 O 0.4067 0.48587 0.50533 0.0
O1132 O 0.3878 0.47038 0.53007 0.0
N1133 N 0.36689 0.50175 0.59456 0.0
C1134 C 0.3757 0.51359 0.60931 0.0
C1135 C 0.37339 0.51712 0.64583 0.0
C1136 C 0.36202 0.50848 0.66674 0.0
C1137 C 0.35314 0.49632 0.65111 0.0
C1138 C 0.35588 0.4934 0.61437 0.0
H1139 H 0.38444 0.52028 0.59342 0.0
O1140 O 0.39788 0.4915 0.58097 0.0
O1141 O 0.37807 0.48769 0.55979 0.0
O1142 O 0.39972 0.50836 0.5186 0.0
O1143 O 0.38195 0.51151 0.5276 0.0
C1144 C 0.34181 0.4869 0.6708 0.0
C1145 C 0.33355 0.4747 0.65373 0.0
H1146 H 0.3204 0.45212 0.61252 0.0
H1147 H 0.32736 0.44849 0.54826 0.0
H1148 H 0.38034 0.52649 0.65783 0.0
H1149 H 0.36026 0.51125 0.69487 0.0
H1150 H 0.3395 0.48886 0.69936 0.0
H1151 H 0.32501 0.46745 0.66942 0.0
Mn1152 Mn 0.51613 0.01913 0.50939 0.0
Mn1153 Mn 0.49855 0.02859 0.56699 0.0
C1154 C 0.49302 0.00707 0.51182 0.0
C1155 C 0.52646 0.01929 0.45154 0.0
C1156 C 0.51256 0.01423 0.59635 0.0
O1157 O 0.52995 0.03786 0.52184 0.0
O1158 O 0.51735 0.04253 0.56167 0.0
C1159 C 0.49897 0.0485 0.51426 0.0
N1160 N 0.49195 0.03768 0.53608 0.0
C1161 C 0.47115 0.03737 0.52187 0.0
C1162 C 0.47814 0.04854 0.49934 0.0
C1163 C 0.4921 0.05408 0.49533 0.0
C1164 C 0.4785 0.03212 0.53949 0.0
H1165 H 0.50971 0.05285 0.51143 0.0
C1166 C 0.52842 0.04545 0.54495 0.0
O1167 O 0.52995 0.01614 0.48356 0.0
O1168 O 0.51732 0.02286 0.45336 0.0
N1169 N 0.48013 0.01637 0.57596 0.0
C1170 C 0.47491 0.00565 0.59887 0.0
C1171 C 0.46104 0.99891 0.60576 0.0
C1172 C 0.45275 0.00348 0.58995 0.0
C1173 C 0.4584 0.01474 0.56735 0.0
C1174 C 0.47226 0.02095 0.56113 0.0
H1175 H 0.48129 0.00227 0.61174 0.0
O1176 O 0.50013 0.00187 0.49997 0.0
O1177 O 0.49957 0.01933 0.52112 0.0
O1178 O 0.51764 0.0137 0.56425 0.0
O1179 O 0.50486 0.01921 0.60067 0.0
C1180 C 0.45085 0.02009 0.55089 0.0
C1181 C 0.45719 0.03129 0.52776 0.0
H1182 H 0.47289 0.05294 0.48501 0.0
H1183 H 0.49757 0.06269 0.47795 0.0
H1184 H 0.45677 0.99028 0.62346 0.0
H1185 H 0.44207 0.99828 0.59544 0.0
H1186 H 0.44014 0.0156 0.55562 0.0
H1187 H 0.45124 0.0352 0.51484 0.0
Mn1188 Mn 0.18837 0.28846 0.35706 0.0
Mn1189 Mn 0.16676 0.26378 0.30057 0.0
C1190 C 0.16702 0.28526 0.34873 0.0
C1191 C 0.19801 0.29564 0.41721 0.0
C1192 C 0.18737 0.28981 0.26933 0.0
O1193 O 0.19811 0.27813 0.34814 0.0
O1194 O 0.18291 0.26198 0.31169 0.0
C1195 C 0.15945 0.24339 0.35959 0.0
N1196 N 0.15573 0.24991 0.33437 0.0
C1197 C 0.13262 0.23752 0.35329 0.0
C1198 C 0.13619 0.2306 0.3793 0.0
C1199 C 0.14967 0.23357 0.3825 0.0
C1200 C 0.14282 0.24723 0.33137 0.0
H1201 H 0.16981 0.2457 0.36228 0.0
C1202 C 0.19432 0.26784 0.3284 0.0
O1203 O 0.20394 0.30205 0.38637 0.0
O1204 O 0.18699 0.2848 0.41267 0.0
N1205 N 0.1506 0.26387 0.28629 0.0
C1206 C 0.1487 0.27064 0.25748 0.0
C1207 C 0.13573 0.26865 0.24989 0.0
C1208 C 0.12481 0.25945 0.27122 0.0
C1209 C 0.12693 0.25209 0.29931 0.0
C1210 C 0.14008 0.25449 0.30552 0.0
H1211 H 0.15706 0.27766 0.24082 0.0
O1212 O 0.17634 0.29605 0.36277 0.0
O1213 O 0.1702 0.27613 0.34246 0.0
O1214 O 0.19248 0.29519 0.30154 0.0
O1215 O 0.17777 0.27815 0.26549 0.0
C1216 C 0.1165 0.24239 0.32115 0.0
C1217 C 0.11935 0.23514 0.34823 0.0
H1218 H 0.12867 0.22301 0.39698 0.0
H1219 H 0.1525 0.22831 0.4026 0.0
H1220 H 0.13416 0.27421 0.22772 0.0
H1221 H 0.11484 0.25798 0.26543 0.0
H1222 H 0.10624 0.24038 0.3172 0.0
H1223 H 0.11125 0.22769 0.36481 0.0
Mn1224 Mn 0.70228 0.00527 0.33278 0.0
Mn1225 Mn 0.67061 0.98344 0.3077 0.0
C1226 C 0.69749 0.99949 0.26953 0.0
C1227 C 0.71757 0.02692 0.34463 0.0
C1228 C 0.6904 0.9758 0.34121 0.0
O1229 O 0.69171 0.00373 0.381 0.0
O1230 O 0.67088 0.99019 0.36017 0.0
C1231 C 0.66044 0.00227 0.30269 0.0
N1232 N 0.66249 0.99289 0.28611 0.0
C1233 C 0.65257 0.99453 0.22688 0.0
C1234 C 0.65026 0.00415 0.2434 0.0
C1235 C 0.65425 0.00806 0.28145 0.0
C1236 C 0.65885 0.98918 0.2494 0.0
H1237 H 0.66355 0.00533 0.33188 0.0
C1238 C 0.67911 0.99718 0.38629 0.0
O1239 O 0.71964 0.01772 0.35804 0.0
O1240 O 0.70654 0.02351 0.32604 0.0
N1241 N 0.66825 0.97565 0.25814 0.0
C1242 C 0.67056 0.96578 0.24721 0.0
C1243 C 0.66691 0.96054 0.21016 0.0
C1244 C 0.66064 0.96529 0.18507 0.0
C1245 C 0.65787 0.97509 0.19749 0.0
C1246 C 0.66167 0.97987 0.23482 0.0
H1247 H 0.67525 0.962 0.26654 0.0
O1248 O 0.70976 0.00543 0.2815 0.0
O1249 O 0.68828 0.99779 0.29457 0.0
O1250 O 0.70053 0.98724 0.34395 0.0
O1251 O 0.67887 0.97344 0.32865 0.0
C1252 C 0.6515 0.9803 0.17433 0.0
C1253 C 0.64891 0.99006 0.18895 0.0
H1254 H 0.64546 0.00861 0.22714 0.0
H1255 H 0.65256 0.01551 0.29434 0.0
H1256 H 0.66894 0.95288 0.20096 0.0
H1257 H 0.65793 0.96129 0.15643 0.0
H1258 H 0.64855 0.97688 0.14522 0.0
H1259 H 0.64404 0.99403 0.17084 0.0
Mn1260 Mn 0.00351 0.82893 0.34783 0.0
Mn1261 Mn 0.99646 0.84877 0.29394 0.0
C1262 C 0.01945 0.85027 0.34075 0.0
C1263 C 0.00258 0.81927 0.40689 0.0
C1264 C 0.00682 0.8318 0.25987 0.0
O1265 O 0.98355 0.81797 0.33902 0.0
O1266 O 0.98028 0.83151 0.3009 0.0
C1267 C 0.97951 0.85144 0.35367 0.0
N1268 N 0.99032 0.857 0.3299 0.0
C1269 C 0.99667 0.87829 0.35482 0.0
C1270 C 0.98558 0.8728 0.37944 0.0
C1271 C 0.97698 0.85931 0.37889 0.0
C1272 C 0.99875 0.86995 0.33056 0.0
H1273 H 0.97291 0.84107 0.3535 0.0
C1274 C 0.97612 0.82055 0.31758 0.0
O1275 O 0.00407 0.81425 0.37527 0.0
O1276 O 0.00096 0.8294 0.40374 0.0
N1277 N 0.0107 0.86588 0.28351 0.0
C1278 C 0.01976 0.86979 0.25433 0.0
C1279 C 0.02892 0.88306 0.24991 0.0
C1280 C 0.02829 0.89221 0.27449 0.0
C1281 C 0.01825 0.88803 0.30255 0.0
C1282 C 0.00945 0.87467 0.30566 0.0
H1283 H 0.02014 0.86278 0.23504 0.0
O1284 O 0.0226 0.84183 0.35398 0.0
O1285 O 0.00669 0.84623 0.33508 0.0
O1286 O 0.00695 0.82612 0.29126 0.0
O1287 O 0.00333 0.84064 0.25755 0.0
C1288 C 0.01645 0.89661 0.32696 0.0
C1289 C 0.0057 0.89174 0.35321 0.0
H1290 H 0.98356 0.87884 0.39882 0.0
H1291 H 0.96841 0.85498 0.39786 0.0
H1292 H 0.03642 0.88622 0.22758 0.0
H1293 H 0.03536 0.90243 0.271 0.0
H1294 H 0.02317 0.90698 0.32546 0.0
H1295 H 0.00436 0.89843 0.37167 0.0
C1296 C 0.3351 0.14578 0.56399 0.0
C1297 C 0.34545 0.15264 0.59054 0.0
C1298 C 0.33787 0.14186 0.52882 0.0
C1299 C 0.36497 0.14972 0.45995 0.0
H1300 H 0.34195 0.11493 0.4214 0.0
C1301 C 0.37445 0.13495 0.31147 0.0
C1302 C 0.36294 0.12913 0.28824 0.0
C1303 C 0.37325 0.13575 0.3512 0.0
C1304 C 0.34846 0.12469 0.43171 0.0
H1305 H 0.36687 0.16095 0.60056 0.0
H1306 H 0.37163 0.15424 0.53922 0.0
H1307 H 0.33762 0.12113 0.48446 0.0
H1308 H 0.34119 0.11842 0.28885 0.0
H1309 H 0.33912 0.11997 0.35741 0.0
H1310 H 0.3755 0.15352 0.40684 0.0
C1311 C 0.3614 0.15186 0.54565 0.0
C1312 C 0.34595 0.12824 0.46776 0.0
C1313 C 0.35863 0.15567 0.58086 0.0
C1314 C 0.35027 0.12312 0.30585 0.0
C1315 C 0.34908 0.12392 0.34538 0.0
C1316 C 0.36741 0.14622 0.42379 0.0
C1317 C 0.35105 0.14485 0.51937 0.0
C1318 C 0.35406 0.14085 0.48197 0.0
C1319 C 0.36053 0.13071 0.36837 0.0
C1320 C 0.35905 0.13373 0.40892 0.0
H1321 H 0.32484 0.14324 0.5706 0.0
H1322 H 0.32972 0.13659 0.50886 0.0
H1323 H 0.37133 0.15954 0.47008 0.0
H1324 H 0.38436 0.13963 0.29881 0.0
H1325 H 0.38229 0.1408 0.36824 0.0
C1326 C 0.86341 0.3156 0.51158 0.0
C1327 C 0.86348 0.3045 0.52633 0.0
C1328 C 0.86913 0.32068 0.47612 0.0
C1329 C 0.87753 0.31106 0.38482 0.0
H1330 H 0.89349 0.34801 0.36422 0.0
C1331 C 0.8868 0.32925 0.23093 0.0
C1332 C 0.88001 0.33625 0.22232 0.0
C1333 C 0.88964 0.32767 0.26888 0.0
C1334 C 0.88915 0.33768 0.36961 0.0
H1335 H 0.86998 0.29023 0.51549 0.0
H1336 H 0.88009 0.29919 0.45331 0.0
H1337 H 0.88902 0.34021 0.43031 0.0
H1338 H 0.87236 0.34839 0.24658 0.0
H1339 H 0.8773 0.34561 0.31265 0.0
H1340 H 0.87723 0.30848 0.32415 0.0
C1341 C 0.87543 0.30385 0.46924 0.0
C1342 C 0.88654 0.3332 0.40738 0.0
C1343 C 0.86964 0.29872 0.50486 0.0
C1344 C 0.87747 0.34282 0.25213 0.0
C1345 C 0.88036 0.34127 0.29009 0.0
C1346 C 0.88023 0.31555 0.34711 0.0
C1347 C 0.87517 0.31486 0.45439 0.0
C1348 C 0.88023 0.31979 0.4153 0.0
C1349 C 0.88585 0.33315 0.29895 0.0
C1350 C 0.88564 0.32886 0.33903 0.0
H1351 H 0.85877 0.32035 0.52719 0.0
H1352 H 0.86847 0.32898 0.46526 0.0
H1353 H 0.87255 0.30067 0.38978 0.0
H1354 H 0.88912 0.32423 0.20867 0.0
H1355 H 0.89411 0.32156 0.27487 0.0
C1356 C 0.70129 0.67176 0.51391 0.0
C1357 C 0.696 0.66025 0.53561 0.0
C1358 C 0.69576 0.67192 0.47814 0.0
C1359 C 0.66533 0.65301 0.41825 0.0
H1360 H 0.68965 0.66836 0.33281 0.0
C1361 C 0.65348 0.63453 0.26352 0.0
C1362 C 0.6595 0.64336 0.23324 0.0
C1363 C 0.65573 0.63887 0.30148 0.0
C1364 C 0.68268 0.66428 0.35642 0.0
H1365 H 0.68075 0.63988 0.5364 0.0
H1366 H 0.67143 0.64015 0.47438 0.0
H1367 H 0.69852 0.67192 0.39778 0.0
H1368 H 0.67133 0.66384 0.21905 0.0
H1369 H 0.6752 0.67133 0.28525 0.0
H1370 H 0.64956 0.64482 0.37656 0.0
C1371 C 0.67962 0.64913 0.48518 0.0
C1372 C 0.68778 0.66632 0.39369 0.0
C1373 C 0.68511 0.64896 0.52069 0.0
C1374 C 0.66672 0.65673 0.24165 0.0
C1375 C 0.66899 0.66105 0.27959 0.0
C1376 C 0.66023 0.65093 0.38095 0.0
C1377 C 0.68482 0.66059 0.4635 0.0
C1378 C 0.67921 0.66034 0.42489 0.0
C1379 C 0.66402 0.6521 0.30989 0.0
C1380 C 0.6689 0.65621 0.34958 0.0
H1381 H 0.70961 0.68065 0.52462 0.0
H1382 H 0.69997 0.68092 0.46209 0.0
H1383 H 0.65843 0.64851 0.44182 0.0
H1384 H 0.6478 0.62418 0.25815 0.0
H1385 H 0.65179 0.63172 0.32423 0.0
C1386 C 0.00321 0.31559 0.95578 0.0
C1387 C 0.99609 0.30298 0.94045 0.0
C1388 C 0.00425 0.31755 0.9953 0.0
C1389 C 0.0044 0.29995 0.08137 0.0
H1390 H 0.01048 0.3317 0.13218 0.0
C1391 C 0.02119 0.31056 0.23894 0.0
C1392 C 0.03211 0.32294 0.24643 0.0
C1393 C 0.0146 0.3078 0.2037 0.0
C1394 C 0.00883 0.3228 0.11829 0.0
H1395 H 0.98335 0.28266 0.95464 0.0
H1396 H 0.98497 0.28613 0.02387 0.0
H1397 H 0.00128 0.32708 0.06722 0.0
H1398 H 0.04445 0.3422 0.22275 0.0
H1399 H 0.03292 0.3373 0.16092 0.0
H1400 H 0.01216 0.29578 0.13211 0.0
C1401 C 0.99004 0.29446 0.00518 0.0
C1402 C 0.00354 0.32013 0.08117 0.0
C1403 C 0.98903 0.29249 0.9655 0.0
C1404 C 0.03614 0.33255 0.21791 0.0
C1405 C 0.02946 0.32979 0.18264 0.0
C1406 C 0.00959 0.30257 0.11852 0.0
C1407 C 0.99812 0.30695 0.0205 0.0
C1408 C 0.00157 0.30882 0.06193 0.0
C1409 C 0.01869 0.31735 0.17513 0.0
C1410 C 0.01213 0.31415 0.13703 0.0
H1411 H 0.00863 0.32394 0.93732 0.0
H1412 H 0.01061 0.32729 0.00596 0.0
H1413 H 0.00327 0.29127 0.06724 0.0
H1414 H 0.01774 0.30291 0.26023 0.0
H1415 H 0.00625 0.29816 0.19883 0.0
C1416 C 0.66476 0.81052 0.23291 0.0
C1417 C 0.67477 0.81759 0.26015 0.0
C1418 C 0.66812 0.80726 0.19756 0.0
C1419 C 0.69611 0.81735 0.13035 0.0
H1420 H 0.67497 0.7828 0.08777 0.0
C1421 C 0.70813 0.80572 0.98103 0.0
C1422 C 0.69686 0.80001 0.95687 0.0
C1423 C 0.70649 0.80567 0.02081 0.0
C1424 C 0.68097 0.7925 0.09926 0.0
H1425 H 0.69621 0.82691 0.27126 0.0
H1426 H 0.70199 0.82129 0.20977 0.0
H1427 H 0.66953 0.78776 0.15119 0.0
H1428 H 0.67515 0.78858 0.95553 0.0
H1429 H 0.67231 0.78867 0.02425 0.0
H1430 H 0.70722 0.82231 0.0781 0.0
C1431 C 0.69156 0.81828 0.21571 0.0
C1432 C 0.67782 0.79533 0.13548 0.0
C1433 C 0.68821 0.82146 0.25102 0.0
C1434 C 0.68404 0.79322 0.97336 0.0
C1435 C 0.68241 0.79318 0.01293 0.0
C1436 C 0.6992 0.81455 0.09407 0.0
C1437 C 0.68156 0.8111 0.18868 0.0
C1438 C 0.68523 0.80785 0.1511 0.0
C1439 C 0.69357 0.79989 0.03702 0.0
C1440 C 0.69153 0.80216 0.07778 0.0
H1441 H 0.65431 0.80735 0.23907 0.0
H1442 H 0.66022 0.80184 0.17701 0.0
H1443 H 0.70194 0.82711 0.14155 0.0
H1444 H 0.71813 0.81097 0.96919 0.0
H1445 H 0.71531 0.8107 0.03872 0.0
C1446 C 0.19086 0.95853 0.17746 0.0
C1447 C 0.19274 0.96675 0.20878 0.0
C1448 C 0.19514 0.96377 0.14086 0.0
C1449 C 0.21779 0.99312 0.08801 0.0
H1450 H 0.18945 0.98158 0.01198 0.0
C1451 C 0.22246 0.0042 0.92331 0.0
C1452 C 0.2133 0.00796 0.909 0.0
C1453 C 0.22223 0.00101 0.96199 0.0
C1454 C 0.19744 0.98488 0.03302 0.0
H1455 H 0.20112 0.98689 0.22671 0.0
H1456 H 0.20883 0.99595 0.16319 0.0
H1457 H 0.18481 0.97099 0.07466 0.0
H1458 H 0.1976 0.01252 0.92474 0.0
H1459 H 0.1971 0.00673 0.99204 0.0
H1460 H 0.23043 0.00697 0.04592 0.0
C1461 C 0.20398 0.9855 0.16687 0.0
C1462 C 0.19483 0.97874 0.06856 0.0
C1463 C 0.19946 0.98029 0.20314 0.0
C1464 C 0.20478 0.00964 0.93477 0.0
C1465 C 0.20441 0.00625 0.97323 0.0
C1466 C 0.22048 0.99911 0.05204 0.0
C1467 C 0.20163 0.9773 0.13534 0.0
C1468 C 0.20493 0.98291 0.0965 0.0
C1469 C 0.21274 0.0014 0.98667 0.0
C1470 C 0.21024 0.99516 0.02461 0.0
H1471 H 0.1857 0.94808 0.18099 0.0
H1472 H 0.19322 0.95728 0.11679 0.0
H1473 H 0.22571 0.99649 0.10928 0.0
H1474 H 0.22921 0.00291 0.90418 0.0
H1475 H 0.22876 0.99731 0.97191 0.0
C1476 C 0.66751 0.9676 0.71861 0.0
C1477 C 0.65922 0.95423 0.72459 0.0
C1478 C 0.6674 0.97324 0.68344 0.0
C1479 C 0.6575 0.96392 0.58178 0.0
H1480 H 0.66774 1.00041 0.57159 0.0
C1481 C 0.66078 0.98614 0.43448 0.0
C1482 C 0.67392 0.99585 0.42598 0.0
C1483 C 0.65687 0.98243 0.47236 0.0
C1484 C 0.66479 0.99019 0.57415 0.0
H1485 H 0.64376 0.93641 0.69953 0.0
H1486 H 0.64298 0.94631 0.63893 0.0
H1487 H 0.66435 0.99071 0.63541 0.0
H1488 H 0.69274 0.01026 0.45106 0.0
H1489 H 0.68576 0.00386 0.51733 0.0
H1490 H 0.6578 0.96342 0.52053 0.0
C1491 C 0.65003 0.95241 0.66059 0.0
C1492 C 0.66295 0.98463 0.61066 0.0
C1493 C 0.65038 0.94671 0.69544 0.0
C1494 C 0.68259 0.00267 0.4565 0.0
C1495 C 0.67859 0.99905 0.49449 0.0
C1496 C 0.65906 0.96941 0.54545 0.0
C1497 C 0.65878 0.96569 0.65369 0.0
C1498 C 0.65952 0.97145 0.615 0.0
C1499 C 0.66593 0.98849 0.50255 0.0
C1500 C 0.66292 0.98263 0.54127 0.0
H1501 H 0.67448 0.97361 0.74058 0.0
H1502 H 0.67445 0.98343 0.67927 0.0
H1503 H 0.6552 0.95386 0.58361 0.0
H1504 H 0.65377 0.98074 0.41185 0.0
H1505 H 0.64699 0.97436 0.47795 0.0
C1506 C 0.00872 0.80565 0.4494 0.0
C1507 C 0.00423 0.8148 0.44518 0.0
C1508 C 0.01221 0.80308 0.48569 0.0
C1509 C 0.00973 0.80862 0.5902 0.0
H1510 H 0.04285 0.80705 0.59762 0.0
C1511 C 0.03186 0.80919 0.73763 0.0
C1512 C 0.04581 0.8167 0.7418 0.0
C1513 C 0.02603 0.80596 0.70132 0.0
C1514 C 0.03363 0.80756 0.59612 0.0
H1515 H 0.99932 0.82801 0.47584 0.0
H1516 H 0.00557 0.82378 0.5383 0.0
H1517 H 0.03344 0.80693 0.53475 0.0
H1518 H 0.06467 0.82637 0.71141 0.0
H1519 H 0.05448 0.82139 0.64764 0.0
H1520 H 0.01033 0.81025 0.65098 0.0
C1521 C 0.00624 0.81837 0.51407 0.0
C1522 C 0.0281 0.80727 0.56 0.0
C1523 C 0.00272 0.82087 0.47804 0.0
C1524 C 0.05388 0.82052 0.70891 0.0
C1525 C 0.04801 0.81759 0.67237 0.0
C1526 C 0.01534 0.80911 0.62612 0.0
C1527 C 0.01127 0.80962 0.51838 0.0
C1528 C 0.01623 0.8081 0.55658 0.0
C1529 C 0.03395 0.81051 0.6681 0.0
C1530 C 0.02749 0.80879 0.62968 0.0
H1531 H 0.01 0.80082 0.42457 0.0
H1532 H 0.01588 0.79615 0.48803 0.0
H1533 H 1.00044 0.80902 0.5888 0.0
H1534 H 0.0254 0.80596 0.76251 0.0
H1535 H 0.01524 0.80012 0.69944 0.0
C1536 C 0.21052 0.31468 0.46112 0.0
C1537 C 0.20213 0.30125 0.45599 0.0
C1538 C 0.2115 0.32038 0.4971 0.0
C1539 C 0.21353 0.32872 0.58299 0.0
H1540 H 0.17748 0.3171 0.62071 0.0
C1541 C 0.19952 0.33957 0.73445 0.0
C1542 C 0.18873 0.34219 0.73612 0.0
C1543 C 0.2033 0.33644 0.69951 0.0
C1544 C 0.1876 0.32052 0.61044 0.0
H1545 H 0.18939 0.28311 0.48519 0.0
H1546 H 0.19116 0.29304 0.54767 0.0
H1547 H 0.18079 0.30735 0.56312 0.0
H1548 H 0.17402 0.34445 0.70217 0.0
H1549 H 0.18057 0.33894 0.64138 0.0
H1550 H 0.22027 0.34186 0.63094 0.0
C1551 C 0.19676 0.29918 0.52387 0.0
C1552 C 0.18951 0.31482 0.57773 0.0
C1553 C 0.1958 0.2935 0.48811 0.0
C1554 C 0.18232 0.3424 0.70191 0.0
C1555 C 0.18603 0.33919 0.66711 0.0
C1556 C 0.21162 0.33433 0.61625 0.0
C1557 C 0.20409 0.31273 0.5283 0.0
C1558 C 0.20247 0.31881 0.56369 0.0
C1559 C 0.19628 0.3358 0.66574 0.0
C1560 C 0.19861 0.33031 0.63012 0.0
H1561 H 0.21553 0.32089 0.43687 0.0
H1562 H 0.21723 0.33086 0.49979 0.0
H1563 H 0.22361 0.33198 0.57264 0.0
H1564 H 0.20469 0.33938 0.76032 0.0
H1565 H 0.2112 0.33383 0.69929 0.0
C1566 C 0.85789 0.62637 0.8102 0.0
C1567 C 0.86391 0.63323 0.77645 0.0
C1568 C 0.86075 0.63273 0.84553 0.0
C1569 C 0.8711 0.66515 0.88485 0.0
H1570 H 0.86925 0.64788 0.9811 0.0
C1571 C 0.86868 0.6723 0.06029 0.0
C1572 C 0.85927 0.67678 0.06061 0.0
C1573 C 0.87237 0.66883 0.02578 0.0
C1574 C 0.87002 0.65299 0.95459 0.0
H1575 H 0.87833 0.65199 0.75364 0.0
H1576 H 0.88348 0.66313 0.81565 0.0
H1577 H 0.871 0.63819 0.92122 0.0
H1578 H 0.84672 0.68159 0.02481 0.0
H1579 H 0.85294 0.67535 0.96488 0.0
H1580 H 0.87005 0.67991 0.91823 0.0
C1581 C 0.87637 0.65284 0.81461 0.0
C1582 C 0.87087 0.64734 0.92016 0.0
C1583 C 0.87352 0.64644 0.77914 0.0
C1584 C 0.85402 0.6782 0.02557 0.0
C1585 C 0.85766 0.67468 0.99111 0.0
C1586 C 0.87029 0.67083 0.91931 0.0
C1587 C 0.86972 0.64614 0.84808 0.0
C1588 C 0.87104 0.65315 0.88479 0.0
C1589 C 0.8667 0.66972 0.99081 0.0
C1590 C 0.86937 0.66464 0.95457 0.0
H1591 H 0.85045 0.61618 0.80914 0.0
H1592 H 0.85533 0.62726 0.87051 0.0
H1593 H 0.87112 0.66987 0.85819 0.0
H1594 H 0.87297 0.67117 0.08679 0.0
H1595 H 0.87952 0.66525 0.0266 0.0
C1596 C 0.34048 0.30153 0.04401 0.0
C1597 C 0.33093 0.28841 0.04875 0.0
C1598 C 0.34153 0.30779 0.00904 0.0
C1599 C 0.33219 0.29964 0.9065 0.0
H1600 H 0.3463 0.33687 0.89664 0.0
C1601 C 0.33697 0.32236 0.75987 0.0
C1602 C 0.3504 0.33092 0.75016 0.0
C1603 C 0.33326 0.31912 0.79806 0.0
C1604 C 0.34229 0.32646 0.89914 0.0
H1605 H 0.3144 0.27175 0.02196 0.0
H1606 H 0.31563 0.28279 0.96192 0.0
H1607 H 0.34172 0.32695 0.96044 0.0
H1608 H 0.37012 0.3439 0.77346 0.0
H1609 H 0.36349 0.33829 0.84042 0.0
H1610 H 0.33258 0.29915 0.84529 0.0
C1611 C 0.32279 0.28816 0.98424 0.0
C1612 C 0.33976 0.32076 0.93562 0.0
C1613 C 0.32199 0.28183 0.01879 0.0
C1614 C 0.35971 0.3372 0.77985 0.0
C1615 C 0.35593 0.33403 0.81821 0.0
C1616 C 0.33445 0.30529 0.87027 0.0
C1617 C 0.33285 0.30111 0.97838 0.0
C1618 C 0.33479 0.30726 0.9398 0.0
C1619 C 0.34283 0.3245 0.8274 0.0
C1620 C 0.33962 0.31874 0.86621 0.0
H1621 H 0.34753 0.3068 0.0667 0.0
H1622 H 0.34951 0.31768 0.00571 0.0
H1623 H 0.32877 0.28932 0.90821 0.0
H1624 H 0.32946 0.31747 0.73789 0.0
H1625 H 0.32305 0.31186 0.80454 0.0
C1626 C 0.67752 0.16412 0.81631 0.0
C1627 C 0.67362 0.15573 0.78453 0.0
C1628 C 0.68187 0.16094 0.84996 0.0
C1629 C 0.68005 0.13498 0.90892 0.0
H1630 H 0.71397 0.16177 0.94943 0.0
C1631 C 0.71736 0.14739 0.04984 0.0
C1632 C 0.708 0.14558 0.07862 0.0
C1633 C 0.71357 0.14595 0.01116 0.0
C1634 C 0.70461 0.15409 0.93821 0.0
H1635 H 0.67062 0.13712 0.76373 0.0
H1636 H 0.67793 0.13138 0.82354 0.0
H1637 H 0.70621 0.16471 0.88686 0.0
H1638 H 0.68715 0.13992 0.08967 0.0
H1639 H 0.68056 0.13727 0.02255 0.0
H1640 H 0.67816 0.12465 0.96129 0.0
C1641 C 0.67776 0.1405 0.82185 0.0
C1642 C 0.70012 0.15583 0.9026 0.0
C1643 C 0.67357 0.14378 0.78776 0.0
C1644 C 0.69462 0.14148 0.06814 0.0
C1645 C 0.69081 0.13985 0.02968 0.0
C1646 C 0.68447 0.13331 0.9449 0.0
C1647 C 0.68226 0.14922 0.85284 0.0
C1648 C 0.68766 0.14645 0.88809 0.0
C1649 C 0.70032 0.14244 0.00074 0.0
C1650 C 0.69665 0.143 0.96024 0.0
H1651 H 0.67767 0.17339 0.81485 0.0
H1652 H 0.68509 0.16773 0.87371 0.0
H1653 H 0.67041 0.12762 0.89828 0.0
H1654 H 0.72773 0.15055 0.05707 0.0
H1655 H 0.72108 0.14797 0.98935 0.0
C1656 C 0.01808 0.48361 0.90635 0.0
C1657 C 0.0055 0.48253 0.91479 0.0
C1658 C 0.02022 0.47893 0.87188 0.0
C1659 C 0.0032 0.45705 0.79045 0.0
H1660 H 0.03542 0.48057 0.73527 0.0
C1661 C 0.0092 0.45571 0.62773 0.0
C1662 C 0.0221 0.46078 0.61187 0.0
C1663 C 0.00744 0.45521 0.66735 0.0
C1664 C 0.02654 0.4737 0.75058 0.0
H1665 H 0.98521 0.47536 0.89363 0.0
H1666 H 0.98906 0.46731 0.83291 0.0
H1667 H 0.03162 0.48631 0.79907 0.0
H1668 H 0.0431 0.46784 0.62528 0.0
H1669 H 0.03997 0.4667 0.69462 0.0
H1670 H 0.99801 0.44457 0.7414 0.0
C1671 C 0.9972 0.4717 0.8534 0.0
C1672 C 0.02432 0.47705 0.78715 0.0
C1673 C 0.99504 0.47642 0.88802 0.0
C1674 C 0.03304 0.46403 0.63653 0.0
C1675 C 0.03126 0.46348 0.67628 0.0
C1676 C 0.00546 0.45366 0.75383 0.0
C1677 C 0.00986 0.47302 0.84487 0.0
C1678 C 0.01252 0.46889 0.8072 0.0
C1679 C 0.01853 0.45969 0.69207 0.0
C1680 C 0.01704 0.46208 0.73314 0.0
H1681 H 0.02636 0.48812 0.92636 0.0
H1682 H 0.03003 0.47993 0.86635 0.0
H1683 H 0.99412 0.45048 0.80551 0.0
H1684 H 1.0005 0.45291 0.60958 0.0
H1685 H 0.99749 0.45224 0.67836 0.0
C1686 C 0.54304 0.65554 0.58079 0.0
C1687 C 0.53746 0.66363 0.57211 0.0
C1688 C 0.54494 0.65311 0.61882 0.0
C1689 C 0.54417 0.66263 0.7199 0.0
H1690 H 0.52565 0.62541 0.73764 0.0
C1691 C 0.51657 0.64034 0.85924 0.0
C1692 C 0.51639 0.62916 0.87437 0.0
C1693 C 0.52254 0.64536 0.82401 0.0
C1694 C 0.53113 0.63583 0.73331 0.0
H1695 H 0.53083 0.67653 0.59658 0.0
H1696 H 0.53408 0.67222 0.66281 0.0
H1697 H 0.53117 0.63366 0.67252 0.0
H1698 H 0.52254 0.6146 0.86422 0.0
H1699 H 0.53299 0.62342 0.8022 0.0
H1700 H 0.54366 0.66475 0.78069 0.0
C1701 C 0.53697 0.66775 0.64023 0.0
C1702 C 0.53432 0.64057 0.69594 0.0
C1703 C 0.53504 0.67018 0.60218 0.0
C1704 C 0.52242 0.62317 0.85332 0.0
C1705 C 0.52841 0.62822 0.81784 0.0
C1706 C 0.54103 0.65788 0.7573 0.0
C1707 C 0.54138 0.65875 0.64893 0.0
C1708 C 0.54046 0.65401 0.68875 0.0
C1709 C 0.52852 0.63938 0.80285 0.0
C1710 C 0.53403 0.64442 0.76426 0.0
H1711 H 0.54524 0.65049 0.55834 0.0
H1712 H 0.54859 0.64632 0.62469 0.0
H1713 H 0.54909 0.67303 0.71524 0.0
H1714 H 0.51204 0.64526 0.87452 0.0
H1715 H 0.52217 0.65379 0.81293 0.0
C1716 C 0.35685 0.98412 0.85872 0.0
C1717 C 0.36781 0.99545 0.87323 0.0
C1718 C 0.35149 0.9841 0.82285 0.0
C1719 C 0.3601 1.00052 0.73017 0.0
H1720 H 0.32191 0.97903 0.71248 0.0
C1721 C 0.33922 0.9899 0.57776 0.0
C1722 C 0.33203 0.97647 0.57003 0.0
C1723 C 0.34151 0.99445 0.61545 0.0
C1724 C 0.33257 0.98513 0.71702 0.0
H1725 H 0.38169 0.0157 0.86114 0.0
H1726 H 0.37226 0.01562 0.79792 0.0
H1727 H 0.33057 0.98331 0.77798 0.0
H1728 H 0.32042 0.95744 0.59587 0.0
H1729 H 0.3244 0.9654 0.6616 0.0
H1730 H 0.36216 0.00201 0.66921 0.0
C1731 C 0.36789 0.00675 0.81461 0.0
C1732 C 0.33755 0.98756 0.75446 0.0
C1733 C 0.3733 0.00679 0.85077 0.0
C1734 C 0.32608 0.96782 0.60073 0.0
C1735 C 0.32833 0.9724 0.63846 0.0
C1736 C 0.35511 0.99817 0.69274 0.0
C1737 C 0.3569 0.99539 0.80036 0.0
C1738 C 0.35142 0.99487 0.76137 0.0
C1739 C 0.33656 0.98569 0.64619 0.0
C1740 C 0.34135 0.99009 0.68577 0.0
H1741 H 0.35234 0.97516 0.87499 0.0
H1742 H 0.34325 0.97509 0.81241 0.0
H1743 H 0.37084 0.00611 0.73445 0.0
H1744 H 0.34378 0.99688 0.55482 0.0
H1745 H 0.34769 0.00477 0.6206 0.0
C1746 C 0.5413 0.01337 0.41318 0.0
C1747 C 0.53166 0.01757 0.41434 0.0
C1748 C 0.54483 0.00997 0.37834 0.0
C1749 C 0.54165 0.99364 0.30785 0.0
H1750 H 0.54199 0.00995 0.21098 0.0
C1751 C 0.52873 0.96624 0.16458 0.0
C1752 C 0.53492 0.97289 0.13072 0.0
C1753 C 0.53153 0.9728 0.19959 0.0
C1754 C 0.54216 0.00538 0.23778 0.0
H1755 H 0.51865 0.02209 0.37964 0.0
H1756 H 0.52464 0.01598 0.31904 0.0
H1757 H 0.54142 0.02037 0.27086 0.0
H1758 H 0.54947 0.99151 0.10734 0.0
H1759 H 0.55446 0.00299 0.16876 0.0
H1760 H 0.54227 0.97859 0.27481 0.0
C1761 C 0.52962 0.01546 0.3449 0.0
C1762 C 0.54166 0.01128 0.27213 0.0
C1763 C 0.52613 0.01891 0.37973 0.0
C1764 C 0.54453 0.98611 0.13295 0.0
C1765 C 0.5473 0.99271 0.16806 0.0
C1766 C 0.54217 0.98775 0.27354 0.0
C1767 C 0.53877 0.01063 0.34387 0.0
C1768 C 0.54107 0.00532 0.30757 0.0
C1769 C 0.54059 0.98619 0.20164 0.0
C1770 C 0.54208 0.99338 0.23805 0.0
H1771 H 0.54582 0.01232 0.43933 0.0
H1772 H 0.55209 0.00651 0.37853 0.0
H1773 H 0.5411 0.98869 0.33453 0.0
H1774 H 0.52128 0.95604 0.16387 0.0
H1775 H 0.52606 0.96748 0.22473 0.0
C1776 C 0.99685 0.6161 0.36141 0.0
C1777 C 0.99622 0.62153 0.39668 0.0
C1778 C 0.99977 0.62339 0.32776 0.0
C1779 C 0.99929 0.65135 0.28291 0.0
H1780 H 0.02517 0.64986 0.21389 0.0
C1781 C 0.02748 0.67224 0.12711 0.0
C1782 C 0.01613 0.66882 0.10402 0.0
C1783 C 0.02604 0.6693 0.16624 0.0
C1784 C 0.01809 0.65057 0.23307 0.0
H1785 H 0.99774 0.63874 0.42422 0.0
H1786 H 0.0027 0.65145 0.36513 0.0
H1787 H 0.02038 0.63852 0.27506 0.0
H1788 H 0.99451 0.66085 0.10475 0.0
H1789 H 0.99205 0.65574 0.17282 0.0
H1790 H 0.99682 0.6632 0.24036 0.0
C1791 C 0.00098 0.64156 0.36366 0.0
C1792 C 0.01521 0.64392 0.26789 0.0
C1793 C 0.99818 0.63429 0.39745 0.0
C1794 C 0.00346 0.66349 0.1216 0.0
C1795 C 0.00205 0.66062 0.16073 0.0
C1796 C 0.00209 0.65793 0.24783 0.0
C1797 C 0.00201 0.63624 0.32858 0.0
C1798 C 0.00563 0.64406 0.29288 0.0
C1799 C 0.01326 0.66299 0.18311 0.0
C1800 C 0.01139 0.65746 0.22231 0.0
H1801 H 0.99537 0.60628 0.35983 0.0
H1802 H 1.00029 0.61896 0.30102 0.0
H1803 H 0.99185 0.65161 0.30162 0.0
H1804 H 0.03739 0.67641 0.1146 0.0
H1805 H 0.03489 0.67143 0.18296 0.0
C1806 C 0.32387 0.48522 0.16144 0.0
C1807 C 0.32431 0.47794 0.13011 0.0
C1808 C 0.3272 0.48304 0.19815 0.0
C1809 C 0.34677 0.47005 0.24779 0.0
H1810 H 0.33079 0.47674 0.33695 0.0
C1811 C 0.37306 0.48348 0.39597 0.0
C1812 C 0.3651 0.48056 0.42901 0.0
C1813 C 0.3671 0.48067 0.35955 0.0
C1814 C 0.33527 0.47457 0.31262 0.0
H1815 H 0.32797 0.4622 0.113 0.0
H1816 H 0.3335 0.45815 0.17767 0.0
H1817 H 0.32108 0.47542 0.27436 0.0
H1818 H 0.34467 0.47158 0.45002 0.0
H1819 H 0.33431 0.46605 0.38716 0.0
H1820 H 0.3608 0.46891 0.28639 0.0
C1821 C 0.33083 0.46574 0.17358 0.0
C1822 C 0.32978 0.47402 0.27646 0.0
C1823 C 0.32754 0.46797 0.13661 0.0
C1824 C 0.35109 0.47413 0.42507 0.0
C1825 C 0.34514 0.47105 0.38888 0.0
C1826 C 0.35218 0.47042 0.28417 0.0
C1827 C 0.33095 0.47343 0.20468 0.0
C1828 C 0.33567 0.47212 0.24344 0.0
C1829 C 0.35305 0.47465 0.35552 0.0
C1830 C 0.34667 0.47297 0.31703 0.0
H1831 H 0.32146 0.493 0.15747 0.0
H1832 H 0.32737 0.48932 0.22111 0.0
H1833 H 0.35164 0.46864 0.223 0.0
H1834 H 0.38389 0.48847 0.3982 0.0
H1835 H 0.37356 0.48372 0.33465 0.0
C1836 C 0.36238 0.25536 0.15269 0.0
C1837 C 0.35056 0.25155 0.13185 0.0
C1838 C 0.36892 0.24792 0.15124 0.0
C1839 C 0.36092 0.21411 0.12476 0.0
H1840 H 0.39606 0.22533 0.1691 0.0
C1841 C 0.37137 0.17964 0.20884 0.0
C1842 C 0.37834 0.17485 0.18684 0.0
C1843 C 0.37215 0.19153 0.19982 0.0
C1844 C 0.38628 0.22215 0.15639 0.0
H1845 H 0.33737 0.23843 0.08863 0.0
H1846 H 0.34927 0.22603 0.08332 0.0
H1847 H 0.38957 0.24155 0.14996 0.0
H1848 H 0.3926 0.17926 0.14064 0.0
H1849 H 0.39393 0.20021 0.12482 0.0
H1850 H 0.35766 0.19474 0.1318 0.0
C1851 C 0.35301 0.234 0.1035 0.0
C1852 C 0.38244 0.23139 0.14577 0.0
C1853 C 0.34618 0.24114 0.10622 0.0
C1854 C 0.38725 0.18281 0.15834 0.0
C1855 C 0.38798 0.19474 0.14917 0.0
C1856 C 0.36473 0.20497 0.13542 0.0
C1857 C 0.36409 0.23683 0.12749 0.0
C1858 C 0.36943 0.22747 0.13137 0.0
C1859 C 0.37992 0.19882 0.16872 0.0
C1860 C 0.37723 0.20888 0.15245 0.0
H1861 H 0.3661 0.26363 0.1719 0.0
H1862 H 0.37728 0.25052 0.1705 0.0
H1863 H 0.35092 0.21047 0.11343 0.0
H1864 H 0.36444 0.1737 0.23095 0.0
H1865 H 0.36583 0.19453 0.21514 0.0
C1866 C 0.75834 0.19728 0.1752 0.0
C1867 C 0.74457 0.19312 0.1716 0.0
C1868 C 0.7677 0.21048 0.17443 0.0
C1869 C 0.77115 0.24328 0.18763 0.0
H1870 H 0.80575 0.25393 0.14076 0.0
C1871 C 0.81448 0.29673 0.16001 0.0
C1872 C 0.82734 0.29862 0.16881 0.0
C1873 C 0.80324 0.28437 0.16393 0.0
C1874 C 0.79615 0.25108 0.15415 0.0
H1875 H 0.72989 0.19968 0.16371 0.0
H1876 H 0.7463 0.22274 0.16134 0.0
H1877 H 0.78841 0.23133 0.13689 0.0
H1878 H 0.8384 0.28953 0.19231 0.0
H1879 H 0.8189 0.26815 0.19932 0.0
H1880 H 0.77906 0.2633 0.20417 0.0
C1881 C 0.74982 0.21576 0.16553 0.0
C1882 C 0.78621 0.23812 0.15206 0.0
C1883 C 0.74042 0.20252 0.16656 0.0
C1884 C 0.82862 0.28832 0.1849 0.0
C1885 C 0.81749 0.27607 0.18874 0.0
C1886 C 0.78111 0.25636 0.18934 0.0
C1887 C 0.76358 0.21991 0.16967 0.0
C1888 C 0.77368 0.23397 0.16945 0.0
C1889 C 0.8048 0.27383 0.17664 0.0
C1890 C 0.79378 0.26028 0.1733 0.0
H1891 H 0.76193 0.19036 0.17954 0.0
H1892 H 0.77817 0.21329 0.17847 0.0
H1893 H 0.76164 0.24042 0.20155 0.0
H1894 H 0.81323 0.30449 0.1473 0.0
H1895 H 0.79353 0.28287 0.15451 0.0
C1896 C 0.79909 0.65066 0.17662 0.0
C1897 C 0.80659 0.66238 0.15687 0.0
C1898 C 0.78506 0.64446 0.17589 0.0
C1899 C 0.75779 0.65237 0.1559 0.0
H1900 H 0.73459 0.6155 0.17247 0.0
C1901 C 0.704 0.6348 0.1958 0.0
C1902 C 0.69474 0.62579 0.16994 0.0
C1903 C 0.71702 0.63666 0.19781 0.0
C1904 C 0.741 0.62582 0.16797 0.0
H1905 H 0.80564 0.67597 0.117 0.0
H1906 H 0.78124 0.66492 0.11393 0.0
H1907 H 0.75873 0.62391 0.16329 0.0
H1908 H 0.69135 0.61088 0.12821 0.0
H1909 H 0.71431 0.61416 0.13163 0.0
H1910 H 0.7402 0.65433 0.16029 0.0
C1911 C 0.78599 0.66085 0.13207 0.0
C1912 C 0.75483 0.63067 0.16289 0.0
C1913 C 0.79998 0.6672 0.13365 0.0
C1914 C 0.69829 0.61774 0.14883 0.0
C1915 C 0.71143 0.61967 0.15063 0.0
C1916 C 0.74413 0.64759 0.16143 0.0
C1917 C 0.7783 0.64964 0.15427 0.0
C1918 C 0.76345 0.64407 0.15717 0.0
C1919 C 0.72108 0.62966 0.1736 0.0
C1920 C 0.73559 0.63431 0.168 0.0
H1921 H 0.80407 0.64665 0.19406 0.0
H1922 H 0.77958 0.63593 0.19355 0.0
H1923 H 0.76391 0.66267 0.15125 0.0
H1924 H 0.70148 0.64115 0.21222 0.0
H1925 H 0.7242 0.64427 0.21624 0.0
C1926 C 0.07084 0.30377 0.3163 0.0
C1927 C 0.07527 0.31654 0.32919 0.0
C1928 C 0.07968 0.29871 0.31465 0.0
C1929 C 0.1083 0.30049 0.36292 0.0
H1930 H 0.11623 0.28721 0.27031 0.0
C1931 C 0.14279 0.27711 0.36184 0.0
C1932 C 0.15416 0.28454 0.33937 0.0
C1933 C 0.13144 0.27871 0.35806 0.0
C1934 C 0.11392 0.29072 0.29641 0.0
H1935 H 0.09243 0.33409 0.34996 0.0
H1936 H 0.10782 0.32507 0.34802 0.0
H1937 H 0.09997 0.29531 0.26814 0.0
H1938 H 0.1629 0.29955 0.29617 0.0
H1939 H 0.14289 0.30199 0.28841 0.0
H1940 H 0.12225 0.29598 0.3912 0.0
C1941 C 0.09754 0.31909 0.33879 0.0
C1942 C 0.1047 0.29536 0.29516 0.0
C1943 C 0.08878 0.32426 0.33961 0.0
C1944 C 0.15404 0.29345 0.31289 0.0
C1945 C 0.14264 0.29483 0.30846 0.0
C1946 C 0.11727 0.29559 0.36436 0.0
C1947 C 0.09301 0.30623 0.32672 0.0
C1948 C 0.10206 0.30055 0.32824 0.0
C1949 C 0.13137 0.28771 0.33161 0.0
C1950 C 0.12034 0.29091 0.33098 0.0
H1951 H 0.06048 0.29762 0.30806 0.0
H1952 H 0.076 0.28877 0.30528 0.0
H1953 H 0.10631 0.30435 0.38883 0.0
H1954 H 0.14291 0.27052 0.38336 0.0
H1955 H 0.12288 0.27323 0.37646 0.0
C1956 C 0.66834 0.86641 0.35749 0.0
C1957 C 0.67825 0.86258 0.35591 0.0
C1958 C 0.6719 0.87953 0.35983 0.0
C1959 C 0.69787 0.91241 0.33865 0.0
H1960 H 0.6798 0.92179 0.41653 0.0
C1961 C 0.70412 0.96438 0.34981 0.0
C1962 C 0.69178 0.96435 0.35214 0.0
C1963 C 0.70471 0.95286 0.3557 0.0
C1964 C 0.68494 0.91934 0.39462 0.0
H1965 H 0.69972 0.86961 0.35412 0.0
H1966 H 0.7059 0.89264 0.35734 0.0
H1967 H 0.67623 0.89963 0.4137 0.0
H1968 H 0.67059 0.95242 0.36442 0.0
H1969 H 0.67161 0.93258 0.37438 0.0
H1970 H 0.70606 0.93199 0.31837 0.0
C1971 C 0.69538 0.8854 0.35716 0.0
C1972 C 0.68288 0.90666 0.39302 0.0
C1973 C 0.69183 0.87223 0.35537 0.0
C1974 C 0.68024 0.95278 0.36216 0.0
C1975 C 0.68085 0.94139 0.36826 0.0
C1976 C 0.69983 0.92512 0.34 0.0
C1977 C 0.68544 0.88914 0.36018 0.0
C1978 C 0.68901 0.90297 0.36437 0.0
C1979 C 0.69302 0.9412 0.3645 0.0
C1980 C 0.69304 0.9286 0.36728 0.0
H1981 H 0.6578 0.85927 0.35807 0.0
H1982 H 0.66403 0.88218 0.36157 0.0
H1983 H 0.70272 0.90979 0.31631 0.0
H1984 H 0.71316 0.97315 0.34199 0.0
H1985 H 0.71426 0.95302 0.35281 0.0
C1986 C 0.13361 0.91986 0.30808 0.0
C1987 C 0.14009 0.93274 0.29475 0.0
C1988 C 0.11964 0.91288 0.30995 0.0
C1989 C 0.08866 0.90865 0.27068 0.0
H1990 H 0.07384 0.89459 0.37068 0.0
C1991 C 0.03877 0.86265 0.29868 0.0
C1992 C 0.03045 0.86274 0.32815 0.0
C1993 C 0.05096 0.87368 0.29115 0.0
C1994 C 0.07781 0.89866 0.34276 0.0
H1995 H 0.13701 0.94817 0.27111 0.0
H1996 H 0.11247 0.93569 0.27314 0.0
H1997 H 0.09802 0.9086 0.36357 0.0
H1998 H 0.02837 0.87407 0.37383 0.0
H1999 H 0.05011 0.89346 0.36135 0.0
H2000 H 0.06848 0.89801 0.24949 0.0
C2001 C 0.11828 0.93116 0.2827 0.0
C2002 C 0.09162 0.90654 0.33864 0.0
C2003 C 0.13229 0.93827 0.28154 0.0
C2004 C 0.03447 0.874 0.35014 0.0
C2005 C 0.04688 0.885 0.34314 0.0
C2006 C 0.07484 0.90054 0.27467 0.0
C2007 C 0.11189 0.91855 0.29785 0.0
C2008 C 0.09718 0.91136 0.30246 0.0
C2009 C 0.05531 0.88482 0.31399 0.0
C2010 C 0.06935 0.89528 0.31064 0.0
H2011 H 0.13931 0.91536 0.31875 0.0
H2012 H 0.11487 0.9031 0.32142 0.0
H2013 H 0.09276 0.91229 0.24253 0.0
H2014 H 0.03599 0.85389 0.28222 0.0
H2015 H 0.05738 0.87319 0.26906 0.0
C2016 C 0.67823 0.91002 0.78585 0.0
C2017 C 0.68329 0.92123 0.80846 0.0
C2018 C 0.68532 0.90315 0.78244 0.0
C2019 C 0.71692 0.90285 0.81657 0.0
H2020 H 0.69275 0.86573 0.81449 0.0
C2021 C 0.7234 0.85514 0.82774 0.0
C2022 C 0.71603 0.84779 0.85948 0.0
C2023 C 0.72372 0.86692 0.81899 0.0
C2024 C 0.69963 0.87609 0.81485 0.0
H2025 H 0.70018 0.93491 0.84207 0.0
H2026 H 0.71199 0.92237 0.83966 0.0
H2027 H 0.68447 0.88037 0.79702 0.0
H2028 H 0.70475 0.84768 0.9095 0.0
H2029 H 0.70548 0.86828 0.89449 0.0
H2030 H 0.73199 0.89805 0.83566 0.0
C2031 C 0.70284 0.91891 0.82326 0.0
C2032 C 0.69493 0.8846 0.80462 0.0
C2033 C 0.69597 0.92605 0.82528 0.0
C2034 C 0.71052 0.85318 0.88495 0.0
C2035 C 0.71091 0.86493 0.87635 0.0
C2036 C 0.72166 0.89424 0.82675 0.0
C2037 C 0.6974 0.90707 0.80284 0.0
C2038 C 0.7033 0.89816 0.80675 0.0
C2039 C 0.71683 0.87148 0.84221 0.0
C2040 C 0.71288 0.88083 0.82704 0.0
H2041 H 0.6687 0.90647 0.77126 0.0
H2042 H 0.68103 0.89453 0.76471 0.0
H2043 H 0.72389 0.91316 0.81731 0.0
H2044 H 0.72756 0.85111 0.80734 0.0
H2045 H 0.7282 0.87178 0.79229 0.0
C2046 C 0.15499 0.9699 0.8131 0.0
C2047 C 0.16726 0.97161 0.8275 0.0
C2048 C 0.14333 0.9578 0.81639 0.0
C2049 C 0.12965 0.92563 0.86589 0.0
H2050 H 0.10858 0.912 0.77322 0.0
C2051 C 0.09927 0.87099 0.83601 0.0
C2052 C 0.08569 0.8661 0.82633 0.0
C2053 C 0.108 0.88437 0.83659 0.0
C2054 C 0.1143 0.91574 0.7994 0.0
H2055 H 0.17678 0.9623 0.8587 0.0
H2056 H 0.15678 0.94146 0.86411 0.0
H2057 H 0.12558 0.93496 0.77647 0.0
H2058 H 0.07081 0.87146 0.80796 0.0
H2059 H 0.08626 0.89489 0.80799 0.0
H2060 H 0.11883 0.90627 0.88804 0.0
C2061 C 0.15594 0.94931 0.85051 0.0
C2062 C 0.12397 0.9289 0.80141 0.0
C2063 C 0.16749 0.96129 0.84712 0.0
C2064 C 0.08121 0.8749 0.81559 0.0
C2065 C 0.09003 0.88831 0.81556 0.0
C2066 C 0.12015 0.91249 0.86365 0.0
C2067 C 0.14376 0.94727 0.83445 0.0
C2068 C 0.13202 0.93393 0.83436 0.0
C2069 C 0.10342 0.89316 0.82695 0.0
C2070 C 0.1126 0.90734 0.83009 0.0
H2071 H 0.15452 0.97766 0.79764 0.0
H2072 H 0.13408 0.95659 0.80405 0.0
H2073 H 0.13541 0.92921 0.89206 0.0
H2074 H 0.10306 0.86452 0.84463 0.0
H2075 H 0.11834 0.88787 0.84503 0.0
C2076 C 0.03666 0.28847 0.88459 0.0
C2077 C 0.02701 0.28291 0.85548 0.0
C2078 C 0.04848 0.28769 0.88314 0.0
C2079 C 0.07074 0.28829 0.809 0.0
H2080 H 0.09286 0.29 0.89565 0.0
C2081 C 0.12733 0.32262 0.81303 0.0
C2082 C 0.13559 0.31931 0.83466 0.0
C2083 C 0.11349 0.31434 0.81198 0.0
C2084 C 0.08682 0.28938 0.87093 0.0
H2085 H 0.02158 0.27132 0.80371 0.0
H2086 H 0.04236 0.26995 0.80102 0.0
H2087 H 0.06874 0.28082 0.90402 0.0
H2088 H 0.13633 0.30429 0.86868 0.0
H2089 H 0.11204 0.28977 0.86739 0.0
H2090 H 0.08885 0.29731 0.77625 0.0
C2091 C 0.04075 0.27488 0.82502 0.0
C2092 C 0.07299 0.28415 0.87582 0.0
C2093 C 0.02879 0.27551 0.82679 0.0
C2094 C 0.13001 0.30717 0.85282 0.0
C2095 C 0.11615 0.2989 0.85205 0.0
C2096 C 0.08457 0.29358 0.80417 0.0
C2097 C 0.05097 0.2815 0.8522 0.0
C2098 C 0.06487 0.28399 0.84525 0.0
C2099 C 0.10768 0.30252 0.83231 0.0
C2100 C 0.09284 0.29467 0.83545 0.0
H2101 H 0.03553 0.29433 0.90677 0.0
H2102 H 0.05616 0.29299 0.90437 0.0
H2103 H 0.0648 0.2884 0.78488 0.0
H2104 H 0.13154 0.33175 0.79765 0.0
H2105 H 0.10732 0.31752 0.79672 0.0
C2106 C 0.74797 0.6541 0.63676 0.0
C2107 C 0.73499 0.64642 0.62197 0.0
C2108 C 0.75684 0.64911 0.63956 0.0
C2109 C 0.76576 0.6256 0.60221 0.0
H2110 H 0.7806 0.62721 0.70359 0.0
C2111 C 0.81449 0.62399 0.63408 0.0
C2112 C 0.81417 0.61555 0.66295 0.0
C2113 C 0.80327 0.62546 0.62682 0.0
C2114 C 0.77639 0.62654 0.67528 0.0
H2115 H 0.72142 0.62775 0.59654 0.0
H2116 H 0.73719 0.61921 0.60032 0.0
H2117 H 0.76445 0.63505 0.69385 0.0
H2118 H 0.80236 0.60259 0.70847 0.0
H2119 H 0.78261 0.60541 0.69638 0.0
H2120 H 0.77821 0.61762 0.58337 0.0
C2121 C 0.74034 0.629 0.61024 0.0
C2122 C 0.76729 0.63114 0.66964 0.0
C2123 C 0.73135 0.6339 0.60809 0.0
C2124 C 0.80259 0.6088 0.68523 0.0
C2125 C 0.7914 0.61048 0.67848 0.0
C2126 C 0.77508 0.62123 0.60771 0.0
C2127 C 0.75301 0.63644 0.62699 0.0
C2128 C 0.76205 0.63088 0.63298 0.0
C2129 C 0.7917 0.61887 0.64929 0.0
C2130 C 0.78058 0.62181 0.64422 0.0
H2131 H 0.75106 0.66373 0.64797 0.0
H2132 H 0.76664 0.65506 0.65222 0.0
H2133 H 0.76183 0.6253 0.57372 0.0
H2134 H 0.82351 0.62957 0.6174 0.0
H2135 H 0.80383 0.63217 0.60468 0.0
C2136 C 0.3682 0.29492 0.70454 0.0
C2137 C 0.3747 0.30383 0.67492 0.0
C2138 C 0.36921 0.28358 0.7072 0.0
C2139 C 0.3762 0.2615 0.71117 0.0
H2140 H 0.36406 0.24198 0.61624 0.0
C2141 C 0.3666 0.20865 0.69563 0.0
C2142 C 0.35385 0.19986 0.68108 0.0
C2143 C 0.37137 0.22205 0.69369 0.0
C2144 C 0.36754 0.24735 0.64284 0.0
H2145 H 0.38768 0.30826 0.62562 0.0
H2146 H 0.38931 0.28821 0.62985 0.0
H2147 H 0.3698 0.26489 0.61753 0.0
H2148 H 0.33633 0.19836 0.65184 0.0
H2149 H 0.3448 0.22179 0.64792 0.0
H2150 H 0.37359 0.24385 0.73669 0.0
C2151 C 0.38363 0.29012 0.65136 0.0
C2152 C 0.37096 0.26048 0.64351 0.0
C2153 C 0.38284 0.30163 0.6492 0.0
C2154 C 0.34616 0.20483 0.66347 0.0
C2155 C 0.35104 0.21824 0.66101 0.0
C2156 C 0.37297 0.24841 0.71036 0.0
C2157 C 0.37647 0.28081 0.67968 0.0
C2158 C 0.37503 0.2676 0.67787 0.0
C2159 C 0.36361 0.22697 0.67657 0.0
C2160 C 0.36831 0.24114 0.67639 0.0
H2161 H 0.36169 0.29636 0.72423 0.0
H2162 H 0.36348 0.27652 0.72907 0.0
H2163 H 0.37929 0.26677 0.73802 0.0
H2164 H 0.37283 0.20521 0.70932 0.0
H2165 H 0.38113 0.22857 0.70567 0.0
C2166 C 0.70417 0.19846 0.62296 0.0
C2167 C 0.69876 0.2006 0.65648 0.0
C2168 C 0.71642 0.20803 0.60884 0.0
C2169 C 0.74611 0.22382 0.60212 0.0
H2170 H 0.76204 0.26049 0.62592 0.0
C2171 C 0.80301 0.25622 0.60954 0.0
C2172 C 0.80877 0.26958 0.60187 0.0
C2173 C 0.78912 0.24834 0.60918 0.0
C2174 C 0.75772 0.25032 0.6183 0.0
H2175 H 0.70195 0.21407 0.70258 0.0
H2176 H 0.72383 0.23065 0.67935 0.0
H2177 H 0.73819 0.2464 0.63662 0.0
H2178 H 0.80444 0.28499 0.58563 0.0
H2179 H 0.78019 0.27111 0.58343 0.0
H2180 H 0.76543 0.22775 0.58253 0.0
C2181 C 0.71831 0.22192 0.66245 0.0
C2182 C 0.74404 0.24218 0.62509 0.0
C2183 C 0.70579 0.21244 0.67593 0.0
C2184 C 0.80032 0.27474 0.59187 0.0
C2185 C 0.7864 0.2668 0.59098 0.0
C2186 C 0.75967 0.23198 0.59462 0.0
C2187 C 0.72396 0.21968 0.62921 0.0
C2188 C 0.73811 0.22875 0.61797 0.0
C2189 C 0.78059 0.25354 0.60052 0.0
C2190 C 0.76577 0.24527 0.60368 0.0
H2191 H 0.69902 0.18925 0.60801 0.0
H2192 H 0.72015 0.20604 0.5826 0.0
H2193 H 0.74211 0.21354 0.59673 0.0
H2194 H 0.80918 0.25193 0.61775 0.0
H2195 H 0.7851 0.23826 0.61742 0.0
C2196 C 0.05239 0.5202 0.5068 0.0
C2197 C 0.04273 0.51116 0.5318 0.0
C2198 C 0.05432 0.53288 0.50464 0.0
C2199 C 0.04552 0.55645 0.54964 0.0
H2200 H 0.03777 0.5623 0.44547 0.0
C2201 C 0.0268 0.59294 0.51872 0.0
C2202 C 0.01518 0.58766 0.49606 0.0
C2203 C 0.03475 0.58687 0.52039 0.0
C2204 C 0.04003 0.56089 0.47468 0.0
H2205 H 0.02852 0.50852 0.57664 0.0
H2206 H 0.03208 0.53064 0.57357 0.0
H2207 H 0.04425 0.54572 0.45812 0.0
H2208 H 0.00361 0.5731 0.45364 0.0
H2209 H 0.01719 0.56225 0.45701 0.0
H2210 H 0.04062 0.5711 0.56654 0.0
C2211 C 0.03813 0.52802 0.55549 0.0
C2212 C 0.04392 0.5515 0.48188 0.0
C2213 C 0.03605 0.51533 0.55722 0.0
C2214 C 0.01227 0.577 0.47241 0.0
C2215 C 0.02023 0.57096 0.47387 0.0
C2216 C 0.04174 0.56593 0.5424 0.0
C2217 C 0.04679 0.53674 0.5279 0.0
C2218 C 0.04613 0.54879 0.51963 0.0
C2219 C 0.03133 0.57558 0.49879 0.0
C2220 C 0.03829 0.5678 0.50507 0.0
H2221 H 0.05755 0.51717 0.48659 0.0
H2222 H 0.06111 0.53944 0.48326 0.0
H2223 H 0.04728 0.55465 0.57898 0.0
H2224 H 0.02943 0.60145 0.53624 0.0
H2225 H 0.04338 0.59085 0.53925 0.0
C2226 C 0.3986 0.53865 0.52554 0.0
C2227 C 0.40291 0.52984 0.51347 0.0
C2228 C 0.40713 0.55205 0.52293 0.0
C2229 C 0.43626 0.57718 0.473 0.0
H2230 H 0.44395 0.59702 0.56741 0.0
C2231 C 0.48292 0.62549 0.53154 0.0
C2232 C 0.48468 0.63441 0.50243 0.0
C2233 C 0.47082 0.61393 0.53487 0.0
C2234 C 0.44175 0.59162 0.54077 0.0
H2235 H 0.41937 0.52827 0.48757 0.0
H2236 H 0.43411 0.55172 0.4821 0.0
H2237 H 0.42684 0.57402 0.56684 0.0
H2238 H 0.47523 0.63854 0.4546 0.0
H2239 H 0.45404 0.61809 0.45986 0.0
H2240 H 0.45131 0.5947 0.44706 0.0
C2241 C 0.42417 0.54818 0.49401 0.0
C2242 C 0.43198 0.57851 0.54041 0.0
C2243 C 0.41575 0.53477 0.4973 0.0
C2244 C 0.47395 0.63192 0.47781 0.0
C2245 C 0.46193 0.62019 0.48056 0.0
C2246 C 0.44583 0.59035 0.47318 0.0
C2247 C 0.42002 0.55694 0.5074 0.0
C2248 C 0.42936 0.57111 0.50672 0.0
C2249 C 0.46042 0.61094 0.50845 0.0
C2250 C 0.44887 0.59762 0.50725 0.0
H2251 H 0.38877 0.53523 0.53801 0.0
H2252 H 0.40367 0.55862 0.53324 0.0
H2253 H 0.43437 0.57168 0.44665 0.0
H2254 H 0.49118 0.62715 0.55034 0.0
H2255 H 0.46997 0.60692 0.55636 0.0
C2256 C 0.4713 0.00469 0.48881 0.0
C2257 C 0.47833 0.99966 0.50928 0.0
C2258 C 0.45733 0.99775 0.48667 0.0
C2259 C 0.42722 0.96558 0.50624 0.0
H2260 H 0.41052 0.98728 0.51892 0.0
C2261 C 0.37073 0.95088 0.48429 0.0
C2262 C 0.36578 0.95715 0.5084 0.0
C2263 C 0.38394 0.9532 0.4886 0.0
C2264 C 0.41501 0.98104 0.51586 0.0
H2265 H 0.47664 0.98305 0.54059 0.0
H2266 H 0.4521 0.9711 0.53861 0.0
H2267 H 0.43456 0.99726 0.51307 0.0
H2268 H 0.36999 0.96958 0.55795 0.0
H2269 H 0.39283 0.97328 0.56639 0.0
H2270 H 0.40727 0.94928 0.5082 0.0
C2271 C 0.45729 0.98034 0.52389 0.0
C2272 C 0.42885 0.9868 0.51206 0.0
C2273 C 0.47131 0.98721 0.52542 0.0
C2274 C 0.37361 0.96457 0.53929 0.0
C2275 C 0.3867 0.96678 0.54382 0.0
C2276 C 0.41322 0.95976 0.50953 0.0
C2277 C 0.45011 0.98567 0.50524 0.0
C2278 C 0.4352 0.97921 0.50748 0.0
C2279 C 0.39226 0.9618 0.51708 0.0
C2280 C 0.40702 0.96747 0.51483 0.0
H2281 H 0.47661 0.01407 0.47484 0.0
H2282 H 0.4522 0.002 0.47102 0.0
H2283 H 0.43175 0.95942 0.50224 0.0
H2284 H 0.36492 0.94533 0.45981 0.0
H2285 H 0.38799 0.94928 0.46753 0.0
C2286 C 0.41879 0.98833 0.97504 0.0
C2287 C 0.40566 0.98056 0.9614 0.0
C2288 C 0.4275 0.98319 0.97874 0.0
C2289 C 0.43643 0.95954 0.94529 0.0
H2290 H 0.4505 0.96152 0.04797 0.0
C2291 C 0.48598 0.96034 0.98231 0.0
C2292 C 0.48592 0.95221 0.0118 0.0
C2293 C 0.4744 0.96101 0.97352 0.0
C2294 C 0.44649 0.96072 0.01931 0.0
H2295 H 0.39164 0.96154 0.93891 0.0
H2296 H 0.40717 0.95273 0.94419 0.0
H2297 H 0.43403 0.96885 0.03627 0.0
H2298 H 0.47413 0.93896 0.05681 0.0
H2299 H 0.45373 0.94039 0.04205 0.0
H2300 H 0.44948 0.95207 0.928 0.0
C2301 C 0.41054 0.96271 0.95254 0.0
C2302 C 0.43719 0.96501 0.01258 0.0
C2303 C 0.4017 0.96776 0.94951 0.0
C2304 C 0.4742 0.94494 0.0331 0.0
C2305 C 0.46263 0.94582 0.02481 0.0
C2306 C 0.44595 0.95548 0.95189 0.0
C2307 C 0.42336 0.97028 0.96821 0.0
C2308 C 0.43228 0.96467 0.97543 0.0
C2309 C 0.4627 0.95393 0.99507 0.0
C2310 C 0.45119 0.95624 0.98887 0.0
H2311 H 0.42215 0.99819 0.9847 0.0
H2312 H 0.43742 0.98923 0.99058 0.0
H2313 H 0.43274 0.9592 0.91643 0.0
H2314 H 0.49508 0.96631 0.96636 0.0
H2315 H 0.47478 0.96753 0.95101 0.0
C2316 C 0.01048 0.62118 0.00359 0.0
C2317 C 0.0221 0.63331 -0.00073 0.0
C2318 C 0.01099 0.60967 -0.00074 0.0
C2319 C 0.03136 0.59406 0.00528 0.0
H2320 H 0.00466 0.56907 0.93599 0.0
C2321 C 0.02399 0.54207 0.98721 0.0
C2322 C 0.01058 0.53205 0.98764 0.0
C2323 C 0.02704 0.55505 0.9832 0.0
C2324 C 0.01213 0.5759 0.95557 0.0
H2325 H 0.04353 0.64273 0.98895 0.0
H2326 H 0.04442 0.62233 0.9823 0.0
H2327 H 0.00733 0.59087 0.94126 0.0
H2328 H 0.98988 0.52788 0.98295 0.0
H2329 H 0.99516 0.55042 0.97654 0.0
H2330 H 0.03572 0.57889 0.02108 0.0
C2331 C 0.03493 0.62194 0.98852 0.0
C2332 C 0.01371 0.58839 0.95839 0.0
C2333 C 0.03441 0.63358 0.99245 0.0
C2334 C 1.00032 0.5353 0.98262 0.0
C2335 C 0.00337 0.54827 0.97873 0.0
C2336 C 0.0297 0.58147 0.00272 0.0
C2337 C 0.02313 0.60991 0.9909 0.0
C2338 C 0.02308 0.59747 0.984 0.0
C2339 C 0.01675 0.55832 0.97953 0.0
C2340 C 0.0198 0.57214 0.97859 0.0
H2341 H 0.00082 0.62049 0.0093 0.0
H2342 H 0.0018 0.60052 0.00203 0.0
H2343 H 0.03861 0.60089 0.02534 0.0
H2344 H 0.03218 0.53995 0.99085 0.0
H2345 H 0.03746 0.56253 0.98339 0.0
C2346 C 0.35856 0.51942 0.96854 0.0
C2347 C 0.35225 0.52185 -0.00053 0.0
C2348 C 0.37103 0.52896 0.95572 0.0
C2349 C 0.40078 0.54528 0.95431 0.0
H2350 H 0.41508 0.58229 0.96915 0.0
C2351 C 0.45737 0.57986 0.96464 0.0
C2352 C 0.46263 0.59285 0.953 0.0
C2353 C 0.44355 0.57148 0.9641 0.0
C2354 C 0.41123 0.57201 0.96411 0.0
H2355 H 0.35409 0.53584 0.04248 0.0
H2356 H 0.37631 0.55248 0.02148 0.0
H2357 H 0.3912 0.56775 0.97773 0.0
H2358 H 0.45755 0.60703 0.92964 0.0
H2359 H 0.43349 0.59224 0.92718 0.0
H2360 H 0.42063 0.5495 0.93945 0.0
C2361 C 0.37133 0.54347 0.00551 0.0
C2362 C 0.39752 0.56363 0.96967 0.0
C2363 C 0.35861 0.53398 0.01767 0.0
C2364 C 0.45381 0.59708 0.93902 0.0
C2365 C 0.43999 0.58863 0.93796 0.0
C2366 C 0.41438 0.55365 0.9481 0.0
C2367 C 0.37786 0.54094 0.97497 0.0
C2368 C 0.39215 0.55012 0.96556 0.0
C2369 C 0.43465 0.5758 0.95132 0.0
C2370 C 0.41988 0.56709 0.95381 0.0
H2371 H 0.35395 0.50999 0.95473 0.0
H2372 H 0.37549 0.52673 0.93149 0.0
H2373 H 0.39718 0.53495 0.95146 0.0
H2374 H 0.46385 0.57631 0.97598 0.0
H2375 H 0.43987 0.56175 0.97527 0.0
C2376 C 0.41559 0.05209 0.00081 0.0
C2377 C 0.40239 0.04424 0.98779 0.0
C2378 C 0.4193 0.06415 0.01784 0.0
C2379 C 0.41058 0.09006 0.03045 0.0
H2380 H 0.4181 0.08931 0.13871 0.0
C2381 C 0.41119 0.12805 0.13515 0.0
C2382 C 0.40027 0.12172 0.16019 0.0
C2383 C 0.41616 0.12093 0.11528 0.0
C2384 C 0.41632 0.0898 0.10839 0.0
H2385 H 0.38305 0.04319 0.97957 0.0
H2386 H 0.38971 0.0645 0.00776 0.0
H2387 H 0.41793 0.07277 0.09552 0.0
H2388 H 0.38678 0.10336 0.18688 0.0
H2389 H 0.39589 0.09105 0.15369 0.0
H2390 H 0.40843 0.10676 0.04356 0.0
C2391 C 0.39711 0.06126 0.00532 0.0
C2392 C 0.41625 0.08039 0.08371 0.0
C2393 C 0.3933 0.04908 0.98925 0.0
C2394 C 0.39529 0.10847 0.16796 0.0
C2395 C 0.40049 0.10143 0.14895 0.0
C2396 C 0.41094 0.09963 0.05496 0.0
C2397 C 0.40998 0.06867 0.02105 0.0
C2398 C 0.4129 0.08017 0.04482 0.0
C2399 C 0.41051 0.10747 0.12109 0.0
C2400 C 0.41333 0.0993 0.09439 0.0
H2401 H 0.42275 0.04851 0.00042 0.0
H2402 H 0.42927 0.0697 0.02985 0.0
H2403 H 0.40793 0.09005 0.00061 0.0
H2404 H 0.41504 0.13823 0.12824 0.0
H2405 H 0.42388 0.12577 0.09387 0.0
C2406 C 0.86317 0.37875 0.09557 0.0
C2407 C 0.86393 0.37424 0.13218 0.0
C2408 C 0.87097 0.39186 0.0863 0.0
C2409 C 0.9041 0.41729 0.11392 0.0
H2410 H 0.89909 0.43536 0.02769 0.0
C2411 C 0.9482 0.44968 0.02031 0.0
C2412 C 0.9503 0.4622 0.01195 0.0
C2413 C 0.93602 0.44031 0.03538 0.0
C2414 C 0.9006 0.43051 0.05208 0.0
H2415 H 0.87238 0.37986 0.18897 0.0
H2416 H 0.88578 0.40297 0.17335 0.0
H2417 H 0.87953 0.41766 0.05894 0.0
H2418 H 0.94098 0.47448 0.01017 0.0
H2419 H 0.91947 0.45792 0.03657 0.0
H2420 H 0.9251 0.42988 0.10676 0.0
C2421 C 0.87931 0.39638 0.15149 0.0
C2422 C 0.88942 0.42035 0.06992 0.0
C2423 C 0.87149 0.38319 0.1607 0.0
C2424 C 0.93959 0.46486 0.01615 0.0
C2425 C 0.92733 0.45543 0.03147 0.0
C2426 C 0.91519 0.42738 0.09617 0.0
C2427 C 0.87979 0.4007 0.11349 0.0
C2428 C 0.89107 0.41332 0.10025 0.0
C2429 C 0.92566 0.44324 0.04271 0.0
C2430 C 0.91362 0.43377 0.06416 0.0
H2431 H 0.85755 0.37194 0.07298 0.0
H2432 H 0.87108 0.39473 0.05674 0.0
H2433 H 0.90586 0.41207 0.13681 0.0
H2434 H 0.95623 0.44731 0.01704 0.0
H2435 H 0.9349 0.43087 0.04267 0.0
C2436 C 0.61191 0.58658 0.10686 0.0
C2437 C 0.61663 0.59312 0.14181 0.0
C2438 C 0.59873 0.58248 0.09513 0.0
C2439 C 0.57524 0.59488 0.10871 0.0
H2440 H 0.55526 0.57009 0.02863 0.0
C2441 C 0.54492 0.60632 0.00223 0.0
C2442 C 0.53165 0.59675 0.9951 0.0
C2443 C 0.55381 0.60316 0.0207 0.0
C2444 C 0.56065 0.57698 0.05124 0.0
H2445 H 0.61114 0.59942 0.19369 0.0
H2446 H 0.58786 0.59164 0.17436 0.0
H2447 H 0.572 0.56742 0.06602 0.0
H2448 H 0.51751 0.57618 -0.0007 0.0
H2449 H 0.53318 0.57062 0.03189 0.0
H2450 H 0.5641 0.60452 0.09387 0.0
C2451 C 0.59437 0.58994 0.1554 0.0
C2452 C 0.57028 0.57549 0.07257 0.0
C2453 C 0.60762 0.59419 0.16687 0.0
C2454 C 0.52772 0.58375 0.00428 0.0
C2455 C 0.53666 0.58058 0.02307 0.0
C2456 C 0.56568 0.59634 0.08755 0.0
C2457 C 0.59006 0.58489 0.11824 0.0
C2458 C 0.57797 0.58466 0.10087 0.0
C2459 C 0.54963 0.59037 0.03283 0.0
C2460 C 0.5586 0.58769 0.05771 0.0
H2461 H 0.6188 0.58592 0.08675 0.0
H2462 H 0.59588 0.57871 0.06631 0.0
H2463 H 0.58102 0.60227 0.12974 0.0
H2464 H 0.54829 0.6164 0.99513 0.0
H2465 H 0.56387 0.61087 0.02678 0.0
C2466 C 0.07309 0.46323 0.46315 0.0
C2467 C 0.06161 0.4568 0.48613 0.0
C2468 C 0.07821 0.45612 0.44386 0.0
C2469 C 0.07334 0.43432 0.38348 0.0
H2470 H 0.08255 0.40953 0.4287 0.0
C2471 C 0.05909 0.38331 0.32686 0.0
C2472 C 0.0688 0.37922 0.32806 0.0
C2473 C 0.06219 0.39573 0.33944 0.0
C2474 C 0.08027 0.41659 0.41557 0.0
H2475 H 0.04702 0.43822 0.50926 0.0
H2476 H 0.05641 0.4259 0.47732 0.0
H2477 H 0.08117 0.42584 0.46939 0.0
H2478 H 0.08955 0.38511 0.34113 0.0
H2479 H 0.09485 0.40676 0.36443 0.0
H2480 H 0.07121 0.42429 0.3303 0.0
C2481 C 0.06133 0.43635 0.47375 0.0
C2482 C 0.07944 0.42586 0.43884 0.0
C2483 C 0.05598 0.44338 0.49205 0.0
C2484 C 0.08193 0.38809 0.33943 0.0
C2485 C 0.08495 0.40042 0.35302 0.0
C2486 C 0.07384 0.42485 0.36036 0.0
C2487 C 0.07214 0.44258 0.44834 0.0
C2488 C 0.07568 0.43461 0.42311 0.0
C2489 C 0.07497 0.40415 0.35431 0.0
C2490 C 0.07702 0.41572 0.37641 0.0
H2491 H 0.07743 0.47355 0.4576 0.0
H2492 H 0.0865 0.46108 0.42419 0.0
H2493 H 0.07024 0.44088 0.37087 0.0
H2494 H 0.04887 0.37661 0.31849 0.0
H2495 H 0.0543 0.39836 0.34044 0.0
C2496 C 0.60629 0.79875 0.35411 0.0
C2497 C 0.61566 0.79485 0.34291 0.0
C2498 C 0.59346 0.78951 0.36617 0.0
C2499 C 0.56828 0.75513 0.36705 0.0
H2500 H 0.56495 0.75898 0.47642 0.0
C2501 C 0.52739 0.71401 0.45559 0.0
C2502 C 0.53371 0.70916 0.48012 0.0
C2503 C 0.53465 0.72654 0.44032 0.0
C2504 C 0.56557 0.75793 0.44575 0.0
H2505 H 0.61869 0.7783 0.33238 0.0
H2506 H 0.59606 0.76213 0.35164 0.0
H2507 H 0.58263 0.77688 0.43997 0.0
H2508 H 0.55204 0.71372 0.51031 0.0
H2509 H 0.5645 0.73586 0.48542 0.0
H2510 H 0.55157 0.736 0.37308 0.0
C2511 C 0.59869 0.77231 0.35168 0.0
C2512 C 0.57564 0.76814 0.4249 0.0
C2513 C 0.61162 0.78154 0.34065 0.0
C2514 C 0.54691 0.71738 0.49209 0.0
C2515 C 0.55404 0.73001 0.4777 0.0
C2516 C 0.55803 0.74504 0.38771 0.0
C2517 C 0.58971 0.77625 0.36607 0.0
C2518 C 0.57737 0.76664 0.38568 0.0
C2519 C 0.54818 0.73445 0.45018 0.0
C2520 C 0.55689 0.74617 0.42748 0.0
H2521 H 0.60922 0.80897 0.35662 0.0
H2522 H 0.5867 0.79275 0.37724 0.0
H2523 H 0.56948 0.75375 0.33689 0.0
H2524 H 0.51732 0.7077 0.44525 0.0
H2525 H 0.52996 0.72975 0.41902 0.0
C2526 C 0.22012 0.93742 0.30921 0.0
C2527 C 0.20627 0.92895 0.31033 0.0
C2528 C 0.22896 0.93412 0.3273 0.0
C2529 C 0.23386 0.90904 0.37675 0.0
H2530 H 0.25629 0.93825 0.44228 0.0
C2531 C 0.28365 0.91846 0.44667 0.0
C2532 C 0.2882 0.92675 0.47858 0.0
C2533 C 0.27085 0.91447 0.43165 0.0
C2534 C 0.24994 0.92985 0.42492 0.0
H2535 H 0.19084 0.90985 0.32785 0.0
H2536 H 0.2064 0.90405 0.35995 0.0
H2537 H 0.24036 0.93974 0.39971 0.0
H2538 H 0.28264 0.9362 0.52251 0.0
H2539 H 0.26 0.92863 0.49786 0.0
H2540 H 0.24374 0.89925 0.40199 0.0
C2541 C 0.21039 0.91322 0.34486 0.0
C2542 C 0.24096 0.93082 0.39987 0.0
C2543 C 0.20151 0.91651 0.32632 0.0
C2544 C 0.27925 0.92965 0.49816 0.0
C2545 C 0.26638 0.92548 0.4836 0.0
C2546 C 0.24298 0.90808 0.40188 0.0
C2547 C 0.2241 0.92233 0.34734 0.0
C2548 C 0.23305 0.92059 0.37488 0.0
C2549 C 0.26244 0.91871 0.44852 0.0
C2550 C 0.25126 0.91857 0.42592 0.0
H2551 H 0.22404 0.94704 0.2969 0.0
H2552 H 0.23953 0.94119 0.32797 0.0
H2553 H 0.22777 0.90096 0.35801 0.0
H2554 H 0.29053 0.91635 0.43067 0.0
H2555 H 0.2682 0.90929 0.40462 0.0
C2556 C 0.53448 0.92229 0.97924 0.0
C2557 C 0.53738 0.93274 0.00418 0.0
C2558 C 0.54469 0.92002 0.96579 0.0
C2559 C 0.57943 0.92689 0.98085 0.0
H2560 H 0.5801 0.92448 0.86993 0.0
C2561 C 0.61721 0.91592 0.90184 0.0
C2562 C 0.6243 0.92435 0.87148 0.0
C2563 C 0.60612 0.91611 0.91805 0.0
C2564 C 0.58004 0.92515 0.9009 0.0
H2565 H 0.55321 0.94832 0.03696 0.0
H2566 H 0.571 0.94417 0.01382 0.0
H2567 H 0.56162 0.92586 0.90102 0.0
H2568 H 0.62486 0.93921 0.83344 0.0
H2569 H 0.60528 0.93935 0.86154 0.0
H2570 H 0.5979 0.92626 0.98065 0.0
C2571 C 0.56081 0.93785 0.00444 0.0
C2572 C 0.56941 0.92582 0.91872 0.0
C2573 C 0.5506 0.94022 0.01768 0.0
C2574 C 0.61967 0.93261 0.85677 0.0
C2575 C 0.60844 0.93268 0.8728 0.0
C2576 C 0.58997 0.92606 0.96304 0.0
C2577 C 0.55801 0.92803 0.97729 0.0
C2578 C 0.56903 0.92675 0.95886 0.0
C2579 C 0.60173 0.9246 0.90408 0.0
C2580 C 0.59041 0.92525 0.92288 0.0
H2581 H 0.52442 0.91624 0.96841 0.0
H2582 H 0.54222 0.91222 0.94542 0.0
H2583 H 0.57937 0.92759 0.01181 0.0
H2584 H 0.62043 0.9094 0.91395 0.0
H2585 H 0.60101 0.90965 0.94178 0.0
C2586 C 0.09357 0.80103 0.85327 0.0
C2587 C 0.08091 0.79789 0.83832 0.0
C2588 C 0.09609 0.7912 0.8669 0.0
C2589 C 0.08375 0.75583 0.869 0.0
H2590 H 0.08893 0.75981 0.97915 0.0
C2591 C 0.07254 0.71204 0.96413 0.0
C2592 C 0.06161 0.70972 0.98763 0.0
C2593 C 0.08035 0.72433 0.94772 0.0
C2594 C 0.0878 0.75866 0.94832 0.0
H2595 H 0.06139 0.78214 0.82278 0.0
H2596 H 0.06596 0.76498 0.84497 0.0
H2597 H 0.09264 0.7785 0.93988 0.0
H2598 H 0.05099 0.7185 0.01539 0.0
H2599 H 0.06495 0.74004 0.98827 0.0
H2600 H 0.07814 0.73581 0.8777 0.0
C2601 C 0.07389 0.77498 0.84664 0.0
C2602 C 0.08997 0.76935 0.92583 0.0
C2603 C 0.07126 0.78478 0.83398 0.0
C2604 C 0.05945 0.72011 0.99761 0.0
C2605 C 0.06744 0.73243 0.98207 0.0
C2606 C 0.08181 0.74519 0.8914 0.0
C2607 C 0.08611 0.77811 0.86475 0.0
C2608 C 0.08737 0.76788 0.88622 0.0
C2609 C 0.07753 0.73449 0.95547 0.0
C2610 C 0.08322 0.74638 0.93147 0.0
H2611 H 0.10111 0.81108 0.85737 0.0
H2612 H 0.10557 0.79385 0.88082 0.0
H2613 H 0.08167 0.75445 0.83854 0.0
H2614 H 0.07426 0.70411 0.95556 0.0
H2615 H 0.08806 0.72568 0.92725 0.0
C2616 C 0.27499 0.47441 0.96407 0.0
C2617 C 0.28254 0.47265 0.99316 0.0
C2618 C 0.26309 0.46393 0.95079 0.0
C2619 C 0.23562 0.44062 0.93501 0.0
H2620 H 0.23766 0.40883 0.92269 0.0
C2621 C 0.19045 0.3914 0.89051 0.0
C2622 C 0.19293 0.38282 0.86808 0.0
C2623 C 0.20103 0.40315 0.9034 0.0
C2624 C 0.23697 0.41767 0.92547 0.0
H2625 H 0.28281 0.45867 0.03331 0.0
H2626 H 0.26193 0.4405 0.0107 0.0
H2627 H 0.25609 0.42758 0.95294 0.0
H2628 H 0.20847 0.38041 0.83938 0.0
H2629 H 0.22688 0.40102 0.86129 0.0
H2630 H 0.21658 0.43072 0.90667 0.0
C2631 C 0.26544 0.44991 0.99739 0.0
C2632 C 0.24745 0.42836 0.94349 0.0
C2633 C 0.27736 0.46038 0.0106 0.0
C2634 C 0.20617 0.3867 0.85683 0.0
C2635 C 0.21675 0.39847 0.8697 0.0
C2636 C 0.22511 0.42989 0.91694 0.0
C2637 C 0.25842 0.45146 0.96641 0.0
C2638 C 0.24692 0.43997 0.94856 0.0
C2639 C 0.21434 0.40665 0.8941 0.0
C2640 C 0.22567 0.41829 0.91191 0.0
H2641 H 0.27862 0.48371 0.94999 0.0
H2642 H 0.25796 0.46547 0.92685 0.0
H2643 H 0.23486 0.44939 0.93858 0.0
H2644 H 0.18039 0.3888 0.89964 0.0
H2645 H 0.1988 0.40918 0.92225 0.0
C2646 C 0.87593 0.59897 0.6578 0.0
C2647 C 0.86303 0.59322 0.64142 0.0
C2648 C 0.88574 0.59624 0.6432 0.0
C2649 C 0.89549 0.58757 0.55321 0.0
H2650 H 0.91952 0.58058 0.61531 0.0
C2651 C 0.94071 0.57365 0.53611 0.0
C2652 C 0.95009 0.58415 0.51404 0.0
C2653 C 0.92899 0.57337 0.549 0.0
C2654 C 0.91281 0.58243 0.59759 0.0
H2655 H 0.8502 0.57953 0.59811 0.0
H2656 H 0.86736 0.57496 0.57268 0.0
H2657 H 0.90123 0.58247 0.64597 0.0
H2658 H 0.95385 0.60203 0.48566 0.0
H2659 H 0.93316 0.60134 0.50762 0.0
H2660 H 0.90729 0.58786 0.50493 0.0
C2661 C 0.86986 0.58161 0.59661 0.0
C2662 C 0.90243 0.5836 0.61517 0.0
C2663 C 0.86001 0.58419 0.61146 0.0
C2664 C 0.94691 0.59382 0.50268 0.0
C2665 C 0.93506 0.59344 0.51526 0.0
C2666 C 0.90601 0.58661 0.53569 0.0
C2667 C 0.8829 0.58785 0.6117 0.0
C2668 C 0.89367 0.58618 0.59315 0.0
C2669 C 0.92624 0.58345 0.53968 0.0
C2670 C 0.91477 0.58403 0.55772 0.0
H2671 H 0.87861 0.60595 0.6809 0.0
H2672 H 0.89574 0.60119 0.65536 0.0
H2673 H 0.88895 0.5897 0.5356 0.0
H2674 H 0.94273 0.56596 0.54528 0.0
H2675 H 0.92224 0.56545 0.56728 0.0
C2676 C 0.41787 0.46903 0.53302 0.0
C2677 C 0.40501 0.4648 0.51772 0.0
C2678 C 0.42163 0.45996 0.54587 0.0
C2679 C 0.41649 0.4377 0.60327 0.0
H2680 H 0.41153 0.40674 0.54995 0.0
C2681 C 0.39133 0.38578 0.66185 0.0
C2682 C 0.39713 0.37788 0.6541 0.0
C2683 C 0.39743 0.3986 0.64893 0.0
C2684 C 0.41326 0.41546 0.56511 0.0
H2685 H 0.38645 0.44799 0.50079 0.0
H2686 H 0.39327 0.43217 0.52139 0.0
H2687 H 0.41281 0.42508 0.51328 0.0
H2688 H 0.41406 0.3772 0.62837 0.0
H2689 H 0.42452 0.39962 0.60429 0.0
H2690 H 0.41559 0.42756 0.6553 0.0
C2691 C 0.40036 0.44243 0.52397 0.0
C2692 C 0.41394 0.4259 0.54416 0.0
C2693 C 0.39646 0.45146 0.51218 0.0
C2694 C 0.40956 0.38322 0.63529 0.0
C2695 C 0.41547 0.39597 0.62131 0.0
C2696 C 0.41549 0.42714 0.62427 0.0
C2697 C 0.41273 0.44659 0.54246 0.0
C2698 C 0.41517 0.43695 0.56316 0.0
C2699 C 0.40922 0.40361 0.62703 0.0
C2700 C 0.41348 0.41579 0.60539 0.0
H2701 H 0.42454 0.47927 0.53813 0.0
H2702 H 0.43119 0.46336 0.56023 0.0
H2703 H 0.41726 0.44606 0.61857 0.0
H2704 H 0.38166 0.38178 0.67585 0.0
H2705 H 0.39234 0.40425 0.65332 0.0
C2706 C 0.54106 0.06223 0.59398 0.0
C2707 C 0.54006 0.05792 0.55598 0.0
C2708 C 0.55169 0.0741 0.60545 0.0
C2709 C 0.58555 0.10001 0.57606 0.0
H2710 H 0.57922 0.11907 0.657 0.0
C2711 C 0.62289 0.15271 0.62295 0.0
C2712 C 0.62894 0.15261 0.6581 0.0
C2713 C 0.61122 0.14177 0.61076 0.0
C2714 C 0.58107 0.11382 0.63438 0.0
H2715 H 0.5494 0.06257 0.50007 0.0
H2716 H 0.56779 0.08376 0.51954 0.0
H2717 H 0.56062 0.09894 0.63271 0.0
H2718 H 0.62691 0.14127 0.70916 0.0
H2719 H 0.6061 0.12227 0.68822 0.0
H2720 H 0.60597 0.11533 0.57716 0.0
C2721 C 0.56054 0.07779 0.54088 0.0
C2722 C 0.57048 0.10222 0.6206 0.0
C2723 C 0.54999 0.06569 0.52957 0.0
C2724 C 0.6225 0.14166 0.68199 0.0
C2725 C 0.61065 0.1308 0.67005 0.0
C2726 C 0.59606 0.11175 0.58933 0.0
C2727 C 0.56148 0.08218 0.57902 0.0
C2728 C 0.57261 0.09502 0.59169 0.0
C2729 C 0.6052 0.13066 0.63385 0.0
C2730 C 0.59391 0.11862 0.61888 0.0
H2731 H 0.53367 0.05632 0.61516 0.0
H2732 H 0.55224 0.07684 0.63529 0.0
H2733 H 0.58769 0.09472 0.55426 0.0
H2734 H 0.6276 0.16092 0.60366 0.0
H2735 H 0.60711 0.14182 0.58276 0.0
C2736 C 0.74042 0.79413 0.799 0.0
C2737 C 0.7314 0.79024 0.82981 0.0
C2738 C 0.74301 0.78504 0.78016 0.0
C2739 C 0.72444 0.74979 0.76331 0.0
H2740 H 0.75525 0.75573 0.70208 0.0
C2741 C 0.7185 0.71242 0.6517 0.0
C2742 C 0.72832 0.7085 0.65144 0.0
C2743 C 0.72095 0.72395 0.66975 0.0
C2744 C 0.74659 0.75391 0.71917 0.0
H2745 H 0.71921 0.77441 0.86796 0.0
H2746 H 0.72443 0.75881 0.83713 0.0
H2747 H 0.75693 0.77252 0.74692 0.0
H2748 H 0.74876 0.71396 0.66728 0.0
H2749 H 0.75296 0.734 0.69996 0.0
H2750 H 0.71415 0.7312 0.73676 0.0
C2751 C 0.72906 0.76864 0.82615 0.0
C2752 C 0.74753 0.76355 0.74472 0.0
C2753 C 0.72622 0.77761 0.84427 0.0
C2754 C 0.74104 0.71683 0.66686 0.0
C2755 C 0.74343 0.7283 0.68565 0.0
C2756 C 0.72353 0.74021 0.73813 0.0
C2757 C 0.73673 0.77199 0.79229 0.0
C2758 C 0.73643 0.7616 0.76708 0.0
C2759 C 0.73317 0.73166 0.68884 0.0
C2760 C 0.7345 0.74217 0.71532 0.0
H2761 H 0.74436 0.80379 0.78702 0.0
H2762 H 0.74896 0.788 0.75425 0.0
H2763 H 0.71555 0.74798 0.77921 0.0
H2764 H 0.70864 0.70621 0.63973 0.0
H2765 H 0.71298 0.72647 0.67049 0.0
C2766 C 0.19954 0.05119 0.7708 0.0
C2767 C 0.20591 0.04774 0.79942 0.0
C2768 C 0.20591 0.06376 0.75534 0.0
C2769 C 0.22919 0.08402 0.70725 0.0
H2770 H 0.25152 0.11623 0.76127 0.0
C2771 C 0.28296 0.12081 0.66689 0.0
C2772 C 0.28739 0.13415 0.671 0.0
C2773 C 0.26976 0.1117 0.67576 0.0
C2774 C 0.24515 0.10741 0.74557 0.0
H2775 H 0.22322 0.05478 0.83659 0.0
H2776 H 0.23405 0.07684 0.81104 0.0
H2777 H 0.23346 0.098 0.79543 0.0
H2778 H 0.2814 0.1485 0.68577 0.0
H2779 H 0.2583 0.13246 0.70248 0.0
H2780 H 0.24159 0.09306 0.65826 0.0
C2781 C 0.22422 0.06993 0.80028 0.0
C2782 C 0.23486 0.09697 0.76517 0.0
C2783 C 0.21801 0.05732 0.81505 0.0
C2784 C 0.27817 0.13826 0.68188 0.0
C2785 C 0.26501 0.12911 0.69172 0.0
C2786 C 0.23961 0.09438 0.68784 0.0
C2787 C 0.21859 0.07307 0.76887 0.0
C2788 C 0.22709 0.08503 0.74654 0.0
C2789 C 0.26082 0.11574 0.68979 0.0
C2790 C 0.24798 0.10601 0.70718 0.0
H2791 H 0.19035 0.04386 0.75772 0.0
H2792 H 0.20136 0.06594 0.73115 0.0
H2793 H 0.22347 0.07489 0.69223 0.0
H2794 H 0.28992 0.11741 0.6588 0.0
H2795 H 0.26686 0.10147 0.67435 0.0
C2796 C 0.94769 0.25341 0.79473 0.0
C2797 C 0.9522 0.26442 0.81833 0.0
C2798 C 0.93559 0.24881 0.77462 0.0
C2799 C 0.90433 0.25051 0.76424 0.0
H2800 H 0.91351 0.25735 0.65649 0.0
C2801 C 0.86848 0.25372 0.65277 0.0
C2802 C 0.87418 0.26663 0.63984 0.0
C2803 C 0.87648 0.24925 0.67069 0.0
C2804 C 0.91071 0.25512 0.68632 0.0
H2805 H 0.94721 0.27851 0.84237 0.0
H2806 H 0.92579 0.27009 0.80883 0.0
H2807 H 0.92937 0.25601 0.70121 0.0
H2808 H 0.89272 0.28465 0.63271 0.0
H2809 H 0.90678 0.27665 0.66236 0.0
H2810 H 0.8859 0.25021 0.74954 0.0
C2811 C 0.93161 0.26511 0.80539 0.0
C2812 C 0.91972 0.25428 0.71185 0.0
C2813 C 0.94385 0.26992 0.82461 0.0
C2814 C 0.88811 0.27464 0.64226 0.0
C2815 C 0.89614 0.27006 0.65917 0.0
C2816 C 0.89518 0.25106 0.73854 0.0
C2817 C 0.92771 0.25495 0.77878 0.0
C2818 C 0.91683 0.25248 0.75125 0.0
C2819 C 0.89033 0.2575 0.67483 0.0
C2820 C 0.89853 0.25387 0.69965 0.0
H2821 H 0.95408 0.24915 0.78897 0.0
H2822 H 0.93278 0.24098 0.75415 0.0
H2823 H 0.90192 0.24919 0.79451 0.0
H2824 H 0.85773 0.24741 0.65167 0.0
H2825 H 0.8718 0.23954 0.68269 0.0
C2826 C 0.2884 0.26583 0.17297 0.0
C2827 C 0.29085 0.25545 0.181 0.0
C2828 C 0.27712 0.26601 0.18815 0.0
C2829 C 0.25878 0.26852 0.2462 0.0
H2830 H 0.22469 0.2373 0.26052 0.0
C2831 C 0.21722 0.26993 0.33537 0.0
C2832 C 0.20426 0.26349 0.31949 0.0
C2833 C 0.22738 0.26768 0.32103 0.0
C2834 C 0.23412 0.24613 0.2566 0.0
H2835 H 0.28292 0.23677 0.20975 0.0
H2836 H 0.26358 0.23725 0.23661 0.0
H2837 H 0.24256 0.23612 0.22559 0.0
H2838 H 0.19164 0.24894 0.27784 0.0
H2839 H 0.20932 0.24525 0.25255 0.0
H2840 H 0.25022 0.27863 0.27587 0.0
C2841 C 0.27023 0.24519 0.21828 0.0
C2842 C 0.24442 0.24544 0.23684 0.0
C2843 C 0.28141 0.24497 0.20295 0.0
C2844 C 0.2015 0.25411 0.2908 0.0
C2845 C 0.21166 0.25195 0.27628 0.0
C2846 C 0.24846 0.26923 0.26568 0.0
C2847 C 0.26809 0.25585 0.21183 0.0
C2848 C 0.2569 0.25662 0.23141 0.0
C2849 C 0.22484 0.25902 0.29034 0.0
C2850 C 0.23599 0.25805 0.2712 0.0
H2851 H 0.29539 0.27402 0.15599 0.0
H2852 H 0.27563 0.27424 0.18186 0.0
H2853 H 0.26831 0.2773 0.24317 0.0
H2854 H 0.2197 0.27713 0.35774 0.0
H2855 H 0.23733 0.27304 0.33326 0.0
C2856 C 0.73972 0.04423 0.32308 0.0
C2857 C 0.72791 0.04063 0.34392 0.0
C2858 C 0.74695 0.05682 0.30814 0.0
C2859 C 0.75046 0.08978 0.30644 0.0
H2860 H 0.74557 0.0847 0.19642 0.0
C2861 C 0.7535 0.1299 0.20492 0.0
C2862 C 0.74065 0.12581 0.18966 0.0
C2863 C 0.75675 0.12083 0.22077 0.0
C2864 C 0.7473 0.08634 0.22697 0.0
H2865 H 0.71509 0.04746 0.36887 0.0
H2866 H 0.72804 0.06958 0.34458 0.0
H2867 H 0.74381 0.067 0.23708 0.0
H2868 H 0.72154 0.1091 0.17612 0.0
H2869 H 0.72742 0.09322 0.20216 0.0
H2870 H 0.75322 0.10892 0.29638 0.0
C2871 C 0.7317 0.06275 0.33937 0.0
C2872 C 0.74638 0.07627 0.25023 0.0
C2873 C 0.7243 0.05011 0.35342 0.0
C2874 C 0.73152 0.11248 0.18754 0.0
C2875 C 0.7349 0.10341 0.20239 0.0
C2876 C 0.75165 0.09996 0.28306 0.0
C2877 C 0.7426 0.06599 0.3147 0.0
C2878 C 0.74737 0.0777 0.29031 0.0
C2879 C 0.74733 0.10754 0.22049 0.0
C2880 C 0.7495 0.09811 0.24333 0.0
H2881 H 0.74251 0.03699 0.31475 0.0
H2882 H 0.75531 0.05909 0.28914 0.0
H2883 H 0.75118 0.0911 0.33726 0.0
H2884 H 0.76065 0.14015 0.20733 0.0
H2885 H 0.76638 0.12422 0.23468 0.0
C2886 C 0.95525 0.81155 0.27757 0.0
C2887 C 0.96256 0.8099 0.30755 0.0
C2888 C 0.94357 0.801 0.26354 0.0
C2889 C 0.9161 0.7782 0.24768 0.0
H2890 H 0.91594 0.7452 0.24138 0.0
C2891 C 0.86865 0.73047 0.20971 0.0
C2892 C 0.86987 0.72072 0.18953 0.0
C2893 C 0.87999 0.74182 0.22124 0.0
C2894 C 0.91589 0.75438 0.24238 0.0
H2895 H 0.96278 0.79595 0.34789 0.0
H2896 H 0.94217 0.77765 0.32423 0.0
H2897 H 0.93517 0.76392 0.26913 0.0
H2898 H 0.88408 0.71569 0.16385 0.0
H2899 H 0.90394 0.73573 0.1832 0.0
H2900 H 0.89701 0.76877 0.21981 0.0
C2901 C 0.94572 0.78704 0.31073 0.0
C2902 C 0.92683 0.76508 0.259 0.0
C2903 C 0.95747 0.79758 0.32459 0.0
C2904 C 0.88276 0.72295 0.17947 0.0
C2905 C 0.89414 0.73439 0.19092 0.0
C2906 C 0.90521 0.76753 0.2308 0.0
C2907 C 0.93881 0.78854 0.27935 0.0
C2908 C 0.92705 0.77711 0.26211 0.0
C2909 C 0.8929 0.74384 0.21267 0.0
C2910 C 0.90491 0.75545 0.22819 0.0
H2911 H 0.95885 0.82088 0.2636 0.0
H2912 H 0.93861 0.80254 0.23917 0.0
H2913 H 0.91585 0.78727 0.24979 0.0
H2914 H 0.85891 0.72917 0.2179 0.0
H2915 H 0.87859 0.74878 0.23827 0.0
C2916 C 0.35035 0.12572 0.06533 0.0
C2917 C 0.35995 0.13707 0.08344 0.0
C2918 C 0.3448 0.12652 0.03032 0.0
C2919 C 0.34545 0.13376 0.94379 0.0
H2920 H 0.32908 0.15583 0.93305 0.0
C2921 C 0.32979 0.14271 0.79539 0.0
C2922 C 0.33143 0.1551 0.78814 0.0
C2923 C 0.33086 0.13903 0.83264 0.0
C2924 C 0.33379 0.14978 0.93528 0.0
H2925 H 0.37192 0.15798 0.07914 0.0
H2926 H 0.36188 0.15944 0.01853 0.0
H2927 H 0.33589 0.15234 0.99619 0.0
H2928 H 0.33459 0.17313 0.81341 0.0
H2929 H 0.3376 0.16727 0.87828 0.0
H2930 H 0.34445 0.13191 0.8831 0.0
C2931 C 0.3585 0.14999 0.03151 0.0
C2932 C 0.33749 0.14764 0.97159 0.0
C2933 C 0.36423 0.14916 0.06593 0.0
C2934 C 0.33356 0.16361 0.81861 0.0
C2935 C 0.33507 0.16011 0.85581 0.0
C2936 C 0.34207 0.13614 0.90737 0.0
C2937 C 0.34879 0.13869 0.01344 0.0
C2938 C 0.34346 0.13973 0.97597 0.0
C2939 C 0.33387 0.1478 0.86333 0.0
C2940 C 0.33639 0.14437 0.90247 0.0
H2941 H 0.3473 0.11628 0.07799 0.0
H2942 H 0.33741 0.11769 0.01648 0.0
H2943 H 0.35022 0.12775 0.94662 0.0
H2944 H 0.32768 0.13586 0.77217 0.0
H2945 H 0.32939 0.12932 0.83714 0.0
C2946 C 0.83862 0.31721 0.017 0.0
C2947 C 0.85112 0.32602 0.03231 0.0
C2948 C 0.83756 0.31343 0.97873 0.0
C2949 C 0.85419 0.32322 0.88543 0.0
H2950 H 0.83545 0.28626 0.86374 0.0
C2951 C 0.85763 0.30291 0.73865 0.0
C2952 C 0.84611 0.29214 0.72455 0.0
C2953 C 0.85784 0.3073 0.77588 0.0
C2954 C 0.84052 0.29662 0.86913 0.0
H2955 H 0.87204 0.33888 0.0198 0.0
H2956 H 0.87028 0.33222 0.95254 0.0
H2957 H 0.83623 0.2938 0.92908 0.0
H2958 H 0.82606 0.27703 0.7379 0.0
H2959 H 0.8261 0.285 0.80265 0.0
H2960 H 0.85834 0.32609 0.82551 0.0
C2961 C 0.86135 0.32803 0.97016 0.0
C2962 C 0.84103 0.30092 0.90661 0.0
C2963 C 0.86241 0.33169 0.00857 0.0
C2964 C 0.83494 0.28552 0.74829 0.0
C2965 C 0.83504 0.29003 0.78534 0.0
C2966 C 0.85356 0.31893 0.84783 0.0
C2967 C 0.84895 0.31871 0.9551 0.0
C2968 C 0.84797 0.31424 0.91513 0.0
C2969 C 0.84651 0.30096 0.79959 0.0
C2970 C 0.84679 0.30557 0.83929 0.0
H2971 H 0.82974 0.31306 0.03486 0.0
H2972 H 0.82785 0.3064 0.96758 0.0
H2973 H 0.85946 0.33356 0.89124 0.0
H2974 H 0.86651 0.30783 0.72098 0.0
H2975 H 0.86696 0.31553 0.78619 0.0
C2976 C 0.67442 0.62245 0.0213 0.0
C2977 C 0.66575 0.62624 0.0383 0.0
C2978 C 0.67818 0.6255 0.98311 0.0
C2979 C 0.67883 0.64742 0.90556 0.0
H2980 H 0.68888 0.62601 0.84409 0.0
C2981 C 0.71188 0.65361 0.76341 0.0
C2982 C 0.70523 0.65719 0.73621 0.0
C2983 C 0.70607 0.64904 0.79924 0.0
C2984 C 0.68613 0.63207 0.86108 0.0
H2985 H 0.65299 0.63485 0.02879 0.0
H2986 H 0.65902 0.63974 0.96132 0.0
H2987 H 0.67955 0.61872 0.90782 0.0
H2988 H 0.68807 0.65995 0.72521 0.0
H2989 H 0.67796 0.65213 0.78831 0.0
H2990 H 0.68519 0.6606 0.85813 0.0
C2991 C 0.6636 0.6351 0.97773 0.0
C2992 C 0.68086 0.62797 0.89765 0.0
C2993 C 0.66011 0.63231 0.01625 0.0
C2994 C 0.69311 0.65684 0.74567 0.0
C2995 C 0.68742 0.65249 0.78165 0.0
C2996 C 0.68392 0.65142 0.86879 0.0
C2997 C 0.67287 0.63193 0.96083 0.0
C2998 C 0.67739 0.63572 0.92069 0.0
C2999 C 0.6938 0.64845 0.80854 0.0
C3000 C 0.6878 0.64387 0.84656 0.0
H3001 H 0.67862 0.61748 0.03794 0.0
H3002 H 0.6855 0.62308 0.97147 0.0
H3003 H 0.67637 0.65371 0.92233 0.0
H3004 H 0.72141 0.65414 0.7567 0.0
H3005 H 0.71124 0.64614 0.81986 0.0
C3006 C 0.00519 0.31091 0.72365 0.0
C3007 C 0.00607 0.30013 0.73712 0.0
C3008 C 0.01119 0.3167 0.68893 0.0
C3009 C 0.0202 0.32487 0.60756 0.0
H3010 H 0.04945 0.3196 0.57244 0.0
C3011 C 0.03838 0.33494 0.45209 0.0
C3012 C 0.05095 0.33639 0.4427 0.0
C3013 C 0.03395 0.33272 0.4899 0.0
C3014 C 0.04155 0.32154 0.58197 0.0
H3015 H 0.01206 0.28575 0.7234 0.0
H3016 H 0.02182 0.29523 0.66193 0.0
H3017 H 0.03988 0.31175 0.63458 0.0
H3018 H 0.06969 0.33878 0.46517 0.0
H3019 H 0.06237 0.33561 0.53182 0.0
H3020 H 0.0227 0.3357 0.55646 0.0
C3021 C 0.01756 0.3 0.67906 0.0
C3022 C 0.03575 0.31664 0.61748 0.0
C3023 C 0.01184 0.29444 0.71407 0.0
C3024 C 0.05969 0.33707 0.47189 0.0
C3025 C 0.05541 0.33514 0.50996 0.0
C3026 C 0.02638 0.33023 0.5727 0.0
C3027 C 0.01772 0.31147 0.66649 0.0
C3028 C 0.02467 0.31782 0.63023 0.0
C3029 C 0.04226 0.33241 0.51934 0.0
C3030 C 0.03688 0.3283 0.55879 0.0
H3031 H 1.00011 0.31499 0.74032 0.0
H3032 H 0.01102 0.32546 0.68051 0.0
H3033 H 0.01169 0.32599 0.61601 0.0
H3034 H 0.03178 0.33512 0.42997 0.0
H3035 H 0.02377 0.33065 0.49538 0.0
C3036 C 0.68305 0.79596 0.7406 0.0
C3037 C 0.69332 0.80797 0.75357 0.0
C3038 C 0.67653 0.79523 0.706 0.0
C3039 C 0.6775 0.8008 0.61555 0.0
H3040 H 0.65547 0.81736 0.6023 0.0
C3041 C 0.6598 0.80603 0.46574 0.0
C3042 C 0.65986 0.81775 0.45818 0.0
C3043 C 0.66125 0.80276 0.50318 0.0
C3044 C 0.6617 0.8128 0.60533 0.0
H3045 H 0.70532 0.82844 0.74084 0.0
H3046 H 0.69356 0.82725 0.68075 0.0
H3047 H 0.66315 0.81562 0.66615 0.0
H3048 H 0.66059 0.83491 0.48299 0.0
H3049 H 0.66413 0.8298 0.54827 0.0
H3050 H 0.67695 0.79866 0.5549 0.0
C3051 C 0.6905 0.81849 0.69745 0.0
C3052 C 0.66593 0.81168 0.64197 0.0
C3053 C 0.69719 0.81917 0.73152 0.0
C3054 C 0.66079 0.82593 0.48845 0.0
C3055 C 0.6626 0.82286 0.52583 0.0
C3056 C 0.67349 0.80211 0.5788 0.0
C3057 C 0.68021 0.80652 0.68447 0.0
C3058 C 0.67404 0.80589 0.64711 0.0
C3059 C 0.66296 0.81126 0.53368 0.0
C3060 C 0.66583 0.80845 0.57308 0.0
H3061 H 0.68025 0.78718 0.75691 0.0
H3062 H 0.6687 0.78591 0.69599 0.0
H3063 H 0.68389 0.7964 0.61912 0.0
H3064 H 0.65862 0.79939 0.44264 0.0
H3065 H 0.66109 0.79359 0.50806 0.0
C3066 C 0.18653 0.98921 0.69137 0.0
C3067 C 0.19887 0.99864 0.70606 0.0
C3068 C 0.18588 0.98385 0.65541 0.0
C3069 C 0.202 0.99034 0.56294 0.0
H3070 H 0.182 0.95287 0.55135 0.0
C3071 C 0.19607 0.96567 0.4165 0.0
C3072 C 0.18343 0.95516 0.4083 0.0
C3073 C 0.19905 0.97085 0.45336 0.0
C3074 C 0.18749 0.96335 0.55402 0.0
H3075 H 0.21997 0.01088 0.69424 0.0
H3076 H 0.21886 0.00147 0.63045 0.0
H3077 H 0.18537 0.96247 0.61502 0.0
H3078 H 0.16423 0.94125 0.43157 0.0
H3079 H 0.16911 0.95065 0.49596 0.0
H3080 H 0.20378 0.99133 0.50202 0.0
C3081 C 0.20979 0.99798 0.64728 0.0
C3082 C 0.1895 0.96882 0.59046 0.0
C3083 C 0.21047 0.00325 0.68366 0.0
C3084 C 0.17394 0.94954 0.43747 0.0
C3085 C 0.17683 0.95484 0.47427 0.0
C3086 C 0.1999 0.98488 0.52641 0.0
C3087 C 0.19751 0.98812 0.6332 0.0
C3088 C 0.19658 0.98236 0.59511 0.0
C3089 C 0.18942 0.96557 0.4826 0.0
C3090 C 0.19241 0.97133 0.5215 0.0
H3091 H 0.17743 0.98589 0.70799 0.0
H3092 H 0.17625 0.97647 0.64474 0.0
H3093 H 0.20741 0.00082 0.56588 0.0
H3094 H 0.20366 0.96982 0.39441 0.0
H3095 H 0.20893 0.97892 0.45894 0.0
C3096 C 0.68975 0.99989 0.20295 0.0
C3097 C 0.69496 0.99474 0.23008 0.0
C3098 C 0.68865 0.99608 0.16452 0.0
C3099 C 0.67961 0.97992 0.0916 0.0
H3100 H 0.70594 0.97179 0.04754 0.0
C3101 C 0.67627 0.961 0.93667 0.0
C3102 C 0.67601 0.94892 0.93524 0.0
C3103 C 0.68001 0.96835 0.97031 0.0
C3104 C 0.69856 0.97407 0.05951 0.0
H3105 H 0.70396 0.98243 0.23887 0.0
H3106 H 0.70148 0.97526 0.17253 0.0
H3107 H 0.70999 0.98201 0.11055 0.0
H3108 H 0.68 0.93534 0.96733 0.0
H3109 H 0.6869 0.94842 0.02581 0.0
H3110 H 0.66826 0.97202 0.0401 0.0
C3111 C 0.69835 0.9823 0.18024 0.0
C3112 C 0.7008 0.97984 0.09563 0.0
C3113 C 0.69959 0.98623 0.21833 0.0
C3114 C 0.68009 0.9446 0.96758 0.0
C3115 C 0.68408 0.95208 0.00095 0.0
C3116 C 0.67747 0.97433 0.05516 0.0
C3117 C 0.69285 0.98716 0.15281 0.0
C3118 C 0.69119 0.98251 0.11257 0.0
C3119 C 0.68381 0.96389 0.00279 0.0
C3120 C 0.68679 0.9711 0.03927 0.0
H3121 H 0.68663 0.0069 0.21143 0.0
H3122 H 0.68458 1.00018 0.14402 0.0
H3123 H 0.67193 0.9817 0.1039 0.0
H3124 H 0.67309 0.96454 0.91229 0.0
H3125 H 0.67978 0.97746 0.97114 0.0
C3126 C 0.01082 0.83415 0.18931 0.0
C3127 C 0.01183 0.82875 0.22432 0.0
C3128 C 0.01689 0.83275 0.15641 0.0
C3129 C 0.03926 0.83709 0.1026 0.0
H3130 H 0.03612 0.80456 0.06633 0.0
C3131 C 0.06773 0.83574 0.9691 0.0
C3132 C 0.05994 0.82617 0.94229 0.0
C3133 C 0.06294 0.83519 0.00624 0.0
C3134 C 0.03709 0.81371 0.07616 0.0
H3135 H 0.01946 0.81703 0.25161 0.0
H3136 H 0.03007 0.81454 0.19355 0.0
H3137 H 0.0248 0.80493 0.12558 0.0
H3138 H 0.04194 0.8078 0.93368 0.0
H3139 H 0.03332 0.80694 -0.00166 0.0
H3140 H 0.05127 0.84588 0.05325 0.0
C3141 C 0.02457 0.81989 0.19196 0.0
C3142 C 0.03069 0.81393 0.11015 0.0
C3143 C 0.0185 0.82133 0.22514 0.0
C3144 C 0.04783 0.81553 0.95373 0.0
C3145 C 0.04303 0.81494 0.99087 0.0
C3146 C 0.0457 0.83689 0.06892 0.0
C3147 C 0.02409 0.82589 0.15758 0.0
C3148 C 0.03153 0.82559 0.12323 0.0
C3149 C 0.05039 0.82494 0.01725 0.0
C3150 C 0.04452 0.82518 0.05495 0.0
H3151 H 0.00563 0.83979 0.18738 0.0
H3152 H 0.01612 0.83723 0.13007 0.0
H3153 H 0.04023 0.84625 0.11236 0.0
H3154 H 0.07732 0.84381 0.96098 0.0
H3155 H 0.06898 0.8429 0.02617 0.0
C3156 C 0.19256 0.30984 0.23278 0.0
C3157 C 0.1919 0.29763 0.23428 0.0
C3158 C 0.19381 0.31596 0.19749 0.0
C3159 C 0.1988 0.32865 0.11925 0.0
H3160 H 0.17763 0.30429 0.03957 0.0
C3161 C 0.18227 0.32833 0.9515 0.0
C3162 C 0.17634 0.33638 0.95391 0.0
C3163 C 0.18653 0.32471 0.98458 0.0
C3164 C 0.18373 0.31121 0.06134 0.0
H3165 H 0.19321 0.28271 0.20127 0.0
H3166 H 0.19625 0.2937 0.13992 0.0
H3167 H 0.18143 0.29617 0.09956 0.0
H3168 H 0.17064 0.34728 0.99283 0.0
H3169 H 0.17821 0.34099 0.05062 0.0
H3170 H 0.20032 0.34364 0.08115 0.0
C3171 C 0.19519 0.29835 0.16549 0.0
C3172 C 0.18601 0.30658 0.09574 0.0
C3173 C 0.1936 0.2921 0.2006 0.0
C3174 C 0.17509 0.341 0.99003 0.0
C3175 C 0.17952 0.33751 0.02306 0.0
C3176 C 0.19633 0.33327 0.08492 0.0
C3177 C 0.19466 0.31004 0.16324 0.0
C3178 C 0.19347 0.31522 0.12535 0.0
C3179 C 0.18513 0.32921 0.02064 0.0
C3180 C 0.18866 0.32456 0.05587 0.0
H3181 H 0.1911 0.31419 0.25847 0.0
H3182 H 0.19324 0.32488 0.19698 0.0
H3183 H 0.20475 0.3356 0.14113 0.0
H3184 H 0.18339 0.32461 0.92413 0.0
H3185 H 0.19086 0.31832 0.98203 0.0
C3186 C 0.84332 0.61983 0.52106 0.0
C3187 C 0.84909 0.62614 0.55581 0.0
C3188 C 0.84593 0.62683 0.48705 0.0
C3189 C 0.85514 0.6594 0.45242 0.0
H3190 H 0.85543 0.644 0.35434 0.0
C3191 C 0.85494 0.66959 0.27859 0.0
C3192 C 0.84533 0.67386 0.27837 0.0
C3193 C 0.85805 0.66532 0.31256 0.0
C3194 C 0.8556 0.64859 0.38141 0.0
H3195 H 0.86264 0.64474 0.58162 0.0
H3196 H 0.86731 0.65701 0.52177 0.0
H3197 H 0.85719 0.63385 0.41322 0.0
H3198 H 0.83153 0.67701 0.31387 0.0
H3199 H 0.83669 0.66926 0.37265 0.0
H3200 H 0.85354 0.67414 0.42059 0.0
C3201 C 0.86062 0.64662 0.52117 0.0
C3202 C 0.85646 0.64268 0.41521 0.0
C3203 C 0.85801 0.63958 0.55539 0.0
C3204 C 0.83901 0.67385 0.31296 0.0
C3205 C 0.84206 0.6695 0.34682 0.0
C3206 C 0.85436 0.66536 0.41859 0.0
C3207 C 0.85442 0.64033 0.48675 0.0
C3208 C 0.85582 0.64779 0.45111 0.0
C3209 C 0.85158 0.66514 0.34703 0.0
C3210 C 0.85417 0.65981 0.38272 0.0
H3211 H 0.83644 0.60948 0.52015 0.0
H3212 H 0.84082 0.62169 0.46124 0.0
H3213 H 0.85455 0.66357 0.47957 0.0
H3214 H 0.8601 0.66959 0.25255 0.0
H3215 H 0.86555 0.66218 0.3118 0.0
C3216 C 0.37386 0.32147 0.53697 0.0
C3217 C 0.36689 0.32766 0.55091 0.0
C3218 C 0.37127 0.31613 0.50031 0.0
C3219 C 0.35707 0.29782 0.43574 0.0
H3220 H 0.35019 0.31381 0.3476 0.0
C3221 C 0.3352 0.26956 0.29611 0.0
C3222 C 0.33995 0.27615 0.26117 0.0
C3223 C 0.33886 0.27631 0.33075 0.0
C3224 C 0.35223 0.30928 0.37186 0.0
H3225 H 0.353 0.33463 0.53665 0.0
H3226 H 0.34801 0.32487 0.47242 0.0
H3227 H 0.35645 0.3254 0.40865 0.0
H3228 H 0.35251 0.29501 0.23535 0.0
H3229 H 0.35919 0.30675 0.29601 0.0
H3230 H 0.35326 0.28189 0.39898 0.0
C3231 C 0.35538 0.32398 0.48992 0.0
C3232 C 0.35564 0.31585 0.40695 0.0
C3233 C 0.35802 0.32936 0.52678 0.0
C3234 C 0.34862 0.28964 0.26174 0.0
C3235 C 0.35237 0.29639 0.29649 0.0
C3236 C 0.35377 0.29131 0.40071 0.0
C3237 C 0.36174 0.31702 0.4767 0.0
C3238 C 0.35812 0.31019 0.43925 0.0
C3239 C 0.34747 0.28981 0.33137 0.0
C3240 C 0.35126 0.29693 0.36837 0.0
H3241 H 0.38114 0.32052 0.55481 0.0
H3242 H 0.37667 0.31122 0.49058 0.0
H3243 H 0.35867 0.29306 0.4602 0.0
H3244 H 0.32842 0.25919 0.29678 0.0
H3245 H 0.33471 0.27096 0.35703 0.0
C3246 C 0.67828 0.15698 0.56374 0.0
C3247 C 0.67304 0.16563 0.56368 0.0
C3248 C 0.68259 0.15399 0.52956 0.0
C3249 C 0.68614 0.14574 0.44847 0.0
H3250 H 0.70771 0.17615 0.38632 0.0
C3251 C 0.70376 0.14351 0.29425 0.0
C3252 C 0.71623 0.15366 0.28291 0.0
C3253 C 0.69862 0.14377 0.33037 0.0
C3254 C 0.7018 0.16756 0.40341 0.0
H3255 H 0.66731 0.17716 0.52732 0.0
H3256 H 0.67472 0.17185 0.46804 0.0
H3257 H 0.69755 0.17842 0.44481 0.0
H3258 H 0.73389 0.17115 0.30109 0.0
H3259 H 0.72499 0.17168 0.36436 0.0
H3260 H 0.69056 0.13491 0.40694 0.0
C3261 C 0.67577 0.16761 0.49454 0.0
C3262 C 0.69584 0.16884 0.4367 0.0
C3263 C 0.67149 0.17061 0.52854 0.0
C3264 C 0.72402 0.16349 0.30902 0.0
C3265 C 0.71891 0.16378 0.34505 0.0
C3266 C 0.69207 0.14443 0.41486 0.0
C3267 C 0.68173 0.15959 0.49485 0.0
C3268 C 0.6879 0.15796 0.45948 0.0
C3269 C 0.70599 0.15412 0.35572 0.0
C3270 C 0.69996 0.15535 0.392 0.0
H3271 H 0.6796 0.15296 0.59031 0.0
H3272 H 0.68719 0.1478 0.53058 0.0
H3273 H 0.68005 0.13719 0.46555 0.0
H3274 H 0.69788 0.13555 0.27488 0.0
H3275 H 0.68865 0.13618 0.33772 0.0
C3276 C 0.99955 0.502 0.13925 0.0
C3277 C 0.9975 0.49285 0.11078 0.0
C3278 C 0.00234 0.49992 0.17681 0.0
C3279 C 0.01271 0.47912 0.23253 0.0
H3280 H 0.00264 0.49315 0.31925 0.0
C3281 C 0.01608 0.46648 0.39118 0.0
C3282 C 0.02542 0.47745 0.41134 0.0
C3283 C 0.01149 0.46794 0.35535 0.0
C3284 C 0.00538 0.48911 0.29517 0.0
H3285 H 0.99543 0.47391 0.09884 0.0
H3286 H 0.99947 0.46983 0.16444 0.0
H3287 H 0.99654 0.4963 0.25458 0.0
H3288 H 0.03781 0.49836 0.41023 0.0
H3289 H 0.02937 0.50098 0.34794 0.0
H3290 H 0.02113 0.47157 0.27369 0.0
C3291 C 0.99984 0.479 0.15797 0.0
C3292 C 0.00207 0.49105 0.25811 0.0
C3293 C 0.99744 0.48127 0.12041 0.0
C3294 C 0.03031 0.48985 0.39531 0.0
C3295 C 0.02551 0.49134 0.35998 0.0
C3296 C 0.0157 0.47692 0.26959 0.0
C3297 C 0.00257 0.48839 0.18661 0.0
C3298 C 0.0058 0.48616 0.22624 0.0
C3299 C 0.01618 0.48039 0.3397 0.0
C3300 C 0.01213 0.48197 0.30103 0.0
H3301 H 0.99937 0.51089 0.13221 0.0
H3302 H 0.00456 0.50746 0.19785 0.0
H3303 H 0.01606 0.47546 0.20888 0.0
H3304 H 0.01256 0.45682 0.40277 0.0
H3305 H 0.00438 0.4594 0.33976 0.0
C3306 C 0.51399 0.63207 0.08196 0.0
C3307 C 0.50203 0.62078 0.07319 0.0
C3308 C 0.51577 0.63783 0.11787 0.0
C3309 C 0.51892 0.64025 0.20525 0.0
H3310 H 0.49313 0.64951 0.24676 0.0
C3311 C 0.5271 0.66466 0.35278 0.0
C3312 C 0.51571 0.66059 0.37572 0.0
C3313 C 0.52572 0.66101 0.31427 0.0
C3314 C 0.50034 0.64682 0.23585 0.0
H3315 H 0.48278 0.60622 0.09465 0.0
H3316 H 0.48572 0.61657 0.1578 0.0
H3317 H 0.4898 0.64022 0.18249 0.0
H3318 H 0.49405 0.65042 0.37699 0.0
H3319 H 0.49154 0.64328 0.31049 0.0
H3320 H 0.52926 0.64633 0.25855 0.0
C3321 C 0.49361 0.62101 0.13666 0.0
C3322 C 0.49844 0.64158 0.19904 0.0
C3323 C 0.49194 0.6151 0.10087 0.0
C3324 C 0.50294 0.65335 0.35966 0.0
C3325 C 0.50154 0.64946 0.32148 0.0
C3326 C 0.52072 0.64529 0.24223 0.0
C3327 C 0.50558 0.63236 0.14537 0.0
C3328 C 0.50769 0.63821 0.18368 0.0
C3329 C 0.51292 0.65319 0.29831 0.0
C3330 C 0.5114 0.64854 0.25814 0.0
H3331 H 0.52202 0.63635 0.06113 0.0
H3332 H 0.52507 0.64657 0.12416 0.0
H3333 H 0.52613 0.63762 0.19386 0.0
H3334 H 0.53702 0.67071 0.36458 0.0
H3335 H 0.53469 0.66434 0.2971 0.0
C3336 C 0.33192 0.96559 0.35396 0.0
C3337 C 0.33738 0.95915 0.37505 0.0
C3338 C 0.33541 0.96869 0.31557 0.0
C3339 C 0.35292 0.96238 0.23414 0.0
H3340 H 0.35703 0.99528 0.19781 0.0
C3341 C 0.36526 0.99261 0.08458 0.0
C3342 C 0.37724 0.9928 0.07436 0.0
C3343 C 0.35966 0.98813 0.1206 0.0
C3344 C 0.35584 0.98603 0.20757 0.0
H3345 H 0.34992 0.95006 0.37306 0.0
H3346 H 0.3569 0.95626 0.30697 0.0
H3347 H 0.34798 0.98766 0.26133 0.0
H3348 H 0.39331 0.98938 0.09364 0.0
H3349 H 0.38331 0.98118 0.15682 0.0
H3350 H 0.3613 0.96114 0.18045 0.0
C3351 C 0.34966 0.95869 0.31914 0.0
C3352 C 0.35061 0.9816 0.24398 0.0
C3353 C 0.34586 0.95529 0.35717 0.0
C3354 C 0.38388 0.98899 0.10094 0.0
C3355 C 0.37817 0.9843 0.13678 0.0
C3356 C 0.35836 0.96693 0.19798 0.0
C3357 C 0.34456 0.96553 0.29785 0.0
C3358 C 0.34923 0.96979 0.258 0.0
C3359 C 0.36598 0.98379 0.14677 0.0
C3360 C 0.35994 0.97883 0.18456 0.0
H3361 H 0.32495 0.9682 0.36718 0.0
H3362 H 0.33094 0.9736 0.29996 0.0
H3363 H 0.35166 0.95306 0.2433 0.0
H3364 H 0.36023 0.9959 0.06464 0.0
H3365 H 0.35026 0.98783 0.12774 0.0
C3366 C 0.52327 0.95747 0.87594 0.0
C3367 C 0.5233 0.96394 0.90977 0.0
C3368 C 0.52531 0.96366 0.84053 0.0
C3369 C 0.51863 0.9742 0.77049 0.0
H3370 H 0.53866 0.01153 0.75633 0.0
C3371 C 0.51511 0.01349 0.6673 0.0
C3372 C 0.5159 0.00898 0.63059 0.0
C3373 C 0.51829 0.0086 0.69978 0.0
C3374 C 0.53308 0.00109 0.75996 0.0
H3375 H 0.52594 0.98204 0.93355 0.0
H3376 H 0.52891 0.9927 0.87174 0.0
H3377 H 0.54112 0.00199 0.81599 0.0
H3378 H 0.52065 0.99581 0.59909 0.0
H3379 H 0.52582 0.98696 0.65625 0.0
H3380 H 0.51069 0.97336 0.71426 0.0
C3381 C 0.52775 0.98301 0.87233 0.0
C3382 C 0.53441 0.99561 0.79414 0.0
C3383 C 0.52601 0.9769 0.90784 0.0
C3384 C 0.51997 0.99949 0.62701 0.0
C3385 C 0.52291 0.99441 0.65961 0.0
C3386 C 0.5175 0.97966 0.73612 0.0
C3387 C 0.52706 0.97634 0.83811 0.0
C3388 C 0.52697 0.98211 0.8002 0.0
C3389 C 0.52209 0.99894 0.69622 0.0
C3390 C 0.52449 0.99315 0.7309 0.0
H3391 H 0.52134 0.9475 0.87678 0.0
H3392 H 0.52511 0.95834 0.81498 0.0
H3393 H 0.51251 0.96381 0.77422 0.0
H3394 H 0.5121 0.02087 0.67095 0.0
H3395 H 0.51745 0.01213 0.72778 0.0
C3396 C 0.98473 0.60104 0.64423 0.0
C3397 C 0.99301 0.60772 0.61312 0.0
C3398 C 0.9857 0.60748 0.67866 0.0
C3399 C 1.00017 0.64056 0.72218 0.0
H3400 H 0.99711 0.62163 0.8159 0.0
C3401 C 0.01922 0.65108 0.88778 0.0
C3402 C 0.01602 0.66073 0.89846 0.0
C3403 C 0.01463 0.6445 0.85326 0.0
C3404 C 0.99803 0.62707 0.78998 0.0
H3405 H 0.00887 0.62635 0.59366 0.0
H3406 H 0.01104 0.63746 0.65432 0.0
H3407 H 0.99297 0.61051 0.75485 0.0
H3408 H 0.00649 0.67193 0.88073 0.0
H3409 H 0.99802 0.66011 0.8199 0.0
H3410 H 0.00611 0.65735 0.7576 0.0
C3411 C 0.00346 0.62736 0.65182 0.0
C3412 C 0.99546 0.62064 0.7549 0.0
C3413 C 0.00232 0.62096 0.61715 0.0
C3414 C 0.00861 0.66415 0.87343 0.0
C3415 C 0.00396 0.65752 0.83858 0.0
C3416 C 0.00291 0.64705 0.75736 0.0
C3417 C 0.99515 0.62069 0.68303 0.0
C3418 C 0.99675 0.62735 0.72046 0.0
C3419 C 0.00684 0.64754 0.82836 0.0
C3420 C 0.0022 0.64043 0.79154 0.0
H3421 H 0.9773 0.59087 0.64177 0.0
H3422 H 0.97896 0.60208 0.70175 0.0
H3423 H 0.00096 0.64596 0.69629 0.0
H3424 H 0.02535 0.64865 0.90622 0.0
H3425 H 0.01742 0.63719 0.84578 0.0
C3426 C 0.38917 0.49759 0.65633 0.0
C3427 C 0.38155 0.48832 0.62861 0.0
C3428 C 0.38454 0.49617 0.694 0.0
C3429 C 0.36686 0.49631 0.75753 0.0
H3430 H 0.3457 0.46344 0.80969 0.0
C3431 C 0.32894 0.4909 0.87052 0.0
C3432 C 0.33057 0.48662 0.90678 0.0
C3433 C 0.33538 0.48944 0.83858 0.0
C3434 C 0.35166 0.47267 0.79546 0.0
H3435 H 0.36421 0.46954 0.61875 0.0
H3436 H 0.35579 0.4672 0.6842 0.0
H3437 H 0.35815 0.46423 0.7515 0.0
H3438 H 0.33942 0.47652 0.93727 0.0
H3439 H 0.35061 0.47382 0.88071 0.0
H3440 H 0.36017 0.50471 0.80079 0.0
C3441 C 0.36526 0.47562 0.67719 0.0
C3442 C 0.35872 0.47313 0.76215 0.0
C3443 C 0.36991 0.47706 0.63957 0.0
C3444 C 0.33797 0.47993 0.90976 0.0
C3445 C 0.34439 0.4784 0.8775 0.0
C3446 C 0.35972 0.49582 0.79038 0.0
C3447 C 0.3723 0.48537 0.70455 0.0
C3448 C 0.36619 0.48494 0.74242 0.0
C3449 C 0.34352 0.48359 0.84203 0.0
C3450 C 0.35185 0.48398 0.80917 0.0
H3451 H 0.39844 0.50613 0.64854 0.0
H3452 H 0.39038 0.5037 0.71462 0.0
H3453 H 0.37246 0.50556 0.74317 0.0
H3454 H 0.32316 0.49592 0.867 0.0
H3455 H 0.33436 0.49329 0.8113 0.0
loop_
_geom_bond_atom_site_label_1
_geom_bond_atom_site_label_2
_geom_bond_distance
_geom_bond_site_symmetry_2
_ccdc_geom_bond_type
Mn0 O5 2.095 . S
Mn0 O15 2.162 . S
Mn0 O16 2.297 . S
Mn0 O24 2.385 . S
Mn0 O25 2.209 . S
Mn0 O26 2.094 . S
Mn1 O6 2.121 . S
Mn1 N8 2.257 . S
Mn1 N17 2.282 . S
Mn1 O25 2.215 . S
Mn1 O27 2.117 . S
C2 O24 1.234 . S
C2 O25 1.283 . S
C3 O15 1.281 . S
C3 O16 1.236 . S
C4 O26 1.240 . S
C4 O27 1.264 . S
O5 Mn0 2.095 . S
O5 C14 1.250 . S
O6 Mn1 2.121 . S
O6 C14 1.258 . S
C7 N8 1.326 . S
C7 C11 1.460 . S
C7 H13 0.929 . S
N8 Mn1 2.257 . S
N8 C7 1.326 . S
N8 C12 1.362 . S
C9 C10 1.258 . S
C9 C12 1.431 . S
C9 C29 1.449 . S
C10 C9 1.258 . S
C10 C11 1.477 . S
C10 H30 0.931 . S
C11 C7 1.460 . S
C11 C10 1.477 . S
C11 H31 0.930 . S
C12 N8 1.362 . S
C12 C9 1.431 . S
C12 C22 1.476 . S
H13 C7 0.929 . S
C14 O5 1.250 . S
C14 O6 1.258 . S
O15 Mn0 2.162 . S
O15 C3 1.281 . S
O16 Mn0 2.297 . S
O16 C3 1.236 . S
N17 Mn1 2.282 . S
N17 C18 1.328 . S
N17 C22 1.318 . S
C18 N17 1.328 . S
C18 C19 1.457 . S
C18 H23 0.929 . S
C19 C18 1.457 . S
C19 C20 1.291 . S
C19 H32 0.931 . S
C20 C19 1.291 . S
C20 C21 1.373 . S
C20 H33 0.929 . S
C21 C20 1.373 . S
C21 C22 1.396 . S
C21 C28 1.403 . S
C22 C12 1.476 . S
C22 N17 1.318 . S
C22 C21 1.396 . S
H23 C18 0.929 . S
O24 Mn0 2.385 . S
O24 C2 1.234 . S
O25 Mn0 2.209 . S
O25 Mn1 2.215 . S
O25 C2 1.283 . S
O26 Mn0 2.094 . S
O26 C4 1.240 . S
O27 Mn1 2.117 . S
O27 C4 1.264 . S
C28 C21 1.403 . S
C28 C29 1.399 . S
C28 H34 0.929 . S
C29 C9 1.449 . S
C29 C28 1.399 . S
C29 H35 0.930 . S
H30 C10 0.931 . S
H31 C11 0.930 . S
H32 C19 0.931 . S
H33 C20 0.929 . S
H34 C28 0.929 . S
H35 C29 0.930 . S
Mn36 O41 2.095 . S
Mn36 O51 2.162 . S
Mn36 O52 2.297 . S
Mn36 O60 2.385 . S
Mn36 O61 2.209 . S
Mn36 O62 2.094 . S
Mn37 O42 2.121 . S
Mn37 N44 2.257 . S
Mn37 N53 2.282 . S
Mn37 O61 2.215 . S
Mn37 O63 2.117 . S
C38 O60 1.234 . S
C38 O61 1.283 . S
C39 O51 1.281 . S
C39 O52 1.236 . S
C40 O62 1.240 . S
C40 O63 1.264 . S
O41 Mn36 2.095 . S
O41 C50 1.250 . S
O42 Mn37 2.121 . S
O42 C50 1.258 . S
C43 N44 1.326 . S
C43 C47 1.460 . S
C43 H49 0.929 . S
N44 Mn37 2.257 . S
N44 C43 1.326 . S
N44 C48 1.362 . S
C45 C46 1.258 . S
C45 C48 1.431 . S
C45 C65 1.449 . S
C46 C45 1.258 . S
C46 C47 1.477 . S
C46 H66 0.931 . S
C47 C43 1.460 . S
C47 C46 1.477 . S
C47 H67 0.930 . S
C48 N44 1.362 . S
C48 C45 1.431 . S
C48 C58 1.476 . S
H49 C43 0.929 . S
C50 O41 1.250 . S
C50 O42 1.258 . S
O51 Mn36 2.162 . S
O51 C39 1.281 . S
O52 Mn36 2.297 . S
O52 C39 1.236 . S
N53 Mn37 2.282 . S
N53 C54 1.328 . S
N53 C58 1.318 . S
C54 N53 1.328 . S
C54 C55 1.457 . S
C54 H59 0.929 . S
C55 C54 1.457 . S
C55 C56 1.291 . S
C55 H68 0.931 . S
C56 C55 1.291 . S
C56 C57 1.373 . S
C56 H69 0.929 . S
C57 C56 1.373 . S
C57 C58 1.396 . S
C57 C64 1.403 . S
C58 C48 1.476 . S
C58 N53 1.318 . S
C58 C57 1.396 . S
H59 C54 0.929 . S
O60 Mn36 2.385 . S
O60 C38 1.234 . S
O61 Mn36 2.209 . S
O61 Mn37 2.215 . S
O61 C38 1.283 . S
O62 Mn36 2.094 . S
O62 C40 1.240 . S
O63 Mn37 2.117 . S
O63 C40 1.264 . S
C64 C57 1.403 . S
C64 C65 1.399 . S
C64 H70 0.929 . S
C65 C45 1.449 . S
C65 C64 1.399 . S
C65 H71 0.930 . S
H66 C46 0.931 . S
H67 C47 0.930 . S
H68 C55 0.931 . S
H69 C56 0.929 . S
H70 C64 0.929 . S
H71 C65 0.930 . S
Mn72 O77 2.095 . S
Mn72 O87 2.162 . S
Mn72 O88 2.297 . S
Mn72 O96 2.385 . S
Mn72 O97 2.209 . S
Mn72 O98 2.094 . S
Mn73 O78 2.121 . S
Mn73 N80 2.257 . S
Mn73 N89 2.282 . S
Mn73 O97 2.215 . S
Mn73 O99 2.117 . S
C74 O96 1.234 . S
C74 O97 1.283 . S
C75 O87 1.281 . S
C75 O88 1.236 . S
C76 O98 1.240 . S
C76 O99 1.264 . S
O77 Mn72 2.095 . S
O77 C86 1.250 . S
O78 Mn73 2.121 . S
O78 C86 1.258 . S
C79 N80 1.326 . S
C79 C83 1.460 . S
C79 H85 0.929 . S
N80 Mn73 2.257 . S
N80 C79 1.326 . S
N80 C84 1.362 . S
C81 C82 1.258 . S
C81 C84 1.431 . S
C81 C101 1.449 . S
C82 C81 1.258 . S
C82 C83 1.477 . S
C82 H102 0.931 . S
C83 C79 1.460 . S
C83 C82 1.477 . S
C83 H103 0.930 . S
C84 N80 1.362 . S
C84 C81 1.431 . S
C84 C94 1.476 . S
H85 C79 0.929 . S
C86 O77 1.250 . S
C86 O78 1.258 . S
O87 Mn72 2.162 . S
O87 C75 1.281 . S
O88 Mn72 2.297 . S
O88 C75 1.236 . S
N89 Mn73 2.282 . S
N89 C90 1.328 . S
N89 C94 1.318 . S
C90 N89 1.328 . S
C90 C91 1.457 . S
C90 H95 0.929 . S
C91 C90 1.457 . S
C91 C92 1.291 . S
C91 H104 0.931 . S
C92 C91 1.291 . S
C92 C93 1.373 . S
C92 H105 0.929 . S
C93 C92 1.373 . S
C93 C94 1.396 . S
C93 C100 1.403 . S
C94 C84 1.476 . S
C94 N89 1.318 . S
C94 C93 1.396 . S
H95 C90 0.929 . S
O96 Mn72 2.385 . S
O96 C74 1.234 . S
O97 Mn72 2.209 . S
O97 Mn73 2.215 . S
O97 C74 1.283 . S
O98 Mn72 2.094 . S
O98 C76 1.240 . S
O99 Mn73 2.117 . S
O99 C76 1.264 . S
C100 C93 1.403 . S
C100 C101 1.399 . S
C100 H106 0.929 . S
C101 C81 1.449 . S
C101 C100 1.399 . S
C101 H107 0.930 . S
H102 C82 0.931 . S
H103 C83 0.930 . S
H104 C91 0.931 . S
H105 C92 0.929 . S
H106 C100 0.929 . S
H107 C101 0.930 . S
Mn108 O113 2.095 . S
Mn108 O123 2.162 . S
Mn108 O124 2.297 . S
Mn108 O132 2.385 . S
Mn108 O133 2.209 . S
Mn108 O134 2.094 . S
Mn109 O114 2.121 . S
Mn109 N116 2.257 . S
Mn109 N125 2.282 . S
Mn109 O133 2.215 . S
Mn109 O135 2.117 . S
C110 O132 1.234 . S
C110 O133 1.283 . S
C111 O123 1.281 . S
C111 O124 1.236 . S
C112 O134 1.240 . S
C112 O135 1.264 . S
O113 Mn108 2.095 . S
O113 C122 1.250 . S
O114 Mn109 2.121 . S
O114 C122 1.258 . S
C115 N116 1.369 . S
C115 C119 1.428 1_455 S
C115 H121 0.921 . S
N116 Mn109 2.257 . S
N116 C115 1.369 . S
N116 C120 1.362 . S
C117 C118 1.258 . S
C117 C120 1.431 1_655 S
C117 C137 1.449 . S
C118 C117 1.258 . S
C118 C119 1.477 . S
C118 H138 0.931 . S
C119 C115 1.428 1_655 S
C119 C118 1.477 . S
C119 H139 0.930 . S
C120 N116 1.362 . S
C120 C117 1.431 1_455 S
C120 C130 1.476 . S
H121 C115 0.921 . S
C122 O113 1.250 . S
C122 O114 1.258 . S
O123 Mn108 2.162 . S
O123 C111 1.281 . S
O124 Mn108 2.297 . S
O124 C111 1.236 . S
N125 Mn109 2.282 . S
N125 C126 1.328 . S
N125 C130 1.318 . S
C126 N125 1.328 . S
C126 C127 1.457 . S
C126 H131 0.929 . S
C127 C126 1.457 . S
C127 C128 1.291 . S
C127 H140 0.931 . S
C128 C127 1.291 . S
C128 C129 1.373 . S
C128 H141 0.929 . S
C129 C128 1.373 . S
C129 C130 1.396 . S
C129 C136 1.403 . S
C130 C120 1.476 . S
C130 N125 1.318 . S
C130 C129 1.396 . S
H131 C126 0.929 . S
O132 Mn108 2.385 . S
O132 C110 1.234 . S
O133 Mn108 2.209 . S
O133 Mn109 2.215 . S
O133 C110 1.283 . S
O134 Mn108 2.094 . S
O134 C112 1.240 . S
O135 Mn109 2.117 . S
O135 C112 1.264 . S
C136 C129 1.403 . S
C136 C137 1.399 1_455 S
C136 H142 0.929 . S
C137 C117 1.449 . S
C137 C136 1.399 1_655 S
C137 H143 0.930 . S
H138 C118 0.931 . S
H139 C119 0.930 . S
H140 C127 0.931 . S
H141 C128 0.929 . S
H142 C136 0.929 . S
H143 C137 0.930 . S
Mn144 O149 2.095 . S
Mn144 O159 2.162 . S
Mn144 O160 2.297 . S
Mn144 O168 2.385 . S
Mn144 O169 2.209 . S
Mn144 O170 2.094 . S
Mn145 O150 2.121 . S
Mn145 N152 2.257 . S
Mn145 N161 2.282 . S
Mn145 O169 2.215 . S
Mn145 O171 2.117 . S
C146 O168 1.234 . S
C146 O169 1.283 . S
C147 O159 1.281 . S
C147 O160 1.236 . S
C148 O170 1.240 . S
C148 O171 1.264 . S
O149 Mn144 2.095 . S
O149 C158 1.250 . S
O150 Mn145 2.121 . S
O150 C158 1.258 . S
C151 N152 1.326 . S
C151 C155 1.460 . S
C151 H157 0.929 . S
N152 Mn145 2.257 . S
N152 C151 1.326 . S
N152 C156 1.362 . S
C153 C154 1.258 . S
C153 C156 1.431 . S
C153 C173 1.449 . S
C154 C153 1.258 . S
C154 C155 1.477 . S
C154 H174 0.931 . S
C155 C151 1.460 . S
C155 C154 1.477 . S
C155 H175 0.930 . S
C156 N152 1.362 . S
C156 C153 1.431 . S
C156 C166 1.476 . S
H157 C151 0.929 . S
C158 O149 1.250 . S
C158 O150 1.258 . S
O159 Mn144 2.162 . S
O159 C147 1.281 . S
O160 Mn144 2.297 . S
O160 C147 1.236 . S
N161 Mn145 2.282 . S
N161 C162 1.328 . S
N161 C166 1.318 . S
C162 N161 1.328 . S
C162 C163 1.457 . S
C162 H167 0.929 . S
C163 C162 1.457 . S
C163 C164 1.291 . S
C163 H176 0.931 . S
C164 C163 1.291 . S
C164 C165 1.373 . S
C164 H177 0.929 . S
C165 C164 1.373 . S
C165 C166 1.396 . S
C165 C172 1.403 . S
C166 C156 1.476 . S
C166 N161 1.318 . S
C166 C165 1.396 . S
H167 C162 0.929 . S
O168 Mn144 2.385 . S
O168 C146 1.234 . S
O169 Mn144 2.209 . S
O169 Mn145 2.215 . S
O169 C146 1.283 . S
O170 Mn144 2.094 . S
O170 C148 1.240 . S
O171 Mn145 2.117 . S
O171 C148 1.264 . S
C172 C165 1.403 . S
C172 C173 1.399 . S
C172 H178 0.929 . S
C173 C153 1.449 . S
C173 C172 1.399 . S
C173 H179 0.930 . S
H174 C154 0.931 . S
H175 C155 0.930 . S
H176 C163 0.931 . S
H177 C164 0.929 . S
H178 C172 0.929 . S
H179 C173 0.930 . S
Mn180 O185 2.095 . S
Mn180 O195 2.162 . S
Mn180 O196 2.297 . S
Mn180 O204 2.385 . S
Mn180 O205 2.209 . S
Mn180 O206 2.094 . S
Mn181 O186 2.121 . S
Mn181 N188 2.257 . S
Mn181 N197 2.282 . S
Mn181 O205 2.215 . S
Mn181 O207 2.117 . S
C182 O204 1.234 . S
C182 O205 1.283 . S
C183 O195 1.281 . S
C183 O196 1.236 . S
C184 O206 1.240 . S
C184 O207 1.264 . S
O185 Mn180 2.095 . S
O185 C194 1.250 . S
O186 Mn181 2.121 . S
O186 C194 1.258 . S
C187 N188 1.326 1_545 S
C187 C191 1.460 . S
C187 H193 0.938 . S
N188 Mn181 2.257 . S
N188 C187 1.326 1_565 S
N188 C192 1.362 . S
C189 C190 1.258 . S
C189 C192 1.431 1_545 S
C189 C209 1.449 . S
C190 C189 1.258 . S
C190 C191 1.477 . S
C190 H210 0.931 . S
C191 C187 1.460 . S
C191 C190 1.477 . S
C191 H211 0.930 . S
C192 N188 1.362 . S
C192 C189 1.431 1_565 S
C192 C202 1.476 . S
H193 C187 0.938 . S
C194 O185 1.250 . S
C194 O186 1.258 . S
O195 Mn180 2.162 . S
O195 C183 1.281 . S
O196 Mn180 2.297 . S
O196 C183 1.236 . S
N197 Mn181 2.282 . S
N197 C198 1.328 . S
N197 C202 1.318 . S
C198 N197 1.328 . S
C198 C199 1.457 . S
C198 H203 0.929 . S
C199 C198 1.457 . S
C199 C200 1.291 . S
C199 H212 0.931 . S
C200 C199 1.291 . S
C200 C201 1.373 . S
C200 H213 0.929 . S
C201 C200 1.373 . S
C201 C202 1.396 . S
C201 C208 1.403 . S
C202 C192 1.476 . S
C202 N197 1.318 . S
C202 C201 1.396 . S
H203 C198 0.929 . S
O204 Mn180 2.385 . S
O204 C182 1.234 . S
O205 Mn180 2.209 . S
O205 Mn181 2.215 . S
O205 C182 1.283 . S
O206 Mn180 2.094 . S
O206 C184 1.240 . S
O207 Mn181 2.117 . S
O207 C184 1.264 . S
C208 C201 1.403 . S
C208 C209 1.399 1_565 S
C208 H214 0.929 . S
C209 C189 1.449 . S
C209 C208 1.399 1_545 S
C209 H215 0.930 . S
H210 C190 0.931 . S
H211 C191 0.930 . S
H212 C199 0.931 . S
H213 C200 0.929 . S
H214 C208 0.929 . S
H215 C209 0.930 . S
Mn216 O221 2.095 . S
Mn216 O231 2.162 . S
Mn216 O232 2.297 . S
Mn216 O240 2.385 . S
Mn216 O241 2.209 . S
Mn216 O242 2.094 . S
Mn217 O222 2.121 . S
Mn217 N224 2.257 . S
Mn217 N233 2.282 . S
Mn217 O241 2.215 . S
Mn217 O243 2.117 . S
C218 O240 1.234 . S
C218 O241 1.283 . S
C219 O231 1.281 . S
C219 O232 1.236 . S
C220 O242 1.240 . S
C220 O243 1.264 . S
O221 Mn216 2.095 . S
O221 C230 1.250 . S
O222 Mn217 2.121 . S
O222 C230 1.258 . S
C223 N224 1.326 . S
C223 C227 1.460 . S
C223 H229 0.929 . S
N224 Mn217 2.257 . S
N224 C223 1.326 . S
N224 C228 1.362 . S
C225 C226 1.258 . S
C225 C228 1.431 . S
C225 C245 1.449 . S
C226 C225 1.258 . S
C226 C227 1.477 . S
C226 H246 0.931 . S
C227 C223 1.460 . S
C227 C226 1.477 . S
C227 H247 0.930 . S
C228 N224 1.362 . S
C228 C225 1.431 . S
C228 C238 1.476 . S
H229 C223 0.929 . S
C230 O221 1.250 . S
C230 O222 1.258 . S
O231 Mn216 2.162 . S
O231 C219 1.281 . S
O232 Mn216 2.297 . S
O232 C219 1.236 . S
N233 Mn217 2.282 . S
N233 C234 1.328 . S
N233 C238 1.318 . S
C234 N233 1.328 . S
C234 C235 1.457 . S
C234 H239 0.929 . S
C235 C234 1.457 . S
C235 C236 1.291 . S
C235 H248 0.931 . S
C236 C235 1.291 . S
C236 C237 1.373 . S
C236 H249 0.929 . S
C237 C236 1.373 . S
C237 C238 1.396 . S
C237 C244 1.403 . S
C238 C228 1.476 . S
C238 N233 1.318 . S
C238 C237 1.396 . S
H239 C234 0.929 . S
O240 Mn216 2.385 . S
O240 C218 1.234 . S
O241 Mn216 2.209 . S
O241 Mn217 2.215 . S
O241 C218 1.283 . S
O242 Mn216 2.094 . S
O242 C220 1.240 . S
O243 Mn217 2.117 . S
O243 C220 1.264 . S
C244 C237 1.403 . S
C244 C245 1.399 . S
C244 H250 0.929 . S
C245 C225 1.449 . S
C245 C244 1.399 . S
C245 H251 0.930 . S
H246 C226 0.931 . S
H247 C227 0.930 . S
H248 C235 0.931 . S
H249 C236 0.929 . S
H250 C244 0.929 . S
H251 C245 0.930 . S
Mn252 O257 2.095 . S
Mn252 O267 2.162 . S
Mn252 O268 2.297 . S
Mn252 O276 2.385 . S
Mn252 O277 2.209 . S
Mn252 O278 2.094 . S
Mn253 O258 2.121 . S
Mn253 N260 2.257 . S
Mn253 N269 2.282 . S
Mn253 O277 2.215 . S
Mn253 O279 2.117 . S
C254 O276 1.234 . S
C254 O277 1.283 . S
C255 O267 1.281 . S
C255 O268 1.236 . S
C256 O278 1.240 . S
C256 O279 1.264 . S
O257 Mn252 2.095 . S
O257 C266 1.250 . S
O258 Mn253 2.121 . S
O258 C266 1.258 . S
C259 N260 1.281 1_655 S
C259 C263 1.542 . S
C259 H265 0.887 1_655 S
N260 Mn253 2.257 . S
N260 C259 1.281 1_455 S
N260 C264 1.362 . S
C261 C262 1.258 . S
C261 C264 1.431 1_655 S
C261 C281 1.449 . S
C262 C261 1.258 . S
C262 C263 1.477 . S
C262 H282 0.931 . S
C263 C259 1.542 . S
C263 C262 1.477 . S
C263 H283 0.930 . S
C264 N260 1.362 . S
C264 C261 1.431 1_455 S
C264 C274 1.476 . S
H265 C259 0.887 1_455 S
C266 O257 1.250 . S
C266 O258 1.258 . S
O267 Mn252 2.162 . S
O267 C255 1.281 . S
O268 Mn252 2.297 . S
O268 C255 1.236 . S
N269 Mn253 2.282 . S
N269 C270 1.328 . S
N269 C274 1.318 . S
C270 N269 1.328 . S
C270 C271 1.457 . S
C270 H275 0.929 . S
C271 C270 1.457 . S
C271 C272 1.291 . S
C271 H284 0.931 . S
C272 C271 1.291 . S
C272 C273 1.373 . S
C272 H285 0.929 . S
C273 C272 1.373 . S
C273 C274 1.396 . S
C273 C280 1.403 . S
C274 C264 1.476 . S
C274 N269 1.318 . S
C274 C273 1.396 . S
H275 C270 0.929 . S
O276 Mn252 2.385 . S
O276 C254 1.234 . S
O277 Mn252 2.209 . S
O277 Mn253 2.215 . S
O277 C254 1.283 . S
O278 Mn252 2.094 . S
O278 C256 1.240 . S
O279 Mn253 2.117 . S
O279 C256 1.264 . S
C280 C273 1.403 . S
C280 C281 1.399 1_455 S
C280 H286 0.929 . S
C281 C261 1.449 . S
C281 C280 1.399 1_655 S
C281 H287 0.930 . S
H282 C262 0.931 . S
H283 C263 0.930 . S
H284 C271 0.931 . S
H285 C272 0.929 . S
H286 C280 0.929 . S
H287 C281 0.930 . S
Mn288 O293 2.095 . S
Mn288 O303 2.162 . S
Mn288 O304 2.297 . S
Mn288 O312 2.385 . S
Mn288 O313 2.209 . S
Mn288 O314 2.094 . S
Mn289 O294 2.121 . S
Mn289 N296 2.257 . S
Mn289 N305 2.282 . S
Mn289 O313 2.215 . S
Mn289 O315 2.117 . S
C290 O312 1.234 . S
C290 O313 1.283 . S
C291 O303 1.281 . S
C291 O304 1.236 . S
C292 O314 1.240 . S
C292 O315 1.264 . S
O293 Mn288 2.095 . S
O293 C302 1.250 . S
O294 Mn289 2.121 . S
O294 C302 1.258 . S
C295 N296 1.326 . S
C295 C299 1.460 . S
C295 H301 0.929 . S
N296 Mn289 2.257 . S
N296 C295 1.326 . S
N296 C300 1.362 . S
C297 C298 1.258 . S
C297 C300 1.431 . S
C297 C317 1.449 . S
C298 C297 1.258 . S
C298 C299 1.477 . S
C298 H318 0.931 . S
C299 C295 1.460 . S
C299 C298 1.477 . S
C299 H319 0.930 . S
C300 N296 1.362 . S
C300 C297 1.431 . S
C300 C310 1.476 . S
H301 C295 0.929 . S
C302 O293 1.250 . S
C302 O294 1.258 . S
O303 Mn288 2.162 . S
O303 C291 1.281 . S
O304 Mn288 2.297 . S
O304 C291 1.236 . S
N305 Mn289 2.282 . S
N305 C306 1.328 . S
N305 C310 1.318 . S
C306 N305 1.328 . S
C306 C307 1.457 . S
C306 H311 0.929 . S
C307 C306 1.457 . S
C307 C308 1.291 . S
C307 H320 0.931 . S
C308 C307 1.291 . S
C308 C309 1.373 . S
C308 H321 0.929 . S
C309 C308 1.373 . S
C309 C310 1.396 . S
C309 C316 1.403 . S
C310 C300 1.476 . S
C310 N305 1.318 . S
C310 C309 1.396 . S
H311 C306 0.929 . S
O312 Mn288 2.385 . S
O312 C290 1.234 . S
O313 Mn288 2.209 . S
O313 Mn289 2.215 . S
O313 C290 1.283 . S
O314 Mn288 2.094 . S
O314 C292 1.240 . S
O315 Mn289 2.117 . S
O315 C292 1.264 . S
C316 C309 1.403 . S
C316 C317 1.399 . S
C316 H322 0.929 . S
C317 C297 1.449 . S
C317 C316 1.399 . S
C317 H323 0.930 . S
H318 C298 0.931 . S
H319 C299 0.930 . S
H320 C307 0.931 . S
H321 C308 0.929 . S
H322 C316 0.929 . S
H323 C317 0.930 . S
Mn324 O329 2.095 . S
Mn324 O339 2.162 . S
Mn324 O340 2.297 . S
Mn324 O348 2.385 . S
Mn324 O349 2.209 . S
Mn324 O350 2.094 . S
Mn325 O330 2.121 . S
Mn325 N332 2.257 . S
Mn325 N341 2.282 . S
Mn325 O349 2.215 . S
Mn325 O351 2.117 . S
C326 O348 1.234 . S
C326 O349 1.283 . S
C327 O339 1.281 . S
C327 O340 1.236 . S
C328 O350 1.240 . S
C328 O351 1.264 . S
O329 Mn324 2.095 . S
O329 C338 1.250 . S
O330 Mn325 2.121 . S
O330 C338 1.258 . S
C331 N332 1.326 . S
C331 C335 1.460 . S
C331 H337 0.929 . S
N332 Mn325 2.257 . S
N332 C331 1.326 . S
N332 C336 1.362 . S
C333 C334 1.258 . S
C333 C336 1.431 . S
C333 C353 1.449 . S
C334 C333 1.258 . S
C334 C335 1.477 . S
C334 H354 0.931 . S
C335 C331 1.460 . S
C335 C334 1.477 . S
C335 H355 0.930 . S
C336 N332 1.362 . S
C336 C333 1.431 . S
C336 C346 1.476 . S
H337 C331 0.929 . S
C338 O329 1.250 . S
C338 O330 1.258 . S
O339 Mn324 2.162 . S
O339 C327 1.281 . S
O340 Mn324 2.297 . S
O340 C327 1.236 . S
N341 Mn325 2.282 . S
N341 C342 1.328 . S
N341 C346 1.318 . S
C342 N341 1.328 . S
C342 C343 1.457 . S
C342 H347 0.929 . S
C343 C342 1.457 . S
C343 C344 1.291 . S
C343 H356 0.931 . S
C344 C343 1.291 . S
C344 C345 1.373 . S
C344 H357 0.929 . S
C345 C344 1.373 . S
C345 C346 1.396 . S
C345 C352 1.403 . S
C346 C336 1.476 . S
C346 N341 1.318 . S
C346 C345 1.396 . S
H347 C342 0.929 . S
O348 Mn324 2.385 . S
O348 C326 1.234 . S
O349 Mn324 2.209 . S
O349 Mn325 2.215 . S
O349 C326 1.283 . S
O350 Mn324 2.094 . S
O350 C328 1.240 . S
O351 Mn325 2.117 . S
O351 C328 1.264 . S
C352 C345 1.403 . S
C352 C353 1.399 . S
C352 H358 0.929 . S
C353 C333 1.449 . S
C353 C352 1.399 . S
C353 H359 0.930 . S
H354 C334 0.931 . S
H355 C335 0.930 . S
H356 C343 0.931 . S
H357 C344 0.929 . S
H358 C352 0.929 . S
H359 C353 0.930 . S
Mn360 O365 2.095 . S
Mn360 O375 2.162 . S
Mn360 O376 2.297 . S
Mn360 O384 2.385 . S
Mn360 O385 2.209 . S
Mn360 O386 2.094 . S
Mn361 O366 2.121 . S
Mn361 N368 2.257 . S
Mn361 N377 2.282 . S
Mn361 O385 2.215 . S
Mn361 O387 2.117 . S
C362 O384 1.234 . S
C362 O385 1.283 . S
C363 O375 1.281 . S
C363 O376 1.236 . S
C364 O386 1.240 . S
C364 O387 1.264 . S
O365 Mn360 2.095 . S
O365 C374 1.250 . S
O366 Mn361 2.121 . S
O366 C374 1.258 . S
C367 N368 1.326 . S
C367 C371 1.460 . S
C367 H373 0.929 . S
N368 Mn361 2.257 . S
N368 C367 1.326 . S
N368 C372 1.362 . S
C369 C370 1.258 . S
C369 C372 1.431 . S
C369 C389 1.449 . S
C370 C369 1.258 . S
C370 C371 1.477 . S
C370 H390 0.931 . S
C371 C367 1.460 . S
C371 C370 1.477 . S
C371 H391 0.930 . S
C372 N368 1.362 . S
C372 C369 1.431 . S
C372 C382 1.476 . S
H373 C367 0.929 . S
C374 O365 1.250 . S
C374 O366 1.258 . S
O375 Mn360 2.162 . S
O375 C363 1.281 . S
O376 Mn360 2.297 . S
O376 C363 1.236 . S
N377 Mn361 2.282 . S
N377 C378 1.328 . S
N377 C382 1.318 . S
C378 N377 1.328 . S
C378 C379 1.457 . S
C378 H383 0.929 . S
C379 C378 1.457 . S
C379 C380 1.291 . S
C379 H392 0.931 . S
C380 C379 1.291 . S
C380 C381 1.373 . S
C380 H393 0.929 . S
C381 C380 1.373 . S
C381 C382 1.396 . S
C381 C388 1.403 . S
C382 C372 1.476 . S
C382 N377 1.318 . S
C382 C381 1.396 . S
H383 C378 0.929 . S
O384 Mn360 2.385 . S
O384 C362 1.234 . S
O385 Mn360 2.209 . S
O385 Mn361 2.215 . S
O385 C362 1.283 . S
O386 Mn360 2.094 . S
O386 C364 1.240 . S
O387 Mn361 2.117 . S
O387 C364 1.264 . S
C388 C381 1.403 . S
C388 C389 1.399 . S
C388 H394 0.929 . S
C389 C369 1.449 . S
C389 C388 1.399 . S
C389 H395 0.930 . S
H390 C370 0.931 . S
H391 C371 0.930 . S
H392 C379 0.931 . S
H393 C380 0.929 . S
H394 C388 0.929 . S
H395 C389 0.930 . S
Mn396 O401 2.095 . S
Mn396 O411 2.162 . S
Mn396 O412 2.297 . S
Mn396 O420 2.385 . S
Mn396 O421 2.209 . S
Mn396 O422 2.094 . S
Mn397 O402 2.121 . S
Mn397 N404 2.257 . S
Mn397 N413 2.282 . S
Mn397 O421 2.215 . S
Mn397 O423 2.117 . S
C398 O420 1.234 . S
C398 O421 1.283 . S
C399 O411 1.281 . S
C399 O412 1.236 . S
C400 O422 1.240 . S
C400 O423 1.264 . S
O401 Mn396 2.095 . S
O401 C410 1.250 . S
O402 Mn397 2.121 . S
O402 C410 1.258 . S
C403 N404 1.326 . S
C403 C407 1.460 . S
C403 H409 0.929 . S
N404 Mn397 2.257 . S
N404 C403 1.326 . S
N404 C408 1.362 . S
C405 C406 1.258 . S
C405 C408 1.431 . S
C405 C425 1.449 . S
C406 C405 1.258 . S
C406 C407 1.477 . S
C406 H426 0.931 . S
C407 C403 1.460 . S
C407 C406 1.477 . S
C407 H427 0.930 . S
C408 N404 1.362 . S
C408 C405 1.431 . S
C408 C418 1.476 . S
H409 C403 0.929 . S
C410 O401 1.250 . S
C410 O402 1.258 . S
O411 Mn396 2.162 . S
O411 C399 1.281 . S
O412 Mn396 2.297 . S
O412 C399 1.236 . S
N413 Mn397 2.282 . S
N413 C414 1.328 . S
N413 C418 1.318 . S
C414 N413 1.328 . S
C414 C415 1.457 . S
C414 H419 0.929 . S
C415 C414 1.457 . S
C415 C416 1.291 . S
C415 H428 0.931 . S
C416 C415 1.291 . S
C416 C417 1.373 . S
C416 H429 0.929 . S
C417 C416 1.373 . S
C417 C418 1.396 . S
C417 C424 1.403 . S
C418 C408 1.476 . S
C418 N413 1.318 . S
C418 C417 1.396 . S
H419 C414 0.929 . S
O420 Mn396 2.385 . S
O420 C398 1.234 . S
O421 Mn396 2.209 . S
O421 Mn397 2.215 . S
O421 C398 1.283 . S
O422 Mn396 2.094 . S
O422 C400 1.240 . S
O423 Mn397 2.117 . S
O423 C400 1.264 . S
C424 C417 1.403 . S
C424 C425 1.399 . S
C424 H430 0.929 . S
C425 C405 1.449 . S
C425 C424 1.399 . S
C425 H431 0.930 . S
H426 C406 0.931 . S
H427 C407 0.930 . S
H428 C415 0.931 . S
H429 C416 0.929 . S
H430 C424 0.929 . S
H431 C425 0.930 . S
Mn432 O437 2.095 . S
Mn432 O447 2.162 . S
Mn432 O448 2.297 . S
Mn432 O456 2.385 . S
Mn432 O457 2.209 . S
Mn432 O458 2.094 . S
Mn433 O438 2.121 . S
Mn433 N440 2.257 . S
Mn433 N449 2.282 . S
Mn433 O457 2.215 . S
Mn433 O459 2.117 . S
C434 O456 1.234 . S
C434 O457 1.283 . S
C435 O447 1.281 . S
C435 O448 1.236 . S
C436 O458 1.240 . S
C436 O459 1.264 . S
O437 Mn432 2.095 . S
O437 C446 1.250 . S
O438 Mn433 2.121 . S
O438 C446 1.258 . S
C439 N440 1.326 1_655 S
C439 C443 1.460 . S
C439 H445 0.929 . S
N440 Mn433 2.257 . S
N440 C439 1.326 1_455 S
N440 C444 1.362 1_455 S
C441 C442 1.258 . S
C441 C444 1.431 . S
C441 C461 1.449 . S
C442 C441 1.258 . S
C442 C443 1.477 . S
C442 H462 0.931 . S
C443 C439 1.460 . S
C443 C442 1.477 . S
C443 H463 0.930 . S
C444 N440 1.362 1_655 S
C444 C441 1.431 . S
C444 C454 1.476 1_655 S
H445 C439 0.929 . S
C446 O437 1.250 . S
C446 O438 1.258 . S
O447 Mn432 2.162 . S
O447 C435 1.281 . S
O448 Mn432 2.297 . S
O448 C435 1.236 . S
N449 Mn433 2.282 . S
N449 C450 1.328 . S
N449 C454 1.318 . S
C450 N449 1.328 . S
C450 C451 1.457 . S
C450 H455 0.929 . S
C451 C450 1.457 . S
C451 C452 1.291 . S
C451 H464 0.931 . S
C452 C451 1.291 . S
C452 C453 1.373 . S
C452 H465 0.929 . S
C453 C452 1.373 . S
C453 C454 1.396 . S
C453 C460 1.403 1_455 S
C454 C444 1.476 1_455 S
C454 N449 1.318 . S
C454 C453 1.396 . S
H455 C450 0.929 . S
O456 Mn432 2.385 . S
O456 C434 1.234 . S
O457 Mn432 2.209 . S
O457 Mn433 2.215 . S
O457 C434 1.283 . S
O458 Mn432 2.094 . S
O458 C436 1.240 . S
O459 Mn433 2.117 . S
O459 C436 1.264 . S
C460 C453 1.403 1_655 S
C460 C461 1.399 . S
C460 H466 0.929 . S
C461 C441 1.449 . S
C461 C460 1.399 . S
C461 H467 0.930 . S
H462 C442 0.931 . S
H463 C443 0.930 . S
H464 C451 0.931 . S
H465 C452 0.929 . S
H466 C460 0.929 . S
H467 C461 0.930 . S
Mn468 O473 2.095 . S
Mn468 O483 2.162 . S
Mn468 O484 2.297 . S
Mn468 O492 2.385 . S
Mn468 O493 2.209 . S
Mn468 O494 2.094 . S
Mn469 O474 2.121 . S
Mn469 N476 2.257 . S
Mn469 N485 2.282 . S
Mn469 O493 2.215 . S
Mn469 O495 2.117 . S
C470 O492 1.234 . S
C470 O493 1.283 . S
C471 O483 1.281 . S
C471 O484 1.236 . S
C472 O494 1.240 . S
C472 O495 1.264 . S
O473 Mn468 2.095 . S
O473 C482 1.250 . S
O474 Mn469 2.121 . S
O474 C482 1.258 . S
C475 N476 1.326 . S
C475 C479 1.460 . S
C475 H481 0.929 . S
N476 Mn469 2.257 . S
N476 C475 1.326 . S
N476 C480 1.362 . S
C477 C478 1.258 . S
C477 C480 1.431 . S
C477 C497 1.449 . S
C478 C477 1.258 . S
C478 C479 1.477 . S
C478 H498 0.931 . S
C479 C475 1.460 . S
C479 C478 1.477 . S
C479 H499 0.930 . S
C480 N476 1.362 . S
C480 C477 1.431 . S
C480 C490 1.476 . S
H481 C475 0.929 . S
C482 O473 1.250 . S
C482 O474 1.258 . S
O483 Mn468 2.162 . S
O483 C471 1.281 . S
O484 Mn468 2.297 . S
O484 C471 1.236 . S
N485 Mn469 2.282 . S
N485 C486 1.328 . S
N485 C490 1.318 . S
C486 N485 1.328 . S
C486 C487 1.457 . S
C486 H491 0.929 . S
C487 C486 1.457 . S
C487 C488 1.291 . S
C487 H500 0.931 . S
C488 C487 1.291 . S
C488 C489 1.373 . S
C488 H501 0.929 . S
C489 C488 1.373 . S
C489 C490 1.396 . S
C489 C496 1.403 . S
C490 C480 1.476 . S
C490 N485 1.318 . S
C490 C489 1.396 . S
H491 C486 0.929 . S
O492 Mn468 2.385 . S
O492 C470 1.234 . S
O493 Mn468 2.209 . S
O493 Mn469 2.215 . S
O493 C470 1.283 . S
O494 Mn468 2.094 . S
O494 C472 1.240 . S
O495 Mn469 2.117 . S
O495 C472 1.264 . S
C496 C489 1.403 . S
C496 C497 1.399 . S
C496 H502 0.929 . S
C497 C477 1.449 . S
C497 C496 1.399 . S
C497 H503 0.930 . S
H498 C478 0.931 . S
H499 C479 0.930 . S
H500 C487 0.931 . S
H501 C488 0.929 . S
H502 C496 0.929 . S
H503 C497 0.930 . S
Mn504 O509 2.095 . S
Mn504 O519 2.162 . S
Mn504 O520 2.297 . S
Mn504 O528 2.385 . S
Mn504 O529 2.209 . S
Mn504 O530 2.094 . S
Mn505 O510 2.121 . S
Mn505 N512 2.257 . S
Mn505 N521 2.282 . S
Mn505 O529 2.215 . S
Mn505 O531 2.117 . S
C506 O528 1.234 . S
C506 O529 1.283 . S
C507 O519 1.281 . S
C507 O520 1.236 . S
C508 O530 1.240 . S
C508 O531 1.264 . S
O509 Mn504 2.095 . S
O509 C518 1.250 . S
O510 Mn505 2.121 . S
O510 C518 1.258 . S
C511 N512 1.326 1_545 S
C511 C515 1.460 . S
C511 H517 0.929 . S
N512 Mn505 2.257 . S
N512 C511 1.326 1_565 S
N512 C516 1.362 1_565 S
C513 C514 1.258 . S
C513 C516 1.431 . S
C513 C533 1.449 . S
C514 C513 1.258 . S
C514 C515 1.477 . S
C514 H534 0.931 . S
C515 C511 1.460 . S
C515 C514 1.477 . S
C515 H535 0.930 . S
C516 N512 1.362 1_545 S
C516 C513 1.431 . S
C516 C526 1.476 1_545 S
H517 C511 0.929 . S
C518 O509 1.250 . S
C518 O510 1.258 . S
O519 Mn504 2.162 . S
O519 C507 1.281 . S
O520 Mn504 2.297 . S
O520 C507 1.236 . S
N521 Mn505 2.282 . S
N521 C522 1.328 . S
N521 C526 1.318 . S
C522 N521 1.328 . S
C522 C523 1.457 . S
C522 H527 0.929 . S
C523 C522 1.457 . S
C523 C524 1.291 . S
C523 H536 0.931 . S
C524 C523 1.291 . S
C524 C525 1.373 . S
C524 H537 0.929 . S
C525 C524 1.373 . S
C525 C526 1.396 . S
C525 C532 1.403 1_565 S
C526 C516 1.476 1_565 S
C526 N521 1.318 . S
C526 C525 1.396 . S
H527 C522 0.929 . S
O528 Mn504 2.385 . S
O528 C506 1.234 . S
O529 Mn504 2.209 . S
O529 Mn505 2.215 . S
O529 C506 1.283 . S
O530 Mn504 2.094 . S
O530 C508 1.240 . S
O531 Mn505 2.117 . S
O531 C508 1.264 . S
C532 C525 1.403 1_545 S
C532 C533 1.399 . S
C532 H538 0.929 . S
C533 C513 1.449 . S
C533 C532 1.399 . S
C533 H539 0.930 . S
H534 C514 0.931 . S
H535 C515 0.930 . S
H536 C523 0.931 . S
H537 C524 0.929 . S
H538 C532 0.929 . S
H539 C533 0.930 . S
Mn540 O545 2.095 . S
Mn540 O555 2.162 . S
Mn540 O556 2.297 . S
Mn540 O564 2.385 . S
Mn540 O565 2.209 . S
Mn540 O566 2.094 . S
Mn541 O546 2.121 . S
Mn541 N548 2.257 . S
Mn541 N557 2.282 . S
Mn541 O565 2.215 . S
Mn541 O567 2.117 . S
C542 O564 1.234 . S
C542 O565 1.283 . S
C543 O555 1.281 . S
C543 O556 1.236 . S
C544 O566 1.240 . S
C544 O567 1.264 . S
O545 Mn540 2.095 . S
O545 C554 1.250 . S
O546 Mn541 2.121 . S
O546 C554 1.258 . S
C547 N548 1.326 . S
C547 C551 1.460 . S
C547 H553 0.929 . S
N548 Mn541 2.257 . S
N548 C547 1.326 . S
N548 C552 1.362 . S
C549 C550 1.258 . S
C549 C552 1.431 . S
C549 C569 1.449 . S
C550 C549 1.258 . S
C550 C551 1.477 . S
C550 H570 0.931 . S
C551 C547 1.460 . S
C551 C550 1.477 . S
C551 H571 0.930 . S
C552 N548 1.362 . S
C552 C549 1.431 . S
C552 C562 1.476 . S
H553 C547 0.929 . S
C554 O545 1.250 . S
C554 O546 1.258 . S
O555 Mn540 2.162 . S
O555 C543 1.281 . S
O556 Mn540 2.297 . S
O556 C543 1.236 . S
N557 Mn541 2.282 . S
N557 C558 1.328 . S
N557 C562 1.318 . S
C558 N557 1.328 . S
C558 C559 1.457 . S
C558 H563 0.929 . S
C559 C558 1.457 . S
C559 C560 1.291 . S
C559 H572 0.931 . S
C560 C559 1.291 . S
C560 C561 1.373 . S
C560 H573 0.929 . S
C561 C560 1.373 . S
C561 C562 1.396 . S
C561 C568 1.403 . S
C562 C552 1.476 . S
C562 N557 1.318 . S
C562 C561 1.396 . S
H563 C558 0.929 . S
O564 Mn540 2.385 . S
O564 C542 1.234 . S
O565 Mn540 2.209 . S
O565 Mn541 2.215 . S
O565 C542 1.283 . S
O566 Mn540 2.094 . S
O566 C544 1.240 . S
O567 Mn541 2.117 . S
O567 C544 1.264 . S
C568 C561 1.403 . S
C568 C569 1.399 . S
C568 H574 0.929 . S
C569 C549 1.449 . S
C569 C568 1.399 . S
C569 H575 0.930 . S
H570 C550 0.931 . S
H571 C551 0.930 . S
H572 C559 0.931 . S
H573 C560 0.929 . S
H574 C568 0.929 . S
H575 C569 0.930 . S
Mn576 O581 2.095 . S
Mn576 O591 2.162 . S
Mn576 O592 2.297 . S
Mn576 O600 2.385 . S
Mn576 O601 2.209 . S
Mn576 O602 2.094 . S
Mn577 O582 2.121 . S
Mn577 N584 2.257 . S
Mn577 N593 2.282 . S
Mn577 O601 2.215 . S
Mn577 O603 2.117 . S
C578 O600 1.234 . S
C578 O601 1.283 . S
C579 O591 1.281 . S
C579 O592 1.236 . S
C580 O602 1.240 . S
C580 O603 1.264 . S
O581 Mn576 2.095 . S
O581 C590 1.250 . S
O582 Mn577 2.121 . S
O582 C590 1.258 . S
C583 N584 1.326 . S
C583 C587 1.460 . S
C583 H589 0.929 . S
N584 Mn577 2.257 . S
N584 C583 1.326 . S
N584 C588 1.362 . S
C585 C586 1.258 . S
C585 C588 1.431 . S
C585 C605 1.449 . S
C586 C585 1.258 . S
C586 C587 1.477 . S
C586 H606 0.931 . S
C587 C583 1.460 . S
C587 C586 1.477 . S
C587 H607 0.930 . S
C588 N584 1.362 . S
C588 C585 1.431 . S
C588 C598 1.476 . S
H589 C583 0.929 . S
C590 O581 1.250 . S
C590 O582 1.258 . S
O591 Mn576 2.162 . S
O591 C579 1.281 . S
O592 Mn576 2.297 . S
O592 C579 1.236 . S
N593 Mn577 2.282 . S
N593 C594 1.328 . S
N593 C598 1.318 . S
C594 N593 1.328 . S
C594 C595 1.457 . S
C594 H599 0.929 . S
C595 C594 1.457 . S
C595 C596 1.291 . S
C595 H608 0.931 . S
C596 C595 1.291 . S
C596 C597 1.373 . S
C596 H609 0.929 . S
C597 C596 1.373 . S
C597 C598 1.396 . S
C597 C604 1.403 . S
C598 C588 1.476 . S
C598 N593 1.318 . S
C598 C597 1.396 . S
H599 C594 0.929 . S
O600 Mn576 2.385 . S
O600 C578 1.234 . S
O601 Mn576 2.209 . S
O601 Mn577 2.215 . S
O601 C578 1.283 . S
O602 Mn576 2.094 . S
O602 C580 1.240 . S
O603 Mn577 2.117 . S
O603 C580 1.264 . S
C604 C597 1.403 . S
C604 C605 1.399 . S
C604 H610 0.929 . S
C605 C585 1.449 . S
C605 C604 1.399 . S
C605 H611 0.930 . S
H606 C586 0.931 . S
H607 C587 0.930 . S
H608 C595 0.931 . S
H609 C596 0.929 . S
H610 C604 0.929 . S
H611 C605 0.930 . S
Mn612 O617 2.095 . S
Mn612 O627 2.162 . S
Mn612 O628 2.297 . S
Mn612 O636 2.385 . S
Mn612 O637 2.209 . S
Mn612 O638 2.094 . S
Mn613 O618 2.121 . S
Mn613 N620 2.257 . S
Mn613 N629 2.282 . S
Mn613 O637 2.215 . S
Mn613 O639 2.117 . S
C614 O636 1.234 . S
C614 O637 1.283 . S
C615 O627 1.281 . S
C615 O628 1.236 . S
C616 O638 1.240 . S
C616 O639 1.264 . S
O617 Mn612 2.095 . S
O617 C626 1.250 . S
O618 Mn613 2.121 . S
O618 C626 1.258 . S
C619 N620 1.326 . S
C619 C623 1.460 . S
C619 H625 0.929 . S
N620 Mn613 2.257 . S
N620 C619 1.326 . S
N620 C624 1.362 . S
C621 C622 1.258 . S
C621 C624 1.431 . S
C621 C641 1.449 . S
C622 C621 1.258 . S
C622 C623 1.477 . S
C622 H642 0.931 . S
C623 C619 1.460 . S
C623 C622 1.477 . S
C623 H643 0.930 . S
C624 N620 1.362 . S
C624 C621 1.431 . S
C624 C634 1.476 . S
H625 C619 0.929 . S
C626 O617 1.250 . S
C626 O618 1.258 . S
O627 Mn612 2.162 . S
O627 C615 1.281 . S
O628 Mn612 2.297 . S
O628 C615 1.236 . S
N629 Mn613 2.282 . S
N629 C630 1.328 . S
N629 C634 1.318 . S
C630 N629 1.328 . S
C630 C631 1.457 . S
C630 H635 0.929 . S
C631 C630 1.457 . S
C631 C632 1.291 . S
C631 H644 0.931 . S
C632 C631 1.291 . S
C632 C633 1.373 . S
C632 H645 0.929 . S
C633 C632 1.373 . S
C633 C634 1.396 . S
C633 C640 1.403 . S
C634 C624 1.476 . S
C634 N629 1.318 . S
C634 C633 1.396 . S
H635 C630 0.929 . S
O636 Mn612 2.385 . S
O636 C614 1.234 . S
O637 Mn612 2.209 . S
O637 Mn613 2.215 . S
O637 C614 1.283 . S
O638 Mn612 2.094 . S
O638 C616 1.240 . S
O639 Mn613 2.117 . S
O639 C616 1.264 . S
C640 C633 1.403 . S
C640 C641 1.399 . S
C640 H646 0.929 . S
C641 C621 1.449 . S
C641 C640 1.399 . S
C641 H647 0.930 . S
H642 C622 0.931 . S
H643 C623 0.930 . S
H644 C631 0.931 . S
H645 C632 0.929 . S
H646 C640 0.929 . S
H647 C641 0.930 . S
Mn648 O653 2.095 . S
Mn648 O663 2.162 . S
Mn648 O664 2.297 . S
Mn648 O672 2.385 . S
Mn648 O673 2.209 . S
Mn648 O674 2.094 . S
Mn649 O654 2.121 . S
Mn649 N656 2.257 . S
Mn649 N665 2.282 . S
Mn649 O673 2.215 . S
Mn649 O675 2.117 . S
C650 O672 1.234 . S
C650 O673 1.283 . S
C651 O663 1.281 . S
C651 O664 1.236 . S
C652 O674 1.240 . S
C652 O675 1.264 . S
O653 Mn648 2.095 . S
O653 C662 1.250 . S
O654 Mn649 2.121 . S
O654 C662 1.258 . S
C655 N656 1.326 . S
C655 C659 1.460 . S
C655 H661 0.929 . S
N656 Mn649 2.257 . S
N656 C655 1.326 . S
N656 C660 1.362 . S
C657 C658 1.258 . S
C657 C660 1.431 . S
C657 C677 1.449 . S
C658 C657 1.258 . S
C658 C659 1.477 . S
C658 H678 0.931 . S
C659 C655 1.460 . S
C659 C658 1.477 . S
C659 H679 0.930 . S
C660 N656 1.362 . S
C660 C657 1.431 . S
C660 C670 1.476 . S
H661 C655 0.929 . S
C662 O653 1.250 . S
C662 O654 1.258 . S
O663 Mn648 2.162 . S
O663 C651 1.281 . S
O664 Mn648 2.297 . S
O664 C651 1.236 . S
N665 Mn649 2.282 . S
N665 C666 1.328 . S
N665 C670 1.318 . S
C666 N665 1.328 . S
C666 C667 1.457 . S
C666 H671 0.929 . S
C667 C666 1.457 . S
C667 C668 1.291 . S
C667 H680 0.931 . S
C668 C667 1.291 . S
C668 C669 1.373 . S
C668 H681 0.929 . S
C669 C668 1.373 . S
C669 C670 1.396 . S
C669 C676 1.403 . S
C670 C660 1.476 . S
C670 N665 1.318 . S
C670 C669 1.396 . S
H671 C666 0.929 . S
O672 Mn648 2.385 . S
O672 C650 1.234 . S
O673 Mn648 2.209 . S
O673 Mn649 2.215 . S
O673 C650 1.283 . S
O674 Mn648 2.094 . S
O674 C652 1.240 . S
O675 Mn649 2.117 . S
O675 C652 1.264 . S
C676 C669 1.403 . S
C676 C677 1.399 . S
C676 H682 0.929 . S
C677 C657 1.449 . S
C677 C676 1.399 . S
C677 H683 0.930 . S
H678 C658 0.931 . S
H679 C659 0.930 . S
H680 C667 0.931 . S
H681 C668 0.929 . S
H682 C676 0.929 . S
H683 C677 0.930 . S
Mn684 O689 2.095 . S
Mn684 O699 2.162 . S
Mn684 O700 2.297 . S
Mn684 O708 2.385 . S
Mn684 O709 2.209 . S
Mn684 O710 2.094 . S
Mn685 O690 2.121 . S
Mn685 N692 2.257 . S
Mn685 N701 2.282 . S
Mn685 O709 2.215 . S
Mn685 O711 2.117 . S
C686 O708 1.234 . S
C686 O709 1.283 . S
C687 O699 1.281 . S
C687 O700 1.236 . S
C688 O710 1.240 . S
C688 O711 1.264 . S
O689 Mn684 2.095 . S
O689 C698 1.250 . S
O690 Mn685 2.121 . S
O690 C698 1.258 . S
C691 N692 1.326 . S
C691 C695 1.460 . S
C691 H697 0.929 . S
N692 Mn685 2.257 . S
N692 C691 1.326 . S
N692 C696 1.362 . S
C693 C694 1.258 . S
C693 C696 1.431 . S
C693 C713 1.449 . S
C694 C693 1.258 . S
C694 C695 1.477 . S
C694 H714 0.931 . S
C695 C691 1.460 . S
C695 C694 1.477 . S
C695 H715 0.930 . S
C696 N692 1.362 . S
C696 C693 1.431 . S
C696 C706 1.476 . S
H697 C691 0.929 . S
C698 O689 1.250 . S
C698 O690 1.258 . S
O699 Mn684 2.162 . S
O699 C687 1.281 . S
O700 Mn684 2.297 . S
O700 C687 1.236 . S
N701 Mn685 2.282 . S
N701 C702 1.328 . S
N701 C706 1.318 . S
C702 N701 1.328 . S
C702 C703 1.457 . S
C702 H707 0.929 . S
C703 C702 1.457 . S
C703 C704 1.291 . S
C703 H716 0.931 . S
C704 C703 1.291 . S
C704 C705 1.373 . S
C704 H717 0.929 . S
C705 C704 1.373 . S
C705 C706 1.396 . S
C705 C712 1.403 . S
C706 C696 1.476 . S
C706 N701 1.318 . S
C706 C705 1.396 . S
H707 C702 0.929 . S
O708 Mn684 2.385 . S
O708 C686 1.234 . S
O709 Mn684 2.209 . S
O709 Mn685 2.215 . S
O709 C686 1.283 . S
O710 Mn684 2.094 . S
O710 C688 1.240 . S
O711 Mn685 2.117 . S
O711 C688 1.264 . S
C712 C705 1.403 . S
C712 C713 1.399 . S
C712 H718 0.929 . S
C713 C693 1.449 . S
C713 C712 1.399 . S
C713 H719 0.930 . S
H714 C694 0.931 . S
H715 C695 0.930 . S
H716 C703 0.931 . S
H717 C704 0.929 . S
H718 C712 0.929 . S
H719 C713 0.930 . S
Mn720 O725 2.095 . S
Mn720 O735 2.162 . S
Mn720 O736 2.297 . S
Mn720 O744 2.385 . S
Mn720 O745 2.209 . S
Mn720 O746 2.094 . S
Mn721 O726 2.121 . S
Mn721 N728 2.257 . S
Mn721 N737 2.282 . S
Mn721 O745 2.215 . S
Mn721 O747 2.117 . S
C722 O744 1.234 . S
C722 O745 1.283 . S
C723 O735 1.281 . S
C723 O736 1.236 . S
C724 O746 1.240 . S
C724 O747 1.264 . S
O725 Mn720 2.095 . S
O725 C734 1.250 . S
O726 Mn721 2.121 . S
O726 C734 1.258 . S
C727 N728 1.326 . S
C727 C731 1.460 . S
C727 H733 0.929 . S
N728 Mn721 2.257 . S
N728 C727 1.326 . S
N728 C732 1.362 . S
C729 C730 1.258 . S
C729 C732 1.431 . S
C729 C749 1.449 . S
C730 C729 1.258 . S
C730 C731 1.477 . S
C730 H750 0.931 . S
C731 C727 1.460 . S
C731 C730 1.477 . S
C731 H751 0.930 . S
C732 N728 1.362 . S
C732 C729 1.431 . S
C732 C742 1.476 . S
H733 C727 0.929 . S
C734 O725 1.250 . S
C734 O726 1.258 . S
O735 Mn720 2.162 . S
O735 C723 1.281 . S
O736 Mn720 2.297 . S
O736 C723 1.236 . S
N737 Mn721 2.282 . S
N737 C738 1.328 . S
N737 C742 1.318 . S
C738 N737 1.328 . S
C738 C739 1.457 . S
C738 H743 0.929 . S
C739 C738 1.457 . S
C739 C740 1.291 . S
C739 H752 0.931 . S
C740 C739 1.291 . S
C740 C741 1.373 . S
C740 H753 0.929 . S
C741 C740 1.373 . S
C741 C742 1.396 . S
C741 C748 1.403 . S
C742 C732 1.476 . S
C742 N737 1.318 . S
C742 C741 1.396 . S
H743 C738 0.929 . S
O744 Mn720 2.385 . S
O744 C722 1.234 . S
O745 Mn720 2.209 . S
O745 Mn721 2.215 . S
O745 C722 1.283 . S
O746 Mn720 2.094 . S
O746 C724 1.240 . S
O747 Mn721 2.117 . S
O747 C724 1.264 . S
C748 C741 1.403 . S
C748 C749 1.399 . S
C748 H754 0.929 . S
C749 C729 1.449 . S
C749 C748 1.399 . S
C749 H755 0.930 . S
H750 C730 0.931 . S
H751 C731 0.930 . S
H752 C739 0.931 . S
H753 C740 0.929 . S
H754 C748 0.929 . S
H755 C749 0.930 . S
Mn756 O761 2.095 1_554 S
Mn756 O771 2.162 . S
Mn756 O772 2.297 . S
Mn756 O780 2.385 . S
Mn756 O781 2.209 1_554 S
Mn756 O782 2.094 1_554 S
Mn757 O762 2.121 . S
Mn757 N764 2.257 . S
Mn757 N773 2.282 . S
Mn757 O781 2.215 . S
Mn757 O783 2.117 . S
C758 O780 1.234 . S
C758 O781 1.283 1_554 S
C759 O771 1.281 . S
C759 O772 1.236 . S
C760 O782 1.240 . S
C760 O783 1.264 . S
O761 Mn756 2.095 1_556 S
O761 C770 1.250 . S
O762 Mn757 2.121 . S
O762 C770 1.258 . S
C763 N764 1.326 . S
C763 C767 1.460 . S
C763 H769 0.929 . S
N764 Mn757 2.257 . S
N764 C763 1.326 . S
N764 C768 1.362 . S
C765 C766 1.258 . S
C765 C768 1.431 . S
C765 C785 1.449 . S
C766 C765 1.258 . S
C766 C767 1.477 . S
C766 H786 0.931 . S
C767 C763 1.460 . S
C767 C766 1.477 . S
C767 H787 0.930 . S
C768 N764 1.362 . S
C768 C765 1.431 . S
C768 C778 1.476 . S
H769 C763 0.929 . S
C770 O761 1.250 . S
C770 O762 1.258 . S
O771 Mn756 2.162 . S
O771 C759 1.281 . S
O772 Mn756 2.297 . S
O772 C759 1.236 . S
N773 Mn757 2.282 . S
N773 C774 1.328 . S
N773 C778 1.318 . S
C774 N773 1.328 . S
C774 C775 1.457 . S
C774 H779 0.929 . S
C775 C774 1.457 . S
C775 C776 1.291 . S
C775 H788 0.931 . S
C776 C775 1.291 . S
C776 C777 1.373 . S
C776 H789 0.929 . S
C777 C776 1.373 . S
C777 C778 1.396 . S
C777 C784 1.403 . S
C778 C768 1.476 . S
C778 N773 1.318 . S
C778 C777 1.396 . S
H779 C774 0.929 . S
O780 Mn756 2.385 . S
O780 C758 1.234 . S
O781 Mn756 2.209 1_556 S
O781 Mn757 2.215 . S
O781 C758 1.283 1_556 S
O782 Mn756 2.094 1_556 S
O782 C760 1.240 . S
O783 Mn757 2.117 . S
O783 C760 1.264 . S
C784 C777 1.403 . S
C784 C785 1.399 . S
C784 H790 0.929 . S
C785 C765 1.449 . S
C785 C784 1.399 . S
C785 H791 0.930 . S
H786 C766 0.931 . S
H787 C767 0.930 . S
H788 C775 0.931 . S
H789 C776 0.929 . S
H790 C784 0.929 . S
H791 C785 0.930 . S
Mn792 O797 2.095 1_556 S
Mn792 O807 2.162 . S
Mn792 O808 2.297 . S
Mn792 O816 2.385 . S
Mn792 O817 2.209 . S
Mn792 O818 2.095 . S
Mn793 O798 2.121 . S
Mn793 N800 2.257 1_554 S
Mn793 N809 2.282 1_554 S
Mn793 O817 2.215 1_554 S
Mn793 O819 2.117 . S
C794 O816 1.234 . S
C794 O817 1.283 . S
C795 O807 1.281 . S
C795 O808 1.236 . S
C796 O818 1.238 1_554 S
C796 O819 1.264 . S
O797 Mn792 2.095 1_554 S
O797 C806 1.250 . S
O798 Mn793 2.121 . S
O798 C806 1.258 . S
C799 N800 1.326 1_554 S
C799 C803 1.460 1_455 S
C799 H805 0.929 . S
N800 Mn793 2.257 1_556 S
N800 C799 1.326 1_556 S
N800 C804 1.362 . S
C801 C802 1.258 . S
C801 C804 1.431 1_655 S
C801 C821 1.449 . S
C802 C801 1.258 . S
C802 C803 1.477 1_556 S
C802 H822 0.931 . S
C803 C799 1.460 1_655 S
C803 C802 1.477 1_554 S
C803 H823 0.930 . S
C804 N800 1.362 . S
C804 C801 1.431 1_455 S
C804 C814 1.476 . S
H805 C799 0.929 . S
C806 O797 1.250 . S
C806 O798 1.258 . S
O807 Mn792 2.162 . S
O807 C795 1.281 . S
O808 Mn792 2.297 . S
O808 C795 1.236 . S
N809 Mn793 2.282 1_556 S
N809 C810 1.328 . S
N809 C814 1.318 . S
C810 N809 1.328 . S
C810 C811 1.457 . S
C810 H815 0.929 . S
C811 C810 1.457 . S
C811 C812 1.291 . S
C811 H824 0.931 . S
C812 C811 1.291 . S
C812 C813 1.373 . S
C812 H825 0.929 . S
C813 C812 1.373 . S
C813 C814 1.396 . S
C813 C820 1.403 1_455 S
C814 C804 1.476 . S
C814 N809 1.318 . S
C814 C813 1.396 . S
H815 C810 0.929 . S
O816 Mn792 2.385 . S
O816 C794 1.234 . S
O817 Mn792 2.209 . S
O817 Mn793 2.215 1_556 S
O817 C794 1.283 . S
O818 Mn792 2.095 . S
O818 C796 1.238 1_556 S
O819 Mn793 2.117 . S
O819 C796 1.264 . S
C820 C813 1.403 1_655 S
C820 C821 1.399 . S
C820 H826 0.929 . S
C821 C801 1.449 . S
C821 C820 1.399 . S
C821 H827 0.930 . S
H822 C802 0.931 . S
H823 C803 0.930 . S
H824 C811 0.931 . S
H825 C812 0.929 . S
H826 C820 0.929 . S
H827 C821 0.930 . S
Mn828 O833 2.095 1_554 S
Mn828 O843 2.162 . S
Mn828 O844 2.297 . S
Mn828 O852 2.385 . S
Mn828 O853 2.209 1_554 S
Mn828 O854 2.094 1_554 S
Mn829 O834 2.121 . S
Mn829 N836 2.257 . S
Mn829 N845 2.282 . S
Mn829 O853 2.215 . S
Mn829 O855 2.117 . S
C830 O852 1.234 . S
C830 O853 1.283 1_554 S
C831 O843 1.281 . S
C831 O844 1.236 . S
C832 O854 1.240 . S
C832 O855 1.264 . S
O833 Mn828 2.095 1_556 S
O833 C842 1.250 . S
O834 Mn829 2.121 . S
O834 C842 1.258 . S
C835 N836 1.326 . S
C835 C839 1.460 . S
C835 H841 0.929 . S
N836 Mn829 2.257 . S
N836 C835 1.326 . S
N836 C840 1.362 . S
C837 C838 1.258 . S
C837 C840 1.431 . S
C837 C857 1.449 . S
C838 C837 1.258 . S
C838 C839 1.477 . S
C838 H858 0.931 . S
C839 C835 1.460 . S
C839 C838 1.477 . S
C839 H859 0.930 . S
C840 N836 1.362 . S
C840 C837 1.431 . S
C840 C850 1.476 . S
H841 C835 0.929 . S
C842 O833 1.250 . S
C842 O834 1.258 . S
O843 Mn828 2.162 . S
O843 C831 1.281 . S
O844 Mn828 2.297 . S
O844 C831 1.236 . S
N845 Mn829 2.282 . S
N845 C846 1.328 . S
N845 C850 1.318 . S
C846 N845 1.328 . S
C846 C847 1.457 . S
C846 H851 0.929 . S
C847 C846 1.457 . S
C847 C848 1.291 . S
C847 H860 0.931 . S
C848 C847 1.291 . S
C848 C849 1.373 . S
C848 H861 0.929 . S
C849 C848 1.373 . S
C849 C850 1.396 . S
C849 C856 1.403 . S
C850 C840 1.476 . S
C850 N845 1.318 . S
C850 C849 1.396 . S
H851 C846 0.929 . S
O852 Mn828 2.385 . S
O852 C830 1.234 . S
O853 Mn828 2.209 1_556 S
O853 Mn829 2.215 . S
O853 C830 1.283 1_556 S
O854 Mn828 2.094 1_556 S
O854 C832 1.240 . S
O855 Mn829 2.117 . S
O855 C832 1.264 . S
C856 C849 1.403 . S
C856 C857 1.399 . S
C856 H862 0.929 . S
C857 C837 1.449 . S
C857 C856 1.399 . S
C857 H863 0.930 . S
H858 C838 0.931 . S
H859 C839 0.930 . S
H860 C847 0.931 . S
H861 C848 0.929 . S
H862 C856 0.929 . S
H863 C857 0.930 . S
Mn864 O869 2.095 . S
Mn864 O879 2.162 . S
Mn864 O880 2.297 . S
Mn864 O888 2.385 . S
Mn864 O889 2.209 . S
Mn864 O890 2.094 . S
Mn865 O870 2.121 . S
Mn865 N872 2.257 . S
Mn865 N881 2.282 . S
Mn865 O889 2.215 . S
Mn865 O891 2.117 . S
C866 O888 1.234 . S
C866 O889 1.283 . S
C867 O879 1.281 . S
C867 O880 1.236 . S
C868 O890 1.240 . S
C868 O891 1.264 . S
O869 Mn864 2.095 . S
O869 C878 1.250 . S
O870 Mn865 2.121 . S
O870 C878 1.258 . S
C871 N872 1.326 . S
C871 C875 1.460 . S
C871 H877 0.929 . S
N872 Mn865 2.257 . S
N872 C871 1.326 . S
N872 C876 1.362 . S
C873 C874 1.258 . S
C873 C876 1.431 . S
C873 C893 1.449 . S
C874 C873 1.258 . S
C874 C875 1.477 . S
C874 H894 0.931 . S
C875 C871 1.460 . S
C875 C874 1.477 . S
C875 H895 0.930 . S
C876 N872 1.362 . S
C876 C873 1.431 . S
C876 C886 1.476 . S
H877 C871 0.929 . S
C878 O869 1.250 . S
C878 O870 1.258 . S
O879 Mn864 2.162 . S
O879 C867 1.281 . S
O880 Mn864 2.297 . S
O880 C867 1.236 . S
N881 Mn865 2.282 . S
N881 C882 1.328 . S
N881 C886 1.318 . S
C882 N881 1.328 . S
C882 C883 1.457 . S
C882 H887 0.929 . S
C883 C882 1.457 . S
C883 C884 1.291 . S
C883 H896 0.931 . S
C884 C883 1.291 . S
C884 C885 1.373 . S
C884 H897 0.929 . S
C885 C884 1.373 . S
C885 C886 1.396 . S
C885 C892 1.403 . S
C886 C876 1.476 . S
C886 N881 1.318 . S
C886 C885 1.396 . S
H887 C882 0.929 . S
O888 Mn864 2.385 . S
O888 C866 1.234 . S
O889 Mn864 2.209 . S
O889 Mn865 2.215 . S
O889 C866 1.283 . S
O890 Mn864 2.094 . S
O890 C868 1.240 . S
O891 Mn865 2.117 . S
O891 C868 1.264 . S
C892 C885 1.403 . S
C892 C893 1.399 . S
C892 H898 0.929 . S
C893 C873 1.449 . S
C893 C892 1.399 . S
C893 H899 0.930 . S
H894 C874 0.931 . S
H895 C875 0.930 . S
H896 C883 0.931 . S
H897 C884 0.929 . S
H898 C892 0.929 . S
H899 C893 0.930 . S
Mn900 O905 2.095 1_545 S
Mn900 O915 2.162 . S
Mn900 O916 2.297 . S
Mn900 O924 2.394 . S
Mn900 O925 2.209 1_545 S
Mn900 O926 2.094 1_545 S
Mn901 O906 2.121 . S
Mn901 N908 2.257 . S
Mn901 N917 2.282 . S
Mn901 O925 2.215 . S
Mn901 O927 2.117 . S
C902 O924 1.186 1_565 S
C902 O925 1.283 . S
C903 O915 1.281 . S
C903 O916 1.236 . S
C904 O926 1.240 . S
C904 O927 1.264 . S
O905 Mn900 2.095 1_565 S
O905 C914 1.250 . S
O906 Mn901 2.121 . S
O906 C914 1.258 . S
C907 N908 1.326 . S
C907 C911 1.460 . S
C907 H913 0.929 . S
N908 Mn901 2.257 . S
N908 C907 1.326 . S
N908 C912 1.362 . S
C909 C910 1.258 . S
C909 C912 1.431 . S
C909 C929 1.449 . S
C910 C909 1.258 . S
C910 C911 1.477 . S
C910 H930 0.931 . S
C911 C907 1.460 . S
C911 C910 1.477 . S
C911 H931 0.930 . S
C912 N908 1.362 . S
C912 C909 1.431 . S
C912 C922 1.476 . S
H913 C907 0.929 . S
C914 O905 1.250 . S
C914 O906 1.258 . S
O915 Mn900 2.162 . S
O915 C903 1.281 . S
O916 Mn900 2.297 . S
O916 C903 1.236 . S
N917 Mn901 2.282 . S
N917 C918 1.328 . S
N917 C922 1.318 . S
C918 N917 1.328 . S
C918 C919 1.457 . S
C918 H923 0.929 . S
C919 C918 1.457 . S
C919 C920 1.291 . S
C919 H932 0.931 . S
C920 C919 1.291 . S
C920 C921 1.373 . S
C920 H933 0.929 . S
C921 C920 1.373 . S
C921 C922 1.396 . S
C921 C928 1.403 . S
C922 C912 1.476 . S
C922 N917 1.318 . S
C922 C921 1.396 . S
H923 C918 0.929 . S
O924 Mn900 2.394 . S
O924 C902 1.186 1_545 S
O925 Mn900 2.209 1_565 S
O925 Mn901 2.215 . S
O925 C902 1.283 . S
O926 Mn900 2.094 1_565 S
O926 C904 1.240 . S
O927 Mn901 2.117 . S
O927 C904 1.264 . S
C928 C921 1.403 . S
C928 C929 1.399 . S
C928 H934 0.929 . S
C929 C909 1.449 . S
C929 C928 1.399 . S
C929 H935 0.930 . S
H930 C910 0.931 . S
H931 C911 0.930 . S
H932 C919 0.931 . S
H933 C920 0.929 . S
H934 C928 0.929 . S
H935 C929 0.930 . S
Mn936 O941 2.095 1_655 S
Mn936 O951 2.162 . S
Mn936 O952 2.297 . S
Mn936 O960 2.383 1_655 S
Mn936 O961 2.209 1_655 S
Mn936 O962 2.094 1_655 S
Mn937 O942 2.121 . S
Mn937 N944 2.257 . S
Mn937 N953 2.282 . S
Mn937 O961 2.215 . S
Mn937 O963 2.117 . S
C938 O960 1.237 . S
C938 O961 1.283 . S
C939 O951 1.281 . S
C939 O952 1.236 . S
C940 O962 1.240 . S
C940 O963 1.264 . S
O941 Mn936 2.095 1_455 S
O941 C950 1.250 . S
O942 Mn937 2.121 . S
O942 C950 1.258 . S
C943 N944 1.326 . S
C943 C947 1.460 . S
C943 H949 0.929 . S
N944 Mn937 2.257 . S
N944 C943 1.326 . S
N944 C948 1.362 . S
C945 C946 1.258 . S
C945 C948 1.431 . S
C945 C965 1.449 . S
C946 C945 1.258 . S
C946 C947 1.477 . S
C946 H966 0.931 . S
C947 C943 1.460 . S
C947 C946 1.477 . S
C947 H967 0.930 . S
C948 N944 1.362 . S
C948 C945 1.431 . S
C948 C958 1.476 . S
H949 C943 0.929 . S
C950 O941 1.250 . S
C950 O942 1.258 . S
O951 Mn936 2.162 . S
O951 C939 1.281 . S
O952 Mn936 2.297 . S
O952 C939 1.236 . S
N953 Mn937 2.282 . S
N953 C954 1.328 . S
N953 C958 1.318 . S
C954 N953 1.328 . S
C954 C955 1.457 . S
C954 H959 0.929 . S
C955 C954 1.457 . S
C955 C956 1.291 . S
C955 H968 0.931 . S
C956 C955 1.291 . S
C956 C957 1.373 . S
C956 H969 0.929 . S
C957 C956 1.373 . S
C957 C958 1.396 . S
C957 C964 1.403 . S
C958 C948 1.476 . S
C958 N953 1.318 . S
C958 C957 1.396 . S
H959 C954 0.929 . S
O960 Mn936 2.383 1_455 S
O960 C938 1.237 . S
O961 Mn936 2.209 1_455 S
O961 Mn937 2.215 . S
O961 C938 1.283 . S
O962 Mn936 2.094 1_455 S
O962 C940 1.240 . S
O963 Mn937 2.117 . S
O963 C940 1.264 . S
C964 C957 1.403 . S
C964 C965 1.399 . S
C964 H970 0.929 . S
C965 C945 1.449 . S
C965 C964 1.399 . S
C965 H971 0.930 . S
H966 C946 0.931 . S
H967 C947 0.930 . S
H968 C955 0.931 . S
H969 C956 0.929 . S
H970 C964 0.929 . S
H971 C965 0.930 . S
Mn972 O977 2.095 1_544 S
Mn972 O987 2.162 . S
Mn972 O988 2.297 . S
Mn972 O996 2.395 . S
Mn972 O997 2.209 1_545 S
Mn972 O998 2.094 . S
Mn973 O978 2.121 . S
Mn973 N980 2.257 1_556 S
Mn973 N989 2.282 1_556 S
Mn973 O997 2.215 1_556 S
Mn973 O999 2.117 . S
C974 O996 1.198 1_565 S
C974 O997 1.283 . S
C975 O987 1.281 . S
C975 O988 1.236 . S
C976 O998 1.240 1_566 S
C976 O999 1.264 . S
O977 Mn972 2.095 1_566 S
O977 C986 1.250 . S
O978 Mn973 2.121 . S
O978 C986 1.258 . S
C979 N980 1.326 1_556 S
C979 C983 1.460 . S
C979 H985 0.929 . S
N980 Mn973 2.257 1_554 S
N980 C979 1.326 1_554 S
N980 C984 1.362 . S
C981 C982 1.258 . S
C981 C984 1.431 . S
C981 C1001 1.449 . S
C982 C981 1.258 . S
C982 C983 1.477 1_554 S
C982 H1002 0.931 . S
C983 C979 1.460 . S
C983 C982 1.477 1_556 S
C983 H1003 0.930 . S
C984 N980 1.362 . S
C984 C981 1.431 . S
C984 C994 1.476 . S
H985 C979 0.929 . S
C986 O977 1.250 . S
C986 O978 1.258 . S
O987 Mn972 2.162 . S
O987 C975 1.281 . S
O988 Mn972 2.297 . S
O988 C975 1.236 . S
N989 Mn973 2.282 1_554 S
N989 C990 1.328 . S
N989 C994 1.318 . S
C990 N989 1.328 . S
C990 C991 1.457 . S
C990 H995 0.929 . S
C991 C990 1.457 . S
C991 C992 1.291 . S
C991 H1004 0.931 . S
C992 C991 1.291 . S
C992 C993 1.373 . S
C992 H1005 0.929 . S
C993 C992 1.373 . S
C993 C994 1.396 . S
C993 C1000 1.403 . S
C994 C984 1.476 . S
C994 N989 1.318 . S
C994 C993 1.396 . S
H995 C990 0.929 . S
O996 Mn972 2.395 . S
O996 C974 1.198 1_545 S
O997 Mn972 2.209 1_565 S
O997 Mn973 2.215 1_554 S
O997 C974 1.283 . S
O998 Mn972 2.094 . S
O998 C976 1.240 1_544 S
O999 Mn973 2.117 . S
O999 C976 1.264 . S
C1000 C993 1.403 . S
C1000 C1001 1.399 . S
C1000 H1006 0.929 . S
C1001 C981 1.449 . S
C1001 C1000 1.399 . S
C1001 H1007 0.930 . S
H1002 C982 0.931 . S
H1003 C983 0.930 . S
H1004 C991 0.931 . S
H1005 C992 0.929 . S
H1006 C1000 0.929 . S
H1007 C1001 0.930 . S
Mn1008 O1013 2.095 1_654 S
Mn1008 O1023 2.162 . S
Mn1008 O1024 2.297 . S
Mn1008 O1032 2.399 . S
Mn1008 O1033 2.209 1_655 S
Mn1008 O1034 2.094 . S
Mn1009 O1014 2.121 . S
Mn1009 N1016 2.257 1_556 S
Mn1009 N1025 2.282 1_556 S
Mn1009 O1033 2.215 1_556 S
Mn1009 O1035 2.117 . S
C1010 O1032 1.165 1_455 S
C1010 O1033 1.283 . S
C1011 O1023 1.281 . S
C1011 O1024 1.236 . S
C1012 O1034 1.240 1_456 S
C1012 O1035 1.264 . S
O1013 Mn1008 2.095 1_456 S
O1013 C1022 1.250 . S
O1014 Mn1009 2.121 . S
O1014 C1022 1.258 . S
C1015 N1016 1.326 1_556 S
C1015 C1019 1.460 . S
C1015 H1021 0.929 . S
N1016 Mn1009 2.257 1_554 S
N1016 C1015 1.326 1_554 S
N1016 C1020 1.362 . S
C1017 C1018 1.258 . S
C1017 C1020 1.431 . S
C1017 C1037 1.449 . S
C1018 C1017 1.258 . S
C1018 C1019 1.477 1_554 S
C1018 H1038 0.931 . S
C1019 C1015 1.460 . S
C1019 C1018 1.477 1_556 S
C1019 H1039 0.930 . S
C1020 N1016 1.362 . S
C1020 C1017 1.431 . S
C1020 C1030 1.476 . S
H1021 C1015 0.929 . S
C1022 O1013 1.250 . S
C1022 O1014 1.258 . S
O1023 Mn1008 2.162 . S
O1023 C1011 1.281 . S
O1024 Mn1008 2.297 . S
O1024 C1011 1.236 . S
N1025 Mn1009 2.282 1_554 S
N1025 C1026 1.328 . S
N1025 C1030 1.318 . S
C1026 N1025 1.328 . S
C1026 C1027 1.457 . S
C1026 H1031 0.929 . S
C1027 C1026 1.457 . S
C1027 C1028 1.291 . S
C1027 H1040 0.931 . S
C1028 C1027 1.291 . S
C1028 C1029 1.373 . S
C1028 H1041 0.929 . S
C1029 C1028 1.373 . S
C1029 C1030 1.396 . S
C1029 C1036 1.403 . S
C1030 C1020 1.476 . S
C1030 N1025 1.318 . S
C1030 C1029 1.396 . S
H1031 C1026 0.929 . S
O1032 Mn1008 2.399 . S
O1032 C1010 1.165 1_655 S
O1033 Mn1008 2.209 1_455 S
O1033 Mn1009 2.215 1_554 S
O1033 C1010 1.283 . S
O1034 Mn1008 2.094 . S
O1034 C1012 1.240 1_654 S
O1035 Mn1009 2.117 . S
O1035 C1012 1.264 . S
C1036 C1029 1.403 . S
C1036 C1037 1.399 . S
C1036 H1042 0.929 . S
C1037 C1017 1.449 . S
C1037 C1036 1.399 . S
C1037 H1043 0.930 . S
H1038 C1018 0.931 . S
H1039 C1019 0.930 . S
H1040 C1027 0.931 . S
H1041 C1028 0.929 . S
H1042 C1036 0.929 . S
H1043 C1037 0.930 . S
Mn1044 O1049 2.095 1_554 S
Mn1044 O1059 2.162 . S
Mn1044 O1060 2.297 . S
Mn1044 O1068 2.385 . S
Mn1044 O1069 2.209 . S
Mn1044 O1070 2.094 . S
Mn1045 O1050 2.121 . S
Mn1045 N1052 2.257 1_556 S
Mn1045 N1061 2.282 1_556 S
Mn1045 O1069 2.215 1_556 S
Mn1045 O1071 2.117 . S
C1046 O1068 1.234 . S
C1046 O1069 1.283 . S
C1047 O1059 1.281 . S
C1047 O1060 1.236 . S
C1048 O1070 1.240 1_556 S
C1048 O1071 1.264 . S
O1049 Mn1044 2.095 1_556 S
O1049 C1058 1.250 . S
O1050 Mn1045 2.121 . S
O1050 C1058 1.258 . S
C1051 N1052 1.326 1_556 S
C1051 C1055 1.460 . S
C1051 H1057 0.929 . S
N1052 Mn1045 2.257 1_554 S
N1052 C1051 1.326 1_554 S
N1052 C1056 1.362 . S
C1053 C1054 1.258 . S
C1053 C1056 1.431 . S
C1053 C1073 1.449 . S
C1054 C1053 1.258 . S
C1054 C1055 1.477 1_554 S
C1054 H1074 0.931 . S
C1055 C1051 1.460 . S
C1055 C1054 1.477 1_556 S
C1055 H1075 0.930 . S
C1056 N1052 1.362 . S
C1056 C1053 1.431 . S
C1056 C1066 1.476 . S
H1057 C1051 0.929 . S
C1058 O1049 1.250 . S
C1058 O1050 1.258 . S
O1059 Mn1044 2.162 . S
O1059 C1047 1.281 . S
O1060 Mn1044 2.297 . S
O1060 C1047 1.236 . S
N1061 Mn1045 2.282 1_554 S
N1061 C1062 1.328 . S
N1061 C1066 1.318 . S
C1062 N1061 1.328 . S
C1062 C1063 1.457 . S
C1062 H1067 0.929 . S
C1063 C1062 1.457 . S
C1063 C1064 1.291 . S
C1063 H1076 0.931 . S
C1064 C1063 1.291 . S
C1064 C1065 1.373 . S
C1064 H1077 0.929 . S
C1065 C1064 1.373 . S
C1065 C1066 1.396 . S
C1065 C1072 1.403 . S
C1066 C1056 1.476 . S
C1066 N1061 1.318 . S
C1066 C1065 1.396 . S
H1067 C1062 0.929 . S
O1068 Mn1044 2.385 . S
O1068 C1046 1.234 . S
O1069 Mn1044 2.209 . S
O1069 Mn1045 2.215 1_554 S
O1069 C1046 1.283 . S
O1070 Mn1044 2.094 . S
O1070 C1048 1.240 1_554 S
O1071 Mn1045 2.117 . S
O1071 C1048 1.264 . S
C1072 C1065 1.403 . S
C1072 C1073 1.399 . S
C1072 H1078 0.929 . S
C1073 C1053 1.449 . S
C1073 C1072 1.399 . S
C1073 H1079 0.930 . S
H1074 C1054 0.931 . S
H1075 C1055 0.930 . S
H1076 C1063 0.931 . S
H1077 C1064 0.929 . S
H1078 C1072 0.929 . S
H1079 C1073 0.930 . S
Mn1080 O1085 2.095 1_455 S
Mn1080 O1095 2.162 . S
Mn1080 O1096 2.297 1_455 S
Mn1080 O1104 2.385 . S
Mn1080 O1105 2.209 1_455 S
Mn1080 O1106 2.094 . S
Mn1081 O1086 2.121 . S
Mn1081 N1088 2.257 . S
Mn1081 N1097 2.282 . S
Mn1081 O1105 2.215 . S
Mn1081 O1107 2.117 1_655 S
C1082 O1104 1.234 . S
C1082 O1105 1.283 1_455 S
C1083 O1095 1.281 . S
C1083 O1096 1.236 1_455 S
C1084 O1106 1.240 . S
C1084 O1107 1.264 . S
O1085 Mn1080 2.095 1_655 S
O1085 C1094 1.250 . S
O1086 Mn1081 2.121 . S
O1086 C1094 1.258 . S
C1087 N1088 1.326 . S
C1087 C1091 1.460 . S
C1087 H1093 0.929 . S
N1088 Mn1081 2.257 . S
N1088 C1087 1.326 . S
N1088 C1092 1.362 . S
C1089 C1090 1.258 . S
C1089 C1092 1.431 . S
C1089 C1109 1.449 . S
C1090 C1089 1.258 . S
C1090 C1091 1.477 . S
C1090 H1110 0.931 . S
C1091 C1087 1.460 . S
C1091 C1090 1.477 . S
C1091 H1111 0.930 . S
C1092 N1088 1.362 . S
C1092 C1089 1.431 . S
C1092 C1102 1.476 . S
H1093 C1087 0.929 . S
C1094 O1085 1.250 . S
C1094 O1086 1.258 . S
O1095 Mn1080 2.162 . S
O1095 C1083 1.281 . S
O1096 Mn1080 2.297 1_655 S
O1096 C1083 1.236 1_655 S
N1097 Mn1081 2.282 . S
N1097 C1098 1.328 1_655 S
N1097 C1102 1.318 . S
C1098 N1097 1.328 1_455 S
C1098 C1099 1.457 . S
C1098 H1103 0.929 . S
C1099 C1098 1.457 . S
C1099 C1100 1.291 . S
C1099 H1112 0.931 . S
C1100 C1099 1.291 . S
C1100 C1101 1.373 1_455 S
C1100 H1113 0.929 . S
C1101 C1100 1.373 1_655 S
C1101 C1102 1.396 . S
C1101 C1108 1.403 . S
C1102 C1092 1.476 . S
C1102 N1097 1.318 . S
C1102 C1101 1.396 . S
H1103 C1098 0.929 . S
O1104 Mn1080 2.385 . S
O1104 C1082 1.234 . S
O1105 Mn1080 2.209 1_655 S
O1105 Mn1081 2.215 . S
O1105 C1082 1.283 1_655 S
O1106 Mn1080 2.094 . S
O1106 C1084 1.240 . S
O1107 Mn1081 2.117 1_455 S
O1107 C1084 1.264 . S
C1108 C1101 1.403 . S
C1108 C1109 1.399 . S
C1108 H1114 0.929 . S
C1109 C1089 1.449 . S
C1109 C1108 1.399 . S
C1109 H1115 0.930 . S
H1110 C1090 0.931 . S
H1111 C1091 0.930 . S
H1112 C1099 0.931 . S
H1113 C1100 0.929 . S
H1114 C1108 0.929 . S
H1115 C1109 0.930 . S
Mn1116 O1121 2.095 . S
Mn1116 O1131 2.162 . S
Mn1116 O1132 2.297 . S
Mn1116 O1140 2.385 . S
Mn1116 O1141 2.209 . S
Mn1116 O1142 2.094 . S
Mn1117 O1122 2.121 . S
Mn1117 N1124 2.257 . S
Mn1117 N1133 2.282 . S
Mn1117 O1141 2.215 . S
Mn1117 O1143 2.117 . S
C1118 O1140 1.234 . S
C1118 O1141 1.283 . S
C1119 O1131 1.281 . S
C1119 O1132 1.236 . S
C1120 O1142 1.240 . S
C1120 O1143 1.264 . S
O1121 Mn1116 2.095 . S
O1121 C1130 1.250 . S
O1122 Mn1117 2.121 . S
O1122 C1130 1.258 . S
C1123 N1124 1.326 . S
C1123 C1127 1.460 . S
C1123 H1129 0.929 . S
N1124 Mn1117 2.257 . S
N1124 C1123 1.326 . S
N1124 C1128 1.362 . S
C1125 C1126 1.258 . S
C1125 C1128 1.431 . S
C1125 C1145 1.449 . S
C1126 C1125 1.258 . S
C1126 C1127 1.477 . S
C1126 H1146 0.931 . S
C1127 C1123 1.460 . S
C1127 C1126 1.477 . S
C1127 H1147 0.930 . S
C1128 N1124 1.362 . S
C1128 C1125 1.431 . S
C1128 C1138 1.476 . S
H1129 C1123 0.929 . S
C1130 O1121 1.250 . S
C1130 O1122 1.258 . S
O1131 Mn1116 2.162 . S
O1131 C1119 1.281 . S
O1132 Mn1116 2.297 . S
O1132 C1119 1.236 . S
N1133 Mn1117 2.282 . S
N1133 C1134 1.328 . S
N1133 C1138 1.318 . S
C1134 N1133 1.328 . S
C1134 C1135 1.457 . S
C1134 H1139 0.929 . S
C1135 C1134 1.457 . S
C1135 C1136 1.291 . S
C1135 H1148 0.931 . S
C1136 C1135 1.291 . S
C1136 C1137 1.373 . S
C1136 H1149 0.929 . S
C1137 C1136 1.373 . S
C1137 C1138 1.396 . S
C1137 C1144 1.403 . S
C1138 C1128 1.476 . S
C1138 N1133 1.318 . S
C1138 C1137 1.396 . S
H1139 C1134 0.929 . S
O1140 Mn1116 2.385 . S
O1140 C1118 1.234 . S
O1141 Mn1116 2.209 . S
O1141 Mn1117 2.215 . S
O1141 C1118 1.283 . S
O1142 Mn1116 2.094 . S
O1142 C1120 1.240 . S
O1143 Mn1117 2.117 . S
O1143 C1120 1.264 . S
C1144 C1137 1.403 . S
C1144 C1145 1.399 . S
C1144 H1150 0.929 . S
C1145 C1125 1.449 . S
C1145 C1144 1.399 . S
C1145 H1151 0.930 . S
H1146 C1126 0.931 . S
H1147 C1127 0.930 . S
H1148 C1135 0.931 . S
H1149 C1136 0.929 . S
H1150 C1144 0.929 . S
H1151 C1145 0.930 . S
Mn1152 O1157 2.095 1_565 S
Mn1152 O1167 2.162 . S
Mn1152 O1168 2.297 1_565 S
Mn1152 O1176 2.385 . S
Mn1152 O1177 2.209 1_565 S
Mn1152 O1178 2.094 . S
Mn1153 O1158 2.121 . S
Mn1153 N1160 2.257 . S
Mn1153 N1169 2.282 . S
Mn1153 O1177 2.215 . S
Mn1153 O1179 2.117 1_545 S
C1154 O1176 1.234 . S
C1154 O1177 1.283 1_565 S
C1155 O1167 1.281 . S
C1155 O1168 1.236 1_565 S
C1156 O1178 1.240 . S
C1156 O1179 1.264 . S
O1157 Mn1152 2.095 1_545 S
O1157 C1166 1.250 . S
O1158 Mn1153 2.121 . S
O1158 C1166 1.258 . S
C1159 N1160 1.326 . S
C1159 C1163 1.460 . S
C1159 H1165 0.929 . S
N1160 Mn1153 2.257 . S
N1160 C1159 1.326 . S
N1160 C1164 1.362 . S
C1161 C1162 1.258 . S
C1161 C1164 1.431 . S
C1161 C1181 1.449 . S
C1162 C1161 1.258 . S
C1162 C1163 1.477 . S
C1162 H1182 0.931 . S
C1163 C1159 1.460 . S
C1163 C1162 1.477 . S
C1163 H1183 0.930 . S
C1164 N1160 1.362 . S
C1164 C1161 1.431 . S
C1164 C1174 1.476 . S
H1165 C1159 0.929 . S
C1166 O1157 1.250 . S
C1166 O1158 1.258 . S
O1167 Mn1152 2.162 . S
O1167 C1155 1.281 . S
O1168 Mn1152 2.297 1_545 S
O1168 C1155 1.236 1_545 S
N1169 Mn1153 2.282 . S
N1169 C1170 1.328 1_545 S
N1169 C1174 1.318 . S
C1170 N1169 1.328 1_565 S
C1170 C1171 1.457 . S
C1170 H1175 0.929 . S
C1171 C1170 1.457 . S
C1171 C1172 1.291 . S
C1171 H1184 0.931 . S
C1172 C1171 1.291 . S
C1172 C1173 1.373 1_565 S
C1172 H1185 0.929 . S
C1173 C1172 1.373 1_545 S
C1173 C1174 1.396 . S
C1173 C1180 1.403 . S
C1174 C1164 1.476 . S
C1174 N1169 1.318 . S
C1174 C1173 1.396 . S
H1175 C1170 0.929 . S
O1176 Mn1152 2.385 . S
O1176 C1154 1.234 . S
O1177 Mn1152 2.209 1_545 S
O1177 Mn1153 2.215 . S
O1177 C1154 1.283 1_545 S
O1178 Mn1152 2.094 . S
O1178 C1156 1.240 . S
O1179 Mn1153 2.117 1_565 S
O1179 C1156 1.264 . S
C1180 C1173 1.403 . S
C1180 C1181 1.399 . S
C1180 H1186 0.929 . S
C1181 C1161 1.449 . S
C1181 C1180 1.399 . S
C1181 H1187 0.930 . S
H1182 C1162 0.931 . S
H1183 C1163 0.930 . S
H1184 C1171 0.931 . S
H1185 C1172 0.929 . S
H1186 C1180 0.929 . S
H1187 C1181 0.930 . S
Mn1188 O1193 2.095 . S
Mn1188 O1203 2.162 . S
Mn1188 O1204 2.297 . S
Mn1188 O1212 2.385 . S
Mn1188 O1213 2.209 . S
Mn1188 O1214 2.094 . S
Mn1189 O1194 2.121 . S
Mn1189 N1196 2.257 . S
Mn1189 N1205 2.282 . S
Mn1189 O1213 2.215 . S
Mn1189 O1215 2.117 . S
C1190 O1212 1.234 . S
C1190 O1213 1.283 . S
C1191 O1203 1.281 . S
C1191 O1204 1.236 . S
C1192 O1214 1.240 . S
C1192 O1215 1.264 . S
O1193 Mn1188 2.095 . S
O1193 C1202 1.250 . S
O1194 Mn1189 2.121 . S
O1194 C1202 1.258 . S
C1195 N1196 1.326 . S
C1195 C1199 1.460 . S
C1195 H1201 0.929 . S
N1196 Mn1189 2.257 . S
N1196 C1195 1.326 . S
N1196 C1200 1.362 . S
C1197 C1198 1.258 . S
C1197 C1200 1.431 . S
C1197 C1217 1.449 . S
C1198 C1197 1.258 . S
C1198 C1199 1.477 . S
C1198 H1218 0.931 . S
C1199 C1195 1.460 . S
C1199 C1198 1.477 . S
C1199 H1219 0.930 . S
C1200 N1196 1.362 . S
C1200 C1197 1.431 . S
C1200 C1210 1.476 . S
H1201 C1195 0.929 . S
C1202 O1193 1.250 . S
C1202 O1194 1.258 . S
O1203 Mn1188 2.162 . S
O1203 C1191 1.281 . S
O1204 Mn1188 2.297 . S
O1204 C1191 1.236 . S
N1205 Mn1189 2.282 . S
N1205 C1206 1.328 . S
N1205 C1210 1.318 . S
C1206 N1205 1.328 . S
C1206 C1207 1.457 . S
C1206 H1211 0.929 . S
C1207 C1206 1.457 . S
C1207 C1208 1.291 . S
C1207 H1220 0.931 . S
C1208 C1207 1.291 . S
C1208 C1209 1.373 . S
C1208 H1221 0.929 . S
C1209 C1208 1.373 . S
C1209 C1210 1.396 . S
C1209 C1216 1.403 . S
C1210 C1200 1.476 . S
C1210 N1205 1.318 . S
C1210 C1209 1.396 . S
H1211 C1206 0.929 . S
O1212 Mn1188 2.385 . S
O1212 C1190 1.234 . S
O1213 Mn1188 2.209 . S
O1213 Mn1189 2.215 . S
O1213 C1190 1.283 . S
O1214 Mn1188 2.094 . S
O1214 C1192 1.240 . S
O1215 Mn1189 2.117 . S
O1215 C1192 1.264 . S
C1216 C1209 1.403 . S
C1216 C1217 1.399 . S
C1216 H1222 0.929 . S
C1217 C1197 1.449 . S
C1217 C1216 1.399 . S
C1217 H1223 0.930 . S
H1218 C1198 0.931 . S
H1219 C1199 0.930 . S
H1220 C1207 0.931 . S
H1221 C1208 0.929 . S
H1222 C1216 0.929 . S
H1223 C1217 0.930 . S
Mn1224 O1229 2.095 1_545 S
Mn1224 O1239 2.162 . S
Mn1224 O1240 2.297 . S
Mn1224 O1248 2.388 . S
Mn1224 O1249 2.209 1_545 S
Mn1224 O1250 2.094 1_545 S
Mn1225 O1230 2.121 . S
Mn1225 N1232 2.257 . S
Mn1225 N1241 2.282 . S
Mn1225 O1249 2.215 . S
Mn1225 O1251 2.117 . S
C1226 O1248 1.231 1_565 S
C1226 O1249 1.283 . S
C1227 O1239 1.281 . S
C1227 O1240 1.236 . S
C1228 O1250 1.240 . S
C1228 O1251 1.264 . S
O1229 Mn1224 2.095 1_565 S
O1229 C1238 1.250 . S
O1230 Mn1225 2.121 . S
O1230 C1238 1.258 . S
C1231 N1232 1.326 . S
C1231 C1235 1.460 . S
C1231 H1237 0.929 . S
N1232 Mn1225 2.257 . S
N1232 C1231 1.326 . S
N1232 C1236 1.362 . S
C1233 C1234 1.258 . S
C1233 C1236 1.431 . S
C1233 C1253 1.449 . S
C1234 C1233 1.258 . S
C1234 C1235 1.477 . S
C1234 H1254 0.931 . S
C1235 C1231 1.460 . S
C1235 C1234 1.477 . S
C1235 H1255 0.930 . S
C1236 N1232 1.362 . S
C1236 C1233 1.431 . S
C1236 C1246 1.476 . S
H1237 C1231 0.929 . S
C1238 O1229 1.250 . S
C1238 O1230 1.258 . S
O1239 Mn1224 2.162 . S
O1239 C1227 1.281 . S
O1240 Mn1224 2.297 . S
O1240 C1227 1.236 . S
N1241 Mn1225 2.282 . S
N1241 C1242 1.328 . S
N1241 C1246 1.318 . S
C1242 N1241 1.328 . S
C1242 C1243 1.457 . S
C1242 H1247 0.929 . S
C1243 C1242 1.457 . S
C1243 C1244 1.291 . S
C1243 H1256 0.931 . S
C1244 C1243 1.291 . S
C1244 C1245 1.373 . S
C1244 H1257 0.929 . S
C1245 C1244 1.373 . S
C1245 C1246 1.396 . S
C1245 C1252 1.403 . S
C1246 C1236 1.476 . S
C1246 N1241 1.318 . S
C1246 C1245 1.396 . S
H1247 C1242 0.929 . S
O1248 Mn1224 2.388 . S
O1248 C1226 1.231 1_545 S
O1249 Mn1224 2.209 1_565 S
O1249 Mn1225 2.215 . S
O1249 C1226 1.283 . S
O1250 Mn1224 2.094 1_565 S
O1250 C1228 1.240 . S
O1251 Mn1225 2.117 . S
O1251 C1228 1.264 . S
C1252 C1245 1.403 . S
C1252 C1253 1.399 . S
C1252 H1258 0.929 . S
C1253 C1233 1.449 . S
C1253 C1252 1.399 . S
C1253 H1259 0.930 . S
H1254 C1234 0.931 . S
H1255 C1235 0.930 . S
H1256 C1243 0.931 . S
H1257 C1244 0.929 . S
H1258 C1252 0.929 . S
H1259 C1253 0.930 . S
Mn1260 O1265 2.095 1_455 S
Mn1260 O1275 2.162 . S
Mn1260 O1276 2.277 1_455 S
Mn1260 O1284 2.385 . S
Mn1260 O1285 2.209 . S
Mn1260 O1286 2.094 . S
Mn1261 O1266 2.121 . S
Mn1261 N1268 2.257 . S
Mn1261 N1277 2.282 1_655 S
Mn1261 O1285 2.215 1_655 S
Mn1261 O1287 2.117 1_655 S
C1262 O1284 1.234 . S
C1262 O1285 1.283 . S
C1263 O1275 1.281 . S
C1263 O1276 1.160 1_455 S
C1264 O1286 1.240 . S
C1264 O1287 1.264 . S
O1265 Mn1260 2.095 1_655 S
O1265 C1274 1.250 . S
O1266 Mn1261 2.121 . S
O1266 C1274 1.258 . S
C1267 N1268 1.326 . S
C1267 C1271 1.460 . S
C1267 H1273 0.929 . S
N1268 Mn1261 2.257 . S
N1268 C1267 1.326 . S
N1268 C1272 1.362 . S
C1269 C1270 1.258 . S
C1269 C1272 1.431 . S
C1269 C1289 1.449 1_655 S
C1270 C1269 1.258 . S
C1270 C1271 1.477 . S
C1270 H1290 0.931 . S
C1271 C1267 1.460 . S
C1271 C1270 1.477 . S
C1271 H1291 0.930 . S
C1272 N1268 1.362 . S
C1272 C1269 1.431 . S
C1272 C1282 1.476 1_655 S
H1273 C1267 0.929 . S
C1274 O1265 1.250 . S
C1274 O1266 1.258 . S
O1275 Mn1260 2.162 . S
O1275 C1263 1.281 . S
O1276 Mn1260 2.277 1_655 S
O1276 C1263 1.160 1_655 S
N1277 Mn1261 2.282 1_455 S
N1277 C1278 1.328 . S
N1277 C1282 1.318 . S
C1278 N1277 1.328 . S
C1278 C1279 1.457 . S
C1278 H1283 0.929 . S
C1279 C1278 1.457 . S
C1279 C1280 1.291 . S
C1279 H1292 0.931 . S
C1280 C1279 1.291 . S
C1280 C1281 1.373 . S
C1280 H1293 0.929 . S
C1281 C1280 1.373 . S
C1281 C1282 1.396 . S
C1281 C1288 1.403 . S
C1282 C1272 1.476 1_455 S
C1282 N1277 1.318 . S
C1282 C1281 1.396 . S
H1283 C1278 0.929 . S
O1284 Mn1260 2.385 . S
O1284 C1262 1.234 . S
O1285 Mn1260 2.209 . S
O1285 Mn1261 2.215 1_455 S
O1285 C1262 1.283 . S
O1286 Mn1260 2.094 . S
O1286 C1264 1.240 . S
O1287 Mn1261 2.117 1_455 S
O1287 C1264 1.264 . S
C1288 C1281 1.403 . S
C1288 C1289 1.399 . S
C1288 H1294 0.929 . S
C1289 C1269 1.449 1_455 S
C1289 C1288 1.399 . S
C1289 H1295 0.930 . S
H1290 C1270 0.931 . S
H1291 C1271 0.930 . S
H1292 C1279 0.931 . S
H1293 C1280 0.929 . S
H1294 C1288 0.929 . S
H1295 C1289 0.930 . S
C1296 C1297 1.349 . S
C1296 C1298 1.327 . S
C1296 H1321 0.950 . S
C1297 C1296 1.349 . S
C1297 C1313 1.349 . S
C1298 C1296 1.327 . S
C1298 C1317 1.429 . S
C1298 H1322 0.950 . S
C1299 C1316 1.574 . S
C1299 C1318 1.368 . S
C1299 H1323 0.949 . S
H1300 C1304 0.949 . S
C1301 C1302 1.349 . S
C1301 C1303 1.327 . S
C1301 H1324 0.950 . S
C1302 C1301 1.349 . S
C1302 C1314 1.349 . S
C1303 C1301 1.327 . S
C1303 C1319 1.429 . S
C1303 H1325 0.950 . S
C1304 H1300 0.949 . S
C1304 C1312 1.574 . S
C1304 C1320 1.368 . S
H1305 C1313 0.950 . S
H1306 C1311 0.950 . S
H1307 C1312 0.949 . S
H1308 C1314 0.950 . S
H1309 C1315 0.950 . S
H1310 C1316 0.949 . S
C1311 H1306 0.950 . S
C1311 C1313 1.327 . S
C1311 C1317 1.429 . S
C1312 C1304 1.574 . S
C1312 H1307 0.949 . S
C1312 C1318 1.368 . S
C1313 C1297 1.349 . S
C1313 H1305 0.950 . S
C1313 C1311 1.327 . S
C1314 C1302 1.349 . S
C1314 H1308 0.950 . S
C1314 C1315 1.327 . S
C1315 H1309 0.950 . S
C1315 C1314 1.327 . S
C1315 C1319 1.429 . S
C1316 C1299 1.574 . S
C1316 H1310 0.949 . S
C1316 C1320 1.368 . S
C1317 C1298 1.429 . S
C1317 C1311 1.429 . S
C1317 C1318 1.523 . S
C1318 C1299 1.368 . S
C1318 C1312 1.368 . S
C1318 C1317 1.523 . S
C1319 C1303 1.429 . S
C1319 C1315 1.429 . S
C1319 C1320 1.523 . S
C1320 C1304 1.368 . S
C1320 C1316 1.368 . S
C1320 C1319 1.523 . S
H1321 C1296 0.950 . S
H1322 C1298 0.950 . S
H1323 C1299 0.949 . S
H1324 C1301 0.950 . S
H1325 C1303 0.950 . S
C1326 C1327 1.349 . S
C1326 C1328 1.327 . S
C1326 H1351 0.950 . S
C1327 C1326 1.349 . S
C1327 C1343 1.349 . S
C1328 C1326 1.327 . S
C1328 C1347 1.429 . S
C1328 H1352 0.950 . S
C1329 C1346 1.574 . S
C1329 C1348 1.368 . S
C1329 H1353 0.949 . S
H1330 C1334 0.949 . S
C1331 C1332 1.349 . S
C1331 C1333 1.327 . S
C1331 H1354 0.950 . S
C1332 C1331 1.349 . S
C1332 C1344 1.349 . S
C1333 C1331 1.327 . S
C1333 C1349 1.429 . S
C1333 H1355 0.950 . S
C1334 H1330 0.949 . S
C1334 C1342 1.574 . S
C1334 C1350 1.368 . S
H1335 C1343 0.950 . S
H1336 C1341 0.950 . S
H1337 C1342 0.949 . S
H1338 C1344 0.950 . S
H1339 C1345 0.950 . S
H1340 C1346 0.949 . S
C1341 H1336 0.950 . S
C1341 C1343 1.327 . S
C1341 C1347 1.429 . S
C1342 C1334 1.574 . S
C1342 H1337 0.949 . S
C1342 C1348 1.368 . S
C1343 C1327 1.349 . S
C1343 H1335 0.950 . S
C1343 C1341 1.327 . S
C1344 C1332 1.349 . S
C1344 H1338 0.950 . S
C1344 C1345 1.327 . S
C1345 H1339 0.950 . S
C1345 C1344 1.327 . S
C1345 C1349 1.429 . S
C1346 C1329 1.574 . S
C1346 H1340 0.949 . S
C1346 C1350 1.368 . S
C1347 C1328 1.429 . S
C1347 C1341 1.429 . S
C1347 C1348 1.523 . S
C1348 C1329 1.368 . S
C1348 C1342 1.368 . S
C1348 C1347 1.523 . S
C1349 C1333 1.429 . S
C1349 C1345 1.429 . S
C1349 C1350 1.523 . S
C1350 C1334 1.368 . S
C1350 C1346 1.368 . S
C1350 C1349 1.523 . S
H1351 C1326 0.950 . S
H1352 C1328 0.950 . S
H1353 C1329 0.949 . S
H1354 C1331 0.950 . S
H1355 C1333 0.950 . S
C1356 C1357 1.349 . S
C1356 C1358 1.327 . S
C1356 H1381 0.950 . S
C1357 C1356 1.349 . S
C1357 C1373 1.349 . S
C1358 C1356 1.327 . S
C1358 C1377 1.429 . S
C1358 H1382 0.950 . S
C1359 C1376 1.574 . S
C1359 C1378 1.368 . S
C1359 H1383 0.949 . S
H1360 C1364 0.949 . S
C1361 C1362 1.349 . S
C1361 C1363 1.327 . S
C1361 H1384 0.950 . S
C1362 C1361 1.349 . S
C1362 C1374 1.349 . S
C1363 C1361 1.327 . S
C1363 C1379 1.429 . S
C1363 H1385 0.950 . S
C1364 H1360 0.949 . S
C1364 C1372 1.574 . S
C1364 C1380 1.368 . S
H1365 C1373 0.950 . S
H1366 C1371 0.950 . S
H1367 C1372 0.949 . S
H1368 C1374 0.950 . S
H1369 C1375 0.950 . S
H1370 C1376 0.949 . S
C1371 H1366 0.950 . S
C1371 C1373 1.327 . S
C1371 C1377 1.429 . S
C1372 C1364 1.574 . S
C1372 H1367 0.949 . S
C1372 C1378 1.368 . S
C1373 C1357 1.349 . S
C1373 H1365 0.950 . S
C1373 C1371 1.327 . S
C1374 C1362 1.349 . S
C1374 H1368 0.950 . S
C1374 C1375 1.327 . S
C1375 H1369 0.950 . S
C1375 C1374 1.327 . S
C1375 C1379 1.429 . S
C1376 C1359 1.574 . S
C1376 H1370 0.949 . S
C1376 C1380 1.368 . S
C1377 C1358 1.429 . S
C1377 C1371 1.429 . S
C1377 C1378 1.523 . S
C1378 C1359 1.368 . S
C1378 C1372 1.368 . S
C1378 C1377 1.523 . S
C1379 C1363 1.429 . S
C1379 C1375 1.429 . S
C1379 C1380 1.523 . S
C1380 C1364 1.368 . S
C1380 C1376 1.368 . S
C1380 C1379 1.523 . S
H1381 C1356 0.950 . S
H1382 C1358 0.950 . S
H1383 C1359 0.949 . S
H1384 C1361 0.950 . S
H1385 C1363 0.950 . S
C1386 C1387 1.349 . S
C1386 C1388 1.327 . S
C1386 H1411 0.950 . S
C1387 C1386 1.349 . S
C1387 C1403 1.349 . S
C1388 C1386 1.327 . S
C1388 C1407 1.429 1_556 S
C1388 H1412 0.950 . S
C1389 C1406 1.574 . S
C1389 C1408 1.368 . S
C1389 H1413 0.949 . S
H1390 C1394 0.949 . S
C1391 C1392 1.349 . S
C1391 C1393 1.327 . S
C1391 H1414 0.950 . S
C1392 C1391 1.349 . S
C1392 C1404 1.349 . S
C1393 C1391 1.327 . S
C1393 C1409 1.429 . S
C1393 H1415 0.950 . S
C1394 H1390 0.949 . S
C1394 C1402 1.574 . S
C1394 C1410 1.368 . S
H1395 C1403 0.950 . S
H1396 C1401 0.948 . S
H1397 C1402 0.949 . S
H1398 C1404 0.950 . S
H1399 C1405 0.950 . S
H1400 C1406 0.949 . S
C1401 H1396 0.948 . S
C1401 C1403 1.327 . S
C1401 C1407 1.429 1_556 S
C1402 C1394 1.574 . S
C1402 H1397 0.949 . S
C1402 C1408 1.368 . S
C1403 C1387 1.349 . S
C1403 H1395 0.950 . S
C1403 C1401 1.327 . S
C1404 C1392 1.349 . S
C1404 H1398 0.950 . S
C1404 C1405 1.327 . S
C1405 H1399 0.950 . S
C1405 C1404 1.327 . S
C1405 C1409 1.429 . S
C1406 C1389 1.574 . S
C1406 H1400 0.949 . S
C1406 C1410 1.368 . S
C1407 C1388 1.429 1_554 S
C1407 C1401 1.429 1_554 S
C1407 C1408 1.523 . S
C1408 C1389 1.368 . S
C1408 C1402 1.368 . S
C1408 C1407 1.523 . S
C1409 C1393 1.429 . S
C1409 C1405 1.429 . S
C1409 C1410 1.523 . S
C1410 C1394 1.368 . S
C1410 C1406 1.368 . S
C1410 C1409 1.523 . S
H1411 C1386 0.950 . S
H1412 C1388 0.950 . S
H1413 C1389 0.949 . S
H1414 C1391 0.950 . S
H1415 C1393 0.950 . S
C1416 C1417 1.349 . S
C1416 C1418 1.327 . S
C1416 H1441 0.950 . S
C1417 C1416 1.349 . S
C1417 C1433 1.349 . S
C1418 C1416 1.327 . S
C1418 C1437 1.429 . S
C1418 H1442 0.950 . S
C1419 C1436 1.574 . S
C1419 C1438 1.368 . S
C1419 H1443 0.949 . S
H1420 C1424 0.949 . S
C1421 C1422 1.349 . S
C1421 C1423 1.327 . S
C1421 H1444 0.950 . S
C1422 C1421 1.349 . S
C1422 C1434 1.349 . S
C1423 C1421 1.327 . S
C1423 C1439 1.429 1_556 S
C1423 H1445 0.950 1_556 S
C1424 H1420 0.949 . S
C1424 C1432 1.574 . S
C1424 C1440 1.368 . S
H1425 C1433 0.950 . S
H1426 C1431 0.950 . S
H1427 C1432 0.949 . S
H1428 C1434 0.950 . S
H1429 C1435 0.950 . S
H1430 C1436 0.949 . S
C1431 H1426 0.950 . S
C1431 C1433 1.327 . S
C1431 C1437 1.429 . S
C1432 C1424 1.574 . S
C1432 H1427 0.949 . S
C1432 C1438 1.368 . S
C1433 C1417 1.349 . S
C1433 H1425 0.950 . S
C1433 C1431 1.327 . S
C1434 C1422 1.349 . S
C1434 H1428 0.950 . S
C1434 C1435 1.327 . S
C1435 H1429 0.950 . S
C1435 C1434 1.327 . S
C1435 C1439 1.429 1_556 S
C1436 C1419 1.574 . S
C1436 H1430 0.949 . S
C1436 C1440 1.368 . S
C1437 C1418 1.429 . S
C1437 C1431 1.429 . S
C1437 C1438 1.523 . S
C1438 C1419 1.368 . S
C1438 C1432 1.368 . S
C1438 C1437 1.523 . S
C1439 C1423 1.429 1_554 S
C1439 C1435 1.429 1_554 S
C1439 C1440 1.523 . S
C1440 C1424 1.368 . S
C1440 C1436 1.368 . S
C1440 C1439 1.523 . S
H1441 C1416 0.950 . S
H1442 C1418 0.950 . S
H1443 C1419 0.949 . S
H1444 C1421 0.950 . S
H1445 C1423 0.950 1_554 S
C1446 C1447 1.349 . S
C1446 C1448 1.327 . S
C1446 H1471 0.950 . S
C1447 C1446 1.349 . S
C1447 C1463 1.349 . S
C1448 C1446 1.327 . S
C1448 C1467 1.429 . S
C1448 H1472 0.950 . S
C1449 C1466 1.574 . S
C1449 C1468 1.368 . S
C1449 H1473 0.949 . S
H1450 C1454 0.949 . S
C1451 C1452 1.349 1_545 S
C1451 C1453 1.329 . S
C1451 H1474 0.950 . S
C1452 C1451 1.349 1_565 S
C1452 C1464 1.349 . S
C1453 C1451 1.329 . S
C1453 C1469 1.437 1_545 S
C1453 H1475 0.952 . S
C1454 H1450 0.949 . S
C1454 C1462 1.574 . S
C1454 C1470 1.368 . S
H1455 C1463 0.950 . S
H1456 C1461 0.950 . S
H1457 C1462 0.949 . S
H1458 C1464 0.950 . S
H1459 C1465 0.950 . S
H1460 C1466 0.949 1_545 S
C1461 H1456 0.950 . S
C1461 C1463 1.327 . S
C1461 C1467 1.429 . S
C1462 C1454 1.574 . S
C1462 H1457 0.949 . S
C1462 C1468 1.368 . S
C1463 C1447 1.349 . S
C1463 H1455 0.950 . S
C1463 C1461 1.327 . S
C1464 C1452 1.349 . S
C1464 H1458 0.950 . S
C1464 C1465 1.327 . S
C1465 H1459 0.950 . S
C1465 C1464 1.327 . S
C1465 C1469 1.444 . S
C1466 C1449 1.574 . S
C1466 H1460 0.949 1_565 S
C1466 C1470 1.368 . S
C1467 C1448 1.429 . S
C1467 C1461 1.429 . S
C1467 C1468 1.523 . S
C1468 C1449 1.368 . S
C1468 C1462 1.368 . S
C1468 C1467 1.523 . S
C1469 C1453 1.437 1_565 S
C1469 C1465 1.444 . S
C1469 C1470 1.498 1_556 S
C1470 C1454 1.368 . S
C1470 C1466 1.368 . S
C1470 C1469 1.498 1_554 S
H1471 C1446 0.950 . S
H1472 C1448 0.950 . S
H1473 C1449 0.949 . S
H1474 C1451 0.950 . S
H1475 C1453 0.952 . S
C1476 C1477 1.349 . S
C1476 C1478 1.327 . S
C1476 H1501 0.950 . S
C1477 C1476 1.349 . S
C1477 C1493 1.349 . S
C1478 C1476 1.327 . S
C1478 C1497 1.429 . S
C1478 H1502 0.950 . S
C1479 C1496 1.574 . S
C1479 C1498 1.368 . S
C1479 H1503 0.949 . S
H1480 C1484 0.949 1_545 S
C1481 C1482 1.349 . S
C1481 C1483 1.327 . S
C1481 H1504 0.950 . S
C1482 C1481 1.349 . S
C1482 C1494 1.349 1_565 S
C1483 C1481 1.327 . S
C1483 C1499 1.429 . S
C1483 H1505 0.950 . S
C1484 H1480 0.949 1_565 S
C1484 C1492 1.574 . S
C1484 C1500 1.368 . S
H1485 C1493 0.950 . S
H1486 C1491 0.950 . S
H1487 C1492 0.930 1_545 S
H1488 C1494 0.950 . S
H1489 C1495 0.950 . S
H1490 C1496 0.949 . S
C1491 H1486 0.950 . S
C1491 C1493 1.327 . S
C1491 C1497 1.429 . S
C1492 C1484 1.574 . S
C1492 H1487 0.930 1_565 S
C1492 C1498 1.368 . S
C1493 C1477 1.349 . S
C1493 H1485 0.950 . S
C1493 C1491 1.327 . S
C1494 C1482 1.349 1_545 S
C1494 H1488 0.950 . S
C1494 C1495 1.327 . S
C1495 H1489 0.950 . S
C1495 C1494 1.327 . S
C1495 C1499 1.429 1_545 S
C1496 C1479 1.574 . S
C1496 H1490 0.949 . S
C1496 C1500 1.368 . S
C1497 C1478 1.429 . S
C1497 C1491 1.429 . S
C1497 C1498 1.523 . S
C1498 C1479 1.368 . S
C1498 C1492 1.368 . S
C1498 C1497 1.523 . S
C1499 C1483 1.429 . S
C1499 C1495 1.429 1_565 S
C1499 C1500 1.523 . S
C1500 C1484 1.368 . S
C1500 C1496 1.368 . S
C1500 C1499 1.523 . S
H1501 C1476 0.950 . S
H1502 C1478 0.950 . S
H1503 C1479 0.949 . S
H1504 C1481 0.950 . S
H1505 C1483 0.950 . S
C1506 C1507 1.349 . S
C1506 C1508 1.327 . S
C1506 H1531 0.950 . S
C1507 C1506 1.349 . S
C1507 C1523 1.349 . S
C1508 C1506 1.327 . S
C1508 C1527 1.429 . S
C1508 H1532 0.950 . S
C1509 C1526 1.574 . S
C1509 C1528 1.368 . S
C1509 H1533 0.949 . S
H1510 C1514 0.949 . S
C1511 C1512 1.349 . S
C1511 C1513 1.327 . S
C1511 H1534 0.950 . S
C1512 C1511 1.349 . S
C1512 C1524 1.349 . S
C1513 C1511 1.327 . S
C1513 C1529 1.429 . S
C1513 H1535 0.950 . S
C1514 H1510 0.949 . S
C1514 C1522 1.574 . S
C1514 C1530 1.368 . S
H1515 C1523 0.950 . S
H1516 C1521 0.950 . S
H1517 C1522 0.949 . S
H1518 C1524 0.950 . S
H1519 C1525 0.950 . S
H1520 C1526 0.949 . S
C1521 H1516 0.950 . S
C1521 C1523 1.327 . S
C1521 C1527 1.429 . S
C1522 C1514 1.574 . S
C1522 H1517 0.949 . S
C1522 C1528 1.368 . S
C1523 C1507 1.349 . S
C1523 H1515 0.950 . S
C1523 C1521 1.327 . S
C1524 C1512 1.349 . S
C1524 H1518 0.950 . S
C1524 C1525 1.327 . S
C1525 H1519 0.950 . S
C1525 C1524 1.327 . S
C1525 C1529 1.429 . S
C1526 C1509 1.574 . S
C1526 H1520 0.949 . S
C1526 C1530 1.368 . S
C1527 C1508 1.429 . S
C1527 C1521 1.429 . S
C1527 C1528 1.523 . S
C1528 C1509 1.368 . S
C1528 C1522 1.368 . S
C1528 C1527 1.523 . S
C1529 C1513 1.429 . S
C1529 C1525 1.429 . S
C1529 C1530 1.523 . S
C1530 C1514 1.368 . S
C1530 C1526 1.368 . S
C1530 C1529 1.523 . S
H1531 C1506 0.950 . S
H1532 C1508 0.950 . S
H1533 C1509 0.949 . S
H1534 C1511 0.950 . S
H1535 C1513 0.950 . S
C1536 C1537 1.349 . S
C1536 C1538 1.327 . S
C1536 H1561 0.950 . S
C1537 C1536 1.349 . S
C1537 C1553 1.349 . S
C1538 C1536 1.327 . S
C1538 C1557 1.429 . S
C1538 H1562 0.950 . S
C1539 C1556 1.574 . S
C1539 C1558 1.368 . S
C1539 H1563 0.949 . S
H1540 C1544 0.949 . S
C1541 C1542 1.349 . S
C1541 C1543 1.327 . S
C1541 H1564 0.950 . S
C1542 C1541 1.349 . S
C1542 C1554 1.349 . S
C1543 C1541 1.327 . S
C1543 C1559 1.429 . S
C1543 H1565 0.950 . S
C1544 H1540 0.949 . S
C1544 C1552 1.574 . S
C1544 C1560 1.368 . S
H1545 C1553 0.950 . S
H1546 C1551 0.950 . S
H1547 C1552 0.949 . S
H1548 C1554 0.950 . S
H1549 C1555 0.950 . S
H1550 C1556 0.949 . S
C1551 H1546 0.950 . S
C1551 C1553 1.327 . S
C1551 C1557 1.429 . S
C1552 C1544 1.574 . S
C1552 H1547 0.949 . S
C1552 C1558 1.368 . S
C1553 C1537 1.349 . S
C1553 H1545 0.950 . S
C1553 C1551 1.327 . S
C1554 C1542 1.349 . S
C1554 H1548 0.950 . S
C1554 C1555 1.327 . S
C1555 H1549 0.950 . S
C1555 C1554 1.327 . S
C1555 C1559 1.429 . S
C1556 C1539 1.574 . S
C1556 H1550 0.949 . S
C1556 C1560 1.368 . S
C1557 C1538 1.429 . S
C1557 C1551 1.429 . S
C1557 C1558 1.523 . S
C1558 C1539 1.368 . S
C1558 C1552 1.368 . S
C1558 C1557 1.523 . S
C1559 C1543 1.429 . S
C1559 C1555 1.429 . S
C1559 C1560 1.523 . S
C1560 C1544 1.368 . S
C1560 C1556 1.368 . S
C1560 C1559 1.523 . S
H1561 C1536 0.950 . S
H1562 C1538 0.950 . S
H1563 C1539 0.949 . S
H1564 C1541 0.950 . S
H1565 C1543 0.950 . S
C1566 C1567 1.349 . S
C1566 C1568 1.327 . S
C1566 H1591 0.950 . S
C1567 C1566 1.349 . S
C1567 C1583 1.349 . S
C1568 C1566 1.327 . S
C1568 C1587 1.429 . S
C1568 H1592 0.950 . S
C1569 C1586 1.574 . S
C1569 C1588 1.368 . S
C1569 H1593 0.949 . S
H1570 C1574 0.949 . S
C1571 C1572 1.349 . S
C1571 C1573 1.327 . S
C1571 H1594 0.950 . S
C1572 C1571 1.349 . S
C1572 C1584 1.349 . S
C1573 C1571 1.327 . S
C1573 C1589 1.429 1_554 S
C1573 H1595 0.950 1_554 S
C1574 H1570 0.949 . S
C1574 C1582 1.574 . S
C1574 C1590 1.368 . S
H1575 C1583 0.950 . S
H1576 C1581 0.950 . S
H1577 C1582 0.949 . S
H1578 C1584 0.950 . S
H1579 C1585 0.950 . S
H1580 C1586 0.949 . S
C1581 H1576 0.950 . S
C1581 C1583 1.327 . S
C1581 C1587 1.429 . S
C1582 C1574 1.574 . S
C1582 H1577 0.949 . S
C1582 C1588 1.368 . S
C1583 C1567 1.349 . S
C1583 H1575 0.950 . S
C1583 C1581 1.327 . S
C1584 C1572 1.349 . S
C1584 H1578 0.950 . S
C1584 C1585 1.327 . S
C1585 H1579 0.950 . S
C1585 C1584 1.327 . S
C1585 C1589 1.429 1_554 S
C1586 C1569 1.574 . S
C1586 H1580 0.949 . S
C1586 C1590 1.368 . S
C1587 C1568 1.429 . S
C1587 C1581 1.429 . S
C1587 C1588 1.523 . S
C1588 C1569 1.368 . S
C1588 C1582 1.368 . S
C1588 C1587 1.523 . S
C1589 C1573 1.429 1_556 S
C1589 C1585 1.429 1_556 S
C1589 C1590 1.523 . S
C1590 C1574 1.368 . S
C1590 C1586 1.368 . S
C1590 C1589 1.523 . S
H1591 C1566 0.950 . S
H1592 C1568 0.950 . S
H1593 C1569 0.949 . S
H1594 C1571 0.950 . S
H1595 C1573 0.950 1_556 S
C1596 C1597 1.349 . S
C1596 C1598 1.327 . S
C1596 H1621 0.950 . S
C1597 C1596 1.349 . S
C1597 C1613 1.349 . S
C1598 C1596 1.327 . S
C1598 C1617 1.429 1_554 S
C1598 H1622 0.950 . S
C1599 C1616 1.574 . S
C1599 C1618 1.368 . S
C1599 H1623 0.949 . S
H1600 C1604 0.949 . S
C1601 C1602 1.349 . S
C1601 C1603 1.327 . S
C1601 H1624 0.950 . S
C1602 C1601 1.349 . S
C1602 C1614 1.349 . S
C1603 C1601 1.327 . S
C1603 C1619 1.429 . S
C1603 H1625 0.950 . S
C1604 H1600 0.949 . S
C1604 C1612 1.574 . S
C1604 C1620 1.368 . S
H1605 C1613 0.950 . S
H1606 C1611 0.950 1_556 S
H1607 C1612 0.949 . S
H1608 C1614 0.950 . S
H1609 C1615 0.950 . S
H1610 C1616 0.949 . S
C1611 H1606 0.950 1_554 S
C1611 C1613 1.327 . S
C1611 C1617 1.429 1_554 S
C1612 C1604 1.574 . S
C1612 H1607 0.949 . S
C1612 C1618 1.368 . S
C1613 C1597 1.349 . S
C1613 H1605 0.950 . S
C1613 C1611 1.327 . S
C1614 C1602 1.349 . S
C1614 H1608 0.950 . S
C1614 C1615 1.327 . S
C1615 H1609 0.950 . S
C1615 C1614 1.327 . S
C1615 C1619 1.429 . S
C1616 C1599 1.574 . S
C1616 H1610 0.949 . S
C1616 C1620 1.368 . S
C1617 C1598 1.429 1_556 S
C1617 C1611 1.429 1_556 S
C1617 C1618 1.523 . S
C1618 C1599 1.368 . S
C1618 C1612 1.368 . S
C1618 C1617 1.523 . S
C1619 C1603 1.429 . S
C1619 C1615 1.429 . S
C1619 C1620 1.523 . S
C1620 C1604 1.368 . S
C1620 C1616 1.368 . S
C1620 C1619 1.523 . S
H1621 C1596 0.950 . S
H1622 C1598 0.950 . S
H1623 C1599 0.949 . S
H1624 C1601 0.950 . S
H1625 C1603 0.950 . S
C1626 C1627 1.349 . S
C1626 C1628 1.327 . S
C1626 H1651 0.950 . S
C1627 C1626 1.349 . S
C1627 C1643 1.349 . S
C1628 C1626 1.327 . S
C1628 C1647 1.429 . S
C1628 H1652 0.950 . S
C1629 C1646 1.574 . S
C1629 C1648 1.368 . S
C1629 H1653 0.949 . S
H1630 C1634 0.949 . S
C1631 C1632 1.349 . S
C1631 C1633 1.327 . S
C1631 H1654 0.950 . S
C1632 C1631 1.349 . S
C1632 C1644 1.349 . S
C1633 C1631 1.327 . S
C1633 C1649 1.429 . S
C1633 H1655 0.950 . S
C1634 H1630 0.949 . S
C1634 C1642 1.574 . S
C1634 C1650 1.368 . S
H1635 C1643 0.950 . S
H1636 C1641 0.950 . S
H1637 C1642 0.949 . S
H1638 C1644 0.950 . S
H1639 C1645 0.950 . S
H1640 C1646 0.949 . S
C1641 H1636 0.950 . S
C1641 C1643 1.327 . S
C1641 C1647 1.429 . S
C1642 C1634 1.574 . S
C1642 H1637 0.949 . S
C1642 C1648 1.368 . S
C1643 C1627 1.349 . S
C1643 H1635 0.950 . S
C1643 C1641 1.327 . S
C1644 C1632 1.349 . S
C1644 H1638 0.950 . S
C1644 C1645 1.327 . S
C1645 H1639 0.950 . S
C1645 C1644 1.327 . S
C1645 C1649 1.429 . S
C1646 C1629 1.574 . S
C1646 H1640 0.949 . S
C1646 C1650 1.368 . S
C1647 C1628 1.429 . S
C1647 C1641 1.429 . S
C1647 C1648 1.523 . S
C1648 C1629 1.368 . S
C1648 C1642 1.368 . S
C1648 C1647 1.523 . S
C1649 C1633 1.429 . S
C1649 C1645 1.429 . S
C1649 C1650 1.523 1_554 S
C1650 C1634 1.368 . S
C1650 C1646 1.368 . S
C1650 C1649 1.523 1_556 S
H1651 C1626 0.950 . S
H1652 C1628 0.950 . S
H1653 C1629 0.949 . S
H1654 C1631 0.950 . S
H1655 C1633 0.950 . S
C1656 C1657 1.349 . S
C1656 C1658 1.327 . S
C1656 H1681 0.950 . S
C1657 C1656 1.349 . S
C1657 C1673 1.349 . S
C1658 C1656 1.327 . S
C1658 C1677 1.429 . S
C1658 H1682 0.950 . S
C1659 C1676 1.574 . S
C1659 C1678 1.368 . S
C1659 H1683 0.949 . S
H1660 C1664 0.949 . S
C1661 C1662 1.349 . S
C1661 C1663 1.327 . S
C1661 H1684 0.950 . S
C1662 C1661 1.349 . S
C1662 C1674 1.349 . S
C1663 C1661 1.327 . S
C1663 C1679 1.429 . S
C1663 H1685 0.950 . S
C1664 H1660 0.949 . S
C1664 C1672 1.574 . S
C1664 C1680 1.368 . S
H1665 C1673 0.950 1_655 S
H1666 C1671 0.950 1_655 S
H1667 C1672 0.949 . S
H1668 C1674 0.950 . S
H1669 C1675 0.950 . S
H1670 C1676 0.949 . S
C1671 H1666 0.950 1_455 S
C1671 C1673 1.327 . S
C1671 C1677 1.429 . S
C1672 C1664 1.574 . S
C1672 H1667 0.949 . S
C1672 C1678 1.368 . S
C1673 C1657 1.349 . S
C1673 H1665 0.950 1_455 S
C1673 C1671 1.327 . S
C1674 C1662 1.349 . S
C1674 H1668 0.950 . S
C1674 C1675 1.327 . S
C1675 H1669 0.950 . S
C1675 C1674 1.327 . S
C1675 C1679 1.429 . S
C1676 C1659 1.574 . S
C1676 H1670 0.949 . S
C1676 C1680 1.368 . S
C1677 C1658 1.429 . S
C1677 C1671 1.429 . S
C1677 C1678 1.523 . S
C1678 C1659 1.368 . S
C1678 C1672 1.368 . S
C1678 C1677 1.523 . S
C1679 C1663 1.429 . S
C1679 C1675 1.429 . S
C1679 C1680 1.523 . S
C1680 C1664 1.368 . S
C1680 C1676 1.368 . S
C1680 C1679 1.523 . S
H1681 C1656 0.950 . S
H1682 C1658 0.950 . S
H1683 C1659 0.949 . S
H1684 C1661 0.950 . S
H1685 C1663 0.950 . S
C1686 C1687 1.349 . S
C1686 C1688 1.327 . S
C1686 H1711 0.950 . S
C1687 C1686 1.349 . S
C1687 C1703 1.349 . S
C1688 C1686 1.327 . S
C1688 C1707 1.429 . S
C1688 H1712 0.950 . S
C1689 C1706 1.574 . S
C1689 C1708 1.368 . S
C1689 H1713 0.949 . S
H1690 C1694 0.949 . S
C1691 C1692 1.349 . S
C1691 C1693 1.327 . S
C1691 H1714 0.950 . S
C1692 C1691 1.349 . S
C1692 C1704 1.349 . S
C1693 C1691 1.327 . S
C1693 C1709 1.429 . S
C1693 H1715 0.950 . S
C1694 H1690 0.949 . S
C1694 C1702 1.574 . S
C1694 C1710 1.368 . S
H1695 C1703 0.950 . S
H1696 C1701 0.950 . S
H1697 C1702 0.949 . S
H1698 C1704 0.950 . S
H1699 C1705 0.950 . S
H1700 C1706 0.949 . S
C1701 H1696 0.950 . S
C1701 C1703 1.327 . S
C1701 C1707 1.429 . S
C1702 C1694 1.574 . S
C1702 H1697 0.949 . S
C1702 C1708 1.368 . S
C1703 C1687 1.349 . S
C1703 H1695 0.950 . S
C1703 C1701 1.327 . S
C1704 C1692 1.349 . S
C1704 H1698 0.950 . S
C1704 C1705 1.327 . S
C1705 H1699 0.950 . S
C1705 C1704 1.327 . S
C1705 C1709 1.429 . S
C1706 C1689 1.574 . S
C1706 H1700 0.949 . S
C1706 C1710 1.368 . S
C1707 C1688 1.429 . S
C1707 C1701 1.429 . S
C1707 C1708 1.523 . S
C1708 C1689 1.368 . S
C1708 C1702 1.368 . S
C1708 C1707 1.523 . S
C1709 C1693 1.429 . S
C1709 C1705 1.429 . S
C1709 C1710 1.523 . S
C1710 C1694 1.368 . S
C1710 C1706 1.368 . S
C1710 C1709 1.523 . S
H1711 C1686 0.950 . S
H1712 C1688 0.950 . S
H1713 C1689 0.949 . S
H1714 C1691 0.950 . S
H1715 C1693 0.950 . S
C1716 C1717 1.349 . S
C1716 C1718 1.327 . S
C1716 H1741 0.950 . S
C1717 C1716 1.349 . S
C1717 C1733 1.349 . S
C1718 C1716 1.327 . S
C1718 C1737 1.429 . S
C1718 H1742 0.950 . S
C1719 C1736 1.574 . S
C1719 C1738 1.368 . S
C1719 H1743 0.949 . S
H1720 C1724 0.949 . S
C1721 C1722 1.349 . S
C1721 C1723 1.327 . S
C1721 H1744 0.950 . S
C1722 C1721 1.349 . S
C1722 C1734 1.349 . S
C1723 C1721 1.327 . S
C1723 C1739 1.429 . S
C1723 H1745 0.950 . S
C1724 H1720 0.949 . S
C1724 C1732 1.574 . S
C1724 C1740 1.368 . S
H1725 C1733 0.950 1_545 S
H1726 C1731 0.950 1_545 S
H1727 C1732 0.949 . S
H1728 C1734 0.950 . S
H1729 C1735 0.950 . S
H1730 C1736 0.949 . S
C1731 H1726 0.950 1_565 S
C1731 C1733 1.327 . S
C1731 C1737 1.429 . S
C1732 C1724 1.574 . S
C1732 H1727 0.949 . S
C1732 C1738 1.368 . S
C1733 C1717 1.349 . S
C1733 H1725 0.950 1_565 S
C1733 C1731 1.327 . S
C1734 C1722 1.349 . S
C1734 H1728 0.950 . S
C1734 C1735 1.327 . S
C1735 H1729 0.950 . S
C1735 C1734 1.327 . S
C1735 C1739 1.429 . S
C1736 C1719 1.574 . S
C1736 H1730 0.949 . S
C1736 C1740 1.368 . S
C1737 C1718 1.429 . S
C1737 C1731 1.429 . S
C1737 C1738 1.523 . S
C1738 C1719 1.368 . S
C1738 C1732 1.368 . S
C1738 C1737 1.523 . S
C1739 C1723 1.429 . S
C1739 C1735 1.429 . S
C1739 C1740 1.523 . S
C1740 C1724 1.368 . S
C1740 C1736 1.368 . S
C1740 C1739 1.523 . S
H1741 C1716 0.950 . S
H1742 C1718 0.950 . S
H1743 C1719 0.949 . S
H1744 C1721 0.950 . S
H1745 C1723 0.950 . S
C1746 C1747 1.349 . S
C1746 C1748 1.327 . S
C1746 H1771 0.950 1_565 S
C1747 C1746 1.349 . S
C1747 C1763 1.349 . S
C1748 C1746 1.327 . S
C1748 C1767 1.429 . S
C1748 H1772 0.953 . S
C1749 C1766 1.574 . S
C1749 C1768 1.368 . S
C1749 H1773 0.949 . S
H1750 C1754 0.949 . S
C1751 C1752 1.349 . S
C1751 C1753 1.327 . S
C1751 H1774 0.950 . S
C1752 C1751 1.349 . S
C1752 C1764 1.349 . S
C1753 C1751 1.327 . S
C1753 C1769 1.429 . S
C1753 H1775 0.950 . S
C1754 H1750 0.949 . S
C1754 C1762 1.574 . S
C1754 C1770 1.368 . S
H1755 C1763 0.950 . S
H1756 C1761 0.950 . S
H1757 C1762 0.949 . S
H1758 C1764 0.950 . S
H1759 C1765 0.950 . S
H1760 C1766 0.949 . S
C1761 H1756 0.950 . S
C1761 C1763 1.327 . S
C1761 C1767 1.429 . S
C1762 C1754 1.574 . S
C1762 H1757 0.949 . S
C1762 C1768 1.368 . S
C1763 C1747 1.349 . S
C1763 H1755 0.950 . S
C1763 C1761 1.327 . S
C1764 C1752 1.349 . S
C1764 H1758 0.950 . S
C1764 C1765 1.327 . S
C1765 H1759 0.950 . S
C1765 C1764 1.327 . S
C1765 C1769 1.429 . S
C1766 C1749 1.574 . S
C1766 H1760 0.949 . S
C1766 C1770 1.368 . S
C1767 C1748 1.429 . S
C1767 C1761 1.429 . S
C1767 C1768 1.523 . S
C1768 C1749 1.368 . S
C1768 C1762 1.368 . S
C1768 C1767 1.523 . S
C1769 C1753 1.429 . S
C1769 C1765 1.429 . S
C1769 C1770 1.523 . S
C1770 C1754 1.368 . S
C1770 C1766 1.368 . S
C1770 C1769 1.523 . S
H1771 C1746 0.950 1_545 S
H1772 C1748 0.953 . S
H1773 C1749 0.949 . S
H1774 C1751 0.950 . S
H1775 C1753 0.950 . S
C1776 C1777 1.349 . S
C1776 C1778 1.327 . S
C1776 H1801 0.950 1_455 S
C1777 C1776 1.349 . S
C1777 C1793 1.349 . S
C1778 C1776 1.327 . S
C1778 C1797 1.429 . S
C1778 H1802 0.949 . S
C1779 C1796 1.574 . S
C1779 C1798 1.368 . S
C1779 H1803 0.949 . S
H1780 C1784 0.949 . S
C1781 C1782 1.349 . S
C1781 C1783 1.327 . S
C1781 H1804 0.950 . S
C1782 C1781 1.349 . S
C1782 C1794 1.349 . S
C1783 C1781 1.327 . S
C1783 C1799 1.429 . S
C1783 H1805 0.950 . S
C1784 H1780 0.949 . S
C1784 C1792 1.574 . S
C1784 C1800 1.368 . S
H1785 C1793 0.950 . S
H1786 C1791 0.950 . S
H1787 C1792 0.949 . S
H1788 C1794 0.950 . S
H1789 C1795 0.950 . S
H1790 C1796 0.949 . S
C1791 H1786 0.950 . S
C1791 C1793 1.327 . S
C1791 C1797 1.429 . S
C1792 C1784 1.574 . S
C1792 H1787 0.949 . S
C1792 C1798 1.368 . S
C1793 C1777 1.349 . S
C1793 H1785 0.950 . S
C1793 C1791 1.327 . S
C1794 C1782 1.349 . S
C1794 H1788 0.950 . S
C1794 C1795 1.327 . S
C1795 H1789 0.950 . S
C1795 C1794 1.327 . S
C1795 C1799 1.429 . S
C1796 C1779 1.574 . S
C1796 H1790 0.949 . S
C1796 C1800 1.368 . S
C1797 C1778 1.429 . S
C1797 C1791 1.429 . S
C1797 C1798 1.523 . S
C1798 C1779 1.368 . S
C1798 C1792 1.368 . S
C1798 C1797 1.523 . S
C1799 C1783 1.429 . S
C1799 C1795 1.429 . S
C1799 C1800 1.523 . S
C1800 C1784 1.368 . S
C1800 C1796 1.368 . S
C1800 C1799 1.523 . S
H1801 C1776 0.950 1_655 S
H1802 C1778 0.949 . S
H1803 C1779 0.949 . S
H1804 C1781 0.950 . S
H1805 C1783 0.950 . S
C1806 C1807 1.349 . S
C1806 C1808 1.327 . S
C1806 H1831 0.950 . S
C1807 C1806 1.349 . S
C1807 C1823 1.349 . S
C1808 C1806 1.327 . S
C1808 C1827 1.429 . S
C1808 H1832 0.950 . S
C1809 C1826 1.574 . S
C1809 C1828 1.368 . S
C1809 H1833 0.949 . S
H1810 C1814 0.949 . S
C1811 C1812 1.349 . S
C1811 C1813 1.327 . S
C1811 H1834 0.950 . S
C1812 C1811 1.349 . S
C1812 C1824 1.349 . S
C1813 C1811 1.327 . S
C1813 C1829 1.429 . S
C1813 H1835 0.950 . S
C1814 H1810 0.949 . S
C1814 C1822 1.574 . S
C1814 C1830 1.368 . S
H1815 C1823 0.950 . S
H1816 C1821 0.950 . S
H1817 C1822 0.949 . S
H1818 C1824 0.950 . S
H1819 C1825 0.950 . S
H1820 C1826 0.949 . S
C1821 H1816 0.950 . S
C1821 C1823 1.327 . S
C1821 C1827 1.429 . S
C1822 C1814 1.574 . S
C1822 H1817 0.949 . S
C1822 C1828 1.368 . S
C1823 C1807 1.349 . S
C1823 H1815 0.950 . S
C1823 C1821 1.327 . S
C1824 C1812 1.349 . S
C1824 H1818 0.950 . S
C1824 C1825 1.327 . S
C1825 H1819 0.950 . S
C1825 C1824 1.327 . S
C1825 C1829 1.429 . S
C1826 C1809 1.574 . S
C1826 H1820 0.949 . S
C1826 C1830 1.368 . S
C1827 C1808 1.429 . S
C1827 C1821 1.429 . S
C1827 C1828 1.523 . S
C1828 C1809 1.368 . S
C1828 C1822 1.368 . S
C1828 C1827 1.523 . S
C1829 C1813 1.429 . S
C1829 C1825 1.429 . S
C1829 C1830 1.523 . S
C1830 C1814 1.368 . S
C1830 C1826 1.368 . S
C1830 C1829 1.523 . S
H1831 C1806 0.950 . S
H1832 C1808 0.950 . S
H1833 C1809 0.949 . S
H1834 C1811 0.950 . S
H1835 C1813 0.950 . S
C1836 C1837 1.349 . S
C1836 C1838 1.327 . S
C1836 H1861 0.950 . S
C1837 C1836 1.349 . S
C1837 C1853 1.349 . S
C1838 C1836 1.327 . S
C1838 C1857 1.429 . S
C1838 H1862 0.950 . S
C1839 C1856 1.574 . S
C1839 C1858 1.368 . S
C1839 H1863 0.949 . S
H1840 C1844 0.949 . S
C1841 C1842 1.349 . S
C1841 C1843 1.327 . S
C1841 H1864 0.950 . S
C1842 C1841 1.349 . S
C1842 C1854 1.349 . S
C1843 C1841 1.327 . S
C1843 C1859 1.429 . S
C1843 H1865 0.950 . S
C1844 H1840 0.949 . S
C1844 C1852 1.574 . S
C1844 C1860 1.368 . S
H1845 C1853 0.950 . S
H1846 C1851 0.950 . S
H1847 C1852 0.949 . S
H1848 C1854 0.950 . S
H1849 C1855 0.950 . S
H1850 C1856 0.949 . S
C1851 H1846 0.950 . S
C1851 C1853 1.327 . S
C1851 C1857 1.429 . S
C1852 C1844 1.574 . S
C1852 H1847 0.949 . S
C1852 C1858 1.368 . S
C1853 C1837 1.349 . S
C1853 H1845 0.950 . S
C1853 C1851 1.327 . S
C1854 C1842 1.349 . S
C1854 H1848 0.950 . S
C1854 C1855 1.327 . S
C1855 H1849 0.950 . S
C1855 C1854 1.327 . S
C1855 C1859 1.429 . S
C1856 C1839 1.574 . S
C1856 H1850 0.949 . S
C1856 C1860 1.368 . S
C1857 C1838 1.429 . S
C1857 C1851 1.429 . S
C1857 C1858 1.523 . S
C1858 C1839 1.368 . S
C1858 C1852 1.368 . S
C1858 C1857 1.523 . S
C1859 C1843 1.429 . S
C1859 C1855 1.429 . S
C1859 C1860 1.523 . S
C1860 C1844 1.368 . S
C1860 C1856 1.368 . S
C1860 C1859 1.523 . S
H1861 C1836 0.950 . S
H1862 C1838 0.950 . S
H1863 C1839 0.949 . S
H1864 C1841 0.950 . S
H1865 C1843 0.950 . S
C1866 C1867 1.349 . S
C1866 C1868 1.327 . S
C1866 H1891 0.950 . S
C1867 C1866 1.349 . S
C1867 C1883 1.349 . S
C1868 C1866 1.327 . S
C1868 C1887 1.429 . S
C1868 H1892 0.950 . S
C1869 C1886 1.574 . S
C1869 C1888 1.368 . S
C1869 H1893 0.949 . S
H1870 C1874 0.949 . S
C1871 C1872 1.349 . S
C1871 C1873 1.327 . S
C1871 H1894 0.950 . S
C1872 C1871 1.349 . S
C1872 C1884 1.349 . S
C1873 C1871 1.327 . S
C1873 C1889 1.429 . S
C1873 H1895 0.950 . S
C1874 H1870 0.949 . S
C1874 C1882 1.574 . S
C1874 C1890 1.368 . S
H1875 C1883 0.950 . S
H1876 C1881 0.950 . S
H1877 C1882 0.949 . S
H1878 C1884 0.950 . S
H1879 C1885 0.950 . S
H1880 C1886 0.949 . S
C1881 H1876 0.950 . S
C1881 C1883 1.327 . S
C1881 C1887 1.429 . S
C1882 C1874 1.574 . S
C1882 H1877 0.949 . S
C1882 C1888 1.368 . S
C1883 C1867 1.349 . S
C1883 H1875 0.950 . S
C1883 C1881 1.327 . S
C1884 C1872 1.349 . S
C1884 H1878 0.950 . S
C1884 C1885 1.327 . S
C1885 H1879 0.950 . S
C1885 C1884 1.327 . S
C1885 C1889 1.429 . S
C1886 C1869 1.574 . S
C1886 H1880 0.949 . S
C1886 C1890 1.368 . S
C1887 C1868 1.429 . S
C1887 C1881 1.429 . S
C1887 C1888 1.523 . S
C1888 C1869 1.368 . S
C1888 C1882 1.368 . S
C1888 C1887 1.523 . S
C1889 C1873 1.429 . S
C1889 C1885 1.429 . S
C1889 C1890 1.523 . S
C1890 C1874 1.368 . S
C1890 C1886 1.368 . S
C1890 C1889 1.523 . S
H1891 C1866 0.950 . S
H1892 C1868 0.950 . S
H1893 C1869 0.949 . S
H1894 C1871 0.950 . S
H1895 C1873 0.950 . S
C1896 C1897 1.349 . S
C1896 C1898 1.327 . S
C1896 H1921 0.950 . S
C1897 C1896 1.349 . S
C1897 C1913 1.349 . S
C1898 C1896 1.327 . S
C1898 C1917 1.429 . S
C1898 H1922 0.950 . S
C1899 C1916 1.574 . S
C1899 C1918 1.368 . S
C1899 H1923 0.949 . S
H1900 C1904 0.949 . S
C1901 C1902 1.349 . S
C1901 C1903 1.327 . S
C1901 H1924 0.950 . S
C1902 C1901 1.349 . S
C1902 C1914 1.349 . S
C1903 C1901 1.327 . S
C1903 C1919 1.429 . S
C1903 H1925 0.950 . S
C1904 H1900 0.949 . S
C1904 C1912 1.574 . S
C1904 C1920 1.368 . S
H1905 C1913 0.950 . S
H1906 C1911 0.950 . S
H1907 C1912 0.949 . S
H1908 C1914 0.950 . S
H1909 C1915 0.950 . S
H1910 C1916 0.949 . S
C1911 H1906 0.950 . S
C1911 C1913 1.327 . S
C1911 C1917 1.429 . S
C1912 C1904 1.574 . S
C1912 H1907 0.949 . S
C1912 C1918 1.368 . S
C1913 C1897 1.349 . S
C1913 H1905 0.950 . S
C1913 C1911 1.327 . S
C1914 C1902 1.349 . S
C1914 H1908 0.950 . S
C1914 C1915 1.327 . S
C1915 H1909 0.950 . S
C1915 C1914 1.327 . S
C1915 C1919 1.429 . S
C1916 C1899 1.574 . S
C1916 H1910 0.949 . S
C1916 C1920 1.368 . S
C1917 C1898 1.429 . S
C1917 C1911 1.429 . S
C1917 C1918 1.523 . S
C1918 C1899 1.368 . S
C1918 C1912 1.368 . S
C1918 C1917 1.523 . S
C1919 C1903 1.429 . S
C1919 C1915 1.429 . S
C1919 C1920 1.523 . S
C1920 C1904 1.368 . S
C1920 C1916 1.368 . S
C1920 C1919 1.523 . S
H1921 C1896 0.950 . S
H1922 C1898 0.950 . S
H1923 C1899 0.949 . S
H1924 C1901 0.950 . S
H1925 C1903 0.950 . S
C1926 C1927 1.349 . S
C1926 C1928 1.327 . S
C1926 H1951 0.950 . S
C1927 C1926 1.349 . S
C1927 C1943 1.349 . S
C1928 C1926 1.327 . S
C1928 C1947 1.429 . S
C1928 H1952 0.950 . S
C1929 C1946 1.574 . S
C1929 C1948 1.368 . S
C1929 H1953 0.949 . S
H1930 C1934 0.949 . S
C1931 C1932 1.349 . S
C1931 C1933 1.327 . S
C1931 H1954 0.950 . S
C1932 C1931 1.349 . S
C1932 C1944 1.349 . S
C1933 C1931 1.327 . S
C1933 C1949 1.429 . S
C1933 H1955 0.950 . S
C1934 H1930 0.949 . S
C1934 C1942 1.574 . S
C1934 C1950 1.368 . S
H1935 C1943 0.950 . S
H1936 C1941 0.950 . S
H1937 C1942 0.949 . S
H1938 C1944 0.950 . S
H1939 C1945 0.950 . S
H1940 C1946 0.949 . S
C1941 H1936 0.950 . S
C1941 C1943 1.327 . S
C1941 C1947 1.429 . S
C1942 C1934 1.574 . S
C1942 H1937 0.949 . S
C1942 C1948 1.368 . S
C1943 C1927 1.349 . S
C1943 H1935 0.950 . S
C1943 C1941 1.327 . S
C1944 C1932 1.349 . S
C1944 H1938 0.950 . S
C1944 C1945 1.327 . S
C1945 H1939 0.950 . S
C1945 C1944 1.327 . S
C1945 C1949 1.429 . S
C1946 C1929 1.574 . S
C1946 H1940 0.949 . S
C1946 C1950 1.368 . S
C1947 C1928 1.429 . S
C1947 C1941 1.429 . S
C1947 C1948 1.523 . S
C1948 C1929 1.368 . S
C1948 C1942 1.368 . S
C1948 C1947 1.523 . S
C1949 C1933 1.429 . S
C1949 C1945 1.429 . S
C1949 C1950 1.523 . S
C1950 C1934 1.368 . S
C1950 C1946 1.368 . S
C1950 C1949 1.523 . S
H1951 C1926 0.950 . S
H1952 C1928 0.950 . S
H1953 C1929 0.949 . S
H1954 C1931 0.950 . S
H1955 C1933 0.950 . S
C1956 C1957 1.349 . S
C1956 C1958 1.327 . S
C1956 H1981 0.950 . S
C1957 C1956 1.349 . S
C1957 C1973 1.349 . S
C1958 C1956 1.327 . S
C1958 C1977 1.429 . S
C1958 H1982 0.950 . S
C1959 C1976 1.574 . S
C1959 C1978 1.368 . S
C1959 H1983 0.949 . S
H1960 C1964 0.949 . S
C1961 C1962 1.349 . S
C1961 C1963 1.327 . S
C1961 H1984 0.950 . S
C1962 C1961 1.349 . S
C1962 C1974 1.349 . S
C1963 C1961 1.327 . S
C1963 C1979 1.429 . S
C1963 H1985 0.950 . S
C1964 H1960 0.949 . S
C1964 C1972 1.574 . S
C1964 C1980 1.368 . S
H1965 C1973 0.950 . S
H1966 C1971 0.950 . S
H1967 C1972 0.949 . S
H1968 C1974 0.950 . S
H1969 C1975 0.950 . S
H1970 C1976 0.949 . S
C1971 H1966 0.950 . S
C1971 C1973 1.327 . S
C1971 C1977 1.429 . S
C1972 C1964 1.574 . S
C1972 H1967 0.949 . S
C1972 C1978 1.368 . S
C1973 C1957 1.349 . S
C1973 H1965 0.950 . S
C1973 C1971 1.327 . S
C1974 C1962 1.349 . S
C1974 H1968 0.950 . S
C1974 C1975 1.327 . S
C1975 H1969 0.950 . S
C1975 C1974 1.327 . S
C1975 C1979 1.429 . S
C1976 C1959 1.574 . S
C1976 H1970 0.949 . S
C1976 C1980 1.368 . S
C1977 C1958 1.429 . S
C1977 C1971 1.429 . S
C1977 C1978 1.523 . S
C1978 C1959 1.368 . S
C1978 C1972 1.368 . S
C1978 C1977 1.523 . S
C1979 C1963 1.429 . S
C1979 C1975 1.429 . S
C1979 C1980 1.523 . S
C1980 C1964 1.368 . S
C1980 C1976 1.368 . S
C1980 C1979 1.523 . S
H1981 C1956 0.950 . S
H1982 C1958 0.950 . S
H1983 C1959 0.949 . S
H1984 C1961 0.950 . S
H1985 C1963 0.950 . S
C1986 C1987 1.349 . S
C1986 C1988 1.327 . S
C1986 H2011 0.950 . S
C1987 C1986 1.349 . S
C1987 C2003 1.349 . S
C1988 C1986 1.327 . S
C1988 C2007 1.429 . S
C1988 H2012 0.950 . S
C1989 C2006 1.574 . S
C1989 C2008 1.368 . S
C1989 H2013 0.949 . S
H1990 C1994 0.949 . S
C1991 C1992 1.349 . S
C1991 C1993 1.327 . S
C1991 H2014 0.950 . S
C1992 C1991 1.349 . S
C1992 C2004 1.349 . S
C1993 C1991 1.327 . S
C1993 C2009 1.429 . S
C1993 H2015 0.950 . S
C1994 H1990 0.949 . S
C1994 C2002 1.574 . S
C1994 C2010 1.368 . S
H1995 C2003 0.950 . S
H1996 C2001 0.950 . S
H1997 C2002 0.949 . S
H1998 C2004 0.950 . S
H1999 C2005 0.950 . S
H2000 C2006 0.949 . S
C2001 H1996 0.950 . S
C2001 C2003 1.327 . S
C2001 C2007 1.429 . S
C2002 C1994 1.574 . S
C2002 H1997 0.949 . S
C2002 C2008 1.368 . S
C2003 C1987 1.349 . S
C2003 H1995 0.950 . S
C2003 C2001 1.327 . S
C2004 C1992 1.349 . S
C2004 H1998 0.950 . S
C2004 C2005 1.327 . S
C2005 H1999 0.950 . S
C2005 C2004 1.327 . S
C2005 C2009 1.429 . S
C2006 C1989 1.574 . S
C2006 H2000 0.949 . S
C2006 C2010 1.368 . S
C2007 C1988 1.429 . S
C2007 C2001 1.429 . S
C2007 C2008 1.523 . S
C2008 C1989 1.368 . S
C2008 C2002 1.368 . S
C2008 C2007 1.523 . S
C2009 C1993 1.429 . S
C2009 C2005 1.429 . S
C2009 C2010 1.523 . S
C2010 C1994 1.368 . S
C2010 C2006 1.368 . S
C2010 C2009 1.523 . S
H2011 C1986 0.950 . S
H2012 C1988 0.950 . S
H2013 C1989 0.949 . S
H2014 C1991 0.950 . S
H2015 C1993 0.950 . S
C2016 C2017 1.349 . S
C2016 C2018 1.327 . S
C2016 H2041 0.950 . S
C2017 C2016 1.349 . S
C2017 C2033 1.349 . S
C2018 C2016 1.327 . S
C2018 C2037 1.429 . S
C2018 H2042 0.950 . S
C2019 C2036 1.574 . S
C2019 C2038 1.368 . S
C2019 H2043 0.949 . S
H2020 C2024 0.949 . S
C2021 C2022 1.349 . S
C2021 C2023 1.327 . S
C2021 H2044 0.950 . S
C2022 C2021 1.349 . S
C2022 C2034 1.349 . S
C2023 C2021 1.327 . S
C2023 C2039 1.429 . S
C2023 H2045 0.950 . S
C2024 H2020 0.949 . S
C2024 C2032 1.574 . S
C2024 C2040 1.368 . S
H2025 C2033 0.950 . S
H2026 C2031 0.950 . S
H2027 C2032 0.949 . S
H2028 C2034 0.950 . S
H2029 C2035 0.950 . S
H2030 C2036 0.949 . S
C2031 H2026 0.950 . S
C2031 C2033 1.327 . S
C2031 C2037 1.429 . S
C2032 C2024 1.574 . S
C2032 H2027 0.949 . S
C2032 C2038 1.368 . S
C2033 C2017 1.349 . S
C2033 H2025 0.950 . S
C2033 C2031 1.327 . S
C2034 C2022 1.349 . S
C2034 H2028 0.950 . S
C2034 C2035 1.327 . S
C2035 H2029 0.950 . S
C2035 C2034 1.327 . S
C2035 C2039 1.429 . S
C2036 C2019 1.574 . S
C2036 H2030 0.949 . S
C2036 C2040 1.368 . S
C2037 C2018 1.429 . S
C2037 C2031 1.429 . S
C2037 C2038 1.523 . S
C2038 C2019 1.368 . S
C2038 C2032 1.368 . S
C2038 C2037 1.523 . S
C2039 C2023 1.429 . S
C2039 C2035 1.429 . S
C2039 C2040 1.523 . S
C2040 C2024 1.368 . S
C2040 C2036 1.368 . S
C2040 C2039 1.523 . S
H2041 C2016 0.950 . S
H2042 C2018 0.950 . S
H2043 C2019 0.949 . S
H2044 C2021 0.950 . S
H2045 C2023 0.950 . S
C2046 C2047 1.349 . S
C2046 C2048 1.327 . S
C2046 H2071 0.950 . S
C2047 C2046 1.349 . S
C2047 C2063 1.349 . S
C2048 C2046 1.327 . S
C2048 C2067 1.429 . S
C2048 H2072 0.950 . S
C2049 C2066 1.574 . S
C2049 C2068 1.368 . S
C2049 H2073 0.949 . S
H2050 C2054 0.949 . S
C2051 C2052 1.349 . S
C2051 C2053 1.327 . S
C2051 H2074 0.950 . S
C2052 C2051 1.349 . S
C2052 C2064 1.349 . S
C2053 C2051 1.327 . S
C2053 C2069 1.429 . S
C2053 H2075 0.950 . S
C2054 H2050 0.949 . S
C2054 C2062 1.574 . S
C2054 C2070 1.368 . S
H2055 C2063 0.950 . S
H2056 C2061 0.950 . S
H2057 C2062 0.949 . S
H2058 C2064 0.950 . S
H2059 C2065 0.950 . S
H2060 C2066 0.949 . S
C2061 H2056 0.950 . S
C2061 C2063 1.327 . S
C2061 C2067 1.429 . S
C2062 C2054 1.574 . S
C2062 H2057 0.949 . S
C2062 C2068 1.368 . S
C2063 C2047 1.349 . S
C2063 H2055 0.950 . S
C2063 C2061 1.327 . S
C2064 C2052 1.349 . S
C2064 H2058 0.950 . S
C2064 C2065 1.327 . S
C2065 H2059 0.950 . S
C2065 C2064 1.327 . S
C2065 C2069 1.429 . S
C2066 C2049 1.574 . S
C2066 H2060 0.949 . S
C2066 C2070 1.368 . S
C2067 C2048 1.429 . S
C2067 C2061 1.429 . S
C2067 C2068 1.523 . S
C2068 C2049 1.368 . S
C2068 C2062 1.368 . S
C2068 C2067 1.523 . S
C2069 C2053 1.429 . S
C2069 C2065 1.429 . S
C2069 C2070 1.523 . S
C2070 C2054 1.368 . S
C2070 C2066 1.368 . S
C2070 C2069 1.523 . S
H2071 C2046 0.950 . S
H2072 C2048 0.950 . S
H2073 C2049 0.949 . S
H2074 C2051 0.950 . S
H2075 C2053 0.950 . S
C2076 C2077 1.349 . S
C2076 C2078 1.327 . S
C2076 H2101 0.950 . S
C2077 C2076 1.349 . S
C2077 C2093 1.349 . S
C2078 C2076 1.327 . S
C2078 C2097 1.429 . S
C2078 H2102 0.950 . S
C2079 C2096 1.574 . S
C2079 C2098 1.368 . S
C2079 H2103 0.949 . S
H2080 C2084 0.949 . S
C2081 C2082 1.349 . S
C2081 C2083 1.327 . S
C2081 H2104 0.950 . S
C2082 C2081 1.349 . S
C2082 C2094 1.349 . S
C2083 C2081 1.327 . S
C2083 C2099 1.429 . S
C2083 H2105 0.950 . S
C2084 H2080 0.949 . S
C2084 C2092 1.574 . S
C2084 C2100 1.368 . S
H2085 C2093 0.950 . S
H2086 C2091 0.950 . S
H2087 C2092 0.949 . S
H2088 C2094 0.950 . S
H2089 C2095 0.950 . S
H2090 C2096 0.949 . S
C2091 H2086 0.950 . S
C2091 C2093 1.327 . S
C2091 C2097 1.429 . S
C2092 C2084 1.574 . S
C2092 H2087 0.949 . S
C2092 C2098 1.368 . S
C2093 C2077 1.349 . S
C2093 H2085 0.950 . S
C2093 C2091 1.327 . S
C2094 C2082 1.349 . S
C2094 H2088 0.950 . S
C2094 C2095 1.327 . S
C2095 H2089 0.950 . S
C2095 C2094 1.327 . S
C2095 C2099 1.429 . S
C2096 C2079 1.574 . S
C2096 H2090 0.949 . S
C2096 C2100 1.368 . S
C2097 C2078 1.429 . S
C2097 C2091 1.429 . S
C2097 C2098 1.523 . S
C2098 C2079 1.368 . S
C2098 C2092 1.368 . S
C2098 C2097 1.523 . S
C2099 C2083 1.429 . S
C2099 C2095 1.429 . S
C2099 C2100 1.523 . S
C2100 C2084 1.368 . S
C2100 C2096 1.368 . S
C2100 C2099 1.523 . S
H2101 C2076 0.950 . S
H2102 C2078 0.950 . S
H2103 C2079 0.949 . S
H2104 C2081 0.950 . S
H2105 C2083 0.950 . S
C2106 C2107 1.349 . S
C2106 C2108 1.327 . S
C2106 H2131 0.950 . S
C2107 C2106 1.349 . S
C2107 C2123 1.349 . S
C2108 C2106 1.327 . S
C2108 C2127 1.429 . S
C2108 H2132 0.950 . S
C2109 C2126 1.574 . S
C2109 C2128 1.368 . S
C2109 H2133 0.949 . S
H2110 C2114 0.949 . S
C2111 C2112 1.349 . S
C2111 C2113 1.327 . S
C2111 H2134 0.950 . S
C2112 C2111 1.349 . S
C2112 C2124 1.349 . S
C2113 C2111 1.327 . S
C2113 C2129 1.429 . S
C2113 H2135 0.950 . S
C2114 H2110 0.949 . S
C2114 C2122 1.574 . S
C2114 C2130 1.368 . S
H2115 C2123 0.950 . S
H2116 C2121 0.950 . S
H2117 C2122 0.949 . S
H2118 C2124 0.950 . S
H2119 C2125 0.950 . S
H2120 C2126 0.949 . S
C2121 H2116 0.950 . S
C2121 C2123 1.327 . S
C2121 C2127 1.429 . S
C2122 C2114 1.574 . S
C2122 H2117 0.949 . S
C2122 C2128 1.368 . S
C2123 C2107 1.349 . S
C2123 H2115 0.950 . S
C2123 C2121 1.327 . S
C2124 C2112 1.349 . S
C2124 H2118 0.950 . S
C2124 C2125 1.327 . S
C2125 H2119 0.950 . S
C2125 C2124 1.327 . S
C2125 C2129 1.429 . S
C2126 C2109 1.574 . S
C2126 H2120 0.949 . S
C2126 C2130 1.368 . S
C2127 C2108 1.429 . S
C2127 C2121 1.429 . S
C2127 C2128 1.523 . S
C2128 C2109 1.368 . S
C2128 C2122 1.368 . S
C2128 C2127 1.523 . S
C2129 C2113 1.429 . S
C2129 C2125 1.429 . S
C2129 C2130 1.523 . S
C2130 C2114 1.368 . S
C2130 C2126 1.368 . S
C2130 C2129 1.523 . S
H2131 C2106 0.950 . S
H2132 C2108 0.950 . S
H2133 C2109 0.949 . S
H2134 C2111 0.950 . S
H2135 C2113 0.950 . S
C2136 C2137 1.349 . S
C2136 C2138 1.327 . S
C2136 H2161 0.950 . S
C2137 C2136 1.349 . S
C2137 C2153 1.349 . S
C2138 C2136 1.327 . S
C2138 C2157 1.429 . S
C2138 H2162 0.950 . S
C2139 C2156 1.574 . S
C2139 C2158 1.368 . S
C2139 H2163 0.949 . S
H2140 C2144 0.949 . S
C2141 C2142 1.349 . S
C2141 C2143 1.327 . S
C2141 H2164 0.950 . S
C2142 C2141 1.349 . S
C2142 C2154 1.349 . S
C2143 C2141 1.327 . S
C2143 C2159 1.429 . S
C2143 H2165 0.950 . S
C2144 H2140 0.949 . S
C2144 C2152 1.574 . S
C2144 C2160 1.368 . S
H2145 C2153 0.950 . S
H2146 C2151 0.950 . S
H2147 C2152 0.949 . S
H2148 C2154 0.950 . S
H2149 C2155 0.950 . S
H2150 C2156 0.949 . S
C2151 H2146 0.950 . S
C2151 C2153 1.327 . S
C2151 C2157 1.429 . S
C2152 C2144 1.574 . S
C2152 H2147 0.949 . S
C2152 C2158 1.368 . S
C2153 C2137 1.349 . S
C2153 H2145 0.950 . S
C2153 C2151 1.327 . S
C2154 C2142 1.349 . S
C2154 H2148 0.950 . S
C2154 C2155 1.327 . S
C2155 H2149 0.950 . S
C2155 C2154 1.327 . S
C2155 C2159 1.429 . S
C2156 C2139 1.574 . S
C2156 H2150 0.949 . S
C2156 C2160 1.368 . S
C2157 C2138 1.429 . S
C2157 C2151 1.429 . S
C2157 C2158 1.523 . S
C2158 C2139 1.368 . S
C2158 C2152 1.368 . S
C2158 C2157 1.523 . S
C2159 C2143 1.429 . S
C2159 C2155 1.429 . S
C2159 C2160 1.523 . S
C2160 C2144 1.368 . S
C2160 C2156 1.368 . S
C2160 C2159 1.523 . S
H2161 C2136 0.950 . S
H2162 C2138 0.950 . S
H2163 C2139 0.949 . S
H2164 C2141 0.950 . S
H2165 C2143 0.950 . S
C2166 C2167 1.349 . S
C2166 C2168 1.327 . S
C2166 H2191 0.950 . S
C2167 C2166 1.349 . S
C2167 C2183 1.349 . S
C2168 C2166 1.327 . S
C2168 C2187 1.429 . S
C2168 H2192 0.950 . S
C2169 C2186 1.574 . S
C2169 C2188 1.368 . S
C2169 H2193 0.949 . S
H2170 C2174 0.949 . S
C2171 C2172 1.349 . S
C2171 C2173 1.327 . S
C2171 H2194 0.950 . S
C2172 C2171 1.349 . S
C2172 C2184 1.349 . S
C2173 C2171 1.327 . S
C2173 C2189 1.429 . S
C2173 H2195 0.950 . S
C2174 H2170 0.949 . S
C2174 C2182 1.574 . S
C2174 C2190 1.368 . S
H2175 C2183 0.950 . S
H2176 C2181 0.950 . S
H2177 C2182 0.949 . S
H2178 C2184 0.950 . S
H2179 C2185 0.950 . S
H2180 C2186 0.949 . S
C2181 H2176 0.950 . S
C2181 C2183 1.327 . S
C2181 C2187 1.429 . S
C2182 C2174 1.574 . S
C2182 H2177 0.949 . S
C2182 C2188 1.368 . S
C2183 C2167 1.349 . S
C2183 H2175 0.950 . S
C2183 C2181 1.327 . S
C2184 C2172 1.349 . S
C2184 H2178 0.950 . S
C2184 C2185 1.327 . S
C2185 H2179 0.950 . S
C2185 C2184 1.327 . S
C2185 C2189 1.429 . S
C2186 C2169 1.574 . S
C2186 H2180 0.949 . S
C2186 C2190 1.368 . S
C2187 C2168 1.429 . S
C2187 C2181 1.429 . S
C2187 C2188 1.523 . S
C2188 C2169 1.368 . S
C2188 C2182 1.368 . S
C2188 C2187 1.523 . S
C2189 C2173 1.429 . S
C2189 C2185 1.429 . S
C2189 C2190 1.523 . S
C2190 C2174 1.368 . S
C2190 C2186 1.368 . S
C2190 C2189 1.523 . S
H2191 C2166 0.950 . S
H2192 C2168 0.950 . S
H2193 C2169 0.949 . S
H2194 C2171 0.950 . S
H2195 C2173 0.950 . S
C2196 C2197 1.349 . S
C2196 C2198 1.327 . S
C2196 H2221 0.950 . S
C2197 C2196 1.349 . S
C2197 C2213 1.349 . S
C2198 C2196 1.327 . S
C2198 C2217 1.429 . S
C2198 H2222 0.950 . S
C2199 C2216 1.574 . S
C2199 C2218 1.368 . S
C2199 H2223 0.949 . S
H2200 C2204 0.949 . S
C2201 C2202 1.349 . S
C2201 C2203 1.327 . S
C2201 H2224 0.950 . S
C2202 C2201 1.349 . S
C2202 C2214 1.349 . S
C2203 C2201 1.327 . S
C2203 C2219 1.429 . S
C2203 H2225 0.950 . S
C2204 H2200 0.949 . S
C2204 C2212 1.574 . S
C2204 C2220 1.368 . S
H2205 C2213 0.950 . S
H2206 C2211 0.950 . S
H2207 C2212 0.949 . S
H2208 C2214 0.950 . S
H2209 C2215 0.950 . S
H2210 C2216 0.949 . S
C2211 H2206 0.950 . S
C2211 C2213 1.327 . S
C2211 C2217 1.429 . S
C2212 C2204 1.574 . S
C2212 H2207 0.949 . S
C2212 C2218 1.368 . S
C2213 C2197 1.349 . S
C2213 H2205 0.950 . S
C2213 C2211 1.327 . S
C2214 C2202 1.349 . S
C2214 H2208 0.950 . S
C2214 C2215 1.327 . S
C2215 H2209 0.950 . S
C2215 C2214 1.327 . S
C2215 C2219 1.429 . S
C2216 C2199 1.574 . S
C2216 H2210 0.949 . S
C2216 C2220 1.368 . S
C2217 C2198 1.429 . S
C2217 C2211 1.429 . S
C2217 C2218 1.523 . S
C2218 C2199 1.368 . S
C2218 C2212 1.368 . S
C2218 C2217 1.523 . S
C2219 C2203 1.429 . S
C2219 C2215 1.429 . S
C2219 C2220 1.523 . S
C2220 C2204 1.368 . S
C2220 C2216 1.368 . S
C2220 C2219 1.523 . S
H2221 C2196 0.950 . S
H2222 C2198 0.950 . S
H2223 C2199 0.949 . S
H2224 C2201 0.950 . S
H2225 C2203 0.950 . S
C2226 C2227 1.349 . S
C2226 C2228 1.327 . S
C2226 H2251 0.950 . S
C2227 C2226 1.349 . S
C2227 C2243 1.349 . S
C2228 C2226 1.327 . S
C2228 C2247 1.429 . S
C2228 H2252 0.950 . S
C2229 C2246 1.574 . S
C2229 C2248 1.368 . S
C2229 H2253 0.949 . S
H2230 C2234 0.949 . S
C2231 C2232 1.349 . S
C2231 C2233 1.327 . S
C2231 H2254 0.950 . S
C2232 C2231 1.349 . S
C2232 C2244 1.349 . S
C2233 C2231 1.327 . S
C2233 C2249 1.429 . S
C2233 H2255 0.950 . S
C2234 H2230 0.949 . S
C2234 C2242 1.574 . S
C2234 C2250 1.368 . S
H2235 C2243 0.950 . S
H2236 C2241 0.950 . S
H2237 C2242 0.949 . S
H2238 C2244 0.950 . S
H2239 C2245 0.950 . S
H2240 C2246 0.949 . S
C2241 H2236 0.950 . S
C2241 C2243 1.327 . S
C2241 C2247 1.429 . S
C2242 C2234 1.574 . S
C2242 H2237 0.949 . S
C2242 C2248 1.368 . S
C2243 C2227 1.349 . S
C2243 H2235 0.950 . S
C2243 C2241 1.327 . S
C2244 C2232 1.349 . S
C2244 H2238 0.950 . S
C2244 C2245 1.327 . S
C2245 H2239 0.950 . S
C2245 C2244 1.327 . S
C2245 C2249 1.429 . S
C2246 C2229 1.574 . S
C2246 H2240 0.949 . S
C2246 C2250 1.368 . S
C2247 C2228 1.429 . S
C2247 C2241 1.429 . S
C2247 C2248 1.523 . S
C2248 C2229 1.368 . S
C2248 C2242 1.368 . S
C2248 C2247 1.523 . S
C2249 C2233 1.429 . S
C2249 C2245 1.429 . S
C2249 C2250 1.523 . S
C2250 C2234 1.368 . S
C2250 C2246 1.368 . S
C2250 C2249 1.523 . S
H2251 C2226 0.950 . S
H2252 C2228 0.950 . S
H2253 C2229 0.949 . S
H2254 C2231 0.950 . S
H2255 C2233 0.950 . S
C2256 C2257 1.349 . S
C2256 C2258 1.327 . S
C2256 H2281 0.950 1_565 S
C2257 C2256 1.349 . S
C2257 C2273 1.349 . S
C2258 C2256 1.327 . S
C2258 C2277 1.429 . S
C2258 H2282 0.950 . S
C2259 C2276 1.574 . S
C2259 C2278 1.368 . S
C2259 H2283 0.949 . S
H2260 C2264 0.949 . S
C2261 C2262 1.349 . S
C2261 C2263 1.327 . S
C2261 H2284 0.950 . S
C2262 C2261 1.349 . S
C2262 C2274 1.349 . S
C2263 C2261 1.327 . S
C2263 C2279 1.429 . S
C2263 H2285 0.950 . S
C2264 H2260 0.949 . S
C2264 C2272 1.574 . S
C2264 C2280 1.368 . S
H2265 C2273 0.950 . S
H2266 C2271 0.950 . S
H2267 C2272 0.949 . S
H2268 C2274 0.950 . S
H2269 C2275 0.950 . S
H2270 C2276 0.949 . S
C2271 H2266 0.950 . S
C2271 C2273 1.327 . S
C2271 C2277 1.429 . S
C2272 C2264 1.574 . S
C2272 H2267 0.949 . S
C2272 C2278 1.368 . S
C2273 C2257 1.349 . S
C2273 H2265 0.950 . S
C2273 C2271 1.327 . S
C2274 C2262 1.349 . S
C2274 H2268 0.950 . S
C2274 C2275 1.327 . S
C2275 H2269 0.950 . S
C2275 C2274 1.327 . S
C2275 C2279 1.429 . S
C2276 C2259 1.574 . S
C2276 H2270 0.949 . S
C2276 C2280 1.368 . S
C2277 C2258 1.429 . S
C2277 C2271 1.429 . S
C2277 C2278 1.523 . S
C2278 C2259 1.368 . S
C2278 C2272 1.368 . S
C2278 C2277 1.523 . S
C2279 C2263 1.429 . S
C2279 C2275 1.429 . S
C2279 C2280 1.523 . S
C2280 C2264 1.368 . S
C2280 C2276 1.368 . S
C2280 C2279 1.523 . S
H2281 C2256 0.950 1_545 S
H2282 C2258 0.950 . S
H2283 C2259 0.949 . S
H2284 C2261 0.950 . S
H2285 C2263 0.950 . S
C2286 C2287 1.349 1_554 S
C2286 C2288 1.327 . S
C2286 H2311 0.950 . S
C2287 C2286 1.349 1_556 S
C2287 C2303 1.349 . S
C2288 C2286 1.327 . S
C2288 C2307 1.429 1_554 S
C2288 H2312 0.950 . S
C2289 C2306 1.574 . S
C2289 C2308 1.384 . S
C2289 H2313 0.949 . S
H2290 C2294 0.949 . S
C2291 C2292 1.349 1_556 S
C2291 C2293 1.327 . S
C2291 H2314 0.950 . S
C2292 C2291 1.349 1_554 S
C2292 C2304 1.349 . S
C2293 C2291 1.327 . S
C2293 C2309 1.429 1_556 S
C2293 H2315 0.950 . S
C2294 H2290 0.949 . S
C2294 C2302 1.574 . S
C2294 C2310 1.368 . S
H2295 C2303 0.950 . S
H2296 C2301 0.950 . S
H2297 C2302 0.949 . S
H2298 C2304 0.950 . S
H2299 C2305 0.950 . S
H2300 C2306 0.949 . S
C2301 H2296 0.950 . S
C2301 C2303 1.327 . S
C2301 C2307 1.429 . S
C2302 C2294 1.574 . S
C2302 H2297 0.949 . S
C2302 C2308 1.352 1_554 S
C2303 C2287 1.349 . S
C2303 H2295 0.950 . S
C2303 C2301 1.327 . S
C2304 C2292 1.349 . S
C2304 H2298 0.950 . S
C2304 C2305 1.327 . S
C2305 H2299 0.950 . S
C2305 C2304 1.327 . S
C2305 C2309 1.429 . S
C2306 C2289 1.574 . S
C2306 H2300 0.949 . S
C2306 C2310 1.368 1_556 S
C2307 C2288 1.429 1_556 S
C2307 C2301 1.429 . S
C2307 C2308 1.524 . S
C2308 C2289 1.384 . S
C2308 C2302 1.352 1_556 S
C2308 C2307 1.524 . S
C2309 C2293 1.429 1_554 S
C2309 C2305 1.429 . S
C2309 C2310 1.523 . S
C2310 C2294 1.368 . S
C2310 C2306 1.368 1_554 S
C2310 C2309 1.523 . S
H2311 C2286 0.950 . S
H2312 C2288 0.950 . S
H2313 C2289 0.949 . S
H2314 C2291 0.950 . S
H2315 C2293 0.950 . S
C2316 C2317 1.349 . S
C2316 C2318 1.327 . S
C2316 H2341 0.950 . S
C2317 C2316 1.349 . S
C2317 C2333 1.349 1_554 S
C2318 C2316 1.327 . S
C2318 C2337 1.429 . S
C2318 H2342 0.950 . S
C2319 C2336 1.574 . S
C2319 C2338 1.368 1_556 S
C2319 H2343 0.949 . S
H2320 C2324 0.949 . S
C2321 C2322 1.349 . S
C2321 C2323 1.327 . S
C2321 H2344 0.950 . S
C2322 C2321 1.349 . S
C2322 C2334 1.349 1_556 S
C2323 C2321 1.327 . S
C2323 C2339 1.429 . S
C2323 H2345 0.950 . S
C2324 H2320 0.949 . S
C2324 C2332 1.574 . S
C2324 C2340 1.356 1_554 S
H2325 C2333 0.950 . S
H2326 C2331 0.950 . S
H2327 C2332 0.949 . S
H2328 C2334 0.950 . S
H2329 C2335 0.950 . S
H2330 C2336 0.949 . S
C2331 H2326 0.950 . S
C2331 C2333 1.327 . S
C2331 C2337 1.429 1_556 S
C2332 C2324 1.574 . S
C2332 H2327 0.949 . S
C2332 C2338 1.368 . S
C2333 C2317 1.349 1_556 S
C2333 H2325 0.950 . S
C2333 C2331 1.327 . S
C2334 C2322 1.349 1_554 S
C2334 H2328 0.950 . S
C2334 C2335 1.327 . S
C2335 H2329 0.950 . S
C2335 C2334 1.327 . S
C2335 C2339 1.429 1_554 S
C2336 C2319 1.574 . S
C2336 H2330 0.949 . S
C2336 C2340 1.381 . S
C2337 C2318 1.429 . S
C2337 C2331 1.429 1_554 S
C2337 C2338 1.523 . S
C2338 C2319 1.368 1_554 S
C2338 C2332 1.368 . S
C2338 C2337 1.523 . S
C2339 C2323 1.429 . S
C2339 C2335 1.429 1_556 S
C2339 C2340 1.523 . S
C2340 C2324 1.356 1_556 S
C2340 C2336 1.381 . S
C2340 C2339 1.523 . S
H2341 C2316 0.950 . S
H2342 C2318 0.950 . S
H2343 C2319 0.949 . S
H2344 C2321 0.950 . S
H2345 C2323 0.950 . S
C2346 C2347 1.349 1_556 S
C2346 C2348 1.327 . S
C2346 H2371 0.950 . S
C2347 C2346 1.349 1_554 S
C2347 C2363 1.349 . S
C2348 C2346 1.327 . S
C2348 C2367 1.429 1_556 S
C2348 H2372 0.950 . S
C2349 C2366 1.574 . S
C2349 C2368 1.368 . S
C2349 H2373 0.949 . S
H2350 C2354 0.949 . S
C2351 C2352 1.349 1_554 S
C2351 C2353 1.327 . S
C2351 H2374 0.950 . S
C2352 C2351 1.349 1_556 S
C2352 C2364 1.349 . S
C2353 C2351 1.327 . S
C2353 C2369 1.429 1_554 S
C2353 H2375 0.950 . S
C2354 H2350 0.949 . S
C2354 C2362 1.574 . S
C2354 C2370 1.380 . S
H2355 C2363 0.950 . S
H2356 C2361 0.950 . S
H2357 C2362 0.949 . S
H2358 C2364 0.950 . S
H2359 C2365 0.950 . S
H2360 C2366 0.949 . S
C2361 H2356 0.950 . S
C2361 C2363 1.327 . S
C2361 C2367 1.429 . S
C2362 C2354 1.574 . S
C2362 H2357 0.949 . S
C2362 C2368 1.368 1_556 S
C2363 C2347 1.349 . S
C2363 H2355 0.950 . S
C2363 C2361 1.327 . S
C2364 C2352 1.349 . S
C2364 H2358 0.950 . S
C2364 C2365 1.327 . S
C2365 H2359 0.950 . S
C2365 C2364 1.327 . S
C2365 C2369 1.429 . S
C2366 C2349 1.574 . S
C2366 H2360 0.949 . S
C2366 C2370 1.357 1_554 S
C2367 C2348 1.429 1_554 S
C2367 C2361 1.429 . S
C2367 C2368 1.523 . S
C2368 C2349 1.368 . S
C2368 C2362 1.368 1_554 S
C2368 C2367 1.523 . S
C2369 C2353 1.429 1_556 S
C2369 C2365 1.429 . S
C2369 C2370 1.523 . S
C2370 C2354 1.380 . S
C2370 C2366 1.357 1_556 S
C2370 C2369 1.523 . S
H2371 C2346 0.950 . S
H2372 C2348 0.950 . S
H2373 C2349 0.949 . S
H2374 C2351 0.950 . S
H2375 C2353 0.950 . S
C2376 C2377 1.349 . S
C2376 C2378 1.327 . S
C2376 H2401 0.950 . S
C2377 C2376 1.349 . S
C2377 C2393 1.349 . S
C2378 C2376 1.327 . S
C2378 C2397 1.429 . S
C2378 H2402 0.950 . S
C2379 C2396 1.574 . S
C2379 C2398 1.368 . S
C2379 H2403 0.949 . S
H2380 C2384 0.949 . S
C2381 C2382 1.349 . S
C2381 C2383 1.327 . S
C2381 H2404 0.950 . S
C2382 C2381 1.349 . S
C2382 C2394 1.349 . S
C2383 C2381 1.327 . S
C2383 C2399 1.429 . S
C2383 H2405 0.950 . S
C2384 H2380 0.949 . S
C2384 C2392 1.574 . S
C2384 C2400 1.368 . S
H2385 C2393 0.950 1_556 S
H2386 C2391 0.950 . S
H2387 C2392 0.949 . S
H2388 C2394 0.950 . S
H2389 C2395 0.950 . S
H2390 C2396 0.949 . S
C2391 H2386 0.950 . S
C2391 C2393 1.327 . S
C2391 C2397 1.429 . S
C2392 C2384 1.574 . S
C2392 H2387 0.949 . S
C2392 C2398 1.368 . S
C2393 C2377 1.349 . S
C2393 H2385 0.950 1_554 S
C2393 C2391 1.327 . S
C2394 C2382 1.349 . S
C2394 H2388 0.950 . S
C2394 C2395 1.327 . S
C2395 H2389 0.950 . S
C2395 C2394 1.327 . S
C2395 C2399 1.429 . S
C2396 C2379 1.574 . S
C2396 H2390 0.949 . S
C2396 C2400 1.368 . S
C2397 C2378 1.429 . S
C2397 C2391 1.429 . S
C2397 C2398 1.523 . S
C2398 C2379 1.368 . S
C2398 C2392 1.368 . S
C2398 C2397 1.523 . S
C2399 C2383 1.429 . S
C2399 C2395 1.429 . S
C2399 C2400 1.523 . S
C2400 C2384 1.368 . S
C2400 C2396 1.368 . S
C2400 C2399 1.523 . S
H2401 C2376 0.950 . S
H2402 C2378 0.950 . S
H2403 C2379 0.949 . S
H2404 C2381 0.950 . S
H2405 C2383 0.950 . S
C2406 C2407 1.349 . S
C2406 C2408 1.327 . S
C2406 H2431 0.950 . S
C2407 C2406 1.349 . S
C2407 C2423 1.349 . S
C2408 C2406 1.327 . S
C2408 C2427 1.429 . S
C2408 H2432 0.950 . S
C2409 C2426 1.574 . S
C2409 C2428 1.368 . S
C2409 H2433 0.949 . S
H2410 C2414 0.949 . S
C2411 C2412 1.349 . S
C2411 C2413 1.327 . S
C2411 H2434 0.950 . S
C2412 C2411 1.349 . S
C2412 C2424 1.337 1_554 S
C2413 C2411 1.327 . S
C2413 C2429 1.429 . S
C2413 H2435 0.950 . S
C2414 H2410 0.949 . S
C2414 C2422 1.574 . S
C2414 C2430 1.368 . S
H2415 C2423 0.950 . S
H2416 C2421 0.950 . S
H2417 C2422 0.949 . S
H2418 C2424 0.969 . S
H2419 C2425 0.950 1_556 S
H2420 C2426 0.949 . S
C2421 H2416 0.950 . S
C2421 C2423 1.327 . S
C2421 C2427 1.429 . S
C2422 C2414 1.574 . S
C2422 H2417 0.949 . S
C2422 C2428 1.368 . S
C2423 C2407 1.349 . S
C2423 H2415 0.950 . S
C2423 C2421 1.327 . S
C2424 C2412 1.337 1_556 S
C2424 H2418 0.969 . S
C2424 C2425 1.320 1_556 S
C2425 H2419 0.950 1_554 S
C2425 C2424 1.320 1_554 S
C2425 C2429 1.429 . S
C2426 C2409 1.574 . S
C2426 H2420 0.949 . S
C2426 C2430 1.368 . S
C2427 C2408 1.429 . S
C2427 C2421 1.429 . S
C2427 C2428 1.523 . S
C2428 C2409 1.368 . S
C2428 C2422 1.368 . S
C2428 C2427 1.523 . S
C2429 C2413 1.429 . S
C2429 C2425 1.429 . S
C2429 C2430 1.523 . S
C2430 C2414 1.368 . S
C2430 C2426 1.368 . S
C2430 C2429 1.523 . S
H2431 C2406 0.950 . S
H2432 C2408 0.950 . S
H2433 C2409 0.949 . S
H2434 C2411 0.950 . S
H2435 C2413 0.950 . S
C2436 C2437 1.349 . S
C2436 C2438 1.327 . S
C2436 H2461 0.950 . S
C2437 C2436 1.349 . S
C2437 C2453 1.349 . S
C2438 C2436 1.327 . S
C2438 C2457 1.429 . S
C2438 H2462 0.950 . S
C2439 C2456 1.574 . S
C2439 C2458 1.368 . S
C2439 H2463 0.949 . S
H2440 C2444 0.949 . S
C2441 C2442 1.349 . S
C2441 C2443 1.327 . S
C2441 H2464 0.950 . S
C2442 C2441 1.349 . S
C2442 C2454 1.349 . S
C2443 C2441 1.327 . S
C2443 C2459 1.429 . S
C2443 H2465 0.950 . S
C2444 H2440 0.949 . S
C2444 C2452 1.574 . S
C2444 C2460 1.368 . S
H2445 C2453 0.950 . S
H2446 C2451 0.950 . S
H2447 C2452 0.949 . S
H2448 C2454 0.950 1_556 S
H2449 C2455 0.959 . S
H2450 C2456 0.949 . S
C2451 H2446 0.950 . S
C2451 C2453 1.327 . S
C2451 C2457 1.429 . S
C2452 C2444 1.574 . S
C2452 H2447 0.949 . S
C2452 C2458 1.368 . S
C2453 C2437 1.349 . S
C2453 H2445 0.950 . S
C2453 C2451 1.327 . S
C2454 C2442 1.349 . S
C2454 H2448 0.950 1_554 S
C2454 C2455 1.327 . S
C2455 H2449 0.959 . S
C2455 C2454 1.327 . S
C2455 C2459 1.429 . S
C2456 C2439 1.574 . S
C2456 H2450 0.949 . S
C2456 C2460 1.368 . S
C2457 C2438 1.429 . S
C2457 C2451 1.429 . S
C2457 C2458 1.523 . S
C2458 C2439 1.368 . S
C2458 C2452 1.368 . S
C2458 C2457 1.523 . S
C2459 C2443 1.429 . S
C2459 C2455 1.429 . S
C2459 C2460 1.523 . S
C2460 C2444 1.368 . S
C2460 C2456 1.368 . S
C2460 C2459 1.523 . S
H2461 C2436 0.950 . S
H2462 C2438 0.950 . S
H2463 C2439 0.949 . S
H2464 C2441 0.950 . S
H2465 C2443 0.950 . S
C2466 C2467 1.349 . S
C2466 C2468 1.327 . S
C2466 H2491 0.950 . S
C2467 C2466 1.349 . S
C2467 C2483 1.349 . S
C2468 C2466 1.327 . S
C2468 C2487 1.429 . S
C2468 H2492 0.950 . S
C2469 C2486 1.574 . S
C2469 C2488 1.368 . S
C2469 H2493 0.949 . S
H2470 C2474 0.949 . S
C2471 C2472 1.349 . S
C2471 C2473 1.327 . S
C2471 H2494 0.950 . S
C2472 C2471 1.349 . S
C2472 C2484 1.349 . S
C2473 C2471 1.327 . S
C2473 C2489 1.429 . S
C2473 H2495 0.950 . S
C2474 H2470 0.949 . S
C2474 C2482 1.574 . S
C2474 C2490 1.368 . S
H2475 C2483 0.950 . S
H2476 C2481 0.950 . S
H2477 C2482 0.949 . S
H2478 C2484 0.950 . S
H2479 C2485 0.950 . S
H2480 C2486 0.949 . S
C2481 H2476 0.950 . S
C2481 C2483 1.327 . S
C2481 C2487 1.429 . S
C2482 C2474 1.574 . S
C2482 H2477 0.949 . S
C2482 C2488 1.368 . S
C2483 C2467 1.349 . S
C2483 H2475 0.950 . S
C2483 C2481 1.327 . S
C2484 C2472 1.349 . S
C2484 H2478 0.950 . S
C2484 C2485 1.327 . S
C2485 H2479 0.950 . S
C2485 C2484 1.327 . S
C2485 C2489 1.429 . S
C2486 C2469 1.574 . S
C2486 H2480 0.949 . S
C2486 C2490 1.368 . S
C2487 C2468 1.429 . S
C2487 C2481 1.429 . S
C2487 C2488 1.523 . S
C2488 C2469 1.368 . S
C2488 C2482 1.368 . S
C2488 C2487 1.523 . S
C2489 C2473 1.429 . S
C2489 C2485 1.429 . S
C2489 C2490 1.523 . S
C2490 C2474 1.368 . S
C2490 C2486 1.368 . S
C2490 C2489 1.523 . S
H2491 C2466 0.950 . S
H2492 C2468 0.950 . S
H2493 C2469 0.949 . S
H2494 C2471 0.950 . S
H2495 C2473 0.950 . S
C2496 C2497 1.349 . S
C2496 C2498 1.327 . S
C2496 H2521 0.950 . S
C2497 C2496 1.349 . S
C2497 C2513 1.349 . S
C2498 C2496 1.327 . S
C2498 C2517 1.429 . S
C2498 H2522 0.950 . S
C2499 C2516 1.574 . S
C2499 C2518 1.368 . S
C2499 H2523 0.949 . S
H2500 C2504 0.949 . S
C2501 C2502 1.349 . S
C2501 C2503 1.327 . S
C2501 H2524 0.950 . S
C2502 C2501 1.349 . S
C2502 C2514 1.349 . S
C2503 C2501 1.327 . S
C2503 C2519 1.429 . S
C2503 H2525 0.950 . S
C2504 H2500 0.949 . S
C2504 C2512 1.574 . S
C2504 C2520 1.368 . S
H2505 C2513 0.950 . S
H2506 C2511 0.950 . S
H2507 C2512 0.949 . S
H2508 C2514 0.950 . S
H2509 C2515 0.950 . S
H2510 C2516 0.949 . S
C2511 H2506 0.950 . S
C2511 C2513 1.327 . S
C2511 C2517 1.429 . S
C2512 C2504 1.574 . S
C2512 H2507 0.949 . S
C2512 C2518 1.368 . S
C2513 C2497 1.349 . S
C2513 H2505 0.950 . S
C2513 C2511 1.327 . S
C2514 C2502 1.349 . S
C2514 H2508 0.950 . S
C2514 C2515 1.327 . S
C2515 H2509 0.950 . S
C2515 C2514 1.327 . S
C2515 C2519 1.429 . S
C2516 C2499 1.574 . S
C2516 H2510 0.949 . S
C2516 C2520 1.368 . S
C2517 C2498 1.429 . S
C2517 C2511 1.429 . S
C2517 C2518 1.523 . S
C2518 C2499 1.368 . S
C2518 C2512 1.368 . S
C2518 C2517 1.523 . S
C2519 C2503 1.429 . S
C2519 C2515 1.429 . S
C2519 C2520 1.523 . S
C2520 C2504 1.368 . S
C2520 C2516 1.368 . S
C2520 C2519 1.523 . S
H2521 C2496 0.950 . S
H2522 C2498 0.950 . S
H2523 C2499 0.949 . S
H2524 C2501 0.950 . S
H2525 C2503 0.950 . S
C2526 C2527 1.349 . S
C2526 C2528 1.327 . S
C2526 H2551 0.950 . S
C2527 C2526 1.349 . S
C2527 C2543 1.349 . S
C2528 C2526 1.327 . S
C2528 C2547 1.429 . S
C2528 H2552 0.950 . S
C2529 C2546 1.574 . S
C2529 C2548 1.368 . S
C2529 H2553 0.949 . S
H2530 C2534 0.949 . S
C2531 C2532 1.349 . S
C2531 C2533 1.327 . S
C2531 H2554 0.950 . S
C2532 C2531 1.349 . S
C2532 C2544 1.349 . S
C2533 C2531 1.327 . S
C2533 C2549 1.429 . S
C2533 H2555 0.950 . S
C2534 H2530 0.949 . S
C2534 C2542 1.574 . S
C2534 C2550 1.368 . S
H2535 C2543 0.950 . S
H2536 C2541 0.950 . S
H2537 C2542 0.949 . S
H2538 C2544 0.950 . S
H2539 C2545 0.950 . S
H2540 C2546 0.949 . S
C2541 H2536 0.950 . S
C2541 C2543 1.327 . S
C2541 C2547 1.429 . S
C2542 C2534 1.574 . S
C2542 H2537 0.949 . S
C2542 C2548 1.368 . S
C2543 C2527 1.349 . S
C2543 H2535 0.950 . S
C2543 C2541 1.327 . S
C2544 C2532 1.349 . S
C2544 H2538 0.950 . S
C2544 C2545 1.327 . S
C2545 H2539 0.950 . S
C2545 C2544 1.327 . S
C2545 C2549 1.429 . S
C2546 C2529 1.574 . S
C2546 H2540 0.949 . S
C2546 C2550 1.368 . S
C2547 C2528 1.429 . S
C2547 C2541 1.429 . S
C2547 C2548 1.523 . S
C2548 C2529 1.368 . S
C2548 C2542 1.368 . S
C2548 C2547 1.523 . S
C2549 C2533 1.429 . S
C2549 C2545 1.429 . S
C2549 C2550 1.523 . S
C2550 C2534 1.368 . S
C2550 C2546 1.368 . S
C2550 C2549 1.523 . S
H2551 C2526 0.950 . S
H2552 C2528 0.950 . S
H2553 C2529 0.949 . S
H2554 C2531 0.950 . S
H2555 C2533 0.950 . S
C2556 C2557 1.349 . S
C2556 C2558 1.327 . S
C2556 H2581 0.950 . S
C2557 C2556 1.349 . S
C2557 C2573 1.349 . S
C2558 C2556 1.327 . S
C2558 C2577 1.429 . S
C2558 H2582 0.950 . S
C2559 C2576 1.574 . S
C2559 C2578 1.368 . S
C2559 H2583 0.949 . S
H2560 C2564 0.949 . S
C2561 C2562 1.349 . S
C2561 C2563 1.327 . S
C2561 H2584 0.950 . S
C2562 C2561 1.349 . S
C2562 C2574 1.349 . S
C2563 C2561 1.327 . S
C2563 C2579 1.429 . S
C2563 H2585 0.950 . S
C2564 H2560 0.949 . S
C2564 C2572 1.574 . S
C2564 C2580 1.368 . S
H2565 C2573 0.950 1_554 S
H2566 C2571 0.950 . S
H2567 C2572 0.949 . S
H2568 C2574 0.950 . S
H2569 C2575 0.950 . S
H2570 C2576 0.949 . S
C2571 H2566 0.950 . S
C2571 C2573 1.327 . S
C2571 C2577 1.429 . S
C2572 C2564 1.574 . S
C2572 H2567 0.949 . S
C2572 C2578 1.368 . S
C2573 C2557 1.349 . S
C2573 H2565 0.950 1_556 S
C2573 C2571 1.327 . S
C2574 C2562 1.349 . S
C2574 H2568 0.950 . S
C2574 C2575 1.327 . S
C2575 H2569 0.950 . S
C2575 C2574 1.327 . S
C2575 C2579 1.429 . S
C2576 C2559 1.574 . S
C2576 H2570 0.949 . S
C2576 C2580 1.368 . S
C2577 C2558 1.429 . S
C2577 C2571 1.429 . S
C2577 C2578 1.523 . S
C2578 C2559 1.368 . S
C2578 C2572 1.368 . S
C2578 C2577 1.523 . S
C2579 C2563 1.429 . S
C2579 C2575 1.429 . S
C2579 C2580 1.523 . S
C2580 C2564 1.368 . S
C2580 C2576 1.368 . S
C2580 C2579 1.523 . S
H2581 C2556 0.950 . S
H2582 C2558 0.950 . S
H2583 C2559 0.949 . S
H2584 C2561 0.950 . S
H2585 C2563 0.950 . S
C2586 C2587 1.349 . S
C2586 C2588 1.327 . S
C2586 H2611 0.950 . S
C2587 C2586 1.349 . S
C2587 C2603 1.349 . S
C2588 C2586 1.327 . S
C2588 C2607 1.429 . S
C2588 H2612 0.950 . S
C2589 C2606 1.574 . S
C2589 C2608 1.368 . S
C2589 H2613 0.949 . S
H2590 C2594 0.949 . S
C2591 C2592 1.349 . S
C2591 C2593 1.327 . S
C2591 H2614 0.950 . S
C2592 C2591 1.349 . S
C2592 C2604 1.349 . S
C2593 C2591 1.327 . S
C2593 C2609 1.429 . S
C2593 H2615 0.950 . S
C2594 H2590 0.949 . S
C2594 C2602 1.574 . S
C2594 C2610 1.368 . S
H2595 C2603 0.950 . S
H2596 C2601 0.950 . S
H2597 C2602 0.949 . S
H2598 C2604 0.950 1_554 S
H2599 C2605 0.950 . S
H2600 C2606 0.949 . S
C2601 H2596 0.950 . S
C2601 C2603 1.327 . S
C2601 C2607 1.429 . S
C2602 C2594 1.574 . S
C2602 H2597 0.949 . S
C2602 C2608 1.368 . S
C2603 C2587 1.349 . S
C2603 H2595 0.950 . S
C2603 C2601 1.327 . S
C2604 C2592 1.349 . S
C2604 H2598 0.950 1_556 S
C2604 C2605 1.327 . S
C2605 H2599 0.950 . S
C2605 C2604 1.327 . S
C2605 C2609 1.429 . S
C2606 C2589 1.574 . S
C2606 H2600 0.949 . S
C2606 C2610 1.368 . S
C2607 C2588 1.429 . S
C2607 C2601 1.429 . S
C2607 C2608 1.523 . S
C2608 C2589 1.368 . S
C2608 C2602 1.368 . S
C2608 C2607 1.523 . S
C2609 C2593 1.429 . S
C2609 C2605 1.429 . S
C2609 C2610 1.523 . S
C2610 C2594 1.368 . S
C2610 C2606 1.368 . S
C2610 C2609 1.523 . S
H2611 C2586 0.950 . S
H2612 C2588 0.950 . S
H2613 C2589 0.949 . S
H2614 C2591 0.950 . S
H2615 C2593 0.950 . S
C2616 C2617 1.349 . S
C2616 C2618 1.327 . S
C2616 H2641 0.950 . S
C2617 C2616 1.349 . S
C2617 C2633 1.354 . S
C2618 C2616 1.327 . S
C2618 C2637 1.429 . S
C2618 H2642 0.950 . S
C2619 C2636 1.574 . S
C2619 C2638 1.368 . S
C2619 H2643 0.949 . S
H2620 C2624 0.949 . S
C2621 C2622 1.349 . S
C2621 C2623 1.327 . S
C2621 H2644 0.950 . S
C2622 C2621 1.349 . S
C2622 C2634 1.349 . S
C2623 C2621 1.327 . S
C2623 C2639 1.429 . S
C2623 H2645 0.950 . S
C2624 H2620 0.949 . S
C2624 C2632 1.574 . S
C2624 C2640 1.368 . S
H2625 C2633 0.941 1_554 S
H2626 C2631 0.938 1_554 S
H2627 C2632 0.949 . S
H2628 C2634 0.950 . S
H2629 C2635 0.950 . S
H2630 C2636 0.949 . S
C2631 H2626 0.938 1_556 S
C2631 C2633 1.331 . S
C2631 C2637 1.429 . S
C2632 C2624 1.574 . S
C2632 H2627 0.949 . S
C2632 C2638 1.368 . S
C2633 C2617 1.354 . S
C2633 H2625 0.941 1_556 S
C2633 C2631 1.331 . S
C2634 C2622 1.349 . S
C2634 H2628 0.950 . S
C2634 C2635 1.327 . S
C2635 H2629 0.950 . S
C2635 C2634 1.327 . S
C2635 C2639 1.429 . S
C2636 C2619 1.574 . S
C2636 H2630 0.949 . S
C2636 C2640 1.368 . S
C2637 C2618 1.429 . S
C2637 C2631 1.429 . S
C2637 C2638 1.523 . S
C2638 C2619 1.368 . S
C2638 C2632 1.368 . S
C2638 C2637 1.523 . S
C2639 C2623 1.429 . S
C2639 C2635 1.429 . S
C2639 C2640 1.523 . S
C2640 C2624 1.368 . S
C2640 C2636 1.368 . S
C2640 C2639 1.523 . S
H2641 C2616 0.950 . S
H2642 C2618 0.950 . S
H2643 C2619 0.949 . S
H2644 C2621 0.950 . S
H2645 C2623 0.950 . S
C2646 C2647 1.349 . S
C2646 C2648 1.327 . S
C2646 H2671 0.950 . S
C2647 C2646 1.349 . S
C2647 C2663 1.349 . S
C2648 C2646 1.327 . S
C2648 C2667 1.429 . S
C2648 H2672 0.950 . S
C2649 C2666 1.574 . S
C2649 C2668 1.368 . S
C2649 H2673 0.949 . S
H2650 C2654 0.949 . S
C2651 C2652 1.349 . S
C2651 C2653 1.327 . S
C2651 H2674 0.950 . S
C2652 C2651 1.349 . S
C2652 C2664 1.349 . S
C2653 C2651 1.327 . S
C2653 C2669 1.429 . S
C2653 H2675 0.950 . S
C2654 H2650 0.949 . S
C2654 C2662 1.574 . S
C2654 C2670 1.368 . S
H2655 C2663 0.950 . S
H2656 C2661 0.950 . S
H2657 C2662 0.949 . S
H2658 C2664 0.950 . S
H2659 C2665 0.950 . S
H2660 C2666 0.949 . S
C2661 H2656 0.950 . S
C2661 C2663 1.327 . S
C2661 C2667 1.429 . S
C2662 C2654 1.574 . S
C2662 H2657 0.949 . S
C2662 C2668 1.368 . S
C2663 C2647 1.349 . S
C2663 H2655 0.950 . S
C2663 C2661 1.327 . S
C2664 C2652 1.349 . S
C2664 H2658 0.950 . S
C2664 C2665 1.327 . S
C2665 H2659 0.950 . S
C2665 C2664 1.327 . S
C2665 C2669 1.429 . S
C2666 C2649 1.574 . S
C2666 H2660 0.949 . S
C2666 C2670 1.368 . S
C2667 C2648 1.429 . S
C2667 C2661 1.429 . S
C2667 C2668 1.523 . S
C2668 C2649 1.368 . S
C2668 C2662 1.368 . S
C2668 C2667 1.523 . S
C2669 C2653 1.429 . S
C2669 C2665 1.429 . S
C2669 C2670 1.523 . S
C2670 C2654 1.368 . S
C2670 C2666 1.368 . S
C2670 C2669 1.523 . S
H2671 C2646 0.950 . S
H2672 C2648 0.950 . S
H2673 C2649 0.949 . S
H2674 C2651 0.950 . S
H2675 C2653 0.950 . S
C2676 C2677 1.349 . S
C2676 C2678 1.327 . S
C2676 H2701 0.950 . S
C2677 C2676 1.349 . S
C2677 C2693 1.349 . S
C2678 C2676 1.327 . S
C2678 C2697 1.429 . S
C2678 H2702 0.950 . S
C2679 C2696 1.574 . S
C2679 C2698 1.368 . S
C2679 H2703 0.949 . S
H2680 C2684 0.949 . S
C2681 C2682 1.349 . S
C2681 C2683 1.327 . S
C2681 H2704 0.950 . S
C2682 C2681 1.349 . S
C2682 C2694 1.349 . S
C2683 C2681 1.327 . S
C2683 C2699 1.429 . S
C2683 H2705 0.950 . S
C2684 H2680 0.949 . S
C2684 C2692 1.574 . S
C2684 C2700 1.368 . S
H2685 C2693 0.950 . S
H2686 C2691 0.950 . S
H2687 C2692 0.949 . S
H2688 C2694 0.950 . S
H2689 C2695 0.950 . S
H2690 C2696 0.949 . S
C2691 H2686 0.950 . S
C2691 C2693 1.327 . S
C2691 C2697 1.429 . S
C2692 C2684 1.574 . S
C2692 H2687 0.949 . S
C2692 C2698 1.368 . S
C2693 C2677 1.349 . S
C2693 H2685 0.950 . S
C2693 C2691 1.327 . S
C2694 C2682 1.349 . S
C2694 H2688 0.950 . S
C2694 C2695 1.327 . S
C2695 H2689 0.950 . S
C2695 C2694 1.327 . S
C2695 C2699 1.429 . S
C2696 C2679 1.574 . S
C2696 H2690 0.949 . S
C2696 C2700 1.368 . S
C2697 C2678 1.429 . S
C2697 C2691 1.429 . S
C2697 C2698 1.523 . S
C2698 C2679 1.368 . S
C2698 C2692 1.368 . S
C2698 C2697 1.523 . S
C2699 C2683 1.429 . S
C2699 C2695 1.429 . S
C2699 C2700 1.523 . S
C2700 C2684 1.368 . S
C2700 C2696 1.368 . S
C2700 C2699 1.523 . S
H2701 C2676 0.950 . S
H2702 C2678 0.950 . S
H2703 C2679 0.949 . S
H2704 C2681 0.950 . S
H2705 C2683 0.950 . S
C2706 C2707 1.349 . S
C2706 C2708 1.327 . S
C2706 H2731 0.950 . S
C2707 C2706 1.349 . S
C2707 C2723 1.349 . S
C2708 C2706 1.327 . S
C2708 C2727 1.429 . S
C2708 H2732 0.950 . S
C2709 C2726 1.574 . S
C2709 C2728 1.368 . S
C2709 H2733 0.949 . S
H2710 C2714 0.949 . S
C2711 C2712 1.349 . S
C2711 C2713 1.327 . S
C2711 H2734 0.950 . S
C2712 C2711 1.349 . S
C2712 C2724 1.349 . S
C2713 C2711 1.327 . S
C2713 C2729 1.429 . S
C2713 H2735 0.950 . S
C2714 H2710 0.949 . S
C2714 C2722 1.574 . S
C2714 C2730 1.368 . S
H2715 C2723 0.950 . S
H2716 C2721 0.950 . S
H2717 C2722 0.949 . S
H2718 C2724 0.950 . S
H2719 C2725 0.950 . S
H2720 C2726 0.949 . S
C2721 H2716 0.950 . S
C2721 C2723 1.327 . S
C2721 C2727 1.429 . S
C2722 C2714 1.574 . S
C2722 H2717 0.949 . S
C2722 C2728 1.368 . S
C2723 C2707 1.349 . S
C2723 H2715 0.950 . S
C2723 C2721 1.327 . S
C2724 C2712 1.349 . S
C2724 H2718 0.950 . S
C2724 C2725 1.327 . S
C2725 H2719 0.950 . S
C2725 C2724 1.327 . S
C2725 C2729 1.429 . S
C2726 C2709 1.574 . S
C2726 H2720 0.949 . S
C2726 C2730 1.368 . S
C2727 C2708 1.429 . S
C2727 C2721 1.429 . S
C2727 C2728 1.523 . S
C2728 C2709 1.368 . S
C2728 C2722 1.368 . S
C2728 C2727 1.523 . S
C2729 C2713 1.429 . S
C2729 C2725 1.429 . S
C2729 C2730 1.523 . S
C2730 C2714 1.368 . S
C2730 C2726 1.368 . S
C2730 C2729 1.523 . S
H2731 C2706 0.950 . S
H2732 C2708 0.950 . S
H2733 C2709 0.949 . S
H2734 C2711 0.950 . S
H2735 C2713 0.950 . S
C2736 C2737 1.349 . S
C2736 C2738 1.327 . S
C2736 H2761 0.950 . S
C2737 C2736 1.349 . S
C2737 C2753 1.349 . S
C2738 C2736 1.327 . S
C2738 C2757 1.429 . S
C2738 H2762 0.950 . S
C2739 C2756 1.574 . S
C2739 C2758 1.368 . S
C2739 H2763 0.949 . S
H2740 C2744 0.949 . S
C2741 C2742 1.349 . S
C2741 C2743 1.327 . S
C2741 H2764 0.950 . S
C2742 C2741 1.349 . S
C2742 C2754 1.349 . S
C2743 C2741 1.327 . S
C2743 C2759 1.429 . S
C2743 H2765 0.950 . S
C2744 H2740 0.949 . S
C2744 C2752 1.574 . S
C2744 C2760 1.368 . S
H2745 C2753 0.950 . S
H2746 C2751 0.950 . S
H2747 C2752 0.949 . S
H2748 C2754 0.950 . S
H2749 C2755 0.950 . S
H2750 C2756 0.949 . S
C2751 H2746 0.950 . S
C2751 C2753 1.327 . S
C2751 C2757 1.429 . S
C2752 C2744 1.574 . S
C2752 H2747 0.949 . S
C2752 C2758 1.368 . S
C2753 C2737 1.349 . S
C2753 H2745 0.950 . S
C2753 C2751 1.327 . S
C2754 C2742 1.349 . S
C2754 H2748 0.950 . S
C2754 C2755 1.327 . S
C2755 H2749 0.950 . S
C2755 C2754 1.327 . S
C2755 C2759 1.429 . S
C2756 C2739 1.574 . S
C2756 H2750 0.949 . S
C2756 C2760 1.368 . S
C2757 C2738 1.429 . S
C2757 C2751 1.429 . S
C2757 C2758 1.523 . S
C2758 C2739 1.368 . S
C2758 C2752 1.368 . S
C2758 C2757 1.523 . S
C2759 C2743 1.429 . S
C2759 C2755 1.429 . S
C2759 C2760 1.523 . S
C2760 C2744 1.368 . S
C2760 C2756 1.368 . S
C2760 C2759 1.523 . S
H2761 C2736 0.950 . S
H2762 C2738 0.950 . S
H2763 C2739 0.949 . S
H2764 C2741 0.950 . S
H2765 C2743 0.950 . S
C2766 C2767 1.349 . S
C2766 C2768 1.327 . S
C2766 H2791 0.950 . S
C2767 C2766 1.349 . S
C2767 C2783 1.349 . S
C2768 C2766 1.327 . S
C2768 C2787 1.429 . S
C2768 H2792 0.950 . S
C2769 C2786 1.574 . S
C2769 C2788 1.368 . S
C2769 H2793 0.949 . S
H2770 C2774 0.949 . S
C2771 C2772 1.349 . S
C2771 C2773 1.327 . S
C2771 H2794 0.950 . S
C2772 C2771 1.349 . S
C2772 C2784 1.349 . S
C2773 C2771 1.327 . S
C2773 C2789 1.429 . S
C2773 H2795 0.950 . S
C2774 H2770 0.949 . S
C2774 C2782 1.574 . S
C2774 C2790 1.368 . S
H2775 C2783 0.950 . S
H2776 C2781 0.950 . S
H2777 C2782 0.949 . S
H2778 C2784 0.950 . S
H2779 C2785 0.950 . S
H2780 C2786 0.949 . S
C2781 H2776 0.950 . S
C2781 C2783 1.327 . S
C2781 C2787 1.429 . S
C2782 C2774 1.574 . S
C2782 H2777 0.949 . S
C2782 C2788 1.368 . S
C2783 C2767 1.349 . S
C2783 H2775 0.950 . S
C2783 C2781 1.327 . S
C2784 C2772 1.349 . S
C2784 H2778 0.950 . S
C2784 C2785 1.327 . S
C2785 H2779 0.950 . S
C2785 C2784 1.327 . S
C2785 C2789 1.429 . S
C2786 C2769 1.574 . S
C2786 H2780 0.949 . S
C2786 C2790 1.368 . S
C2787 C2768 1.429 . S
C2787 C2781 1.429 . S
C2787 C2788 1.523 . S
C2788 C2769 1.368 . S
C2788 C2782 1.368 . S
C2788 C2787 1.523 . S
C2789 C2773 1.429 . S
C2789 C2785 1.429 . S
C2789 C2790 1.523 . S
C2790 C2774 1.368 . S
C2790 C2786 1.368 . S
C2790 C2789 1.523 . S
H2791 C2766 0.950 . S
H2792 C2768 0.950 . S
H2793 C2769 0.949 . S
H2794 C2771 0.950 . S
H2795 C2773 0.950 . S
C2796 C2797 1.349 . S
C2796 C2798 1.327 . S
C2796 H2821 0.950 . S
C2797 C2796 1.349 . S
C2797 C2813 1.349 . S
C2798 C2796 1.327 . S
C2798 C2817 1.429 . S
C2798 H2822 0.950 . S
C2799 C2816 1.574 . S
C2799 C2818 1.368 . S
C2799 H2823 0.949 . S
H2800 C2804 0.949 . S
C2801 C2802 1.349 . S
C2801 C2803 1.327 . S
C2801 H2824 0.950 . S
C2802 C2801 1.349 . S
C2802 C2814 1.349 . S
C2803 C2801 1.327 . S
C2803 C2819 1.429 . S
C2803 H2825 0.950 . S
C2804 H2800 0.949 . S
C2804 C2812 1.574 . S
C2804 C2820 1.368 . S
H2805 C2813 0.950 . S
H2806 C2811 0.950 . S
H2807 C2812 0.949 . S
H2808 C2814 0.950 . S
H2809 C2815 0.950 . S
H2810 C2816 0.949 . S
C2811 H2806 0.950 . S
C2811 C2813 1.327 . S
C2811 C2817 1.429 . S
C2812 C2804 1.574 . S
C2812 H2807 0.949 . S
C2812 C2818 1.368 . S
C2813 C2797 1.349 . S
C2813 H2805 0.950 . S
C2813 C2811 1.327 . S
C2814 C2802 1.349 . S
C2814 H2808 0.950 . S
C2814 C2815 1.327 . S
C2815 H2809 0.950 . S
C2815 C2814 1.327 . S
C2815 C2819 1.429 . S
C2816 C2799 1.574 . S
C2816 H2810 0.949 . S
C2816 C2820 1.368 . S
C2817 C2798 1.429 . S
C2817 C2811 1.429 . S
C2817 C2818 1.523 . S
C2818 C2799 1.368 . S
C2818 C2812 1.368 . S
C2818 C2817 1.523 . S
C2819 C2803 1.429 . S
C2819 C2815 1.429 . S
C2819 C2820 1.523 . S
C2820 C2804 1.368 . S
C2820 C2816 1.368 . S
C2820 C2819 1.523 . S
H2821 C2796 0.950 . S
H2822 C2798 0.950 . S
H2823 C2799 0.949 . S
H2824 C2801 0.950 . S
H2825 C2803 0.950 . S
C2826 C2827 1.349 . S
C2826 C2828 1.327 . S
C2826 H2851 0.950 . S
C2827 C2826 1.349 . S
C2827 C2843 1.349 . S
C2828 C2826 1.327 . S
C2828 C2847 1.429 . S
C2828 H2852 0.950 . S
C2829 C2846 1.574 . S
C2829 C2848 1.368 . S
C2829 H2853 0.949 . S
H2830 C2834 0.949 . S
C2831 C2832 1.349 . S
C2831 C2833 1.327 . S
C2831 H2854 0.950 . S
C2832 C2831 1.349 . S
C2832 C2844 1.349 . S
C2833 C2831 1.327 . S
C2833 C2849 1.429 . S
C2833 H2855 0.950 . S
C2834 H2830 0.949 . S
C2834 C2842 1.574 . S
C2834 C2850 1.368 . S
H2835 C2843 0.950 . S
H2836 C2841 0.950 . S
H2837 C2842 0.949 . S
H2838 C2844 0.950 . S
H2839 C2845 0.950 . S
H2840 C2846 0.949 . S
C2841 H2836 0.950 . S
C2841 C2843 1.327 . S
C2841 C2847 1.429 . S
C2842 C2834 1.574 . S
C2842 H2837 0.949 . S
C2842 C2848 1.368 . S
C2843 C2827 1.349 . S
C2843 H2835 0.950 . S
C2843 C2841 1.327 . S
C2844 C2832 1.349 . S
C2844 H2838 0.950 . S
C2844 C2845 1.327 . S
C2845 H2839 0.950 . S
C2845 C2844 1.327 . S
C2845 C2849 1.429 . S
C2846 C2829 1.574 . S
C2846 H2840 0.949 . S
C2846 C2850 1.368 . S
C2847 C2828 1.429 . S
C2847 C2841 1.429 . S
C2847 C2848 1.523 . S
C2848 C2829 1.368 . S
C2848 C2842 1.368 . S
C2848 C2847 1.523 . S
C2849 C2833 1.429 . S
C2849 C2845 1.429 . S
C2849 C2850 1.523 . S
C2850 C2834 1.368 . S
C2850 C2846 1.368 . S
C2850 C2849 1.523 . S
H2851 C2826 0.950 . S
H2852 C2828 0.950 . S
H2853 C2829 0.949 . S
H2854 C2831 0.950 . S
H2855 C2833 0.950 . S
C2856 C2857 1.349 . S
C2856 C2858 1.327 . S
C2856 H2881 0.950 . S
C2857 C2856 1.349 . S
C2857 C2873 1.349 . S
C2858 C2856 1.327 . S
C2858 C2877 1.429 . S
C2858 H2882 0.950 . S
C2859 C2876 1.574 . S
C2859 C2878 1.368 . S
C2859 H2883 0.949 . S
H2860 C2864 0.949 . S
C2861 C2862 1.349 . S
C2861 C2863 1.327 . S
C2861 H2884 0.950 . S
C2862 C2861 1.349 . S
C2862 C2874 1.349 . S
C2863 C2861 1.327 . S
C2863 C2879 1.429 . S
C2863 H2885 0.950 . S
C2864 H2860 0.949 . S
C2864 C2872 1.574 . S
C2864 C2880 1.368 . S
H2865 C2873 0.950 . S
H2866 C2871 0.950 . S
H2867 C2872 0.949 . S
H2868 C2874 0.950 . S
H2869 C2875 0.950 . S
H2870 C2876 0.949 . S
C2871 H2866 0.950 . S
C2871 C2873 1.327 . S
C2871 C2877 1.429 . S
C2872 C2864 1.574 . S
C2872 H2867 0.949 . S
C2872 C2878 1.368 . S
C2873 C2857 1.349 . S
C2873 H2865 0.950 . S
C2873 C2871 1.327 . S
C2874 C2862 1.349 . S
C2874 H2868 0.950 . S
C2874 C2875 1.327 . S
C2875 H2869 0.950 . S
C2875 C2874 1.327 . S
C2875 C2879 1.429 . S
C2876 C2859 1.574 . S
C2876 H2870 0.949 . S
C2876 C2880 1.368 . S
C2877 C2858 1.429 . S
C2877 C2871 1.429 . S
C2877 C2878 1.523 . S
C2878 C2859 1.368 . S
C2878 C2872 1.368 . S
C2878 C2877 1.523 . S
C2879 C2863 1.429 . S
C2879 C2875 1.429 . S
C2879 C2880 1.523 . S
C2880 C2864 1.368 . S
C2880 C2876 1.368 . S
C2880 C2879 1.523 . S
H2881 C2856 0.950 . S
H2882 C2858 0.950 . S
H2883 C2859 0.949 . S
H2884 C2861 0.950 . S
H2885 C2863 0.950 . S
C2886 C2887 1.349 . S
C2886 C2888 1.327 . S
C2886 H2911 0.950 . S
C2887 C2886 1.349 . S
C2887 C2903 1.349 . S
C2888 C2886 1.327 . S
C2888 C2907 1.429 . S
C2888 H2912 0.950 . S
C2889 C2906 1.574 . S
C2889 C2908 1.368 . S
C2889 H2913 0.949 . S
H2890 C2894 0.949 . S
C2891 C2892 1.349 . S
C2891 C2893 1.327 . S
C2891 H2914 0.950 . S
C2892 C2891 1.349 . S
C2892 C2904 1.349 . S
C2893 C2891 1.327 . S
C2893 C2909 1.429 . S
C2893 H2915 0.950 . S
C2894 H2890 0.949 . S
C2894 C2902 1.574 . S
C2894 C2910 1.368 . S
H2895 C2903 0.950 . S
H2896 C2901 0.950 . S
H2897 C2902 0.949 . S
H2898 C2904 0.950 . S
H2899 C2905 0.950 . S
H2900 C2906 0.949 . S
C2901 H2896 0.950 . S
C2901 C2903 1.327 . S
C2901 C2907 1.429 . S
C2902 C2894 1.574 . S
C2902 H2897 0.949 . S
C2902 C2908 1.368 . S
C2903 C2887 1.349 . S
C2903 H2895 0.950 . S
C2903 C2901 1.327 . S
C2904 C2892 1.349 . S
C2904 H2898 0.950 . S
C2904 C2905 1.327 . S
C2905 H2899 0.950 . S
C2905 C2904 1.327 . S
C2905 C2909 1.429 . S
C2906 C2889 1.574 . S
C2906 H2900 0.949 . S
C2906 C2910 1.368 . S
C2907 C2888 1.429 . S
C2907 C2901 1.429 . S
C2907 C2908 1.523 . S
C2908 C2889 1.368 . S
C2908 C2902 1.368 . S
C2908 C2907 1.523 . S
C2909 C2893 1.429 . S
C2909 C2905 1.429 . S
C2909 C2910 1.523 . S
C2910 C2894 1.368 . S
C2910 C2906 1.368 . S
C2910 C2909 1.523 . S
H2911 C2886 0.950 . S
H2912 C2888 0.950 . S
H2913 C2889 0.949 . S
H2914 C2891 0.950 . S
H2915 C2893 0.950 . S
C2916 C2917 1.349 . S
C2916 C2918 1.327 . S
C2916 H2941 0.950 . S
C2917 C2916 1.349 . S
C2917 C2933 1.349 . S
C2918 C2916 1.327 . S
C2918 C2937 1.429 1_554 S
C2918 H2942 0.950 . S
C2919 C2936 1.574 . S
C2919 C2938 1.368 . S
C2919 H2943 0.949 . S
H2920 C2924 0.949 . S
C2921 C2922 1.349 . S
C2921 C2923 1.327 . S
C2921 H2944 0.950 . S
C2922 C2921 1.349 . S
C2922 C2934 1.349 . S
C2923 C2921 1.327 . S
C2923 C2939 1.429 . S
C2923 H2945 0.950 . S
C2924 H2920 0.949 . S
C2924 C2932 1.574 . S
C2924 C2940 1.368 . S
H2925 C2933 0.950 . S
H2926 C2931 0.950 1_556 S
H2927 C2932 0.949 . S
H2928 C2934 0.950 . S
H2929 C2935 0.950 . S
H2930 C2936 0.949 . S
C2931 H2926 0.950 1_554 S
C2931 C2933 1.327 . S
C2931 C2937 1.429 1_554 S
C2932 C2924 1.574 . S
C2932 H2927 0.949 . S
C2932 C2938 1.368 . S
C2933 C2917 1.349 . S
C2933 H2925 0.950 . S
C2933 C2931 1.327 . S
C2934 C2922 1.349 . S
C2934 H2928 0.950 . S
C2934 C2935 1.327 . S
C2935 H2929 0.950 . S
C2935 C2934 1.327 . S
C2935 C2939 1.429 . S
C2936 C2919 1.574 . S
C2936 H2930 0.949 . S
C2936 C2940 1.368 . S
C2937 C2918 1.429 1_556 S
C2937 C2931 1.429 1_556 S
C2937 C2938 1.523 . S
C2938 C2919 1.368 . S
C2938 C2932 1.368 . S
C2938 C2937 1.523 . S
C2939 C2923 1.429 . S
C2939 C2935 1.429 . S
C2939 C2940 1.523 . S
C2940 C2924 1.368 . S
C2940 C2936 1.368 . S
C2940 C2939 1.523 . S
H2941 C2916 0.950 . S
H2942 C2918 0.950 . S
H2943 C2919 0.949 . S
H2944 C2921 0.950 . S
H2945 C2923 0.950 . S
C2946 C2947 1.349 . S
C2946 C2948 1.327 . S
C2946 H2971 0.950 . S
C2947 C2946 1.349 . S
C2947 C2963 1.349 . S
C2948 C2946 1.327 . S
C2948 C2967 1.429 1_554 S
C2948 H2972 0.950 . S
C2949 C2966 1.574 . S
C2949 C2968 1.368 . S
C2949 H2973 0.949 . S
H2950 C2954 0.949 . S
C2951 C2952 1.349 . S
C2951 C2953 1.327 . S
C2951 H2974 0.950 . S
C2952 C2951 1.349 . S
C2952 C2964 1.349 . S
C2953 C2951 1.327 . S
C2953 C2969 1.429 . S
C2953 H2975 0.950 . S
C2954 H2950 0.949 . S
C2954 C2962 1.574 . S
C2954 C2970 1.368 . S
H2955 C2963 0.950 . S
H2956 C2961 0.956 . S
H2957 C2962 0.949 . S
H2958 C2964 0.950 . S
H2959 C2965 0.950 . S
H2960 C2966 0.949 . S
C2961 H2956 0.956 . S
C2961 C2963 1.327 . S
C2961 C2967 1.429 1_554 S
C2962 C2954 1.574 . S
C2962 H2957 0.949 . S
C2962 C2968 1.368 . S
C2963 C2947 1.349 . S
C2963 H2955 0.950 . S
C2963 C2961 1.327 . S
C2964 C2952 1.349 . S
C2964 H2958 0.950 . S
C2964 C2965 1.327 . S
C2965 H2959 0.950 . S
C2965 C2964 1.327 . S
C2965 C2969 1.429 . S
C2966 C2949 1.574 . S
C2966 H2960 0.949 . S
C2966 C2970 1.368 . S
C2967 C2948 1.429 1_556 S
C2967 C2961 1.429 1_556 S
C2967 C2968 1.523 . S
C2968 C2949 1.368 . S
C2968 C2962 1.368 . S
C2968 C2967 1.523 . S
C2969 C2953 1.429 . S
C2969 C2965 1.429 . S
C2969 C2970 1.523 . S
C2970 C2954 1.368 . S
C2970 C2966 1.368 . S
C2970 C2969 1.523 . S
H2971 C2946 0.950 . S
H2972 C2948 0.950 . S
H2973 C2949 0.949 . S
H2974 C2951 0.950 . S
H2975 C2953 0.950 . S
C2976 C2977 1.349 . S
C2976 C2978 1.327 . S
C2976 H3001 0.950 . S
C2977 C2976 1.349 . S
C2977 C2993 1.349 . S
C2978 C2976 1.327 . S
C2978 C2997 1.429 1_554 S
C2978 H3002 0.950 1_554 S
C2979 C2996 1.574 . S
C2979 C2998 1.368 . S
C2979 H3003 0.949 . S
H2980 C2984 0.949 . S
C2981 C2982 1.349 . S
C2981 C2983 1.327 . S
C2981 H3004 0.950 . S
C2982 C2981 1.349 . S
C2982 C2994 1.349 . S
C2983 C2981 1.327 . S
C2983 C2999 1.429 . S
C2983 H3005 0.950 . S
C2984 H2980 0.949 . S
C2984 C2992 1.574 . S
C2984 C3000 1.368 . S
H2985 C2993 0.950 . S
H2986 C2991 0.950 . S
H2987 C2992 0.949 . S
H2988 C2994 0.950 . S
H2989 C2995 0.950 . S
H2990 C2996 0.949 . S
C2991 H2986 0.950 . S
C2991 C2993 1.327 . S
C2991 C2997 1.429 1_554 S
C2992 C2984 1.574 . S
C2992 H2987 0.949 . S
C2992 C2998 1.368 . S
C2993 C2977 1.349 . S
C2993 H2985 0.950 . S
C2993 C2991 1.327 . S
C2994 C2982 1.349 . S
C2994 H2988 0.950 . S
C2994 C2995 1.327 . S
C2995 H2989 0.950 . S
C2995 C2994 1.327 . S
C2995 C2999 1.429 . S
C2996 C2979 1.574 . S
C2996 H2990 0.949 . S
C2996 C3000 1.368 . S
C2997 C2978 1.429 1_556 S
C2997 C2991 1.429 1_556 S
C2997 C2998 1.523 . S
C2998 C2979 1.368 . S
C2998 C2992 1.368 . S
C2998 C2997 1.523 . S
C2999 C2983 1.429 . S
C2999 C2995 1.429 . S
C2999 C3000 1.523 . S
C3000 C2984 1.368 . S
C3000 C2996 1.368 . S
C3000 C2999 1.523 . S
H3001 C2976 0.950 . S
H3002 C2978 0.950 1_556 S
H3003 C2979 0.949 . S
H3004 C2981 0.950 . S
H3005 C2983 0.950 . S
C3006 C3007 1.349 . S
C3006 C3008 1.327 . S
C3006 H3031 0.950 . S
C3007 C3006 1.349 . S
C3007 C3023 1.384 . S
C3008 C3006 1.327 . S
C3008 C3027 1.429 . S
C3008 H3032 0.950 . S
C3009 C3026 1.574 . S
C3009 C3028 1.368 . S
C3009 H3033 0.931 1_455 S
H3010 C3014 0.949 . S
C3011 C3012 1.349 . S
C3011 C3013 1.327 . S
C3011 H3034 0.950 . S
C3012 C3011 1.349 . S
C3012 C3024 1.349 . S
C3013 C3011 1.327 . S
C3013 C3029 1.429 . S
C3013 H3035 0.950 . S
C3014 H3010 0.949 . S
C3014 C3022 1.574 . S
C3014 C3030 1.368 . S
H3015 C3023 0.912 1_655 S
H3016 C3021 0.950 1_655 S
H3017 C3022 0.949 . S
H3018 C3024 0.950 . S
H3019 C3025 0.950 . S
H3020 C3026 0.949 . S
C3021 H3016 0.950 1_455 S
C3021 C3023 1.338 . S
C3021 C3027 1.429 . S
C3022 C3014 1.574 . S
C3022 H3017 0.949 . S
C3022 C3028 1.368 . S
C3023 C3007 1.384 . S
C3023 H3015 0.912 1_455 S
C3023 C3021 1.338 . S
C3024 C3012 1.349 . S
C3024 H3018 0.950 . S
C3024 C3025 1.327 . S
C3025 H3019 0.950 . S
C3025 C3024 1.327 . S
C3025 C3029 1.429 . S
C3026 C3009 1.574 . S
C3026 H3020 0.949 . S
C3026 C3030 1.368 . S
C3027 C3008 1.429 . S
C3027 C3021 1.429 . S
C3027 C3028 1.523 . S
C3028 C3009 1.368 . S
C3028 C3022 1.368 . S
C3028 C3027 1.523 . S
C3029 C3013 1.429 . S
C3029 C3025 1.429 . S
C3029 C3030 1.523 . S
C3030 C3014 1.368 . S
C3030 C3026 1.368 . S
C3030 C3029 1.523 . S
H3031 C3006 0.950 . S
H3032 C3008 0.950 . S
H3033 C3009 0.931 1_655 S
H3034 C3011 0.950 . S
H3035 C3013 0.950 . S
C3036 C3037 1.349 . S
C3036 C3038 1.327 . S
C3036 H3061 0.950 . S
C3037 C3036 1.349 . S
C3037 C3053 1.349 . S
C3038 C3036 1.327 . S
C3038 C3057 1.429 . S
C3038 H3062 0.950 . S
C3039 C3056 1.574 . S
C3039 C3058 1.368 . S
C3039 H3063 0.949 . S
H3040 C3044 0.949 . S
C3041 C3042 1.349 . S
C3041 C3043 1.327 . S
C3041 H3064 0.950 . S
C3042 C3041 1.349 . S
C3042 C3054 1.349 . S
C3043 C3041 1.327 . S
C3043 C3059 1.429 . S
C3043 H3065 0.950 . S
C3044 H3040 0.949 . S
C3044 C3052 1.574 . S
C3044 C3060 1.368 . S
H3045 C3053 0.950 . S
H3046 C3051 0.950 . S
H3047 C3052 0.949 . S
H3048 C3054 0.950 . S
H3049 C3055 0.950 . S
H3050 C3056 0.949 . S
C3051 H3046 0.950 . S
C3051 C3053 1.327 . S
C3051 C3057 1.429 . S
C3052 C3044 1.574 . S
C3052 H3047 0.949 . S
C3052 C3058 1.368 . S
C3053 C3037 1.349 . S
C3053 H3045 0.950 . S
C3053 C3051 1.327 . S
C3054 C3042 1.349 . S
C3054 H3048 0.950 . S
C3054 C3055 1.327 . S
C3055 H3049 0.950 . S
C3055 C3054 1.327 . S
C3055 C3059 1.429 . S
C3056 C3039 1.574 . S
C3056 H3050 0.949 . S
C3056 C3060 1.368 . S
C3057 C3038 1.429 . S
C3057 C3051 1.429 . S
C3057 C3058 1.523 . S
C3058 C3039 1.368 . S
C3058 C3052 1.368 . S
C3058 C3057 1.523 . S
C3059 C3043 1.429 . S
C3059 C3055 1.429 . S
C3059 C3060 1.523 . S
C3060 C3044 1.368 . S
C3060 C3056 1.368 . S
C3060 C3059 1.523 . S
H3061 C3036 0.950 . S
H3062 C3038 0.950 . S
H3063 C3039 0.949 . S
H3064 C3041 0.950 . S
H3065 C3043 0.950 . S
C3066 C3067 1.349 . S
C3066 C3068 1.327 . S
C3066 H3091 0.950 . S
C3067 C3066 1.349 . S
C3067 C3083 1.328 1_565 S
C3068 C3066 1.327 . S
C3068 C3087 1.429 . S
C3068 H3092 0.950 . S
C3069 C3086 1.574 . S
C3069 C3088 1.368 . S
C3069 H3093 0.949 1_565 S
H3070 C3074 0.949 . S
C3071 C3072 1.349 . S
C3071 C3073 1.327 . S
C3071 H3094 0.950 . S
C3072 C3071 1.349 . S
C3072 C3084 1.349 . S
C3073 C3071 1.327 . S
C3073 C3089 1.429 . S
C3073 H3095 0.950 . S
C3074 H3070 0.949 . S
C3074 C3082 1.574 . S
C3074 C3090 1.368 . S
H3075 C3083 0.985 . S
H3076 C3081 0.950 1_545 S
H3077 C3082 0.949 . S
H3078 C3084 0.950 . S
H3079 C3085 0.950 . S
H3080 C3086 0.949 . S
C3081 H3076 0.950 1_565 S
C3081 C3083 1.318 1_565 S
C3081 C3087 1.429 . S
C3082 C3074 1.574 . S
C3082 H3077 0.949 . S
C3082 C3088 1.368 . S
C3083 C3067 1.328 1_545 S
C3083 H3075 0.985 . S
C3083 C3081 1.318 1_545 S
C3084 C3072 1.349 . S
C3084 H3078 0.950 . S
C3084 C3085 1.327 . S
C3085 H3079 0.950 . S
C3085 C3084 1.327 . S
C3085 C3089 1.429 . S
C3086 C3069 1.574 . S
C3086 H3080 0.949 . S
C3086 C3090 1.368 . S
C3087 C3068 1.429 . S
C3087 C3081 1.429 . S
C3087 C3088 1.523 . S
C3088 C3069 1.368 . S
C3088 C3082 1.368 . S
C3088 C3087 1.523 . S
C3089 C3073 1.429 . S
C3089 C3085 1.429 . S
C3089 C3090 1.523 . S
C3090 C3074 1.368 . S
C3090 C3086 1.368 . S
C3090 C3089 1.523 . S
H3091 C3066 0.950 . S
H3092 C3068 0.950 . S
H3093 C3069 0.949 1_545 S
H3094 C3071 0.950 . S
H3095 C3073 0.950 . S
C3096 C3097 1.347 . S
C3096 C3098 1.326 . S
C3096 H3121 0.953 1_565 S
C3097 C3096 1.347 . S
C3097 C3113 1.349 . S
C3098 C3096 1.326 . S
C3098 C3117 1.429 . S
C3098 H3122 0.950 1_565 S
C3099 C3116 1.574 . S
C3099 C3118 1.368 . S
C3099 H3123 0.949 . S
H3100 C3104 0.949 . S
C3101 C3102 1.349 . S
C3101 C3103 1.327 . S
C3101 H3124 0.950 . S
C3102 C3101 1.349 . S
C3102 C3114 1.349 . S
C3103 C3101 1.327 . S
C3103 C3119 1.429 1_556 S
C3103 H3125 0.950 1_556 S
C3104 H3100 0.949 . S
C3104 C3112 1.574 . S
C3104 C3120 1.368 . S
H3105 C3113 0.950 . S
H3106 C3111 0.950 . S
H3107 C3112 0.949 1_545 S
H3108 C3114 0.950 . S
H3109 C3115 0.950 . S
H3110 C3116 0.949 . S
C3111 H3106 0.950 . S
C3111 C3113 1.327 . S
C3111 C3117 1.429 . S
C3112 C3104 1.574 . S
C3112 H3107 0.949 1_565 S
C3112 C3118 1.368 . S
C3113 C3097 1.349 . S
C3113 H3105 0.950 . S
C3113 C3111 1.327 . S
C3114 C3102 1.349 . S
C3114 H3108 0.950 . S
C3114 C3115 1.327 . S
C3115 H3109 0.950 . S
C3115 C3114 1.327 . S
C3115 C3119 1.429 1_556 S
C3116 C3099 1.574 . S
C3116 H3110 0.949 . S
C3116 C3120 1.368 . S
C3117 C3098 1.429 . S
C3117 C3111 1.429 . S
C3117 C3118 1.523 . S
C3118 C3099 1.368 . S
C3118 C3112 1.368 . S
C3118 C3117 1.523 . S
C3119 C3103 1.429 1_554 S
C3119 C3115 1.429 1_554 S
C3119 C3120 1.523 . S
C3120 C3104 1.368 . S
C3120 C3116 1.368 . S
C3120 C3119 1.523 . S
H3121 C3096 0.953 1_545 S
H3122 C3098 0.950 1_545 S
H3123 C3099 0.949 . S
H3124 C3101 0.950 . S
H3125 C3103 0.950 1_554 S
C3126 C3127 1.373 . S
C3126 C3128 1.339 . S
C3126 H3151 0.916 1_455 S
C3127 C3126 1.373 . S
C3127 C3143 1.349 . S
C3128 C3126 1.339 . S
C3128 C3147 1.429 . S
C3128 H3152 0.950 1_455 S
C3129 C3146 1.574 . S
C3129 C3148 1.368 . S
C3129 H3153 0.949 . S
H3130 C3134 0.949 . S
C3131 C3132 1.349 . S
C3131 C3133 1.327 . S
C3131 H3154 0.950 . S
C3132 C3131 1.349 . S
C3132 C3144 1.349 . S
C3133 C3131 1.327 . S
C3133 C3149 1.429 . S
C3133 H3155 0.950 . S
C3134 H3130 0.949 . S
C3134 C3142 1.574 . S
C3134 C3150 1.368 . S
H3135 C3143 0.950 . S
H3136 C3141 0.950 . S
H3137 C3142 0.949 1_655 S
H3138 C3144 0.950 . S
H3139 C3145 0.950 . S
H3140 C3146 0.949 . S
C3141 H3136 0.950 . S
C3141 C3143 1.327 . S
C3141 C3147 1.429 . S
C3142 C3134 1.574 . S
C3142 H3137 0.949 1_455 S
C3142 C3148 1.368 . S
C3143 C3127 1.349 . S
C3143 H3135 0.950 . S
C3143 C3141 1.327 . S
C3144 C3132 1.349 . S
C3144 H3138 0.950 . S
C3144 C3145 1.327 . S
C3145 H3139 0.950 . S
C3145 C3144 1.327 . S
C3145 C3149 1.429 . S
C3146 C3129 1.574 . S
C3146 H3140 0.949 . S
C3146 C3150 1.368 . S
C3147 C3128 1.429 . S
C3147 C3141 1.429 . S
C3147 C3148 1.523 . S
C3148 C3129 1.368 . S
C3148 C3142 1.368 . S
C3148 C3147 1.523 . S
C3149 C3133 1.429 . S
C3149 C3145 1.429 . S
C3149 C3150 1.523 1_556 S
C3150 C3134 1.368 . S
C3150 C3146 1.368 . S
C3150 C3149 1.523 1_554 S
H3151 C3126 0.916 1_655 S
H3152 C3128 0.950 1_655 S
H3153 C3129 0.949 . S
H3154 C3131 0.950 . S
H3155 C3133 0.950 . S
C3156 C3157 1.349 . S
C3156 C3158 1.327 . S
C3156 H3181 0.950 . S
C3157 C3156 1.349 . S
C3157 C3173 1.349 . S
C3158 C3156 1.327 . S
C3158 C3177 1.429 . S
C3158 H3182 0.950 . S
C3159 C3176 1.574 . S
C3159 C3178 1.368 . S
C3159 H3183 0.949 . S
H3160 C3164 0.949 . S
C3161 C3162 1.349 . S
C3161 C3163 1.327 . S
C3161 H3184 0.950 . S
C3162 C3161 1.349 . S
C3162 C3174 1.349 . S
C3163 C3161 1.327 . S
C3163 C3179 1.429 1_556 S
C3163 H3185 0.950 1_556 S
C3164 H3160 0.949 . S
C3164 C3172 1.574 . S
C3164 C3180 1.368 . S
H3165 C3173 0.950 . S
H3166 C3171 0.950 . S
H3167 C3172 0.949 . S
H3168 C3174 0.950 . S
H3169 C3175 0.950 . S
H3170 C3176 0.949 . S
C3171 H3166 0.950 . S
C3171 C3173 1.327 . S
C3171 C3177 1.429 . S
C3172 C3164 1.574 . S
C3172 H3167 0.949 . S
C3172 C3178 1.368 . S
C3173 C3157 1.349 . S
C3173 H3165 0.950 . S
C3173 C3171 1.327 . S
C3174 C3162 1.349 . S
C3174 H3168 0.950 . S
C3174 C3175 1.327 . S
C3175 H3169 0.950 . S
C3175 C3174 1.327 . S
C3175 C3179 1.429 1_556 S
C3176 C3159 1.574 . S
C3176 H3170 0.949 . S
C3176 C3180 1.368 . S
C3177 C3158 1.429 . S
C3177 C3171 1.429 . S
C3177 C3178 1.523 . S
C3178 C3159 1.368 . S
C3178 C3172 1.368 . S
C3178 C3177 1.523 . S
C3179 C3163 1.429 1_554 S
C3179 C3175 1.429 1_554 S
C3179 C3180 1.523 . S
C3180 C3164 1.368 . S
C3180 C3176 1.368 . S
C3180 C3179 1.523 . S
H3181 C3156 0.950 . S
H3182 C3158 0.950 . S
H3183 C3159 0.949 . S
H3184 C3161 0.950 . S
H3185 C3163 0.950 1_554 S
C3186 C3187 1.349 . S
C3186 C3188 1.327 . S
C3186 H3211 0.950 . S
C3187 C3186 1.349 . S
C3187 C3203 1.349 . S
C3188 C3186 1.327 . S
C3188 C3207 1.429 . S
C3188 H3212 0.950 . S
C3189 C3206 1.574 . S
C3189 C3208 1.368 . S
C3189 H3213 0.949 . S
H3190 C3194 0.949 . S
C3191 C3192 1.349 . S
C3191 C3193 1.327 . S
C3191 H3214 0.950 . S
C3192 C3191 1.349 . S
C3192 C3204 1.349 . S
C3193 C3191 1.327 . S
C3193 C3209 1.429 . S
C3193 H3215 0.950 . S
C3194 H3190 0.949 . S
C3194 C3202 1.574 . S
C3194 C3210 1.368 . S
H3195 C3203 0.950 . S
H3196 C3201 0.950 . S
H3197 C3202 0.949 . S
H3198 C3204 0.950 . S
H3199 C3205 0.950 . S
H3200 C3206 0.949 . S
C3201 H3196 0.950 . S
C3201 C3203 1.327 . S
C3201 C3207 1.429 . S
C3202 C3194 1.574 . S
C3202 H3197 0.949 . S
C3202 C3208 1.368 . S
C3203 C3187 1.349 . S
C3203 H3195 0.950 . S
C3203 C3201 1.327 . S
C3204 C3192 1.349 . S
C3204 H3198 0.950 . S
C3204 C3205 1.327 . S
C3205 H3199 0.950 . S
C3205 C3204 1.327 . S
C3205 C3209 1.429 . S
C3206 C3189 1.574 . S
C3206 H3200 0.949 . S
C3206 C3210 1.368 . S
C3207 C3188 1.429 . S
C3207 C3201 1.429 . S
C3207 C3208 1.523 . S
C3208 C3189 1.368 . S
C3208 C3202 1.368 . S
C3208 C3207 1.523 . S
C3209 C3193 1.429 . S
C3209 C3205 1.429 . S
C3209 C3210 1.523 . S
C3210 C3194 1.368 . S
C3210 C3206 1.368 . S
C3210 C3209 1.523 . S
H3211 C3186 0.950 . S
H3212 C3188 0.950 . S
H3213 C3189 0.949 . S
H3214 C3191 0.950 . S
H3215 C3193 0.950 . S
C3216 C3217 1.349 . S
C3216 C3218 1.327 . S
C3216 H3241 0.950 . S
C3217 C3216 1.349 . S
C3217 C3233 1.349 . S
C3218 C3216 1.327 . S
C3218 C3237 1.429 . S
C3218 H3242 0.950 . S
C3219 C3236 1.574 . S
C3219 C3238 1.368 . S
C3219 H3243 0.949 . S
H3220 C3224 0.949 . S
C3221 C3222 1.349 . S
C3221 C3223 1.327 . S
C3221 H3244 0.950 . S
C3222 C3221 1.349 . S
C3222 C3234 1.349 . S
C3223 C3221 1.327 . S
C3223 C3239 1.429 . S
C3223 H3245 0.950 . S
C3224 H3220 0.949 . S
C3224 C3232 1.574 . S
C3224 C3240 1.368 . S
H3225 C3233 0.950 . S
H3226 C3231 0.950 . S
H3227 C3232 0.949 . S
H3228 C3234 0.950 . S
H3229 C3235 0.950 . S
H3230 C3236 0.949 . S
C3231 H3226 0.950 . S
C3231 C3233 1.327 . S
C3231 C3237 1.429 . S
C3232 C3224 1.574 . S
C3232 H3227 0.949 . S
C3232 C3238 1.368 . S
C3233 C3217 1.349 . S
C3233 H3225 0.950 . S
C3233 C3231 1.327 . S
C3234 C3222 1.349 . S
C3234 H3228 0.950 . S
C3234 C3235 1.327 . S
C3235 H3229 0.950 . S
C3235 C3234 1.327 . S
C3235 C3239 1.429 . S
C3236 C3219 1.574 . S
C3236 H3230 0.949 . S
C3236 C3240 1.368 . S
C3237 C3218 1.429 . S
C3237 C3231 1.429 . S
C3237 C3238 1.523 . S
C3238 C3219 1.368 . S
C3238 C3232 1.368 . S
C3238 C3237 1.523 . S
C3239 C3223 1.429 . S
C3239 C3235 1.429 . S
C3239 C3240 1.523 . S
C3240 C3224 1.368 . S
C3240 C3236 1.368 . S
C3240 C3239 1.523 . S
H3241 C3216 0.950 . S
H3242 C3218 0.950 . S
H3243 C3219 0.949 . S
H3244 C3221 0.950 . S
H3245 C3223 0.950 . S
C3246 C3247 1.349 . S
C3246 C3248 1.327 . S
C3246 H3271 0.950 . S
C3247 C3246 1.349 . S
C3247 C3263 1.349 . S
C3248 C3246 1.327 . S
C3248 C3267 1.429 . S
C3248 H3272 0.950 . S
C3249 C3266 1.574 . S
C3249 C3268 1.368 . S
C3249 H3273 0.949 . S
H3250 C3254 0.949 . S
C3251 C3252 1.349 . S
C3251 C3253 1.327 . S
C3251 H3274 0.950 . S
C3252 C3251 1.349 . S
C3252 C3264 1.349 . S
C3253 C3251 1.327 . S
C3253 C3269 1.429 . S
C3253 H3275 0.950 . S
C3254 H3250 0.949 . S
C3254 C3262 1.574 . S
C3254 C3270 1.368 . S
H3255 C3263 0.950 . S
H3256 C3261 0.950 . S
H3257 C3262 0.949 . S
H3258 C3264 0.950 . S
H3259 C3265 0.950 . S
H3260 C3266 0.949 . S
C3261 H3256 0.950 . S
C3261 C3263 1.327 . S
C3261 C3267 1.429 . S
C3262 C3254 1.574 . S
C3262 H3257 0.949 . S
C3262 C3268 1.368 . S
C3263 C3247 1.349 . S
C3263 H3255 0.950 . S
C3263 C3261 1.327 . S
C3264 C3252 1.349 . S
C3264 H3258 0.950 . S
C3264 C3265 1.327 . S
C3265 H3259 0.950 . S
C3265 C3264 1.327 . S
C3265 C3269 1.429 . S
C3266 C3249 1.574 . S
C3266 H3260 0.949 . S
C3266 C3270 1.368 . S
C3267 C3248 1.429 . S
C3267 C3261 1.429 . S
C3267 C3268 1.523 . S
C3268 C3249 1.368 . S
C3268 C3262 1.368 . S
C3268 C3267 1.523 . S
C3269 C3253 1.429 . S
C3269 C3265 1.429 . S
C3269 C3270 1.523 . S
C3270 C3254 1.368 . S
C3270 C3266 1.368 . S
C3270 C3269 1.523 . S
H3271 C3246 0.950 . S
H3272 C3248 0.950 . S
H3273 C3249 0.949 . S
H3274 C3251 0.950 . S
H3275 C3253 0.950 . S
C3276 C3277 1.349 . S
C3276 C3278 1.327 . S
C3276 H3301 0.950 . S
C3277 C3276 1.349 . S
C3277 C3293 1.349 . S
C3278 C3276 1.327 . S
C3278 C3297 1.429 . S
C3278 H3302 0.950 . S
C3279 C3296 1.574 . S
C3279 C3298 1.368 . S
C3279 H3303 0.949 . S
H3280 C3284 0.949 . S
C3281 C3282 1.349 . S
C3281 C3283 1.327 . S
C3281 H3304 0.950 . S
C3282 C3281 1.349 . S
C3282 C3294 1.349 . S
C3283 C3281 1.327 . S
C3283 C3299 1.429 . S
C3283 H3305 0.950 . S
C3284 H3280 0.949 . S
C3284 C3292 1.574 . S
C3284 C3300 1.368 . S
H3285 C3293 0.950 . S
H3286 C3291 0.950 . S
H3287 C3292 0.949 . S
H3288 C3294 0.950 . S
H3289 C3295 0.950 . S
H3290 C3296 0.949 . S
C3291 H3286 0.950 . S
C3291 C3293 1.327 . S
C3291 C3297 1.429 . S
C3292 C3284 1.574 . S
C3292 H3287 0.949 . S
C3292 C3298 1.368 . S
C3293 C3277 1.349 . S
C3293 H3285 0.950 . S
C3293 C3291 1.327 . S
C3294 C3282 1.349 . S
C3294 H3288 0.950 . S
C3294 C3295 1.327 . S
C3295 H3289 0.950 . S
C3295 C3294 1.327 . S
C3295 C3299 1.429 . S
C3296 C3279 1.574 . S
C3296 H3290 0.949 . S
C3296 C3300 1.368 . S
C3297 C3278 1.429 . S
C3297 C3291 1.429 . S
C3297 C3298 1.523 . S
C3298 C3279 1.368 . S
C3298 C3292 1.368 . S
C3298 C3297 1.523 . S
C3299 C3283 1.429 . S
C3299 C3295 1.429 . S
C3299 C3300 1.523 . S
C3300 C3284 1.368 . S
C3300 C3296 1.368 . S
C3300 C3299 1.523 . S
H3301 C3276 0.950 . S
H3302 C3278 0.950 . S
H3303 C3279 0.949 . S
H3304 C3281 0.950 . S
H3305 C3283 0.950 . S
C3306 C3307 1.349 . S
C3306 C3308 1.327 . S
C3306 H3331 0.950 . S
C3307 C3306 1.349 . S
C3307 C3323 1.349 . S
C3308 C3306 1.327 . S
C3308 C3327 1.429 . S
C3308 H3332 0.950 . S
C3309 C3326 1.574 . S
C3309 C3328 1.368 . S
C3309 H3333 0.949 . S
H3310 C3314 0.949 . S
C3311 C3312 1.349 . S
C3311 C3313 1.327 . S
C3311 H3334 0.950 . S
C3312 C3311 1.349 . S
C3312 C3324 1.349 . S
C3313 C3311 1.327 . S
C3313 C3329 1.429 . S
C3313 H3335 0.950 . S
C3314 H3310 0.949 . S
C3314 C3322 1.574 . S
C3314 C3330 1.368 . S
H3315 C3323 0.950 . S
H3316 C3321 0.950 . S
H3317 C3322 0.949 . S
H3318 C3324 0.950 . S
H3319 C3325 0.950 . S
H3320 C3326 0.949 . S
C3321 H3316 0.950 . S
C3321 C3323 1.327 . S
C3321 C3327 1.429 . S
C3322 C3314 1.574 . S
C3322 H3317 0.949 . S
C3322 C3328 1.368 . S
C3323 C3307 1.349 . S
C3323 H3315 0.950 . S
C3323 C3321 1.327 . S
C3324 C3312 1.349 . S
C3324 H3318 0.950 . S
C3324 C3325 1.327 . S
C3325 H3319 0.950 . S
C3325 C3324 1.327 . S
C3325 C3329 1.429 . S
C3326 C3309 1.574 . S
C3326 H3320 0.949 . S
C3326 C3330 1.368 . S
C3327 C3308 1.429 . S
C3327 C3321 1.429 . S
C3327 C3328 1.523 . S
C3328 C3309 1.368 . S
C3328 C3322 1.368 . S
C3328 C3327 1.523 . S
C3329 C3313 1.429 . S
C3329 C3325 1.429 . S
C3329 C3330 1.523 . S
C3330 C3314 1.368 . S
C3330 C3326 1.368 . S
C3330 C3329 1.523 . S
H3331 C3306 0.950 . S
H3332 C3308 0.950 . S
H3333 C3309 0.949 . S
H3334 C3311 0.950 . S
H3335 C3313 0.950 . S
C3336 C3337 1.349 . S
C3336 C3338 1.327 . S
C3336 H3361 0.950 . S
C3337 C3336 1.349 . S
C3337 C3353 1.349 . S
C3338 C3336 1.327 . S
C3338 C3357 1.429 . S
C3338 H3362 0.950 . S
C3339 C3356 1.574 . S
C3339 C3358 1.368 . S
C3339 H3363 0.949 . S
H3340 C3344 0.949 . S
C3341 C3342 1.349 . S
C3341 C3343 1.327 . S
C3341 H3364 0.950 . S
C3342 C3341 1.349 . S
C3342 C3354 1.349 . S
C3343 C3341 1.327 . S
C3343 C3359 1.429 . S
C3343 H3365 0.950 . S
C3344 H3340 0.949 . S
C3344 C3352 1.574 . S
C3344 C3360 1.368 . S
H3345 C3353 0.950 . S
H3346 C3351 0.950 . S
H3347 C3352 0.949 . S
H3348 C3354 0.935 1_545 S
H3349 C3355 0.950 . S
H3350 C3356 0.949 . S
C3351 H3346 0.950 . S
C3351 C3353 1.327 . S
C3351 C3357 1.429 . S
C3352 C3344 1.574 . S
C3352 H3347 0.949 . S
C3352 C3358 1.368 . S
C3353 C3337 1.349 . S
C3353 H3345 0.950 . S
C3353 C3351 1.327 . S
C3354 C3342 1.349 . S
C3354 H3348 0.935 1_565 S
C3354 C3355 1.327 . S
C3355 H3349 0.950 . S
C3355 C3354 1.327 . S
C3355 C3359 1.429 . S
C3356 C3339 1.574 . S
C3356 H3350 0.949 . S
C3356 C3360 1.368 . S
C3357 C3338 1.429 . S
C3357 C3351 1.429 . S
C3357 C3358 1.523 . S
C3358 C3339 1.368 . S
C3358 C3352 1.368 . S
C3358 C3357 1.523 . S
C3359 C3343 1.429 . S
C3359 C3355 1.429 . S
C3359 C3360 1.523 . S
C3360 C3344 1.368 . S
C3360 C3356 1.368 . S
C3360 C3359 1.523 . S
H3361 C3336 0.950 . S
H3362 C3338 0.950 . S
H3363 C3339 0.949 . S
H3364 C3341 0.950 . S
H3365 C3343 0.950 . S
C3366 C3367 1.349 . S
C3366 C3368 1.327 . S
C3366 H3391 0.950 . S
C3367 C3366 1.349 . S
C3367 C3383 1.349 . S
C3368 C3366 1.327 . S
C3368 C3387 1.429 . S
C3368 H3392 0.950 . S
C3369 C3386 1.574 . S
C3369 C3388 1.368 . S
C3369 H3393 0.949 . S
H3370 C3374 0.949 . S
C3371 C3372 1.349 . S
C3371 C3373 1.327 . S
C3371 H3394 0.950 . S
C3372 C3371 1.349 . S
C3372 C3384 1.349 . S
C3373 C3371 1.327 . S
C3373 C3389 1.429 . S
C3373 H3395 0.950 . S
C3374 H3370 0.949 . S
C3374 C3382 1.574 . S
C3374 C3390 1.368 . S
H3375 C3383 0.950 . S
H3376 C3381 0.950 . S
H3377 C3382 0.949 . S
H3378 C3384 0.950 1_545 S
H3379 C3385 0.950 . S
H3380 C3386 0.949 . S
C3381 H3376 0.950 . S
C3381 C3383 1.327 . S
C3381 C3387 1.429 . S
C3382 C3374 1.574 . S
C3382 H3377 0.949 . S
C3382 C3388 1.368 . S
C3383 C3367 1.349 . S
C3383 H3375 0.950 . S
C3383 C3381 1.327 . S
C3384 C3372 1.349 . S
C3384 H3378 0.950 1_565 S
C3384 C3385 1.327 . S
C3385 H3379 0.950 . S
C3385 C3384 1.327 . S
C3385 C3389 1.429 . S
C3386 C3369 1.574 . S
C3386 H3380 0.949 . S
C3386 C3390 1.368 . S
C3387 C3368 1.429 . S
C3387 C3381 1.429 . S
C3387 C3388 1.523 . S
C3388 C3369 1.368 . S
C3388 C3382 1.368 . S
C3388 C3387 1.523 . S
C3389 C3373 1.429 . S
C3389 C3385 1.429 . S
C3389 C3390 1.523 . S
C3390 C3374 1.368 . S
C3390 C3386 1.368 . S
C3390 C3389 1.523 . S
H3391 C3366 0.950 . S
H3392 C3368 0.950 . S
H3393 C3369 0.949 . S
H3394 C3371 0.950 . S
H3395 C3373 0.950 . S
C3396 C3397 1.349 . S
C3396 C3398 1.327 . S
C3396 H3421 0.950 . S
C3397 C3396 1.349 . S
C3397 C3413 1.349 . S
C3398 C3396 1.327 . S
C3398 C3417 1.429 . S
C3398 H3422 0.950 . S
C3399 C3416 1.574 . S
C3399 C3418 1.368 . S
C3399 H3423 0.949 . S
H3400 C3404 0.949 . S
C3401 C3402 1.349 . S
C3401 C3403 1.327 . S
C3401 H3424 0.950 . S
C3402 C3401 1.349 . S
C3402 C3414 1.349 . S
C3403 C3401 1.327 . S
C3403 C3419 1.429 . S
C3403 H3425 0.950 . S
C3404 H3400 0.949 . S
C3404 C3412 1.574 . S
C3404 C3420 1.368 . S
H3405 C3413 0.950 . S
H3406 C3411 0.950 . S
H3407 C3412 0.949 . S
H3408 C3414 0.950 . S
H3409 C3415 0.950 . S
H3410 C3416 0.949 . S
C3411 H3406 0.950 . S
C3411 C3413 1.327 . S
C3411 C3417 1.429 . S
C3412 C3404 1.574 . S
C3412 H3407 0.949 . S
C3412 C3418 1.368 . S
C3413 C3397 1.349 . S
C3413 H3405 0.950 . S
C3413 C3411 1.327 . S
C3414 C3402 1.349 . S
C3414 H3408 0.950 . S
C3414 C3415 1.327 . S
C3415 H3409 0.950 . S
C3415 C3414 1.327 . S
C3415 C3419 1.429 . S
C3416 C3399 1.574 . S
C3416 H3410 0.949 . S
C3416 C3420 1.368 . S
C3417 C3398 1.429 . S
C3417 C3411 1.429 . S
C3417 C3418 1.523 . S
C3418 C3399 1.368 . S
C3418 C3412 1.368 . S
C3418 C3417 1.523 . S
C3419 C3403 1.429 . S
C3419 C3415 1.429 . S
C3419 C3420 1.523 . S
C3420 C3404 1.368 . S
C3420 C3416 1.368 . S
C3420 C3419 1.523 . S
H3421 C3396 0.950 . S
H3422 C3398 0.950 . S
H3423 C3399 0.949 . S
H3424 C3401 0.950 . S
H3425 C3403 0.950 . S
C3426 C3427 1.349 . S
C3426 C3428 1.327 . S
C3426 H3451 0.950 . S
C3427 C3426 1.349 . S
C3427 C3443 1.349 . S
C3428 C3426 1.327 . S
C3428 C3447 1.429 . S
C3428 H3452 0.950 . S
C3429 C3446 1.574 . S
C3429 C3448 1.368 . S
C3429 H3453 0.949 . S
H3430 C3434 0.949 . S
C3431 C3432 1.349 . S
C3431 C3433 1.327 . S
C3431 H3454 0.950 . S
C3432 C3431 1.349 . S
C3432 C3444 1.349 . S
C3433 C3431 1.327 . S
C3433 C3449 1.429 . S
C3433 H3455 0.950 . S
C3434 H3430 0.949 . S
C3434 C3442 1.574 . S
C3434 C3450 1.368 . S
H3435 C3443 0.950 . S
H3436 C3441 0.950 . S
H3437 C3442 0.949 . S
H3438 C3444 0.950 . S
H3439 C3445 0.950 . S
H3440 C3446 0.949 . S
C3441 H3436 0.950 . S
C3441 C3443 1.327 . S
C3441 C3447 1.429 . S
C3442 C3434 1.574 . S
C3442 H3437 0.949 . S
C3442 C3448 1.368 . S
C3443 C3427 1.349 . S
C3443 H3435 0.950 . S
C3443 C3441 1.327 . S
C3444 C3432 1.349 . S
C3444 H3438 0.950 . S
C3444 C3445 1.327 . S
C3445 H3439 0.950 . S
C3445 C3444 1.327 . S
C3445 C3449 1.429 . S
C3446 C3429 1.574 . S
C3446 H3440 0.949 . S
C3446 C3450 1.368 . S
C3447 C3428 1.429 . S
C3447 C3441 1.429 . S
C3447 C3448 1.523 . S
C3448 C3429 1.368 . S
C3448 C3442 1.368 . S
C3448 C3447 1.523 . S
C3449 C3433 1.429 . S
C3449 C3445 1.429 . S
C3449 C3450 1.523 . S
C3450 C3434 1.368 . S
C3450 C3446 1.368 . S
C3450 C3449 1.523 . S
H3451 C3426 0.950 . S
H3452 C3428 0.950 . S
H3453 C3429 0.949 . S
H3454 C3431 0.950 . S
H3455 C3433 0.950 . S
C1297 C590 1.405 . S
C1302 C14 1.394 . S
C1327 C626 1.411 . S
C1332 C50 1.392 . S
C1357 C554 1.384 . S
C1362 C86 1.363 . S
C1387 C950 1.371 . S
C1392 C122 1.391 . S
C1417 C158 1.378 . S
C1422 C878 1.370 . S
C1447 C194 1.369 . S
C1452 C914 1.348 . S
C1477 C219 1.231 . S
C1482 C1238 1.183 . S
C1507 C1263 1.274 . S
C1512 C266 1.226 . S
C1537 C1191 1.094 . S
C1542 C291 1.096 . S
C1567 C327 1.106 . S
C1572 C723 1.106 . S
C1597 C651 1.216 . S
C1602 C374 1.165 . S
C1627 C399 1.260 . S
C1632 C698 1.209 . S
C1657 C1022 1.281 . S
C1662 C446 1.264 . S
C1687 C482 1.311 . S
C1692 C1058 1.330 . S
C1717 C986 1.320 . S
C1722 C518 1.297 . S
C1747 C1155 1.032 . S
C1752 C759 1.032 . S
C1777 C1083 1.228 . S
C1782 C806 1.172 . S
C1807 C831 1.184 . S
C1812 C1130 1.139 . S
C1837 C650 1.569 . S
C1842 C4 1.426 . S
C1867 C688 1.491 . S
C1872 C40 1.333 . S
C1897 C722 1.529 . S
C1902 C76 1.394 . S
C1927 C112 1.630 . S
C1932 C1190 1.412 . S
C1957 C148 1.589 . S
C1962 C1228 1.400 . S
C1987 C184 1.508 . S
C1992 C1262 1.326 . S
C2017 C218 1.533 . S
C2022 C868 1.395 . S
C2047 C904 1.373 . S
C2052 C256 1.530 . S
C2077 C940 1.392 . S
C2082 C290 1.550 . S
C2107 C544 1.552 . S
C2112 C326 1.354 . S
C2137 C364 1.463 . S
C2142 C580 1.648 . S
C2167 C398 1.417 . S
C2172 C616 1.629 . S
C2197 C436 1.431 . S
C2202 C1082 1.578 . S
C2227 C1120 1.548 . S
C2232 C472 1.374 . S
C2257 C1154 1.471 . S
C2262 C508 1.323 . S
C2287 C976 1.579 . S
C2292 C758 1.372 . S
C2317 C796 1.378 . S
C2322 C1012 1.535 . S
C2347 C830 1.483 . S
C2352 C1048 1.704 . S
C2377 C975 1.594 . S
C2382 C3 1.525 . S
C2407 C39 1.533 . S
C2412 C1011 1.612 . S
C2437 C75 1.597 . S
C2442 C1047 1.669 . S
C2467 C435 1.525 . S
C2472 C111 1.596 . S
C2497 C147 1.667 . S
C2502 C471 1.577 . S
C2527 C183 1.606 . S
C2532 C507 1.534 . S
C2557 C770 1.514 . S
C2562 C230 1.561 . S
C2587 C255 1.667 . S
C2592 C795 1.583 . S
C2617 C842 1.572 . S
C2622 C302 1.623 . S
C2647 C338 1.364 . S
C2652 C1094 1.393 . S
C2677 C1119 1.779 . S
C2682 C363 1.675 . S
C2707 C1166 1.440 . S
C2712 C410 1.389 . S
C2737 C867 1.473 . S
C2742 C543 1.541 . S
C2767 C903 1.612 . S
C2772 C579 1.706 . S
C2797 C939 1.597 . S
C2802 C615 1.678 . S
C2827 C662 1.605 . S
C2832 C1202 1.557 . S
C2857 C1227 1.703 . S
C2862 C687 1.817 . S
C2887 C1274 1.541 . S
C2892 C734 1.578 . S
C2917 C2 0.738 . S
C2922 C578 0.738 . S
C2947 C38 0.723 . S
C2952 C614 0.722 . S
C2977 C74 0.677 . S
C2982 C542 0.675 . S
C3007 C938 0.751 . S
C3012 C110 0.751 . S
C3037 C866 0.772 . S
C3042 C146 0.772 . S
C3067 C902 0.746 . S
C3072 C182 0.738 . S
C3097 C1226 0.523 . S
C3102 C220 0.485 . S
C3127 C1264 0.533 . S
C3132 C254 0.537 . S
C3157 C1192 0.397 . S
C3162 C292 0.388 . S
C3187 C328 0.440 . S
C3192 C724 0.440 . S
C3217 C362 0.546 . S
C3222 C652 0.521 . S
C3247 C400 0.567 . S
C3252 C686 0.579 . S
C3277 C1010 0.793 . S
C3282 C434 0.803 . S
C3307 C1046 0.856 . S
C3312 C470 0.859 . S
C3337 C506 0.795 . S
C3342 C974 0.798 . S
C3367 C760 0.467 . S
C3372 C1156 0.468 . S
C3397 C1084 0.637 . S
C3402 C794 0.657 . S
C3427 C1118 0.609 . S
C3432 C832 0.607 . S
