# Generated by pormake.
# Topology wgd, (5)-cn, num edge types: 1
# Building blocks:
#     Node 0, Type 0, BuildingBlock: XOMCOT_clean_sbu_1, # of connection points: 5
#     Node 1, Type 0, BuildingBlock: XOMCOT_clean_sbu_1, # of connection points: 5
#     Node 2, Type 0, BuildingBlock: XOMCOT_clean_sbu_1, # of connection points: 5
#     Node 3, Type 0, BuildingBlock: XOMCOT_clean_sbu_1, # of connection points: 5
#     Node 4, Type 0, BuildingBlock: XOMCOT_clean_sbu_1, # of connection points: 5
#     Node 5, Type 0, BuildingBlock: XOMCOT_clean_sbu_1, # of connection points: 5
#     Node 6, Type 0, BuildingBlock: XOMCOT_clean_sbu_1, # of connection points: 5
#     Node 7, Type 0, BuildingBlock: XOMCOT_clean_sbu_1, # of connection points: 5
#     Node 8, Type 0, BuildingBlock: XOMCOT_clean_sbu_1, # of connection points: 5
#     Node 9, Type 0, BuildingBlock: XOMCOT_clean_sbu_1, # of connection points: 5
#     Node 10, Type 0, BuildingBlock: XOMCOT_clean_sbu_1, # of connection points: 5
#     Node 11, Type 0, BuildingBlock: XOMCOT_clean_sbu_1, # of connection points: 5
#     Node 12, Type 0, BuildingBlock: XOMCOT_clean_sbu_1, # of connection points: 5
#     Node 13, Type 0, BuildingBlock: XOMCOT_clean_sbu_1, # of connection points: 5
#     Node 14, Type 0, BuildingBlock: XOMCOT_clean_sbu_1, # of connection points: 5
#     Node 15, Type 0, BuildingBlock: XOMCOT_clean_sbu_1, # of connection points: 5
#     Node 16, Type 0, BuildingBlock: XOMCOT_clean_sbu_1, # of connection points: 5
#     Node 17, Type 0, BuildingBlock: XOMCOT_clean_sbu_1, # of connection points: 5
#     Node 18, Type 0, BuildingBlock: XOMCOT_clean_sbu_1, # of connection points: 5
#     Node 19, Type 0, BuildingBlock: XOMCOT_clean_sbu_1, # of connection points: 5
#     Node 20, Type 0, BuildingBlock: XOMCOT_clean_sbu_1, # of connection points: 5
#     Node 21, Type 0, BuildingBlock: XOMCOT_clean_sbu_1, # of connection points: 5
#     Node 22, Type 0, BuildingBlock: XOMCOT_clean_sbu_1, # of connection points: 5
#     Node 23, Type 0, BuildingBlock: XOMCOT_clean_sbu_1, # of connection points: 5
#     Node 24, Type 0, BuildingBlock: XOMCOT_clean_sbu_1, # of connection points: 5
#     Node 25, Type 0, BuildingBlock: XOMCOT_clean_sbu_1, # of connection points: 5
#     Node 26, Type 0, BuildingBlock: XOMCOT_clean_sbu_1, # of connection points: 5
#     Node 27, Type 0, BuildingBlock: XOMCOT_clean_sbu_1, # of connection points: 5
#     Node 28, Type 0, BuildingBlock: XOMCOT_clean_sbu_1, # of connection points: 5
#     Node 29, Type 0, BuildingBlock: XOMCOT_clean_sbu_1, # of connection points: 5
#     Node 30, Type 0, BuildingBlock: XOMCOT_clean_sbu_1, # of connection points: 5
#     Node 31, Type 0, BuildingBlock: XOMCOT_clean_sbu_1, # of connection points: 5
#     Edge 32, Type (0, 0), None
#     Edge 33, Type (0, 0), None
#     Edge 34, Type (0, 0), None
#     Edge 35, Type (0, 0), None
#     Edge 36, Type (0, 0), None
#     Edge 37, Type (0, 0), None
#     Edge 38, Type (0, 0), None
#     Edge 39, Type (0, 0), None
#     Edge 40, Type (0, 0), None
#     Edge 41, Type (0, 0), None
#     Edge 42, Type (0, 0), None
#     Edge 43, Type (0, 0), None
#     Edge 44, Type (0, 0), None
#     Edge 45, Type (0, 0), None
#     Edge 46, Type (0, 0), None
#     Edge 47, Type (0, 0), None
#     Edge 48, Type (0, 0), None
#     Edge 49, Type (0, 0), None
#     Edge 50, Type (0, 0), None
#     Edge 51, Type (0, 0), None
#     Edge 52, Type (0, 0), None
#     Edge 53, Type (0, 0), None
#     Edge 54, Type (0, 0), None
#     Edge 55, Type (0, 0), None
#     Edge 56, Type (0, 0), None
#     Edge 57, Type (0, 0), None
#     Edge 58, Type (0, 0), None
#     Edge 59, Type (0, 0), None
#     Edge 60, Type (0, 0), None
#     Edge 61, Type (0, 0), None
#     Edge 62, Type (0, 0), None
#     Edge 63, Type (0, 0), None
#     Edge 64, Type (0, 0), None
#     Edge 65, Type (0, 0), None
#     Edge 66, Type (0, 0), None
#     Edge 67, Type (0, 0), None
#     Edge 68, Type (0, 0), None
#     Edge 69, Type (0, 0), None
#     Edge 70, Type (0, 0), None
#     Edge 71, Type (0, 0), None
#     Edge 72, Type (0, 0), None
#     Edge 73, Type (0, 0), None
#     Edge 74, Type (0, 0), None
#     Edge 75, Type (0, 0), None
#     Edge 76, Type (0, 0), None
#     Edge 77, Type (0, 0), None
#     Edge 78, Type (0, 0), None
#     Edge 79, Type (0, 0), None
#     Edge 80, Type (0, 0), None
#     Edge 81, Type (0, 0), None
#     Edge 82, Type (0, 0), None
#     Edge 83, Type (0, 0), None
#     Edge 84, Type (0, 0), None
#     Edge 85, Type (0, 0), None
#     Edge 86, Type (0, 0), None
#     Edge 87, Type (0, 0), None
#     Edge 88, Type (0, 0), None
#     Edge 89, Type (0, 0), None
#     Edge 90, Type (0, 0), None
#     Edge 91, Type (0, 0), None
#     Edge 92, Type (0, 0), None
#     Edge 93, Type (0, 0), None
#     Edge 94, Type (0, 0), None
#     Edge 95, Type (0, 0), None
#     Edge 96, Type (0, 0), None
#     Edge 97, Type (0, 0), None
#     Edge 98, Type (0, 0), None
#     Edge 99, Type (0, 0), None
#     Edge 100, Type (0, 0), None
#     Edge 101, Type (0, 0), None
#     Edge 102, Type (0, 0), None
#     Edge 103, Type (0, 0), None
#     Edge 104, Type (0, 0), None
#     Edge 105, Type (0, 0), None
#     Edge 106, Type (0, 0), None
#     Edge 107, Type (0, 0), None
#     Edge 108, Type (0, 0), None
#     Edge 109, Type (0, 0), None
#     Edge 110, Type (0, 0), None
#     Edge 111, Type (0, 0), None
# Relax obj value: 0.213
# Max RMSD: 0.185
# Mean RMSD: 0.185
data_MOF--net-wgd--node1-XOMCOT_clean_sbu_1--edge1-none
_symmetry_space_group_name_H-M    P1
_symmetry_Int_Tables_number       1
_symmetry_cell_setting            triclinic
loop_
_symmetry_equiv_pos_as_xyz
'x, y, z'
_cell_length_a     50.260606
_cell_length_b     50.262559
_cell_length_c     8.980415
_cell_angle_alpha  90.000814
_cell_angle_beta   89.98867
_cell_angle_gamma 90.015687
loop_
_atom_site_label
_atom_site_type_symbol
_atom_site_fract_x
_atom_site_fract_y
_atom_site_fract_z
_atom_type_partial_charge
C0 C 0.152 0.15259 0.31633 0.0
C1 C 0.15686 0.15612 0.46626 0.0
N2 N 0.17659 0.13951 0.5057 0.0
N3 N 0.16959 0.13479 0.26092 0.0
C4 C 0.18283 0.12579 0.38268 0.0
H5 H 0.14003 0.16572 0.24845 0.0
Co6 Co 0.18518 0.13849 0.06959 0.0
C7 C 0.24118 0.13976 0.1945 0.0
O8 O 0.24619 0.16048 0.11088 0.0
N9 N 0.20136 0.14221 0.87409 0.0
C10 C 0.20621 0.16581 0.6651 0.0
C11 C 0.2123 0.16448 0.81451 0.0
C12 C 0.1928 0.12866 0.7521 0.0
N13 N 0.19386 0.14312 0.62753 0.0
O14 O 0.17357 0.10241 1.01126 0.0
H15 H 0.22064 0.18078 0.87758 0.0
H16 H 0.18383 0.1093 0.75223 0.0
O17 O 0.21982 0.12677 0.16621 0.0
C18 C 0.15082 0.10858 0.95404 0.0
O19 O 0.14155 0.13249 0.98225 0.0
N20 N 0.19028 0.17554 0.11079 0.0
C21 C 0.1888 0.23119 0.13815 0.0
C22 C 0.20174 0.21549 0.2453 0.0
C23 C 0.20152 0.18765 0.23154 0.0
C24 C 0.17535 0.19046 1.01528 0.0
C25 C 0.17528 0.21809 1.02265 0.0
H26 H 0.20901 0.1759 0.32111 0.0
H27 H 0.16402 0.18078 0.92836 0.0
H28 H 0.19939 0.11213 0.38 0.0
H29 H 0.14891 0.17178 0.53592 0.0
H30 H 0.20842 0.18302 0.5938 0.0
H31 H 0.21107 0.2245 0.34157 0.0
H32 H 0.16473 0.22897 0.93706 0.0
C33 C 0.09121 0.90189 0.56741 0.0
C34 C 0.08772 0.90675 0.71738 0.0
N35 N 0.10415 0.92665 0.75633 0.0
N36 N 0.10881 0.91964 0.51158 0.0
C37 C 0.11774 0.933 0.63307 0.0
H38 H 0.07817 0.88976 0.49986 0.0
Co39 Co 0.10503 0.93515 0.32007 0.0
C40 C 0.10304 0.99107 0.44576 0.0
O41 O 0.08203 0.99575 0.36374 0.0
N42 N 0.10127 0.95132 0.12468 0.0
C43 C 0.07775 0.95621 0.91552 0.0
C44 C 0.07903 0.96229 0.06497 0.0
C45 C 0.11487 0.94282 1.00284 0.0
N46 N 0.10047 0.94391 0.87814 0.0
O47 O 0.14118 0.92372 0.26152 0.0
H48 H 0.06268 0.97055 0.128 0.0
H49 H 0.13425 0.9339 1.00312 0.0
O50 O 0.11638 0.96997 0.41644 0.0
C51 C 0.13491 0.90086 0.20571 0.0
O52 O 0.11118 0.89146 0.23739 0.0
N53 N 0.06794 0.9398 0.36055 0.0
C54 C 0.01201 0.9375 0.38155 0.0
C55 C 0.02743 0.94995 0.49285 0.0
C56 C 0.05532 0.9505 0.48108 0.0
C57 C 0.05353 0.92484 0.26296 0.0
C58 C 0.0259 0.92466 0.26598 0.0
H59 H 0.06671 0.95829 0.57171 0.0
H60 H 0.06364 0.91384 0.17627 0.0
H61 H 0.13127 0.94969 0.63007 0.0
H62 H 0.07218 0.89864 0.78743 0.0
H63 H 0.06056 0.95837 0.84415 0.0
H64 H 0.01838 0.95863 0.59061 0.0
H65 H 0.01599 0.91462 0.17544 0.0
C66 C 0.34313 0.84121 0.81964 0.0
C67 C 0.33824 0.83733 0.96916 0.0
N68 N 0.31859 0.85391 1.00993 0.0
N69 N 0.32564 0.85919 0.76518 0.0
C70 C 0.3124 0.86792 0.88782 0.0
H71 H 0.35529 0.82834 0.75126 0.0
Co72 Co 0.30998 0.85543 0.57356 0.0
C73 C 0.25303 0.85663 0.69458 0.0
O74 O 0.24563 0.838 0.60148 0.0
N75 N 0.29383 0.85129 0.37868 0.0
C76 C 0.28982 0.8271 0.17098 0.0
C77 C 0.28389 0.82841 0.32062 0.0
C78 C 0.30199 0.86486 0.25589 0.0
N79 N 0.30139 0.85012 0.13201 0.0
O80 O 0.32131 0.8916 0.51357 0.0
H81 H 0.27622 0.81192 0.38478 0.0
H82 H 0.31047 0.88445 0.2554 0.0
O83 O 0.2758 0.86725 0.6724 0.0
C84 C 0.34413 0.8857 0.45655 0.0
O85 O 0.35404 0.86225 0.48915 0.0
N86 N 0.30496 0.81855 0.61496 0.0
C87 C 0.30732 0.7625 0.63364 0.0
C88 C 0.29076 0.77754 0.72889 0.0
C89 C 0.29069 0.80546 0.72107 0.0
C90 C 0.32263 0.80458 0.5306 0.0
C91 C 0.32421 0.777 0.53805 0.0
H92 H 0.27993 0.81629 0.80271 0.0
H93 H 0.3355 0.81504 0.45397 0.0
H94 H 0.29594 0.88171 0.88643 0.0
H95 H 0.34622 0.82155 0.03782 0.0
H96 H 0.28797 0.8098 0.09989 0.0
H97 H 0.27793 0.76828 0.81017 0.0
H98 H 0.33896 0.76775 0.46814 0.0
C99 C 0.40293 0.09239 0.06578 0.0
C100 C 0.40644 0.08751 0.21572 0.0
N101 N 0.38976 0.06783 0.25511 0.0
N102 N 0.38508 0.07485 1.01031 0.0
C103 C 0.37603 0.06164 0.13208 0.0
H104 H 0.41609 0.10435 0.99796 0.0
Co105 Co 0.38864 0.05922 0.81887 0.0
C106 C 0.39012 0.0032 0.94348 0.0
O107 O 0.41053 -0.00195 0.85769 0.0
N108 N 0.39222 0.04296 0.62343 0.0
C109 C 0.41585 0.03804 0.41455 0.0
C110 C 0.41442 0.03187 0.56383 0.0
C111 C 0.37878 0.05168 0.50148 0.0
N112 N 0.39326 0.05055 0.37701 0.0
O113 O 0.35254 0.07072 0.76145 0.0
H114 H 0.43069 0.0235 0.62696 0.0
H115 H 0.35949 0.06079 0.50161 0.0
O116 O 0.37717 0.02461 0.91648 0.0
C117 C 0.35868 0.09353 0.70473 0.0
O118 O 0.38253 0.1029 0.73358 0.0
N119 N 0.42569 0.05433 0.85854 0.0
C120 C 0.48168 0.05692 0.88047 0.0
C121 C 0.46618 0.04416 0.99074 0.0
C122 C 0.4383 0.04345 0.97841 0.0
C123 C 0.44008 0.06936 0.76133 0.0
C124 C 0.4677 0.06972 0.76491 0.0
H125 H 0.42691 0.03559 0.06872 0.0
H126 H 0.42997 0.0804 0.67484 0.0
H127 H 0.36229 0.04512 0.1294 0.0
H128 H 0.42211 0.09542 0.28544 0.0
H129 H 0.43308 0.03579 0.34341 0.0
H130 H 0.47504 0.03533 0.08843 0.0
H131 H 0.4774 0.08 0.67476 0.0
C132 C 0.15057 0.84117 0.7244 0.0
C133 C 0.15544 0.83719 0.57494 0.0
N134 N 0.17525 0.85358 0.53406 0.0
N135 N 0.16823 0.859 0.77875 0.0
C136 C 0.18156 0.86757 0.65603 0.0
H137 H 0.13824 0.82847 0.79281 0.0
Co138 Co 0.18385 0.85508 0.97033 0.0
C139 C 0.24092 0.85659 0.85015 0.0
O140 O 0.2484 0.83797 0.94301 0.0
N141 N 0.19992 0.85072 0.16522 0.0
C142 C 0.20368 0.82646 0.37289 0.0
C143 C 0.20953 0.8277 0.22312 0.0
C144 C 0.19197 0.86438 0.28813 0.0
N145 N 0.19241 0.84961 0.41197 0.0
O146 O 0.17262 0.89125 0.03108 0.0
H147 H 0.21697 0.81111 0.15891 0.0
H148 H 0.18371 0.88407 0.2887 0.0
O149 O 0.21805 0.86699 0.87202 0.0
C150 C 0.14983 0.88546 0.08883 0.0
O151 O 0.13977 0.86204 0.05693 0.0
N152 N 0.18881 0.81823 0.92798 0.0
C153 C 0.18665 0.76223 0.91063 0.0
C154 C 0.20378 0.77715 0.81822 0.0
C155 C 0.20372 0.80506 0.82491 0.0
C156 C 0.17067 0.80432 1.00955 0.0
C157 C 0.16907 0.77673 1.00195 0.0
H158 H 0.21507 0.81578 0.74545 0.0
H159 H 0.15744 0.8148 0.08395 0.0
H160 H 0.19814 0.88123 0.65721 0.0
H161 H 0.14729 0.82147 0.50638 0.0
H162 H 0.20536 0.80916 0.44404 0.0
H163 H 0.21722 0.76774 0.74059 0.0
H164 H 0.15384 0.76739 0.0684 0.0
C165 C 0.40264 0.90156 0.97496 0.0
C166 C 0.40645 0.90643 0.82534 0.0
N167 N 0.39031 0.92651 0.78569 0.0
N168 N 0.38513 0.91946 0.03017 0.0
C169 C 0.3766 0.93299 0.90833 0.0
H170 H 0.41536 0.88917 0.04285 0.0
Co171 Co 0.38924 0.93485 0.22169 0.0
C172 C 0.39035 0.99126 0.09883 0.0
O173 O 0.41096 0.99657 0.18271 0.0
N174 N 0.39361 0.9508 0.41686 0.0
C175 C 0.41744 0.95512 0.62551 0.0
C176 C 0.41639 0.96083 0.47556 0.0
C177 C 0.37981 0.94289 0.53926 0.0
N178 N 0.39433 0.94366 0.66376 0.0
O179 O 0.35307 0.92368 0.28232 0.0
H180 H 0.433 0.96837 0.41186 0.0
H181 H 0.36019 0.93448 0.53934 0.0
O182 O 0.37773 0.96965 0.12612 0.0
C183 C 0.35907 0.90079 0.33843 0.0
O184 O 0.38249 0.89092 0.30473 0.0
N185 N 0.42619 0.93935 0.17945 0.0
C186 C 0.48225 0.9366 0.16149 0.0
C187 C 0.4672 0.95182 0.05931 0.0
C188 C 0.43927 0.95196 0.06683 0.0
C189 C 0.44007 0.92234 0.26827 0.0
C190 C 0.46765 0.92081 0.26251 0.0
H191 H 0.42831 0.96134 0.97987 0.0
H192 H 0.42955 0.91018 0.34823 0.0
H193 H 0.36326 0.94981 0.91064 0.0
H194 H 0.42197 0.89812 0.75594 0.0
H195 H 0.43466 0.95693 0.69711 0.0
H196 H 0.47638 0.96336 0.97204 0.0
H197 H 0.4767 0.90702 0.33877 0.0
C198 C 0.34184 0.15315 0.22906 0.0
C199 C 0.33696 0.15667 0.07913 0.0
N200 N 0.31735 0.13994 0.03959 0.0
N201 N 0.32437 0.13523 0.28438 0.0
C202 C 0.31119 0.12615 0.16254 0.0
H203 H 0.35373 0.16635 0.29701 0.0
Co204 Co 0.3087 0.13877 0.47571 0.0
C205 C 0.25291 0.13985 0.35016 0.0
O206 O 0.24795 0.16066 0.43315 0.0
N207 N 0.29242 0.14231 0.67128 0.0
C208 C 0.28749 0.16596 0.88007 0.0
C209 C 0.28125 0.16447 0.73089 0.0
C210 C 0.30117 0.1289 0.79328 0.0
N211 N 0.30006 0.14341 0.91767 0.0
O212 O 0.32045 0.10277 0.53374 0.0
H213 H 0.27274 0.18067 0.66779 0.0
H214 H 0.31026 0.10961 0.79326 0.0
O215 O 0.27421 0.12685 0.3789 0.0
C216 C 0.34316 0.10903 0.59106 0.0
O217 O 0.3524 0.13296 0.56278 0.0
N218 N 0.30349 0.17585 0.43493 0.0
C219 C 0.30547 0.23177 0.41116 0.0
C220 C 0.29302 0.21615 0.30091 0.0
C221 C 0.29268 0.18826 0.31396 0.0
C222 C 0.31818 0.19052 0.53253 0.0
C223 C 0.31813 0.21813 0.52827 0.0
H224 H 0.28513 0.17671 0.22351 0.0
H225 H 0.32923 0.18063 0.61979 0.0
H226 H 0.29473 0.11236 0.16511 0.0
H227 H 0.34481 0.1724 1.00954 0.0
H228 H 0.28519 0.18319 0.95111 0.0
H229 H 0.28431 0.22507 0.20284 0.0
H230 H 0.32795 0.2283 0.61877 0.0
C231 C 0.09118 0.09199 0.47979 0.0
C232 C 0.08771 0.08714 0.32981 0.0
N233 N 0.10421 0.0673 0.29079 0.0
N234 N 0.10884 0.0743 0.53552 0.0
C235 C 0.11782 0.06099 0.41401 0.0
H236 H 0.0781 0.10407 0.54743 0.0
Co237 Co 0.10515 0.05876 0.72693 0.0
C238 C 0.10308 0.00283 0.60124 0.0
O239 O 0.08214 -0.00191 0.68373 0.0
N240 N 0.1015 0.04261 0.92238 0.0
C241 C 0.078 0.03757 0.13157 0.0
C242 C 0.07933 0.03147 0.98215 0.0
C243 C 0.11502 0.05126 0.04416 0.0
N244 N 0.10062 0.05006 0.16887 0.0
O245 O 0.14134 0.07015 0.78435 0.0
H246 H 0.06303 0.02311 0.91916 0.0
H247 H 0.13431 0.06037 0.04389 0.0
O248 O 0.11642 0.02395 0.63019 0.0
C249 C 0.13528 0.09302 0.84057 0.0
O250 O 0.11146 0.10243 0.81157 0.0
N251 N 0.06804 0.05406 0.68708 0.0
C252 C 0.01213 0.05631 0.66515 0.0
C253 C 0.02762 0.04395 0.55387 0.0
C254 C 0.05549 0.04342 0.56614 0.0
C255 C 0.05356 0.06888 0.78504 0.0
C256 C 0.02592 0.06902 0.78152 0.0
H257 H 0.06694 0.03573 0.47546 0.0
H258 H 0.0636 0.07984 0.87212 0.0
H259 H 0.1314 0.04436 0.41697 0.0
H260 H 0.07214 0.09518 0.25979 0.0
H261 H 0.06081 0.0353 0.20293 0.0
H262 H 0.01861 0.03537 0.45571 0.0
H263 H 0.01589 0.07895 0.8721 0.0
C264 C 0.84193 0.84077 0.72868 0.0
C265 C 0.83706 0.83733 0.5787 0.0
N266 N 0.81737 0.85399 0.53951 0.0
N267 N 0.82439 0.85858 0.78437 0.0
C268 C 0.81116 0.86766 0.66275 0.0
H269 H 0.85388 0.82758 0.79632 0.0
Co270 Co 0.80882 0.8549 0.97582 0.0
C271 C 0.75283 0.85388 0.85105 0.0
O272 O 0.74777 0.83316 0.93454 0.0
N273 N 0.79262 0.85123 0.17127 0.0
C274 C 0.78769 0.82771 0.38045 0.0
C275 C 0.78164 0.82899 0.231 0.0
C276 C 0.80113 0.86482 0.29316 0.0
N277 N 0.80004 0.85041 0.41789 0.0
O278 O 0.82072 0.89084 0.03481 0.0
H279 H 0.77331 0.81267 0.16804 0.0
H280 H 0.81009 0.88419 0.2928 0.0
O281 O 0.77421 0.86682 0.87945 0.0
C282 C 0.84342 0.88429 0.09144 0.0
O283 O 0.8525 0.86041 0.06076 0.0
N284 N 0.80358 0.81789 0.9345 0.0
C285 C 0.80514 0.76223 0.90772 0.0
C286 C 0.79215 0.77788 0.80048 0.0
C287 C 0.79233 0.80573 0.81396 0.0
C288 C 0.81855 0.80301 0.03005 0.0
C289 C 0.81866 0.77538 0.02298 0.0
H290 H 0.78481 0.81745 0.72435 0.0
H291 H 0.82988 0.81272 0.11683 0.0
H292 H 0.79464 0.88137 0.66561 0.0
H293 H 0.84497 0.82168 0.50882 0.0
H294 H 0.78547 0.81052 0.45187 0.0
H295 H 0.78281 0.76883 0.70438 0.0
H296 H 0.82923 0.76456 0.10869 0.0
C297 C 0.90399 0.09374 0.47378 0.0
C298 C 0.90789 0.08895 0.32421 0.0
N299 N 0.89117 0.06949 0.28252 0.0
N300 N 0.88589 0.07633 0.52782 0.0
C301 C 0.87705 0.06332 0.40445 0.0
H302 H 0.91679 0.10594 0.54222 0.0
Co303 Co 0.88953 0.06043 0.7196 0.0
C304 C 0.88454 0.00278 0.60073 0.0
O305 O 0.90041 0.99226 0.70023 0.0
N306 N 0.89363 0.0442 0.91416 0.0
C307 C 0.91814 0.04091 0.12118 0.0
C308 C 0.91674 0.03476 0.97186 0.0
C309 C 0.8801 0.05243 0.03712 0.0
N310 N 0.89503 0.05227 0.16046 0.0
O311 O 0.85342 0.07195 0.77987 0.0
H312 H 0.93325 0.02717 0.90765 0.0
H313 H 0.86041 0.06067 0.03775 0.0
O314 O 0.87756 0.02697 0.61901 0.0
C315 C 0.85911 0.0947 0.8382 0.0
O316 O 0.88253 0.10483 0.80709 0.0
N317 N 0.92619 0.05471 0.67709 0.0
C318 C 0.98215 0.05648 0.66107 0.0
C319 C 0.96738 0.03778 0.578 0.0
C320 C 0.93944 0.03765 0.58507 0.0
C321 C 0.94009 0.07374 0.75206 0.0
C322 C 0.96766 0.07523 0.74437 0.0
H323 H 0.92893 0.02389 0.51673 0.0
H324 H 0.92959 0.08788 0.82091 0.0
H325 H 0.86306 0.04702 0.40509 0.0
H326 H 0.92375 0.09692 0.25594 0.0
H327 H 0.93548 0.03925 0.19205 0.0
H328 H 0.97705 0.02304 0.50913 0.0
H329 H 0.97712 0.09126 0.80435 0.0
C330 C 0.65201 0.15263 0.2292 0.0
C331 C 0.65688 0.15613 0.07926 0.0
N332 N 0.67657 0.13948 0.03985 0.0
N333 N 0.66955 0.1348 0.28467 0.0
C334 C 0.68278 0.12576 0.16291 0.0
H335 H 0.64006 0.16579 0.29703 0.0
Co336 Co 0.68515 0.13845 0.47606 0.0
C337 C 0.74115 0.13964 0.35087 0.0
O338 O 0.74617 0.16036 0.43441 0.0
N339 N 0.70136 0.14212 0.67146 0.0
C340 C 0.70626 0.16571 0.88044 0.0
C341 C 0.71236 0.16436 0.73104 0.0
C342 C 0.69277 0.12859 0.79343 0.0
N343 N 0.69386 0.14305 0.91802 0.0
O344 O 0.6734 0.1024 0.53474 0.0
H345 H 0.72072 0.18065 0.66795 0.0
H346 H 0.68378 0.10924 0.79325 0.0
O347 O 0.71978 0.12667 0.3792 0.0
C348 C 0.65064 0.10875 0.59134 0.0
O349 O 0.64142 0.1326 0.56106 0.0
N350 N 0.69027 0.1755 0.43507 0.0
C351 C 0.6884 0.2312 0.40869 0.0
C352 C 0.70138 0.2156 0.30097 0.0
C353 C 0.70143 0.18775 0.31448 0.0
C354 C 0.67531 0.19029 0.5311 0.0
C355 C 0.67511 0.21792 0.52444 0.0
H356 H 0.70903 0.17609 0.22478 0.0
H357 H 0.66407 0.18051 0.61803 0.0
H358 H 0.6993 0.11205 0.1656 0.0
H359 H 0.64897 0.17181 1.00956 0.0
H360 H 0.7085 0.18291 0.95172 0.0
H361 H 0.71057 0.22468 0.20449 0.0
H362 H 0.66463 0.22863 0.61098 0.0
C363 C 0.59092 0.90132 0.97831 0.0
C364 C 0.58728 0.90622 0.82852 0.0
N365 N 0.60406 0.92576 0.78846 0.0
N366 N 0.60896 0.91872 0.03324 0.0
C367 C 0.61796 0.93187 0.91107 0.0
H368 H 0.57778 0.88941 0.0465 0.0
Co369 Co 0.60546 0.93442 0.22471 0.0
C370 C 0.60498 0.99074 0.10137 0.0
O371 O 0.5852 0.99666 0.1902 0.0
N372 N 0.6018 0.9507 0.42003 0.0
C373 C 0.57791 0.95536 0.62831 0.0
C374 C 0.57941 0.96153 0.47903 0.0
C375 C 0.61519 0.94205 0.54231 0.0
N376 N 0.60057 0.94302 0.66643 0.0
O377 O 0.64152 0.92284 0.28276 0.0
H378 H 0.56313 0.96979 0.41546 0.0
H379 H 0.63453 0.93305 0.54249 0.0
O380 O 0.61716 0.96882 0.12629 0.0
C381 C 0.63538 0.90008 0.33991 0.0
O382 O 0.61159 0.89061 0.31044 0.0
N383 N 0.56851 0.93948 0.18477 0.0
C384 C 0.51244 0.93685 0.16398 0.0
C385 C 0.52784 0.9507 0.05721 0.0
C386 C 0.55574 0.95125 0.06829 0.0
C387 C 0.55428 0.92371 0.27887 0.0
C388 C 0.52667 0.92295 0.27472 0.0
H389 H 0.56699 0.95978 0.97959 0.0
H390 H 0.56453 0.91221 0.36291 0.0
H391 H 0.63182 0.94829 0.9132 0.0
H392 H 0.57149 0.8984 0.75933 0.0
H393 H 0.56065 0.95754 0.69927 0.0
H394 H 0.51896 0.96064 0.96311 0.0
H395 H 0.51731 0.91137 0.36074 0.0
C396 C 0.84186 0.15319 0.31675 0.0
C397 C 0.83697 0.15664 0.46672 0.0
N398 N 0.81738 0.13986 0.50604 0.0
N399 N 0.82443 0.13526 0.26119 0.0
C400 C 0.81125 0.12612 0.38291 0.0
H401 H 0.85374 0.16644 0.249 0.0
Co402 Co 0.8088 0.13879 0.06974 0.0
C403 C 0.75292 0.13971 0.1952 0.0
O404 O 0.74789 0.16047 0.11204 0.0
N405 N 0.79251 0.1423 0.87431 0.0
C406 C 0.78749 0.16586 0.66538 0.0
C407 C 0.78133 0.16444 0.81466 0.0
C408 C 0.80121 0.12884 0.75236 0.0
N409 N 0.80005 0.1433 0.62783 0.0
O410 O 0.82081 0.10288 1.01105 0.0
H411 H 0.77285 0.18066 0.87773 0.0
H412 H 0.81033 0.10955 0.75259 0.0
O413 O 0.77428 0.12677 0.16657 0.0
C414 C 0.84351 0.10951 0.95455 0.0
O415 O 0.85255 0.1334 0.98558 0.0
N416 N 0.80351 0.1758 0.11043 0.0
C417 C 0.80559 0.23167 0.13377 0.0
C418 C 0.79295 0.21614 0.24367 0.0
C419 C 0.79259 0.18825 0.23098 0.0
C420 C 0.81833 0.19042 1.01307 0.0
C421 C 0.8184 0.21803 1.01733 0.0
H422 H 0.78497 0.17673 0.32135 0.0
H423 H 0.82943 0.18049 0.92613 0.0
H424 H 0.79482 0.11229 0.38018 0.0
H425 H 0.84479 0.17235 0.5365 0.0
H426 H 0.78518 0.18307 0.59422 0.0
H427 H 0.78413 0.22516 0.34125 0.0
H428 H 0.82841 0.22825 0.92755 0.0
C429 C 0.59111 0.09293 0.07126 0.0
C430 C 0.58719 0.08806 0.22076 0.0
N431 N 0.60341 0.06808 0.26098 0.0
N432 N 0.60875 0.07511 1.01649 0.0
C433 C 0.61725 0.06165 0.1387 0.0
H434 H 0.57845 0.10533 1.0031 0.0
Co435 Co 0.60472 0.05966 0.82501 0.0
C436 C 0.60478 0.00284 0.9461 0.0
O437 O 0.58488 0.99667 0.85875 0.0
N438 N 0.60029 0.04373 0.62997 0.0
C439 C 0.57627 0.0396 0.42178 0.0
C440 C 0.57738 0.03392 0.57176 0.0
C441 C 0.61404 0.05163 0.50729 0.0
N442 N 0.59941 0.05095 0.38308 0.0
O443 O 0.64091 0.07083 0.76441 0.0
H444 H 0.56076 0.02648 0.63578 0.0
H445 H 0.63368 0.06 0.50692 0.0
O446 O 0.61644 0.02506 0.92151 0.0
C447 C 0.63516 0.09369 0.70739 0.0
O448 O 0.61173 0.10373 0.73927 0.0
N449 N 0.5678 0.05496 0.86734 0.0
C450 C 0.51178 0.05731 0.8844 0.0
C451 C 0.52672 0.04091 0.98093 0.0
C452 C 0.55465 0.04105 0.97473 0.0
C453 C 0.55393 0.0727 0.78296 0.0
C454 C 0.52635 0.07433 0.78999 0.0
H455 H 0.56546 0.0307 0.05827 0.0
H456 H 0.56446 0.08555 0.70654 0.0
H457 H 0.63071 0.04492 0.13694 0.0
H458 H 0.57159 0.09632 0.28976 0.0
H459 H 0.55902 0.03782 0.35032 0.0
H460 H 0.51737 0.02812 0.06208 0.0
H461 H 0.51713 0.08917 0.72053 0.0
C462 C 0.65213 0.84064 0.81657 0.0
C463 C 0.657 0.83713 0.96652 0.0
N464 N 0.67664 0.85385 1.00602 0.0
N465 N 0.66962 0.85854 0.7612 0.0
C466 C 0.68281 0.86761 0.88303 0.0
H467 H 0.64022 0.82745 0.74865 0.0
Co468 Co 0.68529 0.85497 0.56986 0.0
C469 C 0.74108 0.85384 0.69538 0.0
O470 O 0.74602 0.83304 0.61224 0.0
N471 N 0.70158 0.8514 0.37428 0.0
C472 C 0.70645 0.82776 0.16545 0.0
C473 C 0.7127 0.82922 0.31462 0.0
C474 C 0.69286 0.86485 0.2523 0.0
N475 N 0.69393 0.85034 0.12788 0.0
O476 O 0.67355 0.89096 0.51163 0.0
H477 H 0.72118 0.81301 0.37768 0.0
H478 H 0.68384 0.88417 0.25236 0.0
O479 O 0.7198 0.86687 0.66672 0.0
C480 C 0.65084 0.88468 0.45431 0.0
O481 O 0.64158 0.86078 0.48312 0.0
N482 N 0.69047 0.81789 0.61071 0.0
C483 C 0.68849 0.76196 0.63425 0.0
C484 C 0.70093 0.77757 0.74459 0.0
C485 C 0.70127 0.80546 0.73166 0.0
C486 C 0.67577 0.80323 0.51311 0.0
C487 C 0.67582 0.77561 0.51723 0.0
H488 H 0.70881 0.81701 0.82215 0.0
H489 H 0.66472 0.81313 0.42588 0.0
H490 H 0.69928 0.88138 0.88043 0.0
H491 H 0.64913 0.82142 0.03613 0.0
H492 H 0.70871 0.81053 0.09439 0.0
H493 H 0.70964 0.76863 0.84264 0.0
H494 H 0.666 0.76546 0.42667 0.0
C495 C 0.90396 0.90033 0.57121 0.0
C496 C 0.90785 0.90514 0.72078 0.0
N497 N 0.89105 0.92453 0.76249 0.0
N498 N 0.88579 0.91766 0.51724 0.0
C499 C 0.87691 0.93064 0.6406 0.0
H500 H 0.91682 0.88821 0.5027 0.0
Co501 Co 0.88937 0.93356 0.32547 0.0
C502 C 0.88458 0.99117 0.44473 0.0
O503 O 0.90061 0.00162 0.3457 0.0
N504 N 0.89338 0.94981 0.13091 0.0
C505 C 0.91788 0.95324 0.9239 0.0
C506 C 0.91643 0.9594 0.07319 0.0
C507 C 0.87991 0.94149 1.008 0.0
N508 N 0.89484 0.94175 0.88464 0.0
O509 O 0.85326 0.92197 0.26557 0.0
H510 H 0.93289 0.9671 0.13742 0.0
H511 H 0.86026 0.93311 1.00739 0.0
O512 O 0.87739 0.96704 0.42609 0.0
C513 C 0.859 0.89921 0.20751 0.0
O514 O 0.88244 0.88917 0.23857 0.0
N515 N 0.92603 0.93932 0.36756 0.0
C516 C 0.98199 0.93741 0.38467 0.0
C517 C 0.96718 0.9559 0.46895 0.0
C518 C 0.93925 0.95609 0.46134 0.0
C519 C 0.93995 0.92045 0.29137 0.0
C520 C 0.96751 0.91891 0.29944 0.0
H521 H 0.92869 0.96959 0.53106 0.0
H522 H 0.92946 0.90649 0.22138 0.0
H523 H 0.86287 0.94689 0.63993 0.0
H524 H 0.92374 0.89725 0.789 0.0
H525 H 0.93522 0.955 0.85302 0.0
H526 H 0.97679 0.97043 0.53949 0.0
H527 H 0.97693 0.90301 0.23835 0.0
C528 C 0.64943 0.65457 0.81719 0.0
C529 C 0.65418 0.65837 0.96692 0.0
N530 N 0.67362 0.64159 1.00821 0.0
N531 N 0.66686 0.6365 0.76283 0.0
C532 C 0.67972 0.62758 0.88581 0.0
H533 H 0.63718 0.66738 0.74911 0.0
Co534 Co 0.68298 0.64004 0.57158 0.0
C535 C 0.74105 0.63278 0.69978 0.0
O536 O 0.75298 0.65193 0.62628 0.0
N537 N 0.69893 0.64426 0.37644 0.0
C538 C 0.70247 0.66849 0.16821 0.0
C539 C 0.70835 0.66733 0.3181 0.0
C540 C 0.69066 0.63065 0.25384 0.0
N541 N 0.69097 0.64541 0.12978 0.0
O542 O 0.6707 0.60426 0.50972 0.0
H543 H 0.71575 0.68397 0.38198 0.0
H544 H 0.68229 0.611 0.25385 0.0
O545 O 0.71684 0.62678 0.66765 0.0
C546 C 0.64789 0.60998 0.4526 0.0
O547 O 0.63777 0.63335 0.48486 0.0
N548 N 0.68961 0.67618 0.61753 0.0
C549 C 0.68802 0.73198 0.6394 0.0
C550 C 0.70663 0.71688 0.72151 0.0
C551 C 0.7066 0.68889 0.71239 0.0
C552 C 0.67033 0.69035 0.54639 0.0
C553 C 0.66881 0.71782 0.55803 0.0
H554 H 0.71975 0.67777 0.7833 0.0
H555 H 0.65585 0.6801 0.47863 0.0
H556 H 0.69549 0.61324 0.88431 0.0
H557 H 0.64621 0.67418 0.03554 0.0
H558 H 0.70412 0.68577 0.09685 0.0
H559 H 0.721 0.7264 0.79276 0.0
H560 H 0.65244 0.7275 0.5022 0.0
C561 C 0.59046 0.40162 0.06941 0.0
C562 C 0.5872 0.40645 0.21953 0.0
N563 N 0.60424 0.42583 0.2587 0.0
N564 N 0.60854 0.4189 1.01376 0.0
C565 C 0.61792 0.4319 0.13536 0.0
H566 H 0.57705 0.3899 1.0018 0.0
Co567 Co 0.60537 0.43454 0.82226 0.0
C568 C 0.60484 0.49081 0.94459 0.0
O569 O 0.585 0.49647 0.85584 0.0
N570 N 0.60219 0.45081 0.62681 0.0
C571 C 0.57875 0.45618 0.41771 0.0
C572 C 0.58026 0.46239 0.56687 0.0
C573 C 0.61546 0.44168 0.50523 0.0
N574 N 0.60106 0.44315 0.38061 0.0
O575 O 0.64123 0.42225 0.76559 0.0
H576 H 0.56412 0.47107 0.62973 0.0
H577 H 0.63445 0.43198 0.50591 0.0
O578 O 0.61724 0.46897 0.92019 0.0
C579 C 0.63438 0.39942 0.71167 0.0
O580 O 0.61036 0.39076 0.7429 0.0
N581 N 0.56849 0.44005 0.8609 0.0
C582 C 0.51255 0.43777 0.88269 0.0
C583 C 0.52807 0.45046 0.99303 0.0
C584 C 0.55594 0.45106 0.98056 0.0
C585 C 0.55402 0.4252 0.76322 0.0
C586 C 0.52643 0.42506 0.76654 0.0
H587 H 0.56739 0.45875 0.07101 0.0
H588 H 0.56406 0.41411 0.6767 0.0
H589 H 0.6319 0.44821 0.13253 0.0
H590 H 0.57146 0.39876 0.28963 0.0
H591 H 0.56158 0.45874 0.34646 0.0
H592 H 0.51922 0.45923 0.09096 0.0
H593 H 0.51666 0.41498 0.67586 0.0
C594 C 0.84507 0.33932 0.31829 0.0
C595 C 0.84041 0.33567 0.46821 0.0
N596 N 0.8209 0.35239 0.50945 0.0
N597 N 0.82752 0.35724 0.26362 0.0
C598 C 0.81472 0.36626 0.3866 0.0
H599 H 0.85743 0.32655 0.25058 0.0
Co600 Co 0.8113 0.3536 0.07246 0.0
C601 C 0.75281 0.36121 0.19835 0.0
O602 O 0.74034 0.34318 0.11911 0.0
N603 N 0.79534 0.34929 0.87722 0.0
C604 C 0.7924 0.32503 0.66875 0.0
C605 C 0.78647 0.32602 0.81858 0.0
C606 C 0.80338 0.36309 0.75467 0.0
N607 N 0.80345 0.34833 0.63046 0.0
O608 O 0.82307 0.38954 1.01135 0.0
H609 H 0.77943 0.30919 0.8821 0.0
H610 H 0.81136 0.38291 0.75496 0.0
O611 O 0.77738 0.36629 0.17032 0.0
C612 C 0.84583 0.38409 0.9528 0.0
O613 O 0.85611 0.36069 0.98257 0.0
N614 N 0.80497 0.31737 0.11797 0.0
C615 C 0.80614 0.2616 0.13905 0.0
C616 C 0.78683 0.27667 0.21575 0.0
C617 C 0.78702 0.30465 0.20714 0.0
C618 C 0.8247 0.30317 0.05089 0.0
C619 C 0.82604 0.27569 0.06268 0.0
H620 H 0.77307 0.31571 0.27322 0.0
H621 H 0.83968 0.3134 0.98645 0.0
H622 H 0.79897 0.38061 0.38478 0.0
H623 H 0.84847 0.31994 0.53707 0.0
H624 H 0.79117 0.30771 0.59738 0.0
H625 H 0.7717 0.26711 0.28176 0.0
H626 H 0.84275 0.26586 1.01063 0.0
C627 C 0.90403 0.59214 0.56966 0.0
C628 C 0.90721 0.58734 0.71983 0.0
N629 N 0.89029 0.56783 0.75854 0.0
N630 N 0.88611 0.57473 0.51375 0.0
C631 C 0.87674 0.56165 0.63501 0.0
H632 H 0.91738 0.60396 0.50225 0.0
Co633 Co 0.88936 0.55926 0.32237 0.0
C634 C 0.89029 0.50312 0.44588 0.0
O635 O 0.911 0.4981 0.36228 0.0
N636 N 0.89256 0.54317 0.12692 0.0
C637 C 0.91575 0.53744 0.91728 0.0
C638 C 0.91437 0.53142 0.06673 0.0
C639 C 0.87924 0.55228 1.0056 0.0
N640 N 0.89347 0.55056 0.88057 0.0
O641 O 0.85339 0.57148 0.26609 0.0
H642 H 0.93051 0.52268 0.12936 0.0
H643 H 0.86034 0.56215 1.00649 0.0
O644 O 0.87745 0.52462 0.41866 0.0
C645 C 0.85998 0.59443 0.21292 0.0
O646 O 0.884 0.60319 0.2433 0.0
N647 N 0.9264 0.5538 0.36125 0.0
C648 C 0.98231 0.55532 0.38235 0.0
C649 C 0.96677 0.543 0.49339 0.0
C650 C 0.93887 0.54286 0.48165 0.0
C651 C 0.94104 0.56838 0.26292 0.0
C652 C 0.96866 0.56816 0.26605 0.0
H653 H 0.92736 0.53535 0.57248 0.0
H654 H 0.93111 0.57952 0.17612 0.0
H655 H 0.86289 0.54524 0.63187 0.0
H656 H 0.92282 0.59516 0.79032 0.0
H657 H 0.93284 0.53472 0.84558 0.0
H658 H 0.97581 0.53423 0.59101 0.0
H659 H 0.97886 0.57798 0.17556 0.0
C660 C 0.64792 0.34313 0.2257 0.0
C661 C 0.65179 0.33965 0.07525 0.0
N662 N 0.67349 0.35357 0.03579 0.0
N663 N 0.66797 0.35804 0.28154 0.0
C664 C 0.68193 0.36564 0.15986 0.0
H665 H 0.6338 0.3321 0.29214 0.0
Co666 Co 0.68259 0.35251 0.47279 0.0
C667 C 0.74058 0.37167 0.3411 0.0
O668 O 0.75283 0.3906 0.41457 0.0
N669 N 0.69709 0.34641 0.66836 0.0
C670 C 0.69827 0.32276 0.87896 0.0
C671 C 0.70338 0.32245 0.72864 0.0
C672 C 0.69133 0.36154 0.78952 0.0
N673 N 0.69017 0.34732 0.91511 0.0
O674 O 0.67175 0.38858 0.53809 0.0
H675 H 0.70815 0.30462 0.66748 0.0
H676 H 0.68541 0.3821 0.78742 0.0
O677 O 0.71782 0.36382 0.39041 0.0
C678 C 0.64894 0.38337 0.59666 0.0
O679 O 0.6383 0.36018 0.56557 0.0
N680 N 0.68817 0.31654 0.42234 0.0
C681 C 0.6878 0.26093 0.40088 0.0
C682 C 0.70959 0.27588 0.34859 0.0
C683 C 0.70949 0.3038 0.36128 0.0
C684 C 0.66653 0.30234 0.46767 0.0
C685 C 0.66574 0.27482 0.45614 0.0
H686 H 0.72693 0.31478 0.33014 0.0
H687 H 0.64991 0.31244 0.51846 0.0
H688 H 0.69981 0.37735 0.16182 0.0
H689 H 0.64148 0.32559 1.00446 0.0
H690 H 0.69787 0.30572 0.95267 0.0
H691 H 0.72695 0.26603 0.30462 0.0
H692 H 0.64801 0.2646 0.4937 0.0
C693 C 0.90364 0.40208 0.47691 0.0
C694 C 0.90685 0.4069 0.32674 0.0
N695 N 0.89007 0.42652 0.28814 0.0
N696 N 0.88584 0.41957 0.53307 0.0
C697 C 0.87655 0.43273 0.41182 0.0
H698 H 0.91695 0.39018 0.54416 0.0
Co699 Co 0.88931 0.43509 0.72453 0.0
C700 C 0.8903 0.49115 0.60085 0.0
O701 O 0.91108 0.4961 0.684 0.0
N702 N 0.89268 0.45128 0.92006 0.0
C703 C 0.91595 0.45663 0.12967 0.0
C704 C 0.91466 0.4627 0.98027 0.0
C705 C 0.87916 0.44249 0.04156 0.0
N706 N 0.89346 0.44387 0.16653 0.0
O707 O 0.85354 0.42279 0.78247 0.0
H708 H 0.93091 0.47126 0.91765 0.0
H709 H 0.86 0.43311 0.04077 0.0
O710 O 0.87735 0.46972 0.62844 0.0
C711 C 0.86047 0.40008 0.83769 0.0
O712 O 0.88447 0.39138 0.80639 0.0
N713 N 0.92623 0.4405 0.68439 0.0
C714 C 0.98206 0.43876 0.66191 0.0
C715 C 0.96652 0.45109 0.55102 0.0
C716 C 0.93864 0.45132 0.56346 0.0
C717 C 0.94086 0.42584 0.78229 0.0
C718 C 0.96846 0.42599 0.77862 0.0
H719 H 0.92709 0.45881 0.4728 0.0
H720 H 0.93096 0.41475 0.86939 0.0
H721 H 0.86279 0.44921 0.41508 0.0
H722 H 0.92243 0.39902 0.25622 0.0
H723 H 0.93308 0.45908 0.20129 0.0
H724 H 0.97553 0.45977 0.45305 0.0
H725 H 0.97868 0.41618 0.86905 0.0
C726 C 0.84612 0.64991 0.72576 0.0
C727 C 0.84232 0.6534 0.57525 0.0
N728 N 0.82041 0.63981 0.53591 0.0
N729 N 0.8258 0.63538 0.78181 0.0
C730 C 0.81175 0.62796 0.66008 0.0
H731 H 0.86049 0.66065 0.79195 0.0
Co732 Co 0.81121 0.64108 0.97325 0.0
C733 C 0.75338 0.6215 0.84019 0.0
O734 O 0.74161 0.60149 0.90698 0.0
N735 N 0.79676 0.64735 0.16885 0.0
C736 C 0.79606 0.671 0.37958 0.0
C737 C 0.79094 0.67142 0.22934 0.0
C738 C 0.80232 0.63211 0.28988 0.0
N739 N 0.80378 0.64632 0.41546 0.0
O740 O 0.82244 0.60513 0.03989 0.0
H741 H 0.78655 0.68937 0.16854 0.0
H742 H 0.80798 0.61146 0.28748 0.0
O743 O 0.77603 0.62925 0.89178 0.0
C744 C 0.84513 0.61056 0.09939 0.0
O745 O 0.85546 0.63393 0.0696 0.0
N746 N 0.80533 0.67694 0.92147 0.0
C747 C 0.80562 0.73254 0.89958 0.0
C748 C 0.78338 0.71764 0.85342 0.0
C749 C 0.78349 0.68972 0.86667 0.0
C750 C 0.82729 0.69115 0.96173 0.0
C751 C 0.82804 0.71865 0.94969 0.0
H752 H 0.76567 0.6788 0.84264 0.0
H753 H 0.8442 0.68109 1.0095 0.0
H754 H 0.79373 0.6165 0.6617 0.0
H755 H 0.85288 0.66724 0.50428 0.0
H756 H 0.7968 0.68803 0.45329 0.0
H757 H 0.76567 0.72758 0.81469 0.0
H758 H 0.846 0.72891 0.98339 0.0
C759 C 0.58969 0.59268 0.97292 0.0
C760 C 0.58607 0.5878 0.82323 0.0
N761 N 0.6026 0.56804 0.78365 0.0
N762 N 0.60749 0.5751 0.02821 0.0
C763 C 0.61633 0.56175 0.90642 0.0
H764 H 0.57675 0.60487 0.04066 0.0
Co765 Co 0.60373 0.55971 0.21976 0.0
C766 C 0.60438 0.503 0.09939 0.0
O767 O 0.58417 0.49703 0.1849 0.0
N768 N 0.59968 0.54377 0.41486 0.0
C769 C 0.57599 0.53896 0.6237 0.0
C770 C 0.57707 0.53338 0.47364 0.0
C771 C 0.61337 0.55193 0.53709 0.0
N772 N 0.59891 0.55082 0.66175 0.0
O773 O 0.63959 0.57171 0.27996 0.0
H774 H 0.56055 0.52562 0.41003 0.0
H775 H 0.63279 0.56081 0.53685 0.0
O776 O 0.61606 0.5252 0.12439 0.0
C777 C 0.63317 0.59455 0.33523 0.0
O778 O 0.60962 0.60403 0.3011 0.0
N779 N 0.56693 0.55441 0.17793 0.0
C780 C 0.51088 0.55676 0.16103 0.0
C781 C 0.52589 0.54081 0.06224 0.0
C782 C 0.55383 0.5409 0.06876 0.0
C783 C 0.55301 0.57177 0.26446 0.0
C784 C 0.52545 0.5733 0.25812 0.0
H785 H 0.56471 0.5309 0.9839 0.0
H786 H 0.56348 0.58437 0.34233 0.0
H787 H 0.62999 0.54519 0.90868 0.0
H788 H 0.57045 0.59586 0.75362 0.0
H789 H 0.55884 0.53681 0.6956 0.0
H790 H 0.51662 0.52848 0.97866 0.0
H791 H 0.51633 0.58775 0.3304 0.0
C792 C 0.34452 0.33931 0.22832 0.0
C793 C 0.3398 0.33552 0.07855 0.0
N794 N 0.32028 0.35221 0.03725 0.0
N795 N 0.32699 0.3573 0.28269 0.0
C796 C 0.3141 0.36617 0.15971 0.0
H797 H 0.35681 0.32655 0.29638 0.0
Co798 Co 0.31089 0.35367 0.47395 0.0
C799 C 0.25278 0.36082 0.34614 0.0
O800 O 0.24089 0.34166 0.41975 0.0
N801 N 0.29495 0.34936 0.66911 0.0
C802 C 0.29159 0.32512 0.87738 0.0
C803 C 0.28569 0.32623 0.72751 0.0
C804 C 0.30312 0.36304 0.7917 0.0
N805 N 0.30293 0.34828 0.91576 0.0
O806 O 0.32306 0.38945 0.5361 0.0
H807 H 0.27839 0.30954 0.6637 0.0
H808 H 0.31134 0.38276 0.79163 0.0
O809 O 0.27699 0.36686 0.37805 0.0
C810 C 0.34588 0.38374 0.59317 0.0
O811 O 0.35607 0.36044 0.56013 0.0
N812 N 0.30435 0.31753 0.42773 0.0
C813 C 0.30595 0.26174 0.40583 0.0
C814 C 0.28732 0.27683 0.32384 0.0
C815 C 0.28734 0.30482 0.33299 0.0
C816 C 0.32368 0.30337 0.49857 0.0
C817 C 0.3252 0.27591 0.48693 0.0
H818 H 0.27416 0.31594 0.26222 0.0
H819 H 0.33817 0.31363 0.56622 0.0
H820 H 0.29825 0.38042 0.16122 0.0
H821 H 0.34785 0.31975 1.00991 0.0
H822 H 0.29006 0.30783 0.94876 0.0
H823 H 0.27293 0.26731 0.25271 0.0
H824 H 0.34158 0.26622 0.5426 0.0
C825 C 0.40239 0.59238 0.97895 0.0
C826 C 0.40602 0.5875 0.82911 0.0
N827 N 0.38918 0.56801 0.789 0.0
N828 N 0.38431 0.57503 0.03386 0.0
C829 C 0.37526 0.56192 0.91163 0.0
H830 H 0.41559 0.60423 0.04717 0.0
Co831 Co 0.38775 0.55926 0.22534 0.0
C832 C 0.38816 0.50293 0.10263 0.0
O833 O 0.4077 0.49693 0.1928 0.0
N834 N 0.39133 0.54292 0.4207 0.0
C835 C 0.41523 0.53828 0.62889 0.0
C836 C 0.41366 0.53199 0.47979 0.0
C837 C 0.37799 0.55169 0.54296 0.0
N838 N 0.39264 0.55073 0.66696 0.0
O839 O 0.35169 0.5709 0.28331 0.0
H840 H 0.42989 0.52362 0.41629 0.0
H841 H 0.35867 0.56072 0.54318 0.0
O842 O 0.37607 0.52493 0.12649 0.0
C843 C 0.35793 0.59365 0.34036 0.0
O844 O 0.38175 0.60301 0.31055 0.0
N845 N 0.42469 0.55413 0.1855 0.0
C846 C 0.48073 0.55648 0.16433 0.0
C847 C 0.46525 0.5431 0.0562 0.0
C848 C 0.43736 0.54256 0.06797 0.0
C849 C 0.43904 0.56957 0.28075 0.0
C850 C 0.46664 0.56998 0.27714 0.0
H851 H 0.42602 0.53433 0.97876 0.0
H852 H 0.42887 0.58094 0.36569 0.0
H853 H 0.36137 0.54554 0.91374 0.0
H854 H 0.42184 0.59528 0.75991 0.0
H855 H 0.43251 0.53607 0.69971 0.0
H856 H 0.47411 0.53361 0.96052 0.0
H857 H 0.47617 0.58091 0.36533 0.0
C858 C 0.15178 0.65301 0.729 0.0
C859 C 0.15665 0.65642 0.57899 0.0
N860 N 0.17654 0.63996 0.54029 0.0
N861 N 0.1695 0.63541 0.78506 0.0
C862 C 0.18286 0.62641 0.66372 0.0
H863 H 0.13967 0.66609 0.79636 0.0
Co864 Co 0.185 0.63918 0.97663 0.0
C865 C 0.24092 0.64124 0.8515 0.0
O866 O 0.24565 0.66212 0.93451 0.0
N867 N 0.20118 0.64289 0.172 0.0
C868 C 0.2062 0.66631 0.38142 0.0
C869 C 0.21222 0.66509 0.2319 0.0
C870 C 0.19268 0.62926 0.29373 0.0
N871 N 0.19384 0.64361 0.41861 0.0
O872 O 0.17342 0.60309 0.03515 0.0
H873 H 0.22047 0.68146 0.16902 0.0
H874 H 0.18368 0.60991 0.29325 0.0
O875 O 0.21982 0.62786 0.88028 0.0
C876 C 0.15059 0.60951 0.09081 0.0
O877 O 0.14133 0.63327 0.05882 0.0
N878 N 0.18971 0.67624 0.93631 0.0
C879 C 0.18701 0.73217 0.91432 0.0
C880 C 0.19954 0.71672 0.80318 0.0
C881 C 0.20031 0.68885 0.81554 0.0
C882 C 0.17476 0.6906 0.03402 0.0
C883 C 0.17439 0.71822 0.03052 0.0
H884 H 0.20808 0.67746 0.72491 0.0
H885 H 0.16384 0.68048 0.121 0.0
H886 H 0.19953 0.61288 0.66691 0.0
H887 H 0.14859 0.67194 0.50874 0.0
H888 H 0.20839 0.68349 0.45292 0.0
H889 H 0.20813 0.72566 0.70493 0.0
H890 H 0.16431 0.72799 0.12122 0.0
C891 C 0.08919 0.39952 0.46921 0.0
C892 C 0.08552 0.4042 0.31944 0.0
N893 N 0.10252 0.42342 0.27773 0.0
N894 N 0.10742 0.41679 0.52331 0.0
C895 C 0.11656 0.42955 0.39993 0.0
H896 H 0.07625 0.38742 0.53738 0.0
Co897 Co 0.10411 0.43274 0.71517 0.0
C898 C 0.11195 0.49076 0.59919 0.0
O899 O 0.0982 0.50301 0.70247 0.0
N900 N 0.1003 0.44891 0.90967 0.0
C901 C 0.07594 0.45248 0.11721 0.0
C902 C 0.07736 0.45866 0.96794 0.0
C903 C 0.11371 0.44026 0.03203 0.0
N904 N 0.09885 0.44066 0.15565 0.0
O905 O 0.14 0.42048 0.77485 0.0
H906 H 0.06092 0.46653 0.90425 0.0
H907 H 0.13317 0.43148 0.03186 0.0
O908 O 0.1162 0.46589 0.61458 0.0
C909 C 0.13387 0.39752 0.82915 0.0
O910 O 0.11048 0.38779 0.79401 0.0
N911 N 0.0678 0.43939 0.67264 0.0
C912 C 0.01196 0.43844 0.65683 0.0
C913 C 0.02685 0.45782 0.57962 0.0
C914 C 0.05481 0.45767 0.58683 0.0
C915 C 0.0537 0.41994 0.7428 0.0
C916 C 0.02619 0.41876 0.73418 0.0
H917 H 0.06558 0.47223 0.52413 0.0
H918 H 0.06402 0.40514 0.80784 0.0
H919 H 0.13077 0.44566 0.40067 0.0
H920 H 0.06965 0.39635 0.2509 0.0
H921 H 0.05869 0.45443 0.1886 0.0
H922 H 0.01717 0.47321 0.51548 0.0
H923 H 0.01649 0.40226 0.78893 0.0
C924 C 0.34203 0.65285 0.8179 0.0
C925 C 0.33718 0.65646 0.96778 0.0
N926 N 0.31716 0.64018 1.00698 0.0
N927 N 0.32417 0.63534 0.76231 0.0
C928 C 0.31073 0.62657 0.88393 0.0
H929 H 0.35427 0.66577 0.75017 0.0
Co930 Co 0.30868 0.63926 0.57088 0.0
C931 C 0.25273 0.64136 0.6961 0.0
O932 O 0.24806 0.66238 0.61414 0.0
N933 N 0.29257 0.64322 0.37547 0.0
C934 C 0.28791 0.66685 0.16645 0.0
C935 C 0.28189 0.66563 0.316 0.0
C936 C 0.30089 0.62956 0.25347 0.0
N937 N 0.29995 0.64401 0.12886 0.0
O938 O 0.3198 0.60306 0.51226 0.0
H939 H 0.27384 0.68206 0.3792 0.0
H940 H 0.30961 0.61009 0.25358 0.0
O941 O 0.27384 0.62804 0.66704 0.0
C942 C 0.34266 0.60905 0.45563 0.0
O943 O 0.35233 0.63272 0.48608 0.0
N944 N 0.30427 0.67635 0.61169 0.0
C945 C 0.30712 0.73237 0.63186 0.0
C946 C 0.29411 0.71705 0.74204 0.0
C947 C 0.29335 0.68915 0.73094 0.0
C948 C 0.31968 0.69053 0.51542 0.0
C949 C 0.32029 0.71816 0.51841 0.0
H950 H 0.28518 0.6779 0.82105 0.0
H951 H 0.33078 0.68025 0.4298 0.0
H952 H 0.29396 0.61316 0.88116 0.0
H953 H 0.3454 0.67197 0.0376 0.0
H954 H 0.28589 0.68407 0.09504 0.0
H955 H 0.28504 0.72606 0.8386 0.0
H956 H 0.33099 0.72765 0.42912 0.0
C957 C 0.09012 0.59391 0.57249 0.0
C958 C 0.08622 0.58916 0.7221 0.0
N959 N 0.10297 0.56975 0.76411 0.0
N960 N 0.10822 0.57649 0.51852 0.0
C961 C 0.1171 0.56359 0.64215 0.0
H962 H 0.07738 0.60616 0.50415 0.0
Co963 Co 0.10458 0.56044 0.32669 0.0
C964 C 0.11197 0.50232 0.44365 0.0
O965 O 0.09838 0.48997 0.34015 0.0
N966 N 0.10044 0.54415 0.13217 0.0
C967 C 0.07585 0.54123 0.92512 0.0
C968 C 0.07723 0.53498 0.07434 0.0
C969 C 0.11399 0.55241 1.00927 0.0
N970 N 0.09901 0.5525 0.88603 0.0
O971 O 0.14072 0.57198 0.26616 0.0
H972 H 0.06066 0.52747 0.13833 0.0
H973 H 0.13376 0.5605 1.00875 0.0
O974 O 0.11605 0.52721 0.42836 0.0
C975 C 0.13504 0.59471 0.20758 0.0
O976 O 0.11164 0.60485 0.23879 0.0
N977 N 0.06812 0.55435 0.37001 0.0
C978 C 0.01225 0.55555 0.38686 0.0
C979 C 0.02711 0.53615 0.46409 0.0
C980 C 0.05507 0.53616 0.45623 0.0
C981 C 0.05408 0.57388 0.3002 0.0
C982 C 0.02655 0.57515 0.30909 0.0
H983 H 0.0658 0.52155 0.51869 0.0
H984 H 0.06446 0.58864 0.23505 0.0
H985 H 0.13115 0.54734 0.64154 0.0
H986 H 0.07035 0.59714 0.79023 0.0
H987 H 0.05849 0.53971 0.85424 0.0
H988 H 0.01741 0.52083 0.52865 0.0
H989 H 0.01689 0.59165 0.25422 0.0
C990 C 0.14773 0.34356 0.32148 0.0
C991 C 0.15153 0.34016 0.47203 0.0
N992 N 0.17348 0.35371 0.51106 0.0
N993 N 0.16806 0.35803 0.26509 0.0
C994 C 0.18214 0.36548 0.38665 0.0
H995 H 0.13334 0.33279 0.25557 0.0
Co996 Co 0.18259 0.35227 0.07352 0.0
C997 C 0.24041 0.37207 0.20578 0.0
O998 O 0.25214 0.3921 0.13892 0.0
N999 N 0.19702 0.34597 0.87796 0.0
C1000 C 0.19777 0.32242 0.66691 0.0
C1001 C 0.20279 0.32191 0.81724 0.0
C1002 C 0.19158 0.36129 0.75709 0.0
N1003 N 0.19014 0.34715 0.63126 0.0
O1004 O 0.17119 0.38809 1.006 0.0
H1005 H 0.20706 0.30391 0.87786 0.0
H1006 H 0.18597 0.38194 0.75978 0.0
O1007 O 0.21777 0.36428 0.15421 0.0
C1008 C 0.14846 0.38235 0.94783 0.0
O1009 O 0.1381 0.35919 0.98203 0.0
N1010 N 0.18859 0.31647 0.12573 0.0
C1011 C 0.18833 0.26087 0.14681 0.0
C1012 C 0.21059 0.27575 0.19293 0.0
C1013 C 0.21047 0.30368 0.18002 0.0
C1014 C 0.16661 0.30226 0.08571 0.0
C1015 C 0.16588 0.27476 0.09731 0.0
H1016 H 0.2283 0.31461 0.20384 0.0
H1017 H 0.14968 0.31231 0.03818 0.0
H1018 H 0.20018 0.37691 0.3848 0.0
H1019 H 0.14096 0.32637 0.54324 0.0
H1020 H 0.197 0.30543 0.59296 0.0
H1021 H 0.22832 0.2658 0.23128 0.0
H1022 H 0.14791 0.26452 0.06365 0.0
C1023 C 0.40377 0.40079 0.07483 0.0
C1024 C 0.40749 0.40566 0.22445 0.0
N1025 N 0.39103 0.42546 0.26433 0.0
N1026 N 0.38599 0.41842 1.01974 0.0
C1027 C 0.37724 0.43178 0.14175 0.0
H1028 H 0.41662 0.38852 1.00698 0.0
Co1029 Co 0.38983 0.43384 0.82816 0.0
C1030 C 0.38855 0.49074 0.94762 0.0
O1031 O 0.40827 0.49726 0.85978 0.0
N1032 N 0.39403 0.44978 0.63311 0.0
C1033 C 0.41786 0.45429 0.42445 0.0
C1034 C 0.4168 0.45987 0.57453 0.0
C1035 C 0.38029 0.44176 0.51072 0.0
N1036 N 0.39483 0.44267 0.3862 0.0
O1037 O 0.35403 0.42183 0.76715 0.0
H1038 H 0.43338 0.46746 0.63825 0.0
H1039 H 0.36078 0.43308 0.51088 0.0
O1040 O 0.37738 0.46824 0.92382 0.0
C1041 C 0.36045 0.39902 0.71163 0.0
O1042 O 0.38391 0.38944 0.74672 0.0
N1043 N 0.42654 0.43923 0.87069 0.0
C1044 C 0.4825 0.43726 0.88723 0.0
C1045 C 0.46754 0.45387 0.98241 0.0
C1046 C 0.43962 0.45355 0.97659 0.0
C1047 C 0.44049 0.4214 0.78734 0.0
C1048 C 0.46804 0.41988 0.79457 0.0
H1049 H 0.4288 0.46413 0.05909 0.0
H1050 H 0.43005 0.40835 0.71168 0.0
H1051 H 0.36361 0.44836 0.13982 0.0
H1052 H 0.42311 0.39755 0.29382 0.0
H1053 H 0.43503 0.45629 0.35259 0.0
H1054 H 0.47688 0.46698 0.06206 0.0
H1055 H 0.47734 0.40485 0.72666 0.0
loop_
_geom_bond_atom_site_label_1
_geom_bond_atom_site_label_2
_geom_bond_distance
_geom_bond_site_symmetry_2
_ccdc_geom_bond_type
C0 C1 1.351 . S
C0 N3 1.368 . S
C0 H5 0.931 . S
C1 C0 1.351 . S
C1 N2 1.373 . S
C1 H29 0.930 . S
N2 C1 1.373 . S
N2 C4 1.340 . S
N3 C0 1.368 . S
N3 C4 1.321 . S
N3 Co6 2.135 . S
C4 N2 1.340 . S
C4 N3 1.321 . S
C4 H28 0.930 . S
H5 C0 0.931 . S
Co6 N3 2.135 . S
Co6 N9 2.121 1_554 S
Co6 O14 2.055 . S
Co6 O17 2.039 . S
Co6 N20 2.140 . S
C7 O8 1.227 . S
C7 O17 1.265 . S
O8 C7 1.227 . S
N9 Co6 2.121 1_556 S
N9 C11 1.375 . S
N9 C12 1.313 . S
C10 C11 1.338 . S
C10 N13 1.377 . S
C10 H30 0.930 . S
C11 N9 1.375 . S
C11 C10 1.338 . S
C11 H15 0.931 . S
C12 N9 1.313 . S
C12 N13 1.344 . S
C12 H16 0.930 . S
N13 C10 1.377 . S
N13 C12 1.344 . S
O14 Co6 2.055 . S
O14 C18 1.253 1_554 S
H15 C11 0.931 . S
H16 C12 0.930 . S
O17 Co6 2.039 . S
O17 C7 1.265 . S
C18 O14 1.253 1_556 S
C18 O19 1.227 . S
O19 C18 1.227 . S
N20 Co6 2.140 . S
N20 C23 1.346 . S
N20 C24 1.345 1_554 S
C21 C22 1.387 . S
C21 C25 1.391 1_554 S
C22 C21 1.387 . S
C22 C23 1.369 . S
C22 H31 0.929 . S
C23 N20 1.346 . S
C23 C22 1.369 . S
C23 H26 0.928 . S
C24 N20 1.345 1_556 S
C24 C25 1.371 . S
C24 H27 0.931 . S
C25 C21 1.391 1_556 S
C25 C24 1.371 . S
C25 H32 0.930 . S
H26 C23 0.928 . S
H27 C24 0.931 . S
H28 C4 0.930 . S
H29 C1 0.930 . S
H30 C10 0.930 . S
H31 C22 0.929 . S
H32 C25 0.930 . S
C33 C34 1.351 . S
C33 N36 1.368 . S
C33 H38 0.931 . S
C34 C33 1.351 . S
C34 N35 1.373 . S
C34 H62 0.930 . S
N35 C34 1.373 . S
N35 C37 1.340 . S
N36 C33 1.368 . S
N36 C37 1.321 . S
N36 Co39 2.135 . S
C37 N35 1.340 . S
C37 N36 1.321 . S
C37 H61 0.930 . S
H38 C33 0.931 . S
Co39 N36 2.135 . S
Co39 N42 2.121 . S
Co39 O47 2.055 . S
Co39 O50 2.039 . S
Co39 N53 2.140 . S
C40 O41 1.227 . S
C40 O50 1.265 . S
O41 C40 1.227 . S
N42 Co39 2.121 . S
N42 C44 1.375 . S
N42 C45 1.313 1_554 S
C43 C44 1.338 1_556 S
C43 N46 1.377 . S
C43 H63 0.930 . S
C44 N42 1.375 . S
C44 C43 1.338 1_554 S
C44 H48 0.931 . S
C45 N42 1.313 1_556 S
C45 N46 1.344 . S
C45 H49 0.930 . S
N46 C43 1.377 . S
N46 C45 1.344 . S
O47 Co39 2.055 . S
O47 C51 1.253 . S
H48 C44 0.931 . S
H49 C45 0.930 . S
O50 Co39 2.039 . S
O50 C40 1.265 . S
C51 O47 1.253 . S
C51 O52 1.227 . S
O52 C51 1.227 . S
N53 Co39 2.140 . S
N53 C56 1.346 . S
N53 C57 1.345 . S
C54 C55 1.387 . S
C54 C58 1.391 . S
C55 C54 1.387 . S
C55 C56 1.369 . S
C55 H64 0.929 . S
C56 N53 1.346 . S
C56 C55 1.369 . S
C56 H59 0.928 . S
C57 N53 1.345 . S
C57 C58 1.371 . S
C57 H60 0.931 . S
C58 C54 1.391 . S
C58 C57 1.371 . S
C58 H65 0.930 . S
H59 C56 0.928 . S
H60 C57 0.931 . S
H61 C37 0.930 . S
H62 C34 0.930 . S
H63 C43 0.930 . S
H64 C55 0.929 . S
H65 C58 0.930 . S
C66 C67 1.351 . S
C66 N69 1.368 . S
C66 H71 0.931 . S
C67 C66 1.351 . S
C67 N68 1.373 1_556 S
C67 H95 0.930 1_556 S
N68 C67 1.373 1_554 S
N68 C70 1.340 1_554 S
N69 C66 1.368 . S
N69 C70 1.321 . S
N69 Co72 2.135 . S
C70 N68 1.340 1_556 S
C70 N69 1.321 . S
C70 H94 0.930 . S
H71 C66 0.931 . S
Co72 N69 2.135 . S
Co72 N75 2.121 . S
Co72 O80 2.055 . S
Co72 O83 2.039 . S
Co72 N86 2.140 . S
C73 O74 1.227 . S
C73 O83 1.265 . S
O74 C73 1.227 . S
N75 Co72 2.121 . S
N75 C77 1.375 . S
N75 C78 1.313 . S
C76 C77 1.338 . S
C76 N79 1.377 . S
C76 H96 0.930 . S
C77 N75 1.375 . S
C77 C76 1.338 . S
C77 H81 0.931 . S
C78 N75 1.313 . S
C78 N79 1.344 . S
C78 H82 0.930 . S
N79 C76 1.377 . S
N79 C78 1.344 . S
O80 Co72 2.055 . S
O80 C84 1.253 . S
H81 C77 0.931 . S
H82 C78 0.930 . S
O83 Co72 2.039 . S
O83 C73 1.265 . S
C84 O80 1.253 . S
C84 O85 1.227 . S
O85 C84 1.227 . S
N86 Co72 2.140 . S
N86 C89 1.346 . S
N86 C90 1.345 . S
C87 C88 1.387 . S
C87 C91 1.391 . S
C88 C87 1.387 . S
C88 C89 1.369 . S
C88 H97 0.929 . S
C89 N86 1.346 . S
C89 C88 1.369 . S
C89 H92 0.928 . S
C90 N86 1.345 . S
C90 C91 1.371 . S
C90 H93 0.931 . S
C91 C87 1.391 . S
C91 C90 1.371 . S
C91 H98 0.930 . S
H92 C89 0.928 . S
H93 C90 0.931 . S
H94 C70 0.930 . S
H95 C67 0.930 1_554 S
H96 C76 0.930 . S
H97 C88 0.929 . S
H98 C91 0.930 . S
C99 C100 1.351 . S
C99 N102 1.368 . S
C99 H104 0.931 . S
C100 C99 1.351 . S
C100 N101 1.373 . S
C100 H128 0.930 . S
N101 C100 1.373 . S
N101 C103 1.340 . S
N102 C99 1.368 . S
N102 C103 1.321 . S
N102 Co105 2.135 1_554 S
C103 N101 1.340 . S
C103 N102 1.321 . S
C103 H127 0.930 . S
H104 C99 0.931 . S
Co105 N102 2.135 1_556 S
Co105 N108 2.121 . S
Co105 O113 2.055 . S
Co105 O116 2.039 . S
Co105 N119 2.140 . S
C106 O107 1.227 . S
C106 O116 1.265 . S
O107 C106 1.227 . S
N108 Co105 2.121 . S
N108 C110 1.375 . S
N108 C111 1.313 . S
C109 C110 1.338 . S
C109 N112 1.377 . S
C109 H129 0.930 . S
C110 N108 1.375 . S
C110 C109 1.338 . S
C110 H114 0.931 . S
C111 N108 1.313 . S
C111 N112 1.344 . S
C111 H115 0.930 . S
N112 C109 1.377 . S
N112 C111 1.344 . S
O113 Co105 2.055 . S
O113 C117 1.253 . S
H114 C110 0.931 . S
H115 C111 0.930 . S
O116 Co105 2.039 . S
O116 C106 1.265 . S
C117 O113 1.253 . S
C117 O118 1.227 . S
O118 C117 1.227 . S
N119 Co105 2.140 . S
N119 C122 1.346 . S
N119 C123 1.345 . S
C120 C121 1.387 . S
C120 C124 1.391 . S
C121 C120 1.387 . S
C121 C122 1.369 . S
C121 H130 0.929 1_556 S
C122 N119 1.346 . S
C122 C121 1.369 . S
C122 H125 0.928 1_556 S
C123 N119 1.345 . S
C123 C124 1.371 . S
C123 H126 0.931 . S
C124 C120 1.391 . S
C124 C123 1.371 . S
C124 H131 0.930 . S
H125 C122 0.928 1_554 S
H126 C123 0.931 . S
H127 C103 0.930 . S
H128 C100 0.930 . S
H129 C109 0.930 . S
H130 C121 0.929 1_554 S
H131 C124 0.930 . S
C132 C133 1.351 . S
C132 N135 1.368 . S
C132 H137 0.931 . S
C133 C132 1.351 . S
C133 N134 1.373 . S
C133 H161 0.930 . S
N134 C133 1.373 . S
N134 C136 1.340 . S
N135 C132 1.368 . S
N135 C136 1.321 . S
N135 Co138 2.135 . S
C136 N134 1.340 . S
C136 N135 1.321 . S
C136 H160 0.930 . S
H137 C132 0.931 . S
Co138 N135 2.135 . S
Co138 N141 2.121 1_556 S
Co138 O146 2.055 . S
Co138 O149 2.039 . S
Co138 N152 2.140 . S
C139 O140 1.227 . S
C139 O149 1.265 . S
O140 C139 1.227 . S
N141 Co138 2.121 1_554 S
N141 C143 1.375 . S
N141 C144 1.313 . S
C142 C143 1.338 . S
C142 N145 1.377 . S
C142 H162 0.930 . S
C143 N141 1.375 . S
C143 C142 1.338 . S
C143 H147 0.931 . S
C144 N141 1.313 . S
C144 N145 1.344 . S
C144 H148 0.930 . S
N145 C142 1.377 . S
N145 C144 1.344 . S
O146 Co138 2.055 . S
O146 C150 1.253 1_556 S
H147 C143 0.931 . S
H148 C144 0.930 . S
O149 Co138 2.039 . S
O149 C139 1.265 . S
C150 O146 1.253 1_554 S
C150 O151 1.227 . S
O151 C150 1.227 . S
N152 Co138 2.140 . S
N152 C155 1.346 . S
N152 C156 1.345 1_556 S
C153 C154 1.387 . S
C153 C157 1.391 1_556 S
C154 C153 1.387 . S
C154 C155 1.369 . S
C154 H163 0.929 . S
C155 N152 1.346 . S
C155 C154 1.369 . S
C155 H158 0.928 . S
C156 N152 1.345 1_554 S
C156 C157 1.371 . S
C156 H159 0.931 . S
C157 C153 1.391 1_554 S
C157 C156 1.371 . S
C157 H164 0.930 . S
H158 C155 0.928 . S
H159 C156 0.931 . S
H160 C136 0.930 . S
H161 C133 0.930 . S
H162 C142 0.930 . S
H163 C154 0.929 . S
H164 C157 0.930 . S
C165 C166 1.351 . S
C165 N168 1.368 . S
C165 H170 0.931 . S
C166 C165 1.351 . S
C166 N167 1.373 . S
C166 H194 0.930 . S
N167 C166 1.373 . S
N167 C169 1.340 . S
N168 C165 1.368 . S
N168 C169 1.321 . S
N168 Co171 2.135 1_556 S
C169 N167 1.340 . S
C169 N168 1.321 . S
C169 H193 0.930 . S
H170 C165 0.931 . S
Co171 N168 2.135 1_554 S
Co171 N174 2.121 . S
Co171 O179 2.055 . S
Co171 O182 2.039 . S
Co171 N185 2.140 . S
C172 O173 1.227 . S
C172 O182 1.265 . S
O173 C172 1.227 . S
N174 Co171 2.121 . S
N174 C176 1.375 . S
N174 C177 1.313 . S
C175 C176 1.338 . S
C175 N178 1.377 . S
C175 H195 0.930 . S
C176 N174 1.375 . S
C176 C175 1.338 . S
C176 H180 0.931 . S
C177 N174 1.313 . S
C177 N178 1.344 . S
C177 H181 0.930 . S
N178 C175 1.377 . S
N178 C177 1.344 . S
O179 Co171 2.055 . S
O179 C183 1.253 . S
H180 C176 0.931 . S
H181 C177 0.930 . S
O182 Co171 2.039 . S
O182 C172 1.265 . S
C183 O179 1.253 . S
C183 O184 1.227 . S
O184 C183 1.227 . S
N185 Co171 2.140 . S
N185 C188 1.346 . S
N185 C189 1.345 . S
C186 C187 1.387 . S
C186 C190 1.391 . S
C187 C186 1.387 . S
C187 C188 1.369 . S
C187 H196 0.929 1_554 S
C188 N185 1.346 . S
C188 C187 1.369 . S
C188 H191 0.928 1_554 S
C189 N185 1.345 . S
C189 C190 1.371 . S
C189 H192 0.931 . S
C190 C186 1.391 . S
C190 C189 1.371 . S
C190 H197 0.930 . S
H191 C188 0.928 1_556 S
H192 C189 0.931 . S
H193 C169 0.930 . S
H194 C166 0.930 . S
H195 C175 0.930 . S
H196 C187 0.929 1_556 S
H197 C190 0.930 . S
C198 C199 1.351 . S
C198 N201 1.368 . S
C198 H203 0.931 . S
C199 C198 1.351 . S
C199 N200 1.373 1_554 S
C199 H227 0.930 1_554 S
N200 C199 1.373 1_556 S
N200 C202 1.340 1_556 S
N201 C198 1.368 . S
N201 C202 1.321 . S
N201 Co204 2.135 . S
C202 N200 1.340 1_554 S
C202 N201 1.321 . S
C202 H226 0.930 . S
H203 C198 0.931 . S
Co204 N201 2.135 . S
Co204 N207 2.121 . S
Co204 O212 2.055 . S
Co204 O215 2.039 . S
Co204 N218 2.140 . S
C205 O206 1.227 . S
C205 O215 1.265 . S
O206 C205 1.227 . S
N207 Co204 2.121 . S
N207 C209 1.375 . S
N207 C210 1.313 . S
C208 C209 1.338 . S
C208 N211 1.377 . S
C208 H228 0.930 . S
C209 N207 1.375 . S
C209 C208 1.338 . S
C209 H213 0.931 . S
C210 N207 1.313 . S
C210 N211 1.344 . S
C210 H214 0.930 . S
N211 C208 1.377 . S
N211 C210 1.344 . S
O212 Co204 2.055 . S
O212 C216 1.253 . S
H213 C209 0.931 . S
H214 C210 0.930 . S
O215 Co204 2.039 . S
O215 C205 1.265 . S
C216 O212 1.253 . S
C216 O217 1.227 . S
O217 C216 1.227 . S
N218 Co204 2.140 . S
N218 C221 1.346 . S
N218 C222 1.345 . S
C219 C220 1.387 . S
C219 C223 1.391 . S
C220 C219 1.387 . S
C220 C221 1.369 . S
C220 H229 0.929 . S
C221 N218 1.346 . S
C221 C220 1.369 . S
C221 H224 0.928 . S
C222 N218 1.345 . S
C222 C223 1.371 . S
C222 H225 0.931 . S
C223 C219 1.391 . S
C223 C222 1.371 . S
C223 H230 0.930 . S
H224 C221 0.928 . S
H225 C222 0.931 . S
H226 C202 0.930 . S
H227 C199 0.930 1_556 S
H228 C208 0.930 . S
H229 C220 0.929 . S
H230 C223 0.930 . S
C231 C232 1.351 . S
C231 N234 1.368 . S
C231 H236 0.931 . S
C232 C231 1.351 . S
C232 N233 1.373 . S
C232 H260 0.930 . S
N233 C232 1.373 . S
N233 C235 1.340 . S
N234 C231 1.368 . S
N234 C235 1.321 . S
N234 Co237 2.135 . S
C235 N233 1.340 . S
C235 N234 1.321 . S
C235 H259 0.930 . S
H236 C231 0.931 . S
Co237 N234 2.135 . S
Co237 N240 2.121 . S
Co237 O245 2.055 . S
Co237 O248 2.039 . S
Co237 N251 2.140 . S
C238 O239 1.227 . S
C238 O248 1.265 . S
O239 C238 1.227 . S
N240 Co237 2.121 . S
N240 C242 1.375 . S
N240 C243 1.313 1_556 S
C241 C242 1.338 1_554 S
C241 N244 1.377 . S
C241 H261 0.930 . S
C242 N240 1.375 . S
C242 C241 1.338 1_556 S
C242 H246 0.931 . S
C243 N240 1.313 1_554 S
C243 N244 1.344 . S
C243 H247 0.930 . S
N244 C241 1.377 . S
N244 C243 1.344 . S
O245 Co237 2.055 . S
O245 C249 1.253 . S
H246 C242 0.931 . S
H247 C243 0.930 . S
O248 Co237 2.039 . S
O248 C238 1.265 . S
C249 O245 1.253 . S
C249 O250 1.227 . S
O250 C249 1.227 . S
N251 Co237 2.140 . S
N251 C254 1.346 . S
N251 C255 1.345 . S
C252 C253 1.387 . S
C252 C256 1.391 . S
C253 C252 1.387 . S
C253 C254 1.369 . S
C253 H262 0.929 . S
C254 N251 1.346 . S
C254 C253 1.369 . S
C254 H257 0.928 . S
C255 N251 1.345 . S
C255 C256 1.371 . S
C255 H258 0.931 . S
C256 C252 1.391 . S
C256 C255 1.371 . S
C256 H263 0.930 . S
H257 C254 0.928 . S
H258 C255 0.931 . S
H259 C235 0.930 . S
H260 C232 0.930 . S
H261 C241 0.930 . S
H262 C253 0.929 . S
H263 C256 0.930 . S
C264 C265 1.351 . S
C264 N267 1.368 . S
C264 H269 0.931 . S
C265 C264 1.351 . S
C265 N266 1.373 . S
C265 H293 0.930 . S
N266 C265 1.373 . S
N266 C268 1.340 . S
N267 C264 1.368 . S
N267 C268 1.321 . S
N267 Co270 2.135 . S
C268 N266 1.340 . S
C268 N267 1.321 . S
C268 H292 0.930 . S
H269 C264 0.931 . S
Co270 N267 2.135 . S
Co270 N273 2.121 1_556 S
Co270 O278 2.055 . S
Co270 O281 2.039 . S
Co270 N284 2.140 . S
C271 O272 1.227 . S
C271 O281 1.265 . S
O272 C271 1.227 . S
N273 Co270 2.121 1_554 S
N273 C275 1.375 . S
N273 C276 1.313 . S
C274 C275 1.338 . S
C274 N277 1.377 . S
C274 H294 0.930 . S
C275 N273 1.375 . S
C275 C274 1.338 . S
C275 H279 0.931 . S
C276 N273 1.313 . S
C276 N277 1.344 . S
C276 H280 0.930 . S
N277 C274 1.377 . S
N277 C276 1.344 . S
O278 Co270 2.055 . S
O278 C282 1.253 1_556 S
H279 C275 0.931 . S
H280 C276 0.930 . S
O281 Co270 2.039 . S
O281 C271 1.265 . S
C282 O278 1.253 1_554 S
C282 O283 1.227 . S
O283 C282 1.227 . S
N284 Co270 2.140 . S
N284 C287 1.346 . S
N284 C288 1.345 1_556 S
C285 C286 1.387 . S
C285 C289 1.391 1_556 S
C286 C285 1.387 . S
C286 C287 1.369 . S
C286 H295 0.929 . S
C287 N284 1.346 . S
C287 C286 1.369 . S
C287 H290 0.928 . S
C288 N284 1.345 1_554 S
C288 C289 1.371 . S
C288 H291 0.931 . S
C289 C285 1.391 1_554 S
C289 C288 1.371 . S
C289 H296 0.930 . S
H290 C287 0.928 . S
H291 C288 0.931 . S
H292 C268 0.930 . S
H293 C265 0.930 . S
H294 C274 0.930 . S
H295 C286 0.929 . S
H296 C289 0.930 . S
C297 C298 1.351 . S
C297 N300 1.368 . S
C297 H302 0.931 . S
C298 C297 1.351 . S
C298 N299 1.373 . S
C298 H326 0.930 . S
N299 C298 1.373 . S
N299 C301 1.340 . S
N300 C297 1.368 . S
N300 C301 1.321 . S
N300 Co303 2.135 . S
C301 N299 1.340 . S
C301 N300 1.321 . S
C301 H325 0.930 . S
H302 C297 0.931 . S
Co303 N300 2.135 . S
Co303 N306 2.121 . S
Co303 O311 2.055 . S
Co303 O314 2.039 . S
Co303 N317 2.140 . S
C304 O305 1.227 . S
C304 O314 1.265 . S
O305 C304 1.227 . S
N306 Co303 2.121 . S
N306 C308 1.375 . S
N306 C309 1.313 1_556 S
C307 C308 1.338 1_554 S
C307 N310 1.377 . S
C307 H327 0.930 . S
C308 N306 1.375 . S
C308 C307 1.338 1_556 S
C308 H312 0.931 . S
C309 N306 1.313 1_554 S
C309 N310 1.344 . S
C309 H313 0.930 . S
N310 C307 1.377 . S
N310 C309 1.344 . S
O311 Co303 2.055 . S
O311 C315 1.253 . S
H312 C308 0.931 . S
H313 C309 0.930 . S
O314 Co303 2.039 . S
O314 C304 1.265 . S
C315 O311 1.253 . S
C315 O316 1.227 . S
O316 C315 1.227 . S
N317 Co303 2.140 . S
N317 C320 1.346 . S
N317 C321 1.345 . S
C318 C319 1.387 . S
C318 C322 1.391 . S
C319 C318 1.387 . S
C319 C320 1.369 . S
C319 H328 0.929 . S
C320 N317 1.346 . S
C320 C319 1.369 . S
C320 H323 0.928 . S
C321 N317 1.345 . S
C321 C322 1.371 . S
C321 H324 0.931 . S
C322 C318 1.391 . S
C322 C321 1.371 . S
C322 H329 0.930 . S
H323 C320 0.928 . S
H324 C321 0.931 . S
H325 C301 0.930 . S
H326 C298 0.930 . S
H327 C307 0.930 . S
H328 C319 0.929 . S
H329 C322 0.930 . S
C330 C331 1.351 . S
C330 N333 1.368 . S
C330 H335 0.931 . S
C331 C330 1.351 . S
C331 N332 1.373 1_554 S
C331 H359 0.930 1_554 S
N332 C331 1.373 1_556 S
N332 C334 1.340 1_556 S
N333 C330 1.368 . S
N333 C334 1.321 . S
N333 Co336 2.135 . S
C334 N332 1.340 1_554 S
C334 N333 1.321 . S
C334 H358 0.930 . S
H335 C330 0.931 . S
Co336 N333 2.135 . S
Co336 N339 2.121 . S
Co336 O344 2.055 . S
Co336 O347 2.039 . S
Co336 N350 2.140 . S
C337 O338 1.227 . S
C337 O347 1.265 . S
O338 C337 1.227 . S
N339 Co336 2.121 . S
N339 C341 1.375 . S
N339 C342 1.313 . S
C340 C341 1.338 . S
C340 N343 1.377 . S
C340 H360 0.930 . S
C341 N339 1.375 . S
C341 C340 1.338 . S
C341 H345 0.931 . S
C342 N339 1.313 . S
C342 N343 1.344 . S
C342 H346 0.930 . S
N343 C340 1.377 . S
N343 C342 1.344 . S
O344 Co336 2.055 . S
O344 C348 1.253 . S
H345 C341 0.931 . S
H346 C342 0.930 . S
O347 Co336 2.039 . S
O347 C337 1.265 . S
C348 O344 1.253 . S
C348 O349 1.227 . S
O349 C348 1.227 . S
N350 Co336 2.140 . S
N350 C353 1.346 . S
N350 C354 1.345 . S
C351 C352 1.387 . S
C351 C355 1.391 . S
C352 C351 1.387 . S
C352 C353 1.369 . S
C352 H361 0.929 . S
C353 N350 1.346 . S
C353 C352 1.369 . S
C353 H356 0.928 . S
C354 N350 1.345 . S
C354 C355 1.371 . S
C354 H357 0.931 . S
C355 C351 1.391 . S
C355 C354 1.371 . S
C355 H362 0.930 . S
H356 C353 0.928 . S
H357 C354 0.931 . S
H358 C334 0.930 . S
H359 C331 0.930 1_556 S
H360 C340 0.930 . S
H361 C352 0.929 . S
H362 C355 0.930 . S
C363 C364 1.351 . S
C363 N366 1.368 . S
C363 H368 0.931 . S
C364 C363 1.351 . S
C364 N365 1.373 . S
C364 H392 0.930 . S
N365 C364 1.373 . S
N365 C367 1.340 . S
N366 C363 1.368 . S
N366 C367 1.321 . S
N366 Co369 2.135 1_556 S
C367 N365 1.340 . S
C367 N366 1.321 . S
C367 H391 0.930 . S
H368 C363 0.931 . S
Co369 N366 2.135 1_554 S
Co369 N372 2.121 . S
Co369 O377 2.055 . S
Co369 O380 2.039 . S
Co369 N383 2.140 . S
C370 O371 1.227 . S
C370 O380 1.265 . S
O371 C370 1.227 . S
N372 Co369 2.121 . S
N372 C374 1.375 . S
N372 C375 1.313 . S
C373 C374 1.338 . S
C373 N376 1.377 . S
C373 H393 0.930 . S
C374 N372 1.375 . S
C374 C373 1.338 . S
C374 H378 0.931 . S
C375 N372 1.313 . S
C375 N376 1.344 . S
C375 H379 0.930 . S
N376 C373 1.377 . S
N376 C375 1.344 . S
O377 Co369 2.055 . S
O377 C381 1.253 . S
H378 C374 0.931 . S
H379 C375 0.930 . S
O380 Co369 2.039 . S
O380 C370 1.265 . S
C381 O377 1.253 . S
C381 O382 1.227 . S
O382 C381 1.227 . S
N383 Co369 2.140 . S
N383 C386 1.346 . S
N383 C387 1.345 . S
C384 C385 1.387 . S
C384 C388 1.391 . S
C385 C384 1.387 . S
C385 C386 1.369 . S
C385 H394 0.929 1_554 S
C386 N383 1.346 . S
C386 C385 1.369 . S
C386 H389 0.928 1_554 S
C387 N383 1.345 . S
C387 C388 1.371 . S
C387 H390 0.931 . S
C388 C384 1.391 . S
C388 C387 1.371 . S
C388 H395 0.930 . S
H389 C386 0.928 1_556 S
H390 C387 0.931 . S
H391 C367 0.930 . S
H392 C364 0.930 . S
H393 C373 0.930 . S
H394 C385 0.929 1_556 S
H395 C388 0.930 . S
C396 C397 1.351 . S
C396 N399 1.368 . S
C396 H401 0.931 . S
C397 C396 1.351 . S
C397 N398 1.373 . S
C397 H425 0.930 . S
N398 C397 1.373 . S
N398 C400 1.340 . S
N399 C396 1.368 . S
N399 C400 1.321 . S
N399 Co402 2.135 . S
C400 N398 1.340 . S
C400 N399 1.321 . S
C400 H424 0.930 . S
H401 C396 0.931 . S
Co402 N399 2.135 . S
Co402 N405 2.121 1_554 S
Co402 O410 2.055 . S
Co402 O413 2.039 . S
Co402 N416 2.140 . S
C403 O404 1.227 . S
C403 O413 1.265 . S
O404 C403 1.227 . S
N405 Co402 2.121 1_556 S
N405 C407 1.375 . S
N405 C408 1.313 . S
C406 C407 1.338 . S
C406 N409 1.377 . S
C406 H426 0.930 . S
C407 N405 1.375 . S
C407 C406 1.338 . S
C407 H411 0.931 . S
C408 N405 1.313 . S
C408 N409 1.344 . S
C408 H412 0.930 . S
N409 C406 1.377 . S
N409 C408 1.344 . S
O410 Co402 2.055 . S
O410 C414 1.253 1_554 S
H411 C407 0.931 . S
H412 C408 0.930 . S
O413 Co402 2.039 . S
O413 C403 1.265 . S
C414 O410 1.253 1_556 S
C414 O415 1.227 . S
O415 C414 1.227 . S
N416 Co402 2.140 . S
N416 C419 1.346 . S
N416 C420 1.345 1_554 S
C417 C418 1.387 . S
C417 C421 1.391 1_554 S
C418 C417 1.387 . S
C418 C419 1.369 . S
C418 H427 0.929 . S
C419 N416 1.346 . S
C419 C418 1.369 . S
C419 H422 0.928 . S
C420 N416 1.345 1_556 S
C420 C421 1.371 . S
C420 H423 0.931 . S
C421 C417 1.391 1_556 S
C421 C420 1.371 . S
C421 H428 0.930 . S
H422 C419 0.928 . S
H423 C420 0.931 . S
H424 C400 0.930 . S
H425 C397 0.930 . S
H426 C406 0.930 . S
H427 C418 0.929 . S
H428 C421 0.930 . S
C429 C430 1.351 . S
C429 N432 1.368 . S
C429 H434 0.931 . S
C430 C429 1.351 . S
C430 N431 1.373 . S
C430 H458 0.930 . S
N431 C430 1.373 . S
N431 C433 1.340 . S
N432 C429 1.368 . S
N432 C433 1.321 . S
N432 Co435 2.135 1_554 S
C433 N431 1.340 . S
C433 N432 1.321 . S
C433 H457 0.930 . S
H434 C429 0.931 . S
Co435 N432 2.135 1_556 S
Co435 N438 2.121 . S
Co435 O443 2.055 . S
Co435 O446 2.039 . S
Co435 N449 2.140 . S
C436 O437 1.227 . S
C436 O446 1.265 . S
O437 C436 1.227 . S
N438 Co435 2.121 . S
N438 C440 1.375 . S
N438 C441 1.313 . S
C439 C440 1.338 . S
C439 N442 1.377 . S
C439 H459 0.930 . S
C440 N438 1.375 . S
C440 C439 1.338 . S
C440 H444 0.931 . S
C441 N438 1.313 . S
C441 N442 1.344 . S
C441 H445 0.930 . S
N442 C439 1.377 . S
N442 C441 1.344 . S
O443 Co435 2.055 . S
O443 C447 1.253 . S
H444 C440 0.931 . S
H445 C441 0.930 . S
O446 Co435 2.039 . S
O446 C436 1.265 . S
C447 O443 1.253 . S
C447 O448 1.227 . S
O448 C447 1.227 . S
N449 Co435 2.140 . S
N449 C452 1.346 . S
N449 C453 1.345 . S
C450 C451 1.387 . S
C450 C454 1.391 . S
C451 C450 1.387 . S
C451 C452 1.369 . S
C451 H460 0.929 1_556 S
C452 N449 1.346 . S
C452 C451 1.369 . S
C452 H455 0.928 1_556 S
C453 N449 1.345 . S
C453 C454 1.371 . S
C453 H456 0.931 . S
C454 C450 1.391 . S
C454 C453 1.371 . S
C454 H461 0.930 . S
H455 C452 0.928 1_554 S
H456 C453 0.931 . S
H457 C433 0.930 . S
H458 C430 0.930 . S
H459 C439 0.930 . S
H460 C451 0.929 1_554 S
H461 C454 0.930 . S
C462 C463 1.351 . S
C462 N465 1.368 . S
C462 H467 0.931 . S
C463 C462 1.351 . S
C463 N464 1.373 1_556 S
C463 H491 0.930 1_556 S
N464 C463 1.373 1_554 S
N464 C466 1.340 1_554 S
N465 C462 1.368 . S
N465 C466 1.321 . S
N465 Co468 2.135 . S
C466 N464 1.340 1_556 S
C466 N465 1.321 . S
C466 H490 0.930 . S
H467 C462 0.931 . S
Co468 N465 2.135 . S
Co468 N471 2.121 . S
Co468 O476 2.055 . S
Co468 O479 2.039 . S
Co468 N482 2.140 . S
C469 O470 1.227 . S
C469 O479 1.265 . S
O470 C469 1.227 . S
N471 Co468 2.121 . S
N471 C473 1.375 . S
N471 C474 1.313 . S
C472 C473 1.338 . S
C472 N475 1.377 . S
C472 H492 0.930 . S
C473 N471 1.375 . S
C473 C472 1.338 . S
C473 H477 0.931 . S
C474 N471 1.313 . S
C474 N475 1.344 . S
C474 H478 0.930 . S
N475 C472 1.377 . S
N475 C474 1.344 . S
O476 Co468 2.055 . S
O476 C480 1.253 . S
H477 C473 0.931 . S
H478 C474 0.930 . S
O479 Co468 2.039 . S
O479 C469 1.265 . S
C480 O476 1.253 . S
C480 O481 1.227 . S
O481 C480 1.227 . S
N482 Co468 2.140 . S
N482 C485 1.346 . S
N482 C486 1.345 . S
C483 C484 1.387 . S
C483 C487 1.391 . S
C484 C483 1.387 . S
C484 C485 1.369 . S
C484 H493 0.929 . S
C485 N482 1.346 . S
C485 C484 1.369 . S
C485 H488 0.928 . S
C486 N482 1.345 . S
C486 C487 1.371 . S
C486 H489 0.931 . S
C487 C483 1.391 . S
C487 C486 1.371 . S
C487 H494 0.930 . S
H488 C485 0.928 . S
H489 C486 0.931 . S
H490 C466 0.930 . S
H491 C463 0.930 1_554 S
H492 C472 0.930 . S
H493 C484 0.929 . S
H494 C487 0.930 . S
C495 C496 1.351 . S
C495 N498 1.368 . S
C495 H500 0.931 . S
C496 C495 1.351 . S
C496 N497 1.373 . S
C496 H524 0.930 . S
N497 C496 1.373 . S
N497 C499 1.340 . S
N498 C495 1.368 . S
N498 C499 1.321 . S
N498 Co501 2.135 . S
C499 N497 1.340 . S
C499 N498 1.321 . S
C499 H523 0.930 . S
H500 C495 0.931 . S
Co501 N498 2.135 . S
Co501 N504 2.121 . S
Co501 O509 2.055 . S
Co501 O512 2.039 . S
Co501 N515 2.140 . S
C502 O503 1.227 . S
C502 O512 1.265 . S
O503 C502 1.227 . S
N504 Co501 2.121 . S
N504 C506 1.375 . S
N504 C507 1.313 1_554 S
C505 C506 1.338 1_556 S
C505 N508 1.377 . S
C505 H525 0.930 . S
C506 N504 1.375 . S
C506 C505 1.338 1_554 S
C506 H510 0.931 . S
C507 N504 1.313 1_556 S
C507 N508 1.344 . S
C507 H511 0.930 . S
N508 C505 1.377 . S
N508 C507 1.344 . S
O509 Co501 2.055 . S
O509 C513 1.253 . S
H510 C506 0.931 . S
H511 C507 0.930 . S
O512 Co501 2.039 . S
O512 C502 1.265 . S
C513 O509 1.253 . S
C513 O514 1.227 . S
O514 C513 1.227 . S
N515 Co501 2.140 . S
N515 C518 1.346 . S
N515 C519 1.345 . S
C516 C517 1.387 . S
C516 C520 1.391 . S
C517 C516 1.387 . S
C517 C518 1.369 . S
C517 H526 0.929 . S
C518 N515 1.346 . S
C518 C517 1.369 . S
C518 H521 0.928 . S
C519 N515 1.345 . S
C519 C520 1.371 . S
C519 H522 0.931 . S
C520 C516 1.391 . S
C520 C519 1.371 . S
C520 H527 0.930 . S
H521 C518 0.928 . S
H522 C519 0.931 . S
H523 C499 0.930 . S
H524 C496 0.930 . S
H525 C505 0.930 . S
H526 C517 0.929 . S
H527 C520 0.930 . S
C528 C529 1.351 . S
C528 N531 1.368 . S
C528 H533 0.931 . S
C529 C528 1.351 . S
C529 N530 1.373 1_556 S
C529 H557 0.930 1_556 S
N530 C529 1.373 1_554 S
N530 C532 1.340 1_554 S
N531 C528 1.368 . S
N531 C532 1.321 . S
N531 Co534 2.135 . S
C532 N530 1.340 1_556 S
C532 N531 1.321 . S
C532 H556 0.930 . S
H533 C528 0.931 . S
Co534 N531 2.135 . S
Co534 N537 2.121 . S
Co534 O542 2.055 . S
Co534 O545 2.039 . S
Co534 N548 2.140 . S
C535 O536 1.227 . S
C535 O545 1.265 . S
O536 C535 1.227 . S
N537 Co534 2.121 . S
N537 C539 1.375 . S
N537 C540 1.313 . S
C538 C539 1.338 . S
C538 N541 1.377 . S
C538 H558 0.930 . S
C539 N537 1.375 . S
C539 C538 1.338 . S
C539 H543 0.931 . S
C540 N537 1.313 . S
C540 N541 1.344 . S
C540 H544 0.930 . S
N541 C538 1.377 . S
N541 C540 1.344 . S
O542 Co534 2.055 . S
O542 C546 1.253 . S
H543 C539 0.931 . S
H544 C540 0.930 . S
O545 Co534 2.039 . S
O545 C535 1.265 . S
C546 O542 1.253 . S
C546 O547 1.227 . S
O547 C546 1.227 . S
N548 Co534 2.140 . S
N548 C551 1.346 . S
N548 C552 1.345 . S
C549 C550 1.387 . S
C549 C553 1.391 . S
C550 C549 1.387 . S
C550 C551 1.369 . S
C550 H559 0.929 . S
C551 N548 1.346 . S
C551 C550 1.369 . S
C551 H554 0.928 . S
C552 N548 1.345 . S
C552 C553 1.371 . S
C552 H555 0.931 . S
C553 C549 1.391 . S
C553 C552 1.371 . S
C553 H560 0.930 . S
H554 C551 0.928 . S
H555 C552 0.931 . S
H556 C532 0.930 . S
H557 C529 0.930 1_554 S
H558 C538 0.930 . S
H559 C550 0.929 . S
H560 C553 0.930 . S
C561 C562 1.351 . S
C561 N564 1.368 . S
C561 H566 0.931 . S
C562 C561 1.351 . S
C562 N563 1.373 . S
C562 H590 0.930 . S
N563 C562 1.373 . S
N563 C565 1.340 . S
N564 C561 1.368 . S
N564 C565 1.321 . S
N564 Co567 2.135 1_554 S
C565 N563 1.340 . S
C565 N564 1.321 . S
C565 H589 0.930 . S
H566 C561 0.931 . S
Co567 N564 2.135 1_556 S
Co567 N570 2.121 . S
Co567 O575 2.055 . S
Co567 O578 2.039 . S
Co567 N581 2.140 . S
C568 O569 1.227 . S
C568 O578 1.265 . S
O569 C568 1.227 . S
N570 Co567 2.121 . S
N570 C572 1.375 . S
N570 C573 1.313 . S
C571 C572 1.338 . S
C571 N574 1.377 . S
C571 H591 0.930 . S
C572 N570 1.375 . S
C572 C571 1.338 . S
C572 H576 0.931 . S
C573 N570 1.313 . S
C573 N574 1.344 . S
C573 H577 0.930 . S
N574 C571 1.377 . S
N574 C573 1.344 . S
O575 Co567 2.055 . S
O575 C579 1.253 . S
H576 C572 0.931 . S
H577 C573 0.930 . S
O578 Co567 2.039 . S
O578 C568 1.265 . S
C579 O575 1.253 . S
C579 O580 1.227 . S
O580 C579 1.227 . S
N581 Co567 2.140 . S
N581 C584 1.346 . S
N581 C585 1.345 . S
C582 C583 1.387 . S
C582 C586 1.391 . S
C583 C582 1.387 . S
C583 C584 1.369 . S
C583 H592 0.929 1_556 S
C584 N581 1.346 . S
C584 C583 1.369 . S
C584 H587 0.928 1_556 S
C585 N581 1.345 . S
C585 C586 1.371 . S
C585 H588 0.931 . S
C586 C582 1.391 . S
C586 C585 1.371 . S
C586 H593 0.930 . S
H587 C584 0.928 1_554 S
H588 C585 0.931 . S
H589 C565 0.930 . S
H590 C562 0.930 . S
H591 C571 0.930 . S
H592 C583 0.929 1_554 S
H593 C586 0.930 . S
C594 C595 1.351 . S
C594 N597 1.368 . S
C594 H599 0.931 . S
C595 C594 1.351 . S
C595 N596 1.373 . S
C595 H623 0.930 . S
N596 C595 1.373 . S
N596 C598 1.340 . S
N597 C594 1.368 . S
N597 C598 1.321 . S
N597 Co600 2.135 . S
C598 N596 1.340 . S
C598 N597 1.321 . S
C598 H622 0.930 . S
H599 C594 0.931 . S
Co600 N597 2.135 . S
Co600 N603 2.121 1_554 S
Co600 O608 2.055 . S
Co600 O611 2.039 . S
Co600 N614 2.140 . S
C601 O602 1.227 . S
C601 O611 1.265 . S
O602 C601 1.227 . S
N603 Co600 2.121 1_556 S
N603 C605 1.375 . S
N603 C606 1.313 . S
C604 C605 1.338 . S
C604 N607 1.377 . S
C604 H624 0.930 . S
C605 N603 1.375 . S
C605 C604 1.338 . S
C605 H609 0.931 . S
C606 N603 1.313 . S
C606 N607 1.344 . S
C606 H610 0.930 . S
N607 C604 1.377 . S
N607 C606 1.344 . S
O608 Co600 2.055 . S
O608 C612 1.253 1_554 S
H609 C605 0.931 . S
H610 C606 0.930 . S
O611 Co600 2.039 . S
O611 C601 1.265 . S
C612 O608 1.253 1_556 S
C612 O613 1.227 . S
O613 C612 1.227 . S
N614 Co600 2.140 . S
N614 C617 1.346 . S
N614 C618 1.345 1_554 S
C615 C616 1.387 . S
C615 C619 1.391 1_554 S
C616 C615 1.387 . S
C616 C617 1.369 . S
C616 H625 0.929 . S
C617 N614 1.346 . S
C617 C616 1.369 . S
C617 H620 0.928 . S
C618 N614 1.345 1_556 S
C618 C619 1.371 . S
C618 H621 0.931 . S
C619 C615 1.391 1_556 S
C619 C618 1.371 . S
C619 H626 0.930 . S
H620 C617 0.928 . S
H621 C618 0.931 . S
H622 C598 0.930 . S
H623 C595 0.930 . S
H624 C604 0.930 . S
H625 C616 0.929 . S
H626 C619 0.930 . S
C627 C628 1.351 . S
C627 N630 1.368 . S
C627 H632 0.931 . S
C628 C627 1.351 . S
C628 N629 1.373 . S
C628 H656 0.930 . S
N629 C628 1.373 . S
N629 C631 1.340 . S
N630 C627 1.368 . S
N630 C631 1.321 . S
N630 Co633 2.135 . S
C631 N629 1.340 . S
C631 N630 1.321 . S
C631 H655 0.930 . S
H632 C627 0.931 . S
Co633 N630 2.135 . S
Co633 N636 2.121 . S
Co633 O641 2.055 . S
Co633 O644 2.039 . S
Co633 N647 2.140 . S
C634 O635 1.227 . S
C634 O644 1.265 . S
O635 C634 1.227 . S
N636 Co633 2.121 . S
N636 C638 1.375 . S
N636 C639 1.313 1_554 S
C637 C638 1.338 1_556 S
C637 N640 1.377 . S
C637 H657 0.930 . S
C638 N636 1.375 . S
C638 C637 1.338 1_554 S
C638 H642 0.931 . S
C639 N636 1.313 1_556 S
C639 N640 1.344 . S
C639 H643 0.930 . S
N640 C637 1.377 . S
N640 C639 1.344 . S
O641 Co633 2.055 . S
O641 C645 1.253 . S
H642 C638 0.931 . S
H643 C639 0.930 . S
O644 Co633 2.039 . S
O644 C634 1.265 . S
C645 O641 1.253 . S
C645 O646 1.227 . S
O646 C645 1.227 . S
N647 Co633 2.140 . S
N647 C650 1.346 . S
N647 C651 1.345 . S
C648 C649 1.387 . S
C648 C652 1.391 . S
C649 C648 1.387 . S
C649 C650 1.369 . S
C649 H658 0.929 . S
C650 N647 1.346 . S
C650 C649 1.369 . S
C650 H653 0.928 . S
C651 N647 1.345 . S
C651 C652 1.371 . S
C651 H654 0.931 . S
C652 C648 1.391 . S
C652 C651 1.371 . S
C652 H659 0.930 . S
H653 C650 0.928 . S
H654 C651 0.931 . S
H655 C631 0.930 . S
H656 C628 0.930 . S
H657 C637 0.930 . S
H658 C649 0.929 . S
H659 C652 0.930 . S
C660 C661 1.351 . S
C660 N663 1.368 . S
C660 H665 0.931 . S
C661 C660 1.351 . S
C661 N662 1.373 1_554 S
C661 H689 0.930 1_554 S
N662 C661 1.373 1_556 S
N662 C664 1.340 1_556 S
N663 C660 1.368 . S
N663 C664 1.321 . S
N663 Co666 2.135 . S
C664 N662 1.340 1_554 S
C664 N663 1.321 . S
C664 H688 0.930 . S
H665 C660 0.931 . S
Co666 N663 2.135 . S
Co666 N669 2.121 . S
Co666 O674 2.055 . S
Co666 O677 2.039 . S
Co666 N680 2.140 . S
C667 O668 1.227 . S
C667 O677 1.265 . S
O668 C667 1.227 . S
N669 Co666 2.121 . S
N669 C671 1.375 . S
N669 C672 1.313 . S
C670 C671 1.338 . S
C670 N673 1.377 . S
C670 H690 0.930 . S
C671 N669 1.375 . S
C671 C670 1.338 . S
C671 H675 0.931 . S
C672 N669 1.313 . S
C672 N673 1.344 . S
C672 H676 0.930 . S
N673 C670 1.377 . S
N673 C672 1.344 . S
O674 Co666 2.055 . S
O674 C678 1.253 . S
H675 C671 0.931 . S
H676 C672 0.930 . S
O677 Co666 2.039 . S
O677 C667 1.265 . S
C678 O674 1.253 . S
C678 O679 1.227 . S
O679 C678 1.227 . S
N680 Co666 2.140 . S
N680 C683 1.346 . S
N680 C684 1.345 . S
C681 C682 1.387 . S
C681 C685 1.391 . S
C682 C681 1.387 . S
C682 C683 1.369 . S
C682 H691 0.929 . S
C683 N680 1.346 . S
C683 C682 1.369 . S
C683 H686 0.928 . S
C684 N680 1.345 . S
C684 C685 1.371 . S
C684 H687 0.931 . S
C685 C681 1.391 . S
C685 C684 1.371 . S
C685 H692 0.930 . S
H686 C683 0.928 . S
H687 C684 0.931 . S
H688 C664 0.930 . S
H689 C661 0.930 1_556 S
H690 C670 0.930 . S
H691 C682 0.929 . S
H692 C685 0.930 . S
C693 C694 1.351 . S
C693 N696 1.368 . S
C693 H698 0.931 . S
C694 C693 1.351 . S
C694 N695 1.373 . S
C694 H722 0.930 . S
N695 C694 1.373 . S
N695 C697 1.340 . S
N696 C693 1.368 . S
N696 C697 1.321 . S
N696 Co699 2.135 . S
C697 N695 1.340 . S
C697 N696 1.321 . S
C697 H721 0.930 . S
H698 C693 0.931 . S
Co699 N696 2.135 . S
Co699 N702 2.121 . S
Co699 O707 2.055 . S
Co699 O710 2.039 . S
Co699 N713 2.140 . S
C700 O701 1.227 . S
C700 O710 1.265 . S
O701 C700 1.227 . S
N702 Co699 2.121 . S
N702 C704 1.375 . S
N702 C705 1.313 1_556 S
C703 C704 1.338 1_554 S
C703 N706 1.377 . S
C703 H723 0.930 . S
C704 N702 1.375 . S
C704 C703 1.338 1_556 S
C704 H708 0.931 . S
C705 N702 1.313 1_554 S
C705 N706 1.344 . S
C705 H709 0.930 . S
N706 C703 1.377 . S
N706 C705 1.344 . S
O707 Co699 2.055 . S
O707 C711 1.253 . S
H708 C704 0.931 . S
H709 C705 0.930 . S
O710 Co699 2.039 . S
O710 C700 1.265 . S
C711 O707 1.253 . S
C711 O712 1.227 . S
O712 C711 1.227 . S
N713 Co699 2.140 . S
N713 C716 1.346 . S
N713 C717 1.345 . S
C714 C715 1.387 . S
C714 C718 1.391 . S
C715 C714 1.387 . S
C715 C716 1.369 . S
C715 H724 0.929 . S
C716 N713 1.346 . S
C716 C715 1.369 . S
C716 H719 0.928 . S
C717 N713 1.345 . S
C717 C718 1.371 . S
C717 H720 0.931 . S
C718 C714 1.391 . S
C718 C717 1.371 . S
C718 H725 0.930 . S
H719 C716 0.928 . S
H720 C717 0.931 . S
H721 C697 0.930 . S
H722 C694 0.930 . S
H723 C703 0.930 . S
H724 C715 0.929 . S
H725 C718 0.930 . S
C726 C727 1.351 . S
C726 N729 1.368 . S
C726 H731 0.931 . S
C727 C726 1.351 . S
C727 N728 1.373 . S
C727 H755 0.930 . S
N728 C727 1.373 . S
N728 C730 1.340 . S
N729 C726 1.368 . S
N729 C730 1.321 . S
N729 Co732 2.135 . S
C730 N728 1.340 . S
C730 N729 1.321 . S
C730 H754 0.930 . S
H731 C726 0.931 . S
Co732 N729 2.135 . S
Co732 N735 2.121 1_556 S
Co732 O740 2.055 . S
Co732 O743 2.039 . S
Co732 N746 2.140 . S
C733 O734 1.227 . S
C733 O743 1.265 . S
O734 C733 1.227 . S
N735 Co732 2.121 1_554 S
N735 C737 1.375 . S
N735 C738 1.313 . S
C736 C737 1.338 . S
C736 N739 1.377 . S
C736 H756 0.930 . S
C737 N735 1.375 . S
C737 C736 1.338 . S
C737 H741 0.931 . S
C738 N735 1.313 . S
C738 N739 1.344 . S
C738 H742 0.930 . S
N739 C736 1.377 . S
N739 C738 1.344 . S
O740 Co732 2.055 . S
O740 C744 1.253 1_556 S
H741 C737 0.931 . S
H742 C738 0.930 . S
O743 Co732 2.039 . S
O743 C733 1.265 . S
C744 O740 1.253 1_554 S
C744 O745 1.227 . S
O745 C744 1.227 . S
N746 Co732 2.140 . S
N746 C749 1.346 . S
N746 C750 1.345 1_556 S
C747 C748 1.387 . S
C747 C751 1.391 1_556 S
C748 C747 1.387 . S
C748 C749 1.369 . S
C748 H757 0.929 . S
C749 N746 1.346 . S
C749 C748 1.369 . S
C749 H752 0.928 . S
C750 N746 1.345 1_554 S
C750 C751 1.371 . S
C750 H753 0.931 . S
C751 C747 1.391 1_554 S
C751 C750 1.371 . S
C751 H758 0.930 . S
H752 C749 0.928 . S
H753 C750 0.931 . S
H754 C730 0.930 . S
H755 C727 0.930 . S
H756 C736 0.930 . S
H757 C748 0.929 . S
H758 C751 0.930 . S
C759 C760 1.351 . S
C759 N762 1.368 . S
C759 H764 0.931 . S
C760 C759 1.351 . S
C760 N761 1.373 . S
C760 H788 0.930 . S
N761 C760 1.373 . S
N761 C763 1.340 . S
N762 C759 1.368 . S
N762 C763 1.321 . S
N762 Co765 2.135 1_556 S
C763 N761 1.340 . S
C763 N762 1.321 . S
C763 H787 0.930 . S
H764 C759 0.931 . S
Co765 N762 2.135 1_554 S
Co765 N768 2.121 . S
Co765 O773 2.055 . S
Co765 O776 2.039 . S
Co765 N779 2.140 . S
C766 O767 1.227 . S
C766 O776 1.265 . S
O767 C766 1.227 . S
N768 Co765 2.121 . S
N768 C770 1.375 . S
N768 C771 1.313 . S
C769 C770 1.338 . S
C769 N772 1.377 . S
C769 H789 0.930 . S
C770 N768 1.375 . S
C770 C769 1.338 . S
C770 H774 0.931 . S
C771 N768 1.313 . S
C771 N772 1.344 . S
C771 H775 0.930 . S
N772 C769 1.377 . S
N772 C771 1.344 . S
O773 Co765 2.055 . S
O773 C777 1.253 . S
H774 C770 0.931 . S
H775 C771 0.930 . S
O776 Co765 2.039 . S
O776 C766 1.265 . S
C777 O773 1.253 . S
C777 O778 1.227 . S
O778 C777 1.227 . S
N779 Co765 2.140 . S
N779 C782 1.346 . S
N779 C783 1.345 . S
C780 C781 1.387 . S
C780 C784 1.391 . S
C781 C780 1.387 . S
C781 C782 1.369 . S
C781 H790 0.929 1_554 S
C782 N779 1.346 . S
C782 C781 1.369 . S
C782 H785 0.928 1_554 S
C783 N779 1.345 . S
C783 C784 1.371 . S
C783 H786 0.931 . S
C784 C780 1.391 . S
C784 C783 1.371 . S
C784 H791 0.930 . S
H785 C782 0.928 1_556 S
H786 C783 0.931 . S
H787 C763 0.930 . S
H788 C760 0.930 . S
H789 C769 0.930 . S
H790 C781 0.929 1_556 S
H791 C784 0.930 . S
C792 C793 1.351 . S
C792 N795 1.368 . S
C792 H797 0.931 . S
C793 C792 1.351 . S
C793 N794 1.373 1_554 S
C793 H821 0.930 1_554 S
N794 C793 1.373 1_556 S
N794 C796 1.340 1_556 S
N795 C792 1.368 . S
N795 C796 1.321 . S
N795 Co798 2.135 . S
C796 N794 1.340 1_554 S
C796 N795 1.321 . S
C796 H820 0.930 . S
H797 C792 0.931 . S
Co798 N795 2.135 . S
Co798 N801 2.121 . S
Co798 O806 2.055 . S
Co798 O809 2.039 . S
Co798 N812 2.140 . S
C799 O800 1.227 . S
C799 O809 1.265 . S
O800 C799 1.227 . S
N801 Co798 2.121 . S
N801 C803 1.375 . S
N801 C804 1.313 . S
C802 C803 1.338 . S
C802 N805 1.377 . S
C802 H822 0.930 . S
C803 N801 1.375 . S
C803 C802 1.338 . S
C803 H807 0.931 . S
C804 N801 1.313 . S
C804 N805 1.344 . S
C804 H808 0.930 . S
N805 C802 1.377 . S
N805 C804 1.344 . S
O806 Co798 2.055 . S
O806 C810 1.253 . S
H807 C803 0.931 . S
H808 C804 0.930 . S
O809 Co798 2.039 . S
O809 C799 1.265 . S
C810 O806 1.253 . S
C810 O811 1.227 . S
O811 C810 1.227 . S
N812 Co798 2.140 . S
N812 C815 1.346 . S
N812 C816 1.345 . S
C813 C814 1.387 . S
C813 C817 1.391 . S
C814 C813 1.387 . S
C814 C815 1.369 . S
C814 H823 0.929 . S
C815 N812 1.346 . S
C815 C814 1.369 . S
C815 H818 0.928 . S
C816 N812 1.345 . S
C816 C817 1.371 . S
C816 H819 0.931 . S
C817 C813 1.391 . S
C817 C816 1.371 . S
C817 H824 0.930 . S
H818 C815 0.928 . S
H819 C816 0.931 . S
H820 C796 0.930 . S
H821 C793 0.930 1_556 S
H822 C802 0.930 . S
H823 C814 0.929 . S
H824 C817 0.930 . S
C825 C826 1.351 . S
C825 N828 1.368 . S
C825 H830 0.931 . S
C826 C825 1.351 . S
C826 N827 1.373 . S
C826 H854 0.930 . S
N827 C826 1.373 . S
N827 C829 1.340 . S
N828 C825 1.368 . S
N828 C829 1.321 . S
N828 Co831 2.135 1_556 S
C829 N827 1.340 . S
C829 N828 1.321 . S
C829 H853 0.930 . S
H830 C825 0.931 . S
Co831 N828 2.135 1_554 S
Co831 N834 2.121 . S
Co831 O839 2.055 . S
Co831 O842 2.039 . S
Co831 N845 2.140 . S
C832 O833 1.227 . S
C832 O842 1.265 . S
O833 C832 1.227 . S
N834 Co831 2.121 . S
N834 C836 1.375 . S
N834 C837 1.313 . S
C835 C836 1.338 . S
C835 N838 1.377 . S
C835 H855 0.930 . S
C836 N834 1.375 . S
C836 C835 1.338 . S
C836 H840 0.931 . S
C837 N834 1.313 . S
C837 N838 1.344 . S
C837 H841 0.930 . S
N838 C835 1.377 . S
N838 C837 1.344 . S
O839 Co831 2.055 . S
O839 C843 1.253 . S
H840 C836 0.931 . S
H841 C837 0.930 . S
O842 Co831 2.039 . S
O842 C832 1.265 . S
C843 O839 1.253 . S
C843 O844 1.227 . S
O844 C843 1.227 . S
N845 Co831 2.140 . S
N845 C848 1.346 . S
N845 C849 1.345 . S
C846 C847 1.387 . S
C846 C850 1.391 . S
C847 C846 1.387 . S
C847 C848 1.369 . S
C847 H856 0.929 1_554 S
C848 N845 1.346 . S
C848 C847 1.369 . S
C848 H851 0.928 1_554 S
C849 N845 1.345 . S
C849 C850 1.371 . S
C849 H852 0.931 . S
C850 C846 1.391 . S
C850 C849 1.371 . S
C850 H857 0.930 . S
H851 C848 0.928 1_556 S
H852 C849 0.931 . S
H853 C829 0.930 . S
H854 C826 0.930 . S
H855 C835 0.930 . S
H856 C847 0.929 1_556 S
H857 C850 0.930 . S
C858 C859 1.351 . S
C858 N861 1.368 . S
C858 H863 0.931 . S
C859 C858 1.351 . S
C859 N860 1.373 . S
C859 H887 0.930 . S
N860 C859 1.373 . S
N860 C862 1.340 . S
N861 C858 1.368 . S
N861 C862 1.321 . S
N861 Co864 2.135 . S
C862 N860 1.340 . S
C862 N861 1.321 . S
C862 H886 0.930 . S
H863 C858 0.931 . S
Co864 N861 2.135 . S
Co864 N867 2.121 1_556 S
Co864 O872 2.055 . S
Co864 O875 2.039 . S
Co864 N878 2.140 . S
C865 O866 1.227 . S
C865 O875 1.265 . S
O866 C865 1.227 . S
N867 Co864 2.121 1_554 S
N867 C869 1.375 . S
N867 C870 1.313 . S
C868 C869 1.338 . S
C868 N871 1.377 . S
C868 H888 0.930 . S
C869 N867 1.375 . S
C869 C868 1.338 . S
C869 H873 0.931 . S
C870 N867 1.313 . S
C870 N871 1.344 . S
C870 H874 0.930 . S
N871 C868 1.377 . S
N871 C870 1.344 . S
O872 Co864 2.055 . S
O872 C876 1.253 1_556 S
H873 C869 0.931 . S
H874 C870 0.930 . S
O875 Co864 2.039 . S
O875 C865 1.265 . S
C876 O872 1.253 1_554 S
C876 O877 1.227 . S
O877 C876 1.227 . S
N878 Co864 2.140 . S
N878 C881 1.346 . S
N878 C882 1.345 1_556 S
C879 C880 1.387 . S
C879 C883 1.391 1_556 S
C880 C879 1.387 . S
C880 C881 1.369 . S
C880 H889 0.929 . S
C881 N878 1.346 . S
C881 C880 1.369 . S
C881 H884 0.928 . S
C882 N878 1.345 1_554 S
C882 C883 1.371 . S
C882 H885 0.931 . S
C883 C879 1.391 1_554 S
C883 C882 1.371 . S
C883 H890 0.930 . S
H884 C881 0.928 . S
H885 C882 0.931 . S
H886 C862 0.930 . S
H887 C859 0.930 . S
H888 C868 0.930 . S
H889 C880 0.929 . S
H890 C883 0.930 . S
C891 C892 1.351 . S
C891 N894 1.368 . S
C891 H896 0.931 . S
C892 C891 1.351 . S
C892 N893 1.373 . S
C892 H920 0.930 . S
N893 C892 1.373 . S
N893 C895 1.340 . S
N894 C891 1.368 . S
N894 C895 1.321 . S
N894 Co897 2.135 . S
C895 N893 1.340 . S
C895 N894 1.321 . S
C895 H919 0.930 . S
H896 C891 0.931 . S
Co897 N894 2.135 . S
Co897 N900 2.121 . S
Co897 O905 2.055 . S
Co897 O908 2.039 . S
Co897 N911 2.140 . S
C898 O899 1.227 . S
C898 O908 1.265 . S
O899 C898 1.227 . S
N900 Co897 2.121 . S
N900 C902 1.375 . S
N900 C903 1.313 1_556 S
C901 C902 1.338 1_554 S
C901 N904 1.377 . S
C901 H921 0.930 . S
C902 N900 1.375 . S
C902 C901 1.338 1_556 S
C902 H906 0.931 . S
C903 N900 1.313 1_554 S
C903 N904 1.344 . S
C903 H907 0.930 . S
N904 C901 1.377 . S
N904 C903 1.344 . S
O905 Co897 2.055 . S
O905 C909 1.253 . S
H906 C902 0.931 . S
H907 C903 0.930 . S
O908 Co897 2.039 . S
O908 C898 1.265 . S
C909 O905 1.253 . S
C909 O910 1.227 . S
O910 C909 1.227 . S
N911 Co897 2.140 . S
N911 C914 1.346 . S
N911 C915 1.345 . S
C912 C913 1.387 . S
C912 C916 1.391 . S
C913 C912 1.387 . S
C913 C914 1.369 . S
C913 H922 0.929 . S
C914 N911 1.346 . S
C914 C913 1.369 . S
C914 H917 0.928 . S
C915 N911 1.345 . S
C915 C916 1.371 . S
C915 H918 0.931 . S
C916 C912 1.391 . S
C916 C915 1.371 . S
C916 H923 0.930 . S
H917 C914 0.928 . S
H918 C915 0.931 . S
H919 C895 0.930 . S
H920 C892 0.930 . S
H921 C901 0.930 . S
H922 C913 0.929 . S
H923 C916 0.930 . S
C924 C925 1.351 . S
C924 N927 1.368 . S
C924 H929 0.931 . S
C925 C924 1.351 . S
C925 N926 1.373 1_556 S
C925 H953 0.930 1_556 S
N926 C925 1.373 1_554 S
N926 C928 1.340 1_554 S
N927 C924 1.368 . S
N927 C928 1.321 . S
N927 Co930 2.135 . S
C928 N926 1.340 1_556 S
C928 N927 1.321 . S
C928 H952 0.930 . S
H929 C924 0.931 . S
Co930 N927 2.135 . S
Co930 N933 2.121 . S
Co930 O938 2.055 . S
Co930 O941 2.039 . S
Co930 N944 2.140 . S
C931 O932 1.227 . S
C931 O941 1.265 . S
O932 C931 1.227 . S
N933 Co930 2.121 . S
N933 C935 1.375 . S
N933 C936 1.313 . S
C934 C935 1.338 . S
C934 N937 1.377 . S
C934 H954 0.930 . S
C935 N933 1.375 . S
C935 C934 1.338 . S
C935 H939 0.931 . S
C936 N933 1.313 . S
C936 N937 1.344 . S
C936 H940 0.930 . S
N937 C934 1.377 . S
N937 C936 1.344 . S
O938 Co930 2.055 . S
O938 C942 1.253 . S
H939 C935 0.931 . S
H940 C936 0.930 . S
O941 Co930 2.039 . S
O941 C931 1.265 . S
C942 O938 1.253 . S
C942 O943 1.227 . S
O943 C942 1.227 . S
N944 Co930 2.140 . S
N944 C947 1.346 . S
N944 C948 1.345 . S
C945 C946 1.387 . S
C945 C949 1.391 . S
C946 C945 1.387 . S
C946 C947 1.369 . S
C946 H955 0.929 . S
C947 N944 1.346 . S
C947 C946 1.369 . S
C947 H950 0.928 . S
C948 N944 1.345 . S
C948 C949 1.371 . S
C948 H951 0.931 . S
C949 C945 1.391 . S
C949 C948 1.371 . S
C949 H956 0.930 . S
H950 C947 0.928 . S
H951 C948 0.931 . S
H952 C928 0.930 . S
H953 C925 0.930 1_554 S
H954 C934 0.930 . S
H955 C946 0.929 . S
H956 C949 0.930 . S
C957 C958 1.351 . S
C957 N960 1.368 . S
C957 H962 0.931 . S
C958 C957 1.351 . S
C958 N959 1.373 . S
C958 H986 0.930 . S
N959 C958 1.373 . S
N959 C961 1.340 . S
N960 C957 1.368 . S
N960 C961 1.321 . S
N960 Co963 2.135 . S
C961 N959 1.340 . S
C961 N960 1.321 . S
C961 H985 0.930 . S
H962 C957 0.931 . S
Co963 N960 2.135 . S
Co963 N966 2.121 . S
Co963 O971 2.055 . S
Co963 O974 2.039 . S
Co963 N977 2.140 . S
C964 O965 1.227 . S
C964 O974 1.265 . S
O965 C964 1.227 . S
N966 Co963 2.121 . S
N966 C968 1.375 . S
N966 C969 1.313 1_554 S
C967 C968 1.338 1_556 S
C967 N970 1.377 . S
C967 H987 0.930 . S
C968 N966 1.375 . S
C968 C967 1.338 1_554 S
C968 H972 0.931 . S
C969 N966 1.313 1_556 S
C969 N970 1.344 . S
C969 H973 0.930 . S
N970 C967 1.377 . S
N970 C969 1.344 . S
O971 Co963 2.055 . S
O971 C975 1.253 . S
H972 C968 0.931 . S
H973 C969 0.930 . S
O974 Co963 2.039 . S
O974 C964 1.265 . S
C975 O971 1.253 . S
C975 O976 1.227 . S
O976 C975 1.227 . S
N977 Co963 2.140 . S
N977 C980 1.346 . S
N977 C981 1.345 . S
C978 C979 1.387 . S
C978 C982 1.391 . S
C979 C978 1.387 . S
C979 C980 1.369 . S
C979 H988 0.929 . S
C980 N977 1.346 . S
C980 C979 1.369 . S
C980 H983 0.928 . S
C981 N977 1.345 . S
C981 C982 1.371 . S
C981 H984 0.931 . S
C982 C978 1.391 . S
C982 C981 1.371 . S
C982 H989 0.930 . S
H983 C980 0.928 . S
H984 C981 0.931 . S
H985 C961 0.930 . S
H986 C958 0.930 . S
H987 C967 0.930 . S
H988 C979 0.929 . S
H989 C982 0.930 . S
C990 C991 1.351 . S
C990 N993 1.368 . S
C990 H995 0.931 . S
C991 C990 1.351 . S
C991 N992 1.373 . S
C991 H1019 0.930 . S
N992 C991 1.373 . S
N992 C994 1.340 . S
N993 C990 1.368 . S
N993 C994 1.321 . S
N993 Co996 2.135 . S
C994 N992 1.340 . S
C994 N993 1.321 . S
C994 H1018 0.930 . S
H995 C990 0.931 . S
Co996 N993 2.135 . S
Co996 N999 2.121 1_554 S
Co996 O1004 2.055 . S
Co996 O1007 2.039 . S
Co996 N1010 2.140 . S
C997 O998 1.227 . S
C997 O1007 1.265 . S
O998 C997 1.227 . S
N999 Co996 2.121 1_556 S
N999 C1001 1.375 . S
N999 C1002 1.313 . S
C1000 C1001 1.338 . S
C1000 N1003 1.377 . S
C1000 H1020 0.930 . S
C1001 N999 1.375 . S
C1001 C1000 1.338 . S
C1001 H1005 0.931 . S
C1002 N999 1.313 . S
C1002 N1003 1.344 . S
C1002 H1006 0.930 . S
N1003 C1000 1.377 . S
N1003 C1002 1.344 . S
O1004 Co996 2.055 . S
O1004 C1008 1.253 1_554 S
H1005 C1001 0.931 . S
H1006 C1002 0.930 . S
O1007 Co996 2.039 . S
O1007 C997 1.265 . S
C1008 O1004 1.253 1_556 S
C1008 O1009 1.227 . S
O1009 C1008 1.227 . S
N1010 Co996 2.140 . S
N1010 C1013 1.346 . S
N1010 C1014 1.345 1_554 S
C1011 C1012 1.387 . S
C1011 C1015 1.391 1_554 S
C1012 C1011 1.387 . S
C1012 C1013 1.369 . S
C1012 H1021 0.929 . S
C1013 N1010 1.346 . S
C1013 C1012 1.369 . S
C1013 H1016 0.928 . S
C1014 N1010 1.345 1_556 S
C1014 C1015 1.371 . S
C1014 H1017 0.931 . S
C1015 C1011 1.391 1_556 S
C1015 C1014 1.371 . S
C1015 H1022 0.930 . S
H1016 C1013 0.928 . S
H1017 C1014 0.931 . S
H1018 C994 0.930 . S
H1019 C991 0.930 . S
H1020 C1000 0.930 . S
H1021 C1012 0.929 . S
H1022 C1015 0.930 . S
C1023 C1024 1.351 . S
C1023 N1026 1.368 . S
C1023 H1028 0.931 . S
C1024 C1023 1.351 . S
C1024 N1025 1.373 . S
C1024 H1052 0.930 . S
N1025 C1024 1.373 . S
N1025 C1027 1.340 . S
N1026 C1023 1.368 . S
N1026 C1027 1.321 . S
N1026 Co1029 2.135 1_554 S
C1027 N1025 1.340 . S
C1027 N1026 1.321 . S
C1027 H1051 0.930 . S
H1028 C1023 0.931 . S
Co1029 N1026 2.135 1_556 S
Co1029 N1032 2.121 . S
Co1029 O1037 2.055 . S
Co1029 O1040 2.039 . S
Co1029 N1043 2.140 . S
C1030 O1031 1.227 . S
C1030 O1040 1.265 . S
O1031 C1030 1.227 . S
N1032 Co1029 2.121 . S
N1032 C1034 1.375 . S
N1032 C1035 1.313 . S
C1033 C1034 1.338 . S
C1033 N1036 1.377 . S
C1033 H1053 0.930 . S
C1034 N1032 1.375 . S
C1034 C1033 1.338 . S
C1034 H1038 0.931 . S
C1035 N1032 1.313 . S
C1035 N1036 1.344 . S
C1035 H1039 0.930 . S
N1036 C1033 1.377 . S
N1036 C1035 1.344 . S
O1037 Co1029 2.055 . S
O1037 C1041 1.253 . S
H1038 C1034 0.931 . S
H1039 C1035 0.930 . S
O1040 Co1029 2.039 . S
O1040 C1030 1.265 . S
C1041 O1037 1.253 . S
C1041 O1042 1.227 . S
O1042 C1041 1.227 . S
N1043 Co1029 2.140 . S
N1043 C1046 1.346 . S
N1043 C1047 1.345 . S
C1044 C1045 1.387 . S
C1044 C1048 1.391 . S
C1045 C1044 1.387 . S
C1045 C1046 1.369 . S
C1045 H1054 0.929 1_556 S
C1046 N1043 1.346 . S
C1046 C1045 1.369 . S
C1046 H1049 0.928 1_556 S
C1047 N1043 1.345 . S
C1047 C1048 1.371 . S
C1047 H1050 0.931 . S
C1048 C1044 1.391 . S
C1048 C1047 1.371 . S
C1048 H1055 0.930 . S
H1049 C1046 0.928 1_554 S
H1050 C1047 0.931 . S
H1051 C1027 0.930 . S
H1052 C1024 0.930 . S
H1053 C1033 0.930 . S
H1054 C1045 0.929 1_554 S
H1055 C1048 0.930 . S
C1011 C21 1.610 . S
C54 C516 1.610 1_455 S
C87 C945 1.610 . S
C120 C450 1.610 . S
C879 C153 1.610 . S
C384 C186 1.610 . S
C219 C813 1.610 . S
C318 C252 1.610 1_655 S
C747 C285 1.610 . S
C681 C351 1.610 . S
C417 C615 1.610 . S
C549 C483 1.610 . S
C1044 C582 1.610 . S
C978 C648 1.610 1_455 S
C912 C714 1.610 1_455 S
C846 C780 1.610 . S
N2 N13 2.280 . S
N35 N46 2.280 . S
N68 N79 2.280 . S
N101 N112 2.280 . S
N134 N145 2.280 . S
N167 N178 2.280 . S
N211 N200 2.280 . S
N233 N244 2.280 . S
N266 N277 2.280 . S
N310 N299 2.280 . S
N332 N343 2.280 . S
N365 N376 2.280 . S
N398 N409 2.280 . S
N442 N431 2.280 . S
N464 N475 2.280 . S
N508 N497 2.280 . S
N541 N530 2.280 . S
N563 N574 2.280 . S
N607 N596 2.280 . S
N640 N629 2.280 . S
N673 N662 2.280 . S
N706 N695 2.280 . S
N739 N728 2.280 . S
N772 N761 2.280 . S
N805 N794 2.280 . S
N838 N827 2.280 . S
N860 N871 2.280 . S
N904 N893 2.280 . S
N937 N926 2.280 . S
N970 N959 2.280 . S
N992 N1003 2.280 . S
N1025 N1036 2.280 . S
C205 C7 1.649 . S
C238 C40 1.649 1_545 S
C73 C139 1.649 . S
C172 C106 1.649 1_564 S
C271 C469 1.649 . S
C304 C502 1.649 1_545 S
C337 C403 1.649 . S
C436 C370 1.649 1_546 S
C733 C535 1.649 . S
C568 C766 1.649 1_556 S
C667 C601 1.649 . S
C700 C634 1.649 . S
C799 C997 1.649 . S
C1030 C832 1.649 1_556 S
C865 C931 1.649 . S
C964 C898 1.649 . S
C18 C249 1.912 . S
C150 C51 1.912 . S
C84 C183 1.912 . S
C117 C216 1.912 . S
C282 C513 1.912 . S
C414 C315 1.912 . S
C348 C447 1.912 . S
C381 C480 1.912 . S
C777 C546 1.912 . S
C678 C579 1.912 . S
C711 C612 1.912 . S
C645 C744 1.912 . S
C810 C1041 1.912 . S
C843 C942 1.912 . S
C975 C876 1.912 . S
C1008 C909 1.912 . S
