# Generated by pormake.
# Topology mok, (4)-cn, num edge types: 1
# Building blocks:
#     Node 0, Type 0, BuildingBlock: ICAMEG_clean_sbu_1, # of connection points: 4
#     Node 1, Type 0, BuildingBlock: ICAMEG_clean_sbu_1, # of connection points: 4
#     Node 2, Type 0, BuildingBlock: ICAMEG_clean_sbu_1, # of connection points: 4
#     Node 3, Type 0, BuildingBlock: ICAMEG_clean_sbu_1, # of connection points: 4
#     Node 4, Type 0, BuildingBlock: ICAMEG_clean_sbu_1, # of connection points: 4
#     Node 5, Type 0, BuildingBlock: ICAMEG_clean_sbu_1, # of connection points: 4
#     Node 6, Type 0, BuildingBlock: ICAMEG_clean_sbu_1, # of connection points: 4
#     Node 7, Type 0, BuildingBlock: ICAMEG_clean_sbu_1, # of connection points: 4
#     Edge 8, Type (0, 0), BuildingBlock: XUDNAN_clean_linker_2, # of connection points: 2
#     Edge 9, Type (0, 0), BuildingBlock: XUDNAN_clean_linker_2, # of connection points: 2
#     Edge 10, Type (0, 0), BuildingBlock: XUDNAN_clean_linker_2, # of connection points: 2
#     Edge 11, Type (0, 0), BuildingBlock: XUDNAN_clean_linker_2, # of connection points: 2
#     Edge 12, Type (0, 0), BuildingBlock: XUDNAN_clean_linker_2, # of connection points: 2
#     Edge 13, Type (0, 0), BuildingBlock: XUDNAN_clean_linker_2, # of connection points: 2
#     Edge 14, Type (0, 0), BuildingBlock: XUDNAN_clean_linker_2, # of connection points: 2
#     Edge 15, Type (0, 0), BuildingBlock: XUDNAN_clean_linker_2, # of connection points: 2
#     Edge 16, Type (0, 0), BuildingBlock: XUDNAN_clean_linker_2, # of connection points: 2
#     Edge 17, Type (0, 0), BuildingBlock: XUDNAN_clean_linker_2, # of connection points: 2
#     Edge 18, Type (0, 0), BuildingBlock: XUDNAN_clean_linker_2, # of connection points: 2
#     Edge 19, Type (0, 0), BuildingBlock: XUDNAN_clean_linker_2, # of connection points: 2
#     Edge 20, Type (0, 0), BuildingBlock: XUDNAN_clean_linker_2, # of connection points: 2
#     Edge 21, Type (0, 0), BuildingBlock: XUDNAN_clean_linker_2, # of connection points: 2
#     Edge 22, Type (0, 0), BuildingBlock: XUDNAN_clean_linker_2, # of connection points: 2
#     Edge 23, Type (0, 0), BuildingBlock: XUDNAN_clean_linker_2, # of connection points: 2
# Relax obj value: 0.014
# Max RMSD: 0.052
# Mean RMSD: 0.052
data_MOF--net-mok--node1-ICAMEG_clean_sbu_1--edge1-XUDNAN_clean_linker_2
_symmetry_space_group_name_H-M    P1
_symmetry_Int_Tables_number       1
_symmetry_cell_setting            triclinic
loop_
_symmetry_equiv_pos_as_xyz
'x, y, z'
_cell_length_a     57.89264
_cell_length_b     14.565908
_cell_length_c     29.909159
_cell_angle_alpha  89.978558
_cell_angle_beta   90.065679
_cell_angle_gamma 89.85182
loop_
_atom_site_label
_atom_site_type_symbol
_atom_site_fract_x
_atom_site_fract_y
_atom_site_fract_z
_atom_type_partial_charge
Co0 Co 0.63759 0.43719 0.03838 0.0
Co1 Co 0.62777 0.20307 0.02294 0.0
O2 O 0.62084 0.32206 0.0516 0.0
C3 C 0.642 0.42289 0.138 0.0
O4 O 0.64476 0.33361 0.13504 0.0
C5 C 0.57521 0.21365 0.02276 0.0
O6 O 0.57476 0.2916 0.04463 0.0
O7 O 0.62857 0.26145 0.9624 0.0
O8 O 0.63686 0.41001 0.97338 0.0
H9 H 0.67289 0.99573 0.92074 0.0
H10 H 0.59529 0.44387 0.09389 0.0
O11 O 0.63865 0.47101 0.1031 0.0
H12 H 0.57843 0.64061 0.96362 0.0
H13 H 0.65372 0.77584 0.05293 0.0
H14 H 0.67615 0.48749 0.97804 0.0
H15 H 0.61623 0.56403 0.97121 0.0
H16 H 0.63381 0.6309 0.07069 0.0
O17 O 0.59419 0.17467 0.01257 0.0
H18 H 0.66295 0.14238 0.95736 0.0
H19 H 0.60778 0.01362 0.02657 0.0
H20 H 0.69645 0.63108 0.95912 0.0
H21 H 0.55735 0.52037 0.08808 0.0
H22 H 0.68518 0.77665 0.99658 0.0
H23 H 0.54868 0.61929 0.02248 0.0
O24 O 0.66838 0.37456 0.04466 0.0
H25 H 0.59688 0.14755 0.17843 0.0
H26 H 0.65654 0.06153 0.06877 0.0
H27 H 0.65651 0.98812 0.14285 0.0
H28 H 0.62643 0.03057 0.19832 0.0
H29 H 0.59779 0.22015 0.10443 0.0
H30 H 0.61704 0.86584 0.99048 0.0
H31 H 0.64988 0.85612 0.93735 0.0
O32 O 0.66135 0.22495 0.03205 0.0
C33 C 0.63265 0.34222 0.94792 0.0
C34 C 0.65858 0.99905 0.94395 0.0
C35 C 0.6272 0.92621 0.98299 0.0
N36 N 0.63494 0.08652 0.99436 0.0
C37 C 0.65291 0.08184 0.96487 0.0
C38 C 0.62198 0.01022 1.00319 0.0
C39 C 0.64565 0.92077 0.95322 0.0
C40 C 0.59169 0.48713 0.06534 0.0
N41 N 0.60791 0.49871 0.03271 0.0
C42 C 0.57015 0.53011 0.06218 0.0
C43 C 0.56528 0.5855 0.02534 0.0
C44 C 0.58195 0.59733 0.99227 0.0
C45 C 0.60328 0.55315 0.99654 0.0
C46 C 0.65878 0.71284 0.0364 0.0
C47 C 0.67117 0.55055 0.9945 0.0
C48 C 0.64763 0.63045 0.04642 0.0
N49 N 0.65374 0.55079 0.02527 0.0
C50 C 0.68273 0.63163 0.98368 0.0
C51 C 0.67643 0.71326 0.00475 0.0
C52 C 0.67496 0.29112 0.04093 0.0
C53 C 0.60997 0.1279 0.15444 0.0
C54 C 0.64341 0.08081 0.09261 0.0
C55 C 0.64346 0.03871 0.13456 0.0
C56 C 0.62659 0.06248 0.16563 0.0
N57 N 0.62694 0.1444 0.08156 0.0
C58 C 0.61045 0.16842 0.11211 0.0
Co59 Co 0.37717 0.59392 0.05229 0.0
Co60 Co 0.38609 0.82198 0.02153 0.0
O61 O 0.39325 0.7129 0.0578 0.0
C62 C 0.36101 0.56181 0.14572 0.0
O63 O 0.34001 0.55331 0.12963 0.0
C64 C 0.43863 0.81829 0.02671 0.0
O65 O 0.43895 0.74866 0.05447 0.0
O66 O 0.38647 0.74673 0.966 0.0
O67 O 0.37702 0.60256 0.98532 0.0
H68 H 0.34209 0.99213 0.90239 0.0
H69 H 0.42007 0.6044 0.10648 0.0
O70 O 0.37768 0.58232 0.1196 0.0
H71 H 0.43676 0.37827 0.98813 0.0
H72 H 0.36383 0.26009 0.08886 0.0
H73 H 0.33794 0.52441 0.99847 0.0
H74 H 0.39866 0.45341 0.9924 0.0
H75 H 0.38305 0.41034 0.09596 0.0
O76 O 0.41972 0.85043 0.01145 0.0
H77 H 0.35159 0.85983 0.9506 0.0
H78 H 0.40532 0.01207 0.01254 0.0
H79 H 0.31822 0.37535 0.9903 0.0
H80 H 0.45831 0.52963 0.10397 0.0
H81 H 0.33123 0.2418 0.03558 0.0
H82 H 0.4669 0.41589 0.04436 0.0
O83 O 0.34615 0.65598 0.05492 0.0
H84 H 0.41338 0.92327 0.17429 0.0
H85 H 0.35652 0.9757 0.05432 0.0
H86 H 0.3553 0.0719 0.12176 0.0
H87 H 0.384 0.04664 0.18234 0.0
H88 H 0.41377 0.82798 0.10676 0.0
H89 H 0.39648 0.14569 0.9648 0.0
H90 H 0.36461 0.13638 0.90935 0.0
O91 O 0.35248 0.79955 0.03009 0.0
C92 C 0.38186 0.66355 0.95615 0.0
C93 C 0.35596 0.99716 0.92655 0.0
C94 C 0.38653 0.08324 0.96149 0.0
N95 N 0.37885 0.92831 0.98466 0.0
C96 C 0.36136 0.92257 0.95406 0.0
C97 C 0.39151 0.00716 0.98831 0.0
C98 C 0.36862 0.07802 0.93042 0.0
C99 C 0.42361 0.5546 0.08059 0.0
N100 N 0.40715 0.53384 0.04945 0.0
C101 C 0.44533 0.51267 0.07926 0.0
C102 C 0.45015 0.44897 0.04577 0.0
C103 C 0.43327 0.42797 0.01417 0.0
C104 C 0.41176 0.47133 0.01654 0.0
C105 C 0.35801 0.31775 0.06892 0.0
C106 C 0.34365 0.46666 0.01836 0.0
C107 C 0.36881 0.40304 0.07283 0.0
N108 N 0.36165 0.47608 0.04756 0.0
C109 C 0.33243 0.38243 0.01359 0.0
C110 C 0.33973 0.30753 0.03902 0.0
C111 C 0.33914 0.73624 0.04409 0.0
C112 C 0.40092 0.9356 0.14795 0.0
C113 C 0.3691 0.9638 0.08037 0.0
C114 C 0.36831 0.01878 0.11857 0.0
C115 C 0.3844 0.00462 0.15251 0.0
N116 N 0.38561 0.89711 0.07559 0.0
C117 C 0.40118 0.88205 0.1092 0.0
Co118 Co 0.63252 0.5647 0.5404 0.0
Co119 Co 0.63146 0.77046 0.59619 0.0
O120 O 0.62111 0.6903 0.5474 0.0
C121 C 0.63943 0.64039 0.44936 0.0
O122 O 0.64828 0.71434 0.46764 0.0
C123 C 0.58268 0.82479 0.62384 0.0
O124 O 0.58335 0.77075 0.65896 0.0
O125 O 0.62249 0.67572 0.64131 0.0
O126 O 0.63381 0.54689 0.60658 0.0
H127 H 0.67103 0.84403 0.74138 0.0
H128 H 0.58961 0.62412 0.4951 0.0
O129 O 0.63146 0.57652 0.47383 0.0
H130 H 0.56718 0.35658 0.58619 0.0
H131 H 0.6364 0.25068 0.46989 0.0
H132 H 0.66936 0.45577 0.58442 0.0
H133 H 0.6075 0.4105 0.5853 0.0
H134 H 0.62127 0.40786 0.47972 0.0
O135 O 0.59964 0.82772 0.59665 0.0
H136 H 0.6595 0.7452 0.67828 0.0
H137 H 0.62321 0.96762 0.61868 0.0
H138 H 0.68482 0.2987 0.5761 0.0
H139 H 0.54906 0.57212 0.49459 0.0
H140 H 0.6683 0.195 0.51852 0.0
H141 H 0.53763 0.43749 0.54046 0.0
O142 O 0.66466 0.61194 0.54005 0.0
H143 H 0.62052 0.96666 0.45931 0.0
H144 H 0.67355 0.8852 0.58229 0.0
H145 H 0.68545 1.00065 0.52667 0.0
H146 H 0.65879 0.0425 0.46477 0.0
H147 H 0.60938 0.85082 0.51536 0.0
H148 H 0.63428 0.0688 0.68118 0.0
H149 H 0.65838 0.00713 0.74309 0.0
O150 O 0.66389 0.71827 0.59451 0.0
C151 C 0.62744 0.5902 0.64151 0.0
C152 C 0.66056 0.87178 0.71455 0.0
C153 C 0.63991 0.99788 0.6808 0.0
N154 N 0.64076 0.85063 0.64476 0.0
C155 C 0.65402 0.81618 0.67869 0.0
C156 C 0.63365 0.94019 0.64554 0.0
C157 C 0.65344 0.96324 0.71552 0.0
C158 C 0.58475 0.56542 0.51509 0.0
N159 N 0.60089 0.52066 0.54039 0.0
C160 C 0.56177 0.53634 0.5147 0.0
C161 C 0.55536 0.46085 0.54046 0.0
C162 C 0.57193 0.4155 0.56618 0.0
C163 C 0.59472 0.44665 0.56577 0.0
C164 C 0.64371 0.29518 0.49516 0.0
C165 C 0.662 0.41086 0.55946 0.0
C166 C 0.63526 0.38437 0.50079 0.0
N167 N 0.64431 0.44074 0.53286 0.0
C168 C 0.67086 0.32208 0.55482 0.0
C169 C 0.6616 0.26394 0.52247 0.0
C170 C 0.67471 0.66856 0.56611 0.0
C171 C 0.63225 0.94922 0.48622 0.0
C172 C 0.6619 0.90247 0.55529 0.0
C173 C 0.66872 0.96814 0.52395 0.0
C174 C 0.65375 0.99163 0.48925 0.0
N175 N 0.64073 0.86151 0.55226 0.0
C176 C 0.62601 0.88387 0.51816 0.0
Co177 Co 0.38067 0.38527 0.55558 0.0
Co178 Co 0.38867 0.18934 0.61862 0.0
O179 O 0.39491 0.26475 0.56547 0.0
C180 C 0.36294 0.3745 0.46263 0.0
O181 O 0.34244 0.39289 0.47921 0.0
C182 C 0.43984 0.19853 0.61476 0.0
O183 O 0.43741 0.28729 0.60872 0.0
O184 O 0.39576 0.29404 0.65945 0.0
O185 O 0.38133 0.41365 0.62119 0.0
H186 H 0.35431 0.12272 0.76943 0.0
H187 H 0.42241 0.33348 0.50422 0.0
O188 O 0.38001 0.36124 0.48906 0.0
H189 H 0.44429 0.61214 0.58752 0.0
H190 H 0.37052 0.69147 0.47878 0.0
H191 H 0.34279 0.48862 0.59926 0.0
H192 H 0.40498 0.54886 0.5937 0.0
H193 H 0.38817 0.53907 0.49054 0.0
O194 O 0.42203 0.14854 0.62019 0.0
H195 H 0.36155 0.21519 0.70182 0.0
H196 H 0.40348 1.00245 0.64818 0.0
H197 H 0.32467 0.64054 0.58868 0.0
H198 H 0.46183 0.39521 0.49646 0.0
H199 H 0.33857 0.74319 0.52814 0.0
H200 H 0.47303 0.53527 0.53848 0.0
O201 O 0.34936 0.32947 0.56258 0.0
H202 H 0.40288 0.97553 0.48959 0.0
H203 H 0.34992 0.05517 0.61272 0.0
H204 H 0.34051 0.92533 0.56305 0.0
H205 H 0.36716 0.88448 0.50111 0.0
H206 H 0.41154 0.10532 0.53985 0.0
H207 H 0.3967 0.90765 0.71523 0.0
H208 H 0.37194 0.96766 0.77643 0.0
O209 O 0.35526 0.22726 0.61803 0.0
C210 C 0.38901 0.37741 0.65715 0.0
C211 C 0.36507 0.09566 0.74292 0.0
C212 C 0.3889 0.97505 0.71255 0.0
N213 N 0.38282 0.11412 0.67097 0.0
C214 C 0.36919 0.14765 0.70451 0.0
C215 C 0.39271 0.02912 0.67469 0.0
C216 C 0.37499 0.00873 0.74686 0.0
C217 C 0.42706 0.39505 0.52223 0.0
N218 N 0.41137 0.43747 0.54942 0.0
C219 C 0.44945 0.42945 0.51786 0.0
C220 C 0.45573 0.50791 0.54152 0.0
C221 C 0.43963 0.55096 0.56909 0.0
C222 C 0.41742 0.5145 0.5727 0.0
C223 C 0.36432 0.64737 0.50529 0.0
C224 C 0.34891 0.53281 0.57279 0.0
C225 C 0.37424 0.56096 0.5121 0.0
N226 N 0.36654 0.50492 0.54562 0.0
C227 C 0.33859 0.61878 0.56697 0.0
C228 C 0.34639 0.67636 0.53299 0.0
C229 C 0.342 0.2742 0.5925 0.0
C230 C 0.39116 0.9925 0.51654 0.0
C231 C 0.36153 0.03819 0.58566 0.0
C232 C 0.35614 0.96442 0.55773 0.0
C233 C 0.37111 0.94149 0.52299 0.0
N234 N 0.38134 0.08743 0.57934 0.0
C235 C 0.39601 0.06578 0.54516 0.0
Co236 Co 0.12673 0.9461 0.05004 0.0
Co237 Co 0.12734 0.71358 0.0246 0.0
O238 O 0.11643 0.81946 0.05917 0.0
C239 C 0.13906 0.90804 0.14393 0.0
O240 O 0.14745 0.82981 0.12933 0.0
C241 C 0.07685 0.71589 0.01051 0.0
O242 O 0.079 0.80426 1.00304 0.0
O243 O 0.12353 0.78186 0.96731 0.0
O244 O 0.12442 0.93249 0.98353 0.0
H245 H 0.17451 0.55343 0.90699 0.0
H246 H 0.08728 0.90826 0.11028 0.0
O247 O 0.12933 0.96321 0.11667 0.0
H248 H 0.05646 0.11532 0.99398 0.0
H249 H 0.13104 0.28257 0.08775 0.0
H250 H 0.15927 0.03749 0.98788 0.0
H251 H 0.09739 0.06784 0.99309 0.0
H252 H 0.11664 0.12403 0.09547 0.0
O253 O 0.09466 0.66786 0.01964 0.0
H254 H 0.16171 0.68558 0.95232 0.0
H255 H 0.11467 0.51524 0.02267 0.0
H256 H 0.17394 0.19528 0.97871 0.0
H257 H 0.04622 0.95417 0.11251 0.0
H258 H 0.16014 0.31862 0.02945 0.0
H259 H 0.03056 0.05826 0.05398 0.0
O260 O 0.15964 0.90598 0.04812 0.0
H261 H 0.10258 0.60083 0.17589 0.0
H262 H 0.16499 0.59892 0.06383 0.0
H263 H 0.17024 0.51452 0.13462 0.0
H264 H 0.13886 0.51494 0.1912 0.0
H265 H 0.09811 0.68477 0.10471 0.0
H266 H 0.12632 0.38219 0.97699 0.0
H267 H 0.1567 0.40041 0.91912 0.0
O268 O 0.16015 0.7565 0.02928 0.0
C269 C 0.12312 0.86626 0.95573 0.0
C270 C 0.16137 0.54444 0.93232 0.0
C271 C 0.13434 0.44831 0.97162 0.0
N272 N 0.13761 0.60803 0.99035 0.0
C273 C 0.15415 0.61891 0.95826 0.0
C274 C 0.12772 0.52406 0.99723 0.0
C275 C 0.15135 0.45864 0.9391 0.0
C276 C 0.08061 0.95409 0.0849 0.0
N277 N 0.09472 0.9856 0.05172 0.0
C278 C 0.05734 0.97962 0.08624 0.0
C279 C 0.04856 0.03794 0.05336 0.0
C280 C 0.06307 0.0699 0.01966 0.0
C281 C 0.08623 0.04267 0.0193 0.0
C282 C 0.13726 0.22925 0.06559 0.0
C283 C 0.15287 0.09118 0.00956 0.0
C284 C 0.12918 0.13937 0.06981 0.0
N285 N 0.13703 0.07169 0.042 0.0
C286 C 0.16132 0.18028 0.00434 0.0
C287 C 0.15354 0.24951 0.03277 0.0
C288 C 0.17035 0.83145 0.03917 0.0
C289 C 0.11635 0.59995 0.15146 0.0
C290 C 0.15129 0.59973 0.08835 0.0
C291 C 0.15434 0.55164 0.12833 0.0
C292 C 0.13672 0.55186 0.16005 0.0
N293 N 0.13121 0.64639 0.08009 0.0
C294 C 0.11389 0.64714 0.11106 0.0
Co295 Co 0.88655 0.0727 0.04591 0.0
Co296 Co 0.88471 0.30515 0.02448 0.0
O297 O 0.89752 0.19859 0.05679 0.0
C298 C 0.88221 0.08283 0.1454 0.0
O299 O 0.87256 0.16423 0.14196 0.0
C300 C 0.93611 0.33522 0.01441 0.0
O301 O 0.93982 0.24745 0.00737 0.0
O302 O 0.89098 0.2448 0.96616 0.0
O303 O 0.88334 0.09678 0.98031 0.0
H304 H 0.83725 0.45783 0.90482 0.0
H305 H 0.93057 0.10366 0.09381 0.0
O306 O 0.88963 0.0415 0.11079 0.0
H307 H 0.95094 0.91067 0.9642 0.0
H308 H 0.88311 0.73129 0.07212 0.0
H309 H 0.84839 0.99414 0.99252 0.0
H310 H 0.91058 0.95806 0.97719 0.0
H311 H 0.90027 0.88575 0.07824 0.0
O312 O 0.91583 0.36484 0.02254 0.0
H313 H 0.85121 0.32756 0.95013 0.0
H314 H 0.89213 0.50796 0.02854 0.0
H315 H 0.83086 0.84086 0.9851 0.0
H316 H 0.97119 0.0573 0.08236 0.0
H317 H 0.84771 0.70896 0.0264 0.0
H318 H 0.98158 0.96016 0.01713 0.0
O319 O 0.8541 0.11228 0.0564 0.0
H320 H 0.90463 0.40576 0.18037 0.0
H321 H 0.84428 0.40397 0.06389 0.0
H322 H 0.83624 0.47703 0.13657 0.0
H323 H 0.86656 0.4784 0.19541 0.0
H324 H 0.91189 0.33291 0.10721 0.0
H325 H 0.88016 0.63868 0.98164 0.0
H326 H 0.85195 0.61483 0.92016 0.0
O327 O 0.85281 0.25241 0.02574 0.0
C328 C 0.88741 0.16258 0.95336 0.0
C329 C 0.84934 0.46941 0.93185 0.0
C330 C 0.87329 0.57105 0.97515 0.0
N331 N 0.87249 0.41 0.99199 0.0
C332 C 0.85717 0.39599 0.95787 0.0
C333 C 0.88027 0.49645 1.00121 0.0
C334 C 0.8576 0.55744 0.94045 0.0
C335 C 0.93498 0.0612 0.06542 0.0
N336 N 0.91824 0.03392 0.03609 0.0
C337 C 0.95799 0.03528 0.05907 0.0
C338 C 0.96382 0.98088 0.02243 0.0
C339 C 0.94664 0.95319 0.99269 0.0
C340 C 0.92382 0.98062 1.00007 0.0
C341 C 0.87545 0.78859 0.0544 0.0
C342 C 0.85623 0.93655 0.00961 0.0
C343 C 0.8851 0.87614 0.05769 0.0
N344 N 0.87528 0.94901 0.03592 0.0
C345 C 0.84614 0.85003 0.00549 0.0
C346 C 0.85566 0.77597 0.02857 0.0
C347 C 0.84299 0.18259 0.04281 0.0
C348 C 0.89129 0.40574 0.15498 0.0
C349 C 0.85753 0.40391 0.08936 0.0
C350 C 0.8529 0.44561 0.13043 0.0
C351 C 0.86992 0.4464 0.16341 0.0
N352 N 0.87856 0.36432 0.08132 0.0
C353 C 0.89533 0.36479 0.11348 0.0
Co354 Co 0.13557 0.08548 0.55136 0.0
Co355 Co 0.12624 0.29367 0.60272 0.0
O356 O 0.1216 0.20835 0.55228 0.0
C357 C 0.13719 0.14323 0.45233 0.0
O358 O 0.12696 0.2229 0.45802 0.0
C359 C 0.07683 0.34573 0.62063 0.0
O360 O 0.07828 0.30645 0.66005 0.0
O361 O 0.11527 0.19921 0.64635 0.0
O362 O 0.13111 0.07231 0.61727 0.0
H363 H 0.15226 0.38422 0.75688 0.0
H364 H 0.09452 0.13447 0.49574 0.0
O365 O 0.14102 0.08979 0.48524 0.0
H366 H 0.07196 0.85595 0.57809 0.0
H367 H 0.15118 0.76818 0.49062 0.0
H368 H 0.16952 0.99067 0.60965 0.0
H369 H 0.11065 0.92246 0.588 0.0
H370 H 0.13284 0.92116 0.49135 0.0
O371 O 0.0938 0.34157 0.5934 0.0
H372 H 0.14737 0.27949 0.69284 0.0
H373 H 0.11385 0.49033 0.61892 0.0
H374 H 0.18807 0.83803 0.6104 0.0
H375 H 0.05581 0.0696 0.48421 0.0
H376 H 0.17887 0.72549 0.55062 0.0
H377 H 0.04421 0.9293 0.52563 0.0
O378 O 0.16659 0.14133 0.5605 0.0
H379 H 0.12283 0.48321 0.46227 0.0
H380 H 0.16731 0.41715 0.59928 0.0
H381 H 0.1815 0.53408 0.5465 0.0
H382 H 0.15911 0.56835 0.47759 0.0
H383 H 0.10935 0.36618 0.51577 0.0
H384 H 0.11838 0.59739 0.68215 0.0
H385 H 0.1377 0.54451 0.75178 0.0
O386 O 0.15893 0.24982 0.61188 0.0
C387 C 0.12148 0.11535 0.64934 0.0
C388 C 0.14382 0.40812 0.72672 0.0
C389 C 0.12478 0.52771 0.6848 0.0
N390 N 0.1303 0.37861 0.65218 0.0
C391 C 0.141 0.34911 0.69033 0.0
C392 C 0.12222 0.4667 0.64913 0.0
C393 C 0.13564 0.49801 0.72384 0.0
C394 C 0.08985 0.07295 0.5135 0.0
N395 N 0.10511 0.032 0.54218 0.0
C396 C 0.06778 0.0367 0.50701 0.0
C397 C 0.06126 0.95812 0.53031 0.0
C398 C 0.0768 0.91702 0.55977 0.0
C399 C 0.09871 0.95529 0.5654 0.0
C400 C 0.15528 0.81656 0.51689 0.0
C401 C 0.16535 0.94196 0.58364 0.0
C402 C 0.14502 0.90347 0.51742 0.0
N403 N 0.14994 0.96466 0.55077 0.0
C404 C 0.17595 0.85569 0.58417 0.0
C405 C 0.17081 0.79263 0.55058 0.0
C406 C 0.17301 0.20021 0.58949 0.0
C407 C 0.13271 0.46909 0.49225 0.0
C408 C 0.15758 0.4309 0.56915 0.0
C409 C 0.16566 0.49752 0.53947 0.0
C410 C 0.15308 0.51674 0.50082 0.0
N411 N 0.13747 0.38496 0.56071 0.0
C412 C 0.12514 0.40299 0.52271 0.0
Co413 Co 0.88203 0.93175 0.54687 0.0
Co414 Co 0.88493 0.72481 0.60278 0.0
O415 O 0.89488 0.8082 0.55469 0.0
C416 C 0.87833 0.85463 0.45496 0.0
O417 O 0.87124 0.77642 0.47187 0.0
C418 C 0.93607 0.7288 0.60851 0.0
O419 O 0.93447 0.8184 0.60502 0.0
O420 O 0.89027 0.82134 0.64901 0.0
O421 O 0.87975 0.94958 0.61286 0.0
H422 H 0.84133 0.63721 0.74149 0.0
H423 H 0.9258 0.88274 0.50187 0.0
O424 O 0.88397 0.92068 0.48043 0.0
H425 H 0.94475 0.14829 0.59719 0.0
H426 H 0.87597 0.24535 0.47643 0.0
H427 H 0.84338 0.0341 0.58863 0.0
H428 H 0.90506 0.0877 0.5944 0.0
H429 H 0.8925 0.09063 0.48697 0.0
O430 O 0.91779 0.68029 0.60984 0.0
H431 H 0.8532 0.74005 0.68016 0.0
H432 H 0.89699 0.53209 0.62764 0.0
H433 H 0.82646 0.18866 0.57949 0.0
H434 H 0.9657 0.94184 0.50309 0.0
H435 H 0.84279 0.29543 0.52307 0.0
H436 H 0.9754 0.07529 0.5512 0.0
O437 O 0.85042 0.87905 0.54494 0.0
H438 H 0.90573 0.53187 0.46932 0.0
H439 H 0.84616 0.5964 0.58282 0.0
H440 H 0.83908 0.47718 0.52602 0.0
H441 H 0.86906 0.44366 0.46894 0.0
H442 H 0.912 0.65141 0.52644 0.0
H443 H 0.88568 0.42712 0.6885 0.0
H444 H 0.85761 0.47947 0.74591 0.0
O445 O 0.85169 0.76543 0.59602 0.0
C446 C 0.88514 0.90656 0.64848 0.0
C447 C 0.85352 0.61349 0.71659 0.0
C448 C 0.87844 0.49564 0.68689 0.0
N449 N 0.87564 0.64189 0.65019 0.0
C450 C 0.86026 0.67133 0.68173 0.0
C451 C 0.88481 0.55544 0.65255 0.0
C452 C 0.86268 0.52504 0.71908 0.0
C453 C 0.92986 0.94131 0.52259 0.0
N454 N 0.91312 0.98144 0.54822 0.0
C455 C 0.95249 0.97428 0.52327 0.0
C456 C 0.95794 0.04904 0.55033 0.0
C457 C 0.94075 0.08991 0.57621 0.0
C458 C 0.91832 0.05496 0.57473 0.0
C459 C 0.86873 0.19949 0.50118 0.0
C460 C 0.85064 0.08037 0.56416 0.0
C461 C 0.87797 0.11167 0.50723 0.0
N462 N 0.86902 0.05359 0.53865 0.0
C463 C 0.84096 0.16771 0.55906 0.0
C464 C 0.85012 0.22758 0.52738 0.0
C465 C 0.84073 0.8177 0.56889 0.0
C466 C 0.89258 0.54554 0.49414 0.0
C467 C 0.85923 0.58282 0.5579 0.0
C468 C 0.85515 0.51494 0.5259 0.0
C469 C 0.87198 0.49619 0.49389 0.0
N470 N 0.87954 0.63057 0.55811 0.0
C471 C 0.89606 0.61294 0.52666 0.0
H472 H 0.81272 0.31938 0.01672 0.0
H473 H 0.81524 0.05033 0.07956 0.0
H474 H 0.77296 0.05437 0.08875 0.0
H475 H 0.76735 0.4142 0.08633 0.0
H476 H 0.75392 0.47688 0.04124 0.0
H477 H 0.78455 0.45441 0.04012 0.0
H478 H 0.78037 0.37683 0.96268 0.0
H479 H 0.74976 0.39932 0.96344 0.0
H480 H 0.76021 0.28371 0.95581 0.0
H481 H 0.73088 0.08502 0.09026 0.0
H482 H 0.69083 0.13779 0.08192 0.0
H483 H 0.71451 0.38796 0.01821 0.0
C484 C 0.80444 0.26129 0.03256 0.0
C485 C 0.81745 0.18449 0.04755 0.0
C486 C 0.80579 0.10993 0.06784 0.0
C487 C 0.78175 0.11168 0.07333 0.0
C488 C 0.76956 0.18847 0.05844 0.0
C489 C 0.78042 0.26187 0.03837 0.0
C490 C 0.76305 0.33505 0.02453 0.0
C491 C 0.76749 0.42549 0.04956 0.0
C492 C 0.76337 0.34954 0.97359 0.0
C493 C 0.74067 0.29077 0.03966 0.0
C494 C 0.74498 0.20639 0.05926 0.0
C495 C 0.72728 0.15085 0.07494 0.0
C496 C 0.70453 0.18129 0.06978 0.0
C497 C 0.69947 0.2665 0.04906 0.0
C498 C 0.71786 0.32284 0.0345 0.0
H499 H 0.20099 0.68717 0.02533 0.0
H500 H 0.198 0.97663 0.06066 0.0
H501 H 0.2402 0.97885 0.06853 0.0
H502 H 0.2475 0.62588 0.10119 0.0
H503 H 0.26109 0.5471 0.06284 0.0
H504 H 0.23034 0.56615 0.06018 0.0
H505 H 0.23376 0.61086 0.97667 0.0
H506 H 0.26449 0.59152 0.97902 0.0
H507 H 0.25339 0.70083 0.96048 0.0
H508 H 0.28202 0.95307 0.07216 0.0
H509 H 0.32229 0.90173 0.06885 0.0
H510 H 0.30006 0.62805 0.03138 0.0
C511 C 0.2092 0.75104 0.03472 0.0
C512 C 0.19599 0.83176 0.04244 0.0
C513 C 0.20754 0.9138 0.05457 0.0
C514 C 0.23157 0.91583 0.05926 0.0
C515 C 0.24397 0.83535 0.05177 0.0
C516 C 0.23333 0.75445 0.03961 0.0
C517 C 0.25109 0.67844 0.03285 0.0
C518 C 0.24727 0.59973 0.06626 0.0
C519 C 0.25066 0.64336 0.98437 0.0
C520 C 0.27334 0.72982 0.04291 0.0
C521 C 0.26861 0.82015 0.05384 0.0
C522 C 0.28598 0.8826 0.06358 0.0
C523 C 0.30888 0.85275 0.06137 0.0
C524 C 0.31444 0.7612 0.04949 0.0
C525 C 0.29635 0.69829 0.04087 0.0
H526 H 0.80647 0.78474 0.63123 0.0
H527 H 0.81922 0.80833 0.48882 0.0
H528 H 0.77864 0.76742 0.47334 0.0
H529 H 0.76633 0.59752 0.62782 0.0
H530 H 0.74743 0.64309 0.67027 0.0
H531 H 0.7777 0.67164 0.67075 0.0
H532 H 0.76746 0.84483 0.6696 0.0
H533 H 0.73716 0.81681 0.66942 0.0
H534 H 0.7489 0.88901 0.62614 0.0
H535 H 0.73784 0.71387 0.47278 0.0
H536 H 0.69713 0.67412 0.48692 0.0
H537 H 0.70852 0.70211 0.62968 0.0
C538 C 0.80059 0.7816 0.59688 0.0
C539 C 0.81593 0.79942 0.56111 0.0
C540 C 0.80768 0.79548 0.51661 0.0
C541 C 0.78472 0.77174 0.5075 0.0
C542 C 0.77002 0.75409 0.54332 0.0
C543 C 0.7774 0.76079 0.58717 0.0
C544 C 0.75755 0.74302 0.61927 0.0
C545 C 0.76256 0.6588 0.64877 0.0
C546 C 0.75247 0.82852 0.64779 0.0
C547 C 0.73802 0.72411 0.58655 0.0
C548 C 0.74581 0.72929 0.54296 0.0
C549 C 0.73145 0.71062 0.50673 0.0
C550 C 0.70839 0.68747 0.51512 0.0
C551 C 0.69969 0.68505 0.55933 0.0
C552 C 0.71473 0.70382 0.59554 0.0
H553 H 0.20862 0.20159 0.52885 0.0
H554 H 0.19352 0.22612 0.67032 0.0
H555 H 0.23512 0.24689 0.68621 0.0
H556 H 0.26321 0.08279 0.53813 0.0
H557 H 0.27668 0.1454 0.49322 0.0
H558 H 0.24588 0.12812 0.49309 0.0
H559 H 0.23949 0.30379 0.48706 0.0
H560 H 0.27028 0.32163 0.48731 0.0
H561 H 0.25237 0.37856 0.52808 0.0
H562 H 0.27833 0.25741 0.68712 0.0
H563 H 0.32017 0.27232 0.67254 0.0
H564 H 0.30732 0.25743 0.52987 0.0
C565 C 0.21418 0.21051 0.56316 0.0
C566 C 0.19798 0.21098 0.59852 0.0
C567 C 0.20572 0.22507 0.64288 0.0
C568 C 0.22928 0.23678 0.65219 0.0
C569 C 0.24484 0.23626 0.61664 0.0
C570 C 0.23762 0.22487 0.57294 0.0
C571 C 0.25785 0.2318 0.5408 0.0
C572 C 0.26109 0.14165 0.51478 0.0
C573 C 0.25481 0.31383 0.50893 0.0
C574 C 0.27758 0.24766 0.57333 0.0
C575 C 0.26968 0.24877 0.61694 0.0
C576 C 0.28469 0.25778 0.6531 0.0
C577 C 0.3084 0.26596 0.64453 0.0
C578 C 0.31686 0.26698 0.60015 0.0
C579 C 0.30121 0.25838 0.56408 0.0
H580 H 0.63644 0.34964 0.22255 0.0
H581 H 0.64964 0.6049 0.15211 0.0
H582 H 0.65034 0.6881 0.22366 0.0
H583 H 0.59831 0.44714 0.30475 0.0
H584 H 0.60855 0.37556 0.34982 0.0
H585 H 0.6098 0.33451 0.29307 0.0
H586 H 0.65376 0.30512 0.30148 0.0
H587 H 0.65259 0.34576 0.35831 0.0
H588 H 0.6723 0.39752 0.31916 0.0
H589 H 0.65004 0.74445 0.30283 0.0
H590 H 0.64772 0.76952 0.38453 0.0
H591 H 0.63328 0.47968 0.4034 0.0
C592 C 0.63964 0.42286 0.22228 0.0
C593 C 0.64301 0.47059 0.18168 0.0
C594 C 0.64689 0.56672 0.18271 0.0
C595 C 0.64739 0.61476 0.22323 0.0
C596 C 0.64381 0.56605 0.26259 0.0
C597 C 0.63994 0.47234 0.26255 0.0
C598 C 0.63605 0.43719 0.30963 0.0
C599 C 0.61173 0.3962 0.31459 0.0
C600 C 0.65479 0.36727 0.32292 0.0
C601 C 0.6384 0.52567 0.33593 0.0
C602 C 0.64301 0.59912 0.30821 0.0
C603 C 0.64634 0.68753 0.32493 0.0
C604 C 0.645 0.70116 0.37133 0.0
C605 C 0.64016 0.62689 0.40034 0.0
C606 C 0.63675 0.53822 0.38215 0.0
H607 H 0.32987 0.52542 0.21312 0.0
H608 H 0.40338 0.53643 0.18502 0.0
H609 H 0.41172 0.48187 0.26147 0.0
H610 H 0.33394 0.6053 0.32728 0.0
H611 H 0.31117 0.53161 0.34705 0.0
H612 H 0.31108 0.57083 0.28995 0.0
H613 H 0.30922 0.40213 0.26274 0.0
H614 H 0.30959 0.36238 0.31978 0.0
H615 H 0.33103 0.32168 0.28084 0.0
H616 H 0.41212 0.42292 0.34091 0.0
H617 H 0.40467 0.37799 0.41913 0.0
H618 H 0.33094 0.40797 0.39629 0.0
C619 C 0.34773 0.51678 0.22306 0.0
C620 C 0.36595 0.53535 0.19285 0.0
C621 C 0.38908 0.5232 0.20742 0.0
C622 C 0.39402 0.49166 0.25079 0.0
C623 C 0.37566 0.47286 0.27946 0.0
C624 C 0.35299 0.48593 0.26638 0.0
C625 C 0.33647 0.46277 0.30409 0.0
C626 C 0.32234 0.54769 0.31791 0.0
C627 C 0.32065 0.38246 0.29107 0.0
C628 C 0.3534 0.43479 0.34043 0.0
C629 C 0.37591 0.44027 0.3254 0.0
C630 C 0.39455 0.41843 0.35302 0.0
C631 C 0.39012 0.39242 0.39742 0.0
C632 C 0.36721 0.389 0.41406 0.0
C633 C 0.34865 0.40931 0.38472 0.0
H634 H 0.38454 0.4889 0.91995 0.0
H635 H 0.38059 0.77719 0.88333 0.0
H636 H 0.38252 0.73461 0.80373 0.0
H637 H 0.42584 0.42592 0.83489 0.0
H638 H 0.41327 0.31476 0.82471 0.0
H639 H 0.4108 0.36694 0.87911 0.0
H640 H 0.36632 0.35138 0.87531 0.0
H641 H 0.36865 0.29906 0.82094 0.0
H642 H 0.35087 0.39964 0.82846 0.0
H643 H 0.38366 0.66192 0.72842 0.0
H644 H 0.38544 0.56436 0.66164 0.0
H645 H 0.39166 0.32232 0.7458 0.0
C646 C 0.38406 0.54316 0.89529 0.0
C647 C 0.38243 0.63663 0.90818 0.0
C648 C 0.3819 0.70523 0.87455 0.0
C649 C 0.38297 0.68173 0.82915 0.0
C650 C 0.38482 0.5893 0.8177 0.0
C651 C 0.38549 0.52098 0.8497 0.0
C652 C 0.38811 0.42701 0.82815 0.0
C653 C 0.41086 0.38097 0.84258 0.0
C654 C 0.36724 0.36568 0.83885 0.0
C655 C 0.38861 0.45337 0.77902 0.0
C656 C 0.38652 0.54734 0.77393 0.0
C657 C 0.3856 0.58835 0.73196 0.0
C658 C 0.38672 0.53202 0.6941 0.0
C659 C 0.38913 0.43539 0.69812 0.0
C660 C 0.39023 0.39589 0.74139 0.0
H661 H 0.63246 0.50974 0.90566 0.0
H662 H 0.63097 0.21657 0.8792 0.0
H663 H 0.62886 0.24895 0.79811 0.0
H664 H 0.59115 0.57226 0.82068 0.0
H665 H 0.60548 0.67838 0.8071 0.0
H666 H 0.60755 0.63204 0.86283 0.0
H667 H 0.65219 0.63509 0.85762 0.0
H668 H 0.65028 0.6814 0.80188 0.0
H669 H 0.66637 0.57727 0.81192 0.0
H670 H 0.62852 0.31343 0.72032 0.0
H671 H 0.62812 0.40356 0.65111 0.0
H672 H 0.62637 0.65599 0.72839 0.0
C673 C 0.63158 0.45197 0.88308 0.0
C674 C 0.6318 0.36034 0.89907 0.0
C675 C 0.63077 0.28723 0.86792 0.0
C676 C 0.62956 0.305 0.8218 0.0
C677 C 0.62911 0.39618 0.80743 0.0
C678 C 0.62993 0.46844 0.83716 0.0
C679 C 0.62873 0.56018 0.81317 0.0
C680 C 0.60693 0.61386 0.82676 0.0
C681 C 0.6507 0.61679 0.82165 0.0
C682 C 0.62734 0.52828 0.76504 0.0
C683 C 0.62776 0.43343 0.7626 0.0
C684 C 0.6278 0.38762 0.72187 0.0
C685 C 0.62746 0.43986 0.68259 0.0
C686 C 0.62668 0.5373 0.68399 0.0
C687 C 0.6265 0.58181 0.72601 0.0
H688 H 0.11943 0.05375 0.18957 0.0
H689 H 0.16577 0.82105 0.20602 0.0
H690 H 0.17218 0.86454 0.28454 0.0
H691 H 0.1506 0.21253 0.26155 0.0
H692 H 0.12482 0.26284 0.28489 0.0
H693 H 0.12438 0.21659 0.22901 0.0
H694 H 0.09021 0.11092 0.25031 0.0
H695 H 0.09043 0.15731 0.30612 0.0
H696 H 0.09297 0.03516 0.29772 0.0
H697 H 0.17349 0.92989 0.36055 0.0
H698 H 0.16733 0.00638 0.43265 0.0
H699 H 0.11933 0.1968 0.36991 0.0
C700 C 0.13099 0.01221 0.20969 0.0
C701 C 0.14218 0.93406 0.19148 0.0
C702 C 0.15699 0.88107 0.21906 0.0
C703 C 0.16085 0.90549 0.26371 0.0
C704 C 0.14971 0.98294 0.28051 0.0
C705 C 0.13491 0.03522 0.25466 0.0
C706 C 0.12436 0.1127 0.28199 0.0
C707 C 0.13147 0.20674 0.26323 0.0
C708 C 0.09792 0.10343 0.28416 0.0
C709 C 0.13541 0.09506 0.32731 0.0
C710 C 0.15015 0.02033 0.32527 0.0
C711 C 0.16203 0.98853 0.36262 0.0
C712 C 0.15837 0.03264 0.40349 0.0
C713 C 0.14282 0.10772 0.4071 0.0
C714 C 0.13152 0.14041 0.36818 0.0
H715 H 0.87694 0.01865 0.41085 0.0
H716 H 0.88107 0.72461 0.38869 0.0
H717 H 0.88313 0.75194 0.30699 0.0
H718 H 0.84044 0.06777 0.31632 0.0
H719 H 0.85406 0.17615 0.30435 0.0
H720 H 0.85346 0.1332 0.36082 0.0
H721 H 0.89801 0.14571 0.36522 0.0
H722 H 0.8988 0.18849 0.30873 0.0
H723 H 0.91551 0.08857 0.32383 0.0
H724 H 0.8861 0.81208 0.22843 0.0
H725 H 0.88664 0.89828 0.15776 0.0
H726 H 0.87851 0.15388 0.23081 0.0
C727 C 0.87839 0.95987 0.38887 0.0
C728 C 0.87907 0.86935 0.40606 0.0
C729 C 0.88055 0.79437 0.37617 0.0
C730 C 0.8818 0.80934 0.32981 0.0
C731 C 0.88123 0.89957 0.31405 0.0
C732 C 0.87929 0.9735 0.34265 0.0
C733 C 0.87832 0.0635 0.31717 0.0
C734 C 0.85519 0.11304 0.32514 0.0
C735 C 0.89889 0.12518 0.32947 0.0
C736 C 0.88018 0.02881 0.26958 0.0
C737 C 0.88206 0.93409 0.26865 0.0
C738 C 0.88453 0.88613 0.22876 0.0
C739 C 0.88493 0.93602 0.18874 0.0
C740 C 0.88262 0.03305 0.18864 0.0
C741 C 0.88019 0.07984 0.22975 0.0
H742 H 0.88869 0.84259 0.73551 0.0
H743 H 0.88147 0.0929 0.6575 0.0
H744 H 0.88262 0.1843 0.72622 0.0
H745 H 0.85136 0.91759 0.82485 0.0
H746 H 0.86801 0.8625 0.86824 0.0
H747 H 0.86788 0.81562 0.81251 0.0
H748 H 0.91256 0.82468 0.81034 0.0
H749 H 0.9128 0.872 0.86599 0.0
H750 H 0.92659 0.93291 0.8209 0.0
H751 H 0.88525 0.25039 0.80297 0.0
H752 H 0.88614 0.28517 0.8837 0.0
H753 H 0.88855 0.99298 0.91281 0.0
C754 C 0.88753 0.91661 0.73285 0.0
C755 C 0.88552 0.9602 0.69073 0.0
C756 C 0.88352 0.05735 0.689 0.0
C757 C 0.88408 0.11029 0.72799 0.0
C758 C 0.88623 0.06542 0.76878 0.0
C759 C 0.88763 0.9708 0.77167 0.0
C760 C 0.88874 0.94006 0.82007 0.0
C761 C 0.86775 0.88043 0.83212 0.0
C762 C 0.91153 0.88943 0.82989 0.0
C763 C 0.88784 0.03221 0.84365 0.0
C764 C 0.88665 0.1036 0.81341 0.0
C765 C 0.88609 0.19507 0.82708 0.0
C766 C 0.88666 0.21415 0.87303 0.0
C767 C 0.8875 0.14203 0.9048 0.0
C768 C 0.88802 0.04992 0.88961 0.0
H769 H 0.11887 0.03691 0.91529 0.0
H770 H 0.1229 0.74484 0.88605 0.0
H771 H 0.12047 0.77859 0.80572 0.0
H772 H 0.07818 0.0944 0.82549 0.0
H773 H 0.09169 0.20282 0.81314 0.0
H774 H 0.09286 0.15684 0.86907 0.0
H775 H 0.13748 0.16745 0.86803 0.0
H776 H 0.13646 0.21345 0.81215 0.0
H777 H 0.15336 0.11209 0.82373 0.0
H778 H 0.12038 0.84139 0.72953 0.0
H779 H 0.12187 0.92988 0.66024 0.0
H780 H 0.11584 0.18368 0.73565 0.0
C781 C 0.11906 0.97996 0.89203 0.0
C782 C 0.12104 0.88796 0.9073 0.0
C783 C 0.12133 0.81575 0.87554 0.0
C784 C 0.11994 0.83418 0.8297 0.0
C785 C 0.11807 0.92516 0.81588 0.0
C786 C 0.11754 0.99707 0.84589 0.0
C787 C 0.11597 0.08866 0.82153 0.0
C788 C 0.09332 0.13862 0.833 0.0
C789 C 0.13708 0.14895 0.83199 0.0
C790 C 0.1161 0.05663 0.77315 0.0
C791 C 0.11731 0.96194 0.77104 0.0
C792 C 0.11902 0.91547 0.73066 0.0
C793 C 0.11976 0.96681 0.69126 0.0
C794 C 0.1185 0.06411 0.69199 0.0
C795 C 0.11636 0.10949 0.73371 0.0
H796 H 0.46734 0.90025 0.08686 0.0
H797 H 0.45661 0.85689 0.9451 0.0
H798 H 0.49025 0.95606 0.92827 0.0
H799 H 0.48107 0.13885 0.07646 0.0
H800 H 0.50217 0.13872 0.12082 0.0
H801 H 0.47859 0.05828 0.12196 0.0
H802 H 0.50756 0.92276 0.12756 0.0
H803 H 0.53121 1.00285 0.12698 0.0
H804 H 0.53008 0.91166 0.08632 0.0
H805 H 0.52572 0.05616 0.92737 0.0
H806 H 0.55923 0.15734 0.94215 0.0
H807 H 0.54423 0.14988 0.08392 0.0
C808 C 0.47249 0.91026 0.05239 0.0
C809 C 0.45996 0.86931 0.01716 0.0
C810 C 0.46641 0.8865 0.97238 0.0
C811 C 0.48538 0.94288 0.96259 0.0
C812 C 0.49728 0.98333 0.99803 0.0
C813 C 0.49098 0.96847 0.04202 0.0
C814 C 0.50578 0.02455 0.0737 0.0
C815 C 0.49102 0.09423 0.09976 0.0
C816 C 0.51947 0.96169 0.10551 0.0
C817 C 0.52157 0.07237 0.04072 0.0
C818 C 0.51651 0.04689 0.99726 0.0
C819 C 0.52959 0.07781 0.96116 0.0
C820 C 0.54847 0.13539 0.96976 0.0
C821 C 0.55372 0.16313 0.01389 0.0
C822 C 0.54 0.13191 0.04974 0.0
H823 H 0.53797 0.81535 0.65712 0.0
H824 H 0.58326 0.98352 0.57564 0.0
H825 H 0.55208 0.097 0.56597 0.0
H826 H 0.48634 0.85814 0.59079 0.0
H827 H 0.46723 0.8601 0.63832 0.0
H828 H 0.49327 0.79225 0.64007 0.0
H829 H 0.50594 0.87659 0.71224 0.0
H830 H 0.47996 0.94488 0.7106 0.0
H831 H 0.50777 1.00014 0.71226 0.0
H832 H 0.51674 0.19637 0.5675 0.0
H833 H 0.4782 0.26793 0.57418 0.0
H834 H 0.45426 0.0325 0.64996 0.0
C835 C 0.54129 0.87606 0.63726 0.0
C836 C 0.56318 0.89042 0.61732 0.0
C837 C 0.5667 0.97049 0.5912 0.0
C838 C 0.54909 0.03577 0.58561 0.0
C839 C 0.5278 0.01985 0.60574 0.0
C840 C 0.52365 0.94148 0.63053 0.0
C841 C 0.49885 0.94025 0.64725 0.0
C842 C 0.48564 0.85779 0.62795 0.0
C843 C 0.4981 0.94049 0.69864 0.0
C844 C 0.48984 0.0303 0.62821 0.0
C845 C 0.50696 0.07552 0.60485 0.0
C846 C 0.50314 0.16125 0.5854 0.0
C847 C 0.48119 0.20159 0.58954 0.0
C848 C 0.46316 0.15583 0.61241 0.0
C849 C 0.46763 0.06888 0.63195 0.0
H850 H 0.06591 0.53191 0.01843 0.0
H851 H 0.03531 0.80193 0.99945 0.0
H852 H 0.99665 0.73217 0.9973 0.0
H853 H 0.02666 0.4089 0.94546 0.0
H854 H 0.02538 0.30843 0.98059 0.0
H855 H 0.05092 0.37882 0.98043 0.0
H856 H 0.04774 0.39859 0.06621 0.0
H857 H 0.0222 0.32823 0.06657 0.0
H858 H 0.0213 0.4422 0.09 0.0
H859 H 0.9616 0.63628 0.99822 0.0
H860 H 0.93143 0.51895 1.00172 0.0
H861 H 0.98364 0.3072 0.0195 0.0
C862 C 0.05107 0.57632 0.01374 0.0
C863 C 0.0537 0.67261 0.009 0.0
C864 C 0.03382 0.72816 1.00297 0.0
C865 C 0.01175 0.68915 1.00173 0.0
C866 C 0.00977 0.59435 0.00643 0.0
C867 C 0.02882 0.53836 0.01226 0.0
C868 C 0.02163 0.43836 0.0167 0.0
C869 C 0.03175 0.38021 0.97851 0.0
C870 C 0.02863 0.39959 0.0626 0.0
C871 C 0.99556 0.44724 0.01255 0.0
C872 C 0.98925 0.53809 0.00673 0.0
C873 C 0.9663 0.56491 1.00277 0.0
C874 C 0.94924 0.4974 0.00503 0.0
C875 C 0.95505 0.40353 0.01116 0.0
C876 C 0.97862 0.37817 0.0146 0.0
H877 H 0.03215 0.33977 0.65317 0.0
H878 H 0.07736 0.49538 0.56593 0.0
H879 H 0.04652 0.60997 0.55435 0.0
H880 H 0.97963 0.38132 0.58668 0.0
H881 H 0.96118 0.38817 0.63508 0.0
H882 H 0.98681 0.31774 0.63654 0.0
H883 H 1.00087 0.40504 0.70689 0.0
H884 H 0.9754 0.47625 0.7054 0.0
H885 H 1.00361 0.52825 0.70494 0.0
H886 H 0.01212 0.71482 0.5573 0.0
H887 H 0.97435 0.79208 0.56577 0.0
H888 H 0.9496 0.56314 0.64508 0.0
C889 C 0.03544 0.39754 0.63131 0.0
C890 C 0.05724 0.40864 0.61058 0.0
C891 C 0.06082 0.48496 0.58202 0.0
C892 C 0.04343 0.55082 0.5754 0.0
C893 C 0.02228 0.53867 0.59677 0.0
C894 C 0.01799 0.46297 0.62335 0.0
C895 C 0.99343 0.46546 0.64129 0.0
C896 C 0.97944 0.3833 0.62385 0.0
C897 C 0.99334 0.46897 0.69268 0.0
C898 C 0.9848 0.55515 0.62131 0.0
C899 C 1.00187 0.59674 0.59623 0.0
C900 C 0.99851 0.6823 0.57632 0.0
C901 C 0.97704 0.72597 0.58156 0.0
C902 C 0.95901 0.68351 0.60587 0.0
C903 C 0.96301 0.59683 0.62595 0.0
loop_
_geom_bond_atom_site_label_1
_geom_bond_atom_site_label_2
_geom_bond_distance
_geom_bond_site_symmetry_2
_ccdc_geom_bond_type
Co0 O2 2.143 . S
Co0 O8 2.074 1_554 S
Co0 O11 2.093 . S
Co0 O24 2.097 . S
Co0 N41 2.151 . S
Co0 N49 2.214 . S
Co1 O2 2.160 . S
Co1 O7 2.058 1_554 S
Co1 O17 2.057 . S
Co1 O32 2.037 . S
Co1 N36 2.145 1_554 S
Co1 N57 2.257 . S
O2 Co0 2.143 . S
O2 Co1 2.160 . S
C3 O4 1.278 . S
C3 O11 1.224 . S
O4 C3 1.278 . S
C5 O6 1.245 . S
C5 O17 1.232 . S
O6 C5 1.245 . S
O7 Co1 2.058 1_556 S
O7 C33 1.269 . S
O8 Co0 2.074 1_556 S
O8 C33 1.257 . S
H9 C34 0.930 . S
H10 C40 0.930 . S
O11 Co0 2.093 . S
O11 C3 1.224 . S
H12 C44 0.929 1_556 S
H13 C46 0.930 . S
H14 C47 0.938 . S
H15 C45 0.929 1_556 S
H16 C48 0.928 . S
O17 Co1 2.057 . S
O17 C5 1.232 . S
H18 C37 0.929 . S
H19 C38 0.929 . S
H20 C50 0.931 1_556 S
H21 C42 0.929 . S
H22 C51 0.930 . S
H23 C43 0.931 . S
O24 Co0 2.097 . S
O24 C52 1.214 . S
H25 C53 0.929 . S
H26 C54 0.929 . S
H27 C55 0.930 1_565 S
H28 C56 0.929 1_565 S
H29 C58 0.930 . S
H30 C35 0.930 . S
H31 C39 0.930 . S
O32 Co1 2.037 . S
O32 C52 1.234 . S
C33 O7 1.269 . S
C33 O8 1.257 . S
C34 H9 0.930 . S
C34 C37 1.388 . S
C34 C39 1.418 1_545 S
C35 H30 0.930 . S
C35 C38 1.404 1_565 S
C35 C39 1.353 . S
N36 Co1 2.145 1_556 S
N36 C37 1.397 . S
N36 C38 1.334 . S
C37 H18 0.929 . S
C37 C34 1.388 . S
C37 N36 1.397 . S
C38 H19 0.929 . S
C38 C35 1.404 1_545 S
C38 N36 1.334 . S
C39 H31 0.930 . S
C39 C34 1.418 1_565 S
C39 C35 1.353 . S
C40 H10 0.930 . S
C40 N41 1.330 . S
C40 C42 1.446 . S
N41 Co0 2.151 . S
N41 C40 1.330 . S
N41 C45 1.418 . S
C42 H21 0.929 . S
C42 C40 1.446 . S
C42 C43 1.332 . S
C43 H23 0.931 . S
C43 C42 1.332 . S
C43 C44 1.267 . S
C44 H12 0.929 1_554 S
C44 C43 1.267 . S
C44 C45 1.251 . S
C45 H15 0.929 1_554 S
C45 N41 1.418 . S
C45 C44 1.251 . S
C46 H13 0.930 . S
C46 C48 1.406 . S
C46 C51 1.261 . S
C47 H14 0.938 . S
C47 N49 1.325 . S
C47 C50 1.357 . S
C48 H16 0.928 . S
C48 C46 1.406 . S
C48 N49 1.261 . S
N49 Co0 2.214 . S
N49 C47 1.325 . S
N49 C48 1.261 . S
C50 H20 0.931 1_554 S
C50 C47 1.357 . S
C50 C51 1.312 . S
C51 H22 0.930 . S
C51 C46 1.261 . S
C51 C50 1.312 . S
C52 O24 1.214 . S
C52 O32 1.234 . S
C53 H25 0.929 . S
C53 C56 1.391 . S
C53 C58 1.391 . S
C54 H26 0.929 . S
C54 C55 1.390 . S
C54 N57 1.391 . S
C55 H27 0.930 1_545 S
C55 C54 1.390 . S
C55 C56 1.392 . S
C56 H28 0.929 1_545 S
C56 C53 1.391 . S
C56 C55 1.392 . S
N57 Co1 2.257 . S
N57 C54 1.391 . S
N57 C58 1.388 . S
C58 H29 0.930 . S
C58 C53 1.391 . S
C58 N57 1.388 . S
Co59 O61 2.143 . S
Co59 O67 2.074 1_554 S
Co59 O70 2.093 . S
Co59 O83 2.097 . S
Co59 N100 2.151 . S
Co59 N108 2.214 . S
Co60 O61 2.160 . S
Co60 O66 2.058 1_554 S
Co60 O76 2.057 . S
Co60 O91 2.037 . S
Co60 N95 2.145 1_554 S
Co60 N116 2.257 . S
O61 Co59 2.143 . S
O61 Co60 2.160 . S
C62 O63 1.278 . S
C62 O70 1.224 . S
O63 C62 1.278 . S
C64 O65 1.245 . S
C64 O76 1.232 . S
O65 C64 1.245 . S
O66 Co60 2.058 1_556 S
O66 C92 1.269 . S
O67 Co59 2.074 1_556 S
O67 C92 1.257 . S
H68 C93 0.930 . S
H69 C99 0.930 . S
O70 Co59 2.093 . S
O70 C62 1.224 . S
H71 C103 0.929 1_556 S
H72 C105 0.930 . S
H73 C106 0.938 . S
H74 C104 0.929 1_556 S
H75 C107 0.928 . S
O76 Co60 2.057 . S
O76 C64 1.232 . S
H77 C96 0.929 . S
H78 C97 0.929 . S
H79 C109 0.931 1_556 S
H80 C101 0.929 . S
H81 C110 0.930 . S
H82 C102 0.931 . S
O83 Co59 2.097 . S
O83 C111 1.214 . S
H84 C112 0.929 . S
H85 C113 0.929 . S
H86 C114 0.930 1_545 S
H87 C115 0.929 1_545 S
H88 C117 0.930 . S
H89 C94 0.930 . S
H90 C98 0.930 . S
O91 Co60 2.037 . S
O91 C111 1.234 . S
C92 O66 1.269 . S
C92 O67 1.257 . S
C93 H68 0.930 . S
C93 C96 1.388 . S
C93 C98 1.418 1_565 S
C94 H89 0.930 . S
C94 C97 1.404 1_545 S
C94 C98 1.353 . S
N95 Co60 2.145 1_556 S
N95 C96 1.397 . S
N95 C97 1.334 . S
C96 H77 0.929 . S
C96 C93 1.388 . S
C96 N95 1.397 . S
C97 H78 0.929 . S
C97 C94 1.404 1_565 S
C97 N95 1.334 . S
C98 H90 0.930 . S
C98 C93 1.418 1_545 S
C98 C94 1.353 . S
C99 H69 0.930 . S
C99 N100 1.330 . S
C99 C101 1.446 . S
N100 Co59 2.151 . S
N100 C99 1.330 . S
N100 C104 1.418 . S
C101 H80 0.929 . S
C101 C99 1.446 . S
C101 C102 1.332 . S
C102 H82 0.931 . S
C102 C101 1.332 . S
C102 C103 1.267 . S
C103 H71 0.929 1_554 S
C103 C102 1.267 . S
C103 C104 1.251 . S
C104 H74 0.929 1_554 S
C104 N100 1.418 . S
C104 C103 1.251 . S
C105 H72 0.930 . S
C105 C107 1.406 . S
C105 C110 1.261 . S
C106 H73 0.938 . S
C106 N108 1.325 . S
C106 C109 1.357 . S
C107 H75 0.928 . S
C107 C105 1.406 . S
C107 N108 1.261 . S
N108 Co59 2.214 . S
N108 C106 1.325 . S
N108 C107 1.261 . S
C109 H79 0.931 1_554 S
C109 C106 1.357 . S
C109 C110 1.312 . S
C110 H81 0.930 . S
C110 C105 1.261 . S
C110 C109 1.312 . S
C111 O83 1.214 . S
C111 O91 1.234 . S
C112 H84 0.929 . S
C112 C115 1.391 . S
C112 C117 1.391 . S
C113 H85 0.929 . S
C113 C114 1.390 . S
C113 N116 1.391 . S
C114 H86 0.930 1_565 S
C114 C113 1.390 . S
C114 C115 1.392 . S
C115 H87 0.929 1_565 S
C115 C112 1.391 . S
C115 C114 1.392 . S
N116 Co60 2.257 . S
N116 C113 1.391 . S
N116 C117 1.388 . S
C117 H88 0.930 . S
C117 C112 1.391 . S
C117 N116 1.388 . S
Co118 O120 2.143 . S
Co118 O126 2.074 . S
Co118 O129 2.093 . S
Co118 O142 2.097 . S
Co118 N159 2.151 . S
Co118 N167 2.214 . S
Co119 O120 2.160 . S
Co119 O125 2.058 . S
Co119 O135 2.057 . S
Co119 O150 2.037 . S
Co119 N154 2.145 . S
Co119 N175 2.257 . S
O120 Co118 2.143 . S
O120 Co119 2.160 . S
C121 O122 1.278 . S
C121 O129 1.224 . S
O122 C121 1.278 . S
C123 O124 1.245 . S
C123 O135 1.232 . S
O124 C123 1.245 . S
O125 Co119 2.058 . S
O125 C151 1.269 . S
O126 Co118 2.074 . S
O126 C151 1.257 . S
H127 C152 0.930 . S
H128 C158 0.930 . S
O129 Co118 2.093 . S
O129 C121 1.224 . S
H130 C162 0.929 . S
H131 C164 0.930 . S
H132 C165 0.930 . S
H133 C163 0.929 . S
H134 C166 0.928 . S
O135 Co119 2.057 . S
O135 C123 1.232 . S
H136 C155 0.929 . S
H137 C156 0.929 . S
H138 C168 0.931 . S
H139 C160 0.929 . S
H140 C169 0.930 . S
H141 C161 0.931 . S
O142 Co118 2.097 . S
O142 C170 1.214 . S
H143 C171 0.929 . S
H144 C172 0.929 . S
H145 C173 0.930 1_545 S
H146 C174 0.929 1_545 S
H147 C176 0.930 . S
H148 C153 0.930 . S
H149 C157 0.930 . S
O150 Co119 2.037 . S
O150 C170 1.234 . S
C151 O125 1.269 . S
C151 O126 1.257 . S
C152 H127 0.930 . S
C152 C155 1.388 . S
C152 C157 1.418 1_565 S
C153 H148 0.930 . S
C153 C156 1.404 1_545 S
C153 C157 1.353 . S
N154 Co119 2.145 . S
N154 C155 1.397 . S
N154 C156 1.334 . S
C155 H136 0.929 . S
C155 C152 1.388 . S
C155 N154 1.397 . S
C156 H137 0.929 . S
C156 C153 1.404 1_565 S
C156 N154 1.334 . S
C157 H149 0.930 . S
C157 C152 1.418 1_545 S
C157 C153 1.353 . S
C158 H128 0.930 . S
C158 N159 1.330 . S
C158 C160 1.446 . S
N159 Co118 2.151 . S
N159 C158 1.330 . S
N159 C163 1.418 . S
C160 H139 0.929 . S
C160 C158 1.446 . S
C160 C161 1.332 . S
C161 H141 0.931 . S
C161 C160 1.332 . S
C161 C162 1.267 . S
C162 H130 0.929 . S
C162 C161 1.267 . S
C162 C163 1.251 . S
C163 H133 0.929 . S
C163 N159 1.418 . S
C163 C162 1.251 . S
C164 H131 0.930 . S
C164 C166 1.406 . S
C164 C169 1.261 . S
C165 H132 0.930 . S
C165 N167 1.325 . S
C165 C168 1.357 . S
C166 H134 0.928 . S
C166 C164 1.406 . S
C166 N167 1.261 . S
N167 Co118 2.214 . S
N167 C165 1.325 . S
N167 C166 1.261 . S
C168 H138 0.931 . S
C168 C165 1.357 . S
C168 C169 1.312 . S
C169 H140 0.930 . S
C169 C164 1.261 . S
C169 C168 1.312 . S
C170 O142 1.214 . S
C170 O150 1.234 . S
C171 H143 0.929 . S
C171 C174 1.391 . S
C171 C176 1.391 . S
C172 H144 0.929 . S
C172 C173 1.390 . S
C172 N175 1.391 . S
C173 H145 0.930 1_565 S
C173 C172 1.390 . S
C173 C174 1.392 . S
C174 H146 0.929 1_565 S
C174 C171 1.391 . S
C174 C173 1.392 . S
N175 Co119 2.257 . S
N175 C172 1.391 . S
N175 C176 1.388 . S
C176 H147 0.930 . S
C176 C171 1.391 . S
C176 N175 1.388 . S
Co177 O179 2.143 . S
Co177 O185 2.074 . S
Co177 O188 2.093 . S
Co177 O201 2.097 . S
Co177 N218 2.151 . S
Co177 N226 2.214 . S
Co178 O179 2.160 . S
Co178 O184 2.058 . S
Co178 O194 2.057 . S
Co178 O209 2.037 . S
Co178 N213 2.145 . S
Co178 N234 2.257 . S
O179 Co177 2.143 . S
O179 Co178 2.160 . S
C180 O181 1.278 . S
C180 O188 1.224 . S
O181 C180 1.278 . S
C182 O183 1.245 . S
C182 O194 1.232 . S
O183 C182 1.245 . S
O184 Co178 2.058 . S
O184 C210 1.269 . S
O185 Co177 2.074 . S
O185 C210 1.257 . S
H186 C211 0.930 . S
H187 C217 0.930 . S
O188 Co177 2.093 . S
O188 C180 1.224 . S
H189 C221 0.929 . S
H190 C223 0.930 . S
H191 C224 0.930 . S
H192 C222 0.929 . S
H193 C225 0.928 . S
O194 Co178 2.057 . S
O194 C182 1.232 . S
H195 C214 0.929 . S
H196 C215 0.929 . S
H197 C227 0.931 . S
H198 C219 0.929 . S
H199 C228 0.930 . S
H200 C220 0.931 . S
O201 Co177 2.097 . S
O201 C229 1.214 . S
H202 C230 0.929 . S
H203 C231 0.929 . S
H204 C232 0.930 1_565 S
H205 C233 0.929 1_565 S
H206 C235 0.930 . S
H207 C212 0.930 . S
H208 C216 0.930 . S
O209 Co178 2.037 . S
O209 C229 1.234 . S
C210 O184 1.269 . S
C210 O185 1.257 . S
C211 H186 0.930 . S
C211 C214 1.388 . S
C211 C216 1.418 1_545 S
C212 H207 0.930 . S
C212 C215 1.404 1_565 S
C212 C216 1.353 . S
N213 Co178 2.145 . S
N213 C214 1.397 . S
N213 C215 1.334 . S
C214 H195 0.929 . S
C214 C211 1.388 . S
C214 N213 1.397 . S
C215 H196 0.929 . S
C215 C212 1.404 1_545 S
C215 N213 1.334 . S
C216 H208 0.930 . S
C216 C211 1.418 1_565 S
C216 C212 1.353 . S
C217 H187 0.930 . S
C217 N218 1.330 . S
C217 C219 1.446 . S
N218 Co177 2.151 . S
N218 C217 1.330 . S
N218 C222 1.418 . S
C219 H198 0.929 . S
C219 C217 1.446 . S
C219 C220 1.332 . S
C220 H200 0.931 . S
C220 C219 1.332 . S
C220 C221 1.267 . S
C221 H189 0.929 . S
C221 C220 1.267 . S
C221 C222 1.251 . S
C222 H192 0.929 . S
C222 N218 1.418 . S
C222 C221 1.251 . S
C223 H190 0.930 . S
C223 C225 1.406 . S
C223 C228 1.261 . S
C224 H191 0.930 . S
C224 N226 1.325 . S
C224 C227 1.357 . S
C225 H193 0.928 . S
C225 C223 1.406 . S
C225 N226 1.261 . S
N226 Co177 2.214 . S
N226 C224 1.325 . S
N226 C225 1.261 . S
C227 H197 0.931 . S
C227 C224 1.357 . S
C227 C228 1.312 . S
C228 H199 0.930 . S
C228 C223 1.261 . S
C228 C227 1.312 . S
C229 O201 1.214 . S
C229 O209 1.234 . S
C230 H202 0.929 . S
C230 C233 1.391 . S
C230 C235 1.391 . S
C231 H203 0.929 . S
C231 C232 1.390 . S
C231 N234 1.391 . S
C232 H204 0.930 1_545 S
C232 C231 1.390 . S
C232 C233 1.392 . S
C233 H205 0.929 1_545 S
C233 C230 1.391 . S
C233 C232 1.392 . S
N234 Co178 2.257 . S
N234 C231 1.391 . S
N234 C235 1.388 . S
C235 H206 0.930 . S
C235 C230 1.391 . S
C235 N234 1.388 . S
Co236 O238 2.143 . S
Co236 O244 2.074 1_554 S
Co236 O247 2.093 . S
Co236 O260 2.097 . S
Co236 N277 2.151 1_565 S
Co236 N285 2.214 1_565 S
Co237 O238 2.160 . S
Co237 O243 2.058 1_554 S
Co237 O253 2.057 . S
Co237 O268 2.037 . S
Co237 N272 2.145 1_554 S
Co237 N293 2.257 . S
O238 Co236 2.143 . S
O238 Co237 2.160 . S
C239 O240 1.278 . S
C239 O247 1.224 . S
O240 C239 1.278 . S
C241 O242 1.245 . S
C241 O253 1.232 . S
O242 C241 1.245 . S
O243 Co237 2.058 1_556 S
O243 C269 1.269 . S
O244 Co236 2.074 1_556 S
O244 C269 1.257 . S
H245 C270 0.930 . S
H246 C276 0.930 1_565 S
O247 Co236 2.093 . S
O247 C239 1.224 . S
H248 C280 0.929 1_556 S
H249 C282 0.930 . S
H250 C283 0.938 1_565 S
H251 C281 0.929 1_556 S
H252 C284 0.928 . S
O253 Co237 2.057 . S
O253 C241 1.232 . S
H254 C273 0.929 . S
H255 C274 0.929 . S
H256 C286 0.931 1_556 S
H257 C278 0.929 . S
H258 C287 0.930 . S
H259 C279 0.931 . S
O260 Co236 2.097 . S
O260 C288 1.214 . S
H261 C289 0.929 . S
H262 C290 0.929 . S
H263 C291 0.930 . S
H264 C292 0.929 . S
H265 C294 0.930 . S
H266 C271 0.930 . S
H267 C275 0.930 . S
O268 Co237 2.037 . S
O268 C288 1.234 . S
C269 O243 1.269 . S
C269 O244 1.257 . S
C270 H245 0.930 . S
C270 C273 1.388 . S
C270 C275 1.418 . S
C271 H266 0.930 . S
C271 C274 1.404 . S
C271 C275 1.353 . S
N272 Co237 2.145 1_556 S
N272 C273 1.397 . S
N272 C274 1.334 . S
C273 H254 0.929 . S
C273 C270 1.388 . S
C273 N272 1.397 . S
C274 H255 0.929 . S
C274 C271 1.404 . S
C274 N272 1.334 . S
C275 H267 0.930 . S
C275 C270 1.418 . S
C275 C271 1.353 . S
C276 H246 0.930 1_545 S
C276 N277 1.330 . S
C276 C278 1.446 . S
N277 Co236 2.151 1_545 S
N277 C276 1.330 . S
N277 C281 1.418 . S
C278 H257 0.929 . S
C278 C276 1.446 . S
C278 C279 1.332 . S
C279 H259 0.931 . S
C279 C278 1.332 . S
C279 C280 1.267 . S
C280 H248 0.929 1_554 S
C280 C279 1.267 . S
C280 C281 1.251 . S
C281 H251 0.929 1_554 S
C281 N277 1.418 . S
C281 C280 1.251 . S
C282 H249 0.930 . S
C282 C284 1.406 . S
C282 C287 1.261 . S
C283 H250 0.938 1_545 S
C283 N285 1.325 . S
C283 C286 1.357 . S
C284 H252 0.928 . S
C284 C282 1.406 . S
C284 N285 1.261 . S
N285 Co236 2.214 1_545 S
N285 C283 1.325 . S
N285 C284 1.261 . S
C286 H256 0.931 1_554 S
C286 C283 1.357 . S
C286 C287 1.312 . S
C287 H258 0.930 . S
C287 C282 1.261 . S
C287 C286 1.312 . S
C288 O260 1.214 . S
C288 O268 1.234 . S
C289 H261 0.929 . S
C289 C292 1.391 . S
C289 C294 1.391 . S
C290 H262 0.929 . S
C290 C291 1.390 . S
C290 N293 1.391 . S
C291 H263 0.930 . S
C291 C290 1.390 . S
C291 C292 1.392 . S
C292 H264 0.929 . S
C292 C289 1.391 . S
C292 C291 1.392 . S
N293 Co237 2.257 . S
N293 C290 1.391 . S
N293 C294 1.388 . S
C294 H265 0.930 . S
C294 C289 1.391 . S
C294 N293 1.388 . S
Co295 O297 2.143 . S
Co295 O303 2.074 1_554 S
Co295 O306 2.093 . S
Co295 O319 2.097 . S
Co295 N336 2.151 1_545 S
Co295 N344 2.214 1_545 S
Co296 O297 2.160 . S
Co296 O302 2.058 1_554 S
Co296 O312 2.057 . S
Co296 O327 2.037 . S
Co296 N331 2.145 1_554 S
Co296 N352 2.257 . S
O297 Co295 2.143 . S
O297 Co296 2.160 . S
C298 O299 1.278 . S
C298 O306 1.224 . S
O299 C298 1.278 . S
C300 O301 1.245 . S
C300 O312 1.232 . S
O301 C300 1.245 . S
O302 Co296 2.058 1_556 S
O302 C328 1.269 . S
O303 Co295 2.074 1_556 S
O303 C328 1.257 . S
H304 C329 0.930 . S
H305 C335 0.930 1_545 S
O306 Co295 2.093 . S
O306 C298 1.224 . S
H307 C339 0.929 1_556 S
H308 C341 0.930 . S
H309 C342 0.938 1_545 S
H310 C340 0.929 1_556 S
H311 C343 0.928 . S
O312 Co296 2.057 . S
O312 C300 1.232 . S
H313 C332 0.929 . S
H314 C333 0.929 . S
H315 C345 0.931 1_556 S
H316 C337 0.929 . S
H317 C346 0.930 . S
H318 C338 0.931 . S
O319 Co295 2.097 . S
O319 C347 1.214 . S
H320 C348 0.929 . S
H321 C349 0.929 . S
H322 C350 0.930 . S
H323 C351 0.929 . S
H324 C353 0.930 . S
H325 C330 0.930 . S
H326 C334 0.930 . S
O327 Co296 2.037 . S
O327 C347 1.234 . S
C328 O302 1.269 . S
C328 O303 1.257 . S
C329 H304 0.930 . S
C329 C332 1.388 . S
C329 C334 1.418 . S
C330 H325 0.930 . S
C330 C333 1.404 . S
C330 C334 1.353 . S
N331 Co296 2.145 1_556 S
N331 C332 1.397 . S
N331 C333 1.334 . S
C332 H313 0.929 . S
C332 C329 1.388 . S
C332 N331 1.397 . S
C333 H314 0.929 . S
C333 C330 1.404 . S
C333 N331 1.334 . S
C334 H326 0.930 . S
C334 C329 1.418 . S
C334 C330 1.353 . S
C335 H305 0.930 1_565 S
C335 N336 1.330 . S
C335 C337 1.446 . S
N336 Co295 2.151 1_565 S
N336 C335 1.330 . S
N336 C340 1.418 . S
C337 H316 0.929 . S
C337 C335 1.446 . S
C337 C338 1.332 . S
C338 H318 0.931 . S
C338 C337 1.332 . S
C338 C339 1.267 . S
C339 H307 0.929 1_554 S
C339 C338 1.267 . S
C339 C340 1.251 . S
C340 H310 0.929 1_554 S
C340 N336 1.418 . S
C340 C339 1.251 . S
C341 H308 0.930 . S
C341 C343 1.406 . S
C341 C346 1.261 . S
C342 H309 0.938 1_565 S
C342 N344 1.325 . S
C342 C345 1.357 . S
C343 H311 0.928 . S
C343 C341 1.406 . S
C343 N344 1.261 . S
N344 Co295 2.214 1_565 S
N344 C342 1.325 . S
N344 C343 1.261 . S
C345 H315 0.931 1_554 S
C345 C342 1.357 . S
C345 C346 1.312 . S
C346 H317 0.930 . S
C346 C341 1.261 . S
C346 C345 1.312 . S
C347 O319 1.214 . S
C347 O327 1.234 . S
C348 H320 0.929 . S
C348 C351 1.391 . S
C348 C353 1.391 . S
C349 H321 0.929 . S
C349 C350 1.390 . S
C349 N352 1.391 . S
C350 H322 0.930 . S
C350 C349 1.390 . S
C350 C351 1.392 . S
C351 H323 0.929 . S
C351 C348 1.391 . S
C351 C350 1.392 . S
N352 Co296 2.257 . S
N352 C349 1.391 . S
N352 C353 1.388 . S
C353 H324 0.930 . S
C353 C348 1.391 . S
C353 N352 1.388 . S
Co354 O356 2.143 . S
Co354 O362 2.074 . S
Co354 O365 2.093 . S
Co354 O378 2.097 . S
Co354 N395 2.151 1_545 S
Co354 N403 2.214 1_545 S
Co355 O356 2.160 . S
Co355 O361 2.058 . S
Co355 O371 2.057 . S
Co355 O386 2.037 . S
Co355 N390 2.145 . S
Co355 N411 2.257 . S
O356 Co354 2.143 . S
O356 Co355 2.160 . S
C357 O358 1.278 . S
C357 O365 1.224 . S
O358 C357 1.278 . S
C359 O360 1.245 . S
C359 O371 1.232 . S
O360 C359 1.245 . S
O361 Co355 2.058 . S
O361 C387 1.269 . S
O362 Co354 2.074 . S
O362 C387 1.257 . S
H363 C388 0.930 . S
H364 C394 0.930 1_545 S
O365 Co354 2.093 . S
O365 C357 1.224 . S
H366 C398 0.929 . S
H367 C400 0.930 . S
H368 C401 0.930 1_545 S
H369 C399 0.929 . S
H370 C402 0.928 . S
O371 Co355 2.057 . S
O371 C359 1.232 . S
H372 C391 0.929 . S
H373 C392 0.929 . S
H374 C404 0.931 . S
H375 C396 0.929 . S
H376 C405 0.930 . S
H377 C397 0.931 . S
O378 Co354 2.097 . S
O378 C406 1.214 . S
H379 C407 0.929 . S
H380 C408 0.929 . S
H381 C409 0.930 . S
H382 C410 0.929 . S
H383 C412 0.930 . S
H384 C389 0.930 . S
H385 C393 0.930 . S
O386 Co355 2.037 . S
O386 C406 1.234 . S
C387 O361 1.269 . S
C387 O362 1.257 . S
C388 H363 0.930 . S
C388 C391 1.388 . S
C388 C393 1.418 . S
C389 H384 0.930 . S
C389 C392 1.404 . S
C389 C393 1.353 . S
N390 Co355 2.145 . S
N390 C391 1.397 . S
N390 C392 1.334 . S
C391 H372 0.929 . S
C391 C388 1.388 . S
C391 N390 1.397 . S
C392 H373 0.929 . S
C392 C389 1.404 . S
C392 N390 1.334 . S
C393 H385 0.930 . S
C393 C388 1.418 . S
C393 C389 1.353 . S
C394 H364 0.930 1_565 S
C394 N395 1.330 . S
C394 C396 1.446 . S
N395 Co354 2.151 1_565 S
N395 C394 1.330 . S
N395 C399 1.418 . S
C396 H375 0.929 . S
C396 C394 1.446 . S
C396 C397 1.332 . S
C397 H377 0.931 . S
C397 C396 1.332 . S
C397 C398 1.267 . S
C398 H366 0.929 . S
C398 C397 1.267 . S
C398 C399 1.251 . S
C399 H369 0.929 . S
C399 N395 1.418 . S
C399 C398 1.251 . S
C400 H367 0.930 . S
C400 C402 1.406 . S
C400 C405 1.261 . S
C401 H368 0.930 1_565 S
C401 N403 1.325 . S
C401 C404 1.357 . S
C402 H370 0.928 . S
C402 C400 1.406 . S
C402 N403 1.261 . S
N403 Co354 2.214 1_565 S
N403 C401 1.325 . S
N403 C402 1.261 . S
C404 H374 0.931 . S
C404 C401 1.357 . S
C404 C405 1.312 . S
C405 H376 0.930 . S
C405 C400 1.261 . S
C405 C404 1.312 . S
C406 O378 1.214 . S
C406 O386 1.234 . S
C407 H379 0.929 . S
C407 C410 1.391 . S
C407 C412 1.391 . S
C408 H380 0.929 . S
C408 C409 1.390 . S
C408 N411 1.391 . S
C409 H381 0.930 . S
C409 C408 1.390 . S
C409 C410 1.392 . S
C410 H382 0.929 . S
C410 C407 1.391 . S
C410 C409 1.392 . S
N411 Co355 2.257 . S
N411 C408 1.391 . S
N411 C412 1.388 . S
C412 H383 0.930 . S
C412 C407 1.391 . S
C412 N411 1.388 . S
Co413 O415 2.143 . S
Co413 O421 2.074 . S
Co413 O424 2.093 . S
Co413 O437 2.097 . S
Co413 N454 2.151 1_565 S
Co413 N462 2.214 1_565 S
Co414 O415 2.160 . S
Co414 O420 2.058 . S
Co414 O430 2.057 . S
Co414 O445 2.037 . S
Co414 N449 2.145 . S
Co414 N470 2.257 . S
O415 Co413 2.143 . S
O415 Co414 2.160 . S
C416 O417 1.278 . S
C416 O424 1.224 . S
O417 C416 1.278 . S
C418 O419 1.245 . S
C418 O430 1.232 . S
O419 C418 1.245 . S
O420 Co414 2.058 . S
O420 C446 1.269 . S
O421 Co413 2.074 . S
O421 C446 1.257 . S
H422 C447 0.930 . S
H423 C453 0.930 1_565 S
O424 Co413 2.093 . S
O424 C416 1.224 . S
H425 C457 0.929 . S
H426 C459 0.930 . S
H427 C460 0.930 1_565 S
H428 C458 0.929 . S
H429 C461 0.928 . S
O430 Co414 2.057 . S
O430 C418 1.232 . S
H431 C450 0.929 . S
H432 C451 0.929 . S
H433 C463 0.931 . S
H434 C455 0.929 . S
H435 C464 0.930 . S
H436 C456 0.931 . S
O437 Co413 2.097 . S
O437 C465 1.214 . S
H438 C466 0.929 . S
H439 C467 0.929 . S
H440 C468 0.930 . S
H441 C469 0.929 . S
H442 C471 0.930 . S
H443 C448 0.930 . S
H444 C452 0.930 . S
O445 Co414 2.037 . S
O445 C465 1.234 . S
C446 O420 1.269 . S
C446 O421 1.257 . S
C447 H422 0.930 . S
C447 C450 1.388 . S
C447 C452 1.418 . S
C448 H443 0.930 . S
C448 C451 1.404 . S
C448 C452 1.353 . S
N449 Co414 2.145 . S
N449 C450 1.397 . S
N449 C451 1.334 . S
C450 H431 0.929 . S
C450 C447 1.388 . S
C450 N449 1.397 . S
C451 H432 0.929 . S
C451 C448 1.404 . S
C451 N449 1.334 . S
C452 H444 0.930 . S
C452 C447 1.418 . S
C452 C448 1.353 . S
C453 H423 0.930 1_545 S
C453 N454 1.330 . S
C453 C455 1.446 . S
N454 Co413 2.151 1_545 S
N454 C453 1.330 . S
N454 C458 1.418 . S
C455 H434 0.929 . S
C455 C453 1.446 . S
C455 C456 1.332 . S
C456 H436 0.931 . S
C456 C455 1.332 . S
C456 C457 1.267 . S
C457 H425 0.929 . S
C457 C456 1.267 . S
C457 C458 1.251 . S
C458 H428 0.929 . S
C458 N454 1.418 . S
C458 C457 1.251 . S
C459 H426 0.930 . S
C459 C461 1.406 . S
C459 C464 1.261 . S
C460 H427 0.930 1_545 S
C460 N462 1.325 . S
C460 C463 1.357 . S
C461 H429 0.928 . S
C461 C459 1.406 . S
C461 N462 1.261 . S
N462 Co413 2.214 1_545 S
N462 C460 1.325 . S
N462 C461 1.261 . S
C463 H433 0.931 . S
C463 C460 1.357 . S
C463 C464 1.312 . S
C464 H435 0.930 . S
C464 C459 1.261 . S
C464 C463 1.312 . S
C465 O437 1.214 . S
C465 O445 1.234 . S
C466 H438 0.929 . S
C466 C469 1.391 . S
C466 C471 1.391 . S
C467 H439 0.929 . S
C467 C468 1.390 . S
C467 N470 1.391 . S
C468 H440 0.930 . S
C468 C467 1.390 . S
C468 C469 1.392 . S
C469 H441 0.929 . S
C469 C466 1.391 . S
C469 C468 1.392 . S
N470 Co414 2.257 . S
N470 C467 1.391 . S
N470 C471 1.388 . S
C471 H442 0.930 . S
C471 C466 1.391 . S
C471 N470 1.388 . S
H472 C484 0.930 . S
H473 C486 0.930 . S
H474 C487 0.930 . S
H475 C491 0.959 . S
H476 C491 0.959 . S
H477 C491 0.961 . S
H478 C492 0.960 . S
H479 C492 0.961 . S
H480 C492 0.959 . S
H481 C495 0.929 . S
H482 C496 0.931 . S
H483 C498 0.942 . S
C484 H472 0.930 . S
C484 C485 1.399 1_556 S
C484 C489 1.399 1_556 S
C485 C484 1.399 1_554 S
C485 C486 1.376 . S
C486 H473 0.930 . S
C486 C485 1.376 . S
C486 C487 1.388 . S
C487 H474 0.930 . S
C487 C486 1.388 . S
C487 C488 1.390 . S
C488 C487 1.390 . S
C488 C489 1.394 . S
C488 C494 1.465 . S
C489 C484 1.399 1_554 S
C489 C488 1.394 . S
C489 C490 1.516 1_554 S
C490 C489 1.516 1_556 S
C490 C491 1.502 . S
C490 C492 1.561 . S
C490 C493 1.526 1_556 S
C491 H475 0.959 . S
C491 H476 0.959 . S
C491 H477 0.961 . S
C491 C490 1.502 . S
C492 H478 0.960 . S
C492 H479 0.961 . S
C492 H480 0.959 . S
C492 C490 1.561 . S
C493 C490 1.526 1_554 S
C493 C494 1.396 . S
C493 C498 1.387 1_554 S
C494 C488 1.465 . S
C494 C493 1.396 . S
C494 C495 1.399 . S
C495 H481 0.929 . S
C495 C494 1.399 . S
C495 C496 1.385 . S
C496 H482 0.931 . S
C496 C495 1.385 . S
C496 C497 1.389 . S
C497 C496 1.389 . S
C497 C498 1.377 1_554 S
C498 H483 0.942 . S
C498 C493 1.387 1_556 S
C498 C497 1.377 1_556 S
H499 C511 0.928 . S
H500 C513 0.930 . S
H501 C514 0.930 . S
H502 C518 0.959 . S
H503 C518 0.959 . S
H504 C518 0.961 . S
H505 C519 0.960 . S
H506 C519 0.961 . S
H507 C519 0.959 . S
H508 C522 0.929 . S
H509 C523 0.931 . S
H510 C525 0.918 1_556 S
C511 H499 0.928 . S
C511 C512 1.400 1_556 S
C511 C516 1.399 1_556 S
C512 C511 1.400 1_554 S
C512 C513 1.376 . S
C513 H500 0.930 . S
C513 C512 1.376 . S
C513 C514 1.388 . S
C514 H501 0.930 . S
C514 C513 1.388 . S
C514 C515 1.390 . S
C515 C514 1.390 . S
C515 C516 1.394 . S
C515 C521 1.465 . S
C516 C511 1.399 1_554 S
C516 C515 1.394 . S
C516 C517 1.516 1_554 S
C517 C516 1.516 1_556 S
C517 C518 1.502 . S
C517 C519 1.561 . S
C517 C520 1.526 1_556 S
C518 H502 0.959 . S
C518 H503 0.959 . S
C518 H504 0.961 . S
C518 C517 1.502 . S
C519 H505 0.960 . S
C519 H506 0.961 . S
C519 H507 0.959 . S
C519 C517 1.561 . S
C520 C517 1.526 1_554 S
C520 C521 1.396 . S
C520 C525 1.392 . S
C521 C515 1.465 . S
C521 C520 1.396 . S
C521 C522 1.399 . S
C522 H508 0.929 . S
C522 C521 1.399 . S
C522 C523 1.385 . S
C523 H509 0.931 . S
C523 C522 1.385 . S
C523 C524 1.389 . S
C524 C523 1.389 . S
C524 C525 1.396 . S
C525 H510 0.918 1_554 S
C525 C520 1.392 . S
C525 C524 1.396 . S
H526 C538 0.930 . S
H527 C540 0.930 . S
H528 C541 0.930 . S
H529 C545 0.959 . S
H530 C545 0.959 . S
H531 C545 0.961 . S
H532 C546 0.960 . S
H533 C546 0.961 . S
H534 C546 0.959 . S
H535 C549 0.929 . S
H536 C550 0.931 . S
H537 C552 0.930 . S
C538 H526 0.930 . S
C538 C539 1.399 . S
C538 C543 1.399 . S
C539 C538 1.399 . S
C539 C540 1.376 . S
C540 H527 0.930 . S
C540 C539 1.376 . S
C540 C541 1.388 . S
C541 H528 0.930 . S
C541 C540 1.388 . S
C541 C542 1.390 . S
C542 C541 1.390 . S
C542 C543 1.394 . S
C542 C548 1.465 . S
C543 C538 1.399 . S
C543 C542 1.394 . S
C543 C544 1.516 . S
C544 C543 1.516 . S
C544 C545 1.502 . S
C544 C546 1.561 . S
C544 C547 1.526 . S
C545 H529 0.959 . S
C545 H530 0.959 . S
C545 H531 0.961 . S
C545 C544 1.502 . S
C546 H532 0.960 . S
C546 H533 0.961 . S
C546 H534 0.959 . S
C546 C544 1.561 . S
C547 C544 1.526 . S
C547 C548 1.396 . S
C547 C552 1.390 . S
C548 C542 1.465 . S
C548 C547 1.396 . S
C548 C549 1.399 . S
C549 H535 0.929 . S
C549 C548 1.399 . S
C549 C550 1.385 . S
C550 H536 0.931 . S
C550 C549 1.385 . S
C550 C551 1.389 . S
C551 C550 1.389 . S
C551 C552 1.387 . S
C552 H537 0.930 . S
C552 C547 1.390 . S
C552 C551 1.387 . S
H553 C565 0.930 . S
H554 C567 0.930 . S
H555 C568 0.930 . S
H556 C572 0.959 . S
H557 C572 0.959 . S
H558 C572 0.961 . S
H559 C573 0.960 . S
H560 C573 0.961 . S
H561 C573 0.959 . S
H562 C576 0.929 . S
H563 C577 0.931 . S
H564 C579 0.930 . S
C565 H553 0.930 . S
C565 C566 1.399 . S
C565 C570 1.399 . S
C566 C565 1.399 . S
C566 C567 1.376 . S
C567 H554 0.930 . S
C567 C566 1.376 . S
C567 C568 1.388 . S
C568 H555 0.930 . S
C568 C567 1.388 . S
C568 C569 1.390 . S
C569 C568 1.390 . S
C569 C570 1.394 . S
C569 C575 1.465 . S
C570 C565 1.399 . S
C570 C569 1.394 . S
C570 C571 1.516 . S
C571 C570 1.516 . S
C571 C572 1.502 . S
C571 C573 1.561 . S
C571 C574 1.526 . S
C572 H556 0.959 . S
C572 H557 0.959 . S
C572 H558 0.961 . S
C572 C571 1.502 . S
C573 H559 0.960 . S
C573 H560 0.961 . S
C573 H561 0.959 . S
C573 C571 1.561 . S
C574 C571 1.526 . S
C574 C575 1.396 . S
C574 C579 1.390 . S
C575 C569 1.465 . S
C575 C574 1.396 . S
C575 C576 1.399 . S
C576 H562 0.929 . S
C576 C575 1.399 . S
C576 C577 1.385 . S
C577 H563 0.931 . S
C577 C576 1.385 . S
C577 C578 1.389 . S
C578 C577 1.389 . S
C578 C579 1.387 . S
C579 H564 0.930 . S
C579 C574 1.390 . S
C579 C578 1.387 . S
H580 C592 0.930 . S
H581 C594 0.930 . S
H582 C595 0.930 . S
H583 C599 0.959 . S
H584 C599 0.959 . S
H585 C599 0.961 . S
H586 C600 0.960 . S
H587 C600 0.961 . S
H588 C600 0.959 . S
H589 C603 0.929 . S
H590 C604 0.931 . S
H591 C606 0.930 . S
C592 H580 0.930 . S
C592 C593 1.399 . S
C592 C597 1.399 . S
C593 C592 1.399 . S
C593 C594 1.376 . S
C594 H581 0.930 . S
C594 C593 1.376 . S
C594 C595 1.388 . S
C595 H582 0.930 . S
C595 C594 1.388 . S
C595 C596 1.390 . S
C596 C595 1.390 . S
C596 C597 1.394 . S
C596 C602 1.465 . S
C597 C592 1.399 . S
C597 C596 1.394 . S
C597 C598 1.516 . S
C598 C597 1.516 . S
C598 C599 1.502 . S
C598 C600 1.561 . S
C598 C601 1.526 . S
C599 H583 0.959 . S
C599 H584 0.959 . S
C599 H585 0.961 . S
C599 C598 1.502 . S
C600 H586 0.960 . S
C600 H587 0.961 . S
C600 H588 0.959 . S
C600 C598 1.561 . S
C601 C598 1.526 . S
C601 C602 1.396 . S
C601 C606 1.390 . S
C602 C596 1.465 . S
C602 C601 1.396 . S
C602 C603 1.399 . S
C603 H589 0.929 . S
C603 C602 1.399 . S
C603 C604 1.385 . S
C604 H590 0.931 . S
C604 C603 1.385 . S
C604 C605 1.389 . S
C605 C604 1.389 . S
C605 C606 1.387 . S
C606 H591 0.930 . S
C606 C601 1.390 . S
C606 C605 1.387 . S
H607 C619 0.930 . S
H608 C621 0.930 . S
H609 C622 0.930 . S
H610 C626 0.959 . S
H611 C626 0.959 . S
H612 C626 0.961 . S
H613 C627 0.960 . S
H614 C627 0.961 . S
H615 C627 0.959 . S
H616 C630 0.929 . S
H617 C631 0.931 . S
H618 C633 0.930 . S
C619 H607 0.930 . S
C619 C620 1.399 . S
C619 C624 1.399 . S
C620 C619 1.399 . S
C620 C621 1.376 . S
C621 H608 0.930 . S
C621 C620 1.376 . S
C621 C622 1.388 . S
C622 H609 0.930 . S
C622 C621 1.388 . S
C622 C623 1.390 . S
C623 C622 1.390 . S
C623 C624 1.394 . S
C623 C629 1.465 . S
C624 C619 1.399 . S
C624 C623 1.394 . S
C624 C625 1.516 . S
C625 C624 1.516 . S
C625 C626 1.502 . S
C625 C627 1.561 . S
C625 C628 1.526 . S
C626 H610 0.959 . S
C626 H611 0.959 . S
C626 H612 0.961 . S
C626 C625 1.502 . S
C627 H613 0.960 . S
C627 H614 0.961 . S
C627 H615 0.959 . S
C627 C625 1.561 . S
C628 C625 1.526 . S
C628 C629 1.396 . S
C628 C633 1.390 . S
C629 C623 1.465 . S
C629 C628 1.396 . S
C629 C630 1.399 . S
C630 H616 0.929 . S
C630 C629 1.399 . S
C630 C631 1.385 . S
C631 H617 0.931 . S
C631 C630 1.385 . S
C631 C632 1.389 . S
C632 C631 1.389 . S
C632 C633 1.387 . S
C633 H618 0.930 . S
C633 C628 1.390 . S
C633 C632 1.387 . S
H634 C646 0.930 . S
H635 C648 0.930 . S
H636 C649 0.930 . S
H637 C653 0.959 . S
H638 C653 0.959 . S
H639 C653 0.961 . S
H640 C654 0.960 . S
H641 C654 0.961 . S
H642 C654 0.959 . S
H643 C657 0.929 . S
H644 C658 0.931 . S
H645 C660 0.930 . S
C646 H634 0.930 . S
C646 C647 1.399 . S
C646 C651 1.399 . S
C647 C646 1.399 . S
C647 C648 1.376 . S
C648 H635 0.930 . S
C648 C647 1.376 . S
C648 C649 1.388 . S
C649 H636 0.930 . S
C649 C648 1.388 . S
C649 C650 1.390 . S
C650 C649 1.390 . S
C650 C651 1.394 . S
C650 C656 1.465 . S
C651 C646 1.399 . S
C651 C650 1.394 . S
C651 C652 1.516 . S
C652 C651 1.516 . S
C652 C653 1.502 . S
C652 C654 1.561 . S
C652 C655 1.526 . S
C653 H637 0.959 . S
C653 H638 0.959 . S
C653 H639 0.961 . S
C653 C652 1.502 . S
C654 H640 0.960 . S
C654 H641 0.961 . S
C654 H642 0.959 . S
C654 C652 1.561 . S
C655 C652 1.526 . S
C655 C656 1.396 . S
C655 C660 1.390 . S
C656 C650 1.465 . S
C656 C655 1.396 . S
C656 C657 1.399 . S
C657 H643 0.929 . S
C657 C656 1.399 . S
C657 C658 1.385 . S
C658 H644 0.931 . S
C658 C657 1.385 . S
C658 C659 1.389 . S
C659 C658 1.389 . S
C659 C660 1.387 . S
C660 H645 0.930 . S
C660 C655 1.390 . S
C660 C659 1.387 . S
H661 C673 0.930 . S
H662 C675 0.930 . S
H663 C676 0.930 . S
H664 C680 0.959 . S
H665 C680 0.959 . S
H666 C680 0.961 . S
H667 C681 0.960 . S
H668 C681 0.961 . S
H669 C681 0.959 . S
H670 C684 0.929 . S
H671 C685 0.931 . S
H672 C687 0.930 . S
C673 H661 0.930 . S
C673 C674 1.399 . S
C673 C678 1.399 . S
C674 C673 1.399 . S
C674 C675 1.376 . S
C675 H662 0.930 . S
C675 C674 1.376 . S
C675 C676 1.388 . S
C676 H663 0.930 . S
C676 C675 1.388 . S
C676 C677 1.390 . S
C677 C676 1.390 . S
C677 C678 1.394 . S
C677 C683 1.465 . S
C678 C673 1.399 . S
C678 C677 1.394 . S
C678 C679 1.516 . S
C679 C678 1.516 . S
C679 C680 1.502 . S
C679 C681 1.561 . S
C679 C682 1.526 . S
C680 H664 0.959 . S
C680 H665 0.959 . S
C680 H666 0.961 . S
C680 C679 1.502 . S
C681 H667 0.960 . S
C681 H668 0.961 . S
C681 H669 0.959 . S
C681 C679 1.561 . S
C682 C679 1.526 . S
C682 C683 1.396 . S
C682 C687 1.390 . S
C683 C677 1.465 . S
C683 C682 1.396 . S
C683 C684 1.399 . S
C684 H670 0.929 . S
C684 C683 1.399 . S
C684 C685 1.385 . S
C685 H671 0.931 . S
C685 C684 1.385 . S
C685 C686 1.389 . S
C686 C685 1.389 . S
C686 C687 1.387 . S
C687 H672 0.930 . S
C687 C682 1.390 . S
C687 C686 1.387 . S
H688 C700 0.930 1_545 S
H689 C702 0.930 . S
H690 C703 0.930 . S
H691 C707 0.959 . S
H692 C707 0.959 . S
H693 C707 0.961 . S
H694 C708 0.960 . S
H695 C708 0.961 . S
H696 C708 0.959 1_565 S
H697 C711 0.929 . S
H698 C712 0.931 . S
H699 C714 0.930 . S
C700 H688 0.930 1_565 S
C700 C701 1.399 . S
C700 C705 1.399 . S
C701 C700 1.399 . S
C701 C702 1.376 . S
C702 H689 0.930 . S
C702 C701 1.376 . S
C702 C703 1.388 . S
C703 H690 0.930 . S
C703 C702 1.388 . S
C703 C704 1.390 . S
C704 C703 1.390 . S
C704 C705 1.394 . S
C704 C710 1.465 . S
C705 C700 1.399 . S
C705 C704 1.394 . S
C705 C706 1.516 1_565 S
C706 C705 1.516 1_545 S
C706 C707 1.502 . S
C706 C708 1.561 . S
C706 C709 1.526 . S
C707 H691 0.959 . S
C707 H692 0.959 . S
C707 H693 0.961 . S
C707 C706 1.502 . S
C708 H694 0.960 . S
C708 H695 0.961 . S
C708 H696 0.959 1_545 S
C708 C706 1.561 . S
C709 C706 1.526 . S
C709 C710 1.396 1_545 S
C709 C714 1.390 . S
C710 C704 1.465 . S
C710 C709 1.396 1_565 S
C710 C711 1.399 . S
C711 H697 0.929 . S
C711 C710 1.399 . S
C711 C712 1.385 . S
C712 H698 0.931 . S
C712 C711 1.385 . S
C712 C713 1.389 1_565 S
C713 C712 1.389 1_545 S
C713 C714 1.387 . S
C714 H699 0.930 . S
C714 C709 1.390 . S
C714 C713 1.387 . S
H715 C727 0.930 . S
H716 C729 0.930 . S
H717 C730 0.930 . S
H718 C734 0.959 . S
H719 C734 0.959 . S
H720 C734 0.961 . S
H721 C735 0.960 . S
H722 C735 0.961 . S
H723 C735 0.959 . S
H724 C738 0.929 . S
H725 C739 0.931 . S
H726 C741 0.930 . S
C727 H715 0.930 . S
C727 C728 1.399 1_545 S
C727 C732 1.399 . S
C728 C727 1.399 1_565 S
C728 C729 1.376 . S
C729 H716 0.930 . S
C729 C728 1.376 . S
C729 C730 1.388 . S
C730 H717 0.930 . S
C730 C729 1.388 . S
C730 C731 1.390 . S
C731 C730 1.390 . S
C731 C732 1.394 1_565 S
C731 C737 1.465 . S
C732 C727 1.399 . S
C732 C731 1.394 1_545 S
C732 C733 1.516 . S
C733 C732 1.516 . S
C733 C734 1.502 . S
C733 C735 1.561 . S
C733 C736 1.526 . S
C734 H718 0.959 . S
C734 H719 0.959 . S
C734 H720 0.961 . S
C734 C733 1.502 . S
C735 H721 0.960 . S
C735 H722 0.961 . S
C735 H723 0.959 . S
C735 C733 1.561 . S
C736 C733 1.526 . S
C736 C737 1.396 1_545 S
C736 C741 1.390 . S
C737 C731 1.465 . S
C737 C736 1.396 1_565 S
C737 C738 1.399 . S
C738 H724 0.929 . S
C738 C737 1.399 . S
C738 C739 1.385 . S
C739 H725 0.931 . S
C739 C738 1.385 . S
C739 C740 1.389 1_565 S
C740 C739 1.389 1_545 S
C740 C741 1.387 . S
C741 H726 0.930 . S
C741 C736 1.390 . S
C741 C740 1.387 . S
H742 C754 0.930 . S
H743 C756 0.929 1_545 S
H744 C757 0.930 . S
H745 C761 0.959 . S
H746 C761 0.959 . S
H747 C761 0.961 . S
H748 C762 0.960 . S
H749 C762 0.961 . S
H750 C762 0.959 1_545 S
H751 C765 0.929 . S
H752 C766 0.931 . S
H753 C768 0.930 1_565 S
C754 H742 0.930 . S
C754 C755 1.399 . S
C754 C759 1.399 . S
C755 C754 1.399 . S
C755 C756 1.380 . S
C756 H743 0.929 1_565 S
C756 C755 1.380 . S
C756 C757 1.386 1_565 S
C757 H744 0.930 . S
C757 C756 1.386 1_545 S
C757 C758 1.390 . S
C758 C757 1.390 . S
C758 C759 1.394 1_545 S
C758 C764 1.465 . S
C759 C754 1.399 . S
C759 C758 1.394 1_565 S
C759 C760 1.516 . S
C760 C759 1.516 . S
C760 C761 1.502 . S
C760 C762 1.561 . S
C760 C763 1.526 1_565 S
C761 H745 0.959 . S
C761 H746 0.959 . S
C761 H747 0.961 . S
C761 C760 1.502 . S
C762 H748 0.960 . S
C762 H749 0.961 . S
C762 H750 0.959 1_565 S
C762 C760 1.561 . S
C763 C760 1.526 1_545 S
C763 C764 1.396 . S
C763 C768 1.390 . S
C764 C758 1.465 . S
C764 C763 1.396 . S
C764 C765 1.399 . S
C765 H751 0.929 . S
C765 C764 1.399 . S
C765 C766 1.385 . S
C766 H752 0.931 . S
C766 C765 1.385 . S
C766 C767 1.389 . S
C767 C766 1.389 . S
C767 C768 1.387 . S
C768 H753 0.930 1_545 S
C768 C763 1.390 . S
C768 C767 1.387 . S
H769 C781 0.930 1_545 S
H770 C783 0.930 . S
H771 C784 0.930 . S
H772 C788 0.959 . S
H773 C788 0.959 . S
H774 C788 0.961 . S
H775 C789 0.960 . S
H776 C789 0.961 . S
H777 C789 0.959 . S
H778 C792 0.929 . S
H779 C793 0.931 . S
H780 C795 0.930 . S
C781 H769 0.930 1_565 S
C781 C782 1.399 . S
C781 C786 1.399 1_565 S
C782 C781 1.399 . S
C782 C783 1.376 . S
C783 H770 0.930 . S
C783 C782 1.376 . S
C783 C784 1.388 . S
C784 H771 0.930 . S
C784 C783 1.388 . S
C784 C785 1.390 . S
C785 C784 1.390 . S
C785 C786 1.394 1_565 S
C785 C791 1.465 . S
C786 C781 1.399 1_545 S
C786 C785 1.394 1_545 S
C786 C787 1.516 . S
C787 C786 1.516 . S
C787 C788 1.502 . S
C787 C789 1.561 . S
C787 C790 1.526 . S
C788 H772 0.959 . S
C788 H773 0.959 . S
C788 H774 0.961 . S
C788 C787 1.502 . S
C789 H775 0.960 . S
C789 H776 0.961 . S
C789 H777 0.959 . S
C789 C787 1.561 . S
C790 C787 1.526 . S
C790 C791 1.396 1_545 S
C790 C795 1.390 . S
C791 C785 1.465 . S
C791 C790 1.396 1_565 S
C791 C792 1.399 . S
C792 H778 0.929 . S
C792 C791 1.399 . S
C792 C793 1.385 . S
C793 H779 0.931 . S
C793 C792 1.385 . S
C793 C794 1.389 1_565 S
C794 C793 1.389 1_545 S
C794 C795 1.387 . S
C795 H780 0.930 . S
C795 C790 1.390 . S
C795 C794 1.387 . S
H796 C808 0.930 . S
H797 C810 0.930 . S
H798 C811 0.930 . S
H799 C815 0.959 . S
H800 C815 0.959 . S
H801 C815 0.961 . S
H802 C816 0.960 . S
H803 C816 0.961 . S
H804 C816 0.959 . S
H805 C819 0.929 . S
H806 C820 0.931 . S
H807 C822 0.930 . S
C808 H796 0.930 . S
C808 C809 1.399 . S
C808 C813 1.399 . S
C809 C808 1.399 . S
C809 C810 1.376 1_554 S
C810 H797 0.930 . S
C810 C809 1.376 1_556 S
C810 C811 1.388 . S
C811 H798 0.930 . S
C811 C810 1.388 . S
C811 C812 1.390 1_556 S
C812 C811 1.390 1_554 S
C812 C813 1.394 . S
C812 C818 1.465 1_565 S
C813 C808 1.399 . S
C813 C812 1.394 . S
C813 C814 1.516 1_565 S
C814 C813 1.516 1_545 S
C814 C815 1.502 . S
C814 C816 1.561 1_545 S
C814 C817 1.526 . S
C815 H799 0.959 . S
C815 H800 0.959 . S
C815 H801 0.961 . S
C815 C814 1.502 . S
C816 H802 0.960 . S
C816 H803 0.961 . S
C816 H804 0.959 . S
C816 C814 1.561 1_565 S
C817 C814 1.526 . S
C817 C818 1.396 . S
C817 C822 1.390 . S
C818 C812 1.465 1_545 S
C818 C817 1.396 . S
C818 C819 1.399 1_554 S
C819 H805 0.929 . S
C819 C818 1.399 1_556 S
C819 C820 1.385 . S
C820 H806 0.931 . S
C820 C819 1.385 . S
C820 C821 1.389 1_556 S
C821 C820 1.389 1_554 S
C821 C822 1.387 . S
C822 H807 0.930 . S
C822 C817 1.390 . S
C822 C821 1.387 . S
H823 C835 0.930 . S
H824 C837 0.930 . S
H825 C838 0.930 . S
H826 C842 0.959 . S
H827 C842 0.959 . S
H828 C842 0.961 . S
H829 C843 0.960 . S
H830 C843 0.961 . S
H831 C843 0.959 . S
H832 C846 0.929 . S
H833 C847 0.931 . S
H834 C849 0.930 . S
C835 H823 0.930 . S
C835 C836 1.399 . S
C835 C840 1.399 . S
C836 C835 1.399 . S
C836 C837 1.376 . S
C837 H824 0.930 . S
C837 C836 1.376 . S
C837 C838 1.388 . S
C838 H825 0.930 . S
C838 C837 1.388 . S
C838 C839 1.390 . S
C839 C838 1.390 . S
C839 C840 1.394 . S
C839 C845 1.465 1_565 S
C840 C835 1.399 . S
C840 C839 1.394 . S
C840 C841 1.516 . S
C841 C840 1.516 . S
C841 C842 1.502 . S
C841 C843 1.561 1_565 S
C841 C844 1.526 1_565 S
C842 H826 0.959 . S
C842 H827 0.959 . S
C842 H828 0.961 . S
C842 C841 1.502 . S
C843 H829 0.960 . S
C843 H830 0.961 . S
C843 H831 0.959 . S
C843 C841 1.561 1_545 S
C844 C841 1.526 1_545 S
C844 C845 1.396 . S
C844 C849 1.390 . S
C845 C839 1.465 1_545 S
C845 C844 1.396 . S
C845 C846 1.399 . S
C846 H832 0.929 . S
C846 C845 1.399 . S
C846 C847 1.385 . S
C847 H833 0.931 . S
C847 C846 1.385 . S
C847 C848 1.389 . S
C848 C847 1.389 . S
C848 C849 1.387 . S
C849 H834 0.930 . S
C849 C844 1.390 . S
C849 C848 1.387 . S
H850 C862 0.930 . S
H851 C864 0.930 1_556 S
H852 C865 0.930 . S
H853 C869 0.959 . S
H854 C869 0.959 . S
H855 C869 0.961 . S
H856 C870 0.960 . S
H857 C870 0.961 1_655 S
H858 C870 0.959 1_655 S
H859 C873 0.929 . S
H860 C874 0.931 . S
H861 C876 0.930 . S
C862 H850 0.930 . S
C862 C863 1.399 . S
C862 C867 1.399 . S
C863 C862 1.399 . S
C863 C864 1.376 . S
C864 H851 0.930 1_554 S
C864 C863 1.376 . S
C864 C865 1.388 1_554 S
C865 H852 0.930 . S
C865 C864 1.388 1_556 S
C865 C866 1.390 1_556 S
C866 C865 1.390 1_554 S
C866 C867 1.394 . S
C866 C872 1.465 1_455 S
C867 C862 1.399 . S
C867 C866 1.394 . S
C867 C868 1.516 . S
C868 C867 1.516 . S
C868 C869 1.502 . S
C868 C870 1.561 . S
C868 C871 1.526 1_455 S
C869 H853 0.959 . S
C869 H854 0.959 . S
C869 H855 0.961 . S
C869 C868 1.502 . S
C870 H856 0.960 . S
C870 H857 0.961 1_455 S
C870 H858 0.959 1_455 S
C870 C868 1.561 . S
C871 C868 1.526 1_655 S
C871 C872 1.396 . S
C871 C876 1.390 . S
C872 C866 1.465 1_655 S
C872 C871 1.396 . S
C872 C873 1.399 1_554 S
C873 H859 0.929 . S
C873 C872 1.399 1_556 S
C873 C874 1.385 . S
C874 H860 0.931 . S
C874 C873 1.385 . S
C874 C875 1.389 1_556 S
C875 C874 1.389 1_554 S
C875 C876 1.387 . S
C876 H861 0.930 . S
C876 C871 1.390 . S
C876 C875 1.387 . S
H877 C889 0.930 . S
H878 C891 0.930 . S
H879 C892 0.930 . S
H880 C896 0.959 . S
H881 C896 0.959 . S
H882 C896 0.961 . S
H883 C897 0.960 . S
H884 C897 0.961 1_655 S
H885 C897 0.959 . S
H886 C900 0.929 . S
H887 C901 0.931 . S
H888 C903 0.930 . S
C889 H877 0.930 . S
C889 C890 1.399 . S
C889 C894 1.399 . S
C890 C889 1.399 . S
C890 C891 1.376 . S
C891 H878 0.930 . S
C891 C890 1.376 . S
C891 C892 1.388 . S
C892 H879 0.930 . S
C892 C891 1.388 . S
C892 C893 1.390 . S
C893 C892 1.390 . S
C893 C894 1.394 . S
C893 C899 1.465 1_455 S
C894 C889 1.399 . S
C894 C893 1.394 . S
C894 C895 1.516 1_455 S
C895 C894 1.516 1_655 S
C895 C896 1.502 . S
C895 C897 1.561 1_655 S
C895 C898 1.526 . S
C896 H880 0.959 . S
C896 H881 0.959 . S
C896 H882 0.961 . S
C896 C895 1.502 . S
C897 H883 0.960 . S
C897 H884 0.961 1_455 S
C897 H885 0.959 . S
C897 C895 1.561 1_455 S
C898 C895 1.526 . S
C898 C899 1.396 . S
C898 C903 1.390 . S
C899 C893 1.465 1_655 S
C899 C898 1.396 . S
C899 C900 1.399 . S
C900 H886 0.929 . S
C900 C899 1.399 . S
C900 C901 1.385 . S
C901 H887 0.931 . S
C901 C900 1.385 . S
C901 C902 1.389 . S
C902 C901 1.389 . S
C902 C903 1.387 . S
C903 H888 0.930 . S
C903 C898 1.390 . S
C903 C902 1.387 . S
C485 C347 1.498 . S
C497 C52 1.496 . S
C512 C288 1.500 . S
C524 C111 1.497 . S
C539 C465 1.498 . S
C551 C170 1.496 . S
C566 C406 1.515 . S
C578 C229 1.517 . S
C593 C3 1.472 . S
C605 C121 1.474 . S
C620 C62 1.508 . S
C632 C180 1.508 . S
C647 C92 1.505 . S
C659 C210 1.506 . S
C674 C33 1.505 . S
C686 C151 1.506 . S
C701 C239 1.483 . S
C713 C357 1.480 . S
C728 C416 1.503 . S
C740 C298 1.501 . S
C755 C446 1.506 . S
C767 C328 1.506 . S
C782 C269 1.505 . S
C794 C387 1.506 . S
C809 C64 1.499 . S
C821 C5 1.500 . S
C836 C123 1.504 . S
C848 C182 1.502 . S
C863 C241 1.499 . S
C875 C300 1.502 . S
C890 C359 1.504 . S
C902 C418 1.502 . S
