# Generated by pormake.
# Topology ukc, (4)-cn, num edge types: 1
# Building blocks:
#     Node 0, Type 0, BuildingBlock: GALJAG_clean_sbu_0, # of connection points: 4
#     Node 1, Type 0, BuildingBlock: GALJAG_clean_sbu_0, # of connection points: 4
#     Node 2, Type 0, BuildingBlock: GALJAG_clean_sbu_0, # of connection points: 4
#     Node 3, Type 0, BuildingBlock: GALJAG_clean_sbu_0, # of connection points: 4
#     Node 4, Type 0, BuildingBlock: GALJAG_clean_sbu_0, # of connection points: 4
#     Node 5, Type 0, BuildingBlock: GALJAG_clean_sbu_0, # of connection points: 4
#     Node 6, Type 0, BuildingBlock: GALJAG_clean_sbu_0, # of connection points: 4
#     Node 7, Type 0, BuildingBlock: GALJAG_clean_sbu_0, # of connection points: 4
#     Node 8, Type 0, BuildingBlock: GALJAG_clean_sbu_0, # of connection points: 4
#     Node 9, Type 0, BuildingBlock: GALJAG_clean_sbu_0, # of connection points: 4
#     Node 10, Type 0, BuildingBlock: GALJAG_clean_sbu_0, # of connection points: 4
#     Node 11, Type 0, BuildingBlock: GALJAG_clean_sbu_0, # of connection points: 4
#     Node 12, Type 0, BuildingBlock: GALJAG_clean_sbu_0, # of connection points: 4
#     Node 13, Type 0, BuildingBlock: GALJAG_clean_sbu_0, # of connection points: 4
#     Node 14, Type 0, BuildingBlock: GALJAG_clean_sbu_0, # of connection points: 4
#     Node 15, Type 0, BuildingBlock: GALJAG_clean_sbu_0, # of connection points: 4
#     Node 16, Type 0, BuildingBlock: GALJAG_clean_sbu_0, # of connection points: 4
#     Node 17, Type 0, BuildingBlock: GALJAG_clean_sbu_0, # of connection points: 4
#     Node 18, Type 0, BuildingBlock: GALJAG_clean_sbu_0, # of connection points: 4
#     Node 19, Type 0, BuildingBlock: GALJAG_clean_sbu_0, # of connection points: 4
#     Node 20, Type 0, BuildingBlock: GALJAG_clean_sbu_0, # of connection points: 4
#     Node 21, Type 0, BuildingBlock: GALJAG_clean_sbu_0, # of connection points: 4
#     Node 22, Type 0, BuildingBlock: GALJAG_clean_sbu_0, # of connection points: 4
#     Node 23, Type 0, BuildingBlock: GALJAG_clean_sbu_0, # of connection points: 4
#     Node 24, Type 0, BuildingBlock: GALJAG_clean_sbu_0, # of connection points: 4
#     Node 25, Type 0, BuildingBlock: GALJAG_clean_sbu_0, # of connection points: 4
#     Node 26, Type 0, BuildingBlock: GALJAG_clean_sbu_0, # of connection points: 4
#     Node 27, Type 0, BuildingBlock: GALJAG_clean_sbu_0, # of connection points: 4
#     Node 28, Type 0, BuildingBlock: GALJAG_clean_sbu_0, # of connection points: 4
#     Node 29, Type 0, BuildingBlock: GALJAG_clean_sbu_0, # of connection points: 4
#     Node 30, Type 0, BuildingBlock: GALJAG_clean_sbu_0, # of connection points: 4
#     Node 31, Type 0, BuildingBlock: GALJAG_clean_sbu_0, # of connection points: 4
#     Edge 32, Type (0, 0), BuildingBlock: XIVTED_clean_linker_0, # of connection points: 2
#     Edge 33, Type (0, 0), BuildingBlock: XIVTED_clean_linker_0, # of connection points: 2
#     Edge 34, Type (0, 0), BuildingBlock: XIVTED_clean_linker_0, # of connection points: 2
#     Edge 35, Type (0, 0), BuildingBlock: XIVTED_clean_linker_0, # of connection points: 2
#     Edge 36, Type (0, 0), BuildingBlock: XIVTED_clean_linker_0, # of connection points: 2
#     Edge 37, Type (0, 0), BuildingBlock: XIVTED_clean_linker_0, # of connection points: 2
#     Edge 38, Type (0, 0), BuildingBlock: XIVTED_clean_linker_0, # of connection points: 2
#     Edge 39, Type (0, 0), BuildingBlock: XIVTED_clean_linker_0, # of connection points: 2
#     Edge 40, Type (0, 0), BuildingBlock: XIVTED_clean_linker_0, # of connection points: 2
#     Edge 41, Type (0, 0), BuildingBlock: XIVTED_clean_linker_0, # of connection points: 2
#     Edge 42, Type (0, 0), BuildingBlock: XIVTED_clean_linker_0, # of connection points: 2
#     Edge 43, Type (0, 0), BuildingBlock: XIVTED_clean_linker_0, # of connection points: 2
#     Edge 44, Type (0, 0), BuildingBlock: XIVTED_clean_linker_0, # of connection points: 2
#     Edge 45, Type (0, 0), BuildingBlock: XIVTED_clean_linker_0, # of connection points: 2
#     Edge 46, Type (0, 0), BuildingBlock: XIVTED_clean_linker_0, # of connection points: 2
#     Edge 47, Type (0, 0), BuildingBlock: XIVTED_clean_linker_0, # of connection points: 2
#     Edge 48, Type (0, 0), BuildingBlock: XIVTED_clean_linker_0, # of connection points: 2
#     Edge 49, Type (0, 0), BuildingBlock: XIVTED_clean_linker_0, # of connection points: 2
#     Edge 50, Type (0, 0), BuildingBlock: XIVTED_clean_linker_0, # of connection points: 2
#     Edge 51, Type (0, 0), BuildingBlock: XIVTED_clean_linker_0, # of connection points: 2
#     Edge 52, Type (0, 0), BuildingBlock: XIVTED_clean_linker_0, # of connection points: 2
#     Edge 53, Type (0, 0), BuildingBlock: XIVTED_clean_linker_0, # of connection points: 2
#     Edge 54, Type (0, 0), BuildingBlock: XIVTED_clean_linker_0, # of connection points: 2
#     Edge 55, Type (0, 0), BuildingBlock: XIVTED_clean_linker_0, # of connection points: 2
#     Edge 56, Type (0, 0), BuildingBlock: XIVTED_clean_linker_0, # of connection points: 2
#     Edge 57, Type (0, 0), BuildingBlock: XIVTED_clean_linker_0, # of connection points: 2
#     Edge 58, Type (0, 0), BuildingBlock: XIVTED_clean_linker_0, # of connection points: 2
#     Edge 59, Type (0, 0), BuildingBlock: XIVTED_clean_linker_0, # of connection points: 2
#     Edge 60, Type (0, 0), BuildingBlock: XIVTED_clean_linker_0, # of connection points: 2
#     Edge 61, Type (0, 0), BuildingBlock: XIVTED_clean_linker_0, # of connection points: 2
#     Edge 62, Type (0, 0), BuildingBlock: XIVTED_clean_linker_0, # of connection points: 2
#     Edge 63, Type (0, 0), BuildingBlock: XIVTED_clean_linker_0, # of connection points: 2
#     Edge 64, Type (0, 0), BuildingBlock: XIVTED_clean_linker_0, # of connection points: 2
#     Edge 65, Type (0, 0), BuildingBlock: XIVTED_clean_linker_0, # of connection points: 2
#     Edge 66, Type (0, 0), BuildingBlock: XIVTED_clean_linker_0, # of connection points: 2
#     Edge 67, Type (0, 0), BuildingBlock: XIVTED_clean_linker_0, # of connection points: 2
#     Edge 68, Type (0, 0), BuildingBlock: XIVTED_clean_linker_0, # of connection points: 2
#     Edge 69, Type (0, 0), BuildingBlock: XIVTED_clean_linker_0, # of connection points: 2
#     Edge 70, Type (0, 0), BuildingBlock: XIVTED_clean_linker_0, # of connection points: 2
#     Edge 71, Type (0, 0), BuildingBlock: XIVTED_clean_linker_0, # of connection points: 2
#     Edge 72, Type (0, 0), BuildingBlock: XIVTED_clean_linker_0, # of connection points: 2
#     Edge 73, Type (0, 0), BuildingBlock: XIVTED_clean_linker_0, # of connection points: 2
#     Edge 74, Type (0, 0), BuildingBlock: XIVTED_clean_linker_0, # of connection points: 2
#     Edge 75, Type (0, 0), BuildingBlock: XIVTED_clean_linker_0, # of connection points: 2
#     Edge 76, Type (0, 0), BuildingBlock: XIVTED_clean_linker_0, # of connection points: 2
#     Edge 77, Type (0, 0), BuildingBlock: XIVTED_clean_linker_0, # of connection points: 2
#     Edge 78, Type (0, 0), BuildingBlock: XIVTED_clean_linker_0, # of connection points: 2
#     Edge 79, Type (0, 0), BuildingBlock: XIVTED_clean_linker_0, # of connection points: 2
#     Edge 80, Type (0, 0), BuildingBlock: XIVTED_clean_linker_0, # of connection points: 2
#     Edge 81, Type (0, 0), BuildingBlock: XIVTED_clean_linker_0, # of connection points: 2
#     Edge 82, Type (0, 0), BuildingBlock: XIVTED_clean_linker_0, # of connection points: 2
#     Edge 83, Type (0, 0), BuildingBlock: XIVTED_clean_linker_0, # of connection points: 2
#     Edge 84, Type (0, 0), BuildingBlock: XIVTED_clean_linker_0, # of connection points: 2
#     Edge 85, Type (0, 0), BuildingBlock: XIVTED_clean_linker_0, # of connection points: 2
#     Edge 86, Type (0, 0), BuildingBlock: XIVTED_clean_linker_0, # of connection points: 2
#     Edge 87, Type (0, 0), BuildingBlock: XIVTED_clean_linker_0, # of connection points: 2
#     Edge 88, Type (0, 0), BuildingBlock: XIVTED_clean_linker_0, # of connection points: 2
#     Edge 89, Type (0, 0), BuildingBlock: XIVTED_clean_linker_0, # of connection points: 2
#     Edge 90, Type (0, 0), BuildingBlock: XIVTED_clean_linker_0, # of connection points: 2
#     Edge 91, Type (0, 0), BuildingBlock: XIVTED_clean_linker_0, # of connection points: 2
#     Edge 92, Type (0, 0), BuildingBlock: XIVTED_clean_linker_0, # of connection points: 2
#     Edge 93, Type (0, 0), BuildingBlock: XIVTED_clean_linker_0, # of connection points: 2
#     Edge 94, Type (0, 0), BuildingBlock: XIVTED_clean_linker_0, # of connection points: 2
#     Edge 95, Type (0, 0), BuildingBlock: XIVTED_clean_linker_0, # of connection points: 2
# Relax obj value: 0.060
# Max RMSD: 0.082
# Mean RMSD: 0.082
data_MOF--net-ukc--node1-GALJAG_clean_sbu_0--edge1-XIVTED_clean_linker_0
_symmetry_space_group_name_H-M    P1
_symmetry_Int_Tables_number       1
_symmetry_cell_setting            triclinic
loop_
_symmetry_equiv_pos_as_xyz
'x, y, z'
_cell_length_a     43.560887
_cell_length_b     43.531884
_cell_length_c     93.639337
_cell_angle_alpha  89.994398
_cell_angle_beta   89.996741
_cell_angle_gamma 90.002358
loop_
_atom_site_label
_atom_site_type_symbol
_atom_site_fract_x
_atom_site_fract_y
_atom_site_fract_z
_atom_type_partial_charge
In0 In 0.10285 0.39007 0.04363 0.0
O1 O 0.07855 0.43645 0.04028 0.0
O2 O 0.07042 0.40067 0.02535 0.0
C3 C 0.1218 0.39569 0.07096 0.0
C4 C 0.15553 0.39297 0.02861 0.0
C5 C 0.06794 0.33912 0.04517 0.0
O6 O 0.10077 0.41233 0.06578 0.0
O7 O 0.13348 0.37686 0.06229 0.0
O8 O 0.08719 0.34355 0.03533 0.0
O9 O 0.06638 0.36028 0.05435 0.0
C10 C 0.06497 0.42794 0.02902 0.0
O11 O 0.14239 0.36797 0.03161 0.0
O12 O 0.14229 0.41665 0.03334 0.0
In13 In 0.8556 0.85346 0.29401 0.0
O14 O 0.80903 0.83071 0.28984 0.0
O15 O 0.84463 0.82434 0.27457 0.0
C16 C 0.8495 0.87222 0.32143 0.0
C17 C 0.85415 0.90484 0.27803 0.0
C18 C 0.90508 0.81679 0.29674 0.0
O19 O 0.83312 0.8511 0.3162 0.0
O20 O 0.86817 0.88409 0.31278 0.0
O21 O 0.9068 0.84375 0.29187 0.0
O22 O 0.87845 0.80837 0.30029 0.0
C23 C 0.81731 0.81869 0.27816 0.0
O24 O 0.87793 0.88856 0.2794 0.0
O25 O 0.83095 0.89528 0.28479 0.0
In26 In 0.39365 0.60661 0.5445 0.0
O27 O 0.35814 0.6283 0.52992 0.0
O28 O 0.35176 0.58143 0.5356 0.0
C29 C 0.42927 0.65701 0.54694 0.0
C30 C 0.42881 0.5684 0.52878 0.0
C31 C 0.37591 0.6001 0.57205 0.0
O32 O 0.40204 0.65809 0.5424 0.0
O33 O 0.43853 0.63053 0.5503 0.0
O34 O 0.3969 0.58393 0.5666 0.0
O35 O 0.36361 0.61884 0.56356 0.0
C36 C 0.34193 0.60442 0.52877 0.0
O37 O 0.41745 0.56044 0.54064 0.0
O38 O 0.42224 0.59535 0.5249 0.0
In39 In 0.63845 0.14422 0.79399 0.0
O40 O 0.62409 0.11385 0.77538 0.0
O41 O 0.65959 0.09742 0.78893 0.0
C42 C 0.58624 0.1766 0.79651 0.0
C43 C 0.67766 0.1823 0.78019 0.0
C44 C 0.64105 0.12531 0.82132 0.0
O45 O 0.58871 0.15391 0.7882 0.0
O46 O 0.61 0.18281 0.80366 0.0
O47 O 0.65989 0.14458 0.81625 0.0
O48 O 0.62139 0.1154 0.81254 0.0
C49 C 0.643 0.09278 0.77812 0.0
O50 O 0.68608 0.16638 0.79076 0.0
O51 O 0.64986 0.17925 0.7769 0.0
In52 In 0.09971 0.60161 0.45321 0.0
O53 O 0.13465 0.62384 0.4679 0.0
O54 O 0.14135 0.5768 0.46257 0.0
C55 C 0.06512 0.65265 0.45041 0.0
C56 C 0.06455 0.56362 0.46907 0.0
C57 C 0.11768 0.59418 0.42573 0.0
O58 O 0.09247 0.65336 0.45479 0.0
O59 O 0.0552 0.62622 0.44739 0.0
O60 O 0.09506 0.57994 0.43094 0.0
O61 O 0.13146 0.61133 0.43444 0.0
C62 C 0.15089 0.60004 0.46931 0.0
O63 O 0.0768 0.55511 0.45748 0.0
O64 O 0.07015 0.59102 0.47257 0.0
In65 In 0.64303 0.85024 0.70373 0.0
O66 O 0.68966 0.82658 0.70726 0.0
O67 O 0.65472 0.82105 0.72291 0.0
C68 C 0.64795 0.86863 0.67635 0.0
C69 C 0.64615 0.90134 0.71978 0.0
C70 C 0.5923 0.8157 0.70057 0.0
O71 O 0.6659 0.84884 0.68167 0.0
O72 O 0.62821 0.8792 0.68488 0.0
O73 O 0.59133 0.84306 0.70499 0.0
O74 O 0.6188 0.80587 0.69766 0.0
C75 C 0.68171 0.81487 0.71907 0.0
O76 O 0.6268 0.88037 0.72204 0.0
O77 O 0.66392 0.89674 0.70936 0.0
In78 In 0.39881 0.39612 0.95374 0.0
O79 O 0.42059 0.44342 0.95798 0.0
O80 O 0.43193 0.40647 0.97179 0.0
C81 C 0.38178 0.40402 0.92625 0.0
C82 C 0.34562 0.39624 0.96842 0.0
C83 C 0.43291 0.34456 0.95224 0.0
O84 O 0.40468 0.41767 0.93158 0.0
O85 O 0.36724 0.38717 0.93486 0.0
O86 O 0.41442 0.34981 0.96231 0.0
O87 O 0.43418 0.36526 0.94284 0.0
C88 C 0.43544 0.43443 0.96879 0.0
O89 O 0.35894 0.37192 0.96455 0.0
O90 O 0.35892 0.42075 0.96472 0.0
In91 In 0.85231 0.14698 0.20231 0.0
O92 O 0.8748 0.11112 0.21643 0.0
O93 O 0.82744 0.10527 0.21156 0.0
C94 C 0.90305 0.18186 0.19934 0.0
C95 C 0.81531 0.18183 0.2188 0.0
C96 C 0.84422 0.12951 0.17481 0.0
O97 O 0.9039 0.15469 0.20399 0.0
O98 O 0.87662 0.19146 0.19615 0.0
O99 O 0.82947 0.15153 0.18028 0.0
O100 O 0.86221 0.11609 0.18328 0.0
C101 C 0.85086 0.09516 0.21798 0.0
O102 O 0.80628 0.17027 0.20715 0.0
O103 O 0.84275 0.17576 0.22203 0.0
In104 In 0.89447 0.60524 0.95544 0.0
O105 O 0.85446 0.62883 0.96641 0.0
O106 O 0.85514 0.57999 0.9665 0.0
C107 C 0.92938 0.65619 0.9539 0.0
C108 C 0.93145 0.56694 0.97028 0.0
C109 C 0.87593 0.59847 0.92811 0.0
O110 O 0.91067 0.65141 0.96393 0.0
O111 O 0.93043 0.63536 0.94455 0.0
O112 O 0.89823 0.58347 0.93322 0.0
O113 O 0.8628 0.61613 0.93686 0.0
C114 C 0.8415 0.60427 0.97024 0.0
O115 O 0.91729 0.55826 0.95921 0.0
O116 O 0.92702 0.59457 0.97366 0.0
In117 In 0.13983 0.14385 0.70634 0.0
O118 O 0.12277 0.11125 0.72351 0.0
O119 O 0.16225 0.09776 0.71172 0.0
C120 C 0.08952 0.17929 0.70406 0.0
C121 C 0.17906 0.18046 0.72093 0.0
C122 C 0.1423 0.12431 0.67909 0.0
O123 O 0.09077 0.1563 0.71223 0.0
O124 O 0.11351 0.18429 0.69688 0.0
O125 O 0.16243 0.14195 0.68436 0.0
O126 O 0.12135 0.11628 0.68764 0.0
C127 C 0.14341 0.09146 0.72152 0.0
O128 O 0.18585 0.16954 0.70884 0.0
O129 O 0.15296 0.17292 0.72544 0.0
In130 In 0.60147 0.39206 0.45581 0.0
O131 O 0.57723 0.43812 0.45943 0.0
O132 O 0.57267 0.40347 0.47531 0.0
C133 C 0.62067 0.3979 0.42845 0.0
C134 C 0.65287 0.39425 0.47178 0.0
C135 C 0.56519 0.3422 0.45308 0.0
O136 O 0.60022 0.41504 0.43372 0.0
O137 O 0.63165 0.37853 0.43702 0.0
O138 O 0.59197 0.34081 0.45815 0.0
O139 O 0.5567 0.36871 0.44935 0.0
C140 C 0.56588 0.43029 0.47131 0.0
O141 O 0.63662 0.3704 0.47062 0.0
O142 O 0.64324 0.41719 0.46485 0.0
In143 In 0.35433 0.85071 0.20615 0.0
O144 O 0.30841 0.82514 0.20873 0.0
O145 O 0.3418 0.82103 0.22515 0.0
C146 C 0.34967 0.8707 0.17895 0.0
C147 C 0.35214 0.90394 0.22079 0.0
C148 C 0.40417 0.81413 0.20488 0.0
O149 O 0.33167 0.85071 0.18405 0.0
O150 O 0.36941 0.88073 0.18762 0.0
O151 O 0.40023 0.83372 0.21463 0.0
O152 O 0.38306 0.81304 0.19568 0.0
C153 C 0.31552 0.81373 0.22069 0.0
O154 O 0.37696 0.89055 0.21773 0.0
O155 O 0.32823 0.89057 0.21639 0.0
In156 In 0.89664 0.39119 0.54635 0.0
O157 O 0.9191 0.43783 0.54191 0.0
O158 O 0.92574 0.40187 0.52685 0.0
C159 C 0.87978 0.39854 0.574 0.0
C160 C 0.84482 0.39271 0.53069 0.0
C161 C 0.93126 0.34006 0.54877 0.0
O162 O 0.90258 0.4123 0.56869 0.0
O163 O 0.86527 0.38193 0.56532 0.0
O164 O 0.90389 0.3395 0.54439 0.0
O165 O 0.94117 0.36638 0.55197 0.0
C166 C 0.9312 0.42934 0.53029 0.0
O167 O 0.86089 0.3688 0.53214 0.0
O168 O 0.85485 0.41608 0.53718 0.0
In169 In 0.35429 0.14627 0.29639 0.0
O170 O 0.37646 0.11248 0.28108 0.0
O171 O 0.33021 0.10404 0.28724 0.0
C172 C 0.40461 0.18165 0.29964 0.0
C173 C 0.31605 0.18136 0.28063 0.0
C174 C 0.34723 0.12725 0.32372 0.0
O175 O 0.40586 0.15446 0.29502 0.0
O176 O 0.37799 0.191 0.30265 0.0
O177 O 0.33189 0.14922 0.31856 0.0
O178 O 0.36534 0.11465 0.31503 0.0
C179 C 0.35312 0.09549 0.28 0.0
O180 O 0.30765 0.16897 0.2922 0.0
O181 O 0.34349 0.17601 0.27713 0.0
In182 In 0.60108 0.60695 0.04693 0.0
O183 O 0.57764 0.56069 0.04273 0.0
O184 O 0.57149 0.59661 0.02759 0.0
C185 C 0.62042 0.60052 0.07421 0.0
C186 C 0.65194 0.60473 0.03067 0.0
C187 C 0.56567 0.65717 0.0501 0.0
O188 O 0.59919 0.58417 0.06905 0.0
O189 O 0.63208 0.61934 0.06555 0.0
O190 O 0.59257 0.65838 0.04515 0.0
O191 O 0.55662 0.63063 0.0535 0.0
C192 C 0.56565 0.56927 0.03109 0.0
O193 O 0.63531 0.62837 0.03162 0.0
O194 O 0.64302 0.5821 0.03802 0.0
In195 In 0.1418 0.84852 0.79563 0.0
O196 O 0.1258 0.87864 0.77724 0.0
O197 O 0.16242 0.89523 0.79016 0.0
C198 C 0.09129 0.81373 0.79888 0.0
C199 C 0.18034 0.81312 0.78025 0.0
C200 C 0.14689 0.86653 0.82305 0.0
O201 O 0.09011 0.84107 0.79441 0.0
O202 O 0.11787 0.80409 0.80177 0.0
O203 O 0.16527 0.84738 0.81754 0.0
O204 O 0.12661 0.87668 0.81467 0.0
C205 C 0.14496 0.89973 0.77962 0.0
O206 O 0.18848 0.82508 0.79197 0.0
O207 O 0.15322 0.81906 0.77652 0.0
In208 In 0.60194 0.89173 0.54419 0.0
O209 O 0.63744 0.8702 0.52957 0.0
O210 O 0.64359 0.91715 0.5352 0.0
C211 C 0.56632 0.84134 0.54664 0.0
C212 C 0.56652 0.93006 0.52865 0.0
C213 C 0.62073 0.89746 0.57162 0.0
O214 O 0.59315 0.84043 0.54161 0.0
O215 O 0.55743 0.86765 0.55048 0.0
O216 O 0.5994 0.91368 0.56648 0.0
O217 O 0.63278 0.8791 0.56289 0.0
C218 C 0.65353 0.89417 0.5284 0.0
O219 O 0.57795 0.93791 0.54051 0.0
O220 O 0.57313 0.90317 0.5247 0.0
In221 In 0.35489 0.35231 0.7945 0.0
O222 O 0.30887 0.32649 0.79216 0.0
O223 O 0.34075 0.32477 0.77509 0.0
C224 C 0.35314 0.37182 0.82177 0.0
C225 C 0.352 0.40522 0.77972 0.0
C226 C 0.40453 0.31577 0.79622 0.0
O227 O 0.33259 0.35461 0.81655 0.0
O228 O 0.3742 0.37935 0.81318 0.0
O229 O 0.40316 0.33858 0.78795 0.0
O230 O 0.381 0.3115 0.80382 0.0
C231 C 0.31501 0.31661 0.77981 0.0
O232 O 0.373 0.38571 0.77794 0.0
O233 O 0.33241 0.39837 0.78912 0.0
In234 In 0.89218 0.1069 0.04279 0.0
O235 O 0.91702 0.06074 0.03967 0.0
O236 O 0.92323 0.09562 0.02409 0.0
C237 C 0.87319 0.10179 0.07013 0.0
C238 C 0.8392 0.10411 0.02801 0.0
C239 C 0.9278 0.15739 0.04413 0.0
O240 O 0.89347 0.08433 0.06489 0.0
O241 O 0.86231 0.12124 0.06153 0.0
O242 O 0.90805 0.15332 0.03447 0.0
O243 O 0.92951 0.1361 0.05323 0.0
C244 C 0.92952 0.06873 0.02807 0.0
O245 O 0.85268 0.12904 0.03079 0.0
O246 O 0.85225 0.08041 0.03285 0.0
In247 In 0.13802 0.64213 0.29358 0.0
O248 O 0.11668 0.60612 0.27912 0.0
O249 O 0.16363 0.60045 0.28482 0.0
C250 C 0.08872 0.67912 0.29606 0.0
C251 C 0.17629 0.6773 0.27791 0.0
C252 C 0.14307 0.6227 0.32093 0.0
O253 O 0.08714 0.65257 0.29071 0.0
O254 O 0.11513 0.687 0.30018 0.0
O255 O 0.16099 0.64253 0.31569 0.0
O256 O 0.1233 0.61253 0.31235 0.0
C257 C 0.14077 0.5902 0.27803 0.0
O258 O 0.18373 0.66696 0.29005 0.0
O259 O 0.1498 0.66977 0.27375 0.0
In260 In 0.59547 0.10285 0.95345 0.0
O261 O 0.57381 0.05559 0.95804 0.0
O262 O 0.56042 0.09354 0.97081 0.0
C263 C 0.61194 0.09454 0.9259 0.0
C264 C 0.64854 0.10197 0.96824 0.0
C265 C 0.56327 0.15563 0.95237 0.0
O266 O 0.5884 0.08199 0.93121 0.0
O267 O 0.62734 0.11048 0.93456 0.0
O268 O 0.58114 0.14908 0.96251 0.0
O269 O 0.56167 0.13561 0.94266 0.0
C270 C 0.55764 0.06529 0.96829 0.0
O271 O 0.63591 0.12643 0.96407 0.0
O272 O 0.63459 0.07765 0.9648 0.0
In273 In 0.14255 0.3472 0.20291 0.0
O274 O 0.11958 0.3817 0.21758 0.0
O275 O 0.16648 0.38932 0.21231 0.0
C276 C 0.09211 0.31194 0.19977 0.0
C277 C 0.18065 0.31247 0.21891 0.0
C278 C 0.15024 0.3656 0.1755 0.0
O279 O 0.09101 0.33914 0.20436 0.0
O280 O 0.11868 0.30246 0.19672 0.0
O281 O 0.16519 0.34353 0.18079 0.0
O282 O 0.13221 0.3786 0.18409 0.0
C283 C 0.14304 0.3984 0.21903 0.0
O284 O 0.18921 0.32485 0.20737 0.0
O285 O 0.15311 0.31766 0.22229 0.0
In286 In 0.89684 0.89041 0.45359 0.0
O287 O 0.86191 0.8685 0.46839 0.0
O288 O 0.85529 0.91546 0.46291 0.0
C289 C 0.93163 0.83953 0.45074 0.0
C290 C 0.93242 0.9284 0.46924 0.0
C291 C 0.87793 0.89733 0.42623 0.0
O292 O 0.90466 0.83888 0.45562 0.0
O293 O 0.9411 0.86586 0.44725 0.0
O294 O 0.89995 0.91261 0.43136 0.0
O295 O 0.86528 0.87932 0.43494 0.0
C296 C 0.84572 0.89234 0.46974 0.0
O297 O 0.92031 0.93674 0.4576 0.0
O298 O 0.9265 0.90115 0.47289 0.0
In299 In 0.3561 0.6463 0.70434 0.0
O300 O 0.37167 0.61597 0.72275 0.0
O301 O 0.33555 0.59945 0.70952 0.0
C302 C 0.40701 0.68051 0.70106 0.0
C303 C 0.31776 0.6817 0.71983 0.0
C304 C 0.35031 0.629 0.67685 0.0
O305 O 0.40792 0.65308 0.70541 0.0
O306 O 0.3805 0.69054 0.6983 0.0
O307 O 0.33231 0.64829 0.68253 0.0
O308 O 0.37059 0.61837 0.6851 0.0
C309 C 0.35268 0.59484 0.72016 0.0
O310 O 0.3095 0.66974 0.70813 0.0
O311 O 0.34493 0.67578 0.72349 0.0
In312 In 0.39383 0.10666 0.4558 0.0
O313 O 0.35882 0.12849 0.47062 0.0
O314 O 0.35222 0.08159 0.46503 0.0
C315 C 0.43 0.15659 0.45299 0.0
C316 C 0.42937 0.06838 0.47131 0.0
C317 C 0.37446 0.10052 0.42847 0.0
O318 O 0.40315 0.15798 0.45799 0.0
O319 O 0.4386 0.13005 0.44937 0.0
O320 O 0.39543 0.08391 0.43366 0.0
O321 O 0.36306 0.1195 0.43711 0.0
C322 C 0.34263 0.10462 0.47191 0.0
O323 O 0.41786 0.0605 0.45947 0.0
O324 O 0.42278 0.09529 0.47526 0.0
In325 In 0.64061 0.64408 0.2064 0.0
O326 O 0.68739 0.6676 0.20974 0.0
O327 O 0.65111 0.67813 0.22406 0.0
C328 C 0.64782 0.62605 0.17901 0.0
C329 C 0.64273 0.59111 0.22128 0.0
C330 C 0.58838 0.67723 0.20536 0.0
O331 O 0.66182 0.64899 0.18411 0.0
O332 O 0.63088 0.61207 0.18778 0.0
O333 O 0.59483 0.65957 0.2156 0.0
O334 O 0.60819 0.6781 0.19555 0.0
C335 C 0.67865 0.68258 0.22056 0.0
O336 O 0.61797 0.60327 0.2172 0.0
O337 O 0.66668 0.60557 0.21778 0.0
In338 In 0.10117 0.89138 0.95511 0.0
O339 O 0.0772 0.93788 0.95852 0.0
O340 O 0.06947 0.90233 0.97362 0.0
C341 C 0.119 0.89749 0.92764 0.0
C342 C 0.15449 0.89373 0.96962 0.0
C343 C 0.06655 0.84016 0.95413 0.0
O344 O 0.09739 0.91321 0.93291 0.0
O345 O 0.13181 0.87937 0.93629 0.0
O346 O 0.08576 0.84522 0.96392 0.0
O347 O 0.06486 0.86085 0.94473 0.0
C348 C 0.06398 0.92956 0.9699 0.0
O349 O 0.14177 0.86884 0.9661 0.0
O350 O 0.14047 0.91765 0.96568 0.0
In351 In 0.85576 0.35137 0.70638 0.0
O352 O 0.8707 0.38299 0.72442 0.0
O353 O 0.83396 0.39797 0.71122 0.0
C354 C 0.90767 0.31834 0.70443 0.0
C355 C 0.81625 0.31396 0.72041 0.0
C356 C 0.85391 0.36969 0.67894 0.0
O357 O 0.90502 0.34102 0.71273 0.0
O358 O 0.88426 0.31248 0.69697 0.0
O359 O 0.8351 0.35032 0.68396 0.0
O360 O 0.8732 0.37993 0.68781 0.0
C361 C 0.85118 0.40352 0.72172 0.0
O362 O 0.80809 0.32918 0.70957 0.0
O363 O 0.8439 0.31741 0.72386 0.0
In364 In 0.39396 0.89185 0.04693 0.0
O365 O 0.35998 0.86911 0.03193 0.0
O366 O 0.35207 0.91585 0.0375 0.0
C367 C 0.42893 0.84142 0.05044 0.0
C368 C 0.42885 0.92899 0.03055 0.0
C369 C 0.37558 0.90004 0.07427 0.0
O370 O 0.40164 0.84015 0.04597 0.0
O371 O 0.43852 0.86809 0.05322 0.0
O372 O 0.39818 0.91432 0.06905 0.0
O373 O 0.36203 0.88252 0.06563 0.0
C374 C 0.34333 0.89263 0.03051 0.0
O375 O 0.41591 0.93845 0.04182 0.0
O376 O 0.42424 0.90108 0.02771 0.0
In377 In 0.85368 0.64616 0.79596 0.0
O378 O 0.86949 0.61516 0.77787 0.0
O379 O 0.83227 0.59973 0.79074 0.0
C380 C 0.90408 0.68126 0.7989 0.0
C381 C 0.81501 0.68142 0.78057 0.0
C382 C 0.84952 0.62783 0.82337 0.0
O383 O 0.90526 0.65399 0.79435 0.0
O384 O 0.87755 0.69071 0.80202 0.0
O385 O 0.83079 0.64686 0.81802 0.0
O386 O 0.86969 0.61803 0.81485 0.0
C387 C 0.84991 0.5945 0.78034 0.0
O388 O 0.80738 0.67052 0.79259 0.0
O389 O 0.84168 0.67445 0.77654 0.0
In390 In 0.09912 0.10167 0.54666 0.0
O391 O 0.07695 0.05496 0.54212 0.0
O392 O 0.07047 0.09086 0.52702 0.0
C393 C 0.11514 0.09384 0.57439 0.0
C394 C 0.15117 0.10039 0.53114 0.0
C395 C 0.06442 0.15277 0.549 0.0
O396 O 0.09249 0.08023 0.56888 0.0
O397 O 0.12994 0.11059 0.56587 0.0
O398 O 0.09208 0.15345 0.54504 0.0
O399 O 0.05427 0.12634 0.55182 0.0
C400 C 0.06506 0.06337 0.53045 0.0
O401 O 0.1349 0.12419 0.53248 0.0
O402 O 0.14124 0.07703 0.53768 0.0
In403 In 0.64298 0.34849 0.29671 0.0
O404 O 0.68894 0.32453 0.2923 0.0
O405 O 0.65292 0.31944 0.27715 0.0
C406 C 0.65011 0.36731 0.32405 0.0
C407 C 0.64498 0.39977 0.28068 0.0
C408 C 0.59254 0.31332 0.29995 0.0
O409 O 0.66612 0.34598 0.31874 0.0
O410 O 0.63129 0.37932 0.31551 0.0
O411 O 0.59144 0.34036 0.29515 0.0
O412 O 0.61907 0.30402 0.30318 0.0
C413 C 0.68015 0.31302 0.28059 0.0
O414 O 0.62141 0.38304 0.28161 0.0
O415 O 0.66771 0.39071 0.28791 0.0
H416 H 0.96317 0.58162 0.99441 0.0
H417 H 0.0334 0.41324 0.00485 0.0
H418 H 0.94478 0.50602 0.96586 0.0
H419 H 0.05058 0.48848 0.03377 0.0
H420 H 0.00086 0.4468 0.99049 0.0
H421 H 0.99534 0.54792 0.00888 0.0
C422 C 0.96594 0.55789 0.99117 0.0
C423 C 0.95128 0.54658 0.9789 0.0
C424 C 0.01168 0.45601 -3e-05 0.0
C425 C 0.98811 0.50781 0.99547 0.0
C426 C 0.03027 0.43686 0.0082 0.0
C427 C 0.04474 0.44812 0.02053 0.0
C428 C 0.0075 0.48673 0.00408 0.0
C429 C 0.03985 0.47888 0.02435 0.0
C430 C 0.9843 0.53865 0.99946 0.0
C431 C 0.95568 0.51567 0.97523 0.0
N432 N 0.02166 0.49714 0.01613 0.0
N433 N 0.97371 0.49734 0.98349 0.0
H434 H 0.66386 0.71599 0.24416 0.0
H435 H 0.83131 0.78918 0.25328 0.0
H436 H 0.73928 0.69648 0.21569 0.0
H437 H 0.75707 0.80386 0.28302 0.0
H438 H 0.79766 0.75655 0.23893 0.0
H439 H 0.69728 0.74962 0.25802 0.0
C440 C 0.68749 0.71883 0.24081 0.0
C441 C 0.69884 0.70337 0.22876 0.0
C442 C 0.7887 0.76691 0.24859 0.0
C443 C 0.73732 0.74192 0.24462 0.0
C444 C 0.80788 0.78557 0.25678 0.0
C445 C 0.79695 0.79923 0.26937 0.0
C446 C 0.7583 0.76189 0.25299 0.0
C447 C 0.76643 0.79375 0.2734 0.0
C448 C 0.70658 0.73804 0.24874 0.0
C449 C 0.72962 0.70794 0.22491 0.0
N450 N 0.74817 0.7755 0.26523 0.0
N451 N 0.74782 0.7268 0.23283 0.0
H452 H 0.53894 0.41765 0.49695 0.0
H453 H 0.45559 0.5811 0.50309 0.0
H454 H 0.54712 0.48896 0.46517 0.0
H455 H 0.44728 0.50961 0.53478 0.0
H456 H 0.48899 0.5477 0.48903 0.0
H457 H 0.50538 0.45101 0.51094 0.0
C458 C 0.53369 0.44037 0.49292 0.0
C459 C 0.54585 0.45057 0.47988 0.0
C460 C 0.47987 0.53927 0.49904 0.0
C461 C 0.50735 0.48891 0.49584 0.0
C462 C 0.46077 0.55833 0.50708 0.0
C463 C 0.44865 0.5481 0.52013 0.0
C464 C 0.48695 0.50972 0.50408 0.0
C465 C 0.45613 0.5184 0.52478 0.0
C466 C 0.5145 0.45941 0.50091 0.0
C467 C 0.53825 0.4802 0.47517 0.0
N468 N 0.47482 0.50026 0.51676 0.0
N469 N 0.51948 0.49833 0.48315 0.0
H470 H 0.75505 0.30239 0.71581 0.0
H471 H 0.73895 0.19353 0.78465 0.0
H472 H 0.83002 0.28094 0.74424 0.0
H473 H 0.66361 0.21612 0.75663 0.0
H474 H 0.77281 0.22557 0.76997 0.0
H475 H 0.72111 0.27051 0.73052 0.0
C476 C 0.76435 0.29092 0.72512 0.0
C477 C 0.79535 0.29428 0.7288 0.0
C478 C 0.74885 0.22353 0.76705 0.0
C479 C 0.75678 0.25796 0.74571 0.0
C480 C 0.72955 0.20529 0.77544 0.0
C481 C 0.69847 0.20219 0.77185 0.0
C482 C 0.73696 0.23868 0.75498 0.0
C483 C 0.68744 0.2179 0.75979 0.0
C484 C 0.745 0.27278 0.73353 0.0
C485 C 0.80625 0.27895 0.74099 0.0
N486 N 0.70666 0.23541 0.75179 0.0
N487 N 0.787 0.2615 0.749 0.0
H488 H 0.94693 0.48937 0.53522 0.0
H489 H 0.04856 0.50367 0.46404 0.0
H490 H 0.95945 0.41543 0.50509 0.0
H491 H 0.03602 0.57759 0.49418 0.0
H492 H 0.01588 0.47093 0.47891 0.0
H493 H 0.9794 0.52217 0.52028 0.0
C494 C 0.95649 0.48007 0.52546 0.0
C495 C 0.9505 0.44965 0.52139 0.0
C496 C 0.02028 0.49431 0.48227 0.0
C497 C 0.98768 0.48697 0.50425 0.0
C498 C 0.03894 0.51299 0.47379 0.0
C499 C 0.04501 0.54337 0.47789 0.0
C500 C 0.0076 0.50612 0.49495 0.0
C501 C 0.03195 0.55429 0.49062 0.0
C502 C 0.97504 0.49877 0.51693 0.0
C503 C 0.96348 0.43875 0.50863 0.0
N504 N 0.01388 0.53569 0.49869 0.0
N505 N 0.98145 0.45738 0.50053 0.0
H506 H 0.74095 0.7968 0.71354 0.0
H507 H 0.75613 0.70032 0.7863 0.0
H508 H 0.6684 0.78853 0.74469 0.0
H509 H 0.82806 0.70706 0.75476 0.0
H510 H 0.72362 0.73298 0.77127 0.0
H511 H 0.77351 0.7642 0.72859 0.0
C512 C 0.73191 0.78813 0.72354 0.0
C513 C 0.70197 0.79535 0.72788 0.0
C514 C 0.74653 0.72729 0.76764 0.0
C515 C 0.73894 0.75813 0.74513 0.0
C516 C 0.76505 0.70867 0.77622 0.0
C517 C 0.79479 0.70098 0.77177 0.0
C518 C 0.75788 0.7383 0.75453 0.0
C519 C 0.80525 0.71241 0.75861 0.0
C520 C 0.75045 0.76953 0.73212 0.0
C521 C 0.69136 0.78352 0.74093 0.0
N522 N 0.78684 0.73048 0.75047 0.0
N523 N 0.7098 0.76552 0.74908 0.0
H524 H 0.44785 0.49566 0.96479 0.0
H525 H 0.55086 0.50884 0.03557 0.0
H526 H 0.46717 0.41947 0.99287 0.0
H527 H 0.53674 0.58381 0.00614 0.0
H528 H 0.51927 0.47597 0.02028 0.0
H529 H 0.4796 0.52872 0.97998 0.0
C530 C 0.45881 0.4859 0.97413 0.0
C531 C 0.4549 0.45481 0.97758 0.0
C532 C 0.52309 0.49962 0.01716 0.0
C533 C 0.49109 0.49239 0.99501 0.0
C534 C 0.54108 0.51837 0.0259 0.0
C535 C 0.54642 0.54906 0.02211 0.0
C536 C 0.51029 0.51167 0.00456 0.0
C537 C 0.53321 0.56025 0.00946 0.0
C538 C 0.47691 0.50475 0.9828 0.0
C539 C 0.46959 0.44332 0.98981 0.0
N540 N 0.51576 0.54158 0.00115 0.0
N541 N 0.48698 0.46211 0.99808 0.0
H542 H 0.83034 0.20863 0.2442 0.0
H543 H 0.66529 0.28604 0.25524 0.0
H544 H 0.75541 0.19873 0.21442 0.0
H545 H 0.7399 0.29568 0.28522 0.0
H546 H 0.69796 0.254 0.2402 0.0
H547 H 0.79764 0.24046 0.25937 0.0
C548 C 0.80697 0.21316 0.24085 0.0
C549 C 0.79556 0.20102 0.22802 0.0
C550 C 0.70724 0.26308 0.25006 0.0
C551 C 0.75797 0.23748 0.24535 0.0
C552 C 0.68859 0.2814 0.25867 0.0
C553 C 0.69992 0.29355 0.27151 0.0
C554 C 0.73751 0.25683 0.2543 0.0
C555 C 0.73026 0.28677 0.2754 0.0
C556 C 0.78832 0.23134 0.24953 0.0
C557 C 0.76513 0.20763 0.22422 0.0
N558 N 0.74802 0.26886 0.26683 0.0
N559 N 0.74739 0.22542 0.23285 0.0
H560 H 0.25869 0.29346 0.78745 0.0
H561 H 0.23575 0.20294 0.7135 0.0
H562 H 0.32431 0.29479 0.75293 0.0
H563 H 0.16895 0.20354 0.74753 0.0
H564 H 0.26882 0.23639 0.72787 0.0
H565 H 0.22546 0.26019 0.77305 0.0
C566 C 0.26605 0.28679 0.77684 0.0
C567 C 0.29425 0.29686 0.77137 0.0
C568 C 0.24692 0.22919 0.73219 0.0
C569 C 0.25653 0.25888 0.75486 0.0
C570 C 0.22809 0.21009 0.72399 0.0
C571 C 0.19961 0.20048 0.72933 0.0
C572 C 0.23718 0.23865 0.74582 0.0
C573 C 0.19073 0.21044 0.74298 0.0
C574 C 0.24712 0.26781 0.76863 0.0
C575 C 0.30275 0.28752 0.75757 0.0
N576 N 0.20944 0.22894 0.75076 0.0
N577 N 0.28399 0.26907 0.7498 0.0
H578 H 0.16471 0.70196 0.25164 0.0
H579 H 0.32692 0.78777 0.24661 0.0
H580 H 0.23418 0.69752 0.28442 0.0
H581 H 0.25763 0.79347 0.21378 0.0
H582 H 0.29328 0.75435 0.26045 0.0
H583 H 0.19838 0.73501 0.23749 0.0
C584 C 0.18709 0.70792 0.25585 0.0
C585 C 0.19668 0.69699 0.26923 0.0
C586 C 0.28536 0.76286 0.25022 0.0
C587 C 0.23533 0.73485 0.25309 0.0
C588 C 0.30458 0.78197 0.2423 0.0
C589 C 0.29503 0.79343 0.22902 0.0
C590 C 0.25631 0.75507 0.24485 0.0
C591 C 0.26587 0.78514 0.22398 0.0
C592 C 0.20629 0.72681 0.24777 0.0
C593 C 0.22588 0.70543 0.27417 0.0
N594 N 0.24751 0.76645 0.23191 0.0
N595 N 0.24415 0.72387 0.2661 0.0
H596 H 0.25585 0.19649 0.28551 0.0
H597 H 0.2409 0.29753 0.21416 0.0
H598 H 0.32988 0.2101 0.25555 0.0
H599 H 0.16669 0.28381 0.24402 0.0
H600 H 0.27395 0.26561 0.22923 0.0
H601 H 0.22276 0.22852 0.2705 0.0
C602 C 0.26512 0.20622 0.27578 0.0
C603 C 0.29563 0.20063 0.27177 0.0
C604 C 0.25043 0.26958 0.23249 0.0
C605 C 0.25799 0.23727 0.25454 0.0
C606 C 0.23158 0.2878 0.22389 0.0
C607 C 0.20104 0.29331 0.22785 0.0
C608 C 0.23864 0.25678 0.24514 0.0
C609 C 0.19012 0.28014 0.24056 0.0
C610 C 0.24625 0.2245 0.26721 0.0
C611 C 0.30648 0.21381 0.25905 0.0
N612 N 0.2089 0.2625 0.24875 0.0
N613 N 0.28769 0.23149 0.25089 0.0
H614 H 0.16628 0.78552 0.75501 0.0
H615 H 0.33193 0.70924 0.74509 0.0
H616 H 0.24022 0.79646 0.78526 0.0
H617 H 0.25787 0.69831 0.7149 0.0
H618 H 0.29876 0.74117 0.75991 0.0
H619 H 0.19947 0.75354 0.74024 0.0
C620 C 0.18956 0.78118 0.75856 0.0
C621 C 0.20055 0.79367 0.77139 0.0
C622 C 0.28971 0.73183 0.75005 0.0
C623 C 0.23872 0.75702 0.75448 0.0
C624 C 0.30864 0.71358 0.74157 0.0
C625 C 0.29761 0.70111 0.72873 0.0
C626 C 0.25946 0.73769 0.74569 0.0
C627 C 0.26728 0.70748 0.72471 0.0
C628 C 0.20849 0.7629 0.7501 0.0
C629 C 0.23085 0.78727 0.77544 0.0
N630 N 0.24924 0.72535 0.73317 0.0
N631 N 0.24891 0.76937 0.767 0.0
H632 H 0.53967 0.91751 0.50298 0.0
H633 H 0.45636 0.08101 0.49695 0.0
H634 H 0.5479 0.98878 0.53477 0.0
H635 H 0.44797 0.00966 0.4652 0.0
H636 H 0.48988 0.04758 0.51093 0.0
H637 H 0.5062 0.95095 0.48897 0.0
C638 C 0.53445 0.94024 0.50701 0.0
C639 C 0.54658 0.9504 0.52006 0.0
C640 C 0.48072 0.03919 0.50092 0.0
C641 C 0.5082 0.98882 0.50408 0.0
C642 C 0.46156 0.05826 0.49292 0.0
C643 C 0.44936 0.04807 0.47988 0.0
C644 C 0.4878 0.00967 0.49585 0.0
C645 C 0.45687 0.01842 0.47519 0.0
C646 C 0.51532 0.95932 0.499 0.0
C647 C 0.53905 0.98004 0.52476 0.0
N648 N 0.47562 0.00026 0.48317 0.0
N649 N 0.52032 -0.00178 0.51677 0.0
H650 H 0.03435 0.91577 0.99471 0.0
H651 H 0.95861 0.08228 0.0031 0.0
H652 H 0.04816 0.98953 0.9646 0.0
H653 H 0.94616 0.00908 0.03364 0.0
H654 H 0.99129 0.04863 0.98885 0.0
H655 H 0.00178 0.94946 0.009 0.0
C656 C 0.03049 0.93909 0.99109 0.0
C657 C 0.04398 0.94989 0.97844 0.0
C658 C 0.98146 0.03988 0.99867 0.0
C659 C 0.00669 0.98864 0.99479 0.0
C660 C 0.96279 0.05909 0.00682 0.0
C661 C 0.94965 0.04843 0.01958 0.0
C662 C 0.98706 0.00972 0.00327 0.0
C663 C 0.95585 0.01821 0.02387 0.0
C664 C 0.0119 0.95832 0.99928 0.0
C665 C 0.0382 0.98029 0.97428 0.0
N666 N 0.97411 -0.00011 0.01572 0.0
N667 N 0.01998 -0.00139 0.98244 0.0
H668 H 0.52227 0.0822 0.99094 0.0
H669 H 0.46016 0.91246 0.00652 0.0
H670 H 0.54782 0.00318 0.96578 0.0
H671 H 0.44045 0.9906 0.03335 0.0
H672 H 0.491 0.94544 0.99104 0.0
H673 H 0.49068 0.04923 0.00601 0.0
C674 C 0.52115 0.05787 0.98855 0.0
C675 C 0.53773 0.04538 0.97709 0.0
C676 C 0.47996 0.9554 0.00031 0.0
C677 C 0.50158 0.00743 0.99437 0.0
C678 C 0.46234 0.93659 0.00916 0.0
C679 C 0.44774 0.94884 0.02125 0.0
C680 C 0.48297 0.98674 0.00353 0.0
C681 C 0.45135 0.98022 0.02415 0.0
C682 C 0.50313 0.03905 0.9972 0.0
C683 C 0.53541 0.01373 0.97451 0.0
N684 N 0.46858 -0.00189 0.01534 0.0
N685 N 0.51768 0.99581 0.9831 0.0
H686 H 0.04939 0.00336 0.53542 0.0
H687 H 0.9489 0.98812 0.46396 0.0
H688 H 0.03733 0.07698 0.50508 0.0
H689 H 0.96069 0.91476 0.49446 0.0
H690 H 0.98156 0.021 0.47877 0.0
H691 H 0.01727 0.97035 0.52044 0.0
C692 C 0.04001 0.01255 0.5256 0.0
C693 C 0.04601 0.04293 0.52149 0.0
C694 C 0.977 0.99771 0.48222 0.0
C695 C 0.00923 0.00537 0.50429 0.0
C696 C 0.95836 0.97895 0.47377 0.0
C697 C 0.95207 0.94869 0.47799 0.0
C698 C 0.98943 0.98611 0.49499 0.0
C699 C 0.96493 0.93796 0.4908 0.0
C700 C 0.02166 0.99372 0.51705 0.0
C701 C 0.03327 0.05368 0.50865 0.0
N702 N 0.98298 0.95664 0.49884 0.0
N703 N 0.01548 0.03494 0.50052 0.0
H704 H 0.94077 0.19636 0.02222 0.0
H705 H 0.03625 0.31604 0.06797 0.0
H706 H 0.96072 0.17982 0.0667 0.0
H707 H 0.05401 0.30063 0.02321 0.0
H708 H 0.00191 0.27127 0.06804 0.0
H709 H 0.97552 0.24055 0.02267 0.0
C710 C 0.95236 0.20216 0.03209 0.0
C711 C 0.948 0.18448 0.04444 0.0
C712 C 0.01346 0.27771 0.05825 0.0
C713 C 0.98738 0.23496 0.04504 0.0
C714 C 0.03291 0.3032 0.05818 0.0
C715 C 0.04793 0.31189 0.04557 0.0
C716 C 0.00856 0.26138 0.04553 0.0
C717 C 0.04294 0.29455 0.03317 0.0
C718 C 0.97226 0.22721 0.03231 0.0
C719 C 0.96363 0.19286 0.05694 0.0
N720 N 0.02342 0.27025 0.03342 0.0
N721 N 0.98253 0.21771 0.05697 0.0
H722 H 0.08819 0.74051 0.30201 0.0
H723 H 0.90553 0.75491 0.30142 0.0
H724 H 0.0283 0.66416 0.29264 0.0
H725 H 0.96562 0.83225 0.29437 0.0
H726 H 0.9504 0.72105 0.30212 0.0
H727 H 0.04333 0.77436 0.30309 0.0
C728 C 0.06558 0.73087 0.30025 0.0
C729 C 0.06187 0.69956 0.29717 0.0
C730 C 0.95372 0.74544 0.30045 0.0
C731 C 0.01065 0.73797 0.2985 0.0
C732 C 0.92819 0.76476 0.3001 0.0
C733 C 0.93195 0.79636 0.29777 0.0
C734 C 0.98319 0.75791 0.29865 0.0
C735 C 0.96177 0.80797 0.29611 0.0
C736 C 0.04005 0.75018 0.30082 0.0
C737 C 0.03212 0.68822 0.29497 0.0
N738 N 0.9863 0.78874 0.29661 0.0
N739 N 0.00759 0.70742 0.29572 0.0
H740 H 0.41211 0.71714 0.54472 0.0
H741 H 0.58314 0.78134 0.54342 0.0
H742 H 0.49123 0.65916 0.55121 0.0
H743 H 0.50474 0.83903 0.55203 0.0
H744 H 0.54972 0.73619 0.54438 0.0
H745 H 0.44557 0.76229 0.54553 0.0
C746 C 0.43652 0.71395 0.54635 0.0
C747 C 0.44899 0.68444 0.54788 0.0
C748 C 0.53988 0.75872 0.54613 0.0
C749 C 0.48732 0.73581 0.54869 0.0
C750 C 0.5589 0.78447 0.54554 0.0
C751 C 0.54662 0.8139 0.54763 0.0
C752 C 0.50832 0.76252 0.54862 0.0
C753 C 0.5151 0.8167 0.55038 0.0
C754 C 0.45557 0.73969 0.54685 0.0
C755 C 0.48073 0.68155 0.55 0.0
N756 N 0.49695 0.79133 0.55069 0.0
N757 N 0.49887 0.70692 0.55023 0.0
H758 H 0.56631 0.21184 0.81876 0.0
H759 H 0.44415 0.30374 0.77456 0.0
H760 H 0.54319 0.18444 0.77581 0.0
H761 H 0.42499 0.28077 0.81848 0.0
H762 H 0.48772 0.26807 0.77492 0.0
H763 H 0.52073 0.24518 0.81914 0.0
C764 C 0.55157 0.21282 0.80945 0.0
C765 C 0.55831 0.19545 0.79724 0.0
C766 C 0.47392 0.27091 0.78445 0.0
C767 C 0.50712 0.23373 0.7975 0.0
C768 C 0.44929 0.2913 0.78429 0.0
C769 C 0.43111 0.29503 0.79651 0.0
C770 C 0.48082 0.2549 0.79703 0.0
C771 C 0.4385 0.27832 0.80884 0.0
C772 C 0.52566 0.23166 0.8097 0.0
C773 C 0.5386 0.19739 0.78545 0.0
N774 N 0.46312 0.25912 0.80886 0.0
N775 N 0.51405 0.21659 0.78579 0.0
H776 H 0.91364 0.7798 0.45356 0.0
H777 H 0.08352 0.71249 0.45222 0.0
H778 H 0.99321 0.83619 0.4454 0.0
H779 H 0.00317 0.65595 0.44622 0.0
H780 H 0.05095 0.75827 0.4513 0.0
H781 H 0.94619 0.73406 0.45248 0.0
C782 C 0.93796 0.78252 0.4515 0.0
C783 C 0.95081 0.81176 0.44959 0.0
C784 C 0.04049 0.73585 0.4501 0.0
C785 C 0.98814 0.75968 0.44845 0.0
C786 C 0.05903 0.70974 0.45067 0.0
C787 C 0.04596 0.68045 0.44932 0.0
C788 C 0.00864 0.73257 0.44838 0.0
C789 C 0.01414 0.67815 0.44729 0.0
C790 C 0.95649 0.75643 0.45084 0.0
C791 C 0.98241 0.81402 0.44692 0.0
N792 N 0.99651 0.70388 0.44699 0.0
N793 N 8e-05 0.78831 0.44654 0.0
H794 H 0.53234 0.83344 0.7026 0.0
H795 H 0.467 0.66261 0.70288 0.0
H796 H 0.58967 0.75388 0.69591 0.0
H797 H 0.40971 0.74226 0.69633 0.0
H798 H 0.51242 0.69561 0.70164 0.0
H799 H 0.48699 0.80036 0.70162 0.0
C800 C 0.53534 0.80902 0.70088 0.0
C801 C 0.56472 0.79631 0.69937 0.0
C802 C 0.48991 0.70582 0.70039 0.0
C803 C 0.51312 0.7584 0.69835 0.0
C804 C 0.46402 0.68703 0.70114 0.0
C805 C 0.43464 0.69979 0.69974 0.0
C806 C 0.48629 0.7376 0.69843 0.0
C807 C 0.432 0.73152 0.69746 0.0
C808 C 0.50948 0.79018 0.70028 0.0
C809 C 0.56738 0.76457 0.69712 0.0
N810 N 0.45751 0.7494 0.69697 0.0
N811 N 0.54189 0.74663 0.69679 0.0
H812 H 0.55117 0.19371 0.97471 0.0
H813 H 0.46379 0.32077 0.92935 0.0
H814 H 0.53367 0.18191 0.92968 0.0
H815 H 0.44575 0.30539 0.97409 0.0
H816 H 0.49616 0.27458 0.92906 0.0
H817 H 0.51939 0.24004 0.97449 0.0
C818 C 0.54075 0.20099 0.96476 0.0
C819 C 0.54491 0.18401 0.9522 0.0
C820 C 0.48501 0.28136 0.93891 0.0
C821 C 0.50886 0.23693 0.95187 0.0
C822 C 0.46668 0.30767 0.93909 0.0
C823 C 0.45211 0.31676 0.95176 0.0
C824 C 0.4892 0.26454 0.95154 0.0
C825 C 0.4565 0.29904 0.9641 0.0
C826 C 0.52253 0.22729 0.96467 0.0
C827 C 0.53085 0.19435 0.93961 0.0
N828 N 0.47486 0.27387 0.96371 0.0
N829 N 0.51352 0.22033 0.93973 0.0
H830 H 0.08942 0.25012 0.19486 0.0
H831 H 0.90604 0.24355 0.19423 0.0
H832 H 0.03218 0.32969 0.20168 0.0
H833 H 0.96292 0.16399 0.2017 0.0
H834 H 0.95227 0.27547 0.19324 0.0
H835 H 0.04326 0.2181 0.19366 0.0
C836 C 0.06713 0.26085 0.19603 0.0
C837 C 0.06454 0.29253 0.19844 0.0
C838 C 0.9546 0.25101 0.19506 0.0
C839 C 0.01183 0.25619 0.19701 0.0
C840 C 0.92828 0.2328 0.19558 0.0
C841 C 0.93073 0.20115 0.19812 0.0
C842 C 0.98354 0.23739 0.19693 0.0
C843 C 0.96006 0.18835 0.1998 0.0
C844 C 0.04084 0.24258 0.19539 0.0
C845 C 0.03515 0.3053 0.19988 0.0
N846 N 0.98537 0.20653 0.19916 0.0
N847 N 0.00989 0.28708 0.19912 0.0
H848 H 0.96037 0.67957 0.93096 0.0
H849 H 0.05413 0.80166 0.97629 0.0
H850 H 0.94362 0.69466 0.97583 0.0
H851 H 0.03442 0.81628 0.93164 0.0
H852 H 0.02034 0.75673 0.97607 0.0
H853 H 0.99416 0.72472 0.93071 0.0
C854 C 0.96383 0.6924 0.94074 0.0
C855 C 0.94922 0.68352 0.95343 0.0
C856 C 0.02344 0.76981 0.96633 0.0
C857 C 0.98795 0.73452 0.95326 0.0
C858 C 0.04279 0.79529 0.96643 0.0
C859 C 0.04694 0.81264 0.95397 0.0
C860 C 0.00864 0.76134 0.95362 0.0
C861 C 0.03167 0.80352 0.94148 0.0
C862 C 0.98296 0.71811 0.94058 0.0
C863 C 0.95437 0.70087 0.96581 0.0
N864 N 0.01328 0.77829 0.94159 0.0
N865 N 0.97354 0.72543 0.96545 0.0
H866 H 0.94898 0.30938 0.72577 0.0
H867 H 0.07047 0.2149 0.68176 0.0
H868 H 0.92898 0.28364 0.68227 0.0
H869 H 0.04784 0.18982 0.72507 0.0
H870 H 0.02583 0.24957 0.68139 0.0
H871 H 0.99363 0.27502 0.72542 0.0
C872 C 0.95421 0.29672 0.71612 0.0
C873 C 0.9354 0.29915 0.70404 0.0
C874 C 0.03074 0.23635 0.69092 0.0
C875 C 0.98629 0.26051 0.70353 0.0
C876 C 0.0561 0.21675 0.69116 0.0
C877 C 0.06259 0.19954 0.70345 0.0
C878 C 0.01255 0.23932 0.70319 0.0
C879 C 0.04338 0.20261 0.71537 0.0
C880 C 0.97946 0.27707 0.71596 0.0
C881 C 0.94295 0.28217 0.6918 0.0
N882 N 0.01936 0.22246 0.71502 0.0
N883 N 0.96808 0.26366 0.6918 0.0
H884 H 0.50359 0.34093 0.4477 0.0
H885 H 0.49167 0.15787 0.4478 0.0
H886 H 0.58117 0.28185 0.45586 0.0
H887 H 0.41392 0.21696 0.45559 0.0
H888 H 0.5249 0.20321 0.44686 0.0
H889 H 0.47035 0.2956 0.4467 0.0
C890 C 0.51363 0.3184 0.44921 0.0
C891 C 0.5451 0.31507 0.45193 0.0
C892 C 0.50055 0.20621 0.44874 0.0
C893 C 0.50737 0.26329 0.45071 0.0
C894 C 0.48159 0.18041 0.44923 0.0
C895 C 0.45006 0.18374 0.45184 0.0
C896 C 0.48779 0.23553 0.45069 0.0
C897 C 0.43816 0.21342 0.45364 0.0
C898 C 0.49466 0.2926 0.44869 0.0
C899 C 0.55696 0.28539 0.45381 0.0
N900 N 0.45704 0.23822 0.453 0.0
N901 N 0.53808 0.26059 0.45314 0.0
H902 H 0.42574 0.78066 0.1823 0.0
H903 H 0.55121 0.69127 0.22781 0.0
H904 H 0.44342 0.8009 0.22666 0.0
H905 H 0.56212 0.70631 0.18254 0.0
H906 H 0.5058 0.72438 0.22755 0.0
H907 H 0.4705 0.74637 0.18214 0.0
C908 C 0.43903 0.77784 0.19199 0.0
C909 C 0.43104 0.79363 0.2045 0.0
C910 C 0.51815 0.72038 0.21768 0.0
C911 C 0.48163 0.75435 0.20443 0.0
C912 C 0.54392 0.70142 0.2178 0.0
C913 C 0.56041 0.6962 0.20518 0.0
C914 C 0.50853 0.73375 0.2048 0.0
C915 C 0.55006 0.70993 0.19251 0.0
C916 C 0.46453 0.75841 0.19187 0.0
C917 C 0.44896 0.78925 0.21677 0.0
N918 N 0.52462 0.72801 0.19261 0.0
N919 N 0.47332 0.76982 0.21646 0.0
H920 H 0.91294 0.28033 0.54618 0.0
H921 H 0.08292 0.21258 0.54712 0.0
H922 H 0.99305 0.33651 0.55345 0.0
H923 H 0.00237 0.15621 0.55284 0.0
H924 H 0.05044 0.25841 0.54788 0.0
H925 H 0.94538 0.23449 0.54706 0.0
C926 C 0.93736 0.28299 0.54799 0.0
C927 C 0.95038 0.3122 0.54972 0.0
C928 C 0.0399 0.23602 0.54905 0.0
C929 C 0.98759 0.25999 0.55064 0.0
C930 C 0.0584 0.20988 0.54857 0.0
C931 C 0.04526 0.18062 0.5499 0.0
C932 C 0.00802 0.23281 0.55068 0.0
C933 C 0.0134 0.17838 0.55179 0.0
C934 C 0.95583 0.25684 0.54853 0.0
C935 C 0.98211 0.31438 0.55208 0.0
N936 N 0.99581 0.20415 0.55203 0.0
N937 N -0.00031 0.28861 0.55237 0.0
H938 H 0.40683 0.24343 0.30458 0.0
H939 H 0.59012 0.25168 0.30528 0.0
H940 H 0.46472 0.16433 0.29779 0.0
H941 H 0.53251 0.3306 0.29758 0.0
H942 H 0.54419 0.21933 0.30635 0.0
H943 H 0.45272 0.27582 0.30582 0.0
C944 C 0.42922 0.23288 0.30343 0.0
C945 C 0.43205 0.20122 0.30101 0.0
C946 C 0.54164 0.24374 0.30446 0.0
C947 C 0.48447 0.238 0.30248 0.0
C948 C 0.56779 0.26221 0.3039 0.0
C949 C 0.56505 0.2938 0.30127 0.0
C950 C 0.51258 0.25706 0.30254 0.0
C951 C 0.5356 0.30629 0.29955 0.0
C952 C 0.45534 0.25136 0.30409 0.0
C953 C 0.46156 0.18869 0.29959 0.0
N954 N 0.51046 0.28788 0.30023 0.0
N955 N 0.48667 0.20712 0.30036 0.0
H956 H 0.41154 0.78124 0.04888 0.0
H957 H 0.58259 0.71726 0.0475 0.0
H958 H 0.4908 0.83928 0.05489 0.0
H959 H 0.50413 0.65929 0.05559 0.0
H960 H 0.5492 0.76236 0.04876 0.0
H961 H 0.44493 0.73607 0.04994 0.0
C962 C 0.43596 0.78444 0.05048 0.0
C963 C 0.44849 0.81397 0.05177 0.0
C964 C 0.53933 0.73978 0.05035 0.0
C965 C 0.48674 0.76259 0.05286 0.0
C966 C 0.55834 0.71406 0.04959 0.0
C967 C 0.54603 0.68457 0.05141 0.0
C968 C 0.50775 0.7359 0.05276 0.0
C969 C 0.5145 0.68167 0.05413 0.0
C970 C 0.45496 0.75869 0.05113 0.0
C971 C 0.48024 0.81688 0.05386 0.0
N972 N 0.49636 0.70703 0.05461 0.0
N973 N 0.49834 0.79149 0.05423 0.0
H974 H 0.9061 0.74296 0.80391 0.0
H975 H 0.08921 0.75201 0.80379 0.0
H976 H 0.96423 0.66421 0.79663 0.0
H977 H 0.03113 0.83093 0.79684 0.0
H978 H 0.04349 0.71945 0.80486 0.0
H979 H 0.9518 0.77556 0.80499 0.0
C980 C 0.92851 0.73253 0.80261 0.0
C981 C 0.93147 0.70091 0.80011 0.0
C982 C 0.04078 0.7439 0.80313 0.0
C983 C 0.98366 0.73795 0.8014 0.0
C984 C 0.06681 0.76249 0.80257 0.0
C985 C 0.06387 0.79415 0.80016 0.0
C986 C 0.01164 0.75715 0.80142 0.0
C987 C 0.03435 0.80657 0.79865 0.0
C988 C 0.95452 0.75114 0.80318 0.0
C989 C 0.96098 0.68854 0.7985 0.0
N990 N 0.00932 0.78802 0.79931 0.0
N991 N 0.98599 0.70711 0.79919 0.0
H992 H 0.31325 0.3462 0.97729 0.0
H993 H 0.18742 0.44393 0.02001 0.0
H994 H 0.31347 0.44527 0.97904 0.0
H995 H 0.18772 0.34494 0.01745 0.0
H996 H 0.23364 0.44524 0.00514 0.0
H997 H 0.26705 0.34558 0.99199 0.0
C998 C 0.30349 0.36785 0.98075 0.0
C999 C 0.31717 0.39584 0.97695 0.0
C1000 C 0.2236 0.42325 0.00784 0.0
C1001 C 0.26431 0.39533 0.99385 0.0
C1002 C 0.19727 0.42249 0.01634 0.0
C1003 C 0.18377 0.39428 0.01996 0.0
C1004 C 0.23647 0.39559 0.00294 0.0
C1005 C 0.1974 0.36719 0.01492 0.0
C1006 C 0.27712 0.36749 0.98916 0.0
C1007 C 0.30359 0.42319 0.98173 0.0
N1008 N 0.22298 0.36853 0.00667 0.0
N1009 N 0.2779 0.42226 0.98996 0.0
H1010 H 0.80116 0.06054 0.22587 0.0
H1011 H 0.90269 0.93321 0.26527 0.0
H1012 H 0.89973 0.06568 0.22987 0.0
H1013 H 0.80451 0.93994 0.27059 0.0
H1014 H 0.90165 0.97944 0.25052 0.0
H1015 H 0.80147 0.0139 0.24054 0.0
C1016 C 0.82284 0.05181 0.22982 0.0
C1017 C 0.85046 0.06694 0.22668 0.0
C1018 C 0.88032 0.97086 0.25493 0.0
C1019 C 0.85101 0.01374 0.24336 0.0
C1020 C 0.8809 0.94445 0.26332 0.0
C1021 C 0.85364 0.93281 0.26917 0.0
C1022 C 0.85225 0.98563 0.25224 0.0
C1023 C 0.82605 0.94826 0.26631 0.0
C1024 C 0.823 0.02529 0.23821 0.0
C1025 C 0.87791 0.05474 0.23207 0.0
N1026 N 0.82603 0.97387 0.25799 0.0
N1027 N 0.87749 0.02881 0.24011 0.0
H1028 H 0.18608 0.5505 0.47692 0.0
H1029 H 0.3128 0.65274 0.51622 0.0
H1030 H 0.17948 0.64889 0.48169 0.0
H1031 H 0.30702 0.55443 0.52153 0.0
H1032 H 0.26621 0.65136 0.50176 0.0
H1033 H 0.23275 0.55101 0.49157 0.0
C1034 C 0.19447 0.57218 0.48104 0.0
C1035 C 0.17895 0.5997 0.47811 0.0
C1036 C 0.27506 0.63008 0.50611 0.0
C1037 C 0.2322 0.60046 0.49474 0.0
C1038 C 0.3017 0.63084 0.51433 0.0
C1039 C 0.31371 0.60365 0.52009 0.0
C1040 C 0.26047 0.60188 0.50349 0.0
C1041 C 0.29841 0.57592 0.51732 0.0
C1042 C 0.22101 0.57244 0.48942 0.0
C1043 C 0.19073 0.62714 0.48372 0.0
N1044 N 0.27259 0.57571 0.50916 0.0
N1045 N 0.21671 0.62684 0.49172 0.0
H1046 H 0.62972 0.08674 0.74988 0.0
H1047 H 0.63028 0.90717 0.74774 0.0
H1048 H 0.66145 0.03571 0.78651 0.0
H1049 H 0.66522 0.95848 0.71183 0.0
H1050 H 0.63184 0.95419 0.76223 0.0
H1051 H 0.63285 0.0397 0.73548 0.0
C1052 C 0.63731 0.0656 0.75487 0.0
C1053 C 0.64536 0.06491 0.76935 0.0
C1054 C 0.63927 0.95499 0.75119 0.0
C1055 C 0.64836 0.0114 0.75314 0.0
C1056 C 0.63825 0.92837 0.74294 0.0
C1057 C 0.64765 0.92916 0.72863 0.0
C1058 C 0.64885 0.98261 0.74492 0.0
C1059 C 0.65791 0.95704 0.72287 0.0
C1060 C 0.63923 0.03896 0.74666 0.0
C1061 C 0.65518 0.03708 0.77534 0.0
N1062 N 0.65784 0.98289 0.731 0.0
N1063 N 0.65601 0.0112 0.76724 0.0
H1064 H 0.68951 0.55564 0.02537 0.0
H1065 H 0.8062 0.65345 0.97758 0.0
H1066 H 0.67717 0.65164 0.01539 0.0
H1067 H 0.81199 0.55495 0.9821 0.0
H1068 H 0.75967 0.65328 0.99208 0.0
H1069 H 0.73539 0.55491 0.01026 0.0
C1070 C 0.69648 0.57654 0.02 0.0
C1071 C 0.6796 0.60375 0.02163 0.0
C1072 C 0.77103 0.63167 0.98988 0.0
C1073 C 0.73192 0.60311 0.00439 0.0
C1074 C 0.79761 0.63176 0.98161 0.0
C1075 C 0.81293 0.60417 0.97866 0.0
C1076 C 0.75976 0.60379 0.99532 0.0
C1077 C 0.80081 0.57673 0.98413 0.0
C1078 C 0.7226 0.5761 0.01136 0.0
C1079 C 0.68955 0.63017 0.01442 0.0
N1080 N 0.77496 0.57724 0.99225 0.0
N1081 N 0.7151 0.62921 0.00614 0.0
H1082 H 0.13092 0.9053 0.75143 0.0
H1083 H 0.12625 0.08431 0.74918 0.0
H1084 H 0.16271 0.95708 0.78781 0.0
H1085 H 0.16499 0.03518 0.71346 0.0
H1086 H 0.12901 0.03716 0.7635 0.0
H1087 H 0.13299 0.95234 0.73693 0.0
C1088 C 0.13829 0.9266 0.75633 0.0
C1089 C 0.14665 0.92754 0.77078 0.0
C1090 C 0.13698 0.03685 0.75254 0.0
C1091 C 0.14841 0.98096 0.75447 0.0
C1092 C 0.13527 0.06354 0.74437 0.0
C1093 C 0.14543 0.06342 0.73018 0.0
C1094 C 0.148 0.00977 0.74629 0.0
C1095 C 0.15707 0.03608 0.72441 0.0
C1096 C 0.13962 0.95322 0.74807 0.0
C1097 C 0.15619 0.95554 0.77667 0.0
N1098 N 0.15765 0.01008 0.73245 0.0
N1099 N 0.15639 0.98137 0.76853 0.0
H1100 H 0.81525 0.34375 0.51891 0.0
H1101 H 0.68826 0.44409 0.47872 0.0
H1102 H 0.81004 0.44238 0.52285 0.0
H1103 H 0.68154 0.34601 0.48465 0.0
H1104 H 0.73513 0.44428 0.49322 0.0
H1105 H 0.76842 0.34442 0.5046 0.0
C1106 C 0.80423 0.36557 0.51675 0.0
C1107 C 0.81648 0.39306 0.52208 0.0
C1108 C 0.72332 0.42276 0.49136 0.0
C1109 C 0.76295 0.39402 0.50565 0.0
C1110 C 0.69667 0.42262 0.48307 0.0
C1111 C 0.68105 0.39499 0.4805 0.0
C1112 C 0.73454 0.39501 0.49698 0.0
C1113 C 0.69285 0.36783 0.48639 0.0
C1114 C 0.77746 0.36593 0.50862 0.0
C1115 C 0.80126 0.42067 0.51897 0.0
N1116 N 0.71895 0.36851 0.49431 0.0
N1117 N 0.7753 0.42048 0.5109 0.0
H1118 H 0.40102 0.07049 0.26532 0.0
H1119 H 0.3018 0.93437 0.23111 0.0
H1120 H 0.30462 0.05753 0.27409 0.0
H1121 H 0.40069 0.93894 0.22929 0.0
H1122 H 0.30145 0.98164 0.24531 0.0
H1123 H 0.40045 0.02439 0.25049 0.0
C1124 C 0.37971 0.05793 0.26411 0.0
C1125 C 0.35283 0.06776 0.27096 0.0
C1126 C 0.32321 0.97228 0.24179 0.0
C1127 C 0.35198 0.01501 0.25398 0.0
C1128 C 0.32341 0.94538 0.23367 0.0
C1129 C 0.35132 0.93275 0.22906 0.0
C1130 C 0.35111 0.98668 0.24523 0.0
C1131 C 0.37866 0.94788 0.23266 0.0
C1132 C 0.3794 0.03158 0.25566 0.0
C1133 C 0.32586 0.05065 0.26902 0.0
N1134 N 0.37786 0.97406 0.24052 0.0
N1135 N 0.3261 0.02509 0.26068 0.0
H1136 H 0.81721 0.84372 0.48233 0.0
H1137 H 0.68854 0.94417 0.52126 0.0
H1138 H 0.81047 0.94199 0.47714 0.0
H1139 H 0.68301 0.84582 0.51607 0.0
H1140 H 0.73574 0.94435 0.50698 0.0
H1141 H 0.77052 0.84452 0.49672 0.0
C1142 C 0.8059 0.86549 0.48424 0.0
C1143 C 0.81764 0.89283 0.47852 0.0
C1144 C 0.72412 0.92277 0.50896 0.0
C1145 C 0.76425 0.89394 0.49502 0.0
C1146 C 0.69728 0.92265 0.51712 0.0
C1147 C 0.6819 0.89494 0.51982 0.0
C1148 C 0.73574 0.89495 0.50362 0.0
C1149 C 0.69413 0.8677 0.51421 0.0
C1150 C 0.7792 0.86593 0.49242 0.0
C1151 C 0.80207 0.92039 0.48132 0.0
N1152 N 0.72038 0.86838 0.50642 0.0
N1153 N 0.77616 0.92028 0.48943 0.0
H1154 H 0.3358 0.53753 0.71159 0.0
H1155 H 0.32892 0.46099 0.78769 0.0
H1156 H 0.36505 0.58902 0.74852 0.0
H1157 H 0.3712 0.41328 0.75242 0.0
H1158 H 0.32782 0.50818 0.77316 0.0
H1159 H 0.3343 0.49078 0.72632 0.0
C1160 C 0.34165 0.53896 0.72281 0.0
C1161 C 0.35074 0.56691 0.7289 0.0
C1162 C 0.3372 0.48725 0.76867 0.0
C1163 C 0.34832 0.51423 0.74568 0.0
C1164 C 0.33774 0.46047 0.77687 0.0
C1165 C 0.35031 0.43347 0.7712 0.0
C1166 C 0.34839 0.48651 0.75463 0.0
C1167 C 0.36154 0.43381 0.75717 0.0
C1168 C 0.34089 0.51242 0.73114 0.0
C1169 C 0.35819 0.56773 0.74346 0.0
N1170 N 0.36005 0.45991 0.74927 0.0
N1171 N 0.35656 0.54172 0.75144 0.0
H1172 H 0.80631 0.05332 0.01999 0.0
H1173 H 0.68217 0.1516 0.97649 0.0
H1174 H 0.80767 0.15217 0.01653 0.0
H1175 H 0.67946 0.0527 0.97945 0.0
H1176 H 0.72844 0.15188 0.99112 0.0
H1177 H 0.75985 0.0522 0.00526 0.0
C1178 C 0.79677 0.07477 0.01616 0.0
C1179 C 0.8108 0.10289 0.01947 0.0
C1180 C 0.71781 0.13008 0.98857 0.0
C1181 C 0.75788 0.10179 0.00262 0.0
C1182 C 0.69139 0.12991 0.9802 0.0
C1183 C 0.67699 0.10208 0.97676 0.0
C1184 C 0.72996 0.1022 0.99358 0.0
C1185 C 0.6899 0.07466 0.98186 0.0
C1186 C 0.77031 0.07412 0.00774 0.0
C1187 C 0.79758 0.12999 0.01423 0.0
N1188 N 0.71568 0.07541 0.99004 0.0
N1189 N 0.77188 0.12876 0.00606 0.0
H1190 H 0.19125 0.55593 0.27101 0.0
H1191 H 0.09365 0.42591 0.23146 0.0
H1192 H 0.09294 0.55993 0.26563 0.0
H1193 H 0.19181 0.43456 0.22668 0.0
H1194 H 0.09334 0.47248 0.24598 0.0
H1195 H 0.19233 0.50885 0.25666 0.0
C1196 C 0.16992 0.54686 0.26683 0.0
C1197 C 0.14196 0.5618 0.26948 0.0
C1198 C 0.11495 0.46424 0.24174 0.0
C1199 C 0.14301 0.50808 0.25318 0.0
C1200 C 0.11516 0.43762 0.23349 0.0
C1201 C 0.1428 0.42645 0.22785 0.0
C1202 C 0.14263 0.47967 0.2445 0.0
C1203 C 0.16999 0.44251 0.2308 0.0
C1204 C 0.17056 0.52009 0.25862 0.0
C1205 C 0.11499 0.54916 0.2638 0.0
N1206 N 0.16925 0.46831 0.23897 0.0
N1207 N 0.11618 0.52297 0.25596 0.0
H1208 H 0.18637 0.05085 0.52357 0.0
H1209 H 0.31404 0.15296 0.48475 0.0
H1210 H 0.18054 0.14938 0.51925 0.0
H1211 H 0.30762 0.05476 0.4792 0.0
H1212 H 0.26759 0.15167 0.49933 0.0
H1213 H 0.23337 0.05137 0.50915 0.0
C1214 C 0.19502 0.07257 0.51961 0.0
C1215 C 0.17959 0.10011 0.52258 0.0
C1216 C 0.27629 0.13039 0.49491 0.0
C1217 C 0.23321 0.10089 0.5062 0.0
C1218 C 0.30284 0.13111 0.48662 0.0
C1219 C 0.31462 0.10392 0.48075 0.0
C1220 C 0.26153 0.10225 0.49747 0.0
C1221 C 0.2992 0.07625 0.4835 0.0
C1222 C 0.22175 0.07284 0.51136 0.0
C1223 C 0.1917 0.12761 0.51718 0.0
N1224 N 0.27345 0.07609 0.49172 0.0
N1225 N 0.21784 0.12731 0.50929 0.0
H1226 H 0.69361 0.43819 0.27565 0.0
H1227 H 0.59434 0.55441 0.2282 0.0
H1228 H 0.59788 0.4249 0.26551 0.0
H1229 H 0.69242 0.56268 0.23342 0.0
H1230 H 0.59525 0.50757 0.24246 0.0
H1231 H 0.69376 0.48462 0.26086 0.0
C1232 C 0.67265 0.44505 0.27031 0.0
C1233 C 0.64568 0.42774 0.27181 0.0
C1234 C 0.61662 0.51954 0.24048 0.0
C1235 C 0.64566 0.48069 0.25493 0.0
C1236 C 0.6161 0.54631 0.23234 0.0
C1237 C 0.64335 0.56242 0.22964 0.0
C1238 C 0.64458 0.50883 0.24604 0.0
C1239 C 0.6709 0.55089 0.23526 0.0
C1240 C 0.67276 0.47149 0.26186 0.0
C1241 C 0.61917 0.43759 0.26465 0.0
N1242 N 0.67081 0.5248 0.24324 0.0
N1243 N 0.61982 0.46343 0.25656 0.0
H1244 H 0.18374 0.94402 0.98071 0.0
H1245 H 0.31869 0.84459 0.01579 0.0
H1246 H 0.19015 0.84531 0.97764 0.0
H1247 H 0.30579 0.9412 0.0242 0.0
H1248 H 0.27338 0.84522 0.00048 0.0
H1249 H 0.23037 0.94433 0.99533 0.0
C1250 C 0.19504 0.92245 0.98307 0.0
C1251 C 0.1831 0.89459 0.978 0.0
C1252 C 0.28041 0.8663 0.00567 0.0
C1253 C 0.23626 0.89474 0.99468 0.0
C1254 C 0.30629 0.86595 0.01441 0.0
C1255 C 0.31591 0.89287 0.02129 0.0
C1256 C 0.26408 0.89381 0.00375 0.0
C1257 C 0.29905 0.91992 0.01912 0.0
C1258 C 0.22157 0.92262 0.99144 0.0
C1259 C 0.19857 0.86729 0.98137 0.0
N1260 N 0.27392 0.91972 0.01051 0.0
N1261 N 0.22434 0.86806 0.9895 0.0
H1262 H 0.83157 0.45992 0.7129 0.0
H1263 H 0.83056 0.53793 0.78893 0.0
H1264 H 0.86549 0.41108 0.74975 0.0
H1265 H 0.8648 0.58737 0.75232 0.0
H1266 H 0.82929 0.49073 0.77451 0.0
H1267 H 0.82971 0.50727 0.72723 0.0
C1268 C 0.83836 0.45918 0.72403 0.0
C1269 C 0.84885 0.4318 0.7302 0.0
C1270 C 0.83692 0.51202 0.76969 0.0
C1271 C 0.84611 0.48514 0.74653 0.0
C1272 C 0.83755 0.53883 0.77784 0.0
C1273 C 0.84797 0.56634 0.77176 0.0
C1274 C 0.84588 0.51313 0.75531 0.0
C1275 C 0.85687 0.56645 0.75737 0.0
C1276 C 0.83742 0.48607 0.73212 0.0
C1277 C 0.85751 0.43189 0.74462 0.0
N1278 N 0.85539 0.54021 0.74955 0.0
N1279 N 0.8557 0.45818 0.75238 0.0
H1280 H 0.09814 0.43175 0.09227 0.0
H1281 H 0.18426 0.3389 0.15422 0.0
H1282 H 0.16485 0.36046 0.0844 0.0
H1283 H 0.11872 0.41131 0.16201 0.0
H1284 H 0.18142 0.34996 0.12862 0.0
H1285 H 0.1092 0.42818 0.11784 0.0
C1286 C 0.11534 0.41558 0.09591 0.0
C1287 C 0.13042 0.39621 0.08622 0.0
C1288 C 0.16787 0.36362 0.13594 0.0
C1289 C 0.14305 0.39179 0.11545 0.0
C1290 C 0.16954 0.35734 0.15055 0.0
C1291 C 0.15151 0.37404 0.16023 0.0
C1292 C 0.14793 0.38668 0.13097 0.0
C1293 C 0.13287 0.39773 0.15491 0.0
C1294 C 0.12163 0.4135 0.11051 0.0
C1295 C 0.15255 0.37571 0.09152 0.0
N1296 N 0.13137 0.40316 0.14064 0.0
N1297 N 0.15801 0.37386 0.10578 0.0
H1298 H 0.83188 0.86557 0.41311 0.0
H1299 H 0.88289 0.91696 0.33464 0.0
H1300 H 0.90399 0.93107 0.40468 0.0
H1301 H 0.8153 0.84676 0.34299 0.0
H1302 H 0.88614 0.92724 0.36022 0.0
H1303 H 0.82085 0.86325 0.38756 0.0
C1304 C 0.84521 0.87972 0.40588 0.0
C1305 C 0.86907 0.89837 0.411 0.0
C1306 C 0.8704 0.90976 0.35647 0.0
C1307 C 0.85666 0.89567 0.38171 0.0
C1308 C 0.86848 0.9039 0.34185 0.0
C1309 C 0.84896 0.88078 0.3367 0.0
C1310 C 0.85274 0.8923 0.36604 0.0
C1311 C 0.83075 0.86469 0.34652 0.0
C1312 C 0.83892 0.87833 0.39129 0.0
C1313 C 0.88549 0.91628 0.40117 0.0
N1314 N 0.83326 0.87059 0.36074 0.0
N1315 N 0.87914 0.91431 0.38698 0.0
H1316 H 0.31276 0.6523 0.65597 0.0
H1317 H 0.40196 0.56503 0.5931 0.0
H1318 H 0.38576 0.58699 0.66293 0.0
H1319 H 0.33205 0.63353 0.5859 0.0
H1320 H 0.39199 0.56824 0.61878 0.0
H1321 H 0.31517 0.64134 0.63033 0.0
C1322 C 0.32907 0.63545 0.65212 0.0
C1323 C 0.34926 0.62073 0.66156 0.0
C1324 C 0.37864 0.58238 0.61158 0.0
C1325 C 0.35227 0.60817 0.63229 0.0
C1326 C 0.38429 0.58049 0.59692 0.0
C1327 C 0.36799 0.59922 0.58739 0.0
C1328 C 0.35658 0.60321 0.61673 0.0
C1329 C 0.34529 0.61881 0.5929 0.0
C1330 C 0.33049 0.62923 0.63749 0.0
C1331 C 0.36991 0.59904 0.65601 0.0
N1332 N 0.34043 0.62047 0.60721 0.0
N1333 N 0.37102 0.59358 0.64174 0.0
H1334 H 0.67996 0.1439 0.84262 0.0
H1335 H 0.58025 0.06555 0.9045 0.0
H1336 H 0.60098 0.08655 0.83469 0.0
H1337 H 0.66053 0.12115 0.91229 0.0
H1338 H 0.59021 0.06894 0.87882 0.0
H1339 H 0.67596 0.13203 0.86809 0.0
C1340 C 0.66193 0.12861 0.84623 0.0
C1341 C 0.64064 0.11637 0.83655 0.0
C1342 C 0.60581 0.08016 0.88615 0.0
C1343 C 0.63577 0.10282 0.86568 0.0
C1344 C 0.60016 0.07816 0.90081 0.0
C1345 C 0.61946 0.09328 0.91052 0.0
C1346 C 0.63086 0.09751 0.88118 0.0
C1347 C 0.64495 0.10929 0.90516 0.0
C1348 C 0.65964 0.12184 0.86077 0.0
C1349 C 0.6178 0.09662 0.8418 0.0
N1350 N 0.64977 0.11119 0.89086 0.0
N1351 N 0.61582 0.09064 0.85601 0.0
H1352 H 0.10669 0.58031 0.33408 0.0
H1353 H 0.1652 0.62342 0.41248 0.0
H1354 H 0.18004 0.64448 0.34238 0.0
H1355 H 0.08863 0.56316 0.40414 0.0
H1356 H 0.17512 0.62643 0.38684 0.0
H1357 H 0.10391 0.56893 0.35957 0.0
C1358 C 0.12242 0.59181 0.34127 0.0
C1359 C 0.14348 0.61357 0.33613 0.0
C1360 C 0.15631 0.61233 0.39061 0.0
C1361 C 0.1403 0.60076 0.36537 0.0
C1362 C 0.15066 0.61055 0.40525 0.0
C1363 C 0.12589 0.5932 0.41043 0.0
C1364 C 0.13699 0.59673 0.38104 0.0
C1365 C 0.10789 0.57691 0.40059 0.0
C1366 C 0.1208 0.58532 0.35583 0.0
C1367 C 0.16338 0.62766 0.34591 0.0
N1368 N 0.11364 0.57927 0.38636 0.0
N1369 N 0.16114 0.62118 0.36008 0.0
H1370 H 0.61306 0.91231 0.66326 0.0
H1371 H 0.66616 0.86464 0.58465 0.0
H1372 H 0.68337 0.84494 0.65475 0.0
H1373 H 0.59483 0.93083 0.59333 0.0
H1374 H 0.67673 0.86125 0.61022 0.0
H1375 H 0.61005 0.92343 0.63777 0.0
C1376 C 0.62808 0.90002 0.65602 0.0
C1377 C 0.64833 0.87747 0.66111 0.0
C1378 C 0.65894 0.87672 0.60654 0.0
C1379 C 0.64485 0.88997 0.63185 0.0
C1380 C 0.65291 0.8787 0.59194 0.0
C1381 C 0.6294 0.89787 0.58688 0.0
C1382 C 0.64125 0.89394 0.61619 0.0
C1383 C 0.61306 0.91566 0.59678 0.0
C1384 C 0.62633 0.90638 0.64145 0.0
C1385 C 0.66735 0.86241 0.65126 0.0
N1386 N 0.61913 0.91306 0.61098 0.0
N1387 N 0.66496 0.86875 0.63708 0.0
H1388 H 0.31249 0.3562 0.84288 0.0
H1389 H 0.41283 0.4337 0.90486 0.0
H1390 H 0.39506 0.40843 0.83522 0.0
H1391 H 0.33371 0.37645 0.91263 0.0
H1392 H 0.40302 0.43008 0.87918 0.0
H1393 H 0.31632 0.36855 0.86831 0.0
C1394 C 0.33128 0.37047 0.84654 0.0
C1395 C 0.35363 0.3811 0.83695 0.0
C1396 C 0.38764 0.41853 0.88651 0.0
C1397 C 0.35825 0.39524 0.86603 0.0
C1398 C 0.39319 0.42068 0.90117 0.0
C1399 C 0.3742 0.40516 0.91087 0.0
C1400 C 0.36295 0.4007 0.88153 0.0
C1401 C 0.34905 0.38863 0.90551 0.0
C1402 C 0.33349 0.37749 0.86106 0.0
C1403 C 0.37743 0.39959 0.84226 0.0
N1404 N 0.34429 0.38665 0.8912 0.0
N1405 N 0.37923 0.40591 0.85645 0.0
H1406 H 0.81119 0.15787 0.15365 0.0
H1407 H 0.89503 0.06414 0.09127 0.0
H1408 H 0.87455 0.08337 0.16107 0.0
H1409 H 0.83166 0.13857 0.08372 0.0
H1410 H 0.8837 0.06731 0.11682 0.0
H1411 H 0.81412 0.14766 0.12796 0.0
C1412 C 0.82543 0.13914 0.14988 0.0
C1413 C 0.84284 0.1216 0.15948 0.0
C1414 C 0.87207 0.08279 0.10957 0.0
C1415 C 0.84652 0.10992 0.13014 0.0
C1416 C 0.87851 0.08094 0.09498 0.0
C1417 C 0.86445 0.10128 0.08538 0.0
C1418 C 0.8515 0.10521 0.1146 0.0
C1419 C 0.84317 0.12256 0.09076 0.0
C1420 C 0.82716 0.13335 0.13522 0.0
C1421 C 0.86089 0.09759 0.15403 0.0
N1422 N 0.83753 0.12413 0.10501 0.0
N1423 N 0.86245 0.09263 0.13973 0.0
H1424 H 0.88618 0.58568 0.83648 0.0
H1425 H 0.82898 0.629 0.91502 0.0
H1426 H 0.81273 0.64965 0.84491 0.0
H1427 H 0.90388 0.56685 0.9064 0.0
H1428 H 0.81882 0.63241 0.88942 0.0
H1429 H 0.88913 0.57422 0.86194 0.0
C1430 C 0.87048 0.59716 0.84369 0.0
C1431 C 0.84933 0.61886 0.83859 0.0
C1432 C 0.8373 0.61781 0.89311 0.0
C1433 C 0.85272 0.60595 0.86782 0.0
C1434 C 0.84309 0.6158 0.90774 0.0
C1435 C 0.86748 0.59779 0.91283 0.0
C1436 C 0.85611 0.60179 0.88348 0.0
C1437 C 0.88494 0.58111 0.90292 0.0
C1438 C 0.8722 0.5906 0.85824 0.0
C1439 C 0.82946 0.63288 0.84841 0.0
N1440 N 0.87908 0.58371 0.88871 0.0
N1441 N 0.83181 0.62637 0.86258 0.0
H1442 H 0.0836 0.064 0.59558 0.0
H1443 H 0.18292 0.14076 0.65812 0.0
H1444 H 0.16287 0.12132 0.58828 0.0
H1445 H 0.10095 0.08738 0.66544 0.0
H1446 H 0.17935 0.12894 0.63263 0.0
H1447 H 0.09302 0.06721 0.62132 0.0
C1448 C 0.10318 0.07696 0.59939 0.0
C1449 C 0.12234 0.09261 0.5898 0.0
C1450 C 0.16226 0.11962 0.63982 0.0
C1451 C 0.13316 0.09658 0.6192 0.0
C1452 C 0.16432 0.12633 0.65438 0.0
C1453 C 0.14206 0.11523 0.66388 0.0
C1454 C 0.13772 0.10172 0.63474 0.0
C1455 C 0.1185 0.09657 0.65846 0.0
C1456 C 0.10851 0.07887 0.61408 0.0
C1457 C 0.14741 0.10905 0.59531 0.0
N1458 N 0.11683 0.09057 0.64424 0.0
N1459 N 0.15196 0.11079 0.60963 0.0
H1460 H 0.59739 0.4342 0.40711 0.0
H1461 H 0.68502 0.34194 0.34537 0.0
H1462 H 0.66377 0.36267 0.41509 0.0
H1463 H 0.61735 0.41228 0.33743 0.0
H1464 H 0.68198 0.3533 0.37095 0.0
H1465 H 0.60873 0.43066 0.38156 0.0
C1466 C 0.61458 0.418 0.4035 0.0
C1467 C 0.62947 0.39852 0.41321 0.0
C1468 C 0.668 0.36645 0.3636 0.0
C1469 C 0.64243 0.39416 0.38401 0.0
C1470 C 0.66979 0.36 0.349 0.0
C1471 C 0.65123 0.37601 0.33929 0.0
C1472 C 0.64743 0.389 0.36851 0.0
C1473 C 0.63193 0.39922 0.34456 0.0
C1474 C 0.62102 0.41593 0.38891 0.0
C1475 C 0.6516 0.37798 0.40796 0.0
N1476 N 0.63035 0.40484 0.35881 0.0
N1477 N 0.65723 0.37617 0.39371 0.0
H1478 H 0.32766 0.87135 0.08746 0.0
H1479 H 0.38654 0.91296 0.16595 0.0
H1480 H 0.40472 0.93093 0.0959 0.0
H1481 H 0.3125 0.84973 0.15742 0.0
H1482 H 0.38942 0.92476 0.1405 0.0
H1483 H 0.31763 0.86832 0.11307 0.0
C1484 C 0.34228 0.88409 0.0947 0.0
C1485 C 0.36723 0.90122 0.08956 0.0
C1486 C 0.37236 0.90849 0.14418 0.0
C1487 C 0.35602 0.89764 0.11893 0.0
C1488 C 0.37068 0.90176 0.15873 0.0
C1489 C 0.3494 0.88013 0.16379 0.0
C1490 C 0.35269 0.89343 0.13459 0.0
C1491 C 0.32934 0.86643 0.15396 0.0
C1492 C 0.33657 0.88229 0.10934 0.0
C1493 C 0.38532 0.91735 0.09942 0.0
N1494 N 0.33164 0.87313 0.13981 0.0
N1495 N 0.37952 0.91494 0.11365 0.0
H1496 H 0.89309 0.40973 0.66582 0.0
H1497 H 0.8315 0.37093 0.58739 0.0
H1498 H 0.81647 0.34959 0.65737 0.0
H1499 H 0.91083 0.42761 0.5956 0.0
H1500 H 0.82219 0.36762 0.61306 0.0
H1501 H 0.89658 0.42104 0.64031 0.0
C1502 C 0.87684 0.39907 0.6586 0.0
C1503 C 0.85458 0.3785 0.6637 0.0
C1504 C 0.8415 0.38099 0.60926 0.0
C1505 C 0.85852 0.39128 0.63447 0.0
C1506 C 0.8468 0.38295 0.5946 0.0
C1507 C 0.87212 0.39939 0.58937 0.0
C1508 C 0.86173 0.39548 0.6188 0.0
C1509 C 0.89111 0.41459 0.59919 0.0
C1510 C 0.87886 0.40553 0.64403 0.0
C1511 C 0.83407 0.36546 0.65388 0.0
N1512 N 0.88567 0.41207 0.61345 0.0
N1513 N 0.83666 0.37192 0.63972 0.0
H1514 H 0.37879 0.08107 0.33686 0.0
H1515 H 0.32993 0.13434 0.41534 0.0
H1516 H 0.3139 0.15373 0.34529 0.0
H1517 H 0.39881 0.06544 0.40694 0.0
H1518 H 0.31897 0.1371 0.3898 0.0
H1519 H 0.38153 0.07045 0.36244 0.0
C1520 C 0.36485 0.0946 0.34409 0.0
C1521 C 0.34627 0.11851 0.33896 0.0
C1522 C 0.33631 0.12118 0.39353 0.0
C1523 C 0.34946 0.10659 0.36829 0.0
C1524 C 0.34255 0.11955 0.40812 0.0
C1525 C 0.36551 0.09981 0.41325 0.0
C1526 C 0.35321 0.103 0.38396 0.0
C1527 C 0.38103 0.08109 0.40343 0.0
C1528 C 0.36648 0.08855 0.35871 0.0
C1529 C 0.32863 0.13519 0.3488 0.0
N1530 N 0.37477 0.08333 0.38924 0.0
N1531 N 0.33085 0.12908 0.36301 0.0
H1532 H 0.61824 0.57866 0.16578 0.0
H1533 H 0.6646 0.6347 0.08736 0.0
H1534 H 0.67931 0.65461 0.15742 0.0
H1535 H 0.59653 0.56495 0.09569 0.0
H1536 H 0.67564 0.63734 0.11289 0.0
H1537 H 0.6155 0.56846 0.14016 0.0
C1538 C 0.63134 0.59301 0.15856 0.0
C1539 C 0.64883 0.6177 0.16372 0.0
C1540 C 0.65847 0.62127 0.10914 0.0
C1541 C 0.64566 0.60624 0.13436 0.0
C1542 C 0.65218 0.6197 0.09456 0.0
C1543 C 0.62942 0.59974 0.08941 0.0
C1544 C 0.64184 0.60278 0.11869 0.0
C1545 C 0.61415 0.58076 0.09921 0.0
C1546 C 0.62971 0.5872 0.14392 0.0
C1547 C 0.66542 0.63544 0.15389 0.0
N1548 N 0.62047 0.58291 0.1134 0.0
N1549 N 0.66324 0.62951 0.13966 0.0
H1550 H 0.18441 0.84431 0.84421 0.0
H1551 H 0.09229 0.93118 0.90628 0.0
H1552 H 0.11045 0.9082 0.83663 0.0
H1553 H 0.1639 0.86481 0.91412 0.0
H1554 H 0.10268 0.92748 0.88066 0.0
H1555 H 0.1813 0.85578 0.86979 0.0
C1556 C 0.16774 0.86096 0.84791 0.0
C1557 C 0.1475 0.87513 0.83831 0.0
C1558 C 0.11631 0.91391 0.88799 0.0
C1559 C 0.14367 0.88827 0.86751 0.0
C1560 C 0.11042 0.91608 0.90262 0.0
C1561 C 0.12709 0.8981 0.91232 0.0
C1562 C 0.13898 0.89353 0.88303 0.0
C1563 C 0.15036 0.87895 0.90699 0.0
C1564 C 0.16592 0.86748 0.86251 0.0
C1565 C 0.12636 0.89657 0.84368 0.0
N1566 N 0.15546 0.87699 0.89271 0.0
N1567 N 0.12486 0.90232 0.85791 0.0
loop_
_geom_bond_atom_site_label_1
_geom_bond_atom_site_label_2
_geom_bond_distance
_geom_bond_site_symmetry_2
_ccdc_geom_bond_type
In0 O1 2.294 . S
In0 O2 2.326 . S
In0 O6 2.266 . S
In0 O7 2.326 . S
In0 O8 2.266 . S
In0 O9 2.326 . S
In0 O11 2.294 . S
In0 O12 2.326 . S
O1 In0 2.294 . S
O1 C10 1.240 . S
O2 In0 2.326 . S
O2 C10 1.252 . S
C3 O6 1.252 . S
C3 O7 1.260 . S
C4 O11 1.240 . S
C4 O12 1.252 . S
C5 O8 1.252 . S
C5 O9 1.260 . S
O6 In0 2.266 . S
O6 C3 1.252 . S
O7 In0 2.326 . S
O7 C3 1.260 . S
O8 In0 2.266 . S
O8 C5 1.252 . S
O9 In0 2.326 . S
O9 C5 1.260 . S
C10 O1 1.240 . S
C10 O2 1.252 . S
O11 In0 2.294 . S
O11 C4 1.240 . S
O12 In0 2.326 . S
O12 C4 1.252 . S
In13 O14 2.294 . S
In13 O15 2.326 . S
In13 O19 2.266 . S
In13 O20 2.326 . S
In13 O21 2.266 . S
In13 O22 2.326 . S
In13 O24 2.294 . S
In13 O25 2.326 . S
O14 In13 2.294 . S
O14 C23 1.240 . S
O15 In13 2.326 . S
O15 C23 1.252 . S
C16 O19 1.252 . S
C16 O20 1.260 . S
C17 O24 1.240 . S
C17 O25 1.252 . S
C18 O21 1.252 . S
C18 O22 1.260 . S
O19 In13 2.266 . S
O19 C16 1.252 . S
O20 In13 2.326 . S
O20 C16 1.260 . S
O21 In13 2.266 . S
O21 C18 1.252 . S
O22 In13 2.326 . S
O22 C18 1.260 . S
C23 O14 1.240 . S
C23 O15 1.252 . S
O24 In13 2.294 . S
O24 C17 1.240 . S
O25 In13 2.326 . S
O25 C17 1.252 . S
In26 O27 2.294 . S
In26 O28 2.326 . S
In26 O32 2.266 . S
In26 O33 2.326 . S
In26 O34 2.266 . S
In26 O35 2.326 . S
In26 O37 2.294 . S
In26 O38 2.326 . S
O27 In26 2.294 . S
O27 C36 1.240 . S
O28 In26 2.326 . S
O28 C36 1.252 . S
C29 O32 1.252 . S
C29 O33 1.260 . S
C30 O37 1.240 . S
C30 O38 1.252 . S
C31 O34 1.252 . S
C31 O35 1.260 . S
O32 In26 2.266 . S
O32 C29 1.252 . S
O33 In26 2.326 . S
O33 C29 1.260 . S
O34 In26 2.266 . S
O34 C31 1.252 . S
O35 In26 2.326 . S
O35 C31 1.260 . S
C36 O27 1.240 . S
C36 O28 1.252 . S
O37 In26 2.294 . S
O37 C30 1.240 . S
O38 In26 2.326 . S
O38 C30 1.252 . S
In39 O40 2.294 . S
In39 O41 2.326 . S
In39 O45 2.266 . S
In39 O46 2.326 . S
In39 O47 2.266 . S
In39 O48 2.326 . S
In39 O50 2.294 . S
In39 O51 2.326 . S
O40 In39 2.294 . S
O40 C49 1.240 . S
O41 In39 2.326 . S
O41 C49 1.252 . S
C42 O45 1.252 . S
C42 O46 1.260 . S
C43 O50 1.240 . S
C43 O51 1.252 . S
C44 O47 1.252 . S
C44 O48 1.260 . S
O45 In39 2.266 . S
O45 C42 1.252 . S
O46 In39 2.326 . S
O46 C42 1.260 . S
O47 In39 2.266 . S
O47 C44 1.252 . S
O48 In39 2.326 . S
O48 C44 1.260 . S
C49 O40 1.240 . S
C49 O41 1.252 . S
O50 In39 2.294 . S
O50 C43 1.240 . S
O51 In39 2.326 . S
O51 C43 1.252 . S
In52 O53 2.294 . S
In52 O54 2.326 . S
In52 O58 2.266 . S
In52 O59 2.326 . S
In52 O60 2.266 . S
In52 O61 2.326 . S
In52 O63 2.294 . S
In52 O64 2.326 . S
O53 In52 2.294 . S
O53 C62 1.240 . S
O54 In52 2.326 . S
O54 C62 1.252 . S
C55 O58 1.252 . S
C55 O59 1.260 . S
C56 O63 1.240 . S
C56 O64 1.252 . S
C57 O60 1.252 . S
C57 O61 1.260 . S
O58 In52 2.266 . S
O58 C55 1.252 . S
O59 In52 2.326 . S
O59 C55 1.260 . S
O60 In52 2.266 . S
O60 C57 1.252 . S
O61 In52 2.326 . S
O61 C57 1.260 . S
C62 O53 1.240 . S
C62 O54 1.252 . S
O63 In52 2.294 . S
O63 C56 1.240 . S
O64 In52 2.326 . S
O64 C56 1.252 . S
In65 O66 2.294 . S
In65 O67 2.326 . S
In65 O71 2.266 . S
In65 O72 2.326 . S
In65 O73 2.266 . S
In65 O74 2.326 . S
In65 O76 2.294 . S
In65 O77 2.326 . S
O66 In65 2.294 . S
O66 C75 1.240 . S
O67 In65 2.326 . S
O67 C75 1.252 . S
C68 O71 1.252 . S
C68 O72 1.260 . S
C69 O76 1.240 . S
C69 O77 1.252 . S
C70 O73 1.252 . S
C70 O74 1.260 . S
O71 In65 2.266 . S
O71 C68 1.252 . S
O72 In65 2.326 . S
O72 C68 1.260 . S
O73 In65 2.266 . S
O73 C70 1.252 . S
O74 In65 2.326 . S
O74 C70 1.260 . S
C75 O66 1.240 . S
C75 O67 1.252 . S
O76 In65 2.294 . S
O76 C69 1.240 . S
O77 In65 2.326 . S
O77 C69 1.252 . S
In78 O79 2.294 . S
In78 O80 2.326 . S
In78 O84 2.266 . S
In78 O85 2.326 . S
In78 O86 2.266 . S
In78 O87 2.326 . S
In78 O89 2.294 . S
In78 O90 2.326 . S
O79 In78 2.294 . S
O79 C88 1.240 . S
O80 In78 2.326 . S
O80 C88 1.252 . S
C81 O84 1.252 . S
C81 O85 1.260 . S
C82 O89 1.240 . S
C82 O90 1.252 . S
C83 O86 1.252 . S
C83 O87 1.260 . S
O84 In78 2.266 . S
O84 C81 1.252 . S
O85 In78 2.326 . S
O85 C81 1.260 . S
O86 In78 2.266 . S
O86 C83 1.252 . S
O87 In78 2.326 . S
O87 C83 1.260 . S
C88 O79 1.240 . S
C88 O80 1.252 . S
O89 In78 2.294 . S
O89 C82 1.240 . S
O90 In78 2.326 . S
O90 C82 1.252 . S
In91 O92 2.294 . S
In91 O93 2.326 . S
In91 O97 2.266 . S
In91 O98 2.326 . S
In91 O99 2.266 . S
In91 O100 2.326 . S
In91 O102 2.294 . S
In91 O103 2.326 . S
O92 In91 2.294 . S
O92 C101 1.240 . S
O93 In91 2.326 . S
O93 C101 1.252 . S
C94 O97 1.252 . S
C94 O98 1.260 . S
C95 O102 1.240 . S
C95 O103 1.252 . S
C96 O99 1.252 . S
C96 O100 1.260 . S
O97 In91 2.266 . S
O97 C94 1.252 . S
O98 In91 2.326 . S
O98 C94 1.260 . S
O99 In91 2.266 . S
O99 C96 1.252 . S
O100 In91 2.326 . S
O100 C96 1.260 . S
C101 O92 1.240 . S
C101 O93 1.252 . S
O102 In91 2.294 . S
O102 C95 1.240 . S
O103 In91 2.326 . S
O103 C95 1.252 . S
In104 O105 2.294 . S
In104 O106 2.326 . S
In104 O110 2.266 . S
In104 O111 2.326 . S
In104 O112 2.266 . S
In104 O113 2.326 . S
In104 O115 2.294 . S
In104 O116 2.326 . S
O105 In104 2.294 . S
O105 C114 1.240 . S
O106 In104 2.326 . S
O106 C114 1.252 . S
C107 O110 1.252 . S
C107 O111 1.260 . S
C108 O115 1.240 . S
C108 O116 1.252 . S
C109 O112 1.252 . S
C109 O113 1.260 . S
O110 In104 2.266 . S
O110 C107 1.252 . S
O111 In104 2.326 . S
O111 C107 1.260 . S
O112 In104 2.266 . S
O112 C109 1.252 . S
O113 In104 2.326 . S
O113 C109 1.260 . S
C114 O105 1.240 . S
C114 O106 1.252 . S
O115 In104 2.294 . S
O115 C108 1.240 . S
O116 In104 2.326 . S
O116 C108 1.252 . S
In117 O118 2.294 . S
In117 O119 2.326 . S
In117 O123 2.266 . S
In117 O124 2.326 . S
In117 O125 2.266 . S
In117 O126 2.326 . S
In117 O128 2.294 . S
In117 O129 2.326 . S
O118 In117 2.294 . S
O118 C127 1.240 . S
O119 In117 2.326 . S
O119 C127 1.252 . S
C120 O123 1.252 . S
C120 O124 1.260 . S
C121 O128 1.240 . S
C121 O129 1.252 . S
C122 O125 1.252 . S
C122 O126 1.260 . S
O123 In117 2.266 . S
O123 C120 1.252 . S
O124 In117 2.326 . S
O124 C120 1.260 . S
O125 In117 2.266 . S
O125 C122 1.252 . S
O126 In117 2.326 . S
O126 C122 1.260 . S
C127 O118 1.240 . S
C127 O119 1.252 . S
O128 In117 2.294 . S
O128 C121 1.240 . S
O129 In117 2.326 . S
O129 C121 1.252 . S
In130 O131 2.294 . S
In130 O132 2.326 . S
In130 O136 2.266 . S
In130 O137 2.326 . S
In130 O138 2.266 . S
In130 O139 2.326 . S
In130 O141 2.294 . S
In130 O142 2.326 . S
O131 In130 2.294 . S
O131 C140 1.240 . S
O132 In130 2.326 . S
O132 C140 1.252 . S
C133 O136 1.252 . S
C133 O137 1.260 . S
C134 O141 1.240 . S
C134 O142 1.252 . S
C135 O138 1.252 . S
C135 O139 1.260 . S
O136 In130 2.266 . S
O136 C133 1.252 . S
O137 In130 2.326 . S
O137 C133 1.260 . S
O138 In130 2.266 . S
O138 C135 1.252 . S
O139 In130 2.326 . S
O139 C135 1.260 . S
C140 O131 1.240 . S
C140 O132 1.252 . S
O141 In130 2.294 . S
O141 C134 1.240 . S
O142 In130 2.326 . S
O142 C134 1.252 . S
In143 O144 2.294 . S
In143 O145 2.326 . S
In143 O149 2.266 . S
In143 O150 2.326 . S
In143 O151 2.266 . S
In143 O152 2.326 . S
In143 O154 2.294 . S
In143 O155 2.326 . S
O144 In143 2.294 . S
O144 C153 1.240 . S
O145 In143 2.326 . S
O145 C153 1.252 . S
C146 O149 1.252 . S
C146 O150 1.260 . S
C147 O154 1.240 . S
C147 O155 1.252 . S
C148 O151 1.252 . S
C148 O152 1.260 . S
O149 In143 2.266 . S
O149 C146 1.252 . S
O150 In143 2.326 . S
O150 C146 1.260 . S
O151 In143 2.266 . S
O151 C148 1.252 . S
O152 In143 2.326 . S
O152 C148 1.260 . S
C153 O144 1.240 . S
C153 O145 1.252 . S
O154 In143 2.294 . S
O154 C147 1.240 . S
O155 In143 2.326 . S
O155 C147 1.252 . S
In156 O157 2.294 . S
In156 O158 2.326 . S
In156 O162 2.266 . S
In156 O163 2.326 . S
In156 O164 2.266 . S
In156 O165 2.326 . S
In156 O167 2.294 . S
In156 O168 2.326 . S
O157 In156 2.294 . S
O157 C166 1.240 . S
O158 In156 2.326 . S
O158 C166 1.252 . S
C159 O162 1.252 . S
C159 O163 1.260 . S
C160 O167 1.240 . S
C160 O168 1.252 . S
C161 O164 1.252 . S
C161 O165 1.260 . S
O162 In156 2.266 . S
O162 C159 1.252 . S
O163 In156 2.326 . S
O163 C159 1.260 . S
O164 In156 2.266 . S
O164 C161 1.252 . S
O165 In156 2.326 . S
O165 C161 1.260 . S
C166 O157 1.240 . S
C166 O158 1.252 . S
O167 In156 2.294 . S
O167 C160 1.240 . S
O168 In156 2.326 . S
O168 C160 1.252 . S
In169 O170 2.294 . S
In169 O171 2.326 . S
In169 O175 2.266 . S
In169 O176 2.326 . S
In169 O177 2.266 . S
In169 O178 2.326 . S
In169 O180 2.294 . S
In169 O181 2.326 . S
O170 In169 2.294 . S
O170 C179 1.240 . S
O171 In169 2.326 . S
O171 C179 1.252 . S
C172 O175 1.252 . S
C172 O176 1.260 . S
C173 O180 1.240 . S
C173 O181 1.252 . S
C174 O177 1.252 . S
C174 O178 1.260 . S
O175 In169 2.266 . S
O175 C172 1.252 . S
O176 In169 2.326 . S
O176 C172 1.260 . S
O177 In169 2.266 . S
O177 C174 1.252 . S
O178 In169 2.326 . S
O178 C174 1.260 . S
C179 O170 1.240 . S
C179 O171 1.252 . S
O180 In169 2.294 . S
O180 C173 1.240 . S
O181 In169 2.326 . S
O181 C173 1.252 . S
In182 O183 2.294 . S
In182 O184 2.326 . S
In182 O188 2.266 . S
In182 O189 2.326 . S
In182 O190 2.266 . S
In182 O191 2.326 . S
In182 O193 2.294 . S
In182 O194 2.326 . S
O183 In182 2.294 . S
O183 C192 1.240 . S
O184 In182 2.326 . S
O184 C192 1.252 . S
C185 O188 1.252 . S
C185 O189 1.260 . S
C186 O193 1.240 . S
C186 O194 1.252 . S
C187 O190 1.252 . S
C187 O191 1.260 . S
O188 In182 2.266 . S
O188 C185 1.252 . S
O189 In182 2.326 . S
O189 C185 1.260 . S
O190 In182 2.266 . S
O190 C187 1.252 . S
O191 In182 2.326 . S
O191 C187 1.260 . S
C192 O183 1.240 . S
C192 O184 1.252 . S
O193 In182 2.294 . S
O193 C186 1.240 . S
O194 In182 2.326 . S
O194 C186 1.252 . S
In195 O196 2.294 . S
In195 O197 2.326 . S
In195 O201 2.266 . S
In195 O202 2.326 . S
In195 O203 2.266 . S
In195 O204 2.326 . S
In195 O206 2.294 . S
In195 O207 2.326 . S
O196 In195 2.294 . S
O196 C205 1.240 . S
O197 In195 2.326 . S
O197 C205 1.252 . S
C198 O201 1.252 . S
C198 O202 1.260 . S
C199 O206 1.240 . S
C199 O207 1.252 . S
C200 O203 1.252 . S
C200 O204 1.260 . S
O201 In195 2.266 . S
O201 C198 1.252 . S
O202 In195 2.326 . S
O202 C198 1.260 . S
O203 In195 2.266 . S
O203 C200 1.252 . S
O204 In195 2.326 . S
O204 C200 1.260 . S
C205 O196 1.240 . S
C205 O197 1.252 . S
O206 In195 2.294 . S
O206 C199 1.240 . S
O207 In195 2.326 . S
O207 C199 1.252 . S
In208 O209 2.294 . S
In208 O210 2.326 . S
In208 O214 2.266 . S
In208 O215 2.326 . S
In208 O216 2.266 . S
In208 O217 2.326 . S
In208 O219 2.294 . S
In208 O220 2.326 . S
O209 In208 2.294 . S
O209 C218 1.240 . S
O210 In208 2.326 . S
O210 C218 1.252 . S
C211 O214 1.252 . S
C211 O215 1.260 . S
C212 O219 1.240 . S
C212 O220 1.252 . S
C213 O216 1.252 . S
C213 O217 1.260 . S
O214 In208 2.266 . S
O214 C211 1.252 . S
O215 In208 2.326 . S
O215 C211 1.260 . S
O216 In208 2.266 . S
O216 C213 1.252 . S
O217 In208 2.326 . S
O217 C213 1.260 . S
C218 O209 1.240 . S
C218 O210 1.252 . S
O219 In208 2.294 . S
O219 C212 1.240 . S
O220 In208 2.326 . S
O220 C212 1.252 . S
In221 O222 2.294 . S
In221 O223 2.326 . S
In221 O227 2.266 . S
In221 O228 2.326 . S
In221 O229 2.266 . S
In221 O230 2.326 . S
In221 O232 2.294 . S
In221 O233 2.326 . S
O222 In221 2.294 . S
O222 C231 1.240 . S
O223 In221 2.326 . S
O223 C231 1.252 . S
C224 O227 1.252 . S
C224 O228 1.260 . S
C225 O232 1.240 . S
C225 O233 1.252 . S
C226 O229 1.252 . S
C226 O230 1.260 . S
O227 In221 2.266 . S
O227 C224 1.252 . S
O228 In221 2.326 . S
O228 C224 1.260 . S
O229 In221 2.266 . S
O229 C226 1.252 . S
O230 In221 2.326 . S
O230 C226 1.260 . S
C231 O222 1.240 . S
C231 O223 1.252 . S
O232 In221 2.294 . S
O232 C225 1.240 . S
O233 In221 2.326 . S
O233 C225 1.252 . S
In234 O235 2.294 . S
In234 O236 2.326 . S
In234 O240 2.266 . S
In234 O241 2.326 . S
In234 O242 2.266 . S
In234 O243 2.326 . S
In234 O245 2.294 . S
In234 O246 2.326 . S
O235 In234 2.294 . S
O235 C244 1.240 . S
O236 In234 2.326 . S
O236 C244 1.252 . S
C237 O240 1.252 . S
C237 O241 1.260 . S
C238 O245 1.240 . S
C238 O246 1.252 . S
C239 O242 1.252 . S
C239 O243 1.260 . S
O240 In234 2.266 . S
O240 C237 1.252 . S
O241 In234 2.326 . S
O241 C237 1.260 . S
O242 In234 2.266 . S
O242 C239 1.252 . S
O243 In234 2.326 . S
O243 C239 1.260 . S
C244 O235 1.240 . S
C244 O236 1.252 . S
O245 In234 2.294 . S
O245 C238 1.240 . S
O246 In234 2.326 . S
O246 C238 1.252 . S
In247 O248 2.294 . S
In247 O249 2.326 . S
In247 O253 2.266 . S
In247 O254 2.326 . S
In247 O255 2.266 . S
In247 O256 2.326 . S
In247 O258 2.294 . S
In247 O259 2.326 . S
O248 In247 2.294 . S
O248 C257 1.240 . S
O249 In247 2.326 . S
O249 C257 1.252 . S
C250 O253 1.252 . S
C250 O254 1.260 . S
C251 O258 1.240 . S
C251 O259 1.252 . S
C252 O255 1.252 . S
C252 O256 1.260 . S
O253 In247 2.266 . S
O253 C250 1.252 . S
O254 In247 2.326 . S
O254 C250 1.260 . S
O255 In247 2.266 . S
O255 C252 1.252 . S
O256 In247 2.326 . S
O256 C252 1.260 . S
C257 O248 1.240 . S
C257 O249 1.252 . S
O258 In247 2.294 . S
O258 C251 1.240 . S
O259 In247 2.326 . S
O259 C251 1.252 . S
In260 O261 2.294 . S
In260 O262 2.326 . S
In260 O266 2.266 . S
In260 O267 2.326 . S
In260 O268 2.266 . S
In260 O269 2.326 . S
In260 O271 2.294 . S
In260 O272 2.326 . S
O261 In260 2.294 . S
O261 C270 1.240 . S
O262 In260 2.326 . S
O262 C270 1.252 . S
C263 O266 1.252 . S
C263 O267 1.260 . S
C264 O271 1.240 . S
C264 O272 1.252 . S
C265 O268 1.252 . S
C265 O269 1.260 . S
O266 In260 2.266 . S
O266 C263 1.252 . S
O267 In260 2.326 . S
O267 C263 1.260 . S
O268 In260 2.266 . S
O268 C265 1.252 . S
O269 In260 2.326 . S
O269 C265 1.260 . S
C270 O261 1.240 . S
C270 O262 1.252 . S
O271 In260 2.294 . S
O271 C264 1.240 . S
O272 In260 2.326 . S
O272 C264 1.252 . S
In273 O274 2.294 . S
In273 O275 2.326 . S
In273 O279 2.266 . S
In273 O280 2.326 . S
In273 O281 2.266 . S
In273 O282 2.326 . S
In273 O284 2.294 . S
In273 O285 2.326 . S
O274 In273 2.294 . S
O274 C283 1.240 . S
O275 In273 2.326 . S
O275 C283 1.252 . S
C276 O279 1.252 . S
C276 O280 1.260 . S
C277 O284 1.240 . S
C277 O285 1.252 . S
C278 O281 1.252 . S
C278 O282 1.260 . S
O279 In273 2.266 . S
O279 C276 1.252 . S
O280 In273 2.326 . S
O280 C276 1.260 . S
O281 In273 2.266 . S
O281 C278 1.252 . S
O282 In273 2.326 . S
O282 C278 1.260 . S
C283 O274 1.240 . S
C283 O275 1.252 . S
O284 In273 2.294 . S
O284 C277 1.240 . S
O285 In273 2.326 . S
O285 C277 1.252 . S
In286 O287 2.294 . S
In286 O288 2.326 . S
In286 O292 2.266 . S
In286 O293 2.326 . S
In286 O294 2.266 . S
In286 O295 2.326 . S
In286 O297 2.294 . S
In286 O298 2.326 . S
O287 In286 2.294 . S
O287 C296 1.240 . S
O288 In286 2.326 . S
O288 C296 1.252 . S
C289 O292 1.252 . S
C289 O293 1.260 . S
C290 O297 1.240 . S
C290 O298 1.252 . S
C291 O294 1.252 . S
C291 O295 1.260 . S
O292 In286 2.266 . S
O292 C289 1.252 . S
O293 In286 2.326 . S
O293 C289 1.260 . S
O294 In286 2.266 . S
O294 C291 1.252 . S
O295 In286 2.326 . S
O295 C291 1.260 . S
C296 O287 1.240 . S
C296 O288 1.252 . S
O297 In286 2.294 . S
O297 C290 1.240 . S
O298 In286 2.326 . S
O298 C290 1.252 . S
In299 O300 2.294 . S
In299 O301 2.326 . S
In299 O305 2.266 . S
In299 O306 2.326 . S
In299 O307 2.266 . S
In299 O308 2.326 . S
In299 O310 2.294 . S
In299 O311 2.326 . S
O300 In299 2.294 . S
O300 C309 1.240 . S
O301 In299 2.326 . S
O301 C309 1.252 . S
C302 O305 1.252 . S
C302 O306 1.260 . S
C303 O310 1.240 . S
C303 O311 1.252 . S
C304 O307 1.252 . S
C304 O308 1.260 . S
O305 In299 2.266 . S
O305 C302 1.252 . S
O306 In299 2.326 . S
O306 C302 1.260 . S
O307 In299 2.266 . S
O307 C304 1.252 . S
O308 In299 2.326 . S
O308 C304 1.260 . S
C309 O300 1.240 . S
C309 O301 1.252 . S
O310 In299 2.294 . S
O310 C303 1.240 . S
O311 In299 2.326 . S
O311 C303 1.252 . S
In312 O313 2.294 . S
In312 O314 2.326 . S
In312 O318 2.266 . S
In312 O319 2.326 . S
In312 O320 2.266 . S
In312 O321 2.326 . S
In312 O323 2.294 . S
In312 O324 2.326 . S
O313 In312 2.294 . S
O313 C322 1.240 . S
O314 In312 2.326 . S
O314 C322 1.252 . S
C315 O318 1.252 . S
C315 O319 1.260 . S
C316 O323 1.240 . S
C316 O324 1.252 . S
C317 O320 1.252 . S
C317 O321 1.260 . S
O318 In312 2.266 . S
O318 C315 1.252 . S
O319 In312 2.326 . S
O319 C315 1.260 . S
O320 In312 2.266 . S
O320 C317 1.252 . S
O321 In312 2.326 . S
O321 C317 1.260 . S
C322 O313 1.240 . S
C322 O314 1.252 . S
O323 In312 2.294 . S
O323 C316 1.240 . S
O324 In312 2.326 . S
O324 C316 1.252 . S
In325 O326 2.294 . S
In325 O327 2.326 . S
In325 O331 2.266 . S
In325 O332 2.326 . S
In325 O333 2.266 . S
In325 O334 2.326 . S
In325 O336 2.294 . S
In325 O337 2.326 . S
O326 In325 2.294 . S
O326 C335 1.240 . S
O327 In325 2.326 . S
O327 C335 1.252 . S
C328 O331 1.252 . S
C328 O332 1.260 . S
C329 O336 1.240 . S
C329 O337 1.252 . S
C330 O333 1.252 . S
C330 O334 1.260 . S
O331 In325 2.266 . S
O331 C328 1.252 . S
O332 In325 2.326 . S
O332 C328 1.260 . S
O333 In325 2.266 . S
O333 C330 1.252 . S
O334 In325 2.326 . S
O334 C330 1.260 . S
C335 O326 1.240 . S
C335 O327 1.252 . S
O336 In325 2.294 . S
O336 C329 1.240 . S
O337 In325 2.326 . S
O337 C329 1.252 . S
In338 O339 2.294 . S
In338 O340 2.326 . S
In338 O344 2.266 . S
In338 O345 2.326 . S
In338 O346 2.266 . S
In338 O347 2.326 . S
In338 O349 2.294 . S
In338 O350 2.326 . S
O339 In338 2.294 . S
O339 C348 1.240 . S
O340 In338 2.326 . S
O340 C348 1.252 . S
C341 O344 1.252 . S
C341 O345 1.260 . S
C342 O349 1.240 . S
C342 O350 1.252 . S
C343 O346 1.252 . S
C343 O347 1.260 . S
O344 In338 2.266 . S
O344 C341 1.252 . S
O345 In338 2.326 . S
O345 C341 1.260 . S
O346 In338 2.266 . S
O346 C343 1.252 . S
O347 In338 2.326 . S
O347 C343 1.260 . S
C348 O339 1.240 . S
C348 O340 1.252 . S
O349 In338 2.294 . S
O349 C342 1.240 . S
O350 In338 2.326 . S
O350 C342 1.252 . S
In351 O352 2.294 . S
In351 O353 2.326 . S
In351 O357 2.266 . S
In351 O358 2.326 . S
In351 O359 2.266 . S
In351 O360 2.326 . S
In351 O362 2.294 . S
In351 O363 2.326 . S
O352 In351 2.294 . S
O352 C361 1.240 . S
O353 In351 2.326 . S
O353 C361 1.252 . S
C354 O357 1.252 . S
C354 O358 1.260 . S
C355 O362 1.240 . S
C355 O363 1.252 . S
C356 O359 1.252 . S
C356 O360 1.260 . S
O357 In351 2.266 . S
O357 C354 1.252 . S
O358 In351 2.326 . S
O358 C354 1.260 . S
O359 In351 2.266 . S
O359 C356 1.252 . S
O360 In351 2.326 . S
O360 C356 1.260 . S
C361 O352 1.240 . S
C361 O353 1.252 . S
O362 In351 2.294 . S
O362 C355 1.240 . S
O363 In351 2.326 . S
O363 C355 1.252 . S
In364 O365 2.294 . S
In364 O366 2.326 . S
In364 O370 2.266 . S
In364 O371 2.326 . S
In364 O372 2.266 . S
In364 O373 2.326 . S
In364 O375 2.294 . S
In364 O376 2.326 . S
O365 In364 2.294 . S
O365 C374 1.240 . S
O366 In364 2.326 . S
O366 C374 1.252 . S
C367 O370 1.252 . S
C367 O371 1.260 . S
C368 O375 1.240 . S
C368 O376 1.252 . S
C369 O372 1.252 . S
C369 O373 1.260 . S
O370 In364 2.266 . S
O370 C367 1.252 . S
O371 In364 2.326 . S
O371 C367 1.260 . S
O372 In364 2.266 . S
O372 C369 1.252 . S
O373 In364 2.326 . S
O373 C369 1.260 . S
C374 O365 1.240 . S
C374 O366 1.252 . S
O375 In364 2.294 . S
O375 C368 1.240 . S
O376 In364 2.326 . S
O376 C368 1.252 . S
In377 O378 2.294 . S
In377 O379 2.326 . S
In377 O383 2.266 . S
In377 O384 2.326 . S
In377 O385 2.266 . S
In377 O386 2.326 . S
In377 O388 2.294 . S
In377 O389 2.326 . S
O378 In377 2.294 . S
O378 C387 1.240 . S
O379 In377 2.326 . S
O379 C387 1.252 . S
C380 O383 1.252 . S
C380 O384 1.260 . S
C381 O388 1.240 . S
C381 O389 1.252 . S
C382 O385 1.252 . S
C382 O386 1.260 . S
O383 In377 2.266 . S
O383 C380 1.252 . S
O384 In377 2.326 . S
O384 C380 1.260 . S
O385 In377 2.266 . S
O385 C382 1.252 . S
O386 In377 2.326 . S
O386 C382 1.260 . S
C387 O378 1.240 . S
C387 O379 1.252 . S
O388 In377 2.294 . S
O388 C381 1.240 . S
O389 In377 2.326 . S
O389 C381 1.252 . S
In390 O391 2.294 . S
In390 O392 2.326 . S
In390 O396 2.266 . S
In390 O397 2.326 . S
In390 O398 2.266 . S
In390 O399 2.326 . S
In390 O401 2.294 . S
In390 O402 2.326 . S
O391 In390 2.294 . S
O391 C400 1.240 . S
O392 In390 2.326 . S
O392 C400 1.252 . S
C393 O396 1.252 . S
C393 O397 1.260 . S
C394 O401 1.240 . S
C394 O402 1.252 . S
C395 O398 1.252 . S
C395 O399 1.260 . S
O396 In390 2.266 . S
O396 C393 1.252 . S
O397 In390 2.326 . S
O397 C393 1.260 . S
O398 In390 2.266 . S
O398 C395 1.252 . S
O399 In390 2.326 . S
O399 C395 1.260 . S
C400 O391 1.240 . S
C400 O392 1.252 . S
O401 In390 2.294 . S
O401 C394 1.240 . S
O402 In390 2.326 . S
O402 C394 1.252 . S
In403 O404 2.294 . S
In403 O405 2.326 . S
In403 O409 2.266 . S
In403 O410 2.326 . S
In403 O411 2.266 . S
In403 O412 2.326 . S
In403 O414 2.294 . S
In403 O415 2.326 . S
O404 In403 2.294 . S
O404 C413 1.240 . S
O405 In403 2.326 . S
O405 C413 1.252 . S
C406 O409 1.252 . S
C406 O410 1.260 . S
C407 O414 1.240 . S
C407 O415 1.252 . S
C408 O411 1.252 . S
C408 O412 1.260 . S
O409 In403 2.266 . S
O409 C406 1.252 . S
O410 In403 2.326 . S
O410 C406 1.260 . S
O411 In403 2.266 . S
O411 C408 1.252 . S
O412 In403 2.326 . S
O412 C408 1.260 . S
C413 O404 1.240 . S
C413 O405 1.252 . S
O414 In403 2.294 . S
O414 C407 1.240 . S
O415 In403 2.326 . S
O415 C407 1.252 . S
H416 C422 0.930 . S
H417 C426 0.930 . S
H418 C431 0.929 . S
H419 C429 0.929 . S
H420 C424 0.956 . S
H421 C430 0.956 . S
C422 H416 0.930 . S
C422 C423 1.367 . S
C422 C430 1.360 1_556 S
C423 C422 1.367 . S
C423 C431 1.433 . S
C424 H420 0.956 . S
C424 C426 1.360 1_556 S
C424 C428 1.340 1_556 S
C425 C428 1.463 1_656 S
C425 C430 1.340 1_556 S
C425 N433 1.427 . S
C426 H417 0.930 . S
C426 C424 1.360 1_554 S
C426 C427 1.367 . S
C427 C426 1.367 . S
C427 C429 1.433 . S
C428 C424 1.340 1_554 S
C428 C425 1.463 1_454 S
C428 N432 1.427 . S
C429 H419 0.929 . S
C429 C427 1.433 . S
C429 N432 1.382 . S
C430 H421 0.956 . S
C430 C422 1.360 1_554 S
C430 C425 1.340 1_554 S
C431 H418 0.929 . S
C431 C423 1.433 . S
C431 N433 1.382 . S
N432 C428 1.427 . S
N432 C429 1.382 . S
N433 C425 1.427 . S
N433 C431 1.382 . S
H434 C440 0.930 . S
H435 C444 0.930 . S
H436 C449 0.929 . S
H437 C447 0.929 . S
H438 C442 0.929 . S
H439 C448 0.929 . S
C440 H434 0.930 . S
C440 C441 1.367 . S
C440 C448 1.378 . S
C441 C440 1.367 . S
C441 C449 1.433 . S
C442 H438 0.929 . S
C442 C444 1.378 . S
C442 C446 1.350 . S
C443 C446 1.463 . S
C443 C448 1.350 . S
C443 N451 1.427 . S
C444 H435 0.930 . S
C444 C442 1.378 . S
C444 C445 1.367 . S
C445 C444 1.367 . S
C445 C447 1.433 . S
C446 C442 1.350 . S
C446 C443 1.463 . S
C446 N450 1.427 . S
C447 H437 0.929 . S
C447 C445 1.433 . S
C447 N450 1.384 . S
C448 H439 0.929 . S
C448 C440 1.378 . S
C448 C443 1.350 . S
C449 H436 0.929 . S
C449 C441 1.433 . S
C449 N451 1.384 . S
N450 C446 1.427 . S
N450 C447 1.384 . S
N451 C443 1.427 . S
N451 C449 1.384 . S
H452 C458 0.930 . S
H453 C462 0.930 . S
H454 C467 0.929 . S
H455 C465 0.929 . S
H456 C460 0.929 . S
H457 C466 0.929 . S
C458 H452 0.930 . S
C458 C459 1.367 . S
C458 C466 1.378 . S
C459 C458 1.367 . S
C459 C467 1.433 . S
C460 H456 0.929 . S
C460 C462 1.378 . S
C460 C464 1.350 . S
C461 C464 1.463 . S
C461 C466 1.350 . S
C461 N469 1.427 . S
C462 H453 0.930 . S
C462 C460 1.378 . S
C462 C463 1.367 . S
C463 C462 1.367 . S
C463 C465 1.433 . S
C464 C460 1.350 . S
C464 C461 1.463 . S
C464 N468 1.427 . S
C465 H455 0.929 . S
C465 C463 1.433 . S
C465 N468 1.384 . S
C466 H457 0.929 . S
C466 C458 1.378 . S
C466 C461 1.350 . S
C467 H454 0.929 . S
C467 C459 1.433 . S
C467 N469 1.384 . S
N468 C464 1.427 . S
N468 C465 1.384 . S
N469 C461 1.427 . S
N469 C467 1.384 . S
H470 C476 0.930 . S
H471 C480 0.930 . S
H472 C485 0.929 . S
H473 C483 0.929 . S
H474 C478 0.929 . S
H475 C484 0.929 . S
C476 H470 0.930 . S
C476 C477 1.367 . S
C476 C484 1.378 . S
C477 C476 1.367 . S
C477 C485 1.433 . S
C478 H474 0.929 . S
C478 C480 1.378 . S
C478 C482 1.350 . S
C479 C482 1.463 . S
C479 C484 1.350 . S
C479 N487 1.427 . S
C480 H471 0.930 . S
C480 C478 1.378 . S
C480 C481 1.367 . S
C481 C480 1.367 . S
C481 C483 1.433 . S
C482 C478 1.350 . S
C482 C479 1.463 . S
C482 N486 1.427 . S
C483 H473 0.929 . S
C483 C481 1.433 . S
C483 N486 1.384 . S
C484 H475 0.929 . S
C484 C476 1.378 . S
C484 C479 1.350 . S
C485 H472 0.929 . S
C485 C477 1.433 . S
C485 N487 1.384 . S
N486 C482 1.427 . S
N486 C483 1.384 . S
N487 C479 1.427 . S
N487 C485 1.384 . S
H488 C494 0.930 . S
H489 C498 0.930 . S
H490 C503 0.929 . S
H491 C501 0.929 . S
H492 C496 0.929 . S
H493 C502 0.929 . S
C494 H488 0.930 . S
C494 C495 1.367 . S
C494 C502 1.378 . S
C495 C494 1.367 . S
C495 C503 1.433 . S
C496 H492 0.929 . S
C496 C498 1.378 . S
C496 C500 1.350 . S
C497 C500 1.463 1_655 S
C497 C502 1.350 . S
C497 N505 1.427 . S
C498 H489 0.930 . S
C498 C496 1.378 . S
C498 C499 1.367 . S
C499 C498 1.367 . S
C499 C501 1.433 . S
C500 C496 1.350 . S
C500 C497 1.463 1_455 S
C500 N504 1.427 . S
C501 H491 0.929 . S
C501 C499 1.433 . S
C501 N504 1.384 . S
C502 H493 0.929 . S
C502 C494 1.378 . S
C502 C497 1.350 . S
C503 H490 0.929 . S
C503 C495 1.433 . S
C503 N505 1.384 . S
N504 C500 1.427 . S
N504 C501 1.384 . S
N505 C497 1.427 . S
N505 C503 1.384 . S
H506 C512 0.930 . S
H507 C516 0.930 . S
H508 C521 0.929 . S
H509 C519 0.929 . S
H510 C514 0.929 . S
H511 C520 0.929 . S
C512 H506 0.930 . S
C512 C513 1.367 . S
C512 C520 1.378 . S
C513 C512 1.367 . S
C513 C521 1.433 . S
C514 H510 0.929 . S
C514 C516 1.378 . S
C514 C518 1.350 . S
C515 C518 1.463 . S
C515 C520 1.350 . S
C515 N523 1.427 . S
C516 H507 0.930 . S
C516 C514 1.378 . S
C516 C517 1.367 . S
C517 C516 1.367 . S
C517 C519 1.433 . S
C518 C514 1.350 . S
C518 C515 1.463 . S
C518 N522 1.427 . S
C519 H509 0.929 . S
C519 C517 1.433 . S
C519 N522 1.384 . S
C520 H511 0.929 . S
C520 C512 1.378 . S
C520 C515 1.350 . S
C521 H508 0.929 . S
C521 C513 1.433 . S
C521 N523 1.384 . S
N522 C518 1.427 . S
N522 C519 1.384 . S
N523 C515 1.427 . S
N523 C521 1.384 . S
H524 C530 0.930 . S
H525 C534 0.930 . S
H526 C539 0.929 . S
H527 C537 0.929 . S
H528 C532 0.929 . S
H529 C538 0.929 . S
C530 H524 0.930 . S
C530 C531 1.367 . S
C530 C538 1.378 . S
C531 C530 1.367 . S
C531 C539 1.433 . S
C532 H528 0.929 . S
C532 C534 1.378 . S
C532 C536 1.350 . S
C533 C536 1.463 1_556 S
C533 C538 1.350 . S
C533 N541 1.417 1_556 S
C534 H525 0.930 . S
C534 C532 1.378 . S
C534 C535 1.367 . S
C535 C534 1.367 . S
C535 C537 1.433 . S
C536 C532 1.350 . S
C536 C533 1.463 1_554 S
C536 N540 1.417 1_554 S
C537 H527 0.929 . S
C537 C535 1.433 . S
C537 N540 1.366 1_554 S
C538 H529 0.929 . S
C538 C530 1.378 . S
C538 C533 1.350 . S
C539 H526 0.929 . S
C539 C531 1.433 . S
C539 N541 1.366 1_556 S
N540 C536 1.417 1_556 S
N540 C537 1.366 1_556 S
N541 C533 1.417 1_554 S
N541 C539 1.366 1_554 S
H542 C548 0.930 . S
H543 C552 0.930 . S
H544 C557 0.929 . S
H545 C555 0.929 . S
H546 C550 0.929 . S
H547 C556 0.929 . S
C548 H542 0.930 . S
C548 C549 1.367 . S
C548 C556 1.378 . S
C549 C548 1.367 . S
C549 C557 1.433 . S
C550 H546 0.929 . S
C550 C552 1.378 . S
C550 C554 1.350 . S
C551 C554 1.463 . S
C551 C556 1.350 . S
C551 N559 1.427 . S
C552 H543 0.930 . S
C552 C550 1.378 . S
C552 C553 1.367 . S
C553 C552 1.367 . S
C553 C555 1.433 . S
C554 C550 1.350 . S
C554 C551 1.463 . S
C554 N558 1.427 . S
C555 H545 0.929 . S
C555 C553 1.433 . S
C555 N558 1.384 . S
C556 H547 0.929 . S
C556 C548 1.378 . S
C556 C551 1.350 . S
C557 H544 0.929 . S
C557 C549 1.433 . S
C557 N559 1.384 . S
N558 C554 1.427 . S
N558 C555 1.384 . S
N559 C551 1.427 . S
N559 C557 1.384 . S
H560 C566 0.930 . S
H561 C570 0.930 . S
H562 C575 0.929 . S
H563 C573 0.929 . S
H564 C568 0.929 . S
H565 C574 0.929 . S
C566 H560 0.930 . S
C566 C567 1.367 . S
C566 C574 1.378 . S
C567 C566 1.367 . S
C567 C575 1.433 . S
C568 H564 0.929 . S
C568 C570 1.378 . S
C568 C572 1.350 . S
C569 C572 1.463 . S
C569 C574 1.350 . S
C569 N577 1.427 . S
C570 H561 0.930 . S
C570 C568 1.378 . S
C570 C571 1.367 . S
C571 C570 1.367 . S
C571 C573 1.433 . S
C572 C568 1.350 . S
C572 C569 1.463 . S
C572 N576 1.427 . S
C573 H563 0.929 . S
C573 C571 1.433 . S
C573 N576 1.384 . S
C574 H565 0.929 . S
C574 C566 1.378 . S
C574 C569 1.350 . S
C575 H562 0.929 . S
C575 C567 1.433 . S
C575 N577 1.384 . S
N576 C572 1.427 . S
N576 C573 1.384 . S
N577 C569 1.427 . S
N577 C575 1.384 . S
H578 C584 0.930 . S
H579 C588 0.930 . S
H580 C593 0.929 . S
H581 C591 0.929 . S
H582 C586 0.929 . S
H583 C592 0.929 . S
C584 H578 0.930 . S
C584 C585 1.367 . S
C584 C592 1.378 . S
C585 C584 1.367 . S
C585 C593 1.433 . S
C586 H582 0.929 . S
C586 C588 1.378 . S
C586 C590 1.350 . S
C587 C590 1.463 . S
C587 C592 1.350 . S
C587 N595 1.427 . S
C588 H579 0.930 . S
C588 C586 1.378 . S
C588 C589 1.367 . S
C589 C588 1.367 . S
C589 C591 1.433 . S
C590 C586 1.350 . S
C590 C587 1.463 . S
C590 N594 1.427 . S
C591 H581 0.929 . S
C591 C589 1.433 . S
C591 N594 1.384 . S
C592 H583 0.929 . S
C592 C584 1.378 . S
C592 C587 1.350 . S
C593 H580 0.929 . S
C593 C585 1.433 . S
C593 N595 1.384 . S
N594 C590 1.427 . S
N594 C591 1.384 . S
N595 C587 1.427 . S
N595 C593 1.384 . S
H596 C602 0.930 . S
H597 C606 0.930 . S
H598 C611 0.929 . S
H599 C609 0.929 . S
H600 C604 0.929 . S
H601 C610 0.929 . S
C602 H596 0.930 . S
C602 C603 1.367 . S
C602 C610 1.378 . S
C603 C602 1.367 . S
C603 C611 1.433 . S
C604 H600 0.929 . S
C604 C606 1.378 . S
C604 C608 1.350 . S
C605 C608 1.463 . S
C605 C610 1.350 . S
C605 N613 1.427 . S
C606 H597 0.930 . S
C606 C604 1.378 . S
C606 C607 1.367 . S
C607 C606 1.367 . S
C607 C609 1.433 . S
C608 C604 1.350 . S
C608 C605 1.463 . S
C608 N612 1.427 . S
C609 H599 0.929 . S
C609 C607 1.433 . S
C609 N612 1.384 . S
C610 H601 0.929 . S
C610 C602 1.378 . S
C610 C605 1.350 . S
C611 H598 0.929 . S
C611 C603 1.433 . S
C611 N613 1.384 . S
N612 C608 1.427 . S
N612 C609 1.384 . S
N613 C605 1.427 . S
N613 C611 1.384 . S
H614 C620 0.930 . S
H615 C624 0.930 . S
H616 C629 0.929 . S
H617 C627 0.929 . S
H618 C622 0.929 . S
H619 C628 0.929 . S
C620 H614 0.930 . S
C620 C621 1.367 . S
C620 C628 1.378 . S
C621 C620 1.367 . S
C621 C629 1.433 . S
C622 H618 0.929 . S
C622 C624 1.378 . S
C622 C626 1.350 . S
C623 C626 1.463 . S
C623 C628 1.350 . S
C623 N631 1.427 . S
C624 H615 0.930 . S
C624 C622 1.378 . S
C624 C625 1.367 . S
C625 C624 1.367 . S
C625 C627 1.433 . S
C626 C622 1.350 . S
C626 C623 1.463 . S
C626 N630 1.427 . S
C627 H617 0.929 . S
C627 C625 1.433 . S
C627 N630 1.384 . S
C628 H619 0.929 . S
C628 C620 1.378 . S
C628 C623 1.350 . S
C629 H616 0.929 . S
C629 C621 1.433 . S
C629 N631 1.384 . S
N630 C626 1.427 . S
N630 C627 1.384 . S
N631 C623 1.427 . S
N631 C629 1.384 . S
H632 C638 0.930 . S
H633 C642 0.930 . S
H634 C647 0.929 . S
H635 C645 0.929 . S
H636 C640 0.929 1_565 S
H637 C646 0.929 1_545 S
C638 H632 0.930 . S
C638 C639 1.367 . S
C638 C646 1.378 . S
C639 C638 1.367 . S
C639 C647 1.433 . S
C640 H636 0.929 1_545 S
C640 C642 1.378 . S
C640 C644 1.350 . S
C641 C644 1.463 1_565 S
C641 C646 1.350 . S
C641 N649 1.427 . S
C642 H633 0.930 . S
C642 C640 1.378 . S
C642 C643 1.367 . S
C643 C642 1.367 . S
C643 C645 1.433 . S
C644 C640 1.350 . S
C644 C641 1.463 1_545 S
C644 N648 1.427 . S
C645 H635 0.929 . S
C645 C643 1.433 . S
C645 N648 1.384 . S
C646 H637 0.929 1_565 S
C646 C638 1.378 . S
C646 C641 1.350 . S
C647 H634 0.929 . S
C647 C639 1.433 . S
C647 N649 1.384 . S
N648 C644 1.427 . S
N648 C645 1.384 . S
N649 C641 1.427 . S
N649 C647 1.384 . S
H650 C656 0.930 . S
H651 C660 0.930 . S
H652 C665 0.929 . S
H653 C663 0.929 . S
H654 C658 0.929 . S
H655 C664 0.929 . S
C656 H650 0.930 . S
C656 C657 1.367 . S
C656 C664 1.378 1_556 S
C657 C656 1.367 . S
C657 C665 1.433 . S
C658 H654 0.929 . S
C658 C660 1.378 1_556 S
C658 C662 1.350 1_556 S
C659 C662 1.463 1_466 S
C659 C664 1.350 1_556 S
C659 N667 1.427 1_565 S
C660 H651 0.930 . S
C660 C658 1.378 1_554 S
C660 C661 1.367 . S
C661 C660 1.367 . S
C661 C663 1.433 . S
C662 C658 1.350 1_554 S
C662 C659 1.463 1_644 S
C662 N666 1.427 1_545 S
C663 H653 0.929 . S
C663 C661 1.433 . S
C663 N666 1.384 1_545 S
C664 H655 0.929 . S
C664 C656 1.378 1_554 S
C664 C659 1.350 1_554 S
C665 H652 0.929 . S
C665 C657 1.433 . S
C665 N667 1.384 1_565 S
N666 C662 1.427 1_565 S
N666 C663 1.384 1_565 S
N667 C659 1.427 1_545 S
N667 C665 1.384 1_545 S
H668 C674 0.930 . S
H669 C678 0.930 . S
H670 C683 0.913 1_565 S
H671 C681 0.913 1_545 S
H672 C676 0.929 1_556 S
H673 C682 0.929 1_554 S
C674 H668 0.930 . S
C674 C675 1.367 . S
C674 C682 1.378 . S
C675 C674 1.367 . S
C675 C683 1.433 . S
C676 H672 0.929 1_554 S
C676 C678 1.378 . S
C676 C680 1.350 . S
C677 C680 1.463 1_546 S
C677 C682 1.350 . S
C677 N685 1.427 1_545 S
C678 H669 0.930 . S
C678 C676 1.378 . S
C678 C679 1.367 . S
C679 C678 1.367 . S
C679 C681 1.433 . S
C680 C676 1.350 . S
C680 C677 1.463 1_564 S
C680 N684 1.427 1_565 S
C681 H671 0.913 1_565 S
C681 C679 1.433 . S
C681 N684 1.384 1_565 S
C682 H673 0.929 1_556 S
C682 C674 1.378 . S
C682 C677 1.350 . S
C683 H670 0.913 1_545 S
C683 C675 1.433 . S
C683 N685 1.384 1_545 S
N684 C680 1.427 1_545 S
N684 C681 1.384 1_545 S
N685 C677 1.427 1_565 S
N685 C683 1.384 1_565 S
H686 C692 0.930 . S
H687 C696 0.930 . S
H688 C701 0.929 . S
H689 C699 0.929 . S
H690 C694 0.929 . S
H691 C700 0.929 . S
C692 H686 0.930 . S
C692 C693 1.367 . S
C692 C700 1.378 1_545 S
C693 C692 1.367 . S
C693 C701 1.433 . S
C694 H690 0.929 . S
C694 C696 1.378 1_545 S
C694 C698 1.350 1_545 S
C695 C698 1.463 1_445 S
C695 C700 1.350 1_545 S
C695 N703 1.427 . S
C696 H687 0.930 . S
C696 C694 1.378 1_565 S
C696 C697 1.367 . S
C697 C696 1.367 . S
C697 C699 1.433 . S
C698 C694 1.350 1_565 S
C698 C695 1.463 1_665 S
C698 N702 1.427 . S
C699 H689 0.929 . S
C699 C697 1.433 . S
C699 N702 1.384 . S
C700 H691 0.929 . S
C700 C692 1.378 1_565 S
C700 C695 1.350 1_565 S
C701 H688 0.929 . S
C701 C693 1.433 . S
C701 N703 1.384 . S
N702 C698 1.427 . S
N702 C699 1.384 . S
N703 C695 1.427 . S
N703 C701 1.384 . S
H704 C710 0.930 . S
H705 C714 0.930 . S
H706 C719 0.929 . S
H707 C717 0.929 . S
H708 C712 0.929 . S
H709 C718 0.929 . S
C710 H704 0.930 . S
C710 C711 1.367 . S
C710 C718 1.378 . S
C711 C710 1.367 . S
C711 C719 1.433 . S
C712 H708 0.929 . S
C712 C714 1.378 . S
C712 C716 1.350 . S
C713 C716 1.463 1_655 S
C713 C718 1.350 . S
C713 N721 1.427 . S
C714 H705 0.930 . S
C714 C712 1.378 . S
C714 C715 1.367 . S
C715 C714 1.367 . S
C715 C717 1.433 . S
C716 C712 1.350 . S
C716 C713 1.463 1_455 S
C716 N720 1.427 . S
C717 H707 0.929 . S
C717 C715 1.433 . S
C717 N720 1.384 . S
C718 H709 0.929 . S
C718 C710 1.378 . S
C718 C713 1.350 . S
C719 H706 0.929 . S
C719 C711 1.433 . S
C719 N721 1.384 . S
N720 C716 1.427 . S
N720 C717 1.384 . S
N721 C713 1.427 . S
N721 C719 1.384 . S
H722 C728 0.930 . S
H723 C732 0.930 . S
H724 C737 0.929 . S
H725 C735 0.929 . S
H726 C730 0.929 . S
H727 C736 0.929 . S
C728 H722 0.930 . S
C728 C729 1.367 . S
C728 C736 1.378 . S
C729 C728 1.367 . S
C729 C737 1.433 . S
C730 H726 0.929 . S
C730 C732 1.378 . S
C730 C734 1.350 . S
C731 C734 1.463 1_455 S
C731 C736 1.350 . S
C731 N739 1.427 . S
C732 H723 0.930 . S
C732 C730 1.378 . S
C732 C733 1.367 . S
C733 C732 1.367 . S
C733 C735 1.433 . S
C734 C730 1.350 . S
C734 C731 1.463 1_655 S
C734 N738 1.427 . S
C735 H725 0.929 . S
C735 C733 1.433 . S
C735 N738 1.384 . S
C736 H727 0.929 . S
C736 C728 1.378 . S
C736 C731 1.350 . S
C737 H724 0.929 . S
C737 C729 1.433 . S
C737 N739 1.384 . S
N738 C734 1.427 . S
N738 C735 1.384 . S
N739 C731 1.427 . S
N739 C737 1.384 . S
H740 C746 0.930 . S
H741 C750 0.930 . S
H742 C755 0.929 . S
H743 C753 0.929 . S
H744 C748 0.929 . S
H745 C754 0.929 . S
C746 H740 0.930 . S
C746 C747 1.367 . S
C746 C754 1.378 . S
C747 C746 1.367 . S
C747 C755 1.433 . S
C748 H744 0.929 . S
C748 C750 1.378 . S
C748 C752 1.350 . S
C749 C752 1.463 . S
C749 C754 1.350 . S
C749 N757 1.427 . S
C750 H741 0.930 . S
C750 C748 1.378 . S
C750 C751 1.367 . S
C751 C750 1.367 . S
C751 C753 1.433 . S
C752 C748 1.350 . S
C752 C749 1.463 . S
C752 N756 1.427 . S
C753 H743 0.929 . S
C753 C751 1.433 . S
C753 N756 1.384 . S
C754 H745 0.929 . S
C754 C746 1.378 . S
C754 C749 1.350 . S
C755 H742 0.929 . S
C755 C747 1.433 . S
C755 N757 1.384 . S
N756 C752 1.427 . S
N756 C753 1.384 . S
N757 C749 1.427 . S
N757 C755 1.384 . S
H758 C764 0.930 . S
H759 C768 0.930 . S
H760 C773 0.929 . S
H761 C771 0.929 . S
H762 C766 0.929 . S
H763 C772 0.929 . S
C764 H758 0.930 . S
C764 C765 1.367 . S
C764 C772 1.378 . S
C765 C764 1.367 . S
C765 C773 1.433 . S
C766 H762 0.929 . S
C766 C768 1.378 . S
C766 C770 1.350 . S
C767 C770 1.463 . S
C767 C772 1.350 . S
C767 N775 1.427 . S
C768 H759 0.930 . S
C768 C766 1.378 . S
C768 C769 1.367 . S
C769 C768 1.367 . S
C769 C771 1.433 . S
C770 C766 1.350 . S
C770 C767 1.463 . S
C770 N774 1.427 . S
C771 H761 0.929 . S
C771 C769 1.433 . S
C771 N774 1.384 . S
C772 H763 0.929 . S
C772 C764 1.378 . S
C772 C767 1.350 . S
C773 H760 0.929 . S
C773 C765 1.433 . S
C773 N775 1.384 . S
N774 C770 1.427 . S
N774 C771 1.384 . S
N775 C767 1.427 . S
N775 C773 1.384 . S
H776 C782 0.930 . S
H777 C786 0.930 . S
H778 C791 0.929 . S
H779 C789 0.929 . S
H780 C784 0.929 . S
H781 C790 0.929 . S
C782 H776 0.930 . S
C782 C783 1.367 . S
C782 C790 1.378 . S
C783 C782 1.367 . S
C783 C791 1.433 . S
C784 H780 0.929 . S
C784 C786 1.378 . S
C784 C788 1.350 . S
C785 C788 1.463 1_655 S
C785 C790 1.350 . S
C785 N793 1.427 1_655 S
C786 H777 0.930 . S
C786 C784 1.378 . S
C786 C787 1.367 . S
C787 C786 1.367 . S
C787 C789 1.433 . S
C788 C784 1.350 . S
C788 C785 1.463 1_455 S
C788 N792 1.427 1_455 S
C789 H779 0.929 . S
C789 C787 1.433 . S
C789 N792 1.384 1_455 S
C790 H781 0.929 . S
C790 C782 1.378 . S
C790 C785 1.350 . S
C791 H778 0.929 . S
C791 C783 1.433 . S
C791 N793 1.384 1_655 S
N792 C788 1.427 1_655 S
N792 C789 1.384 1_655 S
N793 C785 1.427 1_455 S
N793 C791 1.384 1_455 S
H794 C800 0.930 . S
H795 C804 0.930 . S
H796 C809 0.929 . S
H797 C807 0.929 . S
H798 C802 0.929 . S
H799 C808 0.929 . S
C800 H794 0.930 . S
C800 C801 1.367 . S
C800 C808 1.378 . S
C801 C800 1.367 . S
C801 C809 1.433 . S
C802 H798 0.929 . S
C802 C804 1.378 . S
C802 C806 1.350 . S
C803 C806 1.463 . S
C803 C808 1.350 . S
C803 N811 1.427 . S
C804 H795 0.930 . S
C804 C802 1.378 . S
C804 C805 1.367 . S
C805 C804 1.367 . S
C805 C807 1.433 . S
C806 C802 1.350 . S
C806 C803 1.463 . S
C806 N810 1.427 . S
C807 H797 0.929 . S
C807 C805 1.433 . S
C807 N810 1.384 . S
C808 H799 0.929 . S
C808 C800 1.378 . S
C808 C803 1.350 . S
C809 H796 0.929 . S
C809 C801 1.433 . S
C809 N811 1.384 . S
N810 C806 1.427 . S
N810 C807 1.384 . S
N811 C803 1.427 . S
N811 C809 1.384 . S
H812 C818 0.930 . S
H813 C822 0.930 . S
H814 C827 0.929 . S
H815 C825 0.929 . S
H816 C820 0.929 . S
H817 C826 0.929 . S
C818 H812 0.930 . S
C818 C819 1.367 . S
C818 C826 1.378 . S
C819 C818 1.367 . S
C819 C827 1.433 . S
C820 H816 0.929 . S
C820 C822 1.378 . S
C820 C824 1.350 . S
C821 C824 1.463 . S
C821 C826 1.350 . S
C821 N829 1.427 . S
C822 H813 0.930 . S
C822 C820 1.378 . S
C822 C823 1.367 . S
C823 C822 1.367 . S
C823 C825 1.433 . S
C824 C820 1.350 . S
C824 C821 1.463 . S
C824 N828 1.427 . S
C825 H815 0.929 . S
C825 C823 1.433 . S
C825 N828 1.384 . S
C826 H817 0.929 . S
C826 C818 1.378 . S
C826 C821 1.350 . S
C827 H814 0.929 . S
C827 C819 1.433 . S
C827 N829 1.384 . S
N828 C824 1.427 . S
N828 C825 1.384 . S
N829 C821 1.427 . S
N829 C827 1.384 . S
H830 C836 0.930 . S
H831 C840 0.930 . S
H832 C845 0.929 . S
H833 C843 0.929 . S
H834 C838 0.929 . S
H835 C844 0.929 . S
C836 H830 0.930 . S
C836 C837 1.367 . S
C836 C844 1.378 . S
C837 C836 1.367 . S
C837 C845 1.433 . S
C838 H834 0.929 . S
C838 C840 1.378 . S
C838 C842 1.350 . S
C839 C842 1.463 1_455 S
C839 C844 1.350 . S
C839 N847 1.427 . S
C840 H831 0.930 . S
C840 C838 1.378 . S
C840 C841 1.367 . S
C841 C840 1.367 . S
C841 C843 1.433 . S
C842 C838 1.350 . S
C842 C839 1.463 1_655 S
C842 N846 1.427 . S
C843 H833 0.929 . S
C843 C841 1.433 . S
C843 N846 1.384 . S
C844 H835 0.929 . S
C844 C836 1.378 . S
C844 C839 1.350 . S
C845 H832 0.929 . S
C845 C837 1.433 . S
C845 N847 1.384 . S
N846 C842 1.427 . S
N846 C843 1.384 . S
N847 C839 1.427 . S
N847 C845 1.384 . S
H848 C854 0.930 . S
H849 C858 0.930 . S
H850 C863 0.929 . S
H851 C861 0.929 . S
H852 C856 0.929 . S
H853 C862 0.929 . S
C854 H848 0.930 . S
C854 C855 1.367 . S
C854 C862 1.378 . S
C855 C854 1.367 . S
C855 C863 1.433 . S
C856 H852 0.929 . S
C856 C858 1.378 . S
C856 C860 1.350 . S
C857 C860 1.463 1_655 S
C857 C862 1.350 . S
C857 N865 1.427 . S
C858 H849 0.930 . S
C858 C856 1.378 . S
C858 C859 1.367 . S
C859 C858 1.367 . S
C859 C861 1.433 . S
C860 C856 1.350 . S
C860 C857 1.463 1_455 S
C860 N864 1.427 . S
C861 H851 0.929 . S
C861 C859 1.433 . S
C861 N864 1.384 . S
C862 H853 0.929 . S
C862 C854 1.378 . S
C862 C857 1.350 . S
C863 H850 0.929 . S
C863 C855 1.433 . S
C863 N865 1.384 . S
N864 C860 1.427 . S
N864 C861 1.384 . S
N865 C857 1.427 . S
N865 C863 1.384 . S
H866 C872 0.930 . S
H867 C876 0.930 . S
H868 C881 0.929 . S
H869 C879 0.929 . S
H870 C874 0.929 . S
H871 C880 0.929 . S
C872 H866 0.930 . S
C872 C873 1.367 . S
C872 C880 1.378 . S
C873 C872 1.367 . S
C873 C881 1.433 . S
C874 H870 0.929 . S
C874 C876 1.378 . S
C874 C878 1.350 . S
C875 C878 1.463 1_655 S
C875 C880 1.350 . S
C875 N883 1.427 . S
C876 H867 0.930 . S
C876 C874 1.378 . S
C876 C877 1.367 . S
C877 C876 1.367 . S
C877 C879 1.433 . S
C878 C874 1.350 . S
C878 C875 1.463 1_455 S
C878 N882 1.427 . S
C879 H869 0.929 . S
C879 C877 1.433 . S
C879 N882 1.384 . S
C880 H871 0.929 . S
C880 C872 1.378 . S
C880 C875 1.350 . S
C881 H868 0.929 . S
C881 C873 1.433 . S
C881 N883 1.384 . S
N882 C878 1.427 . S
N882 C879 1.384 . S
N883 C875 1.427 . S
N883 C881 1.384 . S
H884 C890 0.930 . S
H885 C894 0.930 . S
H886 C899 0.929 . S
H887 C897 0.929 . S
H888 C892 0.929 . S
H889 C898 0.929 . S
C890 H884 0.930 . S
C890 C891 1.367 . S
C890 C898 1.378 . S
C891 C890 1.367 . S
C891 C899 1.433 . S
C892 H888 0.929 . S
C892 C894 1.378 . S
C892 C896 1.350 . S
C893 C896 1.463 . S
C893 C898 1.350 . S
C893 N901 1.427 . S
C894 H885 0.930 . S
C894 C892 1.378 . S
C894 C895 1.367 . S
C895 C894 1.367 . S
C895 C897 1.433 . S
C896 C892 1.350 . S
C896 C893 1.463 . S
C896 N900 1.427 . S
C897 H887 0.929 . S
C897 C895 1.433 . S
C897 N900 1.384 . S
C898 H889 0.929 . S
C898 C890 1.378 . S
C898 C893 1.350 . S
C899 H886 0.929 . S
C899 C891 1.433 . S
C899 N901 1.384 . S
N900 C896 1.427 . S
N900 C897 1.384 . S
N901 C893 1.427 . S
N901 C899 1.384 . S
H902 C908 0.930 . S
H903 C912 0.930 . S
H904 C917 0.929 . S
H905 C915 0.929 . S
H906 C910 0.929 . S
H907 C916 0.929 . S
C908 H902 0.930 . S
C908 C909 1.367 . S
C908 C916 1.378 . S
C909 C908 1.367 . S
C909 C917 1.433 . S
C910 H906 0.929 . S
C910 C912 1.378 . S
C910 C914 1.350 . S
C911 C914 1.463 . S
C911 C916 1.350 . S
C911 N919 1.427 . S
C912 H903 0.930 . S
C912 C910 1.378 . S
C912 C913 1.367 . S
C913 C912 1.367 . S
C913 C915 1.433 . S
C914 C910 1.350 . S
C914 C911 1.463 . S
C914 N918 1.427 . S
C915 H905 0.929 . S
C915 C913 1.433 . S
C915 N918 1.384 . S
C916 H907 0.929 . S
C916 C908 1.378 . S
C916 C911 1.350 . S
C917 H904 0.929 . S
C917 C909 1.433 . S
C917 N919 1.384 . S
N918 C914 1.427 . S
N918 C915 1.384 . S
N919 C911 1.427 . S
N919 C917 1.384 . S
H920 C926 0.930 . S
H921 C930 0.930 . S
H922 C935 0.916 1_455 S
H923 C933 0.916 1_655 S
H924 C928 0.929 . S
H925 C934 0.929 . S
C926 H920 0.930 . S
C926 C927 1.367 . S
C926 C934 1.378 . S
C927 C926 1.367 . S
C927 C935 1.433 . S
C928 H924 0.929 . S
C928 C930 1.378 . S
C928 C932 1.350 . S
C929 C932 1.463 1_655 S
C929 C934 1.350 . S
C929 N937 1.427 1_655 S
C930 H921 0.930 . S
C930 C928 1.378 . S
C930 C931 1.367 . S
C931 C930 1.367 . S
C931 C933 1.433 . S
C932 C928 1.350 . S
C932 C929 1.463 1_455 S
C932 N936 1.427 1_455 S
C933 H923 0.916 1_455 S
C933 C931 1.433 . S
C933 N936 1.384 1_455 S
C934 H925 0.929 . S
C934 C926 1.378 . S
C934 C929 1.350 . S
C935 H922 0.916 1_655 S
C935 C927 1.433 . S
C935 N937 1.384 1_655 S
N936 C932 1.427 1_655 S
N936 C933 1.384 1_655 S
N937 C929 1.427 1_455 S
N937 C935 1.384 1_455 S
H938 C944 0.930 . S
H939 C948 0.930 . S
H940 C953 0.929 . S
H941 C951 0.929 . S
H942 C946 0.929 . S
H943 C952 0.929 . S
C944 H938 0.930 . S
C944 C945 1.367 . S
C944 C952 1.378 . S
C945 C944 1.367 . S
C945 C953 1.433 . S
C946 H942 0.929 . S
C946 C948 1.378 . S
C946 C950 1.350 . S
C947 C950 1.463 . S
C947 C952 1.350 . S
C947 N955 1.427 . S
C948 H939 0.930 . S
C948 C946 1.378 . S
C948 C949 1.367 . S
C949 C948 1.367 . S
C949 C951 1.433 . S
C950 C946 1.350 . S
C950 C947 1.463 . S
C950 N954 1.427 . S
C951 H941 0.929 . S
C951 C949 1.433 . S
C951 N954 1.384 . S
C952 H943 0.929 . S
C952 C944 1.378 . S
C952 C947 1.350 . S
C953 H940 0.929 . S
C953 C945 1.433 . S
C953 N955 1.384 . S
N954 C950 1.427 . S
N954 C951 1.384 . S
N955 C947 1.427 . S
N955 C953 1.384 . S
H956 C962 0.930 . S
H957 C966 0.930 . S
H958 C971 0.929 . S
H959 C969 0.929 . S
H960 C964 0.929 . S
H961 C970 0.929 . S
C962 H956 0.930 . S
C962 C963 1.367 . S
C962 C970 1.378 . S
C963 C962 1.367 . S
C963 C971 1.433 . S
C964 H960 0.929 . S
C964 C966 1.378 . S
C964 C968 1.350 . S
C965 C968 1.463 . S
C965 C970 1.350 . S
C965 N973 1.427 . S
C966 H957 0.930 . S
C966 C964 1.378 . S
C966 C967 1.367 . S
C967 C966 1.367 . S
C967 C969 1.433 . S
C968 C964 1.350 . S
C968 C965 1.463 . S
C968 N972 1.427 . S
C969 H959 0.929 . S
C969 C967 1.433 . S
C969 N972 1.384 . S
C970 H961 0.929 . S
C970 C962 1.378 . S
C970 C965 1.350 . S
C971 H958 0.929 . S
C971 C963 1.433 . S
C971 N973 1.384 . S
N972 C968 1.427 . S
N972 C969 1.384 . S
N973 C965 1.427 . S
N973 C971 1.384 . S
H974 C980 0.930 . S
H975 C984 0.930 . S
H976 C989 0.929 . S
H977 C987 0.929 . S
H978 C982 0.929 . S
H979 C988 0.929 . S
C980 H974 0.930 . S
C980 C981 1.367 . S
C980 C988 1.378 . S
C981 C980 1.367 . S
C981 C989 1.433 . S
C982 H978 0.929 . S
C982 C984 1.378 . S
C982 C986 1.350 . S
C983 C986 1.463 1_655 S
C983 C988 1.350 . S
C983 N991 1.427 . S
C984 H975 0.930 . S
C984 C982 1.378 . S
C984 C985 1.367 . S
C985 C984 1.367 . S
C985 C987 1.433 . S
C986 C982 1.350 . S
C986 C983 1.463 1_455 S
C986 N990 1.427 . S
C987 H977 0.929 . S
C987 C985 1.433 . S
C987 N990 1.384 . S
C988 H979 0.929 . S
C988 C980 1.378 . S
C988 C983 1.350 . S
C989 H976 0.929 . S
C989 C981 1.433 . S
C989 N991 1.384 . S
N990 C986 1.427 . S
N990 C987 1.384 . S
N991 C983 1.427 . S
N991 C989 1.384 . S
H992 C998 0.930 . S
H993 C1002 0.930 . S
H994 C1007 0.929 . S
H995 C1005 0.929 . S
H996 C1000 0.924 1_556 S
H997 C1006 0.924 1_554 S
C998 H992 0.930 . S
C998 C999 1.367 . S
C998 C1006 1.378 . S
C999 C998 1.367 . S
C999 C1007 1.433 . S
C1000 H996 0.924 1_554 S
C1000 C1002 1.378 . S
C1000 C1004 1.350 . S
C1001 C1004 1.463 1_556 S
C1001 C1006 1.350 . S
C1001 N1009 1.427 . S
C1002 H993 0.930 . S
C1002 C1000 1.378 . S
C1002 C1003 1.367 . S
C1003 C1002 1.367 . S
C1003 C1005 1.433 . S
C1004 C1000 1.350 . S
C1004 C1001 1.463 1_554 S
C1004 N1008 1.427 . S
C1005 H995 0.929 . S
C1005 C1003 1.433 . S
C1005 N1008 1.384 . S
C1006 H997 0.924 1_556 S
C1006 C998 1.378 . S
C1006 C1001 1.350 . S
C1007 H994 0.929 . S
C1007 C999 1.433 . S
C1007 N1009 1.384 . S
N1008 C1004 1.427 . S
N1008 C1005 1.384 . S
N1009 C1001 1.427 . S
N1009 C1007 1.384 . S
H1010 C1016 0.930 . S
H1011 C1020 0.930 . S
H1012 C1025 0.929 . S
H1013 C1023 0.929 . S
H1014 C1018 0.929 . S
H1015 C1024 0.929 . S
C1016 H1010 0.930 . S
C1016 C1017 1.367 . S
C1016 C1024 1.378 . S
C1017 C1016 1.367 . S
C1017 C1025 1.433 . S
C1018 H1014 0.929 . S
C1018 C1020 1.378 . S
C1018 C1022 1.350 . S
C1019 C1022 1.463 1_545 S
C1019 C1024 1.350 . S
C1019 N1027 1.427 . S
C1020 H1011 0.930 . S
C1020 C1018 1.378 . S
C1020 C1021 1.367 . S
C1021 C1020 1.367 . S
C1021 C1023 1.433 . S
C1022 C1018 1.350 . S
C1022 C1019 1.463 1_565 S
C1022 N1026 1.427 . S
C1023 H1013 0.929 . S
C1023 C1021 1.433 . S
C1023 N1026 1.384 . S
C1024 H1015 0.929 . S
C1024 C1016 1.378 . S
C1024 C1019 1.350 . S
C1025 H1012 0.929 . S
C1025 C1017 1.433 . S
C1025 N1027 1.384 . S
N1026 C1022 1.427 . S
N1026 C1023 1.384 . S
N1027 C1019 1.427 . S
N1027 C1025 1.384 . S
H1028 C1034 0.930 . S
H1029 C1038 0.930 . S
H1030 C1043 0.929 . S
H1031 C1041 0.929 . S
H1032 C1036 0.929 . S
H1033 C1042 0.929 . S
C1034 H1028 0.930 . S
C1034 C1035 1.367 . S
C1034 C1042 1.378 . S
C1035 C1034 1.367 . S
C1035 C1043 1.433 . S
C1036 H1032 0.929 . S
C1036 C1038 1.378 . S
C1036 C1040 1.350 . S
C1037 C1040 1.463 . S
C1037 C1042 1.350 . S
C1037 N1045 1.427 . S
C1038 H1029 0.930 . S
C1038 C1036 1.378 . S
C1038 C1039 1.367 . S
C1039 C1038 1.367 . S
C1039 C1041 1.433 . S
C1040 C1036 1.350 . S
C1040 C1037 1.463 . S
C1040 N1044 1.427 . S
C1041 H1031 0.929 . S
C1041 C1039 1.433 . S
C1041 N1044 1.384 . S
C1042 H1033 0.929 . S
C1042 C1034 1.378 . S
C1042 C1037 1.350 . S
C1043 H1030 0.929 . S
C1043 C1035 1.433 . S
C1043 N1045 1.384 . S
N1044 C1040 1.427 . S
N1044 C1041 1.384 . S
N1045 C1037 1.427 . S
N1045 C1043 1.384 . S
H1046 C1052 0.930 . S
H1047 C1056 0.930 . S
H1048 C1061 0.929 . S
H1049 C1059 0.929 . S
H1050 C1054 0.929 . S
H1051 C1060 0.929 . S
C1052 H1046 0.930 . S
C1052 C1053 1.367 . S
C1052 C1060 1.378 . S
C1053 C1052 1.367 . S
C1053 C1061 1.433 . S
C1054 H1050 0.929 . S
C1054 C1056 1.378 . S
C1054 C1058 1.350 . S
C1055 C1058 1.463 1_545 S
C1055 C1060 1.350 . S
C1055 N1063 1.427 . S
C1056 H1047 0.930 . S
C1056 C1054 1.378 . S
C1056 C1057 1.367 . S
C1057 C1056 1.367 . S
C1057 C1059 1.433 . S
C1058 C1054 1.350 . S
C1058 C1055 1.463 1_565 S
C1058 N1062 1.427 . S
C1059 H1049 0.929 . S
C1059 C1057 1.433 . S
C1059 N1062 1.384 . S
C1060 H1051 0.929 . S
C1060 C1052 1.378 . S
C1060 C1055 1.350 . S
C1061 H1048 0.929 . S
C1061 C1053 1.433 . S
C1061 N1063 1.384 . S
N1062 C1058 1.427 . S
N1062 C1059 1.384 . S
N1063 C1055 1.427 . S
N1063 C1061 1.384 . S
H1064 C1070 0.930 . S
H1065 C1074 0.930 . S
H1066 C1079 0.929 . S
H1067 C1077 0.929 . S
H1068 C1072 0.929 . S
H1069 C1078 0.929 . S
C1070 H1064 0.930 . S
C1070 C1071 1.367 . S
C1070 C1078 1.378 . S
C1071 C1070 1.367 . S
C1071 C1079 1.433 . S
C1072 H1068 0.929 . S
C1072 C1074 1.378 . S
C1072 C1076 1.350 . S
C1073 C1076 1.463 1_554 S
C1073 C1078 1.350 . S
C1073 N1081 1.417 1_554 S
C1074 H1065 0.930 . S
C1074 C1072 1.378 . S
C1074 C1075 1.367 . S
C1075 C1074 1.367 . S
C1075 C1077 1.433 . S
C1076 C1072 1.350 . S
C1076 C1073 1.463 1_556 S
C1076 N1080 1.417 1_556 S
C1077 H1067 0.929 . S
C1077 C1075 1.433 . S
C1077 N1080 1.367 1_556 S
C1078 H1069 0.929 . S
C1078 C1070 1.378 . S
C1078 C1073 1.350 . S
C1079 H1066 0.929 . S
C1079 C1071 1.433 . S
C1079 N1081 1.367 1_554 S
N1080 C1076 1.417 1_554 S
N1080 C1077 1.367 1_554 S
N1081 C1073 1.417 1_556 S
N1081 C1079 1.367 1_556 S
H1082 C1088 0.930 . S
H1083 C1092 0.930 . S
H1084 C1097 0.929 . S
H1085 C1095 0.929 . S
H1086 C1090 0.929 . S
H1087 C1096 0.929 . S
C1088 H1082 0.930 . S
C1088 C1089 1.367 . S
C1088 C1096 1.378 . S
C1089 C1088 1.367 . S
C1089 C1097 1.433 . S
C1090 H1086 0.929 . S
C1090 C1092 1.378 . S
C1090 C1094 1.350 . S
C1091 C1094 1.463 1_565 S
C1091 C1096 1.350 . S
C1091 N1099 1.427 . S
C1092 H1083 0.930 . S
C1092 C1090 1.378 . S
C1092 C1093 1.367 . S
C1093 C1092 1.367 . S
C1093 C1095 1.433 . S
C1094 C1090 1.350 . S
C1094 C1091 1.463 1_545 S
C1094 N1098 1.427 . S
C1095 H1085 0.929 . S
C1095 C1093 1.433 . S
C1095 N1098 1.384 . S
C1096 H1087 0.929 . S
C1096 C1088 1.378 . S
C1096 C1091 1.350 . S
C1097 H1084 0.929 . S
C1097 C1089 1.433 . S
C1097 N1099 1.384 . S
N1098 C1094 1.427 . S
N1098 C1095 1.384 . S
N1099 C1091 1.427 . S
N1099 C1097 1.384 . S
H1100 C1106 0.930 . S
H1101 C1110 0.930 . S
H1102 C1115 0.929 . S
H1103 C1113 0.929 . S
H1104 C1108 0.929 . S
H1105 C1114 0.929 . S
C1106 H1100 0.930 . S
C1106 C1107 1.367 . S
C1106 C1114 1.378 . S
C1107 C1106 1.367 . S
C1107 C1115 1.433 . S
C1108 H1104 0.929 . S
C1108 C1110 1.378 . S
C1108 C1112 1.350 . S
C1109 C1112 1.463 . S
C1109 C1114 1.350 . S
C1109 N1117 1.427 . S
C1110 H1101 0.930 . S
C1110 C1108 1.378 . S
C1110 C1111 1.367 . S
C1111 C1110 1.367 . S
C1111 C1113 1.433 . S
C1112 C1108 1.350 . S
C1112 C1109 1.463 . S
C1112 N1116 1.427 . S
C1113 H1103 0.929 . S
C1113 C1111 1.433 . S
C1113 N1116 1.384 . S
C1114 H1105 0.929 . S
C1114 C1106 1.378 . S
C1114 C1109 1.350 . S
C1115 H1102 0.929 . S
C1115 C1107 1.433 . S
C1115 N1117 1.384 . S
N1116 C1112 1.427 . S
N1116 C1113 1.384 . S
N1117 C1109 1.427 . S
N1117 C1115 1.384 . S
H1118 C1124 0.930 . S
H1119 C1128 0.930 . S
H1120 C1133 0.929 . S
H1121 C1131 0.929 . S
H1122 C1126 0.929 . S
H1123 C1132 0.929 . S
C1124 H1118 0.930 . S
C1124 C1125 1.367 . S
C1124 C1132 1.378 . S
C1125 C1124 1.367 . S
C1125 C1133 1.433 . S
C1126 H1122 0.929 . S
C1126 C1128 1.378 . S
C1126 C1130 1.350 . S
C1127 C1130 1.463 1_545 S
C1127 C1132 1.350 . S
C1127 N1135 1.427 . S
C1128 H1119 0.930 . S
C1128 C1126 1.378 . S
C1128 C1129 1.367 . S
C1129 C1128 1.367 . S
C1129 C1131 1.433 . S
C1130 C1126 1.350 . S
C1130 C1127 1.463 1_565 S
C1130 N1134 1.427 . S
C1131 H1121 0.929 . S
C1131 C1129 1.433 . S
C1131 N1134 1.384 . S
C1132 H1123 0.929 . S
C1132 C1124 1.378 . S
C1132 C1127 1.350 . S
C1133 H1120 0.929 . S
C1133 C1125 1.433 . S
C1133 N1135 1.384 . S
N1134 C1130 1.427 . S
N1134 C1131 1.384 . S
N1135 C1127 1.427 . S
N1135 C1133 1.384 . S
H1136 C1142 0.930 . S
H1137 C1146 0.930 . S
H1138 C1151 0.929 . S
H1139 C1149 0.929 . S
H1140 C1144 0.929 . S
H1141 C1150 0.929 . S
C1142 H1136 0.930 . S
C1142 C1143 1.367 . S
C1142 C1150 1.378 . S
C1143 C1142 1.367 . S
C1143 C1151 1.433 . S
C1144 H1140 0.929 . S
C1144 C1146 1.378 . S
C1144 C1148 1.350 . S
C1145 C1148 1.463 . S
C1145 C1150 1.350 . S
C1145 N1153 1.427 . S
C1146 H1137 0.930 . S
C1146 C1144 1.378 . S
C1146 C1147 1.367 . S
C1147 C1146 1.367 . S
C1147 C1149 1.433 . S
C1148 C1144 1.350 . S
C1148 C1145 1.463 . S
C1148 N1152 1.427 . S
C1149 H1139 0.929 . S
C1149 C1147 1.433 . S
C1149 N1152 1.384 . S
C1150 H1141 0.929 . S
C1150 C1142 1.378 . S
C1150 C1145 1.350 . S
C1151 H1138 0.929 . S
C1151 C1143 1.433 . S
C1151 N1153 1.384 . S
N1152 C1148 1.427 . S
N1152 C1149 1.384 . S
N1153 C1145 1.427 . S
N1153 C1151 1.384 . S
H1154 C1160 0.930 . S
H1155 C1164 0.930 . S
H1156 C1169 0.929 . S
H1157 C1167 0.929 . S
H1158 C1162 0.929 . S
H1159 C1168 0.929 . S
C1160 H1154 0.930 . S
C1160 C1161 1.367 . S
C1160 C1168 1.378 . S
C1161 C1160 1.367 . S
C1161 C1169 1.433 . S
C1162 H1158 0.929 . S
C1162 C1164 1.378 . S
C1162 C1166 1.350 . S
C1163 C1166 1.463 . S
C1163 C1168 1.350 . S
C1163 N1171 1.427 . S
C1164 H1155 0.930 . S
C1164 C1162 1.378 . S
C1164 C1165 1.367 . S
C1165 C1164 1.367 . S
C1165 C1167 1.433 . S
C1166 C1162 1.350 . S
C1166 C1163 1.463 . S
C1166 N1170 1.427 . S
C1167 H1157 0.929 . S
C1167 C1165 1.433 . S
C1167 N1170 1.384 . S
C1168 H1159 0.929 . S
C1168 C1160 1.378 . S
C1168 C1163 1.350 . S
C1169 H1156 0.929 . S
C1169 C1161 1.433 . S
C1169 N1171 1.384 . S
N1170 C1166 1.427 . S
N1170 C1167 1.384 . S
N1171 C1163 1.427 . S
N1171 C1169 1.384 . S
H1172 C1178 0.930 . S
H1173 C1182 0.930 . S
H1174 C1187 0.929 . S
H1175 C1185 0.929 . S
H1176 C1180 0.929 . S
H1177 C1186 0.929 . S
C1178 H1172 0.930 . S
C1178 C1179 1.367 . S
C1178 C1186 1.378 . S
C1179 C1178 1.367 . S
C1179 C1187 1.433 . S
C1180 H1176 0.929 . S
C1180 C1182 1.378 . S
C1180 C1184 1.350 . S
C1181 C1184 1.463 1_554 S
C1181 C1186 1.350 . S
C1181 N1189 1.427 . S
C1182 H1173 0.930 . S
C1182 C1180 1.378 . S
C1182 C1183 1.367 . S
C1183 C1182 1.367 . S
C1183 C1185 1.433 . S
C1184 C1180 1.350 . S
C1184 C1181 1.463 1_556 S
C1184 N1188 1.427 . S
C1185 H1175 0.929 . S
C1185 C1183 1.433 . S
C1185 N1188 1.384 . S
C1186 H1177 0.929 . S
C1186 C1178 1.378 . S
C1186 C1181 1.350 . S
C1187 H1174 0.929 . S
C1187 C1179 1.433 . S
C1187 N1189 1.384 . S
N1188 C1184 1.427 . S
N1188 C1185 1.384 . S
N1189 C1181 1.427 . S
N1189 C1187 1.384 . S
H1190 C1196 0.930 . S
H1191 C1200 0.930 . S
H1192 C1205 0.929 . S
H1193 C1203 0.929 . S
H1194 C1198 0.929 . S
H1195 C1204 0.929 . S
C1196 H1190 0.930 . S
C1196 C1197 1.367 . S
C1196 C1204 1.378 . S
C1197 C1196 1.367 . S
C1197 C1205 1.433 . S
C1198 H1194 0.929 . S
C1198 C1200 1.378 . S
C1198 C1202 1.350 . S
C1199 C1202 1.463 . S
C1199 C1204 1.350 . S
C1199 N1207 1.427 . S
C1200 H1191 0.930 . S
C1200 C1198 1.378 . S
C1200 C1201 1.367 . S
C1201 C1200 1.367 . S
C1201 C1203 1.433 . S
C1202 C1198 1.350 . S
C1202 C1199 1.463 . S
C1202 N1206 1.427 . S
C1203 H1193 0.929 . S
C1203 C1201 1.433 . S
C1203 N1206 1.384 . S
C1204 H1195 0.929 . S
C1204 C1196 1.378 . S
C1204 C1199 1.350 . S
C1205 H1192 0.929 . S
C1205 C1197 1.433 . S
C1205 N1207 1.384 . S
N1206 C1202 1.427 . S
N1206 C1203 1.384 . S
N1207 C1199 1.427 . S
N1207 C1205 1.384 . S
H1208 C1214 0.930 . S
H1209 C1218 0.930 . S
H1210 C1223 0.929 . S
H1211 C1221 0.929 . S
H1212 C1216 0.929 . S
H1213 C1222 0.929 . S
C1214 H1208 0.930 . S
C1214 C1215 1.367 . S
C1214 C1222 1.378 . S
C1215 C1214 1.367 . S
C1215 C1223 1.433 . S
C1216 H1212 0.929 . S
C1216 C1218 1.378 . S
C1216 C1220 1.350 . S
C1217 C1220 1.463 . S
C1217 C1222 1.350 . S
C1217 N1225 1.427 . S
C1218 H1209 0.930 . S
C1218 C1216 1.378 . S
C1218 C1219 1.367 . S
C1219 C1218 1.367 . S
C1219 C1221 1.433 . S
C1220 C1216 1.350 . S
C1220 C1217 1.463 . S
C1220 N1224 1.427 . S
C1221 H1211 0.929 . S
C1221 C1219 1.433 . S
C1221 N1224 1.384 . S
C1222 H1213 0.929 . S
C1222 C1214 1.378 . S
C1222 C1217 1.350 . S
C1223 H1210 0.929 . S
C1223 C1215 1.433 . S
C1223 N1225 1.384 . S
N1224 C1220 1.427 . S
N1224 C1221 1.384 . S
N1225 C1217 1.427 . S
N1225 C1223 1.384 . S
H1226 C1232 0.930 . S
H1227 C1236 0.930 . S
H1228 C1241 0.929 . S
H1229 C1239 0.929 . S
H1230 C1234 0.929 . S
H1231 C1240 0.929 . S
C1232 H1226 0.930 . S
C1232 C1233 1.367 . S
C1232 C1240 1.378 . S
C1233 C1232 1.367 . S
C1233 C1241 1.433 . S
C1234 H1230 0.929 . S
C1234 C1236 1.378 . S
C1234 C1238 1.350 . S
C1235 C1238 1.463 . S
C1235 C1240 1.350 . S
C1235 N1243 1.427 . S
C1236 H1227 0.930 . S
C1236 C1234 1.378 . S
C1236 C1237 1.367 . S
C1237 C1236 1.367 . S
C1237 C1239 1.433 . S
C1238 C1234 1.350 . S
C1238 C1235 1.463 . S
C1238 N1242 1.427 . S
C1239 H1229 0.929 . S
C1239 C1237 1.433 . S
C1239 N1242 1.384 . S
C1240 H1231 0.929 . S
C1240 C1232 1.378 . S
C1240 C1235 1.350 . S
C1241 H1228 0.929 . S
C1241 C1233 1.433 . S
C1241 N1243 1.384 . S
N1242 C1238 1.427 . S
N1242 C1239 1.384 . S
N1243 C1235 1.427 . S
N1243 C1241 1.384 . S
H1244 C1250 0.930 . S
H1245 C1254 0.930 . S
H1246 C1259 0.929 . S
H1247 C1257 0.929 . S
H1248 C1252 0.929 1_556 S
H1249 C1258 0.929 1_554 S
C1250 H1244 0.930 . S
C1250 C1251 1.367 . S
C1250 C1258 1.378 . S
C1251 C1250 1.367 . S
C1251 C1259 1.433 . S
C1252 H1248 0.929 1_554 S
C1252 C1254 1.378 . S
C1252 C1256 1.350 . S
C1253 C1256 1.463 1_556 S
C1253 C1258 1.350 . S
C1253 N1261 1.427 . S
C1254 H1245 0.930 . S
C1254 C1252 1.378 . S
C1254 C1255 1.367 . S
C1255 C1254 1.367 . S
C1255 C1257 1.433 . S
C1256 C1252 1.350 . S
C1256 C1253 1.463 1_554 S
C1256 N1260 1.427 . S
C1257 H1247 0.929 . S
C1257 C1255 1.433 . S
C1257 N1260 1.384 . S
C1258 H1249 0.929 1_556 S
C1258 C1250 1.378 . S
C1258 C1253 1.350 . S
C1259 H1246 0.929 . S
C1259 C1251 1.433 . S
C1259 N1261 1.384 . S
N1260 C1256 1.427 . S
N1260 C1257 1.384 . S
N1261 C1253 1.427 . S
N1261 C1259 1.384 . S
H1262 C1268 0.930 . S
H1263 C1272 0.930 . S
H1264 C1277 0.929 . S
H1265 C1275 0.929 . S
H1266 C1270 0.929 . S
H1267 C1276 0.929 . S
C1268 H1262 0.930 . S
C1268 C1269 1.367 . S
C1268 C1276 1.378 . S
C1269 C1268 1.367 . S
C1269 C1277 1.433 . S
C1270 H1266 0.929 . S
C1270 C1272 1.378 . S
C1270 C1274 1.350 . S
C1271 C1274 1.463 . S
C1271 C1276 1.350 . S
C1271 N1279 1.427 . S
C1272 H1263 0.930 . S
C1272 C1270 1.378 . S
C1272 C1273 1.367 . S
C1273 C1272 1.367 . S
C1273 C1275 1.433 . S
C1274 C1270 1.350 . S
C1274 C1271 1.463 . S
C1274 N1278 1.427 . S
C1275 H1265 0.929 . S
C1275 C1273 1.433 . S
C1275 N1278 1.384 . S
C1276 H1267 0.929 . S
C1276 C1268 1.378 . S
C1276 C1271 1.350 . S
C1277 H1264 0.929 . S
C1277 C1269 1.433 . S
C1277 N1279 1.384 . S
N1278 C1274 1.427 . S
N1278 C1275 1.384 . S
N1279 C1271 1.427 . S
N1279 C1277 1.384 . S
H1280 C1286 0.930 . S
H1281 C1290 0.930 . S
H1282 C1295 0.929 . S
H1283 C1293 0.929 . S
H1284 C1288 0.929 . S
H1285 C1294 0.929 . S
C1286 H1280 0.930 . S
C1286 C1287 1.367 . S
C1286 C1294 1.378 . S
C1287 C1286 1.367 . S
C1287 C1295 1.433 . S
C1288 H1284 0.929 . S
C1288 C1290 1.378 . S
C1288 C1292 1.350 . S
C1289 C1292 1.463 . S
C1289 C1294 1.350 . S
C1289 N1297 1.427 . S
C1290 H1281 0.930 . S
C1290 C1288 1.378 . S
C1290 C1291 1.367 . S
C1291 C1290 1.367 . S
C1291 C1293 1.433 . S
C1292 C1288 1.350 . S
C1292 C1289 1.463 . S
C1292 N1296 1.427 . S
C1293 H1283 0.929 . S
C1293 C1291 1.433 . S
C1293 N1296 1.384 . S
C1294 H1285 0.929 . S
C1294 C1286 1.378 . S
C1294 C1289 1.350 . S
C1295 H1282 0.929 . S
C1295 C1287 1.433 . S
C1295 N1297 1.384 . S
N1296 C1292 1.427 . S
N1296 C1293 1.384 . S
N1297 C1289 1.427 . S
N1297 C1295 1.384 . S
H1298 C1304 0.930 . S
H1299 C1308 0.930 . S
H1300 C1313 0.929 . S
H1301 C1311 0.929 . S
H1302 C1306 0.929 . S
H1303 C1312 0.929 . S
C1304 H1298 0.930 . S
C1304 C1305 1.367 . S
C1304 C1312 1.378 . S
C1305 C1304 1.367 . S
C1305 C1313 1.433 . S
C1306 H1302 0.929 . S
C1306 C1308 1.378 . S
C1306 C1310 1.350 . S
C1307 C1310 1.463 . S
C1307 C1312 1.350 . S
C1307 N1315 1.427 . S
C1308 H1299 0.930 . S
C1308 C1306 1.378 . S
C1308 C1309 1.367 . S
C1309 C1308 1.367 . S
C1309 C1311 1.433 . S
C1310 C1306 1.350 . S
C1310 C1307 1.463 . S
C1310 N1314 1.427 . S
C1311 H1301 0.929 . S
C1311 C1309 1.433 . S
C1311 N1314 1.384 . S
C1312 H1303 0.929 . S
C1312 C1304 1.378 . S
C1312 C1307 1.350 . S
C1313 H1300 0.929 . S
C1313 C1305 1.433 . S
C1313 N1315 1.384 . S
N1314 C1310 1.427 . S
N1314 C1311 1.384 . S
N1315 C1307 1.427 . S
N1315 C1313 1.384 . S
H1316 C1322 0.930 . S
H1317 C1326 0.930 . S
H1318 C1331 0.929 . S
H1319 C1329 0.929 . S
H1320 C1324 0.929 . S
H1321 C1330 0.929 . S
C1322 H1316 0.930 . S
C1322 C1323 1.367 . S
C1322 C1330 1.378 . S
C1323 C1322 1.367 . S
C1323 C1331 1.433 . S
C1324 H1320 0.929 . S
C1324 C1326 1.378 . S
C1324 C1328 1.350 . S
C1325 C1328 1.463 . S
C1325 C1330 1.350 . S
C1325 N1333 1.427 . S
C1326 H1317 0.930 . S
C1326 C1324 1.378 . S
C1326 C1327 1.367 . S
C1327 C1326 1.367 . S
C1327 C1329 1.433 . S
C1328 C1324 1.350 . S
C1328 C1325 1.463 . S
C1328 N1332 1.427 . S
C1329 H1319 0.929 . S
C1329 C1327 1.433 . S
C1329 N1332 1.384 . S
C1330 H1321 0.929 . S
C1330 C1322 1.378 . S
C1330 C1325 1.350 . S
C1331 H1318 0.929 . S
C1331 C1323 1.433 . S
C1331 N1333 1.384 . S
N1332 C1328 1.427 . S
N1332 C1329 1.384 . S
N1333 C1325 1.427 . S
N1333 C1331 1.384 . S
H1334 C1340 0.930 . S
H1335 C1344 0.930 . S
H1336 C1349 0.929 . S
H1337 C1347 0.929 . S
H1338 C1342 0.929 . S
H1339 C1348 0.929 . S
C1340 H1334 0.930 . S
C1340 C1341 1.367 . S
C1340 C1348 1.378 . S
C1341 C1340 1.367 . S
C1341 C1349 1.433 . S
C1342 H1338 0.929 . S
C1342 C1344 1.378 . S
C1342 C1346 1.350 . S
C1343 C1346 1.463 . S
C1343 C1348 1.350 . S
C1343 N1351 1.427 . S
C1344 H1335 0.930 . S
C1344 C1342 1.378 . S
C1344 C1345 1.367 . S
C1345 C1344 1.367 . S
C1345 C1347 1.433 . S
C1346 C1342 1.350 . S
C1346 C1343 1.463 . S
C1346 N1350 1.427 . S
C1347 H1337 0.929 . S
C1347 C1345 1.433 . S
C1347 N1350 1.384 . S
C1348 H1339 0.929 . S
C1348 C1340 1.378 . S
C1348 C1343 1.350 . S
C1349 H1336 0.929 . S
C1349 C1341 1.433 . S
C1349 N1351 1.384 . S
N1350 C1346 1.427 . S
N1350 C1347 1.384 . S
N1351 C1343 1.427 . S
N1351 C1349 1.384 . S
H1352 C1358 0.930 . S
H1353 C1362 0.930 . S
H1354 C1367 0.929 . S
H1355 C1365 0.929 . S
H1356 C1360 0.929 . S
H1357 C1366 0.929 . S
C1358 H1352 0.930 . S
C1358 C1359 1.367 . S
C1358 C1366 1.378 . S
C1359 C1358 1.367 . S
C1359 C1367 1.433 . S
C1360 H1356 0.929 . S
C1360 C1362 1.378 . S
C1360 C1364 1.350 . S
C1361 C1364 1.463 . S
C1361 C1366 1.350 . S
C1361 N1369 1.427 . S
C1362 H1353 0.930 . S
C1362 C1360 1.378 . S
C1362 C1363 1.367 . S
C1363 C1362 1.367 . S
C1363 C1365 1.433 . S
C1364 C1360 1.350 . S
C1364 C1361 1.463 . S
C1364 N1368 1.427 . S
C1365 H1355 0.929 . S
C1365 C1363 1.433 . S
C1365 N1368 1.384 . S
C1366 H1357 0.929 . S
C1366 C1358 1.378 . S
C1366 C1361 1.350 . S
C1367 H1354 0.929 . S
C1367 C1359 1.433 . S
C1367 N1369 1.384 . S
N1368 C1364 1.427 . S
N1368 C1365 1.384 . S
N1369 C1361 1.427 . S
N1369 C1367 1.384 . S
H1370 C1376 0.930 . S
H1371 C1380 0.930 . S
H1372 C1385 0.929 . S
H1373 C1383 0.929 . S
H1374 C1378 0.929 . S
H1375 C1384 0.929 . S
C1376 H1370 0.930 . S
C1376 C1377 1.367 . S
C1376 C1384 1.378 . S
C1377 C1376 1.367 . S
C1377 C1385 1.433 . S
C1378 H1374 0.929 . S
C1378 C1380 1.378 . S
C1378 C1382 1.350 . S
C1379 C1382 1.463 . S
C1379 C1384 1.350 . S
C1379 N1387 1.427 . S
C1380 H1371 0.930 . S
C1380 C1378 1.378 . S
C1380 C1381 1.367 . S
C1381 C1380 1.367 . S
C1381 C1383 1.433 . S
C1382 C1378 1.350 . S
C1382 C1379 1.463 . S
C1382 N1386 1.427 . S
C1383 H1373 0.929 . S
C1383 C1381 1.433 . S
C1383 N1386 1.384 . S
C1384 H1375 0.929 . S
C1384 C1376 1.378 . S
C1384 C1379 1.350 . S
C1385 H1372 0.929 . S
C1385 C1377 1.433 . S
C1385 N1387 1.384 . S
N1386 C1382 1.427 . S
N1386 C1383 1.384 . S
N1387 C1379 1.427 . S
N1387 C1385 1.384 . S
H1388 C1394 0.930 . S
H1389 C1398 0.930 . S
H1390 C1403 0.929 . S
H1391 C1401 0.929 . S
H1392 C1396 0.929 . S
H1393 C1402 0.929 . S
C1394 H1388 0.930 . S
C1394 C1395 1.367 . S
C1394 C1402 1.378 . S
C1395 C1394 1.367 . S
C1395 C1403 1.433 . S
C1396 H1392 0.929 . S
C1396 C1398 1.378 . S
C1396 C1400 1.350 . S
C1397 C1400 1.463 . S
C1397 C1402 1.350 . S
C1397 N1405 1.427 . S
C1398 H1389 0.930 . S
C1398 C1396 1.378 . S
C1398 C1399 1.367 . S
C1399 C1398 1.367 . S
C1399 C1401 1.433 . S
C1400 C1396 1.350 . S
C1400 C1397 1.463 . S
C1400 N1404 1.427 . S
C1401 H1391 0.929 . S
C1401 C1399 1.433 . S
C1401 N1404 1.384 . S
C1402 H1393 0.929 . S
C1402 C1394 1.378 . S
C1402 C1397 1.350 . S
C1403 H1390 0.929 . S
C1403 C1395 1.433 . S
C1403 N1405 1.384 . S
N1404 C1400 1.427 . S
N1404 C1401 1.384 . S
N1405 C1397 1.427 . S
N1405 C1403 1.384 . S
H1406 C1412 0.930 . S
H1407 C1416 0.930 . S
H1408 C1421 0.929 . S
H1409 C1419 0.929 . S
H1410 C1414 0.929 . S
H1411 C1420 0.929 . S
C1412 H1406 0.930 . S
C1412 C1413 1.367 . S
C1412 C1420 1.378 . S
C1413 C1412 1.367 . S
C1413 C1421 1.433 . S
C1414 H1410 0.929 . S
C1414 C1416 1.378 . S
C1414 C1418 1.350 . S
C1415 C1418 1.463 . S
C1415 C1420 1.350 . S
C1415 N1423 1.427 . S
C1416 H1407 0.930 . S
C1416 C1414 1.378 . S
C1416 C1417 1.367 . S
C1417 C1416 1.367 . S
C1417 C1419 1.433 . S
C1418 C1414 1.350 . S
C1418 C1415 1.463 . S
C1418 N1422 1.427 . S
C1419 H1409 0.929 . S
C1419 C1417 1.433 . S
C1419 N1422 1.384 . S
C1420 H1411 0.929 . S
C1420 C1412 1.378 . S
C1420 C1415 1.350 . S
C1421 H1408 0.929 . S
C1421 C1413 1.433 . S
C1421 N1423 1.384 . S
N1422 C1418 1.427 . S
N1422 C1419 1.384 . S
N1423 C1415 1.427 . S
N1423 C1421 1.384 . S
H1424 C1430 0.930 . S
H1425 C1434 0.930 . S
H1426 C1439 0.929 . S
H1427 C1437 0.929 . S
H1428 C1432 0.929 . S
H1429 C1438 0.929 . S
C1430 H1424 0.930 . S
C1430 C1431 1.367 . S
C1430 C1438 1.378 . S
C1431 C1430 1.367 . S
C1431 C1439 1.433 . S
C1432 H1428 0.929 . S
C1432 C1434 1.378 . S
C1432 C1436 1.350 . S
C1433 C1436 1.463 . S
C1433 C1438 1.350 . S
C1433 N1441 1.427 . S
C1434 H1425 0.930 . S
C1434 C1432 1.378 . S
C1434 C1435 1.367 . S
C1435 C1434 1.367 . S
C1435 C1437 1.433 . S
C1436 C1432 1.350 . S
C1436 C1433 1.463 . S
C1436 N1440 1.427 . S
C1437 H1427 0.929 . S
C1437 C1435 1.433 . S
C1437 N1440 1.384 . S
C1438 H1429 0.929 . S
C1438 C1430 1.378 . S
C1438 C1433 1.350 . S
C1439 H1426 0.929 . S
C1439 C1431 1.433 . S
C1439 N1441 1.384 . S
N1440 C1436 1.427 . S
N1440 C1437 1.384 . S
N1441 C1433 1.427 . S
N1441 C1439 1.384 . S
H1442 C1448 0.930 . S
H1443 C1452 0.930 . S
H1444 C1457 0.929 . S
H1445 C1455 0.929 . S
H1446 C1450 0.929 . S
H1447 C1456 0.929 . S
C1448 H1442 0.930 . S
C1448 C1449 1.367 . S
C1448 C1456 1.378 . S
C1449 C1448 1.367 . S
C1449 C1457 1.433 . S
C1450 H1446 0.929 . S
C1450 C1452 1.378 . S
C1450 C1454 1.350 . S
C1451 C1454 1.463 . S
C1451 C1456 1.350 . S
C1451 N1459 1.427 . S
C1452 H1443 0.930 . S
C1452 C1450 1.378 . S
C1452 C1453 1.367 . S
C1453 C1452 1.367 . S
C1453 C1455 1.433 . S
C1454 C1450 1.350 . S
C1454 C1451 1.463 . S
C1454 N1458 1.427 . S
C1455 H1445 0.929 . S
C1455 C1453 1.433 . S
C1455 N1458 1.384 . S
C1456 H1447 0.929 . S
C1456 C1448 1.378 . S
C1456 C1451 1.350 . S
C1457 H1444 0.929 . S
C1457 C1449 1.433 . S
C1457 N1459 1.384 . S
N1458 C1454 1.427 . S
N1458 C1455 1.384 . S
N1459 C1451 1.427 . S
N1459 C1457 1.384 . S
H1460 C1466 0.930 . S
H1461 C1470 0.930 . S
H1462 C1475 0.929 . S
H1463 C1473 0.929 . S
H1464 C1468 0.929 . S
H1465 C1474 0.929 . S
C1466 H1460 0.930 . S
C1466 C1467 1.367 . S
C1466 C1474 1.378 . S
C1467 C1466 1.367 . S
C1467 C1475 1.433 . S
C1468 H1464 0.929 . S
C1468 C1470 1.378 . S
C1468 C1472 1.350 . S
C1469 C1472 1.463 . S
C1469 C1474 1.350 . S
C1469 N1477 1.427 . S
C1470 H1461 0.930 . S
C1470 C1468 1.378 . S
C1470 C1471 1.367 . S
C1471 C1470 1.367 . S
C1471 C1473 1.433 . S
C1472 C1468 1.350 . S
C1472 C1469 1.463 . S
C1472 N1476 1.427 . S
C1473 H1463 0.929 . S
C1473 C1471 1.433 . S
C1473 N1476 1.384 . S
C1474 H1465 0.929 . S
C1474 C1466 1.378 . S
C1474 C1469 1.350 . S
C1475 H1462 0.929 . S
C1475 C1467 1.433 . S
C1475 N1477 1.384 . S
N1476 C1472 1.427 . S
N1476 C1473 1.384 . S
N1477 C1469 1.427 . S
N1477 C1475 1.384 . S
H1478 C1484 0.930 . S
H1479 C1488 0.930 . S
H1480 C1493 0.929 . S
H1481 C1491 0.929 . S
H1482 C1486 0.929 . S
H1483 C1492 0.929 . S
C1484 H1478 0.930 . S
C1484 C1485 1.367 . S
C1484 C1492 1.378 . S
C1485 C1484 1.367 . S
C1485 C1493 1.433 . S
C1486 H1482 0.929 . S
C1486 C1488 1.378 . S
C1486 C1490 1.350 . S
C1487 C1490 1.463 . S
C1487 C1492 1.350 . S
C1487 N1495 1.427 . S
C1488 H1479 0.930 . S
C1488 C1486 1.378 . S
C1488 C1489 1.367 . S
C1489 C1488 1.367 . S
C1489 C1491 1.433 . S
C1490 C1486 1.350 . S
C1490 C1487 1.463 . S
C1490 N1494 1.427 . S
C1491 H1481 0.929 . S
C1491 C1489 1.433 . S
C1491 N1494 1.384 . S
C1492 H1483 0.929 . S
C1492 C1484 1.378 . S
C1492 C1487 1.350 . S
C1493 H1480 0.929 . S
C1493 C1485 1.433 . S
C1493 N1495 1.384 . S
N1494 C1490 1.427 . S
N1494 C1491 1.384 . S
N1495 C1487 1.427 . S
N1495 C1493 1.384 . S
H1496 C1502 0.930 . S
H1497 C1506 0.930 . S
H1498 C1511 0.929 . S
H1499 C1509 0.929 . S
H1500 C1504 0.929 . S
H1501 C1510 0.929 . S
C1502 H1496 0.930 . S
C1502 C1503 1.367 . S
C1502 C1510 1.378 . S
C1503 C1502 1.367 . S
C1503 C1511 1.433 . S
C1504 H1500 0.929 . S
C1504 C1506 1.378 . S
C1504 C1508 1.350 . S
C1505 C1508 1.463 . S
C1505 C1510 1.350 . S
C1505 N1513 1.427 . S
C1506 H1497 0.930 . S
C1506 C1504 1.378 . S
C1506 C1507 1.367 . S
C1507 C1506 1.367 . S
C1507 C1509 1.433 . S
C1508 C1504 1.350 . S
C1508 C1505 1.463 . S
C1508 N1512 1.427 . S
C1509 H1499 0.929 . S
C1509 C1507 1.433 . S
C1509 N1512 1.384 . S
C1510 H1501 0.929 . S
C1510 C1502 1.378 . S
C1510 C1505 1.350 . S
C1511 H1498 0.929 . S
C1511 C1503 1.433 . S
C1511 N1513 1.384 . S
N1512 C1508 1.427 . S
N1512 C1509 1.384 . S
N1513 C1505 1.427 . S
N1513 C1511 1.384 . S
H1514 C1520 0.930 . S
H1515 C1524 0.930 . S
H1516 C1529 0.929 . S
H1517 C1527 0.929 . S
H1518 C1522 0.929 . S
H1519 C1528 0.929 . S
C1520 H1514 0.930 . S
C1520 C1521 1.367 . S
C1520 C1528 1.378 . S
C1521 C1520 1.367 . S
C1521 C1529 1.433 . S
C1522 H1518 0.929 . S
C1522 C1524 1.378 . S
C1522 C1526 1.350 . S
C1523 C1526 1.463 . S
C1523 C1528 1.350 . S
C1523 N1531 1.427 . S
C1524 H1515 0.930 . S
C1524 C1522 1.378 . S
C1524 C1525 1.367 . S
C1525 C1524 1.367 . S
C1525 C1527 1.433 . S
C1526 C1522 1.350 . S
C1526 C1523 1.463 . S
C1526 N1530 1.427 . S
C1527 H1517 0.929 . S
C1527 C1525 1.433 . S
C1527 N1530 1.384 . S
C1528 H1519 0.929 . S
C1528 C1520 1.378 . S
C1528 C1523 1.350 . S
C1529 H1516 0.929 . S
C1529 C1521 1.433 . S
C1529 N1531 1.384 . S
N1530 C1526 1.427 . S
N1530 C1527 1.384 . S
N1531 C1523 1.427 . S
N1531 C1529 1.384 . S
H1532 C1538 0.930 . S
H1533 C1542 0.930 . S
H1534 C1547 0.929 . S
H1535 C1545 0.929 . S
H1536 C1540 0.929 . S
H1537 C1546 0.929 . S
C1538 H1532 0.930 . S
C1538 C1539 1.367 . S
C1538 C1546 1.378 . S
C1539 C1538 1.367 . S
C1539 C1547 1.433 . S
C1540 H1536 0.929 . S
C1540 C1542 1.378 . S
C1540 C1544 1.350 . S
C1541 C1544 1.463 . S
C1541 C1546 1.350 . S
C1541 N1549 1.427 . S
C1542 H1533 0.930 . S
C1542 C1540 1.378 . S
C1542 C1543 1.367 . S
C1543 C1542 1.367 . S
C1543 C1545 1.433 . S
C1544 C1540 1.350 . S
C1544 C1541 1.463 . S
C1544 N1548 1.427 . S
C1545 H1535 0.929 . S
C1545 C1543 1.433 . S
C1545 N1548 1.384 . S
C1546 H1537 0.929 . S
C1546 C1538 1.378 . S
C1546 C1541 1.350 . S
C1547 H1534 0.929 . S
C1547 C1539 1.433 . S
C1547 N1549 1.384 . S
N1548 C1544 1.427 . S
N1548 C1545 1.384 . S
N1549 C1541 1.427 . S
N1549 C1547 1.384 . S
H1550 C1556 0.930 . S
H1551 C1560 0.930 . S
H1552 C1565 0.929 . S
H1553 C1563 0.929 . S
H1554 C1558 0.929 . S
H1555 C1564 0.929 . S
C1556 H1550 0.930 . S
C1556 C1557 1.367 . S
C1556 C1564 1.378 . S
C1557 C1556 1.367 . S
C1557 C1565 1.433 . S
C1558 H1554 0.929 . S
C1558 C1560 1.378 . S
C1558 C1562 1.350 . S
C1559 C1562 1.463 . S
C1559 C1564 1.350 . S
C1559 N1567 1.427 . S
C1560 H1551 0.930 . S
C1560 C1558 1.378 . S
C1560 C1561 1.367 . S
C1561 C1560 1.367 . S
C1561 C1563 1.433 . S
C1562 C1558 1.350 . S
C1562 C1559 1.463 . S
C1562 N1566 1.427 . S
C1563 H1553 0.929 . S
C1563 C1561 1.433 . S
C1563 N1566 1.384 . S
C1564 H1555 0.929 . S
C1564 C1556 1.378 . S
C1564 C1559 1.350 . S
C1565 H1552 0.929 . S
C1565 C1557 1.433 . S
C1565 N1567 1.384 . S
N1566 C1562 1.427 . S
N1566 C1563 1.384 . S
N1567 C1559 1.427 . S
N1567 C1565 1.384 . S
C423 C108 1.474 . S
C427 C10 1.474 . S
C441 C335 1.470 . S
C445 C23 1.470 . S
C459 C140 1.472 . S
C463 C30 1.472 . S
C477 C355 1.471 . S
C481 C43 1.471 . S
C495 C166 1.473 . S
C499 C56 1.473 . S
C513 C75 1.473 . S
C517 C381 1.473 . S
C531 C88 1.471 . S
C535 C192 1.471 . S
C549 C95 1.470 . S
C553 C413 1.470 . S
C567 C231 1.471 . S
C571 C121 1.471 . S
C585 C251 1.472 . S
C589 C153 1.472 . S
C603 C173 1.475 . S
C607 C277 1.475 . S
C621 C199 1.470 . S
C625 C303 1.470 . S
C639 C212 1.474 . S
C643 C316 1.474 . S
C657 C348 1.471 . S
C661 C244 1.471 . S
C675 C270 1.470 . S
C679 C368 1.470 . S
C693 C400 1.474 . S
C697 C290 1.474 . S
C711 C239 1.550 . S
C715 C5 1.552 . S
C729 C250 1.553 . S
C733 C18 1.553 . S
C747 C29 1.550 . S
C751 C211 1.550 . S
C765 C42 1.553 . S
C769 C226 1.551 . S
C783 C289 1.550 . S
C787 C55 1.551 . S
C801 C70 1.550 . S
C805 C302 1.550 . S
C819 C265 1.550 . S
C823 C83 1.552 . S
C837 C276 1.553 . S
C841 C94 1.553 . S
C855 C107 1.552 . S
C859 C343 1.550 . S
C873 C354 1.550 . S
C877 C120 1.552 . S
C891 C135 1.553 . S
C895 C315 1.553 . S
C909 C148 1.553 . S
C913 C330 1.551 . S
C927 C161 1.550 . S
C931 C395 1.550 . S
C945 C172 1.553 . S
C949 C408 1.553 . S
C963 C367 1.550 . S
C967 C187 1.551 . S
C981 C380 1.551 . S
C985 C198 1.553 . S
C999 C82 1.936 . S
C1003 C4 1.939 . S
C1017 C101 1.938 . S
C1021 C17 1.936 . S
C1035 C62 1.938 . S
C1039 C36 1.935 . S
C1053 C49 1.936 . S
C1057 C69 1.936 . S
C1071 C186 1.940 . S
C1075 C114 1.938 . S
C1089 C205 1.936 . S
C1093 C127 1.936 . S
C1107 C160 1.938 . S
C1111 C134 1.940 . S
C1125 C179 1.935 . S
C1129 C147 1.938 . S
C1143 C296 1.936 . S
C1147 C218 1.939 . S
C1161 C309 1.939 . S
C1165 C225 1.940 . S
C1179 C238 1.940 . S
C1183 C264 1.936 . S
C1197 C257 1.938 . S
C1201 C283 1.935 . S
C1215 C394 1.938 . S
C1219 C322 1.936 . S
C1233 C407 1.940 . S
C1237 C329 1.938 . S
C1251 C342 1.938 . S
C1255 C374 1.936 . S
C1269 C361 1.939 . S
C1273 C387 1.939 . S
C1287 C3 1.379 . S
C1291 C278 1.381 . S
C1305 C291 1.379 . S
C1309 C16 1.379 . S
C1323 C304 1.380 . S
C1327 C31 1.380 . S
C1341 C44 1.381 . S
C1345 C263 1.378 . S
C1359 C252 1.378 . S
C1363 C57 1.381 . S
C1377 C68 1.381 . S
C1381 C213 1.378 . S
C1395 C224 1.381 . S
C1399 C81 1.378 . S
C1413 C96 1.378 . S
C1417 C237 1.381 . S
C1431 C382 1.379 . S
C1435 C109 1.379 . S
C1449 C393 1.381 . S
C1453 C122 1.378 . S
C1467 C133 1.380 . S
C1471 C406 1.380 . S
C1485 C369 1.381 . S
C1489 C146 1.378 . S
C1503 C356 1.380 . S
C1507 C159 1.378 . S
C1521 C174 1.380 . S
C1525 C317 1.378 . S
C1539 C328 1.381 . S
C1543 C185 1.377 . S
C1557 C200 1.379 . S
C1561 C341 1.381 . S
