# Generated by pormake.
# Topology mmt, (4)-cn, num edge types: 1
# Building blocks:
#     Node 0, Type 0, BuildingBlock: AZAVOO_clean_sbu_0, # of connection points: 4
#     Node 1, Type 0, BuildingBlock: AZAVOO_clean_sbu_0, # of connection points: 4
#     Node 2, Type 0, BuildingBlock: AZAVOO_clean_sbu_0, # of connection points: 4
#     Node 3, Type 0, BuildingBlock: AZAVOO_clean_sbu_0, # of connection points: 4
#     Node 4, Type 0, BuildingBlock: AZAVOO_clean_sbu_0, # of connection points: 4
#     Node 5, Type 0, BuildingBlock: AZAVOO_clean_sbu_0, # of connection points: 4
#     Node 6, Type 0, BuildingBlock: AZAVOO_clean_sbu_0, # of connection points: 4
#     Node 7, Type 0, BuildingBlock: AZAVOO_clean_sbu_0, # of connection points: 4
#     Edge 8, Type (0, 0), BuildingBlock: XUDNAN_clean_linker_2, # of connection points: 2
#     Edge 9, Type (0, 0), BuildingBlock: XUDNAN_clean_linker_2, # of connection points: 2
#     Edge 10, Type (0, 0), BuildingBlock: XUDNAN_clean_linker_2, # of connection points: 2
#     Edge 11, Type (0, 0), BuildingBlock: XUDNAN_clean_linker_2, # of connection points: 2
#     Edge 12, Type (0, 0), BuildingBlock: XUDNAN_clean_linker_2, # of connection points: 2
#     Edge 13, Type (0, 0), BuildingBlock: XUDNAN_clean_linker_2, # of connection points: 2
#     Edge 14, Type (0, 0), BuildingBlock: XUDNAN_clean_linker_2, # of connection points: 2
#     Edge 15, Type (0, 0), BuildingBlock: XUDNAN_clean_linker_2, # of connection points: 2
#     Edge 16, Type (0, 0), BuildingBlock: XUDNAN_clean_linker_2, # of connection points: 2
#     Edge 17, Type (0, 0), BuildingBlock: XUDNAN_clean_linker_2, # of connection points: 2
#     Edge 18, Type (0, 0), BuildingBlock: XUDNAN_clean_linker_2, # of connection points: 2
#     Edge 19, Type (0, 0), BuildingBlock: XUDNAN_clean_linker_2, # of connection points: 2
#     Edge 20, Type (0, 0), BuildingBlock: XUDNAN_clean_linker_2, # of connection points: 2
#     Edge 21, Type (0, 0), BuildingBlock: XUDNAN_clean_linker_2, # of connection points: 2
#     Edge 22, Type (0, 0), BuildingBlock: XUDNAN_clean_linker_2, # of connection points: 2
#     Edge 23, Type (0, 0), BuildingBlock: XUDNAN_clean_linker_2, # of connection points: 2
# Relax obj value: 0.097
# Max RMSD: 0.149
# Mean RMSD: 0.149
data_MOF--net-mmt--node1-AZAVOO_clean_sbu_0--edge1-XUDNAN_clean_linker_2
_symmetry_space_group_name_H-M    P1
_symmetry_Int_Tables_number       1
_symmetry_cell_setting            triclinic
loop_
_symmetry_equiv_pos_as_xyz
'x, y, z'
_cell_length_a     20.395223
_cell_length_b     40.328722
_cell_length_c     43.347598
_cell_angle_alpha  89.990332
_cell_angle_beta   90.011661
_cell_angle_gamma 89.977013
loop_
_atom_site_label
_atom_site_type_symbol
_atom_site_fract_x
_atom_site_fract_y
_atom_site_fract_z
_atom_type_partial_charge
Mg0 Mg 0.25268 0.54985 0.37407 0.0
O1 O 0.18036 0.55381 0.3328 0.0
O2 O 0.23597 0.56703 0.28961 0.0
Mg3 Mg 0.34406 0.57391 0.30152 0.0
C4 C 0.18274 0.56027 0.30385 0.0
C5 C 0.187 0.51865 0.42888 0.0
O6 O 0.24604 0.50577 0.42686 0.0
O7 O 0.24903 0.60792 0.38138 0.0
O8 O 0.30317 0.60465 0.33851 0.0
O9 O 0.27994 0.49757 0.35871 0.0
O10 O 0.33078 0.54197 0.34167 0.0
C11 C 0.2798 0.62241 0.35968 0.0
C12 C 0.32352 0.51056 0.34085 0.0
O13 O 0.17031 0.54048 0.40916 0.0
Mg14 Mg 0.24856 0.9394 0.36608 0.0
O15 O 0.33077 0.94849 0.33073 0.0
O16 O 0.29381 0.93536 0.28374 0.0
Mg17 Mg 0.18879 0.91677 0.28902 0.0
C18 C 0.33913 0.94574 0.30162 0.0
C19 C 0.30644 0.96931 0.42445 0.0
O20 O 0.25007 0.98459 0.42083 0.0
O21 O 0.26759 0.88368 0.36376 0.0
O22 O 0.2299 0.87277 0.31629 0.0
O23 O 0.20953 0.99027 0.35787 0.0
O24 O 0.17816 0.94636 0.33135 0.0
C25 C 0.25565 0.86356 0.34175 0.0
C26 C 0.17523 0.97796 0.33555 0.0
O27 O 0.322 0.94666 0.40542 0.0
Mg28 Mg 0.75361 0.45619 0.13472 0.0
O29 O 0.67789 0.45495 0.17353 0.0
O30 O 0.72331 0.43561 0.21676 0.0
Mg31 Mg 0.83035 0.42362 0.20504 0.0
C32 C 0.67407 0.44693 0.20192 0.0
C33 C 0.67127 0.4732 0.07327 0.0
O34 O 0.72867 0.47554 0.0597 0.0
O35 O 0.74548 0.39967 0.12897 0.0
O36 O 0.79797 0.38304 0.17148 0.0
O37 O 0.78708 0.50688 0.1496 0.0
O38 O 0.82949 0.46028 0.16723 0.0
C39 C 0.76883 0.37668 0.14608 0.0
C40 C 0.8275 0.49216 0.16813 0.0
O41 O 0.66837 0.46546 0.10167 0.0
Mg42 Mg 0.76348 0.05611 0.13353 0.0
O43 O 0.83738 0.05895 0.17365 0.0
O44 O 0.78794 0.08334 0.21381 0.0
Mg45 Mg 0.68164 0.09375 0.20048 0.0
C46 C 0.83807 0.07002 0.20127 0.0
C47 C 0.84896 0.02417 0.07955 0.0
O48 O 0.79826 0.00435 0.07656 0.0
O49 O 0.77141 0.11215 0.12508 0.0
O50 O 0.71897 0.13262 0.16632 0.0
O51 O 0.73009 0.00634 0.15103 0.0
O52 O 0.68797 0.05447 0.16547 0.0
C53 C 0.74967 0.13647 0.14093 0.0
C54 C 0.69092 0.02286 0.16882 0.0
O55 O 0.84812 0.04652 0.10024 0.0
Mg56 Mg 0.7506 0.44548 0.63551 0.0
O57 O 0.81936 0.44273 0.67761 0.0
O58 O 0.7616 0.42284 0.7175 0.0
Mg59 Mg 0.65562 0.41542 0.70194 0.0
C60 C 0.81514 0.43327 0.7057 0.0
C61 C 0.83972 0.47101 0.58075 0.0
O62 O 0.78776 0.48939 0.57535 0.0
O63 O 0.75341 0.38869 0.63085 0.0
O64 O 0.69209 0.37342 0.67117 0.0
O65 O 0.72081 0.49741 0.64831 0.0
O66 O 0.67166 0.45222 0.66533 0.0
C67 C 0.7261 0.36635 0.64735 0.0
C68 C 0.67714 0.48398 0.66602 0.0
O69 O 0.83908 0.45098 0.60344 0.0
Mg70 Mg 0.74578 0.0452 0.62839 0.0
O71 O 0.66417 0.04282 0.66452 0.0
O72 O 0.70212 0.05963 0.71019 0.0
Mg73 Mg 0.80952 0.07368 0.70292 0.0
C74 C 0.65582 0.0488 0.69315 0.0
C75 C 0.65784 0.01374 0.57466 0.0
O76 O 0.69758 0.98825 0.57729 0.0
O77 O 0.73661 0.1017 0.62589 0.0
O78 O 0.77728 0.11657 0.67174 0.0
O79 O 0.77782 0.99389 0.64137 0.0
O80 O 0.81595 0.03944 0.66317 0.0
C81 C 0.75255 0.12387 0.64554 0.0
C82 C 0.81441 0.00754 0.66223 0.0
O83 O 0.66709 0.03926 0.59135 0.0
Mg84 Mg 0.24983 0.54074 0.86795 0.0
O85 O 0.32271 0.54349 0.82723 0.0
O86 O 0.26692 0.56408 0.78697 0.0
Mg87 Mg 0.15963 0.57126 0.80033 0.0
C88 C 0.31991 0.55351 0.79924 0.0
C89 C 0.31229 0.52956 0.93046 0.0
O90 O 0.2489 0.53103 0.93575 0.0
O91 O 0.25314 0.59749 0.87329 0.0
O92 O 0.1932 0.61264 0.83247 0.0
O93 O 0.2197 0.48896 0.85484 0.0
O94 O 0.17337 0.53438 0.83674 0.0
C95 C 0.22579 0.61979 0.85672 0.0
C96 C 0.1774 0.50256 0.83653 0.0
O97 O 0.33242 0.53353 0.90296 0.0
Mg98 Mg 0.23914 0.94169 0.86534 0.0
O99 O 0.1586 0.93942 0.82771 0.0
O100 O 0.20405 0.91545 0.78616 0.0
Mg101 Mg 0.31207 0.9053 0.79545 0.0
C102 C 0.15505 0.9282 0.80013 0.0
C103 C 0.18242 0.97661 0.92131 0.0
O104 O 0.24024 0.99024 0.91708 0.0
O105 O 0.22989 0.8854 0.87337 0.0
O106 O 0.27797 0.86675 0.83031 0.0
O107 O 0.27181 0.99163 0.84781 0.0
O108 O 0.30941 0.94357 0.83092 0.0
C109 C 0.2498 0.86168 0.85618 0.0
C110 C 0.30772 0.97527 0.82851 0.0
O111 O 0.1642 0.95384 0.90293 0.0
H112 H 0.44388 0.48301 0.34643 0.0
H113 H 0.28546 0.49992 0.28189 0.0
H114 H 0.35628 0.4809 0.23896 0.0
H115 H 0.56749 0.5135 0.30054 0.0
H116 H 0.6293 0.48392 0.31181 0.0
H117 H 0.56362 0.49389 0.33788 0.0
H118 H 0.5321 0.43173 0.34153 0.0
H119 H 0.5983 0.42149 0.31567 0.0
H120 H 0.51577 0.40872 0.30671 0.0
H121 H 0.44844 0.46724 0.2028 0.0
H122 H 0.55321 0.457 0.176 0.0
H123 H 0.65174 0.44801 0.26442 0.0
C124 C 0.42347 0.48115 0.32342 0.0
C125 C 0.35883 0.49159 0.31735 0.0
C126 C 0.33427 0.49077 0.28689 0.0
C127 C 0.37426 0.48025 0.26244 0.0
C128 C 0.43848 0.47065 0.26902 0.0
C129 C 0.46272 0.4706 0.29883 0.0
C130 C 0.53486 0.46165 0.29941 0.0
C131 C 0.57621 0.48993 0.31322 0.0
C132 C 0.5459 0.42895 0.31686 0.0
C133 C 0.54792 0.45759 0.26525 0.0
C134 C 0.49167 0.46276 0.24812 0.0
C135 C 0.49253 0.46256 0.21599 0.0
C136 C 0.55241 0.45688 0.20098 0.0
C137 C 0.6107 0.45145 0.2181 0.0
C138 C 0.60796 0.45154 0.25067 0.0
H139 H 0.92175 0.01721 0.20063 0.0
H140 H 0.88483 0.11114 0.24606 0.0
H141 H 0.97632 0.1002 0.28211 0.0
H142 H 0.94727 0.97262 0.26792 0.0
H143 H 0.01028 0.94587 0.25272 0.0
H144 H 0.94995 0.9634 0.22723 0.0
H145 H 0.04219 0.98886 0.19362 0.0
H146 H 0.1029 0.97121 0.21901 0.0
H147 H 0.10298 0.01513 0.21134 0.0
H148 H 0.06584 0.07726 0.31547 0.0
H149 H 0.14184 0.04257 0.34586 0.0
H150 H 0.11421 0.96189 0.2809 0.0
C151 C 0.93435 0.03588 0.21758 0.0
C152 C 0.89718 0.06526 0.22034 0.0
C153 C 0.91328 0.08862 0.24349 0.0
C154 C 0.96522 0.08268 0.26394 0.0
C155 C 1.00004 0.0531 0.2611 0.0
C156 C 0.98514 0.02999 0.23859 0.0
C157 C 0.02508 0.99862 0.24266 0.0
C158 C 0.98047 0.96836 0.24796 0.0
C159 C 0.07102 0.99315 0.21501 0.0
C160 C 0.06339 0.00735 0.27144 0.0
C161 C 0.0494 0.03915 0.28129 0.0
C162 C 0.07758 0.05241 0.30784 0.0
C163 C 0.12068 0.0325 0.32495 0.0
C164 C 0.13422 -0.00051 0.31577 0.0
C165 C 0.10545 0.987 0.2885 0.0
H166 H 0.89251 0.46895 0.21915 0.0
H167 H 0.86151 0.5579 0.16487 0.0
H168 H 0.94315 0.58737 0.19708 0.0
H169 H 0.91481 0.51106 0.29392 0.0
H170 H 0.97582 0.48153 0.30622 0.0
H171 H 0.91107 0.46878 0.28052 0.0
H172 H 0.99752 0.44764 0.24137 0.0
H173 H 0.06246 0.46043 0.26678 0.0
H174 H 0.05999 0.47564 0.2277 0.0
H175 H 0.03993 0.604 0.2305 0.0
H176 H 0.13617 0.60795 0.26526 0.0
H177 H 0.09581 0.50943 0.30013 0.0
C178 C 0.90155 0.49472 0.21424 0.0
C179 C 0.87043 0.51103 0.1894 0.0
C180 C 0.88445 0.54491 0.18389 0.0
C181 C 0.9308 0.56182 0.20204 0.0
C182 C 0.9615 0.54465 0.22599 0.0
C183 C 0.94649 0.512 0.23242 0.0
C184 C 0.98778 0.49858 0.25861 0.0
C185 C 0.94479 0.48946 0.28647 0.0
C186 C 0.02939 0.46883 0.24796 0.0
C187 C 0.03003 0.52846 0.26539 0.0
C188 C 0.01439 0.55481 0.24628 0.0
C189 C 0.0514 0.58387 0.24611 0.0
C190 C 0.10592 0.58588 0.26579 0.0
C191 C 0.12201 0.55924 0.28565 0.0
C192 C 0.08301 0.53047 0.28579 0.0
H193 H 0.59141 0.97809 0.16454 0.0
H194 H 0.70759 0.03418 0.22981 0.0
H195 H 0.63611 0.01537 0.27236 0.0
H196 H 0.44172 -0.00066 0.19539 0.0
H197 H 0.40186 0.96005 0.18903 0.0
H198 H 0.46865 0.97255 0.16459 0.0
H199 H 0.53144 0.9185 0.17787 0.0
H200 H 0.46434 0.90562 0.20214 0.0
H201 H 0.54618 0.90797 0.21769 0.0
H202 H 0.54566 0.99576 0.30658 0.0
H203 H 0.44169 0.9774 0.33012 0.0
H204 H 0.38126 0.93576 0.24218 0.0
C205 C 0.6029 0.9853 0.188 0.0
C206 C 0.65532 0.00701 0.19424 0.0
C207 C 0.66788 0.01722 0.22485 0.0
C208 C 0.62769 0.0066 0.24911 0.0
C209 C 0.57496 0.98594 0.24222 0.0
C210 C 0.56254 0.97526 0.21243 0.0
C211 C 0.49864 0.95621 0.21077 0.0
C212 C 0.44986 0.97306 0.18864 0.0
C213 C 0.51091 0.91992 0.20158 0.0
C214 C 0.47615 0.95882 0.24398 0.0
C215 C 0.52142 0.97552 0.26185 0.0
C216 C 0.51015 0.98228 0.29292 0.0
C217 C 0.45082 0.97182 0.30606 0.0
C218 C 0.40312 0.95518 0.28803 0.0
C219 C 0.4166 0.94838 0.25665 0.0
H220 H 0.41996 0.50823 0.80132 0.0
H221 H 0.35236 0.59579 0.7527 0.0
H222 H 0.44661 0.59167 0.71712 0.0
H223 H 0.59935 0.52202 0.79081 0.0
H224 H 0.61478 0.4785 0.78467 0.0
H225 H 0.54846 0.49142 0.8094 0.0
H226 H 0.46698 0.45684 0.77667 0.0
H227 H 0.53288 0.44393 0.75188 0.0
H228 H 0.46184 0.46405 0.73568 0.0
H229 H 0.54305 0.5755 0.68428 0.0
H230 H 0.62788 0.54563 0.65426 0.0
H231 H 0.6293 0.46759 0.72301 0.0
C232 C 0.42611 0.52701 0.78369 0.0
C233 C 0.37946 0.55253 0.7799 0.0
C234 C 0.38782 0.5761 0.756 0.0
C235 C 0.44138 0.57409 0.73582 0.0
C236 C 0.4859 0.54823 0.73972 0.0
C237 C 0.47868 0.525 0.76299 0.0
C238 C 0.52897 0.49756 0.76005 0.0
C239 C 0.57566 0.49738 0.78789 0.0
C240 C 0.49565 0.46361 0.75581 0.0
C241 C 0.56408 0.50842 0.73099 0.0
C242 C 0.53968 0.53811 0.72002 0.0
C243 C 0.56291 0.55235 0.69279 0.0
C244 C 0.61114 0.53531 0.67595 0.0
C245 C 0.63439 0.50411 0.68612 0.0
C246 C 0.61163 0.49105 0.71435 0.0
H247 H 0.87965 0.02901 0.71384 0.0
H248 H 0.83928 0.94074 0.65992 0.0
H249 H 0.9137 0.90864 0.69369 0.0
H250 H 0.04378 0.0165 0.72504 0.0
H251 H 0.04633 0.0317 0.76412 0.0
H252 H 0.98444 0.04656 0.73804 0.0
H253 H 0.89362 0.02845 0.77624 0.0
H254 H 0.95535 0.01364 0.80264 0.0
H255 H 0.89122 0.98619 0.78974 0.0
H256 H 0.00477 0.88878 0.72821 0.0
H257 H 0.10007 0.8817 0.7629 0.0
H258 H 0.07393 0.98187 0.79684 0.0
C259 C 0.88479 0.00282 0.70948 0.0
C260 C 0.8532 0.98743 0.68425 0.0
C261 C 0.86259 0.95305 0.67922 0.0
C262 C 0.90469 0.93462 0.69831 0.0
C263 C 0.93586 0.9508 0.72268 0.0
C264 C 0.92549 0.98403 0.7286 0.0
C265 C 0.96732 0.99609 0.7552 0.0
C266 C 0.01318 0.02436 0.74497 0.0
C267 C 0.9243 0.00671 0.78258 0.0
C268 C 0.00519 0.9648 0.76249 0.0
C269 C 0.98612 0.93889 0.74356 0.0
C270 C 0.01888 0.90857 0.74371 0.0
C271 C 0.07296 0.9048 0.76337 0.0
C272 C 0.09317 0.93105 0.78284 0.0
C273 C 0.05799 0.96113 0.78285 0.0
H274 H 0.12727 0.51899 0.77999 0.0
H275 H 0.12743 0.4413 0.84908 0.0
H276 H 0.04014 0.41193 0.82028 0.0
H277 H 0.96023 0.52362 0.76924 0.0
H278 H 0.96299 0.53051 0.72818 0.0
H279 H 0.03089 0.543 0.75195 0.0
H280 H 0.11002 0.50762 0.71874 0.0
H281 H 0.04236 0.49519 0.69461 0.0
H282 H 0.09299 0.46422 0.71285 0.0
H283 H 0.94144 0.39623 0.78858 0.0
H284 H 0.84647 0.39201 0.75334 0.0
H285 H 0.9148 0.47857 0.70345 0.0
C286 C 0.10959 0.49564 0.78888 0.0
C287 C 0.1335 0.48255 0.8169 0.0
C288 C 0.1099 0.45161 0.82753 0.0
C289 C 0.06025 0.43485 0.81138 0.0
C290 C 0.03598 0.44909 0.78436 0.0
C291 C 0.06086 0.47845 0.77284 0.0
C292 C 0.02453 0.48934 0.74411 0.0
C293 C 0.99278 0.52364 0.74866 0.0
C294 C 0.0702 0.48906 0.7159 0.0
C295 C 0.97343 0.46226 0.74195 0.0
C296 C 0.98093 0.43923 0.76534 0.0
C297 C 0.936 0.41364 0.76976 0.0
C298 C 0.88207 0.41156 0.74977 0.0
C299 C 0.8739 0.43474 0.72552 0.0
C300 C 0.92073 0.46009 0.72138 0.0
H301 H 0.40862 0.01915 0.8324 0.0
H302 H 0.2864 0.96576 0.7676 0.0
H303 H 0.35546 0.98538 0.72445 0.0
H304 H 0.45415 0.09038 0.7801 0.0
H305 H 0.53698 0.09118 0.79458 0.0
H306 H 0.47065 0.07869 0.81949 0.0
H307 H 0.53104 0.02345 0.83084 0.0
H308 H 0.59706 0.03559 0.80581 0.0
H309 H 0.55465 0.99705 0.79916 0.0
H310 H 0.44436 0.00461 0.68961 0.0
H311 H 0.54861 0.02087 0.66527 0.0
H312 H 0.6168 0.05995 0.753 0.0
C313 C 0.39525 0.01279 0.80895 0.0
C314 C 0.34183 0.99162 0.80295 0.0
C315 C 0.32685 0.98238 0.77233 0.0
C316 C 0.36562 0.99348 0.74776 0.0
C317 C 0.41938 0.01357 0.75436 0.0
C318 C 0.43426 0.02324 0.78419 0.0
C319 C 0.49931 0.04134 0.78541 0.0
C320 C 0.48967 0.07755 0.79549 0.0
C321 C 0.54838 0.02326 0.80655 0.0
C322 C 0.51969 0.03922 0.75188 0.0
C323 C 0.47228 0.02373 0.73428 0.0
C324 C 0.4815 0.01721 0.70303 0.0
C325 C 0.54107 0.02646 0.68945 0.0
C326 C 0.5911 0.0417 0.70719 0.0
C327 C 0.57955 0.04853 0.73872 0.0
H328 H 0.06011 0.53945 0.44129 0.0
H329 H 0.21221 0.47197 0.47273 0.0
H330 H 0.13988 0.45247 0.51429 0.0
H331 H 0.00087 0.56189 0.51667 0.0
H332 H 0.91589 0.56332 0.50532 0.0
H333 H 0.97913 0.57195 0.47745 0.0
H334 H 0.93309 0.52596 0.44176 0.0
H335 H 0.86966 0.51724 0.46952 0.0
H336 H 0.92323 0.4845 0.45661 0.0
H337 H 0.05252 0.44031 0.55277 0.0
H338 H 0.95456 0.43631 0.58587 0.0
H339 H 0.85792 0.51138 0.53015 0.0
C340 C 0.07813 0.52057 0.4569 0.0
C341 C 0.14204 0.50733 0.45368 0.0
C342 C 0.16362 0.48261 0.47463 0.0
C343 C 0.12286 0.47128 0.49838 0.0
C344 C 0.0604 0.48484 0.50098 0.0
C345 C 0.03792 0.5089 0.48087 0.0
C346 C 0.96859 0.51934 0.48907 0.0
C347 C 0.966 0.55632 0.49764 0.0
C348 C 0.92083 0.51127 0.46267 0.0
C349 C 0.956 0.49751 0.51697 0.0
C350 C 0.00965 0.47778 0.52336 0.0
C351 C 0.01009 0.45561 0.54801 0.0
C352 C 0.95416 0.45353 0.5667 0.0
C353 C 0.89842 0.4735 0.56068 0.0
C354 C 0.89963 0.49575 0.5354 0.0
H355 H 0.42152 0.93944 0.44376 0.0
H356 H 0.29468 0.0241 0.46062 0.0
H357 H 0.37108 0.04432 0.50025 0.0
H358 H 0.46786 0.92713 0.52398 0.0
H359 H 0.55103 0.91548 0.51502 0.0
H360 H 0.48637 0.9073 0.48774 0.0
H361 H 0.54997 0.93979 0.44582 0.0
H362 H 0.61471 0.9482 0.47298 0.0
H363 H 0.57465 0.98196 0.45327 0.0
H364 H 0.4614 0.05667 0.53664 0.0
H365 H 0.5586 0.0589 0.57021 0.0
H366 H 0.62712 0.96566 0.53166 0.0
C367 C 0.40981 0.96217 0.45587 0.0
C368 C 0.35207 0.9802 0.44901 0.0
C369 C 0.3384 0.00977 0.46546 0.0
C370 C 0.38161 0.02155 0.488 0.0
C371 C 0.43813 0.00339 0.49407 0.0
C372 C 0.45225 0.9742 0.47876 0.0
C373 C 0.51624 0.95941 0.49021 0.0
C374 C 0.50466 0.92531 0.50513 0.0
C375 C 0.56688 0.95723 0.464 0.0
C376 C 0.53596 0.98508 0.51407 0.0
C377 C 0.49016 0.01025 0.51576 0.0
C378 C 0.49756 0.03705 0.53567 0.0
C379 C 0.55312 0.03812 0.5546 0.0
C380 C 0.60058 0.01245 0.55365 0.0
C381 C 0.59171 0.98562 0.53301 0.0
H382 H 0.65635 0.48767 0.01137 0.0
H383 H 0.54725 0.4763 0.09681 0.0
H384 H 0.44512 0.49034 0.06954 0.0
H385 H 0.56425 0.55694 0.98176 0.0
H386 H 0.56647 0.54291 0.94229 0.0
H387 H 0.63181 0.53196 0.96835 0.0
H388 H 0.61294 0.4697 0.95656 0.0
H389 H 0.54771 0.48045 0.93038 0.0
H390 H 0.5324 0.45216 0.96176 0.0
H391 H 0.35518 0.50595 0.0338 0.0
H392 H 0.2813 0.52045 0.99101 0.0
H393 H 0.44687 0.52137 0.92795 0.0
C394 C 0.61098 0.4881 0.02433 0.0
C395 C 0.61 0.48089 0.05629 0.0
C396 C 0.54946 0.48166 0.07235 0.0
C397 C 0.49107 0.48969 0.05708 0.0
C398 C 0.49379 0.4968 0.0257 0.0
C399 C 0.55195 0.49595 0.0094 0.0
C400 C 0.54069 0.50429 0.97566 0.0
C401 C 0.57802 0.53591 0.96648 0.0
C402 C 0.55955 0.47489 0.95487 0.0
C403 C 0.46715 0.51001 0.97565 0.0
C404 C 0.44132 0.50561 0.00483 0.0
C405 C 0.37474 0.50942 0.01082 0.0
C406 C 0.33316 0.5177 0.9863 0.0
C407 C 0.35814 0.52205 0.95606 0.0
C408 C 0.42623 0.51828 0.95079 0.0
H409 H 0.0616 0.95224 0.93916 0.0
H410 H 0.20764 0.02678 0.96175 0.0
H411 H 0.1388 0.0463 0.00468 0.0
H412 H 0.92003 0.00249 0.95557 0.0
H413 H 0.87333 0.96898 0.97213 0.0
H414 H 0.93425 0.96044 0.94312 0.0
H415 H 0.99161 0.91916 0.98013 0.0
H416 H 0.93091 0.9276 0.00928 0.0
H417 H 0.01672 0.93297 0.01788 0.0
H418 H 0.05491 0.05823 0.04482 0.0
H419 H 0.96015 0.062 0.07985 0.0
H420 H 0.86752 0.97982 0.0319 0.0
C421 C 0.07907 0.97266 0.95314 0.0
C422 C 0.14013 0.98795 0.94703 0.0
C423 C 0.16118 0.01459 0.96593 0.0
C424 C 0.12242 0.0259 0.99041 0.0
C425 C 0.06269 0.01031 0.99584 0.0
C426 C 0.04097 0.98427 0.97782 0.0
C427 C 0.97459 0.97201 0.98872 0.0
C428 C 0.92248 0.97624 0.96338 0.0
C429 C 0.97873 0.93578 0.99966 0.0
C430 C 0.96238 0.9954 0.01552 0.0
C431 C 0.01398 0.01721 0.0192 0.0
C432 C 0.01417 0.04127 0.04222 0.0
C433 C 0.96003 0.0432 0.06202 0.0
C434 C 0.90626 0.02123 0.05868 0.0
C435 C 0.90779 0.99696 0.03511 0.0
H436 H 0.23257 0.67431 0.39704 0.0
H437 H 0.34737 0.65304 0.31467 0.0
H438 H 0.36083 0.71186 0.30513 0.0
H439 H 0.14728 0.74332 0.36664 0.0
H440 H 0.14998 0.76839 0.40104 0.0
H441 H 0.15243 0.72389 0.40404 0.0
H442 H 0.26064 0.72771 0.43507 0.0
H443 H 0.25867 0.77231 0.43207 0.0
H444 H 0.32956 0.74966 0.41892 0.0
H445 H 0.35423 0.7709 0.29991 0.0
H446 H 0.32917 0.83058 0.30078 0.0
H447 H 0.22436 0.81821 0.38709 0.0
C448 C 0.26121 0.68218 0.37733 0.0
C449 C 0.28864 0.65873 0.35671 0.0
C450 C 0.32549 0.67012 0.33098 0.0
C451 C 0.33391 0.7037 0.32525 0.0
C452 C 0.30604 0.72608 0.34556 0.0
C453 C 0.27082 0.7162 0.37122 0.0
C454 C 0.24431 0.74636 0.38825 0.0
C455 C 0.16903 0.74542 0.39008 0.0
C456 C 0.27514 0.74917 0.42049 0.0
C457 C 0.26803 0.77417 0.36726 0.0
C458 C 0.30405 0.76156 0.34299 0.0
C459 C 0.32733 0.78135 0.3191 0.0
C460 C 0.31281 0.81512 0.31973 0.0
C461 C 0.27598 0.82878 0.3442 0.0
C462 C 0.25413 0.80826 0.3686 0.0
H463 H 0.81973 0.1837 0.16987 0.0
H464 H 0.69789 0.16617 0.08981 0.0
H465 H 0.69551 0.2267 0.0791 0.0
H466 H 0.74313 0.2524 0.19655 0.0
H467 H 0.81548 0.27437 0.20889 0.0
H468 H 0.81615 0.22987 0.20714 0.0
H469 H 0.91698 0.23115 0.17076 0.0
H470 H 0.9175 0.27578 0.17284 0.0
H471 H 0.91382 0.25543 0.13587 0.0
H472 H 0.6944 0.29026 0.08226 0.0
H473 H 0.70156 0.34972 0.09655 0.0
H474 H 0.82644 0.3236 0.17396 0.0
C475 C 0.79461 0.19263 0.14946 0.0
C476 C 0.75985 0.17064 0.13033 0.0
C477 C 0.72597 0.18287 0.10425 0.0
C478 C 0.72413 0.21713 0.09815 0.0
C479 C 0.75743 0.23848 0.11811 0.0
C480 C 0.79326 0.2265 0.14285 0.0
C481 C 0.82163 0.25431 0.16196 0.0
C482 C 0.79761 0.25262 0.19561 0.0
C483 C 0.89695 0.25416 0.16024 0.0
C484 C 0.7933 0.28387 0.14523 0.0
C485 C 0.75709 0.2745 0.11975 0.0
C486 C 0.72362 0.29785 0.10187 0.0
C487 C 0.72769 0.33154 0.11023 0.0
C488 C 0.76445 0.34144 0.13641 0.0
C489 C 0.79784 0.31708 0.15381 0.0
H490 H 0.73219 0.17424 0.68592 0.0
H491 H 0.75515 0.1536 0.58835 0.0
H492 H 0.75226 0.214 0.57731 0.0
H493 H 0.61922 0.24303 0.67674 0.0
H494 H 0.65305 0.26527 0.7091 0.0
H495 H 0.65551 0.22064 0.70844 0.0
H496 H 0.7816 0.22244 0.71618 0.0
H497 H 0.77964 0.26705 0.71649 0.0
H498 H 0.8315 0.24554 0.68942 0.0
H499 H 0.75483 0.27795 0.57824 0.0
H500 H 0.74954 0.33812 0.59036 0.0
H501 H 0.72017 0.31444 0.68698 0.0
C502 C 0.73619 0.18237 0.66217 0.0
C503 C 0.74428 0.15935 0.63799 0.0
C504 C 0.74864 0.17092 0.6072 0.0
C505 C 0.74744 0.20513 0.60076 0.0
C506 C 0.74082 0.22724 0.62536 0.0
C507 C 0.73412 0.21614 0.65537 0.0
C508 C 0.72677 0.24452 0.6778 0.0
C509 C 0.65964 0.24328 0.69396 0.0
C510 C 0.78325 0.24489 0.70135 0.0
C511 C 0.73122 0.27349 0.65588 0.0
C512 C 0.73987 0.26329 0.62572 0.0
C513 C 0.74735 0.28614 0.60175 0.0
C514 C 0.74471 0.3202 0.60883 0.0
C515 C 0.73387 0.33088 0.63953 0.0
C516 C 0.72763 0.30707 0.6632 0.0
H517 H 0.21358 0.67173 0.81767 0.0
H518 H 0.25219 0.64822 0.91361 0.0
H519 H 0.25576 0.70849 0.92572 0.0
H520 H 0.32122 0.74069 0.81303 0.0
H521 H 0.2685 0.76323 0.78705 0.0
H522 H 0.26743 0.71863 0.7872 0.0
H523 H 0.14193 0.71962 0.79706 0.0
H524 H 0.14275 0.76426 0.79732 0.0
H525 H 0.11018 0.74188 0.82989 0.0
H526 H 0.25272 0.77311 0.92633 0.0
H527 H 0.25572 0.83348 0.91429 0.0
H528 H 0.22179 0.8112 0.81781 0.0
C529 C 0.2225 0.67909 0.84134 0.0
C530 C 0.23199 0.65531 0.86477 0.0
C531 C 0.24479 0.6661 0.89529 0.0
C532 C 0.24645 0.70023 0.90237 0.0
C533 C 0.23578 0.72302 0.8786 0.0
C534 C 0.22487 0.71265 0.84864 0.0
C535 C 0.21758 0.74142 0.82671 0.0
C536 C 0.27192 0.74096 0.80206 0.0
C537 C 0.14903 0.7418 0.81189 0.0
C538 C 0.22617 0.76988 0.84884 0.0
C539 C 0.23586 0.75914 0.87879 0.0
C540 C 0.24526 0.78165 0.90292 0.0
C541 C 0.24647 0.81582 0.89598 0.0
C542 C 0.23929 0.8268 0.86514 0.0
C543 C 0.22784 0.80346 0.84159 0.0
loop_
_geom_bond_atom_site_label_1
_geom_bond_atom_site_label_2
_geom_bond_distance
_geom_bond_site_symmetry_2
_ccdc_geom_bond_type
Mg0 O1 2.028 . S
Mg0 O7 1.986 . S
Mg0 O9 2.114 . S
Mg0 O10 2.251 . S
Mg0 O13 2.010 . S
O1 Mg0 2.028 . S
O1 C4 1.250 . S
O2 Mg3 2.028 . S
O2 C4 1.248 . S
Mg3 O2 2.028 . S
Mg3 O8 2.032 . S
Mg3 O10 2.079 . S
C4 O1 1.250 . S
C4 O2 1.248 . S
C5 O6 1.264 . S
C5 O13 1.249 . S
O6 C5 1.264 . S
O7 Mg0 1.986 . S
O7 C11 1.246 . S
O8 Mg3 2.032 . S
O8 C11 1.259 . S
O9 Mg0 2.114 . S
O9 C12 1.252 . S
O10 Mg0 2.251 . S
O10 Mg3 2.079 . S
O10 C12 1.273 . S
C11 O7 1.246 . S
C11 O8 1.259 . S
C12 O9 1.252 . S
C12 O10 1.273 . S
O13 Mg0 2.010 . S
O13 C5 1.249 . S
Mg14 O15 2.028 . S
Mg14 O21 1.986 . S
Mg14 O23 2.114 . S
Mg14 O24 2.251 . S
Mg14 O27 2.010 . S
O15 Mg14 2.028 . S
O15 C18 1.250 . S
O16 Mg17 2.028 . S
O16 C18 1.248 . S
Mg17 O16 2.028 . S
Mg17 O22 2.032 . S
Mg17 O24 2.079 . S
C18 O15 1.250 . S
C18 O16 1.248 . S
C19 O20 1.264 . S
C19 O27 1.249 . S
O20 C19 1.264 . S
O21 Mg14 1.986 . S
O21 C25 1.246 . S
O22 Mg17 2.032 . S
O22 C25 1.259 . S
O23 Mg14 2.114 . S
O23 C26 1.252 . S
O24 Mg14 2.251 . S
O24 Mg17 2.079 . S
O24 C26 1.273 . S
C25 O21 1.246 . S
C25 O22 1.259 . S
C26 O23 1.252 . S
C26 O24 1.273 . S
O27 Mg14 2.010 . S
O27 C19 1.249 . S
Mg28 O29 2.028 . S
Mg28 O35 1.986 . S
Mg28 O37 2.114 . S
Mg28 O38 2.251 . S
Mg28 O41 2.010 . S
O29 Mg28 2.028 . S
O29 C32 1.250 . S
O30 Mg31 2.028 . S
O30 C32 1.248 . S
Mg31 O30 2.028 . S
Mg31 O36 2.032 . S
Mg31 O38 2.079 . S
C32 O29 1.250 . S
C32 O30 1.248 . S
C33 O34 1.264 . S
C33 O41 1.249 . S
O34 C33 1.264 . S
O35 Mg28 1.986 . S
O35 C39 1.246 . S
O36 Mg31 2.032 . S
O36 C39 1.259 . S
O37 Mg28 2.114 . S
O37 C40 1.252 . S
O38 Mg28 2.251 . S
O38 Mg31 2.079 . S
O38 C40 1.273 . S
C39 O35 1.246 . S
C39 O36 1.259 . S
C40 O37 1.252 . S
C40 O38 1.273 . S
O41 Mg28 2.010 . S
O41 C33 1.249 . S
Mg42 O43 2.028 . S
Mg42 O49 1.986 . S
Mg42 O51 2.114 . S
Mg42 O52 2.251 . S
Mg42 O55 2.010 . S
O43 Mg42 2.028 . S
O43 C46 1.250 . S
O44 Mg45 2.028 . S
O44 C46 1.248 . S
Mg45 O44 2.028 . S
Mg45 O50 2.032 . S
Mg45 O52 2.079 . S
C46 O43 1.250 . S
C46 O44 1.248 . S
C47 O48 1.264 . S
C47 O55 1.249 . S
O48 C47 1.264 . S
O49 Mg42 1.986 . S
O49 C53 1.246 . S
O50 Mg45 2.032 . S
O50 C53 1.259 . S
O51 Mg42 2.114 . S
O51 C54 1.252 . S
O52 Mg42 2.251 . S
O52 Mg45 2.079 . S
O52 C54 1.273 . S
C53 O49 1.246 . S
C53 O50 1.259 . S
C54 O51 1.252 . S
C54 O52 1.273 . S
O55 Mg42 2.010 . S
O55 C47 1.249 . S
Mg56 O57 2.028 . S
Mg56 O63 1.986 . S
Mg56 O65 2.114 . S
Mg56 O66 2.251 . S
Mg56 O69 2.010 . S
O57 Mg56 2.028 . S
O57 C60 1.250 . S
O58 Mg59 2.028 . S
O58 C60 1.248 . S
Mg59 O58 2.028 . S
Mg59 O64 2.032 . S
Mg59 O66 2.079 . S
C60 O57 1.250 . S
C60 O58 1.248 . S
C61 O62 1.264 . S
C61 O69 1.249 . S
O62 C61 1.264 . S
O63 Mg56 1.986 . S
O63 C67 1.246 . S
O64 Mg59 2.032 . S
O64 C67 1.259 . S
O65 Mg56 2.114 . S
O65 C68 1.252 . S
O66 Mg56 2.251 . S
O66 Mg59 2.079 . S
O66 C68 1.273 . S
C67 O63 1.246 . S
C67 O64 1.259 . S
C68 O65 1.252 . S
C68 O66 1.273 . S
O69 Mg56 2.010 . S
O69 C61 1.249 . S
Mg70 O71 2.028 . S
Mg70 O77 1.986 . S
Mg70 O79 2.114 . S
Mg70 O80 2.251 . S
Mg70 O83 2.010 . S
O71 Mg70 2.028 . S
O71 C74 1.250 . S
O72 Mg73 2.028 . S
O72 C74 1.248 . S
Mg73 O72 2.028 . S
Mg73 O78 2.032 . S
Mg73 O80 2.079 . S
C74 O71 1.250 . S
C74 O72 1.248 . S
C75 O76 1.264 . S
C75 O83 1.249 . S
O76 C75 1.264 . S
O77 Mg70 1.986 . S
O77 C81 1.246 . S
O78 Mg73 2.032 . S
O78 C81 1.259 . S
O79 Mg70 2.114 . S
O79 C82 1.252 . S
O80 Mg70 2.251 . S
O80 Mg73 2.079 . S
O80 C82 1.273 . S
C81 O77 1.246 . S
C81 O78 1.259 . S
C82 O79 1.252 . S
C82 O80 1.273 . S
O83 Mg70 2.010 . S
O83 C75 1.249 . S
Mg84 O85 2.028 . S
Mg84 O91 1.986 . S
Mg84 O93 2.114 . S
Mg84 O94 2.251 . S
Mg84 O97 2.010 . S
O85 Mg84 2.028 . S
O85 C88 1.250 . S
O86 Mg87 2.028 . S
O86 C88 1.248 . S
Mg87 O86 2.028 . S
Mg87 O92 2.032 . S
Mg87 O94 2.079 . S
C88 O85 1.250 . S
C88 O86 1.248 . S
C89 O90 1.264 . S
C89 O97 1.249 . S
O90 C89 1.264 . S
O91 Mg84 1.986 . S
O91 C95 1.246 . S
O92 Mg87 2.032 . S
O92 C95 1.259 . S
O93 Mg84 2.114 . S
O93 C96 1.252 . S
O94 Mg84 2.251 . S
O94 Mg87 2.079 . S
O94 C96 1.273 . S
C95 O91 1.246 . S
C95 O92 1.259 . S
C96 O93 1.252 . S
C96 O94 1.273 . S
O97 Mg84 2.010 . S
O97 C89 1.249 . S
Mg98 O99 2.028 . S
Mg98 O105 1.986 . S
Mg98 O107 2.114 . S
Mg98 O108 2.251 . S
Mg98 O111 2.010 . S
O99 Mg98 2.028 . S
O99 C102 1.250 . S
O100 Mg101 2.028 . S
O100 C102 1.248 . S
Mg101 O100 2.028 . S
Mg101 O106 2.032 . S
Mg101 O108 2.079 . S
C102 O99 1.250 . S
C102 O100 1.248 . S
C103 O104 1.264 . S
C103 O111 1.249 . S
O104 C103 1.264 . S
O105 Mg98 1.986 . S
O105 C109 1.246 . S
O106 Mg101 2.032 . S
O106 C109 1.259 . S
O107 Mg98 2.114 . S
O107 C110 1.252 . S
O108 Mg98 2.251 . S
O108 Mg101 2.079 . S
O108 C110 1.273 . S
C109 O105 1.246 . S
C109 O106 1.259 . S
C110 O107 1.252 . S
C110 O108 1.273 . S
O111 Mg98 2.010 . S
O111 C103 1.249 . S
H112 C124 0.930 . S
H113 C126 0.930 . S
H114 C127 0.930 . S
H115 C131 0.959 . S
H116 C131 0.959 . S
H117 C131 0.961 . S
H118 C132 0.960 . S
H119 C132 0.961 . S
H120 C132 0.959 . S
H121 C135 0.929 . S
H122 C136 0.931 . S
H123 C138 0.930 . S
C124 H112 0.930 . S
C124 C125 1.399 . S
C124 C129 1.399 . S
C125 C124 1.399 . S
C125 C126 1.376 . S
C126 H113 0.930 . S
C126 C125 1.376 . S
C126 C127 1.388 . S
C127 H114 0.930 . S
C127 C126 1.388 . S
C127 C128 1.390 . S
C128 C127 1.390 . S
C128 C129 1.394 . S
C128 C134 1.465 . S
C129 C124 1.399 . S
C129 C128 1.394 . S
C129 C130 1.516 . S
C130 C129 1.516 . S
C130 C131 1.502 . S
C130 C132 1.561 . S
C130 C133 1.526 . S
C131 H115 0.959 . S
C131 H116 0.959 . S
C131 H117 0.961 . S
C131 C130 1.502 . S
C132 H118 0.960 . S
C132 H119 0.961 . S
C132 H120 0.959 . S
C132 C130 1.561 . S
C133 C130 1.526 . S
C133 C134 1.396 . S
C133 C138 1.390 . S
C134 C128 1.465 . S
C134 C133 1.396 . S
C134 C135 1.399 . S
C135 H121 0.929 . S
C135 C134 1.399 . S
C135 C136 1.385 . S
C136 H122 0.931 . S
C136 C135 1.385 . S
C136 C137 1.389 . S
C137 C136 1.389 . S
C137 C138 1.387 . S
C138 H123 0.930 . S
C138 C133 1.390 . S
C138 C137 1.387 . S
H139 C151 0.930 . S
H140 C153 0.930 . S
H141 C154 0.930 . S
H142 C158 0.959 . S
H143 C158 0.959 . S
H144 C158 0.961 . S
H145 C159 0.960 . S
H146 C159 0.961 1_565 S
H147 C159 0.959 . S
H148 C162 0.929 . S
H149 C163 0.931 . S
H150 C165 0.930 . S
C151 H139 0.930 . S
C151 C152 1.399 1_455 S
C151 C156 1.399 . S
C152 C151 1.399 1_655 S
C152 C153 1.376 . S
C153 H140 0.930 . S
C153 C152 1.376 . S
C153 C154 1.388 1_655 S
C154 H141 0.930 . S
C154 C153 1.388 1_455 S
C154 C155 1.390 . S
C155 C154 1.390 . S
C155 C156 1.394 . S
C155 C161 1.465 . S
C156 C151 1.399 . S
C156 C155 1.394 . S
C156 C157 1.516 1_545 S
C157 C156 1.516 1_565 S
C157 C158 1.502 . S
C157 C159 1.561 1_565 S
C157 C160 1.526 . S
C158 H142 0.959 . S
C158 H143 0.959 . S
C158 H144 0.961 . S
C158 C157 1.502 . S
C159 H145 0.960 . S
C159 H146 0.961 1_545 S
C159 H147 0.959 . S
C159 C157 1.561 1_545 S
C160 C157 1.526 . S
C160 C161 1.396 1_565 S
C160 C165 1.390 . S
C161 C155 1.465 . S
C161 C160 1.396 1_545 S
C161 C162 1.399 . S
C162 H148 0.929 . S
C162 C161 1.399 . S
C162 C163 1.385 . S
C163 H149 0.931 . S
C163 C162 1.385 . S
C163 C164 1.389 1_545 S
C164 C163 1.389 1_565 S
C164 C165 1.387 . S
C165 H150 0.930 . S
C165 C160 1.390 . S
C165 C164 1.387 . S
H166 C178 0.930 . S
H167 C180 0.930 . S
H168 C181 0.930 . S
H169 C185 0.959 . S
H170 C185 0.959 . S
H171 C185 0.961 . S
H172 C186 0.960 . S
H173 C186 0.961 . S
H174 C186 0.959 . S
H175 C189 0.929 . S
H176 C190 0.931 . S
H177 C192 0.930 . S
C178 H166 0.930 . S
C178 C179 1.399 . S
C178 C183 1.399 . S
C179 C178 1.399 . S
C179 C180 1.376 . S
C180 H167 0.930 . S
C180 C179 1.376 . S
C180 C181 1.388 . S
C181 H168 0.930 . S
C181 C180 1.388 . S
C181 C182 1.390 . S
C182 C181 1.390 . S
C182 C183 1.394 . S
C182 C188 1.465 . S
C183 C178 1.399 . S
C183 C182 1.394 . S
C183 C184 1.516 . S
C184 C183 1.516 . S
C184 C185 1.502 . S
C184 C186 1.561 . S
C184 C187 1.526 . S
C185 H169 0.959 . S
C185 H170 0.959 . S
C185 H171 0.961 . S
C185 C184 1.502 . S
C186 H172 0.960 . S
C186 H173 0.961 . S
C186 H174 0.959 . S
C186 C184 1.561 . S
C187 C184 1.526 . S
C187 C188 1.396 . S
C187 C192 1.390 . S
C188 C182 1.465 . S
C188 C187 1.396 . S
C188 C189 1.399 . S
C189 H175 0.929 . S
C189 C188 1.399 . S
C189 C190 1.385 1_655 S
C190 H176 0.931 . S
C190 C189 1.385 1_455 S
C190 C191 1.389 . S
C191 C190 1.389 . S
C191 C192 1.387 1_455 S
C192 H177 0.930 . S
C192 C187 1.390 . S
C192 C191 1.387 1_655 S
H193 C205 0.930 . S
H194 C207 0.930 . S
H195 C208 0.930 . S
H196 C212 0.959 . S
H197 C212 0.959 . S
H198 C212 0.961 . S
H199 C213 0.960 . S
H200 C213 0.961 . S
H201 C213 0.959 . S
H202 C216 0.929 . S
H203 C217 0.923 1_545 S
H204 C219 0.930 . S
C205 H193 0.930 . S
C205 C206 1.399 1_565 S
C205 C210 1.399 . S
C206 C205 1.399 1_545 S
C206 C207 1.376 . S
C207 H194 0.930 . S
C207 C206 1.376 . S
C207 C208 1.388 . S
C208 H195 0.930 . S
C208 C207 1.388 . S
C208 C209 1.390 . S
C209 C208 1.390 . S
C209 C210 1.394 1_545 S
C209 C215 1.465 1_545 S
C210 C205 1.399 . S
C210 C209 1.394 1_565 S
C210 C211 1.516 . S
C211 C210 1.516 . S
C211 C212 1.502 . S
C211 C213 1.561 . S
C211 C214 1.526 . S
C212 H196 0.959 . S
C212 H197 0.959 . S
C212 H198 0.961 . S
C212 C211 1.502 . S
C213 H199 0.960 . S
C213 H200 0.961 . S
C213 H201 0.959 . S
C213 C211 1.561 . S
C214 C211 1.526 . S
C214 C215 1.396 . S
C214 C219 1.390 . S
C215 C209 1.465 1_565 S
C215 C214 1.396 . S
C215 C216 1.399 1_565 S
C216 H202 0.929 . S
C216 C215 1.399 1_545 S
C216 C217 1.385 1_545 S
C217 H203 0.923 1_565 S
C217 C216 1.385 1_565 S
C217 C218 1.389 . S
C218 C217 1.389 . S
C218 C219 1.387 . S
C219 H204 0.930 . S
C219 C214 1.390 . S
C219 C218 1.387 . S
H220 C232 0.930 . S
H221 C234 0.930 . S
H222 C235 0.930 . S
H223 C239 0.959 . S
H224 C239 0.959 . S
H225 C239 0.961 . S
H226 C240 0.960 . S
H227 C240 0.961 . S
H228 C240 0.959 . S
H229 C243 0.929 . S
H230 C244 0.931 . S
H231 C246 0.930 . S
C232 H220 0.930 . S
C232 C233 1.399 . S
C232 C237 1.399 . S
C233 C232 1.399 . S
C233 C234 1.376 . S
C234 H221 0.930 . S
C234 C233 1.376 . S
C234 C235 1.388 . S
C235 H222 0.930 . S
C235 C234 1.388 . S
C235 C236 1.390 . S
C236 C235 1.390 . S
C236 C237 1.394 . S
C236 C242 1.465 . S
C237 C232 1.399 . S
C237 C236 1.394 . S
C237 C238 1.516 . S
C238 C237 1.516 . S
C238 C239 1.502 . S
C238 C240 1.561 . S
C238 C241 1.526 . S
C239 H223 0.959 . S
C239 H224 0.959 . S
C239 H225 0.961 . S
C239 C238 1.502 . S
C240 H226 0.960 . S
C240 H227 0.961 . S
C240 H228 0.959 . S
C240 C238 1.561 . S
C241 C238 1.526 . S
C241 C242 1.396 . S
C241 C246 1.390 . S
C242 C236 1.465 . S
C242 C241 1.396 . S
C242 C243 1.399 . S
C243 H229 0.929 . S
C243 C242 1.399 . S
C243 C244 1.385 . S
C244 H230 0.931 . S
C244 C243 1.385 . S
C244 C245 1.389 . S
C245 C244 1.389 . S
C245 C246 1.387 . S
C246 H231 0.930 . S
C246 C241 1.390 . S
C246 C245 1.387 . S
H247 C259 0.930 . S
H248 C261 0.930 . S
H249 C262 0.930 . S
H250 C266 0.959 . S
H251 C266 0.959 . S
H252 C266 0.961 . S
H253 C267 0.960 . S
H254 C267 0.961 . S
H255 C267 0.959 . S
H256 C270 0.929 1_455 S
H257 C271 0.931 . S
H258 C273 0.930 . S
C259 H247 0.930 . S
C259 C260 1.399 . S
C259 C264 1.399 . S
C260 C259 1.399 . S
C260 C261 1.376 1_545 S
C261 H248 0.930 . S
C261 C260 1.376 1_565 S
C261 C262 1.388 . S
C262 H249 0.930 . S
C262 C261 1.388 . S
C262 C263 1.390 . S
C263 C262 1.390 . S
C263 C264 1.394 1_565 S
C263 C269 1.465 . S
C264 C259 1.399 . S
C264 C263 1.394 1_545 S
C264 C265 1.516 . S
C265 C264 1.516 . S
C265 C266 1.502 . S
C265 C267 1.561 1_545 S
C265 C268 1.526 1_545 S
C266 H250 0.959 . S
C266 H251 0.959 . S
C266 H252 0.961 . S
C266 C265 1.502 . S
C267 H253 0.960 . S
C267 H254 0.961 . S
C267 H255 0.959 . S
C267 C265 1.561 1_565 S
C268 C265 1.526 1_565 S
C268 C269 1.396 . S
C268 C273 1.390 . S
C269 C263 1.465 . S
C269 C268 1.396 . S
C269 C270 1.399 . S
C270 H256 0.929 1_655 S
C270 C269 1.399 . S
C270 C271 1.385 1_655 S
C271 H257 0.931 . S
C271 C270 1.385 1_455 S
C271 C272 1.389 . S
C272 C271 1.389 . S
C272 C273 1.387 1_455 S
C273 H258 0.930 . S
C273 C268 1.390 . S
C273 C272 1.387 1_655 S
H274 C286 0.930 . S
H275 C288 0.930 . S
H276 C289 0.930 . S
H277 C293 0.959 . S
H278 C293 0.959 . S
H279 C293 0.961 . S
H280 C294 0.960 . S
H281 C294 0.961 . S
H282 C294 0.959 . S
H283 C297 0.929 . S
H284 C298 0.931 . S
H285 C300 0.930 . S
C286 H274 0.930 . S
C286 C287 1.399 . S
C286 C291 1.399 . S
C287 C286 1.399 . S
C287 C288 1.376 . S
C288 H275 0.930 . S
C288 C287 1.376 . S
C288 C289 1.388 . S
C289 H276 0.930 . S
C289 C288 1.388 . S
C289 C290 1.390 . S
C290 C289 1.390 . S
C290 C291 1.394 . S
C290 C296 1.465 . S
C291 C286 1.399 . S
C291 C290 1.394 . S
C291 C292 1.516 . S
C292 C291 1.516 . S
C292 C293 1.502 . S
C292 C294 1.561 . S
C292 C295 1.526 . S
C293 H277 0.959 . S
C293 H278 0.959 . S
C293 H279 0.961 . S
C293 C292 1.502 . S
C294 H280 0.960 . S
C294 H281 0.961 . S
C294 H282 0.959 . S
C294 C292 1.561 . S
C295 C292 1.526 . S
C295 C296 1.396 . S
C295 C300 1.390 . S
C296 C290 1.465 . S
C296 C295 1.396 . S
C296 C297 1.399 . S
C297 H283 0.929 . S
C297 C296 1.399 . S
C297 C298 1.385 1_455 S
C298 H284 0.931 . S
C298 C297 1.385 1_655 S
C298 C299 1.389 . S
C299 C298 1.389 . S
C299 C300 1.387 1_655 S
C300 H285 0.930 . S
C300 C295 1.390 . S
C300 C299 1.387 1_455 S
H301 C313 0.930 . S
H302 C315 0.930 . S
H303 C316 0.930 . S
H304 C320 0.959 . S
H305 C320 0.959 . S
H306 C320 0.961 . S
H307 C321 0.960 . S
H308 C321 0.961 . S
H309 C321 0.959 . S
H310 C324 0.929 . S
H311 C325 0.931 . S
H312 C327 0.930 . S
C313 H301 0.930 . S
C313 C314 1.399 1_545 S
C313 C318 1.399 . S
C314 C313 1.399 1_565 S
C314 C315 1.376 . S
C315 H302 0.930 . S
C315 C314 1.376 . S
C315 C316 1.388 . S
C316 H303 0.930 . S
C316 C315 1.388 . S
C316 C317 1.390 . S
C317 C316 1.390 . S
C317 C318 1.394 1_565 S
C317 C323 1.465 1_565 S
C318 C313 1.399 . S
C318 C317 1.394 1_545 S
C318 C319 1.516 . S
C319 C318 1.516 . S
C319 C320 1.502 . S
C319 C321 1.561 . S
C319 C322 1.526 . S
C320 H304 0.959 . S
C320 H305 0.959 . S
C320 H306 0.961 . S
C320 C319 1.502 . S
C321 H307 0.960 . S
C321 H308 0.961 . S
C321 H309 0.959 . S
C321 C319 1.561 . S
C322 C319 1.526 . S
C322 C323 1.396 . S
C322 C327 1.390 . S
C323 C317 1.465 1_545 S
C323 C322 1.396 . S
C323 C324 1.399 1_545 S
C324 H310 0.929 . S
C324 C323 1.399 1_565 S
C324 C325 1.385 1_565 S
C325 H311 0.931 . S
C325 C324 1.385 1_545 S
C325 C326 1.389 . S
C326 C325 1.389 . S
C326 C327 1.387 . S
C327 H312 0.930 . S
C327 C322 1.390 . S
C327 C326 1.387 . S
H328 C340 0.930 1_655 S
H329 C342 0.930 . S
H330 C343 0.930 . S
H331 C347 0.959 . S
H332 C347 0.959 . S
H333 C347 0.961 . S
H334 C348 0.960 . S
H335 C348 0.961 . S
H336 C348 0.959 . S
H337 C351 0.929 . S
H338 C352 0.931 . S
H339 C354 0.930 . S
C340 H328 0.930 1_455 S
C340 C341 1.399 . S
C340 C345 1.403 . S
C341 C340 1.399 . S
C341 C342 1.376 . S
C342 H329 0.930 . S
C342 C341 1.376 . S
C342 C343 1.388 . S
C343 H330 0.930 . S
C343 C342 1.388 . S
C343 C344 1.390 . S
C344 C343 1.390 . S
C344 C345 1.402 . S
C344 C350 1.465 . S
C345 C340 1.403 . S
C345 C344 1.402 . S
C345 C346 1.505 1_455 S
C346 C345 1.505 1_655 S
C346 C347 1.502 . S
C346 C348 1.561 . S
C346 C349 1.526 . S
C347 H331 0.959 . S
C347 H332 0.959 . S
C347 H333 0.961 . S
C347 C346 1.502 . S
C348 H334 0.960 . S
C348 H335 0.961 . S
C348 H336 0.959 . S
C348 C346 1.561 . S
C349 C346 1.526 . S
C349 C350 1.396 1_655 S
C349 C354 1.390 . S
C350 C344 1.465 . S
C350 C349 1.396 1_455 S
C350 C351 1.399 . S
C351 H337 0.929 . S
C351 C350 1.399 . S
C351 C352 1.385 1_455 S
C352 H338 0.931 . S
C352 C351 1.385 1_655 S
C352 C353 1.389 . S
C353 C352 1.389 . S
C353 C354 1.387 . S
C354 H339 0.930 . S
C354 C349 1.390 . S
C354 C353 1.387 . S
H355 C367 0.930 . S
H356 C369 0.930 . S
H357 C370 0.930 . S
H358 C374 0.959 . S
H359 C374 0.959 . S
H360 C374 0.961 . S
H361 C375 0.960 . S
H362 C375 0.961 . S
H363 C375 0.959 . S
H364 C378 0.929 . S
H365 C379 0.931 . S
H366 C381 0.930 . S
C367 H355 0.930 . S
C367 C368 1.399 . S
C367 C372 1.399 . S
C368 C367 1.399 . S
C368 C369 1.376 1_565 S
C369 H356 0.930 . S
C369 C368 1.376 1_545 S
C369 C370 1.388 . S
C370 H357 0.930 . S
C370 C369 1.388 . S
C370 C371 1.390 . S
C371 C370 1.390 . S
C371 C372 1.394 1_545 S
C371 C377 1.465 . S
C372 C367 1.399 . S
C372 C371 1.394 1_565 S
C372 C373 1.516 . S
C373 C372 1.516 . S
C373 C374 1.502 . S
C373 C375 1.561 . S
C373 C376 1.526 . S
C374 H358 0.959 . S
C374 H359 0.959 . S
C374 H360 0.961 . S
C374 C373 1.502 . S
C375 H361 0.960 . S
C375 H362 0.961 . S
C375 H363 0.959 . S
C375 C373 1.561 . S
C376 C373 1.526 . S
C376 C377 1.396 1_565 S
C376 C381 1.390 . S
C377 C371 1.465 . S
C377 C376 1.396 1_545 S
C377 C378 1.399 . S
C378 H364 0.929 . S
C378 C377 1.399 . S
C378 C379 1.385 . S
C379 H365 0.931 . S
C379 C378 1.385 . S
C379 C380 1.389 . S
C380 C379 1.389 . S
C380 C381 1.387 1_545 S
C381 H366 0.930 . S
C381 C376 1.390 . S
C381 C380 1.387 1_565 S
H382 C394 0.930 . S
H383 C396 0.930 . S
H384 C397 0.930 . S
H385 C401 0.959 . S
H386 C401 0.959 . S
H387 C401 0.961 . S
H388 C402 0.960 . S
H389 C402 0.961 . S
H390 C402 0.959 . S
H391 C405 0.929 1_554 S
H392 C406 0.931 . S
H393 C408 0.930 . S
C394 H382 0.930 . S
C394 C395 1.399 . S
C394 C399 1.399 . S
C395 C394 1.399 . S
C395 C396 1.376 . S
C396 H383 0.930 . S
C396 C395 1.376 . S
C396 C397 1.388 . S
C397 H384 0.930 . S
C397 C396 1.388 . S
C397 C398 1.390 . S
C398 C397 1.390 . S
C398 C399 1.394 . S
C398 C404 1.465 1_554 S
C399 C394 1.399 . S
C399 C398 1.394 . S
C399 C400 1.516 1_554 S
C400 C399 1.516 1_556 S
C400 C401 1.502 . S
C400 C402 1.561 . S
C400 C403 1.526 . S
C401 H385 0.959 . S
C401 H386 0.959 . S
C401 H387 0.961 . S
C401 C400 1.502 . S
C402 H388 0.960 . S
C402 H389 0.961 . S
C402 H390 0.959 . S
C402 C400 1.561 . S
C403 C400 1.526 . S
C403 C404 1.396 . S
C403 C408 1.390 . S
C404 C398 1.465 1_556 S
C404 C403 1.396 . S
C404 C405 1.399 . S
C405 H391 0.929 1_556 S
C405 C404 1.399 . S
C405 C406 1.385 . S
C406 H392 0.931 . S
C406 C405 1.385 . S
C406 C407 1.389 . S
C407 C406 1.389 . S
C407 C408 1.387 . S
C408 H393 0.930 . S
C408 C403 1.390 . S
C408 C407 1.387 . S
H409 C421 0.930 . S
H410 C423 0.930 . S
H411 C424 0.930 . S
H412 C428 0.959 . S
H413 C428 0.959 1_554 S
H414 C428 0.961 . S
H415 C429 0.960 . S
H416 C429 0.961 1_655 S
H417 C429 0.959 . S
H418 C432 0.929 1_455 S
H419 C433 0.931 . S
H420 C435 0.930 . S
C421 H409 0.930 . S
C421 C422 1.399 . S
C421 C426 1.399 . S
C422 C421 1.399 . S
C422 C423 1.376 1_565 S
C423 H410 0.930 . S
C423 C422 1.376 1_545 S
C423 C424 1.388 . S
C424 H411 0.930 . S
C424 C423 1.388 . S
C424 C425 1.390 . S
C425 C424 1.390 . S
C425 C426 1.394 1_545 S
C425 C431 1.464 1_556 S
C426 C421 1.399 . S
C426 C425 1.394 1_565 S
C426 C427 1.516 1_456 S
C427 C426 1.516 1_654 S
C427 C428 1.502 1_554 S
C427 C429 1.561 1_655 S
C427 C430 1.526 . S
C428 H412 0.959 . S
C428 H413 0.959 1_556 S
C428 H414 0.961 . S
C428 C427 1.502 1_556 S
C429 H415 0.960 . S
C429 H416 0.961 1_455 S
C429 H417 0.959 . S
C429 C427 1.561 1_455 S
C430 C427 1.526 . S
C430 C431 1.397 1_665 S
C430 C435 1.390 . S
C431 C425 1.464 1_554 S
C431 C430 1.397 1_445 S
C431 C432 1.399 1_455 S
C432 H418 0.929 1_655 S
C432 C431 1.399 1_655 S
C432 C433 1.385 . S
C433 H419 0.931 . S
C433 C432 1.385 . S
C433 C434 1.389 . S
C434 C433 1.389 . S
C434 C435 1.387 1_545 S
C435 H420 0.930 . S
C435 C430 1.390 . S
C435 C434 1.387 1_565 S
H436 C448 0.930 . S
H437 C450 0.930 . S
H438 C451 0.930 . S
H439 C455 0.959 . S
H440 C455 0.959 . S
H441 C455 0.961 . S
H442 C456 0.960 . S
H443 C456 0.961 . S
H444 C456 0.959 . S
H445 C459 0.929 . S
H446 C460 0.931 . S
H447 C462 0.930 . S
C448 H436 0.930 . S
C448 C449 1.399 . S
C448 C453 1.399 . S
C449 C448 1.399 . S
C449 C450 1.376 . S
C450 H437 0.930 . S
C450 C449 1.376 . S
C450 C451 1.388 . S
C451 H438 0.930 . S
C451 C450 1.388 . S
C451 C452 1.390 . S
C452 C451 1.390 . S
C452 C453 1.394 . S
C452 C458 1.465 . S
C453 C448 1.399 . S
C453 C452 1.394 . S
C453 C454 1.516 . S
C454 C453 1.516 . S
C454 C455 1.502 . S
C454 C456 1.561 . S
C454 C457 1.526 . S
C455 H439 0.959 . S
C455 H440 0.959 . S
C455 H441 0.961 . S
C455 C454 1.502 . S
C456 H442 0.960 . S
C456 H443 0.961 . S
C456 H444 0.959 . S
C456 C454 1.561 . S
C457 C454 1.526 . S
C457 C458 1.396 . S
C457 C462 1.390 . S
C458 C452 1.465 . S
C458 C457 1.396 . S
C458 C459 1.399 . S
C459 H445 0.929 . S
C459 C458 1.399 . S
C459 C460 1.385 . S
C460 H446 0.931 . S
C460 C459 1.385 . S
C460 C461 1.389 . S
C461 C460 1.389 . S
C461 C462 1.387 . S
C462 H447 0.930 . S
C462 C457 1.390 . S
C462 C461 1.387 . S
H463 C475 0.930 . S
H464 C477 0.930 . S
H465 C478 0.930 . S
H466 C482 0.959 . S
H467 C482 0.959 . S
H468 C482 0.961 . S
H469 C483 0.960 . S
H470 C483 0.961 . S
H471 C483 0.959 . S
H472 C486 0.929 . S
H473 C487 0.931 . S
H474 C489 0.930 . S
C475 H463 0.930 . S
C475 C476 1.399 . S
C475 C480 1.399 . S
C476 C475 1.399 . S
C476 C477 1.376 . S
C477 H464 0.930 . S
C477 C476 1.376 . S
C477 C478 1.388 . S
C478 H465 0.930 . S
C478 C477 1.388 . S
C478 C479 1.390 . S
C479 C478 1.390 . S
C479 C480 1.394 . S
C479 C485 1.465 . S
C480 C475 1.399 . S
C480 C479 1.394 . S
C480 C481 1.516 . S
C481 C480 1.516 . S
C481 C482 1.502 . S
C481 C483 1.561 . S
C481 C484 1.526 . S
C482 H466 0.959 . S
C482 H467 0.959 . S
C482 H468 0.961 . S
C482 C481 1.502 . S
C483 H469 0.960 . S
C483 H470 0.961 . S
C483 H471 0.959 . S
C483 C481 1.561 . S
C484 C481 1.526 . S
C484 C485 1.396 . S
C484 C489 1.390 . S
C485 C479 1.465 . S
C485 C484 1.396 . S
C485 C486 1.399 . S
C486 H472 0.929 . S
C486 C485 1.399 . S
C486 C487 1.385 . S
C487 H473 0.931 . S
C487 C486 1.385 . S
C487 C488 1.389 . S
C488 C487 1.389 . S
C488 C489 1.387 . S
C489 H474 0.930 . S
C489 C484 1.390 . S
C489 C488 1.387 . S
H490 C502 0.930 . S
H491 C504 0.930 . S
H492 C505 0.930 . S
H493 C509 0.959 . S
H494 C509 0.959 . S
H495 C509 0.961 . S
H496 C510 0.960 . S
H497 C510 0.961 . S
H498 C510 0.959 . S
H499 C513 0.929 . S
H500 C514 0.931 . S
H501 C516 0.930 . S
C502 H490 0.930 . S
C502 C503 1.399 . S
C502 C507 1.399 . S
C503 C502 1.399 . S
C503 C504 1.376 . S
C504 H491 0.930 . S
C504 C503 1.376 . S
C504 C505 1.388 . S
C505 H492 0.930 . S
C505 C504 1.388 . S
C505 C506 1.390 . S
C506 C505 1.390 . S
C506 C507 1.394 . S
C506 C512 1.465 . S
C507 C502 1.399 . S
C507 C506 1.394 . S
C507 C508 1.516 . S
C508 C507 1.516 . S
C508 C509 1.502 . S
C508 C510 1.561 . S
C508 C511 1.526 . S
C509 H493 0.959 . S
C509 H494 0.959 . S
C509 H495 0.961 . S
C509 C508 1.502 . S
C510 H496 0.960 . S
C510 H497 0.961 . S
C510 H498 0.959 . S
C510 C508 1.561 . S
C511 C508 1.526 . S
C511 C512 1.396 . S
C511 C516 1.390 . S
C512 C506 1.465 . S
C512 C511 1.396 . S
C512 C513 1.399 . S
C513 H499 0.929 . S
C513 C512 1.399 . S
C513 C514 1.385 . S
C514 H500 0.931 . S
C514 C513 1.385 . S
C514 C515 1.389 . S
C515 C514 1.389 . S
C515 C516 1.387 . S
C516 H501 0.930 . S
C516 C511 1.390 . S
C516 C515 1.387 . S
H517 C529 0.930 . S
H518 C531 0.930 . S
H519 C532 0.930 . S
H520 C536 0.959 . S
H521 C536 0.959 . S
H522 C536 0.961 . S
H523 C537 0.960 . S
H524 C537 0.961 . S
H525 C537 0.959 . S
H526 C540 0.929 . S
H527 C541 0.931 . S
H528 C543 0.930 . S
C529 H517 0.930 . S
C529 C530 1.399 . S
C529 C534 1.399 . S
C530 C529 1.399 . S
C530 C531 1.376 . S
C531 H518 0.930 . S
C531 C530 1.376 . S
C531 C532 1.388 . S
C532 H519 0.930 . S
C532 C531 1.388 . S
C532 C533 1.390 . S
C533 C532 1.390 . S
C533 C534 1.394 . S
C533 C539 1.465 . S
C534 C529 1.399 . S
C534 C533 1.394 . S
C534 C535 1.516 . S
C535 C534 1.516 . S
C535 C536 1.502 . S
C535 C537 1.561 . S
C535 C538 1.526 . S
C536 H520 0.959 . S
C536 H521 0.959 . S
C536 H522 0.961 . S
C536 C535 1.502 . S
C537 H523 0.960 . S
C537 H524 0.961 . S
C537 H525 0.959 . S
C537 C535 1.561 . S
C538 C535 1.526 . S
C538 C539 1.396 . S
C538 C543 1.390 . S
C539 C533 1.465 . S
C539 C538 1.396 . S
C539 C540 1.399 . S
C540 H526 0.929 . S
C540 C539 1.399 . S
C540 C541 1.385 . S
C541 H527 0.931 . S
C541 C540 1.385 . S
C541 C542 1.389 . S
C542 C541 1.389 . S
C542 C543 1.387 . S
C543 H528 0.930 . S
C543 C538 1.390 . S
C543 C542 1.387 . S
C125 C12 1.128 . S
C137 C32 1.162 . S
C152 C46 1.100 . S
C164 C26 1.166 . S
C179 C40 1.167 . S
C191 C4 1.085 . S
C206 C54 1.130 . S
C218 C18 1.145 . S
C233 C88 1.084 . S
C245 C68 1.164 . S
C260 C82 1.164 . S
C272 C102 1.086 . S
C287 C96 1.161 . S
C299 C60 1.092 . S
C314 C110 1.140 . S
C326 C74 1.141 . S
C341 C5 1.355 . S
C353 C61 1.411 . S
C368 C19 1.433 . S
C380 C75 1.326 . S
C395 C33 1.436 . S
C407 C89 1.311 . S
C422 C103 1.349 . S
C434 C47 1.382 . S
C449 C11 1.456 . S
C461 C25 1.467 . S
C476 C53 1.459 . S
C488 C39 1.487 . S
C503 C81 1.483 . S
C515 C67 1.517 . S
C530 C95 1.488 . S
C542 C109 1.517 . S
