# Generated by pormake.
# Topology umh, (4)-cn, num edge types: 1
# Building blocks:
#     Node 0, Type 0, BuildingBlock: MUDLON_clean_sbu_0, # of connection points: 4
#     Node 1, Type 0, BuildingBlock: MUDLON_clean_sbu_0, # of connection points: 4
#     Node 2, Type 0, BuildingBlock: MUDLON_clean_sbu_0, # of connection points: 4
#     Node 3, Type 0, BuildingBlock: MUDLON_clean_sbu_0, # of connection points: 4
#     Node 4, Type 0, BuildingBlock: MUDLON_clean_sbu_0, # of connection points: 4
#     Node 5, Type 0, BuildingBlock: MUDLON_clean_sbu_0, # of connection points: 4
#     Node 6, Type 0, BuildingBlock: MUDLON_clean_sbu_0, # of connection points: 4
#     Node 7, Type 0, BuildingBlock: MUDLON_clean_sbu_0, # of connection points: 4
#     Node 8, Type 0, BuildingBlock: MUDLON_clean_sbu_0, # of connection points: 4
#     Node 9, Type 0, BuildingBlock: MUDLON_clean_sbu_0, # of connection points: 4
#     Node 10, Type 0, BuildingBlock: MUDLON_clean_sbu_0, # of connection points: 4
#     Node 11, Type 0, BuildingBlock: MUDLON_clean_sbu_0, # of connection points: 4
#     Node 12, Type 0, BuildingBlock: MUDLON_clean_sbu_0, # of connection points: 4
#     Node 13, Type 0, BuildingBlock: MUDLON_clean_sbu_0, # of connection points: 4
#     Node 14, Type 0, BuildingBlock: MUDLON_clean_sbu_0, # of connection points: 4
#     Node 15, Type 0, BuildingBlock: MUDLON_clean_sbu_0, # of connection points: 4
#     Edge 16, Type (0, 0), BuildingBlock: MIFKUJ_clean_linker_0, # of connection points: 2
#     Edge 17, Type (0, 0), BuildingBlock: MIFKUJ_clean_linker_0, # of connection points: 2
#     Edge 18, Type (0, 0), BuildingBlock: MIFKUJ_clean_linker_0, # of connection points: 2
#     Edge 19, Type (0, 0), BuildingBlock: MIFKUJ_clean_linker_0, # of connection points: 2
#     Edge 20, Type (0, 0), BuildingBlock: MIFKUJ_clean_linker_0, # of connection points: 2
#     Edge 21, Type (0, 0), BuildingBlock: MIFKUJ_clean_linker_0, # of connection points: 2
#     Edge 22, Type (0, 0), BuildingBlock: MIFKUJ_clean_linker_0, # of connection points: 2
#     Edge 23, Type (0, 0), BuildingBlock: MIFKUJ_clean_linker_0, # of connection points: 2
#     Edge 24, Type (0, 0), BuildingBlock: MIFKUJ_clean_linker_0, # of connection points: 2
#     Edge 25, Type (0, 0), BuildingBlock: MIFKUJ_clean_linker_0, # of connection points: 2
#     Edge 26, Type (0, 0), BuildingBlock: MIFKUJ_clean_linker_0, # of connection points: 2
#     Edge 27, Type (0, 0), BuildingBlock: MIFKUJ_clean_linker_0, # of connection points: 2
#     Edge 28, Type (0, 0), BuildingBlock: MIFKUJ_clean_linker_0, # of connection points: 2
#     Edge 29, Type (0, 0), BuildingBlock: MIFKUJ_clean_linker_0, # of connection points: 2
#     Edge 30, Type (0, 0), BuildingBlock: MIFKUJ_clean_linker_0, # of connection points: 2
#     Edge 31, Type (0, 0), BuildingBlock: MIFKUJ_clean_linker_0, # of connection points: 2
#     Edge 32, Type (0, 0), BuildingBlock: MIFKUJ_clean_linker_0, # of connection points: 2
#     Edge 33, Type (0, 0), BuildingBlock: MIFKUJ_clean_linker_0, # of connection points: 2
#     Edge 34, Type (0, 0), BuildingBlock: MIFKUJ_clean_linker_0, # of connection points: 2
#     Edge 35, Type (0, 0), BuildingBlock: MIFKUJ_clean_linker_0, # of connection points: 2
#     Edge 36, Type (0, 0), BuildingBlock: MIFKUJ_clean_linker_0, # of connection points: 2
#     Edge 37, Type (0, 0), BuildingBlock: MIFKUJ_clean_linker_0, # of connection points: 2
#     Edge 38, Type (0, 0), BuildingBlock: MIFKUJ_clean_linker_0, # of connection points: 2
#     Edge 39, Type (0, 0), BuildingBlock: MIFKUJ_clean_linker_0, # of connection points: 2
#     Edge 40, Type (0, 0), BuildingBlock: MIFKUJ_clean_linker_0, # of connection points: 2
#     Edge 41, Type (0, 0), BuildingBlock: MIFKUJ_clean_linker_0, # of connection points: 2
#     Edge 42, Type (0, 0), BuildingBlock: MIFKUJ_clean_linker_0, # of connection points: 2
#     Edge 43, Type (0, 0), BuildingBlock: MIFKUJ_clean_linker_0, # of connection points: 2
#     Edge 44, Type (0, 0), BuildingBlock: MIFKUJ_clean_linker_0, # of connection points: 2
#     Edge 45, Type (0, 0), BuildingBlock: MIFKUJ_clean_linker_0, # of connection points: 2
#     Edge 46, Type (0, 0), BuildingBlock: MIFKUJ_clean_linker_0, # of connection points: 2
#     Edge 47, Type (0, 0), BuildingBlock: MIFKUJ_clean_linker_0, # of connection points: 2
# Relax obj value: 0.038
# Max RMSD: 0.081
# Mean RMSD: 0.081
data_MOF--net-umh--node1-MUDLON_clean_sbu_0--edge1-MIFKUJ_clean_linker_0
_symmetry_space_group_name_H-M    P1
_symmetry_Int_Tables_number       1
_symmetry_cell_setting            triclinic
loop_
_symmetry_equiv_pos_as_xyz
'x, y, z'
_cell_length_a     54.40657
_cell_length_b     54.328145
_cell_length_c     72.175008
_cell_angle_alpha  89.986062
_cell_angle_beta   89.996977
_cell_angle_gamma 89.898152
loop_
_atom_site_label
_atom_site_type_symbol
_atom_site_fract_x
_atom_site_fract_y
_atom_site_fract_z
_atom_type_partial_charge
Mg0 Mg 0.35007 0.10637 0.16117 0.0
C1 C 0.36341 0.11865 0.12318 0.0
O2 O 0.37873 0.13075 0.13388 0.0
C3 C 0.32766 0.08295 0.19417 0.0
O4 O 0.35123 0.08369 0.19809 0.0
C5 C 0.40613 0.09518 0.16884 0.0
O6 O 0.41068 0.11843 0.16523 0.0
O7 O 0.38412 0.08736 0.16839 0.0
O8 O 0.34724 0.1051 0.13088 0.0
O9 O 0.3469 0.14553 0.16716 0.0
C10 C 0.338 0.15296 0.18246 0.0
O11 O 0.336 0.13727 0.19621 0.0
O12 O 0.32079 0.08977 0.17807 0.0
Mg13 Mg 0.4046 0.34571 0.65934 0.0
C14 C 0.39079 0.33282 0.61962 0.0
O15 O 0.3704 0.32621 0.62799 0.0
C16 C 0.42882 0.33228 0.69479 0.0
O17 O 0.42094 0.35483 0.6976 0.0
C18 C 0.41207 0.40138 0.67224 0.0
O19 O 0.39467 0.39876 0.68469 0.0
O20 O 0.41766 0.38349 0.66168 0.0
O21 O 0.40914 0.33927 0.62946 0.0
O22 O 0.36582 0.33865 0.66533 0.0
C23 C 0.35908 0.32643 0.67951 0.0
O24 O 0.37534 0.32112 0.69234 0.0
O25 O 0.42598 0.32291 0.67874 0.0
Mg26 Mg 0.14709 0.39745 0.16057 0.0
C27 C 0.16352 0.39071 0.11984 0.0
O28 O 0.17943 0.3753 0.12714 0.0
C29 C 0.16783 0.40681 0.19623 0.0
O30 O 0.15029 0.39037 0.19799 0.0
C31 C 0.09248 0.40629 0.15615 0.0
O32 O 0.09697 0.39525 0.14031 0.0
O33 O 0.10974 0.40813 0.16796 0.0
O34 O 0.1501 0.40363 0.13056 0.0
O35 O 0.15757 0.35976 0.16703 0.0
C36 C 0.15645 0.34 0.15766 0.0
O37 O 0.14466 0.33981 0.14178 0.0
O38 O 0.17126 0.41639 0.1803 0.0
Mg39 Mg 0.09909 0.15551 0.65621 0.0
C40 C 0.08057 0.15283 0.61628 0.0
O41 O 0.06558 0.13661 0.62363 0.0
C42 C 0.09164 0.17571 0.69338 0.0
O43 O 0.10949 0.15954 0.695 0.0
C44 C 0.08118 0.10491 0.6725 0.0
O45 O 0.08821 0.11303 0.68878 0.0
O46 O 0.08478 0.11804 0.65815 0.0
O47 O 0.09438 0.16537 0.62692 0.0
O48 O 0.13814 0.16061 0.66201 0.0
C49 C 0.15128 0.17129 0.64985 0.0
O50 O 0.14209 0.17475 0.63324 0.0
O51 O 0.08192 0.17881 0.67746 0.0
Mg52 Mg 0.35335 0.39685 0.38821 0.0
C53 C 0.36682 0.4073 0.42854 0.0
O54 O 0.38642 0.41639 0.42047 0.0
C55 C 0.32303 0.40081 0.35473 0.0
O56 O 0.33918 0.38345 0.35116 0.0
C57 C 0.40896 0.40714 0.38216 0.0
O58 O 0.41223 0.38505 0.38916 0.0
O59 O 0.38721 0.41522 0.37989 0.0
O60 O 0.34901 0.40004 0.41846 0.0
O61 O 0.35094 0.35759 0.38218 0.0
C62 C 0.34233 0.34327 0.39451 0.0
O63 O 0.34023 0.35145 0.41156 0.0
O64 O 0.32404 0.41169 0.37038 0.0
Mg65 Mg 0.10594 0.3487 0.88756 0.0
C66 C 0.09282 0.36109 0.92815 0.0
O67 O 0.07986 0.37864 0.92031 0.0
C68 C 0.07923 0.32774 0.85488 0.0
O69 O 0.07851 0.35145 0.8514 0.0
C70 C 0.09687 0.40544 0.88435 0.0
O71 O 0.11575 0.40802 0.89553 0.0
O72 O 0.09051 0.38402 0.87917 0.0
O73 O 0.1034 0.34517 0.91791 0.0
O74 O 0.14438 0.3428 0.88024 0.0
C75 C 0.15818 0.33316 0.89249 0.0
O76 O 0.14977 0.33102 0.90946 0.0
O77 O 0.08811 0.32054 0.87032 0.0
Mg78 Mg 0.14312 0.11563 0.38283 0.0
C79 C 0.12548 0.11527 0.42175 0.0
O80 O 0.10539 0.1188 0.412 0.0
C81 C 0.16425 0.08929 0.35009 0.0
O82 O 0.14071 0.08991 0.34611 0.0
C83 C 0.10613 0.07742 0.38134 0.0
O84 O 0.1252 0.06791 0.38994 0.0
O85 O 0.10763 0.09951 0.37556 0.0
O86 O 0.14579 0.11244 0.41317 0.0
O87 O 0.14897 0.15465 0.37774 0.0
C88 C 0.15908 0.16212 0.36287 0.0
O89 O 0.16128 0.14677 0.34892 0.0
O90 O 0.17125 0.09747 0.36578 0.0
Mg91 Mg 0.40577 0.15947 0.88772 0.0
C92 C 0.38845 0.1521 0.92552 0.0
O93 O 0.37495 0.13771 0.91502 0.0
C94 C 0.43477 0.17877 0.85548 0.0
O95 O 0.43618 0.15489 0.85282 0.0
C96 C 0.41854 0.10511 0.87569 0.0
O97 O 0.39921 0.10562 0.86478 0.0
O98 O 0.42392 0.12394 0.8853 0.0
O99 O 0.40461 0.16556 0.91772 0.0
O100 O 0.36734 0.16171 0.87966 0.0
C101 C 0.36071 0.17214 0.86468 0.0
O102 O 0.37742 0.17741 0.85217 0.0
O103 O 0.42448 0.18663 0.87021 0.0
Mg104 Mg 0.6587 0.90449 0.88453 0.0
C105 C 0.65698 0.89114 0.92358 0.0
O106 O 0.64584 0.87355 0.91436 0.0
C107 C 0.69873 0.93272 0.85946 0.0
O108 O 0.71325 0.93506 0.87389 0.0
C109 C 0.61526 0.935 0.89017 0.0
O110 O 0.6328 0.94584 0.89963 0.0
O111 O 0.62031 0.91512 0.88165 0.0
O112 O 0.66642 0.90884 0.91437 0.0
O113 O 0.66668 0.86589 0.87889 0.0
C114 C 0.6888 0.86205 0.87392 0.0
O115 O 0.70366 0.88091 0.87231 0.0
O116 O 0.67748 0.92331 0.86151 0.0
Mg117 Mg 0.6077 0.64937 0.38311 0.0
C118 C 0.6515 0.65988 0.35853 0.0
O119 O 0.63472 0.65739 0.34561 0.0
C120 C 0.59027 0.59754 0.39073 0.0
O121 O 0.5984 0.60365 0.40723 0.0
C122 C 0.58137 0.66871 0.34956 0.0
O123 O 0.58187 0.6449 0.34639 0.0
O124 O 0.58885 0.67644 0.36527 0.0
O125 O 0.64599 0.65456 0.37519 0.0
O126 O 0.60593 0.65445 0.41344 0.0
C127 C 0.6251 0.66077 0.42242 0.0
O128 O 0.64481 0.66723 0.41311 0.0
O129 O 0.59295 0.61269 0.37742 0.0
Mg130 Mg 0.84785 0.58934 0.88438 0.0
C131 C 0.83132 0.57734 0.92614 0.0
O132 O 0.8093 0.5714 0.92019 0.0
C133 C 0.80271 0.57347 0.86071 0.0
O134 O 0.79022 0.58778 0.87195 0.0
C135 C 0.89025 0.56066 0.86996 0.0
O136 O 0.87162 0.54596 0.86666 0.0
O137 O 0.88596 0.58182 0.87682 0.0
O138 O 0.84791 0.58323 0.91453 0.0
O139 O 0.83678 0.62755 0.88056 0.0
C140 C 0.81808 0.63371 0.89008 0.0
O141 O 0.80882 0.61762 0.9017 0.0
O142 O 0.82527 0.56908 0.86417 0.0
Mg143 Mg 0.88705 0.85286 0.37788 0.0
C144 C 0.83315 0.83981 0.37813 0.0
O145 O 0.83756 0.83802 0.39596 0.0
C146 C 0.92417 0.89142 0.3806 0.0
O147 O 0.93196 0.87368 0.39151 0.0
C148 C 0.90371 0.83075 0.34373 0.0
O149 O 0.89386 0.85218 0.33962 0.0
O150 O 0.90554 0.82496 0.36081 0.0
O151 O 0.84978 0.84831 0.36755 0.0
O152 O 0.88624 0.85034 0.40837 0.0
C153 C 0.87594 0.86903 0.4158 0.0
O154 O 0.86768 0.8865 0.40483 0.0
O155 O 0.90414 0.88826 0.37183 0.0
Mg156 Mg 0.65189 0.60081 0.65661 0.0
C157 C 0.66783 0.61333 0.61689 0.0
O158 O 0.6805 0.63031 0.62563 0.0
C159 C 0.69827 0.58644 0.67863 0.0
O160 O 0.70851 0.60334 0.66815 0.0
C161 C 0.60741 0.57034 0.65316 0.0
O162 O 0.62259 0.56099 0.64086 0.0
O163 O 0.6145 0.58873 0.66266 0.0
O164 O 0.65608 0.59743 0.62637 0.0
O165 O 0.65886 0.63914 0.66325 0.0
C166 C 0.66626 0.64518 0.67933 0.0
O167 O 0.66594 0.62867 0.69263 0.0
O168 O 0.67612 0.58017 0.6754 0.0
Mg169 Mg 0.88511 0.63975 0.15828 0.0
C170 C 0.84153 0.6536 0.18251 0.0
O171 O 0.85856 0.65435 0.19539 0.0
C172 C 0.9006 0.58628 0.15418 0.0
O173 O 0.88789 0.58876 0.13882 0.0
C174 C 0.91315 0.66292 0.18966 0.0
O175 O 0.91469 0.63943 0.19385 0.0
O176 O 0.90364 0.66892 0.17415 0.0
O177 O 0.84704 0.64516 0.16661 0.0
O178 O 0.88503 0.6422 0.12771 0.0
C179 C 0.86509 0.63567 0.1198 0.0
O180 O 0.84632 0.62952 0.13025 0.0
O181 O 0.9014 0.60421 0.16552 0.0
Mg182 Mg 0.8474 0.89613 0.65426 0.0
C183 C 0.83435 0.90866 0.61179 0.0
O184 O 0.81947 0.92624 0.61734 0.0
C185 C 0.80134 0.90748 0.67692 0.0
O186 O 0.79396 0.88709 0.66892 0.0
C187 C 0.89096 0.92787 0.65056 0.0
O188 O 0.8763 0.93522 0.63719 0.0
O189 O 0.88393 0.91026 0.66093 0.0
O190 O 0.84594 0.8959 0.62374 0.0
O191 O 0.84056 0.85803 0.66242 0.0
C192 C 0.82595 0.84659 0.65168 0.0
O193 O 0.81871 0.85758 0.63642 0.0
O194 O 0.82157 0.91707 0.67171 0.0
Mg195 Mg 0.6111 0.85593 0.16007 0.0
C196 C 0.66528 0.84275 0.15928 0.0
O197 O 0.66196 0.84471 0.14131 0.0
C198 C 0.57209 0.89242 0.16807 0.0
O199 O 0.55975 0.87207 0.16494 0.0
C200 C 0.59087 0.83382 0.19377 0.0
O201 O 0.59848 0.85583 0.19863 0.0
O202 O 0.59208 0.82786 0.17668 0.0
O203 O 0.64811 0.84933 0.17015 0.0
O204 O 0.61135 0.85386 0.12951 0.0
C205 C 0.61722 0.8739 0.12141 0.0
O206 O 0.62165 0.89334 0.13171 0.0
O207 O 0.59545 0.89166 0.1674 0.0
H208 H 0.41793 0.17205 0.95278 0.0
H209 H 0.41322 0.1674 0.98647 0.0
H210 H 0.34713 0.12517 0.97798 0.0
H211 H 0.35154 0.12987 0.94459 0.0
H212 H 0.34116 0.15671 1.00615 0.0
H213 H 0.40139 0.09682 0.98741 0.0
H214 H 0.43978 0.08248 0.97277 0.0
H215 H 0.48186 0.1281 1.00951 0.0
H216 H 0.44366 0.14298 0.0242 0.0
H217 H 0.33244 0.10087 0.09596 0.0
H218 H 0.33606 0.10707 0.06233 0.0
H219 H 0.40228 0.14914 0.07075 0.0
H220 H 0.39894 0.14291 0.10403 0.0
H221 H 0.40806 0.11782 0.0426 0.0
H222 H 0.3477 0.17746 0.06154 0.0
H223 H 0.30925 0.19164 0.07617 0.0
H224 H 0.26733 0.14632 0.03912 0.0
H225 H 0.30558 0.1316 0.02442 0.0
C226 C 0.40229 0.16198 0.95812 0.0
C227 C 0.38522 0.15121 0.94596 0.0
C228 C 0.39968 0.15922 0.97737 0.0
C229 C 0.37994 0.14567 0.98478 0.0
C230 C 0.3625 0.13565 0.97265 0.0
C231 C 0.36515 0.1383 0.9535 0.0
C232 C 0.37762 0.14125 1.00509 0.0
C233 C 0.3557 0.14798 1.01408 0.0
C234 C 0.39668 0.13017 1.01555 0.0
C235 C 0.41966 0.12122 1.00676 0.0
C236 C 0.41882 0.10395 0.99226 0.0
C237 C 0.44055 0.09569 0.98397 0.0
C238 C 0.46324 0.10443 0.99017 0.0
C239 C 0.46426 0.12139 1.0047 0.0
C240 C 0.44258 0.12973 1.01302 0.0
C241 C 0.34778 0.11136 0.09062 0.0
C242 C 0.36533 0.12144 0.10273 0.0
C243 C 0.34979 0.115 0.0714 0.0
C244 C 0.36936 0.12877 0.06399 0.0
C245 C 0.38704 0.13845 0.07608 0.0
C246 C 0.38501 0.13492 0.09518 0.0
C247 C 0.37161 0.13333 0.04369 0.0
C248 C 0.39352 0.12658 0.03469 0.0
C249 C 0.35253 0.14438 0.03323 0.0
C250 C 0.32952 0.15322 0.04202 0.0
C251 C 0.33029 0.17036 0.05661 0.0
C252 C 0.30853 0.17852 0.0649 0.0
C253 C 0.28586 0.16983 0.05862 0.0
C254 C 0.28491 0.153 0.044 0.0
C255 C 0.30662 0.14475 0.03568 0.0
H256 H 0.26904 0.17618 0.06505 0.0
H257 H 0.48004 0.09801 0.98373 0.0
H258 H 0.3337 0.38067 0.4492 0.0
H259 H 0.33784 0.36775 0.48154 0.0
H260 H 0.40553 0.40851 0.48598 0.0
H261 H 0.40171 0.42122 0.45366 0.0
H262 H 0.41135 0.36356 0.49981 0.0
H263 H 0.35189 0.42826 0.50704 0.0
H264 H 0.31325 0.45057 0.50081 0.0
H265 H 0.27164 0.3874 0.51784 0.0
H266 H 0.31006 0.36459 0.52395 0.0
H267 H 0.42484 0.35728 0.59834 0.0
H268 H 0.42097 0.36916 0.56576 0.0
H269 H 0.35229 0.32989 0.56217 0.0
H270 H 0.35579 0.3184 0.59477 0.0
H271 H 0.34692 0.37382 0.54778 0.0
H272 H 0.40622 0.3091 0.54074 0.0
H273 H 0.44478 0.28661 0.54687 0.0
H274 H 0.48661 0.34941 0.52938 0.0
H275 H 0.44828 0.3724 0.52337 0.0
C276 C 0.34927 0.38722 0.45713 0.0
C277 C 0.36736 0.40201 0.44878 0.0
C278 C 0.35162 0.3798 0.47566 0.0
C279 C 0.372 0.38717 0.48629 0.0
C280 C 0.38971 0.40246 0.4781 0.0
C281 C 0.38741 0.40983 0.4596 0.0
C282 C 0.3754 0.37826 0.5057 0.0
C283 C 0.39738 0.36611 0.51036 0.0
C284 C 0.35697 0.38096 0.51941 0.0
C285 C 0.33385 0.39464 0.51578 0.0
C286 C 0.3345 0.41906 0.50932 0.0
C287 C 0.31264 0.43181 0.50583 0.0
C288 C 0.29001 0.42039 0.50888 0.0
C289 C 0.28919 0.39621 0.51546 0.0
C290 C 0.311 0.38338 0.51895 0.0
C291 C 0.40913 0.35078 0.59053 0.0
C292 C 0.39062 0.33688 0.59923 0.0
C293 C 0.40693 0.3576 0.57186 0.0
C294 C 0.38633 0.35041 0.56139 0.0
C295 C 0.36829 0.33581 0.56991 0.0
C296 C 0.3704 0.32912 0.58857 0.0
C297 C 0.38289 0.35908 0.54191 0.0
C298 C 0.3609 0.37122 0.53724 0.0
C299 C 0.4013 0.35634 0.52818 0.0
C300 C 0.42437 0.34255 0.53178 0.0
C301 C 0.42364 0.31819 0.53834 0.0
C302 C 0.44545 0.30533 0.54177 0.0
C303 C 0.46813 0.3166 0.53857 0.0
C304 C 0.46903 0.34072 0.53188 0.0
C305 C 0.44727 0.35366 0.52845 0.0
H306 H 0.485 0.30661 0.54122 0.0
H307 H 0.2731 0.43028 0.50617 0.0
H308 H 0.12516 0.33281 0.94825 0.0
H309 H 0.13695 0.33789 0.9807 0.0
H310 H 0.08428 0.39684 0.98644 0.0
H311 H 0.0728 0.39224 0.9539 0.0
H312 H 0.12609 0.41026 1.00129 0.0
H313 H 0.07537 0.3386 1.00612 0.0
H314 H 0.06122 0.29668 0.99858 0.0
H315 H 0.13143 0.26729 1.01448 0.0
H316 H 0.14613 0.30909 1.02188 0.0
H317 H 0.12962 0.41774 0.10024 0.0
H318 H 0.11797 0.41289 0.06771 0.0
H319 H 0.17347 0.35683 0.06103 0.0
H320 H 0.18512 0.36141 0.09356 0.0
H321 H 0.13023 0.34197 0.04679 0.0
H322 H 0.18061 0.41414 0.04204 0.0
H323 H 0.19412 0.45617 0.04988 0.0
H324 H 0.12346 0.48468 0.03418 0.0
H325 H 0.10942 0.44275 0.02647 0.0
C326 C 0.11582 0.34664 0.95647 0.0
C327 C 0.09797 0.36208 0.94841 0.0
C328 C 0.12257 0.34951 0.97509 0.0
C329 C 0.11143 0.36767 0.98617 0.0
C330 C 0.09323 0.38274 0.97824 0.0
C331 C 0.08657 0.37998 0.95961 0.0
C332 C 0.11938 0.37163 1.00578 0.0
C333 C 0.12663 0.39536 1.01129 0.0
C334 C 0.1207 0.35216 1.01882 0.0
C335 C 0.11193 0.32701 1.01438 0.0
C336 C 0.08786 0.32322 1.00787 0.0
C337 C 0.07973 0.29948 1.00365 0.0
C338 C 0.09544 0.27935 1.006 0.0
C339 C 0.1193 0.28291 1.01263 0.0
C340 C 0.12753 0.30662 1.01686 0.0
C341 C 0.13962 0.40462 0.0918 0.0
C342 C 0.15837 0.39001 0.09958 0.0
C343 C 0.13292 0.40187 0.07316 0.0
C344 C 0.14487 0.38452 0.06183 0.0
C345 C 0.16392 0.37029 0.06946 0.0
C346 C 0.17067 0.37306 0.08808 0.0
C347 C 0.13691 0.38056 0.04226 0.0
C348 C 0.12966 0.35684 0.03677 0.0
C349 C 0.13548 0.40004 0.02927 0.0
C350 C 0.14389 0.42527 0.03385 0.0
C351 C 0.16789 0.42935 0.0404 0.0
C352 C 0.17565 0.45316 0.04479 0.0
C353 C 0.15964 0.47307 0.04257 0.0
C354 C 0.13584 0.46923 0.03591 0.0
C355 C 0.12798 0.44545 0.03151 0.0
H356 H 0.16569 0.49149 0.04598 0.0
H357 H 0.0891 0.26098 1.00273 0.0
H358 H 0.05091 0.13366 0.58936 0.0
H359 H 0.06057 0.12788 0.5566 0.0
H360 H 0.13014 0.1644 0.56447 0.0
H361 H 0.1201 0.17114 0.59711 0.0
H362 H 0.11333 0.17633 0.53216 0.0
H363 H 0.12443 0.09975 0.56337 0.0
H364 H 0.11311 0.06483 0.58346 0.0
H365 H 0.05392 0.04634 0.54669 0.0
H366 H 0.06467 0.08137 0.5265 0.0
H367 H 0.16168 0.12749 0.4468 0.0
H368 H 0.1567 0.13383 0.48037 0.0
H369 H 0.08077 0.11187 0.47636 0.0
H370 H 0.0855 0.10583 0.44304 0.0
H371 H 0.10489 0.09166 0.50722 0.0
H372 H 0.09393 0.17088 0.47717 0.0
H373 H 0.10709 0.20543 0.45736 0.0
H374 H 0.16944 0.21769 0.49264 0.0
H375 H 0.15681 0.18296 0.51251 0.0
C376 C 0.0681 0.14082 0.58407 0.0
C377 C 0.08479 0.15271 0.59593 0.0
C378 C 0.07373 0.13729 0.56533 0.0
C379 C 0.09645 0.14501 0.55809 0.0
C380 C 0.11259 0.15805 0.56969 0.0
C381 C 0.10679 0.16194 0.58839 0.0
C382 C 0.10358 0.13885 0.53863 0.0
C383 C 0.11183 0.15772 0.52685 0.0
C384 C 0.10163 0.11459 0.5315 0.0
C385 C 0.09524 0.09333 0.5435 0.0
C386 C 0.10891 0.08833 0.55962 0.0
C387 C 0.1026 0.06851 0.57102 0.0
C388 C 0.08278 0.05341 0.56637 0.0
C389 C 0.06926 0.05807 0.55028 0.0
C390 C 0.07547 0.07789 0.53884 0.0
C391 C 0.14406 0.12368 0.45316 0.0
C392 C 0.12396 0.11627 0.44227 0.0
C393 C 0.14119 0.12744 0.4723 0.0
C394 C 0.11828 0.12352 0.48085 0.0
C395 C 0.09858 0.11504 0.47009 0.0
C396 C 0.10132 0.11166 0.45101 0.0
C397 C 0.11424 0.12916 0.50082 0.0
C398 C 0.10659 0.11018 0.51267 0.0
C399 C 0.1171 0.1532 0.50806 0.0
C400 C 0.12459 0.17416 0.49619 0.0
C401 C 0.11056 0.18081 0.48061 0.0
C402 C 0.1179 0.20045 0.46939 0.0
C403 C 0.13913 0.2137 0.47371 0.0
C404 C 0.15302 0.20738 0.48929 0.0
C405 C 0.14578 0.18773 0.50054 0.0
H406 H 0.14478 0.2289 0.465 0.0
H407 H 0.07792 0.03809 0.57521 0.0
H408 H 0.61474 0.83689 0.0952 0.0
H409 H 0.62226 0.84043 0.06175 0.0
H410 H 0.63508 0.9183 0.06798 0.0
H411 H 0.62725 0.91501 0.10111 0.0
H412 H 0.60862 0.91053 0.03783 0.0
H413 H 0.68288 0.87672 0.06337 0.0
H414 H 0.70776 0.84703 0.0812 0.0
H415 H 0.68454 0.78865 0.04516 0.0
H416 H 0.65923 0.81795 0.02727 0.0
H417 H 0.66418 0.929 0.94867 0.0
H418 H 0.6588 0.92712 0.98252 0.0
H419 H 0.64297 0.84954 0.97866 0.0
H420 H 0.64841 0.85125 0.94521 0.0
H421 H 0.67199 0.85833 1.00778 0.0
H422 H 0.59691 0.89194 0.98277 0.0
H423 H 0.57189 0.92159 0.96497 0.0
H424 H 0.59685 0.98039 0.99994 0.0
H425 H 0.62226 0.95112 1.01781 0.0
C426 C 0.619 0.85478 0.08942 0.0
C427 C 0.62048 0.87561 0.10093 0.0
C428 C 0.62345 0.85678 0.07028 0.0
C429 C 0.62958 0.87962 0.06228 0.0
C430 C 0.63044 0.90047 0.07372 0.0
C431 C 0.62602 0.8985 0.09276 0.0
C432 C 0.63551 0.88191 0.0421 0.0
C433 C 0.62271 0.8993 0.03133 0.0
C434 C 0.65365 0.86711 0.03344 0.0
C435 C 0.66897 0.84949 0.0441 0.0
C436 C 0.68294 0.85752 0.05933 0.0
C437 C 0.69714 0.84076 0.06944 0.0
C438 C 0.69768 0.81595 0.06435 0.0
C439 C 0.68407 0.80786 0.04911 0.0
C440 C 0.66981 0.82454 0.03897 0.0
C441 C 0.6599 0.91152 0.9551 0.0
C442 C 0.65663 0.89032 0.9442 0.0
C443 C 0.65664 0.91047 0.97443 0.0
C444 C 0.65017 0.88821 0.98318 0.0
C445 C 0.64789 0.86693 0.97233 0.0
C446 C 0.65096 0.86799 0.95313 0.0
C447 C 0.64503 0.88685 1.00351 0.0
C448 C 0.65798 0.86962 1.0143 0.0
C449 C 0.62704 0.9018 1.01218 0.0
C450 C 0.61171 0.91939 1.00149 0.0
C451 C 0.59722 0.91123 0.98657 0.0
C452 C 0.58294 0.92795 0.97649 0.0
C453 C 0.58286 0.95287 0.98128 0.0
C454 C 0.59698 0.96109 0.99622 0.0
C455 C 0.6113 0.94444 1.00634 0.0
H456 H 0.57182 0.9658 0.97346 0.0
H457 H 0.70868 0.80301 0.07219 0.0
H458 H 0.69512 0.63978 0.5921 0.0
H459 H 0.68669 0.64677 0.55928 0.0
H460 H 0.62342 0.59924 0.56266 0.0
H461 H 0.63235 0.59144 0.59541 0.0
H462 H 0.64445 0.59246 0.53068 0.0
H463 H 0.61893 0.66418 0.56396 0.0
H464 H 0.62333 0.69904 0.58558 0.0
H465 H 0.68134 0.7288 0.55208 0.0
H466 H 0.67751 0.69393 0.53038 0.0
H467 H 0.59274 0.6372 0.4458 0.0
H468 H 0.59817 0.6287 0.47895 0.0
H469 H 0.66664 0.66853 0.47843 0.0
H470 H 0.66131 0.67719 0.44548 0.0
H471 H 0.64012 0.67913 0.50922 0.0
H472 H 0.66561 0.60581 0.47643 0.0
H473 H 0.65973 0.57118 0.45481 0.0
H474 H 0.59937 0.54489 0.4876 0.0
H475 H 0.60469 0.57959 0.50929 0.0
C476 C 0.67957 0.63056 0.58582 0.0
C477 C 0.66434 0.61516 0.59646 0.0
C478 C 0.67463 0.63474 0.56704 0.0
C479 C 0.65398 0.62411 0.55848 0.0
C480 C 0.63936 0.60785 0.56888 0.0
C481 C 0.64451 0.60336 0.58764 0.0
C482 C 0.64736 0.63047 0.53891 0.0
C483 C 0.64316 0.61144 0.5261 0.0
C484 C 0.64585 0.65522 0.5327 0.0
C485 C 0.64807 0.67633 0.54563 0.0
C486 C 0.63272 0.67808 0.56126 0.0
C487 C 0.6351 0.69785 0.57353 0.0
C488 C 0.65264 0.71609 0.57023 0.0
C489 C 0.66778 0.71464 0.55463 0.0
C490 C 0.6655 0.69489 0.54233 0.0
C491 C 0.60878 0.64444 0.4528 0.0
C492 C 0.62661 0.65784 0.44292 0.0
C493 C 0.61196 0.6394 0.47174 0.0
C494 C 0.63301 0.64768 0.48119 0.0
C495 C 0.65029 0.66187 0.47149 0.0
C496 C 0.64721 0.66678 0.4526 0.0
C497 C 0.63751 0.64115 0.50102 0.0
C498 C 0.64129 0.66017 0.51387 0.0
C499 C 0.6384 0.61644 0.50728 0.0
C500 C 0.63538 0.59543 0.49437 0.0
C501 C 0.65098 0.59274 0.47896 0.0
C502 C 0.64776 0.57309 0.4667 0.0
C503 C 0.62914 0.55589 0.4698 0.0
C504 C 0.61376 0.55825 0.4852 0.0
C505 C 0.61688 0.5779 0.49749 0.0
H506 H 0.62667 0.54069 0.46028 0.0
H507 H 0.65446 0.73138 0.57974 0.0
H508 H 0.79839 0.57528 0.95501 0.0
H509 H 0.80578 0.5857 0.98754 0.0
H510 H 0.88228 0.59862 0.97545 0.0
H511 H 0.87514 0.58802 0.943 0.0
H512 H 0.87711 0.57483 1.00819 0.0
H513 H 0.84246 0.64658 0.97924 0.0
H514 H 0.81172 0.6695 0.96091 0.0
H515 H 0.75593 0.65138 1.00069 0.0
H516 H 0.78626 0.62808 1.01913 0.0
H517 H 0.90177 0.63791 0.09333 0.0
H518 H 0.89789 0.62924 0.06003 0.0
H519 H 0.82008 0.61726 0.06696 0.0
H520 H 0.82372 0.62621 0.09988 0.0
H521 H 0.8279 0.64224 0.03613 0.0
H522 H 0.86159 0.56917 0.06431 0.0
H523 H 0.89177 0.54555 0.08264 0.0
H524 H 0.94884 0.56555 0.04442 0.0
H525 H 0.91905 0.58962 0.02602 0.0
C526 C 0.81686 0.58003 0.95929 0.0
C527 C 0.83612 0.58092 0.9463 0.0
C528 C 0.82103 0.58616 0.9779 0.0
C529 C 0.84453 0.59337 0.98394 0.0
C530 C 0.86398 0.59324 0.97116 0.0
C531 C 0.85983 0.58719 0.95256 0.0
C532 C 0.8487 0.60174 1.00339 0.0
C533 C 0.86658 0.58979 1.01422 0.0
C534 C 0.83478 0.62107 1.0114 0.0
C535 C 0.81659 0.63538 1.00047 0.0
C536 C 0.8236 0.64735 0.98402 0.0
C537 C 0.80626 0.66043 0.97362 0.0
C538 C 0.78187 0.66181 0.9796 0.0
C539 C 0.77481 0.65025 0.99606 0.0
C540 C 0.79208 0.63713 1.0065 0.0
C541 C 0.88381 0.63371 0.08769 0.0
C542 C 0.8631 0.63265 0.09934 0.0
C543 C 0.88162 0.62859 0.06867 0.0
C544 C 0.85871 0.62225 0.06095 0.0
C545 C 0.83796 0.62205 0.07249 0.0
C546 C 0.84012 0.62711 0.0914 0.0
C547 C 0.85613 0.61515 0.04104 0.0
C548 C 0.83855 0.62736 0.0301 0.0
C549 C 0.87027 0.59603 0.03295 0.0
C550 C 0.88816 0.58142 0.04391 0.0
C551 C 0.88062 0.56868 0.0599 0.0
C552 C 0.89764 0.5552 0.07029 0.0
C553 C 0.92222 0.55411 0.06472 0.0
C554 C 0.9298 0.56645 0.04873 0.0
C555 C 0.91286 0.58001 0.03831 0.0
H556 H 0.93538 0.54366 0.07279 0.0
H557 H 0.76844 0.67185 0.97151 0.0
H558 H 0.89476 0.84007 0.444 0.0
H559 H 0.88866 0.84546 0.4775 0.0
H560 H 0.84209 0.90827 0.46694 0.0
H561 H 0.8486 0.90343 0.43383 0.0
H562 H 0.8714 0.91907 0.4938 0.0
H563 H 0.81948 0.84971 0.48001 0.0
H564 H 0.81002 0.80818 0.46823 0.0
H565 H 0.86151 0.77666 0.50663 0.0
H566 H 0.87151 0.81806 0.51848 0.0
H567 H 0.81428 0.93283 0.58184 0.0
H568 H 0.82175 0.92485 0.54891 0.0
H569 H 0.87102 0.86558 0.56324 0.0
H570 H 0.86343 0.87317 0.59608 0.0
H571 H 0.84214 0.85221 0.535 0.0
H572 H 0.89283 0.92201 0.54933 0.0
H573 H 0.90153 0.96369 0.56115 0.0
H574 H 0.85134 0.99457 0.52151 0.0
H575 H 0.84209 0.95303 0.50961 0.0
C576 C 0.8832 0.85497 0.44886 0.0
C577 C 0.87223 0.87131 0.43618 0.0
C578 C 0.87962 0.858 0.46802 0.0
C579 C 0.86472 0.87721 0.47487 0.0
C580 C 0.85375 0.89339 0.46215 0.0
C581 C 0.85747 0.89052 0.44312 0.0
C582 C 0.86062 0.88096 0.49518 0.0
C583 C 0.86472 0.90447 0.50272 0.0
C584 C 0.85246 0.86188 0.50707 0.0
C585 C 0.84644 0.83699 0.49999 0.0
C586 C 0.82892 0.83393 0.48584 0.0
C587 C 0.82344 0.81042 0.47917 0.0
C588 C 0.83521 0.7898 0.48664 0.0
C589 C 0.85244 0.79265 0.50083 0.0
C590 C 0.85801 0.81613 0.50754 0.0
C591 C 0.82667 0.91807 0.578 0.0
C592 C 0.83832 0.90375 0.59169 0.0
C593 C 0.83101 0.91357 0.55914 0.0
C594 C 0.84721 0.89476 0.55352 0.0
C595 C 0.85849 0.88019 0.56716 0.0
C596 C 0.85417 0.88466 0.58598 0.0
C597 C 0.8526 0.89037 0.53348 0.0
C598 C 0.84883 0.86677 0.52604 0.0
C599 C 0.86096 0.90939 0.52164 0.0
C600 C 0.8666 0.93439 0.5287 0.0
C601 C 0.88352 0.93768 0.54322 0.0
C602 C 0.88857 0.96127 0.54992 0.0
C603 C 0.87695 0.98176 0.54211 0.0
C604 C 0.86031 0.97869 0.52755 0.0
C605 C 0.85517 0.95512 0.52082 0.0
H606 H 0.88088 1.00001 0.54732 0.0
H607 H 0.83094 0.77161 0.48146 0.0
H608 H 0.16325 0.29568 0.13988 0.0
H609 H 0.19444 0.26436 0.14691 0.0
H610 H 0.21793 0.30638 0.19435 0.0
H611 H 0.18685 0.33745 0.18768 0.0
H612 H 0.25652 0.29352 0.17075 0.0
H613 H 0.18812 0.25563 0.20181 0.0
H614 H 0.14613 0.23894 0.20427 0.0
H615 H 0.16247 0.18578 0.162 0.0
H616 H 0.20448 0.20238 0.1591 0.0
H617 H 0.31003 0.17071 0.21086 0.0
H618 H 0.27993 0.20415 0.20942 0.0
H619 H 0.30351 0.22138 0.15389 0.0
H620 H 0.33352 0.18783 0.15514 0.0
H621 H 0.24139 0.20518 0.18378 0.0
H622 H 0.29413 0.28429 0.14801 0.0
H623 H 0.33615 0.30121 0.1467 0.0
H624 H 0.35113 0.27249 0.20098 0.0
H625 H 0.30912 0.25571 0.20272 0.0
C626 C 0.17475 0.29803 0.15199 0.0
C627 C 0.17258 0.31917 0.16313 0.0
C628 C 0.1926 0.28015 0.15596 0.0
C629 C 0.2086 0.28318 0.17107 0.0
C630 C 0.20589 0.30379 0.18255 0.0
C631 C 0.18798 0.32148 0.17873 0.0
C632 C 0.22894 0.26554 0.1745 0.0
C633 C 0.25322 0.27419 0.17358 0.0
C634 C 0.2246 0.24042 0.17839 0.0
C635 C 0.19936 0.23041 0.18011 0.0
C636 C 0.18269 0.24053 0.19292 0.0
C637 C 0.1589 0.23105 0.19442 0.0
C638 C 0.15161 0.21136 0.18326 0.0
C639 C 0.16813 0.20105 0.17061 0.0
C640 C 0.19194 0.21047 0.16905 0.0
C641 C 0.30915 0.18189 0.19847 0.0
C642 C 0.32398 0.17639 0.18305 0.0
C643 C 0.29184 0.20089 0.19764 0.0
C644 C 0.28931 0.21502 0.18149 0.0
C645 C 0.30518 0.21068 0.1665 0.0
C646 C 0.32238 0.19152 0.16726 0.0
C647 C 0.26898 0.23311 0.17981 0.0
C648 C 0.24469 0.22451 0.18096 0.0
C649 C 0.27331 0.2583 0.17622 0.0
C650 C 0.29855 0.26854 0.1754 0.0
C651 C 0.30637 0.28167 0.15969 0.0
C652 C 0.33019 0.29122 0.15887 0.0
C653 C 0.34633 0.28786 0.17372 0.0
C654 C 0.33865 0.275 0.18945 0.0
C655 C 0.31485 0.26542 0.19035 0.0
H656 H 0.36476 0.29526 0.17305 0.0
H657 H 0.13319 0.20404 0.18445 0.0
H658 H 0.33767 0.30176 0.70835 0.0
H659 H 0.30059 0.27642 0.70744 0.0
H660 H 0.28929 0.29665 0.65024 0.0
H661 H 0.32573 0.32269 0.65127 0.0
H662 H 0.24704 0.2947 0.66681 0.0
H663 H 0.31893 0.24038 0.66576 0.0
H664 H 0.3565 0.22054 0.67784 0.0
H665 H 0.31734 0.19739 0.72645 0.0
H666 H 0.27964 0.21731 0.71476 0.0
H667 H 0.18144 0.19793 0.62743 0.0
H668 H 0.21486 0.22505 0.63668 0.0
H669 H 0.20623 0.20218 0.69351 0.0
H670 H 0.1724 0.17491 0.68439 0.0
H671 H 0.25551 0.20608 0.68225 0.0
H672 H 0.18352 0.25532 0.68297 0.0
H673 H 0.14444 0.27214 0.67117 0.0
H674 H 0.18226 0.30407 0.62482 0.0
H675 H 0.22156 0.28713 0.63622 0.0
C676 C 0.32705 0.30113 0.69567 0.0
C677 C 0.33477 0.31414 0.67984 0.0
C678 C 0.30596 0.28644 0.69512 0.0
C679 C 0.29244 0.28407 0.67863 0.0
C680 C 0.29946 0.29802 0.66311 0.0
C681 C 0.32033 0.31297 0.66372 0.0
C682 C 0.27146 0.26661 0.67718 0.0
C683 C 0.24902 0.2753 0.67008 0.0
C684 C 0.27354 0.24141 0.68214 0.0
C685 C 0.29656 0.23054 0.68948 0.0
C686 C 0.31843 0.23132 0.67912 0.0
C687 C 0.33972 0.21998 0.68587 0.0
C688 C 0.33927 0.20768 0.70289 0.0
C689 C 0.31764 0.20691 0.71328 0.0
C690 C 0.29633 0.21821 0.7066 0.0
C691 C 0.18677 0.19835 0.64188 0.0
C692 C 0.17409 0.18435 0.65519 0.0
C693 C 0.20581 0.21401 0.64715 0.0
C694 C 0.21265 0.21599 0.66582 0.0
C695 C 0.20105 0.20104 0.67904 0.0
C696 C 0.18181 0.18541 0.67379 0.0
C697 C 0.23165 0.2341 0.67132 0.0
C698 C 0.25355 0.22555 0.67922 0.0
C699 C 0.22902 0.25944 0.66728 0.0
C700 C 0.20547 0.26979 0.66038 0.0
C701 C 0.18348 0.26577 0.67018 0.0
C702 C 0.16129 0.27536 0.66359 0.0
C703 C 0.16086 0.28913 0.64724 0.0
C704 C 0.18263 0.29339 0.63748 0.0
C705 C 0.20488 0.28382 0.64402 0.0
H706 H 0.14366 0.29654 0.64215 0.0
H707 H 0.35561 0.19861 0.70802 0.0
H708 H 0.33264 0.32642 0.35938 0.0
H709 H 0.30298 0.29463 0.35077 0.0
H710 H 0.2908 0.27829 0.40853 0.0
H711 H 0.32073 0.30954 0.41724 0.0
H712 H 0.28885 0.23726 0.38869 0.0
H713 H 0.2531 0.31829 0.38524 0.0
H714 H 0.25191 0.36143 0.3746 0.0
H715 H 0.24679 0.33719 0.31814 0.0
H716 H 0.24821 0.29381 0.32843 0.0
H717 H 0.16923 0.19169 0.39257 0.0
H718 H 0.20106 0.22318 0.39444 0.0
H719 H 0.21489 0.21589 0.33591 0.0
H720 H 0.18322 0.18395 0.33388 0.0
H721 H 0.21711 0.2677 0.35274 0.0
H722 H 0.25003 0.18511 0.35824 0.0
H723 H 0.2504 0.14295 0.3709 0.0
H724 H 0.25971 0.17173 0.42586 0.0
H725 H 0.25894 0.21411 0.41354 0.0
C726 C 0.32415 0.31562 0.37024 0.0
C727 C 0.32885 0.32074 0.38903 0.0
C728 C 0.30702 0.29759 0.36529 0.0
C729 C 0.29422 0.28449 0.37902 0.0
C730 C 0.30031 0.28827 0.39769 0.0
C731 C 0.31744 0.3062 0.40265 0.0
C732 C 0.27324 0.26822 0.37419 0.0
C733 C 0.27319 0.24397 0.38086 0.0
C734 C 0.25281 0.27687 0.36382 0.0
C735 C 0.25102 0.30283 0.35759 0.0
C736 C 0.2518 0.32215 0.37054 0.0
C737 C 0.2511 0.34662 0.36459 0.0
C738 C 0.24943 0.352 0.34571 0.0
C739 C 0.24819 0.33294 0.33275 0.0
C740 C 0.2489 0.30841 0.33864 0.0
C741 C 0.17852 0.19717 0.37996 0.0
C742 C 0.17386 0.18504 0.3631 0.0
C743 C 0.19676 0.21517 0.38108 0.0
C744 C 0.21046 0.22161 0.36535 0.0
C745 C 0.20449 0.21112 0.34819 0.0
C746 C 0.18642 0.19285 0.34708 0.0
C747 C 0.23278 0.23695 0.36742 0.0
C748 C 0.233 0.26096 0.3603 0.0
C749 C 0.25327 0.22823 0.37757 0.0
C750 C 0.2542 0.20277 0.38498 0.0
C751 C 0.25196 0.18245 0.37304 0.0
C752 C 0.25227 0.15852 0.38015 0.0
C753 C 0.25502 0.15467 0.39918 0.0
C754 C 0.25755 0.17475 0.41113 0.0
C755 C 0.2572 0.19872 0.40408 0.0
H756 H 0.25525 0.13612 0.40467 0.0
H757 H 0.24896 0.37096 0.34116 0.0
H758 H 0.32607 0.17541 0.89196 0.0
H759 H 0.28974 0.20149 0.89221 0.0
H760 H 0.30283 0.22134 0.83515 0.0
H761 H 0.33998 0.19589 0.83504 0.0
H762 H 0.29507 0.26089 0.85376 0.0
H763 H 0.25176 0.18555 0.84919 0.0
H764 H 0.24068 0.14261 0.85636 0.0
H765 H 0.22059 0.16367 0.91167 0.0
H766 H 0.23187 0.20669 0.90493 0.0
H767 H 0.17837 0.32762 0.85775 0.0
H768 H 0.21188 0.29964 0.84895 0.0
H769 H 0.22207 0.27988 0.9063 0.0
H770 H 0.18905 0.30778 0.91523 0.0
H771 H 0.215 0.23931 0.88222 0.0
H772 H 0.26326 0.31434 0.88631 0.0
H773 H 0.27361 0.35708 0.87788 0.0
H774 H 0.28256 0.33555 0.82103 0.0
H775 H 0.27193 0.29272 0.8291 0.0
C776 C 0.32097 0.18484 0.8793 0.0
C777 C 0.33604 0.18363 0.8635 0.0
C778 C 0.30005 0.19974 0.87944 0.0
C779 C 0.29334 0.21334 0.86366 0.0
C780 C 0.30763 0.21111 0.84752 0.0
C781 C 0.32879 0.19642 0.84745 0.0
C782 C 0.27279 0.23142 0.86467 0.0
C783 C 0.27736 0.25599 0.85959 0.0
C784 C 0.2497 0.22522 0.87243 0.0
C785 C 0.24281 0.19935 0.87657 0.0
C786 C 0.24514 0.18101 0.86292 0.0
C787 C 0.2388 0.15665 0.86691 0.0
C788 C 0.22997 0.15041 0.88447 0.0
C789 C 0.22743 0.16853 0.89807 0.0
C790 C 0.23376 0.19292 0.89416 0.0
C791 C 0.1881 0.3177 0.86851 0.0
C792 C 0.1809 0.31982 0.88719 0.0
C793 C 0.20717 0.30167 0.86345 0.0
C794 C 0.21923 0.28753 0.87698 0.0
C795 C 0.21281 0.29047 0.89565 0.0
C796 C 0.19399 0.30655 0.90072 0.0
C797 C 0.23768 0.26864 0.87182 0.0
C798 C 0.2326 0.24397 0.87609 0.0
C799 C 0.26011 0.27468 0.86309 0.0
C800 C 0.2665 0.30041 0.85827 0.0
C801 C 0.26719 0.31877 0.87198 0.0
C802 C 0.27317 0.343 0.86728 0.0
C803 C 0.27865 0.34904 0.84892 0.0
C804 C 0.27825 0.33085 0.83524 0.0
C805 C 0.27227 0.3066 0.83987 0.0
H806 H 0.28328 0.36781 0.84531 0.0
H807 H 0.22508 0.13154 0.88753 0.0
H808 H 0.73066 0.84904 0.85607 0.0
H809 H 0.75102 0.80904 0.85625 0.0
H810 H 0.69073 0.77844 0.88747 0.0
H811 H 0.67012 0.81869 0.88732 0.0
H812 H 0.73621 0.77047 0.90364 0.0
H813 H 0.69972 0.76121 0.84326 0.0
H814 H 0.69005 0.77412 0.81132 0.0
H815 H 0.76699 0.77604 0.7982 0.0
H816 H 0.77715 0.76345 0.83015 0.0
H817 H 0.77437 0.64778 0.9048 0.0
H818 H 0.75206 0.68593 0.89973 0.0
H819 H 0.8102 0.71202 0.86415 0.0
H820 H 0.83254 0.67315 0.86875 0.0
H821 H 0.76638 0.72274 0.84959 0.0
H822 H 0.80405 0.73362 0.90846 0.0
H823 H 0.81603 0.72302 0.94044 0.0
H824 H 0.7401 0.7211 0.95656 0.0
H825 H 0.72762 0.73134 0.9246 0.0
C826 C 0.72151 0.8337 0.8627 0.0
C827 C 0.69887 0.83698 0.87177 0.0
C828 C 0.73314 0.81083 0.86273 0.0
C829 C 0.72237 0.79079 0.87185 0.0
C830 C 0.6993 0.79373 0.88033 0.0
C831 C 0.6875 0.81664 0.88016 0.0
C832 C 0.73626 0.76749 0.87389 0.0
C833 C 0.74241 0.75975 0.89184 0.0
C834 C 0.74529 0.75424 0.85844 0.0
C835 C 0.7392 0.76153 0.83915 0.0
C836 C 0.71459 0.76452 0.8336 0.0
C837 C 0.70901 0.77174 0.81549 0.0
C838 C 0.72789 0.77587 0.80274 0.0
C839 C 0.75238 0.77278 0.80808 0.0
C840 C 0.75806 0.76557 0.82619 0.0
C841 C 0.78257 0.66161 0.89594 0.0
C842 C 0.80536 0.6575 0.88728 0.0
C843 C 0.76976 0.68349 0.89309 0.0
C844 C 0.77962 0.70202 0.88181 0.0
C845 C 0.80229 0.69797 0.87297 0.0
C846 C 0.81509 0.67585 0.87568 0.0
C847 C 0.76602 0.7255 0.87938 0.0
C848 C 0.76007 0.73338 0.86139 0.0
C849 C 0.7575 0.73919 0.8948 0.0
C850 C 0.7649 0.73307 0.91408 0.0
C851 C 0.78989 0.73076 0.91879 0.0
C852 C 0.79677 0.72485 0.93691 0.0
C853 C 0.77883 0.72139 0.95051 0.0
C854 C 0.75397 0.72381 0.94601 0.0
C855 C 0.74698 0.72969 0.92789 0.0
H856 H 0.78421 0.7169 0.96455 0.0
H857 H 0.72354 0.78152 0.78873 0.0
H858 H 0.66138 0.68733 0.32774 0.0
H859 H 0.69372 0.71811 0.32415 0.0
H860 H 0.72418 0.69716 0.377 0.0
H861 H 0.69163 0.66653 0.3809 0.0
H862 H 0.69889 0.75739 0.34938 0.0
H863 H 0.78727 0.70694 0.37368 0.0
H864 H 0.80598 0.66565 0.37163 0.0
H865 H 0.76565 0.65131 0.32167 0.0
H866 H 0.74697 0.69263 0.32326 0.0
H867 H 0.79027 0.82807 0.3954 0.0
H868 H 0.75921 0.79883 0.38473 0.0
H869 H 0.79773 0.79079 0.33287 0.0
H870 H 0.82875 0.82035 0.34333 0.0
H871 H 0.78927 0.74583 0.35249 0.0
H872 H 0.74485 0.81551 0.33024 0.0
H873 H 0.72623 0.85686 0.33187 0.0
H874 H 0.67883 0.83292 0.37587 0.0
H875 H 0.69741 0.79151 0.3747 0.0
C876 C 0.67528 0.68881 0.33843 0.0
C877 C 0.67384 0.67456 0.35469 0.0
C878 C 0.69366 0.70652 0.33637 0.0
C879 C 0.71124 0.70995 0.35032 0.0
C880 C 0.71083 0.69469 0.36602 0.0
C881 C 0.69223 0.6772 0.36823 0.0
C882 C 0.72848 0.73098 0.34943 0.0
C883 C 0.71867 0.75489 0.34989 0.0
C884 C 0.75424 0.72766 0.34986 0.0
C885 C 0.76556 0.70283 0.34869 0.0
C886 C 0.78247 0.69502 0.36221 0.0
C887 C 0.79306 0.6716 0.36114 0.0
C888 C 0.78695 0.65584 0.34656 0.0
C889 C 0.77029 0.66349 0.33299 0.0
C890 C 0.75966 0.6869 0.334 0.0
C891 C 0.79178 0.82058 0.38154 0.0
C892 C 0.81194 0.82648 0.37023 0.0
C893 C 0.77404 0.80388 0.37547 0.0
C894 C 0.7763 0.79259 0.35807 0.0
C895 C 0.79575 0.7993 0.34636 0.0
C896 C 0.81331 0.81634 0.35231 0.0
C897 C 0.75962 0.77215 0.35303 0.0
C898 C 0.76952 0.74834 0.35162 0.0
C899 C 0.73393 0.77556 0.35171 0.0
C900 C 0.72265 0.80043 0.35246 0.0
C901 C 0.73059 0.81911 0.34037 0.0
C902 C 0.72002 0.84256 0.34119 0.0
C903 C 0.70139 0.84753 0.35399 0.0
C904 C 0.69327 0.82905 0.36597 0.0
C905 C 0.70379 0.80557 0.36521 0.0
H906 H 0.69322 0.86569 0.3546 0.0
H907 H 0.79517 0.63771 0.34576 0.0
H908 H 0.79141 0.82115 0.63251 0.0
H909 H 0.76644 0.78698 0.64333 0.0
H910 H 0.80701 0.78509 0.69459 0.0
H911 H 0.83211 0.82006 0.68399 0.0
H912 H 0.7936 0.73542 0.67348 0.0
H913 H 0.7603 0.80687 0.7031 0.0
H914 H 0.74712 0.85023 0.70476 0.0
H915 H 0.69353 0.83728 0.6622 0.0
H916 H 0.70658 0.79382 0.66018 0.0
H917 H 0.69871 0.65648 0.70684 0.0
H918 H 0.72709 0.69143 0.70775 0.0
H919 H 0.6941 0.72072 0.6581 0.0
H920 H 0.66581 0.68579 0.65699 0.0
H921 H 0.70618 0.75707 0.68498 0.0
H922 H 0.74155 0.68572 0.65474 0.0
H923 H 0.75451 0.64226 0.65365 0.0
H924 H 0.80558 0.65505 0.69794 0.0
H925 H 0.79236 0.69846 0.6997 0.0
C926 C 0.79537 0.81339 0.64601 0.0
C927 C 0.81367 0.82351 0.65746 0.0
C928 C 0.78102 0.79382 0.65215 0.0
C929 C 0.78479 0.78373 0.66977 0.0
C930 C 0.80388 0.79275 0.68093 0.0
C931 C 0.81817 0.81267 0.67486 0.0
C932 C 0.76743 0.76487 0.67656 0.0
C933 C 0.77463 0.7401 0.67653 0.0
C934 C 0.74265 0.77111 0.68019 0.0
C935 C 0.73457 0.79716 0.68138 0.0
C936 C 0.74585 0.81332 0.69398 0.0
C937 C 0.73837 0.83791 0.69501 0.0
C938 C 0.71956 0.84655 0.68354 0.0
C939 C 0.70812 0.83057 0.67106 0.0
C940 C 0.71551 0.80594 0.67 0.0
C941 C 0.69709 0.67068 0.69638 0.0
C942 C 0.6801 0.66835 0.68179 0.0
C943 C 0.71339 0.69053 0.69688 0.0
C944 C 0.71283 0.70845 0.6829 0.0
C945 C 0.69482 0.70704 0.66902 0.0
C946 C 0.67871 0.68706 0.66838 0.0
C947 C 0.73221 0.72749 0.68171 0.0
C948 C 0.72528 0.75233 0.68254 0.0
C949 C 0.75727 0.72124 0.67896 0.0
C950 C 0.76562 0.69526 0.67759 0.0
C951 C 0.75532 0.67922 0.66442 0.0
C952 C 0.76272 0.65458 0.66367 0.0
C953 C 0.78073 0.64585 0.67582 0.0
C954 C 0.79151 0.6618 0.68863 0.0
C955 C 0.78404 0.68642 0.68952 0.0
H956 H 0.78642 0.62677 0.67524 0.0
H957 H 0.71381 0.8656 0.68435 0.0
H958 H 0.80467 0.66052 0.15723 0.0
H959 H 0.77286 0.6922 0.15813 0.0
H960 H 0.7949 0.71201 0.21354 0.0
H961 H 0.8271 0.68058 0.21269 0.0
H962 H 0.73352 0.70529 0.17896 0.0
H963 H 0.79469 0.77587 0.21575 0.0
H964 H 0.83849 0.78312 0.22255 0.0
H965 H 0.859 0.74395 0.17325 0.0
H966 H 0.81527 0.73697 0.16591 0.0
H967 H 0.66688 0.81706 0.19182 0.0
H968 H 0.69623 0.78479 0.20025 0.0
H969 H 0.73866 0.80059 0.15124 0.0
H970 H 0.70906 0.83257 0.14243 0.0
H971 H 0.76706 0.78982 0.18522 0.0
H972 H 0.70022 0.76001 0.14719 0.0
H973 H 0.65657 0.75323 0.13977 0.0
H974 H 0.64811 0.71003 0.18916 0.0
H975 H 0.69168 0.71693 0.19706 0.0
C976 C 0.80242 0.6712 0.1698 0.0
C977 C 0.81873 0.66828 0.18477 0.0
C978 C 0.78417 0.68931 0.17029 0.0
C979 C 0.78188 0.70483 0.18574 0.0
C980 C 0.79666 0.70052 0.20135 0.0
C981 C 0.81499 0.68244 0.20086 0.0
C982 C 0.7658 0.72689 0.18462 0.0
C983 C 0.74079 0.72375 0.18053 0.0
C984 C 0.77536 0.75102 0.18649 0.0
C985 C 0.80171 0.75565 0.19042 0.0
C986 C 0.80854 0.76891 0.20632 0.0
C987 C 0.83336 0.77296 0.21027 0.0
C988 C 0.85153 0.76389 0.1984 0.0
C989 C 0.84491 0.75089 0.18247 0.0
C990 C 0.8201 0.74691 0.17839 0.0
C991 C 0.68279 0.81414 0.18306 0.0
C992 C 0.68562 0.82729 0.16638 0.0
C993 C 0.69946 0.7956 0.18788 0.0
C994 C 0.71942 0.79019 0.17627 0.0
C995 C 0.72333 0.80452 0.16036 0.0
C996 C 0.70641 0.82275 0.15534 0.0
C997 C 0.73483 0.76816 0.17965 0.0
C998 C 0.7597 0.77134 0.18405 0.0
C999 C 0.72518 0.74407 0.17794 0.0
C1000 C 0.69909 0.73954 0.17298 0.0
C1001 C 0.68899 0.74939 0.15663 0.0
C1002 C 0.66427 0.74544 0.1523 0.0
C1003 C 0.64952 0.73138 0.16407 0.0
C1004 C 0.65952 0.72107 0.18012 0.0
C1005 C 0.68422 0.725 0.18454 0.0
H1006 H 0.63038 0.72835 0.16069 0.0
H1007 H 0.87072 0.76704 0.20151 0.0
H1008 H 0.15451 0.06813 0.31667 0.0
H1009 H 0.18226 0.06304 0.29045 0.0
H1010 H 0.24219 0.09129 0.32323 0.0
H1011 H 0.21427 0.09685 0.34959 0.0
H1012 H 0.24014 0.11394 0.29053 0.0
H1013 H 0.23904 0.02994 0.31038 0.0
H1014 H 0.22039 0.99052 0.31974 0.0
H1015 H 0.18527 0.98455 0.26666 0.0
H1016 H 0.20345 0.02412 0.25706 0.0
H1017 H 0.33767 0.07856 0.23095 0.0
H1018 H 0.30878 0.07633 0.25666 0.0
H1019 H 0.24813 0.07546 0.2183 0.0
H1020 H 0.27711 0.07838 0.19216 0.0
H1021 H 0.25011 0.0381 0.25292 0.0
H1022 H 0.24797 0.12352 0.23437 0.0
H1023 H 0.26608 0.16315 0.22504 0.0
H1024 H 0.30739 0.16565 0.27572 0.0
H1025 H 0.28948 0.1259 0.28532 0.0
C1026 C 0.17368 0.07293 0.31845 0.0
C1027 C 0.18214 0.08293 0.33527 0.0
C1028 C 0.18958 0.06989 0.30341 0.0
C1029 C 0.21441 0.07662 0.30482 0.0
C1030 C 0.22312 0.08593 0.32179 0.0
C1031 C 0.20718 0.08895 0.3369 0.0
C1032 C 0.23072 0.07554 0.28823 0.0
C1033 C 0.24253 0.09722 0.28252 0.0
C1034 C 0.23337 0.05394 0.27735 0.0
C1035 C 0.22243 0.03012 0.28307 0.0
C1036 C 0.22718 0.02033 0.30075 0.0
C1037 C 0.21673 0.99793 0.30609 0.0
C1038 C 0.20161 0.98507 0.29382 0.0
C1039 C 0.19697 0.99455 0.27616 0.0
C1040 C 0.20736 0.01695 0.27076 0.0
C1041 C 0.31822 0.07762 0.22783 0.0
C1042 C 0.30974 0.0787 0.20941 0.0
C1043 C 0.30173 0.07638 0.24261 0.0
C1044 C 0.27637 0.07579 0.23938 0.0
C1045 C 0.2677 0.07585 0.22104 0.0
C1046 C 0.28425 0.07753 0.20615 0.0
C1047 C 0.25926 0.07644 0.25539 0.0
C1048 C 0.24751 0.05473 0.261 0.0
C1049 C 0.25656 0.09795 0.26621 0.0
C1050 C 0.26764 0.12164 0.26045 0.0
C1051 C 0.26112 0.1324 0.24343 0.0
C1052 C 0.27127 0.15493 0.23813 0.0
C1053 C 0.28798 0.16688 0.24974 0.0
C1054 C 0.29448 0.15635 0.26672 0.0
C1055 C 0.28429 0.13385 0.27212 0.0
H1056 H 0.29583 0.18434 0.2456 0.0
H1057 H 0.19354 0.96773 0.29797 0.0
H1058 H 0.45241 0.28726 0.69505 0.0
H1059 H 0.46152 0.26149 0.72214 0.0
H1060 H 0.43006 0.31687 0.75791 0.0
H1061 H 0.42234 0.34303 0.73124 0.0
H1062 H 0.46676 0.29769 0.77489 0.0
H1063 H 0.39761 0.2632 0.7405 0.0
H1064 H 0.37971 0.24695 0.71159 0.0
H1065 H 0.43329 0.1888 0.71093 0.0
H1066 H 0.45178 0.205 0.73967 0.0
H1067 H 0.42432 0.22813 0.85225 0.0
H1068 H 0.42998 0.25418 0.82492 0.0
H1069 H 0.46505 0.19386 0.79636 0.0
H1070 H 0.45911 0.16766 0.82347 0.0
H1071 H 0.43148 0.21359 0.77487 0.0
H1072 H 0.49778 0.24509 0.81109 0.0
H1073 H 0.51793 0.26252 0.83872 0.0
H1074 H 0.47106 0.32607 0.83579 0.0
H1075 H 0.45039 0.30887 0.80829 0.0
C1076 C 0.44778 0.29402 0.70873 0.0
C1077 C 0.43649 0.31713 0.71093 0.0
C1078 C 0.45284 0.27923 0.72423 0.0
C1079 C 0.44595 0.2869 0.74215 0.0
C1080 C 0.43556 0.31038 0.74433 0.0
C1081 C 0.43105 0.32535 0.72897 0.0
C1082 C 0.44806 0.27029 0.75859 0.0
C1083 C 0.45888 0.27937 0.77491 0.0
C1084 C 0.43838 0.24608 0.75862 0.0
C1085 C 0.42621 0.23544 0.7421 0.0
C1086 C 0.40554 0.24693 0.73419 0.0
C1087 C 0.39535 0.23778 0.71781 0.0
C1088 C 0.40548 0.21695 0.70937 0.0
C1089 C 0.42556 0.205 0.71744 0.0
C1090 C 0.43589 0.21415 0.73378 0.0
C1091 C 0.43365 0.22054 0.84029 0.0
C1092 C 0.44123 0.19578 0.84009 0.0
C1093 C 0.43691 0.23548 0.82463 0.0
C1094 C 0.44805 0.22606 0.80852 0.0
C1095 C 0.45634 0.20158 0.80855 0.0
C1096 C 0.453 0.18663 0.82413 0.0
C1097 C 0.44973 0.2412 0.7913 0.0
C1098 C 0.43956 0.23183 0.77485 0.0
C1099 C 0.45998 0.26514 0.79119 0.0
C1100 C 0.4724 0.27558 0.80771 0.0
C1101 C 0.49164 0.2627 0.81642 0.0
C1102 C 0.50318 0.27255 0.83205 0.0
C1103 C 0.49575 0.29537 0.83903 0.0
C1104 C 0.47679 0.3084 0.83038 0.0
C1105 C 0.46517 0.29861 0.81475 0.0
H1106 H 0.50471 0.30297 0.85113 0.0
H1107 H 0.39776 0.21001 0.69658 0.0
H1108 H 0.19528 0.44836 0.20452 0.0
H1109 H 0.21983 0.45548 0.23271 0.0
H1110 H 0.20215 0.38228 0.25178 0.0
H1111 H 0.17713 0.37569 0.22446 0.0
H1112 H 0.19761 0.41052 0.27912 0.0
H1113 H 0.2603 0.4006 0.23203 0.0
H1114 H 0.28227 0.41088 0.20315 0.0
H1115 H 0.29695 0.48349 0.22385 0.0
H1116 H 0.27481 0.47369 0.25278 0.0
H1117 H 0.30538 0.37025 0.32835 0.0
H1118 H 0.27689 0.3797 0.30322 0.0
H1119 H 0.27047 0.45434 0.32283 0.0
H1120 H 0.29869 0.44475 0.34865 0.0
H1121 H 0.28511 0.43577 0.27832 0.0
H1122 H 0.22563 0.43914 0.32877 0.0
H1123 H 0.20578 0.42331 0.35706 0.0
H1124 H 0.18693 0.35651 0.32868 0.0
H1125 H 0.2073 0.37167 0.30037 0.0
C1126 C 0.19677 0.43387 0.21476 0.0
C1127 C 0.18411 0.41156 0.21233 0.0
C1128 C 0.21083 0.43789 0.23086 0.0
C1129 C 0.21292 0.41942 0.24452 0.0
C1130 C 0.20066 0.39703 0.24172 0.0
C1131 C 0.18636 0.39323 0.22598 0.0
C1132 C 0.22757 0.42283 0.26187 0.0
C1133 C 0.21673 0.41615 0.27885 0.0
C1134 C 0.25242 0.43062 0.26182 0.0
C1135 C 0.26563 0.43654 0.24444 0.0
C1136 C 0.26805 0.41882 0.23035 0.0
C1137 C 0.28056 0.42454 0.21399 0.0
C1138 C 0.29092 0.44786 0.21164 0.0
C1139 C 0.28885 0.46547 0.22567 0.0
C1140 C 0.27633 0.45984 0.24205 0.0
C1141 C 0.29782 0.38868 0.32745 0.0
C1142 C 0.30429 0.40678 0.34049 0.0
C1143 C 0.28154 0.39402 0.31306 0.0
C1144 C 0.27162 0.41768 0.31117 0.0
C1145 C 0.27789 0.43591 0.32414 0.0
C1146 C 0.29388 0.4304 0.33889 0.0
C1147 C 0.25521 0.42289 0.29522 0.0
C1148 C 0.26578 0.43092 0.27854 0.0
C1149 C 0.23028 0.41572 0.29542 0.0
C1150 C 0.21828 0.40645 0.31251 0.0
C1151 C 0.2176 0.42093 0.32864 0.0
C1152 C 0.20617 0.4121 0.34467 0.0
C1153 C 0.19511 0.38891 0.34467 0.0
C1154 C 0.19545 0.3745 0.32864 0.0
C1155 C 0.20699 0.38318 0.31262 0.0
H1156 H 0.18628 0.3821 0.35709 0.0
H1157 H 0.30061 0.45225 0.19897 0.0
H1158 H 0.06352 0.21807 0.69501 0.0
H1159 H 0.05514 0.24338 0.72255 0.0
H1160 H 0.09517 0.19162 0.75642 0.0
H1161 H 0.1034 0.1664 0.72926 0.0
H1162 H 0.05429 0.20713 0.77403 0.0
H1163 H 0.12223 0.24371 0.74099 0.0
H1164 H 0.14257 0.26201 0.71372 0.0
H1165 H 0.08877 0.31991 0.71259 0.0
H1166 H 0.06789 0.30173 0.73969 0.0
H1167 H 0.09125 0.2786 0.85236 0.0
H1168 H 0.08736 0.25209 0.82507 0.0
H1169 H 0.0507 0.31074 0.79566 0.0
H1170 H 0.05493 0.33737 0.82268 0.0
H1171 H 0.08586 0.29269 0.77495 0.0
H1172 H 0.01998 0.25772 0.81011 0.0
H1173 H 0.00012 0.23902 0.8374 0.0
H1174 H 0.05022 0.17796 0.83481 0.0
H1175 H 0.0706 0.19645 0.80765 0.0
C1176 C 0.07026 0.21198 0.70837 0.0
C1177 C 0.08429 0.19031 0.70989 0.0
C1178 C 0.06555 0.22649 0.72409 0.0
C1179 C 0.07474 0.21952 0.74156 0.0
C1180 C 0.08788 0.19741 0.74314 0.0
C1181 C 0.09268 0.18306 0.72751 0.0
C1182 C 0.07193 0.23562 0.75815 0.0
C1183 C 0.06127 0.22581 0.77427 0.0
C1184 C 0.08067 0.26014 0.75841 0.0
C1185 C 0.09333 0.27121 0.74223 0.0
C1186 C 0.11463 0.26024 0.73483 0.0
C1187 C 0.12627 0.2706 0.71943 0.0
C1188 C 0.11692 0.29207 0.7114 0.0
C1189 C 0.09596 0.30326 0.7188 0.0
C1190 C 0.08422 0.29294 0.73418 0.0
C1191 C 0.08191 0.28567 0.84022 0.0
C1192 C 0.07347 0.31015 0.83972 0.0
C1193 C 0.07968 0.27048 0.82458 0.0
C1194 C 0.06868 0.27935 0.80823 0.0
C1195 C 0.05937 0.30346 0.80802 0.0
C1196 C 0.06172 0.31865 0.82355 0.0
C1197 C 0.06829 0.26419 0.79097 0.0
C1198 C 0.0785 0.27415 0.77471 0.0
C1199 C 0.05919 0.23979 0.79062 0.0
C1200 C 0.04695 0.22859 0.80693 0.0
C1201 C 0.02688 0.2404 0.81545 0.0
C1202 C 0.01551 0.22982 0.83088 0.0
C1203 C 0.02394 0.20735 0.83786 0.0
C1204 C 0.04373 0.19538 0.8294 0.0
C1205 C 0.05518 0.20589 0.81397 0.0
H1206 H 0.01511 0.19919 0.84981 0.0
H1207 H 0.12596 0.30007 0.69948 0.0
H1208 H 0.67689 0.91938 0.82687 0.0
H1209 H 0.69476 0.91932 0.7959 0.0
H1210 H 0.76058 0.95308 0.81714 0.0
H1211 H 0.74295 0.95285 0.84851 0.0
H1212 H 0.74227 0.97251 0.78111 0.0
H1213 H 0.76585 0.89711 0.8106 0.0
H1214 H 0.75878 0.85933 0.82873 0.0
H1215 H 0.70881 0.83312 0.78717 0.0
H1216 H 0.71542 0.87093 0.76884 0.0
H1217 H 0.81787 0.9407 0.70287 0.0
H1218 H 0.80017 0.94909 0.7334 0.0
H1219 H 0.73899 0.90158 0.72072 0.0
H1220 H 0.75673 0.89292 0.69033 0.0
H1221 H 0.75676 0.89014 0.75344 0.0
H1222 H 0.73344 0.96575 0.72372 0.0
H1223 H 0.74 0.00405 0.70607 0.0
H1224 H 0.78922 0.03022 0.74816 0.0
H1225 H 0.7832 0.99191 0.76596 0.0
C1226 C 0.69505 0.92715 0.82503 0.0
C1227 C 0.7085 0.93603 0.84031 0.0
C1228 C 0.70526 0.92702 0.80726 0.0
C1229 C 0.72907 0.93601 0.80421 0.0
C1230 C 0.74216 0.94605 0.81919 0.0
C1231 C 0.73206 0.94588 0.83711 0.0
C1232 C 0.74057 0.9334 0.78558 0.0
C1233 C 0.74582 0.95454 0.77513 0.0
C1234 C 0.74474 0.90994 0.77765 0.0
C1235 C 0.74092 0.88699 0.78845 0.0
C1236 C 0.7532 0.88339 0.80539 0.0
C1237 C 0.7493 0.86195 0.81569 0.0
C1238 C 0.73323 0.8439 0.80917 0.0
C1239 C 0.72119 0.84716 0.79224 0.0
C1240 C 0.72504 0.86858 0.78186 0.0
C1241 C 0.80039 0.93243 0.70642 0.0
C1242 C 0.78879 0.91604 0.69411 0.0
C1243 C 0.79026 0.93724 0.72394 0.0
C1244 C 0.76817 0.926 0.72949 0.0
C1245 C 0.75611 0.9104 0.71691 0.0
C1246 C 0.76625 0.90553 0.69945 0.0
C1247 C 0.75828 0.9293 0.74868 0.0
C1248 C 0.75331 0.90819 0.75933 0.0
C1249 C 0.75442 0.95281 0.75674 0.0
C1250 C 0.75807 0.97585 0.74607 0.0
C1251 C 0.74582 0.97958 0.72914 0.0
C1252 C 0.74941 0.00131 0.71912 0.0
C1253 C 0.76507 0.01953 0.72597 0.0
C1254 C 0.77713 0.01608 0.74287 0.0
C1255 C 0.77362 0.99437 0.75293 0.0
H1256 H 0.76782 0.03634 0.7182 0.0
H1257 H 0.73017 0.82739 0.81723 0.0
H1258 H 0.578 0.71947 0.35006 0.0
H1259 H 0.57551 0.74724 0.32321 0.0
H1260 H 0.57415 0.68469 0.28652 0.0
H1261 H 0.57607 0.65697 0.31305 0.0
H1262 H 0.61036 0.72137 0.27754 0.0
H1263 H 0.52372 0.71447 0.29159 0.0
H1264 H 0.48735 0.71732 0.31187 0.0
H1265 H 0.50105 0.79431 0.32036 0.0
H1266 H 0.53773 0.79184 0.30032 0.0
H1267 H 0.58979 0.78308 0.19208 0.0
H1268 H 0.58441 0.75444 0.21813 0.0
H1269 H 0.57219 0.81576 0.25496 0.0
H1270 H 0.57733 0.84424 0.22915 0.0
H1271 H 0.5422 0.7794 0.26401 0.0
H1272 H 0.62737 0.78864 0.25204 0.0
H1273 H 0.66621 0.78839 0.23448 0.0
H1274 H 0.65893 0.71069 0.22519 0.0
H1275 H 0.61962 0.71059 0.24224 0.0
C1276 C 0.57677 0.71164 0.3363 0.0
C1277 C 0.57719 0.68594 0.33379 0.0
C1278 C 0.5754 0.72753 0.32096 0.0
C1279 C 0.57473 0.71803 0.30283 0.0
C1280 C 0.57472 0.69245 0.30035 0.0
C1281 C 0.5757 0.67661 0.31561 0.0
C1282 C 0.57494 0.73458 0.28636 0.0
C1283 C 0.59528 0.73378 0.27439 0.0
C1284 C 0.55569 0.75139 0.28262 0.0
C1285 C 0.53361 0.75291 0.29462 0.0
C1286 C 0.51911 0.73196 0.29792 0.0
C1287 C 0.49841 0.73351 0.30934 0.0
C1288 C 0.49193 0.75596 0.31744 0.0
C1289 C 0.50611 0.77692 0.3141 0.0
C1290 C 0.52684 0.77546 0.3027 0.0
C1291 C 0.58547 0.79039 0.20566 0.0
C1292 C 0.58409 0.81596 0.20853 0.0
C1293 C 0.5826 0.77402 0.22059 0.0
C1294 C 0.57821 0.78292 0.23863 0.0
C1295 C 0.57559 0.80837 0.24125 0.0
C1296 C 0.57862 0.82467 0.22643 0.0
C1297 C 0.57753 0.76602 0.25496 0.0
C1298 C 0.5572 0.76683 0.26699 0.0
C1299 C 0.59709 0.74959 0.25899 0.0
C1300 C 0.62034 0.74967 0.24821 0.0
C1301 C 0.63382 0.77156 0.24601 0.0
C1302 C 0.65595 0.77148 0.23617 0.0
C1303 C 0.66499 0.74956 0.22869 0.0
C1304 C 0.65185 0.72769 0.23093 0.0
C1305 C 0.62961 0.72769 0.24065 0.0
H1306 H 0.68227 0.74952 0.22128 0.0
H1307 H 0.4759 0.75713 0.32628 0.0
H1308 H 0.75421 0.57214 0.85049 0.0
H1309 H 0.73754 0.56817 0.81903 0.0
H1310 H 0.81078 0.55817 0.79758 0.0
H1311 H 0.82755 0.56139 0.82898 0.0
H1312 H 0.77852 0.59983 0.78218 0.0
H1313 H 0.78016 0.51201 0.79453 0.0
H1314 H 0.76985 0.47504 0.81274 0.0
H1315 H 0.6929 0.4902 0.80588 0.0
H1316 H 0.70276 0.52749 0.78786 0.0
H1317 H 0.74685 0.59076 0.68807 0.0
H1318 H 0.76568 0.58314 0.71827 0.0
H1319 H 0.69559 0.55939 0.73976 0.0
H1320 H 0.67703 0.56575 0.70934 0.0
H1321 H 0.72733 0.53323 0.75549 0.0
H1322 H 0.72073 0.61993 0.74839 0.0
H1323 H 0.72533 0.6612 0.73467 0.0
H1324 H 0.80382 0.65305 0.73509 0.0
H1325 H 0.79969 0.61173 0.74899 0.0
C1326 C 0.76672 0.56852 0.83913 0.0
C1327 C 0.79222 0.56707 0.84229 0.0
C1328 C 0.75716 0.56628 0.82116 0.0
C1329 C 0.77294 0.56294 0.80597 0.0
C1330 C 0.79829 0.56069 0.80912 0.0
C1331 C 0.80782 0.56242 0.82711 0.0
C1332 C 0.76319 0.5639 0.78672 0.0
C1333 C 0.76773 0.58508 0.77617 0.0
C1334 C 0.74812 0.54518 0.77927 0.0
C1335 C 0.74221 0.52268 0.79 0.0
C1336 C 0.76104 0.5076 0.79705 0.0
C1337 C 0.75528 0.48655 0.80731 0.0
C1338 C 0.73074 0.48031 0.81051 0.0
C1339 C 0.71191 0.49507 0.80341 0.0
C1340 C 0.71757 0.51615 0.79316 0.0
C1341 C 0.73554 0.58351 0.69914 0.0
C1342 C 0.71041 0.5789 0.69624 0.0
C1343 C 0.74628 0.57941 0.71653 0.0
C1344 C 0.73201 0.57126 0.73161 0.0
C1345 C 0.70711 0.56572 0.72849 0.0
C1346 C 0.69647 0.56937 0.71101 0.0
C1347 C 0.7428 0.56922 0.75067 0.0
C1348 C 0.73836 0.54794 0.7613 0.0
C1349 C 0.75724 0.58828 0.75853 0.0
C1350 C 0.75989 0.61265 0.74952 0.0
C1351 C 0.73896 0.62683 0.74536 0.0
C1352 C 0.74148 0.65025 0.73759 0.0
C1353 C 0.76483 0.65967 0.73387 0.0
C1354 C 0.78574 0.6457 0.73793 0.0
C1355 C 0.78333 0.62231 0.74581 0.0
H1356 H 0.76672 0.67788 0.72797 0.0
H1357 H 0.72632 0.46401 0.81845 0.0
H1358 H 0.90102 0.83971 0.30674 0.0
H1359 H 0.90615 0.81091 0.28125 0.0
H1360 H 0.92482 0.7533 0.31985 0.0
H1361 H 0.91952 0.78229 0.34581 0.0
H1362 H 0.95479 0.7542 0.28676 0.0
H1363 H 0.86962 0.75247 0.30357 0.0
H1364 H 0.82921 0.77036 0.31122 0.0
H1365 H 0.82589 0.80447 0.25759 0.0
H1366 H 0.86656 0.78713 0.24977 0.0
H1367 H 0.93347 0.6554 0.22377 0.0
H1368 H 0.93553 0.68407 0.24967 0.0
H1369 H 0.9052 0.74146 0.21524 0.0
H1370 H 0.90242 0.71253 0.18925 0.0
H1371 H 0.88167 0.74 0.24709 0.0
H1372 H 0.96667 0.74126 0.23 0.0
H1373 H 0.00724 0.72369 0.2224 0.0
H1374 H 0.01131 0.69065 0.27636 0.0
H1375 H 0.97059 0.70776 0.28421 0.0
C1376 C 0.90642 0.82099 0.30994 0.0
C1377 C 0.90967 0.81332 0.32843 0.0
C1378 C 0.9093 0.8045 0.29527 0.0
C1379 C 0.91554 0.77986 0.29861 0.0
C1380 C 0.91991 0.77225 0.31696 0.0
C1381 C 0.91687 0.78881 0.33178 0.0
C1382 C 0.9164 0.76216 0.28284 0.0
C1383 C 0.93873 0.75074 0.27824 0.0
C1384 C 0.89561 0.75814 0.27144 0.0
C1385 C 0.87118 0.76862 0.27612 0.0
C1386 C 0.86036 0.76395 0.29346 0.0
C1387 C 0.83741 0.77398 0.29783 0.0
C1388 C 0.825 0.7886 0.28492 0.0
C1389 C 0.83552 0.79317 0.26759 0.0
C1390 C 0.85851 0.78322 0.26317 0.0
C1391 C 0.92756 0.67422 0.22155 0.0
C1392 C 0.91781 0.6816 0.20435 0.0
C1393 C 0.92885 0.69068 0.23643 0.0
C1394 C 0.92068 0.71508 0.23447 0.0
C1395 C 0.9116 0.72274 0.21714 0.0
C1396 C 0.91022 0.70622 0.20222 0.0
C1397 C 0.92017 0.73202 0.2508 0.0
C1398 C 0.8978 0.74335 0.25555 0.0
C1399 C 0.94096 0.7359 0.2623 0.0
C1400 C 0.96546 0.72561 0.25763 0.0
C1401 C 0.97612 0.73009 0.2402 0.0
C1402 C 0.99917 0.72024 0.23585 0.0
C1403 C 0.01182 0.70601 0.24887 0.0
C1404 C 0.00148 0.70165 0.26628 0.0
C1405 C 0.97842 0.71144 0.2707 0.0
H1406 H 0.02966 0.6984 0.24548 0.0
H1407 H 0.80722 0.79634 0.28833 0.0
H1408 H 0.40228 0.04641 0.17732 0.0
H1409 H 0.43515 0.01637 0.18072 0.0
H1410 H 0.48907 0.07317 0.17145 0.0
H1411 H 0.456 0.10354 0.16766 0.0
H1412 H 0.49946 0.03315 0.15128 0.0
H1413 H 0.4816 0.04799 0.21469 0.0
H1414 H 0.45574 0.05338 0.24245 0.0
H1415 H 0.43015 0.97896 0.23743 0.0
H1416 H 0.45557 0.97322 0.20948 0.0
H1417 H 0.59039 0.93961 0.16881 0.0
H1418 H 0.56698 0.978 0.17249 0.0
H1419 H 0.50014 0.93618 0.1785 0.0
H1420 H 0.52324 0.89801 0.17495 0.0
H1421 H 0.50248 0.97375 0.20346 0.0
H1422 H 0.51539 0.96196 0.13741 0.0
H1423 H 0.54093 0.95663 0.10946 0.0
H1424 H 0.57616 0.02591 0.11995 0.0
H1425 H 0.55103 0.03148 0.14812 0.0
C1426 C 0.4211 0.05267 0.17614 0.0
C1427 C 0.42646 0.07746 0.17221 0.0
C1428 C 0.43994 0.03543 0.17821 0.0
C1429 C 0.46465 0.04252 0.1766 0.0
C1430 C 0.47015 0.06729 0.17284 0.0
C1431 C 0.45123 0.08463 0.17074 0.0
C1432 C 0.48442 0.02363 0.17795 0.0
C1433 C 0.5005 0.02053 0.16291 0.0
C1434 C 0.48566 0.00694 0.19301 0.0
C1435 C 0.47042 0.01023 0.20991 0.0
C1436 C 0.47034 0.03282 0.21943 0.0
C1437 C 0.45577 0.03593 0.23522 0.0
C1438 C 0.44129 0.01654 0.24169 0.0
C1439 C 0.44138 0.99397 0.2324 0.0
C1440 C 0.4559 0.99077 0.2166 0.0
C1441 C 0.57074 0.93863 0.17109 0.0
C1442 C 0.55866 0.91576 0.17148 0.0
C1443 C 0.55739 0.96057 0.17312 0.0
C1444 C 0.53177 0.95996 0.17563 0.0
C1445 C 0.51988 0.93712 0.1766 0.0
C1446 C 0.53313 0.91528 0.17447 0.0
C1447 C 0.51692 0.98292 0.17657 0.0
C1448 C 0.50176 0.98674 0.19205 0.0
C1449 C 0.51657 1.00029 0.16195 0.0
C1450 C 0.53157 0.99699 0.14498 0.0
C1451 C 0.52873 0.97596 0.13383 0.0
C1452 C 0.5431 0.97291 0.11794 0.0
C1453 C 0.56022 0.99088 0.11297 0.0
C1454 C 0.56294 0.01198 0.12384 0.0
C1455 C 0.54863 0.01509 0.13977 0.0
H1456 H 0.57133 0.98849 0.10066 0.0
H1457 H 0.43002 0.01898 0.25391 0.0
H1458 H 0.5734 0.57974 0.68061 0.0
H1459 H 0.53424 0.55832 0.68583 0.0
H1460 H 0.54761 0.51333 0.63762 0.0
H1461 H 0.58628 0.53456 0.63227 0.0
H1462 H 0.50041 0.52857 0.63884 0.0
H1463 H 0.56004 0.4926 0.68151 0.0
H1464 H 0.58963 0.49419 0.70738 0.0
H1465 H 0.53317 0.52174 0.74346 0.0
H1466 H 0.50332 0.52059 0.71771 0.0
H1467 H 0.44515 0.4138 0.64556 0.0
H1468 H 0.47177 0.44961 0.64442 0.0
H1469 H 0.43937 0.47714 0.69489 0.0
H1470 H 0.41255 0.44081 0.69628 0.0
H1471 H 0.48929 0.47909 0.69601 0.0
H1472 H 0.42771 0.50643 0.65432 0.0
H1473 H 0.39837 0.50364 0.62837 0.0
H1474 H 0.45799 0.49226 0.59033 0.0
H1475 H 0.48768 0.49461 0.61607 0.0
C1476 C 0.56785 0.56542 0.67106 0.0
C1477 C 0.58304 0.55877 0.65608 0.0
C1478 C 0.54552 0.55315 0.67409 0.0
C1479 C 0.53806 0.5341 0.66218 0.0
C1480 C 0.55292 0.52799 0.64697 0.0
C1481 C 0.57514 0.5401 0.64399 0.0
C1482 C 0.51534 0.51962 0.66563 0.0
C1483 C 0.49794 0.51776 0.65134 0.0
C1484 C 0.51164 0.50618 0.68221 0.0
C1485 C 0.52956 0.50682 0.69765 0.0
C1486 C 0.554 0.49919 0.69493 0.0
C1487 C 0.5708 0.49997 0.70957 0.0
C1488 C 0.5633 0.50815 0.72704 0.0
C1489 C 0.53897 0.51548 0.72991 0.0
C1490 C 0.5221 0.51476 0.71531 0.0
C1491 C 0.44343 0.42751 0.65638 0.0
C1492 C 0.42668 0.42438 0.67104 0.0
C1493 C 0.45861 0.44813 0.65563 0.0
C1494 C 0.45739 0.46627 0.66943 0.0
C1495 C 0.44053 0.46342 0.68403 0.0
C1496 C 0.42517 0.44271 0.68477 0.0
C1497 C 0.47488 0.48727 0.66888 0.0
C1498 C 0.49131 0.49038 0.6837 0.0
C1499 C 0.4777 0.50187 0.65277 0.0
C1500 C 0.45993 0.50061 0.63717 0.0
C1501 C 0.43456 0.50318 0.64044 0.0
C1502 C 0.41787 0.5017 0.62576 0.0
C1503 C 0.42631 0.49775 0.60772 0.0
C1504 C 0.45148 0.49533 0.60431 0.0
C1505 C 0.46825 0.49679 0.61894 0.0
H1506 H 0.41335 0.4966 0.59638 0.0
H1507 H 0.57633 0.50873 0.73836 0.0
H1508 H 0.05179 0.4058 0.13392 0.0
H1509 H 0.01581 0.43263 0.13584 0.0
H1510 H 0.04435 0.46504 0.18595 0.0
H1511 H 0.08021 0.43789 0.18433 0.0
H1512 H 0.99491 0.46054 0.18783 0.0
H1513 H 0.05349 0.49265 0.1443 0.0
H1514 H 0.08094 0.49115 0.11713 0.0
H1515 H 0.01925 0.47636 0.08177 0.0
H1516 H 0.99145 0.47742 0.10878 0.0
H1517 H 0.93289 0.57688 0.18257 0.0
H1518 H 0.962 0.54266 0.18498 0.0
H1519 H 0.93306 0.51155 0.13453 0.0
H1520 H 0.90416 0.54579 0.13189 0.0
H1521 H 0.98176 0.51431 0.13313 0.0
H1522 H 0.92271 0.48456 0.17703 0.0
H1523 H 0.89579 0.48672 0.20447 0.0
H1524 H 0.95862 0.49821 0.23939 0.0
H1525 H 0.98591 0.49645 0.21212 0.0
C1526 C 0.05026 0.41835 0.14552 0.0
C1527 C 0.06905 0.41988 0.15885 0.0
C1528 C 0.0297 0.43376 0.14656 0.0
C1529 C 0.02762 0.45123 0.16082 0.0
C1530 C 0.04561 0.4518 0.17476 0.0
C1531 C 0.06614 0.43627 0.1738 0.0
C1532 C 0.00763 0.46997 0.16048 0.0
C1533 C 0.99215 0.47246 0.17594 0.0
C1534 C 0.00378 0.48532 0.14488 0.0
C1535 C 0.02043 0.48485 0.12859 0.0
C1536 C 0.0458 0.4889 0.13075 0.0
C1537 C 0.06142 0.48815 0.11537 0.0
C1538 C 0.05186 0.48359 0.09774 0.0
C1539 C 0.02664 0.47984 0.09544 0.0
C1540 C 0.01094 0.48053 0.11077 0.0
C1541 C 0.93246 0.56257 0.17214 0.0
C1542 C 0.91622 0.56416 0.157 0.0
C1543 C 0.94908 0.54295 0.17357 0.0
C1544 C 0.94969 0.52444 0.15997 0.0
C1545 C 0.93298 0.52562 0.14517 0.0
C1546 C 0.91639 0.5452 0.14372 0.0
C1547 C 0.96881 0.50481 0.16041 0.0
C1548 C 0.98431 0.50227 0.14498 0.0
C1549 C 0.97269 0.48957 0.17608 0.0
C1550 C 0.95633 0.4906 0.1925 0.0
C1551 C 0.93077 0.48775 0.19054 0.0
C1552 C 0.91545 0.48886 0.20607 0.0
C1553 C 0.92548 0.49266 0.22366 0.0
C1554 C 0.95087 0.49529 0.22576 0.0
C1555 C 0.96628 0.49421 0.21027 0.0
H1556 H 0.91359 0.49352 0.23566 0.0
H1557 H 0.06398 0.48301 0.08586 0.0
H1558 H 0.92219 0.92482 0.68056 0.0
H1559 H 0.95949 0.94921 0.68603 0.0
H1560 H 0.94992 0.9848 0.63309 0.0
H1561 H 0.91303 0.96062 0.62751 0.0
H1562 H 0.99777 0.9733 0.63915 0.0
H1563 H 0.93089 0.01232 0.67269 0.0
H1564 H 0.8974 0.01366 0.69571 0.0
H1565 H 0.94855 0.99571 0.73899 0.0
H1566 H 0.9823 0.99396 0.71616 0.0
H1567 H 0.0561 0.08814 0.64229 0.0
H1568 H 0.02876 0.05288 0.64042 0.0
H1569 H 0.04574 0.03397 0.69707 0.0
H1570 H 0.07257 0.07004 0.69927 0.0
H1571 H 0.99863 0.03135 0.69219 0.0
H1572 H 0.06697 0.99883 0.6587 0.0
H1573 H 0.1001 0.999 0.63538 0.0
H1574 H 0.04668 0.00505 0.59182 0.0
H1575 H 0.01324 0.00523 0.61488 0.0
C1576 C 0.92822 0.93766 0.67002 0.0
C1577 C 0.91454 0.9409 0.65366 0.0
C1578 C 0.94947 0.95164 0.67319 0.0
C1579 C 0.9574 0.96899 0.66002 0.0
C1580 C 0.94421 0.97154 0.64344 0.0
C1581 C 0.92301 0.95775 0.64032 0.0
C1582 C 0.97866 0.98547 0.66362 0.0
C1583 C 0.998 0.98602 0.65074 0.0
C1584 C 0.97929 0.00162 0.67899 0.0
C1585 C 0.95903 0.00269 0.6927 0.0
C1586 C 0.93494 0.00846 0.6871 0.0
C1587 C 0.91593 0.00933 0.70011 0.0
C1588 C 0.92083 0.00469 0.71879 0.0
C1589 C 0.94477 0.99924 0.72451 0.0
C1590 C 0.96385 0.99831 0.71154 0.0
C1591 C 0.05431 0.07635 0.65432 0.0
C1592 C 0.06658 0.08194 0.67094 0.0
C1593 C 0.03873 0.05602 0.65318 0.0
C1594 C 0.03542 0.0404 0.6685 0.0
C1595 C 0.04803 0.04566 0.68503 0.0
C1596 C 0.06342 0.06624 0.68626 0.0
C1597 C 0.01761 0.01963 0.66748 0.0
C1598 C 0.99885 0.01828 0.68082 0.0
C1599 C 0.01753 0.00274 0.65251 0.0
C1600 C 0.03759 0.00215 0.63855 0.0
C1601 C 0.06229 1.00029 0.64415 0.0
C1602 C 0.08113 1.00032 0.63097 0.0
C1603 C 0.0755 0.00207 0.61213 0.0
C1604 C 0.05102 0.00369 0.60642 0.0
C1605 C 0.03211 0.00367 0.61954 0.0
H1606 H 0.09011 0.00215 0.60195 0.0
H1607 H 0.90609 0.00538 0.72885 0.0
H1608 H 0.57654 0.56487 0.41751 0.0
H1609 H 0.54903 0.52969 0.41443 0.0
H1610 H 0.54293 0.5432 0.35574 0.0
H1611 H 0.57047 0.57867 0.35869 0.0
H1612 H 0.50138 0.53122 0.40309 0.0
H1613 H 0.53362 0.48585 0.33464 0.0
H1614 H 0.57193 0.47983 0.31689 0.0
H1615 H 0.61414 0.4857 0.36696 0.0
H1616 H 0.5761 0.49139 0.38502 0.0
H1617 H 0.40798 0.45457 0.36952 0.0
H1618 H 0.44175 0.48407 0.36896 0.0
H1619 H 0.49161 0.42795 0.38837 0.0
H1620 H 0.45785 0.39814 0.38894 0.0
H1621 H 0.51296 0.45921 0.36166 0.0
H1622 H 0.46818 0.46522 0.41894 0.0
H1623 H 0.43077 0.46954 0.43798 0.0
H1624 H 0.4163 0.54008 0.41341 0.0
H1625 H 0.45341 0.53598 0.39398 0.0
C1626 C 0.56961 0.56026 0.40388 0.0
C1627 C 0.57565 0.5747 0.38835 0.0
C1628 C 0.55381 0.54015 0.40217 0.0
C1629 C 0.5439 0.53381 0.38488 0.0
C1630 C 0.5505 0.54765 0.36921 0.0
C1631 C 0.5662 0.56795 0.37092 0.0
C1632 C 0.52559 0.51361 0.38352 0.0
C1633 C 0.50395 0.51551 0.39401 0.0
C1634 C 0.52902 0.49294 0.37185 0.0
C1635 C 0.55201 0.48933 0.36114 0.0
C1636 C 0.55108 0.48578 0.34186 0.0
C1637 C 0.57275 0.48243 0.33175 0.0
C1638 C 0.59546 0.48247 0.34078 0.0
C1639 C 0.59655 0.48578 0.35996 0.0
C1640 C 0.57494 0.48911 0.37014 0.0
C1641 C 0.42617 0.44833 0.37343 0.0
C1642 C 0.43012 0.42401 0.37948 0.0
C1643 C 0.44546 0.46526 0.37311 0.0
C1644 C 0.46911 0.45829 0.37885 0.0
C1645 C 0.47348 0.43371 0.3839 0.0
C1646 C 0.45414 0.41672 0.38427 0.0
C1647 C 0.48866 0.47715 0.38097 0.0
C1648 C 0.51044 0.475 0.37067 0.0
C1649 C 0.48556 0.4975 0.393 0.0
C1650 C 0.46346 0.5002 0.40489 0.0
C1651 C 0.45693 0.48158 0.41751 0.0
C1652 C 0.43579 0.48399 0.42838 0.0
C1653 C 0.42115 0.50505 0.42688 0.0
C1654 C 0.42765 0.52377 0.41454 0.0
C1655 C 0.44874 0.52142 0.40361 0.0
H1656 H 0.40478 0.50689 0.4353 0.0
H1657 H 0.61222 0.47988 0.33293 0.0
H1658 H 0.10128 0.45354 0.89577 0.0
H1659 H 0.07212 0.48726 0.89041 0.0
H1660 H 0.02706 0.43895 0.85737 0.0
H1661 H 0.05619 0.40554 0.86226 0.0
H1662 H 0.02786 0.48347 0.84238 0.0
H1663 H 0.01563 0.44971 0.904 0.0
H1664 H 0.02872 0.43864 0.93566 0.0
H1665 H 0.04632 0.51424 0.94676 0.0
H1666 H 0.03364 0.52568 0.91506 0.0
H1667 H 0.90465 0.51878 0.85238 0.0
H1668 H 0.94536 0.50015 0.85199 0.0
H1669 H 0.97436 0.56205 0.88231 0.0
H1670 H 0.93329 0.58084 0.88292 0.0
H1671 H 0.98745 0.51874 0.898 0.0
H1672 H 0.99122 0.5528 0.83735 0.0
H1673 H 0.97651 0.56255 0.80589 0.0
H1674 H 0.97331 0.48551 0.79289 0.0
H1675 H 0.98767 0.47525 0.82436 0.0
C1676 C 0.08534 0.45022 0.88714 0.0
C1677 C 0.08097 0.42675 0.8796 0.0
C1678 C 0.06864 0.46949 0.88415 0.0
C1679 C 0.04718 0.46555 0.87371 0.0
C1680 C 0.04344 0.44247 0.86548 0.0
C1681 C 0.06011 0.4233 0.86838 0.0
C1682 C 0.0277 0.48471 0.87219 0.0
C1683 C 0.01901 0.49119 0.85453 0.0
C1684 C 0.01655 0.49533 0.88803 0.0
C1685 C 0.024 0.48849 0.90711 0.0
C1686 C 0.02246 0.46393 0.91316 0.0
C1687 C 0.02978 0.4576 0.93111 0.0
C1688 C 0.03842 0.47571 0.94319 0.0
C1689 C 0.03968 0.50022 0.93737 0.0
C1690 C 0.03243 0.50664 0.91942 0.0
C1691 C 0.91971 0.52868 0.85874 0.0
C1692 C 0.91568 0.55128 0.86773 0.0
C1693 C 0.94307 0.51804 0.85841 0.0
C1694 C 0.96301 0.52978 0.86698 0.0
C1695 C 0.95925 0.55271 0.87555 0.0
C1696 C 0.93581 0.56346 0.87581 0.0
C1697 C 0.98712 0.51694 0.86818 0.0
C1698 C 0.99666 0.51157 0.8858 0.0
C1699 C 0.9989 0.50718 0.8523 0.0
C1700 C 0.99044 0.51326 0.83327 0.0
C1701 C 0.98724 0.53792 0.82783 0.0
C1702 C 0.97898 0.54354 0.80998 0.0
C1703 C 0.97395 0.52467 0.7974 0.0
C1704 C 0.97723 0.50012 0.80264 0.0
C1705 C 0.98547 0.49439 0.82048 0.0
H1706 H 0.96754 0.52906 0.78359 0.0
H1707 H 0.04408 0.47078 0.95708 0.0
H1708 H 0.9161 0.9313 0.35767 0.0
H1709 H 0.94092 0.969 0.35554 0.0
H1710 H 0.9895 0.94098 0.39783 0.0
H1711 H 0.965 0.90375 0.40012 0.0
H1712 H 0.97783 0.98841 0.40421 0.0
H1713 H 0.00449 0.93842 0.3519 0.0
H1714 H 0.99822 0.91604 0.32256 0.0
H1715 H 0.97245 0.98241 0.29665 0.0
H1716 H 0.97828 0.00512 0.32595 0.0
H1717 H 0.09609 0.03374 0.39785 0.0
H1718 H 0.05911 0.00896 0.39534 0.0
H1719 H 0.02741 0.0621 0.35791 0.0
H1720 H 0.06479 0.08747 0.36043 0.0
H1721 H 0.02248 0.01071 0.34667 0.0
H1722 H 0.00457 0.06202 0.39831 0.0
H1723 H 0.01326 0.08348 0.42767 0.0
H1724 H 0.02366 0.01407 0.45506 0.0
H1725 H 0.01544 0.99218 0.42579 0.0
C1726 C 0.93205 0.93326 0.36652 0.0
C1727 C 0.93859 0.91448 0.37903 0.0
C1728 C 0.94623 0.95477 0.36526 0.0
C1729 C 0.96711 0.9578 0.37651 0.0
C1730 C 0.97342 0.93915 0.38908 0.0
C1731 C 0.95941 0.91776 0.3903 0.0
C1732 C 0.98293 0.98003 0.3753 0.0
C1733 C 0.98752 0.99333 0.39161 0.0
C1734 C 0.995 0.98701 0.35872 0.0
C1735 C 0.99149 0.97337 0.34116 0.0
C1736 C 0.99727 0.94818 0.33999 0.0
C1737 C 0.99385 0.93545 0.32336 0.0
C1738 C 0.98486 0.94777 0.30777 0.0
C1739 C 0.97935 0.97287 0.30876 0.0
C1740 C 0.98271 0.98568 0.32536 0.0
C1741 C 0.08135 0.04029 0.38904 0.0
C1742 C 0.08339 0.06266 0.37936 0.0
C1743 C 0.06014 0.02608 0.38768 0.0
C1744 C 0.04044 0.0338 0.37659 0.0
C1745 C 0.04243 0.0559 0.3666 0.0
C1746 C 0.06371 0.07037 0.3681 0.0
C1747 C 0.01802 0.01833 0.37575 0.0
C1748 C 0.01221 0.0063 0.35912 0.0
C1749 C 0.00486 0.0124 0.39205 0.0
C1750 C 0.00947 0.02545 0.4098 0.0
C1751 C 0.00885 0.05132 0.41056 0.0
C1752 C 0.01369 0.06357 0.4272 0.0
C1753 C 0.01904 0.05015 0.44322 0.0
C1754 C 0.0195 0.02445 0.44264 0.0
C1755 C 0.01471 0.0121 0.42603 0.0
H1756 H 0.0228 0.05967 0.45608 0.0
H1757 H 0.98223 0.93789 0.2949 0.0
H1758 H 0.59908 0.97485 0.90935 0.0
H1759 H 0.56016 0.99644 0.90619 0.0
H1760 H 0.53662 0.94396 0.86504 0.0
H1761 H 0.57609 0.92219 0.86796 0.0
H1762 H 0.52798 0.99138 0.85417 0.0
H1763 H 0.51037 0.94322 0.90748 0.0
H1764 H 0.51865 0.92481 0.93809 0.0
H1765 H 0.52177 0.9968 0.96248 0.0
H1766 H 0.51387 0.01569 0.93197 0.0
H1767 H 0.4158 0.06217 0.85547 0.0
H1768 H 0.4434 0.02643 0.85736 0.0
H1769 H 0.48487 0.06255 0.90039 0.0
H1770 H 0.45748 0.09789 0.89877 0.0
H1771 H 0.47775 0.01498 0.90875 0.0
H1772 H 0.50412 0.06236 0.85514 0.0
H1773 H 0.49836 0.08175 0.82454 0.0
H1774 H 0.48 0.01156 0.801 0.0
H1775 H 0.48536 0.99181 0.83155 0.0
C1776 C 0.58563 0.96769 0.8997 0.0
C1777 C 0.59072 0.94677 0.8889 0.0
C1778 C 0.56326 0.98002 0.89799 0.0
C1779 C 0.54531 0.97165 0.88556 0.0
C1780 C 0.55017 0.95065 0.8748 0.0
C1781 C 0.57267 0.9382 0.87653 0.0
C1782 C 0.52211 0.98584 0.88339 0.0
C1783 C 0.51658 0.99602 0.866 0.0
C1784 C 0.50742 0.99215 0.89888 0.0
C1785 C 0.51159 0.98088 0.91739 0.0
C1786 C 0.51291 0.95514 0.91935 0.0
C1787 C 0.51754 0.94462 0.93669 0.0
C1788 C 0.52073 0.95963 0.95221 0.0
C1789 C 0.51925 0.9852 0.95044 0.0
C1790 C 0.51465 0.99582 0.93313 0.0
C1791 C 0.43073 0.06241 0.86539 0.0
C1792 C 0.43449 0.08297 0.87689 0.0
C1793 C 0.44651 0.042 0.86643 0.0
C1794 C 0.4663 0.04186 0.87896 0.0
C1795 C 0.4697 0.06216 0.89067 0.0
C1796 C 0.45405 0.08247 0.88963 0.0
C1797 C 0.4842 0.02118 0.87968 0.0
C1798 C 0.48872 0.00979 0.89682 0.0
C1799 C 0.49801 0.01383 0.86399 0.0
C1800 C 0.49481 0.02568 0.84565 0.0
C1801 C 0.49865 0.05111 0.84347 0.0
C1802 C 0.4955 0.06215 0.82613 0.0
C1803 C 0.48873 0.04791 0.81085 0.0
C1804 C 0.48518 0.02258 0.81286 0.0
C1805 C 0.48827 0.01145 0.83018 0.0
H1806 H 0.48631 0.05649 0.79743 0.0
H1807 H 0.52435 0.95145 0.96562 0.0
loop_
_geom_bond_atom_site_label_1
_geom_bond_atom_site_label_2
_geom_bond_distance
_geom_bond_site_symmetry_2
_ccdc_geom_bond_type
Mg0 O7 2.141 . S
Mg0 O8 2.048 . S
Mg0 O9 2.048 . S
Mg0 O12 2.141 . S
C1 O2 1.313 . S
C1 O8 1.195 . S
O2 C1 1.313 . S
C3 O4 1.245 . S
C3 O12 1.289 . S
O4 C3 1.245 . S
C5 O6 1.245 . S
C5 O7 1.289 . S
O6 C5 1.245 . S
O7 Mg0 2.141 . S
O7 C5 1.289 . S
O8 Mg0 2.048 . S
O8 C1 1.195 . S
O9 Mg0 2.048 . S
O9 C10 1.195 . S
C10 O9 1.195 . S
C10 O11 1.313 . S
O11 C10 1.313 . S
O12 Mg0 2.141 . S
O12 C3 1.289 . S
Mg13 O20 2.141 . S
Mg13 O21 2.048 . S
Mg13 O22 2.048 . S
Mg13 O25 2.141 . S
C14 O15 1.313 . S
C14 O21 1.195 . S
O15 C14 1.313 . S
C16 O17 1.245 . S
C16 O25 1.289 . S
O17 C16 1.245 . S
C18 O19 1.245 . S
C18 O20 1.289 . S
O19 C18 1.245 . S
O20 Mg13 2.141 . S
O20 C18 1.289 . S
O21 Mg13 2.048 . S
O21 C14 1.195 . S
O22 Mg13 2.048 . S
O22 C23 1.195 . S
C23 O22 1.195 . S
C23 O24 1.313 . S
O24 C23 1.313 . S
O25 Mg13 2.141 . S
O25 C16 1.289 . S
Mg26 O33 2.141 . S
Mg26 O34 2.048 . S
Mg26 O35 2.048 . S
Mg26 O38 2.141 . S
C27 O28 1.313 . S
C27 O34 1.195 . S
O28 C27 1.313 . S
C29 O30 1.245 . S
C29 O38 1.289 . S
O30 C29 1.245 . S
C31 O32 1.245 . S
C31 O33 1.289 . S
O32 C31 1.245 . S
O33 Mg26 2.141 . S
O33 C31 1.289 . S
O34 Mg26 2.048 . S
O34 C27 1.195 . S
O35 Mg26 2.048 . S
O35 C36 1.195 . S
C36 O35 1.195 . S
C36 O37 1.313 . S
O37 C36 1.313 . S
O38 Mg26 2.141 . S
O38 C29 1.289 . S
Mg39 O46 2.141 . S
Mg39 O47 2.048 . S
Mg39 O48 2.048 . S
Mg39 O51 2.141 . S
C40 O41 1.313 . S
C40 O47 1.195 . S
O41 C40 1.313 . S
C42 O43 1.245 . S
C42 O51 1.289 . S
O43 C42 1.245 . S
C44 O45 1.245 . S
C44 O46 1.289 . S
O45 C44 1.245 . S
O46 Mg39 2.141 . S
O46 C44 1.289 . S
O47 Mg39 2.048 . S
O47 C40 1.195 . S
O48 Mg39 2.048 . S
O48 C49 1.195 . S
C49 O48 1.195 . S
C49 O50 1.313 . S
O50 C49 1.313 . S
O51 Mg39 2.141 . S
O51 C42 1.289 . S
Mg52 O59 2.141 . S
Mg52 O60 2.048 . S
Mg52 O61 2.048 . S
Mg52 O64 2.141 . S
C53 O54 1.313 . S
C53 O60 1.195 . S
O54 C53 1.313 . S
C55 O56 1.245 . S
C55 O64 1.289 . S
O56 C55 1.245 . S
C57 O58 1.245 . S
C57 O59 1.289 . S
O58 C57 1.245 . S
O59 Mg52 2.141 . S
O59 C57 1.289 . S
O60 Mg52 2.048 . S
O60 C53 1.195 . S
O61 Mg52 2.048 . S
O61 C62 1.195 . S
C62 O61 1.195 . S
C62 O63 1.313 . S
O63 C62 1.313 . S
O64 Mg52 2.141 . S
O64 C55 1.289 . S
Mg65 O72 2.141 . S
Mg65 O73 2.048 . S
Mg65 O74 2.048 . S
Mg65 O77 2.141 . S
C66 O67 1.313 . S
C66 O73 1.195 . S
O67 C66 1.313 . S
C68 O69 1.245 . S
C68 O77 1.289 . S
O69 C68 1.245 . S
C70 O71 1.245 . S
C70 O72 1.289 . S
O71 C70 1.245 . S
O72 Mg65 2.141 . S
O72 C70 1.289 . S
O73 Mg65 2.048 . S
O73 C66 1.195 . S
O74 Mg65 2.048 . S
O74 C75 1.195 . S
C75 O74 1.195 . S
C75 O76 1.313 . S
O76 C75 1.313 . S
O77 Mg65 2.141 . S
O77 C68 1.289 . S
Mg78 O85 2.141 . S
Mg78 O86 2.048 . S
Mg78 O87 2.048 . S
Mg78 O90 2.141 . S
C79 O80 1.313 . S
C79 O86 1.195 . S
O80 C79 1.313 . S
C81 O82 1.245 . S
C81 O90 1.289 . S
O82 C81 1.245 . S
C83 O84 1.245 . S
C83 O85 1.289 . S
O84 C83 1.245 . S
O85 Mg78 2.141 . S
O85 C83 1.289 . S
O86 Mg78 2.048 . S
O86 C79 1.195 . S
O87 Mg78 2.048 . S
O87 C88 1.195 . S
C88 O87 1.195 . S
C88 O89 1.313 . S
O89 C88 1.313 . S
O90 Mg78 2.141 . S
O90 C81 1.289 . S
Mg91 O98 2.141 . S
Mg91 O99 2.048 . S
Mg91 O100 2.048 . S
Mg91 O103 2.141 . S
C92 O93 1.313 . S
C92 O99 1.195 . S
O93 C92 1.313 . S
C94 O95 1.245 . S
C94 O103 1.289 . S
O95 C94 1.245 . S
C96 O97 1.245 . S
C96 O98 1.289 . S
O97 C96 1.245 . S
O98 Mg91 2.141 . S
O98 C96 1.289 . S
O99 Mg91 2.048 . S
O99 C92 1.195 . S
O100 Mg91 2.048 . S
O100 C101 1.195 . S
C101 O100 1.195 . S
C101 O102 1.313 . S
O102 C101 1.313 . S
O103 Mg91 2.141 . S
O103 C94 1.289 . S
Mg104 O111 2.141 . S
Mg104 O112 2.048 . S
Mg104 O113 2.048 . S
Mg104 O116 2.141 . S
C105 O106 1.313 . S
C105 O112 1.195 . S
O106 C105 1.313 . S
C107 O108 1.245 . S
C107 O116 1.289 . S
O108 C107 1.245 . S
C109 O110 1.245 . S
C109 O111 1.289 . S
O110 C109 1.245 . S
O111 Mg104 2.141 . S
O111 C109 1.289 . S
O112 Mg104 2.048 . S
O112 C105 1.195 . S
O113 Mg104 2.048 . S
O113 C114 1.195 . S
C114 O113 1.195 . S
C114 O115 1.313 . S
O115 C114 1.313 . S
O116 Mg104 2.141 . S
O116 C107 1.289 . S
Mg117 O124 2.141 . S
Mg117 O125 2.048 . S
Mg117 O126 2.048 . S
Mg117 O129 2.141 . S
C118 O119 1.313 . S
C118 O125 1.195 . S
O119 C118 1.313 . S
C120 O121 1.245 . S
C120 O129 1.289 . S
O121 C120 1.245 . S
C122 O123 1.245 . S
C122 O124 1.289 . S
O123 C122 1.245 . S
O124 Mg117 2.141 . S
O124 C122 1.289 . S
O125 Mg117 2.048 . S
O125 C118 1.195 . S
O126 Mg117 2.048 . S
O126 C127 1.195 . S
C127 O126 1.195 . S
C127 O128 1.313 . S
O128 C127 1.313 . S
O129 Mg117 2.141 . S
O129 C120 1.289 . S
Mg130 O137 2.141 . S
Mg130 O138 2.048 . S
Mg130 O139 2.048 . S
Mg130 O142 2.141 . S
C131 O132 1.313 . S
C131 O138 1.195 . S
O132 C131 1.313 . S
C133 O134 1.245 . S
C133 O142 1.289 . S
O134 C133 1.245 . S
C135 O136 1.245 . S
C135 O137 1.289 . S
O136 C135 1.245 . S
O137 Mg130 2.141 . S
O137 C135 1.289 . S
O138 Mg130 2.048 . S
O138 C131 1.195 . S
O139 Mg130 2.048 . S
O139 C140 1.195 . S
C140 O139 1.195 . S
C140 O141 1.313 . S
O141 C140 1.313 . S
O142 Mg130 2.141 . S
O142 C133 1.289 . S
Mg143 O150 2.141 . S
Mg143 O151 2.048 . S
Mg143 O152 2.048 . S
Mg143 O155 2.141 . S
C144 O145 1.313 . S
C144 O151 1.195 . S
O145 C144 1.313 . S
C146 O147 1.245 . S
C146 O155 1.289 . S
O147 C146 1.245 . S
C148 O149 1.245 . S
C148 O150 1.289 . S
O149 C148 1.245 . S
O150 Mg143 2.141 . S
O150 C148 1.289 . S
O151 Mg143 2.048 . S
O151 C144 1.195 . S
O152 Mg143 2.048 . S
O152 C153 1.195 . S
C153 O152 1.195 . S
C153 O154 1.313 . S
O154 C153 1.313 . S
O155 Mg143 2.141 . S
O155 C146 1.289 . S
Mg156 O163 2.141 . S
Mg156 O164 2.048 . S
Mg156 O165 2.048 . S
Mg156 O168 2.141 . S
C157 O158 1.313 . S
C157 O164 1.195 . S
O158 C157 1.313 . S
C159 O160 1.245 . S
C159 O168 1.289 . S
O160 C159 1.245 . S
C161 O162 1.245 . S
C161 O163 1.289 . S
O162 C161 1.245 . S
O163 Mg156 2.141 . S
O163 C161 1.289 . S
O164 Mg156 2.048 . S
O164 C157 1.195 . S
O165 Mg156 2.048 . S
O165 C166 1.195 . S
C166 O165 1.195 . S
C166 O167 1.313 . S
O167 C166 1.313 . S
O168 Mg156 2.141 . S
O168 C159 1.289 . S
Mg169 O176 2.141 . S
Mg169 O177 2.048 . S
Mg169 O178 2.048 . S
Mg169 O181 2.141 . S
C170 O171 1.313 . S
C170 O177 1.195 . S
O171 C170 1.313 . S
C172 O173 1.245 . S
C172 O181 1.289 . S
O173 C172 1.245 . S
C174 O175 1.245 . S
C174 O176 1.289 . S
O175 C174 1.245 . S
O176 Mg169 2.141 . S
O176 C174 1.289 . S
O177 Mg169 2.048 . S
O177 C170 1.195 . S
O178 Mg169 2.048 . S
O178 C179 1.195 . S
C179 O178 1.195 . S
C179 O180 1.313 . S
O180 C179 1.313 . S
O181 Mg169 2.141 . S
O181 C172 1.289 . S
Mg182 O189 2.141 . S
Mg182 O190 2.048 . S
Mg182 O191 2.048 . S
Mg182 O194 2.141 . S
C183 O184 1.313 . S
C183 O190 1.195 . S
O184 C183 1.313 . S
C185 O186 1.245 . S
C185 O194 1.289 . S
O186 C185 1.245 . S
C187 O188 1.245 . S
C187 O189 1.289 . S
O188 C187 1.245 . S
O189 Mg182 2.141 . S
O189 C187 1.289 . S
O190 Mg182 2.048 . S
O190 C183 1.195 . S
O191 Mg182 2.048 . S
O191 C192 1.195 . S
C192 O191 1.195 . S
C192 O193 1.313 . S
O193 C192 1.313 . S
O194 Mg182 2.141 . S
O194 C185 1.289 . S
Mg195 O202 2.141 . S
Mg195 O203 2.048 . S
Mg195 O204 2.048 . S
Mg195 O207 2.141 . S
C196 O197 1.313 . S
C196 O203 1.195 . S
O197 C196 1.313 . S
C198 O199 1.245 . S
C198 O207 1.289 . S
O199 C198 1.245 . S
C200 O201 1.245 . S
C200 O202 1.289 . S
O201 C200 1.245 . S
O202 Mg195 2.141 . S
O202 C200 1.289 . S
O203 Mg195 2.048 . S
O203 C196 1.195 . S
O204 Mg195 2.048 . S
O204 C205 1.195 . S
C205 O204 1.195 . S
C205 O206 1.313 . S
O206 C205 1.313 . S
O207 Mg195 2.141 . S
O207 C198 1.289 . S
H208 C226 0.951 . S
H209 C228 0.951 . S
H210 C230 0.950 . S
H211 C231 0.950 . S
H212 C233 0.950 . S
H213 C236 0.950 . S
H214 C237 0.950 . S
H215 C239 0.950 . S
H216 C240 0.950 . S
H217 C241 0.951 . S
H218 C243 0.951 . S
H219 C245 0.950 . S
H220 C246 0.950 . S
H221 C248 0.950 . S
H222 C251 0.950 . S
H223 C252 0.950 . S
H224 C254 0.950 . S
H225 C255 0.950 . S
C226 H208 0.951 . S
C226 C227 1.366 . S
C226 C228 1.388 . S
C227 C226 1.366 . S
C227 C231 1.385 . S
C228 H209 0.951 . S
C228 C226 1.388 . S
C228 C229 1.366 . S
C229 C228 1.366 . S
C229 C230 1.414 . S
C229 C232 1.499 . S
C230 H210 0.950 . S
C230 C229 1.414 . S
C230 C231 1.374 . S
C231 H211 0.950 . S
C231 C227 1.385 . S
C231 C230 1.374 . S
C232 C229 1.499 . S
C232 C233 1.373 . S
C232 C234 1.389 . S
C233 H212 0.950 . S
C233 C232 1.373 . S
C233 C249 1.377 1_556 S
C234 C232 1.389 . S
C234 C235 1.524 . S
C234 C248 1.377 1_556 S
C235 C234 1.524 . S
C235 C236 1.397 . S
C235 C240 1.363 . S
C236 H213 0.950 . S
C236 C235 1.397 . S
C236 C237 1.334 . S
C237 H214 0.950 . S
C237 C236 1.334 . S
C237 C238 1.287 . S
C238 C237 1.287 . S
C238 C239 1.524 . S
C238 H257 0.913 . S
C239 H215 0.950 . S
C239 C238 1.524 . S
C239 C240 1.415 . S
C240 H216 0.950 . S
C240 C235 1.363 . S
C240 C239 1.415 . S
C241 H217 0.951 . S
C241 C242 1.366 . S
C241 C243 1.388 . S
C242 C241 1.366 . S
C242 C246 1.385 . S
C243 H218 0.951 . S
C243 C241 1.388 . S
C243 C244 1.366 . S
C244 C243 1.366 . S
C244 C245 1.414 . S
C244 C247 1.499 . S
C245 H219 0.950 . S
C245 C244 1.414 . S
C245 C246 1.374 . S
C246 H220 0.950 . S
C246 C242 1.385 . S
C246 C245 1.374 . S
C247 C244 1.499 . S
C247 C248 1.373 . S
C247 C249 1.389 . S
C248 H221 0.950 . S
C248 C234 1.377 1_554 S
C248 C247 1.373 . S
C249 C233 1.377 1_554 S
C249 C247 1.389 . S
C249 C250 1.524 . S
C250 C249 1.524 . S
C250 C251 1.397 . S
C250 C255 1.363 . S
C251 H222 0.950 . S
C251 C250 1.397 . S
C251 C252 1.334 . S
C252 H223 0.950 . S
C252 C251 1.334 . S
C252 C253 1.287 . S
C253 C252 1.287 . S
C253 C254 1.524 . S
C253 H256 0.999 . S
C254 H224 0.950 . S
C254 C253 1.524 . S
C254 C255 1.415 . S
C255 H225 0.950 . S
C255 C250 1.363 . S
C255 C254 1.415 . S
H256 C253 0.999 . S
H257 C238 0.913 . S
H258 C276 0.951 . S
H259 C278 0.951 . S
H260 C280 0.950 . S
H261 C281 0.950 . S
H262 C283 0.950 . S
H263 C286 0.950 . S
H264 C287 0.950 . S
H265 C289 0.950 . S
H266 C290 0.950 . S
H267 C291 0.951 . S
H268 C293 0.951 . S
H269 C295 0.950 . S
H270 C296 0.950 . S
H271 C298 0.950 . S
H272 C301 0.950 . S
H273 C302 0.950 . S
H274 C304 0.950 . S
H275 C305 0.950 . S
C276 H258 0.951 . S
C276 C277 1.366 . S
C276 C278 1.388 . S
C277 C276 1.366 . S
C277 C281 1.385 . S
C278 H259 0.951 . S
C278 C276 1.388 . S
C278 C279 1.366 . S
C279 C278 1.366 . S
C279 C280 1.414 . S
C279 C282 1.499 . S
C280 H260 0.950 . S
C280 C279 1.414 . S
C280 C281 1.374 . S
C281 H261 0.950 . S
C281 C277 1.385 . S
C281 C280 1.374 . S
C282 C279 1.499 . S
C282 C283 1.373 . S
C282 C284 1.389 . S
C283 H262 0.950 . S
C283 C282 1.373 . S
C283 C299 1.377 . S
C284 C282 1.389 . S
C284 C285 1.524 . S
C284 C298 1.377 . S
C285 C284 1.524 . S
C285 C286 1.397 . S
C285 C290 1.363 . S
C286 H263 0.950 . S
C286 C285 1.397 . S
C286 C287 1.334 . S
C287 H264 0.950 . S
C287 C286 1.334 . S
C287 C288 1.287 . S
C288 C287 1.287 . S
C288 C289 1.524 . S
C288 H307 0.913 . S
C289 H265 0.950 . S
C289 C288 1.524 . S
C289 C290 1.415 . S
C290 H266 0.950 . S
C290 C285 1.363 . S
C290 C289 1.415 . S
C291 H267 0.951 . S
C291 C292 1.366 . S
C291 C293 1.388 . S
C292 C291 1.366 . S
C292 C296 1.385 . S
C293 H268 0.951 . S
C293 C291 1.388 . S
C293 C294 1.366 . S
C294 C293 1.366 . S
C294 C295 1.414 . S
C294 C297 1.499 . S
C295 H269 0.950 . S
C295 C294 1.414 . S
C295 C296 1.374 . S
C296 H270 0.950 . S
C296 C292 1.385 . S
C296 C295 1.374 . S
C297 C294 1.499 . S
C297 C298 1.373 . S
C297 C299 1.389 . S
C298 H271 0.950 . S
C298 C284 1.377 . S
C298 C297 1.373 . S
C299 C283 1.377 . S
C299 C297 1.389 . S
C299 C300 1.524 . S
C300 C299 1.524 . S
C300 C301 1.397 . S
C300 C305 1.363 . S
C301 H272 0.950 . S
C301 C300 1.397 . S
C301 C302 1.334 . S
C302 H273 0.950 . S
C302 C301 1.334 . S
C302 C303 1.287 . S
C303 C302 1.287 . S
C303 C304 1.524 . S
C303 H306 0.999 . S
C304 H274 0.950 . S
C304 C303 1.524 . S
C304 C305 1.415 . S
C305 H275 0.950 . S
C305 C300 1.363 . S
C305 C304 1.415 . S
H306 C303 0.999 . S
H307 C288 0.913 . S
H308 C326 0.951 . S
H309 C328 0.951 . S
H310 C330 0.950 . S
H311 C331 0.950 . S
H312 C333 0.950 . S
H313 C336 0.950 . S
H314 C337 0.950 . S
H315 C339 0.950 . S
H316 C340 0.950 . S
H317 C341 0.951 . S
H318 C343 0.951 . S
H319 C345 0.950 . S
H320 C346 0.950 . S
H321 C348 0.950 . S
H322 C351 0.950 . S
H323 C352 0.950 . S
H324 C354 0.950 . S
H325 C355 0.950 . S
C326 H308 0.951 . S
C326 C327 1.366 . S
C326 C328 1.388 . S
C327 C326 1.366 . S
C327 C331 1.385 . S
C328 H309 0.951 . S
C328 C326 1.388 . S
C328 C329 1.366 . S
C329 C328 1.366 . S
C329 C330 1.414 . S
C329 C332 1.499 . S
C330 H310 0.950 . S
C330 C329 1.414 . S
C330 C331 1.374 . S
C331 H311 0.950 . S
C331 C327 1.385 . S
C331 C330 1.374 . S
C332 C329 1.499 . S
C332 C333 1.373 . S
C332 C334 1.388 . S
C333 H312 0.950 . S
C333 C332 1.373 . S
C333 C349 1.378 1_556 S
C334 C332 1.388 . S
C334 C335 1.525 1_556 S
C334 C348 1.378 1_556 S
C335 C334 1.525 1_554 S
C335 C336 1.397 1_554 S
C335 C340 1.363 . S
C336 H313 0.950 . S
C336 C335 1.397 1_556 S
C336 C337 1.334 . S
C337 H314 0.950 . S
C337 C336 1.334 . S
C337 C338 1.287 1_556 S
C338 C337 1.287 1_554 S
C338 C339 1.524 . S
C338 H357 0.913 . S
C339 H315 0.950 . S
C339 C338 1.524 . S
C339 C340 1.415 . S
C340 H316 0.950 . S
C340 C335 1.363 . S
C340 C339 1.415 . S
C341 H317 0.951 . S
C341 C342 1.366 . S
C341 C343 1.388 . S
C342 C341 1.366 . S
C342 C346 1.385 . S
C343 H318 0.951 . S
C343 C341 1.388 . S
C343 C344 1.366 . S
C344 C343 1.366 . S
C344 C345 1.414 . S
C344 C347 1.499 . S
C345 H319 0.950 . S
C345 C344 1.414 . S
C345 C346 1.374 . S
C346 H320 0.950 . S
C346 C342 1.385 . S
C346 C345 1.374 . S
C347 C344 1.499 . S
C347 C348 1.373 . S
C347 C349 1.388 . S
C348 H321 0.950 . S
C348 C334 1.378 1_554 S
C348 C347 1.373 . S
C349 C333 1.378 1_554 S
C349 C347 1.388 . S
C349 C350 1.525 1_554 S
C350 C349 1.525 1_556 S
C350 C351 1.397 1_556 S
C350 C355 1.363 . S
C351 H322 0.950 . S
C351 C350 1.397 1_554 S
C351 C352 1.334 . S
C352 H323 0.950 . S
C352 C351 1.334 . S
C352 C353 1.287 1_554 S
C353 C352 1.287 1_556 S
C353 C354 1.524 . S
C353 H356 0.999 . S
C354 H324 0.950 . S
C354 C353 1.524 . S
C354 C355 1.415 . S
C355 H325 0.950 . S
C355 C350 1.363 . S
C355 C354 1.415 . S
H356 C353 0.999 . S
H357 C338 0.913 . S
H358 C376 0.951 . S
H359 C378 0.951 . S
H360 C380 0.950 . S
H361 C381 0.950 . S
H362 C383 0.950 . S
H363 C386 0.950 . S
H364 C387 0.950 . S
H365 C389 0.950 . S
H366 C390 0.950 . S
H367 C391 0.951 . S
H368 C393 0.951 . S
H369 C395 0.950 . S
H370 C396 0.950 . S
H371 C398 0.950 . S
H372 C401 0.950 . S
H373 C402 0.950 . S
H374 C404 0.950 . S
H375 C405 0.950 . S
C376 H358 0.951 . S
C376 C377 1.366 . S
C376 C378 1.388 . S
C377 C376 1.366 . S
C377 C381 1.385 . S
C378 H359 0.951 . S
C378 C376 1.388 . S
C378 C379 1.366 . S
C379 C378 1.366 . S
C379 C380 1.414 . S
C379 C382 1.499 . S
C380 H360 0.950 . S
C380 C379 1.414 . S
C380 C381 1.374 . S
C381 H361 0.950 . S
C381 C377 1.385 . S
C381 C380 1.374 . S
C382 C379 1.499 . S
C382 C383 1.373 . S
C382 C384 1.389 . S
C383 H362 0.950 . S
C383 C382 1.373 . S
C383 C399 1.377 . S
C384 C382 1.389 . S
C384 C385 1.524 . S
C384 C398 1.377 . S
C385 C384 1.524 . S
C385 C386 1.397 . S
C385 C390 1.363 . S
C386 H363 0.950 . S
C386 C385 1.397 . S
C386 C387 1.334 . S
C387 H364 0.950 . S
C387 C386 1.334 . S
C387 C388 1.287 . S
C388 C387 1.287 . S
C388 C389 1.524 . S
C388 H407 0.913 . S
C389 H365 0.950 . S
C389 C388 1.524 . S
C389 C390 1.415 . S
C390 H366 0.950 . S
C390 C385 1.363 . S
C390 C389 1.415 . S
C391 H367 0.951 . S
C391 C392 1.366 . S
C391 C393 1.388 . S
C392 C391 1.366 . S
C392 C396 1.385 . S
C393 H368 0.951 . S
C393 C391 1.388 . S
C393 C394 1.366 . S
C394 C393 1.366 . S
C394 C395 1.414 . S
C394 C397 1.499 . S
C395 H369 0.950 . S
C395 C394 1.414 . S
C395 C396 1.374 . S
C396 H370 0.950 . S
C396 C392 1.385 . S
C396 C395 1.374 . S
C397 C394 1.499 . S
C397 C398 1.373 . S
C397 C399 1.389 . S
C398 H371 0.950 . S
C398 C384 1.377 . S
C398 C397 1.373 . S
C399 C383 1.377 . S
C399 C397 1.389 . S
C399 C400 1.524 . S
C400 C399 1.524 . S
C400 C401 1.397 . S
C400 C405 1.363 . S
C401 H372 0.950 . S
C401 C400 1.397 . S
C401 C402 1.334 . S
C402 H373 0.950 . S
C402 C401 1.334 . S
C402 C403 1.287 . S
C403 C402 1.287 . S
C403 C404 1.524 . S
C403 H406 0.999 . S
C404 H374 0.950 . S
C404 C403 1.524 . S
C404 C405 1.415 . S
C405 H375 0.950 . S
C405 C400 1.363 . S
C405 C404 1.415 . S
H406 C403 0.999 . S
H407 C388 0.913 . S
H408 C426 0.951 . S
H409 C428 0.951 . S
H410 C430 0.950 . S
H411 C431 0.950 . S
H412 C433 0.950 . S
H413 C436 0.950 . S
H414 C437 0.950 . S
H415 C439 0.950 1_556 S
H416 C440 0.950 . S
H417 C441 0.951 . S
H418 C443 0.951 . S
H419 C445 0.950 . S
H420 C446 0.950 . S
H421 C448 0.950 . S
H422 C451 0.950 . S
H423 C452 0.950 . S
H424 C454 0.950 1_554 S
H425 C455 0.950 . S
C426 H408 0.951 . S
C426 C427 1.366 . S
C426 C428 1.388 . S
C427 C426 1.366 . S
C427 C431 1.385 . S
C428 H409 0.951 . S
C428 C426 1.388 . S
C428 C429 1.366 . S
C429 C428 1.366 . S
C429 C430 1.414 . S
C429 C432 1.499 . S
C430 H410 0.950 . S
C430 C429 1.414 . S
C430 C431 1.374 . S
C431 H411 0.950 . S
C431 C427 1.385 . S
C431 C430 1.374 . S
C432 C429 1.499 . S
C432 C433 1.373 . S
C432 C434 1.389 . S
C433 H412 0.950 . S
C433 C432 1.373 . S
C433 C449 1.377 1_554 S
C434 C432 1.389 . S
C434 C435 1.524 . S
C434 C448 1.377 1_554 S
C435 C434 1.524 . S
C435 C436 1.397 . S
C435 C440 1.363 1_554 S
C436 H413 0.950 . S
C436 C435 1.397 . S
C436 C437 1.334 . S
C437 H414 0.950 . S
C437 C436 1.334 . S
C437 C438 1.287 . S
C438 C437 1.287 . S
C438 C439 1.524 . S
C438 H457 0.913 . S
C439 H415 0.950 1_554 S
C439 C438 1.524 . S
C439 C440 1.415 1_554 S
C440 H416 0.950 . S
C440 C435 1.363 1_556 S
C440 C439 1.415 1_556 S
C441 H417 0.951 . S
C441 C442 1.366 . S
C441 C443 1.388 . S
C442 C441 1.366 . S
C442 C446 1.385 . S
C443 H418 0.951 . S
C443 C441 1.388 . S
C443 C444 1.366 . S
C444 C443 1.366 . S
C444 C445 1.414 . S
C444 C447 1.499 . S
C445 H419 0.950 . S
C445 C444 1.414 . S
C445 C446 1.374 . S
C446 H420 0.950 . S
C446 C442 1.385 . S
C446 C445 1.374 . S
C447 C444 1.499 . S
C447 C448 1.373 . S
C447 C449 1.389 . S
C448 H421 0.950 . S
C448 C434 1.377 1_556 S
C448 C447 1.373 . S
C449 C433 1.377 1_556 S
C449 C447 1.389 . S
C449 C450 1.524 . S
C450 C449 1.524 . S
C450 C451 1.397 . S
C450 C455 1.363 1_556 S
C451 H422 0.950 . S
C451 C450 1.397 . S
C451 C452 1.334 . S
C452 H423 0.950 . S
C452 C451 1.334 . S
C452 C453 1.287 . S
C453 C452 1.287 . S
C453 C454 1.524 . S
C453 H456 0.999 . S
C454 H424 0.950 1_556 S
C454 C453 1.524 . S
C454 C455 1.415 1_556 S
C455 H425 0.950 . S
C455 C450 1.363 1_554 S
C455 C454 1.415 1_554 S
H456 C453 0.999 . S
H457 C438 0.913 . S
H458 C476 0.951 . S
H459 C478 0.951 . S
H460 C480 0.950 . S
H461 C481 0.950 . S
H462 C483 0.950 . S
H463 C486 0.950 . S
H464 C487 0.950 . S
H465 C489 0.950 . S
H466 C490 0.950 . S
H467 C491 0.951 . S
H468 C493 0.951 . S
H469 C495 0.950 . S
H470 C496 0.950 . S
H471 C498 0.950 . S
H472 C501 0.950 . S
H473 C502 0.950 . S
H474 C504 0.950 . S
H475 C505 0.950 . S
C476 H458 0.951 . S
C476 C477 1.366 . S
C476 C478 1.388 . S
C477 C476 1.366 . S
C477 C481 1.385 . S
C478 H459 0.951 . S
C478 C476 1.388 . S
C478 C479 1.366 . S
C479 C478 1.366 . S
C479 C480 1.414 . S
C479 C482 1.499 . S
C480 H460 0.950 . S
C480 C479 1.414 . S
C480 C481 1.374 . S
C481 H461 0.950 . S
C481 C477 1.385 . S
C481 C480 1.374 . S
C482 C479 1.499 . S
C482 C483 1.373 . S
C482 C484 1.389 . S
C483 H462 0.950 . S
C483 C482 1.373 . S
C483 C499 1.377 . S
C484 C482 1.389 . S
C484 C485 1.524 . S
C484 C498 1.377 . S
C485 C484 1.524 . S
C485 C486 1.397 . S
C485 C490 1.363 . S
C486 H463 0.950 . S
C486 C485 1.397 . S
C486 C487 1.334 . S
C487 H464 0.950 . S
C487 C486 1.334 . S
C487 C488 1.287 . S
C488 C487 1.287 . S
C488 C489 1.524 . S
C488 H507 0.913 . S
C489 H465 0.950 . S
C489 C488 1.524 . S
C489 C490 1.415 . S
C490 H466 0.950 . S
C490 C485 1.363 . S
C490 C489 1.415 . S
C491 H467 0.951 . S
C491 C492 1.366 . S
C491 C493 1.388 . S
C492 C491 1.366 . S
C492 C496 1.385 . S
C493 H468 0.951 . S
C493 C491 1.388 . S
C493 C494 1.366 . S
C494 C493 1.366 . S
C494 C495 1.414 . S
C494 C497 1.499 . S
C495 H469 0.950 . S
C495 C494 1.414 . S
C495 C496 1.374 . S
C496 H470 0.950 . S
C496 C492 1.385 . S
C496 C495 1.374 . S
C497 C494 1.499 . S
C497 C498 1.373 . S
C497 C499 1.389 . S
C498 H471 0.950 . S
C498 C484 1.377 . S
C498 C497 1.373 . S
C499 C483 1.377 . S
C499 C497 1.389 . S
C499 C500 1.524 . S
C500 C499 1.524 . S
C500 C501 1.397 . S
C500 C505 1.363 . S
C501 H472 0.950 . S
C501 C500 1.397 . S
C501 C502 1.334 . S
C502 H473 0.950 . S
C502 C501 1.334 . S
C502 C503 1.287 . S
C503 C502 1.287 . S
C503 C504 1.524 . S
C503 H506 0.999 . S
C504 H474 0.950 . S
C504 C503 1.524 . S
C504 C505 1.415 . S
C505 H475 0.950 . S
C505 C500 1.363 . S
C505 C504 1.415 . S
H506 C503 0.999 . S
H507 C488 0.913 . S
H508 C526 0.951 . S
H509 C528 0.951 . S
H510 C530 0.950 . S
H511 C531 0.950 . S
H512 C533 0.950 . S
H513 C536 0.950 . S
H514 C537 0.950 . S
H515 C539 0.950 . S
H516 C540 0.950 . S
H517 C541 0.951 . S
H518 C543 0.951 . S
H519 C545 0.950 . S
H520 C546 0.950 . S
H521 C548 0.950 . S
H522 C551 0.950 . S
H523 C552 0.950 . S
H524 C554 0.950 . S
H525 C555 0.950 . S
C526 H508 0.951 . S
C526 C527 1.366 . S
C526 C528 1.388 . S
C527 C526 1.366 . S
C527 C531 1.385 . S
C528 H509 0.951 . S
C528 C526 1.388 . S
C528 C529 1.366 . S
C529 C528 1.366 . S
C529 C530 1.414 . S
C529 C532 1.499 . S
C530 H510 0.950 . S
C530 C529 1.414 . S
C530 C531 1.374 . S
C531 H511 0.950 . S
C531 C527 1.385 . S
C531 C530 1.374 . S
C532 C529 1.499 . S
C532 C533 1.373 . S
C532 C534 1.389 . S
C533 H512 0.950 . S
C533 C532 1.373 . S
C533 C549 1.377 1_556 S
C534 C532 1.389 . S
C534 C535 1.524 . S
C534 C548 1.377 1_556 S
C535 C534 1.524 . S
C535 C536 1.397 . S
C535 C540 1.363 1_556 S
C536 H513 0.950 . S
C536 C535 1.397 . S
C536 C537 1.334 . S
C537 H514 0.950 . S
C537 C536 1.334 . S
C537 C538 1.287 . S
C538 C537 1.287 . S
C538 C539 1.524 1_556 S
C538 H557 0.913 . S
C539 H515 0.950 . S
C539 C538 1.524 1_554 S
C539 C540 1.415 . S
C540 H516 0.950 . S
C540 C535 1.363 1_554 S
C540 C539 1.415 . S
C541 H517 0.951 . S
C541 C542 1.366 . S
C541 C543 1.388 . S
C542 C541 1.366 . S
C542 C546 1.385 . S
C543 H518 0.951 . S
C543 C541 1.388 . S
C543 C544 1.366 . S
C544 C543 1.366 . S
C544 C545 1.414 . S
C544 C547 1.499 . S
C545 H519 0.950 . S
C545 C544 1.414 . S
C545 C546 1.374 . S
C546 H520 0.950 . S
C546 C542 1.385 . S
C546 C545 1.374 . S
C547 C544 1.499 . S
C547 C548 1.373 . S
C547 C549 1.389 . S
C548 H521 0.950 . S
C548 C534 1.377 1_554 S
C548 C547 1.373 . S
C549 C533 1.377 1_554 S
C549 C547 1.389 . S
C549 C550 1.524 . S
C550 C549 1.524 . S
C550 C551 1.397 . S
C550 C555 1.363 1_554 S
C551 H522 0.950 . S
C551 C550 1.397 . S
C551 C552 1.334 . S
C552 H523 0.950 . S
C552 C551 1.334 . S
C552 C553 1.287 . S
C553 C552 1.287 . S
C553 C554 1.524 1_554 S
C553 H556 0.999 . S
C554 H524 0.950 . S
C554 C553 1.524 1_556 S
C554 C555 1.415 . S
C555 H525 0.950 . S
C555 C550 1.363 1_556 S
C555 C554 1.415 . S
H556 C553 0.999 . S
H557 C538 0.913 . S
H558 C576 0.951 . S
H559 C578 0.951 . S
H560 C580 0.950 . S
H561 C581 0.950 . S
H562 C583 0.950 . S
H563 C586 0.950 . S
H564 C587 0.950 . S
H565 C589 0.950 . S
H566 C590 0.950 . S
H567 C591 0.951 . S
H568 C593 0.951 . S
H569 C595 0.950 . S
H570 C596 0.950 . S
H571 C598 0.950 . S
H572 C601 0.950 . S
H573 C602 0.950 . S
H574 C604 0.950 . S
H575 C605 0.950 . S
C576 H558 0.951 . S
C576 C577 1.366 . S
C576 C578 1.388 . S
C577 C576 1.366 . S
C577 C581 1.385 . S
C578 H559 0.951 . S
C578 C576 1.388 . S
C578 C579 1.366 . S
C579 C578 1.366 . S
C579 C580 1.414 . S
C579 C582 1.499 . S
C580 H560 0.950 . S
C580 C579 1.414 . S
C580 C581 1.374 . S
C581 H561 0.950 . S
C581 C577 1.385 . S
C581 C580 1.374 . S
C582 C579 1.499 . S
C582 C583 1.373 . S
C582 C584 1.389 . S
C583 H562 0.950 . S
C583 C582 1.373 . S
C583 C599 1.377 . S
C584 C582 1.389 . S
C584 C585 1.524 . S
C584 C598 1.377 . S
C585 C584 1.524 . S
C585 C586 1.397 . S
C585 C590 1.363 . S
C586 H563 0.950 . S
C586 C585 1.397 . S
C586 C587 1.334 . S
C587 H564 0.950 . S
C587 C586 1.334 . S
C587 C588 1.287 . S
C588 C587 1.287 . S
C588 C589 1.524 . S
C588 H607 0.913 . S
C589 H565 0.950 . S
C589 C588 1.524 . S
C589 C590 1.415 . S
C590 H566 0.950 . S
C590 C585 1.363 . S
C590 C589 1.415 . S
C591 H567 0.951 . S
C591 C592 1.366 . S
C591 C593 1.388 . S
C592 C591 1.366 . S
C592 C596 1.385 . S
C593 H568 0.951 . S
C593 C591 1.388 . S
C593 C594 1.366 . S
C594 C593 1.366 . S
C594 C595 1.414 . S
C594 C597 1.499 . S
C595 H569 0.950 . S
C595 C594 1.414 . S
C595 C596 1.374 . S
C596 H570 0.950 . S
C596 C592 1.385 . S
C596 C595 1.374 . S
C597 C594 1.499 . S
C597 C598 1.373 . S
C597 C599 1.389 . S
C598 H571 0.950 . S
C598 C584 1.377 . S
C598 C597 1.373 . S
C599 C583 1.377 . S
C599 C597 1.389 . S
C599 C600 1.524 . S
C600 C599 1.524 . S
C600 C601 1.397 . S
C600 C605 1.363 . S
C601 H572 0.950 . S
C601 C600 1.397 . S
C601 C602 1.334 . S
C602 H573 0.950 . S
C602 C601 1.334 . S
C602 C603 1.287 . S
C603 C602 1.287 . S
C603 C604 1.524 . S
C603 H606 0.999 . S
C604 H574 0.950 . S
C604 C603 1.524 . S
C604 C605 1.415 . S
C605 H575 0.950 . S
C605 C600 1.363 . S
C605 C604 1.415 . S
H606 C603 0.999 . S
H607 C588 0.913 . S
H608 C626 0.951 . S
H609 C628 0.951 . S
H610 C630 0.950 . S
H611 C631 0.950 . S
H612 C633 0.950 . S
H613 C636 0.950 . S
H614 C637 0.950 . S
H615 C639 0.950 . S
H616 C640 0.950 . S
H617 C641 0.951 . S
H618 C643 0.951 . S
H619 C645 0.950 . S
H620 C646 0.950 . S
H621 C648 0.950 . S
H622 C651 0.950 . S
H623 C652 0.950 . S
H624 C654 0.950 . S
H625 C655 0.950 . S
C626 H608 0.951 . S
C626 C627 1.366 . S
C626 C628 1.388 . S
C627 C626 1.366 . S
C627 C631 1.385 . S
C628 H609 0.951 . S
C628 C626 1.388 . S
C628 C629 1.366 . S
C629 C628 1.366 . S
C629 C630 1.414 . S
C629 C632 1.499 . S
C630 H610 0.950 . S
C630 C629 1.414 . S
C630 C631 1.374 . S
C631 H611 0.950 . S
C631 C627 1.385 . S
C631 C630 1.374 . S
C632 C629 1.499 . S
C632 C633 1.373 . S
C632 C634 1.389 . S
C633 H612 0.950 . S
C633 C632 1.373 . S
C633 C649 1.377 . S
C634 C632 1.389 . S
C634 C635 1.524 . S
C634 C648 1.377 . S
C635 C634 1.524 . S
C635 C636 1.397 . S
C635 C640 1.363 . S
C636 H613 0.950 . S
C636 C635 1.397 . S
C636 C637 1.334 . S
C637 H614 0.950 . S
C637 C636 1.334 . S
C637 C638 1.287 . S
C638 C637 1.287 . S
C638 C639 1.524 . S
C638 H657 0.913 . S
C639 H615 0.950 . S
C639 C638 1.524 . S
C639 C640 1.415 . S
C640 H616 0.950 . S
C640 C635 1.363 . S
C640 C639 1.415 . S
C641 H617 0.951 . S
C641 C642 1.366 . S
C641 C643 1.388 . S
C642 C641 1.366 . S
C642 C646 1.385 . S
C643 H618 0.951 . S
C643 C641 1.388 . S
C643 C644 1.366 . S
C644 C643 1.366 . S
C644 C645 1.414 . S
C644 C647 1.499 . S
C645 H619 0.950 . S
C645 C644 1.414 . S
C645 C646 1.374 . S
C646 H620 0.950 . S
C646 C642 1.385 . S
C646 C645 1.374 . S
C647 C644 1.499 . S
C647 C648 1.373 . S
C647 C649 1.389 . S
C648 H621 0.950 . S
C648 C634 1.377 . S
C648 C647 1.373 . S
C649 C633 1.377 . S
C649 C647 1.389 . S
C649 C650 1.524 . S
C650 C649 1.524 . S
C650 C651 1.397 . S
C650 C655 1.363 . S
C651 H622 0.950 . S
C651 C650 1.397 . S
C651 C652 1.334 . S
C652 H623 0.950 . S
C652 C651 1.334 . S
C652 C653 1.287 . S
C653 C652 1.287 . S
C653 C654 1.524 . S
C653 H656 0.999 . S
C654 H624 0.950 . S
C654 C653 1.524 . S
C654 C655 1.415 . S
C655 H625 0.950 . S
C655 C650 1.363 . S
C655 C654 1.415 . S
H656 C653 0.999 . S
H657 C638 0.913 . S
H658 C676 0.951 . S
H659 C678 0.951 . S
H660 C680 0.950 . S
H661 C681 0.950 . S
H662 C683 0.950 . S
H663 C686 0.950 . S
H664 C687 0.950 . S
H665 C689 0.950 . S
H666 C690 0.950 . S
H667 C691 0.951 . S
H668 C693 0.951 . S
H669 C695 0.950 . S
H670 C696 0.950 . S
H671 C698 0.950 . S
H672 C701 0.950 . S
H673 C702 0.950 . S
H674 C704 0.950 . S
H675 C705 0.950 . S
C676 H658 0.951 . S
C676 C677 1.366 . S
C676 C678 1.388 . S
C677 C676 1.366 . S
C677 C681 1.385 . S
C678 H659 0.951 . S
C678 C676 1.388 . S
C678 C679 1.366 . S
C679 C678 1.366 . S
C679 C680 1.414 . S
C679 C682 1.499 . S
C680 H660 0.950 . S
C680 C679 1.414 . S
C680 C681 1.374 . S
C681 H661 0.950 . S
C681 C677 1.385 . S
C681 C680 1.374 . S
C682 C679 1.499 . S
C682 C683 1.373 . S
C682 C684 1.389 . S
C683 H662 0.950 . S
C683 C682 1.373 . S
C683 C699 1.377 . S
C684 C682 1.389 . S
C684 C685 1.524 . S
C684 C698 1.377 . S
C685 C684 1.524 . S
C685 C686 1.397 . S
C685 C690 1.363 . S
C686 H663 0.950 . S
C686 C685 1.397 . S
C686 C687 1.334 . S
C687 H664 0.950 . S
C687 C686 1.334 . S
C687 C688 1.287 . S
C688 C687 1.287 . S
C688 C689 1.524 . S
C688 H707 0.913 . S
C689 H665 0.950 . S
C689 C688 1.524 . S
C689 C690 1.415 . S
C690 H666 0.950 . S
C690 C685 1.363 . S
C690 C689 1.415 . S
C691 H667 0.951 . S
C691 C692 1.366 . S
C691 C693 1.388 . S
C692 C691 1.366 . S
C692 C696 1.385 . S
C693 H668 0.951 . S
C693 C691 1.388 . S
C693 C694 1.366 . S
C694 C693 1.366 . S
C694 C695 1.414 . S
C694 C697 1.499 . S
C695 H669 0.950 . S
C695 C694 1.414 . S
C695 C696 1.374 . S
C696 H670 0.950 . S
C696 C692 1.385 . S
C696 C695 1.374 . S
C697 C694 1.499 . S
C697 C698 1.373 . S
C697 C699 1.389 . S
C698 H671 0.950 . S
C698 C684 1.377 . S
C698 C697 1.373 . S
C699 C683 1.377 . S
C699 C697 1.389 . S
C699 C700 1.524 . S
C700 C699 1.524 . S
C700 C701 1.397 . S
C700 C705 1.363 . S
C701 H672 0.950 . S
C701 C700 1.397 . S
C701 C702 1.334 . S
C702 H673 0.950 . S
C702 C701 1.334 . S
C702 C703 1.287 . S
C703 C702 1.287 . S
C703 C704 1.524 . S
C703 H706 0.999 . S
C704 H674 0.950 . S
C704 C703 1.524 . S
C704 C705 1.415 . S
C705 H675 0.950 . S
C705 C700 1.363 . S
C705 C704 1.415 . S
H706 C703 0.999 . S
H707 C688 0.913 . S
H708 C726 0.951 . S
H709 C728 0.951 . S
H710 C730 0.950 . S
H711 C731 0.950 . S
H712 C733 0.950 . S
H713 C736 0.950 . S
H714 C737 0.950 . S
H715 C739 0.950 . S
H716 C740 0.950 . S
H717 C741 0.951 . S
H718 C743 0.951 . S
H719 C745 0.950 . S
H720 C746 0.950 . S
H721 C748 0.950 . S
H722 C751 0.950 . S
H723 C752 0.950 . S
H724 C754 0.950 . S
H725 C755 0.950 . S
C726 H708 0.951 . S
C726 C727 1.366 . S
C726 C728 1.388 . S
C727 C726 1.366 . S
C727 C731 1.385 . S
C728 H709 0.951 . S
C728 C726 1.388 . S
C728 C729 1.366 . S
C729 C728 1.366 . S
C729 C730 1.414 . S
C729 C732 1.499 . S
C730 H710 0.950 . S
C730 C729 1.414 . S
C730 C731 1.374 . S
C731 H711 0.950 . S
C731 C727 1.385 . S
C731 C730 1.374 . S
C732 C729 1.499 . S
C732 C733 1.373 . S
C732 C734 1.389 . S
C733 H712 0.950 . S
C733 C732 1.373 . S
C733 C749 1.377 . S
C734 C732 1.389 . S
C734 C735 1.524 . S
C734 C748 1.377 . S
C735 C734 1.524 . S
C735 C736 1.397 . S
C735 C740 1.363 . S
C736 H713 0.950 . S
C736 C735 1.397 . S
C736 C737 1.334 . S
C737 H714 0.950 . S
C737 C736 1.334 . S
C737 C738 1.287 . S
C738 C737 1.287 . S
C738 C739 1.524 . S
C738 H757 0.913 . S
C739 H715 0.950 . S
C739 C738 1.524 . S
C739 C740 1.415 . S
C740 H716 0.950 . S
C740 C735 1.363 . S
C740 C739 1.415 . S
C741 H717 0.951 . S
C741 C742 1.366 . S
C741 C743 1.388 . S
C742 C741 1.366 . S
C742 C746 1.385 . S
C743 H718 0.951 . S
C743 C741 1.388 . S
C743 C744 1.366 . S
C744 C743 1.366 . S
C744 C745 1.414 . S
C744 C747 1.499 . S
C745 H719 0.950 . S
C745 C744 1.414 . S
C745 C746 1.374 . S
C746 H720 0.950 . S
C746 C742 1.385 . S
C746 C745 1.374 . S
C747 C744 1.499 . S
C747 C748 1.373 . S
C747 C749 1.389 . S
C748 H721 0.950 . S
C748 C734 1.377 . S
C748 C747 1.373 . S
C749 C733 1.377 . S
C749 C747 1.389 . S
C749 C750 1.524 . S
C750 C749 1.524 . S
C750 C751 1.397 . S
C750 C755 1.363 . S
C751 H722 0.950 . S
C751 C750 1.397 . S
C751 C752 1.334 . S
C752 H723 0.950 . S
C752 C751 1.334 . S
C752 C753 1.287 . S
C753 C752 1.287 . S
C753 C754 1.524 . S
C753 H756 0.999 . S
C754 H724 0.950 . S
C754 C753 1.524 . S
C754 C755 1.415 . S
C755 H725 0.950 . S
C755 C750 1.363 . S
C755 C754 1.415 . S
H756 C753 0.999 . S
H757 C738 0.913 . S
H758 C776 0.951 . S
H759 C778 0.951 . S
H760 C780 0.950 . S
H761 C781 0.950 . S
H762 C783 0.950 . S
H763 C786 0.950 . S
H764 C787 0.950 . S
H765 C789 0.950 . S
H766 C790 0.950 . S
H767 C791 0.951 . S
H768 C793 0.951 . S
H769 C795 0.950 . S
H770 C796 0.950 . S
H771 C798 0.950 . S
H772 C801 0.950 . S
H773 C802 0.950 . S
H774 C804 0.950 . S
H775 C805 0.950 . S
C776 H758 0.951 . S
C776 C777 1.366 . S
C776 C778 1.388 . S
C777 C776 1.366 . S
C777 C781 1.385 . S
C778 H759 0.951 . S
C778 C776 1.388 . S
C778 C779 1.366 . S
C779 C778 1.366 . S
C779 C780 1.414 . S
C779 C782 1.499 . S
C780 H760 0.950 . S
C780 C779 1.414 . S
C780 C781 1.374 . S
C781 H761 0.950 . S
C781 C777 1.385 . S
C781 C780 1.374 . S
C782 C779 1.499 . S
C782 C783 1.373 . S
C782 C784 1.389 . S
C783 H762 0.950 . S
C783 C782 1.373 . S
C783 C799 1.377 . S
C784 C782 1.389 . S
C784 C785 1.524 . S
C784 C798 1.377 . S
C785 C784 1.524 . S
C785 C786 1.397 . S
C785 C790 1.363 . S
C786 H763 0.950 . S
C786 C785 1.397 . S
C786 C787 1.334 . S
C787 H764 0.950 . S
C787 C786 1.334 . S
C787 C788 1.287 . S
C788 C787 1.287 . S
C788 C789 1.524 . S
C788 H807 0.913 . S
C789 H765 0.950 . S
C789 C788 1.524 . S
C789 C790 1.415 . S
C790 H766 0.950 . S
C790 C785 1.363 . S
C790 C789 1.415 . S
C791 H767 0.951 . S
C791 C792 1.366 . S
C791 C793 1.388 . S
C792 C791 1.366 . S
C792 C796 1.385 . S
C793 H768 0.951 . S
C793 C791 1.388 . S
C793 C794 1.366 . S
C794 C793 1.366 . S
C794 C795 1.414 . S
C794 C797 1.499 . S
C795 H769 0.950 . S
C795 C794 1.414 . S
C795 C796 1.374 . S
C796 H770 0.950 . S
C796 C792 1.385 . S
C796 C795 1.374 . S
C797 C794 1.499 . S
C797 C798 1.373 . S
C797 C799 1.389 . S
C798 H771 0.950 . S
C798 C784 1.377 . S
C798 C797 1.373 . S
C799 C783 1.377 . S
C799 C797 1.389 . S
C799 C800 1.524 . S
C800 C799 1.524 . S
C800 C801 1.397 . S
C800 C805 1.363 . S
C801 H772 0.950 . S
C801 C800 1.397 . S
C801 C802 1.334 . S
C802 H773 0.950 . S
C802 C801 1.334 . S
C802 C803 1.287 . S
C803 C802 1.287 . S
C803 C804 1.524 . S
C803 H806 0.999 . S
C804 H774 0.950 . S
C804 C803 1.524 . S
C804 C805 1.415 . S
C805 H775 0.950 . S
C805 C800 1.363 . S
C805 C804 1.415 . S
H806 C803 0.999 . S
H807 C788 0.913 . S
H808 C826 0.951 . S
H809 C828 0.951 . S
H810 C830 0.950 . S
H811 C831 0.950 . S
H812 C833 0.950 . S
H813 C836 0.950 . S
H814 C837 0.950 . S
H815 C839 0.950 . S
H816 C840 0.950 . S
H817 C841 0.951 . S
H818 C843 0.951 . S
H819 C845 0.950 . S
H820 C846 0.950 . S
H821 C848 0.950 . S
H822 C851 0.950 . S
H823 C852 0.950 . S
H824 C854 0.950 . S
H825 C855 0.950 . S
C826 H808 0.951 . S
C826 C827 1.366 . S
C826 C828 1.388 . S
C827 C826 1.366 . S
C827 C831 1.385 . S
C828 H809 0.951 . S
C828 C826 1.388 . S
C828 C829 1.366 . S
C829 C828 1.366 . S
C829 C830 1.414 . S
C829 C832 1.499 . S
C830 H810 0.950 . S
C830 C829 1.414 . S
C830 C831 1.374 . S
C831 H811 0.950 . S
C831 C827 1.385 . S
C831 C830 1.374 . S
C832 C829 1.499 . S
C832 C833 1.373 . S
C832 C834 1.389 . S
C833 H812 0.950 . S
C833 C832 1.373 . S
C833 C849 1.377 . S
C834 C832 1.389 . S
C834 C835 1.524 . S
C834 C848 1.377 . S
C835 C834 1.524 . S
C835 C836 1.397 . S
C835 C840 1.363 . S
C836 H813 0.950 . S
C836 C835 1.397 . S
C836 C837 1.334 . S
C837 H814 0.950 . S
C837 C836 1.334 . S
C837 C838 1.287 . S
C838 C837 1.287 . S
C838 C839 1.524 . S
C838 H857 0.913 . S
C839 H815 0.950 . S
C839 C838 1.524 . S
C839 C840 1.415 . S
C840 H816 0.950 . S
C840 C835 1.363 . S
C840 C839 1.415 . S
C841 H817 0.951 . S
C841 C842 1.366 . S
C841 C843 1.388 . S
C842 C841 1.366 . S
C842 C846 1.385 . S
C843 H818 0.951 . S
C843 C841 1.388 . S
C843 C844 1.366 . S
C844 C843 1.366 . S
C844 C845 1.414 . S
C844 C847 1.499 . S
C845 H819 0.950 . S
C845 C844 1.414 . S
C845 C846 1.374 . S
C846 H820 0.950 . S
C846 C842 1.385 . S
C846 C845 1.374 . S
C847 C844 1.499 . S
C847 C848 1.373 . S
C847 C849 1.389 . S
C848 H821 0.950 . S
C848 C834 1.377 . S
C848 C847 1.373 . S
C849 C833 1.377 . S
C849 C847 1.389 . S
C849 C850 1.524 . S
C850 C849 1.524 . S
C850 C851 1.397 . S
C850 C855 1.363 . S
C851 H822 0.950 . S
C851 C850 1.397 . S
C851 C852 1.334 . S
C852 H823 0.950 . S
C852 C851 1.334 . S
C852 C853 1.287 . S
C853 C852 1.287 . S
C853 C854 1.524 . S
C853 H856 0.999 . S
C854 H824 0.950 . S
C854 C853 1.524 . S
C854 C855 1.415 . S
C855 H825 0.950 . S
C855 C850 1.363 . S
C855 C854 1.415 . S
H856 C853 0.999 . S
H857 C838 0.913 . S
H858 C876 0.951 . S
H859 C878 0.951 . S
H860 C880 0.950 . S
H861 C881 0.950 . S
H862 C883 0.950 . S
H863 C886 0.950 . S
H864 C887 0.950 . S
H865 C889 0.950 . S
H866 C890 0.950 . S
H867 C891 0.951 . S
H868 C893 0.951 . S
H869 C895 0.950 . S
H870 C896 0.950 . S
H871 C898 0.950 . S
H872 C901 0.950 . S
H873 C902 0.950 . S
H874 C904 0.950 . S
H875 C905 0.950 . S
C876 H858 0.951 . S
C876 C877 1.366 . S
C876 C878 1.388 . S
C877 C876 1.366 . S
C877 C881 1.385 . S
C878 H859 0.951 . S
C878 C876 1.388 . S
C878 C879 1.366 . S
C879 C878 1.366 . S
C879 C880 1.414 . S
C879 C882 1.499 . S
C880 H860 0.950 . S
C880 C879 1.414 . S
C880 C881 1.374 . S
C881 H861 0.950 . S
C881 C877 1.385 . S
C881 C880 1.374 . S
C882 C879 1.499 . S
C882 C883 1.373 . S
C882 C884 1.389 . S
C883 H862 0.950 . S
C883 C882 1.373 . S
C883 C899 1.377 . S
C884 C882 1.389 . S
C884 C885 1.524 . S
C884 C898 1.377 . S
C885 C884 1.524 . S
C885 C886 1.397 . S
C885 C890 1.363 . S
C886 H863 0.950 . S
C886 C885 1.397 . S
C886 C887 1.334 . S
C887 H864 0.950 . S
C887 C886 1.334 . S
C887 C888 1.287 . S
C888 C887 1.287 . S
C888 C889 1.524 . S
C888 H907 0.913 . S
C889 H865 0.950 . S
C889 C888 1.524 . S
C889 C890 1.415 . S
C890 H866 0.950 . S
C890 C885 1.363 . S
C890 C889 1.415 . S
C891 H867 0.951 . S
C891 C892 1.366 . S
C891 C893 1.388 . S
C892 C891 1.366 . S
C892 C896 1.385 . S
C893 H868 0.951 . S
C893 C891 1.388 . S
C893 C894 1.366 . S
C894 C893 1.366 . S
C894 C895 1.414 . S
C894 C897 1.499 . S
C895 H869 0.950 . S
C895 C894 1.414 . S
C895 C896 1.374 . S
C896 H870 0.950 . S
C896 C892 1.385 . S
C896 C895 1.374 . S
C897 C894 1.499 . S
C897 C898 1.373 . S
C897 C899 1.389 . S
C898 H871 0.950 . S
C898 C884 1.377 . S
C898 C897 1.373 . S
C899 C883 1.377 . S
C899 C897 1.389 . S
C899 C900 1.524 . S
C900 C899 1.524 . S
C900 C901 1.397 . S
C900 C905 1.363 . S
C901 H872 0.950 . S
C901 C900 1.397 . S
C901 C902 1.334 . S
C902 H873 0.950 . S
C902 C901 1.334 . S
C902 C903 1.287 . S
C903 C902 1.287 . S
C903 C904 1.524 . S
C903 H906 0.999 . S
C904 H874 0.950 . S
C904 C903 1.524 . S
C904 C905 1.415 . S
C905 H875 0.950 . S
C905 C900 1.363 . S
C905 C904 1.415 . S
H906 C903 0.999 . S
H907 C888 0.913 . S
H908 C926 0.951 . S
H909 C928 0.951 . S
H910 C930 0.950 . S
H911 C931 0.950 . S
H912 C933 0.950 . S
H913 C936 0.950 . S
H914 C937 0.950 . S
H915 C939 0.950 . S
H916 C940 0.950 . S
H917 C941 0.951 . S
H918 C943 0.951 . S
H919 C945 0.950 . S
H920 C946 0.950 . S
H921 C948 0.950 . S
H922 C951 0.950 . S
H923 C952 0.950 . S
H924 C954 0.950 . S
H925 C955 0.950 . S
C926 H908 0.951 . S
C926 C927 1.366 . S
C926 C928 1.388 . S
C927 C926 1.366 . S
C927 C931 1.385 . S
C928 H909 0.951 . S
C928 C926 1.388 . S
C928 C929 1.366 . S
C929 C928 1.366 . S
C929 C930 1.414 . S
C929 C932 1.499 . S
C930 H910 0.950 . S
C930 C929 1.414 . S
C930 C931 1.374 . S
C931 H911 0.950 . S
C931 C927 1.385 . S
C931 C930 1.374 . S
C932 C929 1.499 . S
C932 C933 1.373 . S
C932 C934 1.389 . S
C933 H912 0.950 . S
C933 C932 1.373 . S
C933 C949 1.377 . S
C934 C932 1.389 . S
C934 C935 1.524 . S
C934 C948 1.377 . S
C935 C934 1.524 . S
C935 C936 1.397 . S
C935 C940 1.363 . S
C936 H913 0.950 . S
C936 C935 1.397 . S
C936 C937 1.334 . S
C937 H914 0.950 . S
C937 C936 1.334 . S
C937 C938 1.287 . S
C938 C937 1.287 . S
C938 C939 1.524 . S
C938 H957 0.913 . S
C939 H915 0.950 . S
C939 C938 1.524 . S
C939 C940 1.415 . S
C940 H916 0.950 . S
C940 C935 1.363 . S
C940 C939 1.415 . S
C941 H917 0.951 . S
C941 C942 1.366 . S
C941 C943 1.388 . S
C942 C941 1.366 . S
C942 C946 1.385 . S
C943 H918 0.951 . S
C943 C941 1.388 . S
C943 C944 1.366 . S
C944 C943 1.366 . S
C944 C945 1.414 . S
C944 C947 1.499 . S
C945 H919 0.950 . S
C945 C944 1.414 . S
C945 C946 1.374 . S
C946 H920 0.950 . S
C946 C942 1.385 . S
C946 C945 1.374 . S
C947 C944 1.499 . S
C947 C948 1.373 . S
C947 C949 1.389 . S
C948 H921 0.950 . S
C948 C934 1.377 . S
C948 C947 1.373 . S
C949 C933 1.377 . S
C949 C947 1.389 . S
C949 C950 1.524 . S
C950 C949 1.524 . S
C950 C951 1.397 . S
C950 C955 1.363 . S
C951 H922 0.950 . S
C951 C950 1.397 . S
C951 C952 1.334 . S
C952 H923 0.950 . S
C952 C951 1.334 . S
C952 C953 1.287 . S
C953 C952 1.287 . S
C953 C954 1.524 . S
C953 H956 0.999 . S
C954 H924 0.950 . S
C954 C953 1.524 . S
C954 C955 1.415 . S
C955 H925 0.950 . S
C955 C950 1.363 . S
C955 C954 1.415 . S
H956 C953 0.999 . S
H957 C938 0.913 . S
H958 C976 0.951 . S
H959 C978 0.951 . S
H960 C980 0.950 . S
H961 C981 0.950 . S
H962 C983 0.950 . S
H963 C986 0.950 . S
H964 C987 0.950 . S
H965 C989 0.950 . S
H966 C990 0.950 . S
H967 C991 0.951 . S
H968 C993 0.951 . S
H969 C995 0.950 . S
H970 C996 0.950 . S
H971 C998 0.950 . S
H972 C1001 0.950 . S
H973 C1002 0.950 . S
H974 C1004 0.950 . S
H975 C1005 0.950 . S
C976 H958 0.951 . S
C976 C977 1.366 . S
C976 C978 1.388 . S
C977 C976 1.366 . S
C977 C981 1.385 . S
C978 H959 0.951 . S
C978 C976 1.388 . S
C978 C979 1.366 . S
C979 C978 1.366 . S
C979 C980 1.414 . S
C979 C982 1.499 . S
C980 H960 0.950 . S
C980 C979 1.414 . S
C980 C981 1.374 . S
C981 H961 0.950 . S
C981 C977 1.385 . S
C981 C980 1.374 . S
C982 C979 1.499 . S
C982 C983 1.373 . S
C982 C984 1.389 . S
C983 H962 0.950 . S
C983 C982 1.373 . S
C983 C999 1.377 . S
C984 C982 1.389 . S
C984 C985 1.524 . S
C984 C998 1.377 . S
C985 C984 1.524 . S
C985 C986 1.397 . S
C985 C990 1.363 . S
C986 H963 0.950 . S
C986 C985 1.397 . S
C986 C987 1.334 . S
C987 H964 0.950 . S
C987 C986 1.334 . S
C987 C988 1.287 . S
C988 C987 1.287 . S
C988 C989 1.524 . S
C988 H1007 0.913 . S
C989 H965 0.950 . S
C989 C988 1.524 . S
C989 C990 1.415 . S
C990 H966 0.950 . S
C990 C985 1.363 . S
C990 C989 1.415 . S
C991 H967 0.951 . S
C991 C992 1.366 . S
C991 C993 1.388 . S
C992 C991 1.366 . S
C992 C996 1.385 . S
C993 H968 0.951 . S
C993 C991 1.388 . S
C993 C994 1.366 . S
C994 C993 1.366 . S
C994 C995 1.414 . S
C994 C997 1.499 . S
C995 H969 0.950 . S
C995 C994 1.414 . S
C995 C996 1.374 . S
C996 H970 0.950 . S
C996 C992 1.385 . S
C996 C995 1.374 . S
C997 C994 1.499 . S
C997 C998 1.373 . S
C997 C999 1.389 . S
C998 H971 0.950 . S
C998 C984 1.377 . S
C998 C997 1.373 . S
C999 C983 1.377 . S
C999 C997 1.389 . S
C999 C1000 1.524 . S
C1000 C999 1.524 . S
C1000 C1001 1.397 . S
C1000 C1005 1.363 . S
C1001 H972 0.950 . S
C1001 C1000 1.397 . S
C1001 C1002 1.334 . S
C1002 H973 0.950 . S
C1002 C1001 1.334 . S
C1002 C1003 1.287 . S
C1003 C1002 1.287 . S
C1003 C1004 1.524 . S
C1003 H1006 0.999 . S
C1004 H974 0.950 . S
C1004 C1003 1.524 . S
C1004 C1005 1.415 . S
C1005 H975 0.950 . S
C1005 C1000 1.363 . S
C1005 C1004 1.415 . S
H1006 C1003 0.999 . S
H1007 C988 0.913 . S
H1008 C1026 0.951 . S
H1009 C1028 0.951 . S
H1010 C1030 0.950 . S
H1011 C1031 0.950 . S
H1012 C1033 0.950 . S
H1013 C1036 0.950 . S
H1014 C1037 0.950 . S
H1015 C1039 0.950 . S
H1016 C1040 0.950 . S
H1017 C1041 0.951 . S
H1018 C1043 0.951 . S
H1019 C1045 0.950 . S
H1020 C1046 0.950 . S
H1021 C1048 0.950 . S
H1022 C1051 0.950 . S
H1023 C1052 0.950 . S
H1024 C1054 0.950 . S
H1025 C1055 0.950 . S
C1026 H1008 0.951 . S
C1026 C1027 1.366 . S
C1026 C1028 1.388 . S
C1027 C1026 1.366 . S
C1027 C1031 1.385 . S
C1028 H1009 0.951 . S
C1028 C1026 1.388 . S
C1028 C1029 1.366 . S
C1029 C1028 1.366 . S
C1029 C1030 1.414 . S
C1029 C1032 1.499 . S
C1030 H1010 0.950 . S
C1030 C1029 1.414 . S
C1030 C1031 1.374 . S
C1031 H1011 0.950 . S
C1031 C1027 1.385 . S
C1031 C1030 1.374 . S
C1032 C1029 1.499 . S
C1032 C1033 1.373 . S
C1032 C1034 1.389 . S
C1033 H1012 0.950 . S
C1033 C1032 1.373 . S
C1033 C1049 1.377 . S
C1034 C1032 1.389 . S
C1034 C1035 1.524 . S
C1034 C1048 1.377 . S
C1035 C1034 1.524 . S
C1035 C1036 1.397 . S
C1035 C1040 1.363 . S
C1036 H1013 0.950 . S
C1036 C1035 1.397 . S
C1036 C1037 1.334 1_545 S
C1037 H1014 0.950 . S
C1037 C1036 1.334 1_565 S
C1037 C1038 1.287 . S
C1038 C1037 1.287 . S
C1038 C1039 1.524 . S
C1038 H1057 0.913 . S
C1039 H1015 0.950 . S
C1039 C1038 1.524 . S
C1039 C1040 1.415 1_565 S
C1040 H1016 0.950 . S
C1040 C1035 1.363 . S
C1040 C1039 1.415 1_545 S
C1041 H1017 0.951 . S
C1041 C1042 1.366 . S
C1041 C1043 1.388 . S
C1042 C1041 1.366 . S
C1042 C1046 1.385 . S
C1043 H1018 0.951 . S
C1043 C1041 1.388 . S
C1043 C1044 1.366 . S
C1044 C1043 1.366 . S
C1044 C1045 1.414 . S
C1044 C1047 1.499 . S
C1045 H1019 0.950 . S
C1045 C1044 1.414 . S
C1045 C1046 1.374 . S
C1046 H1020 0.950 . S
C1046 C1042 1.385 . S
C1046 C1045 1.374 . S
C1047 C1044 1.499 . S
C1047 C1048 1.373 . S
C1047 C1049 1.389 . S
C1048 H1021 0.950 . S
C1048 C1034 1.377 . S
C1048 C1047 1.373 . S
C1049 C1033 1.377 . S
C1049 C1047 1.389 . S
C1049 C1050 1.524 . S
C1050 C1049 1.524 . S
C1050 C1051 1.397 . S
C1050 C1055 1.363 . S
C1051 H1022 0.950 . S
C1051 C1050 1.397 . S
C1051 C1052 1.334 . S
C1052 H1023 0.950 . S
C1052 C1051 1.334 . S
C1052 C1053 1.287 . S
C1053 C1052 1.287 . S
C1053 C1054 1.524 . S
C1053 H1056 0.999 . S
C1054 H1024 0.950 . S
C1054 C1053 1.524 . S
C1054 C1055 1.415 . S
C1055 H1025 0.950 . S
C1055 C1050 1.363 . S
C1055 C1054 1.415 . S
H1056 C1053 0.999 . S
H1057 C1038 0.913 . S
H1058 C1076 0.951 . S
H1059 C1078 0.951 . S
H1060 C1080 0.950 . S
H1061 C1081 0.950 . S
H1062 C1083 0.950 . S
H1063 C1086 0.950 . S
H1064 C1087 0.950 . S
H1065 C1089 0.950 . S
H1066 C1090 0.950 . S
H1067 C1091 0.951 . S
H1068 C1093 0.951 . S
H1069 C1095 0.950 . S
H1070 C1096 0.950 . S
H1071 C1098 0.950 . S
H1072 C1101 0.950 . S
H1073 C1102 0.950 . S
H1074 C1104 0.950 . S
H1075 C1105 0.950 . S
C1076 H1058 0.951 . S
C1076 C1077 1.366 . S
C1076 C1078 1.388 . S
C1077 C1076 1.366 . S
C1077 C1081 1.385 . S
C1078 H1059 0.951 . S
C1078 C1076 1.388 . S
C1078 C1079 1.366 . S
C1079 C1078 1.366 . S
C1079 C1080 1.414 . S
C1079 C1082 1.499 . S
C1080 H1060 0.950 . S
C1080 C1079 1.414 . S
C1080 C1081 1.374 . S
C1081 H1061 0.950 . S
C1081 C1077 1.385 . S
C1081 C1080 1.374 . S
C1082 C1079 1.499 . S
C1082 C1083 1.373 . S
C1082 C1084 1.389 . S
C1083 H1062 0.950 . S
C1083 C1082 1.373 . S
C1083 C1099 1.377 . S
C1084 C1082 1.389 . S
C1084 C1085 1.524 . S
C1084 C1098 1.377 . S
C1085 C1084 1.524 . S
C1085 C1086 1.397 . S
C1085 C1090 1.363 . S
C1086 H1063 0.950 . S
C1086 C1085 1.397 . S
C1086 C1087 1.334 . S
C1087 H1064 0.950 . S
C1087 C1086 1.334 . S
C1087 C1088 1.287 . S
C1088 C1087 1.287 . S
C1088 C1089 1.524 . S
C1088 H1107 0.913 . S
C1089 H1065 0.950 . S
C1089 C1088 1.524 . S
C1089 C1090 1.415 . S
C1090 H1066 0.950 . S
C1090 C1085 1.363 . S
C1090 C1089 1.415 . S
C1091 H1067 0.951 . S
C1091 C1092 1.366 . S
C1091 C1093 1.388 . S
C1092 C1091 1.366 . S
C1092 C1096 1.385 . S
C1093 H1068 0.951 . S
C1093 C1091 1.388 . S
C1093 C1094 1.366 . S
C1094 C1093 1.366 . S
C1094 C1095 1.414 . S
C1094 C1097 1.499 . S
C1095 H1069 0.950 . S
C1095 C1094 1.414 . S
C1095 C1096 1.374 . S
C1096 H1070 0.950 . S
C1096 C1092 1.385 . S
C1096 C1095 1.374 . S
C1097 C1094 1.499 . S
C1097 C1098 1.373 . S
C1097 C1099 1.389 . S
C1098 H1071 0.950 . S
C1098 C1084 1.377 . S
C1098 C1097 1.373 . S
C1099 C1083 1.377 . S
C1099 C1097 1.389 . S
C1099 C1100 1.524 . S
C1100 C1099 1.524 . S
C1100 C1101 1.397 . S
C1100 C1105 1.363 . S
C1101 H1072 0.950 . S
C1101 C1100 1.397 . S
C1101 C1102 1.334 . S
C1102 H1073 0.950 . S
C1102 C1101 1.334 . S
C1102 C1103 1.287 . S
C1103 C1102 1.287 . S
C1103 C1104 1.524 . S
C1103 H1106 0.999 . S
C1104 H1074 0.950 . S
C1104 C1103 1.524 . S
C1104 C1105 1.415 . S
C1105 H1075 0.950 . S
C1105 C1100 1.363 . S
C1105 C1104 1.415 . S
H1106 C1103 0.999 . S
H1107 C1088 0.913 . S
H1108 C1126 0.951 . S
H1109 C1128 0.951 . S
H1110 C1130 0.950 . S
H1111 C1131 0.950 . S
H1112 C1133 0.950 . S
H1113 C1136 0.950 . S
H1114 C1137 0.950 . S
H1115 C1139 0.950 . S
H1116 C1140 0.950 . S
H1117 C1141 0.951 . S
H1118 C1143 0.951 . S
H1119 C1145 0.950 . S
H1120 C1146 0.950 . S
H1121 C1148 0.950 . S
H1122 C1151 0.950 . S
H1123 C1152 0.950 . S
H1124 C1154 0.950 . S
H1125 C1155 0.950 . S
C1126 H1108 0.951 . S
C1126 C1127 1.366 . S
C1126 C1128 1.388 . S
C1127 C1126 1.366 . S
C1127 C1131 1.385 . S
C1128 H1109 0.951 . S
C1128 C1126 1.388 . S
C1128 C1129 1.366 . S
C1129 C1128 1.366 . S
C1129 C1130 1.414 . S
C1129 C1132 1.499 . S
C1130 H1110 0.950 . S
C1130 C1129 1.414 . S
C1130 C1131 1.374 . S
C1131 H1111 0.950 . S
C1131 C1127 1.385 . S
C1131 C1130 1.374 . S
C1132 C1129 1.499 . S
C1132 C1133 1.373 . S
C1132 C1134 1.389 . S
C1133 H1112 0.950 . S
C1133 C1132 1.373 . S
C1133 C1149 1.377 . S
C1134 C1132 1.389 . S
C1134 C1135 1.524 . S
C1134 C1148 1.377 . S
C1135 C1134 1.524 . S
C1135 C1136 1.397 . S
C1135 C1140 1.363 . S
C1136 H1113 0.950 . S
C1136 C1135 1.397 . S
C1136 C1137 1.334 . S
C1137 H1114 0.950 . S
C1137 C1136 1.334 . S
C1137 C1138 1.287 . S
C1138 C1137 1.287 . S
C1138 C1139 1.524 . S
C1138 H1157 0.913 . S
C1139 H1115 0.950 . S
C1139 C1138 1.524 . S
C1139 C1140 1.415 . S
C1140 H1116 0.950 . S
C1140 C1135 1.363 . S
C1140 C1139 1.415 . S
C1141 H1117 0.951 . S
C1141 C1142 1.366 . S
C1141 C1143 1.388 . S
C1142 C1141 1.366 . S
C1142 C1146 1.385 . S
C1143 H1118 0.951 . S
C1143 C1141 1.388 . S
C1143 C1144 1.366 . S
C1144 C1143 1.366 . S
C1144 C1145 1.414 . S
C1144 C1147 1.499 . S
C1145 H1119 0.950 . S
C1145 C1144 1.414 . S
C1145 C1146 1.374 . S
C1146 H1120 0.950 . S
C1146 C1142 1.385 . S
C1146 C1145 1.374 . S
C1147 C1144 1.499 . S
C1147 C1148 1.373 . S
C1147 C1149 1.389 . S
C1148 H1121 0.950 . S
C1148 C1134 1.377 . S
C1148 C1147 1.373 . S
C1149 C1133 1.377 . S
C1149 C1147 1.389 . S
C1149 C1150 1.524 . S
C1150 C1149 1.524 . S
C1150 C1151 1.397 . S
C1150 C1155 1.363 . S
C1151 H1122 0.950 . S
C1151 C1150 1.397 . S
C1151 C1152 1.334 . S
C1152 H1123 0.950 . S
C1152 C1151 1.334 . S
C1152 C1153 1.287 . S
C1153 C1152 1.287 . S
C1153 C1154 1.524 . S
C1153 H1156 0.999 . S
C1154 H1124 0.950 . S
C1154 C1153 1.524 . S
C1154 C1155 1.415 . S
C1155 H1125 0.950 . S
C1155 C1150 1.363 . S
C1155 C1154 1.415 . S
H1156 C1153 0.999 . S
H1157 C1138 0.913 . S
H1158 C1176 0.951 . S
H1159 C1178 0.951 . S
H1160 C1180 0.950 . S
H1161 C1181 0.950 . S
H1162 C1183 0.950 . S
H1163 C1186 0.950 . S
H1164 C1187 0.950 . S
H1165 C1189 0.950 . S
H1166 C1190 0.950 . S
H1167 C1191 0.951 . S
H1168 C1193 0.951 . S
H1169 C1195 0.950 . S
H1170 C1196 0.950 . S
H1171 C1198 0.950 . S
H1172 C1201 0.950 . S
H1173 C1202 0.950 . S
H1174 C1204 0.950 . S
H1175 C1205 0.950 . S
C1176 H1158 0.951 . S
C1176 C1177 1.366 . S
C1176 C1178 1.388 . S
C1177 C1176 1.366 . S
C1177 C1181 1.385 . S
C1178 H1159 0.951 . S
C1178 C1176 1.388 . S
C1178 C1179 1.366 . S
C1179 C1178 1.366 . S
C1179 C1180 1.414 . S
C1179 C1182 1.499 . S
C1180 H1160 0.950 . S
C1180 C1179 1.414 . S
C1180 C1181 1.374 . S
C1181 H1161 0.950 . S
C1181 C1177 1.385 . S
C1181 C1180 1.374 . S
C1182 C1179 1.499 . S
C1182 C1183 1.373 . S
C1182 C1184 1.389 . S
C1183 H1162 0.950 . S
C1183 C1182 1.373 . S
C1183 C1199 1.377 . S
C1184 C1182 1.389 . S
C1184 C1185 1.524 . S
C1184 C1198 1.377 . S
C1185 C1184 1.524 . S
C1185 C1186 1.397 . S
C1185 C1190 1.363 . S
C1186 H1163 0.950 . S
C1186 C1185 1.397 . S
C1186 C1187 1.334 . S
C1187 H1164 0.950 . S
C1187 C1186 1.334 . S
C1187 C1188 1.287 . S
C1188 C1187 1.287 . S
C1188 C1189 1.524 . S
C1188 H1207 0.913 . S
C1189 H1165 0.950 . S
C1189 C1188 1.524 . S
C1189 C1190 1.415 . S
C1190 H1166 0.950 . S
C1190 C1185 1.363 . S
C1190 C1189 1.415 . S
C1191 H1167 0.951 . S
C1191 C1192 1.366 . S
C1191 C1193 1.388 . S
C1192 C1191 1.366 . S
C1192 C1196 1.385 . S
C1193 H1168 0.951 . S
C1193 C1191 1.388 . S
C1193 C1194 1.366 . S
C1194 C1193 1.366 . S
C1194 C1195 1.414 . S
C1194 C1197 1.499 . S
C1195 H1169 0.950 . S
C1195 C1194 1.414 . S
C1195 C1196 1.374 . S
C1196 H1170 0.950 . S
C1196 C1192 1.385 . S
C1196 C1195 1.374 . S
C1197 C1194 1.499 . S
C1197 C1198 1.373 . S
C1197 C1199 1.389 . S
C1198 H1171 0.950 . S
C1198 C1184 1.377 . S
C1198 C1197 1.373 . S
C1199 C1183 1.377 . S
C1199 C1197 1.389 . S
C1199 C1200 1.524 . S
C1200 C1199 1.524 . S
C1200 C1201 1.397 . S
C1200 C1205 1.363 . S
C1201 H1172 0.950 . S
C1201 C1200 1.397 . S
C1201 C1202 1.334 . S
C1202 H1173 0.950 . S
C1202 C1201 1.334 . S
C1202 C1203 1.287 . S
C1203 C1202 1.287 . S
C1203 C1204 1.524 . S
C1203 H1206 0.999 . S
C1204 H1174 0.950 . S
C1204 C1203 1.524 . S
C1204 C1205 1.415 . S
C1205 H1175 0.950 . S
C1205 C1200 1.363 . S
C1205 C1204 1.415 . S
H1206 C1203 0.999 . S
H1207 C1188 0.913 . S
H1208 C1226 0.951 . S
H1209 C1228 0.951 . S
H1210 C1230 0.950 . S
H1211 C1231 0.950 . S
H1212 C1233 0.950 . S
H1213 C1236 0.950 . S
H1214 C1237 0.950 . S
H1215 C1239 0.950 . S
H1216 C1240 0.950 . S
H1217 C1241 0.951 . S
H1218 C1243 0.951 . S
H1219 C1245 0.950 . S
H1220 C1246 0.950 . S
H1221 C1248 0.950 . S
H1222 C1251 0.950 . S
H1223 C1252 0.950 . S
H1224 C1254 0.950 . S
H1225 C1255 0.950 . S
C1226 H1208 0.951 . S
C1226 C1227 1.366 . S
C1226 C1228 1.388 . S
C1227 C1226 1.366 . S
C1227 C1231 1.385 . S
C1228 H1209 0.951 . S
C1228 C1226 1.388 . S
C1228 C1229 1.366 . S
C1229 C1228 1.366 . S
C1229 C1230 1.414 . S
C1229 C1232 1.499 . S
C1230 H1210 0.950 . S
C1230 C1229 1.414 . S
C1230 C1231 1.374 . S
C1231 H1211 0.950 . S
C1231 C1227 1.385 . S
C1231 C1230 1.374 . S
C1232 C1229 1.499 . S
C1232 C1233 1.373 . S
C1232 C1234 1.389 . S
C1233 H1212 0.950 . S
C1233 C1232 1.373 . S
C1233 C1249 1.377 . S
C1234 C1232 1.389 . S
C1234 C1235 1.524 . S
C1234 C1248 1.377 . S
C1235 C1234 1.524 . S
C1235 C1236 1.397 . S
C1235 C1240 1.363 . S
C1236 H1213 0.950 . S
C1236 C1235 1.397 . S
C1236 C1237 1.334 . S
C1237 H1214 0.950 . S
C1237 C1236 1.334 . S
C1237 C1238 1.287 . S
C1238 C1237 1.287 . S
C1238 C1239 1.524 . S
C1238 H1257 0.913 . S
C1239 H1215 0.950 . S
C1239 C1238 1.524 . S
C1239 C1240 1.415 . S
C1240 H1216 0.950 . S
C1240 C1235 1.363 . S
C1240 C1239 1.415 . S
C1241 H1217 0.951 . S
C1241 C1242 1.366 . S
C1241 C1243 1.388 . S
C1242 C1241 1.366 . S
C1242 C1246 1.385 . S
C1243 H1218 0.951 . S
C1243 C1241 1.388 . S
C1243 C1244 1.366 . S
C1244 C1243 1.366 . S
C1244 C1245 1.414 . S
C1244 C1247 1.499 . S
C1245 H1219 0.950 . S
C1245 C1244 1.414 . S
C1245 C1246 1.374 . S
C1246 H1220 0.950 . S
C1246 C1242 1.385 . S
C1246 C1245 1.374 . S
C1247 C1244 1.499 . S
C1247 C1248 1.373 . S
C1247 C1249 1.389 . S
C1248 H1221 0.950 . S
C1248 C1234 1.377 . S
C1248 C1247 1.373 . S
C1249 C1233 1.377 . S
C1249 C1247 1.389 . S
C1249 C1250 1.524 . S
C1250 C1249 1.524 . S
C1250 C1251 1.397 . S
C1250 C1255 1.363 . S
C1251 H1222 0.950 . S
C1251 C1250 1.397 . S
C1251 C1252 1.334 1_565 S
C1252 H1223 0.950 . S
C1252 C1251 1.334 1_545 S
C1252 C1253 1.287 . S
C1253 C1252 1.287 . S
C1253 C1254 1.524 . S
C1253 H1256 0.999 . S
C1254 H1224 0.950 . S
C1254 C1253 1.524 . S
C1254 C1255 1.415 1_545 S
C1255 H1225 0.950 . S
C1255 C1250 1.363 . S
C1255 C1254 1.415 1_565 S
H1256 C1253 0.999 . S
H1257 C1238 0.913 . S
H1258 C1276 0.951 . S
H1259 C1278 0.951 . S
H1260 C1280 0.950 . S
H1261 C1281 0.950 . S
H1262 C1283 0.950 . S
H1263 C1286 0.950 . S
H1264 C1287 0.950 . S
H1265 C1289 0.950 . S
H1266 C1290 0.950 . S
H1267 C1291 0.951 . S
H1268 C1293 0.951 . S
H1269 C1295 0.950 . S
H1270 C1296 0.950 . S
H1271 C1298 0.950 . S
H1272 C1301 0.950 . S
H1273 C1302 0.950 . S
H1274 C1304 0.950 . S
H1275 C1305 0.950 . S
C1276 H1258 0.951 . S
C1276 C1277 1.366 . S
C1276 C1278 1.388 . S
C1277 C1276 1.366 . S
C1277 C1281 1.385 . S
C1278 H1259 0.951 . S
C1278 C1276 1.388 . S
C1278 C1279 1.366 . S
C1279 C1278 1.366 . S
C1279 C1280 1.414 . S
C1279 C1282 1.499 . S
C1280 H1260 0.950 . S
C1280 C1279 1.414 . S
C1280 C1281 1.374 . S
C1281 H1261 0.950 . S
C1281 C1277 1.385 . S
C1281 C1280 1.374 . S
C1282 C1279 1.499 . S
C1282 C1283 1.373 . S
C1282 C1284 1.389 . S
C1283 H1262 0.950 . S
C1283 C1282 1.373 . S
C1283 C1299 1.377 . S
C1284 C1282 1.389 . S
C1284 C1285 1.524 . S
C1284 C1298 1.377 . S
C1285 C1284 1.524 . S
C1285 C1286 1.397 . S
C1285 C1290 1.363 . S
C1286 H1263 0.950 . S
C1286 C1285 1.397 . S
C1286 C1287 1.334 . S
C1287 H1264 0.950 . S
C1287 C1286 1.334 . S
C1287 C1288 1.287 . S
C1288 C1287 1.287 . S
C1288 C1289 1.524 . S
C1288 H1307 0.913 . S
C1289 H1265 0.950 . S
C1289 C1288 1.524 . S
C1289 C1290 1.415 . S
C1290 H1266 0.950 . S
C1290 C1285 1.363 . S
C1290 C1289 1.415 . S
C1291 H1267 0.951 . S
C1291 C1292 1.366 . S
C1291 C1293 1.388 . S
C1292 C1291 1.366 . S
C1292 C1296 1.385 . S
C1293 H1268 0.951 . S
C1293 C1291 1.388 . S
C1293 C1294 1.366 . S
C1294 C1293 1.366 . S
C1294 C1295 1.414 . S
C1294 C1297 1.499 . S
C1295 H1269 0.950 . S
C1295 C1294 1.414 . S
C1295 C1296 1.374 . S
C1296 H1270 0.950 . S
C1296 C1292 1.385 . S
C1296 C1295 1.374 . S
C1297 C1294 1.499 . S
C1297 C1298 1.373 . S
C1297 C1299 1.389 . S
C1298 H1271 0.950 . S
C1298 C1284 1.377 . S
C1298 C1297 1.373 . S
C1299 C1283 1.377 . S
C1299 C1297 1.389 . S
C1299 C1300 1.524 . S
C1300 C1299 1.524 . S
C1300 C1301 1.397 . S
C1300 C1305 1.363 . S
C1301 H1272 0.950 . S
C1301 C1300 1.397 . S
C1301 C1302 1.334 . S
C1302 H1273 0.950 . S
C1302 C1301 1.334 . S
C1302 C1303 1.287 . S
C1303 C1302 1.287 . S
C1303 C1304 1.524 . S
C1303 H1306 0.999 . S
C1304 H1274 0.950 . S
C1304 C1303 1.524 . S
C1304 C1305 1.415 . S
C1305 H1275 0.950 . S
C1305 C1300 1.363 . S
C1305 C1304 1.415 . S
H1306 C1303 0.999 . S
H1307 C1288 0.913 . S
H1308 C1326 0.951 . S
H1309 C1328 0.951 . S
H1310 C1330 0.950 . S
H1311 C1331 0.950 . S
H1312 C1333 0.950 . S
H1313 C1336 0.950 . S
H1314 C1337 0.950 . S
H1315 C1339 0.950 . S
H1316 C1340 0.950 . S
H1317 C1341 0.951 . S
H1318 C1343 0.951 . S
H1319 C1345 0.950 . S
H1320 C1346 0.950 . S
H1321 C1348 0.950 . S
H1322 C1351 0.950 . S
H1323 C1352 0.950 . S
H1324 C1354 0.950 . S
H1325 C1355 0.950 . S
C1326 H1308 0.951 . S
C1326 C1327 1.366 . S
C1326 C1328 1.388 . S
C1327 C1326 1.366 . S
C1327 C1331 1.385 . S
C1328 H1309 0.951 . S
C1328 C1326 1.388 . S
C1328 C1329 1.366 . S
C1329 C1328 1.366 . S
C1329 C1330 1.414 . S
C1329 C1332 1.499 . S
C1330 H1310 0.950 . S
C1330 C1329 1.414 . S
C1330 C1331 1.374 . S
C1331 H1311 0.950 . S
C1331 C1327 1.385 . S
C1331 C1330 1.374 . S
C1332 C1329 1.499 . S
C1332 C1333 1.373 . S
C1332 C1334 1.389 . S
C1333 H1312 0.950 . S
C1333 C1332 1.373 . S
C1333 C1349 1.377 . S
C1334 C1332 1.389 . S
C1334 C1335 1.524 . S
C1334 C1348 1.377 . S
C1335 C1334 1.524 . S
C1335 C1336 1.397 . S
C1335 C1340 1.363 . S
C1336 H1313 0.950 . S
C1336 C1335 1.397 . S
C1336 C1337 1.334 . S
C1337 H1314 0.950 . S
C1337 C1336 1.334 . S
C1337 C1338 1.287 . S
C1338 C1337 1.287 . S
C1338 C1339 1.524 . S
C1338 H1357 0.913 . S
C1339 H1315 0.950 . S
C1339 C1338 1.524 . S
C1339 C1340 1.415 . S
C1340 H1316 0.950 . S
C1340 C1335 1.363 . S
C1340 C1339 1.415 . S
C1341 H1317 0.951 . S
C1341 C1342 1.366 . S
C1341 C1343 1.388 . S
C1342 C1341 1.366 . S
C1342 C1346 1.385 . S
C1343 H1318 0.951 . S
C1343 C1341 1.388 . S
C1343 C1344 1.366 . S
C1344 C1343 1.366 . S
C1344 C1345 1.414 . S
C1344 C1347 1.499 . S
C1345 H1319 0.950 . S
C1345 C1344 1.414 . S
C1345 C1346 1.374 . S
C1346 H1320 0.950 . S
C1346 C1342 1.385 . S
C1346 C1345 1.374 . S
C1347 C1344 1.499 . S
C1347 C1348 1.373 . S
C1347 C1349 1.389 . S
C1348 H1321 0.950 . S
C1348 C1334 1.377 . S
C1348 C1347 1.373 . S
C1349 C1333 1.377 . S
C1349 C1347 1.389 . S
C1349 C1350 1.524 . S
C1350 C1349 1.524 . S
C1350 C1351 1.397 . S
C1350 C1355 1.363 . S
C1351 H1322 0.950 . S
C1351 C1350 1.397 . S
C1351 C1352 1.334 . S
C1352 H1323 0.950 . S
C1352 C1351 1.334 . S
C1352 C1353 1.287 . S
C1353 C1352 1.287 . S
C1353 C1354 1.524 . S
C1353 H1356 0.999 . S
C1354 H1324 0.950 . S
C1354 C1353 1.524 . S
C1354 C1355 1.415 . S
C1355 H1325 0.950 . S
C1355 C1350 1.363 . S
C1355 C1354 1.415 . S
H1356 C1353 0.999 . S
H1357 C1338 0.913 . S
H1358 C1376 0.951 . S
H1359 C1378 0.951 . S
H1360 C1380 0.950 . S
H1361 C1381 0.950 . S
H1362 C1383 0.950 . S
H1363 C1386 0.950 . S
H1364 C1387 0.950 . S
H1365 C1389 0.950 . S
H1366 C1390 0.950 . S
H1367 C1391 0.951 . S
H1368 C1393 0.951 . S
H1369 C1395 0.950 . S
H1370 C1396 0.950 . S
H1371 C1398 0.950 . S
H1372 C1401 0.950 . S
H1373 C1402 0.950 . S
H1374 C1404 0.950 . S
H1375 C1405 0.950 . S
C1376 H1358 0.951 . S
C1376 C1377 1.366 . S
C1376 C1378 1.388 . S
C1377 C1376 1.366 . S
C1377 C1381 1.385 . S
C1378 H1359 0.951 . S
C1378 C1376 1.388 . S
C1378 C1379 1.366 . S
C1379 C1378 1.366 . S
C1379 C1380 1.414 . S
C1379 C1382 1.499 . S
C1380 H1360 0.950 . S
C1380 C1379 1.414 . S
C1380 C1381 1.374 . S
C1381 H1361 0.950 . S
C1381 C1377 1.385 . S
C1381 C1380 1.374 . S
C1382 C1379 1.499 . S
C1382 C1383 1.373 . S
C1382 C1384 1.389 . S
C1383 H1362 0.950 . S
C1383 C1382 1.373 . S
C1383 C1399 1.377 . S
C1384 C1382 1.389 . S
C1384 C1385 1.524 . S
C1384 C1398 1.377 . S
C1385 C1384 1.524 . S
C1385 C1386 1.397 . S
C1385 C1390 1.363 . S
C1386 H1363 0.950 . S
C1386 C1385 1.397 . S
C1386 C1387 1.334 . S
C1387 H1364 0.950 . S
C1387 C1386 1.334 . S
C1387 C1388 1.287 . S
C1388 C1387 1.287 . S
C1388 C1389 1.524 . S
C1388 H1407 0.913 . S
C1389 H1365 0.950 . S
C1389 C1388 1.524 . S
C1389 C1390 1.415 . S
C1390 H1366 0.950 . S
C1390 C1385 1.363 . S
C1390 C1389 1.415 . S
C1391 H1367 0.951 . S
C1391 C1392 1.366 . S
C1391 C1393 1.388 . S
C1392 C1391 1.366 . S
C1392 C1396 1.385 . S
C1393 H1368 0.951 . S
C1393 C1391 1.388 . S
C1393 C1394 1.366 . S
C1394 C1393 1.366 . S
C1394 C1395 1.414 . S
C1394 C1397 1.499 . S
C1395 H1369 0.950 . S
C1395 C1394 1.414 . S
C1395 C1396 1.374 . S
C1396 H1370 0.950 . S
C1396 C1392 1.385 . S
C1396 C1395 1.374 . S
C1397 C1394 1.499 . S
C1397 C1398 1.373 . S
C1397 C1399 1.389 . S
C1398 H1371 0.950 . S
C1398 C1384 1.377 . S
C1398 C1397 1.373 . S
C1399 C1383 1.377 . S
C1399 C1397 1.389 . S
C1399 C1400 1.524 . S
C1400 C1399 1.524 . S
C1400 C1401 1.397 . S
C1400 C1405 1.363 . S
C1401 H1372 0.950 . S
C1401 C1400 1.397 . S
C1401 C1402 1.334 . S
C1402 H1373 0.950 . S
C1402 C1401 1.334 . S
C1402 C1403 1.287 . S
C1403 C1402 1.287 . S
C1403 C1404 1.524 . S
C1403 H1406 0.999 . S
C1404 H1374 0.950 . S
C1404 C1403 1.524 . S
C1404 C1405 1.415 . S
C1405 H1375 0.950 . S
C1405 C1400 1.363 . S
C1405 C1404 1.415 . S
H1406 C1403 0.999 . S
H1407 C1388 0.913 . S
H1408 C1426 0.951 . S
H1409 C1428 0.951 . S
H1410 C1430 0.950 . S
H1411 C1431 0.950 . S
H1412 C1433 0.950 . S
H1413 C1436 0.950 . S
H1414 C1437 0.950 . S
H1415 C1439 0.950 . S
H1416 C1440 0.950 . S
H1417 C1441 0.951 . S
H1418 C1443 0.951 . S
H1419 C1445 0.950 . S
H1420 C1446 0.950 . S
H1421 C1448 0.950 . S
H1422 C1451 0.950 . S
H1423 C1452 0.950 . S
H1424 C1454 0.950 . S
H1425 C1455 0.950 . S
C1426 H1408 0.951 . S
C1426 C1427 1.366 1_565 S
C1426 C1428 1.388 . S
C1427 C1426 1.366 1_545 S
C1427 C1431 1.385 . S
C1428 H1409 0.951 . S
C1428 C1426 1.388 . S
C1428 C1429 1.366 . S
C1429 C1428 1.366 . S
C1429 C1430 1.414 . S
C1429 C1432 1.499 . S
C1430 H1410 0.950 . S
C1430 C1429 1.414 . S
C1430 C1431 1.374 1_565 S
C1431 H1411 0.950 . S
C1431 C1427 1.385 . S
C1431 C1430 1.374 1_545 S
C1432 C1429 1.499 . S
C1432 C1433 1.373 . S
C1432 C1434 1.389 . S
C1433 H1412 0.950 . S
C1433 C1432 1.373 . S
C1433 C1449 1.377 . S
C1434 C1432 1.389 . S
C1434 C1435 1.524 . S
C1434 C1448 1.377 . S
C1435 C1434 1.524 . S
C1435 C1436 1.397 . S
C1435 C1440 1.363 . S
C1436 H1413 0.950 . S
C1436 C1435 1.397 . S
C1436 C1437 1.334 . S
C1437 H1414 0.950 . S
C1437 C1436 1.334 . S
C1437 C1438 1.287 . S
C1438 C1437 1.287 . S
C1438 C1439 1.524 . S
C1438 H1457 0.913 . S
C1439 H1415 0.950 . S
C1439 C1438 1.524 . S
C1439 C1440 1.415 . S
C1440 H1416 0.950 . S
C1440 C1435 1.363 . S
C1440 C1439 1.415 . S
C1441 H1417 0.951 . S
C1441 C1442 1.366 . S
C1441 C1443 1.388 . S
C1442 C1441 1.366 . S
C1442 C1446 1.385 . S
C1443 H1418 0.951 . S
C1443 C1441 1.388 . S
C1443 C1444 1.366 . S
C1444 C1443 1.366 . S
C1444 C1445 1.414 . S
C1444 C1447 1.499 . S
C1445 H1419 0.950 . S
C1445 C1444 1.414 . S
C1445 C1446 1.374 . S
C1446 H1420 0.950 . S
C1446 C1442 1.385 . S
C1446 C1445 1.374 . S
C1447 C1444 1.499 . S
C1447 C1448 1.373 . S
C1447 C1449 1.389 . S
C1448 H1421 0.950 . S
C1448 C1434 1.377 . S
C1448 C1447 1.373 . S
C1449 C1433 1.377 . S
C1449 C1447 1.389 . S
C1449 C1450 1.524 . S
C1450 C1449 1.524 . S
C1450 C1451 1.397 . S
C1450 C1455 1.363 . S
C1451 H1422 0.950 . S
C1451 C1450 1.397 . S
C1451 C1452 1.334 . S
C1452 H1423 0.950 . S
C1452 C1451 1.334 . S
C1452 C1453 1.287 . S
C1453 C1452 1.287 . S
C1453 C1454 1.524 . S
C1453 H1456 0.999 . S
C1454 H1424 0.950 . S
C1454 C1453 1.524 . S
C1454 C1455 1.415 . S
C1455 H1425 0.950 . S
C1455 C1450 1.363 . S
C1455 C1454 1.415 . S
H1456 C1453 0.999 . S
H1457 C1438 0.913 . S
H1458 C1476 0.951 . S
H1459 C1478 0.951 . S
H1460 C1480 0.950 . S
H1461 C1481 0.950 . S
H1462 C1483 0.950 . S
H1463 C1486 0.950 . S
H1464 C1487 0.950 . S
H1465 C1489 0.950 . S
H1466 C1490 0.950 . S
H1467 C1491 0.951 . S
H1468 C1493 0.951 . S
H1469 C1495 0.950 . S
H1470 C1496 0.950 . S
H1471 C1498 0.950 . S
H1472 C1501 0.950 . S
H1473 C1502 0.950 . S
H1474 C1504 0.950 . S
H1475 C1505 0.950 . S
C1476 H1458 0.951 . S
C1476 C1477 1.366 . S
C1476 C1478 1.388 . S
C1477 C1476 1.366 . S
C1477 C1481 1.385 . S
C1478 H1459 0.951 . S
C1478 C1476 1.388 . S
C1478 C1479 1.366 . S
C1479 C1478 1.366 . S
C1479 C1480 1.414 . S
C1479 C1482 1.499 . S
C1480 H1460 0.950 . S
C1480 C1479 1.414 . S
C1480 C1481 1.374 . S
C1481 H1461 0.950 . S
C1481 C1477 1.385 . S
C1481 C1480 1.374 . S
C1482 C1479 1.499 . S
C1482 C1483 1.373 . S
C1482 C1484 1.389 . S
C1483 H1462 0.950 . S
C1483 C1482 1.373 . S
C1483 C1499 1.377 . S
C1484 C1482 1.389 . S
C1484 C1485 1.524 . S
C1484 C1498 1.377 . S
C1485 C1484 1.524 . S
C1485 C1486 1.397 . S
C1485 C1490 1.363 . S
C1486 H1463 0.950 . S
C1486 C1485 1.397 . S
C1486 C1487 1.334 . S
C1487 H1464 0.950 . S
C1487 C1486 1.334 . S
C1487 C1488 1.287 . S
C1488 C1487 1.287 . S
C1488 C1489 1.524 . S
C1488 H1507 0.913 . S
C1489 H1465 0.950 . S
C1489 C1488 1.524 . S
C1489 C1490 1.415 . S
C1490 H1466 0.950 . S
C1490 C1485 1.363 . S
C1490 C1489 1.415 . S
C1491 H1467 0.951 . S
C1491 C1492 1.366 . S
C1491 C1493 1.388 . S
C1492 C1491 1.366 . S
C1492 C1496 1.385 . S
C1493 H1468 0.951 . S
C1493 C1491 1.388 . S
C1493 C1494 1.366 . S
C1494 C1493 1.366 . S
C1494 C1495 1.414 . S
C1494 C1497 1.499 . S
C1495 H1469 0.950 . S
C1495 C1494 1.414 . S
C1495 C1496 1.374 . S
C1496 H1470 0.950 . S
C1496 C1492 1.385 . S
C1496 C1495 1.374 . S
C1497 C1494 1.499 . S
C1497 C1498 1.373 . S
C1497 C1499 1.389 . S
C1498 H1471 0.950 . S
C1498 C1484 1.377 . S
C1498 C1497 1.373 . S
C1499 C1483 1.377 . S
C1499 C1497 1.389 . S
C1499 C1500 1.524 . S
C1500 C1499 1.524 . S
C1500 C1501 1.397 . S
C1500 C1505 1.363 . S
C1501 H1472 0.950 . S
C1501 C1500 1.397 . S
C1501 C1502 1.334 . S
C1502 H1473 0.950 . S
C1502 C1501 1.334 . S
C1502 C1503 1.287 . S
C1503 C1502 1.287 . S
C1503 C1504 1.524 . S
C1503 H1506 0.999 . S
C1504 H1474 0.950 . S
C1504 C1503 1.524 . S
C1504 C1505 1.415 . S
C1505 H1475 0.950 . S
C1505 C1500 1.363 . S
C1505 C1504 1.415 . S
H1506 C1503 0.999 . S
H1507 C1488 0.913 . S
H1508 C1526 0.951 . S
H1509 C1528 0.951 . S
H1510 C1530 0.950 . S
H1511 C1531 0.950 . S
H1512 C1533 0.950 . S
H1513 C1536 0.950 . S
H1514 C1537 0.950 . S
H1515 C1539 0.950 . S
H1516 C1540 0.950 . S
H1517 C1541 0.951 . S
H1518 C1543 0.951 . S
H1519 C1545 0.943 1_655 S
H1520 C1546 0.950 . S
H1521 C1548 0.950 . S
H1522 C1551 0.950 . S
H1523 C1552 0.950 . S
H1524 C1554 0.950 . S
H1525 C1555 0.950 . S
C1526 H1508 0.951 . S
C1526 C1527 1.366 . S
C1526 C1528 1.388 . S
C1527 C1526 1.366 . S
C1527 C1531 1.385 . S
C1528 H1509 0.951 . S
C1528 C1526 1.388 . S
C1528 C1529 1.366 . S
C1529 C1528 1.366 . S
C1529 C1530 1.414 . S
C1529 C1532 1.499 . S
C1530 H1510 0.950 . S
C1530 C1529 1.414 . S
C1530 C1531 1.374 . S
C1531 H1511 0.950 . S
C1531 C1527 1.385 . S
C1531 C1530 1.374 . S
C1532 C1529 1.499 . S
C1532 C1533 1.373 . S
C1532 C1534 1.389 . S
C1533 H1512 0.950 . S
C1533 C1532 1.373 . S
C1533 C1549 1.377 . S
C1534 C1532 1.389 . S
C1534 C1535 1.524 . S
C1534 C1548 1.377 . S
C1535 C1534 1.524 . S
C1535 C1536 1.397 . S
C1535 C1540 1.363 . S
C1536 H1513 0.950 . S
C1536 C1535 1.397 . S
C1536 C1537 1.334 . S
C1537 H1514 0.950 . S
C1537 C1536 1.334 . S
C1537 C1538 1.287 . S
C1538 C1537 1.287 . S
C1538 C1539 1.524 . S
C1538 H1557 0.913 . S
C1539 H1515 0.950 . S
C1539 C1538 1.524 . S
C1539 C1540 1.415 . S
C1540 H1516 0.950 . S
C1540 C1535 1.363 . S
C1540 C1539 1.415 . S
C1541 H1517 0.951 . S
C1541 C1542 1.366 1_455 S
C1541 C1543 1.388 . S
C1542 C1541 1.366 1_655 S
C1542 C1546 1.385 . S
C1543 H1518 0.951 . S
C1543 C1541 1.388 . S
C1543 C1544 1.366 . S
C1544 C1543 1.366 . S
C1544 C1545 1.414 . S
C1544 C1547 1.499 . S
C1545 H1519 0.943 1_455 S
C1545 C1544 1.414 . S
C1545 C1546 1.374 1_455 S
C1546 H1520 0.950 . S
C1546 C1542 1.385 . S
C1546 C1545 1.374 1_655 S
C1547 C1544 1.499 . S
C1547 C1548 1.373 . S
C1547 C1549 1.389 . S
C1548 H1521 0.950 . S
C1548 C1534 1.377 . S
C1548 C1547 1.373 . S
C1549 C1533 1.377 . S
C1549 C1547 1.389 . S
C1549 C1550 1.524 . S
C1550 C1549 1.524 . S
C1550 C1551 1.397 . S
C1550 C1555 1.363 . S
C1551 H1522 0.950 . S
C1551 C1550 1.397 . S
C1551 C1552 1.334 . S
C1552 H1523 0.950 . S
C1552 C1551 1.334 . S
C1552 C1553 1.287 . S
C1553 C1552 1.287 . S
C1553 C1554 1.524 . S
C1553 H1556 0.999 . S
C1554 H1524 0.950 . S
C1554 C1553 1.524 . S
C1554 C1555 1.415 . S
C1555 H1525 0.950 . S
C1555 C1550 1.363 . S
C1555 C1554 1.415 . S
H1556 C1553 0.999 . S
H1557 C1538 0.913 . S
H1558 C1576 0.951 1_565 S
H1559 C1578 0.951 . S
H1560 C1580 0.950 . S
H1561 C1581 0.950 1_565 S
H1562 C1583 0.950 . S
H1563 C1586 0.950 . S
H1564 C1587 0.950 . S
H1565 C1589 0.950 . S
H1566 C1590 0.950 . S
H1567 C1591 0.951 1_455 S
H1568 C1593 0.951 . S
H1569 C1595 0.950 . S
H1570 C1596 0.950 1_455 S
H1571 C1598 0.950 . S
H1572 C1601 0.949 . S
H1573 C1602 0.950 . S
H1574 C1604 0.950 . S
H1575 C1605 0.950 . S
C1576 H1558 0.951 1_545 S
C1576 C1577 1.366 1_545 S
C1576 C1578 1.388 . S
C1577 C1576 1.366 1_565 S
C1577 C1581 1.385 1_565 S
C1578 H1559 0.951 . S
C1578 C1576 1.388 . S
C1578 C1579 1.366 . S
C1579 C1578 1.366 . S
C1579 C1580 1.414 . S
C1579 C1582 1.499 . S
C1580 H1560 0.950 . S
C1580 C1579 1.414 . S
C1580 C1581 1.374 . S
C1581 H1561 0.950 1_545 S
C1581 C1577 1.385 1_545 S
C1581 C1580 1.374 . S
C1582 C1579 1.499 . S
C1582 C1583 1.373 . S
C1582 C1584 1.389 . S
C1583 H1562 0.950 . S
C1583 C1582 1.373 . S
C1583 C1599 1.377 . S
C1584 C1582 1.389 . S
C1584 C1585 1.524 . S
C1584 C1598 1.377 . S
C1585 C1584 1.524 . S
C1585 C1586 1.397 . S
C1585 C1590 1.363 . S
C1586 H1563 0.950 . S
C1586 C1585 1.397 . S
C1586 C1587 1.334 . S
C1587 H1564 0.950 . S
C1587 C1586 1.334 . S
C1587 C1588 1.287 . S
C1588 C1587 1.287 . S
C1588 C1589 1.524 . S
C1588 H1607 0.913 . S
C1589 H1565 0.950 . S
C1589 C1588 1.524 . S
C1589 C1590 1.415 . S
C1590 H1566 0.950 . S
C1590 C1585 1.363 . S
C1590 C1589 1.415 . S
C1591 H1567 0.951 1_655 S
C1591 C1592 1.366 1_655 S
C1591 C1593 1.388 . S
C1592 C1591 1.366 1_455 S
C1592 C1596 1.385 1_455 S
C1593 H1568 0.951 . S
C1593 C1591 1.388 . S
C1593 C1594 1.366 . S
C1594 C1593 1.366 . S
C1594 C1595 1.414 . S
C1594 C1597 1.499 . S
C1595 H1569 0.950 . S
C1595 C1594 1.414 . S
C1595 C1596 1.374 . S
C1596 H1570 0.950 1_655 S
C1596 C1592 1.385 1_655 S
C1596 C1595 1.374 . S
C1597 C1594 1.499 . S
C1597 C1598 1.373 . S
C1597 C1599 1.389 . S
C1598 H1571 0.950 . S
C1598 C1584 1.377 . S
C1598 C1597 1.373 . S
C1599 C1583 1.377 . S
C1599 C1597 1.389 . S
C1599 C1600 1.524 . S
C1600 C1599 1.524 . S
C1600 C1601 1.416 . S
C1600 C1605 1.363 . S
C1601 H1572 0.949 . S
C1601 C1600 1.416 . S
C1601 C1602 1.315 1_655 S
C1602 H1573 0.950 . S
C1602 C1601 1.315 1_455 S
C1602 C1603 1.287 . S
C1603 C1602 1.287 . S
C1603 C1604 1.524 1_455 S
C1603 H1606 0.999 . S
C1604 H1574 0.950 . S
C1604 C1603 1.524 1_655 S
C1604 C1605 1.415 . S
C1605 H1575 0.950 . S
C1605 C1600 1.363 . S
C1605 C1604 1.415 . S
H1606 C1603 0.999 . S
H1607 C1588 0.913 . S
H1608 C1626 0.951 . S
H1609 C1628 0.951 . S
H1610 C1630 0.950 . S
H1611 C1631 0.950 . S
H1612 C1633 0.950 . S
H1613 C1636 0.950 . S
H1614 C1637 0.950 . S
H1615 C1639 0.950 . S
H1616 C1640 0.950 . S
H1617 C1641 0.951 . S
H1618 C1643 0.951 . S
H1619 C1645 0.950 . S
H1620 C1646 0.950 . S
H1621 C1648 0.950 . S
H1622 C1651 0.950 . S
H1623 C1652 0.950 . S
H1624 C1654 0.950 . S
H1625 C1655 0.950 . S
C1626 H1608 0.951 . S
C1626 C1627 1.366 . S
C1626 C1628 1.388 . S
C1627 C1626 1.366 . S
C1627 C1631 1.385 . S
C1628 H1609 0.951 . S
C1628 C1626 1.388 . S
C1628 C1629 1.366 . S
C1629 C1628 1.366 . S
C1629 C1630 1.414 . S
C1629 C1632 1.499 . S
C1630 H1610 0.950 . S
C1630 C1629 1.414 . S
C1630 C1631 1.374 . S
C1631 H1611 0.950 . S
C1631 C1627 1.385 . S
C1631 C1630 1.374 . S
C1632 C1629 1.499 . S
C1632 C1633 1.373 . S
C1632 C1634 1.389 . S
C1633 H1612 0.950 . S
C1633 C1632 1.373 . S
C1633 C1649 1.377 . S
C1634 C1632 1.389 . S
C1634 C1635 1.524 . S
C1634 C1648 1.377 . S
C1635 C1634 1.524 . S
C1635 C1636 1.397 . S
C1635 C1640 1.363 . S
C1636 H1613 0.950 . S
C1636 C1635 1.397 . S
C1636 C1637 1.334 . S
C1637 H1614 0.950 . S
C1637 C1636 1.334 . S
C1637 C1638 1.287 . S
C1638 C1637 1.287 . S
C1638 C1639 1.524 . S
C1638 H1657 0.913 . S
C1639 H1615 0.950 . S
C1639 C1638 1.524 . S
C1639 C1640 1.415 . S
C1640 H1616 0.950 . S
C1640 C1635 1.363 . S
C1640 C1639 1.415 . S
C1641 H1617 0.951 . S
C1641 C1642 1.366 . S
C1641 C1643 1.388 . S
C1642 C1641 1.366 . S
C1642 C1646 1.385 . S
C1643 H1618 0.951 . S
C1643 C1641 1.388 . S
C1643 C1644 1.366 . S
C1644 C1643 1.366 . S
C1644 C1645 1.414 . S
C1644 C1647 1.499 . S
C1645 H1619 0.950 . S
C1645 C1644 1.414 . S
C1645 C1646 1.374 . S
C1646 H1620 0.950 . S
C1646 C1642 1.385 . S
C1646 C1645 1.374 . S
C1647 C1644 1.499 . S
C1647 C1648 1.373 . S
C1647 C1649 1.389 . S
C1648 H1621 0.950 . S
C1648 C1634 1.377 . S
C1648 C1647 1.373 . S
C1649 C1633 1.377 . S
C1649 C1647 1.389 . S
C1649 C1650 1.524 . S
C1650 C1649 1.524 . S
C1650 C1651 1.397 . S
C1650 C1655 1.363 . S
C1651 H1622 0.950 . S
C1651 C1650 1.397 . S
C1651 C1652 1.334 . S
C1652 H1623 0.950 . S
C1652 C1651 1.334 . S
C1652 C1653 1.287 . S
C1653 C1652 1.287 . S
C1653 C1654 1.524 . S
C1653 H1656 0.999 . S
C1654 H1624 0.950 . S
C1654 C1653 1.524 . S
C1654 C1655 1.415 . S
C1655 H1625 0.950 . S
C1655 C1650 1.363 . S
C1655 C1654 1.415 . S
H1656 C1653 0.999 . S
H1657 C1638 0.913 . S
H1658 C1676 0.951 . S
H1659 C1678 0.950 . S
H1660 C1680 0.950 . S
H1661 C1681 0.950 . S
H1662 C1683 0.950 . S
H1663 C1686 0.950 . S
H1664 C1687 0.950 . S
H1665 C1689 0.950 1_455 S
H1666 C1690 0.950 . S
H1667 C1691 0.951 . S
H1668 C1693 0.951 . S
H1669 C1695 0.950 . S
H1670 C1696 0.950 . S
H1671 C1698 0.950 . S
H1672 C1701 0.950 . S
H1673 C1702 0.950 . S
H1674 C1704 0.950 . S
H1675 C1705 0.950 . S
C1676 H1658 0.951 . S
C1676 C1677 1.366 . S
C1676 C1678 1.388 1_455 S
C1677 C1676 1.366 . S
C1677 C1681 1.385 1_455 S
C1678 H1659 0.950 . S
C1678 C1676 1.388 1_655 S
C1678 C1679 1.366 . S
C1679 C1678 1.366 . S
C1679 C1680 1.414 . S
C1679 C1682 1.499 . S
C1680 H1660 0.950 . S
C1680 C1679 1.414 . S
C1680 C1681 1.374 . S
C1681 H1661 0.950 . S
C1681 C1677 1.385 1_655 S
C1681 C1680 1.374 . S
C1682 C1679 1.499 . S
C1682 C1683 1.373 . S
C1682 C1684 1.389 . S
C1683 H1662 0.950 . S
C1683 C1682 1.373 . S
C1683 C1699 1.377 . S
C1684 C1682 1.389 . S
C1684 C1685 1.524 . S
C1684 C1698 1.377 . S
C1685 C1684 1.524 . S
C1685 C1686 1.397 . S
C1685 C1690 1.363 . S
C1686 H1663 0.950 . S
C1686 C1685 1.397 . S
C1686 C1687 1.334 . S
C1687 H1664 0.950 . S
C1687 C1686 1.334 . S
C1687 C1688 1.287 . S
C1688 C1687 1.287 . S
C1688 C1689 1.524 . S
C1688 H1707 0.895 1_655 S
C1689 H1665 0.950 1_655 S
C1689 C1688 1.524 . S
C1689 C1690 1.415 . S
C1690 H1666 0.950 . S
C1690 C1685 1.363 . S
C1690 C1689 1.415 . S
C1691 H1667 0.951 . S
C1691 C1692 1.366 . S
C1691 C1693 1.388 . S
C1692 C1691 1.366 . S
C1692 C1696 1.385 . S
C1693 H1668 0.951 . S
C1693 C1691 1.388 . S
C1693 C1694 1.366 . S
C1694 C1693 1.366 . S
C1694 C1695 1.414 . S
C1694 C1697 1.499 . S
C1695 H1669 0.950 . S
C1695 C1694 1.414 . S
C1695 C1696 1.374 . S
C1696 H1670 0.950 . S
C1696 C1692 1.385 . S
C1696 C1695 1.374 . S
C1697 C1694 1.499 . S
C1697 C1698 1.373 . S
C1697 C1699 1.389 . S
C1698 H1671 0.950 . S
C1698 C1684 1.377 . S
C1698 C1697 1.373 . S
C1699 C1683 1.377 . S
C1699 C1697 1.389 . S
C1699 C1700 1.524 . S
C1700 C1699 1.524 . S
C1700 C1701 1.397 . S
C1700 C1705 1.363 . S
C1701 H1672 0.950 . S
C1701 C1700 1.397 . S
C1701 C1702 1.334 . S
C1702 H1673 0.950 . S
C1702 C1701 1.334 . S
C1702 C1703 1.287 . S
C1703 C1702 1.287 . S
C1703 C1704 1.524 . S
C1703 H1706 0.999 . S
C1704 H1674 0.950 . S
C1704 C1703 1.524 . S
C1704 C1705 1.415 . S
C1705 H1675 0.950 . S
C1705 C1700 1.363 . S
C1705 C1704 1.415 . S
H1706 C1703 0.999 . S
H1707 C1688 0.895 1_455 S
H1708 C1726 0.951 . S
H1709 C1728 0.951 . S
H1710 C1730 0.950 . S
H1711 C1731 0.950 . S
H1712 C1733 0.950 . S
H1713 C1736 0.950 . S
H1714 C1737 0.950 . S
H1715 C1739 0.950 . S
H1716 C1740 0.950 . S
H1717 C1741 0.951 . S
H1718 C1743 0.951 . S
H1719 C1745 0.950 . S
H1720 C1746 0.950 . S
H1721 C1748 0.950 . S
H1722 C1751 0.950 . S
H1723 C1752 0.950 . S
H1724 C1754 0.950 . S
H1725 C1755 0.950 . S
C1726 H1708 0.951 . S
C1726 C1727 1.366 1_455 S
C1726 C1728 1.388 . S
C1727 C1726 1.366 1_655 S
C1727 C1731 1.385 . S
C1728 H1709 0.951 . S
C1728 C1726 1.388 . S
C1728 C1729 1.366 . S
C1729 C1728 1.366 . S
C1729 C1730 1.414 . S
C1729 C1732 1.499 . S
C1730 H1710 0.950 . S
C1730 C1729 1.414 . S
C1730 C1731 1.374 1_455 S
C1731 H1711 0.950 . S
C1731 C1727 1.385 . S
C1731 C1730 1.374 1_655 S
C1732 C1729 1.499 . S
C1732 C1733 1.373 . S
C1732 C1734 1.389 . S
C1733 H1712 0.950 . S
C1733 C1732 1.373 . S
C1733 C1749 1.377 . S
C1734 C1732 1.389 . S
C1734 C1735 1.524 . S
C1734 C1748 1.377 . S
C1735 C1734 1.524 . S
C1735 C1736 1.397 . S
C1735 C1740 1.363 . S
C1736 H1713 0.950 . S
C1736 C1735 1.397 . S
C1736 C1737 1.334 . S
C1737 H1714 0.950 . S
C1737 C1736 1.334 . S
C1737 C1738 1.287 . S
C1738 C1737 1.287 . S
C1738 C1739 1.524 . S
C1738 H1757 0.913 . S
C1739 H1715 0.950 . S
C1739 C1738 1.524 . S
C1739 C1740 1.415 . S
C1740 H1716 0.950 . S
C1740 C1735 1.363 . S
C1740 C1739 1.415 . S
C1741 H1717 0.951 . S
C1741 C1742 1.366 . S
C1741 C1743 1.388 1_545 S
C1742 C1741 1.366 . S
C1742 C1746 1.385 1_545 S
C1743 H1718 0.951 . S
C1743 C1741 1.388 1_565 S
C1743 C1744 1.366 . S
C1744 C1743 1.366 . S
C1744 C1745 1.414 . S
C1744 C1747 1.499 . S
C1745 H1719 0.950 . S
C1745 C1744 1.414 . S
C1745 C1746 1.374 . S
C1746 H1720 0.950 . S
C1746 C1742 1.385 1_565 S
C1746 C1745 1.374 . S
C1747 C1744 1.499 . S
C1747 C1748 1.373 . S
C1747 C1749 1.389 . S
C1748 H1721 0.950 . S
C1748 C1734 1.377 . S
C1748 C1747 1.373 . S
C1749 C1733 1.377 . S
C1749 C1747 1.389 . S
C1749 C1750 1.524 . S
C1750 C1749 1.524 . S
C1750 C1751 1.398 . S
C1750 C1755 1.363 . S
C1751 H1722 0.950 . S
C1751 C1750 1.398 . S
C1751 C1752 1.333 1_565 S
C1752 H1723 0.950 . S
C1752 C1751 1.333 1_545 S
C1752 C1753 1.287 . S
C1753 C1752 1.287 . S
C1753 C1754 1.524 . S
C1753 H1756 0.999 . S
C1754 H1724 0.950 . S
C1754 C1753 1.524 . S
C1754 C1755 1.415 1_545 S
C1755 H1725 0.950 . S
C1755 C1750 1.363 . S
C1755 C1754 1.415 1_565 S
H1756 C1753 0.999 . S
H1757 C1738 0.913 . S
H1758 C1776 0.951 . S
H1759 C1778 0.951 . S
H1760 C1780 0.950 . S
H1761 C1781 0.950 . S
H1762 C1783 0.950 . S
H1763 C1786 0.950 . S
H1764 C1787 0.950 1_565 S
H1765 C1789 0.950 . S
H1766 C1790 0.950 . S
H1767 C1791 0.951 . S
H1768 C1793 0.951 . S
H1769 C1795 0.950 . S
H1770 C1796 0.950 . S
H1771 C1798 0.950 . S
H1772 C1801 0.950 . S
H1773 C1802 0.950 . S
H1774 C1804 0.950 . S
H1775 C1805 0.950 . S
C1776 H1758 0.951 . S
C1776 C1777 1.366 1_545 S
C1776 C1778 1.388 . S
C1777 C1776 1.366 1_565 S
C1777 C1781 1.385 . S
C1778 H1759 0.951 . S
C1778 C1776 1.388 . S
C1778 C1779 1.366 . S
C1779 C1778 1.366 . S
C1779 C1780 1.414 . S
C1779 C1782 1.499 . S
C1780 H1760 0.950 . S
C1780 C1779 1.414 . S
C1780 C1781 1.374 1_545 S
C1781 H1761 0.950 . S
C1781 C1777 1.385 . S
C1781 C1780 1.374 1_565 S
C1782 C1779 1.499 . S
C1782 C1783 1.373 . S
C1782 C1784 1.389 . S
C1783 H1762 0.950 . S
C1783 C1782 1.373 . S
C1783 C1799 1.377 . S
C1784 C1782 1.389 . S
C1784 C1785 1.524 . S
C1784 C1798 1.377 . S
C1785 C1784 1.524 . S
C1785 C1786 1.397 . S
C1785 C1790 1.363 . S
C1786 H1763 0.950 . S
C1786 C1785 1.397 . S
C1786 C1787 1.334 . S
C1787 H1764 0.950 1_545 S
C1787 C1786 1.334 . S
C1787 C1788 1.287 . S
C1788 C1787 1.287 . S
C1788 C1789 1.524 . S
C1788 H1807 0.913 . S
C1789 H1765 0.950 . S
C1789 C1788 1.524 . S
C1789 C1790 1.415 . S
C1790 H1766 0.950 . S
C1790 C1785 1.363 . S
C1790 C1789 1.415 . S
C1791 H1767 0.951 . S
C1791 C1792 1.366 . S
C1791 C1793 1.388 . S
C1792 C1791 1.366 . S
C1792 C1796 1.385 . S
C1793 H1768 0.951 . S
C1793 C1791 1.388 . S
C1793 C1794 1.366 . S
C1794 C1793 1.366 . S
C1794 C1795 1.414 . S
C1794 C1797 1.499 . S
C1795 H1769 0.950 . S
C1795 C1794 1.414 . S
C1795 C1796 1.374 . S
C1796 H1770 0.950 . S
C1796 C1792 1.385 . S
C1796 C1795 1.374 . S
C1797 C1794 1.499 . S
C1797 C1798 1.373 . S
C1797 C1799 1.389 . S
C1798 H1771 0.950 . S
C1798 C1784 1.377 . S
C1798 C1797 1.373 . S
C1799 C1783 1.377 . S
C1799 C1797 1.389 . S
C1799 C1800 1.524 . S
C1800 C1799 1.524 . S
C1800 C1801 1.397 . S
C1800 C1805 1.363 . S
C1801 H1772 0.950 . S
C1801 C1800 1.397 . S
C1801 C1802 1.334 . S
C1802 H1773 0.950 . S
C1802 C1801 1.334 . S
C1802 C1803 1.287 . S
C1803 C1802 1.287 . S
C1803 C1804 1.524 . S
C1803 H1806 0.999 . S
C1804 H1774 0.950 . S
C1804 C1803 1.524 . S
C1804 C1805 1.415 . S
C1805 H1775 0.950 . S
C1805 C1800 1.363 . S
C1805 C1804 1.415 . S
H1806 C1803 0.999 . S
H1807 C1788 0.913 . S
C227 C92 1.596 . S
C242 C1 1.596 . S
C277 C53 1.595 . S
C292 C14 1.595 . S
C327 C66 1.595 . S
C342 C27 1.595 . S
C377 C40 1.595 . S
C392 C79 1.596 . S
C427 C205 1.595 . S
C442 C105 1.613 . S
C477 C157 1.614 . S
C492 C127 1.595 . S
C527 C131 1.614 . S
C542 C179 1.595 . S
C577 C153 1.595 . S
C592 C183 1.613 . S
C627 C36 1.479 . S
C642 C10 1.479 . S
C677 C23 1.478 . S
C692 C49 1.478 . S
C727 C62 1.478 . S
C742 C88 1.478 . S
C777 C101 1.479 . S
C792 C75 1.479 . S
C827 C114 1.522 . S
C842 C140 1.522 . S
C877 C118 1.479 . S
C892 C144 1.479 . S
C927 C192 1.522 . S
C942 C166 1.522 . S
C977 C170 1.478 . S
C992 C196 1.478 . S
C1027 C81 1.590 . S
C1042 C3 1.591 . S
C1077 C16 1.591 . S
C1092 C94 1.590 . S
C1127 C29 1.591 . S
C1142 C55 1.591 . S
C1177 C42 1.591 . S
C1192 C68 1.591 . S
C1227 C107 1.604 . S
C1242 C185 1.604 . S
C1277 C122 1.590 . S
C1292 C200 1.591 . S
C1327 C133 1.604 . S
C1342 C159 1.604 . S
C1377 C148 1.591 . S
C1392 C174 1.591 . S
C1427 C5 1.657 . S
C1442 C198 1.656 . S
C1477 C161 1.698 . S
C1492 C18 1.656 . S
C1527 C31 1.656 . S
C1542 C172 1.656 . S
C1577 C187 1.698 . S
C1592 C44 1.657 . S
C1627 C120 1.657 . S
C1642 C57 1.656 . S
C1677 C70 1.656 . S
C1692 C135 1.698 . S
C1727 C146 1.656 . S
C1742 C83 1.657 . S
C1777 C109 1.698 . S
C1792 C96 1.656 . S
