# Generated by pormake.
# Topology wna, (6)-cn, num edge types: 1
# Building blocks:
#     Node 0, Type 0, BuildingBlock: CUKXOW_clean_sbu_0, # of connection points: 6
#     Node 1, Type 0, BuildingBlock: CUKXOW_clean_sbu_0, # of connection points: 6
#     Node 2, Type 0, BuildingBlock: CUKXOW_clean_sbu_0, # of connection points: 6
#     Node 3, Type 0, BuildingBlock: CUKXOW_clean_sbu_0, # of connection points: 6
#     Node 4, Type 0, BuildingBlock: CUKXOW_clean_sbu_0, # of connection points: 6
#     Node 5, Type 0, BuildingBlock: CUKXOW_clean_sbu_0, # of connection points: 6
#     Node 6, Type 0, BuildingBlock: CUKXOW_clean_sbu_0, # of connection points: 6
#     Node 7, Type 0, BuildingBlock: CUKXOW_clean_sbu_0, # of connection points: 6
#     Node 8, Type 0, BuildingBlock: CUKXOW_clean_sbu_0, # of connection points: 6
#     Node 9, Type 0, BuildingBlock: CUKXOW_clean_sbu_0, # of connection points: 6
#     Node 10, Type 0, BuildingBlock: CUKXOW_clean_sbu_0, # of connection points: 6
#     Node 11, Type 0, BuildingBlock: CUKXOW_clean_sbu_0, # of connection points: 6
#     Node 12, Type 0, BuildingBlock: CUKXOW_clean_sbu_0, # of connection points: 6
#     Node 13, Type 0, BuildingBlock: CUKXOW_clean_sbu_0, # of connection points: 6
#     Node 14, Type 0, BuildingBlock: CUKXOW_clean_sbu_0, # of connection points: 6
#     Node 15, Type 0, BuildingBlock: CUKXOW_clean_sbu_0, # of connection points: 6
#     Node 16, Type 0, BuildingBlock: CUKXOW_clean_sbu_0, # of connection points: 6
#     Node 17, Type 0, BuildingBlock: CUKXOW_clean_sbu_0, # of connection points: 6
#     Node 18, Type 0, BuildingBlock: CUKXOW_clean_sbu_0, # of connection points: 6
#     Node 19, Type 0, BuildingBlock: CUKXOW_clean_sbu_0, # of connection points: 6
#     Node 20, Type 0, BuildingBlock: CUKXOW_clean_sbu_0, # of connection points: 6
#     Node 21, Type 0, BuildingBlock: CUKXOW_clean_sbu_0, # of connection points: 6
#     Node 22, Type 0, BuildingBlock: CUKXOW_clean_sbu_0, # of connection points: 6
#     Node 23, Type 0, BuildingBlock: CUKXOW_clean_sbu_0, # of connection points: 6
#     Node 24, Type 0, BuildingBlock: CUKXOW_clean_sbu_0, # of connection points: 6
#     Node 25, Type 0, BuildingBlock: CUKXOW_clean_sbu_0, # of connection points: 6
#     Node 26, Type 0, BuildingBlock: CUKXOW_clean_sbu_0, # of connection points: 6
#     Node 27, Type 0, BuildingBlock: CUKXOW_clean_sbu_0, # of connection points: 6
#     Node 28, Type 0, BuildingBlock: CUKXOW_clean_sbu_0, # of connection points: 6
#     Node 29, Type 0, BuildingBlock: CUKXOW_clean_sbu_0, # of connection points: 6
#     Node 30, Type 0, BuildingBlock: CUKXOW_clean_sbu_0, # of connection points: 6
#     Node 31, Type 0, BuildingBlock: CUKXOW_clean_sbu_0, # of connection points: 6
#     Node 32, Type 0, BuildingBlock: CUKXOW_clean_sbu_0, # of connection points: 6
#     Node 33, Type 0, BuildingBlock: CUKXOW_clean_sbu_0, # of connection points: 6
#     Node 34, Type 0, BuildingBlock: CUKXOW_clean_sbu_0, # of connection points: 6
#     Node 35, Type 0, BuildingBlock: CUKXOW_clean_sbu_0, # of connection points: 6
#     Edge 36, Type (0, 0), BuildingBlock: AJUNOK_clean_linker_0, # of connection points: 2
#     Edge 37, Type (0, 0), BuildingBlock: AJUNOK_clean_linker_0, # of connection points: 2
#     Edge 38, Type (0, 0), BuildingBlock: AJUNOK_clean_linker_0, # of connection points: 2
#     Edge 39, Type (0, 0), BuildingBlock: AJUNOK_clean_linker_0, # of connection points: 2
#     Edge 40, Type (0, 0), BuildingBlock: AJUNOK_clean_linker_0, # of connection points: 2
#     Edge 41, Type (0, 0), BuildingBlock: AJUNOK_clean_linker_0, # of connection points: 2
#     Edge 42, Type (0, 0), BuildingBlock: AJUNOK_clean_linker_0, # of connection points: 2
#     Edge 43, Type (0, 0), BuildingBlock: AJUNOK_clean_linker_0, # of connection points: 2
#     Edge 44, Type (0, 0), BuildingBlock: AJUNOK_clean_linker_0, # of connection points: 2
#     Edge 45, Type (0, 0), BuildingBlock: AJUNOK_clean_linker_0, # of connection points: 2
#     Edge 46, Type (0, 0), BuildingBlock: AJUNOK_clean_linker_0, # of connection points: 2
#     Edge 47, Type (0, 0), BuildingBlock: AJUNOK_clean_linker_0, # of connection points: 2
#     Edge 48, Type (0, 0), BuildingBlock: AJUNOK_clean_linker_0, # of connection points: 2
#     Edge 49, Type (0, 0), BuildingBlock: AJUNOK_clean_linker_0, # of connection points: 2
#     Edge 50, Type (0, 0), BuildingBlock: AJUNOK_clean_linker_0, # of connection points: 2
#     Edge 51, Type (0, 0), BuildingBlock: AJUNOK_clean_linker_0, # of connection points: 2
#     Edge 52, Type (0, 0), BuildingBlock: AJUNOK_clean_linker_0, # of connection points: 2
#     Edge 53, Type (0, 0), BuildingBlock: AJUNOK_clean_linker_0, # of connection points: 2
#     Edge 54, Type (0, 0), BuildingBlock: AJUNOK_clean_linker_0, # of connection points: 2
#     Edge 55, Type (0, 0), BuildingBlock: AJUNOK_clean_linker_0, # of connection points: 2
#     Edge 56, Type (0, 0), BuildingBlock: AJUNOK_clean_linker_0, # of connection points: 2
#     Edge 57, Type (0, 0), BuildingBlock: AJUNOK_clean_linker_0, # of connection points: 2
#     Edge 58, Type (0, 0), BuildingBlock: AJUNOK_clean_linker_0, # of connection points: 2
#     Edge 59, Type (0, 0), BuildingBlock: AJUNOK_clean_linker_0, # of connection points: 2
#     Edge 60, Type (0, 0), BuildingBlock: AJUNOK_clean_linker_0, # of connection points: 2
#     Edge 61, Type (0, 0), BuildingBlock: AJUNOK_clean_linker_0, # of connection points: 2
#     Edge 62, Type (0, 0), BuildingBlock: AJUNOK_clean_linker_0, # of connection points: 2
#     Edge 63, Type (0, 0), BuildingBlock: AJUNOK_clean_linker_0, # of connection points: 2
#     Edge 64, Type (0, 0), BuildingBlock: AJUNOK_clean_linker_0, # of connection points: 2
#     Edge 65, Type (0, 0), BuildingBlock: AJUNOK_clean_linker_0, # of connection points: 2
#     Edge 66, Type (0, 0), BuildingBlock: AJUNOK_clean_linker_0, # of connection points: 2
#     Edge 67, Type (0, 0), BuildingBlock: AJUNOK_clean_linker_0, # of connection points: 2
#     Edge 68, Type (0, 0), BuildingBlock: AJUNOK_clean_linker_0, # of connection points: 2
#     Edge 69, Type (0, 0), BuildingBlock: AJUNOK_clean_linker_0, # of connection points: 2
#     Edge 70, Type (0, 0), BuildingBlock: AJUNOK_clean_linker_0, # of connection points: 2
#     Edge 71, Type (0, 0), BuildingBlock: AJUNOK_clean_linker_0, # of connection points: 2
#     Edge 72, Type (0, 0), BuildingBlock: AJUNOK_clean_linker_0, # of connection points: 2
#     Edge 73, Type (0, 0), BuildingBlock: AJUNOK_clean_linker_0, # of connection points: 2
#     Edge 74, Type (0, 0), BuildingBlock: AJUNOK_clean_linker_0, # of connection points: 2
#     Edge 75, Type (0, 0), BuildingBlock: AJUNOK_clean_linker_0, # of connection points: 2
#     Edge 76, Type (0, 0), BuildingBlock: AJUNOK_clean_linker_0, # of connection points: 2
#     Edge 77, Type (0, 0), BuildingBlock: AJUNOK_clean_linker_0, # of connection points: 2
#     Edge 78, Type (0, 0), BuildingBlock: AJUNOK_clean_linker_0, # of connection points: 2
#     Edge 79, Type (0, 0), BuildingBlock: AJUNOK_clean_linker_0, # of connection points: 2
#     Edge 80, Type (0, 0), BuildingBlock: AJUNOK_clean_linker_0, # of connection points: 2
#     Edge 81, Type (0, 0), BuildingBlock: AJUNOK_clean_linker_0, # of connection points: 2
#     Edge 82, Type (0, 0), BuildingBlock: AJUNOK_clean_linker_0, # of connection points: 2
#     Edge 83, Type (0, 0), BuildingBlock: AJUNOK_clean_linker_0, # of connection points: 2
#     Edge 84, Type (0, 0), BuildingBlock: AJUNOK_clean_linker_0, # of connection points: 2
#     Edge 85, Type (0, 0), BuildingBlock: AJUNOK_clean_linker_0, # of connection points: 2
#     Edge 86, Type (0, 0), BuildingBlock: AJUNOK_clean_linker_0, # of connection points: 2
#     Edge 87, Type (0, 0), BuildingBlock: AJUNOK_clean_linker_0, # of connection points: 2
#     Edge 88, Type (0, 0), BuildingBlock: AJUNOK_clean_linker_0, # of connection points: 2
#     Edge 89, Type (0, 0), BuildingBlock: AJUNOK_clean_linker_0, # of connection points: 2
#     Edge 90, Type (0, 0), BuildingBlock: AJUNOK_clean_linker_0, # of connection points: 2
#     Edge 91, Type (0, 0), BuildingBlock: AJUNOK_clean_linker_0, # of connection points: 2
#     Edge 92, Type (0, 0), BuildingBlock: AJUNOK_clean_linker_0, # of connection points: 2
#     Edge 93, Type (0, 0), BuildingBlock: AJUNOK_clean_linker_0, # of connection points: 2
#     Edge 94, Type (0, 0), BuildingBlock: AJUNOK_clean_linker_0, # of connection points: 2
#     Edge 95, Type (0, 0), BuildingBlock: AJUNOK_clean_linker_0, # of connection points: 2
#     Edge 96, Type (0, 0), BuildingBlock: AJUNOK_clean_linker_0, # of connection points: 2
#     Edge 97, Type (0, 0), BuildingBlock: AJUNOK_clean_linker_0, # of connection points: 2
#     Edge 98, Type (0, 0), BuildingBlock: AJUNOK_clean_linker_0, # of connection points: 2
#     Edge 99, Type (0, 0), BuildingBlock: AJUNOK_clean_linker_0, # of connection points: 2
#     Edge 100, Type (0, 0), BuildingBlock: AJUNOK_clean_linker_0, # of connection points: 2
#     Edge 101, Type (0, 0), BuildingBlock: AJUNOK_clean_linker_0, # of connection points: 2
#     Edge 102, Type (0, 0), BuildingBlock: AJUNOK_clean_linker_0, # of connection points: 2
#     Edge 103, Type (0, 0), BuildingBlock: AJUNOK_clean_linker_0, # of connection points: 2
#     Edge 104, Type (0, 0), BuildingBlock: AJUNOK_clean_linker_0, # of connection points: 2
#     Edge 105, Type (0, 0), BuildingBlock: AJUNOK_clean_linker_0, # of connection points: 2
#     Edge 106, Type (0, 0), BuildingBlock: AJUNOK_clean_linker_0, # of connection points: 2
#     Edge 107, Type (0, 0), BuildingBlock: AJUNOK_clean_linker_0, # of connection points: 2
#     Edge 108, Type (0, 0), BuildingBlock: AJUNOK_clean_linker_0, # of connection points: 2
#     Edge 109, Type (0, 0), BuildingBlock: AJUNOK_clean_linker_0, # of connection points: 2
#     Edge 110, Type (0, 0), BuildingBlock: AJUNOK_clean_linker_0, # of connection points: 2
#     Edge 111, Type (0, 0), BuildingBlock: AJUNOK_clean_linker_0, # of connection points: 2
#     Edge 112, Type (0, 0), BuildingBlock: AJUNOK_clean_linker_0, # of connection points: 2
#     Edge 113, Type (0, 0), BuildingBlock: AJUNOK_clean_linker_0, # of connection points: 2
#     Edge 114, Type (0, 0), BuildingBlock: AJUNOK_clean_linker_0, # of connection points: 2
#     Edge 115, Type (0, 0), BuildingBlock: AJUNOK_clean_linker_0, # of connection points: 2
#     Edge 116, Type (0, 0), BuildingBlock: AJUNOK_clean_linker_0, # of connection points: 2
#     Edge 117, Type (0, 0), BuildingBlock: AJUNOK_clean_linker_0, # of connection points: 2
#     Edge 118, Type (0, 0), BuildingBlock: AJUNOK_clean_linker_0, # of connection points: 2
#     Edge 119, Type (0, 0), BuildingBlock: AJUNOK_clean_linker_0, # of connection points: 2
#     Edge 120, Type (0, 0), BuildingBlock: AJUNOK_clean_linker_0, # of connection points: 2
#     Edge 121, Type (0, 0), BuildingBlock: AJUNOK_clean_linker_0, # of connection points: 2
#     Edge 122, Type (0, 0), BuildingBlock: AJUNOK_clean_linker_0, # of connection points: 2
#     Edge 123, Type (0, 0), BuildingBlock: AJUNOK_clean_linker_0, # of connection points: 2
#     Edge 124, Type (0, 0), BuildingBlock: AJUNOK_clean_linker_0, # of connection points: 2
#     Edge 125, Type (0, 0), BuildingBlock: AJUNOK_clean_linker_0, # of connection points: 2
#     Edge 126, Type (0, 0), BuildingBlock: AJUNOK_clean_linker_0, # of connection points: 2
#     Edge 127, Type (0, 0), BuildingBlock: AJUNOK_clean_linker_0, # of connection points: 2
#     Edge 128, Type (0, 0), BuildingBlock: AJUNOK_clean_linker_0, # of connection points: 2
#     Edge 129, Type (0, 0), BuildingBlock: AJUNOK_clean_linker_0, # of connection points: 2
#     Edge 130, Type (0, 0), BuildingBlock: AJUNOK_clean_linker_0, # of connection points: 2
#     Edge 131, Type (0, 0), BuildingBlock: AJUNOK_clean_linker_0, # of connection points: 2
#     Edge 132, Type (0, 0), BuildingBlock: AJUNOK_clean_linker_0, # of connection points: 2
#     Edge 133, Type (0, 0), BuildingBlock: AJUNOK_clean_linker_0, # of connection points: 2
#     Edge 134, Type (0, 0), BuildingBlock: AJUNOK_clean_linker_0, # of connection points: 2
#     Edge 135, Type (0, 0), BuildingBlock: AJUNOK_clean_linker_0, # of connection points: 2
#     Edge 136, Type (0, 0), BuildingBlock: AJUNOK_clean_linker_0, # of connection points: 2
#     Edge 137, Type (0, 0), BuildingBlock: AJUNOK_clean_linker_0, # of connection points: 2
#     Edge 138, Type (0, 0), BuildingBlock: AJUNOK_clean_linker_0, # of connection points: 2
#     Edge 139, Type (0, 0), BuildingBlock: AJUNOK_clean_linker_0, # of connection points: 2
#     Edge 140, Type (0, 0), BuildingBlock: AJUNOK_clean_linker_0, # of connection points: 2
#     Edge 141, Type (0, 0), BuildingBlock: AJUNOK_clean_linker_0, # of connection points: 2
#     Edge 142, Type (0, 0), BuildingBlock: AJUNOK_clean_linker_0, # of connection points: 2
#     Edge 143, Type (0, 0), BuildingBlock: AJUNOK_clean_linker_0, # of connection points: 2
# Relax obj value: 0.215
# Max RMSD: 0.249
# Mean RMSD: 0.236
data_MOF--net-wna--node1-CUKXOW_clean_sbu_0--edge1-AJUNOK_clean_linker_0
_symmetry_space_group_name_H-M    P1
_symmetry_Int_Tables_number       1
_symmetry_cell_setting            triclinic
loop_
_symmetry_equiv_pos_as_xyz
'x, y, z'
_cell_length_a     33.618935
_cell_length_b     33.596449
_cell_length_c     52.170346
_cell_angle_alpha  89.947663
_cell_angle_beta   89.91313
_cell_angle_gamma 120.13657
loop_
_atom_site_label
_atom_site_type_symbol
_atom_site_fract_x
_atom_site_fract_y
_atom_site_fract_z
_atom_type_partial_charge
Tb0 Tb 0.13929 0.27946 0.20635 0.0
C1 C 0.12319 0.18072 0.1915 0.0
Tb2 Tb 0.04613 0.20802 0.1856 0.0
O3 O 0.10868 0.28407 0.24232 0.0
O4 O 0.07935 0.22217 0.22168 0.0
O5 O 0.15142 0.22178 0.20127 0.0
C6 C 0.9654 0.13 0.18146 0.0
O7 O 0.08089 0.16817 0.18405 0.0
C8 C 0.09803 0.27091 0.1518 0.0
C9 C 0.06385 0.30736 0.19701 0.0
O10 O -0.00179 0.14625 0.16454 0.0
O11 O 0.97738 0.15889 0.20041 0.0
O12 O 0.05339 0.24687 0.15067 0.0
O13 O 0.11185 0.2544 0.16931 0.0
O14 O 0.03216 0.26295 0.19554 0.0
O15 O 0.10845 0.32209 0.19938 0.0
C16 C 0.23012 0.33315 0.21148 0.0
O17 O 0.20541 0.33664 0.19351 0.0
O18 O 0.20322 0.30069 0.22719 0.0
C19 C 0.07407 0.24231 0.24077 0.0
Tb20 Tb 0.72286 0.8572 0.20642 0.0
C21 C 0.82309 0.93841 0.19226 0.0
Tb22 Tb 0.79566 0.83377 0.19175 0.0
O23 O 0.71412 0.82348 0.24367 0.0
O24 O 0.77813 0.85596 0.22553 0.0
O25 O 0.78034 0.9264 0.19862 0.0
C26 C 0.87094 0.82726 0.18906 0.0
O27 O 0.83696 0.90816 0.1895 0.0
C28 C 0.73847 0.82072 0.15456 0.0
C29 C 0.69417 0.75405 0.2013 0.0
O30 O 0.8568 0.84473 0.17163 0.0
O31 O 0.84213 0.81258 0.20818 0.0
O32 O 0.7609 0.79882 0.15702 0.0
O33 O 0.7524 0.85226 0.17133 0.0
O34 O 0.73844 0.7665 0.20293 0.0
O35 O 0.67978 0.78414 0.19908 0.0
C36 C 0.6697 0.89473 0.20915 0.0
O37 O 0.66627 0.86533 0.19186 0.0
O38 O 0.70171 0.90128 0.2253 0.0
C39 C 0.75613 0.83158 0.24457 0.0
Tb40 Tb 0.14297 0.85792 0.20721 0.0
C41 C 0.05997 0.87388 0.19538 0.0
Tb42 Tb 0.16118 0.95308 0.19018 0.0
O43 O 0.17078 0.8832 0.24511 0.0
O44 O 0.1386 0.91297 0.22424 0.0
O45 O 0.07459 0.84405 0.1962 0.0
C46 C 0.17249 0.03789 0.1864 0.0
O47 O 0.08794 0.91879 0.19678 0.0
C48 C 0.14844 0.89301 0.15273 0.0
C49 C 0.24559 0.93672 0.20008 0.0
O50 O 0.16144 0.00838 0.16798 0.0
O51 O 0.17984 0.02049 0.20691 0.0
O52 O 0.14089 0.92718 0.15058 0.0
O53 O 0.16694 0.89856 0.17423 0.0
O54 O 0.23163 0.96748 0.19776 0.0
O55 O 0.21686 0.89148 0.20146 0.0
C56 C 0.11025 0.76762 0.20632 0.0
O57 O 0.10526 0.79017 0.22505 0.0
O58 O 0.13572 0.79643 0.18867 0.0
C59 C 0.16161 0.91653 0.24421 0.0
Tb60 Tb 0.27712 0.13631 0.34802 0.0
C61 C 0.17704 0.11981 0.36042 0.0
Tb62 Tb 0.20181 0.04119 0.37134 0.0
O63 O 0.27547 0.10493 0.31135 0.0
O64 O 0.2171 0.07621 0.33541 0.0
O65 O 0.21781 0.14667 0.34963 0.0
C66 C 0.12537 0.95905 0.37462 0.0
O67 O 0.16412 0.07826 0.3697 0.0
C68 C 0.25941 0.09749 0.40688 0.0
C69 C 0.30291 0.06022 0.36194 0.0
O70 O 0.13817 0.99281 0.39065 0.0
O71 O 0.15678 0.97098 0.35692 0.0
O72 O 0.22622 0.05578 0.41165 0.0
O73 O 0.25652 0.10369 0.38336 0.0
O74 O 0.2585 0.02838 0.36431 0.0
O75 O 0.3182 0.10468 0.35759 0.0
C76 C 0.3298 0.22727 0.34754 0.0
O77 O 0.32628 0.20057 0.32856 0.0
O78 O 0.30478 0.2026 0.36654 0.0
C79 C 0.23431 0.07007 0.31521 0.0
Tb80 Tb 0.85843 0.14275 0.34886 0.0
C81 C 0.87614 0.06134 0.36326 0.0
Tb82 Tb 0.95389 0.16593 0.36743 0.0
O83 O 0.886 0.1744 0.31153 0.0
O84 O 0.91682 0.144 0.33264 0.0
O85 O 0.84689 0.07366 0.35472 0.0
C86 C 0.03554 0.17037 0.36872 0.0
O87 O 0.91914 0.0913 0.3696 0.0
C88 C 0.90394 0.17785 0.40216 0.0
C89 C 0.93491 0.24626 0.35473 0.0
O90 O 0.00499 0.1548 0.38696 0.0
O91 O 0.02067 0.18506 0.35006 0.0
O92 O 0.94867 0.19876 0.40249 0.0
O93 O 0.88939 0.14699 0.38498 0.0
O94 O 0.96658 0.23366 0.35584 0.0
O95 O 0.89009 0.21651 0.35412 0.0
C96 C 0.76729 0.10487 0.34753 0.0
O97 O 0.79195 0.09795 0.3309 0.0
O98 O 0.79436 0.13508 0.36413 0.0
C99 C 0.92072 0.16747 0.31287 0.0
Tb100 Tb 0.84906 0.71628 0.35705 0.0
C101 C 0.93372 0.81594 0.36714 0.0
Tb102 Tb 0.82989 0.79255 0.37117 0.0
O103 O 0.81431 0.70805 0.32016 0.0
O104 O 0.85011 0.77243 0.3377 0.0
O105 O 0.91985 0.77296 0.36033 0.0
C106 C 0.82799 0.87069 0.37172 0.0
O107 O 0.90477 0.83082 0.37224 0.0
C108 C 0.81795 0.73731 0.40928 0.0
C109 C 0.74709 0.69086 0.36339 0.0
O110 O 0.84445 0.8564 0.38967 0.0
O111 O 0.81145 0.84027 0.35347 0.0
O112 O 0.79678 0.76053 0.40694 0.0
O113 O 0.848 0.74926 0.39171 0.0
O114 O 0.76073 0.73557 0.36169 0.0
O115 O 0.77623 0.67533 0.36525 0.0
C116 C 0.88139 0.65843 0.35733 0.0
O117 O 0.86046 0.66519 0.37626 0.0
O118 O 0.88324 0.68368 0.33802 0.0
C119 C 0.82485 0.75091 0.31896 0.0
Tb120 Tb 0.95782 0.78914 0.86314 0.0
C121 C 0.9383 0.68863 0.8535 0.0
Tb122 Tb 0.86152 0.71378 0.84883 0.0
O123 O 0.9594 0.75465 0.89771 0.0
O124 O 0.89634 0.7443 0.88382 0.0
O125 O 0.96931 0.73324 0.85136 0.0
C126 C 0.77092 0.6564 0.84688 0.0
O127 O 0.89361 0.67294 0.85601 0.0
C128 C 0.92018 0.75049 0.81056 0.0
C129 C 0.87758 0.81216 0.86304 0.0
O130 O 0.79533 0.68714 0.82976 0.0
O131 O 0.79802 0.65695 0.8648 0.0
O132 O 0.88751 0.70773 0.81124 0.0
O133 O 0.9168 0.7709 0.82996 0.0
O134 O 0.84748 0.76932 0.85656 0.0
O135 O 0.92204 0.82749 0.86567 0.0
C136 C 0.03785 0.86752 0.86615 0.0
O137 O 0.00575 0.85144 0.88341 0.0
O138 O 0.02535 0.83882 0.84704 0.0
C139 C 0.91504 0.73126 0.90041 0.0
Tb140 Tb 0.20628 0.16057 0.87133 0.0
C141 C 0.30831 0.24435 0.8622 0.0
Tb142 Tb 0.2812 0.14172 0.85279 0.0
O143 O 0.21236 0.14056 0.91084 0.0
O144 O 0.26685 0.16577 0.8868 0.0
O145 O 0.26365 0.23094 0.86445 0.0
C146 C 0.33609 0.10585 0.85 0.0
O147 O 0.32391 0.21505 0.86007 0.0
C148 C 0.24125 0.16378 0.81692 0.0
C149 C 0.18141 0.05855 0.86436 0.0
O150 O 0.31034 0.1063 0.83162 0.0
O151 O 0.33279 0.12799 0.8695 0.0
O152 O 0.28394 0.17355 0.81585 0.0
O153 O 0.22204 0.13909 0.83651 0.0
O154 O 0.22577 0.07271 0.86285 0.0
O155 O 0.16553 0.08734 0.86446 0.0
C156 C 0.13372 0.17317 0.87401 0.0
O157 O 0.14954 0.15932 0.89251 0.0
O158 O 0.16083 0.18288 0.85434 0.0
C159 C 0.25407 0.14803 0.9086 0.0
Tb160 Tb 0.83553 0.03545 0.87445 0.0
C161 C 0.75402 0.05539 0.86637 0.0
Tb162 Tb 0.85534 0.12999 0.85935 0.0
O163 O 0.80113 0.03385 0.90969 0.0
O164 O 0.85283 0.09693 0.89493 0.0
O165 O 0.76762 0.02459 0.86327 0.0
C166 C 0.89242 0.22129 0.85961 0.0
O167 O 0.78348 0.09983 0.86949 0.0
C168 C 0.83109 0.07009 0.82139 0.0
C169 C 0.93963 0.11492 0.86748 0.0
O170 O 0.87864 0.1956 0.83931 0.0
O171 O 0.88383 0.19539 0.87957 0.0
O172 O 0.82091 0.10268 0.82243 0.0
O173 O 0.85617 0.07418 0.84035 0.0
O174 O 0.92547 0.14268 0.85883 0.0
O175 O 0.91082 0.0723 0.87532 0.0
C176 C 0.83138 0.9543 0.87672 0.0
O177 O 0.85099 0.98717 0.89334 0.0
O178 O 0.81292 0.96673 0.85886 0.0
C179 C 0.822 0.07824 0.91217 0.0
Tb180 Tb 0.79103 0.96939 0.68908 0.0
C181 C 0.68662 0.94502 0.69361 0.0
Tb182 Tb 0.71673 0.87089 0.7028 0.0
O183 O 0.77307 0.96574 0.64911 0.0
O184 O 0.75507 0.90551 0.66945 0.0
O185 O 0.73097 0.97811 0.69405 0.0
C186 C 0.65627 0.78052 0.70518 0.0
O187 O 0.67282 0.90031 0.69534 0.0
C188 C 0.76052 0.92894 0.74129 0.0
C189 C 0.81694 0.89102 0.69398 0.0
O190 O 0.68328 0.80558 0.72345 0.0
O191 O 0.66103 0.80725 0.68595 0.0
O192 O 0.74496 0.88501 0.7426 0.0
O193 O 0.748 0.93661 0.7203 0.0
O194 O 0.77293 0.85978 0.69233 0.0
O195 O 0.8316 0.93561 0.6951 0.0
C196 C 0.86692 0.05013 0.6975 0.0
O197 O 0.84706 0.01656 0.71373 0.0
O198 O 0.84299 0.03886 0.67645 0.0
C199 C 0.74728 0.92107 0.64892 0.0
Tb200 Tb 0.03309 0.83644 0.68505 0.0
C201 C 0.05306 0.75473 0.69208 0.0
Tb202 Tb 0.12952 0.85694 0.69846 0.0
O203 O 0.03098 0.80238 0.64957 0.0
O204 O 0.09439 0.85433 0.66395 0.0
O205 O 0.02194 0.76804 0.69477 0.0
C206 C 0.22037 0.89575 0.70232 0.0
O207 O 0.09787 0.78421 0.68987 0.0
C208 C 0.07097 0.83095 0.73681 0.0
C209 C 0.11307 0.94003 0.68542 0.0
O210 O 0.19347 0.89923 0.71882 0.0
O211 O 0.19573 0.86826 0.68395 0.0
O212 O 0.1037 0.82123 0.73522 0.0
O213 O 0.07428 0.85643 0.7182 0.0
O214 O 0.14236 0.92687 0.69278 0.0
O215 O 0.06916 0.91069 0.68078 0.0
C216 C 0.9531 0.83449 0.6889 0.0
O217 O 0.97473 0.82843 0.70771 0.0
O218 O 0.97577 0.84012 0.66777 0.0
C219 C 0.07547 0.82343 0.64681 0.0
Tb220 Tb 0.16019 0.20926 0.69012 0.0
C221 C 0.24415 0.30995 0.69903 0.0
Tb222 Tb 0.14313 0.28686 0.71202 0.0
O223 O 0.16747 0.23028 0.64926 0.0
O224 O 0.15082 0.26261 0.67651 0.0
O225 O 0.2302 0.26512 0.6974 0.0
C226 C 0.10343 0.33774 0.71897 0.0
O227 O 0.21604 0.32655 0.70301 0.0
C228 C 0.16731 0.2444 0.74554 0.0
C229 C 0.05937 0.18842 0.69957 0.0
O230 O 0.09641 0.30264 0.7328 0.0
O231 O 0.13554 0.34619 0.70232 0.0
O232 O 0.17572 0.28644 0.74831 0.0
O233 O 0.14254 0.22693 0.72592 0.0
O234 O 0.07443 0.23305 0.70057 0.0
O235 O 0.0872 0.17131 0.69905 0.0
C236 C 0.16127 0.13132 0.68307 0.0
O237 O 0.13784 0.1452 0.66991 0.0
O238 O 0.18551 0.16225 0.7003 0.0
C239 C 0.15951 0.26387 0.65293 0.0
Tb240 Tb 0.79555 0.61075 0.53529 0.0
C241 C 0.77873 0.51085 0.52173 0.0
Tb242 Tb 0.69871 0.53378 0.52107 0.0
O243 O 0.77195 0.6217 0.57255 0.0
O244 O 0.73817 0.55774 0.55464 0.0
O245 O 0.80654 0.55234 0.53115 0.0
C246 C 0.62074 0.45343 0.52607 0.0
O247 O 0.7361 0.49738 0.51434 0.0
C248 C 0.7441 0.58654 0.48255 0.0
C249 C 0.71916 0.63588 0.52745 0.0
O250 O 0.65456 0.47046 0.54211 0.0
O251 O 0.63023 0.48215 0.50726 0.0
O252 O 0.69944 0.56194 0.48372 0.0
O253 O 0.76124 0.57593 0.50119 0.0
O254 O 0.6879 0.59138 0.53061 0.0
O255 O 0.76397 0.65124 0.52534 0.0
C256 C 0.88657 0.66128 0.53793 0.0
O257 O 0.86158 0.66463 0.51996 0.0
O258 O 0.85997 0.63153 0.55486 0.0
C259 C 0.73598 0.58068 0.57311 0.0
Tb260 Tb 0.37953 0.18121 0.5364 0.0
C261 C 0.47962 0.26151 0.52569 0.0
Tb262 Tb 0.45201 0.15652 0.51762 0.0
O263 O 0.40959 0.19261 0.5754 0.0
O264 O 0.41278 0.14656 0.55078 0.0
O265 O 0.43579 0.24937 0.52714 0.0
C266 C 0.53117 0.15683 0.5239 0.0
O267 O 0.49351 0.23108 0.52354 0.0
C268 C 0.40582 0.16704 0.48062 0.0
C269 C 0.3481 0.07662 0.52474 0.0
O270 O 0.51143 0.1699 0.54049 0.0
O271 O 0.50509 0.14134 0.50363 0.0
O272 O 0.42853 0.14524 0.47783 0.0
O273 O 0.41603 0.18733 0.50212 0.0
O274 O 0.39214 0.08748 0.52272 0.0
O275 O 0.33505 0.10752 0.52924 0.0
C276 C 0.32052 0.21219 0.54095 0.0
O277 O 0.3476 0.21257 0.55874 0.0
O278 O 0.32409 0.1908 0.52113 0.0
C279 C 0.42635 0.16559 0.57212 0.0
Tb280 Tb 0.8087 0.19806 0.53978 0.0
C281 C 0.7257 0.21439 0.52787 0.0
Tb282 Tb 0.82989 0.2918 0.52094 0.0
O283 O 0.84556 0.22801 0.57565 0.0
O284 O 0.81192 0.2574 0.55677 0.0
O285 O 0.73879 0.18403 0.53263 0.0
C286 C 0.83274 0.37211 0.5157 0.0
O287 O 0.75538 0.25857 0.52408 0.0
C288 C 0.83782 0.24105 0.48544 0.0
C289 C 0.91084 0.27191 0.52924 0.0
O290 O 0.81329 0.33765 0.49999 0.0
O291 O 0.85221 0.36191 0.53412 0.0
O292 O 0.85916 0.28568 0.48487 0.0
O293 O 0.80857 0.22674 0.5035 0.0
O294 O 0.8986 0.30396 0.53012 0.0
O295 O 0.88067 0.22716 0.5299 0.0
C296 C 0.76999 0.10744 0.54592 0.0
O297 O 0.76443 0.13513 0.56085 0.0
O298 O 0.79973 0.13132 0.52817 0.0
C299 C 0.83817 0.26241 0.57531 0.0
Tb300 Tb 0.9429 0.46991 0.68981 0.0
C301 C 0.84316 0.45388 0.70061 0.0
Tb302 Tb 0.86812 0.37548 0.70564 0.0
O303 O 0.95219 0.44167 0.65382 0.0
O304 O 0.88738 0.41265 0.67077 0.0
O305 O 0.88726 0.48425 0.6974 0.0
C306 C 0.78929 0.29737 0.71163 0.0
O307 O 0.82784 0.4093 0.70241 0.0
C308 C 0.92359 0.42139 0.74327 0.0
C309 C 0.96938 0.39482 0.69956 0.0
O310 O 0.80616 0.33198 0.72719 0.0
O311 O 0.81789 0.30593 0.69272 0.0
O312 O 0.90024 0.37689 0.74169 0.0
O313 O 0.91135 0.43836 0.72524 0.0
O314 O 0.92498 0.36346 0.6967 0.0
O315 O 0.98443 0.43971 0.70047 0.0
C316 C 0.99354 0.56072 0.68365 0.0
O317 O 0.96143 0.53234 0.6684 0.0
O318 O -0.00064 0.53749 0.70178 0.0
C319 C 0.90979 0.40846 0.65257 0.0
Tb320 Tb 0.52841 0.48407 0.68687 0.0
C321 C 0.54635 0.40459 0.70658 0.0
Tb322 Tb 0.62422 0.50927 0.7073 0.0
O323 O 0.55588 0.51616 0.64932 0.0
O324 O 0.59012 0.49171 0.67174 0.0
O325 O 0.52016 0.41595 0.69304 0.0
C326 C 0.70108 0.50411 0.70451 0.0
O327 O 0.58647 0.43584 0.71639 0.0
C328 C 0.57097 0.51489 0.74149 0.0
C329 C 0.60117 0.58775 0.69491 0.0
O330 O 0.6656 0.48352 0.68978 0.0
O331 O 0.69412 0.52909 0.72101 0.0
O332 O 0.61565 0.53648 0.74351 0.0
O333 O 0.55833 0.48657 0.72308 0.0
O334 O 0.63413 0.57666 0.69589 0.0
O335 O 0.55659 0.55677 0.69429 0.0
C336 C 0.43726 0.44276 0.68313 0.0
O337 O 0.46437 0.43796 0.6673 0.0
O338 O 0.4619 0.47303 0.70044 0.0
C339 C 0.5939 0.51528 0.65209 0.0
Tb340 Tb 0.51677 0.06079 0.69255 0.0
C341 C 0.597 0.15967 0.70627 0.0
Tb342 Tb 0.49223 0.1327 0.70906 0.0
O343 O 0.48681 0.05498 0.65484 0.0
O344 O 0.51508 0.11728 0.67453 0.0
O345 O 0.58504 0.11675 0.70101 0.0
C346 C 0.49076 0.21101 0.7153 0.0
O347 O 0.56692 0.17384 0.70883 0.0
C348 C 0.48103 0.07345 0.74492 0.0
C349 C 0.41362 0.03185 0.69681 0.0
O350 O 0.50888 0.19452 0.7309 0.0
O351 O 0.47145 0.1821 0.69655 0.0
O352 O 0.45719 0.09403 0.7433 0.0
O353 O 0.51231 0.08945 0.72801 0.0
O354 O 0.42572 0.07622 0.69629 0.0
O355 O 0.44367 0.01747 0.6991 0.0
C356 C 0.55578 0.0091 0.6876 0.0
O357 O 0.56287 0.04318 0.67292 0.0
O358 O 0.52508 0.00279 0.70483 0.0
C359 C 0.49261 0.0962 0.65478 0.0
Tb360 Tb 0.62709 0.12616 0.20551 0.0
C361 C 0.60524 0.02396 0.19832 0.0
Tb362 Tb 0.53009 0.05092 0.1921 0.0
O363 O 0.62798 0.094 0.24127 0.0
O364 O 0.5655 0.08391 0.22653 0.0
O365 O 0.63702 0.06829 0.19599 0.0
C366 C 0.43905 0.99631 0.19317 0.0
O367 O 0.56066 0.0091 0.2006 0.0
C368 C 0.58881 0.08442 0.15367 0.0
C369 C 0.54847 0.15141 0.2023 0.0
O370 O 0.46309 0.01791 0.17311 0.0
O371 O 0.46646 0.00457 0.21241 0.0
O372 O 0.55583 0.04174 0.15503 0.0
O373 O 0.58569 0.10614 0.17252 0.0
O374 O 0.51873 0.10915 0.19471 0.0
O375 O 0.59198 0.16534 0.20764 0.0
C376 C 0.70844 0.2033 0.20374 0.0
O377 O 0.67967 0.19002 0.22277 0.0
O378 O 0.69193 0.17227 0.18583 0.0
C379 C 0.5835 0.07162 0.24396 0.0
Tb380 Tb 0.87812 0.49796 0.19701 0.0
C381 C 0.97695 0.57872 0.18394 0.0
Tb382 Tb 0.94966 0.47559 0.17717 0.0
O383 O 0.91766 0.53229 0.23107 0.0
O384 O 0.92434 0.47941 0.21406 0.0
O385 O 0.93262 0.56603 0.18527 0.0
C386 C 0.00465 0.4395 0.17608 0.0
O387 O 0.99196 0.54905 0.1828 0.0
C388 C 0.91134 0.50137 0.14205 0.0
C389 C 0.85107 0.39349 0.19172 0.0
O390 O 0.9736 0.43264 0.15909 0.0
O391 O 0.0064 0.46885 0.19287 0.0
O392 O 0.95327 0.509 0.14035 0.0
O393 O 0.89213 0.47692 0.16161 0.0
O394 O 0.89206 0.40598 0.18207 0.0
O395 O 0.83864 0.42331 0.19916 0.0
C396 C 0.80018 0.49983 0.20276 0.0
O397 O 0.8181 0.48485 0.21948 0.0
O398 O 0.82725 0.51553 0.18291 0.0
C399 C 0.94105 0.51111 0.23083 0.0
Tb400 Tb 0.5042 0.37423 0.2057 0.0
C401 C 0.42378 0.3954 0.19945 0.0
Tb402 Tb 0.52631 0.46995 0.18986 0.0
O403 O 0.47523 0.37797 0.24209 0.0
O404 O 0.52673 0.43802 0.22487 0.0
O405 O 0.43561 0.36315 0.19753 0.0
C406 C 0.56308 0.56081 0.18773 0.0
O407 O 0.45433 0.44006 0.20022 0.0
C408 C 0.49597 0.40851 0.15284 0.0
C409 C 0.60859 0.45136 0.19998 0.0
O410 O 0.56928 0.53584 0.17102 0.0
O411 O 0.53423 0.53421 0.20511 0.0
O412 O 0.48884 0.44309 0.15377 0.0
O413 O 0.5223 0.41192 0.17098 0.0
O414 O 0.59615 0.48191 0.1941 0.0
O415 O 0.57859 0.40751 0.20438 0.0
C416 C 0.50019 0.29335 0.20927 0.0
O417 O 0.51697 0.32571 0.2263 0.0
O418 O 0.48417 0.30599 0.19016 0.0
C419 C 0.49835 0.42259 0.24335 0.0
Tb420 Tb 0.45519 0.29073 1.02147 0.0
C421 C 0.35439 0.27082 0.03066 0.0
Tb422 Tb 0.38283 0.19764 0.04096 0.0
O423 O 0.41775 0.28502 0.98657 0.0
O424 O 0.41056 0.22556 1.00418 0.0
O425 O 0.39878 0.30311 0.03091 0.0
C426 C 0.32966 0.10728 0.04746 0.0
O427 O 0.3399 0.22617 0.03108 0.0
C428 C 0.41839 0.26262 0.07595 0.0
C429 C 0.48114 0.21277 1.02784 0.0
O430 O 0.36307 0.13474 0.06236 0.0
O431 O 0.32462 0.1312 1.0295 0.0
O432 O 0.37629 0.22857 0.07653 0.0
O433 O 0.43938 0.25702 0.05745 0.0
O434 O 0.4388 0.18377 0.03551 0.0
O435 O 0.49505 0.25594 1.02151 0.0
C436 C 0.53374 0.37045 1.01587 0.0
O437 O 0.51627 0.33703 0.99945 0.0
O438 O 0.50573 0.35976 0.03525 0.0
C439 C 0.39537 0.24029 0.98642 0.0
Tb440 Tb 0.70156 0.16277 1.02466 0.0
C441 C 0.7199 0.08026 0.03342 0.0
Tb442 Tb 0.79663 0.18238 0.04006 0.0
O443 O 0.70171 0.12926 0.98939 0.0
O444 O 0.76402 0.18098 1.00479 0.0
O445 O 0.68881 0.09382 0.03467 0.0
C446 C 0.88771 0.21938 0.04128 0.0
O447 O 0.76479 0.10952 0.03191 0.0
C448 C 0.73622 0.15691 0.0775 0.0
C449 C 0.78141 0.26641 1.02903 0.0
O450 O 0.86293 0.22433 0.05869 0.0
O451 O 0.8607 0.19118 1.02386 0.0
O452 O 0.76905 0.14711 0.07684 0.0
O453 O 0.74052 0.1824 0.0587 0.0
O454 O 0.81046 0.25272 0.03587 0.0
O455 O 0.73772 0.23754 1.02363 0.0
C456 C 0.62184 0.16162 1.0225 0.0
O457 O 0.65357 0.1778 1.005 0.0
O458 O 0.63443 0.14469 0.04118 0.0
C459 C 0.74624 0.15042 0.98745 0.0
Tb460 Tb 0.83172 0.53628 1.01841 0.0
C461 C 0.91153 0.64005 1.02456 0.0
Tb462 Tb 0.8092 0.61071 0.03089 0.0
O463 O 0.86616 0.56745 0.98295 0.0
O464 O 0.81314 0.57805 0.99646 0.0
O465 O 0.89922 0.596 1.0287 0.0
C466 C 0.77064 0.66365 0.03083 0.0
O467 O 0.88097 0.65339 1.02086 0.0
C468 C 0.83317 0.5767 0.06983 0.0
C469 C 0.72695 0.50999 1.02131 0.0
O470 O 0.7819 0.64922 0.05111 0.0
O471 O 0.78256 0.64958 1.01071 0.0
O472 O 0.84428 0.61968 0.06801 0.0
O473 O 0.80856 0.55534 0.05091 0.0
O474 O 0.73948 0.55209 1.02919 0.0
O475 O 0.75698 0.49672 1.01574 0.0
C476 C 0.83444 0.45837 1.01945 0.0
O477 O 0.81961 0.47263 1.00066 0.0
O478 O 0.84944 0.48902 0.03761 0.0
C479 C 0.8443 0.58976 0.97944 0.0
Tb480 Tb 0.46628 0.94343 0.8729 0.0
C481 C 0.44906 0.84311 0.86763 0.0
Tb482 Tb 0.37122 0.86868 0.85756 0.0
O483 O 0.44081 0.94934 0.91093 0.0
O484 O 0.40945 0.88706 0.89158 0.0
O485 O 0.47633 0.88491 0.87658 0.0
C486 C 0.29009 0.79208 0.85489 0.0
O487 O 0.40719 0.8295 0.85876 0.0
C488 C 0.41399 0.9251 0.81957 0.0
C489 C 0.39279 0.97098 0.86432 0.0
O490 O 0.32338 0.80506 0.8385 0.0
O491 O 0.30213 0.82291 0.8728 0.0
O492 O 0.36972 0.89972 0.8217 0.0
O493 O 0.43282 0.91378 0.83714 0.0
O494 O 0.36112 0.92667 0.8673 0.0
O495 O 0.43733 0.98562 0.86218 0.0
C496 C 0.55821 0.99026 0.86843 0.0
O497 O 0.53519 0.9967 0.8865 0.0
O498 O 0.52934 0.95877 0.85329 0.0
C499 C 0.4059 0.90745 0.91094 0.0
Tb500 Tb 0.04787 0.51685 0.86782 0.0
C501 C 0.14749 0.60215 0.86009 0.0
Tb502 Tb 0.12619 0.49959 0.85511 0.0
O503 O 0.03637 0.47949 0.90414 0.0
O504 O 0.10219 0.51659 0.88832 0.0
O505 O 0.10361 0.58769 0.8644 0.0
C506 C 0.2073 0.50348 0.85487 0.0
O507 O 0.16384 0.57413 0.85643 0.0
C508 C 0.07469 0.49161 0.81574 0.0
C509 C 0.02491 0.41624 0.85944 0.0
O510 O 0.19124 0.51789 0.83681 0.0
O511 O 0.17642 0.48445 0.87286 0.0
O512 O 0.09722 0.46973 0.81822 0.0
O513 O 0.08492 0.51975 0.83412 0.0
O514 O 0.06915 0.43012 0.8637 0.0
O515 O 0.00945 0.44533 0.85646 0.0
C516 C 0.99394 0.55355 0.86977 0.0
O517 O 0.99335 0.52677 0.85162 0.0
O518 O 0.02254 0.55673 0.88737 0.0
C519 C 0.07904 0.48995 0.90634 0.0
Tb520 Tb 0.47537 0.53095 0.8758 0.0
C521 C 0.39989 0.55795 0.8664 0.0
Tb522 Tb 0.50704 0.63036 0.86014 0.0
O523 O 0.46391 0.54601 0.91578 0.0
O524 O 0.51248 0.59668 0.89237 0.0
O525 O 0.40913 0.52705 0.87574 0.0
C526 C 0.50843 0.70876 0.86929 0.0
O527 O 0.43232 0.5987 0.85804 0.0
C528 C 0.50267 0.58052 0.82147 0.0
C529 C 0.58068 0.59926 0.86405 0.0
O530 O 0.48824 0.67198 0.88331 0.0
O531 O 0.52983 0.7022 0.85034 0.0
O532 O 0.52538 0.62547 0.82112 0.0
O533 O 0.47692 0.56615 0.84133 0.0
O534 O 0.57359 0.63493 0.86543 0.0
O535 O 0.54733 0.55548 0.86601 0.0
C536 C 0.4342 0.44022 0.87015 0.0
O537 O 0.46564 0.46343 0.88739 0.0
O538 O 0.42788 0.46833 0.85616 0.0
C539 C 0.4926 0.58999 0.91351 0.0
Tb540 Tb 0.60417 0.79347 1.02945 0.0
C541 C 0.50506 0.77392 0.04431 0.0
Tb542 Tb 0.53165 0.69584 0.04412 0.0
O543 O 0.60912 0.76837 0.99122 0.0
O544 O 0.54737 0.73696 1.01117 0.0
O545 O 0.54833 0.80514 0.03966 0.0
C546 C 0.45552 0.61341 0.04601 0.0
O547 O 0.49038 0.72925 0.04554 0.0
C548 C 0.5885 0.74046 0.08137 0.0
C549 C 0.63417 0.72065 0.03347 0.0
O550 O 0.46818 0.64569 0.06299 0.0
O551 O 0.48673 0.62708 1.02816 0.0
O552 O 0.56635 0.696 0.07893 0.0
O553 O 0.57454 0.75795 0.06457 0.0
O554 O 0.58996 0.68844 0.03092 0.0
O555 O 0.64776 0.76467 0.03711 0.0
C556 C 0.65484 0.88491 1.02548 0.0
O557 O 0.62095 0.85805 1.0107 0.0
O558 O 0.66175 0.85994 0.04197 0.0
C559 C 0.56688 0.73454 0.99116 0.0
Tb560 Tb 0.1963 0.81056 1.02496 0.0
C561 C 0.21533 0.72931 1.02985 0.0
Tb562 Tb 0.29137 0.83181 0.04457 0.0
O563 O 0.21559 0.79999 0.98557 0.0
O564 O 0.26475 0.84305 1.01092 0.0
O565 O 0.18363 0.74126 1.02917 0.0
C566 C 0.36947 0.83132 0.05147 0.0
O567 O 0.25965 0.75991 0.03201 0.0
C568 C 0.23762 0.83179 0.08042 0.0
C569 C 0.27045 0.91362 0.03821 0.0
O570 O 0.36174 0.85212 0.03267 0.0
O571 O 0.33417 0.81309 0.06662 0.0
O572 O 0.28212 0.85223 0.08221 0.0
O573 O 0.22507 0.80632 0.0605 0.0
O574 O 0.303 0.90187 0.04035 0.0
O575 O 0.22609 0.88328 0.03417 0.0
C576 C 0.10575 0.77875 1.02642 0.0
O577 O 0.13189 0.79741 1.00636 0.0
O578 O 0.1314 0.78132 0.04551 0.0
C579 C 0.25979 0.82543 0.98921 0.0
Tb580 Tb 0.18115 0.37736 1.01446 0.0
C581 C 0.26415 0.47584 0.0322 0.0
Tb582 Tb 0.16198 0.45623 0.03277 0.0
O583 O 0.14738 0.37227 0.97776 0.0
O584 O 0.17906 0.43403 0.99845 0.0
O585 O 0.25039 0.43431 1.02266 0.0
C586 C 0.16488 0.53664 1.02684 0.0
O587 O 0.23581 0.49114 0.0381 0.0
C588 C 0.16612 0.40736 0.07151 0.0
C589 C 0.07987 0.35369 1.0251 0.0
O590 O 0.13815 0.50449 0.04293 0.0
O591 O 0.18832 0.52257 1.01386 0.0
O592 O 0.15778 0.44111 0.07445 0.0
O593 O 0.17308 0.40579 0.04799 0.0
O594 O 0.0928 0.39846 1.02466 0.0
O595 O 0.1089 0.33767 1.02419 0.0
C596 C 0.21805 0.32384 1.01258 0.0
O597 O 0.22373 0.35444 0.9955 0.0
O598 O 0.18926 0.32157 0.03001 0.0
C599 C 0.1542 0.41396 0.97926 0.0
Tb600 Tb 0.29077 0.45359 0.53619 0.0
C601 C 0.26799 0.35092 0.52729 0.0
Tb602 Tb 0.19308 0.37812 0.51607 0.0
O603 O 0.27853 0.43624 0.5775 0.0
O604 O 0.22766 0.40429 0.55057 0.0
O605 O 0.30076 0.39542 0.52714 0.0
C606 C 0.10199 0.3269 0.51266 0.0
O607 O 0.22315 0.33607 0.52561 0.0
C608 C 0.25875 0.41457 0.48119 0.0
C609 C 0.21023 0.47639 0.53455 0.0
O610 O 0.12891 0.35724 0.49597 0.0
O611 O 0.12686 0.32339 0.53064 0.0
O612 O 0.22186 0.37423 0.47912 0.0
O613 O 0.25433 0.43415 0.50087 0.0
O614 O 0.18258 0.43634 0.52342 0.0
O615 O 0.25257 0.48915 0.54206 0.0
C616 C 0.36622 0.53601 0.53186 0.0
O617 O 0.327 0.52261 0.52101 0.0
O618 O 0.36402 0.50184 0.54499 0.0
C619 C 0.23578 0.40407 0.5741 0.0
Tb620 Tb 0.53501 0.8319 0.54037 0.0
C621 C 0.63648 0.91369 0.53321 0.0
Tb622 Tb 0.61007 0.81178 0.52493 0.0
O623 O 0.56556 0.862 0.57674 0.0
O624 O 0.57883 0.81306 0.56037 0.0
O625 O 0.59204 0.9002 0.53054 0.0
C626 C 0.66054 0.77121 0.51935 0.0
O627 O 0.65168 0.88408 0.53475 0.0
C628 C 0.57614 0.83929 0.48763 0.0
C629 C 0.50918 0.72841 0.53448 0.0
O630 O 0.62989 0.76889 0.50345 0.0
O631 O 0.66498 0.79904 0.53791 0.0
O632 O 0.6187 0.84894 0.48862 0.0
O633 O 0.5546 0.81309 0.50615 0.0
O634 O 0.55297 0.74151 0.53069 0.0
O635 O 0.49474 0.75791 0.53818 0.0
C636 C 0.45702 0.83407 0.5418 0.0
O637 O 0.47093 0.81607 0.55909 0.0
O638 O 0.4881 0.85259 0.5239 0.0
C639 C 0.59049 0.84257 0.57831 0.0
Tb640 Tb 0.16094 0.69782 0.53818 0.0
C641 C 0.0788 0.71654 0.52985 0.0
Tb642 Tb 0.18036 0.79272 0.52209 0.0
O643 O 0.12802 0.69902 0.57361 0.0
O644 O 0.17959 0.76074 0.55751 0.0
O645 O 0.09185 0.68504 0.52878 0.0
C646 C 0.2131 0.88304 0.51913 0.0
O647 O 0.10819 0.76134 0.53111 0.0
C648 C 0.15328 0.7316 0.48512 0.0
C649 C 0.26454 0.77832 0.53277 0.0
O650 O 0.21681 0.85794 0.50149 0.0
O651 O 0.19054 0.85706 0.53845 0.0
O652 O 0.14381 0.7646 0.48596 0.0
O653 O 0.17947 0.73584 0.50355 0.0
O654 O 0.25072 0.8071 0.52555 0.0
O655 O 0.23579 0.7347 0.53868 0.0
C656 C 0.16026 0.61809 0.54152 0.0
O657 O 0.14381 0.63032 0.52243 0.0
O658 O 0.17563 0.6502 0.55873 0.0
C659 C 0.1495 0.74362 0.57518 0.0
Tb660 Tb 0.12012 0.62847 0.35356 0.0
C661 C 0.01834 0.60358 0.36365 0.0
Tb662 Tb 0.04867 0.53025 0.36839 0.0
O663 O 0.08487 0.62511 0.31775 0.0
O664 O 0.07916 0.56539 0.33376 0.0
O665 O 0.06225 0.63635 0.3657 0.0
C666 C -0.00352 0.43906 0.36967 0.0
O667 O 0.00521 0.55947 0.3606 0.0
C668 C 0.08169 0.58898 0.40659 0.0
C669 C 0.14925 0.55228 0.35438 0.0
O670 O 0.02835 0.46402 0.38606 0.0
O671 O 0.99259 0.46577 0.35307 0.0
O672 O 0.0403 0.55363 0.40616 0.0
O673 O 0.10339 0.58775 0.38713 0.0
O674 O 0.10667 0.52042 0.36028 0.0
O675 O 0.1624 0.59643 0.35206 0.0
C676 C 0.19692 0.71073 0.3525 0.0
O677 O 0.18261 0.68015 0.33443 0.0
O678 O 0.16685 0.69562 0.37101 0.0
C679 C 0.06382 0.58045 0.31648 0.0
Tb680 Tb 0.36874 0.50309 0.34524 0.0
C681 C 0.39022 0.42101 0.34707 0.0
Tb682 Tb 0.46329 0.5219 0.36411 0.0
O683 O 0.37982 0.49125 0.30608 0.0
O684 O 0.43604 0.53216 0.32954 0.0
O685 O 0.3579 0.43312 0.34575 0.0
C686 C 0.55332 0.55273 0.36963 0.0
O687 O 0.43425 0.45029 0.35254 0.0
C688 C 0.39895 0.50101 0.40032 0.0
C689 C 0.44421 0.60297 0.36099 0.0
O690 O 0.5256 0.55168 0.38722 0.0
O691 O 0.52928 0.53254 0.3493 0.0
O692 O 0.44288 0.52543 0.40432 0.0
O693 O 0.39438 0.48676 0.37776 0.0
O694 O 0.47583 0.59112 0.35829 0.0
O695 O 0.39988 0.57244 0.36065 0.0
C696 C 0.28917 0.50194 0.34086 0.0
O697 O 0.29851 0.48048 0.35846 0.0
O698 O 0.32391 0.52223 0.32542 0.0
C699 C 0.42428 0.51095 0.30813 0.0
Tb700 Tb 0.49256 0.87289 0.3607 0.0
C701 C 0.5755 0.97417 0.36741 0.0
Tb702 Tb 0.47397 0.94844 0.3755 0.0
O703 O 0.52676 0.90488 0.3254 0.0
O704 O 0.47574 0.91753 0.33995 0.0
O705 O 0.56195 0.92955 0.36955 0.0
C706 C 0.43715 0.00269 0.37842 0.0
O707 O 0.54621 0.98964 0.36614 0.0
C708 C 0.50016 0.91433 0.41329 0.0
C709 C 0.38922 0.84972 0.36349 0.0
O710 O 0.43307 0.97268 0.39543 0.0
O711 O 0.46449 0.00409 0.36034 0.0
O712 O 0.5104 0.95708 0.4119 0.0
O713 O 0.47378 0.89251 0.39492 0.0
O714 O 0.40335 0.89272 0.37012 0.0
O715 O 0.41793 0.83444 0.35906 0.0
C716 C 0.49256 0.7939 0.35875 0.0
O717 O 0.47596 0.80922 0.34148 0.0
O718 O 0.51068 0.82389 0.37714 0.0
C719 C 0.50679 0.92917 0.32281 0.0
C720 C 0.16774 0.14394 0.20748 0.0
C721 C 0.13924 0.14707 0.18878 0.0
C722 C 0.17985 0.10948 0.20621 0.0
C723 C 0.16495 0.07782 0.18583 0.0
H724 H 0.17925 0.16709 0.22373 0.0
H725 H 0.20016 0.10701 0.22157 0.0
S726 S 0.09294 0.07404 0.13088 0.0
N727 N 0.09844 0.11711 0.14867 0.0
N728 N 0.12221 0.0536 0.1458 0.0
C729 C 0.13824 0.08208 0.16641 0.0
C730 C 0.1251 0.11635 0.16803 0.0
C731 C 0.89031 0.06865 0.1997 0.0
C732 C 0.92634 0.08211 0.18188 0.0
C733 C 0.85587 0.02221 0.20236 0.0
C734 C 0.85706 0.98761 0.18776 0.0
H735 H 0.88921 0.09403 0.21202 0.0
H736 H 0.82919 0.01319 0.21661 0.0
S737 S 0.9428 0.00508 0.1376 0.0
N738 N 0.95969 0.05726 0.14853 0.0
N739 N 0.89594 0.97028 0.15398 0.0
C740 C 0.89226 0.00083 0.16946 0.0
C741 C 0.92665 0.04803 0.16639 0.0
C742 C -0.0032 0.87901 0.17482 0.0
C743 C 0.0108 0.85712 0.19253 0.0
C744 C 0.95073 0.86692 0.17295 0.0
C745 C 0.91733 0.83341 0.18923 0.0
H746 H 0.02179 0.90618 0.16256 0.0
H747 H 0.94167 0.88553 0.1594 0.0
S748 S 0.93647 0.76477 0.23816 0.0
N749 N 0.98795 0.79877 0.22571 0.0
N750 N 0.90092 0.77714 0.22294 0.0
C751 C 0.93064 0.81033 0.2066 0.0
C752 C 0.97761 0.82191 0.20805 0.0
C753 C 0.11229 0.12085 0.38315 0.0
C754 C 0.14379 0.13648 0.36263 0.0
C755 C 0.07899 0.13401 0.38556 0.0
C756 C 0.07525 0.16276 0.36732 0.0
H757 H 0.11312 0.09795 0.3975 0.0
H758 H 0.05501 0.12021 0.40145 0.0
S759 S 0.15008 0.21439 0.31031 0.0
N760 N 0.17023 0.18387 0.32417 0.0
N761 N 0.10669 0.20768 0.32835 0.0
C762 C 0.1071 0.17957 0.34697 0.0
C763 C 0.14163 0.1667 0.34472 0.0
C764 C 0.86688 0.95104 0.3875 0.0
C765 C 0.83551 0.91776 0.37042 0.0
C766 C 0.8794 0.99732 0.38513 0.0
C767 C 0.86033 0.0119 0.36592 0.0
H768 H 0.88314 0.94162 0.40235 0.0
H769 H 0.90443 0.0219 0.3984 0.0
S770 S 0.77488 0.93784 0.31712 0.0
N771 N 0.78463 0.90206 0.33407 0.0
N772 N 0.80722 0.98918 0.32999 0.0
C773 C 0.82761 0.97872 0.34925 0.0
C774 C 0.81545 0.93157 0.3514 0.0
C775 C -0.00176 0.88453 0.38798 0.0
C776 C 0.98358 0.84911 0.36978 0.0
C777 C 0.04461 0.91834 0.39017 0.0
C778 C 0.07823 0.91873 0.37392 0.0
H779 H 0.97359 0.88646 0.40056 0.0
H780 H 0.05382 0.94538 0.40417 0.0
S781 S 0.05828 0.83264 0.3237 0.0
N782 N 0.00672 0.81506 0.33596 0.0
N783 N 0.09404 0.87973 0.33959 0.0
C784 C 0.0644 0.88288 0.35606 0.0
C785 C 0.01704 0.84776 0.35413 0.0
C786 C 0.82903 0.84694 0.85242 0.0
C787 C 0.86139 0.8446 0.86842 0.0
C788 C 0.81773 0.88155 0.85584 0.0
C789 C 0.83784 0.9141 0.87563 0.0
H790 H 0.81404 0.82331 0.83651 0.0
H791 H 0.79433 0.88373 0.84242 0.0
S792 S 0.9201 0.91852 0.92453 0.0
N793 N 0.91035 0.87487 0.9059 0.0
N794 N 0.88851 0.93911 0.91273 0.0
C795 C 0.86809 0.91017 0.89264 0.0
C796 C 0.88008 0.87559 0.8889 0.0
C797 C 0.10975 0.99357 0.88205 0.0
C798 C 0.14789 0.00896 0.86571 0.0
C799 C 0.07545 0.94724 0.88271 0.0
C800 C 0.0774 0.91478 0.86654 0.0
H801 H 0.10622 0.01763 0.89433 0.0
H802 H 0.04635 0.93716 0.89539 0.0
S803 S 0.17041 0.93752 0.82042 0.0
N804 N 0.18665 0.98818 0.83352 0.0
N805 N 0.12086 0.9009 0.83404 0.0
C806 C 0.11561 0.92951 0.8503 0.0
C807 C 0.15128 0.9767 0.85009 0.0
C808 C 0.0076 0.12133 0.89039 0.0
C809 C 0.98969 0.13254 0.86906 0.0
C810 C 0.05479 0.13724 0.89248 0.0
C811 C 0.08584 0.16412 0.87303 0.0
H812 H 0.98493 0.10008 0.90565 0.0
H813 H 0.06672 0.12687 0.90909 0.0
S814 S 0.05623 0.2028 0.81308 0.0
N815 N 0.0066 0.17297 0.82826 0.0
N816 N 0.09524 0.20152 0.83175 0.0
C817 C 0.06847 0.17607 0.85169 0.0
C818 C 0.02042 0.16061 0.84981 0.0
C819 C 0.84902 0.84567 0.67415 0.0
C820 C 0.85078 0.87554 0.69353 0.0
C821 C 0.88188 0.83163 0.67299 0.0
C822 C 0.91615 0.84549 0.6918 0.0
H823 H 0.82292 0.83419 0.65939 0.0
H824 H 0.8806 0.80999 0.65726 0.0
S825 S 0.93399 0.92201 0.74709 0.0
N826 N 0.88905 0.91817 0.73198 0.0
N827 N 0.94936 0.88986 0.73064 0.0
C828 C 0.91727 0.87413 0.71174 0.0
C829 C 0.88489 0.88971 0.71238 0.0
C830 C 0.17434 0.06835 0.69914 0.0
C831 C 0.15419 0.08425 0.68126 0.0
C832 C 0.1625 0.02181 0.69969 0.0
C833 C 0.12961 0.9897 0.68265 0.0
H834 H 0.19814 0.09157 0.71333 0.0
H835 H 0.1776 0.01056 0.71428 0.0
S836 S 0.07113 0.01492 0.63024 0.0
N837 N 0.10319 0.06492 0.6445 0.0
N838 N 0.08044 0.97776 0.64599 0.0
C839 C 0.11095 0.00565 0.66397 0.0
C840 C 0.12342 0.05289 0.66315 0.0
C841 C 0.9329 0.12513 0.68242 0.0
C842 C 0.91437 0.08888 0.70034 0.0
C843 C 0.97981 0.15872 0.68287 0.0
C844 C 0.00961 0.15612 0.70077 0.0
H845 H 0.9113 0.12691 0.6676 0.0
H846 H 0.9932 0.18567 0.66848 0.0
S847 S 0.97777 0.07058 0.75302 0.0
N848 N 0.92907 0.05481 0.7378 0.0
N849 N 0.01726 0.11678 0.73781 0.0
C850 C 0.9913 0.12111 0.71927 0.0
C851 C 0.94357 0.08775 0.71929 0.0
C852 C 0.78917 0.40887 0.49986 0.0
C853 C 0.8241 0.41107 0.51564 0.0
C854 C 0.77522 0.44164 0.50173 0.0
C855 C 0.79618 0.47835 0.51916 0.0
H856 H 0.77115 0.38063 0.48657 0.0
H857 H 0.74742 0.43781 0.48957 0.0
S858 S 0.8916 0.50129 0.56367 0.0
N859 N 0.88075 0.45373 0.54853 0.0
N860 N 0.8554 0.51613 0.55176 0.0
C861 C 0.83256 0.48202 0.53435 0.0
C862 C 0.84629 0.44816 0.53267 0.0
C863 C 0.55577 0.32576 0.53893 0.0
C864 C 0.51429 0.31077 0.52577 0.0
C865 C 0.58927 0.37242 0.53965 0.0
C866 C 0.58286 0.40548 0.52668 0.0
H867 H 0.56218 0.30133 0.54899 0.0
H868 H 0.62095 0.38245 0.54988 0.0
S869 S 0.48002 0.38393 0.48965 0.0
N870 N 0.46792 0.33255 0.50002 0.0
N871 N 0.53195 0.42038 0.50059 0.0
C872 C 0.54153 0.39105 0.5135 0.0
C873 C 0.50688 0.34359 0.51327 0.0
C874 C 0.59695 0.14309 0.51455 0.0
C875 C 0.58028 0.17014 0.52549 0.0
C876 C 0.64402 0.15685 0.51593 0.0
C877 C 0.67597 0.19888 0.52744 0.0
H878 H 0.5735 0.11104 0.50511 0.0
H879 H 0.65564 0.13505 0.50742 0.0
S880 S 0.64966 0.2822 0.55859 0.0
N881 N 0.59939 0.24049 0.54849 0.0
N882 N 0.68744 0.26696 0.55009 0.0
C883 C 0.65959 0.22615 0.53828 0.0
C884 C 0.61184 0.21162 0.53755 0.0
C885 C 0.76319 0.43808 0.6946 0.0
C886 C 0.80884 0.46929 0.70164 0.0
C887 C 0.7292 0.45033 0.69555 0.0
C888 C 0.73901 0.49396 0.70412 0.0
H889 H 0.75349 0.4038 0.68803 0.0
H890 H 0.69461 0.42496 0.68981 0.0
S891 S 0.85299 0.58893 0.72443 0.0
N892 N 0.86242 0.54655 0.71697 0.0
N893 N 0.79758 0.56898 0.71949 0.0
C894 C 0.78433 0.52571 0.71134 0.0
C895 C 0.81951 0.51356 0.70984 0.0
C896 C 0.48288 0.27501 0.69623 0.0
C897 C 0.50063 0.25922 0.71557 0.0
C898 C 0.49689 0.32189 0.69397 0.0
C899 C 0.52973 0.35489 0.71073 0.0
H900 H 0.45896 0.2512 0.68227 0.0
H901 H 0.48294 0.33242 0.67838 0.0
S902 S 0.58381 0.33065 0.766 0.0
N903 N 0.55039 0.2798 0.75291 0.0
N904 N 0.57713 0.36778 0.74845 0.0
C905 C 0.5465 0.33926 0.73072 0.0
C906 C 0.53181 0.29147 0.7332 0.0
C907 C 0.72574 0.22217 0.69588 0.0
C908 C 0.74114 0.25993 0.71246 0.0
C909 C 0.67895 0.18898 0.69449 0.0
C910 C 0.64616 0.19327 0.70919 0.0
H911 H 0.74982 0.21868 0.68359 0.0
H912 H 0.66824 0.16064 0.6812 0.0
S913 S 0.66918 0.28455 0.7565 0.0
N914 N 0.72024 0.29847 0.74487 0.0
N915 N 0.63233 0.2367 0.74168 0.0
C916 C 0.66125 0.23028 0.72624 0.0
C917 C 0.70883 0.26347 0.72805 0.0
C918 C 0.50228 0.18674 0.18775 0.0
C919 C 0.5326 0.18467 0.20551 0.0
C920 C 0.49033 0.22113 0.18952 0.0
C921 C 0.50758 0.25368 0.20943 0.0
H922 H 0.48923 0.16285 0.17184 0.0
H923 H 0.4685 0.22297 0.17487 0.0
S924 S 0.58397 0.25924 0.26237 0.0
N925 N 0.57684 0.21559 0.24455 0.0
N926 N 0.55366 0.27934 0.24834 0.0
C927 C 0.53594 0.25024 0.22805 0.0
C928 C 0.54869 0.21593 0.22596 0.0
C929 C 0.78872 0.32945 0.21652 0.0
C930 C 0.8176 0.34411 0.19491 0.0
C931 C 0.75505 0.28325 0.21971 0.0
C932 C 0.74838 0.25013 0.20116 0.0
H933 H 0.79199 0.35394 0.23105 0.0
H934 H 0.7331 0.27378 0.23649 0.0
S935 S 0.81512 0.27094 0.14103 0.0
N936 N 0.83821 0.32199 0.15485 0.0
N937 N 0.7738 0.23498 0.16051 0.0
C938 C 0.77749 0.26412 0.17961 0.0
C939 C 0.81243 0.31121 0.17657 0.0
C940 C 0.73704 0.51207 0.18635 0.0
C941 C 0.75252 0.49114 0.20399 0.0
C942 C 0.69059 0.50037 0.1857 0.0
C943 C 0.65801 0.4665 0.20221 0.0
H944 H 0.76077 0.53704 0.17269 0.0
H945 H 0.67984 0.51669 0.17156 0.0
S946 S 0.68134 0.40303 0.25268 0.0
N947 N 0.73187 0.43658 0.23919 0.0
N948 N 0.64482 0.41389 0.23748 0.0
C949 C 0.67332 0.44616 0.22029 0.0
C950 C 0.72055 0.45868 0.22131 0.0
C951 C 0.58336 0.2031 1.00615 0.0
C952 C 0.58289 0.17017 1.02301 0.0
C953 C 0.55008 0.21632 1.00779 0.0
C954 C 0.51447 0.19642 1.02599 0.0
H955 H 0.61054 0.22001 0.99207 0.0
H956 H 0.55242 0.24251 0.99472 0.0
S957 S 0.4965 0.1069 0.07378 0.0
N958 N 0.5434 0.11704 0.05808 0.0
N959 N 0.47974 0.14087 0.06072 0.0
C960 C 0.51261 0.16223 0.04242 0.0
C961 C 0.54714 0.14938 0.04105 0.0
C962 C 0.78393 0.33189 1.00563 0.0
C963 C 0.79844 0.31607 1.0265 0.0
C964 C 0.79782 0.37849 1.00302 0.0
C965 C 0.82591 0.4109 1.0215 0.0
H966 H 0.76151 0.30801 0.99119 0.0
H967 H 0.78512 0.38886 0.98674 0.0
S968 S 0.8729 0.38678 0.07998 0.0
N969 N 0.84305 0.33618 0.06584 0.0
N970 N 0.868 0.42398 0.0614 0.0
C971 C 0.84112 0.39567 0.0424 0.0
C972 C 0.82769 0.34815 0.04477 0.0
C973 C 0.59797 0.44405 0.0336 0.0
C974 C 0.58196 0.40871 1.01524 0.0
C975 C 0.64484 0.4776 0.03504 0.0
C976 C 0.67735 0.47622 1.01857 0.0
H977 H 0.57431 0.44531 0.04724 0.0
H978 H 0.65586 0.50385 0.04969 0.0
S979 S 0.65271 0.39234 0.96622 0.0
N980 N 0.60207 0.37593 0.97934 0.0
N981 N 0.68991 0.4381 0.98249 0.0
C982 C 0.66157 0.44172 0.99976 0.0
C983 C 0.61391 0.4082 0.99797 0.0
C984 C 0.43495 0.76384 0.87483 0.0
C985 C 0.46558 0.80998 0.86848 0.0
C986 C 0.44994 0.73183 0.87597 0.0
C987 C 0.49568 0.74461 0.87005 0.0
H988 H 0.39929 0.75246 0.87919 0.0
H989 H 0.42511 0.69647 0.8808 0.0
S990 S 0.58935 0.86098 0.85245 0.0
N991 N 0.54408 0.86721 0.85681 0.0
N992 N 0.57147 0.80606 0.85781 0.0
C993 C 0.52661 0.79044 0.86358 0.0
C994 C 0.51174 0.82344 0.86314 0.0
C995 C 0.21201 0.66779 0.83801 0.0
C996 C 0.17988 0.65166 0.85808 0.0
C997 C 0.24591 0.71408 0.83645 0.0
C998 C 0.24944 0.74567 0.85523 0.0
H999 H 0.21133 0.64427 0.82357 0.0
H1000 H 0.2706 0.72472 0.82091 0.0
S1001 S 0.17305 0.72043 0.91158 0.0
N1002 N 0.15235 0.67048 0.89672 0.0
N1003 N 0.2173 0.75791 0.89424 0.0
C1004 C 0.21672 0.73026 0.87508 0.0
C1005 C 0.18155 0.68304 0.87641 0.0
C1006 C 0.3169 0.50999 0.87887 0.0
C1007 C 0.35102 0.54484 0.86338 0.0
C1008 C 0.27023 0.49615 0.87585 0.0
C1009 C 0.25602 0.51597 0.85687 0.0
H1010 H 0.32633 0.49362 0.89367 0.0
H1011 H 0.24518 0.46987 0.88849 0.0
S1012 S 0.33148 0.60796 0.81102 0.0
N1013 N 0.36708 0.59862 0.82828 0.0
N1014 N 0.27963 0.5721 0.82229 0.0
C1015 C 0.28969 0.55044 0.84106 0.0
C1016 C 0.33714 0.56507 0.84442 0.0
C1017 C 0.4778 0.82903 0.03449 0.0
C1018 C 0.47179 0.78988 0.04781 0.0
C1019 C 0.44524 0.84334 0.03634 0.0
C1020 C 0.40628 0.81965 0.05206 0.0
H1021 H 0.50708 0.84787 1.02188 0.0
H1022 H 0.45018 0.87257 1.02505 0.0
S1023 S 0.37658 0.71708 0.09235 0.0
N1024 N 0.42513 0.72897 0.07803 0.0
N1025 N 0.36458 0.7564 0.08214 0.0
C1026 C 0.4009 0.78158 0.06629 0.0
C1027 C 0.43348 0.76649 0.06397 0.0
C1028 C 0.22932 0.66577 1.01696 0.0
C1029 C 0.2005 0.67975 1.0284 0.0
C1030 C 0.21641 0.61914 1.01576 0.0
C1031 C 0.17469 0.58477 1.0265 0.0
H1032 H 0.26208 0.69102 1.00878 0.0
H1033 H 0.24002 0.61014 1.00693 0.0
S1034 S 0.0869 0.60318 0.05868 0.0
N1035 N 0.12781 0.65535 0.05034 0.0
N1036 N 0.10438 0.56779 0.04873 0.0
C1037 C 0.14541 0.59814 0.0379 0.0
C1038 C 0.1581 0.64562 0.03867 0.0
C1039 C 0.32762 0.54019 0.05632 0.0
C1040 C 0.31379 0.50705 0.03681 0.0
C1041 C 0.37401 0.57266 0.06007 0.0
C1042 C 0.40838 0.57374 0.0442 0.0
H1043 H 0.30233 0.54157 0.0686 0.0
H1044 H 0.38271 0.59834 0.07486 0.0
S1045 S 0.39083 0.49288 0.99133 0.0
N1046 N 0.3385 0.4756 1.0023 0.0
N1047 N 0.42595 0.53742 1.00915 0.0
C1048 C 0.39539 0.5398 1.02524 0.0
C1049 C 0.34801 0.50623 1.02159 0.0
C1050 C 0.16356 0.51164 0.52025 0.0
C1051 C 0.19361 0.50932 0.53818 0.0
C1052 C 0.15149 0.54602 0.52187 0.0
C1053 C 0.16838 0.57865 0.54175 0.0
H1054 H 0.15077 0.48796 0.50424 0.0
H1055 H 0.12979 0.54775 0.50711 0.0
S1056 S 0.24391 0.58404 0.59514 0.0
N1057 N 0.23711 0.54038 0.57744 0.0
N1058 N 0.21387 0.6042 0.58083 0.0
C1059 C 0.19648 0.57511 0.56053 0.0
C1060 C 0.20928 0.54066 0.55865 0.0
C1061 C 0.48293 0.64438 0.54094 0.0
C1062 C 0.47385 0.67912 0.53296 0.0
C1063 C 0.44817 0.59768 0.54053 0.0
C1064 C 0.4038 0.5845 0.53158 0.0
H1065 H 0.51666 0.6534 0.5481 0.0
H1066 H 0.456 0.5719 0.5473 0.0
S1067 S 0.36364 0.66229 0.507 0.0
N1068 N 0.41787 0.69683 0.51483 0.0
N1069 N 0.3533 0.61001 0.51378 0.0
C1070 C 0.39492 0.61899 0.52289 0.0
C1071 C 0.42979 0.66609 0.52364 0.0
C1072 C 0.37665 0.7935 0.55767 0.0
C1073 C 0.40936 0.8249 0.54026 0.0
C1074 C 0.32994 0.77884 0.55506 0.0
C1075 C 0.31425 0.79573 0.53524 0.0
H1076 H 0.38691 0.77886 0.57303 0.0
H1077 H 0.3059 0.75399 0.56867 0.0
S1078 S 0.38594 0.87947 0.48496 0.0
N1079 N 0.42301 0.8729 0.50263 0.0
N1080 N 0.33495 0.84631 0.49815 0.0
C1081 C 0.34665 0.82827 0.51812 0.0
C1082 C 0.39432 0.84263 0.52052 0.0
C1083 C 0.18049 0.49973 0.36244 0.0
C1084 C 0.18341 0.53787 0.34948 0.0
C1085 C 0.21408 0.4871 0.35893 0.0
C1086 C 0.25098 0.51157 0.3419 0.0
H1087 H 0.15291 0.48041 0.376 0.0
H1088 H 0.21164 0.45864 0.36998 0.0
S1089 S 0.27193 0.61161 0.30171 0.0
N1090 N 0.22469 0.59833 0.31795 0.0
N1091 N 0.28712 0.57412 0.31092 0.0
C1092 C 0.25312 0.5485 0.32801 0.0
C1093 C 0.21951 0.56184 0.33194 0.0
C1094 C 0.43422 0.66682 0.34543 0.0
C1095 C 0.45815 0.65195 0.36106 0.0
C1096 C 0.44689 0.7132 0.34433 0.0
C1097 C 0.48318 0.74621 0.35932 0.0
H1098 H 0.4058 0.64248 0.33368 0.0
H1099 H 0.4273 0.72302 0.33201 0.0
S1100 S 0.55576 0.72453 0.40398 0.0
N1101 N 0.51987 0.6734 0.3918 0.0
N1102 N 0.54251 0.76094 0.39058 0.0
C1103 C 0.50721 0.73182 0.37524 0.0
C1104 C 0.49503 0.68454 0.37586 0.0
C1105 C 0.27842 0.75007 0.33825 0.0
C1106 C 0.24453 0.74986 0.35419 0.0
C1107 C 0.32497 0.78279 0.34135 0.0
C1108 C 0.33944 0.81728 0.36011 0.0
H1109 H 0.2692 0.72366 0.32385 0.0
H1110 H 0.34988 0.78084 0.32899 0.0
S1111 S 0.26412 0.8335 0.40583 0.0
N1112 N 0.22835 0.78772 0.389 0.0
N1113 N 0.31601 0.85051 0.39424 0.0
C1114 C 0.30579 0.81869 0.37554 0.0
C1115 C 0.25828 0.7846 0.37275 0.0
C1116 C 0.30064 0.33058 0.2228 0.0
C1117 C 0.28037 0.35284 0.21003 0.0
C1118 C 0.34696 0.3441 0.21888 0.0
C1119 C 0.37485 0.38104 0.20255 0.0
H1120 H 0.28022 0.30144 0.23525 0.0
H1121 H 0.36115 0.32575 0.22887 0.0
S1122 S 0.33879 0.45138 0.16514 0.0
N1123 N 0.29175 0.4137 0.1805 0.0
N1124 N 0.37944 0.44026 0.1739 0.0
C1125 C 0.35543 0.40441 0.19022 0.0
C1126 C 0.30798 0.39001 0.19377 0.0
C1127 C 0.65647 -0.00108 0.21736 0.0
C1128 C 0.62041 0.99011 0.2006 0.0
C1129 C 0.67053 0.96658 0.22088 0.0
C1130 C 0.64977 0.92485 0.20723 0.0
H1131 H 0.67359 0.0308 0.22808 0.0
H1132 H 0.6988 0.97502 0.23386 0.0
S1133 S 0.55428 0.88608 0.16065 0.0
N1134 N 0.56371 0.93686 0.17043 0.0
N1135 N 0.59154 0.87659 0.17618 0.0
C1136 C 0.61365 0.91566 0.19036 0.0
C1137 C 0.59859 0.94821 0.18726 0.0
C1138 C 0.03667 0.69584 0.21451 0.0
C1139 C 0.07924 0.71832 0.20171 0.0
C1140 C 0.00304 0.65119 0.20778 0.0
C1141 C 0.0112 0.62718 0.1884 0.0
H1142 H 0.02859 0.71335 0.22928 0.0
H1143 H 0.97074 0.63504 0.21819 0.0
S1144 S 0.1175 0.67002 0.14972 0.0
N1145 N 0.12797 0.71332 0.1689 0.0
N1146 N 0.06512 0.62822 0.15698 0.0
C1147 C 0.05398 0.6487 0.17589 0.0
C1148 C 0.08794 0.69463 0.18236 0.0
C1149 C 0.31794 0.29268 0.35519 0.0
C1150 C 0.34632 0.27659 0.3456 0.0
C1151 C 0.33191 0.33936 0.35456 0.0
C1152 C 0.3754 0.37182 0.34507 0.0
H1153 H 0.28443 0.26891 0.36319 0.0
H1154 H 0.30894 0.35011 0.3623 0.0
S1155 S 0.46186 0.34679 0.31679 0.0
N1156 N 0.41857 0.29574 0.32501 0.0
N1157 N 0.44644 0.38459 0.32513 0.0
C1158 C 0.40407 0.35614 0.33513 0.0
C1159 C 0.38906 0.30815 0.33502 0.0
C1160 C 0.65084 0.99649 0.34711 0.0
C1161 C 0.62461 0.00762 0.36343 0.0
C1162 C 0.69643 0.02912 0.34104 0.0
C1163 C 0.71763 0.07366 0.35155 0.0
H1164 H 0.63575 0.96262 0.33854 0.0
H1165 H 0.71553 0.01892 0.32856 0.0
S1166 S 0.66401 0.11938 0.39591 0.0
N1167 N 0.62284 0.06609 0.39001 0.0
N1168 N 0.70925 0.12699 0.37936 0.0
C1169 C 0.69189 0.08509 0.36807 0.0
C1170 C 0.64516 0.05216 0.37382 0.0
C1171 C 0.90972 0.60495 0.34639 0.0
C1172 C 0.91399 0.64213 0.36069 0.0
C1173 C 0.94322 0.5919 0.34806 0.0
C1174 C 0.9826 0.61666 0.36343 0.0
H1175 H 0.88061 0.58615 0.33374 0.0
H1176 H 0.93891 0.56311 0.33662 0.0
S1177 S 0.00969 0.71778 0.40396 0.0
N1178 N 0.95979 0.70363 0.39062 0.0
N1179 N 0.02376 0.68032 0.39306 0.0
C1180 C 0.98716 0.65414 0.3777 0.0
C1181 C 0.95251 0.66658 0.3765 0.0
C1182 C 0.65253 0.60031 0.87694 0.0
C1183 C 0.62736 0.60883 0.85851 0.0
C1184 C 0.69863 0.61322 0.87239 0.0
C1185 C 0.72051 0.63454 0.8492 0.0
H1186 H 0.63711 0.58535 0.89529 0.0
H1187 H 0.71774 0.60829 0.88755 0.0
S1188 S 0.66603 0.65689 0.7934 0.0
N1189 N 0.62517 0.63477 0.81542 0.0
N1190 N 0.71148 0.65846 0.80655 0.0
C1191 C 0.69439 0.64018 0.83002 0.0
C1192 C 0.6478 0.62751 0.83479 0.0
C1193 C 0.38532 0.07919 0.87091 0.0
C1194 C 0.35368 0.07362 0.85166 0.0
C1195 C 0.39797 0.04572 0.87497 0.0
C1196 C 0.37792 0.00489 0.8606 0.0
H1197 H 0.40007 0.10939 0.88306 0.0
H1198 H 0.42286 0.05136 0.88975 0.0
S1199 S 0.29443 0.9741 0.80756 0.0
N1200 N 0.30428 0.02499 0.81732 0.0
N1201 N 0.32598 0.96104 0.82613 0.0
C1202 C 0.3464 -0.00109 0.84133 0.0
C1203 C 0.33483 0.03363 0.83653 0.0
C1204 C 0.96247 0.28957 0.87614 0.0
C1205 C 0.92441 0.27116 0.85955 0.0
C1206 C 0.99576 0.33638 0.87536 0.0
C1207 C 0.99103 0.36661 0.85874 0.0
H1208 H 0.96723 0.26741 0.88936 0.0
H1209 H 0.02495 0.34908 0.88816 0.0
S1210 S 0.8973 0.3352 0.81156 0.0
N1211 N 0.88443 0.28599 0.82554 0.0
N1212 N 0.94516 0.37481 0.82531 0.0
C1213 C 0.95272 0.34864 0.84228 0.0
C1214 C 0.91982 0.30063 0.84238 0.0
C1215 C 0.64458 0.66384 0.71628 0.0
C1216 C 0.61423 0.6366 0.6969 0.0
C1217 C 0.6557 0.70966 0.71966 0.0
C1218 C 0.63778 0.7303 0.70336 0.0
H1219 H 0.65938 0.64945 0.72914 0.0
H1220 H 0.67978 0.72944 0.73468 0.0
S1221 S 0.55646 0.67325 0.64977 0.0
N1222 N 0.56519 0.63266 0.66168 0.0
N1223 N 0.5879 0.71969 0.66723 0.0
C1224 C 0.60717 0.7033 0.68397 0.0
C1225 C 0.5949 0.65618 0.68096 0.0
C1226 C 0.33472 0.00311 0.71331 0.0
C1227 C 0.36454 0.99694 0.69716 0.0
C1228 C 0.28852 0.96899 0.71561 0.0
C1229 C 0.27025 0.92807 0.70127 0.0
H1230 H 0.34741 0.0341 0.7247 0.0
H1231 H 0.26676 0.97532 0.7283 0.0
S1232 S 0.33406 0.89627 0.65555 0.0
N1233 N 0.37313 0.94719 0.66659 0.0
N1234 N 0.28533 0.88367 0.67 0.0
C1235 C 0.2996 0.9217 0.6848 0.0
C1236 C 0.34706 0.95603 0.68297 0.0
C1237 C 0.04928 0.40745 0.69717 0.0
C1238 C 0.00291 0.3794 0.70439 0.0
C1239 C 0.08214 0.39454 0.70267 0.0
C1240 C 0.07008 0.35392 0.71631 0.0
H1241 H 0.06014 0.43927 0.68684 0.0
H1242 H 0.11713 0.4163 0.69599 0.0
S1243 S 0.9537 0.26965 0.7407 0.0
N1244 N 0.94682 0.30949 0.72624 0.0
N1245 N 0.00872 0.28622 0.73748 0.0
C1246 C 0.02406 0.32619 0.72423 0.0
C1247 C 0.99041 0.3386 0.71796 0.0
C1248 C 0.95471 0.6558 0.55076 0.0
C1249 C 0.93613 0.67779 0.53608 0.0
C1250 C 0.00062 0.66722 0.54787 0.0
C1251 C 0.0297 0.70178 0.53069 0.0
H1252 H 0.93341 0.62884 0.56424 0.0
H1253 H 0.0137 0.64968 0.55958 0.0
S1254 S -0.00213 0.76877 0.48732 0.0
N1255 N 0.94999 0.73447 0.50311 0.0
N1256 N 0.03708 0.7574 0.49846 0.0
C1257 C 0.01176 0.72416 0.51596 0.0
C1258 C 0.96471 0.71178 0.51846 0.0
C1259 C 0.27047 0.23952 0.52153 0.0
C1260 C 0.30394 0.2454 0.53962 0.0
C1261 C 0.25882 0.27381 0.51765 0.0
C1262 C 0.28147 0.31575 0.53107 0.0
H1263 H 0.25356 0.20845 0.51011 0.0
H1264 H 0.23263 0.26787 0.50366 0.0
S1265 S 0.37128 0.34815 0.58067 0.0
N1266 N 0.35877 0.29608 0.57155 0.0
N1267 N 0.33786 0.36082 0.56355 0.0
C1268 C 0.31478 0.32197 0.54926 0.0
C1269 C 0.32573 0.28667 0.55374 0.0
C1270 C 0.71713 0.98042 0.53114 0.0
C1271 C 0.67003 0.96339 0.53601 0.0
C1272 C 0.74973 0.02713 0.53462 0.0
C1273 C 0.73648 0.05793 0.54394 0.0
H1274 H 0.72887 0.95763 0.52429 0.0
H1275 H 0.78548 0.03917 0.53014 0.0
S1276 S 0.61777 0.03134 0.55928 0.0
N1277 N 0.61195 0.98177 0.54997 0.0
N1278 N 0.67333 0.06882 0.55743 0.0
C1279 C 0.68968 0.04143 0.549 0.0
C1280 C 0.65639 0.99435 0.54474 0.0
C1281 C 0.06408 0.68753 0.70017 0.0
C1282 C 0.03724 0.70521 0.69008 0.0
C1283 C 0.05017 0.6407 0.69781 0.0
C1284 C 0.00983 0.61046 0.68453 0.0
H1285 H 0.09566 0.70992 0.71032 0.0
H1286 H 0.07111 0.62811 0.70637 0.0
S1287 S 0.92791 0.63995 0.65427 0.0
N1288 N 0.96847 0.68892 0.66647 0.0
N1289 N 0.94307 0.60147 0.66123 0.0
C1290 C 0.98306 0.62793 0.67406 0.0
C1291 C -0.00344 0.67519 0.67707 0.0
C1292 C 0.31397 0.38693 0.70652 0.0
C1293 C 0.29327 0.34356 0.69457 0.0
C1294 C 0.36037 0.41959 0.70214 0.0
C1295 C 0.38729 0.41042 0.68518 0.0
H1296 H 0.29443 0.39539 0.71973 0.0
H1297 H 0.37539 0.452 0.71235 0.0
S1298 S 0.34846 0.30315 0.64778 0.0
N1299 N 0.30267 0.29391 0.66428 0.0
N1300 N 0.38942 0.35543 0.65566 0.0
C1301 C 0.36657 0.36773 0.67249 0.0
C1302 C 0.31967 0.33422 0.67732 0.0
C1303 C 0.66264 0.00052 0.67949 0.0
C1304 C 0.65152 0.9591 0.69192 0.0
C1305 C 0.63046 0.01504 0.67728 0.0
C1306 C 0.58638 0.98953 0.6882 0.0
H1307 H 0.69645 0.0219 0.6712 0.0
H1308 H 0.64086 0.04736 0.66759 0.0
S1309 S 0.5404 0.8795 0.72364 0.0
N1310 N 0.59308 0.8926 0.7154 0.0
N1311 N 0.53319 0.92133 0.71222 0.0
C1312 C 0.57473 0.94828 0.70091 0.0
C1313 C 0.60717 0.93271 0.70255 0.0
C1314 C 0.31026 0.92705 0.18459 0.0
C1315 C 0.29509 0.95264 0.19876 0.0
C1316 C 0.35714 0.94121 0.18281 0.0
C1317 C 0.38994 0.98047 0.19584 0.0
H1318 H 0.28579 0.89637 0.17437 0.0
H1319 H 0.36774 0.92127 0.17133 0.0
S1320 S 0.3684 0.05967 0.23508 0.0
N1321 N 0.31682 0.01983 0.22533 0.0
N1322 N 0.40485 0.04529 0.22293 0.0
C1323 C 0.37535 0.00622 0.21015 0.0
C1324 C 0.32784 0.99259 0.21136 0.0
C1325 C 0.00168 0.36486 0.16863 0.0
C1326 C 0.02348 0.40855 0.18019 0.0
C1327 C 0.01419 0.33202 0.17482 0.0
C1328 C 0.04958 0.34187 0.19243 0.0
H1329 H 0.97374 0.35536 0.15524 0.0
H1330 H -0.00362 0.29884 0.1654 0.0
S1331 S 0.11844 0.45168 0.22744 0.0
N1332 N 0.0824 0.46014 0.20996 0.0
N1333 N 0.10706 0.39887 0.22091 0.0
C1334 C 0.07245 0.3858 0.20368 0.0
C1335 C 0.05909 0.41901 0.19774 0.0
C1336 C 0.63763 0.6311 0.17884 0.0
C1337 C 0.59407 0.61068 0.19055 0.0
C1338 C 0.67034 0.67716 0.18329 0.0
C1339 C 0.66013 0.70486 0.1989 0.0
H1340 H 0.64711 0.61104 0.16668 0.0
H1341 H 0.70357 0.69144 0.17396 0.0
S1342 S 0.55148 0.66787 0.23439 0.0
N1343 N 0.54289 0.6211 0.21915 0.0
N1344 N 0.60385 0.70885 0.22641 0.0
C1345 C 0.61661 0.68515 0.21055 0.0
C1346 C 0.58367 0.63772 0.20664 0.0
C1347 C 0.324 0.99285 0.05414 0.0
C1348 C 0.28419 0.96275 0.04038 0.0
C1349 C 0.33686 0.03906 0.05748 0.0
C1350 C 0.31132 0.05731 0.04642 0.0
H1351 H 0.34514 0.98055 0.06276 0.0
H1352 H 0.36797 0.06096 0.06815 0.0
S1353 S 0.20631 0.99422 1.00695 0.0
N1354 N 0.21995 0.95498 1.01493 0.0
N1355 N 0.24561 0.04263 1.02035 0.0
C1356 C 0.27202 0.02805 0.03217 0.0
C1357 C 0.25814 0.98058 1.02931 0.0
C1358 C 0.00445 0.32686 0.04651 0.0
C1359 C 0.03075 0.31948 1.02825 0.0
C1360 C 0.95872 0.29314 0.05144 0.0
C1361 C 0.93746 0.25125 0.0379 0.0
H1362 H 0.01957 0.35854 0.05743 0.0
H1363 H 0.93958 0.30049 0.06553 0.0
S1364 S 0.99143 0.21594 0.9876 0.0
N1365 N 0.03261 0.26748 0.99654 0.0
N1366 N 0.94605 0.20459 1.00522 0.0
C1367 C 0.96335 0.24362 1.01946 0.0
C1368 C 0.01019 0.27762 1.01478 0.0
C1369 C 0.70222 0.66396 1.0129 0.0
C1370 C 0.73853 0.68141 0.0307 0.0
C1371 C 0.66796 0.67615 1.01412 0.0
C1372 C 0.66988 0.70739 0.03263 0.0
H1373 H 0.69939 0.63949 0.99847 0.0
H1374 H 0.64013 0.66146 1.00035 0.0
S1375 S 0.75924 0.76446 0.08272 0.0
N1376 N 0.77457 0.73142 0.06718 0.0
N1377 N 0.71205 0.75684 0.06849 0.0
C1378 C 0.70688 0.72618 0.04999 0.0
C1379 C 0.74075 0.7125 0.0493 0.0
C1380 C 0.6856 0.05603 0.88478 0.0
C1381 C 0.70454 0.03998 0.86616 0.0
C1382 C 0.63823 0.04059 0.88528 0.0
C1383 C 0.6086 0.00961 0.86673 0.0
H1384 H 0.70737 0.07988 0.89938 0.0
H1385 H 0.62472 0.05254 0.90041 0.0
S1386 S 0.6431 0.96323 0.81163 0.0
N1387 N 0.69123 0.99478 0.82764 0.0
N1388 N 0.6028 0.96703 0.82772 0.0
C1389 C 0.62779 0.99523 0.84726 0.0
C1390 C 0.67565 0.01008 0.84719 0.0
C1391 C 0.92919 0.61127 0.84561 0.0
C1392 C 0.9542 0.65541 0.85649 0.0
C1393 C 0.94174 0.57788 0.85021 0.0
C1394 C 0.97843 0.58714 0.86665 0.0
H1395 H 0.89999 0.60267 0.83335 0.0
H1396 H 0.92253 0.54464 0.84098 0.0
S1397 S 0.05405 0.69736 0.90015 0.0
N1398 N 0.0175 0.70687 0.88398 0.0
N1399 N 0.03967 0.64367 0.89378 0.0
C1400 C 0.00328 0.63105 0.87786 0.0
C1401 C 0.99154 0.66537 0.87245 0.0
C1402 C 0.33478 0.32523 0.85029 0.0
C1403 C 0.34212 0.29368 0.864 0.0
C1404 C 0.36587 0.37241 0.85199 0.0
C1405 C 0.40486 0.38987 0.86795 0.0
H1406 H 0.30492 0.31333 0.83804 0.0
H1407 H 0.35859 0.39543 0.84104 0.0
S1408 S 0.43854 0.32105 0.90845 0.0
N1409 N 0.39086 0.28245 0.89408 0.0
N1410 N 0.44878 0.37177 0.89793 0.0
C1411 C 0.41258 0.35864 0.88184 0.0
C1412 C 0.38129 0.31031 0.87969 0.0
C1413 C 0.65132 0.95503 1.01422 0.0
C1414 C 0.67413 0.93521 1.0269 0.0
C1415 C 0.6657 0.00181 1.01697 0.0
C1416 C 0.70398 0.03065 0.03208 0.0
H1417 H 0.62143 0.93407 1.00246 0.0
H1418 H 0.64716 0.01563 1.00684 0.0
S1419 S 0.77566 0.99597 0.06927 0.0
N1420 N 0.73657 0.94797 0.05537 0.0
N1421 N 0.76458 0.0364 0.05991 0.0
C1422 C 0.72753 0.01153 0.04461 0.0
C1423 C 0.71233 0.96364 0.04219 0.0
C1424 C 0.99114 0.67312 0.04182 0.0
C1425 C 0.9608 0.67595 1.02449 0.0
C1426 C 0.03753 0.7077 0.04281 0.0
C1427 C 0.05569 0.74574 1.02598 0.0
H1428 H 0.97885 0.64436 0.055 0.0
H1429 H 0.0596 0.70387 0.0565 0.0
S1430 S 0.99083 0.76876 0.97657 0.0
N1431 N 0.95196 0.72029 0.9903 0.0
N1432 N 0.03993 0.78379 0.99122 0.0
C1433 C 0.02594 0.74874 1.00833 0.0
C1434 C 0.97828 0.71424 1.00785 0.0
C1435 C 0.29276 0.32876 1.00316 0.0
C1436 C 0.25024 0.30669 1.0161 0.0
C1437 C 0.32706 0.31811 1.00871 0.0
C1438 C 0.3196 0.28443 1.02702 0.0
H1439 H 0.3002 0.35544 0.98914 0.0
H1440 H 0.35927 0.33572 0.99826 0.0
S1441 S 0.2143 0.21635 0.06599 0.0
N1442 N 0.2027 0.24985 0.0481 0.0
N1443 N 0.26682 0.22869 0.05792 0.0
C1444 C 0.27706 0.26153 0.03978 0.0
C1445 C 0.24242 0.27295 0.03447 0.0
C1446 C 0.02546 0.27613 0.53308 0.0
C1447 C 0.05227 0.31018 0.51493 0.0
C1448 C 0.97952 0.26381 0.53768 0.0
C1449 C 0.95946 0.28616 0.52484 0.0
H1450 H 0.04021 0.25928 0.54401 0.0
H1451 H 0.95984 0.23727 0.55172 0.0
S1452 S 0.01411 0.37611 0.47474 0.0
N1453 N 0.05455 0.36457 0.48323 0.0
N1454 N 0.96885 0.34231 0.49252 0.0
C1455 C 0.98564 0.31983 0.50648 0.0
C1456 C 0.03192 0.33157 0.50133 0.0
C1457 C 0.71569 0.74664 0.5345 0.0
C1458 C 0.67696 0.73778 0.51995 0.0
C1459 C 0.72933 0.7135 0.53676 0.0
C1460 C 0.70371 0.66986 0.52531 0.0
H1461 H 0.73553 0.77932 0.5442 0.0
H1462 H 0.75966 0.72179 0.54793 0.0
S1463 S 0.59956 0.62946 0.48523 0.0
N1464 N 0.6137 0.68239 0.49347 0.0
N1465 N 0.63824 0.61974 0.49875 0.0
C1466 C 0.66484 0.66051 0.51086 0.0
C1467 C 0.65177 0.69461 0.50789 0.0
C1468 C 0.28901 0.94715 0.53163 0.0
C1469 C 0.2453 0.9324 0.5213 0.0
C1470 C 0.32208 0.99396 0.53262 0.0
C1471 C 0.31221 0.02753 0.52366 0.0
H1472 H 0.2979 0.92223 0.53865 0.0
H1473 H 0.3555 0.00385 0.54058 0.0
S1474 S 0.20244 0.00548 0.49423 0.0
N1475 N 0.19371 0.95376 0.50132 0.0
N1476 N 0.25523 0.04223 0.50385 0.0
C1477 C 0.26817 0.01292 0.5135 0.0
C1478 C 0.23481 0.96511 0.51211 0.0
C1479 C -0.00094 0.36814 0.37921 0.0
C1480 C 0.97748 0.3892 0.36658 0.0
C1481 C 0.98584 0.32218 0.37457 0.0
C1482 C 0.94995 0.29536 0.35753 0.0
H1483 H 0.02721 0.38757 0.39235 0.0
H1484 H 0.00336 0.30734 0.38478 0.0
S1485 S 0.88164 0.33374 0.32008 0.0
N1486 N 0.91844 0.37984 0.33634 0.0
N1487 N 0.89237 0.29255 0.32831 0.0
C1488 C 0.92737 0.31558 0.34516 0.0
C1489 C 0.94148 0.36278 0.3495 0.0
C1490 C 0.6791 0.61653 0.34954 0.0
C1491 C 0.69754 0.65663 0.36462 0.0
C1492 C 0.63246 0.58235 0.35151 0.0
C1493 C 0.60335 0.58619 0.36947 0.0
H1494 H 0.70072 0.61196 0.33583 0.0
H1495 H 0.61912 0.55279 0.33892 0.0
S1496 S 0.63606 0.68375 0.41429 0.0
N1497 N 0.6834 0.69844 0.39781 0.0
N1498 N 0.59702 0.633 0.40313 0.0
C1499 C 0.62193 0.62569 0.38513 0.0
C1500 C 0.66872 0.66126 0.38227 0.0
C1501 C 0.37714 0.06358 0.35131 0.0
C1502 C 0.33748 0.04633 0.36668 0.0
C1503 C 0.41034 0.05067 0.35577 0.0
C1504 C 0.40549 0.02109 0.37616 0.0
H1505 H 0.38197 0.08627 0.33537 0.0
H1506 H 0.4395 0.06325 0.34288 0.0
S1507 S 0.30991 0.97055 0.42353 0.0
N1508 N 0.2965 0.00063 0.40394 0.0
N1509 N 0.35913 0.97722 0.4128 0.0
C1510 C 0.36683 0.00523 0.3923 0.0
C1511 C 0.3327 0.0176 0.38742 0.0
C1512 C 0.13499 0.32542 0.08604 0.0
C1513 C 0.15848 0.37281 0.09153 0.0
C1514 C 0.11849 0.2924 0.10585 0.0
C1515 C 0.12628 0.30543 0.13183 0.0
H1516 H 0.12637 0.31359 0.06652 0.0
H1517 H 0.09755 0.25639 0.10082 0.0
S1518 S 0.19127 0.42559 0.15594 0.0
N1519 N 0.19187 0.43119 0.1245 0.0
N1520 N 0.16296 0.36967 0.16146 0.0
C1521 C 0.15286 0.35275 0.13733 0.0
C1522 C 0.16849 0.38628 0.11723 0.0
C1523 C 0.64066 0.73737 0.11324 0.0
C1524 C 0.62511 0.7641 0.10082 0.0
C1525 C 0.67629 0.75649 0.13093 0.0
C1526 C 0.69777 0.80318 0.13765 0.0
H1527 H 0.62621 0.70122 0.10874 0.0
H1528 H 0.68767 0.73425 0.13903 0.0
S1529 S 0.66755 0.88792 0.11261 0.0
N1530 N 0.63205 0.8396 0.09753 0.0
N1531 N 0.69943 0.87578 0.1316 0.0
C1532 C 0.68158 0.8304 0.12634 0.0
C1533 C 0.64521 0.81082 0.1077 0.0
C1534 C 0.14315 0.83413 0.12062 0.0
C1535 C 0.16672 0.87893 0.13094 0.0
C1536 C 0.16494 0.81912 0.10299 0.0
C1537 C 0.21117 0.84823 0.09572 0.0
H1538 H 0.10844 0.81013 0.12691 0.0
H1539 H 0.14643 0.78394 0.09622 0.0
S1540 S 0.28748 0.96835 0.11836 0.0
N1541 N 0.23781 0.95191 0.13261 0.0
N1542 N 0.2793 0.92407 0.10079 0.0
C1543 C 0.23444 0.89326 0.10592 0.0
C1544 C 0.21209 0.90851 0.12318 0.0
C1545 C 0.32287 0.1364 0.46994 0.0
C1546 C 0.36926 0.16145 0.4626 0.0
C1547 C 0.28749 0.1184 0.45166 0.0
C1548 C 0.29695 0.12611 0.42528 0.0
H1549 H 0.31367 0.12781 0.48969 0.0
H1550 H 0.25246 0.09652 0.45823 0.0
S1551 S 0.4128 0.19892 0.39661 0.0
N1552 N 0.42283 0.19809 0.42752 0.0
N1553 N 0.3564 0.16823 0.39333 0.0
C1554 C 0.34302 0.15573 0.41793 0.0
C1555 C 0.37918 0.17234 0.43654 0.0
C1556 C 0.88346 0.17529 0.44853 0.0
C1557 C 0.87635 0.18321 0.42286 0.0
C1558 C 0.86644 0.18967 0.4691 0.0
C1559 C 0.84253 0.21344 0.46475 0.0
H1560 H 0.90431 0.15986 0.45277 0.0
H1561 H 0.87499 0.18496 0.48841 0.0
S1562 S 0.8132 0.24168 0.4015 0.0
N1563 N 0.84146 0.21463 0.39465 0.0
N1564 N 0.81094 0.24256 0.43308 0.0
C1565 C 0.83351 0.21981 0.43931 0.0
C1566 C 0.85006 0.20451 0.41841 0.0
C1567 C 0.75874 0.68145 0.43853 0.0
C1568 C 0.80313 0.69956 0.42825 0.0
C1569 C 0.74111 0.64559 0.45618 0.0
C1570 C 0.76736 0.62662 0.46512 0.0
H1571 H 0.7368 0.69477 0.43275 0.0
H1572 H 0.70624 0.63267 0.46289 0.0
S1573 S 0.88766 0.66433 0.44649 0.0
N1574 N 0.87465 0.69791 0.42957 0.0
N1575 N 0.84129 0.62999 0.46351 0.0
C1576 C 0.81266 0.64525 0.45593 0.0
C1577 C 0.8306 0.6818 0.43729 0.0
C1578 C 0.91916 0.67563 0.92939 0.0
C1579 C 0.89264 0.69367 0.91953 0.0
C1580 C 0.90241 0.64217 0.94849 0.0
C1581 C 0.8584 0.62532 0.95913 0.0
H1582 H 0.95373 0.6877 0.92246 0.0
H1583 H 0.92497 0.63013 0.95533 0.0
S1584 S 0.77373 0.65946 0.93943 0.0
N1585 N 0.81921 0.69134 0.92122 0.0
N1586 N 0.78726 0.62756 0.95755 0.0
C1587 C 0.83077 0.64229 0.94931 0.0
C1588 C 0.84795 0.6766 0.92938 0.0
C1589 C 0.30315 0.21392 0.93683 0.0
C1590 C 0.28647 0.16763 0.93041 0.0
C1591 C 0.33745 0.23611 0.95535 0.0
C1592 C 0.3567 0.21307 0.9684 0.0
H1593 H 0.29034 0.2336 0.92693 0.0
H1594 H 0.34944 0.27208 0.95916 0.0
S1595 S 0.32417 0.09097 0.95901 0.0
N1596 N 0.29098 0.09888 0.93872 0.0
N1597 N 0.35562 0.14064 0.97385 0.0
C1598 C 0.33958 0.1663 0.96265 0.0
C1599 C 0.30452 0.14361 0.94352 0.0
C1600 C 0.7615 0.07344 0.94092 0.0
C1601 C 0.80634 0.10041 0.9312 0.0
C1602 C 0.74358 0.0904 0.95919 0.0
C1603 C 0.76964 0.13513 0.96906 0.0
H1604 H 0.73938 0.03863 0.93412 0.0
H1605 H 0.70859 0.0678 0.96564 0.0
S1606 S 0.88996 0.21983 0.95111 0.0
N1607 N 0.87751 0.17403 0.93356 0.0
N1608 N 0.84331 0.20642 0.96813 0.0
C1609 C 0.81498 0.1627 0.95999 0.0
C1610 C 0.8334 0.14528 0.94097 0.0
C1611 C 0.64975 0.83417 0.60517 0.0
C1612 C 0.63096 0.86074 0.59592 0.0
C1613 C 0.68643 0.85258 0.62317 0.0
C1614 C 0.70595 0.89838 0.63194 0.0
H1615 H 0.63567 0.79896 0.59881 0.0
H1616 H 0.70014 0.83132 0.62979 0.0
S1617 S 0.66934 0.9821 0.6133 0.0
N1618 N 0.63485 0.93497 0.59733 0.0
N1619 N 0.7032 0.9693 0.62974 0.0
C1620 C 0.6873 0.92487 0.62259 0.0
C1621 C 0.65005 0.90617 0.60496 0.0
C1622 C 0.08802 0.74283 0.60152 0.0
C1623 C 0.13363 0.76777 0.59267 0.0
C1624 C 0.07047 0.76175 0.61884 0.0
C1625 C 0.09776 0.80643 0.62864 0.0
H1626 H 0.06522 0.70802 0.59497 0.0
H1627 H 0.03495 0.74056 0.62478 0.0
S1628 S 0.22002 0.88654 0.61204 0.0
N1629 N 0.20634 0.83984 0.59506 0.0
N1630 N 0.17318 0.87564 0.62815 0.0
C1631 C 0.14371 0.83211 0.62015 0.0
C1632 C 0.16163 0.81279 0.602 0.0
C1633 C 0.1833 0.3219 0.58772 0.0
C1634 C 0.20769 0.36901 0.5937 0.0
C1635 C 0.16545 0.2883 0.6072 0.0
C1636 C 0.17 0.3004 0.63337 0.0
H1637 H 0.1805 0.31069 0.56807 0.0
H1638 H 0.14952 0.25242 0.60173 0.0
S1639 S 0.22557 0.41969 0.65861 0.0
N1640 N 0.23226 0.42633 0.62726 0.0
N1641 N 0.19684 0.36358 0.66357 0.0
C1642 C 0.1911 0.3475 0.63931 0.0
C1643 C 0.21043 0.38167 0.61954 0.0
C1644 C 0.98564 0.41898 0.76683 0.0
C1645 C 0.96481 0.44464 0.75983 0.0
C1646 C 0.02164 0.43561 0.7843 0.0
C1647 C 0.03798 0.47834 0.79634 0.0
H1648 H 0.97341 0.3849 0.75915 0.0
H1649 H 0.03561 0.41364 0.78904 0.0
S1650 S -0.00272 0.5608 0.7839 0.0
N1651 N 0.96461 0.51638 0.76528 0.0
N1652 N 0.03247 0.54774 0.79903 0.0
C1653 C 0.01846 0.50533 0.78924 0.0
C1654 C 0.98187 0.48849 0.77075 0.0
C1655 C 0.53302 0.55822 0.75576 0.0
C1656 C 0.54099 0.52148 0.7596 0.0
C1657 C 0.51594 0.57371 0.7755 0.0
C1658 C 0.5066 0.55355 0.80005 0.0
H1659 H 0.5429 0.57742 0.73804 0.0
H1660 H 0.51297 0.60391 0.77195 0.0
S1661 S 0.52031 0.45485 0.81955 0.0
N1662 N 0.53653 0.46376 0.78919 0.0
N1663 N 0.50499 0.49324 0.82653 0.0
C1664 C 0.51203 0.51505 0.80371 0.0
C1665 C 0.52934 0.49911 0.78345 0.0
C1666 C 0.42029 0.00329 0.76577 0.0
C1667 C 0.46735 0.03311 0.76166 0.0
C1668 C 0.40459 0.96773 0.78367 0.0
C1669 C 0.43508 0.96103 0.79915 0.0
H1670 H 0.39507 0.00784 0.75529 0.0
H1671 H 0.36774 0.94598 0.78573 0.0
S1672 S 0.56243 0.02833 0.79447 0.0
N1673 N 0.54497 0.05248 0.77304 0.0
N1674 N 0.51532 0.98575 0.80746 0.0
C1675 C 0.48253 0.98964 0.79457 0.0
C1676 C 0.49868 0.02568 0.77568 0.0
C1677 C 0.58469 0.01468 0.27325 0.0
C1678 C 0.56008 0.03495 0.2636 0.0
C1679 C 0.56665 0.98129 0.29242 0.0
C1680 C 0.52309 0.9665 0.3033 0.0
H1681 H 0.61854 0.02452 0.26585 0.0
H1682 H 0.58756 0.96701 0.29879 0.0
S1683 S 0.44464 0.00968 0.28559 0.0
N1684 N 0.48987 0.0388 0.26673 0.0
N1685 N 0.45555 0.97528 0.30319 0.0
C1686 C 0.49784 0.98666 0.29416 0.0
C1687 C 0.51635 0.02092 0.27416 0.0
C1688 C 0.98712 0.52336 0.29811 0.0
C1689 C 0.0345 0.55369 0.29465 0.0
C1690 C 0.9572 0.506 0.27697 0.0
C1691 C 0.97375 0.51727 0.25164 0.0
H1692 H 0.97254 0.5155 0.3172 0.0
H1693 H 0.92051 0.4858 0.2805 0.0
S1694 S 0.09597 0.59134 0.23257 0.0
N1695 N 0.09709 0.59177 0.26421 0.0
N1696 N 0.04153 0.55769 0.22463 0.0
C1697 C 0.02155 0.54484 0.24806 0.0
C1698 C 0.05177 0.56339 0.26955 0.0
C1699 C 0.4383 0.42433 0.26943 0.0
C1700 C 0.48361 0.44836 0.26023 0.0
C1701 C 0.42096 0.44518 0.28535 0.0
C1702 C 0.44815 0.49106 0.29352 0.0
H1703 H 0.4153 0.38885 0.26403 0.0
H1704 H 0.3853 0.42465 0.29119 0.0
S1705 S 0.56992 0.56949 0.2755 0.0
N1706 N 0.55628 0.5208 0.26061 0.0
N1707 N 0.52332 0.56032 0.29128 0.0
C1708 C 0.49403 0.51576 0.28495 0.0
C1709 C 0.5118 0.49439 0.2681 0.0
C1710 C 0.97966 0.1604 0.28654 0.0
C1711 C 0.95982 0.18659 0.29457 0.0
C1712 C 0.01569 0.17788 0.26839 0.0
C1713 C 0.03415 0.22273 0.2585 0.0
H1714 H 0.96672 0.12594 0.29399 0.0
H1715 H 0.02993 0.15664 0.26256 0.0
S1716 S 0.99531 0.30558 0.27401 0.0
N1717 N 0.96114 0.25933 0.29108 0.0
N1718 N 0.03039 0.29306 0.25839 0.0
C1719 C 0.0151 0.2494 0.26676 0.0
C1720 C 0.97752 0.23109 0.28444 0.0
C1721 C 0.83509 0.81596 0.2907 0.0
C1722 C 0.80702 0.77071 0.29979 0.0
C1723 C 0.81885 0.83514 0.27234 0.0
C1724 C 0.77339 0.8104 0.26323 0.0
H1725 H 0.87007 0.83643 0.29756 0.0
H1726 H 0.84169 0.8699 0.26564 0.0
S1727 S 0.68577 0.69111 0.28145 0.0
N1728 N 0.73183 0.70159 0.29806 0.0
N1729 N 0.7005 0.73844 0.26486 0.0
C1730 C 0.74483 0.76541 0.27248 0.0
C1731 C 0.76186 0.74535 0.29042 0.0
C1732 C 0.17088 0.01272 0.28708 0.0
C1733 C 0.2137 0.02848 0.29902 0.0
C1734 C 0.15419 0.97675 0.26899 0.0
C1735 C 0.1792 0.95464 0.26299 0.0
H1736 H 0.15104 0.02935 0.29103 0.0
H1737 H 0.1215 0.96603 0.25977 0.0
S1738 S 0.29229 0.98226 0.28999 0.0
N1739 N 0.2805 0.01942 0.3037 0.0
N1740 N 0.24824 0.95047 0.27105 0.0
C1741 C 0.22139 0.9694 0.27544 0.0
C1742 C 0.23889 0.00673 0.29312 0.0
C1743 C 0.97815 0.81678 0.78402 0.0
C1744 C 0.95842 0.77049 0.79171 0.0
C1745 C 0.01396 0.83597 0.7658 0.0
C1746 C 0.03237 0.80999 0.75542 0.0
H1747 H 0.96532 0.83809 0.79181 0.0
H1748 H 0.02786 0.87157 0.76014 0.0
S1749 S 0.9935 0.6876 0.76971 0.0
N1750 N 0.95966 0.69913 0.78733 0.0
N1751 N 0.02847 0.73581 0.75437 0.0
C1752 C 0.01343 0.76395 0.7633 0.0
C1753 C 0.97602 0.74401 0.78111 0.0
C1754 C 0.23166 0.24504 0.76973 0.0
C1755 C 0.1849 0.22172 0.76294 0.0
C1756 C 0.24936 0.22565 0.78698 0.0
C1757 C 0.22071 0.1829 0.79889 0.0
H1758 H 0.25489 0.27844 0.76144 0.0
H1759 H 0.28575 0.24478 0.79137 0.0
S1760 S 0.09515 0.10904 0.78865 0.0
N1761 N 0.11006 0.1538 0.76966 0.0
N1762 N 0.14283 0.11831 0.80304 0.0
C1763 C 0.17365 0.15959 0.79265 0.0
C1764 C 0.15589 0.17873 0.77442 0.0
C1765 C 0.77948 0.0283 0.78436 0.0
C1766 C 0.81399 0.03318 0.80146 0.0
C1767 C 0.76225 0.99414 0.76531 0.0
C1768 C 0.77812 0.96271 0.76275 0.0
H1769 H 0.76555 0.05114 0.78563 0.0
H1770 H 0.73598 0.9922 0.75251 0.0
S1771 S 0.87113 0.96297 0.80088 0.0
N1772 N 0.86611 0.00564 0.81307 0.0
N1773 N 0.832 0.94008 0.77804 0.0
C1774 C 0.81272 0.96713 0.77956 0.0
C1775 C 0.8311 0.0027 0.79868 0.0
C1776 C 0.61924 0.52208 0.60637 0.0
C1777 C 0.63089 0.53106 0.63246 0.0
C1778 C 0.65335 0.5372 0.58724 0.0
C1779 C 0.70034 0.56295 0.59346 0.0
H1780 H 0.58344 0.50299 0.60069 0.0
H1781 H 0.64271 0.52988 0.56745 0.0
S1782 S 0.74928 0.59793 0.6586 0.0
N1783 N 0.69311 0.56831 0.66325 0.0
N1784 N 0.75681 0.59772 0.62733 0.0
C1785 C 0.71244 0.5728 0.61935 0.0
C1786 C 0.67783 0.55651 0.63886 0.0
C1787 C 0.48047 0.15829 0.63513 0.0
C1788 C 0.47895 0.11573 0.63312 0.0
C1789 C 0.46364 0.17452 0.61535 0.0
C1790 C 0.4462 0.14955 0.59247 0.0
H1791 H 0.49434 0.17899 0.6521 0.0
H1792 H 0.46433 0.20685 0.61801 0.0
S1793 S 0.44094 0.03929 0.57617 0.0
N1794 N 0.46196 0.05092 0.60548 0.0
N1795 N 0.43248 0.08199 0.56825 0.0
C1796 C 0.44704 0.10825 0.58972 0.0
C1797 C 0.463 0.09132 0.61001 0.0
C1798 C 0.84706 0.35359 0.62266 0.0
C1799 C 0.89146 0.37109 0.63302 0.0
C1800 C 0.83037 0.31947 0.60338 0.0
C1801 C 0.85682 0.30042 0.59448 0.0
H1802 H 0.82541 0.36694 0.62917 0.0
H1803 H 0.79616 0.30719 0.59581 0.0
S1804 S 0.97478 0.33371 0.61572 0.0
N1805 N 0.96155 0.36702 0.63262 0.0
N1806 N 0.92947 0.30163 0.59764 0.0
C1807 C 0.90094 0.31727 0.60495 0.0
C1808 C 0.91843 0.3529 0.62388 0.0
C1809 C 0.677 0.09292 0.10468 0.0
C1810 C 0.69859 0.1392 0.09675 0.0
C1811 C 0.64091 0.07525 0.12274 0.0
C1812 C 0.62622 0.10363 0.13418 0.0
H1813 H 0.68761 0.07002 0.09656 0.0
H1814 H 0.62499 0.0393 0.12813 0.0
S1815 S 0.67296 0.22776 0.12072 0.0
N1816 N 0.70283 0.21305 0.10173 0.0
N1817 N 0.63678 0.1806 0.13654 0.0
C1818 C 0.64812 0.15016 0.12671 0.0
C1819 C 0.68382 0.16775 0.10775 0.0
C1820 C 0.91519 0.5664 0.11631 0.0
C1821 C 0.89029 0.52004 0.12418 0.0
C1822 C 0.89605 0.58484 0.09929 0.0
C1823 C 0.85196 0.55717 0.08876 0.0
H1824 H 0.94955 0.58873 0.12363 0.0
H1825 H 0.91637 0.62076 0.09388 0.0
S1826 S 0.77361 0.43313 0.10234 0.0
N1827 N 0.81938 0.44693 0.12011 0.0
N1828 N 0.78439 0.48072 0.08715 0.0
C1829 C 0.82707 0.51059 0.0962 0.0
C1830 C 0.84596 0.49225 0.11416 0.0
C1831 C 0.50172 0.35207 0.12344 0.0
C1832 C 0.47604 0.37123 0.13336 0.0
C1833 C 0.48357 0.31795 0.10423 0.0
C1834 C 0.43849 0.3006 0.095 0.0
H1835 H 0.53635 0.36411 0.13025 0.0
H1836 H 0.50454 0.30431 0.09699 0.0
S1837 S 0.35686 0.33854 0.1151 0.0
N1838 N 0.40349 0.37057 0.13225 0.0
N1839 N 0.36866 0.30502 0.09738 0.0
C1840 C 0.41237 0.31906 0.10505 0.0
C1841 C 0.43132 0.35474 0.1239 0.0
C1842 C 0.33531 0.83928 0.93066 0.0
C1843 C 0.36835 0.88677 0.93072 0.0
C1844 C 0.29947 0.81958 0.94907 0.0
C1845 C 0.29581 0.8464 0.96864 0.0
H1846 H 0.33742 0.81696 0.91644 0.0
H1847 H 0.27518 0.78296 0.94833 0.0
S1848 S 0.37206 0.97267 0.97681 0.0
N1849 N 0.39355 0.96009 0.95168 0.0
N1850 N 0.32755 0.92347 0.98617 0.0
C1851 C 0.32849 0.8939 0.96877 0.0
C1852 C 0.3644 0.91393 0.94992 0.0
C1853 C 0.16153 0.47796 0.95129 0.0
C1854 C 0.13411 0.43367 0.96166 0.0
C1855 C 0.14355 0.49584 0.93322 0.0
C1856 C 0.0971 0.47073 0.9257 0.0
H1857 H 0.19743 0.49834 0.95661 0.0
H1858 H 0.16607 0.52966 0.9252 0.0
S1859 S 0.01044 0.35422 0.94864 0.0
N1860 N 0.05834 0.36538 0.96344 0.0
N1861 N 0.02372 0.40008 0.93094 0.0
C1862 C 0.06904 0.42704 0.93664 0.0
C1863 C 0.08778 0.4082 0.95425 0.0
C1864 C 0.55731 0.65699 0.93561 0.0
C1865 C 0.50991 0.62476 0.93434 0.0
C1866 C 0.57522 0.69209 0.95407 0.0
C1867 C 0.54641 0.69699 0.97178 0.0
H1868 H 0.58095 0.65495 0.92226 0.0
H1869 H 0.61203 0.71558 0.95444 0.0
S1870 S 0.41906 0.62484 0.97452 0.0
N1871 N 0.43416 0.60139 0.95143 0.0
N1872 N 0.46738 0.66867 0.98541 0.0
C1873 C 0.49871 0.66568 0.9703 0.0
C1874 C 0.48057 0.62922 0.95178 0.0
C1875 C 0.33786 0.47541 0.46548 0.0
C1876 C 0.29436 0.43683 0.46059 0.0
C1877 C 0.37136 0.49633 0.44598 0.0
C1878 C 0.36271 0.47932 0.42069 0.0
H1879 H 0.34671 0.48903 0.48464 0.0
H1880 H 0.40431 0.52578 0.4508 0.0
S1881 S 0.25478 0.37755 0.39793 0.0
N1882 N 0.24499 0.38197 0.42849 0.0
N1883 N 0.3075 0.41998 0.3923 0.0
C1884 C 0.31951 0.4403 0.4157 0.0
C1885 C 0.2855 0.41924 0.43545 0.0
C1886 C 0.49369 0.84999 0.44135 0.0
C1887 C 0.51983 0.89549 0.43218 0.0
C1888 C 0.51164 0.8323 0.45972 0.0
C1889 C 0.55701 0.85885 0.46887 0.0
H1890 H 0.45883 0.82816 0.43461 0.0
H1891 H 0.49014 0.7973 0.46646 0.0
S1892 S 0.63985 0.9797 0.45072 0.0
N1893 N 0.59319 0.9668 0.43403 0.0
N1894 N 0.62753 0.93294 0.46729 0.0
C1895 C 0.5836 0.90412 0.45958 0.0
C1896 C 0.56487 0.92258 0.44159 0.0
C1897 C 0.16409 0.68324 0.45217 0.0
C1898 C 0.13477 0.69435 0.46575 0.0
C1899 C 0.14699 0.64979 0.43262 0.0
C1900 C 0.09974 0.62513 0.4267 0.0
H1901 H 0.20061 0.70132 0.45625 0.0
H1902 H 0.17077 0.64271 0.42233 0.0
S1903 S 0.0086 0.64028 0.4575 0.0
N1904 N 0.05654 0.67842 0.47177 0.0
N1905 N 0.02394 0.61359 0.43655 0.0
C1906 C 0.07008 0.63534 0.44059 0.0
C1907 C 0.08772 0.67049 0.45972 0.0
loop_
_geom_bond_atom_site_label_1
_geom_bond_atom_site_label_2
_geom_bond_distance
_geom_bond_site_symmetry_2
_ccdc_geom_bond_type
Tb0 O3 2.453 . S
Tb0 O4 2.596 . S
Tb0 O5 2.374 . S
Tb0 O13 2.343 . S
Tb0 O15 2.353 . S
Tb0 O17 2.427 . S
Tb0 O18 2.513 . S
C1 O5 1.251 . S
C1 O7 1.263 . S
Tb2 O4 2.343 . S
Tb2 O7 2.353 . S
Tb2 O10 2.427 . S
Tb2 O11 2.513 1_455 S
Tb2 O12 2.453 . S
Tb2 O13 2.596 . S
Tb2 O14 2.374 . S
O3 Tb0 2.453 . S
O3 C19 1.245 . S
O4 Tb0 2.596 . S
O4 Tb2 2.343 . S
O4 C19 1.259 . S
O5 Tb0 2.374 . S
O5 C1 1.251 . S
C6 O10 1.275 1_655 S
C6 O11 1.246 . S
O7 C1 1.263 . S
O7 Tb2 2.353 . S
C8 O12 1.245 . S
C8 O13 1.259 . S
C9 O14 1.250 . S
C9 O15 1.263 . S
O10 Tb2 2.427 . S
O10 C6 1.275 1_455 S
O11 Tb2 2.513 1_655 S
O11 C6 1.246 . S
O12 Tb2 2.453 . S
O12 C8 1.245 . S
O13 Tb0 2.343 . S
O13 Tb2 2.596 . S
O13 C8 1.259 . S
O14 Tb2 2.374 . S
O14 C9 1.250 . S
O15 Tb0 2.353 . S
O15 C9 1.263 . S
C16 O17 1.275 . S
C16 O18 1.246 . S
O17 Tb0 2.427 . S
O17 C16 1.275 . S
O18 Tb0 2.513 . S
O18 C16 1.246 . S
C19 O3 1.245 . S
C19 O4 1.259 . S
Tb20 O23 2.453 . S
Tb20 O24 2.596 . S
Tb20 O25 2.374 . S
Tb20 O33 2.343 . S
Tb20 O35 2.353 . S
Tb20 O37 2.427 . S
Tb20 O38 2.513 . S
C21 O25 1.251 . S
C21 O27 1.263 . S
Tb22 O24 2.343 . S
Tb22 O27 2.353 . S
Tb22 O30 2.427 . S
Tb22 O31 2.513 . S
Tb22 O32 2.453 . S
Tb22 O33 2.596 . S
Tb22 O34 2.374 . S
O23 Tb20 2.453 . S
O23 C39 1.245 . S
O24 Tb20 2.596 . S
O24 Tb22 2.343 . S
O24 C39 1.259 . S
O25 Tb20 2.374 . S
O25 C21 1.251 . S
C26 O30 1.275 . S
C26 O31 1.246 . S
O27 C21 1.263 . S
O27 Tb22 2.353 . S
C28 O32 1.245 . S
C28 O33 1.259 . S
C29 O34 1.250 . S
C29 O35 1.263 . S
O30 Tb22 2.427 . S
O30 C26 1.275 . S
O31 Tb22 2.513 . S
O31 C26 1.246 . S
O32 Tb22 2.453 . S
O32 C28 1.245 . S
O33 Tb20 2.343 . S
O33 Tb22 2.596 . S
O33 C28 1.259 . S
O34 Tb22 2.374 . S
O34 C29 1.250 . S
O35 Tb20 2.353 . S
O35 C29 1.263 . S
C36 O37 1.275 . S
C36 O38 1.246 . S
O37 Tb20 2.427 . S
O37 C36 1.275 . S
O38 Tb20 2.513 . S
O38 C36 1.246 . S
C39 O23 1.245 . S
C39 O24 1.259 . S
Tb40 O43 2.453 . S
Tb40 O44 2.596 . S
Tb40 O45 2.374 . S
Tb40 O53 2.343 . S
Tb40 O55 2.353 . S
Tb40 O57 2.427 . S
Tb40 O58 2.513 . S
C41 O45 1.251 . S
C41 O47 1.263 . S
Tb42 O44 2.343 . S
Tb42 O47 2.353 . S
Tb42 O50 2.427 . S
Tb42 O51 2.513 1_565 S
Tb42 O52 2.453 . S
Tb42 O53 2.596 . S
Tb42 O54 2.374 . S
O43 Tb40 2.453 . S
O43 C59 1.245 . S
O44 Tb40 2.596 . S
O44 Tb42 2.343 . S
O44 C59 1.259 . S
O45 Tb40 2.374 . S
O45 C41 1.251 . S
C46 O50 1.275 1_545 S
C46 O51 1.246 . S
O47 C41 1.263 . S
O47 Tb42 2.353 . S
C48 O52 1.245 . S
C48 O53 1.259 . S
C49 O54 1.250 . S
C49 O55 1.263 . S
O50 Tb42 2.427 . S
O50 C46 1.275 1_565 S
O51 Tb42 2.513 1_545 S
O51 C46 1.246 . S
O52 Tb42 2.453 . S
O52 C48 1.245 . S
O53 Tb40 2.343 . S
O53 Tb42 2.596 . S
O53 C48 1.259 . S
O54 Tb42 2.374 . S
O54 C49 1.250 . S
O55 Tb40 2.353 . S
O55 C49 1.263 . S
C56 O57 1.275 . S
C56 O58 1.246 . S
O57 Tb40 2.427 . S
O57 C56 1.275 . S
O58 Tb40 2.513 . S
O58 C56 1.246 . S
C59 O43 1.245 . S
C59 O44 1.259 . S
Tb60 O63 2.453 . S
Tb60 O64 2.596 . S
Tb60 O65 2.374 . S
Tb60 O73 2.343 . S
Tb60 O75 2.353 . S
Tb60 O77 2.427 . S
Tb60 O78 2.513 . S
C61 O65 1.251 . S
C61 O67 1.263 . S
Tb62 O64 2.343 . S
Tb62 O67 2.353 . S
Tb62 O70 2.427 . S
Tb62 O71 2.513 1_545 S
Tb62 O72 2.453 . S
Tb62 O73 2.596 . S
Tb62 O74 2.374 . S
O63 Tb60 2.453 . S
O63 C79 1.245 . S
O64 Tb60 2.596 . S
O64 Tb62 2.343 . S
O64 C79 1.259 . S
O65 Tb60 2.374 . S
O65 C61 1.251 . S
C66 O70 1.275 1_565 S
C66 O71 1.246 . S
O67 C61 1.263 . S
O67 Tb62 2.353 . S
C68 O72 1.245 . S
C68 O73 1.259 . S
C69 O74 1.250 . S
C69 O75 1.263 . S
O70 Tb62 2.427 . S
O70 C66 1.275 1_545 S
O71 Tb62 2.513 1_565 S
O71 C66 1.246 . S
O72 Tb62 2.453 . S
O72 C68 1.245 . S
O73 Tb60 2.343 . S
O73 Tb62 2.596 . S
O73 C68 1.259 . S
O74 Tb62 2.374 . S
O74 C69 1.250 . S
O75 Tb60 2.353 . S
O75 C69 1.263 . S
C76 O77 1.275 . S
C76 O78 1.246 . S
O77 Tb60 2.427 . S
O77 C76 1.275 . S
O78 Tb60 2.513 . S
O78 C76 1.246 . S
C79 O63 1.245 . S
C79 O64 1.259 . S
Tb80 O83 2.453 . S
Tb80 O84 2.596 . S
Tb80 O85 2.374 . S
Tb80 O93 2.343 . S
Tb80 O95 2.353 . S
Tb80 O97 2.427 . S
Tb80 O98 2.513 . S
C81 O85 1.251 . S
C81 O87 1.263 . S
Tb82 O84 2.343 . S
Tb82 O87 2.353 . S
Tb82 O90 2.427 . S
Tb82 O91 2.513 1_655 S
Tb82 O92 2.453 . S
Tb82 O93 2.596 . S
Tb82 O94 2.374 . S
O83 Tb80 2.453 . S
O83 C99 1.245 . S
O84 Tb80 2.596 . S
O84 Tb82 2.343 . S
O84 C99 1.259 . S
O85 Tb80 2.374 . S
O85 C81 1.251 . S
C86 O90 1.275 1_455 S
C86 O91 1.246 . S
O87 C81 1.263 . S
O87 Tb82 2.353 . S
C88 O92 1.245 . S
C88 O93 1.259 . S
C89 O94 1.250 . S
C89 O95 1.263 . S
O90 Tb82 2.427 . S
O90 C86 1.275 1_655 S
O91 Tb82 2.513 1_455 S
O91 C86 1.246 . S
O92 Tb82 2.453 . S
O92 C88 1.245 . S
O93 Tb80 2.343 . S
O93 Tb82 2.596 . S
O93 C88 1.259 . S
O94 Tb82 2.374 . S
O94 C89 1.250 . S
O95 Tb80 2.353 . S
O95 C89 1.263 . S
C96 O97 1.275 . S
C96 O98 1.246 . S
O97 Tb80 2.427 . S
O97 C96 1.275 . S
O98 Tb80 2.513 . S
O98 C96 1.246 . S
C99 O83 1.245 . S
C99 O84 1.259 . S
Tb100 O103 2.453 . S
Tb100 O104 2.596 . S
Tb100 O105 2.374 . S
Tb100 O113 2.343 . S
Tb100 O115 2.353 . S
Tb100 O117 2.427 . S
Tb100 O118 2.513 . S
C101 O105 1.251 . S
C101 O107 1.263 . S
Tb102 O104 2.343 . S
Tb102 O107 2.353 . S
Tb102 O110 2.427 . S
Tb102 O111 2.513 . S
Tb102 O112 2.453 . S
Tb102 O113 2.596 . S
Tb102 O114 2.374 . S
O103 Tb100 2.453 . S
O103 C119 1.245 . S
O104 Tb100 2.596 . S
O104 Tb102 2.343 . S
O104 C119 1.259 . S
O105 Tb100 2.374 . S
O105 C101 1.251 . S
C106 O110 1.275 . S
C106 O111 1.246 . S
O107 C101 1.263 . S
O107 Tb102 2.353 . S
C108 O112 1.245 . S
C108 O113 1.259 . S
C109 O114 1.250 . S
C109 O115 1.263 . S
O110 Tb102 2.427 . S
O110 C106 1.275 . S
O111 Tb102 2.513 . S
O111 C106 1.246 . S
O112 Tb102 2.453 . S
O112 C108 1.245 . S
O113 Tb100 2.343 . S
O113 Tb102 2.596 . S
O113 C108 1.259 . S
O114 Tb102 2.374 . S
O114 C109 1.250 . S
O115 Tb100 2.353 . S
O115 C109 1.263 . S
C116 O117 1.275 . S
C116 O118 1.246 . S
O117 Tb100 2.427 . S
O117 C116 1.275 . S
O118 Tb100 2.513 . S
O118 C116 1.246 . S
C119 O103 1.245 . S
C119 O104 1.259 . S
Tb120 O123 2.453 . S
Tb120 O124 2.596 . S
Tb120 O125 2.374 . S
Tb120 O133 2.343 . S
Tb120 O135 2.353 . S
Tb120 O137 2.427 . S
Tb120 O138 2.513 1_655 S
C121 O125 1.251 . S
C121 O127 1.263 . S
Tb122 O124 2.343 . S
Tb122 O127 2.353 . S
Tb122 O130 2.427 . S
Tb122 O131 2.513 . S
Tb122 O132 2.453 . S
Tb122 O133 2.596 . S
Tb122 O134 2.374 . S
O123 Tb120 2.453 . S
O123 C139 1.245 . S
O124 Tb120 2.596 . S
O124 Tb122 2.343 . S
O124 C139 1.259 . S
O125 Tb120 2.374 . S
O125 C121 1.251 . S
C126 O130 1.275 . S
C126 O131 1.246 . S
O127 C121 1.263 . S
O127 Tb122 2.353 . S
C128 O132 1.245 . S
C128 O133 1.259 . S
C129 O134 1.250 . S
C129 O135 1.263 . S
O130 Tb122 2.427 . S
O130 C126 1.275 . S
O131 Tb122 2.513 . S
O131 C126 1.246 . S
O132 Tb122 2.453 . S
O132 C128 1.245 . S
O133 Tb120 2.343 . S
O133 Tb122 2.596 . S
O133 C128 1.259 . S
O134 Tb122 2.374 . S
O134 C129 1.250 . S
O135 Tb120 2.353 . S
O135 C129 1.263 . S
C136 O137 1.275 1_455 S
C136 O138 1.246 . S
O137 Tb120 2.427 . S
O137 C136 1.275 1_655 S
O138 Tb120 2.513 1_455 S
O138 C136 1.246 . S
C139 O123 1.245 . S
C139 O124 1.259 . S
Tb140 O143 2.453 . S
Tb140 O144 2.596 . S
Tb140 O145 2.374 . S
Tb140 O153 2.343 . S
Tb140 O155 2.353 . S
Tb140 O157 2.427 . S
Tb140 O158 2.513 . S
C141 O145 1.251 . S
C141 O147 1.263 . S
Tb142 O144 2.343 . S
Tb142 O147 2.353 . S
Tb142 O150 2.427 . S
Tb142 O151 2.513 . S
Tb142 O152 2.453 . S
Tb142 O153 2.596 . S
Tb142 O154 2.374 . S
O143 Tb140 2.453 . S
O143 C159 1.245 . S
O144 Tb140 2.596 . S
O144 Tb142 2.343 . S
O144 C159 1.259 . S
O145 Tb140 2.374 . S
O145 C141 1.251 . S
C146 O150 1.275 . S
C146 O151 1.246 . S
O147 C141 1.263 . S
O147 Tb142 2.353 . S
C148 O152 1.245 . S
C148 O153 1.259 . S
C149 O154 1.250 . S
C149 O155 1.263 . S
O150 Tb142 2.427 . S
O150 C146 1.275 . S
O151 Tb142 2.513 . S
O151 C146 1.246 . S
O152 Tb142 2.453 . S
O152 C148 1.245 . S
O153 Tb140 2.343 . S
O153 Tb142 2.596 . S
O153 C148 1.259 . S
O154 Tb142 2.374 . S
O154 C149 1.250 . S
O155 Tb140 2.353 . S
O155 C149 1.263 . S
C156 O157 1.275 . S
C156 O158 1.246 . S
O157 Tb140 2.427 . S
O157 C156 1.275 . S
O158 Tb140 2.513 . S
O158 C156 1.246 . S
C159 O143 1.245 . S
C159 O144 1.259 . S
Tb160 O163 2.453 . S
Tb160 O164 2.596 . S
Tb160 O165 2.374 . S
Tb160 O173 2.343 . S
Tb160 O175 2.353 . S
Tb160 O177 2.427 . S
Tb160 O178 2.513 1_545 S
C161 O165 1.251 . S
C161 O167 1.263 . S
Tb162 O164 2.343 . S
Tb162 O167 2.353 . S
Tb162 O170 2.427 . S
Tb162 O171 2.513 . S
Tb162 O172 2.453 . S
Tb162 O173 2.596 . S
Tb162 O174 2.374 . S
O163 Tb160 2.453 . S
O163 C179 1.245 . S
O164 Tb160 2.596 . S
O164 Tb162 2.343 . S
O164 C179 1.259 . S
O165 Tb160 2.374 . S
O165 C161 1.251 . S
C166 O170 1.275 . S
C166 O171 1.246 . S
O167 C161 1.263 . S
O167 Tb162 2.353 . S
C168 O172 1.245 . S
C168 O173 1.259 . S
C169 O174 1.250 . S
C169 O175 1.263 . S
O170 Tb162 2.427 . S
O170 C166 1.275 . S
O171 Tb162 2.513 . S
O171 C166 1.246 . S
O172 Tb162 2.453 . S
O172 C168 1.245 . S
O173 Tb160 2.343 . S
O173 Tb162 2.596 . S
O173 C168 1.259 . S
O174 Tb162 2.374 . S
O174 C169 1.250 . S
O175 Tb160 2.353 . S
O175 C169 1.263 . S
C176 O177 1.275 1_565 S
C176 O178 1.246 . S
O177 Tb160 2.427 . S
O177 C176 1.275 1_545 S
O178 Tb160 2.513 1_565 S
O178 C176 1.246 . S
C179 O163 1.245 . S
C179 O164 1.259 . S
Tb180 O183 2.453 . S
Tb180 O184 2.596 . S
Tb180 O185 2.374 . S
Tb180 O193 2.343 . S
Tb180 O195 2.353 . S
Tb180 O197 2.427 . S
Tb180 O198 2.513 1_565 S
C181 O185 1.251 . S
C181 O187 1.263 . S
Tb182 O184 2.343 . S
Tb182 O187 2.353 . S
Tb182 O190 2.427 . S
Tb182 O191 2.513 . S
Tb182 O192 2.453 . S
Tb182 O193 2.596 . S
Tb182 O194 2.374 . S
O183 Tb180 2.453 . S
O183 C199 1.245 . S
O184 Tb180 2.596 . S
O184 Tb182 2.343 . S
O184 C199 1.259 . S
O185 Tb180 2.374 . S
O185 C181 1.251 . S
C186 O190 1.275 . S
C186 O191 1.246 . S
O187 C181 1.263 . S
O187 Tb182 2.353 . S
C188 O192 1.245 . S
C188 O193 1.259 . S
C189 O194 1.250 . S
C189 O195 1.263 . S
O190 Tb182 2.427 . S
O190 C186 1.275 . S
O191 Tb182 2.513 . S
O191 C186 1.246 . S
O192 Tb182 2.453 . S
O192 C188 1.245 . S
O193 Tb180 2.343 . S
O193 Tb182 2.596 . S
O193 C188 1.259 . S
O194 Tb182 2.374 . S
O194 C189 1.250 . S
O195 Tb180 2.353 . S
O195 C189 1.263 . S
C196 O197 1.275 1_545 S
C196 O198 1.246 . S
O197 Tb180 2.427 . S
O197 C196 1.275 1_565 S
O198 Tb180 2.513 1_545 S
O198 C196 1.246 . S
C199 O183 1.245 . S
C199 O184 1.259 . S
Tb200 O203 2.453 . S
Tb200 O204 2.596 . S
Tb200 O205 2.374 . S
Tb200 O213 2.343 . S
Tb200 O215 2.353 . S
Tb200 O217 2.427 . S
Tb200 O218 2.513 1_455 S
C201 O205 1.251 . S
C201 O207 1.263 . S
Tb202 O204 2.343 . S
Tb202 O207 2.353 . S
Tb202 O210 2.427 . S
Tb202 O211 2.513 . S
Tb202 O212 2.453 . S
Tb202 O213 2.596 . S
Tb202 O214 2.374 . S
O203 Tb200 2.453 . S
O203 C219 1.245 . S
O204 Tb200 2.596 . S
O204 Tb202 2.343 . S
O204 C219 1.259 . S
O205 Tb200 2.374 . S
O205 C201 1.251 . S
C206 O210 1.275 . S
C206 O211 1.246 . S
O207 C201 1.263 . S
O207 Tb202 2.353 . S
C208 O212 1.245 . S
C208 O213 1.259 . S
C209 O214 1.250 . S
C209 O215 1.263 . S
O210 Tb202 2.427 . S
O210 C206 1.275 . S
O211 Tb202 2.513 . S
O211 C206 1.246 . S
O212 Tb202 2.453 . S
O212 C208 1.245 . S
O213 Tb200 2.343 . S
O213 Tb202 2.596 . S
O213 C208 1.259 . S
O214 Tb202 2.374 . S
O214 C209 1.250 . S
O215 Tb200 2.353 . S
O215 C209 1.263 . S
C216 O217 1.275 1_655 S
C216 O218 1.246 . S
O217 Tb200 2.427 . S
O217 C216 1.275 1_455 S
O218 Tb200 2.513 1_655 S
O218 C216 1.246 . S
C219 O203 1.245 . S
C219 O204 1.259 . S
Tb220 O223 2.453 . S
Tb220 O224 2.596 . S
Tb220 O225 2.374 . S
Tb220 O233 2.343 . S
Tb220 O235 2.353 . S
Tb220 O237 2.427 . S
Tb220 O238 2.513 . S
C221 O225 1.251 . S
C221 O227 1.263 . S
Tb222 O224 2.343 . S
Tb222 O227 2.353 . S
Tb222 O230 2.427 . S
Tb222 O231 2.513 . S
Tb222 O232 2.453 . S
Tb222 O233 2.596 . S
Tb222 O234 2.374 . S
O223 Tb220 2.453 . S
O223 C239 1.245 . S
O224 Tb220 2.596 . S
O224 Tb222 2.343 . S
O224 C239 1.259 . S
O225 Tb220 2.374 . S
O225 C221 1.251 . S
C226 O230 1.275 . S
C226 O231 1.246 . S
O227 C221 1.263 . S
O227 Tb222 2.353 . S
C228 O232 1.245 . S
C228 O233 1.259 . S
C229 O234 1.250 . S
C229 O235 1.263 . S
O230 Tb222 2.427 . S
O230 C226 1.275 . S
O231 Tb222 2.513 . S
O231 C226 1.246 . S
O232 Tb222 2.453 . S
O232 C228 1.245 . S
O233 Tb220 2.343 . S
O233 Tb222 2.596 . S
O233 C228 1.259 . S
O234 Tb222 2.374 . S
O234 C229 1.250 . S
O235 Tb220 2.353 . S
O235 C229 1.263 . S
C236 O237 1.275 . S
C236 O238 1.246 . S
O237 Tb220 2.427 . S
O237 C236 1.275 . S
O238 Tb220 2.513 . S
O238 C236 1.246 . S
C239 O223 1.245 . S
C239 O224 1.259 . S
Tb240 O243 2.453 . S
Tb240 O244 2.596 . S
Tb240 O245 2.374 . S
Tb240 O253 2.343 . S
Tb240 O255 2.353 . S
Tb240 O257 2.427 . S
Tb240 O258 2.513 . S
C241 O245 1.251 . S
C241 O247 1.263 . S
Tb242 O244 2.343 . S
Tb242 O247 2.353 . S
Tb242 O250 2.427 . S
Tb242 O251 2.513 . S
Tb242 O252 2.453 . S
Tb242 O253 2.596 . S
Tb242 O254 2.374 . S
O243 Tb240 2.453 . S
O243 C259 1.245 . S
O244 Tb240 2.596 . S
O244 Tb242 2.343 . S
O244 C259 1.259 . S
O245 Tb240 2.374 . S
O245 C241 1.251 . S
C246 O250 1.275 . S
C246 O251 1.246 . S
O247 C241 1.263 . S
O247 Tb242 2.353 . S
C248 O252 1.245 . S
C248 O253 1.259 . S
C249 O254 1.250 . S
C249 O255 1.263 . S
O250 Tb242 2.427 . S
O250 C246 1.275 . S
O251 Tb242 2.513 . S
O251 C246 1.246 . S
O252 Tb242 2.453 . S
O252 C248 1.245 . S
O253 Tb240 2.343 . S
O253 Tb242 2.596 . S
O253 C248 1.259 . S
O254 Tb242 2.374 . S
O254 C249 1.250 . S
O255 Tb240 2.353 . S
O255 C249 1.263 . S
C256 O257 1.275 . S
C256 O258 1.246 . S
O257 Tb240 2.427 . S
O257 C256 1.275 . S
O258 Tb240 2.513 . S
O258 C256 1.246 . S
C259 O243 1.245 . S
C259 O244 1.259 . S
Tb260 O263 2.453 . S
Tb260 O264 2.596 . S
Tb260 O265 2.374 . S
Tb260 O273 2.343 . S
Tb260 O275 2.353 . S
Tb260 O277 2.427 . S
Tb260 O278 2.513 . S
C261 O265 1.251 . S
C261 O267 1.263 . S
Tb262 O264 2.343 . S
Tb262 O267 2.353 . S
Tb262 O270 2.427 . S
Tb262 O271 2.513 . S
Tb262 O272 2.453 . S
Tb262 O273 2.596 . S
Tb262 O274 2.374 . S
O263 Tb260 2.453 . S
O263 C279 1.245 . S
O264 Tb260 2.596 . S
O264 Tb262 2.343 . S
O264 C279 1.259 . S
O265 Tb260 2.374 . S
O265 C261 1.251 . S
C266 O270 1.275 . S
C266 O271 1.246 . S
O267 C261 1.263 . S
O267 Tb262 2.353 . S
C268 O272 1.245 . S
C268 O273 1.259 . S
C269 O274 1.250 . S
C269 O275 1.263 . S
O270 Tb262 2.427 . S
O270 C266 1.275 . S
O271 Tb262 2.513 . S
O271 C266 1.246 . S
O272 Tb262 2.453 . S
O272 C268 1.245 . S
O273 Tb260 2.343 . S
O273 Tb262 2.596 . S
O273 C268 1.259 . S
O274 Tb262 2.374 . S
O274 C269 1.250 . S
O275 Tb260 2.353 . S
O275 C269 1.263 . S
C276 O277 1.275 . S
C276 O278 1.246 . S
O277 Tb260 2.427 . S
O277 C276 1.275 . S
O278 Tb260 2.513 . S
O278 C276 1.246 . S
C279 O263 1.245 . S
C279 O264 1.259 . S
Tb280 O283 2.453 . S
Tb280 O284 2.596 . S
Tb280 O285 2.374 . S
Tb280 O293 2.343 . S
Tb280 O295 2.353 . S
Tb280 O297 2.427 . S
Tb280 O298 2.513 . S
C281 O285 1.251 . S
C281 O287 1.263 . S
Tb282 O284 2.343 . S
Tb282 O287 2.353 . S
Tb282 O290 2.427 . S
Tb282 O291 2.513 . S
Tb282 O292 2.453 . S
Tb282 O293 2.596 . S
Tb282 O294 2.374 . S
O283 Tb280 2.453 . S
O283 C299 1.245 . S
O284 Tb280 2.596 . S
O284 Tb282 2.343 . S
O284 C299 1.259 . S
O285 Tb280 2.374 . S
O285 C281 1.251 . S
C286 O290 1.275 . S
C286 O291 1.246 . S
O287 C281 1.263 . S
O287 Tb282 2.353 . S
C288 O292 1.245 . S
C288 O293 1.259 . S
C289 O294 1.250 . S
C289 O295 1.263 . S
O290 Tb282 2.427 . S
O290 C286 1.275 . S
O291 Tb282 2.513 . S
O291 C286 1.246 . S
O292 Tb282 2.453 . S
O292 C288 1.245 . S
O293 Tb280 2.343 . S
O293 Tb282 2.596 . S
O293 C288 1.259 . S
O294 Tb282 2.374 . S
O294 C289 1.250 . S
O295 Tb280 2.353 . S
O295 C289 1.263 . S
C296 O297 1.275 . S
C296 O298 1.246 . S
O297 Tb280 2.427 . S
O297 C296 1.275 . S
O298 Tb280 2.513 . S
O298 C296 1.246 . S
C299 O283 1.245 . S
C299 O284 1.259 . S
Tb300 O303 2.453 . S
Tb300 O304 2.596 . S
Tb300 O305 2.374 . S
Tb300 O313 2.343 . S
Tb300 O315 2.353 . S
Tb300 O317 2.427 1_655 S
Tb300 O318 2.513 . S
C301 O305 1.251 . S
C301 O307 1.263 . S
Tb302 O304 2.343 . S
Tb302 O307 2.353 . S
Tb302 O310 2.427 . S
Tb302 O311 2.513 . S
Tb302 O312 2.453 . S
Tb302 O313 2.596 . S
Tb302 O314 2.374 . S
O303 Tb300 2.453 . S
O303 C319 1.245 . S
O304 Tb300 2.596 . S
O304 Tb302 2.343 . S
O304 C319 1.259 . S
O305 Tb300 2.374 . S
O305 C301 1.251 . S
C306 O310 1.275 . S
C306 O311 1.246 . S
O307 C301 1.263 . S
O307 Tb302 2.353 . S
C308 O312 1.245 . S
C308 O313 1.259 . S
C309 O314 1.250 . S
C309 O315 1.263 . S
O310 Tb302 2.427 . S
O310 C306 1.275 . S
O311 Tb302 2.513 . S
O311 C306 1.246 . S
O312 Tb302 2.453 . S
O312 C308 1.245 . S
O313 Tb300 2.343 . S
O313 Tb302 2.596 . S
O313 C308 1.259 . S
O314 Tb302 2.374 . S
O314 C309 1.250 . S
O315 Tb300 2.353 . S
O315 C309 1.263 . S
C316 O317 1.275 . S
C316 O318 1.246 1_455 S
O317 Tb300 2.427 1_455 S
O317 C316 1.275 . S
O318 Tb300 2.513 . S
O318 C316 1.246 1_655 S
C319 O303 1.245 . S
C319 O304 1.259 . S
Tb320 O323 2.453 . S
Tb320 O324 2.596 . S
Tb320 O325 2.374 . S
Tb320 O333 2.343 . S
Tb320 O335 2.353 . S
Tb320 O337 2.427 . S
Tb320 O338 2.513 . S
C321 O325 1.251 . S
C321 O327 1.263 . S
Tb322 O324 2.343 . S
Tb322 O327 2.353 . S
Tb322 O330 2.427 . S
Tb322 O331 2.513 . S
Tb322 O332 2.453 . S
Tb322 O333 2.596 . S
Tb322 O334 2.374 . S
O323 Tb320 2.453 . S
O323 C339 1.245 . S
O324 Tb320 2.596 . S
O324 Tb322 2.343 . S
O324 C339 1.259 . S
O325 Tb320 2.374 . S
O325 C321 1.251 . S
C326 O330 1.275 . S
C326 O331 1.246 . S
O327 C321 1.263 . S
O327 Tb322 2.353 . S
C328 O332 1.245 . S
C328 O333 1.259 . S
C329 O334 1.250 . S
C329 O335 1.263 . S
O330 Tb322 2.427 . S
O330 C326 1.275 . S
O331 Tb322 2.513 . S
O331 C326 1.246 . S
O332 Tb322 2.453 . S
O332 C328 1.245 . S
O333 Tb320 2.343 . S
O333 Tb322 2.596 . S
O333 C328 1.259 . S
O334 Tb322 2.374 . S
O334 C329 1.250 . S
O335 Tb320 2.353 . S
O335 C329 1.263 . S
C336 O337 1.275 . S
C336 O338 1.246 . S
O337 Tb320 2.427 . S
O337 C336 1.275 . S
O338 Tb320 2.513 . S
O338 C336 1.246 . S
C339 O323 1.245 . S
C339 O324 1.259 . S
Tb340 O343 2.453 . S
Tb340 O344 2.596 . S
Tb340 O345 2.374 . S
Tb340 O353 2.343 . S
Tb340 O355 2.353 . S
Tb340 O357 2.427 1_545 S
Tb340 O358 2.513 . S
C341 O345 1.251 . S
C341 O347 1.263 . S
Tb342 O344 2.343 . S
Tb342 O347 2.353 . S
Tb342 O350 2.427 . S
Tb342 O351 2.513 . S
Tb342 O352 2.453 . S
Tb342 O353 2.596 . S
Tb342 O354 2.374 . S
O343 Tb340 2.453 . S
O343 C359 1.245 . S
O344 Tb340 2.596 . S
O344 Tb342 2.343 . S
O344 C359 1.259 . S
O345 Tb340 2.374 . S
O345 C341 1.251 . S
C346 O350 1.275 . S
C346 O351 1.246 . S
O347 C341 1.263 . S
O347 Tb342 2.353 . S
C348 O352 1.245 . S
C348 O353 1.259 . S
C349 O354 1.250 . S
C349 O355 1.263 . S
O350 Tb342 2.427 . S
O350 C346 1.275 . S
O351 Tb342 2.513 . S
O351 C346 1.246 . S
O352 Tb342 2.453 . S
O352 C348 1.245 . S
O353 Tb340 2.343 . S
O353 Tb342 2.596 . S
O353 C348 1.259 . S
O354 Tb342 2.374 . S
O354 C349 1.250 . S
O355 Tb340 2.353 . S
O355 C349 1.263 . S
C356 O357 1.275 . S
C356 O358 1.246 1_565 S
O357 Tb340 2.427 1_565 S
O357 C356 1.275 . S
O358 Tb340 2.513 . S
O358 C356 1.246 1_545 S
C359 O343 1.245 . S
C359 O344 1.259 . S
Tb360 O363 2.453 . S
Tb360 O364 2.596 . S
Tb360 O365 2.374 . S
Tb360 O373 2.343 . S
Tb360 O375 2.353 . S
Tb360 O377 2.427 . S
Tb360 O378 2.513 . S
C361 O365 1.251 . S
C361 O367 1.263 . S
Tb362 O364 2.343 . S
Tb362 O367 2.353 . S
Tb362 O370 2.427 1_545 S
Tb362 O371 2.513 . S
Tb362 O372 2.453 . S
Tb362 O373 2.596 . S
Tb362 O374 2.374 . S
O363 Tb360 2.453 . S
O363 C379 1.245 . S
O364 Tb360 2.596 . S
O364 Tb362 2.343 . S
O364 C379 1.259 . S
O365 Tb360 2.374 . S
O365 C361 1.251 . S
C366 O370 1.275 . S
C366 O371 1.246 1_565 S
O367 C361 1.263 . S
O367 Tb362 2.353 . S
C368 O372 1.245 . S
C368 O373 1.259 . S
C369 O374 1.250 . S
C369 O375 1.263 . S
O370 Tb362 2.427 1_565 S
O370 C366 1.275 . S
O371 Tb362 2.513 . S
O371 C366 1.246 1_545 S
O372 Tb362 2.453 . S
O372 C368 1.245 . S
O373 Tb360 2.343 . S
O373 Tb362 2.596 . S
O373 C368 1.259 . S
O374 Tb362 2.374 . S
O374 C369 1.250 . S
O375 Tb360 2.353 . S
O375 C369 1.263 . S
C376 O377 1.275 . S
C376 O378 1.246 . S
O377 Tb360 2.427 . S
O377 C376 1.275 . S
O378 Tb360 2.513 . S
O378 C376 1.246 . S
C379 O363 1.245 . S
C379 O364 1.259 . S
Tb380 O383 2.453 . S
Tb380 O384 2.596 . S
Tb380 O385 2.374 . S
Tb380 O393 2.343 . S
Tb380 O395 2.353 . S
Tb380 O397 2.427 . S
Tb380 O398 2.513 . S
C381 O385 1.251 . S
C381 O387 1.263 . S
Tb382 O384 2.343 . S
Tb382 O387 2.353 . S
Tb382 O390 2.427 1_655 S
Tb382 O391 2.513 . S
Tb382 O392 2.453 . S
Tb382 O393 2.596 . S
Tb382 O394 2.374 . S
O383 Tb380 2.453 . S
O383 C399 1.245 . S
O384 Tb380 2.596 . S
O384 Tb382 2.343 . S
O384 C399 1.259 . S
O385 Tb380 2.374 . S
O385 C381 1.251 . S
C386 O390 1.275 . S
C386 O391 1.246 1_455 S
O387 C381 1.263 . S
O387 Tb382 2.353 . S
C388 O392 1.245 . S
C388 O393 1.259 . S
C389 O394 1.250 . S
C389 O395 1.263 . S
O390 Tb382 2.427 1_455 S
O390 C386 1.275 . S
O391 Tb382 2.513 . S
O391 C386 1.246 1_655 S
O392 Tb382 2.453 . S
O392 C388 1.245 . S
O393 Tb380 2.343 . S
O393 Tb382 2.596 . S
O393 C388 1.259 . S
O394 Tb382 2.374 . S
O394 C389 1.250 . S
O395 Tb380 2.353 . S
O395 C389 1.263 . S
C396 O397 1.275 . S
C396 O398 1.246 . S
O397 Tb380 2.427 . S
O397 C396 1.275 . S
O398 Tb380 2.513 . S
O398 C396 1.246 . S
C399 O383 1.245 . S
C399 O384 1.259 . S
Tb400 O403 2.453 . S
Tb400 O404 2.596 . S
Tb400 O405 2.374 . S
Tb400 O413 2.343 . S
Tb400 O415 2.353 . S
Tb400 O417 2.427 . S
Tb400 O418 2.513 . S
C401 O405 1.251 . S
C401 O407 1.263 . S
Tb402 O404 2.343 . S
Tb402 O407 2.353 . S
Tb402 O410 2.427 . S
Tb402 O411 2.513 . S
Tb402 O412 2.453 . S
Tb402 O413 2.596 . S
Tb402 O414 2.374 . S
O403 Tb400 2.453 . S
O403 C419 1.245 . S
O404 Tb400 2.596 . S
O404 Tb402 2.343 . S
O404 C419 1.259 . S
O405 Tb400 2.374 . S
O405 C401 1.251 . S
C406 O410 1.275 . S
C406 O411 1.246 . S
O407 C401 1.263 . S
O407 Tb402 2.353 . S
C408 O412 1.245 . S
C408 O413 1.259 . S
C409 O414 1.250 . S
C409 O415 1.263 . S
O410 Tb402 2.427 . S
O410 C406 1.275 . S
O411 Tb402 2.513 . S
O411 C406 1.246 . S
O412 Tb402 2.453 . S
O412 C408 1.245 . S
O413 Tb400 2.343 . S
O413 Tb402 2.596 . S
O413 C408 1.259 . S
O414 Tb402 2.374 . S
O414 C409 1.250 . S
O415 Tb400 2.353 . S
O415 C409 1.263 . S
C416 O417 1.275 . S
C416 O418 1.246 . S
O417 Tb400 2.427 . S
O417 C416 1.275 . S
O418 Tb400 2.513 . S
O418 C416 1.246 . S
C419 O403 1.245 . S
C419 O404 1.259 . S
Tb420 O423 2.453 . S
Tb420 O424 2.596 . S
Tb420 O425 2.374 . S
Tb420 O433 2.343 1_556 S
Tb420 O435 2.353 . S
Tb420 O437 2.427 . S
Tb420 O438 2.513 . S
C421 O425 1.251 . S
C421 O427 1.263 1_556 S
Tb422 O424 2.343 1_554 S
Tb422 O427 2.353 . S
Tb422 O430 2.427 . S
Tb422 O431 2.513 . S
Tb422 O432 2.453 . S
Tb422 O433 2.596 . S
Tb422 O434 2.374 . S
O423 Tb420 2.453 . S
O423 C439 1.245 . S
O424 Tb420 2.596 . S
O424 Tb422 2.343 1_556 S
O424 C439 1.259 . S
O425 Tb420 2.374 . S
O425 C421 1.251 . S
C426 O430 1.279 . S
C426 O431 1.246 . S
O427 C421 1.263 1_554 S
O427 Tb422 2.353 . S
C428 O432 1.245 . S
C428 O433 1.259 . S
C429 O434 1.250 . S
C429 O435 1.263 1_554 S
O430 Tb422 2.427 . S
O430 C426 1.279 . S
O431 Tb422 2.513 . S
O431 C426 1.246 . S
O432 Tb422 2.453 . S
O432 C428 1.245 . S
O433 Tb420 2.343 1_554 S
O433 Tb422 2.596 . S
O433 C428 1.259 . S
O434 Tb422 2.374 . S
O434 C429 1.250 . S
O435 Tb420 2.353 . S
O435 C429 1.263 1_556 S
C436 O437 1.283 . S
C436 O438 1.247 . S
O437 Tb420 2.427 . S
O437 C436 1.283 . S
O438 Tb420 2.513 . S
O438 C436 1.247 . S
C439 O423 1.245 . S
C439 O424 1.259 . S
Tb440 O443 2.453 . S
Tb440 O444 2.596 . S
Tb440 O445 2.374 . S
Tb440 O453 2.343 1_556 S
Tb440 O455 2.353 . S
Tb440 O457 2.427 . S
Tb440 O458 2.513 . S
C441 O445 1.251 . S
C441 O447 1.263 1_556 S
Tb442 O444 2.343 1_554 S
Tb442 O447 2.353 . S
Tb442 O450 2.427 . S
Tb442 O451 2.513 . S
Tb442 O452 2.453 . S
Tb442 O453 2.596 . S
Tb442 O454 2.374 . S
O443 Tb440 2.453 . S
O443 C459 1.245 . S
O444 Tb440 2.596 . S
O444 Tb442 2.343 1_556 S
O444 C459 1.259 . S
O445 Tb440 2.374 . S
O445 C441 1.251 . S
C446 O450 1.279 . S
C446 O451 1.246 . S
O447 C441 1.263 1_554 S
O447 Tb442 2.353 . S
C448 O452 1.245 . S
C448 O453 1.259 . S
C449 O454 1.250 . S
C449 O455 1.263 1_554 S
O450 Tb442 2.427 . S
O450 C446 1.279 . S
O451 Tb442 2.513 . S
O451 C446 1.246 . S
O452 Tb442 2.453 . S
O452 C448 1.245 . S
O453 Tb440 2.343 1_554 S
O453 Tb442 2.596 . S
O453 C448 1.259 . S
O454 Tb442 2.374 . S
O454 C449 1.250 . S
O455 Tb440 2.353 . S
O455 C449 1.263 1_556 S
C456 O457 1.283 . S
C456 O458 1.247 . S
O457 Tb440 2.427 . S
O457 C456 1.283 . S
O458 Tb440 2.513 . S
O458 C456 1.247 . S
C459 O443 1.245 . S
C459 O444 1.259 . S
Tb460 O463 2.453 . S
Tb460 O464 2.596 . S
Tb460 O465 2.374 . S
Tb460 O473 2.343 1_556 S
Tb460 O475 2.353 . S
Tb460 O477 2.427 . S
Tb460 O478 2.513 . S
C461 O465 1.251 . S
C461 O467 1.263 1_556 S
Tb462 O464 2.343 1_554 S
Tb462 O467 2.353 . S
Tb462 O470 2.427 . S
Tb462 O471 2.513 . S
Tb462 O472 2.453 . S
Tb462 O473 2.596 . S
Tb462 O474 2.374 . S
O463 Tb460 2.453 . S
O463 C479 1.245 . S
O464 Tb460 2.596 . S
O464 Tb462 2.343 1_556 S
O464 C479 1.259 . S
O465 Tb460 2.374 . S
O465 C461 1.251 . S
C466 O470 1.279 . S
C466 O471 1.246 . S
O467 C461 1.263 1_554 S
O467 Tb462 2.353 . S
C468 O472 1.245 . S
C468 O473 1.259 . S
C469 O474 1.250 . S
C469 O475 1.263 1_554 S
O470 Tb462 2.427 . S
O470 C466 1.279 . S
O471 Tb462 2.513 . S
O471 C466 1.246 . S
O472 Tb462 2.453 . S
O472 C468 1.245 . S
O473 Tb460 2.343 1_554 S
O473 Tb462 2.596 . S
O473 C468 1.259 . S
O474 Tb462 2.374 . S
O474 C469 1.250 . S
O475 Tb460 2.353 . S
O475 C469 1.263 1_556 S
C476 O477 1.283 . S
C476 O478 1.247 . S
O477 Tb460 2.427 . S
O477 C476 1.283 . S
O478 Tb460 2.513 . S
O478 C476 1.247 . S
C479 O463 1.245 . S
C479 O464 1.259 . S
Tb480 O483 2.453 . S
Tb480 O484 2.596 . S
Tb480 O485 2.374 . S
Tb480 O493 2.343 . S
Tb480 O495 2.353 . S
Tb480 O497 2.427 1_565 S
Tb480 O498 2.513 . S
C481 O485 1.251 . S
C481 O487 1.263 . S
Tb482 O484 2.343 . S
Tb482 O487 2.353 . S
Tb482 O490 2.427 . S
Tb482 O491 2.513 . S
Tb482 O492 2.453 . S
Tb482 O493 2.596 . S
Tb482 O494 2.374 . S
O483 Tb480 2.453 . S
O483 C499 1.245 . S
O484 Tb480 2.596 . S
O484 Tb482 2.343 . S
O484 C499 1.259 . S
O485 Tb480 2.374 . S
O485 C481 1.251 . S
C486 O490 1.275 . S
C486 O491 1.246 . S
O487 C481 1.263 . S
O487 Tb482 2.353 . S
C488 O492 1.245 . S
C488 O493 1.259 . S
C489 O494 1.250 . S
C489 O495 1.263 . S
O490 Tb482 2.427 . S
O490 C486 1.275 . S
O491 Tb482 2.513 . S
O491 C486 1.246 . S
O492 Tb482 2.453 . S
O492 C488 1.245 . S
O493 Tb480 2.343 . S
O493 Tb482 2.596 . S
O493 C488 1.259 . S
O494 Tb482 2.374 . S
O494 C489 1.250 . S
O495 Tb480 2.353 . S
O495 C489 1.263 . S
C496 O497 1.275 . S
C496 O498 1.246 1_545 S
O497 Tb480 2.427 1_545 S
O497 C496 1.275 . S
O498 Tb480 2.513 . S
O498 C496 1.246 1_565 S
C499 O483 1.245 . S
C499 O484 1.259 . S
Tb500 O503 2.453 . S
Tb500 O504 2.596 . S
Tb500 O505 2.374 . S
Tb500 O513 2.343 . S
Tb500 O515 2.353 . S
Tb500 O517 2.427 1_455 S
Tb500 O518 2.513 . S
C501 O505 1.251 . S
C501 O507 1.263 . S
Tb502 O504 2.343 . S
Tb502 O507 2.353 . S
Tb502 O510 2.427 . S
Tb502 O511 2.513 . S
Tb502 O512 2.453 . S
Tb502 O513 2.596 . S
Tb502 O514 2.374 . S
O503 Tb500 2.453 . S
O503 C519 1.245 . S
O504 Tb500 2.596 . S
O504 Tb502 2.343 . S
O504 C519 1.259 . S
O505 Tb500 2.374 . S
O505 C501 1.251 . S
C506 O510 1.275 . S
C506 O511 1.246 . S
O507 C501 1.263 . S
O507 Tb502 2.353 . S
C508 O512 1.245 . S
C508 O513 1.259 . S
C509 O514 1.250 . S
C509 O515 1.263 . S
O510 Tb502 2.427 . S
O510 C506 1.275 . S
O511 Tb502 2.513 . S
O511 C506 1.246 . S
O512 Tb502 2.453 . S
O512 C508 1.245 . S
O513 Tb500 2.343 . S
O513 Tb502 2.596 . S
O513 C508 1.259 . S
O514 Tb502 2.374 . S
O514 C509 1.250 . S
O515 Tb500 2.353 . S
O515 C509 1.263 . S
C516 O517 1.275 . S
C516 O518 1.246 1_655 S
O517 Tb500 2.427 1_655 S
O517 C516 1.275 . S
O518 Tb500 2.513 . S
O518 C516 1.246 1_455 S
C519 O503 1.245 . S
C519 O504 1.259 . S
Tb520 O523 2.453 . S
Tb520 O524 2.596 . S
Tb520 O525 2.374 . S
Tb520 O533 2.343 . S
Tb520 O535 2.353 . S
Tb520 O537 2.427 . S
Tb520 O538 2.513 . S
C521 O525 1.251 . S
C521 O527 1.263 . S
Tb522 O524 2.343 . S
Tb522 O527 2.353 . S
Tb522 O530 2.427 . S
Tb522 O531 2.513 . S
Tb522 O532 2.453 . S
Tb522 O533 2.596 . S
Tb522 O534 2.374 . S
O523 Tb520 2.453 . S
O523 C539 1.245 . S
O524 Tb520 2.596 . S
O524 Tb522 2.343 . S
O524 C539 1.259 . S
O525 Tb520 2.374 . S
O525 C521 1.251 . S
C526 O530 1.275 . S
C526 O531 1.246 . S
O527 C521 1.263 . S
O527 Tb522 2.353 . S
C528 O532 1.245 . S
C528 O533 1.259 . S
C529 O534 1.250 . S
C529 O535 1.263 . S
O530 Tb522 2.427 . S
O530 C526 1.275 . S
O531 Tb522 2.513 . S
O531 C526 1.246 . S
O532 Tb522 2.453 . S
O532 C528 1.245 . S
O533 Tb520 2.343 . S
O533 Tb522 2.596 . S
O533 C528 1.259 . S
O534 Tb522 2.374 . S
O534 C529 1.250 . S
O535 Tb520 2.353 . S
O535 C529 1.263 . S
C536 O537 1.275 . S
C536 O538 1.246 . S
O537 Tb520 2.427 . S
O537 C536 1.275 . S
O538 Tb520 2.513 . S
O538 C536 1.246 . S
C539 O523 1.245 . S
C539 O524 1.259 . S
Tb540 O543 2.453 . S
Tb540 O544 2.596 . S
Tb540 O545 2.374 . S
Tb540 O553 2.343 1_556 S
Tb540 O555 2.353 . S
Tb540 O557 2.427 . S
Tb540 O558 2.513 . S
C541 O545 1.251 . S
C541 O547 1.263 1_556 S
Tb542 O544 2.343 1_554 S
Tb542 O547 2.353 . S
Tb542 O550 2.427 . S
Tb542 O551 2.513 . S
Tb542 O552 2.453 . S
Tb542 O553 2.596 . S
Tb542 O554 2.374 . S
O543 Tb540 2.453 . S
O543 C559 1.245 . S
O544 Tb540 2.596 . S
O544 Tb542 2.343 1_556 S
O544 C559 1.259 . S
O545 Tb540 2.374 . S
O545 C541 1.251 . S
C546 O550 1.283 . S
C546 O551 1.247 . S
O547 C541 1.263 1_554 S
O547 Tb542 2.353 . S
C548 O552 1.245 . S
C548 O553 1.259 . S
C549 O554 1.250 . S
C549 O555 1.263 1_554 S
O550 Tb542 2.427 . S
O550 C546 1.283 . S
O551 Tb542 2.513 . S
O551 C546 1.247 . S
O552 Tb542 2.453 . S
O552 C548 1.245 . S
O553 Tb540 2.343 1_554 S
O553 Tb542 2.596 . S
O553 C548 1.259 . S
O554 Tb542 2.374 . S
O554 C549 1.250 . S
O555 Tb540 2.353 . S
O555 C549 1.263 1_556 S
C556 O557 1.279 . S
C556 O558 1.246 . S
O557 Tb540 2.427 . S
O557 C556 1.279 . S
O558 Tb540 2.513 . S
O558 C556 1.246 . S
C559 O543 1.245 . S
C559 O544 1.259 . S
Tb560 O563 2.453 . S
Tb560 O564 2.596 . S
Tb560 O565 2.374 . S
Tb560 O573 2.343 1_556 S
Tb560 O575 2.353 . S
Tb560 O577 2.427 . S
Tb560 O578 2.513 . S
C561 O565 1.251 . S
C561 O567 1.263 1_556 S
Tb562 O564 2.343 1_554 S
Tb562 O567 2.353 . S
Tb562 O570 2.427 . S
Tb562 O571 2.513 . S
Tb562 O572 2.453 . S
Tb562 O573 2.596 . S
Tb562 O574 2.374 . S
O563 Tb560 2.453 . S
O563 C579 1.245 . S
O564 Tb560 2.596 . S
O564 Tb562 2.343 1_556 S
O564 C579 1.259 . S
O565 Tb560 2.374 . S
O565 C561 1.251 . S
C566 O570 1.283 . S
C566 O571 1.247 . S
O567 C561 1.263 1_554 S
O567 Tb562 2.353 . S
C568 O572 1.245 . S
C568 O573 1.259 . S
C569 O574 1.250 . S
C569 O575 1.263 1_554 S
O570 Tb562 2.427 . S
O570 C566 1.283 . S
O571 Tb562 2.513 . S
O571 C566 1.247 . S
O572 Tb562 2.453 . S
O572 C568 1.245 . S
O573 Tb560 2.343 1_554 S
O573 Tb562 2.596 . S
O573 C568 1.259 . S
O574 Tb562 2.374 . S
O574 C569 1.250 . S
O575 Tb560 2.353 . S
O575 C569 1.263 1_556 S
C576 O577 1.279 . S
C576 O578 1.246 . S
O577 Tb560 2.427 . S
O577 C576 1.279 . S
O578 Tb560 2.513 . S
O578 C576 1.246 . S
C579 O563 1.245 . S
C579 O564 1.259 . S
Tb580 O583 2.453 . S
Tb580 O584 2.596 . S
Tb580 O585 2.374 . S
Tb580 O593 2.343 1_556 S
Tb580 O595 2.353 . S
Tb580 O597 2.427 . S
Tb580 O598 2.513 . S
C581 O585 1.251 . S
C581 O587 1.263 1_556 S
Tb582 O584 2.343 1_554 S
Tb582 O587 2.353 . S
Tb582 O590 2.427 . S
Tb582 O591 2.513 . S
Tb582 O592 2.453 . S
Tb582 O593 2.596 . S
Tb582 O594 2.374 . S
O583 Tb580 2.453 . S
O583 C599 1.245 . S
O584 Tb580 2.596 . S
O584 Tb582 2.343 1_556 S
O584 C599 1.259 . S
O585 Tb580 2.374 . S
O585 C581 1.251 . S
C586 O590 1.283 . S
C586 O591 1.247 . S
O587 C581 1.263 1_554 S
O587 Tb582 2.353 . S
C588 O592 1.245 . S
C588 O593 1.259 . S
C589 O594 1.250 . S
C589 O595 1.263 1_554 S
O590 Tb582 2.427 . S
O590 C586 1.283 . S
O591 Tb582 2.513 . S
O591 C586 1.247 . S
O592 Tb582 2.453 . S
O592 C588 1.245 . S
O593 Tb580 2.343 1_554 S
O593 Tb582 2.596 . S
O593 C588 1.259 . S
O594 Tb582 2.374 . S
O594 C589 1.250 . S
O595 Tb580 2.353 . S
O595 C589 1.263 1_556 S
C596 O597 1.279 . S
C596 O598 1.246 . S
O597 Tb580 2.427 . S
O597 C596 1.279 . S
O598 Tb580 2.513 . S
O598 C596 1.246 . S
C599 O583 1.245 . S
C599 O584 1.259 . S
Tb600 O603 2.453 . S
Tb600 O604 2.596 . S
Tb600 O605 2.374 . S
Tb600 O613 2.343 . S
Tb600 O615 2.353 . S
Tb600 O617 2.427 . S
Tb600 O618 2.513 . S
C601 O605 1.251 . S
C601 O607 1.263 . S
Tb602 O604 2.343 . S
Tb602 O607 2.353 . S
Tb602 O610 2.427 . S
Tb602 O611 2.513 . S
Tb602 O612 2.453 . S
Tb602 O613 2.596 . S
Tb602 O614 2.374 . S
O603 Tb600 2.453 . S
O603 C619 1.245 . S
O604 Tb600 2.596 . S
O604 Tb602 2.343 . S
O604 C619 1.259 . S
O605 Tb600 2.374 . S
O605 C601 1.251 . S
C606 O610 1.275 . S
C606 O611 1.246 . S
O607 C601 1.263 . S
O607 Tb602 2.353 . S
C608 O612 1.245 . S
C608 O613 1.259 . S
C609 O614 1.250 . S
C609 O615 1.263 . S
O610 Tb602 2.427 . S
O610 C606 1.275 . S
O611 Tb602 2.513 . S
O611 C606 1.246 . S
O612 Tb602 2.453 . S
O612 C608 1.245 . S
O613 Tb600 2.343 . S
O613 Tb602 2.596 . S
O613 C608 1.259 . S
O614 Tb602 2.374 . S
O614 C609 1.250 . S
O615 Tb600 2.353 . S
O615 C609 1.263 . S
C616 O617 1.275 . S
C616 O618 1.246 . S
O617 Tb600 2.427 . S
O617 C616 1.275 . S
O618 Tb600 2.513 . S
O618 C616 1.246 . S
C619 O603 1.245 . S
C619 O604 1.259 . S
Tb620 O623 2.453 . S
Tb620 O624 2.596 . S
Tb620 O625 2.374 . S
Tb620 O633 2.343 . S
Tb620 O635 2.353 . S
Tb620 O637 2.427 . S
Tb620 O638 2.513 . S
C621 O625 1.251 . S
C621 O627 1.263 . S
Tb622 O624 2.343 . S
Tb622 O627 2.353 . S
Tb622 O630 2.427 . S
Tb622 O631 2.513 . S
Tb622 O632 2.453 . S
Tb622 O633 2.596 . S
Tb622 O634 2.374 . S
O623 Tb620 2.453 . S
O623 C639 1.245 . S
O624 Tb620 2.596 . S
O624 Tb622 2.343 . S
O624 C639 1.259 . S
O625 Tb620 2.374 . S
O625 C621 1.251 . S
C626 O630 1.275 . S
C626 O631 1.246 . S
O627 C621 1.263 . S
O627 Tb622 2.353 . S
C628 O632 1.245 . S
C628 O633 1.259 . S
C629 O634 1.250 . S
C629 O635 1.263 . S
O630 Tb622 2.427 . S
O630 C626 1.275 . S
O631 Tb622 2.513 . S
O631 C626 1.246 . S
O632 Tb622 2.453 . S
O632 C628 1.245 . S
O633 Tb620 2.343 . S
O633 Tb622 2.596 . S
O633 C628 1.259 . S
O634 Tb622 2.374 . S
O634 C629 1.250 . S
O635 Tb620 2.353 . S
O635 C629 1.263 . S
C636 O637 1.275 . S
C636 O638 1.246 . S
O637 Tb620 2.427 . S
O637 C636 1.275 . S
O638 Tb620 2.513 . S
O638 C636 1.246 . S
C639 O623 1.245 . S
C639 O624 1.259 . S
Tb640 O643 2.453 . S
Tb640 O644 2.596 . S
Tb640 O645 2.374 . S
Tb640 O653 2.343 . S
Tb640 O655 2.353 . S
Tb640 O657 2.427 . S
Tb640 O658 2.513 . S
C641 O645 1.251 . S
C641 O647 1.263 . S
Tb642 O644 2.343 . S
Tb642 O647 2.353 . S
Tb642 O650 2.427 . S
Tb642 O651 2.513 . S
Tb642 O652 2.453 . S
Tb642 O653 2.596 . S
Tb642 O654 2.374 . S
O643 Tb640 2.453 . S
O643 C659 1.245 . S
O644 Tb640 2.596 . S
O644 Tb642 2.343 . S
O644 C659 1.259 . S
O645 Tb640 2.374 . S
O645 C641 1.251 . S
C646 O650 1.275 . S
C646 O651 1.246 . S
O647 C641 1.263 . S
O647 Tb642 2.353 . S
C648 O652 1.245 . S
C648 O653 1.259 . S
C649 O654 1.250 . S
C649 O655 1.263 . S
O650 Tb642 2.427 . S
O650 C646 1.275 . S
O651 Tb642 2.513 . S
O651 C646 1.246 . S
O652 Tb642 2.453 . S
O652 C648 1.245 . S
O653 Tb640 2.343 . S
O653 Tb642 2.596 . S
O653 C648 1.259 . S
O654 Tb642 2.374 . S
O654 C649 1.250 . S
O655 Tb640 2.353 . S
O655 C649 1.263 . S
C656 O657 1.275 . S
C656 O658 1.246 . S
O657 Tb640 2.427 . S
O657 C656 1.275 . S
O658 Tb640 2.513 . S
O658 C656 1.246 . S
C659 O643 1.245 . S
C659 O644 1.259 . S
Tb660 O663 2.453 . S
Tb660 O664 2.596 . S
Tb660 O665 2.374 . S
Tb660 O673 2.343 . S
Tb660 O675 2.353 . S
Tb660 O677 2.427 . S
Tb660 O678 2.513 . S
C661 O665 1.251 . S
C661 O667 1.263 . S
Tb662 O664 2.343 . S
Tb662 O667 2.353 . S
Tb662 O670 2.427 1_455 S
Tb662 O671 2.513 . S
Tb662 O672 2.453 . S
Tb662 O673 2.596 . S
Tb662 O674 2.374 . S
O663 Tb660 2.453 . S
O663 C679 1.245 . S
O664 Tb660 2.596 . S
O664 Tb662 2.343 . S
O664 C679 1.259 . S
O665 Tb660 2.374 . S
O665 C661 1.251 . S
C666 O670 1.275 . S
C666 O671 1.246 1_655 S
O667 C661 1.263 . S
O667 Tb662 2.353 . S
C668 O672 1.245 . S
C668 O673 1.259 . S
C669 O674 1.250 . S
C669 O675 1.263 . S
O670 Tb662 2.427 1_655 S
O670 C666 1.275 . S
O671 Tb662 2.513 . S
O671 C666 1.246 1_455 S
O672 Tb662 2.453 . S
O672 C668 1.245 . S
O673 Tb660 2.343 . S
O673 Tb662 2.596 . S
O673 C668 1.259 . S
O674 Tb662 2.374 . S
O674 C669 1.250 . S
O675 Tb660 2.353 . S
O675 C669 1.263 . S
C676 O677 1.275 . S
C676 O678 1.246 . S
O677 Tb660 2.427 . S
O677 C676 1.275 . S
O678 Tb660 2.513 . S
O678 C676 1.246 . S
C679 O663 1.245 . S
C679 O664 1.259 . S
Tb680 O683 2.453 . S
Tb680 O684 2.596 . S
Tb680 O685 2.374 . S
Tb680 O693 2.343 . S
Tb680 O695 2.353 . S
Tb680 O697 2.427 . S
Tb680 O698 2.513 . S
C681 O685 1.251 . S
C681 O687 1.263 . S
Tb682 O684 2.343 . S
Tb682 O687 2.353 . S
Tb682 O690 2.427 . S
Tb682 O691 2.513 . S
Tb682 O692 2.453 . S
Tb682 O693 2.596 . S
Tb682 O694 2.374 . S
O683 Tb680 2.453 . S
O683 C699 1.245 . S
O684 Tb680 2.596 . S
O684 Tb682 2.343 . S
O684 C699 1.259 . S
O685 Tb680 2.374 . S
O685 C681 1.251 . S
C686 O690 1.275 . S
C686 O691 1.246 . S
O687 C681 1.263 . S
O687 Tb682 2.353 . S
C688 O692 1.245 . S
C688 O693 1.259 . S
C689 O694 1.250 . S
C689 O695 1.263 . S
O690 Tb682 2.427 . S
O690 C686 1.275 . S
O691 Tb682 2.513 . S
O691 C686 1.246 . S
O692 Tb682 2.453 . S
O692 C688 1.245 . S
O693 Tb680 2.343 . S
O693 Tb682 2.596 . S
O693 C688 1.259 . S
O694 Tb682 2.374 . S
O694 C689 1.250 . S
O695 Tb680 2.353 . S
O695 C689 1.263 . S
C696 O697 1.275 . S
C696 O698 1.246 . S
O697 Tb680 2.427 . S
O697 C696 1.275 . S
O698 Tb680 2.513 . S
O698 C696 1.246 . S
C699 O683 1.245 . S
C699 O684 1.259 . S
Tb700 O703 2.453 . S
Tb700 O704 2.596 . S
Tb700 O705 2.374 . S
Tb700 O713 2.343 . S
Tb700 O715 2.353 . S
Tb700 O717 2.427 . S
Tb700 O718 2.513 . S
C701 O705 1.251 . S
C701 O707 1.263 . S
Tb702 O704 2.343 . S
Tb702 O707 2.353 . S
Tb702 O710 2.427 1_565 S
Tb702 O711 2.513 . S
Tb702 O712 2.453 . S
Tb702 O713 2.596 . S
Tb702 O714 2.374 . S
O703 Tb700 2.453 . S
O703 C719 1.245 . S
O704 Tb700 2.596 . S
O704 Tb702 2.343 . S
O704 C719 1.259 . S
O705 Tb700 2.374 . S
O705 C701 1.251 . S
C706 O710 1.275 . S
C706 O711 1.246 1_545 S
O707 C701 1.263 . S
O707 Tb702 2.353 . S
C708 O712 1.245 . S
C708 O713 1.259 . S
C709 O714 1.250 . S
C709 O715 1.263 . S
O710 Tb702 2.427 1_545 S
O710 C706 1.275 . S
O711 Tb702 2.513 . S
O711 C706 1.246 1_565 S
O712 Tb702 2.453 . S
O712 C708 1.245 . S
O713 Tb700 2.343 . S
O713 Tb702 2.596 . S
O713 C708 1.259 . S
O714 Tb702 2.374 . S
O714 C709 1.250 . S
O715 Tb700 2.353 . S
O715 C709 1.263 . S
C716 O717 1.275 . S
C716 O718 1.246 . S
O717 Tb700 2.427 . S
O717 C716 1.275 . S
O718 Tb700 2.513 . S
O718 C716 1.246 . S
C719 O703 1.245 . S
C719 O704 1.259 . S
C720 C721 1.369 . S
C720 C722 1.419 . S
C720 H724 0.930 . S
C721 C720 1.369 . S
C721 C730 1.429 . S
C722 C720 1.419 . S
C722 C723 1.363 . S
C722 H725 0.929 . S
C723 C722 1.363 . S
C723 C729 1.428 . S
H724 C720 0.930 . S
H725 C722 0.929 . S
S726 N727 1.613 . S
S726 N728 1.610 . S
N727 S726 1.613 . S
N727 C730 1.350 . S
N728 S726 1.610 . S
N728 C729 1.351 . S
C729 C723 1.428 . S
C729 N728 1.351 . S
C729 C730 1.434 . S
C730 C721 1.429 . S
C730 N727 1.350 . S
C730 C729 1.434 . S
C731 C732 1.369 . S
C731 C733 1.419 . S
C731 H735 0.930 . S
C732 C731 1.369 . S
C732 C741 1.429 . S
C733 C731 1.419 . S
C733 C734 1.363 . S
C733 H736 0.929 . S
C734 C733 1.363 . S
C734 C740 1.428 . S
H735 C731 0.930 . S
H736 C733 0.929 . S
S737 N738 1.613 . S
S737 N739 1.610 1_545 S
N738 S737 1.613 . S
N738 C741 1.350 . S
N739 S737 1.610 1_565 S
N739 C740 1.351 1_565 S
C740 C734 1.428 . S
C740 N739 1.351 1_545 S
C740 C741 1.434 . S
C741 C732 1.429 . S
C741 N738 1.350 . S
C741 C740 1.434 . S
C742 C743 1.369 . S
C742 C744 1.419 . S
C742 H746 0.943 . S
C743 C742 1.369 . S
C743 C752 1.429 . S
C744 C742 1.419 . S
C744 C745 1.363 . S
C744 H747 0.929 . S
C745 C744 1.363 . S
C745 C751 1.428 . S
H746 C742 0.943 . S
H747 C744 0.929 . S
S748 N749 1.613 . S
S748 N750 1.610 . S
N749 S748 1.613 . S
N749 C752 1.350 . S
N750 S748 1.610 . S
N750 C751 1.351 . S
C751 C745 1.428 . S
C751 N750 1.351 . S
C751 C752 1.434 . S
C752 C743 1.429 . S
C752 N749 1.350 . S
C752 C751 1.434 . S
C753 C754 1.369 . S
C753 C755 1.419 . S
C753 H757 0.930 . S
C754 C753 1.369 . S
C754 C763 1.429 . S
C755 C753 1.419 . S
C755 C756 1.363 . S
C755 H758 0.929 . S
C756 C755 1.363 . S
C756 C762 1.428 . S
H757 C753 0.930 . S
H758 C755 0.929 . S
S759 N760 1.613 . S
S759 N761 1.610 . S
N760 S759 1.613 . S
N760 C763 1.350 . S
N761 S759 1.610 . S
N761 C762 1.351 . S
C762 C756 1.428 . S
C762 N761 1.351 . S
C762 C763 1.434 . S
C763 C754 1.429 . S
C763 N760 1.350 . S
C763 C762 1.434 . S
C764 C765 1.369 . S
C764 C766 1.419 . S
C764 H768 0.930 . S
C765 C764 1.369 . S
C765 C774 1.429 . S
C766 C764 1.419 . S
C766 C767 1.363 . S
C766 H769 0.929 1_565 S
C767 C766 1.363 . S
C767 C773 1.428 . S
H768 C764 0.930 . S
H769 C766 0.929 1_545 S
S770 N771 1.613 . S
S770 N772 1.610 . S
N771 S770 1.613 . S
N771 C774 1.350 . S
N772 S770 1.610 . S
N772 C773 1.351 . S
C773 C767 1.428 . S
C773 N772 1.351 . S
C773 C774 1.434 . S
C774 C765 1.429 . S
C774 N771 1.350 . S
C774 C773 1.434 . S
C775 C776 1.369 . S
C775 C777 1.419 . S
C775 H779 0.930 1_455 S
C776 C775 1.369 . S
C776 C785 1.429 . S
C777 C775 1.419 . S
C777 C778 1.363 . S
C777 H780 0.929 . S
C778 C777 1.363 . S
C778 C784 1.428 . S
H779 C775 0.930 1_655 S
H780 C777 0.929 . S
S781 N782 1.613 . S
S781 N783 1.610 . S
N782 S781 1.613 . S
N782 C785 1.350 . S
N783 S781 1.610 . S
N783 C784 1.351 . S
C784 C778 1.428 . S
C784 N783 1.351 . S
C784 C785 1.434 . S
C785 C776 1.429 . S
C785 N782 1.350 . S
C785 C784 1.434 . S
C786 C787 1.369 . S
C786 C788 1.419 . S
C786 H790 0.930 . S
C787 C786 1.369 . S
C787 C796 1.429 . S
C788 C786 1.419 . S
C788 C789 1.363 . S
C788 H791 0.929 . S
C789 C788 1.363 . S
C789 C795 1.428 . S
H790 C786 0.930 . S
H791 C788 0.929 . S
S792 N793 1.613 . S
S792 N794 1.610 . S
N793 S792 1.613 . S
N793 C796 1.350 . S
N794 S792 1.610 . S
N794 C795 1.351 . S
C795 C789 1.428 . S
C795 N794 1.351 . S
C795 C796 1.434 . S
C796 C787 1.429 . S
C796 N793 1.350 . S
C796 C795 1.434 . S
C797 C798 1.369 . S
C797 C799 1.419 . S
C797 H801 0.930 . S
C798 C797 1.369 . S
C798 C807 1.429 . S
C799 C797 1.419 . S
C799 C800 1.363 . S
C799 H802 0.929 . S
C800 C799 1.363 . S
C800 C806 1.428 . S
H801 C797 0.930 . S
H802 C799 0.929 . S
S803 N804 1.613 . S
S803 N805 1.610 . S
N804 S803 1.613 . S
N804 C807 1.350 . S
N805 S803 1.610 . S
N805 C806 1.351 . S
C806 C800 1.428 . S
C806 N805 1.351 . S
C806 C807 1.434 . S
C807 C798 1.429 . S
C807 N804 1.350 . S
C807 C806 1.434 . S
C808 C809 1.369 . S
C808 C810 1.419 . S
C808 H812 0.930 . S
C809 C808 1.369 . S
C809 C818 1.429 . S
C810 C808 1.419 . S
C810 C811 1.363 . S
C810 H813 0.929 . S
C811 C810 1.363 . S
C811 C817 1.428 . S
H812 C808 0.930 . S
H813 C810 0.929 . S
S814 N815 1.613 . S
S814 N816 1.610 . S
N815 S814 1.613 . S
N815 C818 1.350 . S
N816 S814 1.610 . S
N816 C817 1.351 . S
C817 C811 1.428 . S
C817 N816 1.351 . S
C817 C818 1.434 . S
C818 C809 1.429 . S
C818 N815 1.350 . S
C818 C817 1.434 . S
C819 C820 1.369 . S
C819 C821 1.419 . S
C819 H823 0.930 . S
C820 C819 1.369 . S
C820 C829 1.429 . S
C821 C819 1.419 . S
C821 C822 1.363 . S
C821 H824 0.929 . S
C822 C821 1.363 . S
C822 C828 1.428 . S
H823 C819 0.930 . S
H824 C821 0.929 . S
S825 N826 1.613 . S
S825 N827 1.610 . S
N826 S825 1.613 . S
N826 C829 1.350 . S
N827 S825 1.610 . S
N827 C828 1.351 . S
C828 C822 1.428 . S
C828 N827 1.351 . S
C828 C829 1.434 . S
C829 C820 1.429 . S
C829 N826 1.350 . S
C829 C828 1.434 . S
C830 C831 1.369 . S
C830 C832 1.419 . S
C830 H834 0.930 . S
C831 C830 1.369 . S
C831 C840 1.429 . S
C832 C830 1.419 . S
C832 C833 1.363 . S
C832 H835 0.929 . S
C833 C832 1.363 . S
C833 C839 1.428 . S
H834 C830 0.930 . S
H835 C832 0.929 . S
S836 N837 1.613 . S
S836 N838 1.610 1_545 S
N837 S836 1.613 . S
N837 C840 1.350 . S
N838 S836 1.610 1_565 S
N838 C839 1.351 1_565 S
C839 C833 1.428 . S
C839 N838 1.351 1_545 S
C839 C840 1.434 . S
C840 C831 1.429 . S
C840 N837 1.350 . S
C840 C839 1.434 . S
C841 C842 1.369 . S
C841 C843 1.419 . S
C841 H845 0.930 . S
C842 C841 1.369 . S
C842 C851 1.429 . S
C843 C841 1.419 . S
C843 C844 1.363 . S
C843 H846 0.929 . S
C844 C843 1.363 . S
C844 C850 1.428 . S
H845 C841 0.930 . S
H846 C843 0.929 . S
S847 N848 1.613 . S
S847 N849 1.610 1_655 S
N848 S847 1.613 . S
N848 C851 1.350 . S
N849 S847 1.610 1_455 S
N849 C850 1.351 1_455 S
C850 C844 1.428 . S
C850 N849 1.351 1_655 S
C850 C851 1.434 . S
C851 C842 1.429 . S
C851 N848 1.350 . S
C851 C850 1.434 . S
C852 C853 1.369 . S
C852 C854 1.419 . S
C852 H856 0.930 . S
C853 C852 1.369 . S
C853 C862 1.429 . S
C854 C852 1.419 . S
C854 C855 1.363 . S
C854 H857 0.929 . S
C855 C854 1.363 . S
C855 C861 1.428 . S
H856 C852 0.930 . S
H857 C854 0.929 . S
S858 N859 1.613 . S
S858 N860 1.610 . S
N859 S858 1.613 . S
N859 C862 1.350 . S
N860 S858 1.610 . S
N860 C861 1.351 . S
C861 C855 1.428 . S
C861 N860 1.351 . S
C861 C862 1.434 . S
C862 C853 1.429 . S
C862 N859 1.350 . S
C862 C861 1.434 . S
C863 C864 1.369 . S
C863 C865 1.419 . S
C863 H867 0.930 . S
C864 C863 1.369 . S
C864 C873 1.429 . S
C865 C863 1.419 . S
C865 C866 1.363 . S
C865 H868 0.929 . S
C866 C865 1.363 . S
C866 C872 1.428 . S
H867 C863 0.930 . S
H868 C865 0.929 . S
S869 N870 1.613 . S
S869 N871 1.610 . S
N870 S869 1.613 . S
N870 C873 1.350 . S
N871 S869 1.610 . S
N871 C872 1.351 . S
C872 C866 1.428 . S
C872 N871 1.351 . S
C872 C873 1.434 . S
C873 C864 1.429 . S
C873 N870 1.350 . S
C873 C872 1.434 . S
C874 C875 1.369 . S
C874 C876 1.419 . S
C874 H878 0.930 . S
C875 C874 1.369 . S
C875 C884 1.429 . S
C876 C874 1.419 . S
C876 C877 1.363 . S
C876 H879 0.929 . S
C877 C876 1.363 . S
C877 C883 1.428 . S
H878 C874 0.930 . S
H879 C876 0.929 . S
S880 N881 1.613 . S
S880 N882 1.610 . S
N881 S880 1.613 . S
N881 C884 1.350 . S
N882 S880 1.610 . S
N882 C883 1.351 . S
C883 C877 1.428 . S
C883 N882 1.351 . S
C883 C884 1.434 . S
C884 C875 1.429 . S
C884 N881 1.350 . S
C884 C883 1.434 . S
C885 C886 1.369 . S
C885 C887 1.419 . S
C885 H889 0.930 . S
C886 C885 1.369 . S
C886 C895 1.429 . S
C887 C885 1.419 . S
C887 C888 1.363 . S
C887 H890 0.929 . S
C888 C887 1.363 . S
C888 C894 1.428 . S
H889 C885 0.930 . S
H890 C887 0.929 . S
S891 N892 1.613 . S
S891 N893 1.610 . S
N892 S891 1.613 . S
N892 C895 1.350 . S
N893 S891 1.610 . S
N893 C894 1.351 . S
C894 C888 1.428 . S
C894 N893 1.351 . S
C894 C895 1.434 . S
C895 C886 1.429 . S
C895 N892 1.350 . S
C895 C894 1.434 . S
C896 C897 1.369 . S
C896 C898 1.419 . S
C896 H900 0.930 . S
C897 C896 1.369 . S
C897 C906 1.429 . S
C898 C896 1.419 . S
C898 C899 1.363 . S
C898 H901 0.929 . S
C899 C898 1.363 . S
C899 C905 1.428 . S
H900 C896 0.930 . S
H901 C898 0.929 . S
S902 N903 1.613 . S
S902 N904 1.610 . S
N903 S902 1.613 . S
N903 C906 1.350 . S
N904 S902 1.610 . S
N904 C905 1.351 . S
C905 C899 1.428 . S
C905 N904 1.351 . S
C905 C906 1.434 . S
C906 C897 1.429 . S
C906 N903 1.350 . S
C906 C905 1.434 . S
C907 C908 1.369 . S
C907 C909 1.419 . S
C907 H911 0.930 . S
C908 C907 1.369 . S
C908 C917 1.429 . S
C909 C907 1.419 . S
C909 C910 1.363 . S
C909 H912 0.929 . S
C910 C909 1.363 . S
C910 C916 1.428 . S
H911 C907 0.930 . S
H912 C909 0.929 . S
S913 N914 1.613 . S
S913 N915 1.610 . S
N914 S913 1.613 . S
N914 C917 1.350 . S
N915 S913 1.610 . S
N915 C916 1.351 . S
C916 C910 1.428 . S
C916 N915 1.351 . S
C916 C917 1.434 . S
C917 C908 1.429 . S
C917 N914 1.350 . S
C917 C916 1.434 . S
C918 C919 1.369 . S
C918 C920 1.419 . S
C918 H922 0.930 . S
C919 C918 1.369 . S
C919 C928 1.429 . S
C920 C918 1.419 . S
C920 C921 1.363 . S
C920 H923 0.929 . S
C921 C920 1.363 . S
C921 C927 1.428 . S
H922 C918 0.930 . S
H923 C920 0.929 . S
S924 N925 1.613 . S
S924 N926 1.610 . S
N925 S924 1.613 . S
N925 C928 1.350 . S
N926 S924 1.610 . S
N926 C927 1.351 . S
C927 C921 1.428 . S
C927 N926 1.351 . S
C927 C928 1.434 . S
C928 C919 1.429 . S
C928 N925 1.350 . S
C928 C927 1.434 . S
C929 C930 1.369 . S
C929 C931 1.419 . S
C929 H933 0.930 . S
C930 C929 1.369 . S
C930 C939 1.429 . S
C931 C929 1.419 . S
C931 C932 1.363 . S
C931 H934 0.929 . S
C932 C931 1.363 . S
C932 C938 1.428 . S
H933 C929 0.930 . S
H934 C931 0.929 . S
S935 N936 1.613 . S
S935 N937 1.610 . S
N936 S935 1.613 . S
N936 C939 1.350 . S
N937 S935 1.610 . S
N937 C938 1.351 . S
C938 C932 1.428 . S
C938 N937 1.351 . S
C938 C939 1.434 . S
C939 C930 1.429 . S
C939 N936 1.350 . S
C939 C938 1.434 . S
C940 C941 1.369 . S
C940 C942 1.419 . S
C940 H944 0.930 . S
C941 C940 1.369 . S
C941 C950 1.429 . S
C942 C940 1.419 . S
C942 C943 1.363 . S
C942 H945 0.929 . S
C943 C942 1.363 . S
C943 C949 1.428 . S
H944 C940 0.930 . S
H945 C942 0.929 . S
S946 N947 1.613 . S
S946 N948 1.610 . S
N947 S946 1.613 . S
N947 C950 1.350 . S
N948 S946 1.610 . S
N948 C949 1.351 . S
C949 C943 1.428 . S
C949 N948 1.351 . S
C949 C950 1.434 . S
C950 C941 1.429 . S
C950 N947 1.350 . S
C950 C949 1.434 . S
C951 C952 1.369 1_556 S
C951 C953 1.419 . S
C951 H955 0.930 . S
C952 C951 1.369 1_554 S
C952 C961 1.429 . S
C953 C951 1.419 . S
C953 C954 1.363 1_556 S
C953 H956 0.929 . S
C954 C953 1.363 1_554 S
C954 C960 1.428 . S
H955 C951 0.930 . S
H956 C953 0.929 . S
S957 N958 1.613 . S
S957 N959 1.610 . S
N958 S957 1.613 . S
N958 C961 1.350 . S
N959 S957 1.610 . S
N959 C960 1.351 . S
C960 C954 1.428 . S
C960 N959 1.351 . S
C960 C961 1.434 . S
C961 C952 1.429 . S
C961 N958 1.350 . S
C961 C960 1.434 . S
C962 C963 1.369 . S
C962 C964 1.419 . S
C962 H966 0.930 . S
C963 C962 1.369 . S
C963 C972 1.429 1_554 S
C964 C962 1.419 . S
C964 C965 1.363 . S
C964 H967 0.929 . S
C965 C964 1.363 . S
C965 C971 1.428 1_554 S
H966 C962 0.930 . S
H967 C964 0.929 . S
S968 N969 1.613 . S
S968 N970 1.610 . S
N969 S968 1.613 . S
N969 C972 1.350 . S
N970 S968 1.610 . S
N970 C971 1.351 . S
C971 C965 1.428 1_556 S
C971 N970 1.351 . S
C971 C972 1.434 . S
C972 C963 1.429 1_556 S
C972 N969 1.350 . S
C972 C971 1.434 . S
C973 C974 1.369 . S
C973 C975 1.419 . S
C973 H977 0.930 . S
C974 C973 1.369 . S
C974 C983 1.429 . S
C975 C973 1.419 . S
C975 C976 1.363 . S
C975 H978 0.929 . S
C976 C975 1.363 . S
C976 C982 1.428 . S
H977 C973 0.930 . S
H978 C975 0.929 . S
S979 N980 1.613 . S
S979 N981 1.610 . S
N980 S979 1.613 . S
N980 C983 1.350 . S
N981 S979 1.610 . S
N981 C982 1.351 . S
C982 C976 1.428 . S
C982 N981 1.351 . S
C982 C983 1.434 . S
C983 C974 1.429 . S
C983 N980 1.350 . S
C983 C982 1.434 . S
C984 C985 1.369 . S
C984 C986 1.419 . S
C984 H988 0.930 . S
C985 C984 1.369 . S
C985 C994 1.429 . S
C986 C984 1.419 . S
C986 C987 1.363 . S
C986 H989 0.929 . S
C987 C986 1.363 . S
C987 C993 1.428 . S
H988 C984 0.930 . S
H989 C986 0.929 . S
S990 N991 1.613 . S
S990 N992 1.610 . S
N991 S990 1.613 . S
N991 C994 1.350 . S
N992 S990 1.610 . S
N992 C993 1.351 . S
C993 C987 1.428 . S
C993 N992 1.351 . S
C993 C994 1.434 . S
C994 C985 1.429 . S
C994 N991 1.350 . S
C994 C993 1.434 . S
C995 C996 1.369 . S
C995 C997 1.419 . S
C995 H999 0.930 . S
C996 C995 1.369 . S
C996 C1005 1.429 . S
C997 C995 1.419 . S
C997 C998 1.363 . S
C997 H1000 0.929 . S
C998 C997 1.363 . S
C998 C1004 1.428 . S
H999 C995 0.930 . S
H1000 C997 0.929 . S
S1001 N1002 1.613 . S
S1001 N1003 1.610 . S
N1002 S1001 1.613 . S
N1002 C1005 1.350 . S
N1003 S1001 1.610 . S
N1003 C1004 1.351 . S
C1004 C998 1.428 . S
C1004 N1003 1.351 . S
C1004 C1005 1.434 . S
C1005 C996 1.429 . S
C1005 N1002 1.350 . S
C1005 C1004 1.434 . S
C1006 C1007 1.369 . S
C1006 C1008 1.419 . S
C1006 H1010 0.930 . S
C1007 C1006 1.369 . S
C1007 C1016 1.429 . S
C1008 C1006 1.419 . S
C1008 C1009 1.363 . S
C1008 H1011 0.929 . S
C1009 C1008 1.363 . S
C1009 C1015 1.428 . S
H1010 C1006 0.930 . S
H1011 C1008 0.929 . S
S1012 N1013 1.613 . S
S1012 N1014 1.610 . S
N1013 S1012 1.613 . S
N1013 C1016 1.350 . S
N1014 S1012 1.610 . S
N1014 C1015 1.351 . S
C1015 C1009 1.428 . S
C1015 N1014 1.351 . S
C1015 C1016 1.434 . S
C1016 C1007 1.429 . S
C1016 N1013 1.350 . S
C1016 C1015 1.434 . S
C1017 C1018 1.369 . S
C1017 C1019 1.419 . S
C1017 H1021 0.930 . S
C1018 C1017 1.369 . S
C1018 C1027 1.429 1_556 S
C1019 C1017 1.419 . S
C1019 C1020 1.363 . S
C1019 H1022 0.929 . S
C1020 C1019 1.363 . S
C1020 C1026 1.428 1_556 S
H1021 C1017 0.930 . S
H1022 C1019 0.929 . S
S1023 N1024 1.613 . S
S1023 N1025 1.610 . S
N1024 S1023 1.613 . S
N1024 C1027 1.350 . S
N1025 S1023 1.610 . S
N1025 C1026 1.351 . S
C1026 C1020 1.428 1_554 S
C1026 N1025 1.351 . S
C1026 C1027 1.434 . S
C1027 C1018 1.429 1_554 S
C1027 N1024 1.350 . S
C1027 C1026 1.434 . S
C1028 C1029 1.369 . S
C1028 C1030 1.419 . S
C1028 H1032 0.930 . S
C1029 C1028 1.369 . S
C1029 C1038 1.429 1_556 S
C1030 C1028 1.419 . S
C1030 C1031 1.363 . S
C1030 H1033 0.929 . S
C1031 C1030 1.363 . S
C1031 C1037 1.428 1_556 S
H1032 C1028 0.930 . S
H1033 C1030 0.929 . S
S1034 N1035 1.613 . S
S1034 N1036 1.610 . S
N1035 S1034 1.613 . S
N1035 C1038 1.350 . S
N1036 S1034 1.610 . S
N1036 C1037 1.351 . S
C1037 C1031 1.428 1_554 S
C1037 N1036 1.351 . S
C1037 C1038 1.434 . S
C1038 C1029 1.429 1_554 S
C1038 N1035 1.350 . S
C1038 C1037 1.434 . S
C1039 C1040 1.369 1_554 S
C1039 C1041 1.419 . S
C1039 H1043 0.930 . S
C1040 C1039 1.369 1_556 S
C1040 C1049 1.429 . S
C1041 C1039 1.419 . S
C1041 C1042 1.363 1_554 S
C1041 H1044 0.929 . S
C1042 C1041 1.363 1_556 S
C1042 C1048 1.428 . S
H1043 C1039 0.930 . S
H1044 C1041 0.929 . S
S1045 N1046 1.613 . S
S1045 N1047 1.610 . S
N1046 S1045 1.613 . S
N1046 C1049 1.350 . S
N1047 S1045 1.610 . S
N1047 C1048 1.351 . S
C1048 C1042 1.428 . S
C1048 N1047 1.351 . S
C1048 C1049 1.434 . S
C1049 C1040 1.429 . S
C1049 N1046 1.350 . S
C1049 C1048 1.434 . S
C1050 C1051 1.369 . S
C1050 C1052 1.419 . S
C1050 H1054 0.930 . S
C1051 C1050 1.369 . S
C1051 C1060 1.429 . S
C1052 C1050 1.419 . S
C1052 C1053 1.363 . S
C1052 H1055 0.929 . S
C1053 C1052 1.363 . S
C1053 C1059 1.428 . S
H1054 C1050 0.930 . S
H1055 C1052 0.929 . S
S1056 N1057 1.613 . S
S1056 N1058 1.610 . S
N1057 S1056 1.613 . S
N1057 C1060 1.350 . S
N1058 S1056 1.610 . S
N1058 C1059 1.351 . S
C1059 C1053 1.428 . S
C1059 N1058 1.351 . S
C1059 C1060 1.434 . S
C1060 C1051 1.429 . S
C1060 N1057 1.350 . S
C1060 C1059 1.434 . S
C1061 C1062 1.369 . S
C1061 C1063 1.419 . S
C1061 H1065 0.930 . S
C1062 C1061 1.369 . S
C1062 C1071 1.429 . S
C1063 C1061 1.419 . S
C1063 C1064 1.363 . S
C1063 H1066 0.929 . S
C1064 C1063 1.363 . S
C1064 C1070 1.428 . S
H1065 C1061 0.930 . S
H1066 C1063 0.929 . S
S1067 N1068 1.613 . S
S1067 N1069 1.610 . S
N1068 S1067 1.613 . S
N1068 C1071 1.350 . S
N1069 S1067 1.610 . S
N1069 C1070 1.351 . S
C1070 C1064 1.428 . S
C1070 N1069 1.351 . S
C1070 C1071 1.434 . S
C1071 C1062 1.429 . S
C1071 N1068 1.350 . S
C1071 C1070 1.434 . S
C1072 C1073 1.369 . S
C1072 C1074 1.419 . S
C1072 H1076 0.930 . S
C1073 C1072 1.369 . S
C1073 C1082 1.429 . S
C1074 C1072 1.419 . S
C1074 C1075 1.363 . S
C1074 H1077 0.929 . S
C1075 C1074 1.363 . S
C1075 C1081 1.428 . S
H1076 C1072 0.930 . S
H1077 C1074 0.929 . S
S1078 N1079 1.613 . S
S1078 N1080 1.610 . S
N1079 S1078 1.613 . S
N1079 C1082 1.350 . S
N1080 S1078 1.610 . S
N1080 C1081 1.351 . S
C1081 C1075 1.428 . S
C1081 N1080 1.351 . S
C1081 C1082 1.434 . S
C1082 C1073 1.429 . S
C1082 N1079 1.350 . S
C1082 C1081 1.434 . S
C1083 C1084 1.369 . S
C1083 C1085 1.419 . S
C1083 H1087 0.930 . S
C1084 C1083 1.369 . S
C1084 C1093 1.429 . S
C1085 C1083 1.419 . S
C1085 C1086 1.363 . S
C1085 H1088 0.929 . S
C1086 C1085 1.363 . S
C1086 C1092 1.428 . S
H1087 C1083 0.930 . S
H1088 C1085 0.929 . S
S1089 N1090 1.613 . S
S1089 N1091 1.610 . S
N1090 S1089 1.613 . S
N1090 C1093 1.350 . S
N1091 S1089 1.610 . S
N1091 C1092 1.351 . S
C1092 C1086 1.428 . S
C1092 N1091 1.351 . S
C1092 C1093 1.434 . S
C1093 C1084 1.429 . S
C1093 N1090 1.350 . S
C1093 C1092 1.434 . S
C1094 C1095 1.369 . S
C1094 C1096 1.419 . S
C1094 H1098 0.930 . S
C1095 C1094 1.369 . S
C1095 C1104 1.429 . S
C1096 C1094 1.419 . S
C1096 C1097 1.363 . S
C1096 H1099 0.929 . S
C1097 C1096 1.363 . S
C1097 C1103 1.428 . S
H1098 C1094 0.930 . S
H1099 C1096 0.929 . S
S1100 N1101 1.613 . S
S1100 N1102 1.610 . S
N1101 S1100 1.613 . S
N1101 C1104 1.350 . S
N1102 S1100 1.610 . S
N1102 C1103 1.351 . S
C1103 C1097 1.428 . S
C1103 N1102 1.351 . S
C1103 C1104 1.434 . S
C1104 C1095 1.429 . S
C1104 N1101 1.350 . S
C1104 C1103 1.434 . S
C1105 C1106 1.369 . S
C1105 C1107 1.419 . S
C1105 H1109 0.930 . S
C1106 C1105 1.369 . S
C1106 C1115 1.429 . S
C1107 C1105 1.419 . S
C1107 C1108 1.363 . S
C1107 H1110 0.929 . S
C1108 C1107 1.363 . S
C1108 C1114 1.428 . S
H1109 C1105 0.930 . S
H1110 C1107 0.929 . S
S1111 N1112 1.613 . S
S1111 N1113 1.610 . S
N1112 S1111 1.613 . S
N1112 C1115 1.350 . S
N1113 S1111 1.610 . S
N1113 C1114 1.351 . S
C1114 C1108 1.428 . S
C1114 N1113 1.351 . S
C1114 C1115 1.434 . S
C1115 C1106 1.429 . S
C1115 N1112 1.350 . S
C1115 C1114 1.434 . S
C1116 C1117 1.369 . S
C1116 C1118 1.419 . S
C1116 H1120 0.930 . S
C1117 C1116 1.369 . S
C1117 C1126 1.429 . S
C1118 C1116 1.419 . S
C1118 C1119 1.363 . S
C1118 H1121 0.929 . S
C1119 C1118 1.363 . S
C1119 C1125 1.428 . S
H1120 C1116 0.930 . S
H1121 C1118 0.929 . S
S1122 N1123 1.613 . S
S1122 N1124 1.610 . S
N1123 S1122 1.613 . S
N1123 C1126 1.350 . S
N1124 S1122 1.610 . S
N1124 C1125 1.351 . S
C1125 C1119 1.428 . S
C1125 N1124 1.351 . S
C1125 C1126 1.434 . S
C1126 C1117 1.429 . S
C1126 N1123 1.350 . S
C1126 C1125 1.434 . S
C1127 C1128 1.369 . S
C1127 C1129 1.419 . S
C1127 H1131 0.930 1_565 S
C1128 C1127 1.369 . S
C1128 C1137 1.429 . S
C1129 C1127 1.419 . S
C1129 C1130 1.363 . S
C1129 H1132 0.929 . S
C1130 C1129 1.363 . S
C1130 C1136 1.428 . S
H1131 C1127 0.930 1_545 S
H1132 C1129 0.929 . S
S1133 N1134 1.613 . S
S1133 N1135 1.610 . S
N1134 S1133 1.613 . S
N1134 C1137 1.350 . S
N1135 S1133 1.610 . S
N1135 C1136 1.351 . S
C1136 C1130 1.428 . S
C1136 N1135 1.351 . S
C1136 C1137 1.434 . S
C1137 C1128 1.429 . S
C1137 N1134 1.350 . S
C1137 C1136 1.434 . S
C1138 C1139 1.369 . S
C1138 C1140 1.419 . S
C1138 H1142 0.930 . S
C1139 C1138 1.369 . S
C1139 C1148 1.429 . S
C1140 C1138 1.419 . S
C1140 C1141 1.363 . S
C1140 H1143 0.929 . S
C1141 C1140 1.363 . S
C1141 C1147 1.428 . S
H1142 C1138 0.930 . S
H1143 C1140 0.929 . S
S1144 N1145 1.613 . S
S1144 N1146 1.610 . S
N1145 S1144 1.613 . S
N1145 C1148 1.350 . S
N1146 S1144 1.610 . S
N1146 C1147 1.351 . S
C1147 C1141 1.428 . S
C1147 N1146 1.351 . S
C1147 C1148 1.434 . S
C1148 C1139 1.429 . S
C1148 N1145 1.350 . S
C1148 C1147 1.434 . S
C1149 C1150 1.369 . S
C1149 C1151 1.419 . S
C1149 H1153 0.930 . S
C1150 C1149 1.369 . S
C1150 C1159 1.429 . S
C1151 C1149 1.419 . S
C1151 C1152 1.363 . S
C1151 H1154 0.929 . S
C1152 C1151 1.363 . S
C1152 C1158 1.428 . S
H1153 C1149 0.930 . S
H1154 C1151 0.929 . S
S1155 N1156 1.613 . S
S1155 N1157 1.610 . S
N1156 S1155 1.613 . S
N1156 C1159 1.350 . S
N1157 S1155 1.610 . S
N1157 C1158 1.351 . S
C1158 C1152 1.428 . S
C1158 N1157 1.351 . S
C1158 C1159 1.434 . S
C1159 C1150 1.429 . S
C1159 N1156 1.350 . S
C1159 C1158 1.434 . S
C1160 C1161 1.369 . S
C1160 C1162 1.419 . S
C1160 H1164 0.930 1_545 S
C1161 C1160 1.369 . S
C1161 C1170 1.429 . S
C1162 C1160 1.419 . S
C1162 C1163 1.363 . S
C1162 H1165 0.929 . S
C1163 C1162 1.363 . S
C1163 C1169 1.428 . S
H1164 C1160 0.930 1_565 S
H1165 C1162 0.929 . S
S1166 N1167 1.613 . S
S1166 N1168 1.610 . S
N1167 S1166 1.613 . S
N1167 C1170 1.350 . S
N1168 S1166 1.610 . S
N1168 C1169 1.351 . S
C1169 C1163 1.428 . S
C1169 N1168 1.351 . S
C1169 C1170 1.434 . S
C1170 C1161 1.429 . S
C1170 N1167 1.350 . S
C1170 C1169 1.434 . S
C1171 C1172 1.369 . S
C1171 C1173 1.419 . S
C1171 H1175 0.930 . S
C1172 C1171 1.369 . S
C1172 C1181 1.429 . S
C1173 C1171 1.419 . S
C1173 C1174 1.363 . S
C1173 H1176 0.929 . S
C1174 C1173 1.363 . S
C1174 C1180 1.428 . S
H1175 C1171 0.930 . S
H1176 C1173 0.929 . S
S1177 N1178 1.613 1_455 S
S1177 N1179 1.610 . S
N1178 S1177 1.613 1_655 S
N1178 C1181 1.350 . S
N1179 S1177 1.610 . S
N1179 C1180 1.351 1_455 S
C1180 C1174 1.428 . S
C1180 N1179 1.351 1_655 S
C1180 C1181 1.434 . S
C1181 C1172 1.429 . S
C1181 N1178 1.350 . S
C1181 C1180 1.434 . S
C1182 C1183 1.369 . S
C1182 C1184 1.419 . S
C1182 H1186 0.930 . S
C1183 C1182 1.369 . S
C1183 C1192 1.429 . S
C1184 C1182 1.419 . S
C1184 C1185 1.363 . S
C1184 H1187 0.929 . S
C1185 C1184 1.363 . S
C1185 C1191 1.428 . S
H1186 C1182 0.930 . S
H1187 C1184 0.929 . S
S1188 N1189 1.613 . S
S1188 N1190 1.610 . S
N1189 S1188 1.613 . S
N1189 C1192 1.350 . S
N1190 S1188 1.610 . S
N1190 C1191 1.351 . S
C1191 C1185 1.428 . S
C1191 N1190 1.351 . S
C1191 C1192 1.434 . S
C1192 C1183 1.429 . S
C1192 N1189 1.350 . S
C1192 C1191 1.434 . S
C1193 C1194 1.369 . S
C1193 C1195 1.419 . S
C1193 H1197 0.930 . S
C1194 C1193 1.369 . S
C1194 C1203 1.429 . S
C1195 C1193 1.419 . S
C1195 C1196 1.363 . S
C1195 H1198 0.929 . S
C1196 C1195 1.363 . S
C1196 C1202 1.428 . S
H1197 C1193 0.930 . S
H1198 C1195 0.929 . S
S1199 N1200 1.613 . S
S1199 N1201 1.610 . S
N1200 S1199 1.613 . S
N1200 C1203 1.350 . S
N1201 S1199 1.610 . S
N1201 C1202 1.351 . S
C1202 C1196 1.428 . S
C1202 N1201 1.351 . S
C1202 C1203 1.434 . S
C1203 C1194 1.429 . S
C1203 N1200 1.350 . S
C1203 C1202 1.434 . S
C1204 C1205 1.369 . S
C1204 C1206 1.419 . S
C1204 H1208 0.930 . S
C1205 C1204 1.369 . S
C1205 C1214 1.429 . S
C1206 C1204 1.419 . S
C1206 C1207 1.363 . S
C1206 H1209 0.929 1_655 S
C1207 C1206 1.363 . S
C1207 C1213 1.428 . S
H1208 C1204 0.930 . S
H1209 C1206 0.929 1_455 S
S1210 N1211 1.613 . S
S1210 N1212 1.610 . S
N1211 S1210 1.613 . S
N1211 C1214 1.350 . S
N1212 S1210 1.610 . S
N1212 C1213 1.351 . S
C1213 C1207 1.428 . S
C1213 N1212 1.351 . S
C1213 C1214 1.434 . S
C1214 C1205 1.429 . S
C1214 N1211 1.350 . S
C1214 C1213 1.434 . S
C1215 C1216 1.369 . S
C1215 C1217 1.419 . S
C1215 H1219 0.930 . S
C1216 C1215 1.369 . S
C1216 C1225 1.429 . S
C1217 C1215 1.419 . S
C1217 C1218 1.363 . S
C1217 H1220 0.929 . S
C1218 C1217 1.363 . S
C1218 C1224 1.428 . S
H1219 C1215 0.930 . S
H1220 C1217 0.929 . S
S1221 N1222 1.613 . S
S1221 N1223 1.610 . S
N1222 S1221 1.613 . S
N1222 C1225 1.350 . S
N1223 S1221 1.610 . S
N1223 C1224 1.351 . S
C1224 C1218 1.428 . S
C1224 N1223 1.351 . S
C1224 C1225 1.434 . S
C1225 C1216 1.429 . S
C1225 N1222 1.350 . S
C1225 C1224 1.434 . S
C1226 C1227 1.369 . S
C1226 C1228 1.419 . S
C1226 H1230 0.930 . S
C1227 C1226 1.369 . S
C1227 C1236 1.429 . S
C1228 C1226 1.419 . S
C1228 C1229 1.363 . S
C1228 H1231 0.929 . S
C1229 C1228 1.363 . S
C1229 C1235 1.428 . S
H1230 C1226 0.930 . S
H1231 C1228 0.929 . S
S1232 N1233 1.613 . S
S1232 N1234 1.610 1_545 S
N1233 S1232 1.613 . S
N1233 C1236 1.350 1_545 S
N1234 S1232 1.610 1_565 S
N1234 C1235 1.351 . S
C1235 C1229 1.428 . S
C1235 N1234 1.351 . S
C1235 C1236 1.434 . S
C1236 C1227 1.429 . S
C1236 N1233 1.350 1_565 S
C1236 C1235 1.434 . S
C1237 C1238 1.369 . S
C1237 C1239 1.419 . S
C1237 H1241 0.930 . S
C1238 C1237 1.369 . S
C1238 C1247 1.429 . S
C1239 C1237 1.419 . S
C1239 C1240 1.363 . S
C1239 H1242 0.929 . S
C1240 C1239 1.363 . S
C1240 C1246 1.428 . S
H1241 C1237 0.930 . S
H1242 C1239 0.929 . S
S1243 N1244 1.596 1_455 S
S1243 N1245 1.610 . S
N1244 S1243 1.596 1_655 S
N1244 C1247 1.334 1_655 S
N1245 S1243 1.610 . S
N1245 C1246 1.351 . S
C1246 C1240 1.428 . S
C1246 N1245 1.351 . S
C1246 C1247 1.434 . S
C1247 C1238 1.429 . S
C1247 N1244 1.334 1_455 S
C1247 C1246 1.434 . S
C1248 C1249 1.369 . S
C1248 C1250 1.419 1_655 S
C1248 H1252 0.930 . S
C1249 C1248 1.369 . S
C1249 C1258 1.429 . S
C1250 C1248 1.419 1_455 S
C1250 C1251 1.363 . S
C1250 H1253 0.929 . S
C1251 C1250 1.363 . S
C1251 C1257 1.428 . S
H1252 C1248 0.930 . S
H1253 C1250 0.929 . S
S1254 N1255 1.613 1_455 S
S1254 N1256 1.610 . S
N1255 S1254 1.613 1_655 S
N1255 C1258 1.351 . S
N1256 S1254 1.610 . S
N1256 C1257 1.351 . S
C1257 C1251 1.428 . S
C1257 N1256 1.351 . S
C1257 C1258 1.432 1_455 S
C1258 C1249 1.429 . S
C1258 N1255 1.351 . S
C1258 C1257 1.432 1_655 S
C1259 C1260 1.369 . S
C1259 C1261 1.419 . S
C1259 H1263 0.930 . S
C1260 C1259 1.369 . S
C1260 C1269 1.429 . S
C1261 C1259 1.419 . S
C1261 C1262 1.363 . S
C1261 H1264 0.929 . S
C1262 C1261 1.363 . S
C1262 C1268 1.428 . S
H1263 C1259 0.930 . S
H1264 C1261 0.929 . S
S1265 N1266 1.613 . S
S1265 N1267 1.610 . S
N1266 S1265 1.613 . S
N1266 C1269 1.350 . S
N1267 S1265 1.610 . S
N1267 C1268 1.351 . S
C1268 C1262 1.428 . S
C1268 N1267 1.351 . S
C1268 C1269 1.434 . S
C1269 C1260 1.429 . S
C1269 N1266 1.350 . S
C1269 C1268 1.434 . S
C1270 C1271 1.369 . S
C1270 C1272 1.419 1_565 S
C1270 H1274 0.930 . S
C1271 C1270 1.369 . S
C1271 C1280 1.429 . S
C1272 C1270 1.419 1_545 S
C1272 C1273 1.363 . S
C1272 H1275 0.929 . S
C1273 C1272 1.363 . S
C1273 C1279 1.428 . S
H1274 C1270 0.930 . S
H1275 C1272 0.929 . S
S1276 N1277 1.613 . S
S1276 N1278 1.610 1_565 S
N1277 S1276 1.613 . S
N1277 C1280 1.350 . S
N1278 S1276 1.610 1_545 S
N1278 C1279 1.351 . S
C1279 C1273 1.428 . S
C1279 N1278 1.351 . S
C1279 C1280 1.434 1_545 S
C1280 C1271 1.429 . S
C1280 N1277 1.350 . S
C1280 C1279 1.434 1_565 S
C1281 C1282 1.369 . S
C1281 C1283 1.419 . S
C1281 H1285 0.930 . S
C1282 C1281 1.369 . S
C1282 C1291 1.429 . S
C1283 C1281 1.419 . S
C1283 C1284 1.363 . S
C1283 H1286 0.929 . S
C1284 C1283 1.363 . S
C1284 C1290 1.428 . S
H1285 C1281 0.930 . S
H1286 C1283 0.929 . S
S1287 N1288 1.613 . S
S1287 N1289 1.610 . S
N1288 S1287 1.613 . S
N1288 C1291 1.350 . S
N1289 S1287 1.610 . S
N1289 C1290 1.351 . S
C1290 C1284 1.428 . S
C1290 N1289 1.351 . S
C1290 C1291 1.434 . S
C1291 C1282 1.429 . S
C1291 N1288 1.350 . S
C1291 C1290 1.434 . S
C1292 C1293 1.369 . S
C1292 C1294 1.419 . S
C1292 H1296 0.930 . S
C1293 C1292 1.369 . S
C1293 C1302 1.429 . S
C1294 C1292 1.419 . S
C1294 C1295 1.363 . S
C1294 H1297 0.929 . S
C1295 C1294 1.363 . S
C1295 C1301 1.428 . S
H1296 C1292 0.930 . S
H1297 C1294 0.929 . S
S1298 N1299 1.613 . S
S1298 N1300 1.610 . S
N1299 S1298 1.613 . S
N1299 C1302 1.350 . S
N1300 S1298 1.610 . S
N1300 C1301 1.351 . S
C1301 C1295 1.428 . S
C1301 N1300 1.351 . S
C1301 C1302 1.434 . S
C1302 C1293 1.429 . S
C1302 N1299 1.350 . S
C1302 C1301 1.434 . S
C1303 C1304 1.369 . S
C1303 C1305 1.419 . S
C1303 H1307 0.930 . S
C1304 C1303 1.369 . S
C1304 C1313 1.429 . S
C1305 C1303 1.419 . S
C1305 C1306 1.363 . S
C1305 H1308 0.929 1_565 S
C1306 C1305 1.363 . S
C1306 C1312 1.428 . S
H1307 C1303 0.930 . S
H1308 C1305 0.929 1_545 S
S1309 N1310 1.613 . S
S1309 N1311 1.610 . S
N1310 S1309 1.613 . S
N1310 C1313 1.350 . S
N1311 S1309 1.610 . S
N1311 C1312 1.351 . S
C1312 C1306 1.428 . S
C1312 N1311 1.351 . S
C1312 C1313 1.434 . S
C1313 C1304 1.429 . S
C1313 N1310 1.350 . S
C1313 C1312 1.434 . S
C1314 C1315 1.369 . S
C1314 C1316 1.419 . S
C1314 H1318 0.930 . S
C1315 C1314 1.369 . S
C1315 C1324 1.429 . S
C1316 C1314 1.419 . S
C1316 C1317 1.363 . S
C1316 H1319 0.929 . S
C1317 C1316 1.363 . S
C1317 C1323 1.428 . S
H1318 C1314 0.930 . S
H1319 C1316 0.929 . S
S1320 N1321 1.610 1_545 S
S1320 N1322 1.604 1_545 S
N1321 S1320 1.610 1_565 S
N1321 C1324 1.350 . S
N1322 S1320 1.604 1_565 S
N1322 C1323 1.351 . S
C1323 C1317 1.428 . S
C1323 N1322 1.351 . S
C1323 C1324 1.434 . S
C1324 C1315 1.429 . S
C1324 N1321 1.350 . S
C1324 C1323 1.434 . S
C1325 C1326 1.369 . S
C1325 C1327 1.419 . S
C1325 H1329 0.930 . S
C1326 C1325 1.369 . S
C1326 C1335 1.429 . S
C1327 C1325 1.419 . S
C1327 C1328 1.363 . S
C1327 H1330 0.929 . S
C1328 C1327 1.363 . S
C1328 C1334 1.428 . S
H1329 C1325 0.930 . S
H1330 C1327 0.929 . S
S1331 N1332 1.613 . S
S1331 N1333 1.610 . S
N1332 S1331 1.613 . S
N1332 C1335 1.350 . S
N1333 S1331 1.610 . S
N1333 C1334 1.351 . S
C1334 C1328 1.428 . S
C1334 N1333 1.351 . S
C1334 C1335 1.434 . S
C1335 C1326 1.429 . S
C1335 N1332 1.350 . S
C1335 C1334 1.434 . S
C1336 C1337 1.369 . S
C1336 C1338 1.419 . S
C1336 H1340 0.930 . S
C1337 C1336 1.369 . S
C1337 C1346 1.429 . S
C1338 C1336 1.419 . S
C1338 C1339 1.363 . S
C1338 H1341 0.929 . S
C1339 C1338 1.363 . S
C1339 C1345 1.428 . S
H1340 C1336 0.930 . S
H1341 C1338 0.929 . S
S1342 N1343 1.613 . S
S1342 N1344 1.610 . S
N1343 S1342 1.613 . S
N1343 C1346 1.350 . S
N1344 S1342 1.610 . S
N1344 C1345 1.351 . S
C1345 C1339 1.428 . S
C1345 N1344 1.351 . S
C1345 C1346 1.434 . S
C1346 C1337 1.429 . S
C1346 N1343 1.350 . S
C1346 C1345 1.434 . S
C1347 C1348 1.369 . S
C1347 C1349 1.419 1_565 S
C1347 H1351 0.930 . S
C1348 C1347 1.369 . S
C1348 C1357 1.429 1_554 S
C1349 C1347 1.419 1_545 S
C1349 C1350 1.363 1_554 S
C1349 H1352 0.929 . S
C1350 C1349 1.363 1_556 S
C1350 C1356 1.426 1_545 S
H1351 C1347 0.930 . S
H1352 C1349 0.929 . S
S1353 N1354 1.613 . S
S1353 N1355 1.610 1_565 S
N1354 S1353 1.613 . S
N1354 C1357 1.350 . S
N1355 S1353 1.610 1_545 S
N1355 C1356 1.345 1_545 S
C1356 C1350 1.426 1_565 S
C1356 N1355 1.345 1_565 S
C1356 C1357 1.443 . S
C1357 C1348 1.429 1_556 S
C1357 N1354 1.350 . S
C1357 C1356 1.443 . S
C1358 C1359 1.369 . S
C1358 C1360 1.419 1_455 S
C1358 H1362 0.930 . S
C1359 C1358 1.369 . S
C1359 C1368 1.429 1_554 S
C1360 C1358 1.419 1_655 S
C1360 C1361 1.363 1_554 S
C1360 H1363 0.929 . S
C1361 C1360 1.363 1_556 S
C1361 C1367 1.428 1_655 S
H1362 C1358 0.930 . S
H1363 C1360 0.929 . S
S1364 N1365 1.613 . S
S1364 N1366 1.610 1_455 S
N1365 S1364 1.613 . S
N1365 C1368 1.350 . S
N1366 S1364 1.610 1_655 S
N1366 C1367 1.351 1_655 S
C1367 C1361 1.428 1_455 S
C1367 N1366 1.351 1_455 S
C1367 C1368 1.434 . S
C1368 C1359 1.429 1_556 S
C1368 N1365 1.350 . S
C1368 C1367 1.434 . S
C1369 C1370 1.369 . S
C1369 C1371 1.419 . S
C1369 H1373 0.930 . S
C1370 C1369 1.369 . S
C1370 C1379 1.429 1_556 S
C1371 C1369 1.419 . S
C1371 C1372 1.363 1_556 S
C1371 H1374 0.929 . S
C1372 C1371 1.363 1_554 S
C1372 C1378 1.428 . S
H1373 C1369 0.930 . S
H1374 C1371 0.929 . S
S1375 N1376 1.613 . S
S1375 N1377 1.610 . S
N1376 S1375 1.613 . S
N1376 C1379 1.350 . S
N1377 S1375 1.610 . S
N1377 C1378 1.351 . S
C1378 C1372 1.428 . S
C1378 N1377 1.351 . S
C1378 C1379 1.434 . S
C1379 C1370 1.429 1_554 S
C1379 N1376 1.350 . S
C1379 C1378 1.434 . S
C1380 C1381 1.369 . S
C1380 C1382 1.419 . S
C1380 H1384 0.930 . S
C1381 C1380 1.369 . S
C1381 C1390 1.429 . S
C1382 C1380 1.419 . S
C1382 C1383 1.363 . S
C1382 H1385 0.929 . S
C1383 C1382 1.363 . S
C1383 C1389 1.428 . S
H1384 C1380 0.930 . S
H1385 C1382 0.929 . S
S1386 N1387 1.613 1_565 S
S1386 N1388 1.610 . S
N1387 S1386 1.613 1_545 S
N1387 C1390 1.350 . S
N1388 S1386 1.610 . S
N1388 C1389 1.351 1_565 S
C1389 C1383 1.428 . S
C1389 N1388 1.351 1_545 S
C1389 C1390 1.434 . S
C1390 C1381 1.429 . S
C1390 N1387 1.350 . S
C1390 C1389 1.434 . S
C1391 C1392 1.369 . S
C1391 C1393 1.419 . S
C1391 H1395 0.930 . S
C1392 C1391 1.369 . S
C1392 C1401 1.429 . S
C1393 C1391 1.419 . S
C1393 C1394 1.363 . S
C1393 H1396 0.929 . S
C1394 C1393 1.363 . S
C1394 C1400 1.428 . S
H1395 C1391 0.930 . S
H1396 C1393 0.929 . S
S1397 N1398 1.613 1_455 S
S1397 N1399 1.610 . S
N1398 S1397 1.613 1_655 S
N1398 C1401 1.350 . S
N1399 S1397 1.610 . S
N1399 C1400 1.351 1_455 S
C1400 C1394 1.428 . S
C1400 N1399 1.351 1_655 S
C1400 C1401 1.434 . S
C1401 C1392 1.429 . S
C1401 N1398 1.350 . S
C1401 C1400 1.434 . S
C1402 C1403 1.369 . S
C1402 C1404 1.419 . S
C1402 H1406 0.930 . S
C1403 C1402 1.369 . S
C1403 C1412 1.429 . S
C1404 C1402 1.419 . S
C1404 C1405 1.363 . S
C1404 H1407 0.929 . S
C1405 C1404 1.363 . S
C1405 C1411 1.428 . S
H1406 C1402 0.930 . S
H1407 C1404 0.929 . S
S1408 N1409 1.613 . S
S1408 N1410 1.610 . S
N1409 S1408 1.613 . S
N1409 C1412 1.350 . S
N1410 S1408 1.610 . S
N1410 C1411 1.351 . S
C1411 C1405 1.428 . S
C1411 N1410 1.351 . S
C1411 C1412 1.434 . S
C1412 C1403 1.429 . S
C1412 N1409 1.350 . S
C1412 C1411 1.434 . S
C1413 C1414 1.369 1_556 S
C1413 C1415 1.419 1_565 S
C1413 H1417 0.930 . S
C1414 C1413 1.369 1_554 S
C1414 C1423 1.417 1_565 S
C1415 C1413 1.419 1_545 S
C1415 C1416 1.363 . S
C1415 H1418 0.929 . S
C1416 C1415 1.363 . S
C1416 C1422 1.428 1_556 S
H1417 C1413 0.930 . S
H1418 C1415 0.929 . S
S1419 N1420 1.613 1_545 S
S1419 N1421 1.610 . S
N1420 S1419 1.613 1_565 S
N1420 C1423 1.338 1_565 S
N1421 S1419 1.610 . S
N1421 C1422 1.351 . S
C1422 C1416 1.428 1_554 S
C1422 N1421 1.351 . S
C1422 C1423 1.461 . S
C1423 C1414 1.417 1_545 S
C1423 N1420 1.338 1_545 S
C1423 C1422 1.461 . S
C1424 C1425 1.369 1_554 S
C1424 C1426 1.419 1_655 S
C1424 H1428 0.930 . S
C1425 C1424 1.369 1_556 S
C1425 C1434 1.429 . S
C1426 C1424 1.419 1_455 S
C1426 C1427 1.363 . S
C1426 H1429 0.929 . S
C1427 C1426 1.363 . S
C1427 C1433 1.428 1_554 S
H1428 C1424 0.930 . S
H1429 C1426 0.929 . S
S1430 N1431 1.613 . S
S1430 N1432 1.610 1_655 S
N1431 S1430 1.613 . S
N1431 C1434 1.350 . S
N1432 S1430 1.610 1_455 S
N1432 C1433 1.351 . S
C1433 C1427 1.428 1_556 S
C1433 N1432 1.351 . S
C1433 C1434 1.434 1_455 S
C1434 C1425 1.429 . S
C1434 N1431 1.350 . S
C1434 C1433 1.434 1_655 S
C1435 C1436 1.369 1_556 S
C1435 C1437 1.419 . S
C1435 H1439 0.930 . S
C1436 C1435 1.369 1_554 S
C1436 C1445 1.429 . S
C1437 C1435 1.419 . S
C1437 C1438 1.363 . S
C1437 H1440 0.929 . S
C1438 C1437 1.363 . S
C1438 C1444 1.428 1_556 S
H1439 C1435 0.930 . S
H1440 C1437 0.929 . S
S1441 N1442 1.613 . S
S1441 N1443 1.610 . S
N1442 S1441 1.613 . S
N1442 C1445 1.350 . S
N1443 S1441 1.610 . S
N1443 C1444 1.351 . S
C1444 C1438 1.428 1_554 S
C1444 N1443 1.351 . S
C1444 C1445 1.434 . S
C1445 C1436 1.429 . S
C1445 N1442 1.350 . S
C1445 C1444 1.434 . S
C1446 C1447 1.373 . S
C1446 C1448 1.396 1_455 S
C1446 H1450 0.951 . S
C1447 C1446 1.373 . S
C1447 C1456 1.429 . S
C1448 C1446 1.396 1_655 S
C1448 C1449 1.363 . S
C1448 H1451 0.929 . S
C1449 C1448 1.363 . S
C1449 C1455 1.428 . S
H1450 C1446 0.951 . S
H1451 C1448 0.929 . S
S1452 N1453 1.613 1_655 S
S1452 N1454 1.610 . S
N1453 S1452 1.613 1_455 S
N1453 C1456 1.350 . S
N1454 S1452 1.610 . S
N1454 C1455 1.351 . S
C1455 C1449 1.428 . S
C1455 N1454 1.351 . S
C1455 C1456 1.434 1_655 S
C1456 C1447 1.429 . S
C1456 N1453 1.350 . S
C1456 C1455 1.434 1_455 S
C1457 C1458 1.369 . S
C1457 C1459 1.419 . S
C1457 H1461 0.930 . S
C1458 C1457 1.369 . S
C1458 C1467 1.429 . S
C1459 C1457 1.419 . S
C1459 C1460 1.363 . S
C1459 H1462 0.929 . S
C1460 C1459 1.363 . S
C1460 C1466 1.428 . S
H1461 C1457 0.930 . S
H1462 C1459 0.929 . S
S1463 N1464 1.613 . S
S1463 N1465 1.610 . S
N1464 S1463 1.613 . S
N1464 C1467 1.350 . S
N1465 S1463 1.610 . S
N1465 C1466 1.351 . S
C1466 C1460 1.428 . S
C1466 N1465 1.351 . S
C1466 C1467 1.434 . S
C1467 C1458 1.429 . S
C1467 N1464 1.350 . S
C1467 C1466 1.434 . S
C1468 C1469 1.369 . S
C1468 C1470 1.419 1_565 S
C1468 H1472 0.930 . S
C1469 C1468 1.369 . S
C1469 C1478 1.429 1_565 S
C1470 C1468 1.419 1_545 S
C1470 C1471 1.363 . S
C1470 H1473 0.929 . S
C1471 C1470 1.363 . S
C1471 C1477 1.428 . S
H1472 C1468 0.930 . S
H1473 C1470 0.929 . S
S1474 N1475 1.613 . S
S1474 N1476 1.610 . S
N1475 S1474 1.613 . S
N1475 C1478 1.350 . S
N1476 S1474 1.610 . S
N1476 C1477 1.351 . S
C1477 C1471 1.428 . S
C1477 N1476 1.351 . S
C1477 C1478 1.434 . S
C1478 C1469 1.429 1_545 S
C1478 N1475 1.350 . S
C1478 C1477 1.434 . S
C1479 C1480 1.369 . S
C1479 C1481 1.419 . S
C1479 H1483 0.930 . S
C1480 C1479 1.369 . S
C1480 C1489 1.429 . S
C1481 C1479 1.419 . S
C1481 C1482 1.363 . S
C1481 H1484 0.929 . S
C1482 C1481 1.363 . S
C1482 C1488 1.428 . S
H1483 C1479 0.930 . S
H1484 C1481 0.929 . S
S1485 N1486 1.613 . S
S1485 N1487 1.610 . S
N1486 S1485 1.613 . S
N1486 C1489 1.350 . S
N1487 S1485 1.610 . S
N1487 C1488 1.351 . S
C1488 C1482 1.428 . S
C1488 N1487 1.351 . S
C1488 C1489 1.434 . S
C1489 C1480 1.429 . S
C1489 N1486 1.350 . S
C1489 C1488 1.434 . S
C1490 C1491 1.369 . S
C1490 C1492 1.419 . S
C1490 H1494 0.930 . S
C1491 C1490 1.369 . S
C1491 C1500 1.429 . S
C1492 C1490 1.419 . S
C1492 C1493 1.363 . S
C1492 H1495 0.929 . S
C1493 C1492 1.363 . S
C1493 C1499 1.428 . S
H1494 C1490 0.930 . S
H1495 C1492 0.929 . S
S1496 N1497 1.613 . S
S1496 N1498 1.610 . S
N1497 S1496 1.613 . S
N1497 C1500 1.350 . S
N1498 S1496 1.610 . S
N1498 C1499 1.351 . S
C1499 C1493 1.428 . S
C1499 N1498 1.351 . S
C1499 C1500 1.434 . S
C1500 C1491 1.429 . S
C1500 N1497 1.350 . S
C1500 C1499 1.434 . S
C1501 C1502 1.369 . S
C1501 C1503 1.419 . S
C1501 H1505 0.930 . S
C1502 C1501 1.369 . S
C1502 C1511 1.429 . S
C1503 C1501 1.419 . S
C1503 C1504 1.363 . S
C1503 H1506 0.929 . S
C1504 C1503 1.363 . S
C1504 C1510 1.428 . S
H1505 C1501 0.930 . S
H1506 C1503 0.929 . S
S1507 N1508 1.613 . S
S1507 N1509 1.610 . S
N1508 S1507 1.613 . S
N1508 C1511 1.350 . S
N1509 S1507 1.610 . S
N1509 C1510 1.351 . S
C1510 C1504 1.428 . S
C1510 N1509 1.351 . S
C1510 C1511 1.434 . S
C1511 C1502 1.429 . S
C1511 N1508 1.350 . S
C1511 C1510 1.434 . S
C1512 C1513 1.369 . S
C1512 C1514 1.419 . S
C1512 H1516 0.930 . S
C1513 C1512 1.369 . S
C1513 C1522 1.429 . S
C1514 C1512 1.419 . S
C1514 C1515 1.363 . S
C1514 H1517 0.929 . S
C1515 C1514 1.363 . S
C1515 C1521 1.428 . S
H1516 C1512 0.930 . S
H1517 C1514 0.929 . S
S1518 N1519 1.613 . S
S1518 N1520 1.610 . S
N1519 S1518 1.613 . S
N1519 C1522 1.350 . S
N1520 S1518 1.610 . S
N1520 C1521 1.351 . S
C1521 C1515 1.428 . S
C1521 N1520 1.351 . S
C1521 C1522 1.434 . S
C1522 C1513 1.429 . S
C1522 N1519 1.350 . S
C1522 C1521 1.434 . S
C1523 C1524 1.369 . S
C1523 C1525 1.419 . S
C1523 H1527 0.930 . S
C1524 C1523 1.369 . S
C1524 C1533 1.429 . S
C1525 C1523 1.419 . S
C1525 C1526 1.363 . S
C1525 H1528 0.929 . S
C1526 C1525 1.363 . S
C1526 C1532 1.428 . S
H1527 C1523 0.930 . S
H1528 C1525 0.929 . S
S1529 N1530 1.613 . S
S1529 N1531 1.610 . S
N1530 S1529 1.613 . S
N1530 C1533 1.350 . S
N1531 S1529 1.610 . S
N1531 C1532 1.351 . S
C1532 C1526 1.428 . S
C1532 N1531 1.351 . S
C1532 C1533 1.434 . S
C1533 C1524 1.429 . S
C1533 N1530 1.350 . S
C1533 C1532 1.434 . S
C1534 C1535 1.369 . S
C1534 C1536 1.419 . S
C1534 H1538 0.930 . S
C1535 C1534 1.369 . S
C1535 C1544 1.429 . S
C1536 C1534 1.419 . S
C1536 C1537 1.363 . S
C1536 H1539 0.929 . S
C1537 C1536 1.363 . S
C1537 C1543 1.428 . S
H1538 C1534 0.930 . S
H1539 C1536 0.929 . S
S1540 N1541 1.613 . S
S1540 N1542 1.610 . S
N1541 S1540 1.613 . S
N1541 C1544 1.350 . S
N1542 S1540 1.610 . S
N1542 C1543 1.351 . S
C1543 C1537 1.428 . S
C1543 N1542 1.351 . S
C1543 C1544 1.434 . S
C1544 C1535 1.429 . S
C1544 N1541 1.350 . S
C1544 C1543 1.434 . S
C1545 C1546 1.369 . S
C1545 C1547 1.419 . S
C1545 H1549 0.930 . S
C1546 C1545 1.369 . S
C1546 C1555 1.429 . S
C1547 C1545 1.419 . S
C1547 C1548 1.363 . S
C1547 H1550 0.929 . S
C1548 C1547 1.363 . S
C1548 C1554 1.428 . S
H1549 C1545 0.930 . S
H1550 C1547 0.929 . S
S1551 N1552 1.613 . S
S1551 N1553 1.610 . S
N1552 S1551 1.613 . S
N1552 C1555 1.350 . S
N1553 S1551 1.610 . S
N1553 C1554 1.351 . S
C1554 C1548 1.428 . S
C1554 N1553 1.351 . S
C1554 C1555 1.434 . S
C1555 C1546 1.429 . S
C1555 N1552 1.350 . S
C1555 C1554 1.434 . S
C1556 C1557 1.369 . S
C1556 C1558 1.419 . S
C1556 H1560 0.930 . S
C1557 C1556 1.369 . S
C1557 C1566 1.429 . S
C1558 C1556 1.419 . S
C1558 C1559 1.363 . S
C1558 H1561 0.929 . S
C1559 C1558 1.363 . S
C1559 C1565 1.428 . S
H1560 C1556 0.930 . S
H1561 C1558 0.929 . S
S1562 N1563 1.613 . S
S1562 N1564 1.610 . S
N1563 S1562 1.613 . S
N1563 C1566 1.350 . S
N1564 S1562 1.610 . S
N1564 C1565 1.351 . S
C1565 C1559 1.428 . S
C1565 N1564 1.351 . S
C1565 C1566 1.434 . S
C1566 C1557 1.429 . S
C1566 N1563 1.350 . S
C1566 C1565 1.434 . S
C1567 C1568 1.369 . S
C1567 C1569 1.419 . S
C1567 H1571 0.930 . S
C1568 C1567 1.369 . S
C1568 C1577 1.429 . S
C1569 C1567 1.419 . S
C1569 C1570 1.363 . S
C1569 H1572 0.929 . S
C1570 C1569 1.363 . S
C1570 C1576 1.428 . S
H1571 C1567 0.930 . S
H1572 C1569 0.929 . S
S1573 N1574 1.613 . S
S1573 N1575 1.610 . S
N1574 S1573 1.613 . S
N1574 C1577 1.350 . S
N1575 S1573 1.610 . S
N1575 C1576 1.351 . S
C1576 C1570 1.428 . S
C1576 N1575 1.351 . S
C1576 C1577 1.434 . S
C1577 C1568 1.429 . S
C1577 N1574 1.350 . S
C1577 C1576 1.434 . S
C1578 C1579 1.369 . S
C1578 C1580 1.419 . S
C1578 H1582 0.930 . S
C1579 C1578 1.369 . S
C1579 C1588 1.429 . S
C1580 C1578 1.419 . S
C1580 C1581 1.363 . S
C1580 H1583 0.929 . S
C1581 C1580 1.363 . S
C1581 C1587 1.428 . S
H1582 C1578 0.930 . S
H1583 C1580 0.929 . S
S1584 N1585 1.613 . S
S1584 N1586 1.610 . S
N1585 S1584 1.613 . S
N1585 C1588 1.350 . S
N1586 S1584 1.610 . S
N1586 C1587 1.351 . S
C1587 C1581 1.428 . S
C1587 N1586 1.351 . S
C1587 C1588 1.434 . S
C1588 C1579 1.429 . S
C1588 N1585 1.350 . S
C1588 C1587 1.434 . S
C1589 C1590 1.369 . S
C1589 C1591 1.419 . S
C1589 H1593 0.930 . S
C1590 C1589 1.369 . S
C1590 C1599 1.429 . S
C1591 C1589 1.419 . S
C1591 C1592 1.363 . S
C1591 H1594 0.929 . S
C1592 C1591 1.363 . S
C1592 C1598 1.428 . S
H1593 C1589 0.930 . S
H1594 C1591 0.929 . S
S1595 N1596 1.613 . S
S1595 N1597 1.610 . S
N1596 S1595 1.613 . S
N1596 C1599 1.350 . S
N1597 S1595 1.610 . S
N1597 C1598 1.351 . S
C1598 C1592 1.428 . S
C1598 N1597 1.351 . S
C1598 C1599 1.434 . S
C1599 C1590 1.429 . S
C1599 N1596 1.350 . S
C1599 C1598 1.434 . S
C1600 C1601 1.369 . S
C1600 C1602 1.419 . S
C1600 H1604 0.930 . S
C1601 C1600 1.369 . S
C1601 C1610 1.429 . S
C1602 C1600 1.419 . S
C1602 C1603 1.363 . S
C1602 H1605 0.929 . S
C1603 C1602 1.363 . S
C1603 C1609 1.428 . S
H1604 C1600 0.930 . S
H1605 C1602 0.929 . S
S1606 N1607 1.613 . S
S1606 N1608 1.610 . S
N1607 S1606 1.613 . S
N1607 C1610 1.350 . S
N1608 S1606 1.610 . S
N1608 C1609 1.351 . S
C1609 C1603 1.428 . S
C1609 N1608 1.351 . S
C1609 C1610 1.434 . S
C1610 C1601 1.429 . S
C1610 N1607 1.350 . S
C1610 C1609 1.434 . S
C1611 C1612 1.369 . S
C1611 C1613 1.419 . S
C1611 H1615 0.930 . S
C1612 C1611 1.369 . S
C1612 C1621 1.429 . S
C1613 C1611 1.419 . S
C1613 C1614 1.363 . S
C1613 H1616 0.929 . S
C1614 C1613 1.363 . S
C1614 C1620 1.428 . S
H1615 C1611 0.930 . S
H1616 C1613 0.929 . S
S1617 N1618 1.613 . S
S1617 N1619 1.610 . S
N1618 S1617 1.613 . S
N1618 C1621 1.350 . S
N1619 S1617 1.610 . S
N1619 C1620 1.351 . S
C1620 C1614 1.428 . S
C1620 N1619 1.351 . S
C1620 C1621 1.434 . S
C1621 C1612 1.429 . S
C1621 N1618 1.350 . S
C1621 C1620 1.434 . S
C1622 C1623 1.369 . S
C1622 C1624 1.419 . S
C1622 H1626 0.930 . S
C1623 C1622 1.369 . S
C1623 C1632 1.429 . S
C1624 C1622 1.419 . S
C1624 C1625 1.363 . S
C1624 H1627 0.929 . S
C1625 C1624 1.363 . S
C1625 C1631 1.428 . S
H1626 C1622 0.930 . S
H1627 C1624 0.929 . S
S1628 N1629 1.613 . S
S1628 N1630 1.610 . S
N1629 S1628 1.613 . S
N1629 C1632 1.350 . S
N1630 S1628 1.610 . S
N1630 C1631 1.351 . S
C1631 C1625 1.428 . S
C1631 N1630 1.351 . S
C1631 C1632 1.434 . S
C1632 C1623 1.429 . S
C1632 N1629 1.350 . S
C1632 C1631 1.434 . S
C1633 C1634 1.369 . S
C1633 C1635 1.419 . S
C1633 H1637 0.930 . S
C1634 C1633 1.369 . S
C1634 C1643 1.429 . S
C1635 C1633 1.419 . S
C1635 C1636 1.363 . S
C1635 H1638 0.929 . S
C1636 C1635 1.363 . S
C1636 C1642 1.428 . S
H1637 C1633 0.930 . S
H1638 C1635 0.929 . S
S1639 N1640 1.613 . S
S1639 N1641 1.610 . S
N1640 S1639 1.613 . S
N1640 C1643 1.350 . S
N1641 S1639 1.610 . S
N1641 C1642 1.351 . S
C1642 C1636 1.428 . S
C1642 N1641 1.351 . S
C1642 C1643 1.434 . S
C1643 C1634 1.429 . S
C1643 N1640 1.350 . S
C1643 C1642 1.434 . S
C1644 C1645 1.369 . S
C1644 C1646 1.419 . S
C1644 H1648 0.930 . S
C1645 C1644 1.369 . S
C1645 C1654 1.429 1_655 S
C1646 C1644 1.419 . S
C1646 C1647 1.363 1_655 S
C1646 H1649 0.929 . S
C1647 C1646 1.363 1_455 S
C1647 C1653 1.428 . S
H1648 C1644 0.930 . S
H1649 C1646 0.929 . S
S1650 N1651 1.613 . S
S1650 N1652 1.610 . S
N1651 S1650 1.613 . S
N1651 C1654 1.350 . S
N1652 S1650 1.610 . S
N1652 C1653 1.351 . S
C1653 C1647 1.428 . S
C1653 N1652 1.351 . S
C1653 C1654 1.434 . S
C1654 C1645 1.429 1_455 S
C1654 N1651 1.350 . S
C1654 C1653 1.434 . S
C1655 C1656 1.369 . S
C1655 C1657 1.419 . S
C1655 H1659 0.930 . S
C1656 C1655 1.369 . S
C1656 C1665 1.429 . S
C1657 C1655 1.419 . S
C1657 C1658 1.363 . S
C1657 H1660 0.929 . S
C1658 C1657 1.363 . S
C1658 C1664 1.428 . S
H1659 C1655 0.930 . S
H1660 C1657 0.929 . S
S1661 N1662 1.613 . S
S1661 N1663 1.610 . S
N1662 S1661 1.613 . S
N1662 C1665 1.350 . S
N1663 S1661 1.610 . S
N1663 C1664 1.351 . S
C1664 C1658 1.428 . S
C1664 N1663 1.351 . S
C1664 C1665 1.434 . S
C1665 C1656 1.429 . S
C1665 N1662 1.350 . S
C1665 C1664 1.434 . S
C1666 C1667 1.369 1_565 S
C1666 C1668 1.419 . S
C1666 H1670 0.930 . S
C1667 C1666 1.369 1_545 S
C1667 C1676 1.429 . S
C1668 C1666 1.419 . S
C1668 C1669 1.363 . S
C1668 H1671 0.929 . S
C1669 C1668 1.363 . S
C1669 C1675 1.428 1_565 S
H1670 C1666 0.930 . S
H1671 C1668 0.929 . S
S1672 N1673 1.613 . S
S1672 N1674 1.610 . S
N1673 S1672 1.613 . S
N1673 C1676 1.350 . S
N1674 S1672 1.610 . S
N1674 C1675 1.351 . S
C1675 C1669 1.428 1_545 S
C1675 N1674 1.351 . S
C1675 C1676 1.434 . S
C1676 C1667 1.429 . S
C1676 N1673 1.350 . S
C1676 C1675 1.434 . S
C1677 C1678 1.369 . S
C1677 C1679 1.419 . S
C1677 H1681 0.930 . S
C1678 C1677 1.369 . S
C1678 C1687 1.429 1_545 S
C1679 C1677 1.419 . S
C1679 C1680 1.363 1_545 S
C1679 H1682 0.929 . S
C1680 C1679 1.363 1_565 S
C1680 C1686 1.428 . S
H1681 C1677 0.930 . S
H1682 C1679 0.929 . S
S1683 N1684 1.613 . S
S1683 N1685 1.610 . S
N1684 S1683 1.613 . S
N1684 C1687 1.350 . S
N1685 S1683 1.610 . S
N1685 C1686 1.351 . S
C1686 C1680 1.428 . S
C1686 N1685 1.351 . S
C1686 C1687 1.434 . S
C1687 C1678 1.429 1_565 S
C1687 N1684 1.350 . S
C1687 C1686 1.434 . S
C1688 C1689 1.369 1_655 S
C1688 C1690 1.419 . S
C1688 H1692 0.930 . S
C1689 C1688 1.369 1_455 S
C1689 C1698 1.429 . S
C1690 C1688 1.419 . S
C1690 C1691 1.363 . S
C1690 H1693 0.929 . S
C1691 C1690 1.363 . S
C1691 C1697 1.428 1_655 S
H1692 C1688 0.930 . S
H1693 C1690 0.929 . S
S1694 N1695 1.613 . S
S1694 N1696 1.610 . S
N1695 S1694 1.613 . S
N1695 C1698 1.350 . S
N1696 S1694 1.610 . S
N1696 C1697 1.351 . S
C1697 C1691 1.428 1_455 S
C1697 N1696 1.351 . S
C1697 C1698 1.434 . S
C1698 C1689 1.429 . S
C1698 N1695 1.350 . S
C1698 C1697 1.434 . S
C1699 C1700 1.369 . S
C1699 C1701 1.419 . S
C1699 H1703 0.930 . S
C1700 C1699 1.369 . S
C1700 C1709 1.429 . S
C1701 C1699 1.419 . S
C1701 C1702 1.363 . S
C1701 H1704 0.929 . S
C1702 C1701 1.363 . S
C1702 C1708 1.428 . S
H1703 C1699 0.930 . S
H1704 C1701 0.929 . S
S1705 N1706 1.613 . S
S1705 N1707 1.610 . S
N1706 S1705 1.613 . S
N1706 C1709 1.350 . S
N1707 S1705 1.610 . S
N1707 C1708 1.351 . S
C1708 C1702 1.428 . S
C1708 N1707 1.351 . S
C1708 C1709 1.434 . S
C1709 C1700 1.429 . S
C1709 N1706 1.350 . S
C1709 C1708 1.434 . S
C1710 C1711 1.369 . S
C1710 C1712 1.419 1_655 S
C1710 H1714 0.930 . S
C1711 C1710 1.369 . S
C1711 C1720 1.429 . S
C1712 C1710 1.419 1_455 S
C1712 C1713 1.363 . S
C1712 H1715 0.929 . S
C1713 C1712 1.363 . S
C1713 C1719 1.428 . S
H1714 C1710 0.930 . S
H1715 C1712 0.929 . S
S1716 N1717 1.613 . S
S1716 N1718 1.610 1_655 S
N1717 S1716 1.613 . S
N1717 C1720 1.350 . S
N1718 S1716 1.610 1_455 S
N1718 C1719 1.351 . S
C1719 C1713 1.428 . S
C1719 N1718 1.351 . S
C1719 C1720 1.434 1_455 S
C1720 C1711 1.429 . S
C1720 N1717 1.350 . S
C1720 C1719 1.434 1_655 S
C1721 C1722 1.369 . S
C1721 C1723 1.419 . S
C1721 H1725 0.930 . S
C1722 C1721 1.369 . S
C1722 C1731 1.429 . S
C1723 C1721 1.419 . S
C1723 C1724 1.363 . S
C1723 H1726 0.929 . S
C1724 C1723 1.363 . S
C1724 C1730 1.428 . S
H1725 C1721 0.930 . S
H1726 C1723 0.929 . S
S1727 N1728 1.613 . S
S1727 N1729 1.610 . S
N1728 S1727 1.613 . S
N1728 C1731 1.350 . S
N1729 S1727 1.610 . S
N1729 C1730 1.351 . S
C1730 C1724 1.428 . S
C1730 N1729 1.351 . S
C1730 C1731 1.434 . S
C1731 C1722 1.429 . S
C1731 N1728 1.350 . S
C1731 C1730 1.434 . S
C1732 C1733 1.369 . S
C1732 C1734 1.419 1_545 S
C1732 H1736 0.930 . S
C1733 C1732 1.369 . S
C1733 C1742 1.429 . S
C1734 C1732 1.419 1_565 S
C1734 C1735 1.363 . S
C1734 H1737 0.929 . S
C1735 C1734 1.363 . S
C1735 C1741 1.428 . S
H1736 C1732 0.930 . S
H1737 C1734 0.929 . S
S1738 N1739 1.613 1_565 S
S1738 N1740 1.610 . S
N1739 S1738 1.613 1_545 S
N1739 C1742 1.350 . S
N1740 S1738 1.610 . S
N1740 C1741 1.351 . S
C1741 C1735 1.428 . S
C1741 N1740 1.351 . S
C1741 C1742 1.434 1_565 S
C1742 C1733 1.429 . S
C1742 N1739 1.350 . S
C1742 C1741 1.434 1_545 S
C1743 C1744 1.369 . S
C1743 C1745 1.419 1_655 S
C1743 H1747 0.930 . S
C1744 C1743 1.369 . S
C1744 C1753 1.429 . S
C1745 C1743 1.419 1_455 S
C1745 C1746 1.363 . S
C1745 H1748 0.929 . S
C1746 C1745 1.363 . S
C1746 C1752 1.428 . S
H1747 C1743 0.930 . S
H1748 C1745 0.929 . S
S1749 N1750 1.613 1_455 S
S1749 N1751 1.610 . S
N1750 S1749 1.613 1_655 S
N1750 C1753 1.350 . S
N1751 S1749 1.610 . S
N1751 C1752 1.351 . S
C1752 C1746 1.428 . S
C1752 N1751 1.351 . S
C1752 C1753 1.434 1_455 S
C1753 C1744 1.429 . S
C1753 N1750 1.350 . S
C1753 C1752 1.434 1_655 S
C1754 C1755 1.369 . S
C1754 C1756 1.419 . S
C1754 H1758 0.930 . S
C1755 C1754 1.369 . S
C1755 C1764 1.429 . S
C1756 C1754 1.419 . S
C1756 C1757 1.363 . S
C1756 H1759 0.929 . S
C1757 C1756 1.363 . S
C1757 C1763 1.428 . S
H1758 C1754 0.930 . S
H1759 C1756 0.929 . S
S1760 N1761 1.613 . S
S1760 N1762 1.610 . S
N1761 S1760 1.613 . S
N1761 C1764 1.350 . S
N1762 S1760 1.610 . S
N1762 C1763 1.351 . S
C1763 C1757 1.428 . S
C1763 N1762 1.351 . S
C1763 C1764 1.434 . S
C1764 C1755 1.429 . S
C1764 N1761 1.350 . S
C1764 C1763 1.434 . S
C1765 C1766 1.369 . S
C1765 C1767 1.419 1_545 S
C1765 H1769 0.930 . S
C1766 C1765 1.369 . S
C1766 C1775 1.429 . S
C1767 C1765 1.419 1_565 S
C1767 C1768 1.363 . S
C1767 H1770 0.929 . S
C1768 C1767 1.363 . S
C1768 C1774 1.428 . S
H1769 C1765 0.930 . S
H1770 C1767 0.929 . S
S1771 N1772 1.613 1_565 S
S1771 N1773 1.610 . S
N1772 S1771 1.613 1_545 S
N1772 C1775 1.350 . S
N1773 S1771 1.610 . S
N1773 C1774 1.351 . S
C1774 C1768 1.428 . S
C1774 N1773 1.351 . S
C1774 C1775 1.434 1_565 S
C1775 C1766 1.429 . S
C1775 N1772 1.350 . S
C1775 C1774 1.434 1_545 S
C1776 C1777 1.369 . S
C1776 C1778 1.419 . S
C1776 H1780 0.930 . S
C1777 C1776 1.369 . S
C1777 C1786 1.429 . S
C1778 C1776 1.419 . S
C1778 C1779 1.363 . S
C1778 H1781 0.929 . S
C1779 C1778 1.363 . S
C1779 C1785 1.428 . S
H1780 C1776 0.930 . S
H1781 C1778 0.929 . S
S1782 N1783 1.613 . S
S1782 N1784 1.610 . S
N1783 S1782 1.613 . S
N1783 C1786 1.350 . S
N1784 S1782 1.610 . S
N1784 C1785 1.351 . S
C1785 C1779 1.428 . S
C1785 N1784 1.351 . S
C1785 C1786 1.434 . S
C1786 C1777 1.429 . S
C1786 N1783 1.350 . S
C1786 C1785 1.434 . S
C1787 C1788 1.369 . S
C1787 C1789 1.419 . S
C1787 H1791 0.930 . S
C1788 C1787 1.369 . S
C1788 C1797 1.429 . S
C1789 C1787 1.419 . S
C1789 C1790 1.363 . S
C1789 H1792 0.929 . S
C1790 C1789 1.363 . S
C1790 C1796 1.428 . S
H1791 C1787 0.930 . S
H1792 C1789 0.929 . S
S1793 N1794 1.613 . S
S1793 N1795 1.610 . S
N1794 S1793 1.613 . S
N1794 C1797 1.350 . S
N1795 S1793 1.610 . S
N1795 C1796 1.351 . S
C1796 C1790 1.428 . S
C1796 N1795 1.351 . S
C1796 C1797 1.434 . S
C1797 C1788 1.429 . S
C1797 N1794 1.350 . S
C1797 C1796 1.434 . S
C1798 C1799 1.369 . S
C1798 C1800 1.419 . S
C1798 H1802 0.930 . S
C1799 C1798 1.369 . S
C1799 C1808 1.429 . S
C1800 C1798 1.419 . S
C1800 C1801 1.363 . S
C1800 H1803 0.929 . S
C1801 C1800 1.363 . S
C1801 C1807 1.428 . S
H1802 C1798 0.930 . S
H1803 C1800 0.929 . S
S1804 N1805 1.613 . S
S1804 N1806 1.610 . S
N1805 S1804 1.613 . S
N1805 C1808 1.350 . S
N1806 S1804 1.610 . S
N1806 C1807 1.351 . S
C1807 C1801 1.428 . S
C1807 N1806 1.351 . S
C1807 C1808 1.434 . S
C1808 C1799 1.429 . S
C1808 N1805 1.350 . S
C1808 C1807 1.434 . S
C1809 C1810 1.369 . S
C1809 C1811 1.419 . S
C1809 H1813 0.930 . S
C1810 C1809 1.369 . S
C1810 C1819 1.429 . S
C1811 C1809 1.419 . S
C1811 C1812 1.363 . S
C1811 H1814 0.929 . S
C1812 C1811 1.363 . S
C1812 C1818 1.428 . S
H1813 C1809 0.930 . S
H1814 C1811 0.929 . S
S1815 N1816 1.613 . S
S1815 N1817 1.610 . S
N1816 S1815 1.613 . S
N1816 C1819 1.350 . S
N1817 S1815 1.610 . S
N1817 C1818 1.351 . S
C1818 C1812 1.428 . S
C1818 N1817 1.351 . S
C1818 C1819 1.434 . S
C1819 C1810 1.429 . S
C1819 N1816 1.350 . S
C1819 C1818 1.434 . S
C1820 C1821 1.369 . S
C1820 C1822 1.419 . S
C1820 H1824 0.930 . S
C1821 C1820 1.369 . S
C1821 C1830 1.429 . S
C1822 C1820 1.419 . S
C1822 C1823 1.363 . S
C1822 H1825 0.929 . S
C1823 C1822 1.363 . S
C1823 C1829 1.428 . S
H1824 C1820 0.930 . S
H1825 C1822 0.929 . S
S1826 N1827 1.613 . S
S1826 N1828 1.610 . S
N1827 S1826 1.613 . S
N1827 C1830 1.350 . S
N1828 S1826 1.610 . S
N1828 C1829 1.351 . S
C1829 C1823 1.428 . S
C1829 N1828 1.351 . S
C1829 C1830 1.434 . S
C1830 C1821 1.429 . S
C1830 N1827 1.350 . S
C1830 C1829 1.434 . S
C1831 C1832 1.369 . S
C1831 C1833 1.419 . S
C1831 H1835 0.930 . S
C1832 C1831 1.369 . S
C1832 C1841 1.429 . S
C1833 C1831 1.419 . S
C1833 C1834 1.363 . S
C1833 H1836 0.929 . S
C1834 C1833 1.363 . S
C1834 C1840 1.428 . S
H1835 C1831 0.930 . S
H1836 C1833 0.929 . S
S1837 N1838 1.613 . S
S1837 N1839 1.610 . S
N1838 S1837 1.613 . S
N1838 C1841 1.350 . S
N1839 S1837 1.610 . S
N1839 C1840 1.351 . S
C1840 C1834 1.428 . S
C1840 N1839 1.351 . S
C1840 C1841 1.434 . S
C1841 C1832 1.429 . S
C1841 N1838 1.350 . S
C1841 C1840 1.434 . S
C1842 C1843 1.369 . S
C1842 C1844 1.419 . S
C1842 H1846 0.930 . S
C1843 C1842 1.369 . S
C1843 C1852 1.429 . S
C1844 C1842 1.419 . S
C1844 C1845 1.363 . S
C1844 H1847 0.929 . S
C1845 C1844 1.363 . S
C1845 C1851 1.428 . S
H1846 C1842 0.930 . S
H1847 C1844 0.929 . S
S1848 N1849 1.613 . S
S1848 N1850 1.610 . S
N1849 S1848 1.613 . S
N1849 C1852 1.350 . S
N1850 S1848 1.610 . S
N1850 C1851 1.351 . S
C1851 C1845 1.428 . S
C1851 N1850 1.351 . S
C1851 C1852 1.434 . S
C1852 C1843 1.429 . S
C1852 N1849 1.350 . S
C1852 C1851 1.434 . S
C1853 C1854 1.369 . S
C1853 C1855 1.419 . S
C1853 H1857 0.930 . S
C1854 C1853 1.369 . S
C1854 C1863 1.429 . S
C1855 C1853 1.419 . S
C1855 C1856 1.363 . S
C1855 H1858 0.929 . S
C1856 C1855 1.363 . S
C1856 C1862 1.428 . S
H1857 C1853 0.930 . S
H1858 C1855 0.929 . S
S1859 N1860 1.613 . S
S1859 N1861 1.610 . S
N1860 S1859 1.613 . S
N1860 C1863 1.350 . S
N1861 S1859 1.610 . S
N1861 C1862 1.351 . S
C1862 C1856 1.428 . S
C1862 N1861 1.351 . S
C1862 C1863 1.434 . S
C1863 C1854 1.429 . S
C1863 N1860 1.350 . S
C1863 C1862 1.434 . S
C1864 C1865 1.369 . S
C1864 C1866 1.419 . S
C1864 H1868 0.930 . S
C1865 C1864 1.369 . S
C1865 C1874 1.429 . S
C1866 C1864 1.419 . S
C1866 C1867 1.363 . S
C1866 H1869 0.929 . S
C1867 C1866 1.363 . S
C1867 C1873 1.428 . S
H1868 C1864 0.930 . S
H1869 C1866 0.929 . S
S1870 N1871 1.613 . S
S1870 N1872 1.610 . S
N1871 S1870 1.613 . S
N1871 C1874 1.350 . S
N1872 S1870 1.610 . S
N1872 C1873 1.351 . S
C1873 C1867 1.428 . S
C1873 N1872 1.351 . S
C1873 C1874 1.434 . S
C1874 C1865 1.429 . S
C1874 N1871 1.350 . S
C1874 C1873 1.434 . S
C1875 C1876 1.369 . S
C1875 C1877 1.419 . S
C1875 H1879 0.930 . S
C1876 C1875 1.369 . S
C1876 C1885 1.429 . S
C1877 C1875 1.419 . S
C1877 C1878 1.363 . S
C1877 H1880 0.929 . S
C1878 C1877 1.363 . S
C1878 C1884 1.428 . S
H1879 C1875 0.930 . S
H1880 C1877 0.929 . S
S1881 N1882 1.613 . S
S1881 N1883 1.610 . S
N1882 S1881 1.613 . S
N1882 C1885 1.350 . S
N1883 S1881 1.610 . S
N1883 C1884 1.351 . S
C1884 C1878 1.428 . S
C1884 N1883 1.351 . S
C1884 C1885 1.434 . S
C1885 C1876 1.429 . S
C1885 N1882 1.350 . S
C1885 C1884 1.434 . S
C1886 C1887 1.369 . S
C1886 C1888 1.419 . S
C1886 H1890 0.930 . S
C1887 C1886 1.369 . S
C1887 C1896 1.429 . S
C1888 C1886 1.419 . S
C1888 C1889 1.363 . S
C1888 H1891 0.929 . S
C1889 C1888 1.363 . S
C1889 C1895 1.428 . S
H1890 C1886 0.930 . S
H1891 C1888 0.929 . S
S1892 N1893 1.613 . S
S1892 N1894 1.610 . S
N1893 S1892 1.613 . S
N1893 C1896 1.350 . S
N1894 S1892 1.610 . S
N1894 C1895 1.351 . S
C1895 C1889 1.428 . S
C1895 N1894 1.351 . S
C1895 C1896 1.434 . S
C1896 C1887 1.429 . S
C1896 N1893 1.350 . S
C1896 C1895 1.434 . S
C1897 C1898 1.369 . S
C1897 C1899 1.419 . S
C1897 H1901 0.930 . S
C1898 C1897 1.369 . S
C1898 C1907 1.429 . S
C1899 C1897 1.419 . S
C1899 C1900 1.363 . S
C1899 H1902 0.929 . S
C1900 C1899 1.363 . S
C1900 C1906 1.428 . S
H1901 C1897 0.930 . S
H1902 C1899 0.929 . S
S1903 N1904 1.613 . S
S1903 N1905 1.610 . S
N1904 S1903 1.613 . S
N1904 C1907 1.350 . S
N1905 S1903 1.610 . S
N1905 C1906 1.351 . S
C1906 C1900 1.428 . S
C1906 N1905 1.351 . S
C1906 C1907 1.434 . S
C1907 C1898 1.429 . S
C1907 N1904 1.350 . S
C1907 C1906 1.434 . S
C721 C1 1.494 . S
C723 C46 1.466 . S
C732 C6 1.467 . S
C734 C21 1.497 1_545 S
C743 C41 1.493 1_655 S
C745 C26 1.467 . S
C754 C61 1.512 . S
C756 C86 1.488 . S
C765 C106 1.490 . S
C767 C81 1.513 1_565 S
C776 C101 1.510 1_455 S
C778 C66 1.486 . S
C787 C129 1.494 . S
C789 C176 1.466 . S
C798 C149 1.499 1_565 S
C800 C136 1.472 . S
C809 C169 1.499 1_455 S
C811 C156 1.472 . S
C820 C189 1.514 . S
C822 C216 1.485 . S
C831 C236 1.482 . S
C833 C209 1.512 1_545 S
C842 C196 1.487 . S
C844 C229 1.515 1_655 S
C853 C286 1.492 . S
C855 C241 1.520 . S
C864 C261 1.515 . S
C866 C246 1.487 . S
C875 C266 1.484 . S
C877 C281 1.517 . S
C886 C301 1.521 . S
C888 C326 1.493 . S
C897 C346 1.491 . S
C899 C321 1.523 . S
C908 C306 1.495 . S
C910 C341 1.526 . S
C919 C369 1.522 . S
C921 C416 1.486 . S
C930 C389 1.528 . S
C932 C376 1.493 . S
C941 C396 1.488 . S
C943 C409 1.526 . S
C952 C456 1.428 1_554 S
C954 C429 1.455 . S
C963 C449 1.453 . S
C965 C476 1.425 1_554 S
C974 C436 1.424 1_554 S
C976 C469 1.457 . S
C985 C481 1.522 . S
C987 C526 1.487 . S
C996 C501 1.527 . S
C998 C486 1.493 . S
C1007 C521 1.527 . S
C1009 C506 1.490 . S
C1018 C541 1.455 . S
C1020 C566 1.422 1_556 S
C1029 C561 1.453 . S
C1031 C586 1.423 1_556 S
C1040 C581 1.455 . S
C1042 C546 1.428 1_556 S
C1051 C609 1.515 . S
C1053 C656 1.485 . S
C1062 C629 1.521 . S
C1064 C616 1.490 . S
C1073 C636 1.493 . S
C1075 C649 1.520 . S
C1084 C669 1.521 . S
C1086 C696 1.492 . S
C1095 C689 1.526 . S
C1097 C716 1.498 . S
C1106 C676 1.492 . S
C1108 C709 1.522 . S
C1117 C16 1.508 . S
C1119 C401 1.531 . S
C1128 C361 1.532 1_565 S
C1130 C36 1.508 . S
C1139 C56 1.504 . S
C1141 C381 1.529 1_455 S
C1150 C76 1.360 . S
C1152 C681 1.388 . S
C1161 C701 1.387 1_545 S
C1163 C96 1.360 . S
C1172 C116 1.351 . S
C1174 C661 1.383 1_655 S
C1183 C529 1.533 . S
C1185 C126 1.508 . S
C1194 C146 1.503 . S
C1196 C489 1.530 1_545 S
C1205 C166 1.507 . S
C1207 C509 1.532 1_655 S
C1216 C329 1.383 . S
C1218 C186 1.357 . S
C1227 C349 1.382 1_565 S
C1229 C206 1.354 . S
C1238 C309 1.388 1_455 S
C1240 C226 1.354 . S
C1249 C256 1.440 . S
C1251 C641 1.465 . S
C1260 C276 1.432 . S
C1262 C601 1.462 . S
C1271 C621 1.461 . S
C1273 C296 1.433 . S
C1282 C201 1.402 . S
C1284 C316 1.368 . S
C1293 C221 1.400 . S
C1295 C336 1.368 . S
C1304 C181 1.406 . S
C1306 C356 1.372 . S
C1315 C49 1.518 . S
C1317 C366 1.491 . S
C1326 C386 1.495 . S
C1328 C9 1.520 . S
C1337 C406 1.496 . S
C1339 C29 1.521 . S
C1348 C569 1.400 . S
C1350 C426 1.356 1_556 S
C1359 C589 1.399 . S
C1361 C446 1.357 1_556 S
C1370 C466 1.349 1_556 S
C1372 C549 1.403 . S
C1381 C161 1.518 . S
C1383 C496 1.492 . S
C1392 C121 1.518 . S
C1394 C516 1.491 . S
C1403 C141 1.522 . S
C1405 C536 1.494 . S
C1414 C556 1.358 1_554 S
C1416 C441 1.397 . S
C1425 C461 1.405 . S
C1427 C576 1.350 1_554 S
C1436 C596 1.360 1_554 S
C1438 C421 1.399 . S
C1447 C606 1.433 . S
C1449 C289 1.461 . S
C1458 C626 1.432 . S
C1460 C249 1.462 . S
C1469 C646 1.435 . S
C1471 C269 1.465 . S
C1480 C666 1.375 . S
C1482 C89 1.401 . S
C1491 C109 1.403 . S
C1493 C686 1.368 . S
C1502 C69 1.404 . S
C1504 C706 1.368 . S
C1513 C588 1.895 . S
C1515 C8 1.912 . S
C1524 C548 1.902 . S
C1526 C28 1.911 . S
C1535 C48 1.909 . S
C1537 C568 1.896 . S
C1546 C268 2.089 . S
C1548 C68 2.086 . S
C1557 C88 2.081 . S
C1559 C288 2.089 . S
C1568 C108 2.087 . S
C1570 C248 2.091 . S
C1579 C139 1.910 . S
C1581 C479 1.899 . S
C1590 C159 1.916 . S
C1592 C439 1.896 . S
C1601 C179 1.918 . S
C1603 C459 1.893 . S
C1612 C639 2.088 . S
C1614 C199 2.082 . S
C1623 C659 2.095 . S
C1625 C219 2.081 . S
C1634 C619 2.088 . S
C1636 C239 2.086 . S
C1645 C308 2.136 . S
C1647 C508 2.144 . S
C1656 C328 2.129 . S
C1658 C528 2.147 . S
C1667 C348 2.128 . S
C1669 C488 2.147 . S
C1678 C379 2.148 . S
C1680 C719 2.131 . S
C1689 C679 2.128 . S
C1691 C399 2.144 . S
C1700 C419 2.145 . S
C1702 C699 2.134 . S
C1711 C99 1.471 . S
C1713 C19 1.473 . S
C1722 C119 1.468 . S
C1724 C39 1.473 . S
C1733 C79 1.468 . S
C1735 C59 1.473 . S
C1744 C128 1.471 . S
C1746 C208 1.471 . S
C1755 C228 1.475 . S
C1757 C148 1.476 . S
C1766 C168 1.478 . S
C1768 C188 1.476 . S
C1777 C339 1.532 . S
C1779 C259 1.537 . S
C1788 C359 1.536 . S
C1790 C279 1.537 . S
C1799 C319 1.535 . S
C1801 C299 1.537 . S
C1810 C448 1.627 . S
C1812 C368 1.654 . S
C1821 C388 1.653 . S
C1823 C468 1.631 . S
C1832 C408 1.645 . S
C1834 C428 1.624 . S
C1843 C499 1.648 . S
C1845 C579 1.626 . S
C1854 C599 1.620 . S
C1856 C519 1.649 . S
C1865 C539 1.652 . S
C1867 C559 1.630 . S
C1876 C608 1.536 . S
C1878 C688 1.533 . S
C1887 C708 1.532 . S
C1889 C628 1.537 . S
C1898 C648 1.537 . S
C1900 C668 1.536 . S
