# Generated by pormake.
# Topology unb, (4)-cn, num edge types: 1
# Building blocks:
#     Node 0, Type 0, BuildingBlock: QUQFOY_clean_sbu_3, # of connection points: 4
#     Node 1, Type 0, BuildingBlock: QUQFOY_clean_sbu_3, # of connection points: 4
#     Node 2, Type 0, BuildingBlock: QUQFOY_clean_sbu_3, # of connection points: 4
#     Node 3, Type 0, BuildingBlock: QUQFOY_clean_sbu_3, # of connection points: 4
#     Node 4, Type 0, BuildingBlock: QUQFOY_clean_sbu_3, # of connection points: 4
#     Node 5, Type 0, BuildingBlock: QUQFOY_clean_sbu_3, # of connection points: 4
#     Node 6, Type 0, BuildingBlock: QUQFOY_clean_sbu_3, # of connection points: 4
#     Node 7, Type 0, BuildingBlock: QUQFOY_clean_sbu_3, # of connection points: 4
#     Node 8, Type 0, BuildingBlock: QUQFOY_clean_sbu_3, # of connection points: 4
#     Node 9, Type 0, BuildingBlock: QUQFOY_clean_sbu_3, # of connection points: 4
#     Node 10, Type 0, BuildingBlock: QUQFOY_clean_sbu_3, # of connection points: 4
#     Node 11, Type 0, BuildingBlock: QUQFOY_clean_sbu_3, # of connection points: 4
#     Node 12, Type 0, BuildingBlock: QUQFOY_clean_sbu_3, # of connection points: 4
#     Node 13, Type 0, BuildingBlock: QUQFOY_clean_sbu_3, # of connection points: 4
#     Node 14, Type 0, BuildingBlock: QUQFOY_clean_sbu_3, # of connection points: 4
#     Node 15, Type 0, BuildingBlock: QUQFOY_clean_sbu_3, # of connection points: 4
#     Node 16, Type 0, BuildingBlock: QUQFOY_clean_sbu_3, # of connection points: 4
#     Node 17, Type 0, BuildingBlock: QUQFOY_clean_sbu_3, # of connection points: 4
#     Edge 18, Type (0, 0), BuildingBlock: EZIPEK_clean_linker_0, # of connection points: 2
#     Edge 19, Type (0, 0), BuildingBlock: EZIPEK_clean_linker_0, # of connection points: 2
#     Edge 20, Type (0, 0), BuildingBlock: EZIPEK_clean_linker_0, # of connection points: 2
#     Edge 21, Type (0, 0), BuildingBlock: EZIPEK_clean_linker_0, # of connection points: 2
#     Edge 22, Type (0, 0), BuildingBlock: EZIPEK_clean_linker_0, # of connection points: 2
#     Edge 23, Type (0, 0), BuildingBlock: EZIPEK_clean_linker_0, # of connection points: 2
#     Edge 24, Type (0, 0), BuildingBlock: EZIPEK_clean_linker_0, # of connection points: 2
#     Edge 25, Type (0, 0), BuildingBlock: EZIPEK_clean_linker_0, # of connection points: 2
#     Edge 26, Type (0, 0), BuildingBlock: EZIPEK_clean_linker_0, # of connection points: 2
#     Edge 27, Type (0, 0), BuildingBlock: EZIPEK_clean_linker_0, # of connection points: 2
#     Edge 28, Type (0, 0), BuildingBlock: EZIPEK_clean_linker_0, # of connection points: 2
#     Edge 29, Type (0, 0), BuildingBlock: EZIPEK_clean_linker_0, # of connection points: 2
#     Edge 30, Type (0, 0), BuildingBlock: EZIPEK_clean_linker_0, # of connection points: 2
#     Edge 31, Type (0, 0), BuildingBlock: EZIPEK_clean_linker_0, # of connection points: 2
#     Edge 32, Type (0, 0), BuildingBlock: EZIPEK_clean_linker_0, # of connection points: 2
#     Edge 33, Type (0, 0), BuildingBlock: EZIPEK_clean_linker_0, # of connection points: 2
#     Edge 34, Type (0, 0), BuildingBlock: EZIPEK_clean_linker_0, # of connection points: 2
#     Edge 35, Type (0, 0), BuildingBlock: EZIPEK_clean_linker_0, # of connection points: 2
#     Edge 36, Type (0, 0), BuildingBlock: EZIPEK_clean_linker_0, # of connection points: 2
#     Edge 37, Type (0, 0), BuildingBlock: EZIPEK_clean_linker_0, # of connection points: 2
#     Edge 38, Type (0, 0), BuildingBlock: EZIPEK_clean_linker_0, # of connection points: 2
#     Edge 39, Type (0, 0), BuildingBlock: EZIPEK_clean_linker_0, # of connection points: 2
#     Edge 40, Type (0, 0), BuildingBlock: EZIPEK_clean_linker_0, # of connection points: 2
#     Edge 41, Type (0, 0), BuildingBlock: EZIPEK_clean_linker_0, # of connection points: 2
#     Edge 42, Type (0, 0), BuildingBlock: EZIPEK_clean_linker_0, # of connection points: 2
#     Edge 43, Type (0, 0), BuildingBlock: EZIPEK_clean_linker_0, # of connection points: 2
#     Edge 44, Type (0, 0), BuildingBlock: EZIPEK_clean_linker_0, # of connection points: 2
#     Edge 45, Type (0, 0), BuildingBlock: EZIPEK_clean_linker_0, # of connection points: 2
#     Edge 46, Type (0, 0), BuildingBlock: EZIPEK_clean_linker_0, # of connection points: 2
#     Edge 47, Type (0, 0), BuildingBlock: EZIPEK_clean_linker_0, # of connection points: 2
#     Edge 48, Type (0, 0), BuildingBlock: EZIPEK_clean_linker_0, # of connection points: 2
#     Edge 49, Type (0, 0), BuildingBlock: EZIPEK_clean_linker_0, # of connection points: 2
#     Edge 50, Type (0, 0), BuildingBlock: EZIPEK_clean_linker_0, # of connection points: 2
#     Edge 51, Type (0, 0), BuildingBlock: EZIPEK_clean_linker_0, # of connection points: 2
#     Edge 52, Type (0, 0), BuildingBlock: EZIPEK_clean_linker_0, # of connection points: 2
#     Edge 53, Type (0, 0), BuildingBlock: EZIPEK_clean_linker_0, # of connection points: 2
# Relax obj value: 0.082
# Max RMSD: 0.073
# Mean RMSD: 0.073
data_MOF--net-unb--node1-QUQFOY_clean_sbu_3--edge1-EZIPEK_clean_linker_0
_symmetry_space_group_name_H-M    P1
_symmetry_Int_Tables_number       1
_symmetry_cell_setting            triclinic
loop_
_symmetry_equiv_pos_as_xyz
'x, y, z'
_cell_length_a     48.105382
_cell_length_b     47.611886
_cell_length_c     20.926165
_cell_angle_alpha  90.798362
_cell_angle_beta   89.934729
_cell_angle_gamma 120.22939
loop_
_atom_site_label
_atom_site_type_symbol
_atom_site_fract_x
_atom_site_fract_y
_atom_site_fract_z
_atom_type_partial_charge
C0 C 0.04108 0.18446 -0.00042 0.0
O1 O 0.05676 0.17281 0.97238 0.0
Cd2 Cd 0.11231 0.19559 0.95707 0.0
O3 O 0.05543 0.21175 0.02982 0.0
Cd4 Cd 0.11252 0.25683 0.05146 0.0
C5 C 0.11462 0.26263 0.88821 0.0
O6 O 0.13769 0.22479 0.05072 0.0
O7 O 0.17076 0.27627 0.04593 0.0
O8 O 0.10426 0.2632 0.16535 0.0
C9 C 0.16631 0.24772 0.04348 0.0
O10 O 0.11379 0.2355 0.88543 0.0
C11 C 0.11516 0.29367 0.16327 0.0
O12 O 0.11433 0.27579 0.9418 0.0
O13 O 0.1233 0.30688 0.10881 0.0
C14 C 0.74108 0.82908 0.03669 0.0
O15 O 0.76017 0.85586 0.01057 0.0
Cd16 Cd 0.75227 0.8998 -0.00556 0.0
O17 O 0.71607 0.82469 0.06678 0.0
Cd18 Cd 0.69032 0.85775 0.09811 0.0
C19 C 0.67399 0.84873 0.94047 0.0
O20 O 0.73624 0.91079 0.09265 0.0
O21 O 0.69223 0.9104 0.08114 0.0
O22 O 0.68445 0.84469 0.21241 0.0
C23 C 0.72272 0.92707 0.08068 0.0
O24 O 0.70336 0.87005 0.9311 0.0
C25 C 0.65433 0.83407 0.21365 0.0
O26 O 0.66285 0.83909 -0.00374 0.0
O27 O 0.64086 0.83388 0.16127 0.0
C28 C 0.12534 0.92911 -0.00633 0.0
O29 O 0.10031 0.91901 0.95922 0.0
Cd30 Cd 0.0596 0.86476 0.93886 0.0
O31 O 0.12994 0.90973 0.02788 0.0
Cd32 Cd 0.10013 0.85011 0.05417 0.0
C33 C 0.11213 0.83739 0.90033 0.0
O34 O 0.04577 0.83914 0.03846 0.0
O35 O 0.05073 0.79667 0.03805 0.0
O36 O 0.10806 0.85653 0.17119 0.0
C37 C 0.03252 0.80858 0.03269 0.0
O38 O 0.09084 0.84448 0.88487 0.0
C39 C 0.12074 0.83875 0.17519 0.0
O40 O 0.12131 0.83875 0.95796 0.0
O41 O 0.12503 0.82741 0.12319 0.0
C42 C 0.19644 0.06689 0.96766 0.0
O43 O 0.18175 0.07821 -0.00032 0.0
Cd44 Cd 0.20062 0.13355 0.023 0.0
O45 O 0.22197 0.08547 0.93655 0.0
Cd46 Cd 0.25594 0.14497 0.9114 0.0
C47 C 0.27742 0.15111 0.06635 0.0
O48 O 0.21639 0.16151 0.92543 0.0
O49 O 0.26535 0.2009 0.92797 0.0
O50 O 0.25822 0.13725 0.79505 0.0
C51 C 0.23571 0.19176 0.93175 0.0
O52 O 0.24966 0.14633 0.08072 0.0
C53 C 0.28879 0.15312 0.79268 0.0
O54 O 0.28595 0.15106 0.00872 0.0
O55 O 0.30391 0.16425 0.84518 0.0
C56 C 0.9058 0.1065 0.93656 0.0
O57 O 0.89184 0.08138 0.97081 0.0
Cd58 Cd 0.83742 0.04188 0.97997 0.0
O59 O 0.89002 0.11337 0.89662 0.0
Cd60 Cd 0.83142 0.09055 0.8666 0.0
C61 C 0.8204 0.10175 0.02296 0.0
O62 O 0.81393 0.03425 0.87851 0.0
O63 O 0.77566 0.04425 0.87937 0.0
O64 O 0.83879 0.10099 0.75069 0.0
C65 C 0.78408 0.02314 0.88576 0.0
O66 O 0.8225 0.07678 0.03556 0.0
C67 C 0.82442 0.11726 0.74945 0.0
O68 O 0.82407 0.11292 0.96655 0.0
O69 O 0.81426 0.1219 0.80237 0.0
C70 C 0.80843 0.76608 0.97387 0.0
O71 O 0.83517 0.78533 0.00065 0.0
Cd72 Cd 0.87624 0.77343 0.01908 0.0
O73 O 0.8038 0.74064 0.94336 0.0
Cd74 Cd 0.83548 0.71403 0.91062 0.0
C75 C 0.82184 0.6944 0.06494 0.0
O76 O 0.89021 0.75913 0.92064 0.0
O77 O 0.88541 0.71179 0.92541 0.0
O78 O 0.82305 0.70918 0.79547 0.0
C79 C 0.90379 0.74239 0.92658 0.0
O80 O 0.84287 0.72377 0.07804 0.0
C81 C 0.81125 0.67852 0.79287 0.0
O82 O 0.81398 0.68387 0.00776 0.0
O83 O 0.80999 0.66446 0.84486 0.0
C84 C 0.69377 0.52874 0.3472 0.0
O85 O 0.70391 0.51169 0.31988 0.0
Cd86 Cd 0.7587 0.52975 0.30458 0.0
O87 O 0.7123 0.55355 0.3819 0.0
Cd88 Cd 0.76926 0.58176 0.42409 0.0
C89 C 0.77761 0.60959 0.27688 0.0
O90 O 0.78499 0.54147 0.40418 0.0
O91 O 0.82412 0.59096 0.4064 0.0
O92 O 0.75895 0.57959 0.53989 0.0
C93 C 0.81492 0.56106 0.39903 0.0
O94 O 0.77237 0.58177 0.25821 0.0
C95 C 0.77589 0.61024 0.5484 0.0
O96 O 0.77773 0.61685 0.33563 0.0
O97 O 0.7886 0.62739 0.49939 0.0
C98 C 0.44613 0.18827 0.3634 0.0
O99 O 0.45755 0.21299 0.32799 0.0
Cd100 Cd 0.44415 0.25351 0.31702 0.0
O101 O 0.42367 0.18217 0.40338 0.0
Cd102 Cd 0.3896 0.20721 0.4322 0.0
C103 C 0.36574 0.19681 0.2775 0.0
O104 O 0.43007 0.26275 0.41889 0.0
O105 O 0.38268 0.2551 0.41878 0.0
O106 O 0.3878 0.19907 0.54838 0.0
C107 C 0.41239 0.27511 0.41164 0.0
O108 O 0.39325 0.22085 0.26419 0.0
C109 C 0.35726 0.18416 0.55168 0.0
O110 O 0.35838 0.18543 0.33378 0.0
O111 O 0.34178 0.17872 0.4995 0.0
C112 C 0.79626 0.24678 0.32914 0.0
O113 O 0.77108 0.23545 0.29473 0.0
Cd114 Cd 0.73259 0.18059 0.27344 0.0
O115 O 0.80233 0.22826 0.36287 0.0
Cd116 Cd 0.77517 0.16854 0.38795 0.0
C117 C 0.78845 0.15754 0.23437 0.0
O118 O 0.71994 0.1546 0.3725 0.0
O119 O 0.72762 0.11381 0.36955 0.0
O120 O 0.78281 0.17493 0.50498 0.0
C121 C 0.70817 0.12428 0.36524 0.0
O122 O 0.76589 0.16287 0.21937 0.0
C123 C 0.79635 0.15794 0.50901 0.0
O124 O 0.79806 0.15951 0.29184 0.0
O125 O 0.8013 0.14715 0.45698 0.0
C126 C 0.85684 0.38404 0.30489 0.0
O127 O 0.84084 0.39301 0.33916 0.0
Cd128 Cd 0.85402 0.44695 0.36277 0.0
O129 O 0.88067 0.40429 0.2715 0.0
Cd130 Cd 0.90845 0.46376 0.24464 0.0
C131 C 0.93434 0.47415 0.39709 0.0
O132 O 0.86485 0.47401 0.26473 0.0
O133 O 0.91172 0.51694 0.26295 0.0
O134 O 0.90898 0.45651 0.1277 0.0
C135 C 0.88171 0.5046 0.27085 0.0
O136 O 0.90594 0.46618 0.41438 0.0
C137 C 0.93929 0.47472 0.12258 0.0
O138 O 0.94186 0.47433 0.33865 0.0
O139 O 0.95522 0.48698 0.17386 0.0
C140 C 0.56528 0.46638 0.26707 0.0
O141 O 0.5566 0.43925 0.29272 0.0
Cd142 Cd 0.50467 0.39496 0.30299 0.0
O143 O 0.54579 0.47136 0.2342 0.0
Cd144 Cd 0.48774 0.43851 0.19726 0.0
C145 C 0.4749 0.44459 0.35337 0.0
O146 O 0.48003 0.38512 0.20268 0.0
O147 O 0.43667 0.38633 0.21095 0.0
O148 O 0.49555 0.45053 0.0827 0.0
C149 C 0.45006 0.36924 0.21282 0.0
O150 O 0.48287 0.42322 0.36345 0.0
C151 C 0.47596 0.46106 0.0799 0.0
O152 O 0.47538 0.45543 0.29773 0.0
O153 O 0.46287 0.46233 0.1318 0.0
C154 C 0.50684 0.11233 0.31318 0.0
O155 O 0.53201 0.12276 0.34734 0.0
Cd156 Cd 0.56612 0.10165 0.36196 0.0
O157 O 0.49706 0.08733 0.27645 0.0
Cd158 Cd 0.51385 0.04577 0.25168 0.0
C159 C 0.50142 0.02875 0.41091 0.0
O160 O 0.57063 0.08392 0.25883 0.0
O161 O 0.55926 0.03432 0.25372 0.0
O162 O 0.49861 0.04071 0.13752 0.0
C163 C 0.58073 0.06406 0.2582 0.0
O164 O 0.52716 0.05557 0.42232 0.0
C165 C 0.48243 0.00979 0.13687 0.0
O166 O 0.4909 0.01936 0.35407 0.0
O167 O 0.47985 -0.00424 0.18956 0.0
C168 C 0.36208 0.85517 0.68317 0.0
O169 O 0.37833 0.84738 0.64691 0.0
Cd170 Cd 0.43352 0.86865 0.63927 0.0
O171 O 0.37539 0.87656 0.72798 0.0
Cd172 Cd 0.43271 0.91394 0.76707 0.0
C173 C 0.44405 0.94588 0.62118 0.0
O174 O 0.45315 0.87792 0.74434 0.0
O175 O 0.48983 0.928 0.75458 0.0
O176 O 0.42328 0.91051 0.88381 0.0
C177 C 0.48276 0.89891 0.74376 0.0
O178 O 0.44425 0.92066 0.60097 0.0
C179 C 0.43872 0.94117 0.89318 0.0
O180 O 0.43927 0.94985 0.67963 0.0
O181 O 0.44923 0.9588 0.84408 0.0
C182 C 0.10006 0.51876 0.70058 0.0
O183 O 0.11301 0.54431 0.66747 0.0
Cd184 Cd 0.09937 0.58449 0.65475 0.0
O185 O 0.07651 0.51223 0.73791 0.0
Cd186 Cd 0.04245 0.53763 0.76479 0.0
C187 C 0.02245 0.52746 0.60772 0.0
O188 O 0.08295 0.59325 0.75482 0.0
O189 O 0.03566 0.58566 0.74829 0.0
O190 O 0.03827 0.52785 0.88077 0.0
C191 C 0.06557 0.60572 0.74462 0.0
O192 O 0.05009 0.55174 0.59617 0.0
C193 C 0.00767 0.51247 0.88147 0.0
O194 O 0.01394 0.51614 0.66379 0.0
O195 O -0.00669 0.50799 0.82812 0.0
C196 C 0.42877 0.57287 0.65838 0.0
O197 O 0.40354 0.56054 0.62387 0.0
Cd198 Cd 0.3692 0.50456 0.60025 0.0
O199 O 0.43598 0.55507 0.69162 0.0
Cd200 Cd 0.41259 0.49585 0.71764 0.0
C201 C 0.43055 0.48865 0.56498 0.0
O202 O 0.35641 0.47681 0.69795 0.0
O203 O 0.36823 0.43892 0.70034 0.0
O204 O 0.41996 0.5031 0.83464 0.0
C205 C 0.34699 0.44682 0.69212 0.0
O206 O 0.40723 0.49238 0.54781 0.0
C207 C 0.43661 0.48921 0.83833 0.0
O208 O 0.4387 0.4901 0.62335 0.0
O209 O 0.44268 0.47935 0.78633 0.0
C210 C 0.49884 0.71232 0.63957 0.0
O211 O 0.48662 0.72467 0.67609 0.0
Cd212 Cd 0.50783 0.78055 0.70004 0.0
O213 O 0.52319 0.7301 0.60471 0.0
Cd214 Cd 0.55827 0.78951 0.57916 0.0
C215 C 0.58593 0.79779 0.72969 0.0
O216 O 0.52128 0.80853 0.60271 0.0
O217 O 0.57101 0.84618 0.59954 0.0
O218 O 0.55635 0.78347 0.46177 0.0
C219 C 0.54201 0.83843 0.60892 0.0
O220 O 0.55903 0.79389 0.74843 0.0
C221 C 0.58673 0.7976 0.45539 0.0
O222 O 0.59181 0.79578 0.67095 0.0
O223 O 0.60364 0.8067 0.50618 0.0
C224 C 0.22936 0.78677 0.60452 0.0
O225 O 0.21511 0.76106 0.63693 0.0
Cd226 Cd 0.16111 0.722 0.64378 0.0
O227 O 0.21405 0.79444 0.5649 0.0
Cd228 Cd 0.15525 0.77057 0.53286 0.0
C229 C 0.14269 0.78051 0.68861 0.0
O230 O 0.14074 0.71508 0.53946 0.0
O231 O 0.10041 0.72155 0.54631 0.0
O232 O 0.16372 0.78252 0.41749 0.0
C233 C 0.11079 0.70181 0.54822 0.0
O234 O 0.14486 0.75555 0.70072 0.0
C235 C 0.14785 0.79727 0.41579 0.0
O236 O 0.14678 0.7921 0.63255 0.0
O237 O 0.13631 0.8004 0.46828 0.0
C238 C 0.15802 0.4428 0.62868 0.0
O239 O 0.18089 0.44756 0.6657 0.0
Cd240 Cd 0.21148 0.422 0.66857 0.0
O241 O 0.14915 0.42246 0.58171 0.0
Cd242 Cd 0.165 0.38256 0.53785 0.0
C243 C 0.14266 0.34626 0.67988 0.0
O244 O 0.22156 0.41461 0.56184 0.0
O245 O 0.20486 0.36393 0.54626 0.0
O246 O 0.16087 0.38993 0.42203 0.0
C247 C 0.22812 0.39206 0.55926 0.0
O248 O 0.16872 0.36973 0.70238 0.0
C249 C 0.1434 0.35967 0.40958 0.0
O250 O 0.134 0.34513 0.62197 0.0
O251 O 0.13433 0.34062 0.45671 0.0
C252 C 0.10425 0.32928 0.31965 0.0
C253 C 0.13647 0.34646 0.34287 0.0
C254 C 0.15466 0.33011 0.24679 0.0
C255 C 0.12257 0.31351 0.22301 0.0
N256 N 0.0677 0.30118 0.23047 0.0
N257 N 0.19315 0.36729 0.3252 0.0
C258 C 0.09759 0.31424 0.25767 0.0
C259 C 0.16194 0.34835 0.30507 0.0
N260 N 0.08 0.32701 0.35739 0.0
N261 N 0.17792 0.32689 0.21538 0.0
H262 H 0.19966 0.37916 0.36951 0.0
H263 H 0.21293 0.37306 0.29643 0.0
H264 H 0.17384 0.31426 0.17207 0.0
H265 H 0.20074 0.33468 0.23407 0.0
H266 H 0.05567 0.31186 0.34712 0.0
H267 H 0.08423 0.33943 0.40102 0.0
H268 H 0.04903 0.30349 0.24992 0.0
H269 H 0.06219 0.28988 0.18547 0.0
C270 C 0.61907 0.78957 0.36983 0.0
C271 C 0.60217 0.80519 0.39149 0.0
C272 C 0.62061 0.84058 0.29795 0.0
C273 C 0.63588 0.82366 0.27428 0.0
N274 N 0.64524 0.77861 0.28154 0.0
N275 N 0.583 0.84249 0.37262 0.0
C276 C 0.63399 0.79724 0.30866 0.0
C277 C 0.60157 0.82957 0.35415 0.0
N278 N 0.62102 0.76753 0.40796 0.0
N279 N 0.62592 0.86843 0.26893 0.0
H280 H 0.57035 0.83682 0.41544 0.0
H281 H 0.57832 0.85722 0.34353 0.0
H282 H 0.6402 0.87777 0.2285 0.0
H283 H 0.61864 0.884 0.28795 0.0
H284 H 0.63617 0.75827 0.39879 0.0
H285 H 0.60874 0.75976 0.45109 0.0
H286 H 0.64159 0.75698 0.3008 0.0
H287 H 0.65595 0.78325 0.23662 0.0
C288 C 0.10891 0.79527 0.33328 0.0
C289 C 0.14122 0.80853 0.35457 0.0
C290 C 0.16037 0.8409 0.25684 0.0
C291 C 0.12799 0.82945 0.23801 0.0
N292 N 0.07124 0.79876 0.26158 0.0
N293 N 0.19757 0.84748 0.34205 0.0
C294 C 0.10223 0.80774 0.27751 0.0
C295 C 0.16697 0.83223 0.31766 0.0
N296 N 0.08467 0.76934 0.36419 0.0
N297 N 0.18485 0.85999 0.21642 0.0
H298 H 0.20324 0.84198 0.3865 0.0
H299 H 0.21694 0.86739 0.32093 0.0
H300 H 0.18112 0.86845 0.17339 0.0
H301 H 0.20862 0.86593 0.22355 0.0
H302 H 0.06116 0.75613 0.34695 0.0
H303 H 0.08849 0.7589 0.40425 0.0
H304 H 0.0519 0.7865 0.29237 0.0
H305 H 0.06492 0.80538 0.21911 0.0
C306 C 0.3203 0.14285 0.63123 0.0
C307 C 0.34035 0.17588 0.61412 0.0
C308 C 0.32425 0.1935 0.71132 0.0
C309 C 0.3062 0.16065 0.73086 0.0
N310 N 0.29004 0.10428 0.71439 0.0
N311 N 0.3642 0.23303 0.6403 0.0
C312 C 0.30488 0.13532 0.69198 0.0
C313 C 0.3433 0.20131 0.65515 0.0
N314 N 0.31593 0.11866 0.58926 0.0
N315 N 0.32171 0.21708 0.74452 0.0
H316 H 0.37678 0.24013 0.59744 0.0
H317 H 0.37065 0.25238 0.67212 0.0
H318 H 0.30759 0.21238 0.78521 0.0
H319 H 0.33119 0.2408 0.72882 0.0
H320 H 0.29875 0.09429 0.59518 0.0
H321 H 0.32831 0.12315 0.54623 0.0
H322 H 0.29111 0.08524 0.69182 0.0
H323 H 0.27855 0.09793 0.75852 0.0
C324 C 0.77824 0.1273 0.61184 0.0
C325 C 0.80386 0.14888 0.57185 0.0
C326 C 0.84318 0.15175 0.65078 0.0
C327 C 0.81757 0.12833 0.6883 0.0
N328 N 0.76102 0.08963 0.69983 0.0
N329 N 0.86063 0.17952 0.54945 0.0
C330 C 0.78515 0.11516 0.66781 0.0
C331 C 0.83633 0.16039 0.59016 0.0
N332 N 0.74717 0.11812 0.59616 0.0
N333 N 0.87392 0.16673 0.67441 0.0
H334 H 0.85675 0.18809 0.50672 0.0
H335 H 0.88444 0.1855 0.55609 0.0
H336 H 0.87977 0.16106 0.71853 0.0
H337 H 0.89331 0.18647 0.65297 0.0
H338 H 0.72794 0.10606 0.62727 0.0
H339 H 0.74061 0.12425 0.5534 0.0
H340 H 0.73737 0.07638 0.68332 0.0
H341 H 0.765 0.07961 0.74036 0.0
C342 C 0.77648 0.66004 0.69365 0.0
C343 C 0.80104 0.66004 0.73125 0.0
C344 C 0.80485 0.62289 0.65368 0.0
C345 C 0.78266 0.62552 0.61311 0.0
N346 N 0.74934 0.64872 0.59073 0.0
N347 N 0.84263 0.64614 0.74199 0.0
C348 C 0.76909 0.64479 0.632 0.0
C349 C 0.81613 0.64248 0.71021 0.0
N350 N 0.75929 0.67343 0.71801 0.0
N351 N 0.81538 0.60184 0.63801 0.0
H352 H 0.85239 0.66099 0.78244 0.0
H353 H 0.8569 0.63699 0.725 0.0
H354 H 0.80911 0.5883 0.5955 0.0
H355 H 0.82842 0.59592 0.66925 0.0
H356 H 0.73889 0.67126 0.696 0.0
H357 H 0.76373 0.6844 0.76321 0.0
H358 H 0.74179 0.6655 0.59822 0.0
H359 H 0.74191 0.63644 0.54684 0.0
C360 C -0.02321 0.47144 0.04252 0.0
C361 C 0.95545 0.48276 0.05932 0.0
C362 C -0.03027 0.51483 0.96123 0.0
C363 C -0.01056 0.50184 0.94236 0.0
N364 N 0.00788 0.46392 0.95941 0.0
N365 N 0.9282 0.51184 0.0314 0.0
C366 C -0.00798 0.47916 0.98161 0.0
C367 C 0.95072 0.50323 0.01739 0.0
N368 N -0.01739 0.45338 0.08496 0.0
N369 N -0.02934 0.53973 0.92758 0.0
H370 H 0.91526 0.50579 0.07389 0.0
H371 H 0.92071 0.52317 -0.00091 0.0
H372 H -0.01528 0.54947 0.88702 0.0
H373 H 0.95984 0.55283 0.94285 0.0
H374 H 0.00077 0.44776 0.07925 0.0
H375 H -0.02961 0.44545 0.12811 0.0
H376 H 0.00779 0.44464 0.9824 0.0
H377 H 0.01903 0.46873 0.91492 0.0
C378 C 0.47597 0.50134 0.00296 0.0
C379 C 0.46647 0.46872 0.01788 0.0
C380 C 0.43475 0.44968 0.91853 0.0
C381 C 0.44653 0.48245 0.90086 0.0
N382 N 0.48147 0.53974 0.92166 0.0
N383 N 0.43953 0.41186 -0.01246 0.0
C384 C 0.46785 0.5084 0.94203 0.0
C385 C 0.44682 0.44293 0.97475 0.0
N386 N 0.49267 0.52556 0.04715 0.0
N387 N 0.41063 0.42497 0.88343 0.0
H388 H 0.44589 0.40531 0.03007 0.0
H389 H 0.42894 0.39281 0.9543 0.0
H390 H 0.40052 0.42883 0.84282 0.0
H391 H 0.39843 0.40083 0.89762 0.0
H392 H 0.49707 0.54919 0.04251 0.0
H393 H 0.50053 0.52158 0.09073 0.0
H394 H 0.49982 0.55958 0.94618 0.0
H395 H 0.47619 0.5458 0.87738 0.0
C396 C 0.44521 -0.00755 0.04117 0.0
C397 C 0.46956 -0.00923 0.07622 0.0
C398 C 0.46931 0.95212 -0.00342 0.0
C399 C 0.4471 0.9561 0.9585 0.0
N400 N 0.41533 0.98155 0.94152 0.0
N401 N 0.50848 0.97311 0.083 0.0
C402 C 0.43548 0.97675 0.97997 0.0
C403 C 0.48236 0.97142 0.05314 0.0
N404 N 0.43058 0.0081 0.06752 0.0
N405 N 0.47837 0.9302 0.97837 0.0
H406 H 0.5192 -0.01272 0.12387 0.0
H407 H 0.52145 0.96282 0.0644 0.0
H408 H 0.47157 0.91733 0.93512 0.0
H409 H 0.49099 0.92306 0.00802 0.0
H410 H 0.41041 0.00747 0.04786 0.0
H411 H 0.43707 0.01974 0.11214 0.0
H412 H 0.40909 -0.00076 0.95036 0.0
H413 H 0.40594 0.96879 0.89863 0.0
C414 C 0.13579 0.27937 0.77592 0.0
C415 C 0.11621 0.2792 0.82752 0.0
C416 C 0.10619 0.31788 0.77059 0.0
C417 C 0.12564 0.31774 0.72023 0.0
N418 N 0.14897 0.29038 0.664 0.0
N419 N 0.07371 0.28912 0.8614 0.0
C420 C 0.1366 0.29535 0.71899 0.0
C421 C 0.09849 0.29561 0.82103 0.0
N422 N 0.15583 0.26699 0.78227 0.0
N423 N 0.0959 0.33988 0.77097 0.0
H424 H 0.06596 0.27134 0.8962 0.0
H425 H 0.05853 0.2986 0.85548 0.0
H426 H 0.09992 0.3553 0.7327 0.0
H427 H 0.08482 0.34375 0.81022 0.0
H428 H 0.17312 0.27035 0.74844 0.0
H429 H 0.15804 0.25634 0.82332 0.0
H430 H 0.15465 0.27204 0.65871 0.0
H431 H 0.15024 0.30229 0.62167 0.0
C432 C 0.61255 0.78814 0.82214 0.0
C433 C 0.61205 0.80973 0.77699 0.0
C434 C 0.65038 0.85651 0.84107 0.0
C435 C 0.65248 0.83507 0.88457 0.0
N436 N 0.64118 0.78087 0.90948 0.0
N437 N 0.63594 0.86386 0.73459 0.0
C438 C 0.63516 0.80092 0.87322 0.0
C439 C 0.63291 0.84374 0.7834 0.0
N440 N 0.59111 0.75556 0.81665 0.0
N441 N 0.66335 0.88876 0.85651 0.0
H442 H 0.62344 0.85542 0.69144 0.0
H443 H 0.65318 0.88851 0.73441 0.0
H444 H 0.6751 0.89899 0.89977 0.0
H445 H 0.65955 0.90474 0.82946 0.0
H446 H 0.58762 0.73904 0.85225 0.0
H447 H 0.57554 0.74529 0.7776 0.0
H448 H 0.63167 0.75625 0.89908 0.0
H449 H 0.65794 0.78929 0.94674 0.0
C450 C 0.10463 0.78925 0.83927 0.0
C451 C 0.12296 0.82319 0.85061 0.0
C452 C 0.15635 0.8293 0.75797 0.0
C453 C 0.13522 0.79602 0.74197 0.0
N454 N 0.08537 0.74596 0.7602 0.0
N455 N 0.16422 0.87652 0.81874 0.0
C456 C 0.10827 0.77638 0.7807 0.0
C457 C 0.14823 0.84359 0.80927 0.0
N458 N 0.08409 0.76926 0.88485 0.0
N459 N 0.18485 0.84677 0.72656 0.0
H460 H 0.16 0.88755 0.85805 0.0
H461 H 0.18026 0.89289 0.78584 0.0
H462 H 0.19214 0.83699 0.68982 0.0
H463 H 0.20259 0.87007 0.74069 0.0
H464 H 0.0723 0.74399 0.88131 0.0
H465 H 0.08151 0.77785 0.92929 0.0
H466 H 0.0637 0.73191 0.78385 0.0
H467 H 0.08639 0.73609 0.71602 0.0
C468 C 0.33547 0.20566 0.1923 0.0
C469 C 0.3415 0.18365 0.22606 0.0
C470 C 0.30471 0.1392 0.15472 0.0
C471 C 0.30157 0.16207 0.11752 0.0
N472 N 0.3196 0.21791 0.09189 0.0
N473 N 0.33617 0.13057 0.23417 0.0
C474 C 0.31871 0.1956 0.13351 0.0
C475 C 0.32718 0.15058 0.20618 0.0
N476 N 0.34472 0.23579 0.21761 0.0
N477 N 0.28614 0.10673 0.14108 0.0
H478 H 0.35287 0.13812 0.27147 0.0
H479 H 0.32903 0.10724 0.21712 0.0
H480 H 0.27072 0.09783 0.10155 0.0
H481 H 0.28464 0.08867 0.17084 0.0
H482 H 0.33819 0.2516 0.19774 0.0
H483 H 0.35594 0.24366 0.26218 0.0
H484 H 0.33423 0.24292 0.09878 0.0
H485 H 0.30847 0.21148 0.0471 0.0
C486 C 0.78606 0.0972 0.11533 0.0
C487 C 0.81259 0.11719 0.07595 0.0
C488 C 0.82445 0.1647 0.1424 0.0
C489 C 0.79988 0.14394 0.18465 0.0
N490 N 0.76289 0.08971 0.22046 0.0
N491 N 0.86108 0.16878 0.05886 0.0
C492 C 0.78249 0.10992 0.17407 0.0
C493 C 0.83295 0.15073 0.0911 0.0
N494 N 0.76345 0.06657 0.09533 0.0
N495 N 0.83939 0.19765 0.15101 0.0
H496 H 0.86863 0.15926 0.0221 0.0
H497 H 0.87831 0.19241 0.07231 0.0
H498 H 0.8348 0.2085 0.19014 0.0
H499 H 0.85486 0.21411 0.11754 0.0
H500 H 0.74208 0.05222 0.11973 0.0
H501 H 0.76424 0.05683 0.05084 0.0
H502 H 0.75188 0.06447 0.21719 0.0
H503 H 0.76048 0.0982 0.26514 0.0
C504 C 0.77713 0.65996 0.13951 0.0
C505 C 0.80901 0.67168 0.11793 0.0
C506 C 0.82137 0.65016 0.21147 0.0
C507 C 0.78871 0.63504 0.22916 0.0
N508 N 0.7346 0.62365 0.21079 0.0
N509 N 0.8587 0.67094 0.12407 0.0
C510 C 0.76623 0.63945 0.19349 0.0
C511 C 0.83044 0.66491 0.15138 0.0
N512 N 0.75772 0.66897 0.10932 0.0
N513 N 0.84373 0.65062 0.2524 0.0
H514 H 0.86475 0.67919 0.07745 0.0
H515 H 0.87402 0.66393 0.14429 0.0
H516 H 0.83786 0.6409 0.29809 0.0
H517 H 0.86838 0.66375 0.24386 0.0
H518 H 0.73547 0.66407 0.12679 0.0
H519 H 0.76469 0.683 0.06821 0.0
H520 H 0.7163 0.62274 0.18271 0.0
H521 H 0.72653 0.61028 0.25265 0.0
C522 C -0.02428 0.52139 0.45878 0.0
C523 C 0.95965 0.48752 0.44609 0.0
C524 C -0.01311 0.47978 0.53675 0.0
C525 C -0.00035 0.513 0.55404 0.0
N526 N 0.00116 0.564 0.5389 0.0
N527 N 0.94728 0.43358 0.4743 0.0
C528 C -0.00723 0.5335 0.51699 0.0
C529 C 0.96441 0.46638 0.48553 0.0
N530 N -0.02501 0.54202 0.41491 0.0
N531 N -0.00268 0.4615 0.56712 0.0
H532 H 0.93214 0.42326 0.43469 0.0
H533 H 0.94677 0.41662 0.50586 0.0
H534 H 0.01422 0.47064 0.6041 0.0
H535 H -0.00865 0.43816 0.55216 0.0
H536 H -0.01117 0.56724 0.41914 0.0
H537 H 0.96315 0.53402 0.37099 0.0
H538 H -0.00615 0.5787 0.5168 0.0
H539 H 0.01259 0.57341 0.5828 0.0
C540 C 0.43314 0.44458 0.50615 0.0
C541 C 0.44548 0.4783 0.51604 0.0
C542 C 0.48018 0.49037 0.42301 0.0
C543 C 0.46445 0.45656 0.40824 0.0
N544 N 0.42142 0.40188 0.42876 0.0
N545 N 0.47862 0.53365 0.48237 0.0
C546 C 0.43975 0.43369 0.44804 0.0
C547 C 0.4684 0.50136 0.47396 0.0
N548 N 0.41523 0.42297 0.55235 0.0
N549 N 0.50713 0.51175 0.39046 0.0
H550 H 0.47184 0.54263 0.52148 0.0
H551 H 0.49231 0.55121 0.44887 0.0
H552 H 0.51698 0.50464 0.35363 0.0
H553 H 0.52142 0.53613 0.40366 0.0
H554 H 0.40823 0.39841 0.54995 0.0
H555 H 0.41021 0.4301 0.59614 0.0
H556 H 0.40102 0.38495 0.45308 0.0
H557 H 0.42439 0.39307 0.3849 0.0
C558 C 0.43707 0.97557 0.53095 0.0
C559 C 0.45702 0.97336 0.57784 0.0
C560 C 0.50368 0.00282 0.5112 0.0
C561 C 0.48483 0.00788 0.46591 0.0
N562 N 0.4344 0.00484 0.43946 0.0
N563 N 0.5101 -0.00609 0.6219 0.0
C564 C 0.45164 -0.00401 0.47761 0.0
C565 C 0.49068 -0.00943 0.57138 0.0
N566 N 0.40442 0.95765 0.53679 0.0
N567 N 0.53284 0.00675 0.49474 0.0
H568 H 0.50095 -0.01488 0.66713 0.0
H569 H 0.53511 0.00823 0.62016 0.0
H570 H 0.54064 0.01053 0.44766 0.0
H571 H 0.5465 0.00114 0.52503 0.0
H572 H 0.38854 0.95544 0.50064 0.0
H573 H 0.39343 0.94378 0.57712 0.0
H574 H 0.41093 -0.00088 0.44955 0.0
H575 H 0.44444 0.02023 0.40075 0.0
C576 C 0.20104 0.24752 0.95349 0.0
C577 C 0.19097 0.24073 0.0182 0.0
C578 C 0.22139 0.21265 0.02921 0.0
C579 C 0.22493 0.21294 0.96196 0.0
N580 N 0.21887 0.23109 0.85897 0.0
N581 N 0.19213 0.21738 0.11895 0.0
C582 C 0.2154 0.23093 0.92381 0.0
C583 C 0.20147 0.22357 0.05658 0.0
N584 N 0.19721 0.26984 0.92033 0.0
N585 N 0.23806 0.20304 0.06689 0.0
H586 H 0.17931 0.2269 0.14185 0.0
H587 H 0.19576 0.20158 0.14695 0.0
H588 H 0.25445 0.19724 0.04752 0.0
H589 H 0.23866 0.20467 0.11661 0.0
H590 H 0.2085 0.27904 0.87684 0.0
H591 H 0.18533 0.28142 0.93821 0.0
H592 H 0.20873 0.24041 0.82783 0.0
H593 H 0.23045 0.22023 0.83611 0.0
C594 C 0.73395 -0.01347 0.95003 0.0
C595 C 0.76497 -0.00568 0.92782 0.0
C596 C 0.77118 0.96637 0.01861 0.0
C597 C 0.73962 0.95657 0.03939 0.0
N598 N 0.69619 0.9679 0.0382 0.0
N599 N 0.80406 0.97669 0.9256 0.0
C600 C 0.72229 0.96956 0.00869 0.0
C601 C 0.78087 0.97968 0.95734 0.0
N602 N 0.7147 -0.00703 0.91248 0.0
N603 N 0.79255 0.96437 0.05837 0.0
H604 H 0.80892 0.98238 0.8774 0.0
H605 H 0.8148 0.96425 0.94443 0.0
H606 H 0.78742 0.95826 0.10636 0.0
H607 H 0.81654 0.97323 0.04603 0.0
H608 H 0.69085 -0.01446 0.92317 0.0
H609 H 0.72123 0.00186 0.86631 0.0
H610 H 0.68399 0.9792 0.0212 0.0
H611 H 0.68951 0.95897 0.08431 0.0
C612 C 0.94144 0.76139 0.02097 0.0
C613 C 0.93676 0.75715 0.95373 0.0
C614 C -0.00524 0.78086 0.93976 0.0
C615 C -0.00044 0.78917 0.00604 0.0
N616 N -0.02224 0.79018 0.10919 0.0
N617 N 0.95886 0.76501 0.84794 0.0
C618 C -0.02704 0.78033 0.04647 0.0
C619 C 0.96342 0.76746 0.9127 0.0
N620 N 0.91576 0.74609 0.06061 0.0
N621 N 0.01998 0.78515 0.90295 0.0
H622 H 0.9361 0.75432 0.82671 0.0
H623 H -0.02238 0.7755 0.8153 0.0
H624 H 0.04304 0.79455 0.92143 0.0
H625 H 0.01758 0.77665 0.85601 0.0
H626 H 0.91764 0.74545 0.11008 0.0
H627 H 0.89276 0.73101 0.04275 0.0
H628 H 0.95935 0.78777 0.13902 0.0
H629 H 0.00051 0.80277 0.13047 0.0
C630 C 0.77353 0.77222 0.05348 0.0
C631 C 0.78134 0.77133 -0.01174 0.0
C632 C 0.7476 0.7937 0.95786 0.0
C633 C 0.7467 0.80189 0.02301 0.0
N634 N 0.75633 0.79727 0.1341 0.0
N635 N 0.77433 0.77884 0.87711 0.0
C636 C 0.75816 0.78989 0.07149 0.0
C637 C 0.76722 0.78054 0.93977 0.0
N638 N 0.78121 0.75638 0.09784 0.0
N639 N 0.7301 0.79923 0.91363 0.0
H640 H 0.78813 0.76869 0.86241 0.0
H641 H 0.76787 0.78881 0.84001 0.0
H642 H 0.71564 0.80897 0.92629 0.0
H643 H 0.72756 0.79154 0.86609 0.0
H644 H 0.77388 0.75375 0.14528 0.0
H645 H 0.79243 0.74319 0.0855 0.0
H646 H 0.76781 0.79269 0.17125 0.0
H647 H 0.7443 0.80935 0.14862 0.0
C648 C 0.15998 -0.01537 0.04365 0.0
C649 C 0.15019 0.96388 -0.01097 0.0
C650 C 0.17536 0.01103 0.91874 0.0
C651 C 0.18495 0.03177 0.97336 0.0
N652 N 0.19595 0.03852 0.08677 0.0
N653 N 0.15744 0.9568 0.87708 0.0
C654 C 0.18041 0.01857 0.03556 0.0
C655 C 0.1609 0.97699 0.92731 0.0
N656 N 0.14824 0.9724 0.10261 0.0
N657 N 0.17816 0.02346 0.85907 0.0
H658 H 0.14752 0.93178 0.88222 0.0
H659 H 0.16739 0.96518 0.83225 0.0
H660 H 0.18847 0.04824 0.85065 0.0
H661 H 0.16806 0.00898 0.81833 0.0
H662 H 0.15159 -0.01296 0.14267 0.0
H663 H 0.1331 0.94771 0.11081 0.0
H664 H 0.19595 0.02991 0.13227 0.0
H665 H 0.21165 0.06346 0.08225 0.0
C666 C 0.95979 0.11355 0.95891 0.0
C667 C 0.94092 0.12819 0.94738 0.0
C668 C -0.01161 0.18159 0.96965 0.0
C669 C 0.00556 0.16614 -0.00966 0.0
N670 N 0.00297 0.11629 0.02203 0.0
N671 N 0.93605 0.17636 0.95808 0.0
C672 C -0.01026 0.13173 -0.00948 0.0
C673 C 0.95477 0.1623 0.95731 0.0
N674 N 0.94962 0.08253 0.93801 0.0
N675 N 0.00396 0.21419 0.95839 0.0
H676 H 0.91123 0.16342 0.95145 0.0
H677 H 0.94491 0.20054 0.97186 0.0
H678 H 0.02859 0.2295 0.96449 0.0
H679 H -0.0073 0.22547 0.93674 0.0
H680 H 0.96391 0.07186 0.94119 0.0
H681 H 0.92874 0.06907 0.91071 0.0
H682 H -0.00903 0.09114 0.0274 0.0
H683 H 0.02407 0.12885 0.0491 0.0
C684 C 0.8513 0.53759 0.40288 0.0
C685 C 0.83578 0.55064 0.36674 0.0
C686 C 0.85209 0.53529 0.2671 0.0
C687 C 0.86848 0.52318 0.30321 0.0
N688 N 0.89183 0.52181 0.40414 0.0
N689 N 0.83009 0.57101 0.26571 0.0
C690 C 0.87058 0.52706 0.37083 0.0
C691 C 0.83879 0.55225 0.29911 0.0
N692 N 0.84737 0.5349 0.46762 0.0
N693 N 0.84893 0.53034 0.20239 0.0
H694 H 0.82229 0.58525 0.28856 0.0
H695 H 0.83424 0.57548 0.21705 0.0
H696 H 0.85961 0.51924 0.17704 0.0
H697 H 0.83405 0.53534 0.17455 0.0
H698 H 0.85512 0.52219 0.49559 0.0
H699 H 0.8345 0.54364 0.4929 0.0
H700 H 0.89653 0.52688 0.4528 0.0
H701 H 0.90748 0.51598 0.38133 0.0
C702 C 0.40629 0.32814 0.28487 0.0
C703 C 0.43654 0.3399 0.25461 0.0
C704 C 0.45348 0.31687 0.33892 0.0
C705 C 0.423 0.30361 0.36835 0.0
N706 N 0.37516 0.3072 0.38177 0.0
N707 N 0.48081 0.33046 0.23799 0.0
C708 C 0.40053 0.31209 0.34469 0.0
C709 C 0.45757 0.32948 0.27689 0.0
N710 N 0.38234 0.33009 0.25408 0.0
N711 N 0.47914 0.31917 0.3714 0.0
H712 H 0.48223 0.33638 0.1898 0.0
H713 H 0.4954 0.3211 0.25136 0.0
H714 H 0.47799 0.3139 0.4199 0.0
H715 H 0.50233 0.33066 0.35268 0.0
H716 H 0.35887 0.31956 0.27091 0.0
H717 H 0.38491 0.33837 0.20734 0.0
H718 H 0.35939 0.3153 0.3698 0.0
H719 H 0.37257 0.29905 0.42861 0.0
C720 C 0.61722 0.076 0.35232 0.0
C721 C 0.61296 0.07406 0.28502 0.0
C722 C 0.67088 0.09704 0.27155 0.0
C723 C 0.6754 0.10388 0.33838 0.0
N724 N 0.65318 0.10145 0.44272 0.0
N725 N 0.63543 0.0836 0.17948 0.0
C726 C 0.64862 0.09371 0.37894 0.0
C727 C 0.63972 0.08462 0.24421 0.0
N728 N 0.59113 0.06004 0.3907 0.0
N729 N 0.69625 0.10202 0.23444 0.0
H730 H 0.61272 0.07336 0.15812 0.0
H731 H 0.65432 0.09448 0.14722 0.0
H732 H 0.71912 0.1106 0.2533 0.0
H733 H 0.6941 0.09479 0.18666 0.0
H734 H 0.59265 0.05819 0.43992 0.0
H735 H 0.56811 0.04588 0.37176 0.0
H736 H 0.63478 0.09834 0.47329 0.0
H737 H 0.67583 0.11287 0.46455 0.0
C738 C 0.45569 0.11411 0.33364 0.0
C739 C 0.48907 0.13021 0.31899 0.0
C740 C 0.49403 0.18209 0.35008 0.0
C741 C 0.46017 0.16694 0.35606 0.0
N742 N 0.40796 0.11882 0.33921 0.0
N743 N 0.5375 0.18069 0.29573 0.0
C744 C 0.44063 0.13298 0.3439 0.0
C745 C 0.50743 0.1646 0.32166 0.0
N746 N 0.43858 0.08118 0.34087 0.0
N747 N 0.51356 0.21296 0.37322 0.0
H748 H 0.5475 0.16866 0.27127 0.0
H749 H 0.55073 0.20592 0.29206 0.0
H750 H 0.5047 0.22598 0.3979 0.0
H751 H 0.53856 0.22396 0.37448 0.0
H752 H 0.41514 0.06902 0.35827 0.0
H753 H 0.44851 0.0663 0.33524 0.0
H754 H 0.39319 0.09483 0.32378 0.0
H755 H 0.39584 0.13167 0.34476 0.0
C756 C 0.82905 0.29563 0.26328 0.0
C757 C 0.81949 0.28205 0.32495 0.0
C758 C 0.84614 0.33675 0.3718 0.0
C759 C 0.84887 0.34977 0.30986 0.0
N760 N 0.84144 0.34122 0.19562 0.0
N761 N 0.81768 0.28976 0.43889 0.0
C762 C 0.84052 0.32925 0.25505 0.0
C763 C 0.8282 0.30258 0.37978 0.0
N764 N 0.82723 0.27628 0.21272 0.0
N765 N 0.86097 0.35714 0.42285 0.0
H766 H 0.80442 0.26487 0.44704 0.0
H767 H 0.82011 0.30391 0.47924 0.0
H768 H 0.8749 0.38231 0.41831 0.0
H769 H 0.86229 0.34894 0.46802 0.0
H770 H 0.83651 0.28531 0.16778 0.0
H771 H 0.81954 0.25165 0.21773 0.0
H772 H 0.83201 0.32645 0.15501 0.0
H773 H 0.84934 0.36562 0.18734 0.0
C774 C 0.62273 0.50501 0.2393 0.0
C775 C 0.59769 0.49311 0.28451 0.0
C776 C 0.63659 0.51286 0.37306 0.0
C777 C 0.66154 0.52243 0.32789 0.0
N778 N 0.67993 0.5384 0.21998 0.0
N779 N 0.58031 0.49519 0.39139 0.0
C780 C 0.65506 0.52219 0.26149 0.0
C781 C 0.60463 0.50056 0.35054 0.0
N782 N 0.61565 0.49805 0.17582 0.0
N783 N 0.64301 0.51337 0.43678 0.0
H784 H 0.55672 0.48616 0.37545 0.0
H785 H 0.58397 0.50245 0.43928 0.0
H786 H 0.66622 0.52251 0.45487 0.0
H787 H 0.62523 0.5031 0.47143 0.0
H788 H 0.63288 0.50246 0.14117 0.0
H789 H 0.59213 0.48641 0.15816 0.0
H790 H 0.67672 0.54158 0.17198 0.0
H791 H 0.70389 0.55138 0.23508 0.0
C792 C 0.52085 0.87695 0.60939 0.0
C793 C 0.5339 0.86073 0.64326 0.0
C794 C 0.51908 0.87548 0.74512 0.0
C795 C 0.5055 0.89119 0.71124 0.0
N796 N 0.50416 0.9171 0.61414 0.0
N797 N 0.5562 0.85529 0.74218 0.0
C798 C 0.50982 0.89524 0.64417 0.0
C799 C 0.53645 0.86338 0.71092 0.0
N800 N 0.5184 0.87437 0.54428 0.0
N801 N 0.51488 0.87159 0.80963 0.0
H802 H 0.57089 0.84872 0.71759 0.0
H803 H 0.56097 0.85897 0.79107 0.0
H804 H 0.50368 0.8817 0.83647 0.0
H805 H 0.521 0.857 0.83575 0.0
H806 H 0.5057 0.88256 0.51755 0.0
H807 H 0.52763 0.86236 0.51728 0.0
H808 H 0.50922 0.923 0.56615 0.0
H809 H 0.49801 0.93212 0.63936 0.0
C810 C 0.1133 0.65909 0.61162 0.0
C811 C 0.09449 0.67207 0.58903 0.0
C812 C 0.05654 0.64474 0.67708 0.0
C813 C 0.07764 0.63464 0.70182 0.0
N814 N 0.13327 0.64839 0.70768 0.0
N815 N 0.04245 0.66768 0.58783 0.0
C816 C 0.10829 0.64686 0.67388 0.0
C817 C 0.06435 0.6623 0.61845 0.0
N818 N 0.13566 0.65787 0.57339 0.0
N819 N 0.03057 0.63982 0.71224 0.0
H820 H 0.04641 0.6771 0.54186 0.0
H821 H 0.01912 0.65927 0.60381 0.0
H822 H 0.0266 0.63045 0.75825 0.0
H823 H 0.01537 0.64852 0.6998 0.0
H824 H 0.14873 0.64695 0.58775 0.0
H825 H 0.13769 0.66369 0.52505 0.0
H826 H 0.15651 0.6589 0.68933 0.0
H827 H 0.13163 0.64352 0.75643 0.0
C828 C 0.28734 0.40815 0.69137 0.0
C829 C 0.31659 0.42483 0.6576 0.0
C830 C 0.28718 0.41256 0.55608 0.0
C831 C 0.25794 0.39695 0.58999 0.0
N832 N 0.23023 0.3691 0.68534 0.0
N833 N 0.34419 0.43156 0.55795 0.0
C834 C 0.258 0.39118 0.65634 0.0
C835 C 0.31648 0.4234 0.58981 0.0
N836 N 0.28753 0.40919 0.75663 0.0
N837 N 0.28698 0.41769 0.49206 0.0
H838 H 0.36532 0.4374 0.58214 0.0
H839 H 0.34525 0.42871 0.50873 0.0
H840 H 0.26573 0.40843 0.46545 0.0
H841 H 0.30776 0.43236 0.46623 0.0
H842 H 0.26673 0.40062 0.7838 0.0
H843 H 0.30879 0.42023 0.78348 0.0
H844 H 0.22916 0.36212 0.73265 0.0
H845 H 0.209 0.35494 0.65969 0.0
C846 C 0.10781 0.44504 0.65479 0.0
C847 C 0.1415 0.46124 0.64364 0.0
C848 C 0.14702 0.51101 0.6908 0.0
C849 C 0.11311 0.49663 0.69215 0.0
N850 N 0.06075 0.45058 0.66559 0.0
N851 N 0.19203 0.51183 0.63814 0.0
C852 C 0.09324 0.46373 0.67174 0.0
C853 C 0.16078 0.4949 0.65792 0.0
N854 N 0.08986 0.41187 0.65223 0.0
N855 N 0.1661 0.53999 0.72177 0.0
H856 H 0.20257 0.5012 0.61084 0.0
H857 H 0.20621 0.53703 0.64259 0.0
H858 H 0.15663 0.55184 0.74855 0.0
H859 H 0.19092 0.55019 0.72678 0.0
H860 H 0.06595 0.39895 0.66677 0.0
H861 H 0.0995 0.39708 0.64146 0.0
H862 H 0.04593 0.42808 0.64355 0.0
H863 H 0.04881 0.46297 0.67798 0.0
C864 C 0.46155 0.6284 0.71013 0.0
C865 C 0.45122 0.60842 0.65438 0.0
C866 C 0.47444 0.65677 0.58713 0.0
C867 C 0.48571 0.67673 0.64281 0.0
N868 N 0.49887 0.68137 0.75527 0.0
N869 N 0.45688 0.60359 0.54062 0.0
C870 C 0.48209 0.66245 0.70374 0.0
C871 C 0.46056 0.62264 0.59306 0.0
N872 N 0.45047 0.61532 0.76885 0.0
N873 N 0.47529 0.66999 0.52911 0.0
H874 H 0.44787 0.57862 0.54337 0.0
H875 H 0.46604 0.61306 0.49585 0.0
H876 H 0.48477 0.69482 0.52261 0.0
H877 H 0.46403 0.65598 0.48839 0.0
H878 H 0.4545 0.62943 0.81007 0.0
H879 H 0.43488 0.59058 0.77576 0.0
H880 H 0.49944 0.67182 0.79942 0.0
H881 H 0.51504 0.70627 0.75194 0.0
C882 C 0.28205 0.79071 0.6205 0.0
C883 C 0.26451 0.80718 0.61555 0.0
C884 C 0.31189 0.85715 0.65499 0.0
C885 C 0.32716 0.83897 0.6692 0.0
N886 N 0.32267 0.78641 0.67966 0.0
N887 N 0.2613 0.85547 0.63827 0.0
C888 C 0.3109 0.80508 0.65634 0.0
C889 C 0.27898 0.84032 0.63541 0.0
N890 N 0.27131 0.76144 0.59001 0.0
N891 N 0.3289 0.89035 0.65697 0.0
H892 H 0.23736 0.84443 0.62374 0.0
H893 H 0.26987 0.8783 0.6596 0.0
H894 H 0.3531 0.90383 0.66997 0.0
H895 H 0.31966 0.90453 0.64018 0.0
H896 H 0.28467 0.74971 0.58795 0.0
H897 H 0.25085 0.75086 0.56078 0.0
H898 H 0.31017 0.76111 0.67592 0.0
H899 H 0.34307 0.79594 0.70894 0.0
loop_
_geom_bond_atom_site_label_1
_geom_bond_atom_site_label_2
_geom_bond_distance
_geom_bond_site_symmetry_2
_ccdc_geom_bond_type
C0 O1 1.306 . S
C0 O3 1.160 . S
O1 C0 1.306 . S
O1 Cd2 2.228 1_554 S
Cd2 O1 2.228 1_556 S
Cd2 O6 2.273 1_556 S
Cd2 O10 2.277 . S
O3 C0 1.160 . S
O3 Cd4 2.203 . S
Cd4 O3 2.203 . S
Cd4 O6 2.411 . S
Cd4 O7 2.333 . S
Cd4 O8 2.352 . S
Cd4 O12 2.277 1_554 S
Cd4 O13 2.356 . S
C5 O10 1.209 . S
C5 O12 1.226 . S
O6 Cd2 2.273 1_554 S
O6 Cd4 2.411 . S
O6 C9 1.320 . S
O7 Cd4 2.333 . S
O7 C9 1.214 . S
O8 Cd4 2.352 . S
O8 C11 1.258 . S
C9 O6 1.320 . S
C9 O7 1.214 . S
O10 Cd2 2.277 . S
O10 C5 1.209 . S
C11 O8 1.258 . S
C11 O13 1.282 . S
O12 Cd4 2.277 1_556 S
O12 C5 1.226 . S
O13 Cd4 2.356 . S
O13 C11 1.282 . S
C14 O15 1.306 . S
C14 O17 1.160 . S
O15 C14 1.306 . S
O15 Cd16 2.228 1_554 S
Cd16 O15 2.228 1_556 S
Cd16 O20 2.273 1_556 S
Cd16 O24 2.277 . S
O17 C14 1.160 . S
O17 Cd18 2.203 . S
Cd18 O17 2.203 . S
Cd18 O20 2.411 . S
Cd18 O21 2.333 . S
Cd18 O22 2.352 . S
Cd18 O26 2.277 1_554 S
Cd18 O27 2.356 . S
C19 O24 1.209 . S
C19 O26 1.226 . S
O20 Cd16 2.273 1_554 S
O20 Cd18 2.411 . S
O20 C23 1.320 . S
O21 Cd18 2.333 . S
O21 C23 1.214 . S
O22 Cd18 2.352 . S
O22 C25 1.258 . S
C23 O20 1.320 . S
C23 O21 1.214 . S
O24 Cd16 2.277 . S
O24 C19 1.209 . S
C25 O22 1.258 . S
C25 O27 1.282 . S
O26 Cd18 2.277 1_556 S
O26 C19 1.226 . S
O27 Cd18 2.356 . S
O27 C25 1.282 . S
C28 O29 1.306 . S
C28 O31 1.160 . S
O29 C28 1.306 . S
O29 Cd30 2.228 1_554 S
Cd30 O29 2.228 1_556 S
Cd30 O34 2.273 1_556 S
Cd30 O38 2.277 . S
O31 C28 1.160 . S
O31 Cd32 2.203 . S
Cd32 O31 2.203 . S
Cd32 O34 2.411 . S
Cd32 O35 2.333 . S
Cd32 O36 2.352 . S
Cd32 O40 2.277 1_554 S
Cd32 O41 2.356 . S
C33 O38 1.209 . S
C33 O40 1.226 . S
O34 Cd30 2.273 1_554 S
O34 Cd32 2.411 . S
O34 C37 1.320 . S
O35 Cd32 2.333 . S
O35 C37 1.214 . S
O36 Cd32 2.352 . S
O36 C39 1.258 . S
C37 O34 1.320 . S
C37 O35 1.214 . S
O38 Cd30 2.277 . S
O38 C33 1.209 . S
C39 O36 1.258 . S
C39 O41 1.282 . S
O40 Cd32 2.277 1_556 S
O40 C33 1.226 . S
O41 Cd32 2.356 . S
O41 C39 1.282 . S
C42 O43 1.306 . S
C42 O45 1.160 . S
O43 C42 1.306 . S
O43 Cd44 2.228 1_556 S
Cd44 O43 2.228 1_554 S
Cd44 O48 2.273 1_554 S
Cd44 O52 2.277 . S
O45 C42 1.160 . S
O45 Cd46 2.203 . S
Cd46 O45 2.203 . S
Cd46 O48 2.411 . S
Cd46 O49 2.333 . S
Cd46 O50 2.352 . S
Cd46 O54 2.277 1_556 S
Cd46 O55 2.356 . S
C47 O52 1.209 . S
C47 O54 1.226 . S
O48 Cd44 2.273 1_556 S
O48 Cd46 2.411 . S
O48 C51 1.320 . S
O49 Cd46 2.333 . S
O49 C51 1.214 . S
O50 Cd46 2.352 . S
O50 C53 1.258 . S
C51 O48 1.320 . S
C51 O49 1.214 . S
O52 Cd44 2.277 . S
O52 C47 1.209 . S
C53 O50 1.258 . S
C53 O55 1.282 . S
O54 Cd46 2.277 1_554 S
O54 C47 1.226 . S
O55 Cd46 2.356 . S
O55 C53 1.282 . S
C56 O57 1.306 . S
C56 O59 1.160 . S
O57 C56 1.306 . S
O57 Cd58 2.228 1_556 S
Cd58 O57 2.228 1_554 S
Cd58 O62 2.273 1_554 S
Cd58 O66 2.277 . S
O59 C56 1.160 . S
O59 Cd60 2.203 . S
Cd60 O59 2.203 . S
Cd60 O62 2.411 . S
Cd60 O63 2.333 . S
Cd60 O64 2.352 . S
Cd60 O68 2.277 1_556 S
Cd60 O69 2.356 . S
C61 O66 1.209 . S
C61 O68 1.226 . S
O62 Cd58 2.273 1_556 S
O62 Cd60 2.411 . S
O62 C65 1.320 . S
O63 Cd60 2.333 . S
O63 C65 1.214 . S
O64 Cd60 2.352 . S
O64 C67 1.258 . S
C65 O62 1.320 . S
C65 O63 1.214 . S
O66 Cd58 2.277 . S
O66 C61 1.209 . S
C67 O64 1.258 . S
C67 O69 1.282 . S
O68 Cd60 2.277 1_554 S
O68 C61 1.226 . S
O69 Cd60 2.356 . S
O69 C67 1.282 . S
C70 O71 1.306 . S
C70 O73 1.160 . S
O71 C70 1.306 . S
O71 Cd72 2.228 1_556 S
Cd72 O71 2.228 1_554 S
Cd72 O76 2.273 1_554 S
Cd72 O80 2.277 . S
O73 C70 1.160 . S
O73 Cd74 2.203 . S
Cd74 O73 2.203 . S
Cd74 O76 2.411 . S
Cd74 O77 2.333 . S
Cd74 O78 2.352 . S
Cd74 O82 2.277 1_556 S
Cd74 O83 2.356 . S
C75 O80 1.209 . S
C75 O82 1.226 . S
O76 Cd72 2.273 1_556 S
O76 Cd74 2.411 . S
O76 C79 1.320 . S
O77 Cd74 2.333 . S
O77 C79 1.214 . S
O78 Cd74 2.352 . S
O78 C81 1.258 . S
C79 O76 1.320 . S
C79 O77 1.214 . S
O80 Cd72 2.277 . S
O80 C75 1.209 . S
C81 O78 1.258 . S
C81 O83 1.282 . S
O82 Cd74 2.277 1_554 S
O82 C75 1.226 . S
O83 Cd74 2.356 . S
O83 C81 1.282 . S
C84 O85 1.306 . S
C84 O87 1.160 . S
O85 C84 1.306 . S
O85 Cd86 2.228 . S
Cd86 O85 2.228 . S
Cd86 O90 2.273 . S
Cd86 O94 2.277 . S
O87 C84 1.160 . S
O87 Cd88 2.203 . S
Cd88 O87 2.203 . S
Cd88 O90 2.411 . S
Cd88 O91 2.333 . S
Cd88 O92 2.352 . S
Cd88 O96 2.277 . S
Cd88 O97 2.356 . S
C89 O94 1.209 . S
C89 O96 1.226 . S
O90 Cd86 2.273 . S
O90 Cd88 2.411 . S
O90 C93 1.320 . S
O91 Cd88 2.333 . S
O91 C93 1.214 . S
O92 Cd88 2.352 . S
O92 C95 1.258 . S
C93 O90 1.320 . S
C93 O91 1.214 . S
O94 Cd86 2.277 . S
O94 C89 1.209 . S
C95 O92 1.258 . S
C95 O97 1.282 . S
O96 Cd88 2.277 . S
O96 C89 1.226 . S
O97 Cd88 2.356 . S
O97 C95 1.282 . S
C98 O99 1.306 . S
C98 O101 1.160 . S
O99 C98 1.306 . S
O99 Cd100 2.228 . S
Cd100 O99 2.228 . S
Cd100 O104 2.273 . S
Cd100 O108 2.277 . S
O101 C98 1.160 . S
O101 Cd102 2.203 . S
Cd102 O101 2.203 . S
Cd102 O104 2.411 . S
Cd102 O105 2.333 . S
Cd102 O106 2.352 . S
Cd102 O110 2.277 . S
Cd102 O111 2.356 . S
C103 O108 1.209 . S
C103 O110 1.226 . S
O104 Cd100 2.273 . S
O104 Cd102 2.411 . S
O104 C107 1.320 . S
O105 Cd102 2.333 . S
O105 C107 1.214 . S
O106 Cd102 2.352 . S
O106 C109 1.258 . S
C107 O104 1.320 . S
C107 O105 1.214 . S
O108 Cd100 2.277 . S
O108 C103 1.209 . S
C109 O106 1.258 . S
C109 O111 1.282 . S
O110 Cd102 2.277 . S
O110 C103 1.226 . S
O111 Cd102 2.356 . S
O111 C109 1.282 . S
C112 O113 1.306 . S
C112 O115 1.160 . S
O113 C112 1.306 . S
O113 Cd114 2.228 . S
Cd114 O113 2.228 . S
Cd114 O118 2.273 . S
Cd114 O122 2.277 . S
O115 C112 1.160 . S
O115 Cd116 2.203 . S
Cd116 O115 2.203 . S
Cd116 O118 2.411 . S
Cd116 O119 2.333 . S
Cd116 O120 2.352 . S
Cd116 O124 2.277 . S
Cd116 O125 2.356 . S
C117 O122 1.209 . S
C117 O124 1.226 . S
O118 Cd114 2.273 . S
O118 Cd116 2.411 . S
O118 C121 1.320 . S
O119 Cd116 2.333 . S
O119 C121 1.214 . S
O120 Cd116 2.352 . S
O120 C123 1.258 . S
C121 O118 1.320 . S
C121 O119 1.214 . S
O122 Cd114 2.277 . S
O122 C117 1.209 . S
C123 O120 1.258 . S
C123 O125 1.282 . S
O124 Cd116 2.277 . S
O124 C117 1.226 . S
O125 Cd116 2.356 . S
O125 C123 1.282 . S
C126 O127 1.306 . S
C126 O129 1.160 . S
O127 C126 1.306 . S
O127 Cd128 2.228 . S
Cd128 O127 2.228 . S
Cd128 O132 2.273 . S
Cd128 O136 2.277 . S
O129 C126 1.160 . S
O129 Cd130 2.203 . S
Cd130 O129 2.203 . S
Cd130 O132 2.411 . S
Cd130 O133 2.333 . S
Cd130 O134 2.352 . S
Cd130 O138 2.277 . S
Cd130 O139 2.356 . S
C131 O136 1.209 . S
C131 O138 1.226 . S
O132 Cd128 2.273 . S
O132 Cd130 2.411 . S
O132 C135 1.320 . S
O133 Cd130 2.333 . S
O133 C135 1.214 . S
O134 Cd130 2.352 . S
O134 C137 1.258 . S
C135 O132 1.320 . S
C135 O133 1.214 . S
O136 Cd128 2.277 . S
O136 C131 1.209 . S
C137 O134 1.258 . S
C137 O139 1.282 . S
O138 Cd130 2.277 . S
O138 C131 1.226 . S
O139 Cd130 2.356 . S
O139 C137 1.282 . S
C140 O141 1.306 . S
C140 O143 1.160 . S
O141 C140 1.306 . S
O141 Cd142 2.228 . S
Cd142 O141 2.228 . S
Cd142 O146 2.273 . S
Cd142 O150 2.277 . S
O143 C140 1.160 . S
O143 Cd144 2.203 . S
Cd144 O143 2.203 . S
Cd144 O146 2.411 . S
Cd144 O147 2.333 . S
Cd144 O148 2.352 . S
Cd144 O152 2.277 . S
Cd144 O153 2.356 . S
C145 O150 1.209 . S
C145 O152 1.226 . S
O146 Cd142 2.273 . S
O146 Cd144 2.411 . S
O146 C149 1.320 . S
O147 Cd144 2.333 . S
O147 C149 1.214 . S
O148 Cd144 2.352 . S
O148 C151 1.258 . S
C149 O146 1.320 . S
C149 O147 1.214 . S
O150 Cd142 2.277 . S
O150 C145 1.209 . S
C151 O148 1.258 . S
C151 O153 1.282 . S
O152 Cd144 2.277 . S
O152 C145 1.226 . S
O153 Cd144 2.356 . S
O153 C151 1.282 . S
C154 O155 1.306 . S
C154 O157 1.160 . S
O155 C154 1.306 . S
O155 Cd156 2.228 . S
Cd156 O155 2.228 . S
Cd156 O160 2.273 . S
Cd156 O164 2.277 . S
O157 C154 1.160 . S
O157 Cd158 2.203 . S
Cd158 O157 2.203 . S
Cd158 O160 2.411 . S
Cd158 O161 2.333 . S
Cd158 O162 2.352 . S
Cd158 O166 2.277 . S
Cd158 O167 2.356 . S
C159 O164 1.209 . S
C159 O166 1.226 . S
O160 Cd156 2.273 . S
O160 Cd158 2.411 . S
O160 C163 1.320 . S
O161 Cd158 2.333 . S
O161 C163 1.214 . S
O162 Cd158 2.352 . S
O162 C165 1.258 . S
C163 O160 1.320 . S
C163 O161 1.214 . S
O164 Cd156 2.277 . S
O164 C159 1.209 . S
C165 O162 1.258 . S
C165 O167 1.282 . S
O166 Cd158 2.277 . S
O166 C159 1.226 . S
O167 Cd158 2.356 . S
O167 C165 1.282 . S
C168 O169 1.306 . S
C168 O171 1.160 . S
O169 C168 1.306 . S
O169 Cd170 2.228 . S
Cd170 O169 2.228 . S
Cd170 O174 2.273 . S
Cd170 O178 2.277 . S
O171 C168 1.160 . S
O171 Cd172 2.203 . S
Cd172 O171 2.203 . S
Cd172 O174 2.411 . S
Cd172 O175 2.333 . S
Cd172 O176 2.352 . S
Cd172 O180 2.277 . S
Cd172 O181 2.356 . S
C173 O178 1.209 . S
C173 O180 1.226 . S
O174 Cd170 2.273 . S
O174 Cd172 2.411 . S
O174 C177 1.320 . S
O175 Cd172 2.333 . S
O175 C177 1.214 . S
O176 Cd172 2.352 . S
O176 C179 1.258 . S
C177 O174 1.320 . S
C177 O175 1.214 . S
O178 Cd170 2.277 . S
O178 C173 1.209 . S
C179 O176 1.258 . S
C179 O181 1.282 . S
O180 Cd172 2.277 . S
O180 C173 1.226 . S
O181 Cd172 2.356 . S
O181 C179 1.282 . S
C182 O183 1.306 . S
C182 O185 1.160 . S
O183 C182 1.306 . S
O183 Cd184 2.228 . S
Cd184 O183 2.228 . S
Cd184 O188 2.273 . S
Cd184 O192 2.277 . S
O185 C182 1.160 . S
O185 Cd186 2.203 . S
Cd186 O185 2.203 . S
Cd186 O188 2.411 . S
Cd186 O189 2.333 . S
Cd186 O190 2.352 . S
Cd186 O194 2.277 . S
Cd186 O195 2.356 . S
C187 O192 1.209 . S
C187 O194 1.226 . S
O188 Cd184 2.273 . S
O188 Cd186 2.411 . S
O188 C191 1.320 . S
O189 Cd186 2.333 . S
O189 C191 1.214 . S
O190 Cd186 2.352 . S
O190 C193 1.258 . S
C191 O188 1.320 . S
C191 O189 1.214 . S
O192 Cd184 2.277 . S
O192 C187 1.209 . S
C193 O190 1.258 . S
C193 O195 1.282 . S
O194 Cd186 2.277 . S
O194 C187 1.226 . S
O195 Cd186 2.356 . S
O195 C193 1.282 . S
C196 O197 1.306 . S
C196 O199 1.160 . S
O197 C196 1.306 . S
O197 Cd198 2.228 . S
Cd198 O197 2.228 . S
Cd198 O202 2.273 . S
Cd198 O206 2.277 . S
O199 C196 1.160 . S
O199 Cd200 2.203 . S
Cd200 O199 2.203 . S
Cd200 O202 2.411 . S
Cd200 O203 2.333 . S
Cd200 O204 2.352 . S
Cd200 O208 2.277 . S
Cd200 O209 2.356 . S
C201 O206 1.209 . S
C201 O208 1.226 . S
O202 Cd198 2.273 . S
O202 Cd200 2.411 . S
O202 C205 1.320 . S
O203 Cd200 2.333 . S
O203 C205 1.214 . S
O204 Cd200 2.352 . S
O204 C207 1.258 . S
C205 O202 1.320 . S
C205 O203 1.214 . S
O206 Cd198 2.277 . S
O206 C201 1.209 . S
C207 O204 1.258 . S
C207 O209 1.282 . S
O208 Cd200 2.277 . S
O208 C201 1.226 . S
O209 Cd200 2.356 . S
O209 C207 1.282 . S
C210 O211 1.306 . S
C210 O213 1.160 . S
O211 C210 1.306 . S
O211 Cd212 2.228 . S
Cd212 O211 2.228 . S
Cd212 O216 2.273 . S
Cd212 O220 2.277 . S
O213 C210 1.160 . S
O213 Cd214 2.203 . S
Cd214 O213 2.203 . S
Cd214 O216 2.411 . S
Cd214 O217 2.333 . S
Cd214 O218 2.352 . S
Cd214 O222 2.277 . S
Cd214 O223 2.356 . S
C215 O220 1.209 . S
C215 O222 1.226 . S
O216 Cd212 2.273 . S
O216 Cd214 2.411 . S
O216 C219 1.320 . S
O217 Cd214 2.333 . S
O217 C219 1.214 . S
O218 Cd214 2.352 . S
O218 C221 1.258 . S
C219 O216 1.320 . S
C219 O217 1.214 . S
O220 Cd212 2.277 . S
O220 C215 1.209 . S
C221 O218 1.258 . S
C221 O223 1.282 . S
O222 Cd214 2.277 . S
O222 C215 1.226 . S
O223 Cd214 2.356 . S
O223 C221 1.282 . S
C224 O225 1.306 . S
C224 O227 1.160 . S
O225 C224 1.306 . S
O225 Cd226 2.228 . S
Cd226 O225 2.228 . S
Cd226 O230 2.273 . S
Cd226 O234 2.277 . S
O227 C224 1.160 . S
O227 Cd228 2.203 . S
Cd228 O227 2.203 . S
Cd228 O230 2.411 . S
Cd228 O231 2.333 . S
Cd228 O232 2.352 . S
Cd228 O236 2.277 . S
Cd228 O237 2.356 . S
C229 O234 1.209 . S
C229 O236 1.226 . S
O230 Cd226 2.273 . S
O230 Cd228 2.411 . S
O230 C233 1.320 . S
O231 Cd228 2.333 . S
O231 C233 1.214 . S
O232 Cd228 2.352 . S
O232 C235 1.258 . S
C233 O230 1.320 . S
C233 O231 1.214 . S
O234 Cd226 2.277 . S
O234 C229 1.209 . S
C235 O232 1.258 . S
C235 O237 1.282 . S
O236 Cd228 2.277 . S
O236 C229 1.226 . S
O237 Cd228 2.356 . S
O237 C235 1.282 . S
C238 O239 1.306 . S
C238 O241 1.160 . S
O239 C238 1.306 . S
O239 Cd240 2.228 . S
Cd240 O239 2.228 . S
Cd240 O244 2.273 . S
Cd240 O248 2.277 . S
O241 C238 1.160 . S
O241 Cd242 2.203 . S
Cd242 O241 2.203 . S
Cd242 O244 2.411 . S
Cd242 O245 2.333 . S
Cd242 O246 2.352 . S
Cd242 O250 2.277 . S
Cd242 O251 2.356 . S
C243 O248 1.209 . S
C243 O250 1.226 . S
O244 Cd240 2.273 . S
O244 Cd242 2.411 . S
O244 C247 1.320 . S
O245 Cd242 2.333 . S
O245 C247 1.214 . S
O246 Cd242 2.352 . S
O246 C249 1.258 . S
C247 O244 1.320 . S
C247 O245 1.214 . S
O248 Cd240 2.277 . S
O248 C243 1.209 . S
C249 O246 1.258 . S
C249 O251 1.282 . S
O250 Cd242 2.277 . S
O250 C243 1.226 . S
O251 Cd242 2.356 . S
O251 C249 1.282 . S
C252 C253 1.363 . S
C252 C258 1.379 . S
C252 N260 1.356 . S
C253 C252 1.363 . S
C253 C259 1.363 . S
C254 C255 1.363 . S
C254 C259 1.379 . S
C254 N261 1.356 . S
C255 C254 1.363 . S
C255 C258 1.363 . S
N256 C258 1.356 . S
N256 H268 0.984 . S
N256 H269 0.985 . S
N257 C259 1.356 . S
N257 H262 0.984 . S
N257 H263 0.985 . S
C258 C252 1.379 . S
C258 C255 1.363 . S
C258 N256 1.356 . S
C259 C253 1.363 . S
C259 C254 1.379 . S
C259 N257 1.356 . S
N260 C252 1.356 . S
N260 H266 0.984 . S
N260 H267 0.984 . S
N261 C254 1.356 . S
N261 H264 0.984 . S
N261 H265 0.985 . S
H262 N257 0.984 . S
H263 N257 0.985 . S
H264 N261 0.984 . S
H265 N261 0.985 . S
H266 N260 0.984 . S
H267 N260 0.984 . S
H268 N256 0.984 . S
H269 N256 0.985 . S
C270 C271 1.363 . S
C270 C276 1.379 . S
C270 N278 1.356 . S
C271 C270 1.363 . S
C271 C277 1.363 . S
C272 C273 1.363 . S
C272 C277 1.379 . S
C272 N279 1.356 . S
C273 C272 1.363 . S
C273 C276 1.363 . S
N274 C276 1.356 . S
N274 H286 0.984 . S
N274 H287 0.985 . S
N275 C277 1.356 . S
N275 H280 0.984 . S
N275 H281 0.985 . S
C276 C270 1.379 . S
C276 C273 1.363 . S
C276 N274 1.356 . S
C277 C271 1.363 . S
C277 C272 1.379 . S
C277 N275 1.356 . S
N278 C270 1.356 . S
N278 H284 0.984 . S
N278 H285 0.984 . S
N279 C272 1.356 . S
N279 H282 0.984 . S
N279 H283 0.985 . S
H280 N275 0.984 . S
H281 N275 0.985 . S
H282 N279 0.984 . S
H283 N279 0.985 . S
H284 N278 0.984 . S
H285 N278 0.984 . S
H286 N274 0.984 . S
H287 N274 0.985 . S
C288 C289 1.363 . S
C288 C294 1.379 . S
C288 N296 1.356 . S
C289 C288 1.363 . S
C289 C295 1.363 . S
C290 C291 1.363 . S
C290 C295 1.379 . S
C290 N297 1.356 . S
C291 C290 1.363 . S
C291 C294 1.363 . S
N292 C294 1.356 . S
N292 H304 0.984 . S
N292 H305 0.985 . S
N293 C295 1.356 . S
N293 H298 0.984 . S
N293 H299 0.985 . S
C294 C288 1.379 . S
C294 C291 1.363 . S
C294 N292 1.356 . S
C295 C289 1.363 . S
C295 C290 1.379 . S
C295 N293 1.356 . S
N296 C288 1.356 . S
N296 H302 0.984 . S
N296 H303 0.984 . S
N297 C290 1.356 . S
N297 H300 0.984 . S
N297 H301 0.985 . S
H298 N293 0.984 . S
H299 N293 0.985 . S
H300 N297 0.984 . S
H301 N297 0.985 . S
H302 N296 0.984 . S
H303 N296 0.984 . S
H304 N292 0.984 . S
H305 N292 0.985 . S
C306 C307 1.363 . S
C306 C312 1.379 . S
C306 N314 1.356 . S
C307 C306 1.363 . S
C307 C313 1.363 . S
C308 C309 1.363 . S
C308 C313 1.379 . S
C308 N315 1.356 . S
C309 C308 1.363 . S
C309 C312 1.363 . S
N310 C312 1.356 . S
N310 H322 0.984 . S
N310 H323 0.985 . S
N311 C313 1.356 . S
N311 H316 0.984 . S
N311 H317 0.985 . S
C312 C306 1.379 . S
C312 C309 1.363 . S
C312 N310 1.356 . S
C313 C307 1.363 . S
C313 C308 1.379 . S
C313 N311 1.356 . S
N314 C306 1.356 . S
N314 H320 0.984 . S
N314 H321 0.984 . S
N315 C308 1.356 . S
N315 H318 0.984 . S
N315 H319 0.985 . S
H316 N311 0.984 . S
H317 N311 0.985 . S
H318 N315 0.984 . S
H319 N315 0.985 . S
H320 N314 0.984 . S
H321 N314 0.984 . S
H322 N310 0.984 . S
H323 N310 0.985 . S
C324 C325 1.363 . S
C324 C330 1.379 . S
C324 N332 1.356 . S
C325 C324 1.363 . S
C325 C331 1.363 . S
C326 C327 1.363 . S
C326 C331 1.379 . S
C326 N333 1.356 . S
C327 C326 1.363 . S
C327 C330 1.363 . S
N328 C330 1.356 . S
N328 H340 0.984 . S
N328 H341 0.985 . S
N329 C331 1.356 . S
N329 H334 0.984 . S
N329 H335 0.985 . S
C330 C324 1.379 . S
C330 C327 1.363 . S
C330 N328 1.356 . S
C331 C325 1.363 . S
C331 C326 1.379 . S
C331 N329 1.356 . S
N332 C324 1.356 . S
N332 H338 0.984 . S
N332 H339 0.984 . S
N333 C326 1.356 . S
N333 H336 0.984 . S
N333 H337 0.985 . S
H334 N329 0.984 . S
H335 N329 0.985 . S
H336 N333 0.984 . S
H337 N333 0.985 . S
H338 N332 0.984 . S
H339 N332 0.984 . S
H340 N328 0.984 . S
H341 N328 0.985 . S
C342 C343 1.363 . S
C342 C348 1.379 . S
C342 N350 1.356 . S
C343 C342 1.363 . S
C343 C349 1.363 . S
C344 C345 1.363 . S
C344 C349 1.379 . S
C344 N351 1.356 . S
C345 C344 1.363 . S
C345 C348 1.363 . S
N346 C348 1.356 . S
N346 H358 0.984 . S
N346 H359 0.985 . S
N347 C349 1.356 . S
N347 H352 0.984 . S
N347 H353 0.985 . S
C348 C342 1.379 . S
C348 C345 1.363 . S
C348 N346 1.356 . S
C349 C343 1.363 . S
C349 C344 1.379 . S
C349 N347 1.356 . S
N350 C342 1.356 . S
N350 H356 0.984 . S
N350 H357 0.984 . S
N351 C344 1.356 . S
N351 H354 0.984 . S
N351 H355 0.985 . S
H352 N347 0.984 . S
H353 N347 0.985 . S
H354 N351 0.984 . S
H355 N351 0.985 . S
H356 N350 0.984 . S
H357 N350 0.984 . S
H358 N346 0.984 . S
H359 N346 0.985 . S
C360 C361 1.363 . S
C360 C366 1.379 1_654 S
C360 N368 1.356 . S
C361 C360 1.363 . S
C361 C367 1.363 . S
C362 C363 1.363 . S
C362 C367 1.379 1_456 S
C362 N369 1.356 . S
C363 C362 1.363 . S
C363 C366 1.363 . S
N364 C366 1.356 . S
N364 H376 0.984 . S
N364 H377 0.985 . S
N365 C367 1.356 . S
N365 H370 0.984 . S
N365 H371 0.985 . S
C366 C360 1.379 1_456 S
C366 C363 1.363 . S
C366 N364 1.356 . S
C367 C361 1.363 . S
C367 C362 1.379 1_654 S
C367 N365 1.356 . S
N368 C360 1.356 . S
N368 H374 0.984 . S
N368 H375 0.984 . S
N369 C362 1.356 . S
N369 H372 0.984 . S
N369 H373 0.985 . S
H370 N365 0.984 . S
H371 N365 0.985 . S
H372 N369 0.984 . S
H373 N369 0.985 . S
H374 N368 0.984 . S
H375 N368 0.984 . S
H376 N364 0.984 . S
H377 N364 0.985 . S
C378 C379 1.363 . S
C378 C384 1.379 1_554 S
C378 N386 1.356 . S
C379 C378 1.363 . S
C379 C385 1.363 . S
C380 C381 1.363 . S
C380 C385 1.379 1_556 S
C380 N387 1.356 . S
C381 C380 1.363 . S
C381 C384 1.363 . S
N382 C384 1.356 . S
N382 H394 0.984 . S
N382 H395 0.985 . S
N383 C385 1.356 . S
N383 H388 0.984 . S
N383 H389 0.985 . S
C384 C378 1.379 1_556 S
C384 C381 1.363 . S
C384 N382 1.356 . S
C385 C379 1.363 . S
C385 C380 1.379 1_554 S
C385 N383 1.356 . S
N386 C378 1.356 . S
N386 H392 0.984 . S
N386 H393 0.984 . S
N387 C380 1.356 . S
N387 H390 0.984 . S
N387 H391 0.985 . S
H388 N383 0.984 . S
H389 N383 0.985 . S
H390 N387 0.984 . S
H391 N387 0.985 . S
H392 N386 0.984 . S
H393 N386 0.984 . S
H394 N382 0.984 . S
H395 N382 0.985 . S
C396 C397 1.363 . S
C396 C402 1.379 1_554 S
C396 N404 1.356 . S
C397 C396 1.363 . S
C397 C403 1.363 1_545 S
C398 C399 1.363 . S
C398 C403 1.379 1_556 S
C398 N405 1.356 . S
C399 C398 1.363 . S
C399 C402 1.363 1_565 S
N400 C402 1.356 . S
N400 H412 0.984 . S
N400 H413 0.985 1_545 S
N401 C403 1.356 . S
N401 H406 0.984 1_565 S
N401 H407 0.985 . S
C402 C396 1.379 1_556 S
C402 C399 1.363 1_545 S
C402 N400 1.356 . S
C403 C397 1.363 1_565 S
C403 C398 1.379 1_554 S
C403 N401 1.356 . S
N404 C396 1.356 . S
N404 H410 0.984 . S
N404 H411 0.984 . S
N405 C398 1.356 . S
N405 H408 0.984 . S
N405 H409 0.985 . S
H406 N401 0.984 1_545 S
H407 N401 0.985 . S
H408 N405 0.984 . S
H409 N405 0.985 . S
H410 N404 0.984 . S
H411 N404 0.984 . S
H412 N400 0.984 . S
H413 N400 0.985 1_565 S
C414 C415 1.363 . S
C414 C420 1.379 . S
C414 N422 1.356 . S
C415 C414 1.363 . S
C415 C421 1.363 . S
C416 C417 1.363 . S
C416 C421 1.379 . S
C416 N423 1.356 . S
C417 C416 1.363 . S
C417 C420 1.363 . S
N418 C420 1.356 . S
N418 H430 0.984 . S
N418 H431 0.985 . S
N419 C421 1.356 . S
N419 H424 0.984 . S
N419 H425 0.985 . S
C420 C414 1.379 . S
C420 C417 1.363 . S
C420 N418 1.356 . S
C421 C415 1.363 . S
C421 C416 1.379 . S
C421 N419 1.356 . S
N422 C414 1.356 . S
N422 H428 0.984 . S
N422 H429 0.984 . S
N423 C416 1.356 . S
N423 H426 0.984 . S
N423 H427 0.985 . S
H424 N419 0.984 . S
H425 N419 0.985 . S
H426 N423 0.984 . S
H427 N423 0.985 . S
H428 N422 0.984 . S
H429 N422 0.984 . S
H430 N418 0.984 . S
H431 N418 0.985 . S
C432 C433 1.363 . S
C432 C438 1.379 . S
C432 N440 1.356 . S
C433 C432 1.363 . S
C433 C439 1.363 . S
C434 C435 1.363 . S
C434 C439 1.379 . S
C434 N441 1.356 . S
C435 C434 1.363 . S
C435 C438 1.363 . S
N436 C438 1.356 . S
N436 H448 0.984 . S
N436 H449 0.985 . S
N437 C439 1.356 . S
N437 H442 0.984 . S
N437 H443 0.985 . S
C438 C432 1.379 . S
C438 C435 1.363 . S
C438 N436 1.356 . S
C439 C433 1.363 . S
C439 C434 1.379 . S
C439 N437 1.356 . S
N440 C432 1.356 . S
N440 H446 0.984 . S
N440 H447 0.984 . S
N441 C434 1.356 . S
N441 H444 0.984 . S
N441 H445 0.985 . S
H442 N437 0.984 . S
H443 N437 0.985 . S
H444 N441 0.984 . S
H445 N441 0.985 . S
H446 N440 0.984 . S
H447 N440 0.984 . S
H448 N436 0.984 . S
H449 N436 0.985 . S
C450 C451 1.363 . S
C450 C456 1.379 . S
C450 N458 1.356 . S
C451 C450 1.363 . S
C451 C457 1.363 . S
C452 C453 1.363 . S
C452 C457 1.379 . S
C452 N459 1.356 . S
C453 C452 1.363 . S
C453 C456 1.363 . S
N454 C456 1.356 . S
N454 H466 0.984 . S
N454 H467 0.985 . S
N455 C457 1.356 . S
N455 H460 0.984 . S
N455 H461 0.985 . S
C456 C450 1.379 . S
C456 C453 1.363 . S
C456 N454 1.356 . S
C457 C451 1.363 . S
C457 C452 1.379 . S
C457 N455 1.356 . S
N458 C450 1.356 . S
N458 H464 0.984 . S
N458 H465 0.984 . S
N459 C452 1.356 . S
N459 H462 0.984 . S
N459 H463 0.985 . S
H460 N455 0.984 . S
H461 N455 0.985 . S
H462 N459 0.984 . S
H463 N459 0.985 . S
H464 N458 0.984 . S
H465 N458 0.984 . S
H466 N454 0.984 . S
H467 N454 0.985 . S
C468 C469 1.363 . S
C468 C474 1.379 . S
C468 N476 1.356 . S
C469 C468 1.363 . S
C469 C475 1.363 . S
C470 C471 1.363 . S
C470 C475 1.379 . S
C470 N477 1.356 . S
C471 C470 1.363 . S
C471 C474 1.363 . S
N472 C474 1.356 . S
N472 H484 0.984 . S
N472 H485 0.985 . S
N473 C475 1.356 . S
N473 H478 0.984 . S
N473 H479 0.985 . S
C474 C468 1.379 . S
C474 C471 1.363 . S
C474 N472 1.356 . S
C475 C469 1.363 . S
C475 C470 1.379 . S
C475 N473 1.356 . S
N476 C468 1.356 . S
N476 H482 0.984 . S
N476 H483 0.984 . S
N477 C470 1.356 . S
N477 H480 0.984 . S
N477 H481 0.985 . S
H478 N473 0.984 . S
H479 N473 0.985 . S
H480 N477 0.984 . S
H481 N477 0.985 . S
H482 N476 0.984 . S
H483 N476 0.984 . S
H484 N472 0.984 . S
H485 N472 0.985 . S
C486 C487 1.363 . S
C486 C492 1.379 . S
C486 N494 1.356 . S
C487 C486 1.363 . S
C487 C493 1.363 . S
C488 C489 1.363 . S
C488 C493 1.379 . S
C488 N495 1.356 . S
C489 C488 1.363 . S
C489 C492 1.363 . S
N490 C492 1.356 . S
N490 H502 0.984 . S
N490 H503 0.985 . S
N491 C493 1.356 . S
N491 H496 0.984 . S
N491 H497 0.985 . S
C492 C486 1.379 . S
C492 C489 1.363 . S
C492 N490 1.356 . S
C493 C487 1.363 . S
C493 C488 1.379 . S
C493 N491 1.356 . S
N494 C486 1.356 . S
N494 H500 0.984 . S
N494 H501 0.984 . S
N495 C488 1.356 . S
N495 H498 0.984 . S
N495 H499 0.985 . S
H496 N491 0.984 . S
H497 N491 0.985 . S
H498 N495 0.984 . S
H499 N495 0.985 . S
H500 N494 0.984 . S
H501 N494 0.984 . S
H502 N490 0.984 . S
H503 N490 0.985 . S
C504 C505 1.363 . S
C504 C510 1.379 . S
C504 N512 1.356 . S
C505 C504 1.363 . S
C505 C511 1.363 . S
C506 C507 1.363 . S
C506 C511 1.379 . S
C506 N513 1.356 . S
C507 C506 1.363 . S
C507 C510 1.363 . S
N508 C510 1.356 . S
N508 H520 0.984 . S
N508 H521 0.985 . S
N509 C511 1.356 . S
N509 H514 0.984 . S
N509 H515 0.985 . S
C510 C504 1.379 . S
C510 C507 1.363 . S
C510 N508 1.356 . S
C511 C505 1.363 . S
C511 C506 1.379 . S
C511 N509 1.356 . S
N512 C504 1.356 . S
N512 H518 0.984 . S
N512 H519 0.984 . S
N513 C506 1.356 . S
N513 H516 0.984 . S
N513 H517 0.985 . S
H514 N509 0.984 . S
H515 N509 0.985 . S
H516 N513 0.984 . S
H517 N513 0.985 . S
H518 N512 0.984 . S
H519 N512 0.984 . S
H520 N508 0.984 . S
H521 N508 0.985 . S
C522 C523 1.363 1_455 S
C522 C528 1.379 . S
C522 N530 1.356 . S
C523 C522 1.363 1_655 S
C523 C529 1.363 . S
C524 C525 1.363 1_655 S
C524 C529 1.379 . S
C524 N531 1.356 . S
C525 C524 1.363 1_455 S
C525 C528 1.363 . S
N526 C528 1.356 . S
N526 H538 0.984 . S
N526 H539 0.985 . S
N527 C529 1.356 . S
N527 H532 0.984 . S
N527 H533 0.985 . S
C528 C522 1.379 . S
C528 C525 1.363 . S
C528 N526 1.356 . S
C529 C523 1.363 . S
C529 C524 1.379 . S
C529 N527 1.356 . S
N530 C522 1.356 . S
N530 H536 0.984 . S
N530 H537 0.984 . S
N531 C524 1.356 . S
N531 H534 0.984 . S
N531 H535 0.985 . S
H532 N527 0.984 . S
H533 N527 0.985 . S
H534 N531 0.984 . S
H535 N531 0.985 . S
H536 N530 0.984 . S
H537 N530 0.984 . S
H538 N526 0.984 . S
H539 N526 0.985 . S
C540 C541 1.363 . S
C540 C546 1.379 . S
C540 N548 1.356 . S
C541 C540 1.363 . S
C541 C547 1.363 . S
C542 C543 1.363 . S
C542 C547 1.379 . S
C542 N549 1.356 . S
C543 C542 1.363 . S
C543 C546 1.363 . S
N544 C546 1.356 . S
N544 H556 0.984 . S
N544 H557 0.985 . S
N545 C547 1.356 . S
N545 H550 0.984 . S
N545 H551 0.985 . S
C546 C540 1.379 . S
C546 C543 1.363 . S
C546 N544 1.356 . S
C547 C541 1.363 . S
C547 C542 1.379 . S
C547 N545 1.356 . S
N548 C540 1.356 . S
N548 H554 0.984 . S
N548 H555 0.984 . S
N549 C542 1.356 . S
N549 H552 0.984 . S
N549 H553 0.985 . S
H550 N545 0.984 . S
H551 N545 0.985 . S
H552 N549 0.984 . S
H553 N549 0.985 . S
H554 N548 0.984 . S
H555 N548 0.984 . S
H556 N544 0.984 . S
H557 N544 0.985 . S
C558 C559 1.363 . S
C558 C564 1.379 1_565 S
C558 N566 1.356 . S
C559 C558 1.363 . S
C559 C565 1.363 . S
C560 C561 1.363 . S
C560 C565 1.379 1_545 S
C560 N567 1.356 . S
C561 C560 1.363 . S
C561 C564 1.363 . S
N562 C564 1.356 . S
N562 H574 0.984 . S
N562 H575 0.985 . S
N563 C565 1.356 . S
N563 H568 0.984 . S
N563 H569 0.985 . S
C564 C558 1.379 1_545 S
C564 C561 1.363 . S
C564 N562 1.356 . S
C565 C559 1.363 . S
C565 C560 1.379 1_565 S
C565 N563 1.356 . S
N566 C558 1.356 . S
N566 H572 0.984 . S
N566 H573 0.984 . S
N567 C560 1.356 . S
N567 H570 0.984 . S
N567 H571 0.985 . S
H568 N563 0.984 . S
H569 N563 0.985 . S
H570 N567 0.984 . S
H571 N567 0.985 . S
H572 N566 0.984 . S
H573 N566 0.984 . S
H574 N562 0.984 . S
H575 N562 0.985 . S
C576 C577 1.363 1_556 S
C576 C582 1.379 . S
C576 N584 1.356 . S
C577 C576 1.363 1_554 S
C577 C583 1.363 . S
C578 C579 1.363 1_554 S
C578 C583 1.379 . S
C578 N585 1.356 . S
C579 C578 1.363 1_556 S
C579 C582 1.363 . S
N580 C582 1.356 . S
N580 H592 0.984 . S
N580 H593 0.985 . S
N581 C583 1.356 . S
N581 H586 0.984 . S
N581 H587 0.985 . S
C582 C576 1.379 . S
C582 C579 1.363 . S
C582 N580 1.356 . S
C583 C577 1.363 . S
C583 C578 1.379 . S
C583 N581 1.356 . S
N584 C576 1.356 . S
N584 H590 0.984 . S
N584 H591 0.984 . S
N585 C578 1.356 . S
N585 H588 0.984 . S
N585 H589 0.985 . S
H586 N581 0.984 . S
H587 N581 0.985 . S
H588 N585 0.984 . S
H589 N585 0.985 . S
H590 N584 0.984 . S
H591 N584 0.984 . S
H592 N580 0.984 . S
H593 N580 0.985 . S
C594 C595 1.363 . S
C594 C600 1.379 1_546 S
C594 N602 1.356 . S
C595 C594 1.363 . S
C595 C601 1.363 . S
C596 C597 1.363 . S
C596 C601 1.379 1_564 S
C596 N603 1.356 . S
C597 C596 1.363 . S
C597 C600 1.363 . S
N598 C600 1.356 . S
N598 H610 0.984 . S
N598 H611 0.985 . S
N599 C601 1.356 . S
N599 H604 0.984 . S
N599 H605 0.985 . S
C600 C594 1.379 1_564 S
C600 C597 1.363 . S
C600 N598 1.356 . S
C601 C595 1.363 . S
C601 C596 1.379 1_546 S
C601 N599 1.356 . S
N602 C594 1.356 . S
N602 H608 0.988 . S
N602 H609 0.984 . S
N603 C596 1.356 . S
N603 H606 0.984 . S
N603 H607 0.988 . S
H604 N599 0.984 . S
H605 N599 0.985 . S
H606 N603 0.984 . S
H607 N603 0.988 . S
H608 N602 0.988 . S
H609 N602 0.984 . S
H610 N598 0.984 . S
H611 N598 0.985 . S
C612 C613 1.363 1_554 S
C612 C618 1.379 1_655 S
C612 N620 1.356 . S
C613 C612 1.363 1_556 S
C613 C619 1.363 . S
C614 C615 1.363 1_556 S
C614 C619 1.379 1_455 S
C614 N621 1.356 . S
C615 C614 1.363 1_554 S
C615 C618 1.363 . S
N616 C618 1.356 . S
N616 H628 0.984 . S
N616 H629 0.985 . S
N617 C619 1.356 . S
N617 H622 0.984 . S
N617 H623 0.985 . S
C618 C612 1.379 1_455 S
C618 C615 1.363 . S
C618 N616 1.356 . S
C619 C613 1.363 . S
C619 C614 1.379 1_655 S
C619 N617 1.356 . S
N620 C612 1.356 . S
N620 H626 0.984 . S
N620 H627 0.984 . S
N621 C614 1.356 . S
N621 H624 0.984 . S
N621 H625 0.985 . S
H622 N617 0.984 . S
H623 N617 0.985 . S
H624 N621 0.984 . S
H625 N621 0.985 . S
H626 N620 0.984 . S
H627 N620 0.984 . S
H628 N616 0.984 . S
H629 N616 0.985 . S
C630 C631 1.363 1_554 S
C630 C636 1.379 . S
C630 N638 1.356 . S
C631 C630 1.363 1_556 S
C631 C637 1.363 . S
C632 C633 1.363 1_556 S
C632 C637 1.379 . S
C632 N639 1.356 . S
C633 C632 1.363 1_554 S
C633 C636 1.363 . S
N634 C636 1.356 . S
N634 H646 0.984 . S
N634 H647 0.985 . S
N635 C637 1.356 . S
N635 H640 0.984 . S
N635 H641 0.985 . S
C636 C630 1.379 . S
C636 C633 1.363 . S
C636 N634 1.356 . S
C637 C631 1.363 . S
C637 C632 1.379 . S
C637 N635 1.356 . S
N638 C630 1.356 . S
N638 H644 0.984 . S
N638 H645 0.984 . S
N639 C632 1.356 . S
N639 H642 0.984 . S
N639 H643 0.985 . S
H640 N635 0.984 . S
H641 N635 0.985 . S
H642 N639 0.984 . S
H643 N639 0.985 . S
H644 N638 0.984 . S
H645 N638 0.984 . S
H646 N634 0.984 . S
H647 N634 0.985 . S
C648 C649 1.363 . S
C648 C654 1.379 1_565 S
C648 N656 1.356 . S
C649 C648 1.363 . S
C649 C655 1.363 1_554 S
C650 C651 1.363 . S
C650 C655 1.379 1_545 S
C650 N657 1.356 . S
C651 C650 1.363 . S
C651 C654 1.363 1_556 S
N652 C654 1.356 . S
N652 H664 0.984 . S
N652 H665 0.985 . S
N653 C655 1.356 . S
N653 H658 0.984 . S
N653 H659 0.985 . S
C654 C648 1.379 1_545 S
C654 C651 1.363 1_554 S
C654 N652 1.356 . S
C655 C649 1.363 1_556 S
C655 C650 1.379 1_565 S
C655 N653 1.356 . S
N656 C648 1.356 . S
N656 H662 0.984 . S
N656 H663 0.984 . S
N657 C650 1.356 . S
N657 H660 0.984 . S
N657 H661 0.985 . S
H658 N653 0.984 . S
H659 N653 0.985 . S
H660 N657 0.984 . S
H661 N657 0.985 . S
H662 N656 0.984 . S
H663 N656 0.984 . S
H664 N652 0.984 . S
H665 N652 0.985 . S
C666 C667 1.363 . S
C666 C672 1.379 1_656 S
C666 N674 1.356 . S
C667 C666 1.363 . S
C667 C673 1.363 . S
C668 C669 1.363 . S
C668 C673 1.379 1_454 S
C668 N675 1.356 . S
C669 C668 1.363 . S
C669 C672 1.363 . S
N670 C672 1.356 . S
N670 H682 0.984 . S
N670 H683 0.985 . S
N671 C673 1.356 . S
N671 H676 0.984 . S
N671 H677 0.985 . S
C672 C666 1.379 1_454 S
C672 C669 1.363 . S
C672 N670 1.356 . S
C673 C667 1.363 . S
C673 C668 1.379 1_656 S
C673 N671 1.356 . S
N674 C666 1.356 . S
N674 H680 0.984 . S
N674 H681 0.984 . S
N675 C668 1.356 . S
N675 H678 0.984 . S
N675 H679 0.985 . S
H676 N671 0.984 . S
H677 N671 0.985 . S
H678 N675 0.984 . S
H679 N675 0.985 . S
H680 N674 0.984 . S
H681 N674 0.984 . S
H682 N670 0.984 . S
H683 N670 0.985 . S
C684 C685 1.363 . S
C684 C690 1.379 . S
C684 N692 1.356 . S
C685 C684 1.363 . S
C685 C691 1.363 . S
C686 C687 1.363 . S
C686 C691 1.379 . S
C686 N693 1.356 . S
C687 C686 1.363 . S
C687 C690 1.363 . S
N688 C690 1.356 . S
N688 H700 0.984 . S
N688 H701 0.985 . S
N689 C691 1.356 . S
N689 H694 0.984 . S
N689 H695 0.985 . S
C690 C684 1.379 . S
C690 C687 1.363 . S
C690 N688 1.356 . S
C691 C685 1.363 . S
C691 C686 1.379 . S
C691 N689 1.356 . S
N692 C684 1.356 . S
N692 H698 0.984 . S
N692 H699 0.984 . S
N693 C686 1.356 . S
N693 H696 0.984 . S
N693 H697 0.985 . S
H694 N689 0.984 . S
H695 N689 0.985 . S
H696 N693 0.984 . S
H697 N693 0.985 . S
H698 N692 0.984 . S
H699 N692 0.984 . S
H700 N688 0.984 . S
H701 N688 0.985 . S
C702 C703 1.363 . S
C702 C708 1.379 . S
C702 N710 1.356 . S
C703 C702 1.363 . S
C703 C709 1.363 . S
C704 C705 1.363 . S
C704 C709 1.379 . S
C704 N711 1.356 . S
C705 C704 1.363 . S
C705 C708 1.363 . S
N706 C708 1.356 . S
N706 H718 0.984 . S
N706 H719 0.985 . S
N707 C709 1.356 . S
N707 H712 0.984 . S
N707 H713 0.985 . S
C708 C702 1.379 . S
C708 C705 1.363 . S
C708 N706 1.356 . S
C709 C703 1.363 . S
C709 C704 1.379 . S
C709 N707 1.356 . S
N710 C702 1.356 . S
N710 H716 0.984 . S
N710 H717 0.984 . S
N711 C704 1.356 . S
N711 H714 0.984 . S
N711 H715 0.985 . S
H712 N707 0.984 . S
H713 N707 0.985 . S
H714 N711 0.984 . S
H715 N711 0.985 . S
H716 N710 0.984 . S
H717 N710 0.984 . S
H718 N706 0.984 . S
H719 N706 0.985 . S
C720 C721 1.363 . S
C720 C726 1.379 . S
C720 N728 1.356 . S
C721 C720 1.363 . S
C721 C727 1.363 . S
C722 C723 1.363 . S
C722 C727 1.379 . S
C722 N729 1.356 . S
C723 C722 1.363 . S
C723 C726 1.363 . S
N724 C726 1.356 . S
N724 H736 0.984 . S
N724 H737 0.985 . S
N725 C727 1.356 . S
N725 H730 0.984 . S
N725 H731 0.985 . S
C726 C720 1.379 . S
C726 C723 1.363 . S
C726 N724 1.356 . S
C727 C721 1.363 . S
C727 C722 1.379 . S
C727 N725 1.356 . S
N728 C720 1.356 . S
N728 H734 0.984 . S
N728 H735 0.984 . S
N729 C722 1.356 . S
N729 H732 0.984 . S
N729 H733 0.985 . S
H730 N725 0.984 . S
H731 N725 0.985 . S
H732 N729 0.984 . S
H733 N729 0.985 . S
H734 N728 0.984 . S
H735 N728 0.984 . S
H736 N724 0.984 . S
H737 N724 0.985 . S
C738 C739 1.363 . S
C738 C744 1.379 . S
C738 N746 1.356 . S
C739 C738 1.363 . S
C739 C745 1.363 . S
C740 C741 1.363 . S
C740 C745 1.379 . S
C740 N747 1.356 . S
C741 C740 1.363 . S
C741 C744 1.363 . S
N742 C744 1.356 . S
N742 H754 0.984 . S
N742 H755 0.985 . S
N743 C745 1.356 . S
N743 H748 0.984 . S
N743 H749 0.985 . S
C744 C738 1.379 . S
C744 C741 1.363 . S
C744 N742 1.356 . S
C745 C739 1.363 . S
C745 C740 1.379 . S
C745 N743 1.356 . S
N746 C738 1.356 . S
N746 H752 0.984 . S
N746 H753 0.984 . S
N747 C740 1.356 . S
N747 H750 0.984 . S
N747 H751 0.985 . S
H748 N743 0.984 . S
H749 N743 0.985 . S
H750 N747 0.984 . S
H751 N747 0.985 . S
H752 N746 0.984 . S
H753 N746 0.984 . S
H754 N742 0.984 . S
H755 N742 0.985 . S
C756 C757 1.363 . S
C756 C762 1.379 . S
C756 N764 1.356 . S
C757 C756 1.363 . S
C757 C763 1.363 . S
C758 C759 1.363 . S
C758 C763 1.379 . S
C758 N765 1.356 . S
C759 C758 1.363 . S
C759 C762 1.363 . S
N760 C762 1.356 . S
N760 H772 0.984 . S
N760 H773 0.985 . S
N761 C763 1.356 . S
N761 H766 0.984 . S
N761 H767 0.985 . S
C762 C756 1.379 . S
C762 C759 1.363 . S
C762 N760 1.356 . S
C763 C757 1.363 . S
C763 C758 1.379 . S
C763 N761 1.356 . S
N764 C756 1.356 . S
N764 H770 0.984 . S
N764 H771 0.984 . S
N765 C758 1.356 . S
N765 H768 0.984 . S
N765 H769 0.985 . S
H766 N761 0.984 . S
H767 N761 0.985 . S
H768 N765 0.984 . S
H769 N765 0.985 . S
H770 N764 0.984 . S
H771 N764 0.984 . S
H772 N760 0.984 . S
H773 N760 0.985 . S
C774 C775 1.363 . S
C774 C780 1.379 . S
C774 N782 1.356 . S
C775 C774 1.363 . S
C775 C781 1.363 . S
C776 C777 1.363 . S
C776 C781 1.379 . S
C776 N783 1.356 . S
C777 C776 1.363 . S
C777 C780 1.363 . S
N778 C780 1.356 . S
N778 H790 0.984 . S
N778 H791 0.985 . S
N779 C781 1.356 . S
N779 H784 0.984 . S
N779 H785 0.985 . S
C780 C774 1.379 . S
C780 C777 1.363 . S
C780 N778 1.356 . S
C781 C775 1.363 . S
C781 C776 1.379 . S
C781 N779 1.356 . S
N782 C774 1.356 . S
N782 H788 0.984 . S
N782 H789 0.984 . S
N783 C776 1.356 . S
N783 H786 0.984 . S
N783 H787 0.985 . S
H784 N779 0.984 . S
H785 N779 0.985 . S
H786 N783 0.984 . S
H787 N783 0.985 . S
H788 N782 0.984 . S
H789 N782 0.984 . S
H790 N778 0.984 . S
H791 N778 0.985 . S
C792 C793 1.363 . S
C792 C798 1.379 . S
C792 N800 1.356 . S
C793 C792 1.363 . S
C793 C799 1.363 . S
C794 C795 1.363 . S
C794 C799 1.379 . S
C794 N801 1.356 . S
C795 C794 1.363 . S
C795 C798 1.363 . S
N796 C798 1.356 . S
N796 H808 0.984 . S
N796 H809 0.985 . S
N797 C799 1.356 . S
N797 H802 0.984 . S
N797 H803 0.985 . S
C798 C792 1.379 . S
C798 C795 1.363 . S
C798 N796 1.356 . S
C799 C793 1.363 . S
C799 C794 1.379 . S
C799 N797 1.356 . S
N800 C792 1.356 . S
N800 H806 0.984 . S
N800 H807 0.984 . S
N801 C794 1.356 . S
N801 H804 0.984 . S
N801 H805 0.985 . S
H802 N797 0.984 . S
H803 N797 0.985 . S
H804 N801 0.984 . S
H805 N801 0.985 . S
H806 N800 0.984 . S
H807 N800 0.984 . S
H808 N796 0.984 . S
H809 N796 0.985 . S
C810 C811 1.363 . S
C810 C816 1.379 . S
C810 N818 1.356 . S
C811 C810 1.363 . S
C811 C817 1.363 . S
C812 C813 1.363 . S
C812 C817 1.379 . S
C812 N819 1.356 . S
C813 C812 1.363 . S
C813 C816 1.363 . S
N814 C816 1.356 . S
N814 H826 0.984 . S
N814 H827 0.985 . S
N815 C817 1.356 . S
N815 H820 0.984 . S
N815 H821 0.985 . S
C816 C810 1.379 . S
C816 C813 1.363 . S
C816 N814 1.356 . S
C817 C811 1.363 . S
C817 C812 1.379 . S
C817 N815 1.356 . S
N818 C810 1.356 . S
N818 H824 0.984 . S
N818 H825 0.984 . S
N819 C812 1.356 . S
N819 H822 0.984 . S
N819 H823 0.985 . S
H820 N815 0.984 . S
H821 N815 0.985 . S
H822 N819 0.984 . S
H823 N819 0.985 . S
H824 N818 0.984 . S
H825 N818 0.984 . S
H826 N814 0.984 . S
H827 N814 0.985 . S
C828 C829 1.363 . S
C828 C834 1.379 . S
C828 N836 1.356 . S
C829 C828 1.363 . S
C829 C835 1.363 . S
C830 C831 1.363 . S
C830 C835 1.379 . S
C830 N837 1.356 . S
C831 C830 1.363 . S
C831 C834 1.363 . S
N832 C834 1.356 . S
N832 H844 0.984 . S
N832 H845 0.985 . S
N833 C835 1.356 . S
N833 H838 0.984 . S
N833 H839 0.985 . S
C834 C828 1.379 . S
C834 C831 1.363 . S
C834 N832 1.356 . S
C835 C829 1.363 . S
C835 C830 1.379 . S
C835 N833 1.356 . S
N836 C828 1.356 . S
N836 H842 0.984 . S
N836 H843 0.984 . S
N837 C830 1.356 . S
N837 H840 0.984 . S
N837 H841 0.985 . S
H838 N833 0.984 . S
H839 N833 0.985 . S
H840 N837 0.984 . S
H841 N837 0.985 . S
H842 N836 0.984 . S
H843 N836 0.984 . S
H844 N832 0.984 . S
H845 N832 0.985 . S
C846 C847 1.363 . S
C846 C852 1.379 . S
C846 N854 1.356 . S
C847 C846 1.363 . S
C847 C853 1.363 . S
C848 C849 1.363 . S
C848 C853 1.379 . S
C848 N855 1.356 . S
C849 C848 1.363 . S
C849 C852 1.363 . S
N850 C852 1.356 . S
N850 H862 0.984 . S
N850 H863 0.985 . S
N851 C853 1.356 . S
N851 H856 0.984 . S
N851 H857 0.985 . S
C852 C846 1.379 . S
C852 C849 1.363 . S
C852 N850 1.356 . S
C853 C847 1.363 . S
C853 C848 1.379 . S
C853 N851 1.356 . S
N854 C846 1.356 . S
N854 H860 0.984 . S
N854 H861 0.984 . S
N855 C848 1.356 . S
N855 H858 0.984 . S
N855 H859 0.985 . S
H856 N851 0.984 . S
H857 N851 0.985 . S
H858 N855 0.984 . S
H859 N855 0.985 . S
H860 N854 0.984 . S
H861 N854 0.984 . S
H862 N850 0.984 . S
H863 N850 0.985 . S
C864 C865 1.363 . S
C864 C870 1.379 . S
C864 N872 1.356 . S
C865 C864 1.363 . S
C865 C871 1.363 . S
C866 C867 1.363 . S
C866 C871 1.379 . S
C866 N873 1.356 . S
C867 C866 1.363 . S
C867 C870 1.363 . S
N868 C870 1.356 . S
N868 H880 0.984 . S
N868 H881 0.985 . S
N869 C871 1.356 . S
N869 H874 0.984 . S
N869 H875 0.985 . S
C870 C864 1.379 . S
C870 C867 1.363 . S
C870 N868 1.356 . S
C871 C865 1.363 . S
C871 C866 1.379 . S
C871 N869 1.356 . S
N872 C864 1.356 . S
N872 H878 0.984 . S
N872 H879 0.984 . S
N873 C866 1.356 . S
N873 H876 0.984 . S
N873 H877 0.985 . S
H874 N869 0.984 . S
H875 N869 0.985 . S
H876 N873 0.984 . S
H877 N873 0.985 . S
H878 N872 0.984 . S
H879 N872 0.984 . S
H880 N868 0.984 . S
H881 N868 0.985 . S
C882 C883 1.363 . S
C882 C888 1.379 . S
C882 N890 1.356 . S
C883 C882 1.363 . S
C883 C889 1.363 . S
C884 C885 1.363 . S
C884 C889 1.379 . S
C884 N891 1.356 . S
C885 C884 1.363 . S
C885 C888 1.363 . S
N886 C888 1.356 . S
N886 H898 0.984 . S
N886 H899 0.985 . S
N887 C889 1.356 . S
N887 H892 0.984 . S
N887 H893 0.985 . S
C888 C882 1.379 . S
C888 C885 1.363 . S
C888 N886 1.356 . S
C889 C883 1.363 . S
C889 C884 1.379 . S
C889 N887 1.356 . S
N890 C882 1.356 . S
N890 H896 0.984 . S
N890 H897 0.984 . S
N891 C884 1.356 . S
N891 H894 0.984 . S
N891 H895 0.985 . S
H892 N887 0.984 . S
H893 N887 0.985 . S
H894 N891 0.984 . S
H895 N891 0.985 . S
H896 N890 0.984 . S
H897 N890 0.984 . S
H898 N886 0.984 . S
H899 N886 0.985 . S
C253 C249 1.728 . S
C255 C11 1.728 . S
C271 C221 1.728 . S
C273 C25 1.728 . S
C289 C235 1.728 . S
C291 C39 1.728 . S
C307 C109 1.728 . S
C309 C53 1.728 . S
C325 C123 1.728 . S
C327 C67 1.728 . S
C343 C81 1.728 . S
C345 C95 1.728 . S
C361 C137 1.728 . S
C363 C193 1.728 . S
C379 C151 1.728 . S
C381 C207 1.728 . S
C397 C165 1.728 . S
C399 C179 1.728 . S
C415 C5 0.827 . S
C417 C243 0.827 . S
C433 C215 0.827 . S
C435 C19 0.827 . S
C451 C33 0.827 . S
C453 C229 0.827 . S
C469 C103 0.827 . S
C471 C47 0.827 . S
C487 C61 0.827 . S
C489 C117 0.827 . S
C505 C75 0.827 . S
C507 C89 0.827 . S
C523 C131 0.827 . S
C525 C187 0.827 . S
C541 C201 0.827 . S
C543 C145 0.827 . S
C559 C173 0.827 . S
C561 C159 0.827 . S
C577 C9 1.650 . S
C579 C51 1.650 . S
C595 C65 1.650 . S
C597 C23 1.650 . S
C613 C79 1.650 . S
C615 C37 1.650 . S
C631 C70 1.604 . S
C633 C14 1.604 . S
C649 C28 1.604 . S
C651 C42 1.604 . S
C667 C56 1.604 . S
C669 C0 1.604 . S
C685 C93 1.650 . S
C687 C135 1.650 . S
C703 C149 1.650 . S
C705 C107 1.650 . S
C721 C163 1.650 . S
C723 C121 1.650 . S
C739 C154 1.604 . S
C741 C98 1.604 . S
C757 C112 1.604 . S
C759 C126 1.604 . S
C775 C140 1.604 . S
C777 C84 1.604 . S
C793 C219 1.650 . S
C795 C177 1.650 . S
C811 C233 1.650 . S
C813 C191 1.650 . S
C829 C205 1.650 . S
C831 C247 1.650 . S
C847 C238 1.604 . S
C849 C182 1.604 . S
C865 C196 1.604 . S
C867 C210 1.604 . S
C883 C224 1.604 . S
C885 C168 1.604 . S
