# Generated by pormake.
# Topology ukk, (4)-cn, num edge types: 1
# Building blocks:
#     Node 0, Type 0, BuildingBlock: ICAMEG_clean_sbu_1, # of connection points: 4
#     Node 1, Type 0, BuildingBlock: ICAMEG_clean_sbu_1, # of connection points: 4
#     Node 2, Type 0, BuildingBlock: ICAMEG_clean_sbu_1, # of connection points: 4
#     Node 3, Type 0, BuildingBlock: ICAMEG_clean_sbu_1, # of connection points: 4
#     Node 4, Type 0, BuildingBlock: ICAMEG_clean_sbu_1, # of connection points: 4
#     Node 5, Type 0, BuildingBlock: ICAMEG_clean_sbu_1, # of connection points: 4
#     Node 6, Type 0, BuildingBlock: ICAMEG_clean_sbu_1, # of connection points: 4
#     Node 7, Type 0, BuildingBlock: ICAMEG_clean_sbu_1, # of connection points: 4
#     Node 8, Type 0, BuildingBlock: ICAMEG_clean_sbu_1, # of connection points: 4
#     Node 9, Type 0, BuildingBlock: ICAMEG_clean_sbu_1, # of connection points: 4
#     Node 10, Type 0, BuildingBlock: ICAMEG_clean_sbu_1, # of connection points: 4
#     Node 11, Type 0, BuildingBlock: ICAMEG_clean_sbu_1, # of connection points: 4
#     Node 12, Type 0, BuildingBlock: ICAMEG_clean_sbu_1, # of connection points: 4
#     Node 13, Type 0, BuildingBlock: ICAMEG_clean_sbu_1, # of connection points: 4
#     Node 14, Type 0, BuildingBlock: ICAMEG_clean_sbu_1, # of connection points: 4
#     Node 15, Type 0, BuildingBlock: ICAMEG_clean_sbu_1, # of connection points: 4
#     Edge 16, Type (0, 0), BuildingBlock: AJUNOK_clean_linker_0, # of connection points: 2
#     Edge 17, Type (0, 0), BuildingBlock: AJUNOK_clean_linker_0, # of connection points: 2
#     Edge 18, Type (0, 0), BuildingBlock: AJUNOK_clean_linker_0, # of connection points: 2
#     Edge 19, Type (0, 0), BuildingBlock: AJUNOK_clean_linker_0, # of connection points: 2
#     Edge 20, Type (0, 0), BuildingBlock: AJUNOK_clean_linker_0, # of connection points: 2
#     Edge 21, Type (0, 0), BuildingBlock: AJUNOK_clean_linker_0, # of connection points: 2
#     Edge 22, Type (0, 0), BuildingBlock: AJUNOK_clean_linker_0, # of connection points: 2
#     Edge 23, Type (0, 0), BuildingBlock: AJUNOK_clean_linker_0, # of connection points: 2
#     Edge 24, Type (0, 0), BuildingBlock: AJUNOK_clean_linker_0, # of connection points: 2
#     Edge 25, Type (0, 0), BuildingBlock: AJUNOK_clean_linker_0, # of connection points: 2
#     Edge 26, Type (0, 0), BuildingBlock: AJUNOK_clean_linker_0, # of connection points: 2
#     Edge 27, Type (0, 0), BuildingBlock: AJUNOK_clean_linker_0, # of connection points: 2
#     Edge 28, Type (0, 0), BuildingBlock: AJUNOK_clean_linker_0, # of connection points: 2
#     Edge 29, Type (0, 0), BuildingBlock: AJUNOK_clean_linker_0, # of connection points: 2
#     Edge 30, Type (0, 0), BuildingBlock: AJUNOK_clean_linker_0, # of connection points: 2
#     Edge 31, Type (0, 0), BuildingBlock: AJUNOK_clean_linker_0, # of connection points: 2
#     Edge 32, Type (0, 0), BuildingBlock: AJUNOK_clean_linker_0, # of connection points: 2
#     Edge 33, Type (0, 0), BuildingBlock: AJUNOK_clean_linker_0, # of connection points: 2
#     Edge 34, Type (0, 0), BuildingBlock: AJUNOK_clean_linker_0, # of connection points: 2
#     Edge 35, Type (0, 0), BuildingBlock: AJUNOK_clean_linker_0, # of connection points: 2
#     Edge 36, Type (0, 0), BuildingBlock: AJUNOK_clean_linker_0, # of connection points: 2
#     Edge 37, Type (0, 0), BuildingBlock: AJUNOK_clean_linker_0, # of connection points: 2
#     Edge 38, Type (0, 0), BuildingBlock: AJUNOK_clean_linker_0, # of connection points: 2
#     Edge 39, Type (0, 0), BuildingBlock: AJUNOK_clean_linker_0, # of connection points: 2
#     Edge 40, Type (0, 0), BuildingBlock: AJUNOK_clean_linker_0, # of connection points: 2
#     Edge 41, Type (0, 0), BuildingBlock: AJUNOK_clean_linker_0, # of connection points: 2
#     Edge 42, Type (0, 0), BuildingBlock: AJUNOK_clean_linker_0, # of connection points: 2
#     Edge 43, Type (0, 0), BuildingBlock: AJUNOK_clean_linker_0, # of connection points: 2
#     Edge 44, Type (0, 0), BuildingBlock: AJUNOK_clean_linker_0, # of connection points: 2
#     Edge 45, Type (0, 0), BuildingBlock: AJUNOK_clean_linker_0, # of connection points: 2
#     Edge 46, Type (0, 0), BuildingBlock: AJUNOK_clean_linker_0, # of connection points: 2
#     Edge 47, Type (0, 0), BuildingBlock: AJUNOK_clean_linker_0, # of connection points: 2
# Relax obj value: 0.064
# Max RMSD: 0.230
# Mean RMSD: 0.223
data_MOF--net-ukk--node1-ICAMEG_clean_sbu_1--edge1-AJUNOK_clean_linker_0
_symmetry_space_group_name_H-M    P1
_symmetry_Int_Tables_number       1
_symmetry_cell_setting            triclinic
loop_
_symmetry_equiv_pos_as_xyz
'x, y, z'
_cell_length_a     43.963133
_cell_length_b     43.526747
_cell_length_c     12.562188
_cell_angle_alpha  90.02063
_cell_angle_beta   90.092726
_cell_angle_gamma 90.046428
loop_
_atom_site_label
_atom_site_type_symbol
_atom_site_fract_x
_atom_site_fract_y
_atom_site_fract_z
_atom_type_partial_charge
Co0 Co 0.39534 0.12907 0.21346 0.0
Co1 Co 0.38344 0.13869 0.94452 0.0
O2 O 0.37481 0.1186 0.08049 0.0
C3 C 0.41745 0.06704 0.27797 0.0
O4 O 0.44453 0.07945 0.28857 0.0
C5 C 0.31696 0.14607 0.97068 0.0
O6 O 0.32326 0.15618 0.06665 0.0
O7 O 0.37784 0.17954 0.00937 0.0
O8 O 0.39632 0.17439 0.17543 0.0
H9 H 0.42842 0.22046 0.71085 0.0
H10 H 0.33833 0.09254 0.22469 0.0
O11 O 0.39485 0.08381 0.25011 0.0
H12 H 0.31808 0.18746 0.42704 0.0
H13 H 0.41939 0.11564 0.60245 0.0
H14 H 0.44686 0.16952 0.27197 0.0
H15 H 0.3683 0.17846 0.34632 0.0
H16 H 0.38967 0.10746 0.43835 0.0
O17 O 0.33859 0.13731 0.91023 0.0
H18 H 0.42369 0.18965 0.87469 0.0
H19 H 0.35764 0.13263 0.72607 0.0
H20 H 0.47577 0.18017 0.43618 0.0
H21 H 0.28801 0.10014 0.30722 0.0
H22 H 0.46195 0.15318 0.60337 0.0
H23 H 0.27773 0.14817 0.40933 0.0
O24 O 0.43481 0.12337 0.14437 0.0
H25 H 0.35491 0.02916 0.86808 0.0
H26 H 0.43042 0.11087 0.80334 0.0
H27 H 0.43769 0.05974 0.72172 0.0
H28 H 0.39974 0.01857 0.75367 0.0
H29 H 0.34855 0.08049 0.9482 0.0
H30 H 0.36028 0.16396 0.56365 0.0
H31 H 0.39593 0.20818 0.55445 0.0
O32 O 0.4287 0.14072 0.97699 0.0
C33 C 0.38679 0.19076 0.09736 0.0
C34 C 0.41281 0.20123 0.71357 0.0
C35 C 0.37445 0.16966 0.63102 0.0
N36 N 0.39056 0.1592 0.80986 0.0
C37 C 0.41037 0.18339 0.80563 0.0
C38 C 0.37312 0.15191 0.72338 0.0
C39 C 0.39447 0.19444 0.62608 0.0
C40 C 0.33407 0.11318 0.27009 0.0
N41 N 0.35623 0.13495 0.28107 0.0
C42 C 0.30547 0.11749 0.31606 0.0
C43 C 0.29966 0.14438 0.3729 0.0
C44 C 0.32233 0.16653 0.38296 0.0
C45 C 0.35069 0.16134 0.33669 0.0
C46 C 0.4253 0.12793 0.53072 0.0
C47 C 0.44025 0.15832 0.34489 0.0
C48 C 0.40855 0.12338 0.43752 0.0
N49 N 0.41632 0.1383 0.34583 0.0
C50 C 0.45691 0.16418 0.43742 0.0
C51 C 0.44928 0.14888 0.53097 0.0
C52 C 0.44524 0.13175 0.05499 0.0
C53 C 0.37157 0.04695 0.85325 0.0
C54 C 0.41385 0.09299 0.8178 0.0
C55 C 0.41809 0.06414 0.77134 0.0
C56 C 0.39675 0.04101 0.78923 0.0
N57 N 0.38898 0.09867 0.87979 0.0
C58 C 0.36806 0.07608 0.8982 0.0
Co59 Co 0.12594 0.64581 0.79063 0.0
Co60 Co 0.08611 0.62203 0.01146 0.0
O61 O 0.11825 0.64494 0.94279 0.0
C62 C 0.18591 0.6337 0.89077 0.0
O63 O 0.1718 0.6141 0.95278 0.0
C64 C 0.07277 0.68662 0.06971 0.0
O65 O 0.07078 0.69087 0.96668 0.0
O66 O 0.05513 0.63616 0.90562 0.0
O67 O 0.08177 0.64222 0.75508 0.0
H68 H 0.99587 0.55126 0.02501 0.0
H69 H 0.15066 0.69458 0.93215 0.0
O70 O 0.17104 0.64868 0.82053 0.0
H71 H 0.07536 0.74549 0.70036 0.0
H72 H 0.1739 0.69307 0.46935 0.0
H73 H 0.10098 0.61507 0.59573 0.0
H74 H 0.09136 0.69228 0.66487 0.0
H75 H 0.16855 0.6824 0.66064 0.0
O76 O 0.07807 0.65953 0.10506 0.0
H77 H 0.03813 0.57898 0.93854 0.0
H78 H 0.06437 0.61754 0.23542 0.0
H79 H 0.10555 0.6252 0.40309 0.0
H80 H 0.13524 0.74796 0.97045 0.0
H81 H 0.141 0.66594 0.34025 0.0
H82 H 0.09573 0.77288 0.85821 0.0
O83 O 0.12823 0.59984 0.78741 0.0
H84 H 0.17668 0.63037 0.25595 0.0
H85 H 0.09916 0.56098 0.10594 0.0
H86 H 0.13776 0.54033 0.22898 0.0
H87 H 0.17703 0.57518 0.30441 0.0
H88 H 0.13678 0.65042 0.13568 0.0
H89 H 0.02226 0.59041 0.32513 0.0
H90 H 0.98782 0.55687 0.21964 0.0
O91 O 0.09537 0.58531 0.91746 0.0
C92 C 0.05684 0.64023 0.80538 0.0
C93 C 0.01083 0.5657 0.07185 0.0
C94 C 0.02561 0.58773 0.24028 0.0
N95 N 0.05377 0.59967 0.08205 0.0
C96 C 0.03485 0.58135 0.02341 0.0
C97 C 0.04935 0.60308 0.18907 0.0
C98 C 0.00627 0.56893 0.18105 0.0
C99 C 0.13476 0.70592 0.87953 0.0
N100 N 0.12171 0.69018 0.79713 0.0
C101 C 0.12581 0.73599 0.90245 0.0
C102 C 0.10371 0.75001 0.83931 0.0
C103 C 0.09213 0.7346 0.75099 0.0
C104 C 0.1015 0.70453 0.73085 0.0
C105 C 0.15816 0.67561 0.49629 0.0
C106 C 0.1174 0.63176 0.56828 0.0
C107 C 0.15527 0.66917 0.60448 0.0
N108 N 0.13448 0.64809 0.63949 0.0
C109 C 0.11972 0.63755 0.45921 0.0
C110 C 0.13979 0.66014 0.42368 0.0
C111 C 0.1129 0.5793 0.83796 0.0
C112 C 0.15953 0.61508 0.22405 0.0
C113 C 0.11594 0.57636 0.13928 0.0
C114 C 0.13779 0.56451 0.20879 0.0
C115 C 0.1598 0.58405 0.25106 0.0
N116 N 0.11565 0.6069 0.11379 0.0
C117 C 0.13689 0.6263 0.1561 0.0
Co118 Co 0.61109 0.8804 0.16077 0.0
Co119 Co 0.62112 0.87388 0.88914 0.0
O120 O 0.62889 0.89369 0.02613 0.0
C121 C 0.58456 0.94034 0.23085 0.0
O122 O 0.5574 0.92776 0.23373 0.0
C123 C 0.68828 0.87004 0.91933 0.0
O124 O 0.68241 0.86094 0.0167 0.0
O125 O 0.62822 0.83294 0.95045 0.0
O126 O 0.6156 0.83572 0.12267 0.0
H127 H 0.58129 0.78969 0.655 0.0
H128 H 0.66388 0.92262 0.15708 0.0
O129 O 0.60749 0.92485 0.19992 0.0
H130 H 0.69588 0.83522 0.37998 0.0
H131 H 0.58475 0.89252 0.54821 0.0
H132 H 0.56703 0.83229 0.22221 0.0
H133 H 0.64478 0.83615 0.29858 0.0
H134 H 0.61437 0.9031 0.38599 0.0
O135 O 0.6663 0.87676 0.85656 0.0
H136 H 0.5817 0.82267 0.8146 0.0
H137 H 0.64749 0.88102 0.67221 0.0
H138 H 0.53895 0.81915 0.38542 0.0
H139 H 0.71481 0.92304 0.23931 0.0
H140 H 0.54783 0.84932 0.55003 0.0
H141 H 0.73085 0.87939 0.35256 0.0
O142 O 0.57021 0.88117 0.0964 0.0
H143 H 0.64557 0.98475 0.81701 0.0
H144 H 0.57365 0.90007 0.74705 0.0
H145 H 0.5646 0.95084 0.66549 0.0
H146 H 0.60076 0.99361 0.70031 0.0
H147 H 0.65375 0.93354 0.89663 0.0
H148 H 0.64961 0.84731 0.51501 0.0
H149 H 0.61651 0.8011 0.50566 0.0
O150 O 0.5757 0.87045 0.92184 0.0
C151 C 0.62375 0.82056 0.04037 0.0
C152 C 0.59595 0.80966 0.65821 0.0
C153 C 0.63444 0.84185 0.57986 0.0
N154 N 0.61485 0.85361 0.7533 0.0
C155 C 0.59583 0.8288 0.74757 0.0
C156 C 0.63312 0.86089 0.66919 0.0
C157 C 0.61585 0.81595 0.57477 0.0
C158 C 0.67067 0.90358 0.20687 0.0
N159 N 0.65124 0.8796 0.22428 0.0
C160 C 0.6996 0.90387 0.25264 0.0
C161 C 0.70867 0.87924 0.31573 0.0
C162 C 0.68899 0.85455 0.33143 0.0
C163 C 0.66013 0.85515 0.28492 0.0
C164 C 0.581 0.87895 0.47735 0.0
C165 C 0.57157 0.84505 0.29417 0.0
C166 C 0.59767 0.88487 0.38515 0.0
N167 N 0.59237 0.86842 0.29435 0.0
C168 C 0.55532 0.83774 0.38602 0.0
C169 C 0.56006 0.85491 0.47802 0.0
C170 C 0.55933 0.8753 0.00487 0.0
C171 C 0.6297 0.96629 0.80108 0.0
C172 C 0.58943 0.9186 0.76262 0.0
C173 C 0.58421 0.94728 0.71618 0.0
C174 C 0.60453 0.97126 0.73568 0.0
N175 N 0.61427 0.91388 0.82599 0.0
C176 C 0.63424 0.93726 0.84581 0.0
Co177 Co 0.88184 0.37667 0.74145 0.0
Co178 Co 0.92397 0.36784 0.96543 0.0
O179 O 0.88937 0.3557 0.87567 0.0
C180 C 0.82065 0.36651 0.84404 0.0
O181 O 0.83387 0.35205 0.92261 0.0
C182 C 0.94294 0.30552 0.04366 0.0
O183 O 0.97018 0.31083 0.00488 0.0
O184 O 0.95122 0.35367 0.84887 0.0
O185 O 0.92724 0.37816 0.7144 0.0
H186 H 0.02521 0.41668 0.04329 0.0
H187 H 0.84987 0.3169 0.77445 0.0
O188 O 0.83631 0.37616 0.76537 0.0
H189 H 0.91004 0.30363 0.44747 0.0
H190 H 0.82073 0.40718 0.42158 0.0
H191 H 0.91213 0.42921 0.63581 0.0
H192 H 0.91123 0.3527 0.54513 0.0
H193 H 0.83592 0.37254 0.5669 0.0
O194 O 0.92191 0.32539 0.03061 0.0
H195 H 0.98262 0.40005 0.9289 0.0
H196 H 0.93962 0.35782 0.19379 0.0
H197 H 0.89864 0.46373 0.48779 0.0
H198 H 0.84545 0.26916 0.67399 0.0
H199 H 0.85191 0.45366 0.3826 0.0
H200 H 0.87686 0.26125 0.51174 0.0
O201 O 0.88249 0.41613 0.81749 0.0
H202 H 0.82856 0.36423 0.18313 0.0
H203 H 0.91903 0.42581 0.09274 0.0
H204 H 0.87831 0.449 0.20018 0.0
H205 H 0.83172 0.41871 0.23978 0.0
H206 H 0.86942 0.34237 0.07289 0.0
H207 H 0.98219 0.3732 0.31038 0.0
H208 H 0.02511 0.40321 0.23556 0.0
O209 O 0.92627 0.41088 0.90386 0.0
C210 C 0.9504 0.36418 0.7535 0.0
C211 C 0.00659 0.40363 0.07685 0.0
C212 C 0.98245 0.37922 0.22678 0.0
N213 N 0.95857 0.37817 0.05473 0.0
C214 C 0.98241 0.39415 0.01246 0.0
C215 C 0.95849 0.37045 0.16025 0.0
C216 C 0.00651 0.39611 0.18473 0.0
C217 C 0.86267 0.31449 0.70213 0.0
N218 N 0.88049 0.33786 0.66568 0.0
C219 C 0.86057 0.28694 0.64619 0.0
C220 C 0.87791 0.28276 0.55468 0.0
C221 C 0.89652 0.30649 0.51874 0.0
C222 C 0.89727 0.33416 0.57496 0.0
C223 C 0.84115 0.41195 0.46682 0.0
C224 C 0.89248 0.42391 0.58748 0.0
C225 C 0.8498 0.39243 0.54951 0.0
N226 N 0.87466 0.39906 0.61062 0.0
C227 C 0.88482 0.4437 0.5043 0.0
C228 C 0.85864 0.43795 0.44502 0.0
C229 C 0.9054 0.42757 0.86366 0.0
C230 C 0.84842 0.37786 0.16409 0.0
C231 C 0.89927 0.41217 0.11231 0.0
C232 C 0.87629 0.42544 0.17345 0.0
C233 C 0.85036 0.40834 0.19688 0.0
N234 N 0.89618 0.38295 0.07368 0.0
C235 C 0.87178 0.36548 0.10251 0.0
Co236 Co 0.3902 0.38762 0.01688 0.0
Co237 Co 0.38493 0.37315 0.28628 0.0
O238 O 0.37223 0.39476 0.15679 0.0
C239 C 0.39532 0.45474 0.05095 0.0
O240 O 0.40557 0.44806 0.14634 0.0
C241 C 0.31759 0.36638 0.27902 0.0
O242 O 0.32057 0.3573 0.17987 0.0
O243 O 0.379 0.33303 0.2157 0.0
O244 O 0.39275 0.34176 0.04519 0.0
H245 H 0.44069 0.29296 0.49932 0.0
H246 H 0.33186 0.42211 0.02707 0.0
O247 O 0.388 0.4332 0.987 0.0
H248 H 0.31297 0.33386 0.78917 0.0
H249 H 0.40687 0.41235 0.63155 0.0
H250 H 0.43958 0.34782 0.93226 0.0
H251 H 0.36272 0.34057 0.87631 0.0
H252 H 0.3803 0.41507 0.80278 0.0
O253 O 0.34117 0.37317 0.33343 0.0
H254 H 0.43141 0.32587 0.34365 0.0
H255 H 0.3628 0.37412 0.51122 0.0
H256 H 0.4667 0.34397 0.76099 0.0
H257 H 0.28172 0.41656 0.93983 0.0
H258 H 0.45037 0.37653 0.60894 0.0
H259 H 0.27243 0.37224 0.81843 0.0
O260 O 0.43129 0.39324 0.07596 0.0
H261 H 0.35503 0.47933 0.40394 0.0
H262 H 0.43613 0.40117 0.40799 0.0
H263 H 0.44513 0.45147 0.49316 0.0
H264 H 0.40427 0.49079 0.49261 0.0
H265 H 0.34766 0.42955 0.314 0.0
H266 H 0.36992 0.34051 0.6666 0.0
H267 H 0.40918 0.29955 0.6617 0.0
O268 O 0.42897 0.37223 0.23918 0.0
C269 C 0.38603 0.32382 0.12269 0.0
C270 C 0.42327 0.31049 0.50217 0.0
C271 C 0.38347 0.33705 0.59578 0.0
N272 N 0.39587 0.35134 0.41619 0.0
C273 C 0.418 0.32933 0.41403 0.0
C274 C 0.37939 0.35594 0.50699 0.0
C275 C 0.40554 0.31413 0.59308 0.0
C276 C 0.32772 0.40275 0.97508 0.0
N277 N 0.35014 0.38177 0.95642 0.0
C278 C 0.29933 0.39967 0.92612 0.0
C279 C 0.29403 0.37478 0.85857 0.0
C280 C 0.31684 0.35321 0.84167 0.0
C281 C 0.3449 0.35706 0.89169 0.0
C282 C 0.41443 0.39824 0.69704 0.0
C283 C 0.43231 0.36187 0.86639 0.0
C284 C 0.39935 0.39958 0.79442 0.0
N285 N 0.4086 0.38182 0.87807 0.0
C286 C 0.44785 0.35974 0.76975 0.0
C287 C 0.43887 0.3782 0.68476 0.0
C288 C 0.44374 0.38245 0.1591 0.0
C289 C 0.37302 0.46237 0.40469 0.0
C290 C 0.41847 0.41839 0.40541 0.0
C291 C 0.42365 0.44677 0.45428 0.0
C292 C 0.40067 0.4688 0.45428 0.0
N293 N 0.39138 0.41237 0.35606 0.0
C294 C 0.36887 0.434 0.35469 0.0
Co295 Co 0.37969 0.64937 0.99172 0.0
Co296 Co 0.41195 0.62951 0.74979 0.0
O297 O 0.38317 0.65262 0.83713 0.0
C298 C 0.31821 0.63548 0.90973 0.0
O299 O 0.33195 0.61795 0.83987 0.0
C300 C 0.4213 0.69565 0.69161 0.0
O301 O 0.4196 0.70207 0.79343 0.0
O302 O 0.44631 0.64018 0.84732 0.0
O303 O 0.42512 0.64823 0.00794 0.0
H304 H 0.49415 0.55131 0.68363 0.0
H305 H 0.34848 0.69975 0.87696 0.0
O306 O 0.33383 0.65017 0.97892 0.0
H307 H 0.41854 0.75059 0.12893 0.0
H308 H 0.3425 0.68265 0.35115 0.0
H309 H 0.41144 0.61336 0.15649 0.0
H310 H 0.41377 0.69419 0.1254 0.0
H311 H 0.34025 0.67928 0.15496 0.0
O312 O 0.41962 0.66777 0.66044 0.0
H313 H 0.45628 0.57908 0.79061 0.0
H314 H 0.43015 0.63142 0.52074 0.0
H315 H 0.41367 0.61515 0.35115 0.0
H316 H 0.35264 0.75592 0.87713 0.0
H317 H 0.3815 0.65249 0.44862 0.0
H318 H 0.38811 0.78198 0.00353 0.0
O319 O 0.37884 0.60371 0.98442 0.0
H320 H 0.31464 0.64866 0.54984 0.0
H321 H 0.39286 0.57182 0.64041 0.0
H322 H 0.34967 0.55687 0.52609 0.0
H323 H 0.31005 0.59538 0.48073 0.0
H324 H 0.35882 0.66295 0.66056 0.0
H325 H 0.46808 0.60447 0.41082 0.0
H326 H 0.50032 0.56397 0.4921 0.0
O327 O 0.40408 0.59105 0.83531 0.0
C328 C 0.44818 0.64514 0.94752 0.0
C329 C 0.48018 0.56888 0.64715 0.0
C330 C 0.46554 0.59871 0.49414 0.0
N331 N 0.44086 0.60697 0.66229 0.0
C332 C 0.4586 0.58471 0.70745 0.0
C333 C 0.44413 0.61399 0.55693 0.0
C334 C 0.48365 0.576 0.53977 0.0
C335 C 0.36362 0.71083 0.93298 0.0
N336 N 0.38106 0.69373 0.00035 0.0
C337 C 0.36592 0.74276 0.93286 0.0
C338 C 0.38587 0.75725 0.00327 0.0
C339 C 0.40309 0.73965 0.07341 0.0
C340 C 0.40041 0.70772 0.07064 0.0
C341 C 0.35738 0.66708 0.30888 0.0
C342 C 0.39594 0.62823 0.19881 0.0
C343 C 0.35606 0.6649 0.19813 0.0
N344 N 0.37609 0.64657 0.1446 0.0
C345 C 0.39753 0.62939 0.30926 0.0
C346 C 0.3789 0.64979 0.36403 0.0
C347 C 0.39067 0.58386 0.92224 0.0
C348 C 0.33176 0.63168 0.56898 0.0
C349 C 0.376 0.58885 0.61958 0.0
C350 C 0.35148 0.5802 0.55537 0.0
C351 C 0.32922 0.60179 0.53013 0.0
N352 N 0.3786 0.61833 0.65606 0.0
C353 C 0.35684 0.63962 0.63176 0.0
Co354 Co 0.62882 0.62411 0.98067 0.0
Co355 Co 0.62758 0.63934 0.25088 0.0
O356 O 0.64173 0.61569 0.12701 0.0
C357 C 0.60804 0.55934 0.99826 0.0
O358 O 0.59076 0.56726 0.07877 0.0
C359 C 0.69605 0.63883 0.26499 0.0
O360 O 0.69737 0.63976 0.16071 0.0
O361 O 0.6376 0.67816 0.17945 0.0
O362 O 0.6311 0.6699 0.00441 0.0
H363 H 0.57364 0.72688 0.42962 0.0
H364 H 0.68029 0.58061 0.00739 0.0
O365 O 0.62576 0.57873 0.95449 0.0
H366 H 0.71887 0.66371 0.77824 0.0
H367 H 0.61341 0.59377 0.60063 0.0
H368 H 0.58473 0.66711 0.88196 0.0
H369 H 0.66698 0.66589 0.85061 0.0
H370 H 0.6413 0.5949 0.77041 0.0
O371 O 0.67032 0.6381 0.31213 0.0
H372 H 0.585 0.69144 0.28241 0.0
H373 H 0.64448 0.64045 0.48198 0.0
H374 H 0.55616 0.66673 0.71305 0.0
H375 H 0.73122 0.57595 0.92723 0.0
H376 H 0.56937 0.62881 0.5731 0.0
H377 H 0.75048 0.61765 0.80908 0.0
O378 O 0.58644 0.62471 0.02449 0.0
H379 H 0.6467 0.53066 0.36754 0.0
H380 H 0.57374 0.61666 0.37064 0.0
H381 H 0.55966 0.56747 0.45484 0.0
H382 H 0.59631 0.52405 0.45369 0.0
H383 H 0.65967 0.58018 0.28313 0.0
H384 H 0.6363 0.67739 0.62771 0.0
H385 H 0.60002 0.72053 0.60306 0.0
O386 O 0.58407 0.64145 0.19283 0.0
C387 C 0.63541 0.68771 0.08422 0.0
C388 C 0.58921 0.70795 0.44182 0.0
C389 C 0.62452 0.68031 0.55263 0.0
N390 N 0.61504 0.66349 0.37342 0.0
C391 C 0.59525 0.68736 0.35921 0.0
C392 C 0.62912 0.65948 0.4695 0.0
C393 C 0.60416 0.70449 0.53886 0.0
C394 C 0.68857 0.59875 0.95633 0.0
N395 N 0.67066 0.62351 0.93355 0.0
C396 C 0.71748 0.59606 0.91152 0.0
C397 C 0.72833 0.61943 0.84581 0.0
C398 C 0.71045 0.64523 0.8272 0.0
C399 C 0.68133 0.64668 0.87057 0.0
C400 C 0.60698 0.61002 0.66165 0.0
C401 C 0.59155 0.65147 0.81955 0.0
C402 C 0.62302 0.61108 0.75752 0.0
N403 N 0.61455 0.63091 0.83643 0.0
C404 C 0.57493 0.65101 0.72477 0.0
C405 C 0.5823 0.62963 0.64639 0.0
C406 C 0.57153 0.63354 0.10477 0.0
C407 C 0.63057 0.54944 0.3688 0.0
C408 C 0.58978 0.59786 0.36975 0.0
C409 C 0.58167 0.57005 0.41744 0.0
C410 C 0.60226 0.54572 0.41693 0.0
N411 N 0.61755 0.60129 0.32255 0.0
C412 C 0.63785 0.57756 0.32158 0.0
Co413 Co 0.63212 0.37861 0.994 0.0
Co414 Co 0.58852 0.37322 0.77123 0.0
O415 O 0.62266 0.35884 0.85885 0.0
C416 C 0.68979 0.38431 0.87643 0.0
O417 O 0.67399 0.39801 0.80178 0.0
C418 C 0.58521 0.30465 0.74777 0.0
O419 O 0.58574 0.30202 0.85192 0.0
O420 O 0.56063 0.36191 0.88975 0.0
O421 O 0.58723 0.38225 0.02736 0.0
H422 H 0.49014 0.4283 0.69799 0.0
H423 H 0.66358 0.3195 0.95369 0.0
O424 O 0.67657 0.37491 0.96062 0.0
H425 H 0.60654 0.30472 0.28766 0.0
H426 H 0.69969 0.40338 0.30392 0.0
H427 H 0.60645 0.43175 0.1098 0.0
H428 H 0.60275 0.35335 0.18835 0.0
H429 H 0.68047 0.37073 0.15848 0.0
O430 O 0.58562 0.33116 0.70513 0.0
H431 H 0.53235 0.40956 0.81013 0.0
H432 H 0.57111 0.36383 0.5442 0.0
H433 H 0.62398 0.4643 0.25802 0.0
H434 H 0.67052 0.27198 0.05601 0.0
H435 H 0.6718 0.45112 0.35239 0.0
H436 H 0.64096 0.2637 0.22287 0.0
O437 O 0.63225 0.41906 0.92556 0.0
H438 H 0.68196 0.35818 0.55047 0.0
H439 H 0.599 0.42981 0.64046 0.0
H440 H 0.64131 0.44759 0.52771 0.0
H441 H 0.68412 0.41203 0.48808 0.0
H442 H 0.64 0.34174 0.66654 0.0
H443 H 0.52911 0.38173 0.4296 0.0
H444 H 0.48855 0.41455 0.50601 0.0
O445 O 0.58975 0.41642 0.83063 0.0
C446 C 0.5627 0.37134 0.98642 0.0
C447 C 0.50785 0.41419 0.6636 0.0
C448 C 0.52969 0.388 0.513 0.0
N449 N 0.55443 0.38602 0.68351 0.0
C450 C 0.53181 0.40353 0.72671 0.0
C451 C 0.55336 0.37786 0.57841 0.0
C452 C 0.50693 0.40645 0.55594 0.0
C453 C 0.65105 0.31636 0.02682 0.0
N454 N 0.63275 0.33915 0.06476 0.0
C455 C 0.65471 0.28914 0.08386 0.0
C456 C 0.63842 0.28471 0.17779 0.0
C457 C 0.61909 0.30773 0.21432 0.0
C458 C 0.61675 0.33509 0.15696 0.0
C459 C 0.67886 0.40949 0.26309 0.0
C460 C 0.6263 0.42489 0.15442 0.0
C461 C 0.66785 0.39104 0.18077 0.0
N462 N 0.6423 0.39929 0.12583 0.0
C463 C 0.63638 0.44367 0.2373 0.0
C464 C 0.66319 0.4362 0.29039 0.0
C465 C 0.61054 0.43179 0.87702 0.0
C466 C 0.66366 0.37392 0.56885 0.0
C467 C 0.61704 0.41398 0.62051 0.0
C468 C 0.64091 0.42416 0.55645 0.0
C469 C 0.66468 0.40412 0.53277 0.0
N470 N 0.61717 0.38487 0.66118 0.0
C471 C 0.63961 0.36465 0.63359 0.0
Co472 Co 0.88503 0.62071 0.78371 0.0
Co473 Co 0.87811 0.63036 0.51025 0.0
O474 O 0.86771 0.60975 0.64474 0.0
C475 C 0.90853 0.55675 0.76337 0.0
O476 O 0.92314 0.56511 0.67714 0.0
C477 C 0.81013 0.63928 0.50859 0.0
O478 O 0.81231 0.65225 0.60267 0.0
O479 O 0.87137 0.67096 0.57634 0.0
O480 O 0.87872 0.66581 0.75338 0.0
H481 H 0.92472 0.71408 0.28922 0.0
H482 H 0.8352 0.57449 0.77829 0.0
O483 O 0.89174 0.5758 0.81313 0.0
H484 H 0.80366 0.6533 0.03779 0.0
H485 H 0.91633 0.59651 0.15846 0.0
H486 H 0.92566 0.67033 0.86336 0.0
H487 H 0.84968 0.66052 0.92878 0.0
H488 H 0.88428 0.59132 0.99882 0.0
O489 O 0.83386 0.62808 0.46478 0.0
H490 H 0.91895 0.68186 0.44893 0.0
H491 H 0.85591 0.62458 0.28587 0.0
H492 H 0.95738 0.677 0.02346 0.0
H493 H 0.78956 0.56569 0.88849 0.0
H494 H 0.95359 0.63925 0.17127 0.0
H495 H 0.77442 0.6048 0.02284 0.0
O496 O 0.926 0.62403 0.72483 0.0
H497 H 0.85382 0.51984 0.43279 0.0
H498 H 0.92744 0.60382 0.37607 0.0
H499 H 0.93767 0.55255 0.30005 0.0
H500 H 0.90072 0.51017 0.32816 0.0
H501 H 0.84455 0.5714 0.50794 0.0
H502 H 0.85961 0.65745 0.12703 0.0
H503 H 0.89405 0.70263 0.12783 0.0
O504 O 0.92274 0.6335 0.5498 0.0
C505 C 0.87388 0.6821 0.66988 0.0
C506 C 0.90953 0.6945 0.28789 0.0
C507 C 0.87288 0.6628 0.19703 0.0
N508 N 0.88698 0.65136 0.37737 0.0
C509 C 0.90649 0.67584 0.3777 0.0
C510 C 0.87092 0.64424 0.28742 0.0
C511 C 0.89222 0.68816 0.19759 0.0
C512 C 0.82818 0.59191 0.83443 0.0
N513 N 0.84516 0.6179 0.8479 0.0
C514 C 0.80245 0.58674 0.89702 0.0
C515 C 0.79386 0.60873 0.97198 0.0
C516 C 0.81028 0.63597 0.98056 0.0
C517 C 0.83605 0.64017 0.91746 0.0
C518 C 0.91841 0.61293 0.09442 0.0
C519 C 0.92302 0.65449 0.92872 0.0
C520 C 0.9002 0.6102 0.00373 0.0
N521 N 0.90327 0.63032 0.92088 0.0
C522 C 0.94138 0.65814 0.01873 0.0
C523 C 0.93934 0.6369 0.1014 0.0
C524 C 0.93784 0.63045 0.63604 0.0
C525 C 0.87006 0.53815 0.4197 0.0
C526 C 0.91126 0.58547 0.3887 0.0
C527 C 0.91717 0.5565 0.34545 0.0
C528 C 0.8964 0.53273 0.36115 0.0
N529 N 0.88536 0.59058 0.44593 0.0
C530 C 0.86489 0.5674 0.46176 0.0
Co531 Co 0.63282 0.11821 0.21897 0.0
Co532 Co 0.5875 0.12834 0.43469 0.0
O533 O 0.62402 0.13994 0.35227 0.0
C534 C 0.69079 0.11017 0.33779 0.0
O535 O 0.67434 0.0998 0.417 0.0
C536 C 0.58952 0.19711 0.4657 0.0
O537 O 0.59505 0.20072 0.36373 0.0
O538 O 0.56239 0.14268 0.31283 0.0
O539 O 0.58782 0.11785 0.18231 0.0
H540 H 0.48357 0.08203 0.48321 0.0
H541 H 0.66617 0.17644 0.25851 0.0
O542 O 0.67778 0.11901 0.25232 0.0
H543 H 0.61675 0.18851 0.90816 0.0
H544 H 0.69779 0.08644 0.90987 0.0
H545 H 0.60334 0.06597 0.10801 0.0
H546 H 0.60784 0.14223 0.01604 0.0
H547 H 0.6812 0.12138 0.05272 0.0
O548 O 0.58648 0.17016 0.50376 0.0
H549 H 0.52864 0.09831 0.38115 0.0
H550 H 0.56868 0.13494 0.66173 0.0
H551 H 0.61813 0.03133 0.96202 0.0
H552 H 0.67641 0.22285 0.15168 0.0
H553 H 0.66633 0.04066 0.86489 0.0
H554 H 0.65157 0.2288 0.97384 0.0
O555 O 0.62973 0.07844 0.29308 0.0
H556 H 0.67887 0.13507 0.67097 0.0
H557 H 0.59194 0.07031 0.56377 0.0
H558 H 0.63136 0.04895 0.68237 0.0
H559 H 0.67625 0.08094 0.72995 0.0
H560 H 0.63969 0.15514 0.54945 0.0
H561 H 0.52376 0.11967 0.76634 0.0
H562 H 0.48105 0.09261 0.67733 0.0
O563 O 0.58558 0.0856 0.3733 0.0
C564 C 0.56447 0.13241 0.21741 0.0
C565 C 0.50212 0.09374 0.52291 0.0
C566 C 0.52464 0.11494 0.68179 0.0
N567 N 0.5513 0.1177 0.51527 0.0
C568 C 0.52766 0.10315 0.46546 0.0
C569 C 0.5499 0.12381 0.6219 0.0
C570 C 0.50072 0.09963 0.63186 0.0
C571 C 0.65511 0.17921 0.18219 0.0
N572 N 0.63651 0.15672 0.14349 0.0
C573 C 0.66091 0.20553 0.12204 0.0
C574 C 0.64702 0.20891 0.02274 0.0
C575 C 0.62739 0.18626 0.98545 0.0
C576 C 0.62231 0.16019 0.04732 0.0
C577 C 0.67683 0.08194 0.95217 0.0
C578 C 0.62372 0.07091 0.06341 0.0
C579 C 0.66743 0.10159 0.03344 0.0
N580 N 0.64163 0.09544 0.08996 0.0
C581 C 0.63213 0.05102 0.98144 0.0
C582 C 0.65918 0.0563 0.92693 0.0
C583 C 0.60582 0.068 0.33527 0.0
C584 C 0.65969 0.12083 0.64873 0.0
C585 C 0.61088 0.08464 0.58732 0.0
C586 C 0.63308 0.07243 0.65467 0.0
C587 C 0.658 0.0905 0.68304 0.0
N588 N 0.61372 0.11383 0.5484 0.0
C589 C 0.63723 0.13217 0.58083 0.0
Co590 Co 0.12233 0.38363 0.73064 0.0
Co591 Co 0.1296 0.3697 0.462 0.0
O592 O 0.14062 0.39232 0.5918 0.0
C593 C 0.11434 0.45082 0.69821 0.0
O594 O 0.10536 0.44404 0.60134 0.0
C595 C 0.19687 0.36792 0.47192 0.0
O596 O 0.19402 0.36187 0.57378 0.0
O597 O 0.13849 0.33058 0.53304 0.0
O598 O 0.12239 0.33741 0.70069 0.0
H599 H 0.08116 0.28331 0.25724 0.0
H600 H 0.17851 0.42184 0.72775 0.0
O601 O 0.12184 0.42931 0.76223 0.0
H602 H 0.19905 0.33664 0.97656 0.0
H603 H 0.10248 0.4045 0.11729 0.0
H604 H 0.07493 0.34053 0.80881 0.0
H605 H 0.1517 0.33784 0.87173 0.0
H606 H 0.1288 0.41108 0.94681 0.0
O607 O 0.1733 0.37199 0.41443 0.0
H608 H 0.08899 0.31684 0.41271 0.0
H609 H 0.15059 0.37211 0.23599 0.0
H610 H 0.04846 0.33253 0.97943 0.0
H611 H 0.22623 0.4217 0.83213 0.0
H612 H 0.06239 0.36459 0.13576 0.0
H613 H 0.2357 0.37959 0.96211 0.0
O614 O 0.08144 0.38739 0.6694 0.0
H615 H 0.15258 0.47782 0.34721 0.0
H616 H 0.07711 0.39399 0.33705 0.0
H617 H 0.06504 0.4437 0.25236 0.0
H618 H 0.10305 0.48589 0.25624 0.0
H619 H 0.1631 0.42835 0.43554 0.0
H620 H 0.14506 0.33774 0.08134 0.0
H621 H 0.10997 0.29313 0.09079 0.0
O622 O 0.08548 0.36599 0.50757 0.0
C623 C 0.13106 0.32005 0.62357 0.0
C624 C 0.09641 0.30278 0.25188 0.0
C625 C 0.13246 0.33318 0.15347 0.0
N626 N 0.12009 0.34665 0.33368 0.0
C627 C 0.10059 0.32221 0.33926 0.0
C628 C 0.13547 0.35259 0.24149 0.0
C629 C 0.11272 0.30818 0.15876 0.0
C630 C 0.18309 0.40304 0.78161 0.0
N631 N 0.16226 0.38007 0.79458 0.0
C632 C 0.21004 0.40312 0.8407 0.0
C633 C 0.21553 0.37938 0.91279 0.0
C634 C 0.19486 0.3553 0.92153 0.0
C635 C 0.16823 0.35596 0.86111 0.0
C636 C 0.09613 0.39041 0.05015 0.0
C637 C 0.08119 0.35438 0.87649 0.0
C638 C 0.11103 0.394 0.95312 0.0
N639 N 0.10341 0.37618 0.86761 0.0
C640 C 0.06599 0.3499 0.97277 0.0
C641 C 0.07359 0.36809 0.06012 0.0
C642 C 0.06984 0.37591 0.58605 0.0
C643 C 0.13584 0.45958 0.34491 0.0
C644 C 0.09355 0.41243 0.34072 0.0
C645 C 0.08664 0.44047 0.29219 0.0
C646 C 0.10802 0.46412 0.29407 0.0
N647 N 0.12079 0.40826 0.39119 0.0
C648 C 0.14178 0.43142 0.39402 0.0
Co649 Co 0.3685 0.88885 0.15401 0.0
Co650 Co 0.41223 0.86889 0.37092 0.0
O651 O 0.37603 0.86368 0.28046 0.0
C652 C 0.31477 0.89961 0.2904 0.0
O653 O 0.33444 0.90728 0.36439 0.0
C654 C 0.43051 0.80314 0.41216 0.0
O655 O 0.45763 0.80985 0.37502 0.0
O656 O 0.43805 0.86015 0.24416 0.0
O657 O 0.41307 0.88471 0.1109 0.0
H658 H 0.5152 0.91114 0.46341 0.0
H659 H 0.32921 0.83446 0.19086 0.0
O660 O 0.32438 0.89247 0.19779 0.0
H661 H 0.36165 0.82934 0.81563 0.0
H662 H 0.30411 0.93316 0.85961 0.0
H663 H 0.4031 0.93784 0.0439 0.0
H664 H 0.3859 0.86577 0.93993 0.0
H665 H 0.31628 0.89651 0.00301 0.0
O666 O 0.40944 0.82344 0.4082 0.0
H667 H 0.47185 0.89976 0.34502 0.0
H668 H 0.4302 0.84659 0.58804 0.0
H669 H 0.39228 0.97415 0.8983 0.0
H670 H 0.30441 0.79752 0.06941 0.0
H671 H 0.34229 0.97225 0.80605 0.0
H672 H 0.31881 0.79682 0.87843 0.0
O673 O 0.37729 0.92665 0.23288 0.0
H674 H 0.32385 0.84949 0.61429 0.0
H675 H 0.41127 0.91729 0.54098 0.0
H676 H 0.3792 0.92717 0.69769 0.0
H677 H 0.33537 0.89263 0.73623 0.0
H678 H 0.35612 0.84089 0.45684 0.0
H679 H 0.47347 0.85678 0.70817 0.0
H680 H 0.51584 0.89017 0.64735 0.0
O681 O 0.41574 0.91469 0.3405 0.0
C682 C 0.43658 0.87084 0.1491 0.0
C683 C 0.49668 0.89687 0.49132 0.0
C684 C 0.47328 0.86633 0.62861 0.0
N685 N 0.44823 0.87302 0.4601 0.0
C686 C 0.4721 0.89029 0.42454 0.0
C687 C 0.44894 0.86046 0.55991 0.0
C688 C 0.49703 0.88508 0.59446 0.0
C689 C 0.33683 0.83291 0.10926 0.0
N690 N 0.3585 0.8526 0.07183 0.0
C691 C 0.32247 0.81223 0.0406 0.0
C692 C 0.33071 0.8117 0.93354 0.0
C693 C 0.35461 0.83007 0.8981 0.0
C694 C 0.3686 0.85028 0.96929 0.0
C695 C 0.32596 0.93424 0.89932 0.0
C696 C 0.38162 0.93629 0.00231 0.0
C697 C 0.333 0.91353 0.9806 0.0
N698 N 0.3605 0.91484 0.03142 0.0
C699 C 0.37548 0.95716 0.92067 0.0
C700 C 0.34739 0.95617 0.86929 0.0
C701 C 0.39869 0.93439 0.29453 0.0
C702 C 0.34307 0.8644 0.59904 0.0
C703 C 0.39206 0.90243 0.55642 0.0
C704 C 0.37402 0.90809 0.64565 0.0
C705 C 0.3495 0.88875 0.66729 0.0
N706 N 0.38609 0.87797 0.49137 0.0
C707 C 0.36157 0.85949 0.51052 0.0
Co708 Co 0.89685 0.87319 0.55581 0.0
Co709 Co 0.88262 0.87215 0.82589 0.0
O710 O 0.87671 0.88903 0.68286 0.0
C711 C 0.9146 0.93925 0.54665 0.0
O712 O 0.92808 0.93574 0.63915 0.0
C713 C 0.81609 0.86764 0.7872 0.0
O714 O 0.82341 0.85544 0.69523 0.0
O715 O 0.87592 0.82989 0.77419 0.0
O716 O 0.89248 0.82947 0.60589 0.0
H717 H 0.91633 0.79228 0.08739 0.0
H718 H 0.84332 0.91435 0.53166 0.0
O719 O 0.90096 0.91668 0.50284 0.0
H720 H 0.81619 0.81843 0.34515 0.0
H721 H 0.92928 0.87759 0.17245 0.0
H722 H 0.94197 0.82405 0.51489 0.0
H723 H 0.86639 0.82435 0.4298 0.0
H724 H 0.8979 0.89186 0.3269 0.0
O725 O 0.83718 0.87611 0.85103 0.0
H726 H 0.91922 0.82145 0.91935 0.0
H727 H 0.85467 0.88568 0.03579 0.0
H728 H 0.9727 0.80802 0.36093 0.0
H729 H 0.79331 0.91006 0.44277 0.0
H730 H 0.96664 0.83502 0.18823 0.0
H731 H 0.77968 0.86163 0.34871 0.0
O732 O 0.93661 0.87594 0.62688 0.0
H733 H 0.85744 0.98384 0.86886 0.0
H734 H 0.92873 0.90123 0.96764 0.0
H735 H 0.93691 0.95358 0.03793 0.0
H736 H 0.90102 0.99534 0.98875 0.0
H737 H 0.85052 0.93141 0.79892 0.0
H738 H 0.85052 0.857 0.20302 0.0
H739 H 0.8806 0.8091 0.22889 0.0
O740 O 0.92835 0.86758 0.80173 0.0
C741 C 0.88266 0.8158 0.68907 0.0
C742 C 0.90276 0.81279 0.07677 0.0
C743 C 0.86569 0.84893 0.14171 0.0
N744 N 0.8869 0.85505 0.9674 0.0
C745 C 0.90471 0.82972 0.98255 0.0
C746 C 0.86837 0.86532 0.04692 0.0
C747 C 0.88257 0.82213 0.15586 0.0
C748 C 0.83763 0.89353 0.48914 0.0
N749 N 0.85783 0.86975 0.48503 0.0
C750 C 0.80922 0.89112 0.43982 0.0
C751 C 0.80146 0.86394 0.38768 0.0
C752 C 0.82196 0.83961 0.38561 0.0
C753 C 0.85034 0.84307 0.43396 0.0
C754 C 0.93214 0.86564 0.2473 0.0
C755 C 0.93859 0.8354 0.43943 0.0
C756 C 0.91438 0.8736 0.33507 0.0
N757 N 0.91791 0.85869 0.42992 0.0
C758 C 0.95632 0.82643 0.35275 0.0
C759 C 0.95306 0.84172 0.25613 0.0
C760 C 0.94598 0.87125 0.72122 0.0
C761 C 0.87332 0.96596 0.89054 0.0
C762 C 0.91322 0.91937 0.94518 0.0
C763 C 0.9179 0.94893 0.98548 0.0
C764 C 0.89775 0.97234 0.95792 0.0
N765 N 0.88916 0.91335 0.87939 0.0
C766 C 0.86944 0.93618 0.85145 0.0
Co767 Co 0.87811 0.11498 0.5256 0.0
Co768 Co 0.92723 0.12619 0.31935 0.0
O769 O 0.88986 0.13736 0.39658 0.0
C770 C 0.82289 0.11025 0.39048 0.0
O771 O 0.84085 0.10087 0.31383 0.0
C772 C 0.92338 0.19518 0.30248 0.0
O773 O 0.90978 0.1963 0.39534 0.0
O774 O 0.95076 0.137 0.44812 0.0
O775 O 0.92249 0.11307 0.57326 0.0
H776 H 0.02792 0.07317 0.27408 0.0
H777 H 0.84731 0.17429 0.48249 0.0
O778 O 0.83412 0.11725 0.48094 0.0
H779 H 0.89175 0.18404 0.84193 0.0
H780 H 0.80524 0.08185 0.81121 0.0
H781 H 0.9047 0.06259 0.64377 0.0
H782 H 0.89971 0.13716 0.73586 0.0
H783 H 0.82504 0.11701 0.67406 0.0
O784 O 0.9317 0.16948 0.26374 0.0
H785 H 0.98279 0.09057 0.37374 0.0
H786 H 0.95165 0.14004 0.10316 0.0
H787 H 0.88676 0.02808 0.78538 0.0
H788 H 0.83776 0.22114 0.58717 0.0
H789 H 0.83609 0.03696 0.86768 0.0
H790 H 0.86011 0.22609 0.76943 0.0
O791 O 0.88134 0.07559 0.44941 0.0
H792 H 0.84539 0.14577 0.05063 0.0
H793 H 0.92311 0.0719 0.17212 0.0
H794 H 0.88987 0.05845 0.02031 0.0
H795 H 0.85052 0.09576 0.96062 0.0
H796 H 0.87835 0.15792 0.20326 0.0
H797 H 0.9965 0.12327 0.00093 0.0
H798 H 0.03442 0.08894 0.08548 0.0
O799 O 0.92587 0.08204 0.36971 0.0
C800 C 0.94691 0.12671 0.54251 0.0
C801 C 0.01121 0.08777 0.23595 0.0
C802 C 0.99362 0.11596 0.08267 0.0
N803 N 0.9643 0.11582 0.24375 0.0
C804 C 0.98568 0.09778 0.29204 0.0
C805 C 0.96838 0.12552 0.14121 0.0
C806 C 0.0149 0.09662 0.13014 0.0
C807 C 0.85713 0.17644 0.5611 0.0
N808 N 0.87403 0.15312 0.603 0.0
C809 C 0.85177 0.20306 0.62005 0.0
C810 C 0.86427 0.20584 0.72183 0.0
C811 C 0.88202 0.18218 0.76296 0.0
C812 C 0.88664 0.1558 0.70214 0.0
C813 C 0.82717 0.07755 0.77516 0.0
C814 C 0.88323 0.06735 0.68195 0.0
C815 C 0.83854 0.09742 0.69762 0.0
N816 N 0.86593 0.09175 0.65022 0.0
C817 C 0.87295 0.04742 0.76112 0.0
C818 C 0.8445 0.05233 0.80676 0.0
C819 C 0.90493 0.06485 0.40609 0.0
C820 C 0.86249 0.1295 0.07647 0.0
C821 C 0.90605 0.0881 0.14591 0.0
C822 C 0.8874 0.08042 0.05978 0.0
C823 C 0.86544 0.10131 0.02563 0.0
N824 N 0.90279 0.11576 0.19613 0.0
C825 C 0.8814 0.13633 0.1623 0.0
Co826 Co 0.11843 0.12238 0.56372 0.0
Co827 Co 0.12536 0.135 0.83487 0.0
O828 O 0.13577 0.11344 0.70313 0.0
C829 C 0.09211 0.06081 0.50698 0.0
O830 O 0.06563 0.07422 0.49334 0.0
C831 C 0.1922 0.14338 0.80916 0.0
O832 O 0.18728 0.14815 0.70747 0.0
O833 O 0.12825 0.17568 0.76463 0.0
O834 O 0.12222 0.16822 0.58876 0.0
H835 H 0.07542 0.21754 0.05148 0.0
H836 H 0.17179 0.08149 0.58842 0.0
O837 O 0.115 0.07661 0.53824 0.0
H838 H 0.20227 0.15936 0.32507 0.0
H839 H 0.09809 0.10202 0.17637 0.0
H840 H 0.07278 0.1668 0.48493 0.0
H841 H 0.15191 0.16157 0.40943 0.0
H842 H 0.12485 0.09506 0.34638 0.0
O843 O 0.17002 0.13756 0.87143 0.0
H844 H 0.08137 0.18365 0.89563 0.0
H845 H 0.1505 0.13346 0.05556 0.0
H846 H 0.04616 0.17525 0.3145 0.0
H847 H 0.22197 0.07741 0.50206 0.0
H848 H 0.05881 0.14273 0.15852 0.0
H849 H 0.23696 0.11594 0.36632 0.0
O850 O 0.07728 0.12283 0.62453 0.0
H851 H 0.16153 0.02879 0.92584 0.0
H852 H 0.07917 0.10446 0.97271 0.0
H853 H 0.07436 0.05286 0.05374 0.0
H854 H 0.11578 0.01484 0.031 0.0
H855 H 0.16512 0.08018 0.84436 0.0
H856 H 0.14666 0.16808 0.21026 0.0
H857 H 0.10893 0.21052 0.20891 0.0
O858 O 0.08041 0.13323 0.79982 0.0
C859 C 0.12595 0.18577 0.66989 0.0
C860 C 0.09196 0.19914 0.05303 0.0
C861 C 0.13204 0.17147 0.14199 0.0
N862 N 0.11628 0.15657 0.96627 0.0
C863 C 0.0951 0.17954 0.96562 0.0
C864 C 0.13405 0.15189 0.05413 0.0
C865 C 0.11089 0.1953 0.14111 0.0
C866 C 0.17836 0.09848 0.53012 0.0
N867 N 0.15888 0.12166 0.50317 0.0
C868 C 0.20683 0.09612 0.48185 0.0
C869 C 0.21537 0.11791 0.40643 0.0
C870 C 0.1958 0.14208 0.38231 0.0
C871 C 0.16745 0.14353 0.43149 0.0
C872 C 0.0924 0.1164 0.24329 0.0
C873 C 0.07869 0.15284 0.41691 0.0
C874 C 0.1076 0.11264 0.33983 0.0
N875 N 0.10039 0.1305 0.42555 0.0
C876 C 0.06333 0.15754 0.32098 0.0
C877 C 0.07023 0.13909 0.23378 0.0
C878 C 0.0653 0.12779 0.71473 0.0
C879 C 0.14337 0.04527 0.93681 0.0
C880 C 0.0972 0.08789 0.962 0.0
C881 C 0.09437 0.05879 0.00818 0.0
C882 C 0.11767 0.03743 0.99557 0.0
N883 N 0.12249 0.0954 0.90465 0.0
C884 C 0.14535 0.07449 0.89142 0.0
Co885 Co 0.13412 0.87628 0.53825 0.0
Co886 Co 0.08138 0.86832 0.33599 0.0
O887 O 0.11971 0.85673 0.40632 0.0
C888 C 0.18528 0.88726 0.38809 0.0
O889 O 0.16497 0.89467 0.3159 0.0
C890 C 0.08009 0.79845 0.33073 0.0
O891 O 0.09118 0.79757 0.42781 0.0
O892 O 0.05901 0.85958 0.46987 0.0
O893 O 0.09139 0.87488 0.59994 0.0
H894 H 0.98269 0.92568 0.30462 0.0
H895 H 0.16195 0.81928 0.45459 0.0
O896 O 0.17676 0.87813 0.47988 0.0
H897 H 0.1434 0.80029 0.8355 0.0
H898 H 0.21191 0.90194 0.81939 0.0
H899 H 0.11033 0.92616 0.67528 0.0
H900 H 0.12465 0.8475 0.75043 0.0
H901 H 0.18976 0.87069 0.67486 0.0
O902 O 0.07494 0.82438 0.28643 0.0
H903 H 0.02796 0.90584 0.39827 0.0
H904 H 0.05325 0.85491 0.12401 0.0
H905 H 0.13155 0.95792 0.82008 0.0
H906 H 0.17778 0.76985 0.53358 0.0
H907 H 0.18299 0.94632 0.89146 0.0
H908 H 0.16918 0.76038 0.72612 0.0
O909 O 0.12701 0.91746 0.47973 0.0
H910 H 0.15237 0.83991 0.04068 0.0
H911 H 0.08492 0.92086 0.18101 0.0
H912 H 0.1105 0.92848 0.00819 0.0
H913 H 0.14335 0.88692 0.93544 0.0
H914 H 0.12697 0.8335 0.21372 0.0
H915 H 0.0082 0.87399 0.02771 0.0
H916 H 0.97328 0.91067 0.11661 0.0
O917 O 0.0854 0.913 0.37961 0.0
C918 C 0.06516 0.86583 0.56706 0.0
C919 C 0.99805 0.9101 0.26447 0.0
C920 C 0.01232 0.88103 0.10914 0.0
N921 N 0.04344 0.87947 0.26636 0.0
C922 C 0.02362 0.89863 0.3173 0.0
C923 C 0.0376 0.86999 0.16457 0.0
C924 C 0.99273 0.90162 0.15906 0.0
C925 C 0.15693 0.81467 0.53727 0.0
N926 N 0.14241 0.83618 0.59791 0.0
C927 C 0.16623 0.78681 0.58182 0.0
C928 C 0.16136 0.7815 0.68983 0.0
C929 C 0.14657 0.80365 0.75097 0.0
C930 C 0.13624 0.83051 0.70258 0.0
C931 C 0.18956 0.90736 0.78845 0.0
C932 C 0.13242 0.92047 0.70767 0.0
C933 C 0.17684 0.88966 0.70692 0.0
N934 N 0.1488 0.8966 0.66637 0.0
C935 C 0.14444 0.93876 0.78892 0.0
C936 C 0.17336 0.9323 0.8287 0.0
C937 C 0.10526 0.9292 0.42798 0.0
C938 C 0.13772 0.85784 0.07114 0.0
C939 C 0.10003 0.90327 0.15132 0.0
C940 C 0.11427 0.90761 0.05309 0.0
C941 C 0.13285 0.88447 0.01242 0.0
N942 N 0.104 0.8765 0.20654 0.0
C943 C 0.12315 0.85431 0.16885 0.0
C944 C 0.38002 0.98837 0.28007 0.0
C945 C 0.40389 0.96808 0.30642 0.0
C946 C 0.3845 0.02016 0.27442 0.0
C947 C 0.41312 0.03337 0.29463 0.0
H948 H 0.35761 0.9796 0.26078 0.0
H949 H 0.3654 0.03436 0.25109 0.0
S950 S 0.48271 0.99089 0.37692 0.0
N951 N 0.45681 0.9638 0.36029 0.0
N952 N 0.46543 0.02368 0.35005 0.0
C953 C 0.43697 0.01357 0.32611 0.0
C954 C 0.43231 0.98097 0.33218 0.0
C955 C 0.01994 0.61422 0.68479 0.0
C956 C 0.02854 0.64052 0.74267 0.0
C957 C 0.9912 0.61228 0.63596 0.0
C958 C 0.97061 0.63692 0.64135 0.0
H959 H 0.03475 0.59433 0.68303 0.0
H960 H 0.98415 0.59061 0.60131 0.0
S961 S 0.984 0.71205 0.77257 0.0
N962 N 0.01549 0.69242 0.79552 0.0
N963 N 0.96195 0.6893 0.70067 0.0
C964 C 0.98011 0.66418 0.69163 0.0
C965 C 0.00898 0.66586 0.74337 0.0
C966 C 0.56542 0.9936 0.26779 0.0
C967 C 0.5894 0.97221 0.26882 0.0
C968 C 0.57042 0.02447 0.29552 0.0
C969 C 0.59962 0.03489 0.32431 0.0
H970 H 0.54293 0.98675 0.24161 0.0
H971 H 0.55167 0.04052 0.28935 0.0
S972 S 0.6688 0.98731 0.35684 0.0
N973 N 0.64249 0.96307 0.31502 0.0
N974 N 0.65188 0.02108 0.3636 0.0
C975 C 0.62331 0.01348 0.33125 0.0
C976 C 0.61821 0.98213 0.30434 0.0
C977 C 0.01654 0.39416 0.59103 0.0
C978 C 0.03711 0.36951 0.59317 0.0
C979 C 0.98758 0.39146 0.63699 0.0
C980 C 0.97881 0.36446 0.69067 0.0
H981 H 0.02364 0.41627 0.56008 0.0
H982 H 0.97284 0.41138 0.63709 0.0
S983 S 0.02336 0.29241 0.70839 0.0
N984 N 0.04559 0.31624 0.64189 0.0
N985 N 0.99189 0.31174 0.73439 0.0
C986 C 0.99853 0.33913 0.68801 0.0
C987 C 0.0275 0.34152 0.63752 0.0
C988 C 0.39831 0.49629 0.91224 0.0
C989 C 0.39245 0.48738 0.01792 0.0
C990 C 0.39739 0.5274 0.8816 0.0
C991 C 0.38982 0.55078 0.95483 0.0
H992 H 0.4045 0.47921 0.85339 0.0
H993 H 0.40285 0.53311 0.79992 0.0
S994 S 0.36989 0.53873 0.23979 0.0
N995 N 0.37756 0.504 0.1946 0.0
N996 N 0.37452 0.56195 0.13733 0.0
C997 C 0.38276 0.54179 0.06 0.0
C998 C 0.38444 0.51027 0.09143 0.0
C999 C 0.49695 0.61748 0.96945 0.0
C1000 C 0.47853 0.64236 0.99838 0.0
C1001 C 0.52581 0.61349 0.0134 0.0
C1002 C 0.53812 0.63458 0.08707 0.0
H1003 H 0.48913 0.60086 0.91165 0.0
H1004 H 0.53924 0.59429 0.98506 0.0
S1005 S 0.49822 0.70269 0.1958 0.0
N1006 N 0.47348 0.68732 0.11197 0.0
N1007 N 0.52869 0.68047 0.19214 0.0
C1008 C 0.51943 0.65885 0.12124 0.0
C1009 C 0.48947 0.66263 0.07727 0.0
C1010 C 0.63491 0.48295 0.89194 0.0
C1011 C 0.60808 0.46533 0.88917 0.0
C1012 C 0.6345 0.51368 0.92439 0.0
C1013 C 0.60736 0.52759 0.95792 0.0
H1014 H 0.65658 0.47259 0.87199 0.0
H1015 H 0.65578 0.52623 0.92734 0.0
S1016 S 0.5305 0.49243 0.95562 0.0
N1017 N 0.55327 0.46473 0.91425 0.0
N1018 N 0.55258 0.52249 0.97802 0.0
C1019 C 0.58016 0.51069 0.95152 0.0
C1020 C 0.58048 0.47953 0.91608 0.0
C1021 C 0.48517 0.34973 0.09334 0.0
C1022 C 0.47641 0.37628 0.14908 0.0
C1023 C 0.51367 0.34777 0.04398 0.0
C1024 C 0.53471 0.37197 0.05158 0.0
H1025 H 0.46896 0.33135 0.08043 0.0
H1026 H 0.51882 0.32769 0.99634 0.0
S1027 S 0.52416 0.44455 0.20243 0.0
N1028 N 0.49162 0.42604 0.21724 0.0
N1029 N 0.54601 0.4219 0.12983 0.0
C1030 C 0.52721 0.39747 0.11557 0.0
C1031 C 0.49781 0.39975 0.1632 0.0
C1032 C 0.88362 0.47999 0.87433 0.0
C1033 C 0.90901 0.46112 0.85616 0.0
C1034 C 0.88418 0.51124 0.84813 0.0
C1035 C 0.90984 0.5245 0.79975 0.0
H1036 H 0.86282 0.47027 0.90607 0.0
H1037 H 0.86383 0.52473 0.86138 0.0
S1038 S 0.98289 0.48526 0.74195 0.0
N1039 N 0.96119 0.45815 0.79395 0.0
N1040 N 0.96201 0.51682 0.7411 0.0
C1041 C 0.93579 0.50611 0.78459 0.0
C1042 C 0.93546 0.47441 0.81395 0.0
C1043 C 0.51979 0.16111 0.14562 0.0
C1044 C 0.53712 0.13402 0.14912 0.0
C1045 C 0.49108 0.16156 0.09672 0.0
C1046 C 0.47846 0.13475 0.05236 0.0
H1047 H 0.52778 0.18165 0.18569 0.0
H1048 H 0.4774 0.18217 0.1035 0.0
S1049 S 0.51561 0.05868 0.03345 0.0
N1050 N 0.54085 0.08053 0.095 0.0
N1051 N 0.48621 0.08115 0.00796 0.0
C1052 C 0.49644 0.1082 0.04854 0.0
C1053 C 0.52597 0.10786 0.09605 0.0
C1054 C 0.10851 0.52235 0.87261 0.0
C1055 C 0.11487 0.54661 0.8015 0.0
C1056 C 0.10917 0.49145 0.83954 0.0
C1057 C 0.11536 0.48351 0.73316 0.0
H1058 H 0.103 0.52717 0.95482 0.0
H1059 H 0.10401 0.47369 0.89722 0.0
S1060 S 0.13407 0.53779 0.51497 0.0
N1061 N 0.12861 0.56001 0.61971 0.0
N1062 N 0.12862 0.50231 0.55724 0.0
C1063 C 0.12187 0.5074 0.66129 0.0
C1064 C 0.12197 0.53879 0.69547 0.0
C1065 C 0.47665 0.89604 0.03583 0.0
C1066 C 0.46496 0.86936 0.08455 0.0
C1067 C 0.50677 0.89702 0.99713 0.0
C1068 C 0.52588 0.87112 0.00283 0.0
H1069 H 0.46339 0.91701 0.03576 0.0
H1070 H 0.51589 0.91881 0.97029 0.0
S1071 S 0.50482 0.79463 0.10937 0.0
N1072 N 0.474 0.81571 0.12693 0.0
N1073 N 0.52992 0.81736 0.0513 0.0
C1074 C 0.5135 0.84369 0.04282 0.0
C1075 C 0.48323 0.84285 0.08435 0.0
C1076 C 0.93697 0.99159 0.51906 0.0
C1077 C 0.91399 0.97002 0.49582 0.0
C1078 C 0.93537 0.02183 0.4806 0.0
C1079 C 0.91034 0.03172 0.42 0.0
H1080 H 0.95598 0.9853 0.56952 0.0
H1081 H 0.95279 0.03808 0.50431 0.0
S1082 S 0.84553 0.98402 0.3292 0.0
N1083 N 0.86682 0.96026 0.39961 0.0
N1084 N 0.8632 0.01751 0.33248 0.0
C1085 C 0.88795 0.01019 0.39229 0.0
C1086 C 0.88994 0.97921 0.42881 0.0
C1087 C 0.99111 0.15585 0.61399 0.0
C1088 C 0.97325 0.12904 0.61574 0.0
C1089 C 0.01987 0.15665 0.66206 0.0
C1090 C 0.03198 0.13057 0.71247 0.0
H1091 H 0.98363 0.17576 0.56931 0.0
H1092 H 0.03392 0.17686 0.65061 0.0
S1093 S 0.9932 0.05578 0.74886 0.0
N1094 N 0.96839 0.07682 0.6821 0.0
N1095 N 0.02311 0.07808 0.7692 0.0
C1096 C 0.01346 0.10445 0.72229 0.0
C1097 C 0.98385 0.10375 0.67473 0.0
C1098 C 0.07349 0.97739 0.43476 0.0
C1099 C 0.10226 0.96323 0.4335 0.0
C1100 C 0.07039 0.00896 0.45742 0.0
C1101 C 0.09594 0.02761 0.47957 0.0
H1102 H 0.05313 0.96379 0.42253 0.0
H1103 H 0.0477 0.01861 0.45993 0.0
S1104 S 0.17666 1.00219 0.47274 0.0
N1105 N 0.15693 0.97081 0.4469 0.0
N1106 N 0.15122 0.02962 0.4889 0.0
C1107 C 0.1249 0.01385 0.47356 0.0
C1108 C 0.12802 0.98186 0.45062 0.0
C1109 C 0.99785 0.89381 0.72596 0.0
C1110 C 0.97927 0.86746 0.73004 0.0
C1111 C 0.02752 0.89251 0.68378 0.0
C1112 C 0.03924 0.86493 0.64221 0.0
H1113 H 0.98836 0.91607 0.74561 0.0
H1114 H 0.04011 0.91374 0.674 0.0
S1115 S 1.00121 0.78899 0.64577 0.0
N1116 N 0.97617 0.81249 0.70028 0.0
N1117 N 0.0313 0.81024 0.61779 0.0
C1118 C 0.02188 0.83807 0.65398 0.0
C1119 C 0.99206 0.83928 0.69902 0.0
C1120 C 0.36397 0.27429 0.05838 0.0
C1121 C 0.38787 0.2903 0.10757 0.0
C1122 C 0.36366 0.24199 0.05649 0.0
C1123 C 0.38692 0.2247 0.10566 0.0
H1124 H 0.34517 0.28677 0.02314 0.0
H1125 H 0.34484 0.23045 0.01758 0.0
S1126 S 0.45595 0.25618 0.23569 0.0
N1127 N 0.43649 0.28678 0.19828 0.0
N1128 N 0.43536 0.22629 0.19853 0.0
C1129 C 0.41112 0.24061 0.1534 0.0
C1130 C 0.41172 0.27338 0.15333 0.0
C1131 C 0.23709 0.63749 0.80452 0.0
C1132 C 0.21947 0.63671 0.89781 0.0
C1133 C 0.26904 0.63742 0.80934 0.0
C1134 C 0.28454 0.6376 0.90756 0.0
H1135 H 0.22613 0.63702 0.72721 0.0
H1136 H 0.28171 0.6371 0.73548 0.0
S1137 S 0.24887 0.63767 0.17477 0.0
N1138 N 0.21983 0.63703 0.09114 0.0
N1139 N 0.27978 0.6382 0.10017 0.0
C1140 C 0.26717 0.63804 0.00134 0.0
C1141 C 0.23466 0.63722 0.99643 0.0
C1142 C 0.6273 0.77252 0.14892 0.0
C1143 C 0.62835 0.7868 0.04883 0.0
C1144 C 0.63083 0.74075 0.15911 0.0
C1145 C 0.63491 0.72158 0.06951 0.0
H1146 H 0.62358 0.78588 0.22049 0.0
H1147 H 0.6296 0.7312 0.23849 0.0
S1148 S 0.64129 0.74753 0.78918 0.0
N1149 N 0.63597 0.77935 0.85801 0.0
N1150 N 0.64101 0.71952 0.87749 0.0
C1151 C 0.63655 0.73555 0.96896 0.0
C1152 C 0.63365 0.7681 0.95858 0.0
C1153 C 0.73927 0.36372 0.94243 0.0
C1154 C 0.723 0.37987 0.86395 0.0
C1155 C 0.77066 0.35939 0.93434 0.0
C1156 C 0.78724 0.371 0.84735 0.0
H1157 H 0.72774 0.35432 0.01131 0.0
H1158 H 0.78197 0.34691 0.99761 0.0
S1159 S 0.75549 0.41497 0.6195 0.0
N1160 N 0.72584 0.40754 0.69568 0.0
N1161 N 0.78492 0.39938 0.68057 0.0
C1162 C 0.77128 0.38709 0.76775 0.0
C1163 C 0.73918 0.39152 0.776 0.0
C1164 C 0.87951 0.73387 0.58609 0.0
C1165 C 0.87385 0.71618 0.67808 0.0
C1166 C 0.88229 0.76582 0.59059 0.0
C1167 C 0.87886 0.78181 0.68694 0.0
H1168 H 0.88256 0.72301 0.50944 0.0
H1169 H 0.88733 0.77797 0.5175 0.0
S1170 S 0.86145 0.74666 0.95026 0.0
N1171 N 0.86389 0.7172 0.86811 0.0
N1172 N 0.86762 0.77741 0.87658 0.0
C1173 C 0.87212 0.76454 0.77934 0.0
C1174 C 0.86999 0.73178 0.77494 0.0
C1175 C 0.76971 0.11179 0.46259 0.0
C1176 C 0.78937 0.11128 0.37414 0.0
C1177 C 0.73798 0.1115 0.44985 0.0
C1178 C 0.7245 0.11119 0.34812 0.0
H1179 H 0.77884 0.11187 0.54272 0.0
H1180 H 0.72392 0.1116 0.5206 0.0
S1181 S 0.76573 0.11031 0.09016 0.0
N1182 N 0.79292 0.11073 0.18091 0.0
N1183 N 0.73345 0.11056 0.15708 0.0
C1184 C 0.74387 0.11114 0.2589 0.0
C1185 C 0.77621 0.11105 0.27187 0.0
C1186 C 0.12262 0.27182 0.732 0.0
C1187 C 0.13101 0.28576 0.63534 0.0
C1188 C 0.12117 0.23964 0.74213 0.0
C1189 C 0.12754 0.21986 0.65569 0.0
H1190 H 0.11697 0.28581 0.8005 0.0
H1191 H 0.11459 0.23026 0.8185 0.0
S1192 S 0.15141 0.24423 0.38545 0.0
N1193 N 0.14695 0.27662 0.45165 0.0
N1194 N 0.14294 0.21678 0.47075 0.0
C1195 C 0.13591 0.23343 0.55875 0.0
C1196 C 0.13802 0.26611 0.54867 0.0
C1197 C 0.22911 0.8875 0.25981 0.0
C1198 C 0.21823 0.89079 0.36452 0.0
C1199 C 0.26025 0.89054 0.23632 0.0
C1200 C 0.28172 0.89753 0.31634 0.0
H1201 H 0.2135 0.88205 0.19566 0.0
H1202 H 0.26751 0.88729 0.15472 0.0
S1203 S 0.2644 0.91084 0.60241 0.0
N1204 N 0.23115 0.90286 0.54791 0.0
N1205 N 0.28926 0.90903 0.50439 0.0
C1206 C 0.27091 0.90162 0.42103 0.0
C1207 C 0.23932 0.89812 0.44495 0.0
C1208 C 0.24828 0.1347 0.78834 0.0
C1209 C 0.22371 0.14438 0.85161 0.0
C1210 C 0.27823 0.13504 0.8277 0.0
C1211 C 0.2849 0.14546 0.93153 0.0
H1212 H 0.2443 0.1264 0.70817 0.0
H1213 H 0.29629 0.12712 0.77594 0.0
S1214 S 0.22869 0.17603 0.12502 0.0
N1215 N 0.20807 0.16625 0.02054 0.0
N1216 N 0.26412 0.16724 0.09454 0.0
C1217 C 0.26046 0.15575 0.99473 0.0
C1218 C 0.22997 0.15511 0.95483 0.0
C1219 C 0.08752 0.74107 0.30445 0.0
C1220 C 0.07541 0.76929 0.26847 0.0
C1221 C 0.08547 0.71402 0.24246 0.0
C1222 C 0.07139 0.71406 0.14159 0.0
H1223 H 0.09944 0.73994 0.37987 0.0
H1224 H 0.0959 0.69322 0.27222 0.0
S1225 S 0.03237 0.78064 0.01626 0.0
N1226 N 0.04604 0.79436 0.12904 0.0
N1227 N 0.04255 0.74418 0.01347 0.0
C1228 C 0.05797 0.74173 0.10706 0.0
C1229 C 0.05989 0.7691 0.17006 0.0
C1230 C 0.74437 0.87404 0.95741 0.0
C1231 C 0.72055 0.87132 0.88262 0.0
C1232 C 0.77509 0.87371 0.92588 0.0
C1233 C 0.78337 0.87011 0.81829 0.0
H1234 H 0.73928 0.87633 0.04141 0.0
H1235 H 0.79247 0.87555 0.98681 0.0
S1236 S 0.72979 0.86236 0.59074 0.0
N1237 N 0.70754 0.86541 0.6958 0.0
N1238 N 0.76492 0.86441 0.63661 0.0
C1239 C 0.75975 0.86773 0.74261 0.0
C1240 C 0.72849 0.86846 0.77466 0.0
C1241 C 0.95357 0.22651 0.17183 0.0
C1242 C 0.92801 0.22359 0.2386 0.0
C1243 C 0.95821 0.25296 0.10945 0.0
C1244 C 0.93719 0.27741 0.10948 0.0
H1245 H 0.97033 0.20829 0.16851 0.0
H1246 H 0.97841 0.25412 0.06032 0.0
S1247 S 0.86529 0.27995 0.26518 0.0
N1248 N 0.88073 0.24667 0.29741 0.0
N1249 N 0.88921 0.29615 0.18111 0.0
C1250 C 0.91126 0.27443 0.17499 0.0
C1251 C 0.90676 0.24764 0.23926 0.0
C1252 C 0.23188 0.35847 0.31816 0.0
C1253 C 0.22749 0.36902 0.4229 0.0
C1254 C 0.26099 0.35791 0.27209 0.0
C1255 C 0.2868 0.36826 0.32843 0.0
H1256 H 0.2128 0.34989 0.27222 0.0
H1257 H 0.26322 0.34898 0.19198 0.0
S1258 S 0.28645 0.4023 0.59997 0.0
N1259 N 0.25071 0.39237 0.57856 0.0
N1260 N 0.30514 0.39228 0.49163 0.0
C1261 C 0.28235 0.3801 0.43184 0.0
C1262 C 0.2528 0.3802 0.47915 0.0
C1263 C 0.4482 0.75051 0.47314 0.0
C1264 C 0.42595 0.77397 0.4745 0.0
C1265 C 0.44611 0.72452 0.54023 0.0
C1266 C 0.422 0.72124 0.6129 0.0
H1267 H 0.46777 0.75247 0.42131 0.0
H1268 H 0.46404 0.70748 0.53794 0.0
S1269 S 0.35621 0.7737 0.64182 0.0
N1270 N 0.37762 0.79015 0.55033 0.0
N1271 N 0.37425 0.74196 0.67611 0.0
C1272 C 0.39913 0.74369 0.61238 0.0
C1273 C 0.40092 0.76982 0.54331 0.0
C1274 C 0.75042 0.62269 0.29355 0.0
C1275 C 0.72467 0.63893 0.32869 0.0
C1276 C 0.77762 0.62251 0.353 0.0
C1277 C 0.78041 0.63892 0.44961 0.0
H1278 H 0.74948 0.60973 0.21996 0.0
H1279 H 0.79667 0.60946 0.32238 0.0
S1280 S 0.72045 0.68847 0.56809 0.0
N1281 N 0.70421 0.67361 0.4614 0.0
N1282 N 0.75511 0.67388 0.5724 0.0
C1283 C 0.75486 0.65584 0.48409 0.0
C1284 C 0.72711 0.6557 0.42393 0.0
C1285 C 0.59647 0.25364 0.50329 0.0
C1286 C 0.58748 0.22431 0.53856 0.0
C1287 C 0.59543 0.27937 0.5711 0.0
C1288 C 0.58553 0.27693 0.67763 0.0
H1289 H 0.60469 0.25681 0.4228 0.0
H1290 H 0.60289 0.30131 0.53986 0.0
S1291 S 0.55678 0.20609 0.80737 0.0
N1292 N 0.56635 0.19502 0.68633 0.0
N1293 N 0.5649 0.24308 0.81312 0.0
C1294 C 0.576 0.24791 0.71358 0.0
C1295 C 0.57683 0.22175 0.64436 0.0
loop_
_geom_bond_atom_site_label_1
_geom_bond_atom_site_label_2
_geom_bond_distance
_geom_bond_site_symmetry_2
_ccdc_geom_bond_type
Co0 O2 2.143 . S
Co0 O8 2.074 . S
Co0 O11 2.093 . S
Co0 O24 2.097 . S
Co0 N41 2.151 . S
Co0 N49 2.214 . S
Co1 O2 2.160 1_556 S
Co1 O7 2.058 1_556 S
Co1 O17 2.057 . S
Co1 O32 2.037 . S
Co1 N36 2.145 . S
Co1 N57 2.257 . S
O2 Co0 2.143 . S
O2 Co1 2.160 1_554 S
C3 O4 1.278 . S
C3 O11 1.224 . S
O4 C3 1.278 . S
C5 O6 1.245 . S
C5 O17 1.232 . S
O6 C5 1.245 . S
O7 Co1 2.058 1_554 S
O7 C33 1.269 . S
O8 Co0 2.074 . S
O8 C33 1.257 . S
H9 C34 0.930 . S
H10 C40 0.930 . S
O11 Co0 2.093 . S
O11 C3 1.224 . S
H12 C44 0.929 . S
H13 C46 0.930 . S
H14 C47 0.930 . S
H15 C45 0.929 . S
H16 C48 0.928 . S
O17 Co1 2.057 . S
O17 C5 1.232 . S
H18 C37 0.929 . S
H19 C38 0.929 . S
H20 C50 0.931 . S
H21 C42 0.929 . S
H22 C51 0.930 . S
H23 C43 0.931 . S
O24 Co0 2.097 . S
O24 C52 1.214 . S
H25 C53 0.929 . S
H26 C54 0.929 . S
H27 C55 0.930 . S
H28 C56 0.929 . S
H29 C58 0.930 . S
H30 C35 0.930 . S
H31 C39 0.930 . S
O32 Co1 2.037 . S
O32 C52 1.234 1_556 S
C33 O7 1.269 . S
C33 O8 1.257 . S
C34 H9 0.930 . S
C34 C37 1.388 . S
C34 C39 1.418 . S
C35 H30 0.930 . S
C35 C38 1.404 . S
C35 C39 1.353 . S
N36 Co1 2.145 . S
N36 C37 1.397 . S
N36 C38 1.334 . S
C37 H18 0.929 . S
C37 C34 1.388 . S
C37 N36 1.397 . S
C38 H19 0.929 . S
C38 C35 1.404 . S
C38 N36 1.334 . S
C39 H31 0.930 . S
C39 C34 1.418 . S
C39 C35 1.353 . S
C40 H10 0.930 . S
C40 N41 1.330 . S
C40 C42 1.446 . S
N41 Co0 2.151 . S
N41 C40 1.330 . S
N41 C45 1.418 . S
C42 H21 0.929 . S
C42 C40 1.446 . S
C42 C43 1.332 . S
C43 H23 0.931 . S
C43 C42 1.332 . S
C43 C44 1.267 . S
C44 H12 0.929 . S
C44 C43 1.267 . S
C44 C45 1.251 . S
C45 H15 0.929 . S
C45 N41 1.418 . S
C45 C44 1.251 . S
C46 H13 0.930 . S
C46 C48 1.406 . S
C46 C51 1.261 . S
C47 H14 0.930 . S
C47 N49 1.325 . S
C47 C50 1.357 . S
C48 H16 0.928 . S
C48 C46 1.406 . S
C48 N49 1.261 . S
N49 Co0 2.214 . S
N49 C47 1.325 . S
N49 C48 1.261 . S
C50 H20 0.931 . S
C50 C47 1.357 . S
C50 C51 1.312 . S
C51 H22 0.930 . S
C51 C46 1.261 . S
C51 C50 1.312 . S
C52 O24 1.214 . S
C52 O32 1.234 1_554 S
C53 H25 0.929 . S
C53 C56 1.391 . S
C53 C58 1.391 . S
C54 H26 0.929 . S
C54 C55 1.390 . S
C54 N57 1.391 . S
C55 H27 0.930 . S
C55 C54 1.390 . S
C55 C56 1.392 . S
C56 H28 0.929 . S
C56 C53 1.391 . S
C56 C55 1.392 . S
N57 Co1 2.257 . S
N57 C54 1.391 . S
N57 C58 1.388 . S
C58 H29 0.930 . S
C58 C53 1.391 . S
C58 N57 1.388 . S
Co59 O61 2.143 . S
Co59 O67 2.074 . S
Co59 O70 2.093 . S
Co59 O83 2.097 . S
Co59 N100 2.151 . S
Co59 N108 2.214 . S
Co60 O61 2.160 . S
Co60 O66 2.058 . S
Co60 O76 2.057 1_556 S
Co60 O91 2.037 . S
Co60 N95 2.145 1_556 S
Co60 N116 2.257 1_556 S
O61 Co59 2.143 . S
O61 Co60 2.160 . S
C62 O63 1.278 . S
C62 O70 1.224 . S
O63 C62 1.278 . S
C64 O65 1.245 1_554 S
C64 O76 1.232 . S
O65 C64 1.245 1_556 S
O66 Co60 2.058 . S
O66 C92 1.269 . S
O67 Co59 2.074 . S
O67 C92 1.257 . S
H68 C93 0.931 1_655 S
H69 C99 0.930 . S
O70 Co59 2.093 . S
O70 C62 1.224 . S
H71 C103 0.929 . S
H72 C105 0.930 . S
H73 C106 0.930 . S
H74 C104 0.929 . S
H75 C107 0.928 . S
O76 Co60 2.057 1_554 S
O76 C64 1.232 . S
H77 C96 0.929 1_556 S
H78 C97 0.929 . S
H79 C109 0.931 . S
H80 C101 0.929 . S
H81 C110 0.930 . S
H82 C102 0.931 . S
O83 Co59 2.097 . S
O83 C111 1.214 . S
H84 C112 0.929 . S
H85 C113 0.929 . S
H86 C114 0.930 . S
H87 C115 0.929 . S
H88 C117 0.930 . S
H89 C94 0.930 . S
H90 C98 0.930 1_655 S
O91 Co60 2.037 . S
O91 C111 1.234 . S
C92 O66 1.269 . S
C92 O67 1.257 . S
C93 H68 0.931 1_455 S
C93 C96 1.388 . S
C93 C98 1.418 . S
C94 H89 0.930 . S
C94 C97 1.404 . S
C94 C98 1.353 . S
N95 Co60 2.145 1_554 S
N95 C96 1.397 . S
N95 C97 1.334 . S
C96 H77 0.929 1_554 S
C96 C93 1.388 . S
C96 N95 1.397 . S
C97 H78 0.929 . S
C97 C94 1.404 . S
C97 N95 1.334 . S
C98 H90 0.930 1_455 S
C98 C93 1.418 . S
C98 C94 1.353 . S
C99 H69 0.930 . S
C99 N100 1.330 . S
C99 C101 1.446 . S
N100 Co59 2.151 . S
N100 C99 1.330 . S
N100 C104 1.418 . S
C101 H80 0.929 . S
C101 C99 1.446 . S
C101 C102 1.332 . S
C102 H82 0.931 . S
C102 C101 1.332 . S
C102 C103 1.267 . S
C103 H71 0.929 . S
C103 C102 1.267 . S
C103 C104 1.251 . S
C104 H74 0.929 . S
C104 N100 1.418 . S
C104 C103 1.251 . S
C105 H72 0.930 . S
C105 C107 1.406 . S
C105 C110 1.261 . S
C106 H73 0.930 . S
C106 N108 1.325 . S
C106 C109 1.357 . S
C107 H75 0.928 . S
C107 C105 1.406 . S
C107 N108 1.261 . S
N108 Co59 2.214 . S
N108 C106 1.325 . S
N108 C107 1.261 . S
C109 H79 0.931 . S
C109 C106 1.357 . S
C109 C110 1.312 . S
C110 H81 0.930 . S
C110 C105 1.261 . S
C110 C109 1.312 . S
C111 O83 1.214 . S
C111 O91 1.234 . S
C112 H84 0.929 . S
C112 C115 1.391 . S
C112 C117 1.391 . S
C113 H85 0.929 . S
C113 C114 1.390 . S
C113 N116 1.391 . S
C114 H86 0.930 . S
C114 C113 1.390 . S
C114 C115 1.392 . S
C115 H87 0.929 . S
C115 C112 1.391 . S
C115 C114 1.392 . S
N116 Co60 2.257 1_554 S
N116 C113 1.391 . S
N116 C117 1.388 . S
C117 H88 0.930 . S
C117 C112 1.391 . S
C117 N116 1.388 . S
Co118 O120 2.143 . S
Co118 O126 2.074 . S
Co118 O129 2.093 . S
Co118 O142 2.097 . S
Co118 N159 2.151 . S
Co118 N167 2.214 . S
Co119 O120 2.160 1_556 S
Co119 O125 2.058 1_556 S
Co119 O135 2.057 . S
Co119 O150 2.037 . S
Co119 N154 2.145 . S
Co119 N175 2.257 . S
O120 Co118 2.143 . S
O120 Co119 2.160 1_554 S
C121 O122 1.278 . S
C121 O129 1.224 . S
O122 C121 1.278 . S
C123 O124 1.245 . S
C123 O135 1.232 . S
O124 C123 1.245 . S
O125 Co119 2.058 1_554 S
O125 C151 1.269 . S
O126 Co118 2.074 . S
O126 C151 1.257 . S
H127 C152 0.930 . S
H128 C158 0.930 . S
O129 Co118 2.093 . S
O129 C121 1.224 . S
H130 C162 0.929 . S
H131 C164 0.930 . S
H132 C165 0.930 . S
H133 C163 0.929 . S
H134 C166 0.928 . S
O135 Co119 2.057 . S
O135 C123 1.232 . S
H136 C155 0.929 . S
H137 C156 0.929 . S
H138 C168 0.931 . S
H139 C160 0.929 . S
H140 C169 0.930 . S
H141 C161 0.931 . S
O142 Co118 2.097 . S
O142 C170 1.214 . S
H143 C171 0.929 . S
H144 C172 0.929 . S
H145 C173 0.930 . S
H146 C174 0.929 . S
H147 C176 0.930 . S
H148 C153 0.930 . S
H149 C157 0.930 . S
O150 Co119 2.037 . S
O150 C170 1.234 1_556 S
C151 O125 1.269 . S
C151 O126 1.257 . S
C152 H127 0.930 . S
C152 C155 1.388 . S
C152 C157 1.418 . S
C153 H148 0.930 . S
C153 C156 1.404 . S
C153 C157 1.353 . S
N154 Co119 2.145 . S
N154 C155 1.397 . S
N154 C156 1.334 . S
C155 H136 0.929 . S
C155 C152 1.388 . S
C155 N154 1.397 . S
C156 H137 0.929 . S
C156 C153 1.404 . S
C156 N154 1.334 . S
C157 H149 0.930 . S
C157 C152 1.418 . S
C157 C153 1.353 . S
C158 H128 0.930 . S
C158 N159 1.330 . S
C158 C160 1.446 . S
N159 Co118 2.151 . S
N159 C158 1.330 . S
N159 C163 1.418 . S
C160 H139 0.929 . S
C160 C158 1.446 . S
C160 C161 1.332 . S
C161 H141 0.931 . S
C161 C160 1.332 . S
C161 C162 1.267 . S
C162 H130 0.929 . S
C162 C161 1.267 . S
C162 C163 1.251 . S
C163 H133 0.929 . S
C163 N159 1.418 . S
C163 C162 1.251 . S
C164 H131 0.930 . S
C164 C166 1.406 . S
C164 C169 1.261 . S
C165 H132 0.930 . S
C165 N167 1.325 . S
C165 C168 1.357 . S
C166 H134 0.928 . S
C166 C164 1.406 . S
C166 N167 1.261 . S
N167 Co118 2.214 . S
N167 C165 1.325 . S
N167 C166 1.261 . S
C168 H138 0.931 . S
C168 C165 1.357 . S
C168 C169 1.312 . S
C169 H140 0.930 . S
C169 C164 1.261 . S
C169 C168 1.312 . S
C170 O142 1.214 . S
C170 O150 1.234 1_554 S
C171 H143 0.929 . S
C171 C174 1.391 . S
C171 C176 1.391 . S
C172 H144 0.929 . S
C172 C173 1.390 . S
C172 N175 1.391 . S
C173 H145 0.930 . S
C173 C172 1.390 . S
C173 C174 1.392 . S
C174 H146 0.929 . S
C174 C171 1.391 . S
C174 C173 1.392 . S
N175 Co119 2.257 . S
N175 C172 1.391 . S
N175 C176 1.388 . S
C176 H147 0.930 . S
C176 C171 1.391 . S
C176 N175 1.388 . S
Co177 O179 2.143 . S
Co177 O185 2.074 . S
Co177 O188 2.093 . S
Co177 O201 2.097 . S
Co177 N218 2.151 . S
Co177 N226 2.214 . S
Co178 O179 2.160 . S
Co178 O184 2.058 . S
Co178 O194 2.057 1_556 S
Co178 O209 2.037 . S
Co178 N213 2.145 1_556 S
Co178 N234 2.257 1_556 S
O179 Co177 2.143 . S
O179 Co178 2.160 . S
C180 O181 1.278 . S
C180 O188 1.224 . S
O181 C180 1.278 . S
C182 O183 1.245 1_554 S
C182 O194 1.232 . S
O183 C182 1.245 1_556 S
O184 Co178 2.058 . S
O184 C210 1.269 . S
O185 Co177 2.074 . S
O185 C210 1.257 . S
H186 C211 0.931 1_455 S
H187 C217 0.930 . S
O188 Co177 2.093 . S
O188 C180 1.224 . S
H189 C221 0.929 . S
H190 C223 0.930 . S
H191 C224 0.930 . S
H192 C222 0.929 . S
H193 C225 0.928 . S
O194 Co178 2.057 1_554 S
O194 C182 1.232 . S
H195 C214 0.929 1_556 S
H196 C215 0.929 . S
H197 C227 0.931 . S
H198 C219 0.929 . S
H199 C228 0.930 . S
H200 C220 0.931 . S
O201 Co177 2.097 . S
O201 C229 1.214 . S
H202 C230 0.929 . S
H203 C231 0.929 . S
H204 C232 0.930 . S
H205 C233 0.929 . S
H206 C235 0.930 . S
H207 C212 0.930 . S
H208 C216 0.930 1_455 S
O209 Co178 2.037 . S
O209 C229 1.234 . S
C210 O184 1.269 . S
C210 O185 1.257 . S
C211 H186 0.931 1_655 S
C211 C214 1.388 . S
C211 C216 1.418 . S
C212 H207 0.930 . S
C212 C215 1.404 . S
C212 C216 1.353 . S
N213 Co178 2.145 1_554 S
N213 C214 1.397 . S
N213 C215 1.334 . S
C214 H195 0.929 1_554 S
C214 C211 1.388 . S
C214 N213 1.397 . S
C215 H196 0.929 . S
C215 C212 1.404 . S
C215 N213 1.334 . S
C216 H208 0.930 1_655 S
C216 C211 1.418 . S
C216 C212 1.353 . S
C217 H187 0.930 . S
C217 N218 1.330 . S
C217 C219 1.446 . S
N218 Co177 2.151 . S
N218 C217 1.330 . S
N218 C222 1.418 . S
C219 H198 0.929 . S
C219 C217 1.446 . S
C219 C220 1.332 . S
C220 H200 0.931 . S
C220 C219 1.332 . S
C220 C221 1.267 . S
C221 H189 0.929 . S
C221 C220 1.267 . S
C221 C222 1.251 . S
C222 H192 0.929 . S
C222 N218 1.418 . S
C222 C221 1.251 . S
C223 H190 0.930 . S
C223 C225 1.406 . S
C223 C228 1.261 . S
C224 H191 0.930 . S
C224 N226 1.325 . S
C224 C227 1.357 . S
C225 H193 0.928 . S
C225 C223 1.406 . S
C225 N226 1.261 . S
N226 Co177 2.214 . S
N226 C224 1.325 . S
N226 C225 1.261 . S
C227 H197 0.931 . S
C227 C224 1.357 . S
C227 C228 1.312 . S
C228 H199 0.930 . S
C228 C223 1.261 . S
C228 C227 1.312 . S
C229 O201 1.214 . S
C229 O209 1.234 . S
C230 H202 0.929 . S
C230 C233 1.391 . S
C230 C235 1.391 . S
C231 H203 0.929 . S
C231 C232 1.390 . S
C231 N234 1.391 . S
C232 H204 0.930 . S
C232 C231 1.390 . S
C232 C233 1.392 . S
C233 H205 0.929 . S
C233 C230 1.391 . S
C233 C232 1.392 . S
N234 Co178 2.257 1_554 S
N234 C231 1.391 . S
N234 C235 1.388 . S
C235 H206 0.930 . S
C235 C230 1.391 . S
C235 N234 1.388 . S
Co236 O238 2.143 . S
Co236 O244 2.074 . S
Co236 O247 2.093 . S
Co236 O260 2.097 . S
Co236 N277 2.151 1_554 S
Co236 N285 2.214 1_554 S
Co237 O238 2.160 . S
Co237 O243 2.058 . S
Co237 O253 2.057 . S
Co237 O268 2.037 . S
Co237 N272 2.145 . S
Co237 N293 2.257 . S
O238 Co236 2.143 . S
O238 Co237 2.160 . S
C239 O240 1.278 . S
C239 O247 1.224 . S
O240 C239 1.278 . S
C241 O242 1.245 . S
C241 O253 1.232 . S
O242 C241 1.245 . S
O243 Co237 2.058 . S
O243 C269 1.269 . S
O244 Co236 2.074 . S
O244 C269 1.257 . S
H245 C270 0.930 . S
H246 C276 0.930 . S
O247 Co236 2.093 . S
O247 C239 1.224 . S
H248 C280 0.929 . S
H249 C282 0.930 . S
H250 C283 0.930 . S
H251 C281 0.929 . S
H252 C284 0.928 . S
O253 Co237 2.057 . S
O253 C241 1.232 . S
H254 C273 0.929 . S
H255 C274 0.929 . S
H256 C286 0.931 . S
H257 C278 0.929 . S
H258 C287 0.930 . S
H259 C279 0.931 . S
O260 Co236 2.097 . S
O260 C288 1.214 . S
H261 C289 0.929 . S
H262 C290 0.929 . S
H263 C291 0.930 . S
H264 C292 0.929 . S
H265 C294 0.930 . S
H266 C271 0.930 . S
H267 C275 0.930 . S
O268 Co237 2.037 . S
O268 C288 1.234 . S
C269 O243 1.269 . S
C269 O244 1.257 . S
C270 H245 0.930 . S
C270 C273 1.388 . S
C270 C275 1.418 . S
C271 H266 0.930 . S
C271 C274 1.404 . S
C271 C275 1.353 . S
N272 Co237 2.145 . S
N272 C273 1.397 . S
N272 C274 1.334 . S
C273 H254 0.929 . S
C273 C270 1.388 . S
C273 N272 1.397 . S
C274 H255 0.929 . S
C274 C271 1.404 . S
C274 N272 1.334 . S
C275 H267 0.930 . S
C275 C270 1.418 . S
C275 C271 1.353 . S
C276 H246 0.930 . S
C276 N277 1.330 . S
C276 C278 1.446 . S
N277 Co236 2.151 1_556 S
N277 C276 1.330 . S
N277 C281 1.418 . S
C278 H257 0.929 . S
C278 C276 1.446 . S
C278 C279 1.332 . S
C279 H259 0.931 . S
C279 C278 1.332 . S
C279 C280 1.267 . S
C280 H248 0.929 . S
C280 C279 1.267 . S
C280 C281 1.251 . S
C281 H251 0.929 . S
C281 N277 1.418 . S
C281 C280 1.251 . S
C282 H249 0.930 . S
C282 C284 1.406 . S
C282 C287 1.261 . S
C283 H250 0.930 . S
C283 N285 1.325 . S
C283 C286 1.357 . S
C284 H252 0.928 . S
C284 C282 1.406 . S
C284 N285 1.261 . S
N285 Co236 2.214 1_556 S
N285 C283 1.325 . S
N285 C284 1.261 . S
C286 H256 0.931 . S
C286 C283 1.357 . S
C286 C287 1.312 . S
C287 H258 0.930 . S
C287 C282 1.261 . S
C287 C286 1.312 . S
C288 O260 1.214 . S
C288 O268 1.234 . S
C289 H261 0.929 . S
C289 C292 1.391 . S
C289 C294 1.391 . S
C290 H262 0.929 . S
C290 C291 1.390 . S
C290 N293 1.391 . S
C291 H263 0.930 . S
C291 C290 1.390 . S
C291 C292 1.392 . S
C292 H264 0.929 . S
C292 C289 1.391 . S
C292 C291 1.392 . S
N293 Co237 2.257 . S
N293 C290 1.391 . S
N293 C294 1.388 . S
C294 H265 0.930 . S
C294 C289 1.391 . S
C294 N293 1.388 . S
Co295 O297 2.143 1_554 S
Co295 O303 2.074 . S
Co295 O306 2.093 . S
Co295 O319 2.097 1_554 S
Co295 N336 2.151 . S
Co295 N344 2.214 . S
Co296 O297 2.160 . S
Co296 O302 2.058 . S
Co296 O312 2.057 . S
Co296 O327 2.037 . S
Co296 N331 2.145 . S
Co296 N352 2.257 . S
O297 Co295 2.143 1_556 S
O297 Co296 2.160 . S
C298 O299 1.278 . S
C298 O306 1.224 1_556 S
O299 C298 1.278 . S
C300 O301 1.245 . S
C300 O312 1.232 . S
O301 C300 1.245 . S
O302 Co296 2.058 . S
O302 C328 1.269 . S
O303 Co295 2.074 . S
O303 C328 1.257 1_554 S
H304 C329 0.930 . S
H305 C335 0.930 . S
O306 Co295 2.093 . S
O306 C298 1.224 1_554 S
H307 C339 0.929 . S
H308 C341 0.930 . S
H309 C342 0.930 . S
H310 C340 0.929 . S
H311 C343 0.928 . S
O312 Co296 2.057 . S
O312 C300 1.232 . S
H313 C332 0.929 . S
H314 C333 0.929 . S
H315 C345 0.931 . S
H316 C337 0.929 . S
H317 C346 0.930 . S
H318 C338 0.931 . S
O319 Co295 2.097 1_556 S
O319 C347 1.214 . S
H320 C348 0.929 . S
H321 C349 0.929 . S
H322 C350 0.930 . S
H323 C351 0.929 . S
H324 C353 0.930 . S
H325 C330 0.930 . S
H326 C334 0.930 . S
O327 Co296 2.037 . S
O327 C347 1.234 . S
C328 O302 1.269 . S
C328 O303 1.257 1_556 S
C329 H304 0.930 . S
C329 C332 1.388 . S
C329 C334 1.418 . S
C330 H325 0.930 . S
C330 C333 1.404 . S
C330 C334 1.353 . S
N331 Co296 2.145 . S
N331 C332 1.397 . S
N331 C333 1.334 . S
C332 H313 0.929 . S
C332 C329 1.388 . S
C332 N331 1.397 . S
C333 H314 0.929 . S
C333 C330 1.404 . S
C333 N331 1.334 . S
C334 H326 0.930 . S
C334 C329 1.418 . S
C334 C330 1.353 . S
C335 H305 0.930 . S
C335 N336 1.330 . S
C335 C337 1.446 . S
N336 Co295 2.151 . S
N336 C335 1.330 . S
N336 C340 1.418 . S
C337 H316 0.929 . S
C337 C335 1.446 . S
C337 C338 1.332 . S
C338 H318 0.931 . S
C338 C337 1.332 . S
C338 C339 1.267 . S
C339 H307 0.929 . S
C339 C338 1.267 . S
C339 C340 1.251 . S
C340 H310 0.929 . S
C340 N336 1.418 . S
C340 C339 1.251 . S
C341 H308 0.930 . S
C341 C343 1.406 . S
C341 C346 1.261 . S
C342 H309 0.930 . S
C342 N344 1.325 . S
C342 C345 1.357 . S
C343 H311 0.928 . S
C343 C341 1.406 . S
C343 N344 1.261 . S
N344 Co295 2.214 . S
N344 C342 1.325 . S
N344 C343 1.261 . S
C345 H315 0.931 . S
C345 C342 1.357 . S
C345 C346 1.312 . S
C346 H317 0.930 . S
C346 C341 1.261 . S
C346 C345 1.312 . S
C347 O319 1.214 . S
C347 O327 1.234 . S
C348 H320 0.929 . S
C348 C351 1.391 . S
C348 C353 1.391 . S
C349 H321 0.929 . S
C349 C350 1.390 . S
C349 N352 1.391 . S
C350 H322 0.930 . S
C350 C349 1.390 . S
C350 C351 1.392 . S
C351 H323 0.929 . S
C351 C348 1.391 . S
C351 C350 1.392 . S
N352 Co296 2.257 . S
N352 C349 1.391 . S
N352 C353 1.388 . S
C353 H324 0.930 . S
C353 C348 1.391 . S
C353 N352 1.388 . S
Co354 O356 2.143 . S
Co354 O362 2.074 . S
Co354 O365 2.093 . S
Co354 O378 2.097 . S
Co354 N395 2.151 1_554 S
Co354 N403 2.214 1_554 S
Co355 O356 2.160 . S
Co355 O361 2.058 . S
Co355 O371 2.057 . S
Co355 O386 2.037 . S
Co355 N390 2.145 . S
Co355 N411 2.257 . S
O356 Co354 2.143 . S
O356 Co355 2.160 . S
C357 O358 1.278 . S
C357 O365 1.224 . S
O358 C357 1.278 . S
C359 O360 1.245 . S
C359 O371 1.232 . S
O360 C359 1.245 . S
O361 Co355 2.058 . S
O361 C387 1.269 . S
O362 Co354 2.074 . S
O362 C387 1.257 . S
H363 C388 0.930 . S
H364 C394 0.930 . S
O365 Co354 2.093 . S
O365 C357 1.224 . S
H366 C398 0.929 . S
H367 C400 0.930 . S
H368 C401 0.930 . S
H369 C399 0.929 . S
H370 C402 0.928 . S
O371 Co355 2.057 . S
O371 C359 1.232 . S
H372 C391 0.929 . S
H373 C392 0.929 . S
H374 C404 0.931 . S
H375 C396 0.929 . S
H376 C405 0.930 . S
H377 C397 0.931 . S
O378 Co354 2.097 . S
O378 C406 1.214 . S
H379 C407 0.929 . S
H380 C408 0.929 . S
H381 C409 0.930 . S
H382 C410 0.929 . S
H383 C412 0.930 . S
H384 C389 0.930 . S
H385 C393 0.930 . S
O386 Co355 2.037 . S
O386 C406 1.234 . S
C387 O361 1.269 . S
C387 O362 1.257 . S
C388 H363 0.930 . S
C388 C391 1.388 . S
C388 C393 1.418 . S
C389 H384 0.930 . S
C389 C392 1.404 . S
C389 C393 1.353 . S
N390 Co355 2.145 . S
N390 C391 1.397 . S
N390 C392 1.334 . S
C391 H372 0.929 . S
C391 C388 1.388 . S
C391 N390 1.397 . S
C392 H373 0.929 . S
C392 C389 1.404 . S
C392 N390 1.334 . S
C393 H385 0.930 . S
C393 C388 1.418 . S
C393 C389 1.353 . S
C394 H364 0.930 . S
C394 N395 1.330 . S
C394 C396 1.446 . S
N395 Co354 2.151 1_556 S
N395 C394 1.330 . S
N395 C399 1.418 . S
C396 H375 0.929 . S
C396 C394 1.446 . S
C396 C397 1.332 . S
C397 H377 0.931 . S
C397 C396 1.332 . S
C397 C398 1.267 . S
C398 H366 0.929 . S
C398 C397 1.267 . S
C398 C399 1.251 . S
C399 H369 0.929 . S
C399 N395 1.418 . S
C399 C398 1.251 . S
C400 H367 0.930 . S
C400 C402 1.406 . S
C400 C405 1.261 . S
C401 H368 0.930 . S
C401 N403 1.325 . S
C401 C404 1.357 . S
C402 H370 0.928 . S
C402 C400 1.406 . S
C402 N403 1.261 . S
N403 Co354 2.214 1_556 S
N403 C401 1.325 . S
N403 C402 1.261 . S
C404 H374 0.931 . S
C404 C401 1.357 . S
C404 C405 1.312 . S
C405 H376 0.930 . S
C405 C400 1.261 . S
C405 C404 1.312 . S
C406 O378 1.214 . S
C406 O386 1.234 . S
C407 H379 0.929 . S
C407 C410 1.391 . S
C407 C412 1.391 . S
C408 H380 0.929 . S
C408 C409 1.390 . S
C408 N411 1.391 . S
C409 H381 0.930 . S
C409 C408 1.390 . S
C409 C410 1.392 . S
C410 H382 0.929 . S
C410 C407 1.391 . S
C410 C409 1.392 . S
N411 Co355 2.257 . S
N411 C408 1.391 . S
N411 C412 1.388 . S
C412 H383 0.930 . S
C412 C407 1.391 . S
C412 N411 1.388 . S
Co413 O415 2.143 1_554 S
Co413 O421 2.074 . S
Co413 O424 2.093 . S
Co413 O437 2.097 1_554 S
Co413 N454 2.151 . S
Co413 N462 2.214 . S
Co414 O415 2.160 . S
Co414 O420 2.058 . S
Co414 O430 2.057 . S
Co414 O445 2.037 . S
Co414 N449 2.145 . S
Co414 N470 2.257 . S
O415 Co413 2.143 1_556 S
O415 Co414 2.160 . S
C416 O417 1.278 . S
C416 O424 1.224 1_556 S
O417 C416 1.278 . S
C418 O419 1.245 . S
C418 O430 1.232 . S
O419 C418 1.245 . S
O420 Co414 2.058 . S
O420 C446 1.269 . S
O421 Co413 2.074 . S
O421 C446 1.257 1_554 S
H422 C447 0.930 . S
H423 C453 0.930 . S
O424 Co413 2.093 . S
O424 C416 1.224 1_554 S
H425 C457 0.929 . S
H426 C459 0.930 . S
H427 C460 0.930 . S
H428 C458 0.929 . S
H429 C461 0.928 . S
O430 Co414 2.057 . S
O430 C418 1.232 . S
H431 C450 0.929 . S
H432 C451 0.929 . S
H433 C463 0.931 . S
H434 C455 0.929 . S
H435 C464 0.930 . S
H436 C456 0.931 . S
O437 Co413 2.097 1_556 S
O437 C465 1.214 . S
H438 C466 0.929 . S
H439 C467 0.929 . S
H440 C468 0.930 . S
H441 C469 0.929 . S
H442 C471 0.930 . S
H443 C448 0.930 . S
H444 C452 0.930 . S
O445 Co414 2.037 . S
O445 C465 1.234 . S
C446 O420 1.269 . S
C446 O421 1.257 1_556 S
C447 H422 0.930 . S
C447 C450 1.388 . S
C447 C452 1.418 . S
C448 H443 0.930 . S
C448 C451 1.404 . S
C448 C452 1.353 . S
N449 Co414 2.145 . S
N449 C450 1.397 . S
N449 C451 1.334 . S
C450 H431 0.929 . S
C450 C447 1.388 . S
C450 N449 1.397 . S
C451 H432 0.929 . S
C451 C448 1.404 . S
C451 N449 1.334 . S
C452 H444 0.930 . S
C452 C447 1.418 . S
C452 C448 1.353 . S
C453 H423 0.930 . S
C453 N454 1.330 . S
C453 C455 1.446 . S
N454 Co413 2.151 . S
N454 C453 1.330 . S
N454 C458 1.418 . S
C455 H434 0.929 . S
C455 C453 1.446 . S
C455 C456 1.332 . S
C456 H436 0.931 . S
C456 C455 1.332 . S
C456 C457 1.267 . S
C457 H425 0.929 . S
C457 C456 1.267 . S
C457 C458 1.251 . S
C458 H428 0.929 . S
C458 N454 1.418 . S
C458 C457 1.251 . S
C459 H426 0.930 . S
C459 C461 1.406 . S
C459 C464 1.261 . S
C460 H427 0.930 . S
C460 N462 1.325 . S
C460 C463 1.357 . S
C461 H429 0.928 . S
C461 C459 1.406 . S
C461 N462 1.261 . S
N462 Co413 2.214 . S
N462 C460 1.325 . S
N462 C461 1.261 . S
C463 H433 0.931 . S
C463 C460 1.357 . S
C463 C464 1.312 . S
C464 H435 0.930 . S
C464 C459 1.261 . S
C464 C463 1.312 . S
C465 O437 1.214 . S
C465 O445 1.234 . S
C466 H438 0.929 . S
C466 C469 1.391 . S
C466 C471 1.391 . S
C467 H439 0.929 . S
C467 C468 1.390 . S
C467 N470 1.391 . S
C468 H440 0.930 . S
C468 C467 1.390 . S
C468 C469 1.392 . S
C469 H441 0.929 . S
C469 C466 1.391 . S
C469 C468 1.392 . S
N470 Co414 2.257 . S
N470 C467 1.391 . S
N470 C471 1.388 . S
C471 H442 0.930 . S
C471 C466 1.391 . S
C471 N470 1.388 . S
Co472 O474 2.143 . S
Co472 O480 2.074 . S
Co472 O483 2.093 . S
Co472 O496 2.097 . S
Co472 N513 2.151 . S
Co472 N521 2.214 . S
Co473 O474 2.160 . S
Co473 O479 2.058 . S
Co473 O489 2.057 . S
Co473 O504 2.037 . S
Co473 N508 2.145 . S
Co473 N529 2.257 . S
O474 Co472 2.143 . S
O474 Co473 2.160 . S
C475 O476 1.278 . S
C475 O483 1.224 . S
O476 C475 1.278 . S
C477 O478 1.245 . S
C477 O489 1.232 . S
O478 C477 1.245 . S
O479 Co473 2.058 . S
O479 C505 1.269 . S
O480 Co472 2.074 . S
O480 C505 1.257 . S
H481 C506 0.930 . S
H482 C512 0.930 . S
O483 Co472 2.093 . S
O483 C475 1.224 . S
H484 C516 0.929 . S
H485 C518 0.930 . S
H486 C519 0.930 . S
H487 C517 0.929 . S
H488 C520 0.928 . S
O489 Co473 2.057 . S
O489 C477 1.232 . S
H490 C509 0.929 . S
H491 C510 0.929 . S
H492 C522 0.931 . S
H493 C514 0.929 . S
H494 C523 0.930 . S
H495 C515 0.931 . S
O496 Co472 2.097 . S
O496 C524 1.214 . S
H497 C525 0.929 . S
H498 C526 0.929 . S
H499 C527 0.930 . S
H500 C528 0.929 . S
H501 C530 0.930 . S
H502 C507 0.930 . S
H503 C511 0.930 . S
O504 Co473 2.037 . S
O504 C524 1.234 . S
C505 O479 1.269 . S
C505 O480 1.257 . S
C506 H481 0.930 . S
C506 C509 1.388 . S
C506 C511 1.418 . S
C507 H502 0.930 . S
C507 C510 1.404 . S
C507 C511 1.353 . S
N508 Co473 2.145 . S
N508 C509 1.397 . S
N508 C510 1.334 . S
C509 H490 0.929 . S
C509 C506 1.388 . S
C509 N508 1.397 . S
C510 H491 0.929 . S
C510 C507 1.404 . S
C510 N508 1.334 . S
C511 H503 0.930 . S
C511 C506 1.418 . S
C511 C507 1.353 . S
C512 H482 0.930 . S
C512 N513 1.330 . S
C512 C514 1.446 . S
N513 Co472 2.151 . S
N513 C512 1.330 . S
N513 C517 1.418 . S
C514 H493 0.929 . S
C514 C512 1.446 . S
C514 C515 1.332 . S
C515 H495 0.931 . S
C515 C514 1.332 . S
C515 C516 1.267 . S
C516 H484 0.929 . S
C516 C515 1.267 . S
C516 C517 1.251 . S
C517 H487 0.929 . S
C517 N513 1.418 . S
C517 C516 1.251 . S
C518 H485 0.930 . S
C518 C520 1.406 1_554 S
C518 C523 1.261 . S
C519 H486 0.930 . S
C519 N521 1.325 . S
C519 C522 1.357 . S
C520 H488 0.928 . S
C520 C518 1.406 1_556 S
C520 N521 1.261 . S
N521 Co472 2.214 . S
N521 C519 1.325 . S
N521 C520 1.261 . S
C522 H492 0.931 . S
C522 C519 1.357 . S
C522 C523 1.312 1_556 S
C523 H494 0.930 . S
C523 C518 1.261 . S
C523 C522 1.312 1_554 S
C524 O496 1.214 . S
C524 O504 1.234 . S
C525 H497 0.929 . S
C525 C528 1.391 . S
C525 C530 1.391 . S
C526 H498 0.929 . S
C526 C527 1.390 . S
C526 N529 1.391 . S
C527 H499 0.930 . S
C527 C526 1.390 . S
C527 C528 1.392 . S
C528 H500 0.929 . S
C528 C525 1.391 . S
C528 C527 1.392 . S
N529 Co473 2.257 . S
N529 C526 1.391 . S
N529 C530 1.388 . S
C530 H501 0.930 . S
C530 C525 1.391 . S
C530 N529 1.388 . S
Co531 O533 2.143 . S
Co531 O539 2.074 . S
Co531 O542 2.093 . S
Co531 O555 2.097 . S
Co531 N572 2.151 . S
Co531 N580 2.214 . S
Co532 O533 2.160 . S
Co532 O538 2.058 . S
Co532 O548 2.057 . S
Co532 O563 2.037 . S
Co532 N567 2.145 . S
Co532 N588 2.257 . S
O533 Co531 2.143 . S
O533 Co532 2.160 . S
C534 O535 1.278 . S
C534 O542 1.224 . S
O535 C534 1.278 . S
C536 O537 1.245 . S
C536 O548 1.232 . S
O537 C536 1.245 . S
O538 Co532 2.058 . S
O538 C564 1.269 . S
O539 Co531 2.074 . S
O539 C564 1.257 . S
H540 C565 0.930 . S
H541 C571 0.930 . S
O542 Co531 2.093 . S
O542 C534 1.224 . S
H543 C575 0.929 1_556 S
H544 C577 0.930 . S
H545 C578 0.930 . S
H546 C576 0.929 . S
H547 C579 0.928 1_554 S
O548 Co532 2.057 . S
O548 C536 1.232 . S
H549 C568 0.929 . S
H550 C569 0.929 . S
H551 C581 0.931 . S
H552 C573 0.929 . S
H553 C582 0.930 . S
H554 C574 0.926 1_556 S
O555 Co531 2.097 . S
O555 C583 1.214 . S
H556 C584 0.929 . S
H557 C585 0.929 . S
H558 C586 0.930 . S
H559 C587 0.929 . S
H560 C589 0.930 . S
H561 C566 0.930 . S
H562 C570 0.930 . S
O563 Co532 2.037 . S
O563 C583 1.234 . S
C564 O538 1.269 . S
C564 O539 1.257 . S
C565 H540 0.930 . S
C565 C568 1.388 . S
C565 C570 1.418 . S
C566 H561 0.930 . S
C566 C569 1.404 . S
C566 C570 1.353 . S
N567 Co532 2.145 . S
N567 C568 1.397 . S
N567 C569 1.334 . S
C568 H549 0.929 . S
C568 C565 1.388 . S
C568 N567 1.397 . S
C569 H550 0.929 . S
C569 C566 1.404 . S
C569 N567 1.334 . S
C570 H562 0.930 . S
C570 C565 1.418 . S
C570 C566 1.353 . S
C571 H541 0.930 . S
C571 N572 1.330 . S
C571 C573 1.446 . S
N572 Co531 2.151 . S
N572 C571 1.330 . S
N572 C576 1.418 . S
C573 H552 0.929 . S
C573 C571 1.446 . S
C573 C574 1.332 . S
C574 H554 0.926 1_554 S
C574 C573 1.332 . S
C574 C575 1.267 . S
C575 H543 0.929 1_554 S
C575 C574 1.267 . S
C575 C576 1.251 . S
C576 H546 0.929 . S
C576 N572 1.418 . S
C576 C575 1.251 . S
C577 H544 0.930 . S
C577 C579 1.406 . S
C577 C582 1.261 . S
C578 H545 0.930 . S
C578 N580 1.325 . S
C578 C581 1.357 1_554 S
C579 H547 0.928 1_556 S
C579 C577 1.406 . S
C579 N580 1.261 1_556 S
N580 Co531 2.214 . S
N580 C578 1.325 . S
N580 C579 1.261 1_554 S
C581 H551 0.931 . S
C581 C578 1.357 1_556 S
C581 C582 1.312 . S
C582 H553 0.930 . S
C582 C577 1.261 . S
C582 C581 1.312 . S
C583 O555 1.214 . S
C583 O563 1.234 . S
C584 H556 0.929 . S
C584 C587 1.391 . S
C584 C589 1.391 . S
C585 H557 0.929 . S
C585 C586 1.390 . S
C585 N588 1.391 . S
C586 H558 0.930 . S
C586 C585 1.390 . S
C586 C587 1.392 . S
C587 H559 0.929 . S
C587 C584 1.391 . S
C587 C586 1.392 . S
N588 Co532 2.257 . S
N588 C585 1.391 . S
N588 C589 1.388 . S
C589 H560 0.930 . S
C589 C584 1.391 . S
C589 N588 1.388 . S
Co590 O592 2.143 . S
Co590 O598 2.074 . S
Co590 O601 2.093 . S
Co590 O614 2.097 . S
Co590 N631 2.151 . S
Co590 N639 2.214 . S
Co591 O592 2.160 . S
Co591 O597 2.058 . S
Co591 O607 2.057 . S
Co591 O622 2.037 . S
Co591 N626 2.145 . S
Co591 N647 2.257 . S
O592 Co590 2.143 . S
O592 Co591 2.160 . S
C593 O594 1.278 . S
C593 O601 1.224 . S
O594 C593 1.278 . S
C595 O596 1.245 . S
C595 O607 1.232 . S
O596 C595 1.245 . S
O597 Co591 2.058 . S
O597 C623 1.269 . S
O598 Co590 2.074 . S
O598 C623 1.257 . S
H599 C624 0.930 . S
H600 C630 0.930 . S
O601 Co590 2.093 . S
O601 C593 1.224 . S
H602 C634 0.929 . S
H603 C636 0.930 . S
H604 C637 0.930 . S
H605 C635 0.929 . S
H606 C638 0.928 . S
O607 Co591 2.057 . S
O607 C595 1.232 . S
H608 C627 0.929 . S
H609 C628 0.929 . S
H610 C640 0.931 . S
H611 C632 0.929 . S
H612 C641 0.930 . S
H613 C633 0.931 . S
O614 Co590 2.097 . S
O614 C642 1.214 . S
H615 C643 0.929 . S
H616 C644 0.929 . S
H617 C645 0.930 . S
H618 C646 0.929 . S
H619 C648 0.930 . S
H620 C625 0.930 . S
H621 C629 0.930 . S
O622 Co591 2.037 . S
O622 C642 1.234 . S
C623 O597 1.269 . S
C623 O598 1.257 . S
C624 H599 0.930 . S
C624 C627 1.388 . S
C624 C629 1.418 . S
C625 H620 0.930 . S
C625 C628 1.404 . S
C625 C629 1.353 . S
N626 Co591 2.145 . S
N626 C627 1.397 . S
N626 C628 1.334 . S
C627 H608 0.929 . S
C627 C624 1.388 . S
C627 N626 1.397 . S
C628 H609 0.929 . S
C628 C625 1.404 . S
C628 N626 1.334 . S
C629 H621 0.930 . S
C629 C624 1.418 . S
C629 C625 1.353 . S
C630 H600 0.930 . S
C630 N631 1.330 . S
C630 C632 1.446 . S
N631 Co590 2.151 . S
N631 C630 1.330 . S
N631 C635 1.418 . S
C632 H611 0.929 . S
C632 C630 1.446 . S
C632 C633 1.332 . S
C633 H613 0.931 . S
C633 C632 1.332 . S
C633 C634 1.267 . S
C634 H602 0.929 . S
C634 C633 1.267 . S
C634 C635 1.251 . S
C635 H605 0.929 . S
C635 N631 1.418 . S
C635 C634 1.251 . S
C636 H603 0.930 . S
C636 C638 1.406 1_554 S
C636 C641 1.261 . S
C637 H604 0.930 . S
C637 N639 1.325 . S
C637 C640 1.357 . S
C638 H606 0.928 . S
C638 C636 1.406 1_556 S
C638 N639 1.261 . S
N639 Co590 2.214 . S
N639 C637 1.325 . S
N639 C638 1.261 . S
C640 H610 0.931 . S
C640 C637 1.357 . S
C640 C641 1.312 1_556 S
C641 H612 0.930 . S
C641 C636 1.261 . S
C641 C640 1.312 1_554 S
C642 O614 1.214 . S
C642 O622 1.234 . S
C643 H615 0.929 . S
C643 C646 1.391 . S
C643 C648 1.391 . S
C644 H616 0.929 . S
C644 C645 1.390 . S
C644 N647 1.391 . S
C645 H617 0.930 . S
C645 C644 1.390 . S
C645 C646 1.392 . S
C646 H618 0.929 . S
C646 C643 1.391 . S
C646 C645 1.392 . S
N647 Co591 2.257 . S
N647 C644 1.391 . S
N647 C648 1.388 . S
C648 H619 0.930 . S
C648 C643 1.391 . S
C648 N647 1.388 . S
Co649 O651 2.143 . S
Co649 O657 2.074 . S
Co649 O660 2.093 . S
Co649 O673 2.097 . S
Co649 N690 2.151 . S
Co649 N698 2.214 . S
Co650 O651 2.160 . S
Co650 O656 2.058 . S
Co650 O666 2.057 . S
Co650 O681 2.037 . S
Co650 N685 2.145 . S
Co650 N706 2.257 . S
O651 Co649 2.143 . S
O651 Co650 2.160 . S
C652 O653 1.278 . S
C652 O660 1.224 . S
O653 C652 1.278 . S
C654 O655 1.245 . S
C654 O666 1.232 . S
O655 C654 1.245 . S
O656 Co650 2.058 . S
O656 C682 1.269 . S
O657 Co649 2.074 . S
O657 C682 1.257 . S
H658 C683 0.930 . S
H659 C689 0.930 . S
O660 Co649 2.093 . S
O660 C652 1.224 . S
H661 C693 0.929 1_556 S
H662 C695 0.930 . S
H663 C696 0.930 . S
H664 C694 0.929 . S
H665 C697 0.928 1_554 S
O666 Co650 2.057 . S
O666 C654 1.232 . S
H667 C686 0.929 . S
H668 C687 0.929 . S
H669 C699 0.931 . S
H670 C691 0.929 . S
H671 C700 0.930 . S
H672 C692 0.926 1_556 S
O673 Co649 2.097 . S
O673 C701 1.214 . S
H674 C702 0.929 . S
H675 C703 0.929 . S
H676 C704 0.930 . S
H677 C705 0.929 . S
H678 C707 0.930 . S
H679 C684 0.930 . S
H680 C688 0.930 . S
O681 Co650 2.037 . S
O681 C701 1.234 . S
C682 O656 1.269 . S
C682 O657 1.257 . S
C683 H658 0.930 . S
C683 C686 1.388 . S
C683 C688 1.418 . S
C684 H679 0.930 . S
C684 C687 1.404 . S
C684 C688 1.353 . S
N685 Co650 2.145 . S
N685 C686 1.397 . S
N685 C687 1.334 . S
C686 H667 0.929 . S
C686 C683 1.388 . S
C686 N685 1.397 . S
C687 H668 0.929 . S
C687 C684 1.404 . S
C687 N685 1.334 . S
C688 H680 0.930 . S
C688 C683 1.418 . S
C688 C684 1.353 . S
C689 H659 0.930 . S
C689 N690 1.330 . S
C689 C691 1.446 . S
N690 Co649 2.151 . S
N690 C689 1.330 . S
N690 C694 1.418 . S
C691 H670 0.929 . S
C691 C689 1.446 . S
C691 C692 1.332 . S
C692 H672 0.926 1_554 S
C692 C691 1.332 . S
C692 C693 1.267 . S
C693 H661 0.929 1_554 S
C693 C692 1.267 . S
C693 C694 1.251 . S
C694 H664 0.929 . S
C694 N690 1.418 . S
C694 C693 1.251 . S
C695 H662 0.930 . S
C695 C697 1.406 . S
C695 C700 1.261 . S
C696 H663 0.930 . S
C696 N698 1.325 . S
C696 C699 1.357 1_554 S
C697 H665 0.928 1_556 S
C697 C695 1.406 . S
C697 N698 1.261 1_556 S
N698 Co649 2.214 . S
N698 C696 1.325 . S
N698 C697 1.261 1_554 S
C699 H669 0.931 . S
C699 C696 1.357 1_556 S
C699 C700 1.312 . S
C700 H671 0.930 . S
C700 C695 1.261 . S
C700 C699 1.312 . S
C701 O673 1.214 . S
C701 O681 1.234 . S
C702 H674 0.929 . S
C702 C705 1.391 . S
C702 C707 1.391 . S
C703 H675 0.929 . S
C703 C704 1.390 . S
C703 N706 1.391 . S
C704 H676 0.930 . S
C704 C703 1.390 . S
C704 C705 1.392 . S
C705 H677 0.929 . S
C705 C702 1.391 . S
C705 C704 1.392 . S
N706 Co650 2.257 . S
N706 C703 1.391 . S
N706 C707 1.388 . S
C707 H678 0.930 . S
C707 C702 1.391 . S
C707 N706 1.388 . S
Co708 O710 2.143 . S
Co708 O716 2.074 . S
Co708 O719 2.093 . S
Co708 O732 2.097 . S
Co708 N749 2.151 . S
Co708 N757 2.214 . S
Co709 O710 2.160 . S
Co709 O715 2.058 . S
Co709 O725 2.057 . S
Co709 O740 2.037 . S
Co709 N744 2.145 . S
Co709 N765 2.257 . S
O710 Co708 2.143 . S
O710 Co709 2.160 . S
C711 O712 1.278 . S
C711 O719 1.224 . S
O712 C711 1.278 . S
C713 O714 1.245 . S
C713 O725 1.232 . S
O714 C713 1.245 . S
O715 Co709 2.058 . S
O715 C741 1.269 . S
O716 Co708 2.074 . S
O716 C741 1.257 . S
H717 C742 0.930 . S
H718 C748 0.930 . S
O719 Co708 2.093 . S
O719 C711 1.224 . S
H720 C752 0.929 . S
H721 C754 0.930 . S
H722 C755 0.930 . S
H723 C753 0.929 . S
H724 C756 0.928 . S
O725 Co709 2.057 . S
O725 C713 1.232 . S
H726 C745 0.929 . S
H727 C746 0.929 . S
H728 C758 0.931 . S
H729 C750 0.929 . S
H730 C759 0.930 . S
H731 C751 0.931 . S
O732 Co708 2.097 . S
O732 C760 1.214 . S
H733 C761 0.929 . S
H734 C762 0.929 . S
H735 C763 0.930 . S
H736 C764 0.929 . S
H737 C766 0.930 . S
H738 C743 0.930 . S
H739 C747 0.930 . S
O740 Co709 2.037 . S
O740 C760 1.234 . S
C741 O715 1.269 . S
C741 O716 1.257 . S
C742 H717 0.930 . S
C742 C745 1.388 1_554 S
C742 C747 1.418 . S
C743 H738 0.930 . S
C743 C746 1.404 . S
C743 C747 1.353 . S
N744 Co709 2.145 . S
N744 C745 1.397 . S
N744 C746 1.334 1_556 S
C745 H726 0.929 . S
C745 C742 1.388 1_556 S
C745 N744 1.397 . S
C746 H727 0.929 . S
C746 C743 1.404 . S
C746 N744 1.334 1_554 S
C747 H739 0.930 . S
C747 C742 1.418 . S
C747 C743 1.353 . S
C748 H718 0.930 . S
C748 N749 1.330 . S
C748 C750 1.446 . S
N749 Co708 2.151 . S
N749 C748 1.330 . S
N749 C753 1.418 . S
C750 H729 0.929 . S
C750 C748 1.446 . S
C750 C751 1.332 . S
C751 H731 0.931 . S
C751 C750 1.332 . S
C751 C752 1.267 . S
C752 H720 0.929 . S
C752 C751 1.267 . S
C752 C753 1.251 . S
C753 H723 0.929 . S
C753 N749 1.418 . S
C753 C752 1.251 . S
C754 H721 0.930 . S
C754 C756 1.406 . S
C754 C759 1.261 . S
C755 H722 0.930 . S
C755 N757 1.325 . S
C755 C758 1.357 . S
C756 H724 0.928 . S
C756 C754 1.406 . S
C756 N757 1.261 . S
N757 Co708 2.214 . S
N757 C755 1.325 . S
N757 C756 1.261 . S
C758 H728 0.931 . S
C758 C755 1.357 . S
C758 C759 1.312 . S
C759 H730 0.930 . S
C759 C754 1.261 . S
C759 C758 1.312 . S
C760 O732 1.214 . S
C760 O740 1.234 . S
C761 H733 0.929 . S
C761 C764 1.391 1_556 S
C761 C766 1.391 . S
C762 H734 0.929 . S
C762 C763 1.390 1_556 S
C762 N765 1.391 . S
C763 H735 0.930 . S
C763 C762 1.390 1_554 S
C763 C764 1.392 . S
C764 H736 0.929 . S
C764 C761 1.391 1_554 S
C764 C763 1.392 . S
N765 Co709 2.257 . S
N765 C762 1.391 . S
N765 C766 1.388 . S
C766 H737 0.930 . S
C766 C761 1.391 . S
C766 N765 1.388 . S
Co767 O769 2.143 . S
Co767 O775 2.074 . S
Co767 O778 2.093 . S
Co767 O791 2.097 . S
Co767 N808 2.151 . S
Co767 N816 2.214 . S
Co768 O769 2.160 . S
Co768 O774 2.058 . S
Co768 O784 2.057 . S
Co768 O799 2.037 . S
Co768 N803 2.145 . S
Co768 N824 2.257 . S
O769 Co767 2.143 . S
O769 Co768 2.160 . S
C770 O771 1.278 . S
C770 O778 1.224 . S
O771 C770 1.278 . S
C772 O773 1.245 . S
C772 O784 1.232 . S
O773 C772 1.245 . S
O774 Co768 2.058 . S
O774 C800 1.269 . S
O775 Co767 2.074 . S
O775 C800 1.257 . S
H776 C801 0.931 1_455 S
H777 C807 0.930 . S
O778 Co767 2.093 . S
O778 C770 1.224 . S
H779 C811 0.929 . S
H780 C813 0.930 . S
H781 C814 0.930 . S
H782 C812 0.929 . S
H783 C815 0.928 . S
O784 Co768 2.057 . S
O784 C772 1.232 . S
H785 C804 0.929 . S
H786 C805 0.929 . S
H787 C817 0.931 . S
H788 C809 0.929 . S
H789 C818 0.930 . S
H790 C810 0.931 . S
O791 Co767 2.097 . S
O791 C819 1.214 . S
H792 C820 0.929 . S
H793 C821 0.929 . S
H794 C822 0.930 . S
H795 C823 0.929 1_556 S
H796 C825 0.930 . S
H797 C802 0.930 1_556 S
H798 C806 0.930 1_456 S
O799 Co768 2.037 . S
O799 C819 1.234 . S
C800 O774 1.269 . S
C800 O775 1.257 . S
C801 H776 0.931 1_655 S
C801 C804 1.388 . S
C801 C806 1.418 . S
C802 H797 0.930 1_554 S
C802 C805 1.404 . S
C802 C806 1.353 . S
N803 Co768 2.145 . S
N803 C804 1.397 . S
N803 C805 1.334 . S
C804 H785 0.929 . S
C804 C801 1.388 . S
C804 N803 1.397 . S
C805 H786 0.929 . S
C805 C802 1.404 . S
C805 N803 1.334 . S
C806 H798 0.930 1_654 S
C806 C801 1.418 . S
C806 C802 1.353 . S
C807 H777 0.930 . S
C807 N808 1.330 . S
C807 C809 1.446 . S
N808 Co767 2.151 . S
N808 C807 1.330 . S
N808 C812 1.418 . S
C809 H788 0.929 . S
C809 C807 1.446 . S
C809 C810 1.332 . S
C810 H790 0.931 . S
C810 C809 1.332 . S
C810 C811 1.267 . S
C811 H779 0.929 . S
C811 C810 1.267 . S
C811 C812 1.251 . S
C812 H782 0.929 . S
C812 N808 1.418 . S
C812 C811 1.251 . S
C813 H780 0.930 . S
C813 C815 1.406 . S
C813 C818 1.261 . S
C814 H781 0.930 . S
C814 N816 1.325 . S
C814 C817 1.357 . S
C815 H783 0.928 . S
C815 C813 1.406 . S
C815 N816 1.261 . S
N816 Co767 2.214 . S
N816 C814 1.325 . S
N816 C815 1.261 . S
C817 H787 0.931 . S
C817 C814 1.357 . S
C817 C818 1.312 . S
C818 H789 0.930 . S
C818 C813 1.261 . S
C818 C817 1.312 . S
C819 O791 1.214 . S
C819 O799 1.234 . S
C820 H792 0.929 . S
C820 C823 1.391 . S
C820 C825 1.391 . S
C821 H793 0.929 . S
C821 C822 1.390 . S
C821 N824 1.391 . S
C822 H794 0.930 . S
C822 C821 1.390 . S
C822 C823 1.392 . S
C823 H795 0.929 1_554 S
C823 C820 1.391 . S
C823 C822 1.392 . S
N824 Co768 2.257 . S
N824 C821 1.391 . S
N824 C825 1.388 . S
C825 H796 0.930 . S
C825 C820 1.391 . S
C825 N824 1.388 . S
Co826 O828 2.143 . S
Co826 O834 2.074 . S
Co826 O837 2.093 . S
Co826 O850 2.097 . S
Co826 N867 2.151 . S
Co826 N875 2.214 . S
Co827 O828 2.160 . S
Co827 O833 2.058 . S
Co827 O843 2.057 . S
Co827 O858 2.037 . S
Co827 N862 2.145 . S
Co827 N883 2.257 . S
O828 Co826 2.143 . S
O828 Co827 2.160 . S
C829 O830 1.278 . S
C829 O837 1.224 . S
O830 C829 1.278 . S
C831 O832 1.245 . S
C831 O843 1.232 . S
O832 C831 1.245 . S
O833 Co827 2.058 . S
O833 C859 1.269 . S
O834 Co826 2.074 . S
O834 C859 1.257 . S
H835 C860 0.930 . S
H836 C866 0.930 . S
O837 Co826 2.093 . S
O837 C829 1.224 . S
H838 C870 0.929 . S
H839 C872 0.930 . S
H840 C873 0.930 . S
H841 C871 0.929 . S
H842 C874 0.928 . S
O843 Co827 2.057 . S
O843 C831 1.232 . S
H844 C863 0.929 . S
H845 C864 0.929 . S
H846 C876 0.931 . S
H847 C868 0.929 . S
H848 C877 0.930 . S
H849 C869 0.931 . S
O850 Co826 2.097 . S
O850 C878 1.214 . S
H851 C879 0.929 . S
H852 C880 0.929 . S
H853 C881 0.930 . S
H854 C882 0.929 . S
H855 C884 0.930 . S
H856 C861 0.930 . S
H857 C865 0.930 . S
O858 Co827 2.037 . S
O858 C878 1.234 . S
C859 O833 1.269 . S
C859 O834 1.257 . S
C860 H835 0.930 . S
C860 C863 1.388 1_554 S
C860 C865 1.418 . S
C861 H856 0.930 . S
C861 C864 1.404 . S
C861 C865 1.353 . S
N862 Co827 2.145 . S
N862 C863 1.397 . S
N862 C864 1.334 1_556 S
C863 H844 0.929 . S
C863 C860 1.388 1_556 S
C863 N862 1.397 . S
C864 H845 0.929 . S
C864 C861 1.404 . S
C864 N862 1.334 1_554 S
C865 H857 0.930 . S
C865 C860 1.418 . S
C865 C861 1.353 . S
C866 H836 0.930 . S
C866 N867 1.330 . S
C866 C868 1.446 . S
N867 Co826 2.151 . S
N867 C866 1.330 . S
N867 C871 1.418 . S
C868 H847 0.929 . S
C868 C866 1.446 . S
C868 C869 1.332 . S
C869 H849 0.931 . S
C869 C868 1.332 . S
C869 C870 1.267 . S
C870 H838 0.929 . S
C870 C869 1.267 . S
C870 C871 1.251 . S
C871 H841 0.929 . S
C871 N867 1.418 . S
C871 C870 1.251 . S
C872 H839 0.930 . S
C872 C874 1.406 . S
C872 C877 1.261 . S
C873 H840 0.930 . S
C873 N875 1.325 . S
C873 C876 1.357 . S
C874 H842 0.928 . S
C874 C872 1.406 . S
C874 N875 1.261 . S
N875 Co826 2.214 . S
N875 C873 1.325 . S
N875 C874 1.261 . S
C876 H846 0.931 . S
C876 C873 1.357 . S
C876 C877 1.312 . S
C877 H848 0.930 . S
C877 C872 1.261 . S
C877 C876 1.312 . S
C878 O850 1.214 . S
C878 O858 1.234 . S
C879 H851 0.929 . S
C879 C882 1.391 1_556 S
C879 C884 1.391 . S
C880 H852 0.929 . S
C880 C881 1.390 1_556 S
C880 N883 1.391 . S
C881 H853 0.930 . S
C881 C880 1.390 1_554 S
C881 C882 1.392 . S
C882 H854 0.929 . S
C882 C879 1.391 1_554 S
C882 C881 1.392 . S
N883 Co827 2.257 . S
N883 C880 1.391 . S
N883 C884 1.388 . S
C884 H855 0.930 . S
C884 C879 1.391 . S
C884 N883 1.388 . S
Co885 O887 2.143 . S
Co885 O893 2.074 . S
Co885 O896 2.093 . S
Co885 O909 2.097 . S
Co885 N926 2.151 . S
Co885 N934 2.214 . S
Co886 O887 2.160 . S
Co886 O892 2.058 . S
Co886 O902 2.057 . S
Co886 O917 2.037 . S
Co886 N921 2.145 . S
Co886 N942 2.257 . S
O887 Co885 2.143 . S
O887 Co886 2.160 . S
C888 O889 1.278 . S
C888 O896 1.224 . S
O889 C888 1.278 . S
C890 O891 1.245 . S
C890 O902 1.232 . S
O891 C890 1.245 . S
O892 Co886 2.058 . S
O892 C918 1.269 . S
O893 Co885 2.074 . S
O893 C918 1.257 . S
H894 C919 0.931 1_655 S
H895 C925 0.930 . S
O896 Co885 2.093 . S
O896 C888 1.224 . S
H897 C929 0.929 . S
H898 C931 0.930 . S
H899 C932 0.930 . S
H900 C930 0.929 . S
H901 C933 0.928 . S
O902 Co886 2.057 . S
O902 C890 1.232 . S
H903 C922 0.929 . S
H904 C923 0.929 . S
H905 C935 0.931 . S
H906 C927 0.929 . S
H907 C936 0.930 . S
H908 C928 0.931 . S
O909 Co885 2.097 . S
O909 C937 1.214 . S
H910 C938 0.929 . S
H911 C939 0.929 . S
H912 C940 0.930 . S
H913 C941 0.929 1_556 S
H914 C943 0.930 . S
H915 C920 0.930 1_556 S
H916 C924 0.930 1_656 S
O917 Co886 2.037 . S
O917 C937 1.234 . S
C918 O892 1.269 . S
C918 O893 1.257 . S
C919 H894 0.931 1_455 S
C919 C922 1.388 . S
C919 C924 1.418 . S
C920 H915 0.930 1_554 S
C920 C923 1.404 . S
C920 C924 1.353 . S
N921 Co886 2.145 . S
N921 C922 1.397 . S
N921 C923 1.334 . S
C922 H903 0.929 . S
C922 C919 1.388 . S
C922 N921 1.397 . S
C923 H904 0.929 . S
C923 C920 1.404 . S
C923 N921 1.334 . S
C924 H916 0.930 1_454 S
C924 C919 1.418 . S
C924 C920 1.353 . S
C925 H895 0.930 . S
C925 N926 1.330 . S
C925 C927 1.446 . S
N926 Co885 2.151 . S
N926 C925 1.330 . S
N926 C930 1.418 . S
C927 H906 0.929 . S
C927 C925 1.446 . S
C927 C928 1.332 . S
C928 H908 0.931 . S
C928 C927 1.332 . S
C928 C929 1.267 . S
C929 H897 0.929 . S
C929 C928 1.267 . S
C929 C930 1.251 . S
C930 H900 0.929 . S
C930 N926 1.418 . S
C930 C929 1.251 . S
C931 H898 0.930 . S
C931 C933 1.406 . S
C931 C936 1.261 . S
C932 H899 0.930 . S
C932 N934 1.325 . S
C932 C935 1.357 . S
C933 H901 0.928 . S
C933 C931 1.406 . S
C933 N934 1.261 . S
N934 Co885 2.214 . S
N934 C932 1.325 . S
N934 C933 1.261 . S
C935 H905 0.931 . S
C935 C932 1.357 . S
C935 C936 1.312 . S
C936 H907 0.930 . S
C936 C931 1.261 . S
C936 C935 1.312 . S
C937 O909 1.214 . S
C937 O917 1.234 . S
C938 H910 0.929 . S
C938 C941 1.391 . S
C938 C943 1.391 . S
C939 H911 0.929 . S
C939 C940 1.390 . S
C939 N942 1.391 . S
C940 H912 0.930 . S
C940 C939 1.390 . S
C940 C941 1.392 . S
C941 H913 0.929 1_554 S
C941 C938 1.391 . S
C941 C940 1.392 . S
N942 Co886 2.257 . S
N942 C939 1.391 . S
N942 C943 1.388 . S
C943 H914 0.930 . S
C943 C938 1.391 . S
C943 N942 1.388 . S
C944 C945 1.369 . S
C944 C946 1.419 . S
C944 H948 0.930 . S
C945 C944 1.369 . S
C945 C954 1.429 . S
C946 C944 1.419 . S
C946 C947 1.363 1_565 S
C946 H949 0.929 . S
C947 C946 1.363 1_545 S
C947 C953 1.428 . S
H948 C944 0.930 . S
H949 C946 0.929 . S
S950 N951 1.613 1_545 S
S950 N952 1.610 . S
N951 S950 1.613 1_565 S
N951 C954 1.350 . S
N952 S950 1.610 . S
N952 C953 1.351 . S
C953 C947 1.428 . S
C953 N952 1.351 . S
C953 C954 1.434 1_545 S
C954 C945 1.429 . S
C954 N951 1.350 . S
C954 C953 1.434 1_565 S
C955 C956 1.369 . S
C955 C957 1.419 1_455 S
C955 H959 0.930 . S
C956 C955 1.369 . S
C956 C965 1.429 . S
C957 C955 1.419 1_655 S
C957 C958 1.363 . S
C957 H960 0.929 . S
C958 C957 1.363 . S
C958 C964 1.428 1_655 S
H959 C955 0.930 . S
H960 C957 0.929 . S
S961 N962 1.613 . S
S961 N963 1.610 . S
N962 S961 1.613 . S
N962 C965 1.350 . S
N963 S961 1.610 . S
N963 C964 1.351 . S
C964 C958 1.428 1_455 S
C964 N963 1.351 . S
C964 C965 1.434 . S
C965 C956 1.429 . S
C965 N962 1.350 . S
C965 C964 1.434 . S
C966 C967 1.369 . S
C966 C968 1.419 1_565 S
C966 H970 0.930 . S
C967 C966 1.369 . S
C967 C976 1.429 1_565 S
C968 C966 1.419 1_545 S
C968 C969 1.363 . S
C968 H971 0.929 . S
C969 C968 1.363 . S
C969 C975 1.428 . S
H970 C966 0.930 . S
H971 C968 0.929 . S
S972 N973 1.589 1_545 S
S972 N974 1.610 . S
N973 S972 1.589 1_565 S
N973 C976 1.347 1_565 S
N974 S972 1.610 . S
N974 C975 1.351 . S
C975 C969 1.428 . S
C975 N974 1.351 . S
C975 C976 1.434 . S
C976 C967 1.429 1_545 S
C976 N973 1.347 1_545 S
C976 C975 1.434 . S
C977 C978 1.369 . S
C977 C979 1.419 1_455 S
C977 H981 0.930 . S
C978 C977 1.369 . S
C978 C987 1.429 1_455 S
C979 C977 1.419 1_655 S
C979 C980 1.363 . S
C979 H982 0.929 . S
C980 C979 1.363 . S
C980 C986 1.428 . S
H981 C977 0.930 . S
H982 C979 0.929 . S
S983 N984 1.613 . S
S983 N985 1.610 . S
N984 S983 1.613 . S
N984 C987 1.350 . S
N985 S983 1.610 . S
N985 C986 1.351 . S
C986 C980 1.428 . S
C986 N985 1.351 . S
C986 C987 1.434 . S
C987 C978 1.429 1_655 S
C987 N984 1.350 . S
C987 C986 1.434 . S
C988 C989 1.369 1_556 S
C988 C990 1.419 . S
C988 H992 0.930 . S
C989 C988 1.369 1_554 S
C989 C998 1.429 . S
C990 C988 1.419 . S
C990 C991 1.363 . S
C990 H993 0.929 . S
C991 C990 1.363 . S
C991 C997 1.428 1_556 S
H992 C988 0.930 . S
H993 C990 0.929 . S
S994 N995 1.613 . S
S994 N996 1.610 . S
N995 S994 1.613 . S
N995 C998 1.350 . S
N996 S994 1.610 . S
N996 C997 1.351 . S
C997 C991 1.428 1_554 S
C997 N996 1.351 . S
C997 C998 1.434 . S
C998 C989 1.429 . S
C998 N995 1.350 . S
C998 C997 1.434 . S
C999 C1000 1.369 1_556 S
C999 C1001 1.419 1_556 S
C999 H1003 0.930 . S
C1000 C999 1.369 1_554 S
C1000 C1009 1.429 . S
C1001 C999 1.419 1_554 S
C1001 C1002 1.363 . S
C1001 H1004 0.929 . S
C1002 C1001 1.363 . S
C1002 C1008 1.428 . S
H1003 C999 0.930 . S
H1004 C1001 0.929 . S
S1005 N1006 1.613 . S
S1005 N1007 1.610 . S
N1006 S1005 1.613 . S
N1006 C1009 1.350 . S
N1007 S1005 1.610 . S
N1007 C1008 1.351 . S
C1008 C1002 1.428 . S
C1008 N1007 1.351 . S
C1008 C1009 1.434 . S
C1009 C1000 1.429 . S
C1009 N1006 1.350 . S
C1009 C1008 1.434 . S
C1010 C1011 1.369 1_554 S
C1010 C1012 1.419 . S
C1010 H1014 0.930 . S
C1011 C1010 1.369 1_556 S
C1011 C1020 1.429 . S
C1012 C1010 1.419 . S
C1012 C1013 1.363 . S
C1012 H1015 0.929 . S
C1013 C1012 1.363 . S
C1013 C1019 1.428 1_554 S
H1014 C1010 0.930 . S
H1015 C1012 0.929 . S
S1016 N1017 1.613 . S
S1016 N1018 1.610 . S
N1017 S1016 1.613 . S
N1017 C1020 1.350 . S
N1018 S1016 1.610 . S
N1018 C1019 1.351 . S
C1019 C1013 1.428 1_556 S
C1019 N1018 1.351 . S
C1019 C1020 1.434 . S
C1020 C1011 1.429 . S
C1020 N1017 1.350 . S
C1020 C1019 1.434 . S
C1021 C1022 1.369 . S
C1021 C1023 1.419 . S
C1021 H1025 0.930 . S
C1022 C1021 1.369 . S
C1022 C1031 1.429 . S
C1023 C1021 1.419 . S
C1023 C1024 1.363 . S
C1023 H1026 0.929 . S
C1024 C1023 1.363 . S
C1024 C1030 1.428 1_554 S
H1025 C1021 0.930 . S
H1026 C1023 0.929 . S
S1027 N1028 1.613 . S
S1027 N1029 1.610 . S
N1028 S1027 1.613 . S
N1028 C1031 1.350 1_556 S
N1029 S1027 1.610 . S
N1029 C1030 1.351 . S
C1030 C1024 1.428 1_556 S
C1030 N1029 1.351 . S
C1030 C1031 1.434 1_556 S
C1031 C1022 1.429 . S
C1031 N1028 1.350 1_554 S
C1031 C1030 1.434 1_554 S
C1032 C1033 1.369 . S
C1032 C1034 1.419 . S
C1032 H1036 0.930 . S
C1033 C1032 1.369 . S
C1033 C1042 1.429 . S
C1034 C1032 1.419 . S
C1034 C1035 1.363 . S
C1034 H1037 0.929 . S
C1035 C1034 1.363 . S
C1035 C1041 1.428 . S
H1036 C1032 0.930 . S
H1037 C1034 0.929 . S
S1038 N1039 1.613 . S
S1038 N1040 1.610 . S
N1039 S1038 1.613 . S
N1039 C1042 1.350 . S
N1040 S1038 1.610 . S
N1040 C1041 1.351 . S
C1041 C1035 1.428 . S
C1041 N1040 1.351 . S
C1041 C1042 1.434 . S
C1042 C1033 1.429 . S
C1042 N1039 1.350 . S
C1042 C1041 1.434 . S
C1043 C1044 1.369 . S
C1043 C1045 1.419 . S
C1043 H1047 0.930 . S
C1044 C1043 1.369 . S
C1044 C1053 1.429 . S
C1045 C1043 1.419 . S
C1045 C1046 1.363 . S
C1045 H1048 0.929 . S
C1046 C1045 1.363 . S
C1046 C1052 1.428 . S
H1047 C1043 0.930 . S
H1048 C1045 0.929 . S
S1049 N1050 1.613 . S
S1049 N1051 1.610 . S
N1050 S1049 1.613 . S
N1050 C1053 1.350 . S
N1051 S1049 1.610 . S
N1051 C1052 1.351 . S
C1052 C1046 1.428 . S
C1052 N1051 1.351 . S
C1052 C1053 1.434 . S
C1053 C1044 1.429 . S
C1053 N1050 1.350 . S
C1053 C1052 1.434 . S
C1054 C1055 1.369 . S
C1054 C1056 1.419 . S
C1054 H1058 0.930 . S
C1055 C1054 1.369 . S
C1055 C1064 1.429 . S
C1056 C1054 1.419 . S
C1056 C1057 1.363 . S
C1056 H1059 0.929 . S
C1057 C1056 1.363 . S
C1057 C1063 1.428 . S
H1058 C1054 0.930 . S
H1059 C1056 0.929 . S
S1060 N1061 1.613 . S
S1060 N1062 1.610 . S
N1061 S1060 1.613 . S
N1061 C1064 1.350 . S
N1062 S1060 1.610 . S
N1062 C1063 1.351 . S
C1063 C1057 1.428 . S
C1063 N1062 1.351 . S
C1063 C1064 1.434 . S
C1064 C1055 1.429 . S
C1064 N1061 1.350 . S
C1064 C1063 1.434 . S
C1065 C1066 1.369 . S
C1065 C1067 1.419 . S
C1065 H1069 0.930 . S
C1066 C1065 1.369 . S
C1066 C1075 1.429 . S
C1067 C1065 1.419 . S
C1067 C1068 1.363 . S
C1067 H1070 0.929 . S
C1068 C1067 1.363 . S
C1068 C1074 1.428 . S
H1069 C1065 0.930 . S
H1070 C1067 0.929 . S
S1071 N1072 1.613 1_556 S
S1071 N1073 1.610 . S
N1072 S1071 1.613 1_554 S
N1072 C1075 1.350 . S
N1073 S1071 1.610 . S
N1073 C1074 1.351 1_556 S
C1074 C1068 1.428 . S
C1074 N1073 1.351 1_554 S
C1074 C1075 1.434 . S
C1075 C1066 1.429 . S
C1075 N1072 1.350 . S
C1075 C1074 1.434 . S
C1076 C1077 1.369 . S
C1076 C1078 1.419 1_565 S
C1076 H1080 0.930 . S
C1077 C1076 1.369 . S
C1077 C1086 1.429 . S
C1078 C1076 1.419 1_545 S
C1078 C1079 1.363 . S
C1078 H1081 0.929 . S
C1079 C1078 1.363 . S
C1079 C1085 1.428 . S
H1080 C1076 0.930 . S
H1081 C1078 0.929 . S
S1082 N1083 1.613 . S
S1082 N1084 1.610 1_565 S
N1083 S1082 1.613 . S
N1083 C1086 1.350 . S
N1084 S1082 1.610 1_545 S
N1084 C1085 1.351 . S
C1085 C1079 1.428 . S
C1085 N1084 1.351 . S
C1085 C1086 1.434 1_545 S
C1086 C1077 1.429 . S
C1086 N1083 1.350 . S
C1086 C1085 1.434 1_565 S
C1087 C1088 1.369 . S
C1087 C1089 1.419 1_655 S
C1087 H1091 0.930 . S
C1088 C1087 1.369 . S
C1088 C1097 1.429 . S
C1089 C1087 1.419 1_455 S
C1089 C1090 1.363 . S
C1089 H1092 0.929 . S
C1090 C1089 1.363 . S
C1090 C1096 1.428 . S
H1091 C1087 0.930 . S
H1092 C1089 0.929 . S
S1093 N1094 1.613 . S
S1093 N1095 1.610 1_655 S
N1094 S1093 1.613 . S
N1094 C1097 1.350 . S
N1095 S1093 1.610 1_455 S
N1095 C1096 1.351 . S
C1096 C1090 1.428 . S
C1096 N1095 1.351 . S
C1096 C1097 1.434 1_455 S
C1097 C1088 1.429 . S
C1097 N1094 1.350 . S
C1097 C1096 1.434 1_655 S
C1098 C1099 1.369 . S
C1098 C1100 1.419 . S
C1098 H1102 0.930 . S
C1099 C1098 1.369 . S
C1099 C1108 1.429 . S
C1100 C1098 1.419 . S
C1100 C1101 1.363 1_565 S
C1100 H1103 0.929 1_565 S
C1101 C1100 1.363 1_545 S
C1101 C1107 1.428 . S
H1102 C1098 0.930 . S
H1103 C1100 0.929 1_545 S
S1104 N1105 1.613 1_545 S
S1104 N1106 1.610 . S
N1105 S1104 1.613 1_565 S
N1105 C1108 1.350 . S
N1106 S1104 1.610 . S
N1106 C1107 1.351 . S
C1107 C1101 1.428 . S
C1107 N1106 1.351 . S
C1107 C1108 1.434 1_545 S
C1108 C1099 1.429 . S
C1108 N1105 1.350 . S
C1108 C1107 1.434 1_565 S
C1109 C1110 1.369 . S
C1109 C1111 1.419 1_655 S
C1109 H1113 0.930 . S
C1110 C1109 1.369 . S
C1110 C1119 1.429 1_655 S
C1111 C1109 1.419 1_455 S
C1111 C1112 1.363 . S
C1111 H1114 0.929 . S
C1112 C1111 1.363 . S
C1112 C1118 1.428 . S
H1113 C1109 0.930 . S
H1114 C1111 0.929 . S
S1115 N1116 1.613 . S
S1115 N1117 1.610 . S
N1116 S1115 1.613 . S
N1116 C1119 1.350 . S
N1117 S1115 1.610 . S
N1117 C1118 1.351 . S
C1118 C1112 1.428 . S
C1118 N1117 1.351 . S
C1118 C1119 1.434 . S
C1119 C1110 1.429 1_455 S
C1119 N1116 1.350 . S
C1119 C1118 1.434 . S
C1120 C1121 1.369 . S
C1120 C1122 1.419 . S
C1120 H1124 0.930 . S
C1121 C1120 1.369 . S
C1121 C1130 1.429 . S
C1122 C1120 1.419 . S
C1122 C1123 1.363 . S
C1122 H1125 0.929 . S
C1123 C1122 1.363 . S
C1123 C1129 1.428 . S
H1124 C1120 0.930 . S
H1125 C1122 0.929 . S
S1126 N1127 1.613 . S
S1126 N1128 1.610 . S
N1127 S1126 1.613 . S
N1127 C1130 1.350 . S
N1128 S1126 1.610 . S
N1128 C1129 1.351 . S
C1129 C1123 1.428 . S
C1129 N1128 1.351 . S
C1129 C1130 1.434 . S
C1130 C1121 1.429 . S
C1130 N1127 1.350 . S
C1130 C1129 1.434 . S
C1131 C1132 1.369 . S
C1131 C1133 1.419 . S
C1131 H1135 0.930 . S
C1132 C1131 1.369 . S
C1132 C1141 1.429 . S
C1133 C1131 1.419 . S
C1133 C1134 1.363 . S
C1133 H1136 0.929 . S
C1134 C1133 1.363 . S
C1134 C1140 1.428 . S
H1135 C1131 0.930 . S
H1136 C1133 0.929 . S
S1137 N1138 1.613 . S
S1137 N1139 1.610 . S
N1138 S1137 1.613 . S
N1138 C1141 1.350 1_554 S
N1139 S1137 1.610 . S
N1139 C1140 1.351 1_554 S
C1140 C1134 1.428 . S
C1140 N1139 1.351 1_556 S
C1140 C1141 1.434 . S
C1141 C1132 1.429 . S
C1141 N1138 1.350 1_556 S
C1141 C1140 1.434 . S
C1142 C1143 1.369 . S
C1142 C1144 1.419 . S
C1142 H1146 0.930 . S
C1143 C1142 1.369 . S
C1143 C1152 1.429 . S
C1144 C1142 1.419 . S
C1144 C1145 1.363 . S
C1144 H1147 0.929 . S
C1145 C1144 1.363 . S
C1145 C1151 1.428 . S
H1146 C1142 0.930 . S
H1147 C1144 0.929 . S
S1148 N1149 1.613 . S
S1148 N1150 1.610 . S
N1149 S1148 1.613 . S
N1149 C1152 1.350 1_556 S
N1150 S1148 1.610 . S
N1150 C1151 1.351 1_556 S
C1151 C1145 1.428 . S
C1151 N1150 1.351 1_554 S
C1151 C1152 1.434 . S
C1152 C1143 1.429 . S
C1152 N1149 1.350 1_554 S
C1152 C1151 1.434 . S
C1153 C1154 1.369 . S
C1153 C1155 1.419 . S
C1153 H1157 0.930 . S
C1154 C1153 1.369 . S
C1154 C1163 1.429 . S
C1155 C1153 1.419 . S
C1155 C1156 1.363 . S
C1155 H1158 0.929 . S
C1156 C1155 1.363 . S
C1156 C1162 1.428 . S
H1157 C1153 0.930 . S
H1158 C1155 0.929 . S
S1159 N1160 1.613 . S
S1159 N1161 1.610 . S
N1160 S1159 1.613 . S
N1160 C1163 1.350 . S
N1161 S1159 1.610 . S
N1161 C1162 1.351 . S
C1162 C1156 1.428 . S
C1162 N1161 1.351 . S
C1162 C1163 1.434 . S
C1163 C1154 1.429 . S
C1163 N1160 1.350 . S
C1163 C1162 1.434 . S
C1164 C1165 1.369 . S
C1164 C1166 1.419 . S
C1164 H1168 0.930 . S
C1165 C1164 1.369 . S
C1165 C1174 1.429 . S
C1166 C1164 1.419 . S
C1166 C1167 1.363 . S
C1166 H1169 0.929 . S
C1167 C1166 1.363 . S
C1167 C1173 1.428 . S
H1168 C1164 0.930 . S
H1169 C1166 0.929 . S
S1170 N1171 1.613 . S
S1170 N1172 1.610 . S
N1171 S1170 1.613 . S
N1171 C1174 1.350 . S
N1172 S1170 1.610 . S
N1172 C1173 1.351 . S
C1173 C1167 1.428 . S
C1173 N1172 1.351 . S
C1173 C1174 1.434 . S
C1174 C1165 1.429 . S
C1174 N1171 1.350 . S
C1174 C1173 1.434 . S
C1175 C1176 1.369 . S
C1175 C1177 1.419 . S
C1175 H1179 0.930 . S
C1176 C1175 1.369 . S
C1176 C1185 1.429 . S
C1177 C1175 1.419 . S
C1177 C1178 1.363 . S
C1177 H1180 0.929 . S
C1178 C1177 1.363 . S
C1178 C1184 1.428 . S
H1179 C1175 0.930 . S
H1180 C1177 0.929 . S
S1181 N1182 1.613 . S
S1181 N1183 1.610 . S
N1182 S1181 1.613 . S
N1182 C1185 1.350 . S
N1183 S1181 1.610 . S
N1183 C1184 1.351 . S
C1184 C1178 1.428 . S
C1184 N1183 1.351 . S
C1184 C1185 1.434 . S
C1185 C1176 1.429 . S
C1185 N1182 1.350 . S
C1185 C1184 1.434 . S
C1186 C1187 1.369 . S
C1186 C1188 1.419 . S
C1186 H1190 0.930 . S
C1187 C1186 1.369 . S
C1187 C1196 1.429 . S
C1188 C1186 1.419 . S
C1188 C1189 1.363 . S
C1188 H1191 0.929 . S
C1189 C1188 1.363 . S
C1189 C1195 1.428 . S
H1190 C1186 0.930 . S
H1191 C1188 0.929 . S
S1192 N1193 1.613 . S
S1192 N1194 1.610 . S
N1193 S1192 1.613 . S
N1193 C1196 1.350 . S
N1194 S1192 1.610 . S
N1194 C1195 1.351 . S
C1195 C1189 1.428 . S
C1195 N1194 1.351 . S
C1195 C1196 1.434 . S
C1196 C1187 1.429 . S
C1196 N1193 1.350 . S
C1196 C1195 1.434 . S
C1197 C1198 1.369 . S
C1197 C1199 1.419 . S
C1197 H1201 0.930 . S
C1198 C1197 1.369 . S
C1198 C1207 1.429 . S
C1199 C1197 1.419 . S
C1199 C1200 1.363 . S
C1199 H1202 0.929 . S
C1200 C1199 1.363 . S
C1200 C1206 1.428 . S
H1201 C1197 0.930 . S
H1202 C1199 0.929 . S
S1203 N1204 1.613 . S
S1203 N1205 1.610 . S
N1204 S1203 1.613 . S
N1204 C1207 1.350 . S
N1205 S1203 1.610 . S
N1205 C1206 1.351 . S
C1206 C1200 1.428 . S
C1206 N1205 1.351 . S
C1206 C1207 1.434 . S
C1207 C1198 1.429 . S
C1207 N1204 1.350 . S
C1207 C1206 1.434 . S
C1208 C1209 1.369 . S
C1208 C1210 1.419 . S
C1208 H1212 0.930 . S
C1209 C1208 1.369 . S
C1209 C1218 1.429 . S
C1210 C1208 1.419 . S
C1210 C1211 1.363 . S
C1210 H1213 0.929 . S
C1211 C1210 1.363 . S
C1211 C1217 1.428 . S
H1212 C1208 0.930 . S
H1213 C1210 0.929 . S
S1214 N1215 1.613 . S
S1214 N1216 1.610 . S
N1215 S1214 1.613 . S
N1215 C1218 1.350 1_554 S
N1216 S1214 1.610 . S
N1216 C1217 1.351 1_554 S
C1217 C1211 1.428 . S
C1217 N1216 1.351 1_556 S
C1217 C1218 1.434 . S
C1218 C1209 1.429 . S
C1218 N1215 1.350 1_556 S
C1218 C1217 1.434 . S
C1219 C1220 1.369 . S
C1219 C1221 1.419 . S
C1219 H1223 0.930 . S
C1220 C1219 1.369 . S
C1220 C1229 1.429 . S
C1221 C1219 1.419 . S
C1221 C1222 1.363 . S
C1221 H1224 0.929 . S
C1222 C1221 1.363 . S
C1222 C1228 1.428 . S
H1223 C1219 0.930 . S
H1224 C1221 0.929 . S
S1225 N1226 1.613 . S
S1225 N1227 1.610 . S
N1226 S1225 1.613 . S
N1226 C1229 1.350 . S
N1227 S1225 1.610 . S
N1227 C1228 1.351 . S
C1228 C1222 1.428 . S
C1228 N1227 1.351 . S
C1228 C1229 1.434 . S
C1229 C1220 1.429 . S
C1229 N1226 1.350 . S
C1229 C1228 1.434 . S
C1230 C1231 1.369 . S
C1230 C1232 1.419 . S
C1230 H1234 0.930 . S
C1231 C1230 1.369 . S
C1231 C1240 1.429 . S
C1232 C1230 1.419 . S
C1232 C1233 1.363 . S
C1232 H1235 0.929 . S
C1233 C1232 1.363 . S
C1233 C1239 1.428 . S
H1234 C1230 0.930 . S
H1235 C1232 0.929 . S
S1236 N1237 1.613 . S
S1236 N1238 1.610 . S
N1237 S1236 1.613 . S
N1237 C1240 1.350 . S
N1238 S1236 1.610 . S
N1238 C1239 1.351 . S
C1239 C1233 1.428 . S
C1239 N1238 1.351 . S
C1239 C1240 1.434 . S
C1240 C1231 1.429 . S
C1240 N1237 1.350 . S
C1240 C1239 1.434 . S
C1241 C1242 1.369 . S
C1241 C1243 1.419 . S
C1241 H1245 0.930 . S
C1242 C1241 1.369 . S
C1242 C1251 1.429 . S
C1243 C1241 1.419 . S
C1243 C1244 1.363 . S
C1243 H1246 0.929 . S
C1244 C1243 1.363 . S
C1244 C1250 1.428 . S
H1245 C1241 0.930 . S
H1246 C1243 0.929 . S
S1247 N1248 1.613 . S
S1247 N1249 1.610 . S
N1248 S1247 1.613 . S
N1248 C1251 1.350 . S
N1249 S1247 1.610 . S
N1249 C1250 1.351 . S
C1250 C1244 1.428 . S
C1250 N1249 1.351 . S
C1250 C1251 1.434 . S
C1251 C1242 1.429 . S
C1251 N1248 1.350 . S
C1251 C1250 1.434 . S
C1252 C1253 1.369 . S
C1252 C1254 1.419 . S
C1252 H1256 0.930 . S
C1253 C1252 1.369 . S
C1253 C1262 1.429 . S
C1254 C1252 1.419 . S
C1254 C1255 1.363 . S
C1254 H1257 0.929 . S
C1255 C1254 1.363 . S
C1255 C1261 1.428 . S
H1256 C1252 0.930 . S
H1257 C1254 0.929 . S
S1258 N1259 1.613 . S
S1258 N1260 1.610 . S
N1259 S1258 1.613 . S
N1259 C1262 1.350 . S
N1260 S1258 1.610 . S
N1260 C1261 1.351 . S
C1261 C1255 1.428 . S
C1261 N1260 1.351 . S
C1261 C1262 1.434 . S
C1262 C1253 1.429 . S
C1262 N1259 1.350 . S
C1262 C1261 1.434 . S
C1263 C1264 1.369 . S
C1263 C1265 1.419 . S
C1263 H1267 0.930 . S
C1264 C1263 1.369 . S
C1264 C1273 1.429 . S
C1265 C1263 1.419 . S
C1265 C1266 1.363 . S
C1265 H1268 0.929 . S
C1266 C1265 1.363 . S
C1266 C1272 1.428 . S
H1267 C1263 0.930 . S
H1268 C1265 0.929 . S
S1269 N1270 1.613 . S
S1269 N1271 1.610 . S
N1270 S1269 1.613 . S
N1270 C1273 1.350 . S
N1271 S1269 1.610 . S
N1271 C1272 1.351 . S
C1272 C1266 1.428 . S
C1272 N1271 1.351 . S
C1272 C1273 1.434 . S
C1273 C1264 1.429 . S
C1273 N1270 1.350 . S
C1273 C1272 1.434 . S
C1274 C1275 1.369 . S
C1274 C1276 1.419 . S
C1274 H1278 0.930 . S
C1275 C1274 1.369 . S
C1275 C1284 1.429 . S
C1276 C1274 1.419 . S
C1276 C1277 1.363 . S
C1276 H1279 0.929 . S
C1277 C1276 1.363 . S
C1277 C1283 1.428 . S
H1278 C1274 0.930 . S
H1279 C1276 0.929 . S
S1280 N1281 1.613 . S
S1280 N1282 1.610 . S
N1281 S1280 1.613 . S
N1281 C1284 1.350 . S
N1282 S1280 1.610 . S
N1282 C1283 1.351 . S
C1283 C1277 1.428 . S
C1283 N1282 1.351 . S
C1283 C1284 1.434 . S
C1284 C1275 1.429 . S
C1284 N1281 1.350 . S
C1284 C1283 1.434 . S
C1285 C1286 1.369 . S
C1285 C1287 1.419 . S
C1285 H1289 0.930 . S
C1286 C1285 1.369 . S
C1286 C1295 1.429 . S
C1287 C1285 1.419 . S
C1287 C1288 1.363 . S
C1287 H1290 0.929 . S
C1288 C1287 1.363 . S
C1288 C1294 1.428 . S
H1289 C1285 0.930 . S
H1290 C1287 0.929 . S
S1291 N1292 1.613 . S
S1291 N1293 1.610 . S
N1292 S1291 1.613 . S
N1292 C1295 1.350 . S
N1293 S1291 1.610 . S
N1293 C1294 1.351 . S
C1294 C1288 1.428 . S
C1294 N1293 1.351 . S
C1294 C1295 1.434 . S
C1295 C1286 1.429 . S
C1295 N1292 1.350 . S
C1295 C1294 1.434 . S
C945 C701 1.416 . S
C947 C3 1.411 . S
C956 C92 1.422 . S
C958 C524 1.374 . S
C967 C121 1.416 . S
C969 C583 1.411 . S
C978 C642 1.375 . S
C980 C210 1.420 . S
C989 C239 1.414 . S
C991 C347 1.410 . S
C1000 C328 1.421 1_554 S
C1002 C406 1.375 . S
C1011 C465 1.416 . S
C1013 C357 1.410 . S
C1022 C288 1.367 . S
C1024 C446 1.421 1_554 S
C1033 C229 1.417 . S
C1035 C475 1.409 . S
C1044 C564 1.419 . S
C1046 C52 1.370 . S
C1055 C111 1.411 . S
C1057 C593 1.411 . S
C1066 C682 1.422 . S
C1068 C170 1.374 . S
C1077 C711 1.413 . S
C1079 C819 1.414 . S
C1088 C800 1.419 . S
C1090 C878 1.371 . S
C1099 C937 1.413 . S
C1101 C829 1.414 . S
C1110 C760 1.376 . S
C1112 C918 1.421 . S
C1121 C269 1.507 . S
C1123 C33 1.507 . S
C1132 C62 1.396 . S
C1134 C298 1.401 . S
C1143 C151 1.504 . S
C1145 C387 1.509 . S
C1154 C416 1.393 . S
C1156 C180 1.398 . S
C1165 C505 1.510 . S
C1167 C741 1.505 . S
C1176 C770 1.398 . S
C1178 C534 1.401 . S
C1187 C623 1.504 . S
C1189 C859 1.509 . S
C1198 C888 1.400 . S
C1200 C652 1.394 . S
C1209 C831 1.801 . S
C1211 C5 1.794 . S
C1220 C890 1.394 . S
C1222 C64 1.395 . S
C1231 C123 1.798 . S
C1233 C713 1.796 . S
C1242 C772 1.394 . S
C1244 C182 1.393 . S
C1253 C595 1.798 . S
C1255 C241 1.799 . S
C1264 C654 1.400 . S
C1266 C300 1.390 . S
C1275 C359 1.797 . S
C1277 C477 1.797 . S
C1286 C536 1.395 . S
C1288 C418 1.394 . S
