# Generated by pormake.
# Topology sxb, (6)-cn, num edge types: 1
# Building blocks:
#     Node 0, Type 0, BuildingBlock: MIFKUJ_clean_sbu_0, # of connection points: 6
#     Node 1, Type 0, BuildingBlock: MIFKUJ_clean_sbu_0, # of connection points: 6
#     Node 2, Type 0, BuildingBlock: MIFKUJ_clean_sbu_0, # of connection points: 6
#     Node 3, Type 0, BuildingBlock: MIFKUJ_clean_sbu_0, # of connection points: 6
#     Edge 4, Type (0, 0), BuildingBlock: XUDNAN_clean_linker_2, # of connection points: 2
#     Edge 5, Type (0, 0), BuildingBlock: XUDNAN_clean_linker_2, # of connection points: 2
#     Edge 6, Type (0, 0), BuildingBlock: XUDNAN_clean_linker_2, # of connection points: 2
#     Edge 7, Type (0, 0), BuildingBlock: XUDNAN_clean_linker_2, # of connection points: 2
#     Edge 8, Type (0, 0), BuildingBlock: XUDNAN_clean_linker_2, # of connection points: 2
#     Edge 9, Type (0, 0), BuildingBlock: XUDNAN_clean_linker_2, # of connection points: 2
#     Edge 10, Type (0, 0), BuildingBlock: XUDNAN_clean_linker_2, # of connection points: 2
#     Edge 11, Type (0, 0), BuildingBlock: XUDNAN_clean_linker_2, # of connection points: 2
#     Edge 12, Type (0, 0), BuildingBlock: XUDNAN_clean_linker_2, # of connection points: 2
#     Edge 13, Type (0, 0), BuildingBlock: XUDNAN_clean_linker_2, # of connection points: 2
#     Edge 14, Type (0, 0), BuildingBlock: XUDNAN_clean_linker_2, # of connection points: 2
#     Edge 15, Type (0, 0), BuildingBlock: XUDNAN_clean_linker_2, # of connection points: 2
# Relax obj value: 0.019
# Max RMSD: 0.063
# Mean RMSD: 0.050
data_MOF--net-sxb--node1-MIFKUJ_clean_sbu_0--edge1-XUDNAN_clean_linker_2
_symmetry_space_group_name_H-M    P1
_symmetry_Int_Tables_number       1
_symmetry_cell_setting            triclinic
loop_
_symmetry_equiv_pos_as_xyz
'x, y, z'
_cell_length_a     18.068536
_cell_length_b     31.398024
_cell_length_c     28.133384
_cell_angle_alpha  96.012603
_cell_angle_beta   97.592754
_cell_angle_gamma 85.965737
loop_
_atom_site_label
_atom_site_type_symbol
_atom_site_fract_x
_atom_site_fract_y
_atom_site_fract_z
_atom_type_partial_charge
Zn0 Zn 0.08757 0.9636 0.9868 0.0
Zn1 Zn 0.89261 0.04524 0.00155 0.0
C2 C 0.13864 0.87691 0.99322 0.0
O3 O 0.16932 0.89513 0.03463 0.0
C4 C 0.88176 0.14211 0.00647 0.0
O5 O 0.93788 0.14071 0.98095 0.0
O6 O 0.18219 0.99072 0.98402 0.0
O7 O 0.00322 0.9973 0.95724 0.0
O8 O 0.91007 0.03794 0.93063 0.0
C9 C 0.23523 0.97476 0.96127 0.0
O10 O 0.22672 0.93887 0.93312 0.0
O11 O 0.09676 0.90002 0.96479 0.0
C12 C 0.76495 0.0295 0.04015 0.0
O13 O 0.79997 0.05352 0.07604 0.0
O14 O 0.79763 0.01761 0.00333 0.0
O15 O 0.97084 0.01843 0.05365 0.0
O16 O 0.07212 0.9732 0.05579 0.0
O17 O 0.86143 0.10761 0.01945 0.0
C18 C 0.96617 0.01355 0.92187 0.0
C19 C 0.025 0.99776 0.07724 0.0
Zn20 Zn 0.03945 0.05351 0.49194 0.0
Zn21 Zn 0.88126 0.97061 0.4869 0.0
C22 C 0.18563 0.00382 0.48609 0.0
O23 O 0.17509 0.98673 0.52514 0.0
C24 C 0.72273 0.97521 0.45663 0.0
O25 O 0.74054 0.93818 0.43354 0.0
O26 O 0.06312 0.11571 0.50053 0.0
O27 O 0.94753 0.04588 0.44405 0.0
O28 O 0.93114 0.97719 0.4285 0.0
C29 C 0.08636 0.12754 0.4635 0.0
O30 O 0.0789 0.10208 0.42321 0.0
O31 O 0.13362 0.02751 0.46562 0.0
C32 C 0.82966 0.89062 0.50989 0.0
O33 O 0.80135 0.9148 0.54485 0.0
O34 O 0.86988 0.90727 0.48382 0.0
O35 O 0.93903 0.98889 0.55214 0.0
O36 O 0.03093 0.03385 0.55718 0.0
O37 O 0.77419 0.99729 0.48061 0.0
C38 C 0.94938 0.012 0.41549 0.0
C39 C -0.0088 0.01019 0.57654 0.0
Zn40 Zn 0.5604 0.51157 0.0061 0.0
Zn41 Zn 0.38832 0.49932 -0.00063 0.0
C42 C 0.63462 0.4314 0.02632 0.0
O43 O 0.68119 0.45807 0.05133 0.0
C44 C 0.32419 0.57415 0.96043 0.0
O45 O 0.30127 0.54365 0.92722 0.0
O46 O 0.66464 0.52838 0.00206 0.0
O47 O 0.49925 0.52965 0.94551 0.0
O48 O 0.42971 0.47457 0.93938 0.0
C49 C 0.69123 0.51079 0.96463 0.0
O50 O 0.64659 0.48953 0.93114 0.0
O51 O 0.57396 0.44625 0.00382 0.0
C52 C 0.239 0.49512 0.02045 0.0
O53 O 0.261 0.52482 0.05487 0.0
O54 O 0.28607 0.47719 0.99385 0.0
O55 O 0.44544 0.48357 0.06157 0.0
O56 O 0.52943 0.53249 0.07121 0.0
O57 O 0.36766 0.56376 -0.0026 0.0
C58 C 0.46329 0.50058 0.91948 0.0
C59 C 0.49343 0.50573 0.08857 0.0
Zn60 Zn 0.61047 0.54078 0.5117 0.0
Zn61 Zn 0.4397 0.4539 0.50795 0.0
C62 C 0.76184 0.55436 0.53192 0.0
O63 O 0.73246 0.58687 0.55788 0.0
C64 C 0.28266 0.47235 0.4888 0.0
O65 O 0.28705 0.43838 0.45755 0.0
O66 O 0.59372 0.60199 0.49678 0.0
O67 O 0.54841 0.50135 0.46109 0.0
O68 O 0.46194 0.45404 0.44021 0.0
C69 C 0.61742 0.60967 0.45817 0.0
O70 O 0.63963 0.57714 0.4291 0.0
O71 O 0.71905 0.5272 0.50796 0.0
C72 C 0.38313 0.38009 0.54211 0.0
O73 O 0.34121 0.40919 0.56485 0.0
O74 O 0.43463 0.39208 0.52057 0.0
O75 O 0.51696 0.48972 0.54468 0.0
O76 O 0.59383 0.53515 0.58112 0.0
O77 O 0.34161 0.48511 0.51428 0.0
C78 C 0.51083 0.47718 0.42887 0.0
C79 C 0.54611 0.50819 0.58394 0.0
H80 H 0.33165 0.64334 0.02975 0.0
H81 H 0.24902 0.60622 0.88019 0.0
H82 H 0.19171 0.67912 0.87235 0.0
H83 H 0.17004 0.70939 0.05644 0.0
H84 H 0.22186 0.74924 0.09539 0.0
H85 H 0.25914 0.69449 0.08914 0.0
H86 H 0.38052 0.71942 0.06359 0.0
H87 H 0.34395 0.77428 0.07022 0.0
H88 H 0.37432 0.75192 0.01387 0.0
H89 H 0.13978 0.75564 0.88116 0.0
H90 H 0.10223 0.83124 0.90541 0.0
H91 H 0.21821 0.81862 0.04902 0.0
C92 C 0.30227 0.6507 -0.00478 0.0
C93 C 0.29499 0.61901 0.95557 0.0
C94 C 0.25531 0.62987 0.91114 0.0
C95 C 0.22244 0.67123 0.90628 0.0
C96 C 0.22949 0.70151 0.9462 0.0
C97 C 0.26871 0.69188 0.98976 0.0
C98 C 0.26683 0.73019 0.02722 0.0
C99 C 0.22709 0.72022 0.06954 0.0
C100 C 0.34612 0.74481 0.04474 0.0
C101 C 0.2209 0.76283 -0.00217 0.0
C102 C 0.19959 0.7456 0.95124 0.0
C103 C 0.15632 0.76954 0.91753 0.0
C104 C 0.13504 0.81242 0.93167 0.0
C105 C 0.15729 0.83095 0.97906 0.0
C106 C 0.20038 0.80553 0.01248 0.0
H107 H 0.77268 0.39431 0.01607 0.0
H108 H 0.5454 0.36468 0.02761 0.0
H109 H 0.58536 0.28732 0.02654 0.0
H110 H 0.81037 0.30158 0.93235 0.0
H111 H 0.907 0.29469 0.95751 0.0
H112 H 0.86024 0.34732 0.9603 0.0
H113 H 0.89557 0.35577 0.05286 0.0
H114 H 0.94175 0.30299 0.05054 0.0
H115 H 0.86881 0.31623 0.08846 0.0
H116 H 0.65251 0.21419 0.02947 0.0
H117 H 0.73647 0.14898 0.02442 0.0
H118 H 0.91848 0.22567 0.00389 0.0
C119 C 0.73141 0.37142 0.01834 0.0
C120 C 0.65614 0.38514 0.0224 0.0
C121 C 0.60324 0.35453 0.02443 0.0
C122 C 0.62558 0.31071 0.02412 0.0
C123 C 0.70059 0.29822 0.0207 0.0
C124 C 0.75236 0.3276 0.01682 0.0
C125 C 0.82872 0.30571 0.01132 0.0
C126 C 0.85298 0.31274 0.96246 0.0
C127 C 0.88714 0.3211 0.05331 0.0
C128 C 0.81225 0.25933 0.01344 0.0
C129 C 0.73825 0.25584 0.01954 0.0
C130 C 0.71028 0.2165 0.02416 0.0
C131 C 0.75867 0.17964 0.02153 0.0
C132 C 0.83409 0.18215 0.01354 0.0
C133 C 0.86109 0.22267 0.00972 0.0
H134 H 0.09476 0.19736 0.53177 0.0
H135 H 0.19282 0.13775 0.40653 0.0
H136 H 0.28742 0.19182 0.41889 0.0
H137 H 0.11788 0.30638 0.50713 0.0
H138 H 0.13724 0.32575 0.56985 0.0
H139 H 0.07905 0.28111 0.55217 0.0
H140 H 0.16682 0.23561 0.61041 0.0
H141 H 0.22618 0.2799 0.62743 0.0
H142 H 0.26508 0.22869 0.60418 0.0
H143 H 0.37369 0.25037 0.44573 0.0
H144 H 0.43272 0.31786 0.47631 0.0
H145 H 0.27505 0.34292 0.58127 0.0
C146 C 0.13596 0.19592 0.50688 0.0
C147 C 0.13671 0.16322 0.46838 0.0
C148 C 0.19096 0.16257 0.43621 0.0
C149 C 0.24546 0.19289 0.44317 0.0
C150 C 0.24426 0.22414 0.48199 0.0
C151 C 0.18997 0.22661 0.51264 0.0
C152 C 0.19865 0.26529 0.54956 0.0
C153 C 0.12909 0.29647 0.54434 0.0
C154 C 0.21517 0.25153 0.60094 0.0
C155 C 0.26615 0.2841 0.53469 0.0
C156 C 0.29237 0.25931 0.49625 0.0
C157 C 0.35358 0.27021 0.47571 0.0
C158 C 0.38704 0.30853 0.49358 0.0
C159 C 0.35837 0.33583 0.53108 0.0
C160 C 0.29842 0.32271 0.55268 0.0
H161 H 0.74106 0.84408 0.55517 0.0
H162 H 0.85505 0.84002 0.42796 0.0
H163 H 0.79993 0.7716 0.39683 0.0
H164 H 0.76789 0.73182 0.56861 0.0
H165 H 0.67811 0.7281 0.58874 0.0
H166 H 0.72385 0.77791 0.59975 0.0
H167 H 0.60596 0.81643 0.55666 0.0
H168 H 0.56049 0.76645 0.54463 0.0
H169 H 0.57085 0.79745 0.49572 0.0
H170 H 0.73466 0.70369 0.37955 0.0
H171 H 0.67702 0.63541 0.38241 0.0
H172 H 0.60657 0.68221 0.52118 0.0
C173 C 0.75461 0.82873 0.52085 0.0
C174 C 0.80229 0.84752 0.49401 0.0
C175 C 0.81886 0.82628 0.44932 0.0
C176 C 0.78726 0.78756 0.43104 0.0
C177 C 0.7394 0.77036 0.4579 0.0
C178 C 0.72394 0.78982 0.50215 0.0
C179 C 0.67412 0.76312 0.52493 0.0
C180 C 0.71336 0.74942 0.57336 0.0
C181 C 0.59837 0.78731 0.53082 0.0
C182 C 0.6655 0.72521 0.48699 0.0
C183 C 0.70244 0.73051 0.44823 0.0
C184 C 0.70527 0.69915 0.40959 0.0
C185 C 0.67211 0.6605 0.4115 0.0
C186 C 0.63733 0.65341 0.45202 0.0
C187 C 0.63205 0.68679 0.48949 0.0
H188 H 0.36764 0.94492 0.928 0.0
H189 H 0.2706 0.04425 0.0246 0.0
H190 H 0.39616 0.06733 0.05636 0.0
H191 H 0.52459 0.91598 0.00795 0.0
H192 H 0.58934 0.9084 0.96383 0.0
H193 H 0.49148 0.90069 0.94562 0.0
H194 H 0.4864 0.95631 0.88324 0.0
H195 H 0.58468 0.96351 0.90045 0.0
H196 H 0.5185 0.00917 0.9026 0.0
H197 H 0.53082 0.0753 0.0834 0.0
H198 H 0.66834 0.07566 0.09504 0.0
H199 H 0.67909 0.97352 0.97896 0.0
C200 C 0.37273 0.97202 0.95517 0.0
C201 C 0.30936 0.99251 0.97406 0.0
C202 C 0.31834 0.02786 0.00967 0.0
C203 C 0.38945 0.04117 0.02815 0.0
C204 C 0.45087 0.0192 0.0102 0.0
C205 C 0.44343 0.98607 0.97379 0.0
C206 C 0.51901 0.96803 0.96108 0.0
C207 C 0.53182 0.92046 0.97018 0.0
C208 C 0.52765 0.97467 0.90874 0.0
C209 C 0.5698 0.99584 -0.00339 0.0
C210 C 0.52922 0.02482 0.02487 0.0
C211 C 0.56343 0.05312 0.06119 0.0
C212 C 0.64154 0.05279 0.0678 0.0
C213 C 0.68418 0.02467 0.03782 0.0
C214 C 0.64777 0.99542 0.0023 0.0
H215 H 0.30083 0.94154 0.49392 0.0
H216 H 0.24418 0.06971 0.45099 0.0
H217 H 0.3755 0.07695 0.43949 0.0
H218 H 0.47961 0.96005 0.55765 0.0
H219 H 0.52344 0.90954 0.53636 0.0
H220 H 0.42456 0.9139 0.54054 0.0
H221 H 0.39717 0.88616 0.45027 0.0
H222 H 0.49613 0.88126 0.44619 0.0
H223 H 0.43476 0.91281 0.4058 0.0
H224 H 0.51601 0.07318 0.44128 0.0
H225 H 0.65184 0.05366 0.4426 0.0
H226 H 0.61497 0.92561 0.47544 0.0
C227 C 0.31606 0.97082 0.48144 0.0
C228 C 0.26234 0.00505 0.47333 0.0
C229 C 0.28423 0.04291 0.45696 0.0
C230 C 0.35886 0.04747 0.45067 0.0
C231 C 0.41082 0.01348 0.4598 0.0
C232 C 0.39012 0.97544 0.4736 0.0
C233 C 0.45673 0.94342 0.47962 0.0
C234 C 0.47196 0.93102 0.53164 0.0
C235 C 0.44552 0.90356 0.44329 0.0
C236 C 0.51813 0.96974 0.46807 0.0
C237 C 0.49078 0.01031 0.45748 0.0
C238 C 0.53788 0.04124 0.44862 0.0
C239 C 0.61478 0.03007 0.44971 0.0
C240 C 0.6431 0.98814 0.45848 0.0
C241 C 0.59416 0.95773 0.46785 0.0
H242 H 0.80227 0.5441 0.03176 0.0
H243 H 0.76477 0.46615 0.89474 0.0
H244 H 0.90057 0.45062 0.89662 0.0
H245 H 0.9714 0.58988 0.00831 0.0
H246 H 0.01487 0.58906 0.06971 0.0
H247 H 0.91454 0.59448 0.05686 0.0
H248 H 0.90445 0.52822 0.10295 0.0
H249 H 0.00484 0.52205 0.11507 0.0
H250 H 0.9525 0.47804 0.08493 0.0
H251 H 0.03936 0.44118 0.91453 0.0
H252 H 0.17396 0.44516 0.94276 0.0
H253 H 0.12199 0.53022 0.06746 0.0
C254 C 0.82265 0.52423 0.00184 0.0
C255 C 0.77283 0.50633 0.96314 0.0
C256 C 0.80178 0.48032 0.92478 0.0
C257 C 0.87884 0.47108 0.92561 0.0
C258 C 0.92623 0.48829 0.96488 0.0
C259 C 0.8995 0.51483 0.00194 0.0
C260 C 0.96271 0.52956 0.03961 0.0
C261 C 0.96607 0.57866 0.04384 0.0
C262 C 0.95568 0.5135 0.08853 0.0
C263 C 0.02911 0.50736 0.01771 0.0
C264 C 0.00667 0.48333 0.9749 0.0
C265 C 0.05775 0.46002 0.94791 0.0
C266 C 0.13409 0.46235 0.9644 0.0
C267 C 0.15858 0.48811 0.00726 0.0
C268 C 0.10511 0.51021 0.03461 0.0
H269 H 0.14368 0.44489 0.45366 0.0
H270 H 0.25717 0.54737 0.54414 0.0
H271 H 0.13547 0.5809 0.56262 0.0
H272 H 0.98185 0.51065 0.40592 0.0
H273 H 0.91761 0.46947 0.40703 0.0
H274 H 0.01352 0.45489 0.39844 0.0
H275 H 0.02752 0.40979 0.47157 0.0
H276 H 0.9318 0.42426 0.48045 0.0
H277 H 0.0057 0.43482 0.52908 0.0
H278 H 0.0028 0.60159 0.57406 0.0
H279 H 0.86681 0.60821 0.57773 0.0
H280 H 0.8401 0.49178 0.48054 0.0
C281 C 0.1429 0.4747 0.47681 0.0
C282 C 0.20973 0.49365 0.49729 0.0
C283 C 0.20651 0.53234 0.52797 0.0
C284 C 0.13774 0.55167 0.53864 0.0
C285 C 0.07292 0.53187 0.51835 0.0
C286 C 0.07479 0.49432 0.48803 0.0
C287 C -0.00283 0.47872 0.47256 0.0
C288 C 0.97632 0.47844 0.41773 0.0
C289 C -0.00983 0.43428 0.48944 0.0
C290 C 0.95153 0.51312 0.49943 0.0
C291 C -0.00374 0.54359 0.52538 0.0
C292 C 0.96703 0.57805 0.55376 0.0
C293 C 0.88981 0.58144 0.5557 0.0
C294 C 0.84299 0.55042 0.52955 0.0
C295 C 0.87446 0.51597 0.50096 0.0
H296 H 0.90476 0.06043 0.34076 0.0
H297 H 0.06535 0.95977 0.38832 0.0
H298 H 0.1115 0.95143 0.30875 0.0
H299 H 0.85233 0.00895 0.22741 0.0
H300 H 0.83998 0.05625 0.19536 0.0
H301 H 0.82869 0.06037 0.25829 0.0
H302 H 0.92835 0.11724 0.27685 0.0
H303 H 0.93948 0.11361 0.21377 0.0
H304 H 0.0196 0.10507 0.25791 0.0
H305 H 0.13169 0.94899 0.22323 0.0
H306 H 0.12267 0.94992 0.13558 0.0
H307 H 0.94292 0.04928 0.14005 0.0
C308 C 0.95119 0.03765 0.33461 0.0
C309 C 0.98272 0.01118 0.3705 0.0
C310 C 0.04137 0.98054 0.36115 0.0
C311 C 0.06795 0.97572 0.31622 0.0
C312 C 0.03441 1.00142 0.28094 0.0
C313 C 0.97719 0.03175 0.28944 0.0
C314 C 0.94531 0.05164 0.2436 0.0
C315 C 0.86163 0.04382 0.23041 0.0
C316 C 0.95902 0.09975 0.24832 0.0
C317 C -0.00816 0.02672 0.20778 0.0
C318 C 0.04389 0.99866 0.23046 0.0
C319 C 0.09163 0.97108 0.20509 0.0
C320 C 0.08577 0.97182 0.15512 0.0
C321 C 0.03179 0.99959 0.1306 0.0
C322 C 0.98472 0.0277 0.15758 0.0
H323 H 0.87709 0.99483 0.83777 0.0
H324 H 0.10563 0.01921 0.89669 0.0
H325 H 0.13987 0.01744 0.81394 0.0
H326 H 0.92896 0.92005 0.73371 0.0
H327 H 0.84809 0.93793 0.69464 0.0
H328 H 0.84388 0.93839 0.75835 0.0
H329 H 0.80203 0.0192 0.76246 0.0
H330 H 0.8068 0.01914 0.699 0.0
H331 H 0.85933 0.05627 0.74144 0.0
H332 H 0.14361 0.02253 0.72481 0.0
H333 H 0.12129 0.02497 0.63642 0.0
H334 H 0.89266 0.99077 0.63599 0.0
C335 C 0.93457 0.99906 0.83304 0.0
C336 C 0.98893 0.00722 0.87319 0.0
C337 C 0.06362 0.01252 0.86612 0.0
C338 C 0.08334 0.01174 0.81934 0.0
C339 C 0.02798 0.00441 0.78029 0.0
C340 C 0.95556 0.99704 0.78671 0.0
C341 C 0.90654 0.98987 0.73893 0.0
C342 C 0.88033 0.94382 0.73094 0.0
C343 C 0.83977 0.02312 0.73527 0.0
C344 C 0.96154 0.9966 0.70462 0.0
C345 C 0.03134 0.00491 0.72909 0.0
C346 C 0.08964 0.01516 0.70522 0.0
C347 C 0.07632 0.01673 0.65507 0.0
C348 C 0.00547 0.00767 0.62928 0.0
C349 C 0.94777 0.99713 0.65456 0.0
H350 H 0.52222 0.54252 0.37372 0.0
H351 H 0.5291 0.40406 0.37096 0.0
H352 H 0.54406 0.39708 0.28448 0.0
H353 H 0.40997 0.54767 0.26475 0.0
H354 H 0.45336 0.59177 0.24546 0.0
H355 H 0.4564 0.58622 0.30868 0.0
H356 H 0.60068 0.58649 0.31915 0.0
H357 H 0.59849 0.59214 0.25587 0.0
H358 H 0.65347 0.54845 0.28236 0.0
H359 H 0.54216 0.40452 0.19856 0.0
H360 H 0.51966 0.42592 0.11584 0.0
H361 H 0.51381 0.55998 0.17188 0.0
C362 C 0.52967 0.51086 0.35507 0.0
C363 C 0.52617 0.47375 0.37872 0.0
C364 C 0.53235 0.43273 0.35316 0.0
C365 C 0.54133 0.4285 0.30427 0.0
C366 C 0.54346 0.46566 0.28158 0.0
C367 C 0.53767 0.50611 0.30594 0.0
C368 C 0.53254 0.54068 0.27161 0.0
C369 C 0.45868 0.56818 0.2727 0.0
C370 C 0.60038 0.56858 0.28291 0.0
C371 C 0.53418 0.51323 0.22405 0.0
C372 C 0.54152 0.47007 0.23095 0.0
C373 C 0.53769 0.43816 0.19263 0.0
C374 C 0.52448 0.45058 0.1459 0.0
C375 C 0.5155 0.49447 0.13794 0.0
C376 C 0.52213 0.52625 0.17734 0.0
H377 H 0.5741 0.55733 0.66997 0.0
H378 H 0.46457 0.44393 0.60285 0.0
H379 H 0.42413 0.43181 0.68063 0.0
H380 H 0.64565 0.51528 0.77947 0.0
H381 H 0.63116 0.56469 0.81671 0.0
H382 H 0.64655 0.56604 0.75499 0.0
H383 H 0.52227 0.61181 0.73879 0.0
H384 H 0.50655 0.61063 0.80056 0.0
H385 H 0.43661 0.59241 0.75238 0.0
H386 H 0.40119 0.43043 0.76625 0.0
H387 H 0.39856 0.43895 0.85422 0.0
H388 H 0.52502 0.55302 0.8655 0.0
C389 C 0.54111 0.53014 0.67159 0.0
C390 C 0.52124 0.50173 0.63031 0.0
C391 C 0.47862 0.46641 0.63389 0.0
C392 C 0.45585 0.45925 0.67792 0.0
C393 C 0.47629 0.48787 0.71796 0.0
C394 C 0.51791 0.52263 0.71524 0.0
C395 C 0.53474 0.54768 0.76398 0.0
C396 C 0.61955 0.54843 0.77969 0.0
C397 C 0.49783 0.59333 0.7639 0.0
C398 C 0.49773 0.52091 0.79471 0.0
C399 C 0.46366 0.48683 0.76742 0.0
C400 C 0.42727 0.45712 0.78801 0.0
C401 C 0.42616 0.46223 0.83798 0.0
C402 C 0.46166 0.49662 0.86668 0.0
C403 C 0.49728 0.52644 0.84454 0.0
loop_
_geom_bond_atom_site_label_1
_geom_bond_atom_site_label_2
_geom_bond_distance
_geom_bond_site_symmetry_2
_ccdc_geom_bond_type
Zn0 O6 1.969 1_565 S
Zn0 O7 1.965 1_564 S
Zn0 O11 2.024 1_554 S
Zn0 O16 1.969 . S
Zn1 O8 1.969 . S
Zn1 O14 1.969 1_545 S
Zn1 O15 1.965 1_546 S
Zn1 O17 2.024 1_556 S
C2 O3 1.229 . S
C2 O11 1.058 1_554 S
O3 C2 1.229 . S
C4 O5 1.229 . S
C4 O17 1.058 1_556 S
O5 C4 1.229 . S
O6 Zn0 1.969 1_545 S
O6 C9 1.267 1_544 S
O7 Zn0 1.965 1_546 S
O7 C18 1.260 1_455 S
O8 Zn1 1.969 . S
O8 C18 1.258 . S
C9 O6 1.267 1_566 S
C9 O10 1.228 . S
O10 C9 1.228 . S
O11 Zn0 2.024 1_556 S
O11 C2 1.058 1_556 S
C12 O13 1.228 . S
C12 O14 1.267 1_544 S
O13 C12 1.228 . S
O14 Zn1 1.969 1_565 S
O14 C12 1.267 1_566 S
O15 Zn1 1.965 1_564 S
O15 C19 1.260 1_655 S
O16 Zn0 1.969 . S
O16 C19 1.258 . S
O17 Zn1 2.024 1_554 S
O17 C4 1.058 1_554 S
C18 O7 1.260 1_655 S
C18 O8 1.258 . S
C19 O15 1.260 1_455 S
C19 O16 1.258 . S
Zn20 O26 1.969 . S
Zn20 O27 1.965 . S
Zn20 O31 2.024 1_545 S
Zn20 O36 1.969 . S
Zn21 O28 1.969 . S
Zn21 O34 1.969 . S
Zn21 O35 1.965 . S
Zn21 O37 2.024 1_565 S
C22 O23 1.229 . S
C22 O31 1.058 1_545 S
O23 C22 1.229 . S
C24 O25 1.229 . S
C24 O37 1.058 1_565 S
O25 C24 1.229 . S
O26 Zn20 1.969 . S
O26 C29 1.267 . S
O27 Zn20 1.965 . S
O27 C38 1.260 1_455 S
O28 Zn21 1.969 . S
O28 C38 1.258 1_565 S
C29 O26 1.267 . S
C29 O30 1.228 . S
O30 C29 1.228 . S
O31 Zn20 2.024 1_565 S
O31 C22 1.058 1_565 S
C32 O33 1.228 . S
C32 O34 1.267 . S
O33 C32 1.228 . S
O34 Zn21 1.969 . S
O34 C32 1.267 . S
O35 Zn21 1.965 . S
O35 C39 1.260 1_655 S
O36 Zn20 1.969 . S
O36 C39 1.258 1_545 S
O37 Zn21 2.024 1_545 S
O37 C24 1.058 1_545 S
C38 O27 1.260 1_655 S
C38 O28 1.258 1_545 S
C39 O35 1.260 1_455 S
C39 O36 1.258 1_565 S
Zn40 O46 1.969 . S
Zn40 O47 1.965 1_554 S
Zn40 O51 2.024 1_554 S
Zn40 O56 1.969 . S
Zn41 O48 1.969 . S
Zn41 O54 1.969 . S
Zn41 O55 1.965 1_556 S
Zn41 O57 2.024 1_556 S
C42 O43 1.229 . S
C42 O51 1.058 1_554 S
O43 C42 1.229 . S
C44 O45 1.229 . S
C44 O57 1.058 1_556 S
O45 C44 1.229 . S
O46 Zn40 1.969 . S
O46 C49 1.267 1_554 S
O47 Zn40 1.965 1_556 S
O47 C58 1.260 . S
O48 Zn41 1.969 . S
O48 C58 1.258 . S
C49 O46 1.267 1_556 S
C49 O50 1.228 . S
O50 C49 1.228 . S
O51 Zn40 2.024 1_556 S
O51 C42 1.058 1_556 S
C52 O53 1.228 . S
C52 O54 1.267 1_554 S
O53 C52 1.228 . S
O54 Zn41 1.969 . S
O54 C52 1.267 1_556 S
O55 Zn41 1.965 1_554 S
O55 C59 1.260 . S
O56 Zn40 1.969 . S
O56 C59 1.258 . S
O57 Zn41 2.024 1_554 S
O57 C44 1.058 1_554 S
C58 O47 1.260 . S
C58 O48 1.258 . S
C59 O55 1.260 . S
C59 O56 1.258 . S
Zn60 O66 1.969 . S
Zn60 O67 1.965 . S
Zn60 O71 2.024 . S
Zn60 O76 1.969 . S
Zn61 O68 1.969 . S
Zn61 O74 1.969 . S
Zn61 O75 1.965 . S
Zn61 O77 2.024 . S
C62 O63 1.229 . S
C62 O71 1.058 . S
O63 C62 1.229 . S
C64 O65 1.229 . S
C64 O77 1.058 . S
O65 C64 1.229 . S
O66 Zn60 1.969 . S
O66 C69 1.267 . S
O67 Zn60 1.965 . S
O67 C78 1.260 . S
O68 Zn61 1.969 . S
O68 C78 1.258 . S
C69 O66 1.267 . S
C69 O70 1.228 . S
O70 C69 1.228 . S
O71 Zn60 2.024 . S
O71 C62 1.058 . S
C72 O73 1.228 . S
C72 O74 1.267 . S
O73 C72 1.228 . S
O74 Zn61 1.969 . S
O74 C72 1.267 . S
O75 Zn61 1.965 . S
O75 C79 1.260 . S
O76 Zn60 1.969 . S
O76 C79 1.258 . S
O77 Zn61 2.024 . S
O77 C64 1.058 . S
C78 O67 1.260 . S
C78 O68 1.258 . S
C79 O75 1.260 . S
C79 O76 1.258 . S
H80 C92 0.930 . S
H81 C94 0.930 . S
H82 C95 0.930 . S
H83 C99 0.959 . S
H84 C99 0.959 . S
H85 C99 0.961 . S
H86 C100 0.960 . S
H87 C100 0.961 . S
H88 C100 0.959 . S
H89 C103 0.929 . S
H90 C104 0.931 . S
H91 C106 0.930 . S
C92 H80 0.930 . S
C92 C93 1.399 1_554 S
C92 C97 1.399 . S
C93 C92 1.399 1_556 S
C93 C94 1.376 . S
C94 H81 0.930 . S
C94 C93 1.376 . S
C94 C95 1.388 . S
C95 H82 0.930 . S
C95 C94 1.388 . S
C95 C96 1.390 . S
C96 C95 1.390 . S
C96 C97 1.394 1_556 S
C96 C102 1.465 . S
C97 C92 1.399 . S
C97 C96 1.394 1_554 S
C97 C98 1.516 . S
C98 C97 1.516 . S
C98 C99 1.502 . S
C98 C100 1.561 . S
C98 C101 1.526 . S
C99 H83 0.959 . S
C99 H84 0.959 . S
C99 H85 0.961 . S
C99 C98 1.502 . S
C100 H86 0.960 . S
C100 H87 0.961 . S
C100 H88 0.959 . S
C100 C98 1.561 . S
C101 C98 1.526 . S
C101 C102 1.396 1_554 S
C101 C106 1.390 . S
C102 C96 1.465 . S
C102 C101 1.396 1_556 S
C102 C103 1.399 . S
C103 H89 0.929 . S
C103 C102 1.399 . S
C103 C104 1.385 . S
C104 H90 0.931 . S
C104 C103 1.385 . S
C104 C105 1.389 . S
C105 C104 1.389 . S
C105 C106 1.387 1_556 S
C106 H91 0.930 . S
C106 C101 1.390 . S
C106 C105 1.387 1_554 S
H107 C119 0.928 1_556 S
H108 C121 0.930 . S
H109 C122 0.930 . S
H110 C126 0.959 . S
H111 C126 0.959 . S
H112 C126 0.961 . S
H113 C127 0.960 . S
H114 C127 0.961 . S
H115 C127 0.959 . S
H116 C130 0.929 . S
H117 C131 0.931 . S
H118 C133 0.930 . S
C119 H107 0.928 1_554 S
C119 C120 1.398 . S
C119 C124 1.400 . S
C120 C119 1.398 . S
C120 C121 1.380 . S
C121 H108 0.930 . S
C121 C120 1.380 . S
C121 C122 1.388 . S
C122 H109 0.930 . S
C122 C121 1.388 . S
C122 C123 1.390 . S
C123 C122 1.390 . S
C123 C124 1.394 . S
C123 C129 1.465 . S
C124 C119 1.400 . S
C124 C123 1.394 . S
C124 C125 1.516 . S
C125 C124 1.516 . S
C125 C126 1.502 1_554 S
C125 C127 1.561 . S
C125 C128 1.526 . S
C126 H110 0.959 . S
C126 H111 0.959 . S
C126 H112 0.961 . S
C126 C125 1.502 1_556 S
C127 H113 0.960 . S
C127 H114 0.961 . S
C127 H115 0.959 . S
C127 C125 1.561 . S
C128 C125 1.526 . S
C128 C129 1.396 . S
C128 C133 1.390 . S
C129 C123 1.465 . S
C129 C128 1.396 . S
C129 C130 1.399 . S
C130 H116 0.929 . S
C130 C129 1.399 . S
C130 C131 1.385 . S
C131 H117 0.931 . S
C131 C130 1.385 . S
C131 C132 1.389 . S
C132 C131 1.389 . S
C132 C133 1.387 . S
C133 H118 0.930 . S
C133 C128 1.390 . S
C133 C132 1.387 . S
H134 C146 0.930 . S
H135 C148 0.930 . S
H136 C149 0.930 . S
H137 C153 0.959 . S
H138 C153 0.959 . S
H139 C153 0.961 . S
H140 C154 0.960 . S
H141 C154 0.961 . S
H142 C154 0.959 . S
H143 C157 0.929 . S
H144 C158 0.931 . S
H145 C160 0.930 . S
C146 H134 0.930 . S
C146 C147 1.399 . S
C146 C151 1.399 . S
C147 C146 1.399 . S
C147 C148 1.376 . S
C148 H135 0.930 . S
C148 C147 1.376 . S
C148 C149 1.388 . S
C149 H136 0.930 . S
C149 C148 1.388 . S
C149 C150 1.390 . S
C150 C149 1.390 . S
C150 C151 1.394 . S
C150 C156 1.465 . S
C151 C146 1.399 . S
C151 C150 1.394 . S
C151 C152 1.516 . S
C152 C151 1.516 . S
C152 C153 1.502 . S
C152 C154 1.561 . S
C152 C155 1.526 . S
C153 H137 0.959 . S
C153 H138 0.959 . S
C153 H139 0.961 . S
C153 C152 1.502 . S
C154 H140 0.960 . S
C154 H141 0.961 . S
C154 H142 0.959 . S
C154 C152 1.561 . S
C155 C152 1.526 . S
C155 C156 1.396 . S
C155 C160 1.390 . S
C156 C150 1.465 . S
C156 C155 1.396 . S
C156 C157 1.399 . S
C157 H143 0.929 . S
C157 C156 1.399 . S
C157 C158 1.385 . S
C158 H144 0.931 . S
C158 C157 1.385 . S
C158 C159 1.389 . S
C159 C158 1.389 . S
C159 C160 1.387 . S
C160 H145 0.930 . S
C160 C155 1.390 . S
C160 C159 1.387 . S
H161 C173 0.930 . S
H162 C175 0.930 . S
H163 C176 0.930 . S
H164 C180 0.959 . S
H165 C180 0.959 . S
H166 C180 0.961 . S
H167 C181 0.960 . S
H168 C181 0.961 . S
H169 C181 0.959 . S
H170 C184 0.929 . S
H171 C185 0.931 . S
H172 C187 0.930 . S
C173 H161 0.930 . S
C173 C174 1.399 . S
C173 C178 1.399 . S
C174 C173 1.399 . S
C174 C175 1.376 . S
C175 H162 0.930 . S
C175 C174 1.376 . S
C175 C176 1.388 . S
C176 H163 0.930 . S
C176 C175 1.388 . S
C176 C177 1.390 . S
C177 C176 1.390 . S
C177 C178 1.394 . S
C177 C183 1.465 . S
C178 C173 1.399 . S
C178 C177 1.394 . S
C178 C179 1.516 . S
C179 C178 1.516 . S
C179 C180 1.502 . S
C179 C181 1.561 . S
C179 C182 1.526 . S
C180 H164 0.959 . S
C180 H165 0.959 . S
C180 H166 0.961 . S
C180 C179 1.502 . S
C181 H167 0.960 . S
C181 H168 0.961 . S
C181 H169 0.959 . S
C181 C179 1.561 . S
C182 C179 1.526 . S
C182 C183 1.396 . S
C182 C187 1.390 . S
C183 C177 1.465 . S
C183 C182 1.396 . S
C183 C184 1.399 . S
C184 H170 0.929 . S
C184 C183 1.399 . S
C184 C185 1.385 . S
C185 H171 0.931 . S
C185 C184 1.385 . S
C185 C186 1.389 . S
C186 C185 1.389 . S
C186 C187 1.387 . S
C187 H172 0.930 . S
C187 C182 1.390 . S
C187 C186 1.387 . S
H188 C200 0.930 . S
H189 C202 0.930 . S
H190 C203 0.930 . S
H191 C207 0.959 1_554 S
H192 C207 0.959 . S
H193 C207 0.961 . S
H194 C208 0.960 . S
H195 C208 0.961 . S
H196 C208 0.959 . S
H197 C211 0.929 . S
H198 C212 0.931 . S
H199 C214 0.930 . S
C200 H188 0.930 . S
C200 C201 1.399 1_565 S
C200 C205 1.399 . S
C201 C200 1.399 1_545 S
C201 C202 1.376 1_556 S
C202 H189 0.930 . S
C202 C201 1.376 1_554 S
C202 C203 1.388 . S
C203 H190 0.930 . S
C203 C202 1.388 . S
C203 C204 1.390 . S
C204 C203 1.390 . S
C204 C205 1.394 1_544 S
C204 C210 1.465 . S
C205 C200 1.399 . S
C205 C204 1.394 1_566 S
C205 C206 1.516 . S
C206 C205 1.516 . S
C206 C207 1.502 . S
C206 C208 1.561 . S
C206 C209 1.526 . S
C207 H191 0.959 1_556 S
C207 H192 0.959 . S
C207 H193 0.961 . S
C207 C206 1.502 . S
C208 H194 0.960 . S
C208 H195 0.961 . S
C208 H196 0.959 . S
C208 C206 1.561 . S
C209 C206 1.526 . S
C209 C210 1.396 1_566 S
C209 C214 1.390 . S
C210 C204 1.465 . S
C210 C209 1.396 1_544 S
C210 C211 1.399 . S
C211 H197 0.929 . S
C211 C210 1.399 . S
C211 C212 1.385 . S
C212 H198 0.931 . S
C212 C211 1.385 . S
C212 C213 1.401 . S
C213 C212 1.401 . S
C213 C214 1.378 1_544 S
C214 H199 0.930 . S
C214 C209 1.390 . S
C214 C213 1.378 1_566 S
H215 C227 0.930 . S
H216 C229 0.930 . S
H217 C230 0.930 . S
H218 C234 0.959 . S
H219 C234 0.959 . S
H220 C234 0.961 . S
H221 C235 0.960 . S
H222 C235 0.961 . S
H223 C235 0.959 . S
H224 C238 0.929 . S
H225 C239 0.931 . S
H226 C241 0.930 . S
C227 H215 0.930 . S
C227 C228 1.399 . S
C227 C232 1.399 . S
C228 C227 1.399 . S
C228 C229 1.376 1_565 S
C229 H216 0.930 . S
C229 C228 1.376 1_545 S
C229 C230 1.388 . S
C230 H217 0.930 . S
C230 C229 1.388 . S
C230 C231 1.390 . S
C231 C230 1.390 . S
C231 C232 1.394 1_545 S
C231 C237 1.465 . S
C232 C227 1.399 . S
C232 C231 1.394 1_565 S
C232 C233 1.516 . S
C233 C232 1.516 . S
C233 C234 1.502 . S
C233 C235 1.561 . S
C233 C236 1.526 . S
C234 H218 0.959 . S
C234 H219 0.959 . S
C234 H220 0.961 . S
C234 C233 1.502 . S
C235 H221 0.960 . S
C235 H222 0.961 . S
C235 H223 0.959 . S
C235 C233 1.561 . S
C236 C233 1.526 . S
C236 C237 1.396 1_565 S
C236 C241 1.390 . S
C237 C231 1.465 . S
C237 C236 1.396 1_545 S
C237 C238 1.399 . S
C238 H224 0.929 . S
C238 C237 1.399 . S
C238 C239 1.385 . S
C239 H225 0.931 . S
C239 C238 1.385 . S
C239 C240 1.389 . S
C240 C239 1.389 . S
C240 C241 1.387 1_545 S
C241 H226 0.930 . S
C241 C236 1.390 . S
C241 C240 1.387 1_565 S
H242 C254 0.930 . S
H243 C256 0.930 . S
H244 C257 0.930 . S
H245 C261 0.959 . S
H246 C261 0.959 . S
H247 C261 0.961 1_655 S
H248 C262 0.960 1_655 S
H249 C262 0.961 . S
H250 C262 0.959 . S
H251 C265 0.929 . S
H252 C266 0.931 . S
H253 C268 0.930 . S
C254 H242 0.930 . S
C254 C255 1.399 1_554 S
C254 C259 1.399 . S
C255 C254 1.399 1_556 S
C255 C256 1.376 . S
C256 H243 0.930 . S
C256 C255 1.376 . S
C256 C257 1.388 . S
C257 H244 0.930 . S
C257 C256 1.388 . S
C257 C258 1.390 . S
C258 C257 1.390 . S
C258 C259 1.394 1_556 S
C258 C264 1.465 1_655 S
C259 C254 1.399 . S
C259 C258 1.394 1_554 S
C259 C260 1.516 1_655 S
C260 C259 1.516 1_455 S
C260 C261 1.502 . S
C260 C262 1.561 . S
C260 C263 1.526 . S
C261 H245 0.959 . S
C261 H246 0.959 . S
C261 H247 0.961 1_455 S
C261 C260 1.502 . S
C262 H248 0.960 1_455 S
C262 H249 0.961 . S
C262 H250 0.959 . S
C262 C260 1.561 . S
C263 C260 1.526 . S
C263 C264 1.396 1_554 S
C263 C268 1.390 . S
C264 C258 1.465 1_455 S
C264 C263 1.396 1_556 S
C264 C265 1.399 . S
C265 H251 0.929 . S
C265 C264 1.399 . S
C265 C266 1.385 . S
C266 H252 0.931 . S
C266 C265 1.385 . S
C266 C267 1.388 1_556 S
C267 C266 1.388 1_554 S
C267 C268 1.388 . S
C268 H253 0.930 . S
C268 C263 1.390 . S
C268 C267 1.388 . S
H269 C281 0.930 . S
H270 C283 0.930 . S
H271 C284 0.930 . S
H272 C288 0.959 . S
H273 C288 0.959 . S
H274 C288 0.961 1_455 S
H275 C289 0.960 . S
H276 C289 0.961 1_655 S
H277 C289 0.959 . S
H278 C292 0.929 . S
H279 C293 0.931 . S
H280 C295 0.930 . S
C281 H269 0.930 . S
C281 C282 1.399 . S
C281 C286 1.399 . S
C282 C281 1.399 . S
C282 C283 1.376 . S
C283 H270 0.930 . S
C283 C282 1.376 . S
C283 C284 1.388 . S
C284 H271 0.930 . S
C284 C283 1.388 . S
C284 C285 1.390 . S
C285 C284 1.390 . S
C285 C286 1.394 . S
C285 C291 1.465 1_455 S
C286 C281 1.399 . S
C286 C285 1.394 . S
C286 C287 1.516 1_455 S
C287 C286 1.516 1_655 S
C287 C288 1.502 . S
C287 C289 1.561 1_655 S
C287 C290 1.526 . S
C288 H272 0.959 . S
C288 H273 0.959 . S
C288 H274 0.961 1_655 S
C288 C287 1.502 . S
C289 H275 0.960 . S
C289 H276 0.961 1_455 S
C289 H277 0.959 . S
C289 C287 1.561 1_455 S
C290 C287 1.526 . S
C290 C291 1.396 . S
C290 C295 1.390 . S
C291 C285 1.465 1_655 S
C291 C290 1.396 . S
C291 C292 1.399 . S
C292 H278 0.929 . S
C292 C291 1.399 . S
C292 C293 1.385 . S
C293 H279 0.931 . S
C293 C292 1.385 . S
C293 C294 1.389 . S
C294 C293 1.389 . S
C294 C295 1.387 . S
C295 H280 0.930 . S
C295 C290 1.390 . S
C295 C294 1.387 . S
H296 C308 0.930 . S
H297 C310 0.930 . S
H298 C311 0.930 . S
H299 C315 0.959 . S
H300 C315 0.959 . S
H301 C315 0.961 . S
H302 C316 0.960 . S
H303 C316 0.961 . S
H304 C316 0.959 . S
H305 C319 0.929 . S
H306 C320 0.931 . S
H307 C322 0.930 . S
C308 H296 0.930 . S
C308 C309 1.388 1_545 S
C308 C313 1.399 . S
C309 C308 1.388 1_565 S
C309 C310 1.387 1_655 S
C310 H297 0.930 . S
C310 C309 1.387 1_455 S
C310 C311 1.388 . S
C311 H298 0.930 . S
C311 C310 1.388 . S
C311 C312 1.390 . S
C312 C311 1.390 . S
C312 C313 1.394 1_465 S
C312 C318 1.465 . S
C313 C308 1.399 . S
C313 C312 1.394 1_645 S
C313 C314 1.516 . S
C314 C313 1.516 . S
C314 C315 1.502 . S
C314 C316 1.561 1_655 S
C314 C317 1.526 . S
C315 H299 0.959 . S
C315 H300 0.959 . S
C315 H301 0.961 . S
C315 C314 1.502 . S
C316 H302 0.960 . S
C316 H303 0.961 . S
C316 H304 0.959 . S
C316 C314 1.561 1_455 S
C317 C314 1.526 . S
C317 C318 1.396 1_645 S
C317 C322 1.390 . S
C318 C312 1.465 . S
C318 C317 1.396 1_465 S
C318 C319 1.399 . S
C319 H305 0.929 . S
C319 C318 1.399 . S
C319 C320 1.385 . S
C320 H306 0.931 . S
C320 C319 1.385 . S
C320 C321 1.389 1_455 S
C321 C320 1.389 1_655 S
C321 C322 1.387 1_565 S
C322 H307 0.930 . S
C322 C317 1.390 . S
C322 C321 1.387 1_545 S
H323 C335 0.930 . S
H324 C337 0.930 . S
H325 C338 0.930 . S
H326 C342 0.959 . S
H327 C342 0.959 . S
H328 C342 0.961 . S
H329 C343 0.960 . S
H330 C343 0.961 . S
H331 C343 0.959 1_545 S
H332 C346 0.929 . S
H333 C347 0.931 . S
H334 C349 0.930 . S
C335 H323 0.930 . S
C335 C336 1.399 1_665 S
C335 C340 1.399 . S
C336 C335 1.399 1_445 S
C336 C337 1.376 . S
C337 H324 0.930 . S
C337 C336 1.376 . S
C337 C338 1.388 . S
C338 H325 0.930 . S
C338 C337 1.388 . S
C338 C339 1.390 . S
C339 C338 1.390 . S
C339 C340 1.394 1_445 S
C339 C345 1.465 . S
C340 C335 1.399 . S
C340 C339 1.394 1_665 S
C340 C341 1.516 . S
C341 C340 1.516 . S
C341 C342 1.502 . S
C341 C343 1.561 . S
C341 C344 1.526 . S
C342 H326 0.959 . S
C342 H327 0.959 . S
C342 H328 0.961 . S
C342 C341 1.502 . S
C343 H329 0.960 . S
C343 H330 0.961 . S
C343 H331 0.959 1_565 S
C343 C341 1.561 . S
C344 C341 1.526 . S
C344 C345 1.396 1_665 S
C344 C349 1.390 . S
C345 C339 1.465 . S
C345 C344 1.396 1_445 S
C345 C346 1.399 . S
C346 H332 0.929 . S
C346 C345 1.399 . S
C346 C347 1.385 . S
C347 H333 0.931 . S
C347 C346 1.385 . S
C347 C348 1.389 . S
C348 C347 1.389 . S
C348 C349 1.387 1_445 S
C349 H334 0.930 . S
C349 C344 1.390 . S
C349 C348 1.387 1_665 S
H350 C362 0.930 . S
H351 C364 0.930 . S
H352 C365 0.930 . S
H353 C369 0.959 . S
H354 C369 0.959 . S
H355 C369 0.961 . S
H356 C370 0.960 . S
H357 C370 0.961 . S
H358 C370 0.959 . S
H359 C373 0.929 . S
H360 C374 0.931 . S
H361 C376 0.930 . S
C362 H350 0.930 . S
C362 C363 1.399 . S
C362 C367 1.399 . S
C363 C362 1.399 . S
C363 C364 1.376 . S
C364 H351 0.930 . S
C364 C363 1.376 . S
C364 C365 1.388 . S
C365 H352 0.930 . S
C365 C364 1.388 . S
C365 C366 1.390 . S
C366 C365 1.390 . S
C366 C367 1.394 . S
C366 C372 1.465 . S
C367 C362 1.399 . S
C367 C366 1.394 . S
C367 C368 1.516 . S
C368 C367 1.516 . S
C368 C369 1.502 . S
C368 C370 1.561 . S
C368 C371 1.526 . S
C369 H353 0.959 . S
C369 H354 0.959 . S
C369 H355 0.961 . S
C369 C368 1.502 . S
C370 H356 0.960 . S
C370 H357 0.961 . S
C370 H358 0.959 . S
C370 C368 1.561 . S
C371 C368 1.526 . S
C371 C372 1.396 . S
C371 C376 1.390 . S
C372 C366 1.465 . S
C372 C371 1.396 . S
C372 C373 1.399 . S
C373 H359 0.929 . S
C373 C372 1.399 . S
C373 C374 1.385 . S
C374 H360 0.931 . S
C374 C373 1.385 . S
C374 C375 1.389 . S
C375 C374 1.389 . S
C375 C376 1.387 . S
C376 H361 0.930 . S
C376 C371 1.390 . S
C376 C375 1.387 . S
H377 C389 0.930 . S
H378 C391 0.930 . S
H379 C392 0.930 . S
H380 C396 0.959 . S
H381 C396 0.959 . S
H382 C396 0.961 . S
H383 C397 0.960 . S
H384 C397 0.961 . S
H385 C397 0.959 . S
H386 C400 0.929 . S
H387 C401 0.931 . S
H388 C403 0.930 . S
C389 H377 0.930 . S
C389 C390 1.399 . S
C389 C394 1.399 . S
C390 C389 1.399 . S
C390 C391 1.376 . S
C391 H378 0.930 . S
C391 C390 1.376 . S
C391 C392 1.388 . S
C392 H379 0.930 . S
C392 C391 1.388 . S
C392 C393 1.390 . S
C393 C392 1.390 . S
C393 C394 1.394 . S
C393 C399 1.465 . S
C394 C389 1.399 . S
C394 C393 1.394 . S
C394 C395 1.516 . S
C395 C394 1.516 . S
C395 C396 1.502 . S
C395 C397 1.561 . S
C395 C398 1.526 . S
C396 H380 0.959 . S
C396 H381 0.959 . S
C396 H382 0.961 . S
C396 C395 1.502 . S
C397 H383 0.960 . S
C397 H384 0.961 . S
C397 H385 0.959 . S
C397 C395 1.561 . S
C398 C395 1.526 . S
C398 C399 1.396 . S
C398 C403 1.390 . S
C399 C393 1.465 . S
C399 C398 1.396 . S
C399 C400 1.399 . S
C400 H386 0.929 . S
C400 C399 1.399 . S
C400 C401 1.385 . S
C401 H387 0.931 . S
C401 C400 1.385 . S
C401 C402 1.389 . S
C402 C401 1.389 . S
C402 C403 1.387 . S
C403 H388 0.930 . S
C403 C398 1.390 . S
C403 C402 1.387 . S
C93 C44 1.572 . S
C105 C2 1.527 1_556 S
C120 C42 1.577 . S
C132 C4 1.499 1_554 S
C147 C29 1.271 . S
C159 C72 1.340 . S
C174 C32 1.290 . S
C186 C69 1.320 . S
C201 C9 1.087 1_545 S
C213 C12 0.987 . S
C228 C22 1.459 1_565 S
C240 C24 1.544 1_545 S
C255 C49 0.994 . S
C267 C52 1.066 . S
C282 C64 1.526 . S
C294 C62 1.459 . S
C309 C38 1.500 1_565 S
C321 C19 1.446 1_655 S
C336 C18 1.457 1_455 S
C348 C39 1.470 1_545 S
C363 C78 1.496 . S
C375 C59 1.446 . S
C390 C79 1.495 . S
C402 C58 1.490 . S
