# Generated by pormake.
# Topology mok, (4)-cn, num edge types: 1
# Building blocks:
#     Node 0, Type 0, BuildingBlock: CEKHIL_clean_sbu_0, # of connection points: 4
#     Node 1, Type 0, BuildingBlock: CEKHIL_clean_sbu_0, # of connection points: 4
#     Node 2, Type 0, BuildingBlock: CEKHIL_clean_sbu_0, # of connection points: 4
#     Node 3, Type 0, BuildingBlock: CEKHIL_clean_sbu_0, # of connection points: 4
#     Node 4, Type 0, BuildingBlock: CEKHIL_clean_sbu_0, # of connection points: 4
#     Node 5, Type 0, BuildingBlock: CEKHIL_clean_sbu_0, # of connection points: 4
#     Node 6, Type 0, BuildingBlock: CEKHIL_clean_sbu_0, # of connection points: 4
#     Node 7, Type 0, BuildingBlock: CEKHIL_clean_sbu_0, # of connection points: 4
#     Edge 8, Type (0, 0), BuildingBlock: KIFKEQ_clean_linker_1, # of connection points: 2
#     Edge 9, Type (0, 0), BuildingBlock: KIFKEQ_clean_linker_1, # of connection points: 2
#     Edge 10, Type (0, 0), BuildingBlock: KIFKEQ_clean_linker_1, # of connection points: 2
#     Edge 11, Type (0, 0), BuildingBlock: KIFKEQ_clean_linker_1, # of connection points: 2
#     Edge 12, Type (0, 0), BuildingBlock: KIFKEQ_clean_linker_1, # of connection points: 2
#     Edge 13, Type (0, 0), BuildingBlock: KIFKEQ_clean_linker_1, # of connection points: 2
#     Edge 14, Type (0, 0), BuildingBlock: KIFKEQ_clean_linker_1, # of connection points: 2
#     Edge 15, Type (0, 0), BuildingBlock: KIFKEQ_clean_linker_1, # of connection points: 2
#     Edge 16, Type (0, 0), BuildingBlock: KIFKEQ_clean_linker_1, # of connection points: 2
#     Edge 17, Type (0, 0), BuildingBlock: KIFKEQ_clean_linker_1, # of connection points: 2
#     Edge 18, Type (0, 0), BuildingBlock: KIFKEQ_clean_linker_1, # of connection points: 2
#     Edge 19, Type (0, 0), BuildingBlock: KIFKEQ_clean_linker_1, # of connection points: 2
#     Edge 20, Type (0, 0), BuildingBlock: KIFKEQ_clean_linker_1, # of connection points: 2
#     Edge 21, Type (0, 0), BuildingBlock: KIFKEQ_clean_linker_1, # of connection points: 2
#     Edge 22, Type (0, 0), BuildingBlock: KIFKEQ_clean_linker_1, # of connection points: 2
#     Edge 23, Type (0, 0), BuildingBlock: KIFKEQ_clean_linker_1, # of connection points: 2
# Relax obj value: 0.017
# Max RMSD: 0.041
# Mean RMSD: 0.041
data_MOF--net-mok--node1-CEKHIL_clean_sbu_0--edge1-KIFKEQ_clean_linker_1
_symmetry_space_group_name_H-M    P1
_symmetry_Int_Tables_number       1
_symmetry_cell_setting            triclinic
loop_
_symmetry_equiv_pos_as_xyz
'x, y, z'
_cell_length_a     54.075023
_cell_length_b     15.615084
_cell_length_c     27.480299
_cell_angle_alpha  89.996822
_cell_angle_beta   90.030558
_cell_angle_gamma 89.95962
loop_
_atom_site_label
_atom_site_type_symbol
_atom_site_fract_x
_atom_site_fract_y
_atom_site_fract_z
_atom_type_partial_charge
Co0 Co 0.61448 0.30231 0.02781 0.0
O1 O 0.5791 0.2849 0.02836 0.0
O2 O 0.60595 0.189 0.00248 0.0
C3 C 0.61682 0.35619 0.1039 0.0
O4 O 0.65269 0.29777 0.02418 0.0
Co5 Co 0.63569 0.4874 0.0388 0.0
O6 O 0.66746 0.42634 0.0475 0.0
C7 C 0.61329 0.43351 0.94579 0.0
C8 C 0.58294 0.20893 0.01102 0.0
C9 C 0.67082 0.34824 0.03566 0.0
O10 O 0.61225 0.35519 0.96065 0.0
O11 O 0.61996 0.49577 0.97311 0.0
O12 O 0.6161 0.27381 0.0973 0.0
O13 O 0.6139 0.40189 0.06533 0.0
Co14 Co 0.40758 0.6976 0.02805 0.0
O15 O 0.44299 0.71456 0.02847 0.0
O16 O 0.41619 0.81067 0.00255 0.0
C17 C 0.40535 0.64405 0.10423 0.0
O18 O 0.36936 0.70283 0.02456 0.0
Co19 Co 0.38607 0.51305 0.0394 0.0
O20 O 0.3544 0.57467 0.04806 0.0
C21 C 0.40846 0.56597 0.94623 0.0
C22 C 0.43919 0.79052 0.01105 0.0
C23 C 0.35116 0.65278 0.03614 0.0
O24 O 0.40971 0.64434 0.96096 0.0
O25 O 0.40162 0.50403 0.97361 0.0
O26 O 0.40611 0.72639 0.0975 0.0
O27 O 0.4081 0.59812 0.06571 0.0
Co28 Co 0.6167 0.6977 0.50731 0.0
O29 O 0.5813 0.71467 0.50684 0.0
O30 O 0.60804 0.81081 0.53275 0.0
C31 C 0.61897 0.64405 0.43117 0.0
O32 O 0.65492 0.70283 0.51085 0.0
Co33 Co 0.63824 0.51304 0.49611 0.0
O34 O 0.66994 0.57444 0.48777 0.0
C35 C 0.61579 0.56622 0.58918 0.0
C36 C 0.58506 0.79064 0.52425 0.0
C37 C 0.67315 0.65261 0.49956 0.0
O38 O 0.61457 0.64457 0.57441 0.0
O39 O 0.62263 0.50419 0.56185 0.0
O40 O 0.61819 0.72639 0.43786 0.0
O41 O 0.61621 0.59817 0.46971 0.0
Co42 Co 0.40941 0.30175 0.50751 0.0
O43 O 0.4448 0.28448 0.50699 0.0
O44 O 0.41801 0.1884 0.53274 0.0
C45 C 0.40706 0.35587 0.43146 0.0
O46 O 0.3712 0.29704 0.51104 0.0
Co47 Co 0.38815 0.48691 0.49675 0.0
O48 O 0.35638 0.42592 0.48827 0.0
C49 C 0.41061 0.43275 0.58964 0.0
C50 C 0.441 0.20845 0.52426 0.0
C51 C 0.35304 0.34769 0.49983 0.0
O52 O 0.4116 0.35443 0.57475 0.0
O53 O 0.40398 0.49512 0.56235 0.0
O54 O 0.40783 0.27348 0.43799 0.0
O55 O 0.40995 0.40145 0.47007 0.0
Co56 Co 0.11508 0.80122 0.02763 0.0
O57 O 0.0797 0.7841 0.02816 0.0
O58 O 0.10651 0.68725 0.00328 0.0
C59 C 0.11745 0.85719 0.10332 0.0
O60 O 0.15324 0.79676 0.02422 0.0
Co61 Co 0.13576 0.98721 0.03592 0.0
O62 O 0.16782 0.92735 0.04424 0.0
C63 C 0.11282 0.9297 0.94449 0.0
C64 C 0.08351 0.7077 0.01143 0.0
C65 C 0.1713 0.8485 0.03418 0.0
O66 O 0.11301 0.85166 0.95985 0.0
O67 O 0.1187 0.99366 0.97124 0.0
O68 O 0.11665 0.77469 0.09734 0.0
O69 O 0.11446 0.9019 0.06436 0.0
Co70 Co 0.90721 0.20012 0.02681 0.0
O71 O 0.9426 0.21688 0.02766 0.0
O72 O 0.91595 0.3132 0.0014 0.0
C73 C 0.90473 0.14668 0.10294 0.0
O74 O 0.86899 0.20506 0.0229 0.0
Co75 Co 0.88594 0.01508 0.03777 0.0
O76 O 0.85416 0.07625 0.04567 0.0
C77 C 0.90853 0.06861 0.94496 0.0
C78 C 0.93891 0.29283 0.01017 0.0
C79 C 0.85082 0.15442 0.03394 0.0
O80 O 0.90954 0.14696 0.95975 0.0
O81 O 0.90178 0.00641 0.97222 0.0
O82 O 0.90551 0.22901 0.0962 0.0
O83 O 0.90766 0.10072 0.06448 0.0
Co84 Co 0.1168 0.20331 0.5064 0.0
O85 O 0.08145 0.22111 0.50568 0.0
O86 O 0.10835 0.31742 0.53074 0.0
C87 C 0.1191 0.14743 0.43068 0.0
O88 O 0.15497 0.20706 0.51003 0.0
Co89 Co 0.13731 0.01708 0.49807 0.0
O90 O 0.16943 0.07637 0.48983 0.0
C91 C 0.11424 0.07465 0.58935 0.0
C92 C 0.08533 0.29742 0.52245 0.0
C93 C 0.17298 0.15512 0.50003 0.0
O94 O 0.11458 0.15276 0.57412 0.0
O95 O 0.1201 0.0107 0.56257 0.0
O96 O 0.11845 0.22993 0.43673 0.0
O97 O 0.11607 0.10269 0.46961 0.0
Co98 Co 0.90912 0.80621 0.50636 0.0
O99 O 0.94454 0.78975 0.50561 0.0
O100 O 0.91797 0.69318 0.53169 0.0
C101 C 0.90653 0.85991 0.4303 0.0
O102 O 0.87093 0.80073 0.51018 0.0
Co103 Co 0.88748 0.99083 0.49553 0.0
O104 O 0.85584 0.92905 0.48704 0.0
C105 C 0.91019 0.93745 0.58834 0.0
C106 C 0.94091 0.71371 0.52302 0.0
C107 C 0.85267 0.85083 0.49882 0.0
O108 O 0.91134 0.85916 0.57348 0.0
O109 O 0.90334 0.99961 0.56109 0.0
O110 O 0.90746 0.77756 0.43693 0.0
O111 O 0.9094 0.90576 0.46882 0.0
H112 H 0.83256 0.31514 0.00996 0.0
H113 H 0.80912 0.06215 0.05396 0.0
H114 H 0.78919 0.36061 0.00725 0.0
H115 H 0.76638 0.1077 0.05211 0.0
H116 H 0.6893 0.19233 0.00384 0.0
H117 H 0.73267 0.14749 -5e-05 0.0
H118 H 0.75505 0.39043 0.06071 0.0
H119 H 0.71224 0.43553 0.06378 0.0
C120 C 0.81829 0.2693 0.01915 0.0
C121 C 0.82459 0.18499 0.03223 0.0
C122 C 0.79337 0.29536 0.01776 0.0
C123 C 0.77411 0.23775 0.02932 0.0
C124 C 0.7805 0.15359 0.04213 0.0
C125 C 0.80524 0.12771 0.04359 0.0
C126 C 0.70347 0.23606 0.0164 0.0
C127 C 0.69704 0.31758 0.0341 0.0
C128 C 0.72839 0.21037 0.01427 0.0
C129 C 0.74754 0.26549 0.02981 0.0
C130 C 0.74102 0.34674 0.04752 0.0
C131 C 0.71625 0.37229 0.04964 0.0
H132 H 0.2128 0.93914 0.05825 0.0
H133 H 0.18973 0.68958 0.00771 0.0
H134 H 0.25562 0.89358 0.05661 0.0
H135 H 0.23306 0.64425 0.00518 0.0
H136 H 0.30948 0.56402 0.06094 0.0
H137 H 0.26678 0.61013 0.05841 0.0
H138 H 0.28972 0.85736 0.00445 0.0
H139 H 0.33302 0.8114 0.00783 0.0
C140 C 0.21679 0.8744 0.04648 0.0
C141 C 0.19754 0.81804 0.03318 0.0
C142 C 0.24155 0.84853 0.04517 0.0
C143 C 0.24802 0.76533 0.03055 0.0
C144 C 0.22884 0.70867 0.01715 0.0
C145 C 0.20393 0.73466 0.01847 0.0
C146 C 0.30563 0.62844 0.04843 0.0
C147 C 0.32498 0.68396 0.03463 0.0
C148 C 0.28092 0.65461 0.04661 0.0
C149 C 0.27457 0.73733 0.03094 0.0
C150 C 0.29385 0.79329 0.01715 0.0
C151 C 0.31874 0.76695 0.01895 0.0
H152 H 0.81096 0.93852 0.47268 0.0
H153 H 0.83465 0.69307 0.52857 0.0
H154 H 0.76829 0.89217 0.47533 0.0
H155 H 0.79139 0.64691 0.53205 0.0
H156 H 0.71499 0.56241 0.47728 0.0
H157 H 0.75765 0.60887 0.47942 0.0
H158 H 0.73436 0.85889 0.52857 0.0
H159 H 0.69111 0.81255 0.52559 0.0
C160 C 0.80714 0.87451 0.48584 0.0
C161 C 0.82653 0.81955 0.50036 0.0
C162 C 0.78245 0.84821 0.48773 0.0
C163 C 0.77617 0.76595 0.50417 0.0
C164 C 0.79548 0.7106 0.51872 0.0
C165 C 0.82034 0.73705 0.51685 0.0
C166 C 0.71876 0.62751 0.48865 0.0
C167 C 0.69932 0.68374 0.50116 0.0
C168 C 0.74345 0.6539 0.49027 0.0
C169 C 0.74967 0.73753 0.50439 0.0
C170 C 0.73031 0.79409 0.51703 0.0
C171 C 0.70546 0.76753 0.51548 0.0
H172 H 0.21435 0.06492 0.47443 0.0
H173 H 0.19159 0.31265 0.52843 0.0
H174 H 0.25721 0.10968 0.47657 0.0
H175 H 0.23497 0.35713 0.53148 0.0
H176 H 0.31141 0.43842 0.47677 0.0
H177 H 0.26868 0.393 0.47882 0.0
H178 H 0.29141 0.14301 0.52909 0.0
H179 H 0.33476 0.1883 0.52615 0.0
C180 C 0.21842 0.12907 0.48708 0.0
C181 C 0.19925 0.18517 0.5012 0.0
C182 C 0.24321 0.15447 0.48867 0.0
C183 C 0.24978 0.23691 0.50443 0.0
C184 C 0.23067 0.29331 0.51862 0.0
C185 C 0.20573 0.26782 0.517 0.0
C186 C 0.30751 0.37354 0.48836 0.0
C187 C 0.32683 0.31704 0.50123 0.0
C188 C 0.28278 0.34774 0.48992 0.0
C189 C 0.27636 0.26445 0.50439 0.0
C190 C 0.2956 0.20755 0.5173 0.0
C191 C 0.32051 0.23352 0.51578 0.0
H192 H 0.60958 0.28431 0.19326 0.0
H193 H 0.63228 0.51842 0.12279 0.0
H194 H 0.61203 0.35509 0.27215 0.0
H195 H 0.63619 0.58808 0.20146 0.0
H196 H 0.61056 0.71605 0.34226 0.0
H197 H 0.61189 0.64529 0.26328 0.0
H198 H 0.63725 0.41238 0.3326 0.0
H199 H 0.63446 0.48208 0.41148 0.0
C200 C 0.61556 0.35045 0.1948 0.0
C201 C 0.62057 0.39601 0.15197 0.0
C202 C 0.61712 0.39112 0.24004 0.0
C203 C 0.6242 0.47782 0.24342 0.0
C204 C 0.6301 0.52207 0.2004 0.0
C205 C 0.62807 0.48188 0.15522 0.0
C206 C 0.61658 0.64995 0.34039 0.0
C207 C 0.62224 0.60441 0.38293 0.0
C208 C 0.6175 0.60929 0.29509 0.0
C209 C 0.62456 0.5226 0.29133 0.0
C210 C 0.63114 0.47838 0.334 0.0
C211 C 0.62976 0.51858 0.37928 0.0
H212 H 0.38975 0.48226 0.12388 0.0
H213 H 0.41369 0.71597 0.19319 0.0
H214 H 0.38683 0.41261 0.20274 0.0
H215 H 0.41222 0.64521 0.27217 0.0
H216 H 0.39168 0.51832 0.4126 0.0
H217 H 0.38788 0.58816 0.33395 0.0
H218 H 0.41196 0.355 0.26323 0.0
H219 H 0.41431 0.28407 0.34209 0.0
C220 C 0.39443 0.51871 0.1561 0.0
C221 C 0.40201 0.60446 0.15247 0.0
C222 C 0.39297 0.47853 0.20137 0.0
C223 C 0.39953 0.52266 0.24407 0.0
C224 C 0.40664 0.60928 0.24033 0.0
C225 C 0.40763 0.64994 0.19503 0.0
C226 C 0.3959 0.48179 0.38017 0.0
C227 C 0.40335 0.39582 0.3834 0.0
C228 C 0.39392 0.52208 0.33499 0.0
C229 C 0.39983 0.47782 0.29197 0.0
C230 C 0.40686 0.39104 0.29534 0.0
C231 C 0.40837 0.35029 0.34057 0.0
H232 H 0.40014 0.41492 0.89923 0.0
H233 H 0.42903 0.66986 0.87621 0.0
H234 H 0.4054 0.3831 0.81381 0.0
H235 H 0.43523 0.63651 0.79023 0.0
H236 H 0.40567 0.58693 0.63539 0.0
H237 H 0.40968 0.6179 0.72116 0.0
H238 H 0.43243 0.35661 0.7478 0.0
H239 H 0.42746 0.32433 0.66142 0.0
C240 C 0.40804 0.46394 0.87611 0.0
C241 C 0.4139 0.54548 0.89464 0.0
C242 C 0.41129 0.4452 0.82695 0.0
C243 C 0.4207 0.50715 0.7949 0.0
C244 C 0.42754 0.58768 0.81373 0.0
C245 C 0.42406 0.6068 0.86305 0.0
C246 C 0.41176 0.5359 0.65926 0.0
C247 C 0.41589 0.4526 0.64141 0.0
C248 C 0.41429 0.55411 0.70866 0.0
C249 C 0.42125 0.48978 0.74164 0.0
C250 C 0.42658 0.40738 0.72353 0.0
C251 C 0.42384 0.38888 0.67397 0.0
H252 H 0.6185 0.58753 0.90001 0.0
H253 H 0.59631 0.32542 0.87404 0.0
H254 H 0.61459 0.61849 0.81421 0.0
H255 H 0.59144 0.3577 0.78764 0.0
H256 H 0.62394 0.41509 0.63628 0.0
H257 H 0.6186 0.38352 0.72171 0.0
H258 H 0.58904 0.63751 0.74509 0.0
H259 H 0.5953 0.67059 0.65911 0.0
C260 C 0.61234 0.53662 0.87614 0.0
C261 C 0.60806 0.45345 0.89402 0.0
C262 C 0.60986 0.55482 0.82673 0.0
C263 C 0.60282 0.49061 0.79376 0.0
C264 C 0.59735 0.40837 0.8119 0.0
C265 C 0.60003 0.38987 0.86147 0.0
C266 C 0.61608 0.46429 0.65936 0.0
C267 C 0.61031 0.5459 0.64077 0.0
C268 C 0.61279 0.4457 0.70853 0.0
C269 C 0.60343 0.50788 0.74051 0.0
C270 C 0.59669 0.5885 0.72162 0.0
C271 C 0.6002 0.60746 0.67231 0.0
H272 H 0.10988 0.78621 0.19272 0.0
H273 H 0.13264 0.02005 0.12212 0.0
H274 H 0.11206 0.85715 0.27151 0.0
H275 H 0.13634 0.09004 0.20085 0.0
H276 H 0.11115 0.21887 0.34152 0.0
H277 H 0.11248 0.1479 0.26268 0.0
H278 H 0.13664 0.914 0.33259 0.0
H279 H 0.13379 0.98411 0.41145 0.0
C280 C 0.11581 0.85241 0.19422 0.0
C281 C 0.12093 0.89776 0.15135 0.0
C282 C 0.11723 0.89318 0.23945 0.0
C283 C 0.12429 0.97988 0.2429 0.0
C284 C 0.13026 0.02404 0.19982 0.0
C285 C 0.12835 0.9837 0.15459 0.0
C286 C 0.11689 0.15245 0.33985 0.0
C287 C 0.12221 0.10686 0.38256 0.0
C288 C 0.11782 0.11165 0.29458 0.0
C289 C 0.12457 0.02466 0.29092 0.0
C290 C 0.13077 0.98025 0.33381 0.0
C291 C 0.12936 0.02064 0.3791 0.0
H292 H 0.91391 0.78788 0.34106 0.0
H293 H 0.89074 0.02179 0.41126 0.0
H294 H 0.91141 0.85843 0.26211 0.0
H295 H 0.8868 0.09122 0.33251 0.0
H296 H 0.91278 0.219 0.19184 0.0
H297 H 0.91122 0.14849 0.27088 0.0
H298 H 0.88618 0.91536 0.20149 0.0
H299 H 0.88919 0.98482 0.12256 0.0
C300 C 0.90781 0.85392 0.33944 0.0
C301 C 0.90269 0.89952 0.38221 0.0
C302 C 0.90622 0.89444 0.29417 0.0
C303 C 0.89901 0.98103 0.2907 0.0
C304 C 0.89298 0.0253 0.33365 0.0
C305 C 0.89504 0.98525 0.37887 0.0
C306 C 0.90677 0.15291 0.19371 0.0
C307 C 0.90128 0.10721 0.15116 0.0
C308 C 0.90573 0.1124 0.23903 0.0
C309 C 0.8987 0.02571 0.24279 0.0
C310 C 0.89226 0.98137 0.20009 0.0
C311 C 0.89377 0.02141 0.15479 0.0
H312 H 0.92809 0.82997 0.65952 0.0
H313 H 0.90438 0.09087 0.63451 0.0
H314 H 0.93329 0.86206 0.74587 0.0
H315 H 0.90863 0.12161 0.72028 0.0
H316 H 0.92839 0.17412 0.87495 0.0
H317 H 0.93451 0.14166 0.78886 0.0
H318 H 0.90635 0.88595 0.8124 0.0
H319 H 0.90117 0.91694 0.89794 0.0
C320 C 0.92409 0.89412 0.6723 0.0
C321 C 0.91555 0.9574 0.64005 0.0
C322 C 0.92698 0.9125 0.72183 0.0
C323 C 0.92119 0.99433 0.74022 0.0
C324 C 0.91361 0.05829 0.70753 0.0
C325 C 0.91094 0.04022 0.65815 0.0
C326 C 0.92379 0.11073 0.86176 0.0
C327 C 0.91408 0.04855 0.89337 0.0
C328 C 0.92721 0.09214 0.81238 0.0
C329 C 0.92079 0.01125 0.79351 0.0
C330 C 0.9119 0.94841 0.82557 0.0
C331 C 0.9087 0.96665 0.8748 0.0
H332 H 0.09485 0.07747 0.90528 0.0
H333 H 0.11868 0.82241 0.8667 0.0
H334 H 0.09029 0.11313 0.81956 0.0
H335 H 0.11535 0.85899 0.78084 0.0
H336 H 0.09598 0.9269 0.62794 0.0
H337 H 0.09069 0.89121 0.71347 0.0
H338 H 0.11561 0.14497 0.75315 0.0
H339 H 0.11967 0.18161 0.66743 0.0
C340 C 0.09904 0.02887 0.87838 0.0
C341 C 0.10729 0.94728 0.89271 0.0
C342 C 0.09661 0.04953 0.82916 0.0
C343 C 0.10277 0.98955 0.79295 0.0
C344 C 0.11011 0.90673 0.80747 0.0
C345 C 0.11214 0.88564 0.85679 0.0
C346 C 0.1 0.9754 0.655 0.0
C347 C 0.10841 0.05692 0.64098 0.0
C348 C 0.09715 0.95473 0.70412 0.0
C349 C 0.10303 0.0146 0.74055 0.0
C350 C 0.11056 0.09732 0.72632 0.0
C351 C 0.11302 0.11843 0.67708 0.0
H352 H 0.43801 0.9577 0.97853 0.0
H353 H 0.48817 0.76101 0.02805 0.0
H354 H 0.47265 0.05793 0.9721 0.0
H355 H 0.52249 0.86096 0.02299 0.0
H356 H 0.58419 0.04156 0.97875 0.0
H357 H 0.54958 0.94117 0.97234 0.0
H358 H 0.49967 0.13816 0.02286 0.0
H359 H 0.53396 0.23822 0.02792 0.0
C360 C 0.45641 0.93569 0.98785 0.0
C361 C 0.4602 0.85122 0.00392 0.0
C362 C 0.47632 0.99335 0.98451 0.0
C363 C 0.50056 0.96814 0.9972 0.0
C364 C 0.50431 0.88293 0.01218 0.0
C365 C 0.48448 0.82548 0.01544 0.0
C366 C 0.56578 0.06353 0.988 0.0
C367 C 0.56196 0.14804 0.00396 0.0
C368 C 0.54589 0.00578 0.98466 0.0
C369 C 0.52163 0.03097 0.99724 0.0
C370 C 0.51787 0.11621 0.01213 0.0
C371 C 0.53768 0.17372 0.01539 0.0
H372 H 0.53609 0.76093 0.50736 0.0
H373 H 0.58614 0.9579 0.55664 0.0
H374 H 0.50171 0.86074 0.51243 0.0
H375 H 0.55143 0.05801 0.56307 0.0
H376 H 0.48996 0.23791 0.50725 0.0
H377 H 0.52432 0.13802 0.51232 0.0
H378 H 0.47458 0.94091 0.56306 0.0
H379 H 0.43989 0.04113 0.55662 0.0
C380 C 0.53975 0.82543 0.51992 0.0
C381 C 0.56401 0.85129 0.53137 0.0
C382 C 0.51988 0.8828 0.52318 0.0
C383 C 0.52357 0.96805 0.5381 0.0
C384 C 0.5478 0.99339 0.55073 0.0
C385 C 0.56775 0.9358 0.54737 0.0
C386 C 0.48629 0.17342 0.51983 0.0
C387 C 0.46203 0.14766 0.53131 0.0
C388 C 0.50615 0.11601 0.5231 0.0
C389 C 0.50245 0.03079 0.53806 0.0
C390 C 0.47822 0.00551 0.55069 0.0
C391 C 0.45828 0.06316 0.54733 0.0
H392 H 0.03456 0.73811 0.02802 0.0
H393 H 0.0845 0.54014 0.97938 0.0
H394 H 1.00008 0.639 0.02261 0.0
H395 H 0.04968 0.4407 0.97256 0.0
H396 H 0.98778 0.26218 0.02751 0.0
H397 H 0.0223 0.36122 0.02281 0.0
H398 H 0.97298 0.55957 0.97165 0.0
H399 H 0.93811 0.46019 0.97774 0.0
C400 C 0.03818 0.67351 0.01555 0.0
C401 C 0.06244 0.64718 0.00437 0.0
C402 C 0.01825 0.61655 0.01207 0.0
C403 C 0.02187 0.53125 0.99718 0.0
C404 C 0.04611 0.50539 0.98488 0.0
C405 C 0.06612 0.56258 0.98846 0.0
C406 C 0.98423 0.32676 0.01492 0.0
C407 C 0.96004 0.35313 0.00323 0.0
C408 C 1.00419 0.38369 0.01186 0.0
C409 C 1.00066 0.46901 0.99691 0.0
C410 C 0.97649 0.49487 0.98403 0.0
C411 C 0.95645 0.43771 0.98719 0.0
H412 H 0.03637 0.26763 0.50588 0.0
H413 H 0.08648 0.46523 0.5541 0.0
H414 H 1.00197 0.36725 0.51105 0.0
H415 H 0.05174 0.56523 0.56065 0.0
H416 H 0.98977 0.74404 0.50542 0.0
H417 H 0.0243 0.64477 0.51026 0.0
H418 H 0.97501 0.44714 0.56202 0.0
H419 H 0.94016 0.54667 0.55579 0.0
C420 C 0.04004 0.33226 0.51821 0.0
C421 C 0.06432 0.35832 0.52936 0.0
C422 C 0.02016 0.38952 0.52155 0.0
C423 C 0.02385 0.47487 0.53626 0.0
C424 C 0.04811 0.5005 0.54849 0.0
C425 C 0.06808 0.44299 0.54506 0.0
C426 C 0.98624 0.67956 0.51817 0.0
C427 C 0.96206 0.65341 0.52998 0.0
C428 C 1.00619 0.62252 0.5213 0.0
C429 C 1.00266 0.53732 0.53645 0.0
C430 C 0.97851 0.51171 0.54947 0.0
C431 C 0.95848 0.56897 0.54623 0.0
loop_
_geom_bond_atom_site_label_1
_geom_bond_atom_site_label_2
_geom_bond_distance
_geom_bond_site_symmetry_2
_ccdc_geom_bond_type
Co0 O1 2.216 . S
Co0 O2 2.091 . S
Co0 O4 2.004 . S
Co0 O10 2.021 1_554 S
Co0 O12 2.137 . S
Co0 O13 2.244 . S
O1 Co0 2.216 . S
O1 C8 1.247 . S
O2 Co0 2.091 . S
O2 C8 1.261 . S
C3 O12 1.247 . S
C3 O13 1.272 . S
O4 Co0 2.004 . S
O4 C9 1.259 . S
Co5 O6 2.061 . S
Co5 O11 2.052 1_554 S
Co5 O13 2.135 . S
O6 Co5 2.061 . S
O6 C9 1.235 . S
C7 O10 1.238 . S
C7 O11 1.241 . S
C8 O1 1.247 . S
C8 O2 1.261 . S
C9 O4 1.259 . S
C9 O6 1.235 . S
O10 Co0 2.021 1_556 S
O10 C7 1.238 . S
O11 Co5 2.052 1_556 S
O11 C7 1.241 . S
O12 Co0 2.137 . S
O12 C3 1.247 . S
O13 Co0 2.244 . S
O13 C3 1.272 . S
O13 Co5 2.135 . S
Co14 O15 2.216 . S
Co14 O16 2.091 . S
Co14 O18 2.004 . S
Co14 O24 2.021 1_554 S
Co14 O26 2.137 . S
Co14 O27 2.244 . S
O15 Co14 2.216 . S
O15 C22 1.247 . S
O16 Co14 2.091 . S
O16 C22 1.261 . S
C17 O26 1.247 . S
C17 O27 1.272 . S
O18 Co14 2.004 . S
O18 C23 1.259 . S
Co19 O20 2.061 . S
Co19 O25 2.052 1_554 S
Co19 O27 2.135 . S
O20 Co19 2.061 . S
O20 C23 1.235 . S
C21 O24 1.238 . S
C21 O25 1.241 . S
C22 O15 1.247 . S
C22 O16 1.261 . S
C23 O18 1.259 . S
C23 O20 1.235 . S
O24 Co14 2.021 1_556 S
O24 C21 1.238 . S
O25 Co19 2.052 1_556 S
O25 C21 1.241 . S
O26 Co14 2.137 . S
O26 C17 1.247 . S
O27 Co14 2.244 . S
O27 C17 1.272 . S
O27 Co19 2.135 . S
Co28 O29 2.216 . S
Co28 O30 2.091 . S
Co28 O32 2.004 . S
Co28 O38 2.021 . S
Co28 O40 2.137 . S
Co28 O41 2.244 . S
O29 Co28 2.216 . S
O29 C36 1.247 . S
O30 Co28 2.091 . S
O30 C36 1.261 . S
C31 O40 1.247 . S
C31 O41 1.272 . S
O32 Co28 2.004 . S
O32 C37 1.259 . S
Co33 O34 2.061 . S
Co33 O39 2.052 . S
Co33 O41 2.135 . S
O34 Co33 2.061 . S
O34 C37 1.235 . S
C35 O38 1.238 . S
C35 O39 1.241 . S
C36 O29 1.247 . S
C36 O30 1.261 . S
C37 O32 1.259 . S
C37 O34 1.235 . S
O38 Co28 2.021 . S
O38 C35 1.238 . S
O39 Co33 2.052 . S
O39 C35 1.241 . S
O40 Co28 2.137 . S
O40 C31 1.247 . S
O41 Co28 2.244 . S
O41 C31 1.272 . S
O41 Co33 2.135 . S
Co42 O43 2.216 . S
Co42 O44 2.091 . S
Co42 O46 2.004 . S
Co42 O52 2.021 . S
Co42 O54 2.137 . S
Co42 O55 2.244 . S
O43 Co42 2.216 . S
O43 C50 1.247 . S
O44 Co42 2.091 . S
O44 C50 1.261 . S
C45 O54 1.247 . S
C45 O55 1.272 . S
O46 Co42 2.004 . S
O46 C51 1.259 . S
Co47 O48 2.061 . S
Co47 O53 2.052 . S
Co47 O55 2.135 . S
O48 Co47 2.061 . S
O48 C51 1.235 . S
C49 O52 1.238 . S
C49 O53 1.241 . S
C50 O43 1.247 . S
C50 O44 1.261 . S
C51 O46 1.259 . S
C51 O48 1.235 . S
O52 Co42 2.021 . S
O52 C49 1.238 . S
O53 Co47 2.052 . S
O53 C49 1.241 . S
O54 Co42 2.137 . S
O54 C45 1.247 . S
O55 Co42 2.244 . S
O55 C45 1.272 . S
O55 Co47 2.135 . S
Co56 O57 2.216 . S
Co56 O58 2.091 . S
Co56 O60 2.004 . S
Co56 O66 2.021 1_554 S
Co56 O68 2.137 . S
Co56 O69 2.244 . S
O57 Co56 2.216 . S
O57 C64 1.247 . S
O58 Co56 2.091 . S
O58 C64 1.261 . S
C59 O68 1.247 . S
C59 O69 1.272 . S
O60 Co56 2.004 . S
O60 C65 1.259 . S
Co61 O62 2.061 . S
Co61 O67 2.052 1_554 S
Co61 O69 2.135 . S
O62 Co61 2.061 . S
O62 C65 1.235 . S
C63 O66 1.238 . S
C63 O67 1.241 . S
C64 O57 1.247 . S
C64 O58 1.261 . S
C65 O60 1.259 . S
C65 O62 1.235 . S
O66 Co56 2.021 1_556 S
O66 C63 1.238 . S
O67 Co61 2.052 1_556 S
O67 C63 1.241 . S
O68 Co56 2.137 . S
O68 C59 1.247 . S
O69 Co56 2.244 . S
O69 C59 1.272 . S
O69 Co61 2.135 . S
Co70 O71 2.216 . S
Co70 O72 2.091 . S
Co70 O74 2.004 . S
Co70 O80 2.021 1_554 S
Co70 O82 2.137 . S
Co70 O83 2.244 . S
O71 Co70 2.216 . S
O71 C78 1.247 . S
O72 Co70 2.091 . S
O72 C78 1.261 . S
C73 O82 1.247 . S
C73 O83 1.272 . S
O74 Co70 2.004 . S
O74 C79 1.259 . S
Co75 O76 2.061 . S
Co75 O81 2.052 1_554 S
Co75 O83 2.135 . S
O76 Co75 2.061 . S
O76 C79 1.235 . S
C77 O80 1.238 . S
C77 O81 1.241 . S
C78 O71 1.247 . S
C78 O72 1.261 . S
C79 O74 1.259 . S
C79 O76 1.235 . S
O80 Co70 2.021 1_556 S
O80 C77 1.238 . S
O81 Co75 2.052 1_556 S
O81 C77 1.241 . S
O82 Co70 2.137 . S
O82 C73 1.247 . S
O83 Co70 2.244 . S
O83 C73 1.272 . S
O83 Co75 2.135 . S
Co84 O85 2.216 . S
Co84 O86 2.091 . S
Co84 O88 2.004 . S
Co84 O94 2.021 . S
Co84 O96 2.137 . S
Co84 O97 2.244 . S
O85 Co84 2.216 . S
O85 C92 1.247 . S
O86 Co84 2.091 . S
O86 C92 1.261 . S
C87 O96 1.247 . S
C87 O97 1.272 . S
O88 Co84 2.004 . S
O88 C93 1.259 . S
Co89 O90 2.061 . S
Co89 O95 2.052 . S
Co89 O97 2.135 . S
O90 Co89 2.061 . S
O90 C93 1.235 . S
C91 O94 1.238 . S
C91 O95 1.241 . S
C92 O85 1.247 . S
C92 O86 1.261 . S
C93 O88 1.259 . S
C93 O90 1.235 . S
O94 Co84 2.021 . S
O94 C91 1.238 . S
O95 Co89 2.052 . S
O95 C91 1.241 . S
O96 Co84 2.137 . S
O96 C87 1.247 . S
O97 Co84 2.244 . S
O97 C87 1.272 . S
O97 Co89 2.135 . S
Co98 O99 2.216 . S
Co98 O100 2.091 . S
Co98 O102 2.004 . S
Co98 O108 2.021 . S
Co98 O110 2.137 . S
Co98 O111 2.244 . S
O99 Co98 2.216 . S
O99 C106 1.247 . S
O100 Co98 2.091 . S
O100 C106 1.261 . S
C101 O110 1.247 . S
C101 O111 1.272 . S
O102 Co98 2.004 . S
O102 C107 1.259 . S
Co103 O104 2.061 . S
Co103 O109 2.052 . S
Co103 O111 2.135 . S
O104 Co103 2.061 . S
O104 C107 1.235 . S
C105 O108 1.238 . S
C105 O109 1.241 . S
C106 O99 1.247 . S
C106 O100 1.261 . S
C107 O102 1.259 . S
C107 O104 1.235 . S
O108 Co98 2.021 . S
O108 C105 1.238 . S
O109 Co103 2.052 . S
O109 C105 1.241 . S
O110 Co98 2.137 . S
O110 C101 1.247 . S
O111 Co98 2.244 . S
O111 C101 1.272 . S
O111 Co103 2.135 . S
H112 C120 0.950 . S
H113 C125 0.950 . S
H114 C122 0.950 . S
H115 C124 0.950 . S
H116 C126 0.950 . S
H117 C128 0.950 . S
H118 C130 0.950 . S
H119 C131 0.950 . S
C120 H112 0.950 . S
C120 C121 1.386 . S
C120 C122 1.391 . S
C121 C120 1.386 . S
C121 C125 1.393 1_554 S
C122 H114 0.950 . S
C122 C120 1.391 . S
C122 C123 1.400 . S
C123 C122 1.400 . S
C123 C124 1.398 1_554 S
C123 C129 1.491 . S
C124 H115 0.950 . S
C124 C123 1.398 1_556 S
C124 C125 1.391 . S
C125 H113 0.950 . S
C125 C121 1.393 1_556 S
C125 C124 1.391 . S
C126 H116 0.950 . S
C126 C127 1.386 1_556 S
C126 C128 1.391 . S
C127 C126 1.386 1_554 S
C127 C131 1.393 . S
C128 H117 0.950 . S
C128 C126 1.391 . S
C128 C129 1.400 1_556 S
C129 C123 1.491 . S
C129 C128 1.400 1_554 S
C129 C130 1.398 . S
C130 H118 0.950 . S
C130 C129 1.398 . S
C130 C131 1.391 . S
C131 H119 0.950 . S
C131 C127 1.393 . S
C131 C130 1.391 . S
H132 C140 0.950 . S
H133 C145 0.950 . S
H134 C142 0.950 . S
H135 C144 0.950 . S
H136 C146 0.950 . S
H137 C148 0.950 . S
H138 C150 0.950 . S
H139 C151 0.950 . S
C140 H132 0.950 . S
C140 C141 1.386 . S
C140 C142 1.391 . S
C141 C140 1.386 . S
C141 C145 1.393 1_554 S
C142 H134 0.950 . S
C142 C140 1.391 . S
C142 C143 1.400 . S
C143 C142 1.400 . S
C143 C144 1.398 1_554 S
C143 C149 1.491 . S
C144 H135 0.950 . S
C144 C143 1.398 1_556 S
C144 C145 1.391 . S
C145 H133 0.950 . S
C145 C141 1.393 1_556 S
C145 C144 1.391 . S
C146 H136 0.950 . S
C146 C147 1.386 1_556 S
C146 C148 1.391 . S
C147 C146 1.386 1_554 S
C147 C151 1.393 . S
C148 H137 0.950 . S
C148 C146 1.391 . S
C148 C149 1.400 1_556 S
C149 C143 1.491 . S
C149 C148 1.400 1_554 S
C149 C150 1.398 . S
C150 H138 0.950 . S
C150 C149 1.398 . S
C150 C151 1.391 . S
C151 H139 0.950 . S
C151 C147 1.393 . S
C151 C150 1.391 . S
H152 C160 0.950 . S
H153 C165 0.950 . S
H154 C162 0.950 . S
H155 C164 0.950 . S
H156 C166 0.950 . S
H157 C168 0.950 . S
H158 C170 0.950 . S
H159 C171 0.950 . S
C160 H152 0.950 . S
C160 C161 1.386 . S
C160 C162 1.391 . S
C161 C160 1.386 . S
C161 C165 1.393 . S
C162 H154 0.950 . S
C162 C160 1.391 . S
C162 C163 1.400 . S
C163 C162 1.400 . S
C163 C164 1.398 . S
C163 C169 1.491 . S
C164 H155 0.950 . S
C164 C163 1.398 . S
C164 C165 1.391 . S
C165 H153 0.950 . S
C165 C161 1.393 . S
C165 C164 1.391 . S
C166 H156 0.950 . S
C166 C167 1.386 . S
C166 C168 1.391 . S
C167 C166 1.386 . S
C167 C171 1.393 . S
C168 H157 0.950 . S
C168 C166 1.391 . S
C168 C169 1.400 . S
C169 C163 1.491 . S
C169 C168 1.400 . S
C169 C170 1.398 . S
C170 H158 0.950 . S
C170 C169 1.398 . S
C170 C171 1.391 . S
C171 H159 0.950 . S
C171 C167 1.393 . S
C171 C170 1.391 . S
H172 C180 0.950 . S
H173 C185 0.950 . S
H174 C182 0.950 . S
H175 C184 0.950 . S
H176 C186 0.950 . S
H177 C188 0.950 . S
H178 C190 0.950 . S
H179 C191 0.950 . S
C180 H172 0.950 . S
C180 C181 1.386 . S
C180 C182 1.391 . S
C181 C180 1.386 . S
C181 C185 1.393 . S
C182 H174 0.950 . S
C182 C180 1.391 . S
C182 C183 1.400 . S
C183 C182 1.400 . S
C183 C184 1.398 . S
C183 C189 1.491 . S
C184 H175 0.950 . S
C184 C183 1.398 . S
C184 C185 1.391 . S
C185 H173 0.950 . S
C185 C181 1.393 . S
C185 C184 1.391 . S
C186 H176 0.950 . S
C186 C187 1.386 . S
C186 C188 1.391 . S
C187 C186 1.386 . S
C187 C191 1.393 . S
C188 H177 0.950 . S
C188 C186 1.391 . S
C188 C189 1.400 . S
C189 C183 1.491 . S
C189 C188 1.400 . S
C189 C190 1.398 . S
C190 H178 0.950 . S
C190 C189 1.398 . S
C190 C191 1.391 . S
C191 H179 0.950 . S
C191 C187 1.393 . S
C191 C190 1.391 . S
H192 C200 0.950 . S
H193 C205 0.950 . S
H194 C202 0.950 . S
H195 C204 0.950 . S
H196 C206 0.950 . S
H197 C208 0.950 . S
H198 C210 0.950 . S
H199 C211 0.950 . S
C200 H192 0.950 . S
C200 C201 1.386 . S
C200 C202 1.391 . S
C201 C200 1.386 . S
C201 C205 1.393 . S
C202 H194 0.950 . S
C202 C200 1.391 . S
C202 C203 1.400 . S
C203 C202 1.400 . S
C203 C204 1.398 . S
C203 C209 1.491 . S
C204 H195 0.950 . S
C204 C203 1.398 . S
C204 C205 1.391 . S
C205 H193 0.950 . S
C205 C201 1.393 . S
C205 C204 1.391 . S
C206 H196 0.950 . S
C206 C207 1.386 . S
C206 C208 1.391 . S
C207 C206 1.386 . S
C207 C211 1.393 . S
C208 H197 0.950 . S
C208 C206 1.391 . S
C208 C209 1.400 . S
C209 C203 1.491 . S
C209 C208 1.400 . S
C209 C210 1.398 . S
C210 H198 0.950 . S
C210 C209 1.398 . S
C210 C211 1.391 . S
C211 H199 0.950 . S
C211 C207 1.393 . S
C211 C210 1.391 . S
H212 C220 0.950 . S
H213 C225 0.950 . S
H214 C222 0.950 . S
H215 C224 0.950 . S
H216 C226 0.950 . S
H217 C228 0.950 . S
H218 C230 0.950 . S
H219 C231 0.950 . S
C220 H212 0.950 . S
C220 C221 1.386 . S
C220 C222 1.391 . S
C221 C220 1.386 . S
C221 C225 1.393 . S
C222 H214 0.950 . S
C222 C220 1.391 . S
C222 C223 1.400 . S
C223 C222 1.400 . S
C223 C224 1.398 . S
C223 C229 1.491 . S
C224 H215 0.950 . S
C224 C223 1.398 . S
C224 C225 1.391 . S
C225 H213 0.950 . S
C225 C221 1.393 . S
C225 C224 1.391 . S
C226 H216 0.950 . S
C226 C227 1.386 . S
C226 C228 1.391 . S
C227 C226 1.386 . S
C227 C231 1.393 . S
C228 H217 0.950 . S
C228 C226 1.391 . S
C228 C229 1.400 . S
C229 C223 1.491 . S
C229 C228 1.400 . S
C229 C230 1.398 . S
C230 H218 0.950 . S
C230 C229 1.398 . S
C230 C231 1.391 . S
C231 H219 0.950 . S
C231 C227 1.393 . S
C231 C230 1.391 . S
H232 C240 0.950 . S
H233 C245 0.950 . S
H234 C242 0.950 . S
H235 C244 0.950 . S
H236 C246 0.950 . S
H237 C248 0.950 . S
H238 C250 0.950 . S
H239 C251 0.950 . S
C240 H232 0.950 . S
C240 C241 1.386 . S
C240 C242 1.391 . S
C241 C240 1.386 . S
C241 C245 1.393 . S
C242 H234 0.950 . S
C242 C240 1.391 . S
C242 C243 1.400 . S
C243 C242 1.400 . S
C243 C244 1.398 . S
C243 C249 1.491 . S
C244 H235 0.950 . S
C244 C243 1.398 . S
C244 C245 1.391 . S
C245 H233 0.950 . S
C245 C241 1.393 . S
C245 C244 1.391 . S
C246 H236 0.950 . S
C246 C247 1.386 . S
C246 C248 1.391 . S
C247 C246 1.386 . S
C247 C251 1.393 . S
C248 H237 0.950 . S
C248 C246 1.391 . S
C248 C249 1.400 . S
C249 C243 1.491 . S
C249 C248 1.400 . S
C249 C250 1.398 . S
C250 H238 0.950 . S
C250 C249 1.398 . S
C250 C251 1.391 . S
C251 H239 0.950 . S
C251 C247 1.393 . S
C251 C250 1.391 . S
H252 C260 0.950 . S
H253 C265 0.950 . S
H254 C262 0.950 . S
H255 C264 0.950 . S
H256 C266 0.950 . S
H257 C268 0.950 . S
H258 C270 0.950 . S
H259 C271 0.950 . S
C260 H252 0.950 . S
C260 C261 1.386 . S
C260 C262 1.391 . S
C261 C260 1.386 . S
C261 C265 1.393 . S
C262 H254 0.950 . S
C262 C260 1.391 . S
C262 C263 1.400 . S
C263 C262 1.400 . S
C263 C264 1.398 . S
C263 C269 1.491 . S
C264 H255 0.950 . S
C264 C263 1.398 . S
C264 C265 1.391 . S
C265 H253 0.950 . S
C265 C261 1.393 . S
C265 C264 1.391 . S
C266 H256 0.950 . S
C266 C267 1.386 . S
C266 C268 1.391 . S
C267 C266 1.386 . S
C267 C271 1.393 . S
C268 H257 0.950 . S
C268 C266 1.391 . S
C268 C269 1.400 . S
C269 C263 1.491 . S
C269 C268 1.400 . S
C269 C270 1.398 . S
C270 H258 0.950 . S
C270 C269 1.398 . S
C270 C271 1.391 . S
C271 H259 0.950 . S
C271 C267 1.393 . S
C271 C270 1.391 . S
H272 C280 0.950 . S
H273 C285 0.950 . S
H274 C282 0.950 . S
H275 C284 0.950 . S
H276 C286 0.950 . S
H277 C288 0.950 . S
H278 C290 0.950 . S
H279 C291 0.950 . S
C280 H272 0.950 . S
C280 C281 1.386 . S
C280 C282 1.391 . S
C281 C280 1.386 . S
C281 C285 1.393 1_565 S
C282 H274 0.950 . S
C282 C280 1.391 . S
C282 C283 1.400 . S
C283 C282 1.400 . S
C283 C284 1.398 1_565 S
C283 C289 1.491 1_565 S
C284 H275 0.950 . S
C284 C283 1.398 1_545 S
C284 C285 1.391 . S
C285 H273 0.950 . S
C285 C281 1.393 1_545 S
C285 C284 1.391 . S
C286 H276 0.950 . S
C286 C287 1.386 . S
C286 C288 1.391 . S
C287 C286 1.386 . S
C287 C291 1.393 1_545 S
C288 H277 0.950 . S
C288 C286 1.391 . S
C288 C289 1.400 . S
C289 C283 1.491 1_545 S
C289 C288 1.400 . S
C289 C290 1.398 1_545 S
C290 H278 0.950 . S
C290 C289 1.398 1_565 S
C290 C291 1.391 . S
C291 H279 0.950 . S
C291 C287 1.393 1_565 S
C291 C290 1.391 . S
H292 C300 0.950 . S
H293 C305 0.950 . S
H294 C302 0.950 . S
H295 C304 0.950 . S
H296 C306 0.950 . S
H297 C308 0.950 . S
H298 C310 0.950 . S
H299 C311 0.950 . S
C300 H292 0.950 . S
C300 C301 1.386 . S
C300 C302 1.391 . S
C301 C300 1.386 . S
C301 C305 1.393 . S
C302 H294 0.950 . S
C302 C300 1.391 . S
C302 C303 1.400 . S
C303 C302 1.400 . S
C303 C304 1.398 1_565 S
C303 C309 1.491 1_565 S
C304 H295 0.950 . S
C304 C303 1.398 1_545 S
C304 C305 1.391 1_545 S
C305 H293 0.950 . S
C305 C301 1.393 . S
C305 C304 1.391 1_565 S
C306 H296 0.950 . S
C306 C307 1.386 . S
C306 C308 1.391 . S
C307 C306 1.386 . S
C307 C311 1.393 . S
C308 H297 0.950 . S
C308 C306 1.391 . S
C308 C309 1.400 . S
C309 C303 1.491 1_545 S
C309 C308 1.400 . S
C309 C310 1.398 1_545 S
C310 H298 0.950 . S
C310 C309 1.398 1_565 S
C310 C311 1.391 1_565 S
C311 H299 0.950 . S
C311 C307 1.393 . S
C311 C310 1.391 1_545 S
H312 C320 0.950 . S
H313 C325 0.950 . S
H314 C322 0.950 . S
H315 C324 0.950 1_545 S
H316 C326 0.950 . S
H317 C328 0.950 . S
H318 C330 0.950 1_565 S
H319 C331 0.950 . S
C320 H312 0.950 . S
C320 C321 1.386 . S
C320 C322 1.391 . S
C321 C320 1.386 . S
C321 C325 1.393 . S
C322 H314 0.950 . S
C322 C320 1.391 . S
C322 C323 1.400 . S
C323 C322 1.400 . S
C323 C324 1.398 . S
C323 C329 1.491 1_565 S
C324 H315 0.950 1_565 S
C324 C323 1.398 . S
C324 C325 1.391 . S
C325 H313 0.950 . S
C325 C321 1.393 . S
C325 C324 1.391 . S
C326 H316 0.950 . S
C326 C327 1.386 . S
C326 C328 1.391 . S
C327 C326 1.386 . S
C327 C331 1.393 . S
C328 H317 0.950 . S
C328 C326 1.391 . S
C328 C329 1.400 . S
C329 C323 1.491 1_545 S
C329 C328 1.400 . S
C329 C330 1.398 . S
C330 H318 0.950 1_545 S
C330 C329 1.398 . S
C330 C331 1.391 . S
C331 H319 0.950 . S
C331 C327 1.393 . S
C331 C330 1.391 . S
H332 C340 0.950 . S
H333 C345 0.950 . S
H334 C342 0.950 . S
H335 C344 0.950 . S
H336 C346 0.950 . S
H337 C348 0.950 . S
H338 C350 0.950 . S
H339 C351 0.950 . S
C340 H332 0.950 . S
C340 C341 1.386 1_545 S
C340 C342 1.391 . S
C341 C340 1.386 1_565 S
C341 C345 1.393 . S
C342 H334 0.950 . S
C342 C340 1.391 . S
C342 C343 1.400 1_545 S
C343 C342 1.400 1_565 S
C343 C344 1.398 . S
C343 C349 1.491 1_565 S
C344 H335 0.950 . S
C344 C343 1.398 . S
C344 C345 1.391 . S
C345 H333 0.950 . S
C345 C341 1.393 . S
C345 C344 1.391 . S
C346 H336 0.950 . S
C346 C347 1.386 1_565 S
C346 C348 1.391 . S
C347 C346 1.386 1_545 S
C347 C351 1.393 . S
C348 H337 0.950 . S
C348 C346 1.391 . S
C348 C349 1.400 1_565 S
C349 C343 1.491 1_545 S
C349 C348 1.400 1_545 S
C349 C350 1.398 . S
C350 H338 0.950 . S
C350 C349 1.398 . S
C350 C351 1.391 . S
C351 H339 0.950 . S
C351 C347 1.393 . S
C351 C350 1.391 . S
H352 C360 0.950 . S
H353 C365 0.950 . S
H354 C362 0.950 1_545 S
H355 C364 0.950 . S
H356 C366 0.950 . S
H357 C368 0.950 1_565 S
H358 C370 0.950 . S
H359 C371 0.950 . S
C360 H352 0.950 . S
C360 C361 1.386 . S
C360 C362 1.391 . S
C361 C360 1.386 . S
C361 C365 1.393 1_554 S
C362 H354 0.950 1_565 S
C362 C360 1.391 . S
C362 C363 1.400 . S
C363 C362 1.400 . S
C363 C364 1.398 1_554 S
C363 C369 1.491 1_565 S
C364 H355 0.950 . S
C364 C363 1.398 1_556 S
C364 C365 1.391 . S
C365 H353 0.950 . S
C365 C361 1.393 1_556 S
C365 C364 1.391 . S
C366 H356 0.950 . S
C366 C367 1.386 1_556 S
C366 C368 1.391 . S
C367 C366 1.386 1_554 S
C367 C371 1.393 . S
C368 H357 0.950 1_545 S
C368 C366 1.391 . S
C368 C369 1.400 1_556 S
C369 C363 1.491 1_545 S
C369 C368 1.400 1_554 S
C369 C370 1.398 . S
C370 H358 0.950 . S
C370 C369 1.398 . S
C370 C371 1.391 . S
C371 H359 0.950 . S
C371 C367 1.393 . S
C371 C370 1.391 . S
H372 C380 0.950 . S
H373 C385 0.950 . S
H374 C382 0.950 . S
H375 C384 0.950 1_545 S
H376 C386 0.950 . S
H377 C388 0.950 . S
H378 C390 0.950 1_565 S
H379 C391 0.950 . S
C380 H372 0.950 . S
C380 C381 1.386 . S
C380 C382 1.391 . S
C381 C380 1.386 . S
C381 C385 1.393 . S
C382 H374 0.950 . S
C382 C380 1.391 . S
C382 C383 1.400 . S
C383 C382 1.400 . S
C383 C384 1.398 . S
C383 C389 1.491 1_565 S
C384 H375 0.950 1_565 S
C384 C383 1.398 . S
C384 C385 1.391 . S
C385 H373 0.950 . S
C385 C381 1.393 . S
C385 C384 1.391 . S
C386 H376 0.950 . S
C386 C387 1.386 . S
C386 C388 1.391 . S
C387 C386 1.386 . S
C387 C391 1.393 . S
C388 H377 0.950 . S
C388 C386 1.391 . S
C388 C389 1.400 . S
C389 C383 1.491 1_545 S
C389 C388 1.400 . S
C389 C390 1.398 . S
C390 H378 0.950 1_545 S
C390 C389 1.398 . S
C390 C391 1.391 . S
C391 H379 0.950 . S
C391 C387 1.393 . S
C391 C390 1.391 . S
H392 C400 0.950 . S
H393 C405 0.950 . S
H394 C402 0.950 1_655 S
H395 C404 0.950 . S
H396 C406 0.950 . S
H397 C408 0.950 1_455 S
H398 C410 0.950 . S
H399 C411 0.950 . S
C400 H392 0.950 . S
C400 C401 1.386 . S
C400 C402 1.391 . S
C401 C400 1.386 . S
C401 C405 1.393 1_554 S
C402 H394 0.950 1_455 S
C402 C400 1.391 . S
C402 C403 1.400 . S
C403 C402 1.400 . S
C403 C404 1.398 1_554 S
C403 C409 1.491 1_455 S
C404 H395 0.950 . S
C404 C403 1.398 1_556 S
C404 C405 1.391 . S
C405 H393 0.950 . S
C405 C401 1.393 1_556 S
C405 C404 1.391 . S
C406 H396 0.950 . S
C406 C407 1.386 1_556 S
C406 C408 1.391 . S
C407 C406 1.386 1_554 S
C407 C411 1.393 . S
C408 H397 0.950 1_655 S
C408 C406 1.391 . S
C408 C409 1.400 1_556 S
C409 C403 1.491 1_655 S
C409 C408 1.400 1_554 S
C409 C410 1.398 . S
C410 H398 0.950 . S
C410 C409 1.398 . S
C410 C411 1.391 . S
C411 H399 0.950 . S
C411 C407 1.393 . S
C411 C410 1.391 . S
H412 C420 0.950 . S
H413 C425 0.950 . S
H414 C422 0.950 1_655 S
H415 C424 0.950 . S
H416 C426 0.950 . S
H417 C428 0.950 1_455 S
H418 C430 0.950 . S
H419 C431 0.950 . S
C420 H412 0.950 . S
C420 C421 1.386 . S
C420 C422 1.391 . S
C421 C420 1.386 . S
C421 C425 1.393 . S
C422 H414 0.950 1_455 S
C422 C420 1.391 . S
C422 C423 1.400 . S
C423 C422 1.400 . S
C423 C424 1.398 . S
C423 C429 1.491 1_455 S
C424 H415 0.950 . S
C424 C423 1.398 . S
C424 C425 1.391 . S
C425 H413 0.950 . S
C425 C421 1.393 . S
C425 C424 1.391 . S
C426 H416 0.950 . S
C426 C427 1.386 . S
C426 C428 1.391 . S
C427 C426 1.386 . S
C427 C431 1.393 . S
C428 H417 0.950 1_655 S
C428 C426 1.391 . S
C428 C429 1.400 . S
C429 C423 1.491 1_655 S
C429 C428 1.400 . S
C429 C430 1.398 . S
C430 H418 0.950 . S
C430 C429 1.398 . S
C430 C431 1.391 . S
C431 H419 0.950 . S
C431 C427 1.393 . S
C431 C430 1.391 . S
C121 C79 1.486 . S
C127 C9 1.485 . S
C141 C65 1.484 . S
C147 C23 1.486 . S
C161 C107 1.485 . S
C167 C37 1.486 . S
C181 C93 1.485 . S
C187 C51 1.486 . S
C201 C3 1.405 . S
C207 C31 1.407 . S
C221 C17 1.407 . S
C227 C45 1.406 . S
C241 C21 1.388 . S
C247 C49 1.391 . S
C261 C7 1.374 . S
C267 C35 1.381 . S
C281 C59 1.401 . S
C287 C87 1.405 . S
C301 C101 1.406 . S
C307 C73 1.407 . S
C321 C105 1.393 . S
C327 C77 1.384 . S
C341 C63 1.376 . S
C347 C91 1.393 . S
C361 C22 1.498 . S
C367 C8 1.501 . S
C381 C36 1.498 . S
C387 C50 1.494 . S
C401 C64 1.500 . S
C407 C78 1.498 . S
C421 C92 1.498 . S
C427 C106 1.495 . S
