# Generated by pormake.
# Topology qtz-e, (6)-cn, num edge types: 1
# Building blocks:
#     Node 0, Type 0, BuildingBlock: BETFEN_clean_sbu_0, # of connection points: 6
#     Node 1, Type 0, BuildingBlock: BETFEN_clean_sbu_0, # of connection points: 6
#     Node 2, Type 0, BuildingBlock: BETFEN_clean_sbu_0, # of connection points: 6
#     Node 3, Type 0, BuildingBlock: BETFEN_clean_sbu_0, # of connection points: 6
#     Node 4, Type 0, BuildingBlock: BETFEN_clean_sbu_0, # of connection points: 6
#     Node 5, Type 0, BuildingBlock: BETFEN_clean_sbu_0, # of connection points: 6
#     Edge 6, Type (0, 0), BuildingBlock: KIFKEQ_clean_linker_1, # of connection points: 2
#     Edge 7, Type (0, 0), BuildingBlock: KIFKEQ_clean_linker_1, # of connection points: 2
#     Edge 8, Type (0, 0), BuildingBlock: KIFKEQ_clean_linker_1, # of connection points: 2
#     Edge 9, Type (0, 0), BuildingBlock: KIFKEQ_clean_linker_1, # of connection points: 2
#     Edge 10, Type (0, 0), BuildingBlock: KIFKEQ_clean_linker_1, # of connection points: 2
#     Edge 11, Type (0, 0), BuildingBlock: KIFKEQ_clean_linker_1, # of connection points: 2
#     Edge 12, Type (0, 0), BuildingBlock: KIFKEQ_clean_linker_1, # of connection points: 2
#     Edge 13, Type (0, 0), BuildingBlock: KIFKEQ_clean_linker_1, # of connection points: 2
#     Edge 14, Type (0, 0), BuildingBlock: KIFKEQ_clean_linker_1, # of connection points: 2
#     Edge 15, Type (0, 0), BuildingBlock: KIFKEQ_clean_linker_1, # of connection points: 2
#     Edge 16, Type (0, 0), BuildingBlock: KIFKEQ_clean_linker_1, # of connection points: 2
#     Edge 17, Type (0, 0), BuildingBlock: KIFKEQ_clean_linker_1, # of connection points: 2
#     Edge 18, Type (0, 0), BuildingBlock: KIFKEQ_clean_linker_1, # of connection points: 2
#     Edge 19, Type (0, 0), BuildingBlock: KIFKEQ_clean_linker_1, # of connection points: 2
#     Edge 20, Type (0, 0), BuildingBlock: KIFKEQ_clean_linker_1, # of connection points: 2
#     Edge 21, Type (0, 0), BuildingBlock: KIFKEQ_clean_linker_1, # of connection points: 2
#     Edge 22, Type (0, 0), BuildingBlock: KIFKEQ_clean_linker_1, # of connection points: 2
#     Edge 23, Type (0, 0), BuildingBlock: KIFKEQ_clean_linker_1, # of connection points: 2
# Relax obj value: 0.181
# Max RMSD: 0.208
# Mean RMSD: 0.208
data_MOF--net-qtz-e--node1-BETFEN_clean_sbu_0--edge1-KIFKEQ_clean_linker_1
_symmetry_space_group_name_H-M    P1
_symmetry_Int_Tables_number       1
_symmetry_cell_setting            triclinic
loop_
_symmetry_equiv_pos_as_xyz
'x, y, z'
_cell_length_a     26.059037
_cell_length_b     26.010476
_cell_length_c     53.071319
_cell_angle_alpha  90.051085
_cell_angle_beta   89.93027
_cell_angle_gamma 120.30122
loop_
_atom_site_label
_atom_site_type_symbol
_atom_site_fract_x
_atom_site_fract_y
_atom_site_fract_z
_atom_type_partial_charge
Pr0 Pr 0.27047 0.45243 0.08945 0.0
Pr1 Pr 0.21154 0.32846 0.11426 0.0
C2 C 0.33658 0.56124 0.06913 0.0
C3 C 0.3487 0.58116 0.04279 0.0
C4 C 0.38023 0.64191 0.03685 0.0
C5 C 0.39379 0.66023 1.01171 0.0
C6 C 0.37627 0.61795 0.99219 0.0
C7 C 0.34378 0.55707 0.9983 0.0
C8 C 0.33001 0.53887 0.02336 0.0
C9 C 0.14723 0.38491 0.08181 0.0
C10 C 0.25329 0.33841 0.05624 0.0
C11 C 0.14666 0.23025 0.14248 0.0
C12 C 0.11508 0.2166 0.16688 0.0
C13 C 0.11883 0.1766 0.18338 0.0
C14 C 0.094 0.16679 0.20751 0.0
C15 C 0.06456 0.19669 0.21573 0.0
C16 C 0.06026 0.23634 0.19895 0.0
C17 C 0.08543 0.24634 0.1748 0.0
C18 C 0.33595 0.39367 0.11595 0.0
C19 C 0.22825 0.44403 0.14843 0.0
O20 O 0.35875 0.52825 0.07629 0.0
O21 O 0.28193 0.54085 0.07687 0.0
O22 O 0.1747 0.3877 0.10167 0.0
O23 O 0.18526 0.4143 0.06405 0.0
O24 O 0.20897 0.30379 0.07146 0.0
O25 O 0.29076 0.39449 0.0621 0.0
O26 O 0.1243 0.24476 0.12352 0.0
O27 O 0.20448 0.26279 0.14386 0.0
O28 O 0.3016 0.41332 0.11978 0.0
O29 O 0.30614 0.33682 0.11133 0.0
O30 O 0.26141 0.48083 0.13036 0.0
O31 O 0.20199 0.38562 0.14594 0.0
H32 H 0.39502 0.67509 0.05165 0.0
H33 H 0.41927 0.70743 1.0076 0.0
H34 H 0.32893 0.52344 0.9837 0.0
H35 H 0.30532 0.49169 0.02762 0.0
H36 H 0.14226 0.15386 0.17778 0.0
H37 H 0.09939 0.13688 0.21995 0.0
H38 H 0.03744 0.25973 0.20443 0.0
H39 H 0.08247 0.27795 0.16249 0.0
Pr40 Pr 0.68024 0.17263 0.51192 0.0
Pr41 Pr 0.75436 0.12051 0.48989 0.0
C42 C 0.60781 0.2102 0.52961 0.0
C43 C 0.59619 0.22054 0.55567 0.0
C44 C 0.5555 0.23924 0.56106 0.0
C45 C 0.54315 0.24622 0.58613 0.0
C46 C 0.57103 0.23406 0.60608 0.0
C47 C 0.61257 0.21636 0.60045 0.0
C48 C 0.62514 0.20987 0.5755 0.0
C49 C 0.80354 0.24705 0.51619 0.0
C50 C 0.71324 0.09423 0.55053 0.0
C51 C 0.8362 0.09768 0.47057 0.0
C52 C 0.86578 0.11106 0.44566 0.0
C53 C 0.87173 0.06718 0.43283 0.0
C54 C 0.89439 0.07731 0.40823 0.0
C55 C 0.91182 0.13171 0.396 0.0
C56 C 0.90683 0.17604 0.4091 0.0
C57 C 0.88372 0.1657 0.43359 0.0
C58 C 0.63333 0.05483 0.47936 0.0
C59 C 0.71489 0.19318 0.45165 0.0
O60 O 0.58933 0.15466 0.52398 0.0
O61 O 0.66139 0.24655 0.52125 0.0
O62 O 0.7762 0.21593 0.49736 0.0
O63 O 0.76647 0.2372 0.53445 0.0
O64 O 0.75003 0.09471 0.5331 0.0
O65 O 0.67818 0.11609 0.5461 0.0
O66 O 0.84995 0.14312 0.48544 0.0
O67 O 0.77931 0.05846 0.47052 0.0
O68 O 0.65548 0.07852 0.50034 0.0
O69 O 0.67413 0.06036 0.46372 0.0
O70 O 0.67338 0.18435 0.46827 0.0
O71 O 0.75794 0.18245 0.45731 0.0
H72 H 0.53277 0.24763 0.54594 0.0
H73 H 0.51064 0.25952 0.58992 0.0
H74 H 0.63534 0.20744 0.61538 0.0
H75 H 0.65709 0.19586 0.57165 0.0
H76 H 0.85774 0.02456 0.44165 0.0
H77 H 0.89814 0.04247 0.39874 0.0
H78 H 0.91911 0.2181 0.40012 0.0
H79 H 0.87868 0.20004 0.44285 0.0
Pr80 Pr 0.49517 0.79397 0.75599 0.0
Pr81 Pr 0.62478 0.84185 0.77563 0.0
C82 C 0.39687 0.78368 0.73485 0.0
C83 C 0.37508 0.77641 0.70886 0.0
C84 C 0.39224 0.74868 0.69072 0.0
C85 C 0.37257 0.74314 0.66586 0.0
C86 C 0.33593 0.76585 0.65863 0.0
C87 C 0.31937 0.79411 0.6769 0.0
C88 C 0.33871 0.79921 0.70181 0.0
C89 C 0.53479 0.71411 0.74969 0.0
C90 C 0.61268 0.87935 0.71806 0.0
C91 C 0.72022 0.84905 0.79858 0.0
C92 C 0.73338 0.83814 0.82454 0.0
C93 C 0.78062 0.88418 0.83797 0.0
C94 C 0.79211 0.87539 0.86288 0.0
C95 C 0.75681 0.82016 0.87484 0.0
C96 C 0.70986 0.77389 0.86129 0.0
C97 C 0.69813 0.78281 0.83646 0.0
C98 C 0.57685 0.9148 0.78492 0.0
C99 C 0.50723 0.76171 0.81416 0.0
O100 O 0.44365 0.83528 0.74014 0.0
O101 O 0.39909 0.73843 0.74441 0.0
O102 O 0.56708 0.76986 0.74683 0.0
O103 O 0.4796 0.69824 0.75357 0.0
O104 O 0.64987 0.87557 0.73389 0.0
O105 O 0.55574 0.85657 0.72354 0.0
O106 O 0.68215 0.80251 0.78556 0.0
O107 O 0.71359 0.89529 0.79544 0.0
O108 O 0.55038 0.85923 0.78655 0.0
O109 O 0.6329 0.93643 0.77968 0.0
O110 O 0.47273 0.77012 0.79851 0.0
O111 O 0.56337 0.77993 0.80853 0.0
H112 H 0.42092 0.73134 0.69576 0.0
H113 H 0.38567 0.72056 0.6524 0.0
H114 H 0.29219 0.81316 0.67191 0.0
H115 H 0.32573 0.82143 0.71552 0.0
H116 H 0.80845 0.92719 0.82924 0.0
H117 H 0.82898 0.91172 0.87273 0.0
H118 H 0.68144 0.73106 0.87006 0.0
H119 H 0.66105 0.74645 0.82673 0.0
Pr120 Pr 0.79548 0.50364 0.17765 0.0
Pr121 Pr 0.86641 0.62761 0.15377 0.0
C122 C 0.74683 0.39361 0.19725 0.0
C123 C 0.73412 0.37248 0.22343 0.0
C124 C 0.70972 0.31197 0.22909 0.0
C125 C 0.70213 0.29307 0.25423 0.0
C126 C 0.71932 0.33459 0.27404 0.0
C127 C 0.74238 0.39505 0.26818 0.0
C128 C 0.7496 0.41376 0.24311 0.0
C129 C 0.7413 0.5725 0.18345 0.0
C130 C 0.8873 0.6165 0.21348 0.0
C131 C 0.90408 0.72731 0.12628 0.0
C132 C 0.88522 0.74142 0.10234 0.0
C133 C 0.92817 0.78298 0.08588 0.0
C134 C 0.9119 0.7927 0.06203 0.0
C135 C 0.85217 0.76103 0.05411 0.0
C136 C 0.80906 0.72003 0.07091 0.0
C137 C 0.82545 0.71018 0.09475 0.0
C138 C 0.92435 0.56147 0.15456 0.0
C139 C 0.77203 0.5151 0.11717 0.0
O140 O 0.80345 0.42614 0.19177 0.0
O141 O 0.71492 0.41531 0.18818 0.0
O142 O 0.76765 0.56971 0.16407 0.0
O143 O 0.7477 0.5428 0.20162 0.0
O144 O 0.88477 0.65227 0.19652 0.0
O145 O 0.86609 0.55945 0.20865 0.0
O146 O 0.86826 0.71407 0.14564 0.0
O147 O 0.92684 0.69278 0.12426 0.0
O148 O 0.8709 0.5425 0.14944 0.0
O149 O 0.95155 0.6183 0.15925 0.0
O150 O 0.76334 0.47734 0.13564 0.0
O151 O 0.8053 0.5732 0.12026 0.0
H152 H 0.69776 0.27958 0.2141 0.0
H153 H 0.68473 0.24629 0.25815 0.0
H154 H 0.75534 0.428 0.28298 0.0
H155 H 0.76839 0.46072 0.23906 0.0
H156 H 0.97462 0.80689 0.09125 0.0
H157 H 0.94652 0.82382 0.04952 0.0
H158 H 0.7626 0.69531 0.06565 0.0
H159 H 0.79155 0.67732 0.10704 0.0
Pr160 Pr 0.16842 0.70943 0.42141 0.0
Pr161 Pr 0.10839 0.77869 0.44263 0.0
C162 C 0.18958 0.62927 0.39898 0.0
C163 C 0.19329 0.61244 0.37295 0.0
C164 C 0.22537 0.58387 0.36759 0.0
C165 C 0.22994 0.56848 0.34281 0.0
C166 C 0.20243 0.58149 0.32299 0.0
C167 C 0.17067 0.61063 0.32849 0.0
C168 C 0.16621 0.62603 0.35327 0.0
C169 C 0.24239 0.83125 0.42145 0.0
C170 C 0.08264 0.74003 0.38336 0.0
C171 C 0.09127 0.85767 0.46867 0.0
C172 C 0.1025 0.87909 0.49514 0.0
C173 C 0.05478 0.86938 0.5107 0.0
C174 C 0.06424 0.88657 0.53607 0.0
C175 C 0.12178 0.91435 0.54642 0.0
C176 C 0.16963 0.92467 0.53076 0.0
C177 C 0.16013 0.90709 0.50545 0.0
C178 C 0.04217 0.65515 0.44753 0.0
C179 C 0.19182 0.74587 0.48066 0.0
O180 O 0.13675 0.61667 0.40678 0.0
O181 O 0.232 0.68197 0.40602 0.0
O182 O 0.18754 0.80561 0.41604 0.0
O183 O 0.26088 0.79379 0.42467 0.0
O184 O 0.07661 0.77272 0.40093 0.0
O185 O 0.11201 0.71161 0.38732 0.0
O186 O 0.1378 0.87324 0.45432 0.0
O187 O 0.0491 0.80246 0.46513 0.0
O188 O 0.09709 0.68754 0.45075 0.0
O189 O 0.01767 0.68714 0.44288 0.0
O190 O 0.19044 0.70756 0.46393 0.0
O191 O 0.16868 0.7798 0.4758 0.0
H192 H 0.24702 0.57362 0.38256 0.0
H193 H 0.25545 0.54686 0.33914 0.0
H194 H 0.14841 0.62066 0.31371 0.0
H195 H 0.14141 0.6483 0.35705 0.0
H196 H 0.00996 0.84793 0.50327 0.0
H197 H 0.02652 0.87853 0.54756 0.0
H198 H 0.21438 0.9453 0.5382 0.0
H199 H 0.19793 0.91481 0.4941 0.0
Pr200 Pr 0.46069 0.28442 0.8446 0.0
Pr201 Pr 0.33359 0.20055 0.82394 0.0
C202 C 0.57017 0.36326 0.86154 0.0
C203 C 0.59687 0.37401 0.88686 0.0
C204 C 0.57979 0.32673 0.90388 0.0
C205 C 0.60013 0.33783 0.92877 0.0
C206 C 0.63757 0.39649 0.93723 0.0
C207 C 0.65529 0.44362 0.91995 0.0
C208 C 0.63512 0.43242 0.89503 0.0
C209 C 0.41742 0.16258 0.85203 0.0
C210 C 0.34832 0.24979 0.8829 0.0
C211 C 0.23016 0.11265 0.80569 0.0
C212 C 0.21457 0.08363 0.78062 0.0
C213 C 0.16496 0.07754 0.76762 0.0
C214 C 0.15344 0.05613 0.74281 0.0
C215 C 0.19127 0.04014 0.73044 0.0
C216 C 0.24019 0.04502 0.74382 0.0
C217 C 0.2519 0.06681 0.76852 0.0
C218 C 0.38278 0.31946 0.81009 0.0
C219 C 0.44561 0.24363 0.78519 0.0
O220 O 0.52809 0.37613 0.859 0.0
O221 O 0.55762 0.31319 0.85057 0.0
O222 O 0.41124 0.18629 0.83255 0.0
O223 O 0.44503 0.20272 0.86925 0.0
O224 O 0.31343 0.20686 0.86705 0.0
O225 O 0.40417 0.28856 0.87746 0.0
O226 O 0.26544 0.10262 0.81981 0.0
O227 O 0.24332 0.1683 0.80616 0.0
O228 O 0.38714 0.30148 0.83164 0.0
O229 O 0.34777 0.27535 0.79563 0.0
O230 O 0.4771 0.2884 0.80081 0.0
O231 O 0.39359 0.19822 0.7919 0.0
H232 H 0.54967 0.28122 0.89811 0.0
H233 H 0.58618 0.30043 0.94141 0.0
H234 H 0.68325 0.48942 0.92586 0.0
H235 H 0.64804 0.46956 0.88231 0.0
H236 H 0.13598 0.09093 0.77642 0.0
H237 H 0.11588 0.05393 0.7331 0.0
H238 H 0.26983 0.03232 0.73518 0.0
H239 H 0.29093 0.07157 0.77793 0.0
H240 H 0.21982 0.64529 0.27953 0.0
H241 H 0.19249 0.47704 0.30718 0.0
H242 H 0.22295 0.61415 0.23637 0.0
H243 H 0.19807 0.44707 0.26434 0.0
H244 H 0.14692 0.38312 0.18507 0.0
H245 H 0.13911 0.41848 0.22639 0.0
H246 H 0.28565 0.59354 0.20843 0.0
H247 H 0.29277 0.55825 0.16655 0.0
C248 C 0.21449 0.6017 0.2764 0.0
C249 C 0.20586 0.56359 0.29677 0.0
C250 C 0.21689 0.58415 0.25172 0.0
C251 C 0.21051 0.52807 0.24693 0.0
C252 C 0.20227 0.49023 0.26735 0.0
C253 C 0.19986 0.50772 0.29195 0.0
C254 C 0.17739 0.42927 0.18981 0.0
C255 C 0.22097 0.46774 0.17263 0.0
C256 C 0.17304 0.44946 0.21358 0.0
C257 C 0.21235 0.50856 0.22084 0.0
C258 C 0.25455 0.54779 0.20334 0.0
C259 C 0.25875 0.52757 0.1794 0.0
H260 H 0.40168 0.15141 0.75191 0.0
H261 H 0.53862 0.33606 0.7601 0.0
H262 H 0.43423 0.15135 0.70901 0.0
H263 H 0.57158 0.33565 0.71686 0.0
H264 H 0.55873 0.32211 0.62867 0.0
H265 H 0.53145 0.32622 0.67252 0.0
H266 H 0.52205 0.15843 0.68729 0.0
H267 H 0.54827 0.15385 0.64358 0.0
C268 C 0.439 0.19199 0.74462 0.0
C269 C 0.46771 0.24376 0.75948 0.0
C270 C 0.45782 0.19179 0.72003 0.0
C271 C 0.50556 0.24342 0.7096 0.0
C272 C 0.53439 0.29531 0.72439 0.0
C273 C 0.51583 0.2954 0.74917 0.0
C274 C 0.55064 0.2861 0.64132 0.0
C275 C 0.55556 0.23764 0.6327 0.0
C276 C 0.53564 0.28875 0.66644 0.0
C277 C 0.52459 0.24262 0.68331 0.0
C278 C 0.52986 0.19441 0.67468 0.0
C279 C 0.54532 0.19202 0.6497 0.0
H280 H 0.41906 0.57162 0.95736 0.0
H281 H 0.37158 0.70735 0.96696 0.0
H282 H 0.44731 0.6029 0.91377 0.0
H283 H 0.40113 0.73954 0.92344 0.0
H284 H 0.4038 0.74029 0.83688 0.0
H285 H 0.37 0.70346 0.87954 0.0
H286 H 0.52684 0.69019 0.89149 0.0
H287 H 0.56032 0.72625 0.84887 0.0
C288 C 0.41436 0.60795 0.95011 0.0
C289 C 0.39303 0.637 0.96561 0.0
C290 C 0.43106 0.6262 0.92521 0.0
C291 C 0.42652 0.67372 0.91517 0.0
C292 C 0.40463 0.70242 0.93057 0.0
C293 C 0.3883 0.68441 0.95556 0.0
C294 C 0.43084 0.72908 0.84854 0.0
C295 C 0.48484 0.73637 0.83948 0.0
C296 C 0.41167 0.70841 0.87304 0.0
C297 C 0.44584 0.69412 0.88891 0.0
C298 C 0.49923 0.70031 0.87966 0.0
C299 C 0.51858 0.72132 0.85526 0.0
H300 H 0.80365 0.23666 0.41669 0.0
H301 H 0.62426 0.20028 0.42874 0.0
H302 H 0.80248 0.2716 0.37433 0.0
H303 H 0.62338 0.23579 0.38609 0.0
H304 H 0.62829 0.23741 0.29766 0.0
H305 H 0.62566 0.20457 0.34113 0.0
H306 H 0.80032 0.35645 0.35398 0.0
H307 H 0.80341 0.38862 0.3106 0.0
C308 C 0.76397 0.23629 0.41035 0.0
C309 C 0.71406 0.21581 0.42615 0.0
C310 C 0.76348 0.25667 0.38609 0.0
C311 C 0.71293 0.25666 0.37691 0.0
C312 C 0.66285 0.236 0.39262 0.0
C313 C 0.66352 0.21607 0.41708 0.0
C314 C 0.66608 0.26367 0.3098 0.0
C315 C 0.71608 0.31555 0.30069 0.0
C316 C 0.66434 0.24519 0.33472 0.0
C317 C 0.71285 0.27786 0.35093 0.0
C318 C 0.76248 0.33006 0.34188 0.0
C319 C 0.76401 0.34876 0.31709 0.0
H320 H 0.39807 0.7768 0.61518 0.0
H321 H 0.22674 0.74216 0.64201 0.0
H322 H 0.36421 0.76978 0.57175 0.0
H323 H 0.19387 0.73692 0.59866 0.0
H324 H 0.18763 0.80877 0.52085 0.0
H325 H 0.22323 0.81172 0.56336 0.0
H326 H 0.28619 0.69326 0.54133 0.0
H327 H 0.25031 0.69002 0.49836 0.0
C328 C 0.35306 0.76714 0.61187 0.0
C329 C 0.31523 0.76038 0.63214 0.0
C330 C 0.33381 0.76326 0.58699 0.0
C331 C 0.27662 0.75318 0.5819 0.0
C332 C 0.23855 0.74563 0.60209 0.0
C333 C 0.25751 0.74892 0.62691 0.0
C334 C 0.20915 0.78335 0.52491 0.0
C335 C 0.21584 0.74885 0.50619 0.0
C336 C 0.22924 0.78485 0.54936 0.0
C337 C 0.25697 0.75233 0.55566 0.0
C338 C 0.26504 0.71885 0.5369 0.0
C339 C 0.24433 0.71685 0.51238 0.0
H340 H 0.77929 0.5822 0.07654 0.0
H341 H 0.7078 0.39926 0.09986 0.0
H342 H 0.74569 0.54968 0.03391 0.0
H343 H 0.67398 0.36657 0.05654 0.0
H344 H 0.57213 0.34103 0.97963 0.0
H345 H 0.6021 0.36535 0.02366 0.0
H346 H 0.77547 0.50471 0.99973 0.0
H347 H 0.74624 0.47992 0.95584 0.0
C348 C 0.75623 0.53488 0.07266 0.0
C349 C 0.74676 0.49335 0.09171 0.0
C350 C 0.73726 0.51631 0.04807 0.0
C351 C 0.70804 0.45566 0.04176 0.0
C352 C 0.69649 0.41367 0.06088 0.0
C353 C 0.71589 0.43238 0.08565 0.0
C354 C 0.61701 0.37619 0.98373 0.0
C355 C 0.65663 0.40882 0.9641 0.0
C356 C 0.63406 0.39013 1.00898 0.0
C357 C 0.69089 0.43727 1.01514 0.0
C358 C 0.73095 0.46881 0.99556 0.0
C359 C 0.71412 0.4547 0.97039 0.0
H360 H 0.40568 0.34885 0.13133 0.0
H361 H 0.40492 0.5131 0.12083 0.0
H362 H 0.5034 0.4044 0.15149 0.0
H363 H 0.50299 0.56859 0.14046 0.0
H364 H 0.63944 0.50706 0.2107 0.0
H365 H 0.53946 0.46809 0.19398 0.0
H366 H 0.61099 0.5868 0.13033 0.0
H367 H 0.71149 0.62528 0.14674 0.0
C368 C 0.42688 0.39682 0.13292 0.0
C369 C 0.39806 0.42678 0.12449 0.0
C370 C 0.48224 0.42845 0.14471 0.0
C371 C 0.50992 0.49052 0.14785 0.0
C372 C 0.48228 0.52075 0.13839 0.0
C373 C 0.4265 0.48904 0.12704 0.0
C374 C 0.63386 0.52669 0.19369 0.0
C375 C 0.68336 0.56855 0.17977 0.0
C376 C 0.57666 0.50372 0.18397 0.0
C377 C 0.56809 0.52334 0.16057 0.0
C378 C 0.61671 0.57063 0.14831 0.0
C379 C 0.67407 0.59301 0.15782 0.0
H380 H 0.08766 0.58305 0.45477 0.0
H381 H 0.92565 0.58914 0.46182 0.0
H382 H 0.03939 0.48503 0.47466 0.0
H383 H 0.87752 0.49112 0.48209 0.0
H384 H 0.83144 0.34984 0.54109 0.0
H385 H 0.8939 0.4503 0.52449 0.0
H386 H 0.95158 0.38006 0.46404 0.0
H387 H 0.88858 0.27939 0.48043 0.0
C388 C 0.04148 0.56304 0.46032 0.0
C389 C 0.01016 0.59339 0.45669 0.0
C390 C 0.0141 0.5072 0.47179 0.0
C391 C 0.95521 0.48118 0.48022 0.0
C392 C 0.92342 0.51092 0.47612 0.0
C393 C 0.95058 0.56649 0.46427 0.0
C394 C 0.85906 0.35601 0.5248 0.0
C395 C 0.85491 0.30688 0.51189 0.0
C396 C 0.89409 0.41336 0.51512 0.0
C397 C 0.92625 0.42244 0.49271 0.0
C398 C 0.92688 0.37408 0.48129 0.0
C399 C 0.89123 0.31663 0.49075 0.0
H400 H 0.49826 0.14272 0.87637 0.0
H401 H 0.36112 0.07095 0.81948 0.0
H402 H 0.53515 0.07857 0.86112 0.0
H403 H 0.39793 0.00711 0.80425 0.0
H404 H 0.46043 0.87329 0.79379 0.0
H405 H 0.41529 0.92434 0.81446 0.0
H406 H 0.58778 0.08353 0.82025 0.0
H407 H 0.63334 0.03185 0.79965 0.0
C408 C 0.47466 0.11167 0.86124 0.0
C409 C 0.42695 0.1118 0.84901 0.0
C410 C 0.49637 0.07573 0.85226 0.0
C411 C 0.47018 0.03892 0.83118 0.0
C412 C 0.41907 0.0351 0.82051 0.0
C413 C 0.39773 0.07134 0.82932 0.0
C414 C 0.48874 0.91932 0.79935 0.0
C415 C 0.55038 0.94879 0.79511 0.0
C416 C 0.46284 0.94843 0.81122 0.0
C417 C 0.49807 0.0076 0.81921 0.0
C418 C 0.55974 0.03747 0.81468 0.0
C419 C 0.58571 0.00832 0.80261 0.0
H420 H 0.53851 0.63466 0.71785 0.0
H421 H 0.57082 0.69558 0.79469 0.0
H422 H 0.52137 0.5378 0.73145 0.0
H423 H 0.5477 0.59886 0.80887 0.0
H424 H 0.47482 0.41419 0.83394 0.0
H425 H 0.54206 0.51214 0.81662 0.0
H426 H 0.43846 0.46104 0.74778 0.0
H427 H 0.3769 0.36177 0.76427 0.0
C428 C 0.54438 0.62806 0.73756 0.0
C429 C 0.55542 0.67239 0.75527 0.0
C430 C 0.53284 0.57197 0.74555 0.0
C431 C 0.52944 0.55868 0.77149 0.0
C432 C 0.5489 0.60603 0.78876 0.0
C433 C 0.56244 0.66241 0.78062 0.0
C434 C 0.46789 0.42375 0.81489 0.0
C435 C 0.42119 0.38031 0.80042 0.0
C436 C 0.50593 0.48032 0.80493 0.0
C437 C 0.49637 0.49565 0.7806 0.0
C438 C 0.44919 0.45148 0.76623 0.0
C439 C 0.41269 0.39447 0.77589 0.0
H440 H 0.11954 0.45966 0.05688 0.0
H441 H 0.05792 0.32595 0.1153 0.0
H442 H 0.06011 0.49887 0.07493 0.0
H443 H -0.00189 0.36501 0.13321 0.0
H444 H 0.87375 0.4426 0.14825 0.0
H445 H 0.91556 0.38921 0.12651 0.0
H446 H 0.08169 0.55426 0.11748 0.0
H447 H 0.03989 0.60775 0.13943 0.0
C448 C 0.09116 0.43679 0.07283 0.0
C449 C 0.09381 0.39008 0.08487 0.0
C450 C 0.058 0.45999 0.08343 0.0
C451 C 0.02617 0.43608 0.10588 0.0
C452 C 0.02273 0.38459 0.11602 0.0
C453 C 0.05638 0.36179 0.10559 0.0
C454 C 0.91959 0.46726 0.14202 0.0
C455 C 0.95378 0.52922 0.14557 0.0
C456 C 0.94326 0.43675 0.12946 0.0
C457 C 0.00131 0.46781 0.11988 0.0
C458 C 0.03627 0.52951 0.12422 0.0
C459 C 0.0128 0.55996 0.13711 0.0
H460 H 0.25961 0.87546 0.46858 0.0
H461 H 0.31547 0.92468 0.39172 0.0
H462 H 0.3565 0.94764 0.48331 0.0
H463 H 0.41255 0.00259 0.40635 0.0
H464 H 0.58694 0.01872 0.43275 0.0
H465 H 0.4879 0.98873 0.41846 0.0
H466 H 0.44495 0.02716 0.49246 0.0
H467 H 0.54282 0.05052 0.50724 0.0
C468 C 0.29151 0.90467 0.45484 0.0
C469 C 0.28037 0.89346 0.42901 0.0
C470 C 0.34802 0.94659 0.46332 0.0
C471 C 0.39417 0.97922 0.446 0.0
C472 C 0.37924 0.97595 0.42026 0.0
C473 C 0.32297 0.93246 0.41179 0.0
C474 C 0.55617 0.02049 0.44598 0.0
C475 C 0.57261 0.03712 0.47112 0.0
C476 C 0.49936 0.00453 0.43764 0.0
C477 C 0.45754 0.00586 0.45409 0.0
C478 C 0.4751 0.02465 0.47915 0.0
C479 C 0.53157 0.03889 0.48766 0.0
H480 H 0.38481 0.35301 0.90774 0.0
H481 H 0.26046 0.16433 0.91343 0.0
H482 H 0.35687 0.36821 0.94935 0.0
H483 H 0.23359 0.17925 0.95621 0.0
H484 H 0.1708 0.24874 0.02568 0.0
H485 H 0.18793 0.22255 0.98318 0.0
H486 H 0.37541 0.34994 0.99081 0.0
H487 H 0.35792 0.37729 0.0322 0.0
C488 C 0.35149 0.31455 0.918 0.0
C489 C 0.32547 0.25734 0.90741 0.0
C490 C 0.3357 0.32321 0.94204 0.0
C491 C 0.29415 0.27479 0.95658 0.0
C492 C 0.26591 0.21756 0.94561 0.0
C493 C 0.28128 0.20895 0.92114 0.0
C494 C 0.21563 0.27053 0.01824 0.0
C495 C 0.26288 0.3157 0.0321 0.0
C496 C 0.22549 0.25553 0.99393 0.0
C497 C 0.28287 0.28513 0.98323 0.0
C498 C 0.33029 0.32761 0.99794 0.0
C499 C 0.32035 0.34306 0.02184 0.0
H500 H 0.00731 0.23086 0.37577 0.0
H501 H 0.86505 0.05515 0.35614 0.0
H502 H 0.04291 0.24672 0.33235 0.0
H503 H 0.89929 0.07132 0.3126 0.0
H504 H 0.01027 0.09291 0.24312 0.0
H505 H 0.97504 0.07837 0.28632 0.0
H506 H 0.02342 0.26341 0.29059 0.0
H507 H 0.06242 0.27889 0.24783 0.0
C508 C 0.98333 0.19581 0.3621 0.0
C509 C 0.93357 0.1416 0.36946 0.0
C510 C 0.00355 0.20496 0.33713 0.0
C511 C 0.97417 0.16033 0.31877 0.0
C512 C 0.92396 0.10634 0.32618 0.0
C513 C 0.90415 0.09702 0.35119 0.0
C514 C 0.01412 0.13079 0.2533 0.0
C515 C 0.03965 0.1872 0.24185 0.0
C516 C -0.00701 0.1222 0.27809 0.0
C517 C -0.00386 0.16962 0.29215 0.0
C518 C 0.02089 0.22591 0.28058 0.0
C519 C 0.04249 0.23461 0.25582 0.0
H520 H 0.54542 0.89069 0.68175 0.0
H521 H 0.72651 0.93703 0.6976 0.0
H522 H 0.57666 0.94335 0.64212 0.0
H523 H 0.75799 0.99074 0.65718 0.0
H524 H 0.76038 0.02532 0.56706 0.0
H525 H 0.74225 0.97392 0.60788 0.0
H526 H 0.63779 0.05148 0.63177 0.0
H527 H 0.6552 0.1019 0.59169 0.0
C528 C 0.59212 0.9121 0.67687 0.0
C529 C 0.63352 0.91 0.69323 0.0
C530 C 0.61002 0.94256 0.65402 0.0
C531 C 0.66993 0.97201 0.6466 0.0
C532 C 0.71147 0.96849 0.6624 0.0
C533 C 0.69346 0.93797 0.68558 0.0
C534 C 0.7341 0.0318 0.58116 0.0
C535 C 0.7085 0.06707 0.57581 0.0
C536 C 0.7239 0.00252 0.60455 0.0
C537 C 0.68775 0.00786 0.62291 0.0
C538 C 0.66477 0.04536 0.61788 0.0
C539 C 0.67493 0.07443 0.59478 0.0
H540 H 0.7596 0.72451 0.89469 0.0
H541 H 0.78079 0.89488 0.91501 0.0
H542 H 0.78091 0.71014 0.93799 0.0
H543 H 0.80063 0.88011 0.95848 0.0
H544 H 0.89699 0.865 0.02715 0.0
H545 H 0.8737 0.87835 0.98418 0.0
H546 H 0.74347 0.6907 0.97974 0.0
H547 H 0.7695 0.6767 0.0222 0.0
C548 C 0.76818 0.75862 0.9085 0.0
C549 C 0.76876 0.81095 0.90139 0.0
C550 C 0.78021 0.75033 0.93339 0.0
C551 C 0.79263 0.79396 0.95188 0.0
C552 C 0.79245 0.846 0.94474 0.0
C553 C 0.78094 0.85448 0.91981 0.0
C554 C 0.86381 0.8264 1.01695 0.0
C555 C 0.83539 0.76971 0.02823 0.0
C556 C 0.84978 0.83422 0.99235 0.0
C557 C 0.80659 0.78566 0.97834 0.0
C558 C 0.77754 0.72907 0.98975 0.0
C559 C 0.79186 0.72117 1.01431 0.0
H560 H 0.12837 0.7335 0.3383 0.0
H561 H 0.9749 0.72894 0.37159 0.0
H562 H 0.07959 0.70971 0.29709 0.0
H563 H 0.92528 0.70317 0.33021 0.0
H564 H 0.86289 0.5559 0.25793 0.0
H565 H 0.90898 0.59387 0.29913 0.0
H566 H 0.02008 0.76794 0.26694 0.0
H567 H 0.97269 0.7307 0.22572 0.0
C568 C 0.08443 0.72804 0.33674 0.0
C569 C 0.05543 0.73317 0.35815 0.0
C570 C 0.0567 0.71459 0.31316 0.0
C571 C -0.00112 0.70471 0.31058 0.0
C572 C 0.97008 0.71092 0.3318 0.0
C573 C -0.00151 0.72588 0.35537 0.0
C574 C 0.8968 0.6024 0.25964 0.0
C575 C 0.91428 0.64028 0.23853 0.0
C576 C 0.92279 0.62411 0.28324 0.0
C577 C 0.96765 0.68379 0.28613 0.0
C578 C 0.98519 0.72184 0.26515 0.0
C579 C 0.95814 0.70049 0.24162 0.0
H580 H 0.27431 0.06439 0.6934 0.0
H581 H 0.08459 0.9709 0.70617 0.0
H582 H 0.25771 0.03203 0.64973 0.0
H583 H 0.06792 0.94182 0.66202 0.0
H584 H 0.05743 0.85001 0.58736 0.0
H585 H 0.07438 0.87883 0.63165 0.0
H586 H 0.22526 0.04882 0.6108 0.0
H587 H 0.20901 0.01909 0.56664 0.0
C588 C 0.22897 0.03677 0.68698 0.0
C589 C 0.18084 0.02019 0.70354 0.0
C590 C 0.2194 0.01893 0.66171 0.0
C591 C 0.1614 0.98441 0.65212 0.0
C592 C 0.11325 0.96774 0.66868 0.0
C593 C 0.12283 0.9852 0.69402 0.0
C594 C 0.09403 0.89364 0.59227 0.0
C595 C 0.13185 0.93224 0.57346 0.0
C596 C 0.10373 0.91031 0.61769 0.0
C597 C 0.15123 0.9663 0.62498 0.0
C598 C 0.1889 0.00493 0.60607 0.0
C599 C 0.1795 0.98801 0.58069 0.0
loop_
_geom_bond_atom_site_label_1
_geom_bond_atom_site_label_2
_geom_bond_distance
_geom_bond_site_symmetry_2
_ccdc_geom_bond_type
Pr0 C2 2.880 . S
Pr0 O20 2.562 . S
Pr0 O21 2.490 . S
Pr0 O22 2.695 . S
Pr0 O23 2.512 . S
Pr0 O25 2.437 . S
Pr0 O28 2.436 . S
Pr0 O30 2.438 . S
Pr1 C11 2.880 . S
Pr1 O22 2.436 . S
Pr1 O24 2.438 . S
Pr1 O26 2.562 . S
Pr1 O27 2.490 . S
Pr1 O28 2.695 . S
Pr1 O29 2.512 . S
Pr1 O31 2.437 . S
C2 Pr0 2.880 . S
C2 C3 1.447 1_554 S
C2 O20 1.254 . S
C2 O21 1.225 . S
C3 C2 1.447 1_556 S
C3 C4 1.419 . S
C3 C8 1.375 . S
C4 C3 1.419 . S
C4 C5 1.368 . S
C4 H32 0.929 . S
C5 C4 1.368 . S
C5 C6 1.386 . S
C5 H33 0.929 . S
C6 C5 1.386 . S
C6 C7 1.373 . S
C7 C6 1.373 . S
C7 C8 1.409 . S
C7 H34 0.931 . S
C8 C3 1.375 . S
C8 C7 1.409 . S
C8 H35 0.930 . S
C9 O22 1.270 . S
C9 O23 1.248 . S
C10 O24 1.267 . S
C10 O25 1.278 . S
C11 Pr1 2.880 . S
C11 C12 1.491 . S
C11 O26 1.254 . S
C11 O27 1.225 . S
C12 C11 1.491 . S
C12 C13 1.392 . S
C12 C17 1.356 . S
C13 C12 1.392 . S
C13 C14 1.368 . S
C13 H36 0.929 . S
C14 C13 1.368 . S
C14 C15 1.386 . S
C14 H37 0.929 . S
C15 C14 1.386 . S
C15 C16 1.373 . S
C16 C15 1.373 . S
C16 C17 1.409 . S
C16 H38 0.931 . S
C17 C12 1.356 . S
C17 C16 1.409 . S
C17 H39 0.930 . S
C18 O28 1.270 . S
C18 O29 1.248 . S
C19 O30 1.267 . S
C19 O31 1.278 . S
O20 Pr0 2.562 . S
O20 C2 1.254 . S
O21 Pr0 2.490 . S
O21 C2 1.225 . S
O22 Pr0 2.695 . S
O22 Pr1 2.436 . S
O22 C9 1.270 . S
O23 Pr0 2.512 . S
O23 C9 1.248 . S
O24 Pr1 2.438 . S
O24 C10 1.267 . S
O25 Pr0 2.437 . S
O25 C10 1.278 . S
O26 Pr1 2.562 . S
O26 C11 1.254 . S
O27 Pr1 2.490 . S
O27 C11 1.225 . S
O28 Pr0 2.436 . S
O28 Pr1 2.695 . S
O28 C18 1.270 . S
O29 Pr1 2.512 . S
O29 C18 1.248 . S
O30 Pr0 2.438 . S
O30 C19 1.267 . S
O31 Pr1 2.437 . S
O31 C19 1.278 . S
H32 C4 0.929 . S
H33 C5 0.929 . S
H34 C7 0.931 . S
H35 C8 0.930 . S
H36 C13 0.929 . S
H37 C14 0.929 . S
H38 C16 0.931 . S
H39 C17 0.930 . S
Pr40 C42 2.880 . S
Pr40 O60 2.562 . S
Pr40 O61 2.490 . S
Pr40 O62 2.695 . S
Pr40 O63 2.512 . S
Pr40 O65 2.437 . S
Pr40 O68 2.436 . S
Pr40 O70 2.438 . S
Pr41 C51 2.880 . S
Pr41 O62 2.436 . S
Pr41 O64 2.438 . S
Pr41 O66 2.562 . S
Pr41 O67 2.490 . S
Pr41 O68 2.695 . S
Pr41 O69 2.512 1_545 S
Pr41 O71 2.437 . S
C42 Pr40 2.880 . S
C42 C43 1.491 . S
C42 O60 1.254 . S
C42 O61 1.225 . S
C43 C42 1.491 . S
C43 C44 1.392 . S
C43 C48 1.356 . S
C44 C43 1.392 . S
C44 C45 1.368 . S
C44 H72 0.929 . S
C45 C44 1.368 . S
C45 C46 1.386 . S
C45 H73 0.929 . S
C46 C45 1.386 . S
C46 C47 1.373 . S
C47 C46 1.373 . S
C47 C48 1.409 . S
C47 H74 0.931 . S
C48 C43 1.356 . S
C48 C47 1.409 . S
C48 H75 0.930 . S
C49 O62 1.270 . S
C49 O63 1.248 . S
C50 O64 1.267 . S
C50 O65 1.278 . S
C51 Pr41 2.880 . S
C51 C52 1.491 . S
C51 O66 1.254 . S
C51 O67 1.225 . S
C52 C51 1.491 . S
C52 C53 1.392 . S
C52 C57 1.356 . S
C53 C52 1.392 . S
C53 C54 1.368 . S
C53 H76 0.929 1_545 S
C54 C53 1.368 . S
C54 C55 1.386 . S
C54 H77 0.929 1_545 S
C55 C54 1.386 . S
C55 C56 1.373 . S
C56 C55 1.373 . S
C56 C57 1.409 . S
C56 H78 0.931 . S
C57 C52 1.356 . S
C57 C56 1.409 . S
C57 H79 0.930 . S
C58 O68 1.270 . S
C58 O69 1.248 1_545 S
C59 O70 1.267 . S
C59 O71 1.278 . S
O60 Pr40 2.562 . S
O60 C42 1.254 . S
O61 Pr40 2.490 . S
O61 C42 1.225 . S
O62 Pr40 2.695 . S
O62 Pr41 2.436 . S
O62 C49 1.270 . S
O63 Pr40 2.512 . S
O63 C49 1.248 . S
O64 Pr41 2.438 . S
O64 C50 1.267 . S
O65 Pr40 2.437 . S
O65 C50 1.278 . S
O66 Pr41 2.562 . S
O66 C51 1.254 . S
O67 Pr41 2.490 . S
O67 C51 1.225 . S
O68 Pr40 2.436 . S
O68 Pr41 2.695 . S
O68 C58 1.270 . S
O69 Pr41 2.512 1_565 S
O69 C58 1.248 1_565 S
O70 Pr40 2.438 . S
O70 C59 1.267 . S
O71 Pr41 2.437 . S
O71 C59 1.278 . S
H72 C44 0.929 . S
H73 C45 0.929 . S
H74 C47 0.931 . S
H75 C48 0.930 . S
H76 C53 0.929 1_565 S
H77 C54 0.929 1_565 S
H78 C56 0.931 . S
H79 C57 0.930 . S
Pr80 C82 2.880 . S
Pr80 O100 2.562 . S
Pr80 O101 2.490 . S
Pr80 O102 2.695 . S
Pr80 O103 2.512 . S
Pr80 O105 2.437 . S
Pr80 O108 2.436 . S
Pr80 O110 2.438 . S
Pr81 C91 2.880 . S
Pr81 O102 2.436 . S
Pr81 O104 2.438 . S
Pr81 O106 2.562 . S
Pr81 O107 2.490 . S
Pr81 O108 2.695 . S
Pr81 O109 2.512 . S
Pr81 O111 2.437 . S
C82 Pr80 2.880 . S
C82 C83 1.491 . S
C82 O100 1.254 . S
C82 O101 1.225 . S
C83 C82 1.491 . S
C83 C84 1.392 . S
C83 C88 1.356 . S
C84 C83 1.392 . S
C84 C85 1.368 . S
C84 H112 0.929 . S
C85 C84 1.368 . S
C85 C86 1.386 . S
C85 H113 0.929 . S
C86 C85 1.386 . S
C86 C87 1.373 . S
C87 C86 1.373 . S
C87 C88 1.409 . S
C87 H114 0.931 . S
C88 C83 1.356 . S
C88 C87 1.409 . S
C88 H115 0.930 . S
C89 O102 1.270 . S
C89 O103 1.248 . S
C90 O104 1.267 . S
C90 O105 1.278 . S
C91 Pr81 2.880 . S
C91 C92 1.491 . S
C91 O106 1.254 . S
C91 O107 1.225 . S
C92 C91 1.491 . S
C92 C93 1.392 . S
C92 C97 1.356 . S
C93 C92 1.392 . S
C93 C94 1.368 . S
C93 H116 0.929 . S
C94 C93 1.368 . S
C94 C95 1.386 . S
C94 H117 0.929 . S
C95 C94 1.386 . S
C95 C96 1.373 . S
C96 C95 1.373 . S
C96 C97 1.409 . S
C96 H118 0.931 . S
C97 C92 1.356 . S
C97 C96 1.409 . S
C97 H119 0.930 . S
C98 O108 1.270 . S
C98 O109 1.248 . S
C99 O110 1.267 . S
C99 O111 1.278 . S
O100 Pr80 2.562 . S
O100 C82 1.254 . S
O101 Pr80 2.490 . S
O101 C82 1.225 . S
O102 Pr80 2.695 . S
O102 Pr81 2.436 . S
O102 C89 1.270 . S
O103 Pr80 2.512 . S
O103 C89 1.248 . S
O104 Pr81 2.438 . S
O104 C90 1.267 . S
O105 Pr80 2.437 . S
O105 C90 1.278 . S
O106 Pr81 2.562 . S
O106 C91 1.254 . S
O107 Pr81 2.490 . S
O107 C91 1.225 . S
O108 Pr80 2.436 . S
O108 Pr81 2.695 . S
O108 C98 1.270 . S
O109 Pr81 2.512 . S
O109 C98 1.248 . S
O110 Pr80 2.438 . S
O110 C99 1.267 . S
O111 Pr81 2.437 . S
O111 C99 1.278 . S
H112 C84 0.929 . S
H113 C85 0.929 . S
H114 C87 0.931 . S
H115 C88 0.930 . S
H116 C93 0.929 . S
H117 C94 0.929 . S
H118 C96 0.931 . S
H119 C97 0.930 . S
Pr120 C122 2.880 . S
Pr120 O140 2.562 . S
Pr120 O141 2.490 . S
Pr120 O142 2.695 . S
Pr120 O143 2.512 . S
Pr120 O145 2.437 . S
Pr120 O148 2.436 . S
Pr120 O150 2.438 . S
Pr121 C131 2.880 . S
Pr121 O142 2.436 . S
Pr121 O144 2.438 . S
Pr121 O146 2.562 . S
Pr121 O147 2.490 . S
Pr121 O148 2.695 . S
Pr121 O149 2.512 . S
Pr121 O151 2.437 . S
C122 Pr120 2.880 . S
C122 C123 1.491 . S
C122 O140 1.254 . S
C122 O141 1.225 . S
C123 C122 1.491 . S
C123 C124 1.392 . S
C123 C128 1.356 . S
C124 C123 1.392 . S
C124 C125 1.368 . S
C124 H152 0.929 . S
C125 C124 1.368 . S
C125 C126 1.386 . S
C125 H153 0.929 . S
C126 C125 1.386 . S
C126 C127 1.373 . S
C127 C126 1.373 . S
C127 C128 1.409 . S
C127 H154 0.931 . S
C128 C123 1.356 . S
C128 C127 1.409 . S
C128 H155 0.930 . S
C129 O142 1.270 . S
C129 O143 1.248 . S
C130 O144 1.267 . S
C130 O145 1.278 . S
C131 Pr121 2.880 . S
C131 C132 1.491 . S
C131 O146 1.254 . S
C131 O147 1.225 . S
C132 C131 1.491 . S
C132 C133 1.392 . S
C132 C137 1.356 . S
C133 C132 1.392 . S
C133 C134 1.368 . S
C133 H156 0.929 . S
C134 C133 1.368 . S
C134 C135 1.386 . S
C134 H157 0.929 . S
C135 C134 1.386 . S
C135 C136 1.373 . S
C136 C135 1.373 . S
C136 C137 1.409 . S
C136 H158 0.931 . S
C137 C132 1.356 . S
C137 C136 1.409 . S
C137 H159 0.930 . S
C138 O148 1.270 . S
C138 O149 1.248 . S
C139 O150 1.267 . S
C139 O151 1.278 . S
O140 Pr120 2.562 . S
O140 C122 1.254 . S
O141 Pr120 2.490 . S
O141 C122 1.225 . S
O142 Pr120 2.695 . S
O142 Pr121 2.436 . S
O142 C129 1.270 . S
O143 Pr120 2.512 . S
O143 C129 1.248 . S
O144 Pr121 2.438 . S
O144 C130 1.267 . S
O145 Pr120 2.437 . S
O145 C130 1.278 . S
O146 Pr121 2.562 . S
O146 C131 1.254 . S
O147 Pr121 2.490 . S
O147 C131 1.225 . S
O148 Pr120 2.436 . S
O148 Pr121 2.695 . S
O148 C138 1.270 . S
O149 Pr121 2.512 . S
O149 C138 1.248 . S
O150 Pr120 2.438 . S
O150 C139 1.267 . S
O151 Pr121 2.437 . S
O151 C139 1.278 . S
H152 C124 0.929 . S
H153 C125 0.929 . S
H154 C127 0.931 . S
H155 C128 0.930 . S
H156 C133 0.929 . S
H157 C134 0.929 . S
H158 C136 0.931 . S
H159 C137 0.930 . S
Pr160 C162 2.880 . S
Pr160 O180 2.562 . S
Pr160 O181 2.490 . S
Pr160 O182 2.695 . S
Pr160 O183 2.512 . S
Pr160 O185 2.437 . S
Pr160 O188 2.436 . S
Pr160 O190 2.438 . S
Pr161 C171 2.880 . S
Pr161 O182 2.436 . S
Pr161 O184 2.438 . S
Pr161 O186 2.562 . S
Pr161 O187 2.490 . S
Pr161 O188 2.695 . S
Pr161 O189 2.512 1_455 S
Pr161 O191 2.437 . S
C162 Pr160 2.880 . S
C162 C163 1.491 . S
C162 O180 1.254 . S
C162 O181 1.225 . S
C163 C162 1.491 . S
C163 C164 1.392 . S
C163 C168 1.356 . S
C164 C163 1.392 . S
C164 C165 1.368 . S
C164 H192 0.929 . S
C165 C164 1.368 . S
C165 C166 1.386 . S
C165 H193 0.929 . S
C166 C165 1.386 . S
C166 C167 1.373 . S
C167 C166 1.373 . S
C167 C168 1.409 . S
C167 H194 0.931 . S
C168 C163 1.356 . S
C168 C167 1.409 . S
C168 H195 0.930 . S
C169 O182 1.270 . S
C169 O183 1.248 . S
C170 O184 1.267 . S
C170 O185 1.278 . S
C171 Pr161 2.880 . S
C171 C172 1.491 . S
C171 O186 1.254 . S
C171 O187 1.225 . S
C172 C171 1.491 . S
C172 C173 1.392 . S
C172 C177 1.356 . S
C173 C172 1.392 . S
C173 C174 1.368 . S
C173 H196 0.929 1_455 S
C174 C173 1.368 . S
C174 C175 1.386 . S
C174 H197 0.929 1_455 S
C175 C174 1.386 . S
C175 C176 1.373 . S
C176 C175 1.373 . S
C176 C177 1.409 . S
C176 H198 0.931 . S
C177 C172 1.356 . S
C177 C176 1.409 . S
C177 H199 0.930 . S
C178 O188 1.270 . S
C178 O189 1.248 1_455 S
C179 O190 1.267 . S
C179 O191 1.278 . S
O180 Pr160 2.562 . S
O180 C162 1.254 . S
O181 Pr160 2.490 . S
O181 C162 1.225 . S
O182 Pr160 2.695 . S
O182 Pr161 2.436 . S
O182 C169 1.270 . S
O183 Pr160 2.512 . S
O183 C169 1.248 . S
O184 Pr161 2.438 . S
O184 C170 1.267 . S
O185 Pr160 2.437 . S
O185 C170 1.278 . S
O186 Pr161 2.562 . S
O186 C171 1.254 . S
O187 Pr161 2.490 . S
O187 C171 1.225 . S
O188 Pr160 2.436 . S
O188 Pr161 2.695 . S
O188 C178 1.270 . S
O189 Pr161 2.512 1_655 S
O189 C178 1.248 1_655 S
O190 Pr160 2.438 . S
O190 C179 1.267 . S
O191 Pr161 2.437 . S
O191 C179 1.278 . S
H192 C164 0.929 . S
H193 C165 0.929 . S
H194 C167 0.931 . S
H195 C168 0.930 . S
H196 C173 0.929 1_655 S
H197 C174 0.929 1_655 S
H198 C176 0.931 . S
H199 C177 0.930 . S
Pr200 C202 2.880 . S
Pr200 O220 2.562 . S
Pr200 O221 2.490 . S
Pr200 O222 2.695 . S
Pr200 O223 2.512 . S
Pr200 O225 2.437 . S
Pr200 O228 2.436 . S
Pr200 O230 2.438 . S
Pr201 C211 2.880 . S
Pr201 O222 2.436 . S
Pr201 O224 2.438 . S
Pr201 O226 2.562 . S
Pr201 O227 2.490 . S
Pr201 O228 2.695 . S
Pr201 O229 2.512 . S
Pr201 O231 2.437 . S
C202 Pr200 2.880 . S
C202 C203 1.491 . S
C202 O220 1.254 . S
C202 O221 1.225 . S
C203 C202 1.491 . S
C203 C204 1.392 . S
C203 C208 1.356 . S
C204 C203 1.392 . S
C204 C205 1.368 . S
C204 H232 0.929 . S
C205 C204 1.368 . S
C205 C206 1.386 . S
C205 H233 0.929 . S
C206 C205 1.386 . S
C206 C207 1.373 . S
C207 C206 1.373 . S
C207 C208 1.409 . S
C207 H234 0.931 . S
C208 C203 1.356 . S
C208 C207 1.409 . S
C208 H235 0.930 . S
C209 O222 1.270 . S
C209 O223 1.248 . S
C210 O224 1.267 . S
C210 O225 1.278 . S
C211 Pr201 2.880 . S
C211 C212 1.491 . S
C211 O226 1.254 . S
C211 O227 1.225 . S
C212 C211 1.491 . S
C212 C213 1.392 . S
C212 C217 1.356 . S
C213 C212 1.392 . S
C213 C214 1.368 . S
C213 H236 0.929 . S
C214 C213 1.368 . S
C214 C215 1.386 . S
C214 H237 0.929 . S
C215 C214 1.386 . S
C215 C216 1.373 . S
C216 C215 1.373 . S
C216 C217 1.409 . S
C216 H238 0.931 . S
C217 C212 1.356 . S
C217 C216 1.409 . S
C217 H239 0.930 . S
C218 O228 1.270 . S
C218 O229 1.248 . S
C219 O230 1.267 . S
C219 O231 1.278 . S
O220 Pr200 2.562 . S
O220 C202 1.254 . S
O221 Pr200 2.490 . S
O221 C202 1.225 . S
O222 Pr200 2.695 . S
O222 Pr201 2.436 . S
O222 C209 1.270 . S
O223 Pr200 2.512 . S
O223 C209 1.248 . S
O224 Pr201 2.438 . S
O224 C210 1.267 . S
O225 Pr200 2.437 . S
O225 C210 1.278 . S
O226 Pr201 2.562 . S
O226 C211 1.254 . S
O227 Pr201 2.490 . S
O227 C211 1.225 . S
O228 Pr200 2.436 . S
O228 Pr201 2.695 . S
O228 C218 1.270 . S
O229 Pr201 2.512 . S
O229 C218 1.248 . S
O230 Pr200 2.438 . S
O230 C219 1.267 . S
O231 Pr201 2.437 . S
O231 C219 1.278 . S
H232 C204 0.929 . S
H233 C205 0.929 . S
H234 C207 0.931 . S
H235 C208 0.930 . S
H236 C213 0.929 . S
H237 C214 0.929 . S
H238 C216 0.931 . S
H239 C217 0.930 . S
H240 C248 0.950 . S
H241 C253 0.950 . S
H242 C250 0.950 . S
H243 C252 0.950 . S
H244 C254 0.950 . S
H245 C256 0.950 . S
H246 C258 0.950 . S
H247 C259 0.950 . S
C248 H240 0.950 . S
C248 C249 1.386 . S
C248 C250 1.391 . S
C249 C248 1.386 . S
C249 C253 1.393 . S
C250 H242 0.950 . S
C250 C248 1.391 . S
C250 C251 1.400 . S
C251 C250 1.400 . S
C251 C252 1.398 . S
C251 C257 1.491 . S
C252 H243 0.950 . S
C252 C251 1.398 . S
C252 C253 1.391 . S
C253 H241 0.950 . S
C253 C249 1.393 . S
C253 C252 1.391 . S
C254 H244 0.950 . S
C254 C255 1.386 . S
C254 C256 1.391 . S
C255 C254 1.386 . S
C255 C259 1.393 . S
C256 H245 0.950 . S
C256 C254 1.391 . S
C256 C257 1.400 . S
C257 C251 1.491 . S
C257 C256 1.400 . S
C257 C258 1.398 . S
C258 H246 0.950 . S
C258 C257 1.398 . S
C258 C259 1.391 . S
C259 H247 0.950 . S
C259 C255 1.393 . S
C259 C258 1.391 . S
H260 C268 0.950 . S
H261 C273 0.950 . S
H262 C270 0.950 . S
H263 C272 0.950 . S
H264 C274 0.950 . S
H265 C276 0.950 . S
H266 C278 0.950 . S
H267 C279 0.950 . S
C268 H260 0.950 . S
C268 C269 1.386 . S
C268 C270 1.391 . S
C269 C268 1.386 . S
C269 C273 1.393 . S
C270 H262 0.950 . S
C270 C268 1.391 . S
C270 C271 1.400 . S
C271 C270 1.400 . S
C271 C272 1.398 . S
C271 C277 1.491 . S
C272 H263 0.950 . S
C272 C271 1.398 . S
C272 C273 1.391 . S
C273 H261 0.950 . S
C273 C269 1.393 . S
C273 C272 1.391 . S
C274 H264 0.950 . S
C274 C275 1.386 . S
C274 C276 1.391 . S
C275 C274 1.386 . S
C275 C279 1.393 . S
C276 H265 0.950 . S
C276 C274 1.391 . S
C276 C277 1.400 . S
C277 C271 1.491 . S
C277 C276 1.400 . S
C277 C278 1.398 . S
C278 H266 0.950 . S
C278 C277 1.398 . S
C278 C279 1.391 . S
C279 H267 0.950 . S
C279 C275 1.393 . S
C279 C278 1.391 . S
H280 C288 0.950 . S
H281 C293 0.950 . S
H282 C290 0.950 . S
H283 C292 0.950 . S
H284 C294 0.950 . S
H285 C296 0.950 . S
H286 C298 0.950 . S
H287 C299 0.950 . S
C288 H280 0.950 . S
C288 C289 1.386 . S
C288 C290 1.391 . S
C289 C288 1.386 . S
C289 C293 1.393 . S
C290 H282 0.950 . S
C290 C288 1.391 . S
C290 C291 1.400 . S
C291 C290 1.400 . S
C291 C292 1.398 . S
C291 C297 1.491 . S
C292 H283 0.950 . S
C292 C291 1.398 . S
C292 C293 1.391 . S
C293 H281 0.950 . S
C293 C289 1.393 . S
C293 C292 1.391 . S
C294 H284 0.950 . S
C294 C295 1.386 . S
C294 C296 1.391 . S
C295 C294 1.386 . S
C295 C299 1.393 . S
C296 H285 0.950 . S
C296 C294 1.391 . S
C296 C297 1.400 . S
C297 C291 1.491 . S
C297 C296 1.400 . S
C297 C298 1.398 . S
C298 H286 0.950 . S
C298 C297 1.398 . S
C298 C299 1.391 . S
C299 H287 0.950 . S
C299 C295 1.393 . S
C299 C298 1.391 . S
H300 C308 0.950 . S
H301 C313 0.950 . S
H302 C310 0.950 . S
H303 C312 0.950 . S
H304 C314 0.950 . S
H305 C316 0.950 . S
H306 C318 0.950 . S
H307 C319 0.950 . S
C308 H300 0.950 . S
C308 C309 1.386 . S
C308 C310 1.391 . S
C309 C308 1.386 . S
C309 C313 1.393 . S
C310 H302 0.950 . S
C310 C308 1.391 . S
C310 C311 1.400 . S
C311 C310 1.400 . S
C311 C312 1.398 . S
C311 C317 1.491 . S
C312 H303 0.950 . S
C312 C311 1.398 . S
C312 C313 1.391 . S
C313 H301 0.950 . S
C313 C309 1.393 . S
C313 C312 1.391 . S
C314 H304 0.950 . S
C314 C315 1.386 . S
C314 C316 1.391 . S
C315 C314 1.386 . S
C315 C319 1.393 . S
C316 H305 0.950 . S
C316 C314 1.391 . S
C316 C317 1.400 . S
C317 C311 1.491 . S
C317 C316 1.400 . S
C317 C318 1.398 . S
C318 H306 0.950 . S
C318 C317 1.398 . S
C318 C319 1.391 . S
C319 H307 0.950 . S
C319 C315 1.393 . S
C319 C318 1.391 . S
H320 C328 0.950 . S
H321 C333 0.950 . S
H322 C330 0.950 . S
H323 C332 0.950 . S
H324 C334 0.950 . S
H325 C336 0.950 . S
H326 C338 0.950 . S
H327 C339 0.950 . S
C328 H320 0.950 . S
C328 C329 1.386 . S
C328 C330 1.391 . S
C329 C328 1.386 . S
C329 C333 1.393 . S
C330 H322 0.950 . S
C330 C328 1.391 . S
C330 C331 1.400 . S
C331 C330 1.400 . S
C331 C332 1.398 . S
C331 C337 1.491 . S
C332 H323 0.950 . S
C332 C331 1.398 . S
C332 C333 1.391 . S
C333 H321 0.950 . S
C333 C329 1.393 . S
C333 C332 1.391 . S
C334 H324 0.950 . S
C334 C335 1.386 . S
C334 C336 1.391 . S
C335 C334 1.386 . S
C335 C339 1.393 . S
C336 H325 0.950 . S
C336 C334 1.391 . S
C336 C337 1.400 . S
C337 C331 1.491 . S
C337 C336 1.400 . S
C337 C338 1.398 . S
C338 H326 0.950 . S
C338 C337 1.398 . S
C338 C339 1.391 . S
C339 H327 0.950 . S
C339 C335 1.393 . S
C339 C338 1.391 . S
H340 C348 0.950 . S
H341 C353 0.950 . S
H342 C350 0.950 . S
H343 C352 0.950 . S
H344 C354 0.950 . S
H345 C356 0.950 1_554 S
H346 C358 0.950 . S
H347 C359 0.950 . S
C348 H340 0.950 . S
C348 C349 1.386 . S
C348 C350 1.391 . S
C349 C348 1.386 . S
C349 C353 1.393 . S
C350 H342 0.950 . S
C350 C348 1.391 . S
C350 C351 1.400 . S
C351 C350 1.400 . S
C351 C352 1.398 . S
C351 C357 1.491 . S
C352 H343 0.950 . S
C352 C351 1.398 . S
C352 C353 1.391 . S
C353 H341 0.950 . S
C353 C349 1.393 . S
C353 C352 1.391 . S
C354 H344 0.950 . S
C354 C355 1.386 . S
C354 C356 1.391 . S
C355 C354 1.386 . S
C355 C359 1.393 . S
C356 H345 0.950 1_556 S
C356 C354 1.391 . S
C356 C357 1.400 1_556 S
C357 C351 1.491 . S
C357 C356 1.400 1_554 S
C357 C358 1.398 . S
C358 H346 0.950 . S
C358 C357 1.398 . S
C358 C359 1.391 1_554 S
C359 H347 0.950 . S
C359 C355 1.393 . S
C359 C358 1.391 1_556 S
H360 C368 0.950 . S
H361 C373 0.950 . S
H362 C370 0.950 . S
H363 C372 0.950 . S
H364 C374 0.950 . S
H365 C376 0.950 . S
H366 C378 0.950 . S
H367 C379 0.950 . S
C368 H360 0.950 . S
C368 C369 1.386 . S
C368 C370 1.391 . S
C369 C368 1.386 . S
C369 C373 1.393 . S
C370 H362 0.950 . S
C370 C368 1.391 . S
C370 C371 1.400 . S
C371 C370 1.400 . S
C371 C372 1.398 . S
C371 C377 1.491 . S
C372 H363 0.950 . S
C372 C371 1.398 . S
C372 C373 1.391 . S
C373 H361 0.950 . S
C373 C369 1.393 . S
C373 C372 1.391 . S
C374 H364 0.950 . S
C374 C375 1.386 . S
C374 C376 1.391 . S
C375 C374 1.386 . S
C375 C379 1.393 . S
C376 H365 0.950 . S
C376 C374 1.391 . S
C376 C377 1.400 . S
C377 C371 1.491 . S
C377 C376 1.400 . S
C377 C378 1.398 . S
C378 H366 0.950 . S
C378 C377 1.398 . S
C378 C379 1.391 . S
C379 H367 0.950 . S
C379 C375 1.393 . S
C379 C378 1.391 . S
H380 C388 0.950 1_455 S
H381 C393 0.950 . S
H382 C390 0.950 . S
H383 C392 0.950 . S
H384 C394 0.950 . S
H385 C396 0.950 . S
H386 C398 0.950 . S
H387 C399 0.950 . S
C388 H380 0.950 1_655 S
C388 C389 1.386 . S
C388 C390 1.391 . S
C389 C388 1.386 . S
C389 C393 1.393 . S
C390 H382 0.950 . S
C390 C388 1.391 . S
C390 C391 1.400 . S
C391 C390 1.400 . S
C391 C392 1.398 . S
C391 C397 1.491 . S
C392 H383 0.950 . S
C392 C391 1.398 . S
C392 C393 1.391 . S
C393 H381 0.950 . S
C393 C389 1.393 . S
C393 C392 1.391 . S
C394 H384 0.950 . S
C394 C395 1.386 . S
C394 C396 1.391 . S
C395 C394 1.386 . S
C395 C399 1.393 . S
C396 H385 0.950 . S
C396 C394 1.391 . S
C396 C397 1.400 . S
C397 C391 1.491 . S
C397 C396 1.400 . S
C397 C398 1.398 . S
C398 H386 0.950 . S
C398 C397 1.398 . S
C398 C399 1.391 . S
C399 H387 0.950 . S
C399 C395 1.393 . S
C399 C398 1.391 . S
H400 C408 0.950 . S
H401 C413 0.950 . S
H402 C410 0.950 . S
H403 C412 0.950 . S
H404 C414 0.950 . S
H405 C416 0.950 . S
H406 C418 0.950 . S
H407 C419 0.950 . S
C408 H400 0.950 . S
C408 C409 1.386 . S
C408 C410 1.391 . S
C409 C408 1.386 . S
C409 C413 1.393 . S
C410 H402 0.950 . S
C410 C408 1.391 . S
C410 C411 1.400 . S
C411 C410 1.400 . S
C411 C412 1.398 . S
C411 C417 1.491 . S
C412 H403 0.950 . S
C412 C411 1.398 . S
C412 C413 1.391 . S
C413 H401 0.950 . S
C413 C409 1.393 . S
C413 C412 1.391 . S
C414 H404 0.950 . S
C414 C415 1.386 1_565 S
C414 C416 1.391 1_565 S
C415 C414 1.386 1_545 S
C415 C419 1.393 . S
C416 H405 0.950 . S
C416 C414 1.391 1_545 S
C416 C417 1.400 . S
C417 C411 1.491 . S
C417 C416 1.400 . S
C417 C418 1.398 . S
C418 H406 0.950 . S
C418 C417 1.398 . S
C418 C419 1.391 . S
C419 H407 0.950 . S
C419 C415 1.393 . S
C419 C418 1.391 . S
H420 C428 0.950 . S
H421 C433 0.950 . S
H422 C430 0.950 . S
H423 C432 0.950 . S
H424 C434 0.950 . S
H425 C436 0.950 . S
H426 C438 0.950 . S
H427 C439 0.950 . S
C428 H420 0.950 . S
C428 C429 1.386 . S
C428 C430 1.391 . S
C429 C428 1.386 . S
C429 C433 1.393 . S
C430 H422 0.950 . S
C430 C428 1.391 . S
C430 C431 1.400 . S
C431 C430 1.400 . S
C431 C432 1.398 . S
C431 C437 1.491 . S
C432 H423 0.950 . S
C432 C431 1.398 . S
C432 C433 1.391 . S
C433 H421 0.950 . S
C433 C429 1.393 . S
C433 C432 1.391 . S
C434 H424 0.950 . S
C434 C435 1.386 . S
C434 C436 1.391 . S
C435 C434 1.386 . S
C435 C439 1.393 . S
C436 H425 0.950 . S
C436 C434 1.391 . S
C436 C437 1.400 . S
C437 C431 1.491 . S
C437 C436 1.400 . S
C437 C438 1.398 . S
C438 H426 0.950 . S
C438 C437 1.398 . S
C438 C439 1.391 . S
C439 H427 0.950 . S
C439 C435 1.393 . S
C439 C438 1.391 . S
H440 C448 0.950 . S
H441 C453 0.950 . S
H442 C450 0.950 . S
H443 C452 0.950 . S
H444 C454 0.950 . S
H445 C456 0.950 . S
H446 C458 0.950 . S
H447 C459 0.950 . S
C448 H440 0.950 . S
C448 C449 1.386 . S
C448 C450 1.391 . S
C449 C448 1.386 . S
C449 C453 1.393 . S
C450 H442 0.950 . S
C450 C448 1.391 . S
C450 C451 1.400 . S
C451 C450 1.400 . S
C451 C452 1.398 . S
C451 C457 1.491 . S
C452 H443 0.950 . S
C452 C451 1.398 . S
C452 C453 1.391 . S
C453 H441 0.950 . S
C453 C449 1.393 . S
C453 C452 1.391 . S
C454 H444 0.950 . S
C454 C455 1.386 1_655 S
C454 C456 1.391 . S
C455 C454 1.386 1_455 S
C455 C459 1.393 . S
C456 H445 0.950 . S
C456 C454 1.391 . S
C456 C457 1.400 1_655 S
C457 C451 1.491 . S
C457 C456 1.400 1_455 S
C457 C458 1.398 . S
C458 H446 0.950 . S
C458 C457 1.398 . S
C458 C459 1.391 . S
C459 H447 0.950 . S
C459 C455 1.393 . S
C459 C458 1.391 . S
H460 C468 0.950 . S
H461 C473 0.950 . S
H462 C470 0.950 . S
H463 C472 0.950 . S
H464 C474 0.950 . S
H465 C476 0.950 . S
H466 C478 0.950 . S
H467 C479 0.950 . S
C468 H460 0.950 . S
C468 C469 1.386 . S
C468 C470 1.391 . S
C469 C468 1.386 . S
C469 C473 1.393 . S
C470 H462 0.950 . S
C470 C468 1.391 . S
C470 C471 1.400 . S
C471 C470 1.400 . S
C471 C472 1.398 . S
C471 C477 1.491 . S
C472 H463 0.950 . S
C472 C471 1.398 . S
C472 C473 1.391 . S
C473 H461 0.950 . S
C473 C469 1.393 . S
C473 C472 1.391 . S
C474 H464 0.950 . S
C474 C475 1.386 . S
C474 C476 1.391 . S
C475 C474 1.386 . S
C475 C479 1.393 . S
C476 H465 0.950 . S
C476 C474 1.391 . S
C476 C477 1.400 . S
C477 C471 1.491 . S
C477 C476 1.400 . S
C477 C478 1.398 . S
C478 H466 0.950 . S
C478 C477 1.398 . S
C478 C479 1.391 . S
C479 H467 0.950 . S
C479 C475 1.393 . S
C479 C478 1.391 . S
H480 C488 0.950 . S
H481 C493 0.950 . S
H482 C490 0.950 . S
H483 C492 0.950 . S
H484 C494 0.950 . S
H485 C496 0.950 . S
H486 C498 0.950 . S
H487 C499 0.950 1_554 S
C488 H480 0.950 . S
C488 C489 1.386 . S
C488 C490 1.391 . S
C489 C488 1.386 . S
C489 C493 1.393 . S
C490 H482 0.950 . S
C490 C488 1.391 . S
C490 C491 1.400 . S
C491 C490 1.400 . S
C491 C492 1.398 . S
C491 C497 1.491 . S
C492 H483 0.950 . S
C492 C491 1.398 . S
C492 C493 1.391 . S
C493 H481 0.950 . S
C493 C489 1.393 . S
C493 C492 1.391 . S
C494 H484 0.950 . S
C494 C495 1.386 . S
C494 C496 1.391 1_554 S
C495 C494 1.386 . S
C495 C499 1.393 1_554 S
C496 H485 0.950 . S
C496 C494 1.391 1_556 S
C496 C497 1.400 . S
C497 C491 1.491 . S
C497 C496 1.400 . S
C497 C498 1.398 . S
C498 H486 0.950 . S
C498 C497 1.398 . S
C498 C499 1.391 . S
C499 H487 0.950 1_556 S
C499 C495 1.393 1_556 S
C499 C498 1.391 . S
H500 C508 0.950 . S
H501 C513 0.959 . S
H502 C510 0.950 1_455 S
H503 C512 0.950 . S
H504 C514 0.950 . S
H505 C516 0.950 1_655 S
H506 C518 0.950 . S
H507 C519 0.950 . S
C508 H500 0.950 . S
C508 C509 1.386 . S
C508 C510 1.391 . S
C509 C508 1.386 . S
C509 C513 1.393 . S
C510 H502 0.950 1_655 S
C510 C508 1.391 . S
C510 C511 1.400 . S
C511 C510 1.400 . S
C511 C512 1.398 . S
C511 C517 1.491 1_655 S
C512 H503 0.950 . S
C512 C511 1.398 . S
C512 C513 1.391 . S
C513 H501 0.959 . S
C513 C509 1.393 . S
C513 C512 1.391 . S
C514 H504 0.950 . S
C514 C515 1.386 . S
C514 C516 1.391 . S
C515 C514 1.386 . S
C515 C519 1.393 . S
C516 H505 0.950 1_455 S
C516 C514 1.391 . S
C516 C517 1.400 . S
C517 C511 1.491 1_455 S
C517 C516 1.400 . S
C517 C518 1.398 . S
C518 H506 0.950 . S
C518 C517 1.398 . S
C518 C519 1.391 . S
C519 H507 0.950 . S
C519 C515 1.393 . S
C519 C518 1.391 . S
H520 C528 0.950 1_545 S
H521 C533 0.950 . S
H522 C530 0.950 . S
H523 C532 0.950 . S
H524 C534 0.950 . S
H525 C536 0.950 . S
H526 C538 0.950 . S
H527 C539 0.950 . S
C528 H520 0.950 1_565 S
C528 C529 1.386 . S
C528 C530 1.391 1_565 S
C529 C528 1.386 . S
C529 C533 1.393 . S
C530 H522 0.950 . S
C530 C528 1.391 1_545 S
C530 C531 1.400 1_545 S
C531 C530 1.400 1_565 S
C531 C532 1.398 . S
C531 C537 1.493 . S
C532 H523 0.950 . S
C532 C531 1.398 . S
C532 C533 1.391 . S
C533 H521 0.950 . S
C533 C529 1.393 . S
C533 C532 1.391 . S
C534 H524 0.950 . S
C534 C535 1.386 1_565 S
C534 C536 1.391 . S
C535 C534 1.386 1_545 S
C535 C539 1.393 . S
C536 H525 0.950 . S
C536 C534 1.391 . S
C536 C537 1.407 . S
C537 C531 1.493 . S
C537 C536 1.407 . S
C537 C538 1.389 1_565 S
C538 H526 0.950 . S
C538 C537 1.389 1_545 S
C538 C539 1.391 . S
C539 H527 0.950 . S
C539 C535 1.393 . S
C539 C538 1.391 . S
H540 C548 0.950 . S
H541 C553 0.950 . S
H542 C550 0.950 . S
H543 C552 0.950 . S
H544 C554 0.950 1_554 S
H545 C556 0.950 . S
H546 C558 0.950 . S
H547 C559 0.950 . S
C548 H540 0.950 . S
C548 C549 1.386 . S
C548 C550 1.391 . S
C549 C548 1.386 . S
C549 C553 1.393 . S
C550 H542 0.950 . S
C550 C548 1.391 . S
C550 C551 1.400 . S
C551 C550 1.400 . S
C551 C552 1.398 . S
C551 C557 1.491 . S
C552 H543 0.950 . S
C552 C551 1.398 . S
C552 C553 1.391 . S
C553 H541 0.950 . S
C553 C549 1.393 . S
C553 C552 1.391 . S
C554 H544 0.950 1_556 S
C554 C555 1.386 1_556 S
C554 C556 1.391 . S
C555 C554 1.386 1_554 S
C555 C559 1.393 1_554 S
C556 H545 0.950 . S
C556 C554 1.391 . S
C556 C557 1.400 . S
C557 C551 1.491 . S
C557 C556 1.400 . S
C557 C558 1.398 . S
C558 H546 0.950 . S
C558 C557 1.398 . S
C558 C559 1.391 . S
C559 H547 0.950 . S
C559 C555 1.393 1_556 S
C559 C558 1.391 . S
H560 C568 0.950 . S
H561 C573 0.950 . S
H562 C570 0.950 . S
H563 C572 0.950 . S
H564 C574 0.950 . S
H565 C576 0.950 . S
H566 C578 0.950 . S
H567 C579 0.950 . S
C568 H560 0.950 . S
C568 C569 1.386 . S
C568 C570 1.391 . S
C569 C568 1.386 . S
C569 C573 1.393 1_455 S
C570 H562 0.950 . S
C570 C568 1.391 . S
C570 C571 1.405 . S
C571 C570 1.405 . S
C571 C572 1.396 1_455 S
C571 C577 1.489 1_455 S
C572 H563 0.950 . S
C572 C571 1.396 1_655 S
C572 C573 1.391 . S
C573 H561 0.950 . S
C573 C569 1.393 1_655 S
C573 C572 1.391 . S
C574 H564 0.950 . S
C574 C575 1.386 . S
C574 C576 1.391 . S
C575 C574 1.386 . S
C575 C579 1.393 1_655 S
C576 H565 0.950 . S
C576 C574 1.391 . S
C576 C577 1.400 . S
C577 C571 1.489 1_655 S
C577 C576 1.400 . S
C577 C578 1.398 1_655 S
C578 H566 0.950 . S
C578 C577 1.398 1_455 S
C578 C579 1.391 . S
C579 H567 0.950 . S
C579 C575 1.393 1_455 S
C579 C578 1.391 . S
H580 C588 0.950 . S
H581 C593 0.950 . S
H582 C590 0.950 . S
H583 C592 0.950 . S
H584 C594 0.950 . S
H585 C596 0.950 . S
H586 C598 0.950 1_545 S
H587 C599 0.950 . S
C588 H580 0.950 . S
C588 C589 1.386 . S
C588 C590 1.391 . S
C589 C588 1.386 . S
C589 C593 1.393 . S
C590 H582 0.950 . S
C590 C588 1.391 . S
C590 C591 1.400 . S
C591 C590 1.400 . S
C591 C592 1.398 1_545 S
C591 C597 1.491 1_545 S
C592 H583 0.950 . S
C592 C591 1.398 1_565 S
C592 C593 1.391 1_565 S
C593 H581 0.950 . S
C593 C589 1.393 . S
C593 C592 1.391 1_545 S
C594 H584 0.950 . S
C594 C595 1.386 . S
C594 C596 1.391 . S
C595 C594 1.386 . S
C595 C599 1.393 . S
C596 H585 0.950 . S
C596 C594 1.391 . S
C596 C597 1.400 . S
C597 C591 1.491 1_565 S
C597 C596 1.400 . S
C597 C598 1.398 . S
C598 H586 0.950 1_565 S
C598 C597 1.398 . S
C598 C599 1.391 . S
C599 H587 0.950 . S
C599 C595 1.393 . S
C599 C598 1.391 . S
C249 C166 1.440 . S
C255 C19 1.466 . S
C269 C219 1.476 . S
C275 C46 1.460 . S
C289 C6 1.459 . S
C295 C99 1.476 . S
C309 C59 1.476 . S
C315 C126 1.459 . S
C329 C86 1.450 . S
C335 C179 1.471 . S
C349 C139 1.472 . S
C355 C206 1.453 . S
C369 C18 1.278 . S
C375 C129 1.158 . S
C389 C178 1.274 1_655 S
C395 C49 1.124 . S
C409 C209 1.170 . S
C415 C98 1.297 1_545 S
C429 C89 1.172 . S
C435 C218 1.287 . S
C449 C9 1.155 . S
C455 C138 1.300 1_455 S
C469 C169 1.118 . S
C475 C58 1.285 1_565 S
C489 C210 1.746 . S
C495 C10 1.745 . S
C509 C55 0.856 . S
C515 C15 0.841 . S
C529 C90 1.745 . S
C535 C50 1.744 . S
C549 C95 0.857 . S
C555 C135 0.841 . S
C569 C170 1.740 . S
C575 C130 1.742 . S
C589 C215 0.841 . S
C595 C175 0.855 . S
