# Generated by pormake.
# Topology uol, (4)-cn, num edge types: 1
# Building blocks:
#     Node 0, Type 0, BuildingBlock: MUDLON_clean_sbu_0, # of connection points: 4
#     Node 1, Type 0, BuildingBlock: MUDLON_clean_sbu_0, # of connection points: 4
#     Node 2, Type 0, BuildingBlock: MUDLON_clean_sbu_0, # of connection points: 4
#     Node 3, Type 0, BuildingBlock: MUDLON_clean_sbu_0, # of connection points: 4
#     Node 4, Type 0, BuildingBlock: MUDLON_clean_sbu_0, # of connection points: 4
#     Node 5, Type 0, BuildingBlock: MUDLON_clean_sbu_0, # of connection points: 4
#     Node 6, Type 0, BuildingBlock: MUDLON_clean_sbu_0, # of connection points: 4
#     Node 7, Type 0, BuildingBlock: MUDLON_clean_sbu_0, # of connection points: 4
#     Node 8, Type 0, BuildingBlock: MUDLON_clean_sbu_0, # of connection points: 4
#     Node 9, Type 0, BuildingBlock: MUDLON_clean_sbu_0, # of connection points: 4
#     Node 10, Type 0, BuildingBlock: MUDLON_clean_sbu_0, # of connection points: 4
#     Node 11, Type 0, BuildingBlock: MUDLON_clean_sbu_0, # of connection points: 4
#     Edge 12, Type (0, 0), BuildingBlock: CIFDUS_clean_linker_0, # of connection points: 2
#     Edge 13, Type (0, 0), BuildingBlock: CIFDUS_clean_linker_0, # of connection points: 2
#     Edge 14, Type (0, 0), BuildingBlock: CIFDUS_clean_linker_0, # of connection points: 2
#     Edge 15, Type (0, 0), BuildingBlock: CIFDUS_clean_linker_0, # of connection points: 2
#     Edge 16, Type (0, 0), BuildingBlock: CIFDUS_clean_linker_0, # of connection points: 2
#     Edge 17, Type (0, 0), BuildingBlock: CIFDUS_clean_linker_0, # of connection points: 2
#     Edge 18, Type (0, 0), BuildingBlock: CIFDUS_clean_linker_0, # of connection points: 2
#     Edge 19, Type (0, 0), BuildingBlock: CIFDUS_clean_linker_0, # of connection points: 2
#     Edge 20, Type (0, 0), BuildingBlock: CIFDUS_clean_linker_0, # of connection points: 2
#     Edge 21, Type (0, 0), BuildingBlock: CIFDUS_clean_linker_0, # of connection points: 2
#     Edge 22, Type (0, 0), BuildingBlock: CIFDUS_clean_linker_0, # of connection points: 2
#     Edge 23, Type (0, 0), BuildingBlock: CIFDUS_clean_linker_0, # of connection points: 2
#     Edge 24, Type (0, 0), BuildingBlock: CIFDUS_clean_linker_0, # of connection points: 2
#     Edge 25, Type (0, 0), BuildingBlock: CIFDUS_clean_linker_0, # of connection points: 2
#     Edge 26, Type (0, 0), BuildingBlock: CIFDUS_clean_linker_0, # of connection points: 2
#     Edge 27, Type (0, 0), BuildingBlock: CIFDUS_clean_linker_0, # of connection points: 2
#     Edge 28, Type (0, 0), BuildingBlock: CIFDUS_clean_linker_0, # of connection points: 2
#     Edge 29, Type (0, 0), BuildingBlock: CIFDUS_clean_linker_0, # of connection points: 2
#     Edge 30, Type (0, 0), BuildingBlock: CIFDUS_clean_linker_0, # of connection points: 2
#     Edge 31, Type (0, 0), BuildingBlock: CIFDUS_clean_linker_0, # of connection points: 2
#     Edge 32, Type (0, 0), BuildingBlock: CIFDUS_clean_linker_0, # of connection points: 2
#     Edge 33, Type (0, 0), BuildingBlock: CIFDUS_clean_linker_0, # of connection points: 2
#     Edge 34, Type (0, 0), BuildingBlock: CIFDUS_clean_linker_0, # of connection points: 2
#     Edge 35, Type (0, 0), BuildingBlock: CIFDUS_clean_linker_0, # of connection points: 2
# Relax obj value: 0.129
# Max RMSD: 0.264
# Mean RMSD: 0.264
data_MOF--net-uol--node1-MUDLON_clean_sbu_0--edge1-CIFDUS_clean_linker_0
_symmetry_space_group_name_H-M    P1
_symmetry_Int_Tables_number       1
_symmetry_cell_setting            triclinic
loop_
_symmetry_equiv_pos_as_xyz
'x, y, z'
_cell_length_a     29.374741
_cell_length_b     29.482087
_cell_length_c     62.911061
_cell_angle_alpha  89.881847
_cell_angle_beta   90.030581
_cell_angle_gamma 119.91805
loop_
_atom_site_label
_atom_site_type_symbol
_atom_site_fract_x
_atom_site_fract_y
_atom_site_fract_z
_atom_type_partial_charge
Mg0 Mg 0.15354 0.34504 0.12952 0.0
C1 C 0.044 0.30503 0.14734 0.0
O2 O 0.04793 0.34402 0.13581 0.0
C3 C 0.19725 0.35005 0.08686 0.0
O4 O 0.22958 0.39618 0.095 0.0
C5 C 0.14566 0.43436 0.11132 0.0
O6 O 0.12162 0.39806 0.09681 0.0
O7 O 0.16464 0.42376 0.12751 0.0
O8 O 0.08119 0.29476 0.14683 0.0
O9 O 0.21579 0.34157 0.14657 0.0
C10 C 0.22145 0.34657 0.1666 0.0
O11 O 0.19119 0.35896 0.17758 0.0
O12 O 0.15753 0.31813 0.09776 0.0
Mg13 Mg 0.8147 0.1365 0.2909 0.0
C14 C 0.91739 0.22793 0.30652 0.0
O15 O 0.92769 0.23309 0.28606 0.0
C16 C 0.71737 0.12611 0.27137 0.0
O17 O 0.72296 0.09095 0.26067 0.0
C18 C 0.85507 0.17316 0.2468 0.0
O19 O 0.82963 0.19846 0.2505 0.0
O20 O 0.85445 0.14186 0.26091 0.0
O21 O 0.87243 0.19249 0.31286 0.0
O22 O 0.78077 0.06008 0.30627 0.0
C23 C 0.80672 0.0512 0.32024 0.0
O24 O 0.8557 0.08716 0.3239 0.0
O25 O 0.75113 0.15274 0.28551 0.0
Mg26 Mg 0.68677 0.78888 0.45707 0.0
C27 C 0.69324 0.88732 0.47451 0.0
O28 O 0.71846 0.90598 0.45651 0.0
C29 C 0.61011 0.67339 0.45649 0.0
O30 O 0.64967 0.67483 0.46682 0.0
C31 C 0.70128 0.8381 0.4132 0.0
O32 O 0.64972 0.81316 0.414 0.0
O33 O 0.72662 0.83325 0.42861 0.0
O34 O 0.67225 0.83854 0.47819 0.0
O35 O 0.73806 0.77108 0.47596 0.0
C36 C 0.77363 0.80642 0.48747 0.0
O37 O 0.782 0.85447 0.48615 0.0
O38 O 0.61425 0.71618 0.44997 0.0
Mg39 Mg 0.904 0.68714 0.62447 0.0
C40 C 0.97653 0.76556 0.657 0.0
O41 O 0.93181 0.76097 0.66333 0.0
C42 C 0.85925 0.68228 0.58141 0.0
O43 O 0.8387 0.63246 0.58617 0.0
C44 C 0.87623 0.57145 0.61918 0.0
O45 O 0.82855 0.55963 0.62491 0.0
O46 O 0.91198 0.61919 0.61793 0.0
O47 O 0.97718 0.74196 0.64019 0.0
O48 O 0.84131 0.67135 0.64685 0.0
C49 C 0.81057 0.68924 0.64331 0.0
O50 O 0.81372 0.71211 0.62499 0.0
O51 O 0.89035 0.7162 0.59464 0.0
Mg52 Mg 0.22453 0.88063 0.79805 0.0
C53 C 0.12922 0.7905 0.81961 0.0
O54 O 0.10915 0.78392 0.80044 0.0
C55 C 0.3336 0.90641 0.78651 0.0
O56 O 0.34045 0.95318 0.79038 0.0
C57 C 0.18087 0.86415 0.75288 0.0
O58 O 0.22081 0.85712 0.74888 0.0
O59 O 0.17421 0.87548 0.77169 0.0
O60 O 0.17682 0.82549 0.82257 0.0
O61 O 0.25857 0.95629 0.81369 0.0
C62 C 0.23167 0.96446 0.82739 0.0
O63 O 0.18242 0.92836 0.83047 0.0
O64 O 0.28766 0.86699 0.78813 0.0
Mg65 Mg 0.35122 0.2159 0.96668 0.0
C66 C 0.33541 0.11463 0.98616 0.0
O67 O 0.31677 0.09653 0.96714 0.0
C68 C 0.44145 0.32404 0.95642 0.0
O69 O 0.40437 0.33595 0.95937 0.0
C70 C 0.33423 0.1696 0.92262 0.0
O71 O 0.38579 0.19709 0.92272 0.0
O72 O 0.30912 0.17137 0.93877 0.0
O73 O 0.35458 0.16315 0.98984 0.0
O74 O 0.30863 0.2479 0.98317 0.0
C75 C 0.26539 0.21575 0.99202 0.0
O76 O 0.24668 0.16538 0.98914 0.0
O77 O 0.43027 0.27669 0.95846 0.0
Mg78 Mg 0.67786 0.88242 0.74824 0.0
C79 C 0.68478 0.79334 0.72758 0.0
O80 O 0.70232 0.79139 0.74657 0.0
C81 C 0.60869 0.92322 0.76184 0.0
O82 O 0.65579 0.96464 0.76311 0.0
C83 C 0.70221 0.87626 0.79544 0.0
O84 O 0.67152 0.89614 0.79867 0.0
O85 O 0.71211 0.86883 0.77649 0.0
O86 O 0.66822 0.82522 0.72425 0.0
O87 O 0.72869 0.95811 0.73355 0.0
C88 C 0.75992 0.96237 0.71868 0.0
O89 O 0.76474 0.92166 0.71381 0.0
O90 O 0.60454 0.88007 0.75595 0.0
Mg91 Mg 0.80418 0.6898 0.91908 0.0
C92 C 0.79103 0.72867 0.87758 0.0
O93 O 0.79691 0.68868 0.87256 0.0
C94 C 0.84702 0.70271 0.96334 0.0
O95 O 0.81903 0.65146 0.96207 0.0
C96 C 0.7166 0.57727 0.92806 0.0
O97 O 0.75342 0.56575 0.92374 0.0
O98 O 0.72753 0.62474 0.92733 0.0
O99 O 0.79179 0.74014 0.89713 0.0
O100 O 0.85243 0.66632 0.90122 0.0
C101 C 0.9017 0.68965 0.90443 0.0
O102 O 0.92107 0.72163 0.92068 0.0
O103 O 0.84684 0.73002 0.94768 0.0
Mg104 Mg 0.12615 0.78621 0.09046 0.0
C105 C 0.21594 0.88381 0.07042 0.0
O106 O 0.21863 0.90271 0.08956 0.0
C107 C 0.12595 0.68795 0.08171 0.0
O108 O 0.11094 0.69847 0.06357 0.0
C109 C 0.16236 0.83649 0.13404 0.0
O110 O 0.1861 0.80872 0.13391 0.0
O111 O 0.13337 0.83296 0.11837 0.0
O112 O 0.18309 0.83596 0.06685 0.0
O113 O 0.05086 0.75722 0.07456 0.0
C114 C 0.04535 0.78643 0.06111 0.0
O115 O 0.0836 0.83493 0.05873 0.0
O116 O 0.13648 0.71952 0.09711 0.0
Mg117 Mg 0.36262 0.13696 0.25366 0.0
C118 C 0.35467 0.23315 0.24401 0.0
O119 O 0.36237 0.23903 0.26463 0.0
C120 C 0.4747 0.17713 0.2687 0.0
O121 O 0.46099 0.20059 0.28296 0.0
C122 C 0.294 0.13322 0.29064 0.0
O123 O 0.25704 0.11254 0.27611 0.0
O124 O 0.34026 0.14357 0.28591 0.0
O125 O 0.35578 0.19526 0.23487 0.0
O126 O 0.31413 0.06051 0.23911 0.0
C127 C 0.28037 0.05354 0.22492 0.0
O128 O 0.2716 0.09205 0.2204 0.0
O129 O 0.44215 0.15012 0.25426 0.0
Mg130 Mg 0.22736 0.33819 0.41412 0.0
C131 C 0.29266 0.30018 0.38966 0.0
O132 O 0.33238 0.34463 0.39621 0.0
C133 C 0.18911 0.32964 0.45934 0.0
O134 O 0.20868 0.38011 0.45629 0.0
C135 C 0.33168 0.42123 0.43105 0.0
O136 O 0.32614 0.38002 0.44141 0.0
O137 O 0.29567 0.41571 0.41829 0.0
O138 O 0.24638 0.2877 0.39544 0.0
O139 O 0.1664 0.34108 0.39552 0.0
C140 C 0.11935 0.31904 0.40231 0.0
O141 O 0.10913 0.29896 0.42154 0.0
O142 O 0.19363 0.30254 0.44466 0.0
Mg143 Mg 0.88916 0.21599 0.57973 0.0
C144 C 0.80294 0.11779 0.55843 0.0
O145 O 0.79565 0.09931 0.57791 0.0
C146 C 0.90186 0.3205 0.59134 0.0
O147 O 0.95116 0.33367 0.58822 0.0
C148 C 0.86621 0.1705 0.62431 0.0
O149 O 0.85006 0.20453 0.62652 0.0
O150 O 0.88584 0.168 0.60664 0.0
O151 O 0.83739 0.16528 0.55504 0.0
O152 O 0.96645 0.25567 0.56505 0.0
C153 C 0.98061 0.22937 0.55359 0.0
O154 O 0.9497 0.17842 0.55237 0.0
O155 O 0.86645 0.27295 0.58898 0.0
H156 H 0.16061 0.65596 0.11594 0.0
H157 H 0.09735 0.61039 0.0526 0.0
H158 H 0.09905 0.52906 0.05612 0.0
H159 H 0.11654 0.46988 0.07717 0.0
H160 H 0.18041 0.51411 0.14041 0.0
H161 H 0.18067 0.59695 0.13686 0.0
C162 C 0.1473 0.62826 0.10291 0.0
C163 C 0.12871 0.63933 0.08407 0.0
C164 C 0.14847 0.58128 0.10498 0.0
C165 C 0.11183 0.60304 0.0673 0.0
C166 C 0.11273 0.55638 0.06928 0.0
C167 C 0.13065 0.49761 0.0902 0.0
C168 C 0.14822 0.48564 0.10906 0.0
C169 C 0.13068 0.54498 0.08806 0.0
C170 C 0.16666 0.52229 0.1257 0.0
C171 C 0.16671 0.56964 0.1237 0.0
H172 H 0.68928 0.18899 0.29271 0.0
H173 H 0.64278 0.07951 0.24066 0.0
H174 H 0.5655 0.08808 0.2345 0.0
H175 H 0.50907 0.12354 0.24473 0.0
H176 H 0.55384 0.23146 0.29726 0.0
H177 H 0.63395 0.22687 0.30223 0.0
C178 C 0.6624 0.16721 0.27995 0.0
C179 C 0.67178 0.13346 0.26724 0.0
C180 C 0.61764 0.17198 0.27656 0.0
C181 C 0.63649 0.10558 0.25076 0.0
C182 C 0.59222 0.11046 0.2472 0.0
C183 C 0.5365 0.14644 0.25717 0.0
C184 C 0.52528 0.17767 0.27064 0.0
C185 C 0.58212 0.14311 0.26013 0.0
C186 C 0.56136 0.20699 0.28668 0.0
C187 C 0.60718 0.20432 0.28957 0.0
H188 H 0.52103 0.65445 0.43508 0.0
H189 H 0.58962 0.57755 0.47036 0.0
H190 H 0.50991 0.49357 0.46571 0.0
H191 H 0.42066 0.44159 0.45194 0.0
H192 H 0.35133 0.5168 0.41612 0.0
H193 H 0.43122 0.60156 0.42071 0.0
C194 C 0.51853 0.61932 0.44173 0.0
C195 C 0.56137 0.62253 0.4531 0.0
C196 C 0.47236 0.57073 0.43895 0.0
C197 C 0.55741 0.57647 0.46155 0.0
C198 C 0.51173 0.52827 0.45892 0.0
C199 C 0.42286 0.47649 0.44516 0.0
C200 C 0.37993 0.47278 0.43377 0.0
C201 C 0.46895 0.52494 0.44772 0.0
C202 C 0.38378 0.51847 0.42497 0.0
C203 C 0.42947 0.56699 0.42759 0.0
H204 H 0.80914 0.46578 0.61709 0.0
H205 H 0.97214 0.58399 0.60934 0.0
H206 H 0.99411 0.51697 0.60033 0.0
H207 H 0.96757 0.42523 0.59438 0.0
H208 H 0.80485 0.30623 0.60157 0.0
H209 H 0.78242 0.37311 0.61107 0.0
C210 C 0.84946 0.47686 0.61347 0.0
C211 C 0.88884 0.52994 0.61392 0.0
C212 C 0.86198 0.438 0.60817 0.0
C213 C 0.94092 0.54353 0.60912 0.0
C214 C 0.95362 0.50519 0.60395 0.0
C215 C 0.92716 0.41379 0.59805 0.0
C216 C 0.888 0.36076 0.59726 0.0
C217 C 0.91452 0.45237 0.6034 0.0
C218 C 0.83582 0.34678 0.60202 0.0
C219 C 0.82295 0.38502 0.60747 0.0
H220 H 0.50547 0.84576 0.76197 0.0
H221 H 0.6067 1.01104 0.77335 0.0
H222 H 0.53079 0.02014 0.78166 0.0
H223 H 0.43609 0.98185 0.78578 0.0
H224 H 0.33362 0.81669 0.77494 0.0
H225 H 0.40956 0.80701 0.76631 0.0
C226 C 0.51089 0.88374 0.76627 0.0
C227 C 0.56182 0.92762 0.767 0.0
C228 C 0.46686 0.88882 0.77111 0.0
C229 C 0.56807 0.97654 0.77265 0.0
C230 C 0.52463 0.98187 0.7774 0.0
C231 C 0.43019 0.94368 0.78148 0.0
C232 C 0.37918 0.90011 0.78098 0.0
C233 C 0.47391 0.93836 0.77667 0.0
C234 C 0.37246 0.85093 0.77546 0.0
C235 C 0.41588 0.84535 0.77053 0.0
H236 H 0.47845 0.42852 0.95231 0.0
H237 H 0.5263 0.31213 0.94804 0.0
H238 H 0.61548 0.37998 0.93891 0.0
H239 H 0.68002 0.47249 0.93212 0.0
H240 H 0.63169 0.58854 0.93658 0.0
H241 H 0.54274 0.52066 0.94565 0.0
C242 C 0.50832 0.4179 0.94938 0.0
C243 C 0.49558 0.36525 0.95086 0.0
C244 C 0.55957 0.4571 0.94416 0.0
C245 C 0.53493 0.35233 0.94703 0.0
C246 C 0.586 0.39113 0.94179 0.0
C247 C 0.65006 0.48296 0.93507 0.0
C248 C 0.66268 0.53562 0.93365 0.0
C249 C 0.59879 0.44366 0.94032 0.0
C250 C 0.62324 0.54839 0.93756 0.0
C251 C 0.57225 0.50957 0.94275 0.0
H252 H 0.34622 0.23947 0.20115 0.0
H253 H 0.32338 0.29879 0.26046 0.0
H254 H 0.28359 0.34265 0.24157 0.0
H255 H 0.24812 0.35764 0.20855 0.0
H256 H 0.27217 0.2992 0.14921 0.0
H257 H 0.31899 0.26214 0.16775 0.0
C258 C 0.33309 0.2625 0.20992 0.0
C259 C 0.33725 0.26531 0.2322 0.0
C260 C 0.31013 0.28761 0.19897 0.0
C261 C 0.32056 0.2958 0.2433 0.0
C262 C 0.29756 0.32077 0.23252 0.0
C263 C 0.26414 0.33734 0.19964 0.0
C264 C 0.256 0.3307 0.17756 0.0
C265 C 0.29105 0.31595 0.2104 0.0
C266 C 0.27757 0.30475 0.16624 0.0
C267 C 0.30425 0.28332 0.17683 0.0
H268 H 0.90995 0.22494 0.34969 0.0
H269 H 0.0206 0.29768 0.2983 0.0
H270 H 0.09276 0.33718 0.32373 0.0
H271 H 0.12531 0.34349 0.36019 0.0
H272 H 1.01461 0.26919 0.41145 0.0
H273 H 0.94177 0.23857 0.38645 0.0
C274 C 0.94975 0.24999 0.34404 0.0
C275 C 0.95983 0.25773 0.32209 0.0
C276 C 0.99121 0.27212 0.35873 0.0
C277 C 1.01165 0.2907 0.31509 0.0
C278 C 0.05305 0.31324 0.32963 0.0
C279 C 0.08525 0.3213 0.36596 0.0
C280 C 0.07557 0.30811 0.38764 0.0
C281 C 0.04343 0.30308 0.35144 0.0
C282 C 0.02333 0.27958 0.39483 0.0
C283 C 0.98155 0.26187 0.38053 0.0
H284 H 0.73334 0.01297 0.55963 0.0
H285 H 0.81478 0.14267 0.51619 0.0
H286 H 0.78252 0.0828 0.48611 0.0
H287 H 0.73943 0.99322 0.47239 0.0
H288 H 0.65985 0.86309 0.51575 0.0
H289 H 0.68245 0.92362 0.54549 0.0
C290 C 0.74346 0.02826 0.54358 0.0
C291 C 0.77705 0.08221 0.54024 0.0
C292 C 0.72533 0.9935 0.52629 0.0
C293 C 0.78937 0.10131 0.51929 0.0
C294 C 0.77101 0.06707 0.50204 0.0
C295 C 0.72628 0.97802 0.48829 0.0
C296 C 0.69857 0.92365 0.49183 0.0
C297 C 0.74021 0.01299 0.50539 0.0
C298 C 0.68148 0.90474 0.51254 0.0
C299 C 0.69461 0.93935 0.52961 0.0
H300 H 0.74452 0.72884 0.64141 0.0
H301 H 0.8068 0.65983 0.68486 0.0
H302 H 0.76764 0.6807 0.71476 0.0
H303 H 0.72499 0.72781 0.72887 0.0
H304 H 0.66508 0.79914 0.68545 0.0
H305 H 0.69348 0.76748 0.65529 0.0
C306 C 0.74888 0.7176 0.65738 0.0
C307 C 0.77921 0.69343 0.66087 0.0
C308 C 0.72702 0.73053 0.67457 0.0
C309 C 0.78397 0.67874 0.68167 0.0
C310 C 0.76174 0.69086 0.69883 0.0
C311 C 0.71736 0.73576 0.71282 0.0
C312 C 0.69354 0.76645 0.70948 0.0
C313 C 0.73461 0.7182 0.69551 0.0
C314 C 0.68361 0.77593 0.68853 0.0
C315 C 0.70004 0.758 0.67125 0.0
H316 H 1.00781 0.73419 0.90636 0.0
H317 H 0.87595 0.64876 0.8643 0.0
H318 H 0.93575 0.6674 0.83443 0.0
H319 H 0.02474 0.71816 0.81949 0.0
H320 H 0.15619 0.80518 0.86162 0.0
H321 H 0.09732 0.77522 0.89215 0.0
C322 C 0.99212 0.71879 0.89074 0.0
C323 C 0.93745 0.69086 0.88755 0.0
C324 C 0.02668 0.73046 0.87355 0.0
C325 C 0.91784 0.67065 0.86724 0.0
C326 C 0.95204 0.68157 0.85008 0.0
C327 C 0.04066 0.72987 0.83537 0.0
C328 C 0.09474 0.76461 0.83817 0.0
C329 C 1.00645 0.71306 0.85292 0.0
C330 C 0.1147 0.77888 0.85892 0.0
C331 C 0.08102 0.76188 0.87644 0.0
H332 H 0.28365 0.98877 0.07196 0.0
H333 H 0.21113 0.85879 0.02835 0.0
H334 H 0.24657 0.91885 0.99828 0.0
H335 H 0.29001 1.0086 0.98438 0.0
H336 H 0.36069 0.13865 0.02802 0.0
H337 H 0.33459 0.07816 0.05798 0.0
C338 C 0.27619 0.97346 0.0559 0.0
C339 C 0.24419 0.91939 0.05245 0.0
C340 C 0.29604 1.00828 0.03863 0.0
C341 C 0.23532 0.90026 0.0315 0.0
C342 C 0.25544 0.9346 1.01426 0.0
C343 C 0.30037 0.02377 1.00041 0.0
C344 C 0.32666 0.07811 1.00392 0.0
C345 C 0.28459 0.98877 1.01763 0.0
C346 C 0.34013 0.09702 0.02483 0.0
C347 C 0.32508 0.06244 0.04201 0.0
H348 H 0.14948 0.25318 0.06853 0.0
H349 H 0.2755 0.41187 0.05936 0.0
H350 H 0.30487 0.38521 0.02801 0.0
H351 H 0.29969 0.31577 1.00503 0.0
H352 H 0.17516 0.15657 1.01457 0.0
H353 H 0.14017 0.18465 0.04369 0.0
C354 C 0.18294 0.28205 0.05951 0.0
C355 C 0.2105 0.33433 0.06645 0.0
C356 C 0.20019 0.26634 0.04159 0.0
C357 C 0.25375 0.37124 0.05453 0.0
C358 C 0.27068 0.35605 0.03657 0.0
C359 C 0.2645 0.28727 1.01328 0.0
C360 C 0.24046 0.23407 1.00771 0.0
C361 C 0.24496 0.30352 0.03024 0.0
C362 C 0.19473 0.19776 1.01857 0.0
C363 C 0.1747 0.21375 0.03529 0.0
H364 H 0.85868 0.23226 0.21305 0.0
H365 H 0.9278 0.14355 0.23761 0.0
H366 H 0.99005 0.17338 0.20799 0.0
H367 H 0.02925 0.23029 0.17668 0.0
H368 H 0.96012 0.31965 0.15272 0.0
H369 H 0.89339 0.2836 0.18046 0.0
C370 C 0.88703 0.21902 0.21186 0.0
C371 C 0.88882 0.18609 0.22766 0.0
C372 C 0.92296 0.23667 0.19492 0.0
C373 C 0.92556 0.16898 0.22571 0.0
C374 C 0.96133 0.18618 0.2088 0.0
C375 C 0.99922 0.24141 0.17736 0.0
C376 C 1.0001 0.27805 0.16269 0.0
C377 C 0.96106 0.22088 0.19354 0.0
C378 C 0.96071 0.29182 0.16382 0.0
C379 C 0.9225 0.27129 0.17973 0.0
H380 H 0.85068 0.02196 0.35165 0.0
H381 H 0.70314 0.97468 0.32011 0.0
H382 H 0.65803 0.90268 0.34534 0.0
H383 H 0.65944 0.8568 0.37782 0.0
H384 H 0.80703 0.90473 0.40944 0.0
H385 H 0.85298 0.97248 0.38265 0.0
C386 C 0.80873 0.99564 0.35013 0.0
C387 C 0.78038 1.0041 0.33406 0.0
C388 C 0.7829 0.95451 0.36481 0.0
C389 C 0.72603 0.96931 0.33233 0.0
C390 C 0.70012 0.92814 0.34681 0.0
C391 C 0.70172 0.88174 0.37877 0.0
C392 C 0.72959 0.87579 0.39575 0.0
C393 C 0.72799 0.92095 0.36334 0.0
C394 C 0.78445 0.90838 0.39661 0.0
C395 C 0.81083 0.9473 0.3813 0.0
H396 H 0.88831 0.78118 0.56776 0.0
H397 H 0.79373 0.61841 0.55051 0.0
H398 H 0.76192 0.64265 0.51916 0.0
H399 H 0.7567 0.70938 0.4977 0.0
H400 H 0.84987 0.87216 0.5151 0.0
H401 H 0.88673 0.84856 0.54509 0.0
C402 C 0.86107 0.75104 0.55706 0.0
C403 C 0.84325 0.69803 0.56162 0.0
C404 C 0.84252 0.7652 0.53904 0.0
C405 C 0.808 0.65952 0.54751 0.0
C406 C 0.7897 0.67332 0.52953 0.0
C407 C 0.78552 0.73981 0.50789 0.0
C408 C 0.80023 0.79245 0.50417 0.0
C409 C 0.8061 0.72595 0.52529 0.0
C410 C 0.83765 0.83128 0.51759 0.0
C411 C 0.85869 0.81783 0.53481 0.0
H412 H 0.18106 0.83591 0.71162 0.0
H413 H 0.09169 0.87077 0.75655 0.0
H414 H 0.02285 0.84781 0.73014 0.0
H415 H 0.98495 0.81171 0.69529 0.0
H416 H 0.07308 0.77493 0.6505 0.0
H417 H 0.14562 0.80542 0.67576 0.0
C418 C 0.14676 0.83894 0.71559 0.0
C419 C 0.14147 0.85463 0.73614 0.0
C420 C 0.10695 0.82523 0.70036 0.0
C421 C 0.09679 0.85856 0.74093 0.0
C422 C 0.05729 0.84539 0.72582 0.0
C423 C 0.02024 0.81092 0.69091 0.0
C424 C 0.02326 0.79063 0.67106 0.0
C425 C 0.06151 0.82777 0.70563 0.0
C426 C 0.0695 0.79016 0.66568 0.0
C427 C 0.11099 0.80742 0.68016 0.0
H428 H 0.37627 0.15564 0.88637 0.0
H429 H 0.2288 0.10121 0.9191 0.0
H430 H 0.1835 0.03554 0.89159 0.0
H431 H 0.18666 0.98956 0.85966 0.0
H432 H 0.33435 0.04292 0.82724 0.0
H433 H 0.37843 0.11326 0.85311 0.0
C434 C 0.33415 0.12973 0.88741 0.0
C435 C 0.30612 0.13316 0.9049 0.0
C436 C 0.30834 0.0917 0.87162 0.0
C437 C 0.25147 0.0994 0.90589 0.0
C438 C 0.22549 0.06171 0.89017 0.0
C439 C 0.2284 0.01687 0.85809 0.0
C440 C 0.25716 1.01062 0.8416 0.0
C441 C 0.25367 0.05691 0.87317 0.0
C442 C 0.3112 0.0466 0.8398 0.0
C443 C 0.33652 0.08681 0.85464 0.0
H444 H 0.7551 0.8228 0.79361 0.0
H445 H 0.69088 0.88742 0.83808 0.0
H446 H 0.71569 0.85039 0.86773 0.0
H447 H 0.75119 0.79498 0.88088 0.0
H448 H 0.81185 0.72835 0.83567 0.0
H449 H 0.79305 0.77099 0.80658 0.0
C450 C 0.74687 0.82927 0.80978 0.0
C451 C 0.72097 0.85772 0.81356 0.0
C452 C 0.76041 0.8072 0.82668 0.0
C453 C 0.71064 0.86555 0.83467 0.0
C454 C 0.72476 0.8443 0.85165 0.0
C455 C 0.76071 0.79028 0.86468 0.0
C456 C 0.7826 0.75825 0.86047 0.0
C457 C 0.74899 0.81436 0.84784 0.0
C458 C 0.79455 0.75237 0.83937 0.0
C459 C 0.78388 0.7768 0.82268 0.0
H460 H 0.85595 0.6552 0.99896 0.0
H461 H 0.9184 0.80652 0.96894 0.0
H462 H 0.98271 0.84636 0.99747 0.0
H463 H 0.02521 0.83722 0.02953 0.0
H464 H 0.9637 0.68561 0.0592 0.0
H465 H 0.89478 0.64712 0.03232 0.0
C466 C 0.88329 0.69699 0.99872 0.0
C467 C 0.88251 0.7277 0.98171 0.0
C468 C 0.92051 0.71962 1.0151 0.0
C469 C 0.91812 0.78186 0.98178 0.0
C470 C 0.95504 0.80469 0.99808 0.0
C471 C 0.99642 0.79585 0.03028 0.0
C472 C 0.99995 0.76435 0.04632 0.0
C473 C 0.95719 0.7738 1.01462 0.0
C474 C 0.9621 0.71083 0.04704 0.0
C475 C 0.92271 0.6887 0.03161 0.0
H476 H 0.22012 0.85235 0.17004 0.0
H477 H 0.13048 0.90908 0.13618 0.0
H478 H 0.15605 0.97892 0.16219 0.0
H479 H 0.20875 0.02763 0.19308 0.0
H480 H 0.29895 0.9714 0.22684 0.0
H481 H 0.2678 0.8975 0.20247 0.0
C482 C 0.20577 0.87969 0.16843 0.0
C483 C 0.17374 0.87559 0.15104 0.0
C484 C 0.22087 0.92006 0.18341 0.0
C485 C 0.15528 0.91125 0.14934 0.0
C486 C 0.16999 0.95137 0.16419 0.0
C487 C 0.22122 0.99896 0.19527 0.0
C488 C 0.25654 1.00545 0.2117 0.0
C489 C 0.2035 0.9567 0.18108 0.0
C490 C 0.27195 0.96761 0.21432 0.0
C491 C 0.25427 0.92534 0.20033 0.0
H492 H 0.36665 0.20032 0.31876 0.0
H493 H 0.1995 0.11104 0.30768 0.0
H494 H 0.1841 0.15176 0.33857 0.0
H495 H 0.21849 0.21787 0.36687 0.0
H496 H 0.38598 0.31026 0.37668 0.0
H497 H 0.40073 0.26291 0.34821 0.0
C498 C 0.32675 0.18911 0.32327 0.0
C499 C 0.28428 0.15273 0.31086 0.0
C500 C 0.31826 0.2136 0.34073 0.0
C501 C 0.23292 0.13902 0.31689 0.0
C502 C 0.22408 0.1624 0.33453 0.0
C503 C 0.25822 0.22726 0.36297 0.0
C504 C 0.30108 0.2678 0.37386 0.0
C505 C 0.26651 0.20055 0.34628 0.0
C506 C 0.35227 0.27947 0.36852 0.0
C507 C 0.36076 0.25242 0.35221 0.0
H508 H 0.16625 0.37518 0.49213 0.0
H509 H 0.13544 0.22502 0.46856 0.0
H510 H 0.07126 0.181 0.49682 0.0
H511 H 1.01847 0.1847 0.52625 0.0
H512 H 0.04788 0.3347 0.54942 0.0
H513 H 0.11828 0.37907 0.52341 0.0
C514 C 0.14599 0.33285 0.4933 0.0
C515 C 0.15539 0.30352 0.47808 0.0
C516 C 0.10857 0.30766 0.50945 0.0
C517 C 0.1289 0.24867 0.47996 0.0
C518 C 0.09201 0.22338 0.4961 0.0
C519 C 0.04063 0.22711 0.5258 0.0
C520 C 0.02746 0.25624 0.53966 0.0
C521 C 0.08068 0.25242 0.51063 0.0
C522 C 0.05691 0.31121 0.53889 0.0
C523 C 0.09714 0.33667 0.52397 0.0
H524 H 0.8207 0.97975 0.68362 0.0
H525 H 0.75298 0.05113 0.72273 0.0
H526 H 0.78324 0.1238 0.69765 0.0
H527 H 0.8226 0.16342 0.66324 0.0
H528 H 0.88855 0.09089 0.62378 0.0
H529 H 0.86552 0.0226 0.65045 0.0
C530 C 0.81308 0.01149 0.68682 0.0
C531 C 0.7842 1.00966 0.70498 0.0
C532 C 0.82992 0.05283 0.67217 0.0
C533 C 0.77491 0.05132 0.70886 0.0
C534 C 0.79206 0.09288 0.69448 0.0
C535 C 0.83241 0.13297 0.66053 0.0
C536 C 0.85687 0.13213 0.64142 0.0
C537 C 0.81859 0.09345 0.67585 0.0
C538 C 0.86951 0.09246 0.63828 0.0
C539 C 0.85628 0.05328 0.65352 0.0
loop_
_geom_bond_atom_site_label_1
_geom_bond_atom_site_label_2
_geom_bond_distance
_geom_bond_site_symmetry_2
_ccdc_geom_bond_type
Mg0 O7 2.141 . S
Mg0 O8 2.048 . S
Mg0 O9 2.048 . S
Mg0 O12 2.141 . S
C1 O2 1.313 . S
C1 O8 1.195 . S
O2 C1 1.313 . S
C3 O4 1.245 . S
C3 O12 1.289 . S
O4 C3 1.245 . S
C5 O6 1.245 . S
C5 O7 1.289 . S
O6 C5 1.245 . S
O7 Mg0 2.141 . S
O7 C5 1.289 . S
O8 Mg0 2.048 . S
O8 C1 1.195 . S
O9 Mg0 2.048 . S
O9 C10 1.195 . S
C10 O9 1.195 . S
C10 O11 1.313 . S
O11 C10 1.313 . S
O12 Mg0 2.141 . S
O12 C3 1.289 . S
Mg13 O20 2.141 . S
Mg13 O21 2.048 . S
Mg13 O22 2.048 . S
Mg13 O25 2.141 . S
C14 O15 1.313 . S
C14 O21 1.195 . S
O15 C14 1.313 . S
C16 O17 1.245 . S
C16 O25 1.289 . S
O17 C16 1.245 . S
C18 O19 1.245 . S
C18 O20 1.289 . S
O19 C18 1.245 . S
O20 Mg13 2.141 . S
O20 C18 1.289 . S
O21 Mg13 2.048 . S
O21 C14 1.195 . S
O22 Mg13 2.048 . S
O22 C23 1.195 . S
C23 O22 1.195 . S
C23 O24 1.313 . S
O24 C23 1.313 . S
O25 Mg13 2.141 . S
O25 C16 1.289 . S
Mg26 O33 2.141 . S
Mg26 O34 2.048 . S
Mg26 O35 2.048 . S
Mg26 O38 2.141 . S
C27 O28 1.313 . S
C27 O34 1.195 . S
O28 C27 1.313 . S
C29 O30 1.245 . S
C29 O38 1.289 . S
O30 C29 1.245 . S
C31 O32 1.245 . S
C31 O33 1.289 . S
O32 C31 1.245 . S
O33 Mg26 2.141 . S
O33 C31 1.289 . S
O34 Mg26 2.048 . S
O34 C27 1.195 . S
O35 Mg26 2.048 . S
O35 C36 1.195 . S
C36 O35 1.195 . S
C36 O37 1.313 . S
O37 C36 1.313 . S
O38 Mg26 2.141 . S
O38 C29 1.289 . S
Mg39 O46 2.141 . S
Mg39 O47 2.048 . S
Mg39 O48 2.048 . S
Mg39 O51 2.141 . S
C40 O41 1.313 . S
C40 O47 1.195 . S
O41 C40 1.313 . S
C42 O43 1.245 . S
C42 O51 1.289 . S
O43 C42 1.245 . S
C44 O45 1.245 . S
C44 O46 1.289 . S
O45 C44 1.245 . S
O46 Mg39 2.141 . S
O46 C44 1.289 . S
O47 Mg39 2.048 . S
O47 C40 1.195 . S
O48 Mg39 2.048 . S
O48 C49 1.195 . S
C49 O48 1.195 . S
C49 O50 1.313 . S
O50 C49 1.313 . S
O51 Mg39 2.141 . S
O51 C42 1.289 . S
Mg52 O59 2.141 . S
Mg52 O60 2.048 . S
Mg52 O61 2.048 . S
Mg52 O64 2.141 . S
C53 O54 1.313 . S
C53 O60 1.195 . S
O54 C53 1.313 . S
C55 O56 1.245 . S
C55 O64 1.289 . S
O56 C55 1.245 . S
C57 O58 1.245 . S
C57 O59 1.289 . S
O58 C57 1.245 . S
O59 Mg52 2.141 . S
O59 C57 1.289 . S
O60 Mg52 2.048 . S
O60 C53 1.195 . S
O61 Mg52 2.048 . S
O61 C62 1.195 . S
C62 O61 1.195 . S
C62 O63 1.313 . S
O63 C62 1.313 . S
O64 Mg52 2.141 . S
O64 C55 1.289 . S
Mg65 O72 2.141 . S
Mg65 O73 2.048 . S
Mg65 O74 2.048 . S
Mg65 O77 2.141 . S
C66 O67 1.313 . S
C66 O73 1.195 . S
O67 C66 1.313 . S
C68 O69 1.245 . S
C68 O77 1.289 . S
O69 C68 1.245 . S
C70 O71 1.245 . S
C70 O72 1.289 . S
O71 C70 1.245 . S
O72 Mg65 2.141 . S
O72 C70 1.289 . S
O73 Mg65 2.048 . S
O73 C66 1.195 . S
O74 Mg65 2.048 . S
O74 C75 1.195 . S
C75 O74 1.195 . S
C75 O76 1.313 . S
O76 C75 1.313 . S
O77 Mg65 2.141 . S
O77 C68 1.289 . S
Mg78 O85 2.141 . S
Mg78 O86 2.048 . S
Mg78 O87 2.048 . S
Mg78 O90 2.141 . S
C79 O80 1.313 . S
C79 O86 1.195 . S
O80 C79 1.313 . S
C81 O82 1.245 . S
C81 O90 1.289 . S
O82 C81 1.245 . S
C83 O84 1.245 . S
C83 O85 1.289 . S
O84 C83 1.245 . S
O85 Mg78 2.141 . S
O85 C83 1.289 . S
O86 Mg78 2.048 . S
O86 C79 1.195 . S
O87 Mg78 2.048 . S
O87 C88 1.195 . S
C88 O87 1.195 . S
C88 O89 1.313 . S
O89 C88 1.313 . S
O90 Mg78 2.141 . S
O90 C81 1.289 . S
Mg91 O98 2.141 . S
Mg91 O99 2.048 . S
Mg91 O100 2.048 . S
Mg91 O103 2.141 . S
C92 O93 1.313 . S
C92 O99 1.195 . S
O93 C92 1.313 . S
C94 O95 1.245 . S
C94 O103 1.289 . S
O95 C94 1.245 . S
C96 O97 1.245 . S
C96 O98 1.289 . S
O97 C96 1.245 . S
O98 Mg91 2.141 . S
O98 C96 1.289 . S
O99 Mg91 2.048 . S
O99 C92 1.195 . S
O100 Mg91 2.048 . S
O100 C101 1.195 . S
C101 O100 1.195 . S
C101 O102 1.313 . S
O102 C101 1.313 . S
O103 Mg91 2.141 . S
O103 C94 1.289 . S
Mg104 O111 2.141 . S
Mg104 O112 2.048 . S
Mg104 O113 2.048 . S
Mg104 O116 2.141 . S
C105 O106 1.313 . S
C105 O112 1.195 . S
O106 C105 1.313 . S
C107 O108 1.245 . S
C107 O116 1.289 . S
O108 C107 1.245 . S
C109 O110 1.245 . S
C109 O111 1.289 . S
O110 C109 1.245 . S
O111 Mg104 2.141 . S
O111 C109 1.289 . S
O112 Mg104 2.048 . S
O112 C105 1.195 . S
O113 Mg104 2.048 . S
O113 C114 1.195 . S
C114 O113 1.195 . S
C114 O115 1.313 . S
O115 C114 1.313 . S
O116 Mg104 2.141 . S
O116 C107 1.289 . S
Mg117 O124 2.141 . S
Mg117 O125 2.048 . S
Mg117 O126 2.048 . S
Mg117 O129 2.141 . S
C118 O119 1.313 . S
C118 O125 1.195 . S
O119 C118 1.313 . S
C120 O121 1.245 . S
C120 O129 1.289 . S
O121 C120 1.245 . S
C122 O123 1.245 . S
C122 O124 1.289 . S
O123 C122 1.245 . S
O124 Mg117 2.141 . S
O124 C122 1.289 . S
O125 Mg117 2.048 . S
O125 C118 1.195 . S
O126 Mg117 2.048 . S
O126 C127 1.195 . S
C127 O126 1.195 . S
C127 O128 1.313 . S
O128 C127 1.313 . S
O129 Mg117 2.141 . S
O129 C120 1.289 . S
Mg130 O137 2.141 . S
Mg130 O138 2.048 . S
Mg130 O139 2.048 . S
Mg130 O142 2.141 . S
C131 O132 1.313 . S
C131 O138 1.195 . S
O132 C131 1.313 . S
C133 O134 1.245 . S
C133 O142 1.289 . S
O134 C133 1.245 . S
C135 O136 1.245 . S
C135 O137 1.289 . S
O136 C135 1.245 . S
O137 Mg130 2.141 . S
O137 C135 1.289 . S
O138 Mg130 2.048 . S
O138 C131 1.195 . S
O139 Mg130 2.048 . S
O139 C140 1.195 . S
C140 O139 1.195 . S
C140 O141 1.313 . S
O141 C140 1.313 . S
O142 Mg130 2.141 . S
O142 C133 1.289 . S
Mg143 O150 2.141 . S
Mg143 O151 2.048 . S
Mg143 O152 2.048 . S
Mg143 O155 2.141 . S
C144 O145 1.313 . S
C144 O151 1.195 . S
O145 C144 1.313 . S
C146 O147 1.245 . S
C146 O155 1.289 . S
O147 C146 1.245 . S
C148 O149 1.245 . S
C148 O150 1.289 . S
O149 C148 1.245 . S
O150 Mg143 2.141 . S
O150 C148 1.289 . S
O151 Mg143 2.048 . S
O151 C144 1.195 . S
O152 Mg143 2.048 . S
O152 C153 1.195 . S
C153 O152 1.195 . S
C153 O154 1.313 . S
O154 C153 1.313 . S
O155 Mg143 2.141 . S
O155 C146 1.289 . S
H156 C162 0.930 . S
H157 C165 0.930 . S
H158 C166 0.930 1_655 S
H159 C167 0.930 . S
H160 C170 0.930 . S
H161 C171 0.930 . S
C162 H156 0.930 . S
C162 C163 1.355 . S
C162 C164 1.415 . S
C163 C162 1.355 . S
C163 C165 1.419 . S
C164 C162 1.415 . S
C164 C169 1.425 . S
C164 C171 1.409 . S
C165 H157 0.930 . S
C165 C163 1.419 . S
C165 C166 1.362 . S
C166 H158 0.930 1_455 S
C166 C165 1.362 . S
C166 C169 1.409 . S
C167 H159 0.930 . S
C167 C168 1.355 . S
C167 C169 1.415 . S
C168 C167 1.355 . S
C168 C170 1.419 . S
C169 C164 1.425 . S
C169 C166 1.409 . S
C169 C167 1.415 . S
C170 H160 0.930 . S
C170 C168 1.419 . S
C170 C171 1.362 . S
C171 H161 0.930 . S
C171 C164 1.409 . S
C171 C170 1.362 . S
H172 C178 0.930 . S
H173 C181 0.930 . S
H174 C182 0.930 . S
H175 C183 0.930 . S
H176 C186 0.930 . S
H177 C187 0.930 . S
C178 H172 0.930 . S
C178 C179 1.355 . S
C178 C180 1.415 . S
C179 C178 1.355 . S
C179 C181 1.419 . S
C180 C178 1.415 . S
C180 C185 1.425 . S
C180 C187 1.409 . S
C181 H173 0.930 . S
C181 C179 1.419 . S
C181 C182 1.362 . S
C182 H174 0.930 . S
C182 C181 1.362 . S
C182 C185 1.409 . S
C183 H175 0.930 . S
C183 C184 1.355 . S
C183 C185 1.415 . S
C184 C183 1.355 . S
C184 C186 1.419 . S
C185 C180 1.425 . S
C185 C182 1.409 . S
C185 C183 1.415 . S
C186 H176 0.930 . S
C186 C184 1.419 . S
C186 C187 1.362 . S
C187 H177 0.930 . S
C187 C180 1.409 . S
C187 C186 1.362 . S
H188 C194 0.930 . S
H189 C197 0.930 . S
H190 C198 0.930 . S
H191 C199 0.930 . S
H192 C202 0.930 . S
H193 C203 0.930 . S
C194 H188 0.930 . S
C194 C195 1.355 . S
C194 C196 1.415 . S
C195 C194 1.355 . S
C195 C197 1.419 . S
C196 C194 1.415 . S
C196 C201 1.425 . S
C196 C203 1.409 . S
C197 H189 0.930 . S
C197 C195 1.419 . S
C197 C198 1.362 . S
C198 H190 0.930 . S
C198 C197 1.362 . S
C198 C201 1.409 . S
C199 H191 0.930 . S
C199 C200 1.355 . S
C199 C201 1.415 . S
C200 C199 1.355 . S
C200 C202 1.419 . S
C201 C196 1.425 . S
C201 C198 1.409 . S
C201 C199 1.415 . S
C202 H192 0.930 . S
C202 C200 1.419 . S
C202 C203 1.362 . S
C203 H193 0.930 . S
C203 C196 1.409 . S
C203 C202 1.362 . S
H204 C210 0.930 . S
H205 C213 0.930 . S
H206 C214 0.930 . S
H207 C215 0.930 . S
H208 C218 0.930 . S
H209 C219 0.930 . S
C210 H204 0.930 . S
C210 C211 1.355 . S
C210 C212 1.415 . S
C211 C210 1.355 . S
C211 C213 1.419 . S
C212 C210 1.415 . S
C212 C217 1.425 . S
C212 C219 1.409 . S
C213 H205 0.930 . S
C213 C211 1.419 . S
C213 C214 1.362 . S
C214 H206 0.930 . S
C214 C213 1.362 . S
C214 C217 1.409 . S
C215 H207 0.930 . S
C215 C216 1.355 . S
C215 C217 1.415 . S
C216 C215 1.355 . S
C216 C218 1.419 . S
C217 C212 1.425 . S
C217 C214 1.409 . S
C217 C215 1.415 . S
C218 H208 0.930 . S
C218 C216 1.419 . S
C218 C219 1.362 . S
C219 H209 0.930 . S
C219 C212 1.409 . S
C219 C218 1.362 . S
H220 C226 0.930 . S
H221 C229 0.930 . S
H222 C230 0.930 . S
H223 C231 0.930 . S
H224 C234 0.930 . S
H225 C235 0.930 . S
C226 H220 0.930 . S
C226 C227 1.355 . S
C226 C228 1.415 . S
C227 C226 1.355 . S
C227 C229 1.419 . S
C228 C226 1.415 . S
C228 C233 1.425 . S
C228 C235 1.409 . S
C229 H221 0.930 . S
C229 C227 1.419 . S
C229 C230 1.362 . S
C230 H222 0.930 . S
C230 C229 1.362 . S
C230 C233 1.409 . S
C231 H223 0.930 . S
C231 C232 1.355 . S
C231 C233 1.415 . S
C232 C231 1.355 . S
C232 C234 1.419 . S
C233 C228 1.425 . S
C233 C230 1.409 . S
C233 C231 1.415 . S
C234 H224 0.930 . S
C234 C232 1.419 . S
C234 C235 1.362 . S
C235 H225 0.930 . S
C235 C228 1.409 . S
C235 C234 1.362 . S
H236 C242 0.930 . S
H237 C245 0.930 . S
H238 C246 0.930 . S
H239 C247 0.930 . S
H240 C250 0.930 . S
H241 C251 0.930 . S
C242 H236 0.930 . S
C242 C243 1.355 . S
C242 C244 1.415 . S
C243 C242 1.355 . S
C243 C245 1.419 . S
C244 C242 1.415 . S
C244 C249 1.425 . S
C244 C251 1.409 . S
C245 H237 0.930 . S
C245 C243 1.419 . S
C245 C246 1.362 . S
C246 H238 0.930 . S
C246 C245 1.362 . S
C246 C249 1.409 . S
C247 H239 0.930 . S
C247 C248 1.355 . S
C247 C249 1.415 . S
C248 C247 1.355 . S
C248 C250 1.419 . S
C249 C244 1.425 . S
C249 C246 1.409 . S
C249 C247 1.415 . S
C250 H240 0.930 . S
C250 C248 1.419 . S
C250 C251 1.362 . S
C251 H241 0.930 . S
C251 C244 1.409 . S
C251 C250 1.362 . S
H252 C258 0.930 . S
H253 C261 0.930 . S
H254 C262 0.930 . S
H255 C263 0.930 . S
H256 C266 0.930 . S
H257 C267 0.930 . S
C258 H252 0.930 . S
C258 C259 1.355 . S
C258 C260 1.415 . S
C259 C258 1.355 . S
C259 C261 1.419 . S
C260 C258 1.415 . S
C260 C265 1.425 . S
C260 C267 1.409 . S
C261 H253 0.930 . S
C261 C259 1.419 . S
C261 C262 1.362 . S
C262 H254 0.930 . S
C262 C261 1.362 . S
C262 C265 1.409 . S
C263 H255 0.930 . S
C263 C264 1.355 . S
C263 C265 1.415 . S
C264 C263 1.355 . S
C264 C266 1.419 . S
C265 C260 1.425 . S
C265 C262 1.409 . S
C265 C263 1.415 . S
C266 H256 0.930 . S
C266 C264 1.419 . S
C266 C267 1.362 . S
C267 H257 0.930 . S
C267 C260 1.409 . S
C267 C266 1.362 . S
H268 C274 0.930 . S
H269 C277 0.930 . S
H270 C278 0.938 . S
H271 C279 0.930 . S
H272 C282 0.930 . S
H273 C283 0.938 . S
C274 H268 0.930 . S
C274 C275 1.355 . S
C274 C276 1.415 . S
C275 C274 1.355 . S
C275 C277 1.419 . S
C276 C274 1.415 . S
C276 C281 1.425 1_655 S
C276 C283 1.408 . S
C277 H269 0.930 . S
C277 C275 1.419 . S
C277 C278 1.355 1_655 S
C278 H270 0.938 . S
C278 C277 1.355 1_455 S
C278 C281 1.408 . S
C279 H271 0.930 . S
C279 C280 1.355 . S
C279 C281 1.415 . S
C280 C279 1.355 . S
C280 C282 1.419 . S
C281 C276 1.425 1_455 S
C281 C278 1.408 . S
C281 C279 1.415 . S
C282 H272 0.930 . S
C282 C280 1.419 . S
C282 C283 1.355 1_455 S
C283 H273 0.938 . S
C283 C276 1.408 . S
C283 C282 1.355 1_655 S
H284 C290 0.930 . S
H285 C293 0.930 . S
H286 C294 0.930 . S
H287 C295 0.930 . S
H288 C298 0.930 . S
H289 C299 0.930 . S
C290 H284 0.930 . S
C290 C291 1.355 . S
C290 C292 1.415 1_545 S
C291 C290 1.355 . S
C291 C293 1.419 . S
C292 C290 1.415 1_565 S
C292 C297 1.425 1_565 S
C292 C299 1.409 . S
C293 H285 0.930 . S
C293 C291 1.419 . S
C293 C294 1.362 . S
C294 H286 0.930 . S
C294 C293 1.362 . S
C294 C297 1.409 . S
C295 H287 0.930 . S
C295 C296 1.355 . S
C295 C297 1.415 1_565 S
C296 C295 1.355 . S
C296 C298 1.419 . S
C297 C292 1.425 1_545 S
C297 C294 1.409 . S
C297 C295 1.415 1_545 S
C298 H288 0.930 . S
C298 C296 1.419 . S
C298 C299 1.362 . S
C299 H289 0.930 . S
C299 C292 1.409 . S
C299 C298 1.362 . S
H300 C306 0.930 . S
H301 C309 0.930 . S
H302 C310 0.930 . S
H303 C311 0.930 . S
H304 C314 0.930 . S
H305 C315 0.930 . S
C306 H300 0.930 . S
C306 C307 1.355 . S
C306 C308 1.415 . S
C307 C306 1.355 . S
C307 C309 1.419 . S
C308 C306 1.415 . S
C308 C313 1.425 . S
C308 C315 1.409 . S
C309 H301 0.930 . S
C309 C307 1.419 . S
C309 C310 1.362 . S
C310 H302 0.930 . S
C310 C309 1.362 . S
C310 C313 1.409 . S
C311 H303 0.930 . S
C311 C312 1.355 . S
C311 C313 1.415 . S
C312 C311 1.355 . S
C312 C314 1.419 . S
C313 C308 1.425 . S
C313 C310 1.409 . S
C313 C311 1.415 . S
C314 H304 0.930 . S
C314 C312 1.419 . S
C314 C315 1.362 . S
C315 H305 0.930 . S
C315 C308 1.409 . S
C315 C314 1.362 . S
H316 C322 0.930 . S
H317 C325 0.930 . S
H318 C326 0.930 . S
H319 C327 0.930 . S
H320 C330 0.930 . S
H321 C331 0.930 . S
C322 H316 0.930 . S
C322 C323 1.355 . S
C322 C324 1.415 1_655 S
C323 C322 1.355 . S
C323 C325 1.419 . S
C324 C322 1.415 1_455 S
C324 C329 1.425 1_455 S
C324 C331 1.409 . S
C325 H317 0.930 . S
C325 C323 1.419 . S
C325 C326 1.362 . S
C326 H318 0.930 . S
C326 C325 1.362 . S
C326 C329 1.409 . S
C327 H319 0.930 . S
C327 C328 1.355 . S
C327 C329 1.415 1_455 S
C328 C327 1.355 . S
C328 C330 1.419 . S
C329 C324 1.425 1_655 S
C329 C326 1.409 . S
C329 C327 1.415 1_655 S
C330 H320 0.930 . S
C330 C328 1.419 . S
C330 C331 1.362 . S
C331 H321 0.930 . S
C331 C324 1.409 . S
C331 C330 1.362 . S
H332 C338 0.930 . S
H333 C341 0.930 . S
H334 C342 0.930 . S
H335 C343 0.930 . S
H336 C346 0.930 . S
H337 C347 0.930 . S
C338 H332 0.930 . S
C338 C339 1.355 . S
C338 C340 1.415 1_554 S
C339 C338 1.355 . S
C339 C341 1.419 . S
C340 C338 1.415 1_556 S
C340 C345 1.425 1_566 S
C340 C347 1.409 . S
C341 H333 0.930 . S
C341 C339 1.419 . S
C341 C342 1.362 1_565 S
C342 H334 0.930 . S
C342 C341 1.362 1_545 S
C342 C345 1.409 . S
C343 H335 0.930 . S
C343 C344 1.355 . S
C343 C345 1.415 1_556 S
C344 C343 1.355 . S
C344 C346 1.419 . S
C345 C340 1.425 1_544 S
C345 C342 1.409 . S
C345 C343 1.415 1_554 S
C346 H336 0.930 . S
C346 C344 1.419 . S
C346 C347 1.362 1_545 S
C347 H337 0.930 . S
C347 C340 1.409 . S
C347 C346 1.362 1_565 S
H348 C354 0.930 . S
H349 C357 0.930 . S
H350 C358 0.930 . S
H351 C359 0.930 . S
H352 C362 0.930 . S
H353 C363 0.930 1_556 S
C354 H348 0.930 . S
C354 C355 1.355 . S
C354 C356 1.415 . S
C355 C354 1.355 . S
C355 C357 1.419 . S
C356 C354 1.415 . S
C356 C361 1.425 . S
C356 C363 1.409 . S
C357 H349 0.930 . S
C357 C355 1.419 . S
C357 C358 1.362 . S
C358 H350 0.930 . S
C358 C357 1.362 . S
C358 C361 1.409 . S
C359 H351 0.930 . S
C359 C360 1.355 . S
C359 C361 1.415 . S
C360 C359 1.355 . S
C360 C362 1.419 1_554 S
C361 C356 1.425 . S
C361 C358 1.409 . S
C361 C359 1.415 . S
C362 H352 0.930 . S
C362 C360 1.419 1_556 S
C362 C363 1.362 1_556 S
C363 H353 0.930 1_554 S
C363 C356 1.409 . S
C363 C362 1.362 1_554 S
H364 C370 0.930 . S
H365 C373 0.930 . S
H366 C374 0.930 . S
H367 C375 0.930 . S
H368 C378 0.930 1_455 S
H369 C379 0.930 . S
C370 H364 0.930 . S
C370 C371 1.355 . S
C370 C372 1.415 . S
C371 C370 1.355 . S
C371 C373 1.419 . S
C372 C370 1.415 . S
C372 C377 1.425 . S
C372 C379 1.409 . S
C373 H365 0.930 . S
C373 C371 1.419 . S
C373 C374 1.362 . S
C374 H366 0.930 . S
C374 C373 1.362 . S
C374 C377 1.409 . S
C375 H367 0.930 . S
C375 C376 1.355 . S
C375 C377 1.415 1_455 S
C376 C375 1.355 . S
C376 C378 1.419 1_455 S
C377 C372 1.425 . S
C377 C374 1.409 . S
C377 C375 1.415 1_655 S
C378 H368 0.930 1_655 S
C378 C376 1.419 1_655 S
C378 C379 1.362 . S
C379 H369 0.930 . S
C379 C372 1.409 . S
C379 C378 1.362 . S
H380 C386 0.930 . S
H381 C389 0.930 . S
H382 C390 0.930 . S
H383 C391 0.930 . S
H384 C394 0.930 . S
H385 C395 0.930 . S
C386 H380 0.930 . S
C386 C387 1.355 1_565 S
C386 C388 1.415 . S
C387 C386 1.355 1_545 S
C387 C389 1.419 . S
C388 C386 1.415 . S
C388 C393 1.425 . S
C388 C395 1.409 . S
C389 H381 0.930 . S
C389 C387 1.419 . S
C389 C390 1.362 . S
C390 H382 0.930 . S
C390 C389 1.362 . S
C390 C393 1.409 1_545 S
C391 H383 0.930 . S
C391 C392 1.355 . S
C391 C393 1.415 . S
C392 C391 1.355 . S
C392 C394 1.419 . S
C393 C388 1.425 . S
C393 C390 1.409 1_565 S
C393 C391 1.415 . S
C394 H384 0.930 . S
C394 C392 1.419 . S
C394 C395 1.362 . S
C395 H385 0.930 . S
C395 C388 1.409 . S
C395 C394 1.362 . S
H396 C402 0.930 . S
H397 C405 0.930 . S
H398 C406 0.930 . S
H399 C407 0.930 . S
H400 C410 0.930 . S
H401 C411 0.930 . S
C402 H396 0.930 . S
C402 C403 1.355 . S
C402 C404 1.415 . S
C403 C402 1.355 . S
C403 C405 1.419 . S
C404 C402 1.415 . S
C404 C409 1.425 . S
C404 C411 1.409 . S
C405 H397 0.930 . S
C405 C403 1.419 . S
C405 C406 1.362 . S
C406 H398 0.930 . S
C406 C405 1.362 . S
C406 C409 1.409 . S
C407 H399 0.930 . S
C407 C408 1.355 . S
C407 C409 1.415 . S
C408 C407 1.355 . S
C408 C410 1.419 . S
C409 C404 1.425 . S
C409 C406 1.409 . S
C409 C407 1.415 . S
C410 H400 0.930 . S
C410 C408 1.419 . S
C410 C411 1.362 . S
C411 H401 0.930 . S
C411 C404 1.409 . S
C411 C410 1.362 . S
H412 C418 0.930 . S
H413 C421 0.930 . S
H414 C422 0.930 1_655 S
H415 C423 0.930 . S
H416 C426 0.930 . S
H417 C427 0.930 . S
C418 H412 0.930 . S
C418 C419 1.355 . S
C418 C420 1.415 . S
C419 C418 1.355 . S
C419 C421 1.419 . S
C420 C418 1.415 . S
C420 C425 1.425 . S
C420 C427 1.409 . S
C421 H413 0.930 . S
C421 C419 1.419 . S
C421 C422 1.362 . S
C422 H414 0.930 1_455 S
C422 C421 1.362 . S
C422 C425 1.409 . S
C423 H415 0.930 . S
C423 C424 1.355 . S
C423 C425 1.415 1_655 S
C424 C423 1.355 . S
C424 C426 1.419 1_655 S
C425 C420 1.425 . S
C425 C422 1.409 . S
C425 C423 1.415 1_455 S
C426 H416 0.930 . S
C426 C424 1.419 1_455 S
C426 C427 1.362 . S
C427 H417 0.930 . S
C427 C420 1.409 . S
C427 C426 1.362 . S
H428 C434 0.930 . S
H429 C437 0.930 . S
H430 C438 0.930 . S
H431 C439 0.930 . S
H432 C442 0.930 . S
H433 C443 0.930 . S
C434 H428 0.930 . S
C434 C435 1.355 . S
C434 C436 1.415 . S
C435 C434 1.355 . S
C435 C437 1.419 . S
C436 C434 1.415 . S
C436 C441 1.425 . S
C436 C443 1.409 . S
C437 H429 0.930 . S
C437 C435 1.419 . S
C437 C438 1.362 . S
C438 H430 0.930 . S
C438 C437 1.362 . S
C438 C441 1.409 . S
C439 H431 0.930 . S
C439 C440 1.355 1_545 S
C439 C441 1.415 . S
C440 C439 1.355 1_565 S
C440 C442 1.419 . S
C441 C436 1.425 . S
C441 C438 1.409 . S
C441 C439 1.415 . S
C442 H432 0.930 . S
C442 C440 1.419 . S
C442 C443 1.362 1_565 S
C443 H433 0.930 . S
C443 C436 1.409 . S
C443 C442 1.362 1_545 S
H444 C450 0.930 . S
H445 C453 0.930 . S
H446 C454 0.930 . S
H447 C455 0.930 . S
H448 C458 0.930 . S
H449 C459 0.930 . S
C450 H444 0.930 . S
C450 C451 1.355 . S
C450 C452 1.415 . S
C451 C450 1.355 . S
C451 C453 1.419 . S
C452 C450 1.415 . S
C452 C457 1.425 . S
C452 C459 1.409 . S
C453 H445 0.930 . S
C453 C451 1.419 . S
C453 C454 1.362 . S
C454 H446 0.930 . S
C454 C453 1.362 . S
C454 C457 1.409 . S
C455 H447 0.930 . S
C455 C456 1.355 . S
C455 C457 1.415 . S
C456 C455 1.355 . S
C456 C458 1.419 . S
C457 C452 1.425 . S
C457 C454 1.409 . S
C457 C455 1.415 . S
C458 H448 0.930 . S
C458 C456 1.419 . S
C458 C459 1.362 . S
C459 H449 0.930 . S
C459 C452 1.409 . S
C459 C458 1.362 . S
H460 C466 0.930 . S
H461 C469 0.930 . S
H462 C470 0.930 . S
H463 C471 0.930 . S
H464 C474 0.940 1_455 S
H465 C475 0.930 . S
C466 H460 0.930 . S
C466 C467 1.355 . S
C466 C468 1.415 . S
C467 C466 1.355 . S
C467 C469 1.419 . S
C468 C466 1.415 . S
C468 C473 1.425 . S
C468 C475 1.409 . S
C469 H461 0.930 . S
C469 C467 1.419 . S
C469 C470 1.362 . S
C470 H462 0.930 . S
C470 C469 1.362 . S
C470 C473 1.409 . S
C471 H463 0.930 . S
C471 C472 1.355 . S
C471 C473 1.415 1_455 S
C472 C471 1.355 . S
C472 C474 1.420 1_455 S
C473 C468 1.425 . S
C473 C470 1.409 . S
C473 C471 1.415 1_655 S
C474 H464 0.940 1_655 S
C474 C472 1.420 1_655 S
C474 C475 1.367 . S
C475 H465 0.930 . S
C475 C468 1.409 . S
C475 C474 1.367 . S
H476 C482 0.930 . S
H477 C485 0.930 . S
H478 C486 0.930 1_545 S
H479 C487 0.930 . S
H480 C490 0.930 . S
H481 C491 0.930 . S
C482 H476 0.930 . S
C482 C483 1.355 . S
C482 C484 1.415 . S
C483 C482 1.355 . S
C483 C485 1.419 . S
C484 C482 1.415 . S
C484 C489 1.425 . S
C484 C491 1.409 . S
C485 H477 0.930 . S
C485 C483 1.419 . S
C485 C486 1.362 . S
C486 H478 0.930 1_565 S
C486 C485 1.362 . S
C486 C489 1.409 . S
C487 H479 0.930 . S
C487 C488 1.355 . S
C487 C489 1.415 1_545 S
C488 C487 1.355 . S
C488 C490 1.419 1_545 S
C489 C484 1.425 . S
C489 C486 1.409 . S
C489 C487 1.415 1_565 S
C490 H480 0.930 . S
C490 C488 1.419 1_565 S
C490 C491 1.362 . S
C491 H481 0.930 . S
C491 C484 1.409 . S
C491 C490 1.362 . S
H492 C498 0.930 . S
H493 C501 0.930 . S
H494 C502 0.930 . S
H495 C503 0.930 . S
H496 C506 0.930 . S
H497 C507 0.930 . S
C498 H492 0.930 . S
C498 C499 1.355 . S
C498 C500 1.415 . S
C499 C498 1.355 . S
C499 C501 1.419 . S
C500 C498 1.415 . S
C500 C505 1.425 . S
C500 C507 1.409 . S
C501 H493 0.930 . S
C501 C499 1.419 . S
C501 C502 1.362 . S
C502 H494 0.930 . S
C502 C501 1.362 . S
C502 C505 1.409 . S
C503 H495 0.930 . S
C503 C504 1.355 . S
C503 C505 1.415 . S
C504 C503 1.355 . S
C504 C506 1.419 . S
C505 C500 1.425 . S
C505 C502 1.409 . S
C505 C503 1.415 . S
C506 H496 0.930 . S
C506 C504 1.419 . S
C506 C507 1.362 . S
C507 H497 0.930 . S
C507 C500 1.409 . S
C507 C506 1.362 . S
H508 C514 0.930 . S
H509 C517 0.930 . S
H510 C518 0.930 1_655 S
H511 C519 0.930 . S
H512 C522 0.930 . S
H513 C523 0.930 . S
C514 H508 0.930 . S
C514 C515 1.355 . S
C514 C516 1.415 . S
C515 C514 1.355 . S
C515 C517 1.419 . S
C516 C514 1.415 . S
C516 C521 1.425 . S
C516 C523 1.409 . S
C517 H509 0.930 . S
C517 C515 1.419 . S
C517 C518 1.362 . S
C518 H510 0.930 1_455 S
C518 C517 1.362 . S
C518 C521 1.409 . S
C519 H511 0.930 . S
C519 C520 1.355 . S
C519 C521 1.415 1_655 S
C520 C519 1.355 . S
C520 C522 1.419 1_655 S
C521 C516 1.425 . S
C521 C518 1.409 . S
C521 C519 1.415 1_455 S
C522 H512 0.930 . S
C522 C520 1.419 1_455 S
C522 C523 1.362 . S
C523 H513 0.930 . S
C523 C516 1.409 . S
C523 C522 1.362 . S
H524 C530 0.930 . S
H525 C533 0.930 . S
H526 C534 0.930 . S
H527 C535 0.930 . S
H528 C538 0.930 . S
H529 C539 0.930 . S
C530 H524 0.930 . S
C530 C531 1.355 1_545 S
C530 C532 1.415 . S
C531 C530 1.355 1_565 S
C531 C533 1.419 . S
C532 C530 1.415 . S
C532 C537 1.425 . S
C532 C539 1.409 . S
C533 H525 0.930 . S
C533 C531 1.419 . S
C533 C534 1.362 . S
C534 H526 0.930 . S
C534 C533 1.362 . S
C534 C537 1.409 1_565 S
C535 H527 0.930 . S
C535 C536 1.355 . S
C535 C537 1.415 . S
C536 C535 1.355 . S
C536 C538 1.419 . S
C537 C532 1.425 . S
C537 C534 1.409 1_545 S
C537 C535 1.415 . S
C538 H528 0.930 . S
C538 C536 1.419 . S
C538 C539 1.362 . S
C539 H529 0.930 . S
C539 C532 1.409 . S
C539 C538 1.362 . S
C163 C107 1.666 . S
C168 C5 1.559 . S
C179 C16 1.670 . S
C184 C120 1.664 . S
C195 C29 1.663 . S
C200 C135 1.551 . S
C211 C44 1.623 . S
C216 C146 1.659 . S
C227 C81 1.670 . S
C232 C55 1.662 . S
C243 C68 1.662 . S
C248 C96 1.624 . S
C259 C118 1.479 . S
C264 C10 1.435 . S
C275 C14 1.476 . S
C280 C140 1.425 . S
C291 C144 1.444 . S
C296 C27 1.444 . S
C307 C49 1.420 . S
C312 C79 1.447 . S
C323 C101 1.420 . S
C328 C53 1.447 . S
C339 C105 1.477 . S
C344 C66 1.474 . S
C355 C3 1.843 . S
C360 C75 1.779 1_554 S
C371 C18 1.798 . S
C376 C1 1.866 . S
C387 C23 1.815 . S
C392 C31 1.827 . S
C403 C42 1.844 . S
C408 C36 1.772 . S
C419 C57 1.804 . S
C424 C40 1.858 . S
C435 C70 1.811 . S
C440 C62 1.825 . S
C451 C83 1.825 . S
C456 C92 1.850 . S
C467 C94 1.860 . S
C472 C114 1.825 1_556 S
C483 C109 1.814 . S
C488 C127 1.781 . S
C499 C122 1.821 . S
C504 C131 1.853 . S
C515 C133 1.843 . S
C520 C153 1.776 . S
C531 C88 1.806 . S
C536 C148 1.834 . S
