# Generated by pormake.
# Topology unc, (4)-cn, num edge types: 1
# Building blocks:
#     Node 0, Type 0, BuildingBlock: QUQFOY_clean_sbu_1, # of connection points: 4
#     Node 1, Type 0, BuildingBlock: QUQFOY_clean_sbu_1, # of connection points: 4
#     Node 2, Type 0, BuildingBlock: QUQFOY_clean_sbu_1, # of connection points: 4
#     Node 3, Type 0, BuildingBlock: QUQFOY_clean_sbu_1, # of connection points: 4
#     Edge 4, Type (0, 0), BuildingBlock: FUNLAD_clean_linker_1, # of connection points: 2
#     Edge 5, Type (0, 0), BuildingBlock: FUNLAD_clean_linker_1, # of connection points: 2
#     Edge 6, Type (0, 0), BuildingBlock: FUNLAD_clean_linker_1, # of connection points: 2
#     Edge 7, Type (0, 0), BuildingBlock: FUNLAD_clean_linker_1, # of connection points: 2
#     Edge 8, Type (0, 0), BuildingBlock: FUNLAD_clean_linker_1, # of connection points: 2
#     Edge 9, Type (0, 0), BuildingBlock: FUNLAD_clean_linker_1, # of connection points: 2
#     Edge 10, Type (0, 0), BuildingBlock: FUNLAD_clean_linker_1, # of connection points: 2
#     Edge 11, Type (0, 0), BuildingBlock: FUNLAD_clean_linker_1, # of connection points: 2
# Relax obj value: 0.069
# Max RMSD: 0.106
# Mean RMSD: 0.106
data_MOF--net-unc--node1-QUQFOY_clean_sbu_1--edge1-FUNLAD_clean_linker_1
_symmetry_space_group_name_H-M    P1
_symmetry_Int_Tables_number       1
_symmetry_cell_setting            triclinic
loop_
_symmetry_equiv_pos_as_xyz
'x, y, z'
_cell_length_a     32.063766
_cell_length_b     32.693965
_cell_length_c     23.402625
_cell_angle_alpha  90.01895
_cell_angle_beta   90.134241
_cell_angle_gamma 90.347463
loop_
_atom_site_label
_atom_site_type_symbol
_atom_site_fract_x
_atom_site_fract_y
_atom_site_fract_z
_atom_type_partial_charge
O0 O 0.98754 0.62959 0.92292 0.0
Cd1 Cd 0.96863 0.66647 0.98955 0.0
Cd2 Cd 0.0516 0.65733 0.01773 0.0
O3 O 0.0554 0.62844 0.93938 0.0
O4 O 0.91174 0.68361 0.96521 0.0
O5 O 0.96404 0.72742 0.97564 0.0
C6 C 0.92569 0.72047 0.96137 0.0
C7 C 0.10034 0.70687 0.04547 0.0
C8 C 0.02401 0.61843 0.90906 0.0
C9 C 0.9877 0.62082 0.09736 0.0
O10 O 0.02584 0.62343 0.08302 0.0
O11 O 0.95964 0.63847 0.06809 0.0
O12 O 0.11003 0.66876 0.04254 0.0
O13 O 0.06304 0.71743 0.03073 0.0
O14 O 0.40492 0.02835 0.30953 0.0
Cd15 Cd 0.36237 0.04412 0.2467 0.0
Cd16 Cd 0.35806 0.96432 0.24098 0.0
O17 O 0.38211 0.96534 0.32293 0.0
O18 O 0.35097 0.10317 0.26036 0.0
O19 O 0.30284 0.05476 0.26963 0.0
C20 C 0.31335 0.09288 0.27342 0.0
C21 C 0.29636 0.93068 0.21645 0.0
C22 C 0.40494 0.9953 0.33815 0.0
C23 C 0.40133 1.00794 0.14642 0.0
O24 O 0.39993 0.97513 0.17544 0.0
O25 O 0.38193 0.03947 0.16303 0.0
O26 O 0.33053 0.91072 0.22436 0.0
O27 O 0.29683 0.96976 0.22468 0.0
O28 O 0.05249 0.38805 0.42386 0.0
Cd29 Cd 0.07069 0.35106 0.4908 0.0
Cd30 Cd 0.98959 0.36079 0.51884 0.0
O31 O 0.98502 0.39184 0.44216 0.0
O32 O 0.12383 0.325 0.46525 0.0
O33 O 0.06593 0.29 0.48244 0.0
C34 C 0.10424 0.29042 0.46582 0.0
C35 C 0.94923 0.30353 0.54102 0.0
C36 C 1.01631 0.40088 0.4112 0.0
C37 C 0.05367 0.39672 0.59883 0.0
O38 O 1.01531 0.39337 0.58559 0.0
O39 O 0.08156 0.37985 0.56846 0.0
O40 O 0.93374 0.33986 0.54379 0.0
O41 O 0.98724 0.2997 0.52395 0.0
O42 O 0.64179 0.98986 0.81571 0.0
Cd43 Cd 0.6844 0.98013 0.75104 0.0
Cd44 Cd 0.67604 0.05998 0.74109 0.0
O45 O 0.65334 0.05614 0.82341 0.0
O46 O 0.71169 0.92715 0.76969 0.0
O47 O 0.74554 0.98645 0.76857 0.0
C48 C 0.7458 0.94752 0.77792 0.0
C49 C 0.72514 0.10978 0.71637 0.0
C50 C 0.63665 0.02347 0.84196 0.0
C51 C 0.63809 1.00655 0.65009 0.0
O52 O 0.63673 0.0407 0.67602 0.0
O53 O 0.66095 0.97791 0.66881 0.0
O54 O 0.6868 0.1191 0.72583 0.0
O55 O 0.73619 0.07208 0.7225 0.0
H56 H 0.9429 0.59424 0.15923 0.0
C57 C 0.97547 0.59505 0.14646 0.0
H58 H 0.03588 0.57177 0.16111 0.0
H59 H 1.0109 0.50931 0.4112 0.0
H60 H 0.04831 0.5727 0.42993 0.0
H61 H 0.05978 0.62317 0.35309 0.0
H62 H 0.03376 0.61063 0.25713 0.0
C63 C 1.00314 0.57077 0.17298 0.0
C64 C 0.99126 0.5427 0.22032 0.0
C65 C 1.0065 0.55058 0.27616 0.0
C66 C 1.00015 0.5214 0.32033 0.0
C67 C 1.01548 0.53016 0.37584 0.0
C68 C 0.03682 0.56651 0.38724 0.0
C69 C 0.04325 0.59493 0.34399 0.0
C70 C 0.02829 0.58728 0.28905 0.0
H71 H 0.03999 0.43467 0.33676 0.0
C72 C 1.01229 0.42912 0.36246 0.0
H73 H 0.94979 0.44688 0.37738 0.0
H74 H 0.95744 0.51776 0.11804 0.0
H75 H 0.91836 0.45531 0.10064 0.0
H76 H 0.90593 0.40568 0.17823 0.0
H77 H 0.93294 0.41817 0.27383 0.0
C78 C 0.9779 0.45121 0.35223 0.0
C79 C 0.97898 0.48415 0.30841 0.0
C80 C 0.96174 0.47722 0.25351 0.0
C81 C 0.96826 0.50629 0.2091 0.0
C82 C 0.95261 0.49739 0.15381 0.0
C83 C 0.93026 0.46149 0.14313 0.0
C84 C 0.92332 0.43351 0.18679 0.0
C85 C 0.93897 0.44102 0.24138 0.0
H86 H 0.42107 0.97453 0.42535 0.0
C87 C 0.43215 0.99178 0.38867 0.0
H88 H 0.48094 0.02556 0.35139 0.0
H89 H 0.57517 0.09372 0.56292 0.0
H90 H 0.55427 0.15508 0.51308 0.0
H91 H 0.50586 0.15152 0.43121 0.0
H92 H 0.47875 0.08658 0.39806 0.0
C93 C 0.47029 1.00916 0.38911 0.0
C94 C 0.49749 1.01057 0.44098 0.0
C95 C 0.51182 0.04913 0.46127 0.0
C96 C 0.53838 0.05135 0.50996 0.0
C97 C 0.55384 0.09016 0.52738 0.0
C98 C 0.54226 0.12574 0.49897 0.0
C99 C 0.51511 0.12373 0.4528 0.0
C100 C 0.49995 0.08605 0.43403 0.0
H101 H 0.62277 0.97837 0.56659 0.0
C102 C 0.61217 0.99986 0.59879 0.0
H103 H 0.56489 0.03977 0.62573 0.0
H104 H 0.48372 0.93107 0.40724 0.0
H105 H 0.4997 0.87007 0.46153 0.0
H106 H 0.5353 0.87491 0.55487 0.0
H107 H 0.55668 0.9406 0.59311 0.0
C108 C 0.57529 0.01879 0.5927 0.0
C109 C 0.5491 0.01524 0.54011 0.0
C110 C 0.53375 0.97675 0.52085 0.0
C111 C 0.5098 0.97425 0.46961 0.0
C112 C 0.49912 0.93508 0.44799 0.0
C113 C 0.50854 0.89972 0.47843 0.0
C114 C 0.52883 0.90242 0.53078 0.0
C115 C 0.54133 0.94038 0.55196 0.0
H116 H 1.00084 0.5857 0.83321 0.0
C117 C 0.02858 0.59163 0.85882 0.0
H118 H 0.09151 0.57561 0.87308 0.0
H119 H 0.05868 0.40103 0.76018 0.0
H120 H 0.07509 0.383 0.85819 0.0
H121 H 0.08699 0.43651 0.93087 0.0
H122 H 0.08248 0.50835 0.90605 0.0
C123 C 0.06401 0.57178 0.84636 0.0
C124 C 0.06418 0.54004 0.80062 0.0
C125 C 0.06819 0.49818 0.81555 0.0
C126 C 0.06155 0.46728 0.77357 0.0
C127 C 0.06396 0.42572 0.79014 0.0
C128 C 0.07324 0.41494 0.84631 0.0
C129 C 0.07992 0.44507 0.88724 0.0
C130 C 0.07728 0.48623 0.87237 0.0
H131 H 0.09911 0.42496 0.65873 0.0
C132 C 0.06626 0.42299 0.64736 0.0
H133 H 1.00597 0.4466 0.6613 0.0
H134 H 0.06227 0.61724 0.75569 0.0
H135 H 0.0477 0.63534 0.65704 0.0
H136 H 0.03475 0.58184 0.58463 0.0
H137 H 0.03656 0.50996 0.61033 0.0
C138 C 0.03852 0.44683 0.67435 0.0
C139 C 0.05135 0.47839 0.71672 0.0
C140 C 0.04997 0.52025 0.70106 0.0
C141 C 0.05681 0.5511 0.74291 0.0
C142 C 0.05614 0.59264 0.72585 0.0
C143 C 0.04812 0.60342 0.66931 0.0
C144 C 0.04087 0.57331 0.62853 0.0
C145 C 0.04184 0.53216 0.64392 0.0
H146 H 0.4153 0.02438 0.05696 0.0
C147 C 0.42777 1.01029 0.09535 0.0
H148 H 0.47967 0.985 0.13699 0.0
H149 H 0.58775 0.92623 0.9329 0.0
H150 H 0.57624 0.86397 0.98658 0.0
H151 H 0.52672 0.86221 0.067 0.0
H152 H 0.48909 0.92285 0.09489 0.0
C153 C 0.46768 0.99801 0.09751 0.0
C154 C 0.49601 0.99933 0.04699 0.0
C155 C 0.51662 0.96304 0.02982 0.0
C156 C 0.54396 0.96363 0.98202 0.0
C157 C 0.56565 0.92738 0.96769 0.0
C158 C 0.55948 0.89136 0.99831 0.0
C159 C 0.5317 0.89039 0.04366 0.0
C160 C 0.51041 0.92563 0.05937 0.0
H161 H 0.61572 0.04869 0.92458 0.0
C162 C 0.60988 0.025 0.89292 0.0
H163 H 0.57119 0.9763 0.86633 0.0
H164 H 0.47061 0.07691 0.07582 0.0
H165 H 0.47709 0.13774 0.01747 0.0
H166 H 0.51321 0.13543 0.92457 0.0
H167 H 0.54475 0.07279 0.89106 0.0
C168 C 0.57708 0.99951 0.8987 0.0
C169 C 0.54928 1.00001 0.94973 0.0
C170 C 0.5276 0.036 0.96579 0.0
C171 C 0.50305 0.03628 0.01638 0.0
C172 C 0.48648 0.07398 0.03536 0.0
C173 C 0.49044 0.10934 0.00261 0.0
C174 C 0.51103 0.10811 0.95054 0.0
C175 C 0.52944 0.07198 0.93213 0.0
H176 H 0.22946 0.92738 0.19302 0.0
C177 C 0.25805 0.90983 0.19615 0.0
H178 H 0.28674 0.85273 0.18238 0.0
H179 H 0.12434 0.74449 0.18317 0.0
H180 H 0.1521 0.72888 0.27706 0.0
H181 H 0.2114 0.76817 0.31667 0.0
H182 H 0.24304 0.82356 0.26278 0.0
C183 C 0.25843 0.87065 0.17859 0.0
C184 C 0.22055 0.8494 0.15596 0.0
C185 C 0.20264 0.81684 0.18768 0.0
C186 C 0.16893 0.79369 0.1644 0.0
C187 C 0.15086 0.7622 0.19793 0.0
C188 C 0.16626 0.75313 0.25214 0.0
C189 C 0.1996 0.77528 0.27446 0.0
C190 C 0.21759 0.8069 0.24295 0.0
H191 H 0.16244 0.72527 0.07653 0.0
C192 C 0.13122 0.73651 0.06774 0.0
H193 H 0.09104 0.78745 0.07261 0.0
H194 H 0.24776 0.90951 0.0829 0.0
H195 H 0.21884 0.92592 0.99007 0.0
H196 H 0.1596 0.88648 0.95065 0.0
H197 H 0.1291 0.83008 0.00382 0.0
C198 C 0.12184 0.7753 0.08146 0.0
C199 C 0.15375 0.8025 0.10874 0.0
C200 C 0.17035 0.83621 0.07807 0.0
C201 C 0.2041 0.85944 0.10135 0.0
C202 C 0.22144 0.89153 0.06824 0.0
C203 C 0.20529 0.90115 0.01462 0.0
C204 C 0.17197 0.8789 0.99238 0.0
C205 C 0.15473 0.84664 0.02338 0.0
H206 H 0.29545 0.15586 0.29465 0.0
C207 C 0.28434 0.12436 0.29411 0.0
H208 H 0.23542 0.08417 0.31732 0.0
H209 H 0.17472 0.20636 0.51142 0.0
H210 H 0.19743 0.14795 0.56682 0.0
H211 H 0.23082 0.08903 0.52008 0.0
H212 H 0.24186 0.08825 0.41764 0.0
C213 C 0.24635 0.11565 0.31511 0.0
C214 C 0.22072 0.14846 0.34175 0.0
C215 C 0.21342 0.14793 0.40153 0.0
C216 C 0.19367 0.18173 0.42844 0.0
C217 C 0.1886 0.18117 0.48853 0.0
C218 C 0.20173 0.14791 0.52095 0.0
C219 C 0.22057 0.11475 0.49464 0.0
C220 C 0.22665 0.11468 0.43573 0.0
H221 H 0.10614 0.22426 0.44643 0.0
C222 C 0.12416 0.25252 0.4455 0.0
H223 H 0.18018 0.2811 0.41961 0.0
H224 H 0.22337 0.15601 0.22532 0.0
H225 H 0.19928 0.21374 0.16943 0.0
H226 H 0.16636 0.27296 0.21614 0.0
H227 H 0.15707 0.27467 0.31891 0.0
C228 C 0.1627 0.25263 0.42304 0.0
C229 C 0.18066 0.2157 0.39532 0.0
C230 C 0.18631 0.21537 0.33523 0.0
C231 C 0.20591 0.18155 0.30836 0.0
C232 C 0.2099 0.1815 0.24809 0.0
C233 C 0.19588 0.21429 0.21544 0.0
C234 C 0.1773 0.2476 0.24173 0.0
C235 C 0.17233 0.24824 0.30083 0.0
H236 H 0.74333 0.17315 0.69633 0.0
C237 C 0.75456 0.14184 0.69747 0.0
H238 H 0.80438 0.10249 0.6771 0.0
H239 H 0.87144 0.22758 0.48947 0.0
H240 H 0.84681 0.17151 0.43042 0.0
H241 H 0.80988 0.11263 0.47309 0.0
H242 H 0.79715 0.10962 0.5751 0.0
C243 C 0.79327 0.13379 0.67894 0.0
C244 C 0.81986 0.16705 0.65459 0.0
C245 C 0.82818 0.16779 0.59509 0.0
C246 C 0.85012 0.20146 0.57059 0.0
C247 C 0.85608 0.20229 0.51065 0.0
C248 C 0.84182 0.1704 0.47613 0.0
C249 C 0.82098 0.13728 0.50014 0.0
C250 C 0.81395 0.13592 0.55882 0.0
H251 H 0.94008 0.23748 0.55682 0.0
C252 C 0.92512 0.26718 0.55914 0.0
H253 H 0.87198 0.2998 0.58562 0.0
H254 H 0.81388 0.17262 0.771 0.0
H255 H 0.83945 0.22812 0.83051 0.0
H256 H 0.87688 0.28681 0.78812 0.0
H257 H 0.88912 0.29027 0.68607 0.0
C258 C 0.88649 0.27004 0.58091 0.0
C259 C 0.86453 0.23393 0.6059 0.0
C260 C 0.8572 0.23259 0.66565 0.0
C261 C 0.83516 0.19899 0.69006 0.0
C262 C 0.82941 0.19792 0.75003 0.0
C263 C 0.84421 0.22944 0.78476 0.0
C264 C 0.86532 0.26246 0.76091 0.0
C265 C 0.87198 0.26411 0.70216 0.0
H266 H 0.81224 0.94505 0.80396 0.0
C267 C 0.78365 0.92725 0.79997 0.0
H268 H 0.75436 0.87006 0.81337 0.0
H269 H 0.91387 0.76092 0.82177 0.0
H270 H 0.89027 0.74676 0.72513 0.0
H271 H 0.83436 0.78765 0.68105 0.0
H272 H 0.80189 0.84312 0.73322 0.0
C273 C 0.78268 0.8882 0.81803 0.0
C274 C 0.81981 0.86727 0.8425 0.0
C275 C 0.83842 0.83493 0.81155 0.0
C276 C 0.87029 0.81102 0.83721 0.0
C277 C 0.88882 0.77937 0.80485 0.0
C278 C 0.87577 0.7711 0.7492 0.0
C279 C 0.84432 0.79414 0.72436 0.0
C280 C 0.82583 0.82578 0.75488 0.0
H281 H 0.86628 0.74385 0.92835 0.0
C282 C 0.89833 0.75252 0.93805 0.0
H283 H 0.94341 0.79999 0.93351 0.0
H284 H 0.79145 0.92754 0.91396 0.0
H285 H 0.81668 0.94272 0.00935 0.0
H286 H 0.8729 0.90197 0.05288 0.0
H287 H 0.90407 0.84545 0.00122 0.0
C288 C 0.9117 0.79022 0.92406 0.0
C289 C 0.88302 0.81902 0.89425 0.0
C290 C 0.8662 0.85281 0.92403 0.0
C291 C 0.83422 0.87676 0.89843 0.0
C292 C 0.81644 0.90893 0.93055 0.0
C293 C 0.83051 0.91787 0.98556 0.0
C294 C 0.86213 0.89489 0.01011 0.0
C295 C 0.87975 0.86257 0.98002 0.0
loop_
_geom_bond_atom_site_label_1
_geom_bond_atom_site_label_2
_geom_bond_distance
_geom_bond_site_symmetry_2
_ccdc_geom_bond_type
O0 Cd1 2.223 1_556 S
O0 C8 1.315 . S
Cd1 O0 2.223 1_554 S
Cd1 O4 2.297 1_554 S
Cd1 O5 2.439 1_554 S
Cd1 O11 2.240 . S
Cd2 O3 2.240 . S
Cd2 O10 2.223 1_556 S
Cd2 O12 2.297 1_556 S
Cd2 O13 2.439 1_556 S
O3 Cd2 2.240 . S
O3 C8 1.279 1_455 S
O4 Cd1 2.297 1_556 S
O4 C6 1.247 . S
O5 Cd1 2.439 1_556 S
O5 C6 1.208 . S
C6 O4 1.247 . S
C6 O5 1.208 . S
C7 O12 1.247 . S
C7 O13 1.208 . S
C8 O0 1.315 . S
C8 O3 1.279 1_655 S
C9 O10 1.315 . S
C9 O11 1.279 1_455 S
O10 Cd2 2.223 1_554 S
O10 C9 1.315 . S
O11 Cd1 2.240 . S
O11 C9 1.279 1_655 S
O12 Cd2 2.297 1_554 S
O12 C7 1.247 . S
O13 Cd2 2.439 1_554 S
O13 C7 1.208 . S
O14 Cd15 2.223 . S
O14 C22 1.315 . S
Cd15 O14 2.223 . S
Cd15 O18 2.297 . S
Cd15 O19 2.439 . S
Cd15 O25 2.240 . S
Cd16 O17 2.240 . S
Cd16 O24 2.223 . S
Cd16 O26 2.297 . S
Cd16 O27 2.439 . S
O17 Cd16 2.240 . S
O17 C22 1.279 1_565 S
O18 Cd15 2.297 . S
O18 C20 1.247 . S
O19 Cd15 2.439 . S
O19 C20 1.208 . S
C20 O18 1.247 . S
C20 O19 1.208 . S
C21 O26 1.247 . S
C21 O27 1.208 . S
C22 O14 1.315 . S
C22 O17 1.279 1_545 S
C23 O24 1.315 . S
C23 O25 1.279 1_565 S
O24 Cd16 2.223 . S
O24 C23 1.315 . S
O25 Cd15 2.240 . S
O25 C23 1.279 1_545 S
O26 Cd16 2.297 . S
O26 C21 1.247 . S
O27 Cd16 2.439 . S
O27 C21 1.208 . S
O28 Cd29 2.223 . S
O28 C36 1.315 . S
Cd29 O28 2.223 . S
Cd29 O32 2.297 . S
Cd29 O33 2.439 . S
Cd29 O39 2.240 . S
Cd30 O31 2.240 . S
Cd30 O38 2.223 . S
Cd30 O40 2.297 . S
Cd30 O41 2.439 . S
O31 Cd30 2.240 . S
O31 C36 1.279 1_655 S
O32 Cd29 2.297 . S
O32 C34 1.247 . S
O33 Cd29 2.439 . S
O33 C34 1.208 . S
C34 O32 1.247 . S
C34 O33 1.208 . S
C35 O40 1.247 . S
C35 O41 1.208 . S
C36 O28 1.315 . S
C36 O31 1.279 1_455 S
C37 O38 1.315 . S
C37 O39 1.279 1_655 S
O38 Cd30 2.223 . S
O38 C37 1.315 . S
O39 Cd29 2.240 . S
O39 C37 1.279 1_455 S
O40 Cd30 2.297 . S
O40 C35 1.247 . S
O41 Cd30 2.439 . S
O41 C35 1.208 . S
O42 Cd43 2.223 . S
O42 C50 1.315 . S
Cd43 O42 2.223 . S
Cd43 O46 2.297 . S
Cd43 O47 2.439 . S
Cd43 O53 2.240 . S
Cd44 O45 2.240 . S
Cd44 O52 2.223 . S
Cd44 O54 2.297 . S
Cd44 O55 2.439 . S
O45 Cd44 2.240 . S
O45 C50 1.279 1_545 S
O46 Cd43 2.297 . S
O46 C48 1.247 . S
O47 Cd43 2.439 . S
O47 C48 1.208 . S
C48 O46 1.247 . S
C48 O47 1.208 . S
C49 O54 1.247 . S
C49 O55 1.208 . S
C50 O42 1.315 . S
C50 O45 1.279 1_565 S
C51 O52 1.315 . S
C51 O53 1.279 1_545 S
O52 Cd44 2.223 . S
O52 C51 1.315 . S
O53 Cd43 2.240 . S
O53 C51 1.279 1_565 S
O54 Cd44 2.297 . S
O54 C49 1.247 . S
O55 Cd44 2.439 . S
O55 C49 1.208 . S
H56 C57 0.951 1_655 S
C57 H56 0.951 1_455 S
C57 C63 1.265 . S
H58 C63 0.950 . S
H59 C67 0.949 . S
H60 C68 0.950 . S
H61 C69 0.951 . S
H62 C70 0.951 . S
C63 C57 1.265 . S
C63 H58 0.950 . S
C63 C64 1.478 . S
C64 C63 1.478 . S
C64 C65 1.397 . S
C64 C81 1.394 1_455 S
C65 C64 1.397 . S
C65 C66 1.438 . S
C65 C70 1.429 . S
C66 C65 1.438 . S
C66 C67 1.428 . S
C66 C79 1.394 1_455 S
C67 H59 0.949 . S
C67 C66 1.428 . S
C67 C68 1.345 . S
C68 H60 0.950 . S
C68 C67 1.345 . S
C68 C69 1.424 . S
C69 H61 0.951 . S
C69 C68 1.424 . S
C69 C70 1.347 . S
C70 H62 0.951 . S
C70 C65 1.429 . S
C70 C69 1.347 . S
H71 C72 0.951 . S
C72 H71 0.951 . S
C72 C78 1.265 1_455 S
H73 C78 0.950 . S
H74 C82 0.949 . S
H75 C83 0.950 . S
H76 C84 0.951 . S
H77 C85 0.951 . S
C78 C72 1.265 1_655 S
C78 H73 0.950 . S
C78 C79 1.478 . S
C79 C66 1.394 1_655 S
C79 C78 1.478 . S
C79 C80 1.397 . S
C80 C79 1.397 . S
C80 C81 1.438 . S
C80 C85 1.429 . S
C81 C64 1.394 1_655 S
C81 C80 1.438 . S
C81 C82 1.428 . S
C82 H74 0.949 . S
C82 C81 1.428 . S
C82 C83 1.345 . S
C83 H75 0.950 . S
C83 C82 1.345 . S
C83 C84 1.424 . S
C84 H76 0.951 . S
C84 C83 1.424 . S
C84 C85 1.347 . S
C85 H77 0.951 . S
C85 C80 1.429 . S
C85 C84 1.347 . S
H86 C87 0.951 . S
C87 H86 0.951 . S
C87 C93 1.265 . S
H88 C93 0.950 . S
H89 C97 0.949 . S
H90 C98 0.950 . S
H91 C99 0.951 . S
H92 C100 0.951 . S
C93 C87 1.265 . S
C93 H88 0.950 . S
C93 C94 1.478 . S
C94 C93 1.478 . S
C94 C95 1.397 . S
C94 C111 1.394 1_545 S
C95 C94 1.397 . S
C95 C96 1.438 . S
C95 C100 1.429 . S
C96 C95 1.438 . S
C96 C97 1.428 . S
C96 C109 1.394 . S
C97 H89 0.949 . S
C97 C96 1.428 . S
C97 C98 1.345 . S
C98 H90 0.950 . S
C98 C97 1.345 . S
C98 C99 1.424 . S
C99 H91 0.951 . S
C99 C98 1.424 . S
C99 C100 1.347 . S
C100 H92 0.951 . S
C100 C95 1.429 . S
C100 C99 1.347 . S
H101 C102 0.951 . S
C102 H101 0.951 . S
C102 C108 1.265 . S
H103 C108 0.950 . S
H104 C112 0.949 . S
H105 C113 0.950 . S
H106 C114 0.951 . S
H107 C115 0.951 . S
C108 C102 1.265 . S
C108 H103 0.950 . S
C108 C109 1.478 . S
C109 C96 1.394 . S
C109 C108 1.478 . S
C109 C110 1.397 1_545 S
C110 C109 1.397 1_565 S
C110 C111 1.438 . S
C110 C115 1.429 . S
C111 C94 1.394 1_565 S
C111 C110 1.438 . S
C111 C112 1.428 . S
C112 H104 0.949 . S
C112 C111 1.428 . S
C112 C113 1.345 . S
C113 H105 0.950 . S
C113 C112 1.345 . S
C113 C114 1.424 . S
C114 H106 0.951 . S
C114 C113 1.424 . S
C114 C115 1.347 . S
C115 H107 0.951 . S
C115 C110 1.429 . S
C115 C114 1.347 . S
H116 C117 0.951 . S
C117 H116 0.951 . S
C117 C123 1.265 1_655 S
H118 C123 0.950 . S
H119 C127 0.949 . S
H120 C128 0.950 . S
H121 C129 0.951 . S
H122 C130 0.951 . S
C123 C117 1.265 1_455 S
C123 H118 0.950 . S
C123 C124 1.478 . S
C124 C123 1.478 . S
C124 C125 1.397 . S
C124 C141 1.394 1_455 S
C125 C124 1.397 . S
C125 C126 1.438 . S
C125 C130 1.429 . S
C126 C125 1.438 . S
C126 C127 1.428 . S
C126 C139 1.394 1_455 S
C127 H119 0.949 . S
C127 C126 1.428 . S
C127 C128 1.345 . S
C128 H120 0.950 . S
C128 C127 1.345 . S
C128 C129 1.424 . S
C129 H121 0.951 . S
C129 C128 1.424 . S
C129 C130 1.347 . S
C130 H122 0.951 . S
C130 C125 1.429 . S
C130 C129 1.347 . S
H131 C132 0.961 . S
C132 H131 0.961 . S
C132 C138 1.258 1_455 S
H133 C138 0.950 . S
H134 C142 0.949 . S
H135 C143 0.950 . S
H136 C144 0.951 . S
H137 C145 0.951 . S
C138 C132 1.258 1_655 S
C138 H133 0.950 . S
C138 C139 1.478 . S
C139 C126 1.394 1_655 S
C139 C138 1.478 . S
C139 C140 1.397 . S
C140 C139 1.397 . S
C140 C141 1.438 . S
C140 C145 1.429 . S
C141 C124 1.394 1_655 S
C141 C140 1.438 . S
C141 C142 1.428 . S
C142 H134 0.949 . S
C142 C141 1.428 . S
C142 C143 1.345 . S
C143 H135 0.950 . S
C143 C142 1.345 . S
C143 C144 1.424 . S
C144 H136 0.951 . S
C144 C143 1.424 . S
C144 C145 1.347 . S
C145 H137 0.951 . S
C145 C140 1.429 . S
C145 C144 1.347 . S
H146 C147 0.951 . S
C147 H146 0.951 . S
C147 C153 1.265 . S
H148 C153 0.950 . S
H149 C157 0.949 . S
H150 C158 0.950 1_556 S
H151 C159 0.951 . S
H152 C160 0.951 . S
C153 C147 1.265 . S
C153 H148 0.950 . S
C153 C154 1.478 . S
C154 C153 1.478 . S
C154 C155 1.397 . S
C154 C171 1.394 1_565 S
C155 C154 1.397 . S
C155 C156 1.438 1_554 S
C155 C160 1.429 . S
C156 C155 1.438 1_556 S
C156 C157 1.428 . S
C156 C169 1.394 . S
C157 H149 0.949 . S
C157 C156 1.428 . S
C157 C158 1.345 1_556 S
C158 H150 0.950 1_554 S
C158 C157 1.345 1_554 S
C158 C159 1.424 . S
C159 H151 0.951 . S
C159 C158 1.424 . S
C159 C160 1.347 . S
C160 H152 0.951 . S
C160 C155 1.429 . S
C160 C159 1.347 . S
H161 C162 0.951 . S
C162 H161 0.951 . S
C162 C168 1.265 . S
H163 C168 0.950 . S
H164 C172 0.949 . S
H165 C173 0.950 1_554 S
H166 C174 0.951 . S
H167 C175 0.951 . S
C168 C162 1.265 . S
C168 H163 0.950 . S
C168 C169 1.478 . S
C169 C156 1.394 . S
C169 C168 1.478 . S
C169 C170 1.397 1_565 S
C170 C169 1.397 1_545 S
C170 C171 1.438 1_556 S
C170 C175 1.429 . S
C171 C154 1.394 1_545 S
C171 C170 1.438 1_554 S
C171 C172 1.428 . S
C172 H164 0.949 . S
C172 C171 1.428 . S
C172 C173 1.345 1_554 S
C173 H165 0.950 1_556 S
C173 C172 1.345 1_556 S
C173 C174 1.424 . S
C174 H166 0.951 . S
C174 C173 1.424 . S
C174 C175 1.347 . S
C175 H167 0.951 . S
C175 C170 1.429 . S
C175 C174 1.347 . S
H176 C177 0.951 . S
C177 H176 0.951 . S
C177 C183 1.265 . S
H178 C183 0.950 . S
H179 C187 0.949 . S
H180 C188 0.950 . S
H181 C189 0.951 . S
H182 C190 0.951 . S
C183 C177 1.265 . S
C183 H178 0.950 . S
C183 C184 1.478 . S
C184 C183 1.478 . S
C184 C185 1.397 . S
C184 C201 1.394 . S
C185 C184 1.397 . S
C185 C186 1.438 . S
C185 C190 1.429 . S
C186 C185 1.438 . S
C186 C187 1.428 . S
C186 C199 1.394 . S
C187 H179 0.949 . S
C187 C186 1.428 . S
C187 C188 1.345 . S
C188 H180 0.950 . S
C188 C187 1.345 . S
C188 C189 1.424 . S
C189 H181 0.951 . S
C189 C188 1.424 . S
C189 C190 1.347 . S
C190 H182 0.951 . S
C190 C185 1.429 . S
C190 C189 1.347 . S
H191 C192 0.951 . S
C192 H191 0.951 . S
C192 C198 1.265 . S
H193 C198 0.950 . S
H194 C202 0.949 . S
H195 C203 0.950 . S
H196 C204 0.951 . S
H197 C205 0.951 . S
C198 C192 1.265 . S
C198 H193 0.950 . S
C198 C199 1.478 . S
C199 C186 1.394 . S
C199 C198 1.478 . S
C199 C200 1.397 . S
C200 C199 1.397 . S
C200 C201 1.438 . S
C200 C205 1.429 . S
C201 C184 1.394 . S
C201 C200 1.438 . S
C201 C202 1.428 . S
C202 H194 0.949 . S
C202 C201 1.428 . S
C202 C203 1.345 . S
C203 H195 0.950 . S
C203 C202 1.345 . S
C203 C204 1.424 . S
C204 H196 0.951 . S
C204 C203 1.424 . S
C204 C205 1.347 . S
C205 H197 0.951 . S
C205 C200 1.429 . S
C205 C204 1.347 . S
H206 C207 0.951 . S
C207 H206 0.951 . S
C207 C213 1.265 . S
H208 C213 0.950 . S
H209 C217 0.949 . S
H210 C218 0.950 . S
H211 C219 0.951 . S
H212 C220 0.951 . S
C213 C207 1.265 . S
C213 H208 0.950 . S
C213 C214 1.478 . S
C214 C213 1.478 . S
C214 C215 1.397 . S
C214 C231 1.394 . S
C215 C214 1.397 . S
C215 C216 1.438 . S
C215 C220 1.429 . S
C216 C215 1.438 . S
C216 C217 1.428 . S
C216 C229 1.394 . S
C217 H209 0.949 . S
C217 C216 1.428 . S
C217 C218 1.345 . S
C218 H210 0.950 . S
C218 C217 1.345 . S
C218 C219 1.424 . S
C219 H211 0.951 . S
C219 C218 1.424 . S
C219 C220 1.347 . S
C220 H212 0.951 . S
C220 C215 1.429 . S
C220 C219 1.347 . S
H221 C222 0.951 . S
C222 H221 0.951 . S
C222 C228 1.265 . S
H223 C228 0.950 . S
H224 C232 0.949 . S
H225 C233 0.950 . S
H226 C234 0.951 . S
H227 C235 0.951 . S
C228 C222 1.265 . S
C228 H223 0.950 . S
C228 C229 1.478 . S
C229 C216 1.394 . S
C229 C228 1.478 . S
C229 C230 1.397 . S
C230 C229 1.397 . S
C230 C231 1.438 . S
C230 C235 1.429 . S
C231 C214 1.394 . S
C231 C230 1.438 . S
C231 C232 1.428 . S
C232 H224 0.949 . S
C232 C231 1.428 . S
C232 C233 1.345 . S
C233 H225 0.950 . S
C233 C232 1.345 . S
C233 C234 1.424 . S
C234 H226 0.951 . S
C234 C233 1.424 . S
C234 C235 1.347 . S
C235 H227 0.951 . S
C235 C230 1.429 . S
C235 C234 1.347 . S
H236 C237 0.951 . S
C237 H236 0.951 . S
C237 C243 1.265 . S
H238 C243 0.950 . S
H239 C247 0.949 . S
H240 C248 0.950 . S
H241 C249 0.951 . S
H242 C250 0.951 . S
C243 C237 1.265 . S
C243 H238 0.950 . S
C243 C244 1.478 . S
C244 C243 1.478 . S
C244 C245 1.397 . S
C244 C261 1.394 . S
C245 C244 1.397 . S
C245 C246 1.438 . S
C245 C250 1.429 . S
C246 C245 1.438 . S
C246 C247 1.428 . S
C246 C259 1.394 . S
C247 H239 0.949 . S
C247 C246 1.428 . S
C247 C248 1.345 . S
C248 H240 0.950 . S
C248 C247 1.345 . S
C248 C249 1.424 . S
C249 H241 0.951 . S
C249 C248 1.424 . S
C249 C250 1.347 . S
C250 H242 0.951 . S
C250 C245 1.429 . S
C250 C249 1.347 . S
H251 C252 0.951 . S
C252 H251 0.951 . S
C252 C258 1.265 . S
H253 C258 0.950 . S
H254 C262 0.949 . S
H255 C263 0.950 . S
H256 C264 0.951 . S
H257 C265 0.951 . S
C258 C252 1.265 . S
C258 H253 0.950 . S
C258 C259 1.478 . S
C259 C246 1.394 . S
C259 C258 1.478 . S
C259 C260 1.397 . S
C260 C259 1.397 . S
C260 C261 1.438 . S
C260 C265 1.429 . S
C261 C244 1.394 . S
C261 C260 1.438 . S
C261 C262 1.428 . S
C262 H254 0.949 . S
C262 C261 1.428 . S
C262 C263 1.345 . S
C263 H255 0.950 . S
C263 C262 1.345 . S
C263 C264 1.424 . S
C264 H256 0.951 . S
C264 C263 1.424 . S
C264 C265 1.347 . S
C265 H257 0.951 . S
C265 C260 1.429 . S
C265 C264 1.347 . S
H266 C267 0.951 . S
C267 H266 0.951 . S
C267 C273 1.265 . S
H268 C273 0.950 . S
H269 C277 0.949 . S
H270 C278 0.950 . S
H271 C279 0.951 . S
H272 C280 0.951 . S
C273 C267 1.265 . S
C273 H268 0.950 . S
C273 C274 1.478 . S
C274 C273 1.478 . S
C274 C275 1.397 . S
C274 C291 1.394 . S
C275 C274 1.397 . S
C275 C276 1.438 . S
C275 C280 1.429 . S
C276 C275 1.438 . S
C276 C277 1.428 . S
C276 C289 1.394 . S
C277 H269 0.949 . S
C277 C276 1.428 . S
C277 C278 1.345 . S
C278 H270 0.950 . S
C278 C277 1.345 . S
C278 C279 1.424 . S
C279 H271 0.951 . S
C279 C278 1.424 . S
C279 C280 1.347 . S
C280 H272 0.951 . S
C280 C275 1.429 . S
C280 C279 1.347 . S
H281 C282 0.951 . S
C282 H281 0.951 . S
C282 C288 1.265 . S
H283 C288 0.950 . S
H284 C292 0.949 . S
H285 C293 0.941 1_554 S
H286 C294 0.951 . S
H287 C295 0.951 . S
C288 C282 1.265 . S
C288 H283 0.950 . S
C288 C289 1.478 . S
C289 C276 1.394 . S
C289 C288 1.478 . S
C289 C290 1.397 . S
C290 C289 1.397 . S
C290 C291 1.438 . S
C290 C295 1.429 . S
C291 C274 1.394 . S
C291 C290 1.438 . S
C291 C292 1.428 . S
C292 H284 0.949 . S
C292 C291 1.428 . S
C292 C293 1.357 . S
C293 H285 0.941 1_556 S
C293 C292 1.357 . S
C293 C294 1.420 1_556 S
C294 H286 0.951 . S
C294 C293 1.420 1_554 S
C294 C295 1.347 1_554 S
C295 H287 0.951 . S
C295 C290 1.429 . S
C295 C294 1.347 1_556 S
C57 C9 1.654 . S
C72 C36 1.605 . S
C87 C22 1.622 . S
C102 C51 1.623 . S
C117 C8 1.608 . S
C132 C37 1.657 1_455 S
C147 C23 1.622 . S
C162 C50 1.623 . S
C177 C21 1.458 . S
C192 C7 1.418 . S
C207 C20 1.437 . S
C222 C34 1.479 . S
C237 C49 1.425 . S
C252 C35 1.470 . S
C267 C48 1.473 . S
C282 C6 1.429 . S
