# Generated by pormake.
# Topology nbo-h, (5)-cn, num edge types: 1
# Building blocks:
#     Node 0, Type 0, BuildingBlock: BEQFEK_clean_sbu_0, # of connection points: 5
#     Node 1, Type 0, BuildingBlock: BEQFEK_clean_sbu_0, # of connection points: 5
#     Node 2, Type 0, BuildingBlock: BEQFEK_clean_sbu_0, # of connection points: 5
#     Node 3, Type 0, BuildingBlock: BEQFEK_clean_sbu_0, # of connection points: 5
#     Node 4, Type 0, BuildingBlock: BEQFEK_clean_sbu_0, # of connection points: 5
#     Node 5, Type 0, BuildingBlock: BEQFEK_clean_sbu_0, # of connection points: 5
#     Node 6, Type 0, BuildingBlock: BEQFEK_clean_sbu_0, # of connection points: 5
#     Node 7, Type 0, BuildingBlock: BEQFEK_clean_sbu_0, # of connection points: 5
#     Node 8, Type 0, BuildingBlock: BEQFEK_clean_sbu_0, # of connection points: 5
#     Node 9, Type 0, BuildingBlock: BEQFEK_clean_sbu_0, # of connection points: 5
#     Node 10, Type 0, BuildingBlock: BEQFEK_clean_sbu_0, # of connection points: 5
#     Node 11, Type 0, BuildingBlock: BEQFEK_clean_sbu_0, # of connection points: 5
#     Node 12, Type 0, BuildingBlock: BEQFEK_clean_sbu_0, # of connection points: 5
#     Node 13, Type 0, BuildingBlock: BEQFEK_clean_sbu_0, # of connection points: 5
#     Node 14, Type 0, BuildingBlock: BEQFEK_clean_sbu_0, # of connection points: 5
#     Node 15, Type 0, BuildingBlock: BEQFEK_clean_sbu_0, # of connection points: 5
#     Node 16, Type 0, BuildingBlock: BEQFEK_clean_sbu_0, # of connection points: 5
#     Node 17, Type 0, BuildingBlock: BEQFEK_clean_sbu_0, # of connection points: 5
#     Node 18, Type 0, BuildingBlock: BEQFEK_clean_sbu_0, # of connection points: 5
#     Node 19, Type 0, BuildingBlock: BEQFEK_clean_sbu_0, # of connection points: 5
#     Node 20, Type 0, BuildingBlock: BEQFEK_clean_sbu_0, # of connection points: 5
#     Node 21, Type 0, BuildingBlock: BEQFEK_clean_sbu_0, # of connection points: 5
#     Node 22, Type 0, BuildingBlock: BEQFEK_clean_sbu_0, # of connection points: 5
#     Node 23, Type 0, BuildingBlock: BEQFEK_clean_sbu_0, # of connection points: 5
#     Node 24, Type 0, BuildingBlock: BEQFEK_clean_sbu_0, # of connection points: 5
#     Node 25, Type 0, BuildingBlock: BEQFEK_clean_sbu_0, # of connection points: 5
#     Node 26, Type 0, BuildingBlock: BEQFEK_clean_sbu_0, # of connection points: 5
#     Node 27, Type 0, BuildingBlock: BEQFEK_clean_sbu_0, # of connection points: 5
#     Node 28, Type 0, BuildingBlock: BEQFEK_clean_sbu_0, # of connection points: 5
#     Node 29, Type 0, BuildingBlock: BEQFEK_clean_sbu_0, # of connection points: 5
#     Node 30, Type 0, BuildingBlock: BEQFEK_clean_sbu_0, # of connection points: 5
#     Node 31, Type 0, BuildingBlock: BEQFEK_clean_sbu_0, # of connection points: 5
#     Node 32, Type 0, BuildingBlock: BEQFEK_clean_sbu_0, # of connection points: 5
#     Node 33, Type 0, BuildingBlock: BEQFEK_clean_sbu_0, # of connection points: 5
#     Node 34, Type 0, BuildingBlock: BEQFEK_clean_sbu_0, # of connection points: 5
#     Node 35, Type 0, BuildingBlock: BEQFEK_clean_sbu_0, # of connection points: 5
#     Node 36, Type 0, BuildingBlock: BEQFEK_clean_sbu_0, # of connection points: 5
#     Node 37, Type 0, BuildingBlock: BEQFEK_clean_sbu_0, # of connection points: 5
#     Node 38, Type 0, BuildingBlock: BEQFEK_clean_sbu_0, # of connection points: 5
#     Node 39, Type 0, BuildingBlock: BEQFEK_clean_sbu_0, # of connection points: 5
#     Node 40, Type 0, BuildingBlock: BEQFEK_clean_sbu_0, # of connection points: 5
#     Node 41, Type 0, BuildingBlock: BEQFEK_clean_sbu_0, # of connection points: 5
#     Node 42, Type 0, BuildingBlock: BEQFEK_clean_sbu_0, # of connection points: 5
#     Node 43, Type 0, BuildingBlock: BEQFEK_clean_sbu_0, # of connection points: 5
#     Node 44, Type 0, BuildingBlock: BEQFEK_clean_sbu_0, # of connection points: 5
#     Node 45, Type 0, BuildingBlock: BEQFEK_clean_sbu_0, # of connection points: 5
#     Node 46, Type 0, BuildingBlock: BEQFEK_clean_sbu_0, # of connection points: 5
#     Node 47, Type 0, BuildingBlock: BEQFEK_clean_sbu_0, # of connection points: 5
#     Edge 48, Type (0, 0), BuildingBlock: OJICUG_clean_linker_0, # of connection points: 2
#     Edge 49, Type (0, 0), BuildingBlock: OJICUG_clean_linker_0, # of connection points: 2
#     Edge 50, Type (0, 0), BuildingBlock: OJICUG_clean_linker_0, # of connection points: 2
#     Edge 51, Type (0, 0), BuildingBlock: OJICUG_clean_linker_0, # of connection points: 2
#     Edge 52, Type (0, 0), BuildingBlock: OJICUG_clean_linker_0, # of connection points: 2
#     Edge 53, Type (0, 0), BuildingBlock: OJICUG_clean_linker_0, # of connection points: 2
#     Edge 54, Type (0, 0), BuildingBlock: OJICUG_clean_linker_0, # of connection points: 2
#     Edge 55, Type (0, 0), BuildingBlock: OJICUG_clean_linker_0, # of connection points: 2
#     Edge 56, Type (0, 0), BuildingBlock: OJICUG_clean_linker_0, # of connection points: 2
#     Edge 57, Type (0, 0), BuildingBlock: OJICUG_clean_linker_0, # of connection points: 2
#     Edge 58, Type (0, 0), BuildingBlock: OJICUG_clean_linker_0, # of connection points: 2
#     Edge 59, Type (0, 0), BuildingBlock: OJICUG_clean_linker_0, # of connection points: 2
#     Edge 60, Type (0, 0), BuildingBlock: OJICUG_clean_linker_0, # of connection points: 2
#     Edge 61, Type (0, 0), BuildingBlock: OJICUG_clean_linker_0, # of connection points: 2
#     Edge 62, Type (0, 0), BuildingBlock: OJICUG_clean_linker_0, # of connection points: 2
#     Edge 63, Type (0, 0), BuildingBlock: OJICUG_clean_linker_0, # of connection points: 2
#     Edge 64, Type (0, 0), BuildingBlock: OJICUG_clean_linker_0, # of connection points: 2
#     Edge 65, Type (0, 0), BuildingBlock: OJICUG_clean_linker_0, # of connection points: 2
#     Edge 66, Type (0, 0), BuildingBlock: OJICUG_clean_linker_0, # of connection points: 2
#     Edge 67, Type (0, 0), BuildingBlock: OJICUG_clean_linker_0, # of connection points: 2
#     Edge 68, Type (0, 0), BuildingBlock: OJICUG_clean_linker_0, # of connection points: 2
#     Edge 69, Type (0, 0), BuildingBlock: OJICUG_clean_linker_0, # of connection points: 2
#     Edge 70, Type (0, 0), BuildingBlock: OJICUG_clean_linker_0, # of connection points: 2
#     Edge 71, Type (0, 0), BuildingBlock: OJICUG_clean_linker_0, # of connection points: 2
#     Edge 72, Type (0, 0), BuildingBlock: OJICUG_clean_linker_0, # of connection points: 2
#     Edge 73, Type (0, 0), BuildingBlock: OJICUG_clean_linker_0, # of connection points: 2
#     Edge 74, Type (0, 0), BuildingBlock: OJICUG_clean_linker_0, # of connection points: 2
#     Edge 75, Type (0, 0), BuildingBlock: OJICUG_clean_linker_0, # of connection points: 2
#     Edge 76, Type (0, 0), BuildingBlock: OJICUG_clean_linker_0, # of connection points: 2
#     Edge 77, Type (0, 0), BuildingBlock: OJICUG_clean_linker_0, # of connection points: 2
#     Edge 78, Type (0, 0), BuildingBlock: OJICUG_clean_linker_0, # of connection points: 2
#     Edge 79, Type (0, 0), BuildingBlock: OJICUG_clean_linker_0, # of connection points: 2
#     Edge 80, Type (0, 0), BuildingBlock: OJICUG_clean_linker_0, # of connection points: 2
#     Edge 81, Type (0, 0), BuildingBlock: OJICUG_clean_linker_0, # of connection points: 2
#     Edge 82, Type (0, 0), BuildingBlock: OJICUG_clean_linker_0, # of connection points: 2
#     Edge 83, Type (0, 0), BuildingBlock: OJICUG_clean_linker_0, # of connection points: 2
#     Edge 84, Type (0, 0), BuildingBlock: OJICUG_clean_linker_0, # of connection points: 2
#     Edge 85, Type (0, 0), BuildingBlock: OJICUG_clean_linker_0, # of connection points: 2
#     Edge 86, Type (0, 0), BuildingBlock: OJICUG_clean_linker_0, # of connection points: 2
#     Edge 87, Type (0, 0), BuildingBlock: OJICUG_clean_linker_0, # of connection points: 2
#     Edge 88, Type (0, 0), BuildingBlock: OJICUG_clean_linker_0, # of connection points: 2
#     Edge 89, Type (0, 0), BuildingBlock: OJICUG_clean_linker_0, # of connection points: 2
#     Edge 90, Type (0, 0), BuildingBlock: OJICUG_clean_linker_0, # of connection points: 2
#     Edge 91, Type (0, 0), BuildingBlock: OJICUG_clean_linker_0, # of connection points: 2
#     Edge 92, Type (0, 0), BuildingBlock: OJICUG_clean_linker_0, # of connection points: 2
#     Edge 93, Type (0, 0), BuildingBlock: OJICUG_clean_linker_0, # of connection points: 2
#     Edge 94, Type (0, 0), BuildingBlock: OJICUG_clean_linker_0, # of connection points: 2
#     Edge 95, Type (0, 0), BuildingBlock: OJICUG_clean_linker_0, # of connection points: 2
#     Edge 96, Type (0, 0), BuildingBlock: OJICUG_clean_linker_0, # of connection points: 2
#     Edge 97, Type (0, 0), BuildingBlock: OJICUG_clean_linker_0, # of connection points: 2
#     Edge 98, Type (0, 0), BuildingBlock: OJICUG_clean_linker_0, # of connection points: 2
#     Edge 99, Type (0, 0), BuildingBlock: OJICUG_clean_linker_0, # of connection points: 2
#     Edge 100, Type (0, 0), BuildingBlock: OJICUG_clean_linker_0, # of connection points: 2
#     Edge 101, Type (0, 0), BuildingBlock: OJICUG_clean_linker_0, # of connection points: 2
#     Edge 102, Type (0, 0), BuildingBlock: OJICUG_clean_linker_0, # of connection points: 2
#     Edge 103, Type (0, 0), BuildingBlock: OJICUG_clean_linker_0, # of connection points: 2
#     Edge 104, Type (0, 0), BuildingBlock: OJICUG_clean_linker_0, # of connection points: 2
#     Edge 105, Type (0, 0), BuildingBlock: OJICUG_clean_linker_0, # of connection points: 2
#     Edge 106, Type (0, 0), BuildingBlock: OJICUG_clean_linker_0, # of connection points: 2
#     Edge 107, Type (0, 0), BuildingBlock: OJICUG_clean_linker_0, # of connection points: 2
#     Edge 108, Type (0, 0), BuildingBlock: OJICUG_clean_linker_0, # of connection points: 2
#     Edge 109, Type (0, 0), BuildingBlock: OJICUG_clean_linker_0, # of connection points: 2
#     Edge 110, Type (0, 0), BuildingBlock: OJICUG_clean_linker_0, # of connection points: 2
#     Edge 111, Type (0, 0), BuildingBlock: OJICUG_clean_linker_0, # of connection points: 2
#     Edge 112, Type (0, 0), BuildingBlock: OJICUG_clean_linker_0, # of connection points: 2
#     Edge 113, Type (0, 0), BuildingBlock: OJICUG_clean_linker_0, # of connection points: 2
#     Edge 114, Type (0, 0), BuildingBlock: OJICUG_clean_linker_0, # of connection points: 2
#     Edge 115, Type (0, 0), BuildingBlock: OJICUG_clean_linker_0, # of connection points: 2
#     Edge 116, Type (0, 0), BuildingBlock: OJICUG_clean_linker_0, # of connection points: 2
#     Edge 117, Type (0, 0), BuildingBlock: OJICUG_clean_linker_0, # of connection points: 2
#     Edge 118, Type (0, 0), BuildingBlock: OJICUG_clean_linker_0, # of connection points: 2
#     Edge 119, Type (0, 0), BuildingBlock: OJICUG_clean_linker_0, # of connection points: 2
#     Edge 120, Type (0, 0), BuildingBlock: OJICUG_clean_linker_0, # of connection points: 2
#     Edge 121, Type (0, 0), BuildingBlock: OJICUG_clean_linker_0, # of connection points: 2
#     Edge 122, Type (0, 0), BuildingBlock: OJICUG_clean_linker_0, # of connection points: 2
#     Edge 123, Type (0, 0), BuildingBlock: OJICUG_clean_linker_0, # of connection points: 2
#     Edge 124, Type (0, 0), BuildingBlock: OJICUG_clean_linker_0, # of connection points: 2
#     Edge 125, Type (0, 0), BuildingBlock: OJICUG_clean_linker_0, # of connection points: 2
#     Edge 126, Type (0, 0), BuildingBlock: OJICUG_clean_linker_0, # of connection points: 2
#     Edge 127, Type (0, 0), BuildingBlock: OJICUG_clean_linker_0, # of connection points: 2
#     Edge 128, Type (0, 0), BuildingBlock: OJICUG_clean_linker_0, # of connection points: 2
#     Edge 129, Type (0, 0), BuildingBlock: OJICUG_clean_linker_0, # of connection points: 2
#     Edge 130, Type (0, 0), BuildingBlock: OJICUG_clean_linker_0, # of connection points: 2
#     Edge 131, Type (0, 0), BuildingBlock: OJICUG_clean_linker_0, # of connection points: 2
#     Edge 132, Type (0, 0), BuildingBlock: OJICUG_clean_linker_0, # of connection points: 2
#     Edge 133, Type (0, 0), BuildingBlock: OJICUG_clean_linker_0, # of connection points: 2
#     Edge 134, Type (0, 0), BuildingBlock: OJICUG_clean_linker_0, # of connection points: 2
#     Edge 135, Type (0, 0), BuildingBlock: OJICUG_clean_linker_0, # of connection points: 2
#     Edge 136, Type (0, 0), BuildingBlock: OJICUG_clean_linker_0, # of connection points: 2
#     Edge 137, Type (0, 0), BuildingBlock: OJICUG_clean_linker_0, # of connection points: 2
#     Edge 138, Type (0, 0), BuildingBlock: OJICUG_clean_linker_0, # of connection points: 2
#     Edge 139, Type (0, 0), BuildingBlock: OJICUG_clean_linker_0, # of connection points: 2
#     Edge 140, Type (0, 0), BuildingBlock: OJICUG_clean_linker_0, # of connection points: 2
#     Edge 141, Type (0, 0), BuildingBlock: OJICUG_clean_linker_0, # of connection points: 2
#     Edge 142, Type (0, 0), BuildingBlock: OJICUG_clean_linker_0, # of connection points: 2
#     Edge 143, Type (0, 0), BuildingBlock: OJICUG_clean_linker_0, # of connection points: 2
#     Edge 144, Type (0, 0), BuildingBlock: OJICUG_clean_linker_0, # of connection points: 2
#     Edge 145, Type (0, 0), BuildingBlock: OJICUG_clean_linker_0, # of connection points: 2
#     Edge 146, Type (0, 0), BuildingBlock: OJICUG_clean_linker_0, # of connection points: 2
#     Edge 147, Type (0, 0), BuildingBlock: OJICUG_clean_linker_0, # of connection points: 2
#     Edge 148, Type (0, 0), BuildingBlock: OJICUG_clean_linker_0, # of connection points: 2
#     Edge 149, Type (0, 0), BuildingBlock: OJICUG_clean_linker_0, # of connection points: 2
#     Edge 150, Type (0, 0), BuildingBlock: OJICUG_clean_linker_0, # of connection points: 2
#     Edge 151, Type (0, 0), BuildingBlock: OJICUG_clean_linker_0, # of connection points: 2
#     Edge 152, Type (0, 0), BuildingBlock: OJICUG_clean_linker_0, # of connection points: 2
#     Edge 153, Type (0, 0), BuildingBlock: OJICUG_clean_linker_0, # of connection points: 2
#     Edge 154, Type (0, 0), BuildingBlock: OJICUG_clean_linker_0, # of connection points: 2
#     Edge 155, Type (0, 0), BuildingBlock: OJICUG_clean_linker_0, # of connection points: 2
#     Edge 156, Type (0, 0), BuildingBlock: OJICUG_clean_linker_0, # of connection points: 2
#     Edge 157, Type (0, 0), BuildingBlock: OJICUG_clean_linker_0, # of connection points: 2
#     Edge 158, Type (0, 0), BuildingBlock: OJICUG_clean_linker_0, # of connection points: 2
#     Edge 159, Type (0, 0), BuildingBlock: OJICUG_clean_linker_0, # of connection points: 2
#     Edge 160, Type (0, 0), BuildingBlock: OJICUG_clean_linker_0, # of connection points: 2
#     Edge 161, Type (0, 0), BuildingBlock: OJICUG_clean_linker_0, # of connection points: 2
#     Edge 162, Type (0, 0), BuildingBlock: OJICUG_clean_linker_0, # of connection points: 2
#     Edge 163, Type (0, 0), BuildingBlock: OJICUG_clean_linker_0, # of connection points: 2
#     Edge 164, Type (0, 0), BuildingBlock: OJICUG_clean_linker_0, # of connection points: 2
#     Edge 165, Type (0, 0), BuildingBlock: OJICUG_clean_linker_0, # of connection points: 2
#     Edge 166, Type (0, 0), BuildingBlock: OJICUG_clean_linker_0, # of connection points: 2
#     Edge 167, Type (0, 0), BuildingBlock: OJICUG_clean_linker_0, # of connection points: 2
# Relax obj value: 0.149
# Max RMSD: 0.154
# Mean RMSD: 0.112
data_MOF--net-nbo-h--node1-BEQFEK_clean_sbu_0--edge1-OJICUG_clean_linker_0
_symmetry_space_group_name_H-M    P1
_symmetry_Int_Tables_number       1
_symmetry_cell_setting            triclinic
loop_
_symmetry_equiv_pos_as_xyz
'x, y, z'
_cell_length_a     53.719138
_cell_length_b     48.459556
_cell_length_c     56.606519
_cell_angle_alpha  91.739329
_cell_angle_beta   91.754204
_cell_angle_gamma 94.917418
loop_
_atom_site_label
_atom_site_type_symbol
_atom_site_fract_x
_atom_site_fract_y
_atom_site_fract_z
_atom_type_partial_charge
Co0 Co 0.18962 0.1387 0.41647 0.0
Co1 Co 0.12981 0.13297 0.41643 0.0
C2 C 0.15802 0.0847 0.40671 0.0
O3 O 0.17917 0.09904 0.40873 0.0
O4 O 0.13714 0.09501 0.40957 0.0
C5 C 0.24261 0.13894 0.42618 0.0
O6 O 0.23587 0.11963 0.44107 0.0
C7 C 0.07284 0.12661 0.41048 0.0
C8 C 0.06561 0.16817 0.4243 0.0
C9 C 0.05357 0.14367 0.41495 0.0
N10 N 0.09497 0.14078 0.41673 0.0
N11 N 0.09027 0.16549 0.42505 0.0
C12 C 0.07046 0.09712 0.40155 0.0
H13 H 0.08734 0.08676 0.40667 0.0
H14 H 0.06861 0.09661 0.38196 0.0
H15 H 0.05363 0.08574 0.40862 0.0
C16 C 0.17874 0.17867 0.38021 0.0
N17 N 0.17146 0.15941 0.39574 0.0
N18 N 0.14704 0.15473 0.39418 0.0
C19 C 0.13826 0.16954 0.37667 0.0
C20 C 0.15774 0.18693 0.36822 0.0
C21 C 0.20493 0.19179 0.37925 0.0
H22 H 0.21152 0.19956 0.39721 0.0
H23 H 0.21735 0.17593 0.37344 0.0
H24 H 0.20618 0.20907 0.36678 0.0
O25 O 0.18306 0.1463 0.44999 0.0
O26 O 0.14173 0.1418 0.4493 0.0
H27 H 0.10264 0.18548 0.3811 0.0
H28 H 0.10831 0.1744 0.35123 0.0
C29 C 0.11103 0.16959 0.3701 0.0
H30 H 0.10126 0.14894 0.37283 0.0
H31 H 0.10409 0.18071 0.43121 0.0
O32 O 0.22603 0.14871 0.41313 0.0
C33 C 0.16256 0.14628 0.46057 0.0
Co34 Co 0.89383 0.14013 0.41236 0.0
Co35 Co 0.83492 0.13625 0.41049 0.0
C36 C 0.86237 0.08615 0.39593 0.0
O37 O 0.88307 0.10062 0.40061 0.0
O38 O 0.84176 0.09757 0.39703 0.0
C39 C 0.94523 0.13004 0.40058 0.0
O40 O 0.93456 0.10952 0.38714 0.0
C41 C 0.78285 0.14031 0.3908 0.0
C42 C 0.76432 0.15169 0.42353 0.0
C43 C 0.76014 0.14781 0.39932 0.0
N44 N 0.79951 0.14039 0.40917 0.0
N45 N 0.78809 0.14688 0.42865 0.0
C46 C 0.78944 0.13553 0.36562 0.0
H47 H 0.81003 0.13811 0.36385 0.0
H48 H 0.78033 0.15006 0.35404 0.0
H49 H 0.78267 0.11404 0.35986 0.0
C50 C 0.88663 0.19714 0.39469 0.0
N51 N 0.87762 0.1706 0.39846 0.0
N52 N 0.85302 0.16934 0.39829 0.0
C53 C 0.84582 0.19522 0.39479 0.0
C54 C 0.86679 0.21399 0.39228 0.0
C55 C 0.91377 0.20693 0.39714 0.0
H56 H 0.92024 0.20497 0.41577 0.0
H57 H 0.92467 0.19348 0.38595 0.0
H58 H 0.9173 0.22882 0.39206 0.0
O59 O 0.88563 0.14022 0.44622 0.0
O60 O 0.84407 0.13573 0.44498 0.0
H61 H 0.81195 0.19682 0.4135 0.0
H62 H 0.81794 0.22506 0.39373 0.0
C63 C 0.81942 0.20263 0.39613 0.0
H64 H 0.80786 0.19094 0.38204 0.0
H65 H 0.79675 0.14887 0.44543 0.0
O66 O 0.9315 0.14591 0.41172 0.0
C67 C 0.86488 0.13772 0.45665 0.0
Co68 Co 0.89224 0.89051 0.40918 0.0
Co69 Co 0.83402 0.88419 0.41105 0.0
C70 C 0.86306 0.83631 0.39291 0.0
O71 O 0.8838 0.85127 0.39534 0.0
O72 O 0.84269 0.8469 0.39739 0.0
C73 C 0.94417 0.88077 0.40856 0.0
O74 O 0.93493 0.85487 0.4097 0.0
C75 C 0.78147 0.88155 0.39235 0.0
C76 C 0.76132 0.87357 0.42524 0.0
C77 C 0.75773 0.87579 0.40108 0.0
N78 N 0.79826 0.88247 0.4106 0.0
N79 N 0.78599 0.87789 0.43018 0.0
C80 C 0.78832 0.88384 0.36706 0.0
H81 H 0.80842 0.88086 0.36505 0.0
H82 H 0.78484 0.90479 0.36105 0.0
H83 H 0.77652 0.86838 0.35581 0.0
C84 C 0.88185 0.94668 0.39183 0.0
N85 N 0.87383 0.9201 0.39636 0.0
N86 N 0.8494 0.91825 0.39829 0.0
C87 C 0.84132 0.94393 0.396 0.0
C88 C 0.8616 0.96335 0.39172 0.0
C89 C 0.90879 0.95594 0.38864 0.0
H90 H 0.91825 0.96013 0.40624 0.0
H91 H 0.91808 0.93928 0.37947 0.0
H92 H 0.91081 0.97493 0.37815 0.0
O93 O 0.88593 0.88897 0.4439 0.0
O94 O 0.8445 0.88461 0.44471 0.0
H95 H 0.8075 0.93579 0.41492 0.0
H96 H 0.81566 0.97189 0.40991 0.0
C97 C 0.81554 0.9506 0.40211 0.0
H98 H 0.80343 0.94899 0.38581 0.0
H99 H 0.79452 0.8768 0.44689 0.0
O100 O 0.92921 0.89974 0.40742 0.0
C101 C 0.86581 0.88651 0.45537 0.0
Co102 Co 0.18525 0.89878 0.4308 0.0
Co103 Co 0.12613 0.89927 0.43164 0.0
C104 C 0.14951 0.85179 0.41148 0.0
O105 O 0.17159 0.86273 0.41622 0.0
O106 O 0.13019 0.86374 0.41681 0.0
C107 C 0.23261 0.89166 0.40996 0.0
O108 O 0.21861 0.87809 0.39326 0.0
C109 C 0.07146 0.89481 0.41958 0.0
C110 C 0.05877 0.92603 0.44469 0.0
C111 C 0.05025 0.9068 0.42704 0.0
N112 N 0.09146 0.90645 0.4323 0.0
N113 N 0.08365 0.92502 0.44731 0.0
C114 C 0.07305 0.87383 0.39988 0.0
H115 H 0.09112 0.87753 0.39102 0.0
H116 H 0.0574 0.87464 0.38673 0.0
H117 H 0.07217 0.85284 0.4073 0.0
C118 C 0.17851 0.95278 0.40933 0.0
N119 N 0.16948 0.92795 0.41687 0.0
N120 N 0.14492 0.92611 0.41492 0.0
C121 C 0.13764 0.9486 0.40444 0.0
C122 C 0.15849 0.9669 0.40147 0.0
C123 C 0.20518 0.96418 0.41322 0.0
H124 H 0.21392 0.95414 0.42832 0.0
H125 H 0.21563 0.95983 0.39711 0.0
H126 H 0.20666 0.98691 0.41674 0.0
O127 O 0.17938 0.89887 0.46468 0.0
O128 O 0.13813 0.89947 0.46525 0.0
H129 H 0.10139 0.95933 0.41432 0.0
H130 H 0.10993 0.96947 0.38508 0.0
C131 C 0.11099 0.95304 0.39824 0.0
H132 H 0.10116 0.93347 0.39087 0.0
H133 H 0.09538 0.93707 0.45935 0.0
O134 O 0.22217 0.90268 0.42729 0.0
C135 C 0.15932 0.89919 0.47596 0.0
Co136 Co 0.19338 0.89877 0.62285 0.0
Co137 Co 0.13459 0.90257 0.62235 0.0
C138 C 0.16872 0.94926 0.64025 0.0
O139 O 0.18748 0.93608 0.63504 0.0
O140 O 0.14622 0.93877 0.63693 0.0
C141 C 0.24225 0.89703 0.64551 0.0
O142 O 0.23135 0.90545 0.66457 0.0
C143 C 0.0785 0.90539 0.6265 0.0
C144 C 0.06637 0.87237 0.59979 0.0
C145 C 0.05727 0.89138 0.61532 0.0
N146 N 0.09896 0.89478 0.61789 0.0
N147 N 0.09138 0.87515 0.60194 0.0
C148 C 0.07951 0.92927 0.64395 0.0
H149 H 0.09794 0.94146 0.64383 0.0
H150 H 0.07687 0.92122 0.66192 0.0
H151 H 0.0644 0.94283 0.63992 0.0
C152 C 0.17799 0.84753 0.64689 0.0
N153 N 0.17302 0.87214 0.63847 0.0
N154 N 0.14886 0.87454 0.63938 0.0
C155 C 0.13786 0.85195 0.64918 0.0
C156 C 0.15571 0.83337 0.65319 0.0
C157 C 0.20296 0.83611 0.64553 0.0
H158 H 0.21024 0.8387 0.62752 0.0
H159 H 0.21624 0.84789 0.65826 0.0
H160 H 0.20201 0.81394 0.6501 0.0
O161 O 0.18568 0.89667 0.58873 0.0
O162 O 0.14523 0.90196 0.58929 0.0
H163 H 0.10221 0.83639 0.63406 0.0
H164 H 0.10537 0.83217 0.66541 0.0
C165 C 0.11013 0.84627 0.65089 0.0
H166 H 0.10149 0.86581 0.65451 0.0
H167 H 0.10343 0.86363 0.59236 0.0
O168 O 0.22941 0.89279 0.62635 0.0
C169 C 0.16494 0.89911 0.57798 0.0
Co170 Co 0.19042 0.14024 0.60882 0.0
Co171 Co 0.13175 0.12292 0.6035 0.0
C172 C 0.15378 0.17387 0.63048 0.0
O173 O 0.17646 0.17102 0.62583 0.0
O174 O 0.1359 0.15686 0.62267 0.0
C175 C 0.23949 0.15418 0.63069 0.0
O176 O 0.22703 0.16089 0.64931 0.0
C177 C 0.07752 0.11877 0.61367 0.0
C178 C 0.06207 0.0907 0.58436 0.0
C179 C 0.05514 0.10693 0.60321 0.0
N180 N 0.09669 0.10972 0.60158 0.0
N181 N 0.08721 0.09285 0.58417 0.0
C182 C 0.08075 0.14145 0.63233 0.0
H183 H 0.08744 0.16103 0.62402 0.0
H184 H 0.09516 0.13651 0.64564 0.0
H185 H 0.06315 0.14482 0.6412 0.0
C186 C 0.18745 0.08615 0.63238 0.0
N187 N 0.1767 0.10602 0.62068 0.0
N188 N 0.15269 0.09832 0.61724 0.0
C189 C 0.1475 0.07317 0.62606 0.0
C190 C 0.16936 0.06466 0.63617 0.0
C191 C 0.21441 0.08818 0.64031 0.0
H192 H 0.22636 0.09016 0.62472 0.0
H193 H 0.21848 0.10697 0.65185 0.0
H194 H 0.21909 0.07006 0.65055 0.0
O195 O 0.18247 0.14265 0.57447 0.0
O196 O 0.14159 0.13118 0.57118 0.0
H197 H 0.11633 0.058 0.60363 0.0
H198 H 0.12311 0.03474 0.62638 0.0
C199 C 0.12261 0.05687 0.62235 0.0
H200 H 0.10872 0.06623 0.63351 0.0
H201 H 0.09788 0.08384 0.57143 0.0
O202 O 0.22767 0.14461 0.61203 0.0
C203 C 0.16226 0.13888 0.56201 0.0
Co204 Co 0.90026 0.13284 0.60233 0.0
Co205 Co 0.84194 0.1307 0.606 0.0
C206 C 0.87422 0.18367 0.61913 0.0
O207 O 0.89387 0.17178 0.61419 0.0
O208 O 0.85295 0.16975 0.61837 0.0
C209 C 0.9521 0.12749 0.61969 0.0
O210 O 0.94331 0.12758 0.6411 0.0
C211 C 0.7919 0.13676 0.62562 0.0
C212 C 0.76737 0.11425 0.59813 0.0
C213 C 0.76694 0.13019 0.61883 0.0
N214 N 0.80632 0.12529 0.60954 0.0
N215 N 0.79145 0.1116 0.59335 0.0
C216 C 0.80196 0.15607 0.6454 0.0
H217 H 0.82042 0.15015 0.65185 0.0
H218 H 0.78886 0.15611 0.66016 0.0
H219 H 0.80452 0.1774 0.63874 0.0
C220 C 0.89026 0.07456 0.6184 0.0
N221 N 0.88316 0.10063 0.6162 0.0
N222 N 0.8589 0.10014 0.619 0.0
C223 C 0.8501 0.07393 0.62409 0.0
C224 C 0.86962 0.0563 0.62374 0.0
C225 C 0.91506 0.06632 0.61061 0.0
H226 H 0.92195 0.07958 0.59619 0.0
H227 H 0.92874 0.06899 0.62577 0.0
H228 H 0.91384 0.04445 0.60404 0.0
O229 O 0.88907 0.13177 0.56911 0.0
O230 O 0.84768 0.13084 0.57081 0.0
H231 H 0.81307 0.06163 0.61071 0.0
H232 H 0.82085 0.04689 0.63869 0.0
C233 C 0.8231 0.06574 0.62805 0.0
H234 H 0.81462 0.08287 0.6374 0.0
H235 H 0.79776 0.10133 0.57852 0.0
O236 O 0.93725 0.1298 0.60203 0.0
C237 C 0.86758 0.13138 0.55891 0.0
Co238 Co 0.89882 0.88607 0.60359 0.0
Co239 Co 0.84061 0.87879 0.6026 0.0
C240 C 0.86876 0.93395 0.61906 0.0
O241 O 0.88974 0.92359 0.61712 0.0
O242 O 0.84844 0.91869 0.61478 0.0
C243 C 0.95023 0.89564 0.6232 0.0
O244 O 0.94037 0.90575 0.6422 0.0
C245 C 0.79004 0.87554 0.62171 0.0
C246 C 0.76803 0.85119 0.59347 0.0
C247 C 0.76603 0.86396 0.61552 0.0
N248 N 0.80534 0.86973 0.60419 0.0
N249 N 0.79203 0.85529 0.58732 0.0
C250 C 0.79892 0.89013 0.64446 0.0
H251 H 0.81902 0.88747 0.64794 0.0
H252 H 0.78777 0.88214 0.65937 0.0
H253 H 0.79682 0.91261 0.64307 0.0
C254 C 0.8914 0.8266 0.61846 0.0
N255 N 0.8829 0.85202 0.61582 0.0
N256 N 0.85835 0.8495 0.61639 0.0
C257 C 0.85061 0.82255 0.61996 0.0
C258 C 0.87119 0.8066 0.6211 0.0
C259 C 0.91794 0.82102 0.6144 0.0
H260 H 0.92485 0.83251 0.59892 0.0
H261 H 0.92971 0.82873 0.63007 0.0
H262 H 0.91995 0.79864 0.61128 0.0
O263 O 0.89001 0.88559 0.56915 0.0
O264 O 0.84849 0.87931 0.5685 0.0
H265 H 0.8154 0.80941 0.60287 0.0
H266 H 0.82169 0.79156 0.62967 0.0
C267 C 0.82373 0.81185 0.62106 0.0
H268 H 0.81339 0.82677 0.63125 0.0
H269 H 0.79938 0.84797 0.57173 0.0
O270 O 0.93597 0.88614 0.60592 0.0
C271 C 0.86904 0.88255 0.55776 0.0
Co272 Co 0.38035 0.10777 0.09341 0.0
Co273 Co 0.39809 0.11389 0.14415 0.0
C274 C 0.3782 0.05719 0.12469 0.0
O275 O 0.37319 0.06844 0.10527 0.0
O276 O 0.38773 0.07236 0.14198 0.0
C277 C 0.33736 0.10688 0.06318 0.0
O278 O 0.32556 0.1108 0.08282 0.0
C279 C 0.39533 0.11899 0.19427 0.0
C280 C 0.43013 0.14518 0.20417 0.0
C281 C 0.40799 0.13352 0.21289 0.0
N282 N 0.40888 0.12283 0.17509 0.0
N283 N 0.42991 0.13794 0.18106 0.0
C284 C 0.37047 0.10238 0.19426 0.0
H285 H 0.3704 0.08408 0.18205 0.0
H286 H 0.35563 0.11517 0.18788 0.0
H287 H 0.36607 0.09536 0.21226 0.0
C288 C 0.36643 0.16572 0.10422 0.0
N289 N 0.37084 0.13993 0.11131 0.0
N290 N 0.37588 0.14111 0.13416 0.0
C291 C 0.37388 0.16752 0.1424 0.0
C292 C 0.36801 0.18441 0.1237 0.0
C293 C 0.36644 0.17384 0.07893 0.0
H294 H 0.37338 0.1575 0.0674 0.0
H295 H 0.34717 0.1775 0.07313 0.0
H296 H 0.37836 0.19348 0.07704 0.0
O297 O 0.41702 0.11537 0.08788 0.0
O298 O 0.42798 0.12153 0.126 0.0
H299 H 0.39961 0.18011 0.17105 0.0
H300 H 0.37093 0.19698 0.17142 0.0
C301 C 0.37913 0.17716 0.16755 0.0
H302 H 0.37091 0.16156 0.17954 0.0
H303 H 0.44349 0.14447 0.16917 0.0
O304 O 0.36093 0.10576 0.06381 0.0
C305 C 0.43346 0.1218 0.10435 0.0
Co306 Co 0.89186 0.41178 0.18044 0.0
Co307 Co 0.89505 0.40391 0.1273 0.0
C308 C 0.84657 0.39486 0.14693 0.0
O309 O 0.85788 0.40176 0.16656 0.0
O310 O 0.85872 0.39288 0.12808 0.0
C311 C 0.88373 0.38207 0.22027 0.0
O312 O 0.88507 0.36092 0.20545 0.0
C313 C 0.89969 0.39334 0.07589 0.0
C314 C 0.93861 0.41155 0.07244 0.0
C315 C 0.91838 0.39833 0.05975 0.0
N316 N 0.90884 0.4027 0.09724 0.0
N317 N 0.93201 0.4136 0.09502 0.0
C318 C 0.87298 0.38276 0.0709 0.0
H319 H 0.87126 0.35982 0.0716 0.0
H320 H 0.86648 0.38871 0.05313 0.0
H321 H 0.86077 0.39112 0.08427 0.0
C322 C 0.93914 0.38461 0.17805 0.0
N323 N 0.91668 0.3903 0.16912 0.0
N324 N 0.91465 0.38237 0.14681 0.0
C325 C 0.93496 0.36945 0.14116 0.0
C326 C 0.95189 0.37147 0.16043 0.0
C327 C 0.94981 0.39632 0.20134 0.0
H328 H 0.93733 0.41088 0.2093 0.0
H329 H 0.95201 0.37914 0.21354 0.0
H330 H 0.96853 0.40731 0.19907 0.0
O331 O 0.90068 0.45035 0.17524 0.0
O332 O 0.90028 0.44451 0.13631 0.0
H333 H 0.94857 0.36681 0.10571 0.0
H334 H 0.94752 0.33519 0.12117 0.0
C335 C 0.93755 0.35398 0.11813 0.0
H336 H 0.91884 0.34796 0.10975 0.0
H337 H 0.94327 0.42267 0.109 0.0
O338 O 0.8877 0.40662 0.21346 0.0
C339 C 0.90254 0.46026 0.15485 0.0
Co340 Co 0.58799 0.9056 0.11051 0.0
Co341 Co 0.58362 0.84444 0.11496 0.0
C342 C 0.59698 0.88171 0.15843 0.0
O343 O 0.59707 0.90237 0.14518 0.0
O344 O 0.59256 0.85759 0.14908 0.0
C345 C 0.62563 0.94631 0.10759 0.0
O346 O 0.63881 0.92576 0.11325 0.0
C347 C 0.608 0.79762 0.12468 0.0
C348 C 0.57753 0.76441 0.12768 0.0
C349 C 0.60305 0.77078 0.13162 0.0
N350 N 0.58646 0.80684 0.11721 0.0
N351 N 0.5682 0.78703 0.11888 0.0
C352 C 0.63206 0.81566 0.12777 0.0
H353 H 0.62869 0.8379 0.12787 0.0
H354 H 0.64408 0.81177 0.11265 0.0
H355 H 0.6422 0.81091 0.14434 0.0
C356 C 0.60546 0.89095 0.06315 0.0
N357 N 0.6022 0.88461 0.08606 0.0
N358 N 0.60214 0.8578 0.08815 0.0
C359 C 0.60624 0.84622 0.06652 0.0
C360 C 0.60885 0.86702 0.04972 0.0
C361 C 0.5985 0.91754 0.05296 0.0
H362 H 0.58747 0.9292 0.06538 0.0
H363 H 0.61572 0.9303 0.04868 0.0
H364 H 0.58724 0.91339 0.03627 0.0
O365 O 0.55102 0.89821 0.10592 0.0
O366 O 0.54867 0.85212 0.10832 0.0
H367 H 0.58444 0.8076 0.06036 0.0
H368 H 0.61327 0.81071 0.04453 0.0
C369 C 0.60443 0.81565 0.06142 0.0
H370 H 0.61373 0.80516 0.07592 0.0
H371 H 0.54936 0.7895 0.11546 0.0
O372 O 0.60187 0.94285 0.1057 0.0
C373 C 0.53832 0.87455 0.10507 0.0
Co374 Co 0.12312 0.63488 0.18412 0.0
Co375 Co 0.1189 0.62985 0.12552 0.0
C376 C 0.16697 0.64852 0.15168 0.0
O377 O 0.15815 0.64614 0.17244 0.0
O378 O 0.15338 0.64351 0.13294 0.0
C379 C 0.13232 0.65722 0.23569 0.0
O380 O 0.15007 0.67444 0.22765 0.0
C381 C 0.1229 0.63901 0.07189 0.0
C382 C 0.0915 0.61019 0.05818 0.0
C383 C 0.11055 0.62868 0.05066 0.0
N384 N 0.11155 0.62707 0.09064 0.0
N385 N 0.09288 0.60979 0.08199 0.0
C386 C 0.14454 0.66054 0.07445 0.0
H387 H 0.14462 0.67134 0.09202 0.0
H388 H 0.14371 0.67579 0.06027 0.0
H389 H 0.16219 0.65033 0.07309 0.0
C390 C 0.07514 0.65903 0.17321 0.0
N391 N 0.09737 0.65136 0.16608 0.0
N392 N 0.09755 0.65189 0.14275 0.0
C393 C 0.07647 0.66187 0.13465 0.0
C394 C 0.0609 0.66572 0.15344 0.0
C395 C 0.06621 0.65474 0.19775 0.0
H396 H 0.07415 0.63638 0.20522 0.0
H397 H 0.0728 0.67315 0.2091 0.0
H398 H 0.04555 0.65166 0.19816 0.0
O399 O 0.1178 0.59457 0.17719 0.0
O400 O 0.11474 0.59132 0.13776 0.0
H401 H 0.06394 0.64649 0.10003 0.0
H402 H 0.05646 0.6813 0.10695 0.0
C403 C 0.07089 0.66638 0.10904 0.0
H404 H 0.08821 0.67437 0.10041 0.0
H405 H 0.08099 0.59752 0.09243 0.0
O406 O 0.11977 0.64044 0.2209 0.0
C407 C 0.11481 0.58011 0.15794 0.0
Co408 Co 0.38851 0.89225 0.86836 0.0
Co409 Co 0.39036 0.89997 0.92082 0.0
C410 C 0.37555 0.84235 0.8957 0.0
O411 O 0.3738 0.85373 0.87585 0.0
O412 O 0.3819 0.85767 0.91403 0.0
C413 C 0.37277 0.87819 0.82151 0.0
O414 O 0.35486 0.86271 0.83123 0.0
C415 C 0.35759 0.89746 0.9587 0.0
C416 C 0.37898 0.91843 0.98889 0.0
C417 C 0.35584 0.90507 0.98215 0.0
N418 N 0.38044 0.90605 0.95173 0.0
N419 N 0.39322 0.91894 0.96971 0.0
C420 C 0.33815 0.88124 0.94321 0.0
H421 H 0.33962 0.8879 0.92467 0.0
H422 H 0.31913 0.88384 0.9496 0.0
H423 H 0.34137 0.85894 0.94352 0.0
C424 C 0.36905 0.94913 0.87016 0.0
N425 N 0.37376 0.9247 0.87989 0.0
N426 N 0.37592 0.9284 0.90285 0.0
C427 C 0.37329 0.95541 0.90855 0.0
C428 C 0.36855 0.96997 0.88802 0.0
C429 C 0.36709 0.95283 0.84406 0.0
H430 H 0.35771 0.93383 0.8352 0.0
H431 H 0.35643 0.97079 0.83989 0.0
H432 H 0.38616 0.95627 0.83709 0.0
O433 O 0.42444 0.8951 0.87925 0.0
O434 O 0.4267 0.90561 0.91786 0.0
H435 H 0.38419 0.99088 0.93229 0.0
H436 H 0.36552 0.96251 0.94494 0.0
C437 C 0.38058 0.96805 0.9325 0.0
H438 H 0.3979 0.95953 0.93904 0.0
H439 H 0.41168 0.92742 0.96905 0.0
O440 O 0.38871 0.89296 0.83444 0.0
C441 C 0.43722 0.90098 0.89843 0.0
Co442 Co 0.09286 0.4065 0.89947 0.0
Co443 Co 0.09524 0.4051 0.84098 0.0
C444 C 0.04755 0.39002 0.86723 0.0
O445 O 0.05852 0.39354 0.88761 0.0
O446 O 0.0593 0.39338 0.84799 0.0
C447 C 0.08081 0.39785 0.95166 0.0
O448 O 0.05791 0.38958 0.94423 0.0
C449 C 0.09531 0.38995 0.78673 0.0
C450 C 0.12214 0.42405 0.77652 0.0
C451 C 0.1073 0.40141 0.7669 0.0
N452 N 0.103 0.40526 0.80662 0.0
N453 N 0.11905 0.42552 0.79998 0.0
C454 C 0.07605 0.36582 0.78669 0.0
H455 H 0.06635 0.36521 0.80373 0.0
H456 H 0.08534 0.34639 0.78428 0.0
H457 H 0.06228 0.36707 0.77183 0.0
C458 C 0.13825 0.37894 0.89302 0.0
N459 N 0.11693 0.38675 0.88332 0.0
N460 N 0.11866 0.38662 0.86005 0.0
C461 C 0.14154 0.37919 0.85459 0.0
C462 C 0.15491 0.37459 0.8753 0.0
C463 C 0.14435 0.38081 0.91904 0.0
H464 H 0.14568 0.40285 0.92524 0.0
H465 H 0.12915 0.36938 0.92854 0.0
H466 H 0.16227 0.37193 0.92329 0.0
O467 O 0.09843 0.44628 0.89095 0.0
O468 O 0.09971 0.44455 0.85158 0.0
H469 H 0.15625 0.40423 0.82704 0.0
H470 H 0.16999 0.37174 0.82959 0.0
C471 C 0.15231 0.38194 0.83064 0.0
H472 H 0.1387 0.37245 0.81701 0.0
H473 H 0.12788 0.44072 0.81158 0.0
O474 O 0.09703 0.40502 0.9363 0.0
C475 C 0.10064 0.45827 0.87122 0.0
Co476 Co 0.58895 0.19393 0.89943 0.0
Co477 Co 0.58942 0.13253 0.90213 0.0
C478 C 0.60554 0.16777 0.94532 0.0
O479 O 0.60047 0.18889 0.9338 0.0
O480 O 0.60407 0.14414 0.93475 0.0
C481 C 0.61916 0.24011 0.89448 0.0
O482 O 0.63523 0.22148 0.89768 0.0
C483 C 0.613 0.08274 0.90649 0.0
C484 C 0.58803 0.05218 0.88527 0.0
C485 C 0.61074 0.05597 0.8977 0.0
N486 N 0.59276 0.09479 0.89916 0.0
N487 N 0.57771 0.07649 0.88666 0.0
C488 C 0.6352 0.09749 0.91945 0.0
H489 H 0.63874 0.11876 0.91285 0.0
H490 H 0.65212 0.08612 0.91736 0.0
H491 H 0.63123 0.0991 0.93854 0.0
C492 C 0.60879 0.18311 0.85083 0.0
N493 N 0.6034 0.17543 0.87313 0.0
N494 N 0.60458 0.14866 0.87447 0.0
C495 C 0.61146 0.13852 0.85315 0.0
C496 C 0.61431 0.16 0.83716 0.0
C497 C 0.60482 0.21108 0.84158 0.0
H498 H 0.58929 0.22006 0.85073 0.0
H499 H 0.62214 0.22503 0.84484 0.0
H500 H 0.60042 0.20988 0.82228 0.0
O501 O 0.55291 0.18414 0.89805 0.0
O502 O 0.55274 0.13862 0.90239 0.0
H503 H 0.59604 0.097 0.84555 0.0
H504 H 0.62513 0.10599 0.83138 0.0
C505 C 0.61468 0.10866 0.84777 0.0
H506 H 0.62514 0.1 0.86254 0.0
H507 H 0.56093 0.08089 0.87841 0.0
O508 O 0.59594 0.23283 0.89476 0.0
C509 C 0.54118 0.16047 0.90042 0.0
Co510 Co 0.91526 0.65749 0.92169 0.0
Co511 Co 0.89822 0.65476 0.87009 0.0
C512 C 0.95094 0.66736 0.88109 0.0
O513 O 0.94517 0.6644 0.90252 0.0
O514 O 0.93415 0.66601 0.8647 0.0
C515 C 0.92398 0.69218 0.96401 0.0
O516 O 0.91276 0.71159 0.95331 0.0
C517 C 0.88359 0.65906 0.82054 0.0
C518 C 0.85236 0.62618 0.8172 0.0
C519 C 0.86698 0.64481 0.80431 0.0
N520 N 0.87918 0.64896 0.84186 0.0
N521 N 0.8601 0.62985 0.83992 0.0
C522 C 0.90536 0.67927 0.81563 0.0
H523 H 0.91404 0.68871 0.83225 0.0
H524 H 0.89916 0.69629 0.80489 0.0
H525 H 0.91939 0.66861 0.8056 0.0
C526 C 0.86514 0.6762 0.92469 0.0
N527 N 0.88645 0.6749 0.91286 0.0
N528 N 0.88182 0.67858 0.89036 0.0
C529 C 0.85792 0.68465 0.88753 0.0
C530 C 0.84609 0.68202 0.9089 0.0
C531 C 0.8617 0.66521 0.94895 0.0
H532 H 0.87742 0.65303 0.9542 0.0
H533 H 0.86103 0.6829 0.96175 0.0
H534 H 0.84383 0.65202 0.94977 0.0
O535 O 0.90675 0.61752 0.9207 0.0
O536 O 0.89618 0.61663 0.88261 0.0
H537 H 0.83505 0.66976 0.85723 0.0
H538 H 0.83129 0.70461 0.86655 0.0
C539 C 0.84529 0.68926 0.86421 0.0
H540 H 0.85918 0.69694 0.85131 0.0
H541 H 0.85325 0.61827 0.85393 0.0
O542 O 0.92604 0.66902 0.95352 0.0
C543 C 0.89933 0.60415 0.9018 0.0
Co544 Co 0.10668 0.4074 0.18773 0.0
Co545 Co 0.1025 0.40814 0.12901 0.0
C546 C 0.05959 0.38663 0.15777 0.0
O547 O 0.07183 0.3913 0.17748 0.0
O548 O 0.06945 0.39174 0.13792 0.0
C549 C 0.09504 0.39594 0.23858 0.0
O550 O 0.07237 0.39041 0.22932 0.0
C551 C 0.09443 0.39851 0.07466 0.0
C552 C 0.12301 0.42995 0.06283 0.0
C553 C 0.10466 0.41006 0.0541 0.0
N554 N 0.10633 0.41113 0.09417 0.0
N555 N 0.12326 0.42996 0.08663 0.0
C556 C 0.07436 0.37532 0.07587 0.0
H557 H 0.07534 0.36544 0.09328 0.0
H558 H 0.07614 0.35967 0.06144 0.0
H559 H 0.05586 0.38371 0.0738 0.0
C560 C 0.15366 0.38266 0.17399 0.0
N561 N 0.13107 0.39124 0.16814 0.0
N562 N 0.12822 0.39004 0.14479 0.0
C563 C 0.1483 0.37966 0.13539 0.0
C564 C 0.16527 0.37493 0.15346 0.0
C565 C 0.1646 0.38399 0.19864 0.0
H566 H 0.16663 0.40588 0.20527 0.0
H567 H 0.15159 0.37228 0.21032 0.0
H568 H 0.18308 0.37536 0.19942 0.0
O569 O 0.10831 0.44793 0.18086 0.0
O570 O 0.10512 0.44675 0.14146 0.0
H571 H 0.15927 0.39843 0.10327 0.0
H572 H 0.16668 0.36314 0.10514 0.0
C573 C 0.15252 0.37769 0.10939 0.0
H574 H 0.13476 0.37058 0.09973 0.0
H575 H 0.13507 0.44303 0.09784 0.0
O576 O 0.11269 0.403 0.22454 0.0
C577 C 0.10729 0.46022 0.16121 0.0
Co578 Co 0.1174 0.63271 0.89642 0.0
Co579 Co 0.11693 0.6284 0.83751 0.0
C580 C 0.16313 0.64844 0.86813 0.0
O581 O 0.15128 0.64592 0.88727 0.0
O582 O 0.15259 0.64271 0.8477 0.0
C583 C 0.13021 0.63886 0.94917 0.0
O584 O 0.15353 0.64032 0.94263 0.0
C585 C 0.11522 0.64163 0.78322 0.0
C586 C 0.09878 0.60088 0.76965 0.0
C587 C 0.10775 0.62662 0.76196 0.0
N588 N 0.11083 0.62523 0.80211 0.0
N589 N 0.10084 0.60102 0.79341 0.0
C590 C 0.1273 0.67055 0.78541 0.0
H591 H 0.13674 0.67442 0.80307 0.0
H592 H 0.11272 0.68527 0.78335 0.0
H593 H 0.14092 0.67422 0.77124 0.0
C594 C 0.07283 0.66058 0.8853 0.0
N595 N 0.0937 0.65041 0.87761 0.0
N596 N 0.09228 0.64773 0.85426 0.0
C597 C 0.06974 0.65513 0.84668 0.0
C598 C 0.05647 0.66326 0.86617 0.0
C599 C 0.06776 0.66489 0.91096 0.0
H600 H 0.08458 0.67554 0.9202 0.0
H601 H 0.05166 0.67749 0.91342 0.0
H602 H 0.06377 0.64447 0.91905 0.0
O603 O 0.1131 0.59247 0.88811 0.0
O604 O 0.11327 0.58962 0.8487 0.0
H605 H 0.06019 0.62734 0.81713 0.0
H606 H 0.04018 0.65539 0.81968 0.0
C607 C 0.05963 0.64966 0.8219 0.0
H608 H 0.07175 0.66163 0.80963 0.0
H609 H 0.09555 0.58417 0.80379 0.0
O610 O 0.11277 0.63657 0.93302 0.0
C611 C 0.11195 0.57819 0.86873 0.0
Co612 Co 0.39125 0.14665 0.86373 0.0
Co613 Co 0.38179 0.14635 0.91577 0.0
C614 C 0.3723 0.09263 0.88569 0.0
O615 O 0.37875 0.10589 0.8674 0.0
O616 O 0.37136 0.10591 0.90541 0.0
C617 C 0.37743 0.14643 0.81585 0.0
O618 O 0.35601 0.13476 0.82275 0.0
C619 C 0.34954 0.13911 0.95493 0.0
C620 C 0.36978 0.16442 0.98358 0.0
C621 C 0.34798 0.14765 0.97823 0.0
N622 N 0.37104 0.15052 0.94672 0.0
N623 N 0.38305 0.16586 0.96383 0.0
C624 C 0.33092 0.12025 0.94067 0.0
H625 H 0.33694 0.09893 0.94064 0.0
H626 H 0.33004 0.12697 0.92212 0.0
H627 H 0.31213 0.11997 0.94835 0.0
C628 C 0.37053 0.2022 0.86764 0.0
N629 N 0.37338 0.1765 0.87576 0.0
N630 N 0.36883 0.17638 0.89836 0.0
C631 C 0.36218 0.20186 0.90516 0.0
C632 C 0.36316 0.2194 0.88595 0.0
C633 C 0.37765 0.21117 0.84351 0.0
H634 H 0.39734 0.20708 0.84054 0.0
H635 H 0.36559 0.19891 0.83007 0.0
H636 H 0.3754 0.23346 0.84113 0.0
O637 O 0.42503 0.15192 0.87747 0.0
O638 O 0.41949 0.15076 0.9162 0.0
H639 H 0.37735 0.21239 0.93984 0.0
H640 H 0.35125 0.23135 0.93158 0.0
C641 C 0.35893 0.21085 0.9303 0.0
H642 H 0.34612 0.19538 0.93891 0.0
H643 H 0.40038 0.17696 0.96209 0.0
O644 O 0.39521 0.15242 0.83074 0.0
C645 C 0.43376 0.15286 0.8986 0.0
Co646 Co 0.8896 0.43057 0.92049 0.0
Co647 Co 0.87542 0.43282 0.86828 0.0
C648 C 0.83862 0.40928 0.90159 0.0
O649 O 0.85395 0.4146 0.91901 0.0
O650 O 0.84487 0.41468 0.88073 0.0
C651 C 0.89909 0.40005 0.96042 0.0
O652 O 0.88741 0.37946 0.94775 0.0
C653 C 0.86053 0.41077 0.8223 0.0
C654 C 0.87167 0.44526 0.7992 0.0
C655 C 0.86169 0.41789 0.79896 0.0
N656 N 0.86982 0.43265 0.8357 0.0
N657 N 0.87588 0.45354 0.82195 0.0
C658 C 0.85106 0.38354 0.83197 0.0
H659 H 0.83215 0.38562 0.83871 0.0
H660 H 0.86325 0.37824 0.84705 0.0
H661 H 0.8494 0.36658 0.8183 0.0
C662 C 0.93412 0.40624 0.90098 0.0
N663 N 0.91091 0.41469 0.89853 0.0
N664 N 0.90454 0.41469 0.87597 0.0
C665 C 0.92323 0.40546 0.86327 0.0
C666 C 0.94275 0.39976 0.87867 0.0
C667 C 0.9492 0.40888 0.92378 0.0
H668 H 0.94432 0.42717 0.93434 0.0
H669 H 0.94492 0.39006 0.9341 0.0
H670 H 0.96955 0.41128 0.92077 0.0
O671 O 0.891 0.47103 0.91702 0.0
O672 O 0.87988 0.47212 0.87907 0.0
H673 H 0.92239 0.42355 0.82927 0.0
H674 H 0.93842 0.39205 0.83013 0.0
C675 C 0.92252 0.40273 0.83688 0.0
H676 H 0.90513 0.39036 0.83102 0.0
H677 H 0.88386 0.47292 0.82803 0.0
O678 O 0.9019 0.42399 0.95196 0.0
C679 C 0.88624 0.48453 0.89874 0.0
Co680 Co 0.59701 0.90991 0.90642 0.0
Co681 Co 0.58145 0.84994 0.89759 0.0
C682 C 0.60376 0.87127 0.94579 0.0
O683 O 0.60932 0.89476 0.9371 0.0
O684 O 0.59258 0.8521 0.93259 0.0
C685 C 0.6349 0.95351 0.90966 0.0
O686 O 0.65005 0.93414 0.9057 0.0
C687 C 0.60288 0.80107 0.89184 0.0
C688 C 0.57526 0.77165 0.87242 0.0
C689 C 0.59993 0.77528 0.88082 0.0
N690 N 0.58123 0.81247 0.88987 0.0
N691 N 0.56449 0.79489 0.87854 0.0
C692 C 0.62675 0.81662 0.90113 0.0
H693 H 0.62567 0.83928 0.90053 0.0
H694 H 0.6429 0.81082 0.89087 0.0
H695 H 0.62996 0.81159 0.91991 0.0
C696 C 0.61149 0.90608 0.85499 0.0
N697 N 0.60645 0.89494 0.87632 0.0
N698 N 0.60032 0.86834 0.87301 0.0
C699 C 0.60175 0.86165 0.84962 0.0
C700 C 0.60899 0.88529 0.83718 0.0
C701 C 0.61366 0.93644 0.85066 0.0
H702 H 0.60571 0.94823 0.86522 0.0
H703 H 0.63371 0.94345 0.8491 0.0
H704 H 0.60394 0.94074 0.83374 0.0
O705 O 0.55939 0.90813 0.906 0.0
O706 O 0.54839 0.86369 0.89591 0.0
H707 H 0.57322 0.82871 0.84216 0.0
H708 H 0.59585 0.83304 0.81928 0.0
C709 C 0.59324 0.83381 0.83864 0.0
H710 H 0.60431 0.81798 0.84648 0.0
H711 H 0.54635 0.7993 0.87389 0.0
O712 O 0.61138 0.94762 0.90951 0.0
C713 C 0.54272 0.88826 0.90061 0.0
Co714 Co 0.90814 0.63516 0.17162 0.0
Co715 Co 0.90871 0.62761 0.11844 0.0
C716 C 0.95303 0.65433 0.1486 0.0
O717 O 0.94164 0.65429 0.16789 0.0
O718 O 0.94204 0.64448 0.1296 0.0
C719 C 0.907 0.65711 0.21835 0.0
O720 O 0.92233 0.67763 0.21138 0.0
C721 C 0.91094 0.65469 0.07467 0.0
C722 C 0.91699 0.62035 0.04945 0.0
C723 C 0.9163 0.64882 0.05158 0.0
N724 N 0.90875 0.63074 0.08589 0.0
N725 N 0.91206 0.61018 0.07078 0.0
C726 C 0.91079 0.68266 0.08655 0.0
H727 H 0.91298 0.68128 0.10602 0.0
H728 H 0.89269 0.69114 0.08234 0.0
H729 H 0.92593 0.6971 0.07984 0.0
C730 C 0.85967 0.65673 0.16039 0.0
N731 N 0.88216 0.64952 0.1538 0.0
N732 N 0.88126 0.64392 0.13099 0.0
C733 C 0.85788 0.64615 0.12237 0.0
C734 C 0.84323 0.65417 0.14084 0.0
C735 C 0.85358 0.66421 0.18527 0.0
H736 H 0.86897 0.67838 0.19341 0.0
H737 H 0.83599 0.67463 0.18589 0.0
H738 H 0.85153 0.64517 0.19567 0.0
O739 O 0.90894 0.59454 0.16468 0.0
O740 O 0.9068 0.58869 0.12568 0.0
H741 H 0.86019 0.619 0.09188 0.0
H742 H 0.82892 0.62764 0.09793 0.0
C743 C 0.84888 0.6357 0.09815 0.0
H744 H 0.85105 0.65298 0.08577 0.0
H745 H 0.9123 0.5895 0.07533 0.0
O746 O 0.89963 0.63728 0.20415 0.0
C747 C 0.90791 0.57881 0.14615 0.0
Co748 Co 0.37755 0.85665 0.09568 0.0
Co749 Co 0.39681 0.86021 0.14592 0.0
C750 C 0.37309 0.8056 0.12481 0.0
O751 O 0.3667 0.81765 0.10622 0.0
O752 O 0.3848 0.81982 0.14144 0.0
C753 C 0.33602 0.86106 0.06425 0.0
O754 O 0.32379 0.86565 0.08351 0.0
C755 C 0.38576 0.85902 0.19398 0.0
C756 C 0.42126 0.87395 0.21266 0.0
C757 C 0.39625 0.86586 0.21603 0.0
N758 N 0.4035 0.86341 0.17817 0.0
N759 N 0.42494 0.8716 0.1893 0.0
C760 C 0.35883 0.85055 0.18763 0.0
H761 H 0.35093 0.86679 0.17703 0.0
H762 H 0.34766 0.847 0.2036 0.0
H763 H 0.35739 0.83123 0.1765 0.0
C764 C 0.3678 0.9159 0.1074 0.0
N765 N 0.37086 0.88959 0.114 0.0
N766 N 0.37715 0.89015 0.13657 0.0
C767 C 0.37726 0.91672 0.14523 0.0
C768 C 0.37127 0.93436 0.12703 0.0
C769 C 0.36787 0.92445 0.08222 0.0
H770 H 0.37409 0.90797 0.07039 0.0
H771 H 0.34879 0.92911 0.07672 0.0
H772 H 0.38047 0.9436 0.08039 0.0
O773 O 0.41466 0.8597 0.09132 0.0
O774 O 0.42791 0.86558 0.12911 0.0
H775 H 0.40617 0.92723 0.17158 0.0
H776 H 0.37847 0.94571 0.17515 0.0
C777 C 0.38545 0.92559 0.16999 0.0
H778 H 0.37809 0.91009 0.18238 0.0
H779 H 0.44165 0.87673 0.18092 0.0
O780 O 0.35921 0.85752 0.06565 0.0
C781 C 0.43217 0.86435 0.10712 0.0
Co782 Co 0.58623 0.18225 0.11658 0.0
Co783 Co 0.58698 0.12155 0.10724 0.0
C784 C 0.59898 0.14466 0.157 0.0
O785 O 0.59517 0.16828 0.14923 0.0
O786 O 0.59762 0.12406 0.1424 0.0
C787 C 0.61941 0.22273 0.12883 0.0
O788 O 0.632 0.20077 0.12682 0.0
C789 C 0.61428 0.07523 0.10129 0.0
C790 C 0.58828 0.04441 0.0816 0.0
C791 C 0.61259 0.04927 0.09074 0.0
N792 N 0.59227 0.0857 0.09808 0.0
N793 N 0.57664 0.06732 0.08633 0.0
C794 C 0.63651 0.09023 0.114 0.0
H795 H 0.63686 0.11281 0.11111 0.0
H796 H 0.65411 0.08225 0.10801 0.0
H797 H 0.63508 0.08704 0.13326 0.0
C798 C 0.60786 0.18433 0.06766 0.0
N799 N 0.60319 0.17136 0.08826 0.0
N800 N 0.60339 0.14463 0.08438 0.0
C801 C 0.60756 0.13957 0.06113 0.0
C802 C 0.61087 0.16463 0.04942 0.0
C803 C 0.60658 0.21478 0.06487 0.0
H804 H 0.61573 0.22644 0.08034 0.0
H805 H 0.61589 0.22191 0.04865 0.0
H806 H 0.5867 0.21938 0.06393 0.0
O807 O 0.54961 0.17225 0.11014 0.0
O808 O 0.55117 0.12678 0.10353 0.0
H809 H 0.6023 0.11191 0.0298 0.0
H810 H 0.61572 0.09742 0.05567 0.0
C811 C 0.60198 0.11154 0.0493 0.0
H812 H 0.58298 0.10319 0.05387 0.0
H813 H 0.55825 0.0705 0.08147 0.0
O814 O 0.59625 0.2211 0.12301 0.0
C815 C 0.53888 0.14814 0.10472 0.0
Co816 Co 0.69135 0.64062 0.92924 0.0
Co817 Co 0.63218 0.62904 0.92497 0.0
C818 C 0.66355 0.58502 0.91368 0.0
O819 O 0.68308 0.60103 0.91959 0.0
O820 O 0.64135 0.59262 0.91457 0.0
C821 C 0.74237 0.64023 0.91446 0.0
O822 O 0.7336 0.61857 0.90128 0.0
C823 C 0.57535 0.62354 0.91694 0.0
C824 C 0.56861 0.66419 0.93313 0.0
C825 C 0.5564 0.6408 0.92201 0.0
N826 N 0.5975 0.63658 0.92463 0.0
N827 N 0.59309 0.66074 0.93432 0.0
C828 C 0.57267 0.595 0.90587 0.0
H829 H 0.58931 0.58385 0.91031 0.0
H830 H 0.57115 0.59651 0.88637 0.0
H831 H 0.55553 0.58322 0.91192 0.0
C832 C 0.68012 0.68146 0.89376 0.0
N833 N 0.6733 0.66109 0.90844 0.0
N834 N 0.64932 0.65396 0.90513 0.0
C835 C 0.64056 0.66819 0.88723 0.0
C836 C 0.6593 0.68746 0.88023 0.0
C837 C 0.70544 0.69702 0.89454 0.0
H838 H 0.71126 0.70278 0.91315 0.0
H839 H 0.71915 0.68336 0.88739 0.0
H840 H 0.70565 0.71586 0.88385 0.0
O841 O 0.68261 0.64635 0.96221 0.0
O842 O 0.6419 0.63501 0.95897 0.0
H843 H 0.60306 0.67981 0.88903 0.0
H844 H 0.61216 0.67052 0.8597 0.0
C845 C 0.61378 0.66542 0.8786 0.0
H846 H 0.60561 0.64386 0.88042 0.0
H847 H 0.60701 0.67507 0.9417 0.0
O848 O 0.72761 0.6523 0.92756 0.0
C849 C 0.66151 0.6421 0.97155 0.0
Co850 Co 0.39816 0.64468 0.91632 0.0
Co851 Co 0.33967 0.64116 0.91203 0.0
C852 C 0.36664 0.59115 0.89807 0.0
O853 O 0.38711 0.60532 0.90415 0.0
O854 O 0.34614 0.60282 0.89792 0.0
C855 C 0.44885 0.63358 0.90416 0.0
O856 O 0.43772 0.61456 0.88949 0.0
C857 C 0.28784 0.64476 0.89192 0.0
C858 C 0.26901 0.65692 0.92428 0.0
C859 C 0.26501 0.65221 0.90013 0.0
N860 N 0.3044 0.64557 0.91041 0.0
N861 N 0.29284 0.65256 0.92967 0.0
C862 C 0.29455 0.63915 0.86691 0.0
H863 H 0.31512 0.64229 0.86511 0.0
H864 H 0.28504 0.65282 0.85483 0.0
H865 H 0.28836 0.61729 0.86182 0.0
C866 C 0.39182 0.70289 0.90091 0.0
N867 N 0.38276 0.67601 0.90289 0.0
N868 N 0.3582 0.67445 0.90062 0.0
C869 C 0.35108 0.70031 0.89678 0.0
C870 C 0.3721 0.71957 0.89688 0.0
C871 C 0.41873 0.71285 0.90526 0.0
H872 H 0.42325 0.71275 0.92451 0.0
H873 H 0.4307 0.69853 0.89623 0.0
H874 H 0.42283 0.73415 0.89889 0.0
O875 O 0.38975 0.64431 0.94988 0.0
O876 O 0.34825 0.63956 0.94673 0.0
H877 H 0.31628 0.70115 0.91398 0.0
H878 H 0.32294 0.72988 0.89511 0.0
C879 C 0.32452 0.7074 0.89705 0.0
H880 H 0.31368 0.69586 0.88239 0.0
H881 H 0.3014 0.65509 0.94647 0.0
O882 O 0.43561 0.64926 0.91605 0.0
C883 C 0.3685 0.64134 0.95931 0.0
Co884 Co 0.3925 0.39469 0.91217 0.0
Co885 Co 0.33432 0.38996 0.91269 0.0
C886 C 0.36214 0.34105 0.89516 0.0
O887 O 0.38306 0.3556 0.89825 0.0
O888 O 0.34175 0.35206 0.89895 0.0
C889 C 0.44483 0.38515 0.90748 0.0
O890 O 0.43619 0.35916 0.90364 0.0
C891 C 0.28121 0.38461 0.89575 0.0
C892 C 0.26349 0.40248 0.92674 0.0
C893 C 0.25835 0.39106 0.90423 0.0
N894 N 0.29903 0.39211 0.91251 0.0
N895 N 0.28821 0.40246 0.93105 0.0
C896 C 0.28629 0.37277 0.87188 0.0
H897 H 0.30602 0.37837 0.86739 0.0
H898 H 0.27341 0.38026 0.85826 0.0
H899 H 0.28313 0.34985 0.87211 0.0
C900 C 0.384 0.45138 0.89474 0.0
N901 N 0.3754 0.42491 0.89908 0.0
N902 N 0.35092 0.4235 0.90009 0.0
C903 C 0.34327 0.44927 0.89712 0.0
C904 C 0.36402 0.46834 0.89357 0.0
C905 C 0.4112 0.46044 0.89302 0.0
H906 H 0.41982 0.46343 0.91108 0.0
H907 H 0.4207 0.44414 0.88358 0.0
H908 H 0.41403 0.48006 0.88347 0.0
O909 O 0.38545 0.3931 0.9467 0.0
O910 O 0.344 0.38949 0.94646 0.0
H911 H 0.313 0.45018 0.92052 0.0
H912 H 0.3148 0.47847 0.90091 0.0
C913 C 0.3173 0.45616 0.90226 0.0
H914 H 0.30379 0.44396 0.88996 0.0
H915 H 0.29777 0.40987 0.9466 0.0
O916 O 0.42949 0.40338 0.91085 0.0
C917 C 0.36498 0.3908 0.95763 0.0
Co918 Co 0.68464 0.39831 0.92801 0.0
Co919 Co 0.62628 0.40373 0.93026 0.0
C920 C 0.64707 0.35435 0.90863 0.0
O921 O 0.66965 0.36347 0.91333 0.0
O922 O 0.62876 0.36793 0.91424 0.0
C923 C 0.73248 0.38631 0.91022 0.0
O924 O 0.71909 0.36973 0.895 0.0
C925 C 0.57207 0.40196 0.91749 0.0
C926 C 0.55897 0.42893 0.94583 0.0
C927 C 0.55069 0.41232 0.92632 0.0
N928 N 0.59192 0.41188 0.93127 0.0
N929 N 0.58388 0.42799 0.94815 0.0
C930 C 0.57391 0.3838 0.89591 0.0
H931 H 0.5925 0.38789 0.88808 0.0
H932 H 0.55898 0.38727 0.88262 0.0
H933 H 0.57171 0.36182 0.90099 0.0
C934 C 0.6816 0.45102 0.90406 0.0
N935 N 0.6706 0.42828 0.91362 0.0
N936 N 0.64648 0.43078 0.91487 0.0
C937 C 0.64134 0.45531 0.90642 0.0
C938 C 0.66356 0.46924 0.89954 0.0
C939 C 0.70923 0.45616 0.9014 0.0
H940 H 0.71871 0.45766 0.91914 0.0
H941 H 0.71613 0.4384 0.8915 0.0
H942 H 0.71406 0.47544 0.89182 0.0
O943 O 0.67871 0.39852 0.96222 0.0
O944 O 0.6378 0.40156 0.96338 0.0
H945 H 0.61281 0.46938 0.92808 0.0
H946 H 0.61515 0.4868 0.90063 0.0
C947 C 0.61643 0.46668 0.90901 0.0
H948 H 0.6016 0.45169 0.90097 0.0
H949 H 0.5954 0.43806 0.96149 0.0
O950 O 0.72148 0.40061 0.92521 0.0
C951 C 0.65887 0.39962 0.97377 0.0
Co952 Co 0.69035 0.40052 0.12158 0.0
Co953 Co 0.631 0.39637 0.11879 0.0
C954 C 0.66066 0.44741 0.13653 0.0
O955 O 0.68166 0.43734 0.13399 0.0
O956 O 0.63992 0.43352 0.13135 0.0
C957 C 0.73961 0.40135 0.14426 0.0
O958 O 0.72844 0.40865 0.16352 0.0
C959 C 0.5753 0.39738 0.1242 0.0
C960 C 0.56257 0.36349 0.09849 0.0
C961 C 0.5539 0.38287 0.11396 0.0
N962 N 0.59555 0.38673 0.11521 0.0
N963 N 0.58765 0.36653 0.09988 0.0
C964 C 0.57652 0.42194 0.14098 0.0
H965 H 0.57578 0.41461 0.15935 0.0
H966 H 0.56049 0.43447 0.13769 0.0
H967 H 0.59422 0.43509 0.13927 0.0
C968 C 0.67869 0.3479 0.14591 0.0
N969 N 0.67182 0.37157 0.13688 0.0
N970 N 0.64732 0.37128 0.13718 0.0
C971 C 0.63798 0.3482 0.14739 0.0
C972 C 0.6574 0.33189 0.15235 0.0
C973 C 0.70468 0.33898 0.1452 0.0
H974 H 0.71244 0.34278 0.12754 0.0
H975 H 0.71665 0.35142 0.15859 0.0
H976 H 0.70523 0.31681 0.14937 0.0
O977 O 0.68324 0.39803 0.08712 0.0
O978 O 0.64191 0.39507 0.08611 0.0
H979 H 0.60384 0.32918 0.13147 0.0
H980 H 0.60647 0.32539 0.16293 0.0
C981 C 0.61055 0.33973 0.14843 0.0
H982 H 0.60018 0.35818 0.15165 0.0
H983 H 0.59949 0.35497 0.09009 0.0
O984 O 0.72684 0.39717 0.12506 0.0
C985 C 0.66247 0.39602 0.0756 0.0
Co986 Co 0.68603 0.64072 0.11885 0.0
Co987 Co 0.62715 0.62949 0.11688 0.0
C988 C 0.65249 0.67919 0.14127 0.0
O989 O 0.67433 0.67341 0.13591 0.0
O990 O 0.6331 0.66377 0.13468 0.0
C991 C 0.7353 0.6428 0.14109 0.0
O992 O 0.7234 0.63797 0.16067 0.0
C993 C 0.57256 0.6314 0.12242 0.0
C994 C 0.55784 0.59216 0.10417 0.0
C995 C 0.55046 0.61554 0.11579 0.0
N996 N 0.592 0.61761 0.1155 0.0
N997 N 0.58298 0.59432 0.10443 0.0
C998 C 0.57526 0.66067 0.13205 0.0
H999 H 0.58942 0.67309 0.12206 0.0
H1000 H 0.58181 0.66088 0.15084 0.0
H1001 H 0.55747 0.67061 0.13071 0.0
C1002 C 0.68017 0.58326 0.13686 0.0
N1003 N 0.67095 0.60694 0.13022 0.0
N1004 N 0.64649 0.60424 0.13193 0.0
C1005 C 0.63965 0.58012 0.14181 0.0
C1006 C 0.66053 0.56535 0.14439 0.0
C1007 C 0.7063 0.57639 0.13239 0.0
H1008 H 0.71504 0.59038 0.11929 0.0
H1009 H 0.71753 0.57874 0.14923 0.0
H1010 H 0.70647 0.55467 0.12568 0.0
O1011 O 0.67801 0.64299 0.08518 0.0
O1012 O 0.63677 0.63453 0.08335 0.0
H1013 H 0.60229 0.56147 0.13487 0.0
H1014 H 0.61428 0.55726 0.16436 0.0
C1015 C 0.61374 0.57188 0.14966 0.0
H1016 H 0.60464 0.59052 0.15551 0.0
H1017 H 0.59401 0.58023 0.09645 0.0
O1018 O 0.72294 0.64397 0.12174 0.0
C1019 C 0.65745 0.63997 0.07333 0.0
Co1020 Co 0.39461 0.63456 0.10812 0.0
Co1021 Co 0.3366 0.62962 0.10457 0.0
C1022 C 0.36769 0.6838 0.12159 0.0
O1023 O 0.38834 0.67255 0.12188 0.0
O1024 O 0.3474 0.66931 0.11562 0.0
C1025 C 0.44722 0.63954 0.12471 0.0
O1026 O 0.43994 0.65352 0.14313 0.0
C1027 C 0.28781 0.63379 0.12585 0.0
C1028 C 0.26218 0.62339 0.09502 0.0
C1029 C 0.26289 0.6328 0.11842 0.0
N1030 N 0.30119 0.62559 0.10757 0.0
N1031 N 0.28567 0.61905 0.0893 0.0
C1032 C 0.29909 0.64554 0.14885 0.0
H1033 H 0.31965 0.64448 0.14943 0.0
H1034 H 0.29086 0.63375 0.16362 0.0
H1035 H 0.29466 0.66739 0.15124 0.0
C1036 C 0.38541 0.57733 0.12648 0.0
N1037 N 0.3771 0.60218 0.12133 0.0
N1038 N 0.35266 0.59913 0.11838 0.0
C1039 C 0.3448 0.57193 0.12061 0.0
C1040 C 0.36532 0.55669 0.12585 0.0
C1041 C 0.41243 0.57346 0.13119 0.0
H1042 H 0.42199 0.57209 0.11414 0.0
H1043 H 0.42139 0.59155 0.14163 0.0
H1044 H 0.41473 0.55446 0.14118 0.0
O1045 O 0.3851 0.63477 0.07353 0.0
O1046 O 0.34361 0.62897 0.07068 0.0
H1047 H 0.31055 0.57298 0.10017 0.0
H1048 H 0.31873 0.53859 0.10639 0.0
C1049 C 0.31886 0.56012 0.11366 0.0
H1050 H 0.30712 0.5601 0.12945 0.0
H1051 H 0.29128 0.61301 0.07259 0.0
O1052 O 0.43116 0.63027 0.10882 0.0
C1053 C 0.36475 0.63218 0.06107 0.0
Co1054 Co 0.39614 0.38574 0.10472 0.0
Co1055 Co 0.33791 0.38004 0.10538 0.0
C1056 C 0.36704 0.43449 0.12104 0.0
O1057 O 0.38746 0.42368 0.11703 0.0
O1058 O 0.34625 0.41956 0.11889 0.0
C1059 C 0.44783 0.39207 0.12398 0.0
O1060 O 0.43863 0.40057 0.1439 0.0
C1061 C 0.28747 0.37695 0.12513 0.0
C1062 C 0.26517 0.35235 0.09723 0.0
C1063 C 0.26341 0.3652 0.11928 0.0
N1064 N 0.30257 0.37114 0.10741 0.0
N1065 N 0.28905 0.35656 0.09075 0.0
C1066 C 0.29658 0.39162 0.14777 0.0
H1067 H 0.31668 0.38891 0.15111 0.0
H1068 H 0.28554 0.38376 0.1628 0.0
H1069 H 0.29451 0.41411 0.14633 0.0
C1070 C 0.38839 0.32681 0.11988 0.0
N1071 N 0.38003 0.35229 0.11741 0.0
N1072 N 0.35553 0.3501 0.11848 0.0
C1073 C 0.34768 0.32322 0.12229 0.0
C1074 C 0.36816 0.30706 0.12306 0.0
C1075 C 0.41469 0.32089 0.115 0.0
H1076 H 0.42122 0.33241 0.0994 0.0
H1077 H 0.427 0.32825 0.13041 0.0
H1078 H 0.41637 0.2985 0.11155 0.0
O1079 O 0.38699 0.38489 0.07084 0.0
O1080 O 0.34543 0.38149 0.07076 0.0
H1081 H 0.31203 0.31016 0.10606 0.0
H1082 H 0.31885 0.29266 0.13293 0.0
C1083 C 0.3208 0.31281 0.12407 0.0
H1084 H 0.31083 0.328 0.13433 0.0
H1085 H 0.29622 0.34916 0.0751 0.0
O1086 O 0.43311 0.385 0.1064 0.0
C1087 C 0.36592 0.38345 0.05975 0.0
Co1088 Co 0.88163 0.60633 0.59217 0.0
Co1089 Co 0.89752 0.61221 0.64334 0.0
C1090 C 0.87673 0.55608 0.62387 0.0
O1091 O 0.87332 0.5674 0.60416 0.0
O1092 O 0.88549 0.5711 0.64155 0.0
C1093 C 0.8394 0.6051 0.56145 0.0
O1094 O 0.8274 0.60876 0.581 0.0
C1095 C 0.89229 0.61553 0.69285 0.0
C1096 C 0.92485 0.64414 0.70499 0.0
C1097 C 0.90307 0.63006 0.71231 0.0
N1098 N 0.90684 0.62099 0.6746 0.0
N1099 N 0.9266 0.63754 0.68188 0.0
C1100 C 0.86673 0.60053 0.69054 0.0
H1101 H 0.85946 0.60044 0.67197 0.0
H1102 H 0.8536 0.61025 0.70235 0.0
H1103 H 0.86786 0.57877 0.69576 0.0
C1104 C 0.86868 0.66495 0.60208 0.0
N1105 N 0.87245 0.63909 0.60941 0.0
N1106 N 0.87671 0.64027 0.63236 0.0
C1107 C 0.8748 0.66676 0.64044 0.0
C1108 C 0.86994 0.68376 0.62151 0.0
C1109 C 0.86915 0.67278 0.57672 0.0
H1110 H 0.87648 0.65636 0.56554 0.0
H1111 H 0.84992 0.67603 0.57047 0.0
H1112 H 0.88092 0.69252 0.57484 0.0
O1113 O 0.91849 0.61229 0.58776 0.0
O1114 O 0.92847 0.61775 0.62618 0.0
H1115 H 0.89897 0.68 0.67005 0.0
H1116 H 0.86969 0.69559 0.66935 0.0
C1117 C 0.87868 0.67618 0.66578 0.0
H1118 H 0.87046 0.66007 0.67737 0.0
H1119 H 0.94036 0.64569 0.67081 0.0
O1120 O 0.86302 0.60439 0.56221 0.0
C1121 C 0.93463 0.61742 0.60469 0.0
Co1122 Co 0.39562 0.90874 0.68012 0.0
Co1123 Co 0.39728 0.90289 0.62665 0.0
C1124 C 0.3494 0.89243 0.64757 0.0
O1125 O 0.36099 0.89865 0.66722 0.0
O1126 O 0.36117 0.89152 0.62842 0.0
C1127 C 0.38172 0.88247 0.72122 0.0
O1128 O 0.36926 0.86462 0.70636 0.0
C1129 C 0.40092 0.8931 0.57502 0.0
C1130 C 0.43939 0.91245 0.57108 0.0
C1131 C 0.41924 0.89872 0.55862 0.0
N1132 N 0.41021 0.90263 0.59626 0.0
N1133 N 0.4331 0.9142 0.59375 0.0
C1134 C 0.37442 0.88149 0.57044 0.0
H1135 H 0.37358 0.85853 0.57042 0.0
H1136 H 0.3672 0.88784 0.55303 0.0
H1137 H 0.36227 0.88865 0.58438 0.0
C1138 C 0.44271 0.88176 0.67555 0.0
N1139 N 0.42008 0.88788 0.66739 0.0
N1140 N 0.41745 0.88079 0.64493 0.0
C1141 C 0.4375 0.86794 0.63838 0.0
C1142 C 0.45489 0.86914 0.65724 0.0
C1143 C 0.45412 0.89274 0.6988 0.0
H1144 H 0.44233 0.90772 0.70718 0.0
H1145 H 0.45597 0.87523 0.71074 0.0
H1146 H 0.47306 0.9031 0.69637 0.0
O1147 O 0.40379 0.9477 0.67531 0.0
O1148 O 0.40262 0.94328 0.6363 0.0
H1149 H 0.44981 0.86679 0.60242 0.0
H1150 H 0.44973 0.8346 0.61698 0.0
C1151 C 0.43943 0.85333 0.61484 0.0
H1152 H 0.42049 0.84732 0.60696 0.0
H1153 H 0.44443 0.92341 0.60764 0.0
O1154 O 0.39467 0.90312 0.71347 0.0
C1155 C 0.40514 0.95839 0.65519 0.0
Co1156 Co 0.09591 0.40197 0.61578 0.0
Co1157 Co 0.08266 0.34145 0.62074 0.0
C1158 C 0.10136 0.37834 0.66363 0.0
O1159 O 0.10477 0.39877 0.65026 0.0
O1160 O 0.09348 0.35482 0.65448 0.0
C1161 C 0.13237 0.44608 0.6162 0.0
O1162 O 0.14521 0.42956 0.62878 0.0
C1163 C 0.10494 0.29296 0.62727 0.0
C1164 C 0.074 0.2605 0.63119 0.0
C1165 C 0.09988 0.26556 0.63265 0.0
N1166 N 0.08324 0.3036 0.62292 0.0
N1167 N 0.06464 0.28435 0.62526 0.0
C1168 C 0.1296 0.31005 0.62858 0.0
H1169 H 0.12704 0.33223 0.63203 0.0
H1170 H 0.13863 0.30847 0.61127 0.0
H1171 H 0.14213 0.30272 0.64256 0.0
C1172 C 0.11616 0.38426 0.57038 0.0
N1173 N 0.10931 0.37826 0.5926 0.0
N1174 N 0.10045 0.3523 0.59283 0.0
C1175 C 0.10011 0.34136 0.57035 0.0
C1176 C 0.1099 0.36148 0.55497 0.0
C1177 C 0.12809 0.41177 0.56377 0.0
H1178 H 0.14332 0.4184 0.57686 0.0
H1179 H 0.13643 0.41084 0.54611 0.0
H1180 H 0.11394 0.42714 0.56385 0.0
O1181 O 0.05788 0.3978 0.61194 0.0
O1182 O 0.04937 0.35227 0.61632 0.0
H1183 H 0.07828 0.3144 0.54498 0.0
H1184 H 0.10004 0.29788 0.56352 0.0
C1185 C 0.08657 0.314 0.56316 0.0
H1186 H 0.07166 0.30837 0.57572 0.0
H1187 H 0.04577 0.28775 0.62373 0.0
O1188 O 0.10995 0.4388 0.6093 0.0
C1189 C 0.04234 0.37626 0.61285 0.0
Co1190 Co 0.62605 0.1349 0.68283 0.0
Co1191 Co 0.61806 0.12839 0.62434 0.0
C1192 C 0.66836 0.14629 0.64881 0.0
O1193 O 0.66073 0.1449 0.67008 0.0
O1194 O 0.65344 0.14135 0.63088 0.0
C1195 C 0.63458 0.1572 0.73489 0.0
O1196 O 0.65102 0.17606 0.72699 0.0
C1197 C 0.62025 0.13867 0.57069 0.0
C1198 C 0.5908 0.1073 0.55713 0.0
C1199 C 0.60835 0.12749 0.5495 0.0
N1200 N 0.61006 0.12562 0.5895 0.0
N1201 N 0.59256 0.10681 0.58092 0.0
C1202 C 0.64056 0.16174 0.57313 0.0
H1203 H 0.64073 0.17174 0.59105 0.0
H1204 H 0.63803 0.17733 0.55949 0.0
H1205 H 0.65886 0.1532 0.5707 0.0
C1206 C 0.58044 0.16396 0.67488 0.0
N1207 N 0.6005 0.15307 0.66582 0.0
N1208 N 0.59687 0.14985 0.64264 0.0
C1209 C 0.57427 0.15804 0.63648 0.0
C1210 C 0.56276 0.16695 0.65679 0.0
C1211 C 0.57739 0.16904 0.70079 0.0
H1212 H 0.59465 0.1804 0.70857 0.0
H1213 H 0.56129 0.18135 0.70417 0.0
H1214 H 0.57457 0.1489 0.70957 0.0
O1215 O 0.61933 0.09418 0.67556 0.0
O1216 O 0.61416 0.09038 0.63627 0.0
H1217 H 0.54449 0.16126 0.6098 0.0
H1218 H 0.57531 0.15935 0.59878 0.0
C1219 C 0.56229 0.15179 0.61245 0.0
H1220 H 0.55851 0.12903 0.60991 0.0
H1221 H 0.58192 0.09323 0.59136 0.0
O1222 O 0.62328 0.13958 0.71992 0.0
C1223 C 0.61512 0.07947 0.65649 0.0
Co1224 Co 0.89304 0.38755 0.36374 0.0
Co1225 Co 0.88292 0.39263 0.41523 0.0
C1226 C 0.87243 0.3366 0.38916 0.0
O1227 O 0.87834 0.34853 0.37017 0.0
O1228 O 0.8722 0.35127 0.40822 0.0
C1229 C 0.87384 0.38305 0.31905 0.0
O1230 O 0.85308 0.38409 0.3306 0.0
C1231 C 0.85111 0.38937 0.45466 0.0
C1232 C 0.87166 0.41671 0.4818 0.0
C1233 C 0.84991 0.39942 0.47759 0.0
N1234 N 0.87242 0.40016 0.44568 0.0
N1235 N 0.88456 0.41688 0.4618 0.0
C1236 C 0.83222 0.36982 0.44137 0.0
H1237 H 0.83096 0.37557 0.42257 0.0
H1238 H 0.8136 0.37 0.44934 0.0
H1239 H 0.8382 0.3485 0.44197 0.0
C1240 C 0.87757 0.44658 0.36506 0.0
N1241 N 0.87782 0.42067 0.37372 0.0
N1242 N 0.87101 0.42139 0.3957 0.0
C1243 C 0.86501 0.44742 0.40141 0.0
C1244 C 0.86951 0.46499 0.3824 0.0
C1245 C 0.88881 0.45447 0.34209 0.0
H1246 H 0.90235 0.43962 0.33673 0.0
H1247 H 0.87371 0.45399 0.32822 0.0
H1248 H 0.89843 0.47568 0.34345 0.0
O1249 O 0.92674 0.3896 0.37713 0.0
O1250 O 0.92061 0.39571 0.4156 0.0
H1251 H 0.87076 0.46053 0.43773 0.0
H1252 H 0.84405 0.47375 0.42326 0.0
C1253 C 0.85501 0.45545 0.42478 0.0
H1254 H 0.84266 0.43808 0.43136 0.0
H1255 H 0.90178 0.42786 0.4593 0.0
O1256 O 0.89477 0.3861 0.33008 0.0
C1257 C 0.9351 0.39297 0.39835 0.0
Co1258 Co 0.59443 0.90733 0.39524 0.0
Co1259 Co 0.59575 0.9057 0.33651 0.0
C1260 C 0.54873 0.88995 0.36375 0.0
O1261 O 0.56014 0.89352 0.38391 0.0
O1262 O 0.55999 0.89353 0.34425 0.0
C1263 C 0.58298 0.8984 0.44747 0.0
O1264 O 0.56015 0.88969 0.44009 0.0
C1265 C 0.59431 0.89136 0.28191 0.0
C1266 C 0.6218 0.92477 0.2716 0.0
C1267 C 0.60599 0.90292 0.26198 0.0
N1268 N 0.603 0.9059 0.30191 0.0
N1269 N 0.6195 0.9257 0.29521 0.0
C1270 C 0.5743 0.86797 0.28178 0.0
H1271 H 0.56443 0.86784 0.29872 0.0
H1272 H 0.58295 0.84811 0.27954 0.0
H1273 H 0.56081 0.86963 0.26674 0.0
C1274 C 0.64007 0.88024 0.38816 0.0
N1275 N 0.6188 0.88856 0.37873 0.0
N1276 N 0.61982 0.88775 0.35539 0.0
C1277 C 0.64204 0.87883 0.34948 0.0
C1278 C 0.65563 0.87382 0.37 0.0
C1279 C 0.64693 0.88369 0.41402 0.0
H1280 H 0.64523 0.90549 0.41985 0.0
H1281 H 0.6336 0.87023 0.42411 0.0
H1282 H 0.6662 0.87858 0.41831 0.0
O1283 O 0.59871 0.94683 0.38649 0.0
O1284 O 0.5996 0.9453 0.34706 0.0
H1285 H 0.65684 0.89914 0.3194 0.0
H1286 H 0.66747 0.86525 0.32361 0.0
C1287 C 0.65117 0.87777 0.32481 0.0
H1288 H 0.63593 0.86875 0.31254 0.0
H1289 H 0.62909 0.94031 0.30686 0.0
O1290 O 0.59904 0.9059 0.43207 0.0
C1291 C 0.60036 0.95891 0.36677 0.0
Co1292 Co 0.09194 0.69194 0.40181 0.0
Co1293 Co 0.08963 0.63005 0.40212 0.0
C1294 C 0.1058 0.6637 0.44693 0.0
O1295 O 0.10432 0.68603 0.43585 0.0
O1296 O 0.10153 0.6406 0.43565 0.0
C1297 C 0.12327 0.73755 0.39805 0.0
O1298 O 0.13892 0.7186 0.40171 0.0
C1299 C 0.11318 0.58048 0.4065 0.0
C1300 C 0.08887 0.54981 0.38479 0.0
C1301 C 0.1113 0.5537 0.39771 0.0
N1302 N 0.09309 0.59241 0.39868 0.0
N1303 N 0.07845 0.57409 0.38579 0.0
C1304 C 0.1347 0.59523 0.42045 0.0
H1305 H 0.13817 0.61675 0.41441 0.0
H1306 H 0.15188 0.58423 0.41869 0.0
H1307 H 0.12998 0.59616 0.43939 0.0
C1308 C 0.11119 0.68223 0.35287 0.0
N1309 N 0.10587 0.67393 0.37503 0.0
N1310 N 0.10601 0.64697 0.37553 0.0
C1311 C 0.11211 0.63728 0.35383 0.0
C1312 C 0.11549 0.65926 0.33846 0.0
C1313 C 0.10796 0.71075 0.34445 0.0
H1314 H 0.09252 0.71975 0.35372 0.0
H1315 H 0.12549 0.72416 0.34829 0.0
H1316 H 0.1038 0.7105 0.32512 0.0
O1317 O 0.05531 0.68272 0.40033 0.0
O1318 O 0.05363 0.63661 0.40095 0.0
H1319 H 0.09466 0.59685 0.34505 0.0
H1320 H 0.12389 0.60476 0.33081 0.0
C1321 C 0.11378 0.60734 0.34742 0.0
H1322 H 0.12388 0.59738 0.36171 0.0
H1323 H 0.06181 0.57837 0.37722 0.0
O1324 O 0.09992 0.73078 0.39773 0.0
C1325 C 0.04288 0.65909 0.40056 0.0
Co1326 Co 0.41773 0.15883 0.42293 0.0
Co1327 Co 0.39618 0.15524 0.37273 0.0
C1328 C 0.44955 0.17458 0.38192 0.0
O1329 O 0.44635 0.17302 0.40399 0.0
O1330 O 0.43153 0.16828 0.36718 0.0
C1331 C 0.43249 0.18966 0.4662 0.0
O1332 O 0.42614 0.21226 0.45622 0.0
C1333 C 0.38521 0.16453 0.32411 0.0
C1334 C 0.35708 0.12966 0.31482 0.0
C1335 C 0.37231 0.15066 0.30528 0.0
N1336 N 0.37848 0.15191 0.34384 0.0
N1337 N 0.36109 0.13157 0.33838 0.0
C1338 C 0.40556 0.18755 0.32312 0.0
H1339 H 0.40554 0.20126 0.33919 0.0
H1340 H 0.40308 0.19974 0.30705 0.0
H1341 H 0.42395 0.1788 0.3225 0.0
C1342 C 0.36721 0.1761 0.4311 0.0
N1343 N 0.38686 0.1743 0.41702 0.0
N1344 N 0.37918 0.17606 0.39492 0.0
C1345 C 0.35476 0.18066 0.3943 0.0
C1346 C 0.34596 0.17973 0.41713 0.0
C1347 C 0.36793 0.16945 0.45676 0.0
H1348 H 0.37651 0.14964 0.45913 0.0
H1349 H 0.3798 0.18596 0.46669 0.0
H1350 H 0.34907 0.16823 0.46431 0.0
O1351 O 0.41234 0.11798 0.41883 0.0
O1352 O 0.39563 0.11676 0.3826 0.0
H1353 H 0.33119 0.15823 0.36783 0.0
H1354 H 0.32293 0.19268 0.37413 0.0
C1355 C 0.33887 0.17985 0.37205 0.0
H1356 H 0.34998 0.18801 0.35723 0.0
H1357 H 0.35352 0.11762 0.35047 0.0
O1358 O 0.42914 0.16638 0.45523 0.0
C1359 C 0.40256 0.1044 0.4008 0.0
Co1360 Co 0.60902 0.90613 0.68328 0.0
Co1361 Co 0.60473 0.90827 0.62477 0.0
C1362 C 0.56225 0.88503 0.6532 0.0
O1363 O 0.57446 0.88955 0.67293 0.0
O1364 O 0.57194 0.89087 0.63342 0.0
C1365 C 0.59729 0.89597 0.73389 0.0
O1366 O 0.57435 0.89329 0.72487 0.0
C1367 C 0.59684 0.89904 0.57043 0.0
C1368 C 0.62458 0.93146 0.55872 0.0
C1369 C 0.60674 0.91105 0.54991 0.0
N1370 N 0.60843 0.9119 0.58998 0.0
N1371 N 0.62486 0.93131 0.58251 0.0
C1372 C 0.57743 0.87516 0.57155 0.0
H1373 H 0.5788 0.86517 0.58887 0.0
H1374 H 0.57962 0.85977 0.557 0.0
H1375 H 0.55862 0.88285 0.56961 0.0
C1376 C 0.656 0.88197 0.66922 0.0
N1377 N 0.63351 0.89084 0.66347 0.0
N1378 N 0.63076 0.8903 0.64012 0.0
C1379 C 0.65087 0.88017 0.63058 0.0
C1380 C 0.66767 0.87479 0.64859 0.0
C1381 C 0.66671 0.88233 0.69392 0.0
H1382 H 0.66839 0.90392 0.70129 0.0
H1383 H 0.65372 0.86985 0.7051 0.0
H1384 H 0.68531 0.87397 0.69454 0.0
O1385 O 0.61002 0.94676 0.67736 0.0
O1386 O 0.60662 0.94662 0.63799 0.0
H1387 H 0.66132 0.90004 0.59879 0.0
H1388 H 0.66989 0.8651 0.60012 0.0
C1389 C 0.65522 0.87894 0.60458 0.0
H1390 H 0.63764 0.87143 0.5948 0.0
H1391 H 0.63637 0.94465 0.59378 0.0
O1392 O 0.61525 0.90094 0.71972 0.0
C1393 C 0.60863 0.95956 0.658 0.0
Co1394 Co 0.61228 0.13187 0.39493 0.0
Co1395 Co 0.61258 0.1302 0.33582 0.0
C1396 C 0.65852 0.14849 0.36675 0.0
O1397 O 0.64625 0.14535 0.38562 0.0
O1398 O 0.64831 0.1437 0.34605 0.0
C1399 C 0.62588 0.13954 0.44773 0.0
O1400 O 0.64906 0.14347 0.44096 0.0
C1401 C 0.61288 0.14154 0.28099 0.0
C1402 C 0.58958 0.10405 0.26861 0.0
C1403 C 0.60288 0.12726 0.26014 0.0
N1404 N 0.60574 0.12715 0.3004 0.0
N1405 N 0.59167 0.10491 0.2924 0.0
C1406 C 0.62985 0.16765 0.28229 0.0
H1407 H 0.63989 0.1701 0.29976 0.0
H1408 H 0.61852 0.18554 0.27998 0.0
H1409 H 0.6434 0.1676 0.26787 0.0
C1410 C 0.56691 0.15901 0.38409 0.0
N1411 N 0.58808 0.14928 0.37652 0.0
N1412 N 0.58828 0.14977 0.35315 0.0
C1413 C 0.56725 0.16057 0.34536 0.0
C1414 C 0.55292 0.16685 0.36469 0.0
C1415 C 0.55856 0.156 0.40898 0.0
H1416 H 0.56764 0.17341 0.4202 0.0
H1417 H 0.538 0.15571 0.41023 0.0
H1418 H 0.56436 0.13635 0.416 0.0
O1419 O 0.60845 0.09218 0.38598 0.0
O1420 O 0.60888 0.09101 0.34654 0.0
H1421 H 0.55362 0.14285 0.31196 0.0
H1422 H 0.54588 0.17804 0.31743 0.0
C1423 C 0.56054 0.16347 0.31978 0.0
H1424 H 0.5774 0.17103 0.31026 0.0
H1425 H 0.58361 0.08982 0.3033 0.0
O1426 O 0.60835 0.13537 0.43175 0.0
C1427 C 0.60757 0.07875 0.36621 0.0
Co1428 Co 0.8927 0.64209 0.36175 0.0
Co1429 Co 0.88436 0.64264 0.41382 0.0
C1430 C 0.87501 0.58831 0.38369 0.0
O1431 O 0.87908 0.60146 0.36481 0.0
O1432 O 0.8761 0.60181 0.40347 0.0
C1433 C 0.87997 0.64243 0.31375 0.0
O1434 O 0.85836 0.63066 0.3201 0.0
C1435 C 0.85201 0.63441 0.45276 0.0
C1436 C 0.87122 0.66101 0.48122 0.0
C1437 C 0.84988 0.64348 0.47587 0.0
N1438 N 0.87333 0.64637 0.44465 0.0
N1439 N 0.88477 0.66239 0.46165 0.0
C1440 C 0.83411 0.61467 0.43854 0.0
H1441 H 0.83293 0.62134 0.41998 0.0
H1442 H 0.81528 0.61336 0.4462 0.0
H1443 H 0.84112 0.59378 0.43843 0.0
C1444 C 0.87172 0.69757 0.36534 0.0
N1445 N 0.8748 0.67197 0.37357 0.0
N1446 N 0.87054 0.67201 0.39624 0.0
C1447 C 0.86382 0.69747 0.40297 0.0
C1448 C 0.8645 0.71483 0.38366 0.0
C1449 C 0.87854 0.70646 0.34112 0.0
H1450 H 0.86648 0.694 0.32781 0.0
H1451 H 0.87604 0.72869 0.33867 0.0
H1452 H 0.89827 0.70263 0.33804 0.0
O1453 O 0.92667 0.64743 0.37572 0.0
O1454 O 0.92158 0.64886 0.41454 0.0
H1455 H 0.87943 0.70868 0.43736 0.0
H1456 H 0.85289 0.72703 0.42934 0.0
C1457 C 0.86086 0.70669 0.4281 0.0
H1458 H 0.8484 0.69114 0.43701 0.0
H1459 H 0.90182 0.67404 0.45993 0.0
O1460 O 0.8974 0.6482 0.32901 0.0
C1461 C 0.93562 0.65007 0.39678 0.0
Co1462 Co 0.39093 0.9305 0.41923 0.0
Co1463 Co 0.37703 0.93329 0.36708 0.0
C1464 C 0.33932 0.91136 0.40032 0.0
O1465 O 0.35477 0.91589 0.41777 0.0
O1466 O 0.34592 0.91645 0.3795 0.0
C1467 C 0.39985 0.89979 0.45925 0.0
O1468 O 0.38792 0.87925 0.4467 0.0
C1469 C 0.36248 0.91099 0.32107 0.0
C1470 C 0.37398 0.94533 0.29795 0.0
C1471 C 0.3642 0.91788 0.2977 0.0
N1472 N 0.37141 0.93304 0.33447 0.0
N1473 N 0.37761 0.95385 0.3207 0.0
C1474 C 0.35318 0.88372 0.33078 0.0
H1475 H 0.36565 0.87835 0.34562 0.0
H1476 H 0.35128 0.86683 0.31702 0.0
H1477 H 0.33445 0.88574 0.33794 0.0
C1478 C 0.43525 0.90558 0.39975 0.0
N1479 N 0.412 0.914 0.39735 0.0
N1480 N 0.40573 0.91434 0.37479 0.0
C1481 C 0.42454 0.90547 0.36206 0.0
C1482 C 0.44404 0.89958 0.37739 0.0
C1483 C 0.45027 0.908 0.42259 0.0
H1484 H 0.44559 0.9264 0.43311 0.0
H1485 H 0.44566 0.88925 0.43292 0.0
H1486 H 0.47064 0.91003 0.41965 0.0
O1487 O 0.39367 0.97103 0.41582 0.0
O1488 O 0.38267 0.97251 0.37786 0.0
H1489 H 0.4241 0.92454 0.32845 0.0
H1490 H 0.43994 0.89285 0.32877 0.0
C1491 C 0.42409 0.9035 0.33567 0.0
H1492 H 0.40673 0.89135 0.32959 0.0
H1493 H 0.38545 0.97329 0.32678 0.0
O1494 O 0.40296 0.92363 0.45067 0.0
C1495 C 0.38942 0.98472 0.39753 0.0
Co1496 Co 0.09257 0.40868 0.41176 0.0
Co1497 Co 0.08318 0.34754 0.40291 0.0
C1498 C 0.10282 0.36917 0.45095 0.0
O1499 O 0.10288 0.39326 0.44275 0.0
O1500 O 0.09687 0.3483 0.43718 0.0
C1501 C 0.13051 0.45099 0.41594 0.0
O1502 O 0.14464 0.43075 0.41157 0.0
C1503 C 0.1053 0.29957 0.39308 0.0
C1504 C 0.07678 0.27143 0.37343 0.0
C1505 C 0.10199 0.27493 0.38013 0.0
N1506 N 0.08336 0.31052 0.39353 0.0
N1507 N 0.0661 0.29358 0.38221 0.0
C1508 C 0.1295 0.31518 0.40138 0.0
H1509 H 0.12764 0.33772 0.40291 0.0
H1510 H 0.14468 0.31137 0.38913 0.0
H1511 H 0.13479 0.30827 0.41921 0.0
C1512 C 0.10671 0.40702 0.36024 0.0
N1513 N 0.10303 0.39499 0.38147 0.0
N1514 N 0.09998 0.36806 0.37796 0.0
C1515 C 0.10221 0.36215 0.35446 0.0
C1516 C 0.10673 0.3866 0.34225 0.0
C1517 C 0.10465 0.43705 0.35601 0.0
H1518 H 0.09973 0.44837 0.37223 0.0
H1519 H 0.12264 0.44628 0.34945 0.0
H1520 H 0.09013 0.43932 0.34198 0.0
O1521 O 0.05557 0.40529 0.41095 0.0
O1522 O 0.04886 0.35959 0.40379 0.0
H1523 H 0.07778 0.32561 0.34654 0.0
H1524 H 0.09944 0.33413 0.32363 0.0
C1525 C 0.09711 0.33391 0.34301 0.0
H1526 H 0.11051 0.32003 0.35027 0.0
H1527 H 0.04763 0.29797 0.37914 0.0
O1528 O 0.10686 0.44626 0.41595 0.0
C1529 C 0.04077 0.38338 0.40743 0.0
Co1530 Co 0.4081 0.13259 0.6746 0.0
Co1531 Co 0.41531 0.12784 0.62176 0.0
C1532 C 0.45573 0.15436 0.65559 0.0
O1533 O 0.44259 0.14983 0.67353 0.0
O1534 O 0.44713 0.14749 0.63489 0.0
C1535 C 0.40403 0.15649 0.71995 0.0
O1536 O 0.41975 0.17637 0.71249 0.0
C1537 C 0.42121 0.1535 0.57741 0.0
C1538 C 0.42841 0.11814 0.55372 0.0
C1539 C 0.42798 0.14671 0.55483 0.0
N1540 N 0.41807 0.13002 0.58924 0.0
N1541 N 0.42216 0.10888 0.57505 0.0
C1542 C 0.42021 0.18184 0.58841 0.0
H1543 H 0.42201 0.18126 0.60796 0.0
H1544 H 0.40189 0.18955 0.58373 0.0
H1545 H 0.43516 0.19642 0.58158 0.0
C1546 C 0.36164 0.1559 0.65906 0.0
N1547 N 0.38447 0.14799 0.65448 0.0
N1548 N 0.3859 0.14306 0.63169 0.0
C1549 C 0.36353 0.14624 0.62105 0.0
C1550 C 0.34718 0.15436 0.63815 0.0
C1551 C 0.35374 0.16426 0.68319 0.0
H1552 H 0.36892 0.17799 0.69217 0.0
H1553 H 0.33669 0.17563 0.68229 0.0
H1554 H 0.35011 0.14555 0.6938 0.0
O1555 O 0.40834 0.09218 0.668 0.0
O1556 O 0.41401 0.08858 0.62948 0.0
H1557 H 0.36892 0.12091 0.59005 0.0
H1558 H 0.33702 0.12874 0.59399 0.0
C1559 C 0.35689 0.13708 0.59598 0.0
H1560 H 0.35989 0.1551 0.58447 0.0
H1561 H 0.42178 0.08837 0.58022 0.0
O1562 O 0.39708 0.13581 0.70646 0.0
C1563 C 0.41103 0.0775 0.64937 0.0
Co1564 Co 0.88573 0.35884 0.59377 0.0
Co1565 Co 0.89136 0.35851 0.64581 0.0
C1566 C 0.87619 0.3054 0.62183 0.0
O1567 O 0.8805 0.31833 0.60296 0.0
O1568 O 0.876 0.31912 0.64124 0.0
C1569 C 0.84469 0.35817 0.56311 0.0
O1570 O 0.83293 0.35947 0.58305 0.0
C1571 C 0.87892 0.35874 0.69398 0.0
C1572 C 0.91448 0.37393 0.71252 0.0
C1573 C 0.88953 0.36574 0.71598 0.0
N1574 N 0.89666 0.36286 0.67814 0.0
N1575 N 0.91806 0.37136 0.6892 0.0
C1576 C 0.85241 0.34826 0.68776 0.0
H1577 H 0.84633 0.35679 0.67075 0.0
H1578 H 0.83954 0.35326 0.7019 0.0
H1579 H 0.85141 0.32539 0.68529 0.0
C1580 C 0.87131 0.416 0.60473 0.0
N1581 N 0.8737 0.38964 0.61136 0.0
N1582 N 0.87413 0.38902 0.63446 0.0
C1583 C 0.87136 0.41497 0.64332 0.0
C1584 C 0.86949 0.43341 0.62474 0.0
C1585 C 0.87642 0.4255 0.58028 0.0
H1586 H 0.88515 0.40948 0.56977 0.0
H1587 H 0.85863 0.42985 0.57132 0.0
H1588 H 0.88897 0.44497 0.58102 0.0
O1589 O 0.92216 0.36725 0.59318 0.0
O1590 O 0.92513 0.36257 0.63212 0.0
H1591 H 0.89191 0.42329 0.67607 0.0
H1592 H 0.86458 0.44255 0.67278 0.0
C1593 C 0.8723 0.4224 0.66917 0.0
H1594 H 0.86109 0.40631 0.67858 0.0
H1595 H 0.9348 0.37629 0.68078 0.0
O1596 O 0.86839 0.3582 0.56331 0.0
C1597 C 0.9353 0.36691 0.61231 0.0
Co1598 Co 0.08457 0.68197 0.61832 0.0
Co1599 Co 0.09115 0.62243 0.61018 0.0
C1600 C 0.10078 0.64642 0.6594 0.0
O1601 O 0.09488 0.66933 0.65144 0.0
O1602 O 0.10126 0.62588 0.645 0.0
C1603 C 0.11568 0.72467 0.62743 0.0
O1604 O 0.1293 0.70355 0.6253 0.0
C1605 C 0.11831 0.57536 0.6076 0.0
C1606 C 0.09553 0.54676 0.58278 0.0
C1607 C 0.11774 0.54995 0.59614 0.0
N1608 N 0.09763 0.58701 0.60106 0.0
N1609 N 0.08397 0.57001 0.58619 0.0
C1610 C 0.13896 0.5894 0.62314 0.0
H1611 H 0.14069 0.61202 0.62019 0.0
H1612 H 0.157 0.58071 0.61966 0.0
H1613 H 0.13448 0.58626 0.64192 0.0
C1614 C 0.10295 0.68305 0.5681 0.0
N1615 N 0.10136 0.67176 0.58977 0.0
N1616 N 0.10771 0.64635 0.58817 0.0
C1617 C 0.11461 0.64099 0.56574 0.0
C1618 C 0.11119 0.66376 0.55167 0.0
C1619 C 0.09275 0.70993 0.56245 0.0
H1620 H 0.0805 0.7165 0.57663 0.0
H1621 H 0.10853 0.72606 0.561 0.0
H1622 H 0.08208 0.70808 0.54529 0.0
O1623 O 0.04905 0.67003 0.61252 0.0
O1624 O 0.05428 0.62537 0.60591 0.0
H1625 H 0.10868 0.59865 0.5534 0.0
H1626 H 0.13581 0.61739 0.54181 0.0
C1627 C 0.12446 0.61441 0.55774 0.0
H1628 H 0.1364 0.60671 0.57195 0.0
H1629 H 0.06701 0.57438 0.57831 0.0
O1630 O 0.09221 0.72133 0.62342 0.0
C1631 C 0.04017 0.64527 0.60715 0.0
C1632 C 0.14109 0.25337 0.38952 0.0
C1633 C 0.12153 0.2572 0.37334 0.0
H1634 H 0.17047 0.22908 0.39903 0.0
C1635 C 0.12021 0.24284 0.35137 0.0
H1636 H 0.1424 0.2636 0.40679 0.0
C1637 C 0.13655 0.22252 0.3469 0.0
C1638 C 0.15361 0.21605 0.36472 0.0
H1639 H 0.1056 0.24602 0.33837 0.0
H1640 H 0.13351 0.20941 0.33105 0.0
C1641 C 0.15753 0.23359 0.38489 0.0
C1642 C 0.70219 0.13731 0.35822 0.0
C1643 C 0.68597 0.15394 0.37003 0.0
H1644 H 0.73832 0.12159 0.3584 0.0
C1645 C 0.69556 0.17126 0.38906 0.0
H1646 H 0.69512 0.12331 0.3438 0.0
C1647 C 0.72023 0.17049 0.39727 0.0
C1648 C 0.73599 0.15214 0.38688 0.0
H1649 H 0.68348 0.18419 0.39857 0.0
H1650 H 0.72656 0.18331 0.41267 0.0
C1651 C 0.72699 0.13628 0.36666 0.0
C1652 C 0.84167 0.75828 0.38966 0.0
C1653 C 0.86368 0.746 0.38413 0.0
H1654 H 0.82395 0.79579 0.39616 0.0
C1655 C 0.88517 0.76381 0.38005 0.0
H1656 H 0.82479 0.74529 0.39296 0.0
C1657 C 0.88482 0.79294 0.38205 0.0
C1658 C 0.86287 0.80534 0.38794 0.0
H1659 H 0.90251 0.75515 0.37591 0.0
H1660 H 0.90198 0.80576 0.37944 0.0
C1661 C 0.84121 0.78738 0.39137 0.0
C1662 C 0.27138 0.887 0.38731 0.0
C1663 C 0.2602 0.89454 0.40837 0.0
H1664 H 0.3051 0.8861 0.3684 0.0
C1665 C 0.27561 0.90528 0.42763 0.0
H1666 H 0.2601 0.87849 0.37219 0.0
C1667 C 0.30159 0.90926 0.42556 0.0
C1668 C 0.3126 0.90295 0.40408 0.0
H1669 H 0.26758 0.91106 0.4442 0.0
H1670 H 0.3129 0.91841 0.44042 0.0
C1671 C 0.29723 0.89131 0.38515 0.0
C1672 C 0.13364 0.7888 0.6646 0.0
C1673 C 0.14981 0.80344 0.64952 0.0
H1674 H 0.10903 0.7521 0.66866 0.0
C1675 C 0.15603 0.79101 0.62798 0.0
H1676 H 0.12881 0.79802 0.68134 0.0
C1677 C 0.1453 0.76484 0.6211 0.0
C1678 C 0.12767 0.75132 0.63531 0.0
H1679 H 0.16798 0.80215 0.61576 0.0
H1680 H 0.14981 0.75575 0.6042 0.0
C1681 C 0.12224 0.76291 0.65732 0.0
C1682 C 0.27835 0.14276 0.65169 0.0
C1683 C 0.26693 0.15456 0.63235 0.0
H1684 H 0.31232 0.13173 0.66779 0.0
C1685 C 0.28186 0.16602 0.61455 0.0
H1686 H 0.26715 0.13327 0.66535 0.0
C1687 C 0.30798 0.1664 0.6165 0.0
C1688 C 0.31949 0.15454 0.6359 0.0
H1689 H 0.27334 0.17514 0.5994 0.0
H1690 H 0.31916 0.17604 0.60291 0.0
C1691 C 0.30428 0.1422 0.65317 0.0
C1692 C 0.89175 0.23118 0.60746 0.0
C1693 C 0.87549 0.21487 0.62155 0.0
H1694 H 0.90397 0.27181 0.59587 0.0
C1695 C 0.85903 0.22876 0.63576 0.0
H1696 H 0.90439 0.2214 0.59596 0.0
C1697 C 0.85927 0.25804 0.63618 0.0
C1698 C 0.87511 0.27418 0.62154 0.0
H1699 H 0.84602 0.21697 0.64664 0.0
H1700 H 0.84669 0.26801 0.64761 0.0
C1701 C 0.89127 0.26019 0.60716 0.0
C1702 C 0.713 0.89119 0.64967 0.0
C1703 C 0.69407 0.86967 0.64534 0.0
H1704 H 0.75063 0.90662 0.64329 0.0
C1705 C 0.69981 0.84516 0.63377 0.0
H1706 H 0.70878 0.91049 0.65818 0.0
C1707 C 0.72371 0.84286 0.62525 0.0
C1708 C 0.74237 0.865 0.62825 0.0
H1709 H 0.68538 0.82843 0.63008 0.0
H1710 H 0.72729 0.82415 0.61544 0.0
C1711 C 0.73698 0.88891 0.64115 0.0
C1712 C 0.36529 0.14981 0.26185 0.0
C1713 C 0.38155 0.1488 0.28146 0.0
H1714 H 0.36136 0.1467 0.2242 0.0
C1715 C 0.40651 0.14324 0.27846 0.0
H1716 H 0.34596 0.15389 0.26402 0.0
C1717 C 0.41517 0.13868 0.25599 0.0
C1718 C 0.39884 0.1391 0.23636 0.0
H1719 H 0.41911 0.14141 0.29352 0.0
H1720 H 0.43438 0.13401 0.254 0.0
C1721 C 0.374 0.1453 0.23928 0.0
C1722 C 0.85737 0.39359 0.27951 0.0
C1723 C 0.87324 0.379 0.29353 0.0
H1724 H 0.84873 0.40614 0.24451 0.0
C1725 C 0.8903 0.36241 0.28303 0.0
H1726 H 0.84417 0.4065 0.28745 0.0
C1727 C 0.89239 0.36156 0.2586 0.0
C1728 C 0.87793 0.37793 0.24479 0.0
H1729 H 0.90255 0.35087 0.29378 0.0
H1730 H 0.9064 0.3497 0.25072 0.0
C1731 C 0.86 0.39341 0.25516 0.0
C1732 C 0.59487 0.86457 0.20088 0.0
C1733 C 0.60001 0.8862 0.18502 0.0
H1734 H 0.59247 0.85235 0.23713 0.0
C1735 C 0.60668 0.91289 0.19495 0.0
H1736 H 0.58956 0.8437 0.19408 0.0
C1737 C 0.60821 0.91785 0.2196 0.0
C1738 C 0.60285 0.89645 0.23558 0.0
H1739 H 0.6107 0.93022 0.18362 0.0
H1740 H 0.61348 0.93883 0.22616 0.0
C1741 C 0.59619 0.86962 0.22573 0.0
C1742 C 0.13736 0.67726 0.30209 0.0
C1743 C 0.11964 0.65834 0.31207 0.0
H1744 H 0.15526 0.69173 0.27087 0.0
C1745 C 0.10576 0.63903 0.29651 0.0
H1746 H 0.14845 0.6924 0.31336 0.0
C1747 C 0.10962 0.6386 0.27188 0.0
C1748 C 0.12754 0.65745 0.26194 0.0
H1749 H 0.0916 0.62442 0.30334 0.0
H1750 H 0.09854 0.62345 0.26063 0.0
C1751 C 0.14129 0.67679 0.27757 0.0
C1752 C 0.39349 0.89645 0.78615 0.0
C1753 C 0.37494 0.87844 0.79581 0.0
H1754 H 0.41032 0.91147 0.75503 0.0
C1755 C 0.35902 0.86079 0.78079 0.0
H1756 H 0.40612 0.91023 0.79728 0.0
C1757 C 0.36151 0.86147 0.75634 0.0
C1758 C 0.37983 0.8799 0.74679 0.0
H1759 H 0.34466 0.8466 0.78786 0.0
H1760 H 0.34885 0.84801 0.74498 0.0
C1761 C 0.39591 0.89715 0.7619 0.0
C1762 C 0.09733 0.36762 0.73089 0.0
C1763 C 0.10542 0.39421 0.74056 0.0
H1764 H 0.08999 0.34152 0.69944 0.0
C1765 C 0.11313 0.41474 0.72447 0.0
H1766 H 0.09182 0.35087 0.74231 0.0
C1767 C 0.11244 0.40927 0.69993 0.0
C1768 C 0.10408 0.38292 0.69018 0.0
H1769 H 0.11959 0.43551 0.7308 0.0
H1770 H 0.11822 0.42602 0.68852 0.0
C1771 C 0.09664 0.36209 0.70612 0.0
C1772 C 0.64148 0.17759 0.77676 0.0
C1773 C 0.6292 0.15723 0.76106 0.0
H1774 H 0.64667 0.19427 0.81241 0.0
C1775 C 0.61195 0.13747 0.77084 0.0
H1776 H 0.6549 0.19325 0.77022 0.0
C1777 C 0.60724 0.13812 0.79534 0.0
C1778 C 0.61956 0.15856 0.81095 0.0
H1779 H 0.60196 0.12152 0.75954 0.0
H1780 H 0.59356 0.12283 0.802 0.0
C1781 C 0.63672 0.17827 0.80114 0.0
C1782 C 0.88821 0.66069 0.74354 0.0
C1783 C 0.89148 0.63393 0.73488 0.0
H1784 H 0.87543 0.68515 0.77201 0.0
C1785 C 0.88299 0.61081 0.74749 0.0
H1786 H 0.89391 0.67868 0.73346 0.0
C1787 C 0.87297 0.61448 0.76957 0.0
C1788 C 0.87124 0.64132 0.77907 0.0
H1789 H 0.88509 0.59001 0.74072 0.0
H1790 H 0.86808 0.59635 0.77976 0.0
C1791 C 0.87771 0.66436 0.76544 0.0
C1792 C 0.19774 0.34558 0.13877 0.0
C1793 C 0.19178 0.37014 0.15012 0.0
H1794 H 0.22524 0.3248 0.12024 0.0
C1795 C 0.2105 0.39201 0.15396 0.0
H1796 H 0.18349 0.32857 0.13545 0.0
C1797 C 0.23441 0.38999 0.14514 0.0
C1798 C 0.23994 0.36602 0.13239 0.0
H1799 H 0.20612 0.41135 0.16229 0.0
H1800 H 0.24787 0.40791 0.14692 0.0
C1801 C 0.22154 0.34357 0.12991 0.0
C1802 C 0.23191 0.63805 0.86805 0.0
C1803 C 0.24077 0.65539 0.88746 0.0
H1804 H 0.20001 0.62281 0.84604 0.0
C1805 C 0.22476 0.67399 0.89704 0.0
H1806 H 0.24349 0.62314 0.86046 0.0
C1807 C 0.19995 0.6736 0.88894 0.0
C1808 C 0.1905 0.65481 0.87086 0.0
H1809 H 0.231 0.68789 0.91179 0.0
H1810 H 0.18766 0.68679 0.8979 0.0
C1811 C 0.20696 0.63789 0.85972 0.0
C1812 C 0.3837 0.2975 0.88449 0.0
C1813 C 0.36176 0.31003 0.8902 0.0
H1814 H 0.40131 0.25964 0.8785 0.0
C1815 C 0.34002 0.29216 0.89353 0.0
H1816 H 0.40092 0.31023 0.88195 0.0
C1817 C 0.34041 0.26301 0.89188 0.0
C1818 C 0.36242 0.25061 0.88651 0.0
H1819 H 0.32276 0.30066 0.8982 0.0
H1820 H 0.32346 0.25009 0.89509 0.0
C1821 C 0.38397 0.26836 0.88253 0.0
C1822 C 0.77194 0.38 0.88916 0.0
C1823 C 0.76005 0.38947 0.90921 0.0
H1824 H 0.80626 0.37856 0.87123 0.0
C1825 C 0.77469 0.40286 0.92791 0.0
H1826 H 0.76122 0.36944 0.87454 0.0
C1827 C 0.80061 0.4077 0.92614 0.0
C1828 C 0.81227 0.39966 0.90548 0.0
H1829 H 0.76607 0.41014 0.94371 0.0
H1830 H 0.81131 0.41899 0.94042 0.0
C1831 C 0.79775 0.38523 0.88725 0.0
C1832 C 0.62097 0.7405 0.85694 0.0
C1833 C 0.61944 0.75627 0.87794 0.0
H1834 H 0.63741 0.70646 0.84025 0.0
C1835 C 0.63641 0.75337 0.89679 0.0
H1836 H 0.60826 0.74284 0.84204 0.0
C1837 C 0.65353 0.73372 0.89539 0.0
C1838 C 0.65305 0.71561 0.87559 0.0
H1839 H 0.63527 0.76467 0.91343 0.0
H1840 H 0.66458 0.73021 0.91119 0.0
C1841 C 0.638 0.72033 0.85567 0.0
C1842 C 0.80297 0.63717 0.15881 0.0
C1843 C 0.81555 0.65211 0.14118 0.0
H1844 H 0.76776 0.62291 0.17283 0.0
C1845 C 0.80151 0.66397 0.12347 0.0
H1846 H 0.81323 0.62691 0.17222 0.0
C1847 C 0.77537 0.66089 0.1234 0.0
C1848 C 0.76286 0.64628 0.14127 0.0
H1849 H 0.81075 0.67551 0.10965 0.0
H1850 H 0.76496 0.67014 0.10946 0.0
C1851 C 0.77691 0.63462 0.15906 0.0
C1852 C 0.38633 0.73087 0.13818 0.0
C1853 C 0.36752 0.71485 0.12477 0.0
H1854 H 0.40228 0.77158 0.14935 0.0
C1855 C 0.34955 0.72914 0.11247 0.0
H1856 H 0.40058 0.72081 0.14777 0.0
C1857 C 0.35095 0.75839 0.11276 0.0
C1858 C 0.36989 0.77441 0.126 0.0
H1859 H 0.33491 0.71769 0.1017 0.0
H1860 H 0.33733 0.76847 0.10237 0.0
C1861 C 0.38724 0.76011 0.1391 0.0
C1862 C 0.62738 0.26058 0.15896 0.0
C1863 C 0.63242 0.24885 0.1369 0.0
H1864 H 0.6335 0.29633 0.18231 0.0
C1865 C 0.64984 0.26229 0.1224 0.0
H1866 H 0.61433 0.24988 0.17051 0.0
C1867 C 0.66029 0.28875 0.12883 0.0
C1868 C 0.65386 0.30159 0.15011 0.0
H1869 H 0.65409 0.25308 0.10547 0.0
H1870 H 0.67175 0.29996 0.11625 0.0
C1871 C 0.6385 0.28676 0.16577 0.0
C1872 C 0.85352 0.72855 0.60694 0.0
C1873 C 0.87039 0.71531 0.62141 0.0
H1874 H 0.84074 0.76683 0.59506 0.0
C1875 C 0.88791 0.73266 0.63543 0.0
H1876 H 0.83973 0.71628 0.59583 0.0
C1877 C 0.88818 0.76191 0.63535 0.0
C1878 C 0.8711 0.77511 0.6211 0.0
H1879 H 0.90178 0.72368 0.64635 0.0
H1880 H 0.90178 0.77425 0.64664 0.0
C1881 C 0.8539 0.75779 0.60674 0.0
C1882 C 0.30774 0.88647 0.6256 0.0
C1883 C 0.32165 0.88971 0.64709 0.0
H1884 H 0.27172 0.88618 0.60823 0.0
C1885 C 0.30887 0.8933 0.66818 0.0
H1886 H 0.31694 0.88368 0.60904 0.0
C1887 C 0.28305 0.89504 0.66769 0.0
C1888 C 0.2693 0.89302 0.64614 0.0
H1889 H 0.31892 0.89577 0.6851 0.0
H1890 H 0.27397 0.89857 0.6842 0.0
C1891 C 0.28182 0.88803 0.62514 0.0
C1892 C 0.12527 0.20052 0.6532 0.0
C1893 C 0.14674 0.20028 0.63974 0.0
H1894 H 0.09325 0.22192 0.66134 0.0
C1895 C 0.15556 0.22409 0.62821 0.0
H1896 H 0.11828 0.1822 0.66225 0.0
C1897 C 0.14088 0.24624 0.62692 0.0
C1898 C 0.11781 0.24527 0.63806 0.0
H1899 H 0.17187 0.22407 0.61739 0.0
H1900 H 0.14659 0.26257 0.61519 0.0
C1901 C 0.11079 0.22295 0.65232 0.0
C1902 C 0.71334 0.13966 0.65981 0.0
C1903 C 0.6955 0.14916 0.64395 0.0
H1904 H 0.75022 0.12593 0.66423 0.0
C1905 C 0.70299 0.15627 0.62115 0.0
H1906 H 0.70812 0.13368 0.67739 0.0
C1907 C 0.72682 0.15161 0.61365 0.0
C1908 C 0.744 0.14014 0.62882 0.0
H1909 H 0.68986 0.16383 0.6085 0.0
H1910 H 0.73145 0.1558 0.59553 0.0
C1911 C 0.73743 0.13515 0.65227 0.0
C1912 C 0.86009 0.29086 0.40933 0.0
C1913 C 0.86922 0.30508 0.38951 0.0
H1914 H 0.85196 0.25154 0.42568 0.0
C1915 C 0.87745 0.28871 0.37064 0.0
H1916 H 0.85379 0.30239 0.42437 0.0
C1917 C 0.87694 0.25951 0.37168 0.0
C1918 C 0.86776 0.24539 0.39142 0.0
H1919 H 0.88495 0.29853 0.35514 0.0
H1920 H 0.88367 0.24789 0.35689 0.0
C1921 C 0.85915 0.26157 0.41015 0.0
C1922 C 0.69061 0.8498 0.38749 0.0
C1923 C 0.68268 0.87038 0.37285 0.0
H1924 H 0.72083 0.83555 0.40795 0.0
C1925 C 0.70053 0.89033 0.36445 0.0
H1926 H 0.67717 0.83421 0.39413 0.0
C1927 C 0.72564 0.89096 0.37215 0.0
C1928 C 0.73309 0.8718 0.3885 0.0
H1929 H 0.69478 0.90662 0.35335 0.0
H1930 H 0.73872 0.90766 0.36677 0.0
C1931 C 0.71553 0.85067 0.39544 0.0
C1932 C 0.15673 0.77605 0.40408 0.0
C1933 C 0.13239 0.76662 0.39616 0.0
H1934 H 0.18156 0.8113 0.41501 0.0
C1935 C 0.11583 0.78563 0.38863 0.0
H1936 H 0.16995 0.76166 0.40962 0.0
C1937 C 0.12248 0.81382 0.39156 0.0
C1938 C 0.14573 0.82329 0.40211 0.0
H1939 H 0.09719 0.77878 0.38179 0.0
H1940 H 0.10879 0.82811 0.38703 0.0
C1941 C 0.16341 0.80439 0.40705 0.0
C1942 C 0.28836 0.13415 0.43261 0.0
C1943 C 0.26908 0.15012 0.42533 0.0
H1944 H 0.32786 0.13092 0.43534 0.0
C1945 C 0.27532 0.17697 0.41737 0.0
H1946 H 0.28413 0.1134 0.43882 0.0
C1947 C 0.30037 0.1874 0.41626 0.0
C1948 C 0.31965 0.17098 0.42257 0.0
H1949 H 0.26084 0.18992 0.41195 0.0
H1950 H 0.3047 0.20801 0.40979 0.0
C1951 C 0.31339 0.14433 0.43093 0.0
C1952 C 0.58365 0.88114 0.79863 0.0
C1953 C 0.60658 0.88871 0.81074 0.0
H1954 H 0.56292 0.87728 0.76563 0.0
C1955 C 0.62684 0.89904 0.79732 0.0
H1956 H 0.56756 0.87342 0.8083 0.0
C1957 C 0.62429 0.9011 0.77241 0.0
C1958 C 0.60126 0.89332 0.7603 0.0
H1959 H 0.64476 0.90518 0.80605 0.0
H1960 H 0.64028 0.90901 0.7627 0.0
C1961 C 0.58103 0.88343 0.77399 0.0
C1962 C 0.11072 0.61203 0.71888 0.0
C1963 C 0.1088 0.63358 0.73595 0.0
H1964 H 0.1102 0.59902 0.6823 0.0
C1965 C 0.10573 0.66019 0.72739 0.0
H1966 H 0.11316 0.59121 0.72443 0.0
C1967 C 0.10384 0.6647 0.70272 0.0
C1968 C 0.10513 0.64281 0.68576 0.0
H1969 H 0.10373 0.67735 0.73966 0.0
H1970 H 0.10074 0.68527 0.69696 0.0
C1971 C 0.10906 0.61654 0.69444 0.0
C1972 C 0.40802 0.17379 0.76168 0.0
C1973 C 0.3949 0.15723 0.74398 0.0
H1974 H 0.41256 0.18327 0.79867 0.0
C1975 C 0.37395 0.13957 0.74973 0.0
H1976 H 0.42408 0.18771 0.75761 0.0
C1977 C 0.36724 0.13713 0.77315 0.0
C1978 C 0.38159 0.15208 0.79103 0.0
H1979 H 0.36327 0.1269 0.73624 0.0
H1980 H 0.35171 0.12252 0.77733 0.0
C1981 C 0.40149 0.17112 0.78511 0.0
C1982 C 0.85921 0.39291 0.73612 0.0
C1983 C 0.87657 0.37286 0.73719 0.0
H1984 H 0.84058 0.42311 0.75562 0.0
C1985 C 0.88528 0.36432 0.75901 0.0
H1986 H 0.85273 0.40018 0.71933 0.0
C1987 C 0.87813 0.37719 0.77965 0.0
C1988 C 0.8625 0.39896 0.77854 0.0
H1989 H 0.89897 0.34918 0.76001 0.0
H1990 H 0.88671 0.37175 0.79618 0.0
C1991 C 0.85233 0.40607 0.75677 0.0
C1992 C 0.6024 0.11416 0.19268 0.0
C1993 C 0.60281 0.14084 0.18342 0.0
H1994 H 0.60224 0.08922 0.22336 0.0
C1995 C 0.60512 0.16356 0.19994 0.0
H1996 H 0.60061 0.09603 0.18088 0.0
C1997 C 0.60632 0.15963 0.22471 0.0
C1998 C 0.60499 0.13281 0.2339 0.0
H1999 H 0.60543 0.1845 0.19375 0.0
H2000 H 0.6072 0.17762 0.23659 0.0
C2001 C 0.60329 0.11025 0.2173 0.0
C2002 C 0.87724 0.63829 0.24761 0.0
C2003 C 0.89813 0.65639 0.24247 0.0
H2004 H 0.85483 0.61991 0.2745 0.0
C2005 C 0.91122 0.67209 0.2607 0.0
H2006 H 0.86662 0.62617 0.23375 0.0
C2007 C 0.90456 0.66827 0.28398 0.0
C2008 C 0.88457 0.64896 0.2892 0.0
H2009 H 0.92724 0.68629 0.25711 0.0
H2010 H 0.91553 0.67984 0.29794 0.0
C2011 C 0.87039 0.63473 0.27085 0.0
C2012 C 0.38203 0.87738 0.27928 0.0
C2013 C 0.36609 0.89884 0.27749 0.0
H2014 H 0.40446 0.85008 0.26064 0.0
C2015 C 0.35688 0.90582 0.25532 0.0
H2016 H 0.38962 0.87174 0.29614 0.0
C2017 C 0.36501 0.89295 0.23505 0.0
C2018 C 0.38285 0.87347 0.23688 0.0
H2019 H 0.34482 0.92252 0.25363 0.0
H2020 H 0.3589 0.89991 0.21803 0.0
C2021 C 0.39064 0.86501 0.25902 0.0
C2022 C 0.12365 0.4026 0.30253 0.0
C2023 C 0.10415 0.39005 0.31576 0.0
H2024 H 0.13663 0.41397 0.26803 0.0
C2025 C 0.08201 0.3799 0.30334 0.0
H2026 H 0.14098 0.41072 0.31146 0.0
C2027 C 0.07947 0.38183 0.27863 0.0
C2028 C 0.09899 0.39391 0.26513 0.0
H2029 H 0.06651 0.37032 0.31282 0.0
H2030 H 0.06198 0.3736 0.27007 0.0
C2031 C 0.1212 0.40432 0.27756 0.0
C2032 C 0.78541 0.63709 0.89958 0.0
C2033 C 0.769 0.65098 0.91356 0.0
H2034 H 0.82268 0.63593 0.8876 0.0
C2035 C 0.77828 0.67525 0.92646 0.0
H2036 H 0.77902 0.61825 0.8896 0.0
C2037 C 0.8034 0.68552 0.92513 0.0
C2038 C 0.8195 0.67179 0.91076 0.0
H2039 H 0.76612 0.6864 0.93749 0.0
H2040 H 0.81018 0.70422 0.93512 0.0
C2041 C 0.81038 0.6473 0.8983 0.0
C2042 C 0.80512 0.39036 0.12452 0.0
C2043 C 0.81883 0.39277 0.14613 0.0
H2044 H 0.76931 0.39124 0.10695 0.0
C2045 C 0.80593 0.39628 0.16716 0.0
H2046 H 0.81444 0.38772 0.108 0.0
C2047 C 0.78021 0.39864 0.16655 0.0
C2048 C 0.76666 0.39735 0.14491 0.0
H2049 H 0.81582 0.39812 0.18418 0.0
H2050 H 0.77105 0.40195 0.18305 0.0
C2051 C 0.77927 0.39256 0.12392 0.0
C2052 C 0.64454 0.75141 0.13194 0.0
C2053 C 0.6207 0.75228 0.14132 0.0
H2054 H 0.67513 0.72696 0.12637 0.0
C2055 C 0.61254 0.73271 0.15774 0.0
H2056 H 0.65126 0.76601 0.11905 0.0
C2057 C 0.62641 0.71034 0.16204 0.0
C2058 C 0.6481 0.70712 0.14939 0.0
H2059 H 0.59445 0.73336 0.16561 0.0
H2060 H 0.6183 0.69362 0.17241 0.0
C2061 C 0.65845 0.72908 0.13633 0.0
C2062 C 0.2024 0.66457 0.12719 0.0
C2063 C 0.19417 0.6525 0.14815 0.0
H2064 H 0.2307 0.66761 0.10144 0.0
C2065 C 0.2109 0.63806 0.16165 0.0
H2066 H 0.18994 0.67585 0.11643 0.0
C2067 C 0.23443 0.63329 0.15294 0.0
C2068 C 0.24137 0.64292 0.1307 0.0
H2069 H 0.20491 0.62818 0.17767 0.0
H2070 H 0.24614 0.62011 0.1626 0.0
C2071 C 0.22564 0.65966 0.11849 0.0
C2072 C 0.38593 0.26267 0.13687 0.0
C2073 C 0.36806 0.2756 0.12331 0.0
H2074 H 0.40058 0.22474 0.14716 0.0
C2075 C 0.35036 0.25805 0.10971 0.0
H2076 H 0.39993 0.27519 0.14758 0.0
C2077 C 0.35032 0.22885 0.10994 0.0
C2078 C 0.36806 0.21591 0.12365 0.0
H2079 H 0.3366 0.26687 0.09855 0.0
H2080 H 0.33615 0.21635 0.09941 0.0
C2081 C 0.38605 0.23348 0.1369 0.0
C2082 C 0.22357 0.36247 0.8817 0.0
C2083 C 0.23318 0.3877 0.89277 0.0
H2084 H 0.19065 0.33833 0.86744 0.0
C2085 C 0.21747 0.40915 0.89555 0.0
H2086 H 0.23528 0.34551 0.87965 0.0
C2087 C 0.19236 0.40514 0.88845 0.0
C2088 C 0.18231 0.37942 0.87883 0.0
H2089 H 0.22445 0.42882 0.90393 0.0
H2090 H 0.18046 0.42178 0.89147 0.0
C2091 C 0.19814 0.35831 0.87484 0.0
C2092 C 0.65281 0.27859 0.89816 0.0
C2093 C 0.62776 0.26937 0.89279 0.0
H2094 H 0.67881 0.31338 0.90719 0.0
C2095 C 0.61038 0.28866 0.88808 0.0
H2096 H 0.66666 0.26406 0.90144 0.0
C2097 C 0.61732 0.31679 0.89126 0.0
C2098 C 0.64169 0.32594 0.89924 0.0
H2099 H 0.59107 0.28203 0.88326 0.0
H2100 H 0.60322 0.33121 0.88885 0.0
C2101 C 0.65978 0.30681 0.90135 0.0
C2102 C 0.36202 0.76465 0.87783 0.0
C2103 C 0.37267 0.75106 0.89685 0.0
H2104 H 0.35451 0.80333 0.86241 0.0
C2105 C 0.38328 0.76787 0.916 0.0
H2106 H 0.35361 0.75257 0.86279 0.0
C2107 C 0.38328 0.79715 0.91609 0.0
C2108 C 0.37306 0.81085 0.89683 0.0
H2109 H 0.39148 0.75834 0.93109 0.0
H2110 H 0.39192 0.80912 0.93109 0.0
C2111 C 0.36244 0.79392 0.8777 0.0
C2112 C 0.14074 0.03821 0.4165 0.0
C2113 C 0.15767 0.05473 0.40362 0.0
H2114 H 0.12899 0.99774 0.42701 0.0
C2115 C 0.17477 0.0424 0.38926 0.0
H2116 H 0.12781 0.04737 0.42813 0.0
C2117 C 0.17468 1.01354 0.38772 0.0
C2118 C 0.15793 0.9971 0.40103 0.0
H2119 H 0.18809 0.05502 0.37931 0.0
H2120 H 0.18786 1.00412 0.37658 0.0
C2121 C 0.14123 1.00974 0.41561 0.0
C2122 C 0.98836 0.11777 0.39008 0.0
C2123 C 0.97296 0.13345 0.40391 0.0
H2124 H 0.02561 0.10894 0.38205 0.0
C2125 C 0.98432 0.15187 0.42145 0.0
H2126 H 0.98027 0.10349 0.37629 0.0
C2127 C 0.0103 0.15449 0.42514 0.0
C2128 C 0.02582 0.13886 0.41137 0.0
H2129 H 0.97312 0.16419 0.43253 0.0
H2130 H 0.01824 0.1689 0.43891 0.0
C2131 C 0.01447 0.12058 0.39365 0.0
C2132 C 0.88253 0.04131 0.4024 0.0
C2133 C 0.86248 0.05487 0.3928 0.0
H2134 H 0.89744 1.00316 0.41096 0.0
C2135 C 0.84222 0.03788 0.38228 0.0
H2136 H 0.8983 0.05329 0.41116 0.0
C2137 C 0.84221 1.00855 0.3813 0.0
C2138 C 0.86207 0.99498 0.39143 0.0
H2139 H 0.82631 0.04725 0.37478 0.0
H2140 H 0.82644 0.99648 0.37267 0.0
C2141 C 0.88215 1.01214 0.40207 0.0
C2142 C 0.98165 0.91533 0.41457 0.0
C2143 C 0.97163 0.88774 0.41082 0.0
H2144 H 0.01442 0.94287 0.42259 0.0
C2145 C 0.98802 0.86658 0.41079 0.0
H2146 H 0.96959 0.93214 0.41476 0.0
C2147 C 0.01371 0.87277 0.41513 0.0
C2148 C 0.02361 0.90027 0.41961 0.0
H2149 H 0.98093 0.84508 0.40803 0.0
H2150 H 0.02559 0.85587 0.41603 0.0
C2151 C 0.00733 0.92149 0.4191 0.0
C2152 C 0.15576 0.99307 0.65829 0.0
C2153 C 0.17308 0.97902 0.64559 0.0
H2154 H 0.14203 0.03238 0.66642 0.0
C2155 C 0.1923 0.99414 0.63409 0.0
H2156 H 0.14093 0.98173 0.66746 0.0
C2157 C 0.1922 0.02265 0.63258 0.0
C2158 C 0.17346 0.03649 0.64334 0.0
H2159 H 0.20586 0.98375 0.6241 0.0
H2160 H 0.20546 0.03337 0.62126 0.0
C2161 C 0.15633 0.02186 0.6576 0.0
C2162 C 0.99511 0.1182 0.63488 0.0
C2163 C 0.97874 0.123 0.61584 0.0
H2164 H 0.03195 0.10868 0.64586 0.0
C2165 C 0.98788 0.12265 0.59282 0.0
H2166 H 0.98864 0.118 0.65282 0.0
C2167 C 0.01268 0.11758 0.58893 0.0
C2168 C 0.02907 0.11296 0.60793 0.0
H2169 H 0.97583 0.12613 0.5777 0.0
H2170 H 0.0191 0.11742 0.57097 0.0
C2171 C 0.02 0.1131 0.63095 0.0
C2172 C 0.84763 0.97851 0.61384 0.0
C2173 C 0.86798 0.96499 0.62287 0.0
H2174 H 0.83251 0.01684 0.60588 0.0
C2175 C 0.8883 0.9819 0.63331 0.0
H2176 H 0.83176 0.96651 0.60526 0.0
C2177 C 0.88831 1.01113 0.63448 0.0
C2178 C 0.86839 0.02474 0.62457 0.0
H2179 H 0.90438 0.97252 0.64044 0.0
H2180 H 0.90426 0.02316 0.64286 0.0
C2181 C 0.84797 1.00771 0.61438 0.0
C2182 C 0.99404 0.90322 0.64103 0.0
C2183 C 0.97777 0.89577 0.62146 0.0
H2184 H 0.03186 0.90732 0.6548 0.0
C2185 C 0.98806 0.8883 0.59993 0.0
H2186 H 0.9867 0.90899 0.65792 0.0
C2187 C 0.01385 0.88786 0.59806 0.0
C2188 C 0.03019 0.89481 0.61764 0.0
H2189 H 0.97618 0.88263 0.58443 0.0
H2190 H 0.02098 0.88177 0.58116 0.0
C2191 C 0.02 0.90262 0.63917 0.0
C2192 C 0.31925 0.13887 0.03631 0.0
C2193 C 0.32576 0.11198 0.04034 0.0
H2194 H 0.32214 0.17226 0.01231 0.0
C2195 C 0.33076 0.09461 0.02117 0.0
H2196 H 0.31486 0.15236 0.05092 0.0
C2197 C 0.33396 0.10562 0.99896 0.0
C2198 C 0.33267 0.13413 0.99616 0.0
H2199 H 0.33577 0.07374 0.02404 0.0
H2200 H 0.34118 0.09281 0.98519 0.0
C2201 C 0.32339 0.15025 0.0143 0.0
C2202 C 0.92796 0.41696 0.02065 0.0
C2203 C 0.91635 0.39582 0.03386 0.0
H2204 H 0.93169 0.43464 0.98684 0.0
C2205 C 0.9019 0.37369 0.0222 0.0
H2206 H 0.93952 0.43406 0.02916 0.0
C2207 C 0.89727 0.37407 0.99782 0.0
C2208 C 0.90718 0.39655 0.985 0.0
H2209 H 0.89359 0.35658 0.03197 0.0
H2210 H 0.88503 0.35756 0.98929 0.0
C2211 C 0.92337 0.41736 0.99643 0.0
C2212 C 0.59388 0.84629 0.98397 0.0
C2213 C 0.60765 0.86749 0.97207 0.0
H2214 H 0.58281 0.82964 0.01729 0.0
C2215 C 0.62332 0.88677 0.98604 0.0
H2216 H 0.58135 0.83118 0.97403 0.0
C2217 C 0.6246 0.88546 0.01089 0.0
C2218 C 0.60994 0.86515 0.02292 0.0
H2219 H 0.63429 0.90339 0.97777 0.0
H2220 H 0.63671 0.90096 0.02082 0.0
C2221 C 0.59484 0.84527 1.00896 0.0
C2222 C 0.13999 0.64014 0.01689 0.0
C2223 C 0.11566 0.63393 0.02493 0.0
H2224 H 0.16357 0.64655 0.98724 0.0
C2225 C 0.09597 0.63036 1.00764 0.0
H2226 H 0.15583 0.64228 0.02924 0.0
C2227 C 0.10041 0.63269 0.98329 0.0
C2228 C 0.1248 0.63834 0.97524 0.0
H2229 H 0.07694 0.62543 0.01294 0.0
H2230 H 0.08473 0.62943 0.97074 0.0
C2231 C 0.14446 0.64229 0.99253 0.0
C2232 C 0.329 0.90817 0.01675 0.0
C2233 C 0.33857 0.89206 0.99878 0.0
H2234 H 0.31705 0.90904 0.05242 0.0
C2235 C 0.3374 0.86317 1.00049 0.0
H2236 H 0.32953 0.93048 0.01554 0.0
C2237 C 0.33134 0.85122 0.0218 0.0
C2238 C 0.32613 0.86814 0.04119 0.0
H2239 H 0.34476 0.85035 0.98681 0.0
H2240 H 0.3345 0.82966 0.02414 0.0
C2241 C 0.3219 0.89591 0.03777 0.0
C2242 C 0.11134 0.40897 0.98666 0.0
C2243 C 0.08723 0.39952 0.97788 0.0
H2244 H 0.1356 0.41928 0.01703 0.0
C2245 C 0.06897 0.39224 0.99459 0.0
H2246 H 0.12599 0.41477 0.97457 0.0
C2247 C 0.07449 0.39478 0.01917 0.0
C2248 C 0.09853 0.40463 0.02797 0.0
H2249 H 0.05011 0.38497 0.98871 0.0
H2250 H 0.05956 0.38993 0.03112 0.0
C2251 C 0.11684 0.41155 0.01119 0.0
C2252 C 0.62536 0.1525 0.98373 0.0
C2253 C 0.60969 0.16984 0.97188 0.0
H2254 H 0.63919 0.13857 0.01702 0.0
C2255 C 0.59584 0.18713 0.98594 0.0
H2256 H 0.63633 0.13887 0.97366 0.0
C2257 C 0.59661 0.18606 0.01089 0.0
C2258 C 0.61186 0.16825 0.0228 0.0
H2259 H 0.58324 0.20047 0.97757 0.0
H2260 H 0.58435 0.19838 0.02072 0.0
C2261 C 0.62684 0.15221 1.0087 0.0
C2262 C 0.94416 0.66547 0.02044 0.0
C2263 C 0.92256 0.66833 0.03314 0.0
H2264 H 0.96239 0.67313 0.98807 0.0
C2265 C 0.90534 0.68673 0.02576 0.0
H2266 H 0.95783 0.6517 0.02623 0.0
C2267 C 0.90793 0.69903 1.00388 0.0
C2268 C 0.92773 0.6928 0.98962 0.0
H2269 H 0.88862 0.68918 0.03556 0.0
H2270 H 0.89285 0.71025 0.99695 0.0
C2271 C 0.94691 0.678 0.99886 0.0
C2272 C 0.9914 0.3826 0.13929 0.0
C2273 C 0.97951 0.37142 0.15904 0.0
H2274 H 0.0256 0.39522 0.12314 0.0
C2275 C 0.99439 0.36334 0.17807 0.0
H2276 H 0.98083 0.39059 0.12488 0.0
C2277 C 0.02059 0.36729 0.17757 0.0
C2278 C 0.0323 0.37883 0.1578 0.0
H2279 H 0.98578 0.35476 0.19359 0.0
H2280 H 0.03164 0.36185 0.19279 0.0
C2281 C 0.01734 0.38574 0.13847 0.0
C2282 C 0.01533 0.68257 0.85542 0.0
C2283 C 0.02897 0.66377 0.86783 0.0
H2284 H 0.97935 0.69845 0.84958 0.0
C2285 C 0.01634 0.64554 0.88309 0.0
H2286 H 0.02465 0.69672 0.84342 0.0
C2287 C 0.99112 0.64713 0.88714 0.0
C2288 C 0.97752 0.66639 0.87545 0.0
H2289 H 0.0261 0.63018 0.89228 0.0
H2290 H 0.98215 0.63304 0.89943 0.0
C2291 C 0.98958 0.68365 0.859 0.0
C2292 C 0.35608 0.04615 0.90234 0.0
C2293 C 0.36886 0.06111 0.88473 0.0
H2294 H 0.34496 1.00641 0.91657 0.0
C2295 C 0.38036 0.04547 0.86733 0.0
H2296 H 0.34694 0.05711 0.91609 0.0
C2297 C 0.37994 0.01623 0.86807 0.0
C2298 C 0.36754 1.00127 0.88595 0.0
H2299 H 0.39072 0.05595 0.85361 0.0
H2300 H 0.39023 1.00554 0.85504 0.0
C2301 C 0.35513 0.01687 0.90272 0.0
C2302 C 0.00691 0.40444 0.85178 0.0
C2303 C 0.0199 0.38735 0.86649 0.0
H2304 H 0.97279 0.42295 0.84491 0.0
C2305 C 0.00668 0.37211 0.88352 0.0
H2306 H 0.01675 0.41696 0.8389 0.0
C2307 C 0.98117 0.37474 0.88637 0.0
C2308 C 0.96858 0.39341 0.87284 0.0
H2309 H 0.01632 0.35899 0.89525 0.0
H2310 H 0.97156 0.36315 0.89995 0.0
C2311 C 0.98164 0.40781 0.8552 0.0
C2312 C 0.63812 0.99922 0.92877 0.0
C2313 C 0.64353 0.98263 0.9092 0.0
H2314 H 0.62329 0.0368 0.94011 0.0
C2315 C 0.64559 0.9942 0.88691 0.0
H2316 H 0.6364 0.99045 0.94609 0.0
C2317 C 0.63682 0.01997 0.88324 0.0
C2318 C 0.62751 0.03461 0.90222 0.0
H2319 H 0.65017 0.98176 0.87173 0.0
H2320 H 0.63516 0.02723 0.86539 0.0
C2321 C 0.63025 0.02543 0.92528 0.0
C2322 C 0.99414 0.64615 0.13257 0.0
C2323 C 0.98044 0.66066 0.14875 0.0
H2324 H 0.02966 0.63483 0.12256 0.0
C2325 C 0.99338 0.67822 0.16612 0.0
H2326 H 0.98482 0.63188 0.11936 0.0
C2327 C 0.01966 0.681 0.16721 0.0
C2328 C 0.03324 0.66559 0.15144 0.0
H2329 H 0.98323 0.68945 0.17896 0.0
H2330 H 0.02934 0.69457 0.18071 0.0
C2331 C 0.02007 0.64811 0.13423 0.0
C2332 C 0.39069 0.98283 0.14087 0.0
C2333 C 0.37248 0.96603 0.12719 0.0
H2334 H 0.40624 0.02396 0.15144 0.0
C2335 C 0.35574 0.97994 0.11302 0.0
H2336 H 0.40476 0.97352 0.15126 0.0
C2337 C 0.35733 1.00923 0.11233 0.0
C2338 C 0.37528 0.0259 0.12634 0.0
H2339 H 0.34126 0.96817 0.10235 0.0
H2340 H 0.34435 0.01887 0.10086 0.0
C2341 C 0.39175 1.01209 0.14079 0.0
C2342 C 0.63854 0.99303 0.1224 0.0
C2343 C 0.63765 0.97355 0.1036 0.0
H2344 H 0.63153 0.03422 0.13264 0.0
C2345 C 0.63789 0.98233 0.08029 0.0
H2346 H 0.63832 0.9864 0.14052 0.0
C2347 C 0.63327 1.00944 0.07568 0.0
C2348 C 0.62934 0.02768 0.09453 0.0
H2349 H 0.63786 0.96752 0.06564 0.0
H2350 H 0.62961 1.01503 0.05758 0.0
C2351 C 0.63453 0.02034 0.11784 0.0
C2352 C 0.65236 0.54288 0.88824 0.0
C2353 C 0.66682 0.55638 0.90687 0.0
H2354 H 0.64147 0.50408 0.87005 0.0
C2355 C 0.68351 0.54186 0.9201 0.0
H2356 H 0.63972 0.55404 0.8776 0.0
C2357 C 0.68386 0.51346 0.91635 0.0
C2358 C 0.66809 0.49948 0.89884 0.0
H2359 H 0.6949 0.55207 0.93448 0.0
H2360 H 0.69509 0.50225 0.92833 0.0
C2361 C 0.65346 0.51456 0.88388 0.0
C2362 C 0.48766 0.65137 0.92734 0.0
C2363 C 0.47639 0.63521 0.9083 0.0
H2364 H 0.5213 0.66503 0.9468 0.0
C2365 C 0.49162 0.61999 0.8939 0.0
H2366 H 0.47657 0.66319 0.93893 0.0
C2367 C 0.51756 0.62116 0.89834 0.0
C2368 C 0.5288 0.63729 0.91749 0.0
H2369 H 0.48353 0.60739 0.87901 0.0
H2370 H 0.5287 0.61005 0.88635 0.0
C2371 C 0.51342 0.65232 0.93189 0.0
C2372 C 0.38482 0.54577 0.90693 0.0
C2373 C 0.36658 0.55989 0.8949 0.0
H2374 H 0.39768 0.507 0.91704 0.0
C2375 C 0.34774 0.54347 0.88174 0.0
H2376 H 0.39945 0.55734 0.91763 0.0
C2377 C 0.34734 0.51412 0.88061 0.0
C2378 C 0.36515 0.49998 0.89334 0.0
H2379 H 0.3333 0.55331 0.87222 0.0
H2380 H 0.33288 0.50246 0.86979 0.0
C2381 C 0.38391 0.51656 0.90645 0.0
C2382 C 0.48153 0.41983 0.91687 0.0
C2383 C 0.47218 0.3927 0.90996 0.0
H2384 H 0.51371 0.4472 0.92729 0.0
C2385 C 0.48917 0.37247 0.90682 0.0
H2386 H 0.469 0.43595 0.91945 0.0
C2387 C 0.51482 0.37898 0.91123 0.0
C2388 C 0.52406 0.40591 0.9188 0.0
H2389 H 0.48262 0.35134 0.90161 0.0
H2390 H 0.52715 0.36256 0.90977 0.0
C2391 C 0.50715 0.42629 0.92138 0.0
C2392 C 0.67912 0.49287 0.15469 0.0
C2393 C 0.65999 0.47715 0.14155 0.0
H2394 H 0.69375 0.5337 0.16687 0.0
C2395 C 0.64065 0.49045 0.13087 0.0
H2396 H 0.6943 0.48293 0.16296 0.0
C2397 C 0.64091 0.51896 0.13228 0.0
C2398 C 0.65988 0.53496 0.14527 0.0
H2399 H 0.62599 0.47898 0.12012 0.0
H2400 H 0.62682 0.5284 0.12203 0.0
C2401 C 0.67885 0.52172 0.15683 0.0
C2402 C 0.50635 0.61406 0.10022 0.0
C2403 C 0.5242 0.62216 0.11831 0.0
H2404 H 0.46828 0.61336 0.08793 0.0
C2405 C 0.51647 0.63564 0.13881 0.0
H2406 H 0.51169 0.60345 0.08428 0.0
C2407 C 0.49153 0.64152 0.14089 0.0
C2408 C 0.47374 0.6337 0.12263 0.0
H2409 H 0.52959 0.64127 0.15342 0.0
H2410 H 0.48615 0.65195 0.1569 0.0
C2411 C 0.48146 0.61981 0.10232 0.0
C2412 C 0.38601 0.51229 0.11585 0.0
C2413 C 0.3662 0.52527 0.12607 0.0
H2414 H 0.40222 0.47449 0.10698 0.0
C2415 C 0.34697 0.50771 0.13572 0.0
H2416 H 0.40077 0.52444 0.10733 0.0
C2417 C 0.34733 0.47847 0.13467 0.0
C2418 C 0.36731 0.46568 0.12455 0.0
H2419 H 0.33144 0.51655 0.14397 0.0
H2420 H 0.33185 0.46584 0.14171 0.0
C2421 C 0.38676 0.48326 0.11546 0.0
C2422 C 0.51764 0.39463 0.13878 0.0
C2423 C 0.52706 0.38686 0.11688 0.0
H2424 H 0.48518 0.40238 0.15829 0.0
C2425 C 0.51024 0.38111 0.0975 0.0
H2426 H 0.52994 0.39838 0.15424 0.0
C2427 C 0.48467 0.38301 0.09986 0.0
C2428 C 0.47514 0.39065 0.12172 0.0
H2429 H 0.51685 0.37503 0.08038 0.0
H2430 H 0.47236 0.37834 0.08448 0.0
C2431 C 0.49192 0.3966 0.14116 0.0
C2432 C 0.83564 0.602 0.49722 0.0
C2433 C 0.83435 0.6304 0.49385 0.0
H2434 H 0.83763 0.57089 0.52297 0.0
C2435 C 0.82514 0.64702 0.51169 0.0
H2436 H 0.84281 0.58882 0.48369 0.0
C2437 C 0.82123 0.63634 0.53399 0.0
C2438 C 0.82774 0.60958 0.53852 0.0
H2439 H 0.82391 0.66897 0.50926 0.0
H2440 H 0.81707 0.65029 0.54836 0.0
C2441 C 0.8326 0.59165 0.51969 0.0
C2442 C 0.39795 0.87405 0.49679 0.0
C2443 C 0.40789 0.89641 0.48385 0.0
H2444 H 0.39434 0.85675 0.531 0.0
C2445 C 0.42409 0.91728 0.49519 0.0
H2446 H 0.38572 0.85748 0.48833 0.0
C2447 C 0.42865 0.91708 0.5194 0.0
C2448 C 0.41703 0.89606 0.53274 0.0
H2449 H 0.43247 0.93447 0.48551 0.0
H2450 H 0.44023 0.93424 0.5278 0.0
C2451 C 0.40258 0.87384 0.52118 0.0
C2452 C 0.09964 0.38561 0.5172 0.0
C2453 C 0.10782 0.36208 0.52812 0.0
H2454 H 0.09266 0.40657 0.48527 0.0
C2455 C 0.11409 0.34008 0.5131 0.0
H2456 H 0.09341 0.40253 0.52776 0.0
C2457 C 0.11273 0.34201 0.48809 0.0
C2458 C 0.10559 0.36626 0.47742 0.0
H2459 H 0.12027 0.32147 0.52066 0.0
H2460 H 0.11753 0.32467 0.47713 0.0
C2461 C 0.09904 0.38789 0.49254 0.0
C2462 C 0.64046 0.1445 0.491 0.0
C2463 C 0.62085 0.13851 0.47388 0.0
H2464 H 0.65236 0.14574 0.52761 0.0
C2465 C 0.59697 0.13039 0.48217 0.0
H2466 H 0.65919 0.15071 0.48552 0.0
C2467 C 0.59304 0.12766 0.50658 0.0
C2468 C 0.61272 0.13325 0.52371 0.0
H2469 H 0.58136 0.12551 0.46977 0.0
H2470 H 0.57444 0.12081 0.51205 0.0
C2471 C 0.63648 0.14194 0.51542 0.0
C2472 C 0.82837 0.40247 0.51539 0.0
C2473 C 0.83585 0.38615 0.49647 0.0
H2474 H 0.82315 0.40474 0.55267 0.0
C2475 C 0.83702 0.35755 0.49905 0.0
H2476 H 0.8273 0.42454 0.51363 0.0
C2477 C 0.83552 0.34657 0.52138 0.0
C2478 C 0.83225 0.36402 0.54094 0.0
H2479 H 0.84297 0.34454 0.48479 0.0
H2480 H 0.84037 0.32555 0.52377 0.0
C2481 C 0.82602 0.39116 0.53764 0.0
C2482 C 0.57684 0.89502 0.51498 0.0
C2483 C 0.60071 0.90554 0.52378 0.0
H2484 H 0.55261 0.88457 0.48453 0.0
C2485 C 0.61886 0.91303 0.507 0.0
H2486 H 0.56202 0.88971 0.52694 0.0
C2487 C 0.61338 0.91034 0.48246 0.0
C2488 C 0.58944 0.9002 0.47369 0.0
H2489 H 0.63747 0.92129 0.51283 0.0
H2490 H 0.62789 0.91658 0.47037 0.0
C2491 C 0.57134 0.89237 0.49041 0.0
C2492 C 0.11834 0.68833 0.51235 0.0
C2493 C 0.11073 0.66432 0.52474 0.0
H2494 H 0.12295 0.70728 0.47849 0.0
C2495 C 0.10207 0.64044 0.51099 0.0
H2496 H 0.12513 0.70721 0.52203 0.0
C2497 C 0.10163 0.64019 0.48612 0.0
C2498 C 0.10905 0.6641 0.47366 0.0
H2499 H 0.09489 0.6218 0.51938 0.0
H2500 H 0.09455 0.62126 0.47662 0.0
C2501 C 0.11731 0.6883 0.48724 0.0
C2502 C 0.42067 0.19789 0.50737 0.0
C2503 C 0.43803 0.18894 0.49148 0.0
H2504 H 0.40344 0.19067 0.54044 0.0
C2505 C 0.4557 0.17113 0.49896 0.0
H2506 H 0.4067 0.21136 0.50171 0.0
C2507 C 0.45374 0.15916 0.52086 0.0
C2508 C 0.43425 0.16517 0.53552 0.0
H2509 H 0.46921 0.16403 0.48683 0.0
H2510 H 0.46616 0.14354 0.52548 0.0
C2511 C 0.41871 0.18589 0.52941 0.0
C2512 C 0.49761 0.86022 0.67374 0.0
C2513 C 0.48241 0.86887 0.65519 0.0
H2514 H 0.53506 0.85863 0.68786 0.0
C2515 C 0.49392 0.88059 0.63545 0.0
H2516 H 0.48929 0.85117 0.6892 0.0
C2517 C 0.51982 0.88392 0.63429 0.0
C2518 C 0.53508 0.87666 0.65327 0.0
H2519 H 0.4831 0.88894 0.6214 0.0
H2520 H 0.52781 0.89392 0.61907 0.0
C2521 C 0.52376 0.86438 0.67293 0.0
C2522 C 0.51933 0.19269 0.38272 0.0
C2523 C 0.52659 0.17429 0.36504 0.0
H2524 H 0.48905 0.20704 0.40221 0.0
C2525 C 0.50797 0.16008 0.35019 0.0
H2526 H 0.53329 0.20425 0.39419 0.0
C2527 C 0.48262 0.16248 0.35424 0.0
C2528 C 0.47545 0.17855 0.37358 0.0
H2529 H 0.51285 0.1455 0.33659 0.0
H2530 H 0.46872 0.14983 0.34351 0.0
C2531 C 0.49404 0.19441 0.38725 0.0
C2532 C 0.87789 0.54218 0.40351 0.0
C2533 C 0.87195 0.55675 0.38318 0.0
H2534 H 0.88342 0.50332 0.41893 0.0
C2535 C 0.86505 0.54067 0.36237 0.0
H2536 H 0.88386 0.55346 0.4198 0.0
C2537 C 0.86384 0.51124 0.3621 0.0
C2538 C 0.87006 0.49669 0.38246 0.0
H2539 H 0.86049 0.55085 0.34623 0.0
H2540 H 0.85797 0.49989 0.34584 0.0
C2541 C 0.87736 0.51298 0.40305 0.0
C2542 C 0.48281 0.87476 0.38437 0.0
C2543 C 0.46997 0.8937 0.37137 0.0
H2544 H 0.51807 0.85861 0.39216 0.0
C2545 C 0.48274 0.90849 0.35375 0.0
H2546 H 0.47347 0.86292 0.39795 0.0
C2547 C 0.50785 0.90498 0.34964 0.0
C2548 C 0.52108 0.88741 0.36368 0.0
H2549 H 0.47377 0.92392 0.34393 0.0
H2550 H 0.51743 0.91772 0.33675 0.0
C2551 C 0.50822 0.87201 0.38086 0.0
C2552 C 0.14354 0.48937 0.39141 0.0
C2553 C 0.1402 0.47964 0.41423 0.0
H2554 H 0.13541 0.52135 0.36776 0.0
C2555 C 0.13505 0.49796 0.43268 0.0
H2556 H 0.14785 0.47544 0.37709 0.0
C2557 C 0.12873 0.52438 0.42752 0.0
C2558 C 0.12717 0.53202 0.4039 0.0
H2559 H 0.13235 0.4906 0.45039 0.0
H2560 H 0.12188 0.53722 0.44149 0.0
C2561 C 0.13624 0.51539 0.38604 0.0
C2562 C 0.49657 0.1489 0.67567 0.0
C2563 C 0.4827 0.16256 0.65896 0.0
H2564 H 0.53266 0.13862 0.68732 0.0
C2565 C 0.49533 0.18063 0.64352 0.0
H2566 H 0.48728 0.13455 0.68754 0.0
C2567 C 0.52152 0.18409 0.64422 0.0
C2568 C 0.53543 0.16841 0.65946 0.0
H2569 H 0.48497 0.1914 0.6305 0.0
H2570 H 0.5309 0.1979 0.63199 0.0
C2571 C 0.52265 0.15139 0.67563 0.0
C2572 C 0.8861 0.51076 0.64269 0.0
C2573 C 0.87306 0.5248 0.62539 0.0
H2574 H 0.89638 0.47189 0.65549 0.0
C2575 C 0.85824 0.50836 0.6084 0.0
H2576 H 0.89812 0.52243 0.65583 0.0
C2577 C 0.85659 0.47907 0.60867 0.0
C2578 C 0.8701 0.46496 0.62561 0.0
H2579 H 0.84794 0.51814 0.59471 0.0
H2580 H 0.84472 0.46745 0.59541 0.0
C2581 C 0.88492 0.48148 0.6426 0.0
C2582 C 0.14267 0.4939 0.62994 0.0
C2583 C 0.14246 0.47399 0.61154 0.0
H2584 H 0.1346 0.53498 0.63922 0.0
C2585 C 0.14257 0.48212 0.588 0.0
H2586 H 0.14248 0.48779 0.6482 0.0
C2587 C 0.13792 0.509 0.58277 0.0
C2588 C 0.13348 0.52768 0.60113 0.0
H2589 H 0.14293 0.4671 0.57357 0.0
H2590 H 0.13481 0.51414 0.56447 0.0
C2591 C 0.13809 0.5209 0.62472 0.0
C2592 C 0.1401 0.14529 0.49856 0.0
C2593 C 0.16276 0.14806 0.48672 0.0
H2594 H 0.1222 0.14011 0.53146 0.0
C2595 C 0.18539 0.14967 0.50007 0.0
H2596 H 0.12231 0.14407 0.48887 0.0
C2597 C 0.18531 0.14738 0.52463 0.0
C2598 C 0.16261 0.1433 0.53629 0.0
H2599 H 0.20317 0.1518 0.4915 0.0
H2600 H 0.20303 0.14801 0.53437 0.0
C2601 C 0.14003 0.14286 0.52302 0.0
C2602 C 0.84336 0.13229 0.52 0.0
C2603 C 0.8663 0.13258 0.53271 0.0
H2604 H 0.82482 0.13375 0.486 0.0
C2605 C 0.88855 0.13473 0.52013 0.0
H2606 H 0.82588 0.13073 0.52911 0.0
C2607 C 0.88797 0.1366 0.4956 0.0
C2608 C 0.86512 0.1363 0.48282 0.0
H2609 H 0.90661 0.1351 0.52923 0.0
H2610 H 0.90556 0.13819 0.48667 0.0
C2611 C 0.84277 0.13409 0.4953 0.0
C2612 C 0.84547 0.88078 0.51875 0.0
C2613 C 0.86843 0.88327 0.53154 0.0
H2614 H 0.82665 0.87992 0.48494 0.0
C2615 C 0.89068 0.88682 0.51903 0.0
H2616 H 0.82796 0.87804 0.52774 0.0
C2617 C 0.88993 0.8879 0.49432 0.0
C2618 C 0.86693 0.8855 0.48157 0.0
H2619 H 0.90871 0.88882 0.52831 0.0
H2620 H 0.90739 0.89066 0.48525 0.0
C2621 C 0.84473 0.8819 0.49412 0.0
C2622 C 0.18521 0.89749 0.53879 0.0
C2623 C 0.16354 0.89887 0.55188 0.0
H2624 H 0.2009 0.89658 0.50459 0.0
C2625 C 0.14044 0.90029 0.53979 0.0
H2626 H 0.20329 0.89641 0.54755 0.0
C2627 C 0.13904 0.90038 0.51515 0.0
C2628 C 0.16072 0.89909 0.50206 0.0
H2629 H 0.12335 0.90134 0.54935 0.0
H2630 H 0.12096 0.90152 0.5064 0.0
C2631 C 0.18382 0.89763 0.51414 0.0
C2632 C 0.50055 0.1204 0.08797 0.0
C2633 C 0.51148 0.1441 0.10069 0.0
H2634 H 0.46669 0.09503 0.07847 0.0
C2635 C 0.49592 0.1624 0.11119 0.0
H2636 H 0.51213 0.10605 0.07947 0.0
C2637 C 0.47009 0.1559 0.11072 0.0
C2638 C 0.45934 0.13138 0.09928 0.0
H2639 H 0.50376 0.18078 0.12105 0.0
H2640 H 0.45856 0.16936 0.12035 0.0
C2641 C 0.4746 0.11418 0.08712 0.0
C2642 C 0.90714 0.50822 0.17289 0.0
C2643 C 0.90574 0.4906 0.15261 0.0
H2644 H 0.90888 0.54985 0.1868 0.0
C2645 C 0.90602 0.50229 0.13021 0.0
H2646 H 0.907 0.49988 0.19043 0.0
C2647 C 0.90703 0.53096 0.12813 0.0
C2648 C 0.9078 0.54854 0.14841 0.0
H2649 H 0.905 0.4893 0.11423 0.0
H2650 H 0.90688 0.53929 0.11059 0.0
C2651 C 0.90816 0.53689 0.17082 0.0
C2652 C 0.47156 0.89394 0.10318 0.0
C2653 C 0.45831 0.86775 0.10057 0.0
H2654 H 0.5075 0.91682 0.10626 0.0
C2655 C 0.47128 0.84423 0.09698 0.0
H2656 H 0.46174 0.91224 0.10643 0.0
C2657 C 0.49736 0.84668 0.09734 0.0
C2658 C 0.51086 0.87273 0.1013 0.0
H2659 H 0.46131 0.82381 0.09546 0.0
H2660 H 0.50692 0.82797 0.09554 0.0
C2661 C 0.49768 0.89648 0.10328 0.0
C2662 C 0.10915 0.53297 0.13815 0.0
C2663 C 0.1121 0.54945 0.15904 0.0
H2664 H 0.10537 0.49221 0.12246 0.0
C2665 C 0.11308 0.53631 0.18087 0.0
H2666 H 0.10831 0.5423 0.12103 0.0
C2667 C 0.1114 0.50736 0.18174 0.0
C2668 C 0.10871 0.49093 0.16079 0.0
H2669 H 0.11535 0.54837 0.19734 0.0
H2670 H 0.11236 0.4979 0.1988 0.0
C2671 C 0.10749 0.50413 0.13901 0.0
C2672 C 0.50625 0.91184 0.9155 0.0
C2673 C 0.51616 0.89353 0.8993 0.0
H2674 H 0.47308 0.92825 0.92826 0.0
C2675 C 0.50023 0.87906 0.8822 0.0
H2676 H 0.51824 0.92316 0.92888 0.0
C2677 C 0.47475 0.88244 0.88147 0.0
C2678 C 0.46455 0.89983 0.89822 0.0
H2679 H 0.50748 0.86496 0.86942 0.0
H2680 H 0.46291 0.87063 0.86826 0.0
C2681 C 0.48051 0.91466 0.91519 0.0
C2682 C 0.10472 0.50523 0.89185 0.0
C2683 C 0.10392 0.48896 0.87082 0.0
H2684 H 0.10785 0.54607 0.90775 0.0
C2685 C 0.1059 0.50233 0.84914 0.0
H2686 H 0.10324 0.49565 0.90885 0.0
C2687 C 0.10848 0.53121 0.84849 0.0
C2688 C 0.10919 0.54751 0.8695 0.0
H2689 H 0.10536 0.49051 0.83255 0.0
H2690 H 0.1099 0.54072 0.83146 0.0
C2691 C 0.10734 0.53418 0.8912 0.0
C2692 C 0.47405 0.13735 0.9145 0.0
C2693 C 0.46109 0.15645 0.90192 0.0
H2694 H 0.50989 0.12311 0.92334 0.0
C2695 C 0.47454 0.17701 0.88942 0.0
H2696 H 0.46394 0.12102 0.92391 0.0
C2697 C 0.50054 0.17841 0.88927 0.0
C2698 C 0.51363 0.15878 0.90109 0.0
H2699 H 0.46484 0.19174 0.87937 0.0
H2700 H 0.51037 0.19445 0.87933 0.0
C2701 C 0.5002 0.1383 0.91386 0.0
C2702 C 0.89673 0.52975 0.92114 0.0
C2703 C 0.8886 0.51516 0.90006 0.0
H2704 H 0.90645 0.56937 0.9383 0.0
C2705 C 0.88321 0.53013 0.87994 0.0
H2706 H 0.90099 0.51883 0.93697 0.0
C2707 C 0.88631 0.55899 0.8807 0.0
C2708 C 0.8949 0.57361 0.90161 0.0
H2709 H 0.87682 0.51959 0.86342 0.0
H2710 H 0.88221 0.56979 0.86475 0.0
C2711 C 0.89985 0.55872 0.92191 0.0
C2712 C 0.63605 0.63686 0.03314 0.0
C2713 C 0.65795 0.64224 0.04734 0.0
H2714 H 0.61993 0.63276 0.99804 0.0
C2715 C 0.68072 0.64914 0.03641 0.0
H2716 H 0.61821 0.63158 0.041 0.0
C2717 C 0.68171 0.64987 0.01185 0.0
C2718 C 0.65998 0.64369 0.9976 0.0
H2719 H 0.69795 0.65359 0.04679 0.0
H2720 H 0.69967 0.65474 1.00407 0.0
C2721 C 0.63706 0.63757 1.00851 0.0
C2722 C 0.34437 0.635 0.99639 0.0
C2723 C 0.36743 0.63915 0.98535 0.0
H2724 H 0.32541 0.62938 0.02882 0.0
C2725 C 0.38958 0.64064 0.99943 0.0
H2726 H 0.32695 0.63368 0.98611 0.0
C2727 C 0.38871 0.63809 0.02392 0.0
C2728 C 0.36566 0.63399 0.03498 0.0
H2729 H 0.40769 0.64375 0.99156 0.0
H2730 H 0.40615 0.63946 0.03418 0.0
C2731 C 0.3435 0.63244 0.02091 0.0
C2732 C 0.38809 0.38753 0.02145 0.0
C2733 C 0.36554 0.3849 0.03358 0.0
H2734 H 0.40567 0.39155 0.98814 0.0
C2735 C 0.34285 0.38429 0.02049 0.0
H2736 H 0.40595 0.38811 0.03093 0.0
C2737 C 0.34273 0.38633 0.99589 0.0
C2738 C 0.36529 0.38903 0.98377 0.0
H2739 H 0.32515 0.38234 0.02922 0.0
H2740 H 0.32487 0.38579 0.98639 0.0
C2741 C 0.38796 0.38958 0.99686 0.0
C2742 C 0.68315 0.39824 0.01223 0.0
C2743 C 0.66009 0.39826 0.99979 0.0
H2744 H 0.70208 0.39745 0.04603 0.0
C2745 C 0.63797 0.39686 0.01245 0.0
H2746 H 0.70054 0.39926 1.00297 0.0
C2747 C 0.63884 0.39566 0.03698 0.0
C2748 C 0.66187 0.39598 0.04951 0.0
H2749 H 0.61987 0.39671 1.00344 0.0
H2750 H 0.62138 0.39477 0.04612 0.0
C2751 C 0.68404 0.39716 0.03689 0.0
C2752 C 0.97079 0.6521 0.60907 0.0
C2753 C 0.96081 0.626 0.60022 0.0
H2754 H 0.00366 0.6788 0.61795 0.0
C2755 C 0.97685 0.60699 0.59165 0.0
H2756 H 0.95864 0.66689 0.61607 0.0
C2757 C 0.00277 0.61354 0.59317 0.0
C2758 C 0.01287 0.63926 0.60312 0.0
H2759 H 0.96945 0.58656 0.58517 0.0
H2760 H 0.01489 0.59814 0.58728 0.0
C2761 C 0.99655 0.6588 0.61029 0.0
C2762 C 0.41136 0.0302 0.63029 0.0
C2763 C 0.41056 0.04707 0.65087 0.0
H2764 H 0.41041 0.98896 0.6155 0.0
C2765 C 0.40907 0.03456 0.6729 0.0
H2766 H 0.41259 0.03919 0.61304 0.0
C2767 C 0.40795 1.0058 0.67431 0.0
C2768 C 0.40819 0.98888 0.65371 0.0
H2769 H 0.40855 0.04694 0.68911 0.0
H2770 H 0.40645 0.99684 0.69157 0.0
C2771 C 0.41014 1.0014 0.6317 0.0
C2772 C 0.00173 0.38598 0.59316 0.0
C2773 C 0.01539 0.37864 0.61319 0.0
H2774 H 0.96519 0.38763 0.57691 0.0
C2775 C 0.00273 0.36874 0.63288 0.0
H2776 H 0.0113 0.39319 0.57764 0.0
C2777 C 0.97681 0.36546 0.63252 0.0
C2778 C 0.96284 0.37168 0.61227 0.0
H2779 H 0.013 0.36263 0.64838 0.0
H2780 H 0.96777 0.35723 0.64797 0.0
C2781 C 0.9755 0.38241 0.59266 0.0
C2782 C 0.61349 1.00629 0.67938 0.0
C2783 C 0.60942 0.99025 0.65827 0.0
H2784 H 0.61844 0.04712 0.69549 0.0
C2785 C 0.60634 1.00385 0.63691 0.0
H2786 H 0.61589 0.99648 0.69614 0.0
C2787 C 0.60772 0.03266 0.63654 0.0
C2788 C 0.61227 0.04881 0.65751 0.0
H2789 H 0.60303 0.99227 0.62028 0.0
H2790 H 0.60548 0.04225 0.61965 0.0
C2791 C 0.61492 0.0353 0.679 0.0
C2792 C 0.99814 0.3662 0.39266 0.0
C2793 C 0.01358 0.38554 0.40653 0.0
H2794 H 0.96119 0.35381 0.37921 0.0
C2795 C 0.00281 0.40692 0.41891 0.0
H2796 H 0.00589 0.34956 0.38288 0.0
C2797 C 0.97695 0.40898 0.41723 0.0
C2798 C 0.96182 0.39014 0.4026 0.0
H2799 H 0.01437 0.422 0.42985 0.0
H2800 H 0.96894 0.42572 0.42662 0.0
C2801 C 0.97259 0.36868 0.3905 0.0
C2802 C 0.60439 0.03421 0.38772 0.0
C2803 C 0.60556 0.04808 0.36625 0.0
H2804 H 0.60195 0.99536 0.40477 0.0
C2805 C 0.60523 0.03235 0.34495 0.0
H2806 H 0.60465 0.04565 0.40448 0.0
C2807 C 0.60375 1.00343 0.34514 0.0
C2808 C 0.60253 0.98957 0.36662 0.0
H2809 H 0.60615 0.04233 0.3281 0.0
H2810 H 0.60348 0.99196 0.3284 0.0
C2811 C 0.60289 1.00532 0.3879 0.0
C2812 C 0.97635 0.67421 0.38691 0.0
C2813 C 0.96289 0.65424 0.40006 0.0
H2814 H 0.01242 0.69176 0.37719 0.0
C2815 C 0.97582 0.63645 0.41407 0.0
H2816 H 0.96663 0.68799 0.37586 0.0
C2817 C 0.00195 0.63792 0.41414 0.0
C2818 C 0.01541 0.65775 0.40078 0.0
H2819 H 0.96572 0.62068 0.42408 0.0
H2820 H 0.01163 0.62358 0.42462 0.0
C2821 C 0.00243 0.67629 0.3876 0.0
C2822 C 0.40203 0.02981 0.4196 0.0
C2823 C 0.39258 1.01534 0.39886 0.0
H2824 H 0.41272 0.06942 0.43655 0.0
C2825 C 0.38635 0.03041 0.37905 0.0
H2826 H 0.40704 0.01878 0.43516 0.0
C2827 C 0.38955 0.05923 0.37987 0.0
C2828 C 0.39915 0.07379 0.40049 0.0
H2829 H 0.37899 0.01999 0.3628 0.0
H2830 H 0.38455 0.07006 0.36418 0.0
C2831 C 0.40533 0.0588 0.42039 0.0
loop_
_geom_bond_atom_site_label_1
_geom_bond_atom_site_label_2
_geom_bond_distance
_geom_bond_site_symmetry_2
_ccdc_geom_bond_type
Co0 O3 1.970 . S
Co0 N17 1.989 . S
Co0 O25 1.967 . S
Co0 O32 1.920 . S
Co1 O4 1.966 . S
Co1 N10 2.022 . S
Co1 N18 1.993 . S
Co1 O26 1.941 . S
C2 O3 1.258 . S
C2 O4 1.263 . S
O3 Co0 1.970 . S
O3 C2 1.258 . S
O4 Co1 1.966 . S
O4 C2 1.263 . S
C5 O6 1.235 . S
C5 O32 1.289 . S
O6 C5 1.235 . S
C7 C9 1.400 . S
C7 N10 1.351 . S
C7 C12 1.501 . S
C8 C9 1.387 . S
C8 N11 1.341 . S
C9 C7 1.400 . S
C9 C8 1.387 . S
N10 Co1 2.022 . S
N10 C7 1.351 . S
N10 N11 1.365 . S
N11 C8 1.341 . S
N11 N10 1.365 . S
N11 H31 0.862 . S
C12 C7 1.501 . S
C12 H13 0.961 . S
C12 H14 0.961 . S
C12 H15 0.960 . S
H13 C12 0.961 . S
H14 C12 0.961 . S
H15 C12 0.960 . S
C16 N17 1.342 . S
C16 C20 1.401 . S
C16 C21 1.499 . S
N17 Co0 1.989 . S
N17 C16 1.342 . S
N17 N18 1.388 . S
N18 Co1 1.993 . S
N18 N17 1.388 . S
N18 C19 1.346 . S
C19 N18 1.346 . S
C19 C20 1.396 . S
C19 C29 1.510 . S
C20 C16 1.401 . S
C20 C19 1.396 . S
C21 C16 1.499 . S
C21 H22 0.959 . S
C21 H23 0.960 . S
C21 H24 0.961 . S
H22 C21 0.959 . S
H23 C21 0.960 . S
H24 C21 0.961 . S
O25 Co0 1.967 . S
O25 C33 1.258 . S
O26 Co1 1.941 . S
O26 C33 1.266 . S
H27 C29 0.959 . S
H28 C29 0.961 . S
C29 C19 1.510 . S
C29 H27 0.959 . S
C29 H28 0.961 . S
C29 H30 0.960 . S
H30 C29 0.960 . S
H31 N11 0.862 . S
O32 Co0 1.920 . S
O32 C5 1.289 . S
C33 O25 1.258 . S
C33 O26 1.266 . S
Co34 O37 1.970 . S
Co34 N51 1.989 . S
Co34 O59 1.967 . S
Co34 O66 1.920 . S
Co35 O38 1.966 . S
Co35 N44 2.022 . S
Co35 N52 1.993 . S
Co35 O60 1.941 . S
C36 O37 1.258 . S
C36 O38 1.263 . S
O37 Co34 1.970 . S
O37 C36 1.258 . S
O38 Co35 1.966 . S
O38 C36 1.263 . S
C39 O40 1.235 . S
C39 O66 1.289 . S
O40 C39 1.235 . S
C41 C43 1.400 . S
C41 N44 1.351 . S
C41 C46 1.501 . S
C42 C43 1.387 . S
C42 N45 1.341 . S
C43 C41 1.400 . S
C43 C42 1.387 . S
N44 Co35 2.022 . S
N44 C41 1.351 . S
N44 N45 1.365 . S
N45 C42 1.341 . S
N45 N44 1.365 . S
N45 H65 0.862 . S
C46 C41 1.501 . S
C46 H47 0.961 . S
C46 H48 0.961 . S
C46 H49 0.960 . S
H47 C46 0.961 . S
H48 C46 0.961 . S
H49 C46 0.960 . S
C50 N51 1.342 . S
C50 C54 1.401 . S
C50 C55 1.499 . S
N51 Co34 1.989 . S
N51 C50 1.342 . S
N51 N52 1.388 . S
N52 Co35 1.993 . S
N52 N51 1.388 . S
N52 C53 1.346 . S
C53 N52 1.346 . S
C53 C54 1.396 . S
C53 C63 1.510 . S
C54 C50 1.401 . S
C54 C53 1.396 . S
C55 C50 1.499 . S
C55 H56 0.959 . S
C55 H57 0.960 . S
C55 H58 0.961 . S
H56 C55 0.959 . S
H57 C55 0.960 . S
H58 C55 0.961 . S
O59 Co34 1.967 . S
O59 C67 1.258 . S
O60 Co35 1.941 . S
O60 C67 1.266 . S
H61 C63 0.959 . S
H62 C63 0.961 . S
C63 C53 1.510 . S
C63 H61 0.959 . S
C63 H62 0.961 . S
C63 H64 0.960 . S
H64 C63 0.960 . S
H65 N45 0.862 . S
O66 Co34 1.920 . S
O66 C39 1.289 . S
C67 O59 1.258 . S
C67 O60 1.266 . S
Co68 O71 1.970 . S
Co68 N85 1.989 . S
Co68 O93 1.967 . S
Co68 O100 1.920 . S
Co69 O72 1.966 . S
Co69 N78 2.022 . S
Co69 N86 1.993 . S
Co69 O94 1.941 . S
C70 O71 1.258 . S
C70 O72 1.263 . S
O71 Co68 1.970 . S
O71 C70 1.258 . S
O72 Co69 1.966 . S
O72 C70 1.263 . S
C73 O74 1.235 . S
C73 O100 1.289 . S
O74 C73 1.235 . S
C75 C77 1.400 . S
C75 N78 1.351 . S
C75 C80 1.501 . S
C76 C77 1.387 . S
C76 N79 1.341 . S
C77 C75 1.400 . S
C77 C76 1.387 . S
N78 Co69 2.022 . S
N78 C75 1.351 . S
N78 N79 1.365 . S
N79 C76 1.341 . S
N79 N78 1.365 . S
N79 H99 0.862 . S
C80 C75 1.501 . S
C80 H81 0.961 . S
C80 H82 0.961 . S
C80 H83 0.960 . S
H81 C80 0.961 . S
H82 C80 0.961 . S
H83 C80 0.960 . S
C84 N85 1.342 . S
C84 C88 1.401 . S
C84 C89 1.499 . S
N85 Co68 1.989 . S
N85 C84 1.342 . S
N85 N86 1.388 . S
N86 Co69 1.993 . S
N86 N85 1.388 . S
N86 C87 1.346 . S
C87 N86 1.346 . S
C87 C88 1.396 . S
C87 C97 1.510 . S
C88 C84 1.401 . S
C88 C87 1.396 . S
C89 C84 1.499 . S
C89 H90 0.959 . S
C89 H91 0.960 . S
C89 H92 0.961 . S
H90 C89 0.959 . S
H91 C89 0.960 . S
H92 C89 0.961 . S
O93 Co68 1.967 . S
O93 C101 1.258 . S
O94 Co69 1.941 . S
O94 C101 1.266 . S
H95 C97 0.959 . S
H96 C97 0.961 . S
C97 C87 1.510 . S
C97 H95 0.959 . S
C97 H96 0.961 . S
C97 H98 0.960 . S
H98 C97 0.960 . S
H99 N79 0.862 . S
O100 Co68 1.920 . S
O100 C73 1.289 . S
C101 O93 1.258 . S
C101 O94 1.266 . S
Co102 O105 1.970 . S
Co102 N119 1.989 . S
Co102 O127 1.967 . S
Co102 O134 1.920 . S
Co103 O106 1.966 . S
Co103 N112 2.022 . S
Co103 N120 1.993 . S
Co103 O128 1.941 . S
C104 O105 1.258 . S
C104 O106 1.263 . S
O105 Co102 1.970 . S
O105 C104 1.258 . S
O106 Co103 1.966 . S
O106 C104 1.263 . S
C107 O108 1.235 . S
C107 O134 1.289 . S
O108 C107 1.235 . S
C109 C111 1.400 . S
C109 N112 1.351 . S
C109 C114 1.501 . S
C110 C111 1.387 . S
C110 N113 1.341 . S
C111 C109 1.400 . S
C111 C110 1.387 . S
N112 Co103 2.022 . S
N112 C109 1.351 . S
N112 N113 1.365 . S
N113 C110 1.341 . S
N113 N112 1.365 . S
N113 H133 0.862 . S
C114 C109 1.501 . S
C114 H115 0.961 . S
C114 H116 0.961 . S
C114 H117 0.960 . S
H115 C114 0.961 . S
H116 C114 0.961 . S
H117 C114 0.960 . S
C118 N119 1.342 . S
C118 C122 1.401 . S
C118 C123 1.499 . S
N119 Co102 1.989 . S
N119 C118 1.342 . S
N119 N120 1.388 . S
N120 Co103 1.993 . S
N120 N119 1.388 . S
N120 C121 1.346 . S
C121 N120 1.346 . S
C121 C122 1.396 . S
C121 C131 1.510 . S
C122 C118 1.401 . S
C122 C121 1.396 . S
C123 C118 1.499 . S
C123 H124 0.959 . S
C123 H125 0.960 . S
C123 H126 0.961 . S
H124 C123 0.959 . S
H125 C123 0.960 . S
H126 C123 0.961 . S
O127 Co102 1.967 . S
O127 C135 1.258 . S
O128 Co103 1.941 . S
O128 C135 1.266 . S
H129 C131 0.959 . S
H130 C131 0.961 . S
C131 C121 1.510 . S
C131 H129 0.959 . S
C131 H130 0.961 . S
C131 H132 0.960 . S
H132 C131 0.960 . S
H133 N113 0.862 . S
O134 Co102 1.920 . S
O134 C107 1.289 . S
C135 O127 1.258 . S
C135 O128 1.266 . S
Co136 O139 1.970 . S
Co136 N153 1.989 . S
Co136 O161 1.967 . S
Co136 O168 1.920 . S
Co137 O140 1.966 . S
Co137 N146 2.022 . S
Co137 N154 1.993 . S
Co137 O162 1.941 . S
C138 O139 1.258 . S
C138 O140 1.263 . S
O139 Co136 1.970 . S
O139 C138 1.258 . S
O140 Co137 1.966 . S
O140 C138 1.263 . S
C141 O142 1.235 . S
C141 O168 1.289 . S
O142 C141 1.235 . S
C143 C145 1.400 . S
C143 N146 1.351 . S
C143 C148 1.501 . S
C144 C145 1.387 . S
C144 N147 1.341 . S
C145 C143 1.400 . S
C145 C144 1.387 . S
N146 Co137 2.022 . S
N146 C143 1.351 . S
N146 N147 1.365 . S
N147 C144 1.341 . S
N147 N146 1.365 . S
N147 H167 0.862 . S
C148 C143 1.501 . S
C148 H149 0.961 . S
C148 H150 0.961 . S
C148 H151 0.960 . S
H149 C148 0.961 . S
H150 C148 0.961 . S
H151 C148 0.960 . S
C152 N153 1.342 . S
C152 C156 1.401 . S
C152 C157 1.499 . S
N153 Co136 1.989 . S
N153 C152 1.342 . S
N153 N154 1.388 . S
N154 Co137 1.993 . S
N154 N153 1.388 . S
N154 C155 1.346 . S
C155 N154 1.346 . S
C155 C156 1.396 . S
C155 C165 1.510 . S
C156 C152 1.401 . S
C156 C155 1.396 . S
C157 C152 1.499 . S
C157 H158 0.959 . S
C157 H159 0.960 . S
C157 H160 0.961 . S
H158 C157 0.959 . S
H159 C157 0.960 . S
H160 C157 0.961 . S
O161 Co136 1.967 . S
O161 C169 1.258 . S
O162 Co137 1.941 . S
O162 C169 1.266 . S
H163 C165 0.959 . S
H164 C165 0.961 . S
C165 C155 1.510 . S
C165 H163 0.959 . S
C165 H164 0.961 . S
C165 H166 0.960 . S
H166 C165 0.960 . S
H167 N147 0.862 . S
O168 Co136 1.920 . S
O168 C141 1.289 . S
C169 O161 1.258 . S
C169 O162 1.266 . S
Co170 O173 1.970 . S
Co170 N187 1.989 . S
Co170 O195 1.967 . S
Co170 O202 1.920 . S
Co171 O174 1.966 . S
Co171 N180 2.022 . S
Co171 N188 1.993 . S
Co171 O196 1.941 . S
C172 O173 1.258 . S
C172 O174 1.263 . S
O173 Co170 1.970 . S
O173 C172 1.258 . S
O174 Co171 1.966 . S
O174 C172 1.263 . S
C175 O176 1.235 . S
C175 O202 1.289 . S
O176 C175 1.235 . S
C177 C179 1.400 . S
C177 N180 1.351 . S
C177 C182 1.501 . S
C178 C179 1.387 . S
C178 N181 1.341 . S
C179 C177 1.400 . S
C179 C178 1.387 . S
N180 Co171 2.022 . S
N180 C177 1.351 . S
N180 N181 1.365 . S
N181 C178 1.341 . S
N181 N180 1.365 . S
N181 H201 0.862 . S
C182 C177 1.501 . S
C182 H183 0.961 . S
C182 H184 0.961 . S
C182 H185 0.960 . S
H183 C182 0.961 . S
H184 C182 0.961 . S
H185 C182 0.960 . S
C186 N187 1.342 . S
C186 C190 1.401 . S
C186 C191 1.499 . S
N187 Co170 1.989 . S
N187 C186 1.342 . S
N187 N188 1.388 . S
N188 Co171 1.993 . S
N188 N187 1.388 . S
N188 C189 1.346 . S
C189 N188 1.346 . S
C189 C190 1.396 . S
C189 C199 1.510 . S
C190 C186 1.401 . S
C190 C189 1.396 . S
C191 C186 1.499 . S
C191 H192 0.959 . S
C191 H193 0.960 . S
C191 H194 0.961 . S
H192 C191 0.959 . S
H193 C191 0.960 . S
H194 C191 0.961 . S
O195 Co170 1.967 . S
O195 C203 1.258 . S
O196 Co171 1.941 . S
O196 C203 1.266 . S
H197 C199 0.959 . S
H198 C199 0.961 . S
C199 C189 1.510 . S
C199 H197 0.959 . S
C199 H198 0.961 . S
C199 H200 0.960 . S
H200 C199 0.960 . S
H201 N181 0.862 . S
O202 Co170 1.920 . S
O202 C175 1.289 . S
C203 O195 1.258 . S
C203 O196 1.266 . S
Co204 O207 1.970 . S
Co204 N221 1.989 . S
Co204 O229 1.967 . S
Co204 O236 1.920 . S
Co205 O208 1.966 . S
Co205 N214 2.022 . S
Co205 N222 1.993 . S
Co205 O230 1.941 . S
C206 O207 1.258 . S
C206 O208 1.263 . S
O207 Co204 1.970 . S
O207 C206 1.258 . S
O208 Co205 1.966 . S
O208 C206 1.263 . S
C209 O210 1.235 . S
C209 O236 1.289 . S
O210 C209 1.235 . S
C211 C213 1.400 . S
C211 N214 1.351 . S
C211 C216 1.501 . S
C212 C213 1.387 . S
C212 N215 1.341 . S
C213 C211 1.400 . S
C213 C212 1.387 . S
N214 Co205 2.022 . S
N214 C211 1.351 . S
N214 N215 1.365 . S
N215 C212 1.341 . S
N215 N214 1.365 . S
N215 H235 0.862 . S
C216 C211 1.501 . S
C216 H217 0.961 . S
C216 H218 0.961 . S
C216 H219 0.960 . S
H217 C216 0.961 . S
H218 C216 0.961 . S
H219 C216 0.960 . S
C220 N221 1.342 . S
C220 C224 1.401 . S
C220 C225 1.499 . S
N221 Co204 1.989 . S
N221 C220 1.342 . S
N221 N222 1.388 . S
N222 Co205 1.993 . S
N222 N221 1.388 . S
N222 C223 1.346 . S
C223 N222 1.346 . S
C223 C224 1.396 . S
C223 C233 1.510 . S
C224 C220 1.401 . S
C224 C223 1.396 . S
C225 C220 1.499 . S
C225 H226 0.959 . S
C225 H227 0.960 . S
C225 H228 0.961 . S
H226 C225 0.959 . S
H227 C225 0.960 . S
H228 C225 0.961 . S
O229 Co204 1.967 . S
O229 C237 1.258 . S
O230 Co205 1.941 . S
O230 C237 1.266 . S
H231 C233 0.959 . S
H232 C233 0.961 . S
C233 C223 1.510 . S
C233 H231 0.959 . S
C233 H232 0.961 . S
C233 H234 0.960 . S
H234 C233 0.960 . S
H235 N215 0.862 . S
O236 Co204 1.920 . S
O236 C209 1.289 . S
C237 O229 1.258 . S
C237 O230 1.266 . S
Co238 O241 1.970 . S
Co238 N255 1.989 . S
Co238 O263 1.967 . S
Co238 O270 1.920 . S
Co239 O242 1.966 . S
Co239 N248 2.022 . S
Co239 N256 1.993 . S
Co239 O264 1.941 . S
C240 O241 1.258 . S
C240 O242 1.263 . S
O241 Co238 1.970 . S
O241 C240 1.258 . S
O242 Co239 1.966 . S
O242 C240 1.263 . S
C243 O244 1.235 . S
C243 O270 1.289 . S
O244 C243 1.235 . S
C245 C247 1.400 . S
C245 N248 1.351 . S
C245 C250 1.501 . S
C246 C247 1.387 . S
C246 N249 1.341 . S
C247 C245 1.400 . S
C247 C246 1.387 . S
N248 Co239 2.022 . S
N248 C245 1.351 . S
N248 N249 1.365 . S
N249 C246 1.341 . S
N249 N248 1.365 . S
N249 H269 0.862 . S
C250 C245 1.501 . S
C250 H251 0.961 . S
C250 H252 0.961 . S
C250 H253 0.960 . S
H251 C250 0.961 . S
H252 C250 0.961 . S
H253 C250 0.960 . S
C254 N255 1.342 . S
C254 C258 1.401 . S
C254 C259 1.499 . S
N255 Co238 1.989 . S
N255 C254 1.342 . S
N255 N256 1.388 . S
N256 Co239 1.993 . S
N256 N255 1.388 . S
N256 C257 1.346 . S
C257 N256 1.346 . S
C257 C258 1.396 . S
C257 C267 1.510 . S
C258 C254 1.401 . S
C258 C257 1.396 . S
C259 C254 1.499 . S
C259 H260 0.959 . S
C259 H261 0.960 . S
C259 H262 0.961 . S
H260 C259 0.959 . S
H261 C259 0.960 . S
H262 C259 0.961 . S
O263 Co238 1.967 . S
O263 C271 1.258 . S
O264 Co239 1.941 . S
O264 C271 1.266 . S
H265 C267 0.959 . S
H266 C267 0.961 . S
C267 C257 1.510 . S
C267 H265 0.959 . S
C267 H266 0.961 . S
C267 H268 0.960 . S
H268 C267 0.960 . S
H269 N249 0.862 . S
O270 Co238 1.920 . S
O270 C243 1.289 . S
C271 O263 1.258 . S
C271 O264 1.266 . S
Co272 O275 1.970 . S
Co272 N289 1.989 . S
Co272 O297 1.967 . S
Co272 O304 1.920 . S
Co273 O276 1.966 . S
Co273 N282 2.022 . S
Co273 N290 1.993 . S
Co273 O298 1.941 . S
C274 O275 1.258 . S
C274 O276 1.263 . S
O275 Co272 1.970 . S
O275 C274 1.258 . S
O276 Co273 1.966 . S
O276 C274 1.263 . S
C277 O278 1.235 . S
C277 O304 1.289 . S
O278 C277 1.235 . S
C279 C281 1.400 . S
C279 N282 1.351 . S
C279 C284 1.501 . S
C280 C281 1.387 . S
C280 N283 1.341 . S
C281 C279 1.400 . S
C281 C280 1.387 . S
N282 Co273 2.022 . S
N282 C279 1.351 . S
N282 N283 1.365 . S
N283 C280 1.341 . S
N283 N282 1.365 . S
N283 H303 0.862 . S
C284 C279 1.501 . S
C284 H285 0.961 . S
C284 H286 0.961 . S
C284 H287 0.960 . S
H285 C284 0.961 . S
H286 C284 0.961 . S
H287 C284 0.960 . S
C288 N289 1.342 . S
C288 C292 1.401 . S
C288 C293 1.499 . S
N289 Co272 1.989 . S
N289 C288 1.342 . S
N289 N290 1.388 . S
N290 Co273 1.993 . S
N290 N289 1.388 . S
N290 C291 1.346 . S
C291 N290 1.346 . S
C291 C292 1.396 . S
C291 C301 1.510 . S
C292 C288 1.401 . S
C292 C291 1.396 . S
C293 C288 1.499 . S
C293 H294 0.959 . S
C293 H295 0.960 . S
C293 H296 0.961 . S
H294 C293 0.959 . S
H295 C293 0.960 . S
H296 C293 0.961 . S
O297 Co272 1.967 . S
O297 C305 1.258 . S
O298 Co273 1.941 . S
O298 C305 1.266 . S
H299 C301 0.959 . S
H300 C301 0.961 . S
C301 C291 1.510 . S
C301 H299 0.959 . S
C301 H300 0.961 . S
C301 H302 0.960 . S
H302 C301 0.960 . S
H303 N283 0.862 . S
O304 Co272 1.920 . S
O304 C277 1.289 . S
C305 O297 1.258 . S
C305 O298 1.266 . S
Co306 O309 1.970 . S
Co306 N323 1.989 . S
Co306 O331 1.967 . S
Co306 O338 1.920 . S
Co307 O310 1.966 . S
Co307 N316 2.022 . S
Co307 N324 1.993 . S
Co307 O332 1.941 . S
C308 O309 1.258 . S
C308 O310 1.263 . S
O309 Co306 1.970 . S
O309 C308 1.258 . S
O310 Co307 1.966 . S
O310 C308 1.263 . S
C311 O312 1.235 . S
C311 O338 1.289 . S
O312 C311 1.235 . S
C313 C315 1.400 . S
C313 N316 1.351 . S
C313 C318 1.501 . S
C314 C315 1.387 . S
C314 N317 1.341 . S
C315 C313 1.400 . S
C315 C314 1.387 . S
N316 Co307 2.022 . S
N316 C313 1.351 . S
N316 N317 1.365 . S
N317 C314 1.341 . S
N317 N316 1.365 . S
N317 H337 0.862 . S
C318 C313 1.501 . S
C318 H319 0.961 . S
C318 H320 0.961 . S
C318 H321 0.960 . S
H319 C318 0.961 . S
H320 C318 0.961 . S
H321 C318 0.960 . S
C322 N323 1.342 . S
C322 C326 1.401 . S
C322 C327 1.499 . S
N323 Co306 1.989 . S
N323 C322 1.342 . S
N323 N324 1.388 . S
N324 Co307 1.993 . S
N324 N323 1.388 . S
N324 C325 1.346 . S
C325 N324 1.346 . S
C325 C326 1.396 . S
C325 C335 1.510 . S
C326 C322 1.401 . S
C326 C325 1.396 . S
C327 C322 1.499 . S
C327 H328 0.959 . S
C327 H329 0.960 . S
C327 H330 0.961 . S
H328 C327 0.959 . S
H329 C327 0.960 . S
H330 C327 0.961 . S
O331 Co306 1.967 . S
O331 C339 1.258 . S
O332 Co307 1.941 . S
O332 C339 1.266 . S
H333 C335 0.959 . S
H334 C335 0.961 . S
C335 C325 1.510 . S
C335 H333 0.959 . S
C335 H334 0.961 . S
C335 H336 0.960 . S
H336 C335 0.960 . S
H337 N317 0.862 . S
O338 Co306 1.920 . S
O338 C311 1.289 . S
C339 O331 1.258 . S
C339 O332 1.266 . S
Co340 O343 1.970 . S
Co340 N357 1.989 . S
Co340 O365 1.967 . S
Co340 O372 1.920 . S
Co341 O344 1.966 . S
Co341 N350 2.022 . S
Co341 N358 1.993 . S
Co341 O366 1.941 . S
C342 O343 1.258 . S
C342 O344 1.263 . S
O343 Co340 1.970 . S
O343 C342 1.258 . S
O344 Co341 1.966 . S
O344 C342 1.263 . S
C345 O346 1.235 . S
C345 O372 1.289 . S
O346 C345 1.235 . S
C347 C349 1.400 . S
C347 N350 1.351 . S
C347 C352 1.501 . S
C348 C349 1.387 . S
C348 N351 1.341 . S
C349 C347 1.400 . S
C349 C348 1.387 . S
N350 Co341 2.022 . S
N350 C347 1.351 . S
N350 N351 1.365 . S
N351 C348 1.341 . S
N351 N350 1.365 . S
N351 H371 0.862 . S
C352 C347 1.501 . S
C352 H353 0.961 . S
C352 H354 0.961 . S
C352 H355 0.960 . S
H353 C352 0.961 . S
H354 C352 0.961 . S
H355 C352 0.960 . S
C356 N357 1.342 . S
C356 C360 1.401 . S
C356 C361 1.499 . S
N357 Co340 1.989 . S
N357 C356 1.342 . S
N357 N358 1.388 . S
N358 Co341 1.993 . S
N358 N357 1.388 . S
N358 C359 1.346 . S
C359 N358 1.346 . S
C359 C360 1.396 . S
C359 C369 1.510 . S
C360 C356 1.401 . S
C360 C359 1.396 . S
C361 C356 1.499 . S
C361 H362 0.959 . S
C361 H363 0.960 . S
C361 H364 0.961 . S
H362 C361 0.959 . S
H363 C361 0.960 . S
H364 C361 0.961 . S
O365 Co340 1.967 . S
O365 C373 1.258 . S
O366 Co341 1.941 . S
O366 C373 1.266 . S
H367 C369 0.959 . S
H368 C369 0.961 . S
C369 C359 1.510 . S
C369 H367 0.959 . S
C369 H368 0.961 . S
C369 H370 0.960 . S
H370 C369 0.960 . S
H371 N351 0.862 . S
O372 Co340 1.920 . S
O372 C345 1.289 . S
C373 O365 1.258 . S
C373 O366 1.266 . S
Co374 O377 1.970 . S
Co374 N391 1.989 . S
Co374 O399 1.967 . S
Co374 O406 1.920 . S
Co375 O378 1.966 . S
Co375 N384 2.022 . S
Co375 N392 1.993 . S
Co375 O400 1.941 . S
C376 O377 1.258 . S
C376 O378 1.263 . S
O377 Co374 1.970 . S
O377 C376 1.258 . S
O378 Co375 1.966 . S
O378 C376 1.263 . S
C379 O380 1.235 . S
C379 O406 1.289 . S
O380 C379 1.235 . S
C381 C383 1.400 . S
C381 N384 1.351 . S
C381 C386 1.501 . S
C382 C383 1.387 . S
C382 N385 1.341 . S
C383 C381 1.400 . S
C383 C382 1.387 . S
N384 Co375 2.022 . S
N384 C381 1.351 . S
N384 N385 1.365 . S
N385 C382 1.341 . S
N385 N384 1.365 . S
N385 H405 0.862 . S
C386 C381 1.501 . S
C386 H387 0.961 . S
C386 H388 0.961 . S
C386 H389 0.960 . S
H387 C386 0.961 . S
H388 C386 0.961 . S
H389 C386 0.960 . S
C390 N391 1.342 . S
C390 C394 1.401 . S
C390 C395 1.499 . S
N391 Co374 1.989 . S
N391 C390 1.342 . S
N391 N392 1.388 . S
N392 Co375 1.993 . S
N392 N391 1.388 . S
N392 C393 1.346 . S
C393 N392 1.346 . S
C393 C394 1.396 . S
C393 C403 1.510 . S
C394 C390 1.401 . S
C394 C393 1.396 . S
C395 C390 1.499 . S
C395 H396 0.959 . S
C395 H397 0.960 . S
C395 H398 0.961 . S
H396 C395 0.959 . S
H397 C395 0.960 . S
H398 C395 0.961 . S
O399 Co374 1.967 . S
O399 C407 1.258 . S
O400 Co375 1.941 . S
O400 C407 1.266 . S
H401 C403 0.959 . S
H402 C403 0.961 . S
C403 C393 1.510 . S
C403 H401 0.959 . S
C403 H402 0.961 . S
C403 H404 0.960 . S
H404 C403 0.960 . S
H405 N385 0.862 . S
O406 Co374 1.920 . S
O406 C379 1.289 . S
C407 O399 1.258 . S
C407 O400 1.266 . S
Co408 O411 1.970 . S
Co408 N425 1.989 . S
Co408 O433 1.967 . S
Co408 O440 1.920 . S
Co409 O412 1.966 . S
Co409 N418 2.022 . S
Co409 N426 1.993 . S
Co409 O434 1.941 . S
C410 O411 1.258 . S
C410 O412 1.263 . S
O411 Co408 1.970 . S
O411 C410 1.258 . S
O412 Co409 1.966 . S
O412 C410 1.263 . S
C413 O414 1.235 . S
C413 O440 1.289 . S
O414 C413 1.235 . S
C415 C417 1.400 . S
C415 N418 1.351 . S
C415 C420 1.501 . S
C416 C417 1.387 . S
C416 N419 1.341 . S
C417 C415 1.400 . S
C417 C416 1.387 . S
N418 Co409 2.022 . S
N418 C415 1.351 . S
N418 N419 1.365 . S
N419 C416 1.341 . S
N419 N418 1.365 . S
N419 H439 0.862 . S
C420 C415 1.501 . S
C420 H421 0.961 . S
C420 H422 0.961 . S
C420 H423 0.960 . S
H421 C420 0.961 . S
H422 C420 0.961 . S
H423 C420 0.960 . S
C424 N425 1.342 . S
C424 C428 1.401 . S
C424 C429 1.499 . S
N425 Co408 1.989 . S
N425 C424 1.342 . S
N425 N426 1.388 . S
N426 Co409 1.993 . S
N426 N425 1.388 . S
N426 C427 1.346 . S
C427 N426 1.346 . S
C427 C428 1.396 . S
C427 C437 1.510 . S
C428 C424 1.401 . S
C428 C427 1.396 . S
C429 C424 1.499 . S
C429 H430 0.959 . S
C429 H431 0.960 . S
C429 H432 0.961 . S
H430 C429 0.959 . S
H431 C429 0.960 . S
H432 C429 0.961 . S
O433 Co408 1.967 . S
O433 C441 1.258 . S
O434 Co409 1.941 . S
O434 C441 1.266 . S
H435 C437 0.959 . S
H436 C437 0.961 . S
C437 C427 1.510 . S
C437 H435 0.959 . S
C437 H436 0.961 . S
C437 H438 0.960 . S
H438 C437 0.960 . S
H439 N419 0.862 . S
O440 Co408 1.920 . S
O440 C413 1.289 . S
C441 O433 1.258 . S
C441 O434 1.266 . S
Co442 O445 1.970 . S
Co442 N459 1.989 . S
Co442 O467 1.967 . S
Co442 O474 1.920 . S
Co443 O446 1.966 . S
Co443 N452 2.022 . S
Co443 N460 1.993 . S
Co443 O468 1.941 . S
C444 O445 1.258 . S
C444 O446 1.263 . S
O445 Co442 1.970 . S
O445 C444 1.258 . S
O446 Co443 1.966 . S
O446 C444 1.263 . S
C447 O448 1.235 . S
C447 O474 1.289 . S
O448 C447 1.235 . S
C449 C451 1.400 . S
C449 N452 1.351 . S
C449 C454 1.501 . S
C450 C451 1.387 . S
C450 N453 1.341 . S
C451 C449 1.400 . S
C451 C450 1.387 . S
N452 Co443 2.022 . S
N452 C449 1.351 . S
N452 N453 1.365 . S
N453 C450 1.341 . S
N453 N452 1.365 . S
N453 H473 0.862 . S
C454 C449 1.501 . S
C454 H455 0.961 . S
C454 H456 0.961 . S
C454 H457 0.960 . S
H455 C454 0.961 . S
H456 C454 0.961 . S
H457 C454 0.960 . S
C458 N459 1.342 . S
C458 C462 1.401 . S
C458 C463 1.499 . S
N459 Co442 1.989 . S
N459 C458 1.342 . S
N459 N460 1.388 . S
N460 Co443 1.993 . S
N460 N459 1.388 . S
N460 C461 1.346 . S
C461 N460 1.346 . S
C461 C462 1.396 . S
C461 C471 1.510 . S
C462 C458 1.401 . S
C462 C461 1.396 . S
C463 C458 1.499 . S
C463 H464 0.959 . S
C463 H465 0.960 . S
C463 H466 0.961 . S
H464 C463 0.959 . S
H465 C463 0.960 . S
H466 C463 0.961 . S
O467 Co442 1.967 . S
O467 C475 1.258 . S
O468 Co443 1.941 . S
O468 C475 1.266 . S
H469 C471 0.959 . S
H470 C471 0.961 . S
C471 C461 1.510 . S
C471 H469 0.959 . S
C471 H470 0.961 . S
C471 H472 0.960 . S
H472 C471 0.960 . S
H473 N453 0.862 . S
O474 Co442 1.920 . S
O474 C447 1.289 . S
C475 O467 1.258 . S
C475 O468 1.266 . S
Co476 O479 1.970 . S
Co476 N493 1.989 . S
Co476 O501 1.967 . S
Co476 O508 1.920 . S
Co477 O480 1.966 . S
Co477 N486 2.022 . S
Co477 N494 1.993 . S
Co477 O502 1.941 . S
C478 O479 1.258 . S
C478 O480 1.263 . S
O479 Co476 1.970 . S
O479 C478 1.258 . S
O480 Co477 1.966 . S
O480 C478 1.263 . S
C481 O482 1.235 . S
C481 O508 1.289 . S
O482 C481 1.235 . S
C483 C485 1.400 . S
C483 N486 1.351 . S
C483 C488 1.501 . S
C484 C485 1.387 . S
C484 N487 1.341 . S
C485 C483 1.400 . S
C485 C484 1.387 . S
N486 Co477 2.022 . S
N486 C483 1.351 . S
N486 N487 1.365 . S
N487 C484 1.341 . S
N487 N486 1.365 . S
N487 H507 0.862 . S
C488 C483 1.501 . S
C488 H489 0.961 . S
C488 H490 0.961 . S
C488 H491 0.960 . S
H489 C488 0.961 . S
H490 C488 0.961 . S
H491 C488 0.960 . S
C492 N493 1.342 . S
C492 C496 1.401 . S
C492 C497 1.499 . S
N493 Co476 1.989 . S
N493 C492 1.342 . S
N493 N494 1.388 . S
N494 Co477 1.993 . S
N494 N493 1.388 . S
N494 C495 1.346 . S
C495 N494 1.346 . S
C495 C496 1.396 . S
C495 C505 1.510 . S
C496 C492 1.401 . S
C496 C495 1.396 . S
C497 C492 1.499 . S
C497 H498 0.959 . S
C497 H499 0.960 . S
C497 H500 0.961 . S
H498 C497 0.959 . S
H499 C497 0.960 . S
H500 C497 0.961 . S
O501 Co476 1.967 . S
O501 C509 1.258 . S
O502 Co477 1.941 . S
O502 C509 1.266 . S
H503 C505 0.959 . S
H504 C505 0.961 . S
C505 C495 1.510 . S
C505 H503 0.959 . S
C505 H504 0.961 . S
C505 H506 0.960 . S
H506 C505 0.960 . S
H507 N487 0.862 . S
O508 Co476 1.920 . S
O508 C481 1.289 . S
C509 O501 1.258 . S
C509 O502 1.266 . S
Co510 O513 1.970 . S
Co510 N527 1.989 . S
Co510 O535 1.967 . S
Co510 O542 1.920 . S
Co511 O514 1.966 . S
Co511 N520 2.022 . S
Co511 N528 1.993 . S
Co511 O536 1.941 . S
C512 O513 1.258 . S
C512 O514 1.263 . S
O513 Co510 1.970 . S
O513 C512 1.258 . S
O514 Co511 1.966 . S
O514 C512 1.263 . S
C515 O516 1.235 . S
C515 O542 1.289 . S
O516 C515 1.235 . S
C517 C519 1.400 . S
C517 N520 1.351 . S
C517 C522 1.501 . S
C518 C519 1.387 . S
C518 N521 1.341 . S
C519 C517 1.400 . S
C519 C518 1.387 . S
N520 Co511 2.022 . S
N520 C517 1.351 . S
N520 N521 1.365 . S
N521 C518 1.341 . S
N521 N520 1.365 . S
N521 H541 0.862 . S
C522 C517 1.501 . S
C522 H523 0.961 . S
C522 H524 0.961 . S
C522 H525 0.960 . S
H523 C522 0.961 . S
H524 C522 0.961 . S
H525 C522 0.960 . S
C526 N527 1.342 . S
C526 C530 1.401 . S
C526 C531 1.499 . S
N527 Co510 1.989 . S
N527 C526 1.342 . S
N527 N528 1.388 . S
N528 Co511 1.993 . S
N528 N527 1.388 . S
N528 C529 1.346 . S
C529 N528 1.346 . S
C529 C530 1.396 . S
C529 C539 1.510 . S
C530 C526 1.401 . S
C530 C529 1.396 . S
C531 C526 1.499 . S
C531 H532 0.959 . S
C531 H533 0.960 . S
C531 H534 0.961 . S
H532 C531 0.959 . S
H533 C531 0.960 . S
H534 C531 0.961 . S
O535 Co510 1.967 . S
O535 C543 1.258 . S
O536 Co511 1.941 . S
O536 C543 1.266 . S
H537 C539 0.959 . S
H538 C539 0.961 . S
C539 C529 1.510 . S
C539 H537 0.959 . S
C539 H538 0.961 . S
C539 H540 0.960 . S
H540 C539 0.960 . S
H541 N521 0.862 . S
O542 Co510 1.920 . S
O542 C515 1.289 . S
C543 O535 1.258 . S
C543 O536 1.266 . S
Co544 O547 1.970 . S
Co544 N561 1.989 . S
Co544 O569 1.967 . S
Co544 O576 1.920 . S
Co545 O548 1.966 . S
Co545 N554 2.022 . S
Co545 N562 1.993 . S
Co545 O570 1.941 . S
C546 O547 1.258 . S
C546 O548 1.263 . S
O547 Co544 1.970 . S
O547 C546 1.258 . S
O548 Co545 1.966 . S
O548 C546 1.263 . S
C549 O550 1.235 . S
C549 O576 1.289 . S
O550 C549 1.235 . S
C551 C553 1.400 . S
C551 N554 1.351 . S
C551 C556 1.501 . S
C552 C553 1.387 . S
C552 N555 1.341 . S
C553 C551 1.400 . S
C553 C552 1.387 . S
N554 Co545 2.022 . S
N554 C551 1.351 . S
N554 N555 1.365 . S
N555 C552 1.341 . S
N555 N554 1.365 . S
N555 H575 0.862 . S
C556 C551 1.501 . S
C556 H557 0.961 . S
C556 H558 0.961 . S
C556 H559 0.960 . S
H557 C556 0.961 . S
H558 C556 0.961 . S
H559 C556 0.960 . S
C560 N561 1.342 . S
C560 C564 1.401 . S
C560 C565 1.499 . S
N561 Co544 1.989 . S
N561 C560 1.342 . S
N561 N562 1.388 . S
N562 Co545 1.993 . S
N562 N561 1.388 . S
N562 C563 1.346 . S
C563 N562 1.346 . S
C563 C564 1.396 . S
C563 C573 1.510 . S
C564 C560 1.401 . S
C564 C563 1.396 . S
C565 C560 1.499 . S
C565 H566 0.959 . S
C565 H567 0.960 . S
C565 H568 0.961 . S
H566 C565 0.959 . S
H567 C565 0.960 . S
H568 C565 0.961 . S
O569 Co544 1.967 . S
O569 C577 1.258 . S
O570 Co545 1.941 . S
O570 C577 1.266 . S
H571 C573 0.959 . S
H572 C573 0.961 . S
C573 C563 1.510 . S
C573 H571 0.959 . S
C573 H572 0.961 . S
C573 H574 0.960 . S
H574 C573 0.960 . S
H575 N555 0.862 . S
O576 Co544 1.920 . S
O576 C549 1.289 . S
C577 O569 1.258 . S
C577 O570 1.266 . S
Co578 O581 1.970 . S
Co578 N595 1.989 . S
Co578 O603 1.967 . S
Co578 O610 1.920 . S
Co579 O582 1.966 . S
Co579 N588 2.022 . S
Co579 N596 1.993 . S
Co579 O604 1.941 . S
C580 O581 1.258 . S
C580 O582 1.263 . S
O581 Co578 1.970 . S
O581 C580 1.258 . S
O582 Co579 1.966 . S
O582 C580 1.263 . S
C583 O584 1.235 . S
C583 O610 1.289 . S
O584 C583 1.235 . S
C585 C587 1.400 . S
C585 N588 1.351 . S
C585 C590 1.501 . S
C586 C587 1.387 . S
C586 N589 1.341 . S
C587 C585 1.400 . S
C587 C586 1.387 . S
N588 Co579 2.022 . S
N588 C585 1.351 . S
N588 N589 1.365 . S
N589 C586 1.341 . S
N589 N588 1.365 . S
N589 H609 0.862 . S
C590 C585 1.501 . S
C590 H591 0.961 . S
C590 H592 0.961 . S
C590 H593 0.960 . S
H591 C590 0.961 . S
H592 C590 0.961 . S
H593 C590 0.960 . S
C594 N595 1.342 . S
C594 C598 1.401 . S
C594 C599 1.499 . S
N595 Co578 1.989 . S
N595 C594 1.342 . S
N595 N596 1.388 . S
N596 Co579 1.993 . S
N596 N595 1.388 . S
N596 C597 1.346 . S
C597 N596 1.346 . S
C597 C598 1.396 . S
C597 C607 1.510 . S
C598 C594 1.401 . S
C598 C597 1.396 . S
C599 C594 1.499 . S
C599 H600 0.959 . S
C599 H601 0.960 . S
C599 H602 0.961 . S
H600 C599 0.959 . S
H601 C599 0.960 . S
H602 C599 0.961 . S
O603 Co578 1.967 . S
O603 C611 1.258 . S
O604 Co579 1.941 . S
O604 C611 1.266 . S
H605 C607 0.959 . S
H606 C607 0.961 . S
C607 C597 1.510 . S
C607 H605 0.959 . S
C607 H606 0.961 . S
C607 H608 0.960 . S
H608 C607 0.960 . S
H609 N589 0.862 . S
O610 Co578 1.920 . S
O610 C583 1.289 . S
C611 O603 1.258 . S
C611 O604 1.266 . S
Co612 O615 1.970 . S
Co612 N629 1.989 . S
Co612 O637 1.967 . S
Co612 O644 1.920 . S
Co613 O616 1.966 . S
Co613 N622 2.022 . S
Co613 N630 1.993 . S
Co613 O638 1.941 . S
C614 O615 1.258 . S
C614 O616 1.263 . S
O615 Co612 1.970 . S
O615 C614 1.258 . S
O616 Co613 1.966 . S
O616 C614 1.263 . S
C617 O618 1.235 . S
C617 O644 1.289 . S
O618 C617 1.235 . S
C619 C621 1.400 . S
C619 N622 1.351 . S
C619 C624 1.501 . S
C620 C621 1.387 . S
C620 N623 1.341 . S
C621 C619 1.400 . S
C621 C620 1.387 . S
N622 Co613 2.022 . S
N622 C619 1.351 . S
N622 N623 1.365 . S
N623 C620 1.341 . S
N623 N622 1.365 . S
N623 H643 0.862 . S
C624 C619 1.501 . S
C624 H625 0.961 . S
C624 H626 0.961 . S
C624 H627 0.960 . S
H625 C624 0.961 . S
H626 C624 0.961 . S
H627 C624 0.960 . S
C628 N629 1.342 . S
C628 C632 1.401 . S
C628 C633 1.499 . S
N629 Co612 1.989 . S
N629 C628 1.342 . S
N629 N630 1.388 . S
N630 Co613 1.993 . S
N630 N629 1.388 . S
N630 C631 1.346 . S
C631 N630 1.346 . S
C631 C632 1.396 . S
C631 C641 1.510 . S
C632 C628 1.401 . S
C632 C631 1.396 . S
C633 C628 1.499 . S
C633 H634 0.959 . S
C633 H635 0.960 . S
C633 H636 0.961 . S
H634 C633 0.959 . S
H635 C633 0.960 . S
H636 C633 0.961 . S
O637 Co612 1.967 . S
O637 C645 1.258 . S
O638 Co613 1.941 . S
O638 C645 1.266 . S
H639 C641 0.959 . S
H640 C641 0.961 . S
C641 C631 1.510 . S
C641 H639 0.959 . S
C641 H640 0.961 . S
C641 H642 0.960 . S
H642 C641 0.960 . S
H643 N623 0.862 . S
O644 Co612 1.920 . S
O644 C617 1.289 . S
C645 O637 1.258 . S
C645 O638 1.266 . S
Co646 O649 1.970 . S
Co646 N663 1.989 . S
Co646 O671 1.967 . S
Co646 O678 1.920 . S
Co647 O650 1.966 . S
Co647 N656 2.022 . S
Co647 N664 1.993 . S
Co647 O672 1.941 . S
C648 O649 1.258 . S
C648 O650 1.263 . S
O649 Co646 1.970 . S
O649 C648 1.258 . S
O650 Co647 1.966 . S
O650 C648 1.263 . S
C651 O652 1.235 . S
C651 O678 1.289 . S
O652 C651 1.235 . S
C653 C655 1.400 . S
C653 N656 1.351 . S
C653 C658 1.501 . S
C654 C655 1.387 . S
C654 N657 1.341 . S
C655 C653 1.400 . S
C655 C654 1.387 . S
N656 Co647 2.022 . S
N656 C653 1.351 . S
N656 N657 1.365 . S
N657 C654 1.341 . S
N657 N656 1.365 . S
N657 H677 0.862 . S
C658 C653 1.501 . S
C658 H659 0.961 . S
C658 H660 0.961 . S
C658 H661 0.960 . S
H659 C658 0.961 . S
H660 C658 0.961 . S
H661 C658 0.960 . S
C662 N663 1.342 . S
C662 C666 1.401 . S
C662 C667 1.499 . S
N663 Co646 1.989 . S
N663 C662 1.342 . S
N663 N664 1.388 . S
N664 Co647 1.993 . S
N664 N663 1.388 . S
N664 C665 1.346 . S
C665 N664 1.346 . S
C665 C666 1.396 . S
C665 C675 1.510 . S
C666 C662 1.401 . S
C666 C665 1.396 . S
C667 C662 1.499 . S
C667 H668 0.959 . S
C667 H669 0.960 . S
C667 H670 0.961 . S
H668 C667 0.959 . S
H669 C667 0.960 . S
H670 C667 0.961 . S
O671 Co646 1.967 . S
O671 C679 1.258 . S
O672 Co647 1.941 . S
O672 C679 1.266 . S
H673 C675 0.959 . S
H674 C675 0.961 . S
C675 C665 1.510 . S
C675 H673 0.959 . S
C675 H674 0.961 . S
C675 H676 0.960 . S
H676 C675 0.960 . S
H677 N657 0.862 . S
O678 Co646 1.920 . S
O678 C651 1.289 . S
C679 O671 1.258 . S
C679 O672 1.266 . S
Co680 O683 1.970 . S
Co680 N697 1.989 . S
Co680 O705 1.967 . S
Co680 O712 1.920 . S
Co681 O684 1.966 . S
Co681 N690 2.022 . S
Co681 N698 1.993 . S
Co681 O706 1.941 . S
C682 O683 1.258 . S
C682 O684 1.263 . S
O683 Co680 1.970 . S
O683 C682 1.258 . S
O684 Co681 1.966 . S
O684 C682 1.263 . S
C685 O686 1.235 . S
C685 O712 1.289 . S
O686 C685 1.235 . S
C687 C689 1.400 . S
C687 N690 1.351 . S
C687 C692 1.501 . S
C688 C689 1.387 . S
C688 N691 1.341 . S
C689 C687 1.400 . S
C689 C688 1.387 . S
N690 Co681 2.022 . S
N690 C687 1.351 . S
N690 N691 1.365 . S
N691 C688 1.341 . S
N691 N690 1.365 . S
N691 H711 0.862 . S
C692 C687 1.501 . S
C692 H693 0.961 . S
C692 H694 0.961 . S
C692 H695 0.960 . S
H693 C692 0.961 . S
H694 C692 0.961 . S
H695 C692 0.960 . S
C696 N697 1.342 . S
C696 C700 1.401 . S
C696 C701 1.499 . S
N697 Co680 1.989 . S
N697 C696 1.342 . S
N697 N698 1.388 . S
N698 Co681 1.993 . S
N698 N697 1.388 . S
N698 C699 1.346 . S
C699 N698 1.346 . S
C699 C700 1.396 . S
C699 C709 1.510 . S
C700 C696 1.401 . S
C700 C699 1.396 . S
C701 C696 1.499 . S
C701 H702 0.959 . S
C701 H703 0.960 . S
C701 H704 0.961 . S
H702 C701 0.959 . S
H703 C701 0.960 . S
H704 C701 0.961 . S
O705 Co680 1.967 . S
O705 C713 1.258 . S
O706 Co681 1.941 . S
O706 C713 1.266 . S
H707 C709 0.959 . S
H708 C709 0.961 . S
C709 C699 1.510 . S
C709 H707 0.959 . S
C709 H708 0.961 . S
C709 H710 0.960 . S
H710 C709 0.960 . S
H711 N691 0.862 . S
O712 Co680 1.920 . S
O712 C685 1.289 . S
C713 O705 1.258 . S
C713 O706 1.266 . S
Co714 O717 1.970 . S
Co714 N731 1.989 . S
Co714 O739 1.967 . S
Co714 O746 1.920 . S
Co715 O718 1.966 . S
Co715 N724 2.022 . S
Co715 N732 1.993 . S
Co715 O740 1.941 . S
C716 O717 1.258 . S
C716 O718 1.263 . S
O717 Co714 1.970 . S
O717 C716 1.258 . S
O718 Co715 1.966 . S
O718 C716 1.263 . S
C719 O720 1.235 . S
C719 O746 1.289 . S
O720 C719 1.235 . S
C721 C723 1.400 . S
C721 N724 1.351 . S
C721 C726 1.501 . S
C722 C723 1.387 . S
C722 N725 1.341 . S
C723 C721 1.400 . S
C723 C722 1.387 . S
N724 Co715 2.022 . S
N724 C721 1.351 . S
N724 N725 1.365 . S
N725 C722 1.341 . S
N725 N724 1.365 . S
N725 H745 0.862 . S
C726 C721 1.501 . S
C726 H727 0.961 . S
C726 H728 0.961 . S
C726 H729 0.960 . S
H727 C726 0.961 . S
H728 C726 0.961 . S
H729 C726 0.960 . S
C730 N731 1.342 . S
C730 C734 1.401 . S
C730 C735 1.499 . S
N731 Co714 1.989 . S
N731 C730 1.342 . S
N731 N732 1.388 . S
N732 Co715 1.993 . S
N732 N731 1.388 . S
N732 C733 1.346 . S
C733 N732 1.346 . S
C733 C734 1.396 . S
C733 C743 1.510 . S
C734 C730 1.401 . S
C734 C733 1.396 . S
C735 C730 1.499 . S
C735 H736 0.959 . S
C735 H737 0.960 . S
C735 H738 0.961 . S
H736 C735 0.959 . S
H737 C735 0.960 . S
H738 C735 0.961 . S
O739 Co714 1.967 . S
O739 C747 1.258 . S
O740 Co715 1.941 . S
O740 C747 1.266 . S
H741 C743 0.959 . S
H742 C743 0.961 . S
C743 C733 1.510 . S
C743 H741 0.959 . S
C743 H742 0.961 . S
C743 H744 0.960 . S
H744 C743 0.960 . S
H745 N725 0.862 . S
O746 Co714 1.920 . S
O746 C719 1.289 . S
C747 O739 1.258 . S
C747 O740 1.266 . S
Co748 O751 1.970 . S
Co748 N765 1.989 . S
Co748 O773 1.967 . S
Co748 O780 1.920 . S
Co749 O752 1.966 . S
Co749 N758 2.022 . S
Co749 N766 1.993 . S
Co749 O774 1.941 . S
C750 O751 1.258 . S
C750 O752 1.263 . S
O751 Co748 1.970 . S
O751 C750 1.258 . S
O752 Co749 1.966 . S
O752 C750 1.263 . S
C753 O754 1.235 . S
C753 O780 1.289 . S
O754 C753 1.235 . S
C755 C757 1.400 . S
C755 N758 1.351 . S
C755 C760 1.501 . S
C756 C757 1.387 . S
C756 N759 1.341 . S
C757 C755 1.400 . S
C757 C756 1.387 . S
N758 Co749 2.022 . S
N758 C755 1.351 . S
N758 N759 1.365 . S
N759 C756 1.341 . S
N759 N758 1.365 . S
N759 H779 0.862 . S
C760 C755 1.501 . S
C760 H761 0.961 . S
C760 H762 0.961 . S
C760 H763 0.960 . S
H761 C760 0.961 . S
H762 C760 0.961 . S
H763 C760 0.960 . S
C764 N765 1.342 . S
C764 C768 1.401 . S
C764 C769 1.499 . S
N765 Co748 1.989 . S
N765 C764 1.342 . S
N765 N766 1.388 . S
N766 Co749 1.993 . S
N766 N765 1.388 . S
N766 C767 1.346 . S
C767 N766 1.346 . S
C767 C768 1.396 . S
C767 C777 1.510 . S
C768 C764 1.401 . S
C768 C767 1.396 . S
C769 C764 1.499 . S
C769 H770 0.959 . S
C769 H771 0.960 . S
C769 H772 0.961 . S
H770 C769 0.959 . S
H771 C769 0.960 . S
H772 C769 0.961 . S
O773 Co748 1.967 . S
O773 C781 1.258 . S
O774 Co749 1.941 . S
O774 C781 1.266 . S
H775 C777 0.959 . S
H776 C777 0.961 . S
C777 C767 1.510 . S
C777 H775 0.959 . S
C777 H776 0.961 . S
C777 H778 0.960 . S
H778 C777 0.960 . S
H779 N759 0.862 . S
O780 Co748 1.920 . S
O780 C753 1.289 . S
C781 O773 1.258 . S
C781 O774 1.266 . S
Co782 O785 1.970 . S
Co782 N799 1.989 . S
Co782 O807 1.967 . S
Co782 O814 1.920 . S
Co783 O786 1.966 . S
Co783 N792 2.022 . S
Co783 N800 1.993 . S
Co783 O808 1.941 . S
C784 O785 1.258 . S
C784 O786 1.263 . S
O785 Co782 1.970 . S
O785 C784 1.258 . S
O786 Co783 1.966 . S
O786 C784 1.263 . S
C787 O788 1.235 . S
C787 O814 1.289 . S
O788 C787 1.235 . S
C789 C791 1.400 . S
C789 N792 1.351 . S
C789 C794 1.501 . S
C790 C791 1.387 . S
C790 N793 1.341 . S
C791 C789 1.400 . S
C791 C790 1.387 . S
N792 Co783 2.022 . S
N792 C789 1.351 . S
N792 N793 1.365 . S
N793 C790 1.341 . S
N793 N792 1.365 . S
N793 H813 0.862 . S
C794 C789 1.501 . S
C794 H795 0.961 . S
C794 H796 0.961 . S
C794 H797 0.960 . S
H795 C794 0.961 . S
H796 C794 0.961 . S
H797 C794 0.960 . S
C798 N799 1.342 . S
C798 C802 1.401 . S
C798 C803 1.499 . S
N799 Co782 1.989 . S
N799 C798 1.342 . S
N799 N800 1.388 . S
N800 Co783 1.993 . S
N800 N799 1.388 . S
N800 C801 1.346 . S
C801 N800 1.346 . S
C801 C802 1.396 . S
C801 C811 1.510 . S
C802 C798 1.401 . S
C802 C801 1.396 . S
C803 C798 1.499 . S
C803 H804 0.959 . S
C803 H805 0.960 . S
C803 H806 0.961 . S
H804 C803 0.959 . S
H805 C803 0.960 . S
H806 C803 0.961 . S
O807 Co782 1.967 . S
O807 C815 1.258 . S
O808 Co783 1.941 . S
O808 C815 1.266 . S
H809 C811 0.959 . S
H810 C811 0.961 . S
C811 C801 1.510 . S
C811 H809 0.959 . S
C811 H810 0.961 . S
C811 H812 0.960 . S
H812 C811 0.960 . S
H813 N793 0.862 . S
O814 Co782 1.920 . S
O814 C787 1.289 . S
C815 O807 1.258 . S
C815 O808 1.266 . S
Co816 O819 1.970 . S
Co816 N833 1.989 . S
Co816 O841 1.967 . S
Co816 O848 1.920 . S
Co817 O820 1.966 . S
Co817 N826 2.022 . S
Co817 N834 1.993 . S
Co817 O842 1.941 . S
C818 O819 1.258 . S
C818 O820 1.263 . S
O819 Co816 1.970 . S
O819 C818 1.258 . S
O820 Co817 1.966 . S
O820 C818 1.263 . S
C821 O822 1.235 . S
C821 O848 1.289 . S
O822 C821 1.235 . S
C823 C825 1.400 . S
C823 N826 1.351 . S
C823 C828 1.501 . S
C824 C825 1.387 . S
C824 N827 1.341 . S
C825 C823 1.400 . S
C825 C824 1.387 . S
N826 Co817 2.022 . S
N826 C823 1.351 . S
N826 N827 1.365 . S
N827 C824 1.341 . S
N827 N826 1.365 . S
N827 H847 0.862 . S
C828 C823 1.501 . S
C828 H829 0.961 . S
C828 H830 0.961 . S
C828 H831 0.960 . S
H829 C828 0.961 . S
H830 C828 0.961 . S
H831 C828 0.960 . S
C832 N833 1.342 . S
C832 C836 1.401 . S
C832 C837 1.499 . S
N833 Co816 1.989 . S
N833 C832 1.342 . S
N833 N834 1.388 . S
N834 Co817 1.993 . S
N834 N833 1.388 . S
N834 C835 1.346 . S
C835 N834 1.346 . S
C835 C836 1.396 . S
C835 C845 1.510 . S
C836 C832 1.401 . S
C836 C835 1.396 . S
C837 C832 1.499 . S
C837 H838 0.959 . S
C837 H839 0.960 . S
C837 H840 0.961 . S
H838 C837 0.959 . S
H839 C837 0.960 . S
H840 C837 0.961 . S
O841 Co816 1.967 . S
O841 C849 1.258 . S
O842 Co817 1.941 . S
O842 C849 1.266 . S
H843 C845 0.959 . S
H844 C845 0.961 . S
C845 C835 1.510 . S
C845 H843 0.959 . S
C845 H844 0.961 . S
C845 H846 0.960 . S
H846 C845 0.960 . S
H847 N827 0.862 . S
O848 Co816 1.920 . S
O848 C821 1.289 . S
C849 O841 1.258 . S
C849 O842 1.266 . S
Co850 O853 1.970 . S
Co850 N867 1.989 . S
Co850 O875 1.967 . S
Co850 O882 1.920 . S
Co851 O854 1.966 . S
Co851 N860 2.022 . S
Co851 N868 1.993 . S
Co851 O876 1.941 . S
C852 O853 1.258 . S
C852 O854 1.263 . S
O853 Co850 1.970 . S
O853 C852 1.258 . S
O854 Co851 1.966 . S
O854 C852 1.263 . S
C855 O856 1.235 . S
C855 O882 1.289 . S
O856 C855 1.235 . S
C857 C859 1.400 . S
C857 N860 1.351 . S
C857 C862 1.501 . S
C858 C859 1.387 . S
C858 N861 1.341 . S
C859 C857 1.400 . S
C859 C858 1.387 . S
N860 Co851 2.022 . S
N860 C857 1.351 . S
N860 N861 1.365 . S
N861 C858 1.341 . S
N861 N860 1.365 . S
N861 H881 0.862 . S
C862 C857 1.501 . S
C862 H863 0.961 . S
C862 H864 0.961 . S
C862 H865 0.960 . S
H863 C862 0.961 . S
H864 C862 0.961 . S
H865 C862 0.960 . S
C866 N867 1.342 . S
C866 C870 1.401 . S
C866 C871 1.499 . S
N867 Co850 1.989 . S
N867 C866 1.342 . S
N867 N868 1.388 . S
N868 Co851 1.993 . S
N868 N867 1.388 . S
N868 C869 1.346 . S
C869 N868 1.346 . S
C869 C870 1.396 . S
C869 C879 1.510 . S
C870 C866 1.401 . S
C870 C869 1.396 . S
C871 C866 1.499 . S
C871 H872 0.959 . S
C871 H873 0.960 . S
C871 H874 0.961 . S
H872 C871 0.959 . S
H873 C871 0.960 . S
H874 C871 0.961 . S
O875 Co850 1.967 . S
O875 C883 1.258 . S
O876 Co851 1.941 . S
O876 C883 1.266 . S
H877 C879 0.959 . S
H878 C879 0.961 . S
C879 C869 1.510 . S
C879 H877 0.959 . S
C879 H878 0.961 . S
C879 H880 0.960 . S
H880 C879 0.960 . S
H881 N861 0.862 . S
O882 Co850 1.920 . S
O882 C855 1.289 . S
C883 O875 1.258 . S
C883 O876 1.266 . S
Co884 O887 1.970 . S
Co884 N901 1.989 . S
Co884 O909 1.967 . S
Co884 O916 1.920 . S
Co885 O888 1.966 . S
Co885 N894 2.022 . S
Co885 N902 1.993 . S
Co885 O910 1.941 . S
C886 O887 1.258 . S
C886 O888 1.263 . S
O887 Co884 1.970 . S
O887 C886 1.258 . S
O888 Co885 1.966 . S
O888 C886 1.263 . S
C889 O890 1.235 . S
C889 O916 1.289 . S
O890 C889 1.235 . S
C891 C893 1.400 . S
C891 N894 1.351 . S
C891 C896 1.501 . S
C892 C893 1.387 . S
C892 N895 1.341 . S
C893 C891 1.400 . S
C893 C892 1.387 . S
N894 Co885 2.022 . S
N894 C891 1.351 . S
N894 N895 1.365 . S
N895 C892 1.341 . S
N895 N894 1.365 . S
N895 H915 0.862 . S
C896 C891 1.501 . S
C896 H897 0.961 . S
C896 H898 0.961 . S
C896 H899 0.960 . S
H897 C896 0.961 . S
H898 C896 0.961 . S
H899 C896 0.960 . S
C900 N901 1.342 . S
C900 C904 1.401 . S
C900 C905 1.499 . S
N901 Co884 1.989 . S
N901 C900 1.342 . S
N901 N902 1.388 . S
N902 Co885 1.993 . S
N902 N901 1.388 . S
N902 C903 1.346 . S
C903 N902 1.346 . S
C903 C904 1.396 . S
C903 C913 1.510 . S
C904 C900 1.401 . S
C904 C903 1.396 . S
C905 C900 1.499 . S
C905 H906 0.959 . S
C905 H907 0.960 . S
C905 H908 0.961 . S
H906 C905 0.959 . S
H907 C905 0.960 . S
H908 C905 0.961 . S
O909 Co884 1.967 . S
O909 C917 1.258 . S
O910 Co885 1.941 . S
O910 C917 1.266 . S
H911 C913 0.959 . S
H912 C913 0.961 . S
C913 C903 1.510 . S
C913 H911 0.959 . S
C913 H912 0.961 . S
C913 H914 0.960 . S
H914 C913 0.960 . S
H915 N895 0.862 . S
O916 Co884 1.920 . S
O916 C889 1.289 . S
C917 O909 1.258 . S
C917 O910 1.266 . S
Co918 O921 1.970 . S
Co918 N935 1.989 . S
Co918 O943 1.967 . S
Co918 O950 1.920 . S
Co919 O922 1.966 . S
Co919 N928 2.022 . S
Co919 N936 1.993 . S
Co919 O944 1.941 . S
C920 O921 1.258 . S
C920 O922 1.263 . S
O921 Co918 1.970 . S
O921 C920 1.258 . S
O922 Co919 1.966 . S
O922 C920 1.263 . S
C923 O924 1.235 . S
C923 O950 1.289 . S
O924 C923 1.235 . S
C925 C927 1.400 . S
C925 N928 1.351 . S
C925 C930 1.501 . S
C926 C927 1.387 . S
C926 N929 1.341 . S
C927 C925 1.400 . S
C927 C926 1.387 . S
N928 Co919 2.022 . S
N928 C925 1.351 . S
N928 N929 1.365 . S
N929 C926 1.341 . S
N929 N928 1.365 . S
N929 H949 0.862 . S
C930 C925 1.501 . S
C930 H931 0.961 . S
C930 H932 0.961 . S
C930 H933 0.960 . S
H931 C930 0.961 . S
H932 C930 0.961 . S
H933 C930 0.960 . S
C934 N935 1.342 . S
C934 C938 1.401 . S
C934 C939 1.499 . S
N935 Co918 1.989 . S
N935 C934 1.342 . S
N935 N936 1.388 . S
N936 Co919 1.993 . S
N936 N935 1.388 . S
N936 C937 1.346 . S
C937 N936 1.346 . S
C937 C938 1.396 . S
C937 C947 1.510 . S
C938 C934 1.401 . S
C938 C937 1.396 . S
C939 C934 1.499 . S
C939 H940 0.959 . S
C939 H941 0.960 . S
C939 H942 0.961 . S
H940 C939 0.959 . S
H941 C939 0.960 . S
H942 C939 0.961 . S
O943 Co918 1.967 . S
O943 C951 1.258 . S
O944 Co919 1.941 . S
O944 C951 1.266 . S
H945 C947 0.959 . S
H946 C947 0.961 . S
C947 C937 1.510 . S
C947 H945 0.959 . S
C947 H946 0.961 . S
C947 H948 0.960 . S
H948 C947 0.960 . S
H949 N929 0.862 . S
O950 Co918 1.920 . S
O950 C923 1.289 . S
C951 O943 1.258 . S
C951 O944 1.266 . S
Co952 O955 1.970 . S
Co952 N969 1.989 . S
Co952 O977 1.967 . S
Co952 O984 1.920 . S
Co953 O956 1.966 . S
Co953 N962 2.022 . S
Co953 N970 1.993 . S
Co953 O978 1.941 . S
C954 O955 1.258 . S
C954 O956 1.263 . S
O955 Co952 1.970 . S
O955 C954 1.258 . S
O956 Co953 1.966 . S
O956 C954 1.263 . S
C957 O958 1.235 . S
C957 O984 1.289 . S
O958 C957 1.235 . S
C959 C961 1.400 . S
C959 N962 1.351 . S
C959 C964 1.501 . S
C960 C961 1.387 . S
C960 N963 1.341 . S
C961 C959 1.400 . S
C961 C960 1.387 . S
N962 Co953 2.022 . S
N962 C959 1.351 . S
N962 N963 1.365 . S
N963 C960 1.341 . S
N963 N962 1.365 . S
N963 H983 0.862 . S
C964 C959 1.501 . S
C964 H965 0.961 . S
C964 H966 0.961 . S
C964 H967 0.960 . S
H965 C964 0.961 . S
H966 C964 0.961 . S
H967 C964 0.960 . S
C968 N969 1.342 . S
C968 C972 1.401 . S
C968 C973 1.499 . S
N969 Co952 1.989 . S
N969 C968 1.342 . S
N969 N970 1.388 . S
N970 Co953 1.993 . S
N970 N969 1.388 . S
N970 C971 1.346 . S
C971 N970 1.346 . S
C971 C972 1.396 . S
C971 C981 1.510 . S
C972 C968 1.401 . S
C972 C971 1.396 . S
C973 C968 1.499 . S
C973 H974 0.959 . S
C973 H975 0.960 . S
C973 H976 0.961 . S
H974 C973 0.959 . S
H975 C973 0.960 . S
H976 C973 0.961 . S
O977 Co952 1.967 . S
O977 C985 1.258 . S
O978 Co953 1.941 . S
O978 C985 1.266 . S
H979 C981 0.959 . S
H980 C981 0.961 . S
C981 C971 1.510 . S
C981 H979 0.959 . S
C981 H980 0.961 . S
C981 H982 0.960 . S
H982 C981 0.960 . S
H983 N963 0.862 . S
O984 Co952 1.920 . S
O984 C957 1.289 . S
C985 O977 1.258 . S
C985 O978 1.266 . S
Co986 O989 1.970 . S
Co986 N1003 1.989 . S
Co986 O1011 1.967 . S
Co986 O1018 1.920 . S
Co987 O990 1.966 . S
Co987 N996 2.022 . S
Co987 N1004 1.993 . S
Co987 O1012 1.941 . S
C988 O989 1.258 . S
C988 O990 1.263 . S
O989 Co986 1.970 . S
O989 C988 1.258 . S
O990 Co987 1.966 . S
O990 C988 1.263 . S
C991 O992 1.235 . S
C991 O1018 1.289 . S
O992 C991 1.235 . S
C993 C995 1.400 . S
C993 N996 1.351 . S
C993 C998 1.501 . S
C994 C995 1.387 . S
C994 N997 1.341 . S
C995 C993 1.400 . S
C995 C994 1.387 . S
N996 Co987 2.022 . S
N996 C993 1.351 . S
N996 N997 1.365 . S
N997 C994 1.341 . S
N997 N996 1.365 . S
N997 H1017 0.862 . S
C998 C993 1.501 . S
C998 H999 0.961 . S
C998 H1000 0.961 . S
C998 H1001 0.960 . S
H999 C998 0.961 . S
H1000 C998 0.961 . S
H1001 C998 0.960 . S
C1002 N1003 1.342 . S
C1002 C1006 1.401 . S
C1002 C1007 1.499 . S
N1003 Co986 1.989 . S
N1003 C1002 1.342 . S
N1003 N1004 1.388 . S
N1004 Co987 1.993 . S
N1004 N1003 1.388 . S
N1004 C1005 1.346 . S
C1005 N1004 1.346 . S
C1005 C1006 1.396 . S
C1005 C1015 1.510 . S
C1006 C1002 1.401 . S
C1006 C1005 1.396 . S
C1007 C1002 1.499 . S
C1007 H1008 0.959 . S
C1007 H1009 0.960 . S
C1007 H1010 0.961 . S
H1008 C1007 0.959 . S
H1009 C1007 0.960 . S
H1010 C1007 0.961 . S
O1011 Co986 1.967 . S
O1011 C1019 1.258 . S
O1012 Co987 1.941 . S
O1012 C1019 1.266 . S
H1013 C1015 0.959 . S
H1014 C1015 0.961 . S
C1015 C1005 1.510 . S
C1015 H1013 0.959 . S
C1015 H1014 0.961 . S
C1015 H1016 0.960 . S
H1016 C1015 0.960 . S
H1017 N997 0.862 . S
O1018 Co986 1.920 . S
O1018 C991 1.289 . S
C1019 O1011 1.258 . S
C1019 O1012 1.266 . S
Co1020 O1023 1.970 . S
Co1020 N1037 1.989 . S
Co1020 O1045 1.967 . S
Co1020 O1052 1.920 . S
Co1021 O1024 1.966 . S
Co1021 N1030 2.022 . S
Co1021 N1038 1.993 . S
Co1021 O1046 1.941 . S
C1022 O1023 1.258 . S
C1022 O1024 1.263 . S
O1023 Co1020 1.970 . S
O1023 C1022 1.258 . S
O1024 Co1021 1.966 . S
O1024 C1022 1.263 . S
C1025 O1026 1.235 . S
C1025 O1052 1.289 . S
O1026 C1025 1.235 . S
C1027 C1029 1.400 . S
C1027 N1030 1.351 . S
C1027 C1032 1.501 . S
C1028 C1029 1.387 . S
C1028 N1031 1.341 . S
C1029 C1027 1.400 . S
C1029 C1028 1.387 . S
N1030 Co1021 2.022 . S
N1030 C1027 1.351 . S
N1030 N1031 1.365 . S
N1031 C1028 1.341 . S
N1031 N1030 1.365 . S
N1031 H1051 0.862 . S
C1032 C1027 1.501 . S
C1032 H1033 0.961 . S
C1032 H1034 0.961 . S
C1032 H1035 0.960 . S
H1033 C1032 0.961 . S
H1034 C1032 0.961 . S
H1035 C1032 0.960 . S
C1036 N1037 1.342 . S
C1036 C1040 1.401 . S
C1036 C1041 1.499 . S
N1037 Co1020 1.989 . S
N1037 C1036 1.342 . S
N1037 N1038 1.388 . S
N1038 Co1021 1.993 . S
N1038 N1037 1.388 . S
N1038 C1039 1.346 . S
C1039 N1038 1.346 . S
C1039 C1040 1.396 . S
C1039 C1049 1.510 . S
C1040 C1036 1.401 . S
C1040 C1039 1.396 . S
C1041 C1036 1.499 . S
C1041 H1042 0.959 . S
C1041 H1043 0.960 . S
C1041 H1044 0.961 . S
H1042 C1041 0.959 . S
H1043 C1041 0.960 . S
H1044 C1041 0.961 . S
O1045 Co1020 1.967 . S
O1045 C1053 1.258 . S
O1046 Co1021 1.941 . S
O1046 C1053 1.266 . S
H1047 C1049 0.959 . S
H1048 C1049 0.961 . S
C1049 C1039 1.510 . S
C1049 H1047 0.959 . S
C1049 H1048 0.961 . S
C1049 H1050 0.960 . S
H1050 C1049 0.960 . S
H1051 N1031 0.862 . S
O1052 Co1020 1.920 . S
O1052 C1025 1.289 . S
C1053 O1045 1.258 . S
C1053 O1046 1.266 . S
Co1054 O1057 1.970 . S
Co1054 N1071 1.989 . S
Co1054 O1079 1.967 . S
Co1054 O1086 1.920 . S
Co1055 O1058 1.966 . S
Co1055 N1064 2.022 . S
Co1055 N1072 1.993 . S
Co1055 O1080 1.941 . S
C1056 O1057 1.258 . S
C1056 O1058 1.263 . S
O1057 Co1054 1.970 . S
O1057 C1056 1.258 . S
O1058 Co1055 1.966 . S
O1058 C1056 1.263 . S
C1059 O1060 1.235 . S
C1059 O1086 1.289 . S
O1060 C1059 1.235 . S
C1061 C1063 1.400 . S
C1061 N1064 1.351 . S
C1061 C1066 1.501 . S
C1062 C1063 1.387 . S
C1062 N1065 1.341 . S
C1063 C1061 1.400 . S
C1063 C1062 1.387 . S
N1064 Co1055 2.022 . S
N1064 C1061 1.351 . S
N1064 N1065 1.365 . S
N1065 C1062 1.341 . S
N1065 N1064 1.365 . S
N1065 H1085 0.862 . S
C1066 C1061 1.501 . S
C1066 H1067 0.961 . S
C1066 H1068 0.961 . S
C1066 H1069 0.960 . S
H1067 C1066 0.961 . S
H1068 C1066 0.961 . S
H1069 C1066 0.960 . S
C1070 N1071 1.342 . S
C1070 C1074 1.401 . S
C1070 C1075 1.499 . S
N1071 Co1054 1.989 . S
N1071 C1070 1.342 . S
N1071 N1072 1.388 . S
N1072 Co1055 1.993 . S
N1072 N1071 1.388 . S
N1072 C1073 1.346 . S
C1073 N1072 1.346 . S
C1073 C1074 1.396 . S
C1073 C1083 1.510 . S
C1074 C1070 1.401 . S
C1074 C1073 1.396 . S
C1075 C1070 1.499 . S
C1075 H1076 0.959 . S
C1075 H1077 0.960 . S
C1075 H1078 0.961 . S
H1076 C1075 0.959 . S
H1077 C1075 0.960 . S
H1078 C1075 0.961 . S
O1079 Co1054 1.967 . S
O1079 C1087 1.258 . S
O1080 Co1055 1.941 . S
O1080 C1087 1.266 . S
H1081 C1083 0.959 . S
H1082 C1083 0.961 . S
C1083 C1073 1.510 . S
C1083 H1081 0.959 . S
C1083 H1082 0.961 . S
C1083 H1084 0.960 . S
H1084 C1083 0.960 . S
H1085 N1065 0.862 . S
O1086 Co1054 1.920 . S
O1086 C1059 1.289 . S
C1087 O1079 1.258 . S
C1087 O1080 1.266 . S
Co1088 O1091 1.970 . S
Co1088 N1105 1.989 . S
Co1088 O1113 1.967 . S
Co1088 O1120 1.920 . S
Co1089 O1092 1.966 . S
Co1089 N1098 2.022 . S
Co1089 N1106 1.993 . S
Co1089 O1114 1.941 . S
C1090 O1091 1.258 . S
C1090 O1092 1.263 . S
O1091 Co1088 1.970 . S
O1091 C1090 1.258 . S
O1092 Co1089 1.966 . S
O1092 C1090 1.263 . S
C1093 O1094 1.235 . S
C1093 O1120 1.289 . S
O1094 C1093 1.235 . S
C1095 C1097 1.400 . S
C1095 N1098 1.351 . S
C1095 C1100 1.501 . S
C1096 C1097 1.387 . S
C1096 N1099 1.341 . S
C1097 C1095 1.400 . S
C1097 C1096 1.387 . S
N1098 Co1089 2.022 . S
N1098 C1095 1.351 . S
N1098 N1099 1.365 . S
N1099 C1096 1.341 . S
N1099 N1098 1.365 . S
N1099 H1119 0.862 . S
C1100 C1095 1.501 . S
C1100 H1101 0.961 . S
C1100 H1102 0.961 . S
C1100 H1103 0.960 . S
H1101 C1100 0.961 . S
H1102 C1100 0.961 . S
H1103 C1100 0.960 . S
C1104 N1105 1.342 . S
C1104 C1108 1.401 . S
C1104 C1109 1.499 . S
N1105 Co1088 1.989 . S
N1105 C1104 1.342 . S
N1105 N1106 1.388 . S
N1106 Co1089 1.993 . S
N1106 N1105 1.388 . S
N1106 C1107 1.346 . S
C1107 N1106 1.346 . S
C1107 C1108 1.396 . S
C1107 C1117 1.510 . S
C1108 C1104 1.401 . S
C1108 C1107 1.396 . S
C1109 C1104 1.499 . S
C1109 H1110 0.959 . S
C1109 H1111 0.960 . S
C1109 H1112 0.961 . S
H1110 C1109 0.959 . S
H1111 C1109 0.960 . S
H1112 C1109 0.961 . S
O1113 Co1088 1.967 . S
O1113 C1121 1.258 . S
O1114 Co1089 1.941 . S
O1114 C1121 1.266 . S
H1115 C1117 0.959 . S
H1116 C1117 0.961 . S
C1117 C1107 1.510 . S
C1117 H1115 0.959 . S
C1117 H1116 0.961 . S
C1117 H1118 0.960 . S
H1118 C1117 0.960 . S
H1119 N1099 0.862 . S
O1120 Co1088 1.920 . S
O1120 C1093 1.289 . S
C1121 O1113 1.258 . S
C1121 O1114 1.266 . S
Co1122 O1125 1.970 . S
Co1122 N1139 1.989 . S
Co1122 O1147 1.967 . S
Co1122 O1154 1.920 . S
Co1123 O1126 1.966 . S
Co1123 N1132 2.022 . S
Co1123 N1140 1.993 . S
Co1123 O1148 1.941 . S
C1124 O1125 1.258 . S
C1124 O1126 1.263 . S
O1125 Co1122 1.970 . S
O1125 C1124 1.258 . S
O1126 Co1123 1.966 . S
O1126 C1124 1.263 . S
C1127 O1128 1.235 . S
C1127 O1154 1.289 . S
O1128 C1127 1.235 . S
C1129 C1131 1.400 . S
C1129 N1132 1.351 . S
C1129 C1134 1.501 . S
C1130 C1131 1.387 . S
C1130 N1133 1.341 . S
C1131 C1129 1.400 . S
C1131 C1130 1.387 . S
N1132 Co1123 2.022 . S
N1132 C1129 1.351 . S
N1132 N1133 1.365 . S
N1133 C1130 1.341 . S
N1133 N1132 1.365 . S
N1133 H1153 0.862 . S
C1134 C1129 1.501 . S
C1134 H1135 0.961 . S
C1134 H1136 0.961 . S
C1134 H1137 0.960 . S
H1135 C1134 0.961 . S
H1136 C1134 0.961 . S
H1137 C1134 0.960 . S
C1138 N1139 1.342 . S
C1138 C1142 1.401 . S
C1138 C1143 1.499 . S
N1139 Co1122 1.989 . S
N1139 C1138 1.342 . S
N1139 N1140 1.388 . S
N1140 Co1123 1.993 . S
N1140 N1139 1.388 . S
N1140 C1141 1.346 . S
C1141 N1140 1.346 . S
C1141 C1142 1.396 . S
C1141 C1151 1.510 . S
C1142 C1138 1.401 . S
C1142 C1141 1.396 . S
C1143 C1138 1.499 . S
C1143 H1144 0.959 . S
C1143 H1145 0.960 . S
C1143 H1146 0.961 . S
H1144 C1143 0.959 . S
H1145 C1143 0.960 . S
H1146 C1143 0.961 . S
O1147 Co1122 1.967 . S
O1147 C1155 1.258 . S
O1148 Co1123 1.941 . S
O1148 C1155 1.266 . S
H1149 C1151 0.959 . S
H1150 C1151 0.961 . S
C1151 C1141 1.510 . S
C1151 H1149 0.959 . S
C1151 H1150 0.961 . S
C1151 H1152 0.960 . S
H1152 C1151 0.960 . S
H1153 N1133 0.862 . S
O1154 Co1122 1.920 . S
O1154 C1127 1.289 . S
C1155 O1147 1.258 . S
C1155 O1148 1.266 . S
Co1156 O1159 1.970 . S
Co1156 N1173 1.989 . S
Co1156 O1181 1.967 . S
Co1156 O1188 1.920 . S
Co1157 O1160 1.966 . S
Co1157 N1166 2.022 . S
Co1157 N1174 1.993 . S
Co1157 O1182 1.941 . S
C1158 O1159 1.258 . S
C1158 O1160 1.263 . S
O1159 Co1156 1.970 . S
O1159 C1158 1.258 . S
O1160 Co1157 1.966 . S
O1160 C1158 1.263 . S
C1161 O1162 1.235 . S
C1161 O1188 1.289 . S
O1162 C1161 1.235 . S
C1163 C1165 1.400 . S
C1163 N1166 1.351 . S
C1163 C1168 1.501 . S
C1164 C1165 1.387 . S
C1164 N1167 1.341 . S
C1165 C1163 1.400 . S
C1165 C1164 1.387 . S
N1166 Co1157 2.022 . S
N1166 C1163 1.351 . S
N1166 N1167 1.365 . S
N1167 C1164 1.341 . S
N1167 N1166 1.365 . S
N1167 H1187 0.862 . S
C1168 C1163 1.501 . S
C1168 H1169 0.961 . S
C1168 H1170 0.961 . S
C1168 H1171 0.960 . S
H1169 C1168 0.961 . S
H1170 C1168 0.961 . S
H1171 C1168 0.960 . S
C1172 N1173 1.342 . S
C1172 C1176 1.401 . S
C1172 C1177 1.499 . S
N1173 Co1156 1.989 . S
N1173 C1172 1.342 . S
N1173 N1174 1.388 . S
N1174 Co1157 1.993 . S
N1174 N1173 1.388 . S
N1174 C1175 1.346 . S
C1175 N1174 1.346 . S
C1175 C1176 1.396 . S
C1175 C1185 1.510 . S
C1176 C1172 1.401 . S
C1176 C1175 1.396 . S
C1177 C1172 1.499 . S
C1177 H1178 0.959 . S
C1177 H1179 0.960 . S
C1177 H1180 0.961 . S
H1178 C1177 0.959 . S
H1179 C1177 0.960 . S
H1180 C1177 0.961 . S
O1181 Co1156 1.967 . S
O1181 C1189 1.258 . S
O1182 Co1157 1.941 . S
O1182 C1189 1.266 . S
H1183 C1185 0.959 . S
H1184 C1185 0.961 . S
C1185 C1175 1.510 . S
C1185 H1183 0.959 . S
C1185 H1184 0.961 . S
C1185 H1186 0.960 . S
H1186 C1185 0.960 . S
H1187 N1167 0.862 . S
O1188 Co1156 1.920 . S
O1188 C1161 1.289 . S
C1189 O1181 1.258 . S
C1189 O1182 1.266 . S
Co1190 O1193 1.970 . S
Co1190 N1207 1.989 . S
Co1190 O1215 1.967 . S
Co1190 O1222 1.920 . S
Co1191 O1194 1.966 . S
Co1191 N1200 2.022 . S
Co1191 N1208 1.993 . S
Co1191 O1216 1.941 . S
C1192 O1193 1.258 . S
C1192 O1194 1.263 . S
O1193 Co1190 1.970 . S
O1193 C1192 1.258 . S
O1194 Co1191 1.966 . S
O1194 C1192 1.263 . S
C1195 O1196 1.235 . S
C1195 O1222 1.289 . S
O1196 C1195 1.235 . S
C1197 C1199 1.400 . S
C1197 N1200 1.351 . S
C1197 C1202 1.501 . S
C1198 C1199 1.387 . S
C1198 N1201 1.341 . S
C1199 C1197 1.400 . S
C1199 C1198 1.387 . S
N1200 Co1191 2.022 . S
N1200 C1197 1.351 . S
N1200 N1201 1.365 . S
N1201 C1198 1.341 . S
N1201 N1200 1.365 . S
N1201 H1221 0.862 . S
C1202 C1197 1.501 . S
C1202 H1203 0.961 . S
C1202 H1204 0.961 . S
C1202 H1205 0.960 . S
H1203 C1202 0.961 . S
H1204 C1202 0.961 . S
H1205 C1202 0.960 . S
C1206 N1207 1.342 . S
C1206 C1210 1.401 . S
C1206 C1211 1.499 . S
N1207 Co1190 1.989 . S
N1207 C1206 1.342 . S
N1207 N1208 1.388 . S
N1208 Co1191 1.993 . S
N1208 N1207 1.388 . S
N1208 C1209 1.346 . S
C1209 N1208 1.346 . S
C1209 C1210 1.396 . S
C1209 C1219 1.510 . S
C1210 C1206 1.401 . S
C1210 C1209 1.396 . S
C1211 C1206 1.499 . S
C1211 H1212 0.959 . S
C1211 H1213 0.960 . S
C1211 H1214 0.961 . S
H1212 C1211 0.959 . S
H1213 C1211 0.960 . S
H1214 C1211 0.961 . S
O1215 Co1190 1.967 . S
O1215 C1223 1.258 . S
O1216 Co1191 1.941 . S
O1216 C1223 1.266 . S
H1217 C1219 0.959 . S
H1218 C1219 0.961 . S
C1219 C1209 1.510 . S
C1219 H1217 0.959 . S
C1219 H1218 0.961 . S
C1219 H1220 0.960 . S
H1220 C1219 0.960 . S
H1221 N1201 0.862 . S
O1222 Co1190 1.920 . S
O1222 C1195 1.289 . S
C1223 O1215 1.258 . S
C1223 O1216 1.266 . S
Co1224 O1227 1.970 . S
Co1224 N1241 1.989 . S
Co1224 O1249 1.967 . S
Co1224 O1256 1.920 . S
Co1225 O1228 1.966 . S
Co1225 N1234 2.022 . S
Co1225 N1242 1.993 . S
Co1225 O1250 1.941 . S
C1226 O1227 1.258 . S
C1226 O1228 1.263 . S
O1227 Co1224 1.970 . S
O1227 C1226 1.258 . S
O1228 Co1225 1.966 . S
O1228 C1226 1.263 . S
C1229 O1230 1.235 . S
C1229 O1256 1.289 . S
O1230 C1229 1.235 . S
C1231 C1233 1.400 . S
C1231 N1234 1.351 . S
C1231 C1236 1.501 . S
C1232 C1233 1.387 . S
C1232 N1235 1.341 . S
C1233 C1231 1.400 . S
C1233 C1232 1.387 . S
N1234 Co1225 2.022 . S
N1234 C1231 1.351 . S
N1234 N1235 1.365 . S
N1235 C1232 1.341 . S
N1235 N1234 1.365 . S
N1235 H1255 0.862 . S
C1236 C1231 1.501 . S
C1236 H1237 0.961 . S
C1236 H1238 0.961 . S
C1236 H1239 0.960 . S
H1237 C1236 0.961 . S
H1238 C1236 0.961 . S
H1239 C1236 0.960 . S
C1240 N1241 1.342 . S
C1240 C1244 1.401 . S
C1240 C1245 1.499 . S
N1241 Co1224 1.989 . S
N1241 C1240 1.342 . S
N1241 N1242 1.388 . S
N1242 Co1225 1.993 . S
N1242 N1241 1.388 . S
N1242 C1243 1.346 . S
C1243 N1242 1.346 . S
C1243 C1244 1.396 . S
C1243 C1253 1.510 . S
C1244 C1240 1.401 . S
C1244 C1243 1.396 . S
C1245 C1240 1.499 . S
C1245 H1246 0.959 . S
C1245 H1247 0.960 . S
C1245 H1248 0.961 . S
H1246 C1245 0.959 . S
H1247 C1245 0.960 . S
H1248 C1245 0.961 . S
O1249 Co1224 1.967 . S
O1249 C1257 1.258 . S
O1250 Co1225 1.941 . S
O1250 C1257 1.266 . S
H1251 C1253 0.959 . S
H1252 C1253 0.961 . S
C1253 C1243 1.510 . S
C1253 H1251 0.959 . S
C1253 H1252 0.961 . S
C1253 H1254 0.960 . S
H1254 C1253 0.960 . S
H1255 N1235 0.862 . S
O1256 Co1224 1.920 . S
O1256 C1229 1.289 . S
C1257 O1249 1.258 . S
C1257 O1250 1.266 . S
Co1258 O1261 1.970 . S
Co1258 N1275 1.989 . S
Co1258 O1283 1.967 . S
Co1258 O1290 1.920 . S
Co1259 O1262 1.966 . S
Co1259 N1268 2.022 . S
Co1259 N1276 1.993 . S
Co1259 O1284 1.941 . S
C1260 O1261 1.258 . S
C1260 O1262 1.263 . S
O1261 Co1258 1.970 . S
O1261 C1260 1.258 . S
O1262 Co1259 1.966 . S
O1262 C1260 1.263 . S
C1263 O1264 1.235 . S
C1263 O1290 1.289 . S
O1264 C1263 1.235 . S
C1265 C1267 1.400 . S
C1265 N1268 1.351 . S
C1265 C1270 1.501 . S
C1266 C1267 1.387 . S
C1266 N1269 1.341 . S
C1267 C1265 1.400 . S
C1267 C1266 1.387 . S
N1268 Co1259 2.022 . S
N1268 C1265 1.351 . S
N1268 N1269 1.365 . S
N1269 C1266 1.341 . S
N1269 N1268 1.365 . S
N1269 H1289 0.862 . S
C1270 C1265 1.501 . S
C1270 H1271 0.961 . S
C1270 H1272 0.961 . S
C1270 H1273 0.960 . S
H1271 C1270 0.961 . S
H1272 C1270 0.961 . S
H1273 C1270 0.960 . S
C1274 N1275 1.342 . S
C1274 C1278 1.401 . S
C1274 C1279 1.499 . S
N1275 Co1258 1.989 . S
N1275 C1274 1.342 . S
N1275 N1276 1.388 . S
N1276 Co1259 1.993 . S
N1276 N1275 1.388 . S
N1276 C1277 1.346 . S
C1277 N1276 1.346 . S
C1277 C1278 1.396 . S
C1277 C1287 1.510 . S
C1278 C1274 1.401 . S
C1278 C1277 1.396 . S
C1279 C1274 1.499 . S
C1279 H1280 0.959 . S
C1279 H1281 0.960 . S
C1279 H1282 0.961 . S
H1280 C1279 0.959 . S
H1281 C1279 0.960 . S
H1282 C1279 0.961 . S
O1283 Co1258 1.967 . S
O1283 C1291 1.258 . S
O1284 Co1259 1.941 . S
O1284 C1291 1.266 . S
H1285 C1287 0.959 . S
H1286 C1287 0.961 . S
C1287 C1277 1.510 . S
C1287 H1285 0.959 . S
C1287 H1286 0.961 . S
C1287 H1288 0.960 . S
H1288 C1287 0.960 . S
H1289 N1269 0.862 . S
O1290 Co1258 1.920 . S
O1290 C1263 1.289 . S
C1291 O1283 1.258 . S
C1291 O1284 1.266 . S
Co1292 O1295 1.970 . S
Co1292 N1309 1.989 . S
Co1292 O1317 1.967 . S
Co1292 O1324 1.920 . S
Co1293 O1296 1.966 . S
Co1293 N1302 2.022 . S
Co1293 N1310 1.993 . S
Co1293 O1318 1.941 . S
C1294 O1295 1.258 . S
C1294 O1296 1.263 . S
O1295 Co1292 1.970 . S
O1295 C1294 1.258 . S
O1296 Co1293 1.966 . S
O1296 C1294 1.263 . S
C1297 O1298 1.235 . S
C1297 O1324 1.289 . S
O1298 C1297 1.235 . S
C1299 C1301 1.400 . S
C1299 N1302 1.351 . S
C1299 C1304 1.501 . S
C1300 C1301 1.387 . S
C1300 N1303 1.341 . S
C1301 C1299 1.400 . S
C1301 C1300 1.387 . S
N1302 Co1293 2.022 . S
N1302 C1299 1.351 . S
N1302 N1303 1.365 . S
N1303 C1300 1.341 . S
N1303 N1302 1.365 . S
N1303 H1323 0.862 . S
C1304 C1299 1.501 . S
C1304 H1305 0.961 . S
C1304 H1306 0.961 . S
C1304 H1307 0.960 . S
H1305 C1304 0.961 . S
H1306 C1304 0.961 . S
H1307 C1304 0.960 . S
C1308 N1309 1.342 . S
C1308 C1312 1.401 . S
C1308 C1313 1.499 . S
N1309 Co1292 1.989 . S
N1309 C1308 1.342 . S
N1309 N1310 1.388 . S
N1310 Co1293 1.993 . S
N1310 N1309 1.388 . S
N1310 C1311 1.346 . S
C1311 N1310 1.346 . S
C1311 C1312 1.396 . S
C1311 C1321 1.510 . S
C1312 C1308 1.401 . S
C1312 C1311 1.396 . S
C1313 C1308 1.499 . S
C1313 H1314 0.959 . S
C1313 H1315 0.960 . S
C1313 H1316 0.961 . S
H1314 C1313 0.959 . S
H1315 C1313 0.960 . S
H1316 C1313 0.961 . S
O1317 Co1292 1.967 . S
O1317 C1325 1.258 . S
O1318 Co1293 1.941 . S
O1318 C1325 1.266 . S
H1319 C1321 0.959 . S
H1320 C1321 0.961 . S
C1321 C1311 1.510 . S
C1321 H1319 0.959 . S
C1321 H1320 0.961 . S
C1321 H1322 0.960 . S
H1322 C1321 0.960 . S
H1323 N1303 0.862 . S
O1324 Co1292 1.920 . S
O1324 C1297 1.289 . S
C1325 O1317 1.258 . S
C1325 O1318 1.266 . S
Co1326 O1329 1.970 . S
Co1326 N1343 1.989 . S
Co1326 O1351 1.967 . S
Co1326 O1358 1.920 . S
Co1327 O1330 1.966 . S
Co1327 N1336 2.022 . S
Co1327 N1344 1.993 . S
Co1327 O1352 1.941 . S
C1328 O1329 1.258 . S
C1328 O1330 1.263 . S
O1329 Co1326 1.970 . S
O1329 C1328 1.258 . S
O1330 Co1327 1.966 . S
O1330 C1328 1.263 . S
C1331 O1332 1.235 . S
C1331 O1358 1.289 . S
O1332 C1331 1.235 . S
C1333 C1335 1.400 . S
C1333 N1336 1.351 . S
C1333 C1338 1.501 . S
C1334 C1335 1.387 . S
C1334 N1337 1.341 . S
C1335 C1333 1.400 . S
C1335 C1334 1.387 . S
N1336 Co1327 2.022 . S
N1336 C1333 1.351 . S
N1336 N1337 1.365 . S
N1337 C1334 1.341 . S
N1337 N1336 1.365 . S
N1337 H1357 0.862 . S
C1338 C1333 1.501 . S
C1338 H1339 0.961 . S
C1338 H1340 0.961 . S
C1338 H1341 0.960 . S
H1339 C1338 0.961 . S
H1340 C1338 0.961 . S
H1341 C1338 0.960 . S
C1342 N1343 1.342 . S
C1342 C1346 1.401 . S
C1342 C1347 1.499 . S
N1343 Co1326 1.989 . S
N1343 C1342 1.342 . S
N1343 N1344 1.388 . S
N1344 Co1327 1.993 . S
N1344 N1343 1.388 . S
N1344 C1345 1.346 . S
C1345 N1344 1.346 . S
C1345 C1346 1.396 . S
C1345 C1355 1.510 . S
C1346 C1342 1.401 . S
C1346 C1345 1.396 . S
C1347 C1342 1.499 . S
C1347 H1348 0.959 . S
C1347 H1349 0.960 . S
C1347 H1350 0.961 . S
H1348 C1347 0.959 . S
H1349 C1347 0.960 . S
H1350 C1347 0.961 . S
O1351 Co1326 1.967 . S
O1351 C1359 1.258 . S
O1352 Co1327 1.941 . S
O1352 C1359 1.266 . S
H1353 C1355 0.959 . S
H1354 C1355 0.961 . S
C1355 C1345 1.510 . S
C1355 H1353 0.959 . S
C1355 H1354 0.961 . S
C1355 H1356 0.960 . S
H1356 C1355 0.960 . S
H1357 N1337 0.862 . S
O1358 Co1326 1.920 . S
O1358 C1331 1.289 . S
C1359 O1351 1.258 . S
C1359 O1352 1.266 . S
Co1360 O1363 1.970 . S
Co1360 N1377 1.989 . S
Co1360 O1385 1.967 . S
Co1360 O1392 1.920 . S
Co1361 O1364 1.966 . S
Co1361 N1370 2.022 . S
Co1361 N1378 1.993 . S
Co1361 O1386 1.941 . S
C1362 O1363 1.258 . S
C1362 O1364 1.263 . S
O1363 Co1360 1.970 . S
O1363 C1362 1.258 . S
O1364 Co1361 1.966 . S
O1364 C1362 1.263 . S
C1365 O1366 1.235 . S
C1365 O1392 1.289 . S
O1366 C1365 1.235 . S
C1367 C1369 1.400 . S
C1367 N1370 1.351 . S
C1367 C1372 1.501 . S
C1368 C1369 1.387 . S
C1368 N1371 1.341 . S
C1369 C1367 1.400 . S
C1369 C1368 1.387 . S
N1370 Co1361 2.022 . S
N1370 C1367 1.351 . S
N1370 N1371 1.365 . S
N1371 C1368 1.341 . S
N1371 N1370 1.365 . S
N1371 H1391 0.862 . S
C1372 C1367 1.501 . S
C1372 H1373 0.961 . S
C1372 H1374 0.961 . S
C1372 H1375 0.960 . S
H1373 C1372 0.961 . S
H1374 C1372 0.961 . S
H1375 C1372 0.960 . S
C1376 N1377 1.342 . S
C1376 C1380 1.401 . S
C1376 C1381 1.499 . S
N1377 Co1360 1.989 . S
N1377 C1376 1.342 . S
N1377 N1378 1.388 . S
N1378 Co1361 1.993 . S
N1378 N1377 1.388 . S
N1378 C1379 1.346 . S
C1379 N1378 1.346 . S
C1379 C1380 1.396 . S
C1379 C1389 1.510 . S
C1380 C1376 1.401 . S
C1380 C1379 1.396 . S
C1381 C1376 1.499 . S
C1381 H1382 0.959 . S
C1381 H1383 0.960 . S
C1381 H1384 0.961 . S
H1382 C1381 0.959 . S
H1383 C1381 0.960 . S
H1384 C1381 0.961 . S
O1385 Co1360 1.967 . S
O1385 C1393 1.258 . S
O1386 Co1361 1.941 . S
O1386 C1393 1.266 . S
H1387 C1389 0.959 . S
H1388 C1389 0.961 . S
C1389 C1379 1.510 . S
C1389 H1387 0.959 . S
C1389 H1388 0.961 . S
C1389 H1390 0.960 . S
H1390 C1389 0.960 . S
H1391 N1371 0.862 . S
O1392 Co1360 1.920 . S
O1392 C1365 1.289 . S
C1393 O1385 1.258 . S
C1393 O1386 1.266 . S
Co1394 O1397 1.970 . S
Co1394 N1411 1.989 . S
Co1394 O1419 1.967 . S
Co1394 O1426 1.920 . S
Co1395 O1398 1.966 . S
Co1395 N1404 2.022 . S
Co1395 N1412 1.993 . S
Co1395 O1420 1.941 . S
C1396 O1397 1.258 . S
C1396 O1398 1.263 . S
O1397 Co1394 1.970 . S
O1397 C1396 1.258 . S
O1398 Co1395 1.966 . S
O1398 C1396 1.263 . S
C1399 O1400 1.235 . S
C1399 O1426 1.289 . S
O1400 C1399 1.235 . S
C1401 C1403 1.400 . S
C1401 N1404 1.351 . S
C1401 C1406 1.501 . S
C1402 C1403 1.387 . S
C1402 N1405 1.341 . S
C1403 C1401 1.400 . S
C1403 C1402 1.387 . S
N1404 Co1395 2.022 . S
N1404 C1401 1.351 . S
N1404 N1405 1.365 . S
N1405 C1402 1.341 . S
N1405 N1404 1.365 . S
N1405 H1425 0.862 . S
C1406 C1401 1.501 . S
C1406 H1407 0.961 . S
C1406 H1408 0.961 . S
C1406 H1409 0.960 . S
H1407 C1406 0.961 . S
H1408 C1406 0.961 . S
H1409 C1406 0.960 . S
C1410 N1411 1.342 . S
C1410 C1414 1.401 . S
C1410 C1415 1.499 . S
N1411 Co1394 1.989 . S
N1411 C1410 1.342 . S
N1411 N1412 1.388 . S
N1412 Co1395 1.993 . S
N1412 N1411 1.388 . S
N1412 C1413 1.346 . S
C1413 N1412 1.346 . S
C1413 C1414 1.396 . S
C1413 C1423 1.510 . S
C1414 C1410 1.401 . S
C1414 C1413 1.396 . S
C1415 C1410 1.499 . S
C1415 H1416 0.959 . S
C1415 H1417 0.960 . S
C1415 H1418 0.961 . S
H1416 C1415 0.959 . S
H1417 C1415 0.960 . S
H1418 C1415 0.961 . S
O1419 Co1394 1.967 . S
O1419 C1427 1.258 . S
O1420 Co1395 1.941 . S
O1420 C1427 1.266 . S
H1421 C1423 0.959 . S
H1422 C1423 0.961 . S
C1423 C1413 1.510 . S
C1423 H1421 0.959 . S
C1423 H1422 0.961 . S
C1423 H1424 0.960 . S
H1424 C1423 0.960 . S
H1425 N1405 0.862 . S
O1426 Co1394 1.920 . S
O1426 C1399 1.289 . S
C1427 O1419 1.258 . S
C1427 O1420 1.266 . S
Co1428 O1431 1.970 . S
Co1428 N1445 1.989 . S
Co1428 O1453 1.967 . S
Co1428 O1460 1.920 . S
Co1429 O1432 1.966 . S
Co1429 N1438 2.022 . S
Co1429 N1446 1.993 . S
Co1429 O1454 1.941 . S
C1430 O1431 1.258 . S
C1430 O1432 1.263 . S
O1431 Co1428 1.970 . S
O1431 C1430 1.258 . S
O1432 Co1429 1.966 . S
O1432 C1430 1.263 . S
C1433 O1434 1.235 . S
C1433 O1460 1.289 . S
O1434 C1433 1.235 . S
C1435 C1437 1.400 . S
C1435 N1438 1.351 . S
C1435 C1440 1.501 . S
C1436 C1437 1.387 . S
C1436 N1439 1.341 . S
C1437 C1435 1.400 . S
C1437 C1436 1.387 . S
N1438 Co1429 2.022 . S
N1438 C1435 1.351 . S
N1438 N1439 1.365 . S
N1439 C1436 1.341 . S
N1439 N1438 1.365 . S
N1439 H1459 0.862 . S
C1440 C1435 1.501 . S
C1440 H1441 0.961 . S
C1440 H1442 0.961 . S
C1440 H1443 0.960 . S
H1441 C1440 0.961 . S
H1442 C1440 0.961 . S
H1443 C1440 0.960 . S
C1444 N1445 1.342 . S
C1444 C1448 1.401 . S
C1444 C1449 1.499 . S
N1445 Co1428 1.989 . S
N1445 C1444 1.342 . S
N1445 N1446 1.388 . S
N1446 Co1429 1.993 . S
N1446 N1445 1.388 . S
N1446 C1447 1.346 . S
C1447 N1446 1.346 . S
C1447 C1448 1.396 . S
C1447 C1457 1.510 . S
C1448 C1444 1.401 . S
C1448 C1447 1.396 . S
C1449 C1444 1.499 . S
C1449 H1450 0.959 . S
C1449 H1451 0.960 . S
C1449 H1452 0.961 . S
H1450 C1449 0.959 . S
H1451 C1449 0.960 . S
H1452 C1449 0.961 . S
O1453 Co1428 1.967 . S
O1453 C1461 1.258 . S
O1454 Co1429 1.941 . S
O1454 C1461 1.266 . S
H1455 C1457 0.959 . S
H1456 C1457 0.961 . S
C1457 C1447 1.510 . S
C1457 H1455 0.959 . S
C1457 H1456 0.961 . S
C1457 H1458 0.960 . S
H1458 C1457 0.960 . S
H1459 N1439 0.862 . S
O1460 Co1428 1.920 . S
O1460 C1433 1.289 . S
C1461 O1453 1.258 . S
C1461 O1454 1.266 . S
Co1462 O1465 1.970 . S
Co1462 N1479 1.989 . S
Co1462 O1487 1.967 . S
Co1462 O1494 1.920 . S
Co1463 O1466 1.966 . S
Co1463 N1472 2.022 . S
Co1463 N1480 1.993 . S
Co1463 O1488 1.941 . S
C1464 O1465 1.258 . S
C1464 O1466 1.263 . S
O1465 Co1462 1.970 . S
O1465 C1464 1.258 . S
O1466 Co1463 1.966 . S
O1466 C1464 1.263 . S
C1467 O1468 1.235 . S
C1467 O1494 1.289 . S
O1468 C1467 1.235 . S
C1469 C1471 1.400 . S
C1469 N1472 1.351 . S
C1469 C1474 1.501 . S
C1470 C1471 1.387 . S
C1470 N1473 1.341 . S
C1471 C1469 1.400 . S
C1471 C1470 1.387 . S
N1472 Co1463 2.022 . S
N1472 C1469 1.351 . S
N1472 N1473 1.365 . S
N1473 C1470 1.341 . S
N1473 N1472 1.365 . S
N1473 H1493 0.862 . S
C1474 C1469 1.501 . S
C1474 H1475 0.961 . S
C1474 H1476 0.961 . S
C1474 H1477 0.960 . S
H1475 C1474 0.961 . S
H1476 C1474 0.961 . S
H1477 C1474 0.960 . S
C1478 N1479 1.342 . S
C1478 C1482 1.401 . S
C1478 C1483 1.499 . S
N1479 Co1462 1.989 . S
N1479 C1478 1.342 . S
N1479 N1480 1.388 . S
N1480 Co1463 1.993 . S
N1480 N1479 1.388 . S
N1480 C1481 1.346 . S
C1481 N1480 1.346 . S
C1481 C1482 1.396 . S
C1481 C1491 1.510 . S
C1482 C1478 1.401 . S
C1482 C1481 1.396 . S
C1483 C1478 1.499 . S
C1483 H1484 0.959 . S
C1483 H1485 0.960 . S
C1483 H1486 0.961 . S
H1484 C1483 0.959 . S
H1485 C1483 0.960 . S
H1486 C1483 0.961 . S
O1487 Co1462 1.967 . S
O1487 C1495 1.258 . S
O1488 Co1463 1.941 . S
O1488 C1495 1.266 . S
H1489 C1491 0.959 . S
H1490 C1491 0.961 . S
C1491 C1481 1.510 . S
C1491 H1489 0.959 . S
C1491 H1490 0.961 . S
C1491 H1492 0.960 . S
H1492 C1491 0.960 . S
H1493 N1473 0.862 . S
O1494 Co1462 1.920 . S
O1494 C1467 1.289 . S
C1495 O1487 1.258 . S
C1495 O1488 1.266 . S
Co1496 O1499 1.970 . S
Co1496 N1513 1.989 . S
Co1496 O1521 1.967 . S
Co1496 O1528 1.920 . S
Co1497 O1500 1.966 . S
Co1497 N1506 2.022 . S
Co1497 N1514 1.993 . S
Co1497 O1522 1.941 . S
C1498 O1499 1.258 . S
C1498 O1500 1.263 . S
O1499 Co1496 1.970 . S
O1499 C1498 1.258 . S
O1500 Co1497 1.966 . S
O1500 C1498 1.263 . S
C1501 O1502 1.235 . S
C1501 O1528 1.289 . S
O1502 C1501 1.235 . S
C1503 C1505 1.400 . S
C1503 N1506 1.351 . S
C1503 C1508 1.501 . S
C1504 C1505 1.387 . S
C1504 N1507 1.341 . S
C1505 C1503 1.400 . S
C1505 C1504 1.387 . S
N1506 Co1497 2.022 . S
N1506 C1503 1.351 . S
N1506 N1507 1.365 . S
N1507 C1504 1.341 . S
N1507 N1506 1.365 . S
N1507 H1527 0.862 . S
C1508 C1503 1.501 . S
C1508 H1509 0.961 . S
C1508 H1510 0.961 . S
C1508 H1511 0.960 . S
H1509 C1508 0.961 . S
H1510 C1508 0.961 . S
H1511 C1508 0.960 . S
C1512 N1513 1.342 . S
C1512 C1516 1.401 . S
C1512 C1517 1.499 . S
N1513 Co1496 1.989 . S
N1513 C1512 1.342 . S
N1513 N1514 1.388 . S
N1514 Co1497 1.993 . S
N1514 N1513 1.388 . S
N1514 C1515 1.346 . S
C1515 N1514 1.346 . S
C1515 C1516 1.396 . S
C1515 C1525 1.510 . S
C1516 C1512 1.401 . S
C1516 C1515 1.396 . S
C1517 C1512 1.499 . S
C1517 H1518 0.959 . S
C1517 H1519 0.960 . S
C1517 H1520 0.961 . S
H1518 C1517 0.959 . S
H1519 C1517 0.960 . S
H1520 C1517 0.961 . S
O1521 Co1496 1.967 . S
O1521 C1529 1.258 . S
O1522 Co1497 1.941 . S
O1522 C1529 1.266 . S
H1523 C1525 0.959 . S
H1524 C1525 0.961 . S
C1525 C1515 1.510 . S
C1525 H1523 0.959 . S
C1525 H1524 0.961 . S
C1525 H1526 0.960 . S
H1526 C1525 0.960 . S
H1527 N1507 0.862 . S
O1528 Co1496 1.920 . S
O1528 C1501 1.289 . S
C1529 O1521 1.258 . S
C1529 O1522 1.266 . S
Co1530 O1533 1.970 . S
Co1530 N1547 1.989 . S
Co1530 O1555 1.967 . S
Co1530 O1562 1.920 . S
Co1531 O1534 1.966 . S
Co1531 N1540 2.022 . S
Co1531 N1548 1.993 . S
Co1531 O1556 1.941 . S
C1532 O1533 1.258 . S
C1532 O1534 1.263 . S
O1533 Co1530 1.970 . S
O1533 C1532 1.258 . S
O1534 Co1531 1.966 . S
O1534 C1532 1.263 . S
C1535 O1536 1.235 . S
C1535 O1562 1.289 . S
O1536 C1535 1.235 . S
C1537 C1539 1.400 . S
C1537 N1540 1.351 . S
C1537 C1542 1.501 . S
C1538 C1539 1.387 . S
C1538 N1541 1.341 . S
C1539 C1537 1.400 . S
C1539 C1538 1.387 . S
N1540 Co1531 2.022 . S
N1540 C1537 1.351 . S
N1540 N1541 1.365 . S
N1541 C1538 1.341 . S
N1541 N1540 1.365 . S
N1541 H1561 0.862 . S
C1542 C1537 1.501 . S
C1542 H1543 0.961 . S
C1542 H1544 0.961 . S
C1542 H1545 0.960 . S
H1543 C1542 0.961 . S
H1544 C1542 0.961 . S
H1545 C1542 0.960 . S
C1546 N1547 1.342 . S
C1546 C1550 1.401 . S
C1546 C1551 1.499 . S
N1547 Co1530 1.989 . S
N1547 C1546 1.342 . S
N1547 N1548 1.388 . S
N1548 Co1531 1.993 . S
N1548 N1547 1.388 . S
N1548 C1549 1.346 . S
C1549 N1548 1.346 . S
C1549 C1550 1.396 . S
C1549 C1559 1.510 . S
C1550 C1546 1.401 . S
C1550 C1549 1.396 . S
C1551 C1546 1.499 . S
C1551 H1552 0.959 . S
C1551 H1553 0.960 . S
C1551 H1554 0.961 . S
H1552 C1551 0.959 . S
H1553 C1551 0.960 . S
H1554 C1551 0.961 . S
O1555 Co1530 1.967 . S
O1555 C1563 1.258 . S
O1556 Co1531 1.941 . S
O1556 C1563 1.266 . S
H1557 C1559 0.959 . S
H1558 C1559 0.961 . S
C1559 C1549 1.510 . S
C1559 H1557 0.959 . S
C1559 H1558 0.961 . S
C1559 H1560 0.960 . S
H1560 C1559 0.960 . S
H1561 N1541 0.862 . S
O1562 Co1530 1.920 . S
O1562 C1535 1.289 . S
C1563 O1555 1.258 . S
C1563 O1556 1.266 . S
Co1564 O1567 1.970 . S
Co1564 N1581 1.989 . S
Co1564 O1589 1.967 . S
Co1564 O1596 1.920 . S
Co1565 O1568 1.966 . S
Co1565 N1574 2.022 . S
Co1565 N1582 1.993 . S
Co1565 O1590 1.941 . S
C1566 O1567 1.258 . S
C1566 O1568 1.263 . S
O1567 Co1564 1.970 . S
O1567 C1566 1.258 . S
O1568 Co1565 1.966 . S
O1568 C1566 1.263 . S
C1569 O1570 1.235 . S
C1569 O1596 1.289 . S
O1570 C1569 1.235 . S
C1571 C1573 1.400 . S
C1571 N1574 1.351 . S
C1571 C1576 1.501 . S
C1572 C1573 1.387 . S
C1572 N1575 1.341 . S
C1573 C1571 1.400 . S
C1573 C1572 1.387 . S
N1574 Co1565 2.022 . S
N1574 C1571 1.351 . S
N1574 N1575 1.365 . S
N1575 C1572 1.341 . S
N1575 N1574 1.365 . S
N1575 H1595 0.862 . S
C1576 C1571 1.501 . S
C1576 H1577 0.961 . S
C1576 H1578 0.961 . S
C1576 H1579 0.960 . S
H1577 C1576 0.961 . S
H1578 C1576 0.961 . S
H1579 C1576 0.960 . S
C1580 N1581 1.342 . S
C1580 C1584 1.401 . S
C1580 C1585 1.499 . S
N1581 Co1564 1.989 . S
N1581 C1580 1.342 . S
N1581 N1582 1.388 . S
N1582 Co1565 1.993 . S
N1582 N1581 1.388 . S
N1582 C1583 1.346 . S
C1583 N1582 1.346 . S
C1583 C1584 1.396 . S
C1583 C1593 1.510 . S
C1584 C1580 1.401 . S
C1584 C1583 1.396 . S
C1585 C1580 1.499 . S
C1585 H1586 0.959 . S
C1585 H1587 0.960 . S
C1585 H1588 0.961 . S
H1586 C1585 0.959 . S
H1587 C1585 0.960 . S
H1588 C1585 0.961 . S
O1589 Co1564 1.967 . S
O1589 C1597 1.258 . S
O1590 Co1565 1.941 . S
O1590 C1597 1.266 . S
H1591 C1593 0.959 . S
H1592 C1593 0.961 . S
C1593 C1583 1.510 . S
C1593 H1591 0.959 . S
C1593 H1592 0.961 . S
C1593 H1594 0.960 . S
H1594 C1593 0.960 . S
H1595 N1575 0.862 . S
O1596 Co1564 1.920 . S
O1596 C1569 1.289 . S
C1597 O1589 1.258 . S
C1597 O1590 1.266 . S
Co1598 O1601 1.970 . S
Co1598 N1615 1.989 . S
Co1598 O1623 1.967 . S
Co1598 O1630 1.920 . S
Co1599 O1602 1.966 . S
Co1599 N1608 2.022 . S
Co1599 N1616 1.993 . S
Co1599 O1624 1.941 . S
C1600 O1601 1.258 . S
C1600 O1602 1.263 . S
O1601 Co1598 1.970 . S
O1601 C1600 1.258 . S
O1602 Co1599 1.966 . S
O1602 C1600 1.263 . S
C1603 O1604 1.235 . S
C1603 O1630 1.289 . S
O1604 C1603 1.235 . S
C1605 C1607 1.400 . S
C1605 N1608 1.351 . S
C1605 C1610 1.501 . S
C1606 C1607 1.387 . S
C1606 N1609 1.341 . S
C1607 C1605 1.400 . S
C1607 C1606 1.387 . S
N1608 Co1599 2.022 . S
N1608 C1605 1.351 . S
N1608 N1609 1.365 . S
N1609 C1606 1.341 . S
N1609 N1608 1.365 . S
N1609 H1629 0.862 . S
C1610 C1605 1.501 . S
C1610 H1611 0.961 . S
C1610 H1612 0.961 . S
C1610 H1613 0.960 . S
H1611 C1610 0.961 . S
H1612 C1610 0.961 . S
H1613 C1610 0.960 . S
C1614 N1615 1.342 . S
C1614 C1618 1.401 . S
C1614 C1619 1.499 . S
N1615 Co1598 1.989 . S
N1615 C1614 1.342 . S
N1615 N1616 1.388 . S
N1616 Co1599 1.993 . S
N1616 N1615 1.388 . S
N1616 C1617 1.346 . S
C1617 N1616 1.346 . S
C1617 C1618 1.396 . S
C1617 C1627 1.510 . S
C1618 C1614 1.401 . S
C1618 C1617 1.396 . S
C1619 C1614 1.499 . S
C1619 H1620 0.959 . S
C1619 H1621 0.960 . S
C1619 H1622 0.961 . S
H1620 C1619 0.959 . S
H1621 C1619 0.960 . S
H1622 C1619 0.961 . S
O1623 Co1598 1.967 . S
O1623 C1631 1.258 . S
O1624 Co1599 1.941 . S
O1624 C1631 1.266 . S
H1625 C1627 0.959 . S
H1626 C1627 0.961 . S
C1627 C1617 1.510 . S
C1627 H1625 0.959 . S
C1627 H1626 0.961 . S
C1627 H1628 0.960 . S
H1628 C1627 0.960 . S
H1629 N1609 0.862 . S
O1630 Co1598 1.920 . S
O1630 C1603 1.289 . S
C1631 O1623 1.258 . S
C1631 O1624 1.266 . S
C1632 C1633 1.387 . S
C1632 H1636 0.950 . S
C1632 C1641 1.390 . S
C1633 C1632 1.387 . S
C1633 C1635 1.387 . S
H1634 C1641 0.950 . S
C1635 C1633 1.387 . S
C1635 C1637 1.390 . S
C1635 H1639 0.950 . S
H1636 C1632 0.950 . S
C1637 C1635 1.390 . S
C1637 C1638 1.387 . S
C1637 H1640 0.950 . S
C1638 C1637 1.387 . S
C1638 C1641 1.387 . S
H1639 C1635 0.950 . S
H1640 C1637 0.950 . S
C1641 C1632 1.390 . S
C1641 H1634 0.950 . S
C1641 C1638 1.387 . S
C1642 C1643 1.387 . S
C1642 H1646 0.950 . S
C1642 C1651 1.390 . S
C1643 C1642 1.387 . S
C1643 C1645 1.387 . S
H1644 C1651 0.950 . S
C1645 C1643 1.387 . S
C1645 C1647 1.390 . S
C1645 H1649 0.950 . S
H1646 C1642 0.950 . S
C1647 C1645 1.390 . S
C1647 C1648 1.387 . S
C1647 H1650 0.950 . S
C1648 C1647 1.387 . S
C1648 C1651 1.387 . S
H1649 C1645 0.950 . S
H1650 C1647 0.950 . S
C1651 C1642 1.390 . S
C1651 H1644 0.950 . S
C1651 C1648 1.387 . S
C1652 C1653 1.387 . S
C1652 H1656 0.950 . S
C1652 C1661 1.390 . S
C1653 C1652 1.387 . S
C1653 C1655 1.387 . S
H1654 C1661 0.950 . S
C1655 C1653 1.387 . S
C1655 C1657 1.390 . S
C1655 H1659 0.950 . S
H1656 C1652 0.950 . S
C1657 C1655 1.390 . S
C1657 C1658 1.387 . S
C1657 H1660 0.950 . S
C1658 C1657 1.387 . S
C1658 C1661 1.387 . S
H1659 C1655 0.950 . S
H1660 C1657 0.950 . S
C1661 C1652 1.390 . S
C1661 H1654 0.950 . S
C1661 C1658 1.387 . S
C1662 C1663 1.387 . S
C1662 H1666 0.950 . S
C1662 C1671 1.390 . S
C1663 C1662 1.387 . S
C1663 C1665 1.387 . S
H1664 C1671 0.950 . S
C1665 C1663 1.387 . S
C1665 C1667 1.390 . S
C1665 H1669 0.950 . S
H1666 C1662 0.950 . S
C1667 C1665 1.390 . S
C1667 C1668 1.387 . S
C1667 H1670 0.950 . S
C1668 C1667 1.387 . S
C1668 C1671 1.387 . S
H1669 C1665 0.950 . S
H1670 C1667 0.950 . S
C1671 C1662 1.390 . S
C1671 H1664 0.950 . S
C1671 C1668 1.387 . S
C1672 C1673 1.387 . S
C1672 H1676 0.950 . S
C1672 C1681 1.390 . S
C1673 C1672 1.387 . S
C1673 C1675 1.387 . S
H1674 C1681 0.950 . S
C1675 C1673 1.387 . S
C1675 C1677 1.390 . S
C1675 H1679 0.950 . S
H1676 C1672 0.950 . S
C1677 C1675 1.390 . S
C1677 C1678 1.387 . S
C1677 H1680 0.950 . S
C1678 C1677 1.387 . S
C1678 C1681 1.387 . S
H1679 C1675 0.950 . S
H1680 C1677 0.950 . S
C1681 C1672 1.390 . S
C1681 H1674 0.950 . S
C1681 C1678 1.387 . S
C1682 C1683 1.387 . S
C1682 H1686 0.950 . S
C1682 C1691 1.390 . S
C1683 C1682 1.387 . S
C1683 C1685 1.387 . S
H1684 C1691 0.950 . S
C1685 C1683 1.387 . S
C1685 C1687 1.390 . S
C1685 H1689 0.950 . S
H1686 C1682 0.950 . S
C1687 C1685 1.390 . S
C1687 C1688 1.387 . S
C1687 H1690 0.950 . S
C1688 C1687 1.387 . S
C1688 C1691 1.387 . S
H1689 C1685 0.950 . S
H1690 C1687 0.950 . S
C1691 C1682 1.390 . S
C1691 H1684 0.950 . S
C1691 C1688 1.387 . S
C1692 C1693 1.387 . S
C1692 H1696 0.950 . S
C1692 C1701 1.390 . S
C1693 C1692 1.387 . S
C1693 C1695 1.387 . S
H1694 C1701 0.950 . S
C1695 C1693 1.387 . S
C1695 C1697 1.390 . S
C1695 H1699 0.950 . S
H1696 C1692 0.950 . S
C1697 C1695 1.390 . S
C1697 C1698 1.387 . S
C1697 H1700 0.950 . S
C1698 C1697 1.387 . S
C1698 C1701 1.387 . S
H1699 C1695 0.950 . S
H1700 C1697 0.950 . S
C1701 C1692 1.390 . S
C1701 H1694 0.950 . S
C1701 C1698 1.387 . S
C1702 C1703 1.387 . S
C1702 H1706 0.950 . S
C1702 C1711 1.390 . S
C1703 C1702 1.387 . S
C1703 C1705 1.387 . S
H1704 C1711 0.950 . S
C1705 C1703 1.387 . S
C1705 C1707 1.390 . S
C1705 H1709 0.950 . S
H1706 C1702 0.950 . S
C1707 C1705 1.390 . S
C1707 C1708 1.387 . S
C1707 H1710 0.950 . S
C1708 C1707 1.387 . S
C1708 C1711 1.387 . S
H1709 C1705 0.950 . S
H1710 C1707 0.950 . S
C1711 C1702 1.390 . S
C1711 H1704 0.950 . S
C1711 C1708 1.387 . S
C1712 C1713 1.387 . S
C1712 H1716 0.950 . S
C1712 C1721 1.390 . S
C1713 C1712 1.387 . S
C1713 C1715 1.387 . S
H1714 C1721 0.950 . S
C1715 C1713 1.387 . S
C1715 C1717 1.390 . S
C1715 H1719 0.950 . S
H1716 C1712 0.950 . S
C1717 C1715 1.390 . S
C1717 C1718 1.387 . S
C1717 H1720 0.950 . S
C1718 C1717 1.387 . S
C1718 C1721 1.387 . S
H1719 C1715 0.950 . S
H1720 C1717 0.950 . S
C1721 C1712 1.390 . S
C1721 H1714 0.950 . S
C1721 C1718 1.387 . S
C1722 C1723 1.387 . S
C1722 H1726 0.950 . S
C1722 C1731 1.390 . S
C1723 C1722 1.387 . S
C1723 C1725 1.387 . S
H1724 C1731 0.950 . S
C1725 C1723 1.387 . S
C1725 C1727 1.390 . S
C1725 H1729 0.950 . S
H1726 C1722 0.950 . S
C1727 C1725 1.390 . S
C1727 C1728 1.387 . S
C1727 H1730 0.950 . S
C1728 C1727 1.387 . S
C1728 C1731 1.387 . S
H1729 C1725 0.950 . S
H1730 C1727 0.950 . S
C1731 C1722 1.390 . S
C1731 H1724 0.950 . S
C1731 C1728 1.387 . S
C1732 C1733 1.387 . S
C1732 H1736 0.950 . S
C1732 C1741 1.390 . S
C1733 C1732 1.387 . S
C1733 C1735 1.387 . S
H1734 C1741 0.950 . S
C1735 C1733 1.387 . S
C1735 C1737 1.390 . S
C1735 H1739 0.950 . S
H1736 C1732 0.950 . S
C1737 C1735 1.390 . S
C1737 C1738 1.387 . S
C1737 H1740 0.950 . S
C1738 C1737 1.387 . S
C1738 C1741 1.387 . S
H1739 C1735 0.950 . S
H1740 C1737 0.950 . S
C1741 C1732 1.390 . S
C1741 H1734 0.950 . S
C1741 C1738 1.387 . S
C1742 C1743 1.387 . S
C1742 H1746 0.950 . S
C1742 C1751 1.390 . S
C1743 C1742 1.387 . S
C1743 C1745 1.387 . S
H1744 C1751 0.950 . S
C1745 C1743 1.387 . S
C1745 C1747 1.390 . S
C1745 H1749 0.950 . S
H1746 C1742 0.950 . S
C1747 C1745 1.390 . S
C1747 C1748 1.387 . S
C1747 H1750 0.950 . S
C1748 C1747 1.387 . S
C1748 C1751 1.387 . S
H1749 C1745 0.950 . S
H1750 C1747 0.950 . S
C1751 C1742 1.390 . S
C1751 H1744 0.950 . S
C1751 C1748 1.387 . S
C1752 C1753 1.387 . S
C1752 H1756 0.950 . S
C1752 C1761 1.390 . S
C1753 C1752 1.387 . S
C1753 C1755 1.387 . S
H1754 C1761 0.950 . S
C1755 C1753 1.387 . S
C1755 C1757 1.390 . S
C1755 H1759 0.950 . S
H1756 C1752 0.950 . S
C1757 C1755 1.390 . S
C1757 C1758 1.387 . S
C1757 H1760 0.950 . S
C1758 C1757 1.387 . S
C1758 C1761 1.387 . S
H1759 C1755 0.950 . S
H1760 C1757 0.950 . S
C1761 C1752 1.390 . S
C1761 H1754 0.950 . S
C1761 C1758 1.387 . S
C1762 C1763 1.387 . S
C1762 H1766 0.950 . S
C1762 C1771 1.390 . S
C1763 C1762 1.387 . S
C1763 C1765 1.387 . S
H1764 C1771 0.950 . S
C1765 C1763 1.387 . S
C1765 C1767 1.390 . S
C1765 H1769 0.950 . S
H1766 C1762 0.950 . S
C1767 C1765 1.390 . S
C1767 C1768 1.387 . S
C1767 H1770 0.950 . S
C1768 C1767 1.387 . S
C1768 C1771 1.387 . S
H1769 C1765 0.950 . S
H1770 C1767 0.950 . S
C1771 C1762 1.390 . S
C1771 H1764 0.950 . S
C1771 C1768 1.387 . S
C1772 C1773 1.387 . S
C1772 H1776 0.950 . S
C1772 C1781 1.390 . S
C1773 C1772 1.387 . S
C1773 C1775 1.387 . S
H1774 C1781 0.950 . S
C1775 C1773 1.387 . S
C1775 C1777 1.390 . S
C1775 H1779 0.950 . S
H1776 C1772 0.950 . S
C1777 C1775 1.390 . S
C1777 C1778 1.387 . S
C1777 H1780 0.950 . S
C1778 C1777 1.387 . S
C1778 C1781 1.387 . S
H1779 C1775 0.950 . S
H1780 C1777 0.950 . S
C1781 C1772 1.390 . S
C1781 H1774 0.950 . S
C1781 C1778 1.387 . S
C1782 C1783 1.387 . S
C1782 H1786 0.950 . S
C1782 C1791 1.390 . S
C1783 C1782 1.387 . S
C1783 C1785 1.387 . S
H1784 C1791 0.950 . S
C1785 C1783 1.387 . S
C1785 C1787 1.390 . S
C1785 H1789 0.950 . S
H1786 C1782 0.950 . S
C1787 C1785 1.390 . S
C1787 C1788 1.387 . S
C1787 H1790 0.950 . S
C1788 C1787 1.387 . S
C1788 C1791 1.387 . S
H1789 C1785 0.950 . S
H1790 C1787 0.950 . S
C1791 C1782 1.390 . S
C1791 H1784 0.950 . S
C1791 C1788 1.387 . S
C1792 C1793 1.387 . S
C1792 H1796 0.950 . S
C1792 C1801 1.390 . S
C1793 C1792 1.387 . S
C1793 C1795 1.387 . S
H1794 C1801 0.950 . S
C1795 C1793 1.387 . S
C1795 C1797 1.390 . S
C1795 H1799 0.950 . S
H1796 C1792 0.950 . S
C1797 C1795 1.390 . S
C1797 C1798 1.387 . S
C1797 H1800 0.950 . S
C1798 C1797 1.387 . S
C1798 C1801 1.387 . S
H1799 C1795 0.950 . S
H1800 C1797 0.950 . S
C1801 C1792 1.390 . S
C1801 H1794 0.950 . S
C1801 C1798 1.387 . S
C1802 C1803 1.387 . S
C1802 H1806 0.950 . S
C1802 C1811 1.390 . S
C1803 C1802 1.387 . S
C1803 C1805 1.387 . S
H1804 C1811 0.950 . S
C1805 C1803 1.387 . S
C1805 C1807 1.390 . S
C1805 H1809 0.950 . S
H1806 C1802 0.950 . S
C1807 C1805 1.390 . S
C1807 C1808 1.387 . S
C1807 H1810 0.950 . S
C1808 C1807 1.387 . S
C1808 C1811 1.387 . S
H1809 C1805 0.950 . S
H1810 C1807 0.950 . S
C1811 C1802 1.390 . S
C1811 H1804 0.950 . S
C1811 C1808 1.387 . S
C1812 C1813 1.387 . S
C1812 H1816 0.950 . S
C1812 C1821 1.390 . S
C1813 C1812 1.387 . S
C1813 C1815 1.387 . S
H1814 C1821 0.950 . S
C1815 C1813 1.387 . S
C1815 C1817 1.390 . S
C1815 H1819 0.950 . S
H1816 C1812 0.950 . S
C1817 C1815 1.390 . S
C1817 C1818 1.387 . S
C1817 H1820 0.950 . S
C1818 C1817 1.387 . S
C1818 C1821 1.387 . S
H1819 C1815 0.950 . S
H1820 C1817 0.950 . S
C1821 C1812 1.390 . S
C1821 H1814 0.950 . S
C1821 C1818 1.387 . S
C1822 C1823 1.387 . S
C1822 H1826 0.950 . S
C1822 C1831 1.390 . S
C1823 C1822 1.387 . S
C1823 C1825 1.387 . S
H1824 C1831 0.950 . S
C1825 C1823 1.387 . S
C1825 C1827 1.390 . S
C1825 H1829 0.950 . S
H1826 C1822 0.950 . S
C1827 C1825 1.390 . S
C1827 C1828 1.387 . S
C1827 H1830 0.950 . S
C1828 C1827 1.387 . S
C1828 C1831 1.387 . S
H1829 C1825 0.950 . S
H1830 C1827 0.950 . S
C1831 C1822 1.390 . S
C1831 H1824 0.950 . S
C1831 C1828 1.387 . S
C1832 C1833 1.387 . S
C1832 H1836 0.950 . S
C1832 C1841 1.390 . S
C1833 C1832 1.387 . S
C1833 C1835 1.387 . S
H1834 C1841 0.950 . S
C1835 C1833 1.387 . S
C1835 C1837 1.390 . S
C1835 H1839 0.950 . S
H1836 C1832 0.950 . S
C1837 C1835 1.390 . S
C1837 C1838 1.387 . S
C1837 H1840 0.950 . S
C1838 C1837 1.387 . S
C1838 C1841 1.387 . S
H1839 C1835 0.950 . S
H1840 C1837 0.950 . S
C1841 C1832 1.390 . S
C1841 H1834 0.950 . S
C1841 C1838 1.387 . S
C1842 C1843 1.387 . S
C1842 H1846 0.950 . S
C1842 C1851 1.390 . S
C1843 C1842 1.387 . S
C1843 C1845 1.387 . S
H1844 C1851 0.950 . S
C1845 C1843 1.387 . S
C1845 C1847 1.390 . S
C1845 H1849 0.950 . S
H1846 C1842 0.950 . S
C1847 C1845 1.390 . S
C1847 C1848 1.387 . S
C1847 H1850 0.950 . S
C1848 C1847 1.387 . S
C1848 C1851 1.387 . S
H1849 C1845 0.950 . S
H1850 C1847 0.950 . S
C1851 C1842 1.390 . S
C1851 H1844 0.950 . S
C1851 C1848 1.387 . S
C1852 C1853 1.387 . S
C1852 H1856 0.950 . S
C1852 C1861 1.390 . S
C1853 C1852 1.387 . S
C1853 C1855 1.387 . S
H1854 C1861 0.950 . S
C1855 C1853 1.387 . S
C1855 C1857 1.390 . S
C1855 H1859 0.950 . S
H1856 C1852 0.950 . S
C1857 C1855 1.390 . S
C1857 C1858 1.387 . S
C1857 H1860 0.950 . S
C1858 C1857 1.387 . S
C1858 C1861 1.387 . S
H1859 C1855 0.950 . S
H1860 C1857 0.950 . S
C1861 C1852 1.390 . S
C1861 H1854 0.950 . S
C1861 C1858 1.387 . S
C1862 C1863 1.387 . S
C1862 H1866 0.950 . S
C1862 C1871 1.390 . S
C1863 C1862 1.387 . S
C1863 C1865 1.387 . S
H1864 C1871 0.950 . S
C1865 C1863 1.387 . S
C1865 C1867 1.390 . S
C1865 H1869 0.950 . S
H1866 C1862 0.950 . S
C1867 C1865 1.390 . S
C1867 C1868 1.387 . S
C1867 H1870 0.950 . S
C1868 C1867 1.387 . S
C1868 C1871 1.387 . S
H1869 C1865 0.950 . S
H1870 C1867 0.950 . S
C1871 C1862 1.390 . S
C1871 H1864 0.950 . S
C1871 C1868 1.387 . S
C1872 C1873 1.387 . S
C1872 H1876 0.950 . S
C1872 C1881 1.390 . S
C1873 C1872 1.387 . S
C1873 C1875 1.387 . S
H1874 C1881 0.950 . S
C1875 C1873 1.387 . S
C1875 C1877 1.390 . S
C1875 H1879 0.950 . S
H1876 C1872 0.950 . S
C1877 C1875 1.390 . S
C1877 C1878 1.387 . S
C1877 H1880 0.950 . S
C1878 C1877 1.387 . S
C1878 C1881 1.387 . S
H1879 C1875 0.950 . S
H1880 C1877 0.950 . S
C1881 C1872 1.390 . S
C1881 H1874 0.950 . S
C1881 C1878 1.387 . S
C1882 C1883 1.387 . S
C1882 H1886 0.950 . S
C1882 C1891 1.390 . S
C1883 C1882 1.387 . S
C1883 C1885 1.387 . S
H1884 C1891 0.950 . S
C1885 C1883 1.387 . S
C1885 C1887 1.390 . S
C1885 H1889 0.950 . S
H1886 C1882 0.950 . S
C1887 C1885 1.390 . S
C1887 C1888 1.387 . S
C1887 H1890 0.950 . S
C1888 C1887 1.387 . S
C1888 C1891 1.387 . S
H1889 C1885 0.950 . S
H1890 C1887 0.950 . S
C1891 C1882 1.390 . S
C1891 H1884 0.950 . S
C1891 C1888 1.387 . S
C1892 C1893 1.387 . S
C1892 H1896 0.950 . S
C1892 C1901 1.390 . S
C1893 C1892 1.387 . S
C1893 C1895 1.387 . S
H1894 C1901 0.950 . S
C1895 C1893 1.387 . S
C1895 C1897 1.390 . S
C1895 H1899 0.950 . S
H1896 C1892 0.950 . S
C1897 C1895 1.390 . S
C1897 C1898 1.387 . S
C1897 H1900 0.950 . S
C1898 C1897 1.387 . S
C1898 C1901 1.387 . S
H1899 C1895 0.950 . S
H1900 C1897 0.950 . S
C1901 C1892 1.390 . S
C1901 H1894 0.950 . S
C1901 C1898 1.387 . S
C1902 C1903 1.387 . S
C1902 H1906 0.950 . S
C1902 C1911 1.390 . S
C1903 C1902 1.387 . S
C1903 C1905 1.387 . S
H1904 C1911 0.950 . S
C1905 C1903 1.387 . S
C1905 C1907 1.390 . S
C1905 H1909 0.950 . S
H1906 C1902 0.950 . S
C1907 C1905 1.390 . S
C1907 C1908 1.387 . S
C1907 H1910 0.950 . S
C1908 C1907 1.387 . S
C1908 C1911 1.387 . S
H1909 C1905 0.950 . S
H1910 C1907 0.950 . S
C1911 C1902 1.390 . S
C1911 H1904 0.950 . S
C1911 C1908 1.387 . S
C1912 C1913 1.387 . S
C1912 H1916 0.950 . S
C1912 C1921 1.390 . S
C1913 C1912 1.387 . S
C1913 C1915 1.387 . S
H1914 C1921 0.950 . S
C1915 C1913 1.387 . S
C1915 C1917 1.390 . S
C1915 H1919 0.950 . S
H1916 C1912 0.950 . S
C1917 C1915 1.390 . S
C1917 C1918 1.387 . S
C1917 H1920 0.950 . S
C1918 C1917 1.387 . S
C1918 C1921 1.387 . S
H1919 C1915 0.950 . S
H1920 C1917 0.950 . S
C1921 C1912 1.390 . S
C1921 H1914 0.950 . S
C1921 C1918 1.387 . S
C1922 C1923 1.387 . S
C1922 H1926 0.950 . S
C1922 C1931 1.390 . S
C1923 C1922 1.387 . S
C1923 C1925 1.387 . S
H1924 C1931 0.950 . S
C1925 C1923 1.387 . S
C1925 C1927 1.390 . S
C1925 H1929 0.950 . S
H1926 C1922 0.950 . S
C1927 C1925 1.390 . S
C1927 C1928 1.387 . S
C1927 H1930 0.950 . S
C1928 C1927 1.387 . S
C1928 C1931 1.387 . S
H1929 C1925 0.950 . S
H1930 C1927 0.950 . S
C1931 C1922 1.390 . S
C1931 H1924 0.950 . S
C1931 C1928 1.387 . S
C1932 C1933 1.387 . S
C1932 H1936 0.950 . S
C1932 C1941 1.390 . S
C1933 C1932 1.387 . S
C1933 C1935 1.387 . S
H1934 C1941 0.950 . S
C1935 C1933 1.387 . S
C1935 C1937 1.390 . S
C1935 H1939 0.950 . S
H1936 C1932 0.950 . S
C1937 C1935 1.390 . S
C1937 C1938 1.387 . S
C1937 H1940 0.950 . S
C1938 C1937 1.387 . S
C1938 C1941 1.387 . S
H1939 C1935 0.950 . S
H1940 C1937 0.950 . S
C1941 C1932 1.390 . S
C1941 H1934 0.950 . S
C1941 C1938 1.387 . S
C1942 C1943 1.387 . S
C1942 H1946 0.950 . S
C1942 C1951 1.390 . S
C1943 C1942 1.387 . S
C1943 C1945 1.387 . S
H1944 C1951 0.950 . S
C1945 C1943 1.387 . S
C1945 C1947 1.390 . S
C1945 H1949 0.950 . S
H1946 C1942 0.950 . S
C1947 C1945 1.390 . S
C1947 C1948 1.387 . S
C1947 H1950 0.950 . S
C1948 C1947 1.387 . S
C1948 C1951 1.387 . S
H1949 C1945 0.950 . S
H1950 C1947 0.950 . S
C1951 C1942 1.390 . S
C1951 H1944 0.950 . S
C1951 C1948 1.387 . S
C1952 C1953 1.387 . S
C1952 H1956 0.950 . S
C1952 C1961 1.390 . S
C1953 C1952 1.387 . S
C1953 C1955 1.387 . S
H1954 C1961 0.950 . S
C1955 C1953 1.387 . S
C1955 C1957 1.390 . S
C1955 H1959 0.950 . S
H1956 C1952 0.950 . S
C1957 C1955 1.390 . S
C1957 C1958 1.387 . S
C1957 H1960 0.950 . S
C1958 C1957 1.387 . S
C1958 C1961 1.387 . S
H1959 C1955 0.950 . S
H1960 C1957 0.950 . S
C1961 C1952 1.390 . S
C1961 H1954 0.950 . S
C1961 C1958 1.387 . S
C1962 C1963 1.387 . S
C1962 H1966 0.950 . S
C1962 C1971 1.390 . S
C1963 C1962 1.387 . S
C1963 C1965 1.387 . S
H1964 C1971 0.950 . S
C1965 C1963 1.387 . S
C1965 C1967 1.390 . S
C1965 H1969 0.950 . S
H1966 C1962 0.950 . S
C1967 C1965 1.390 . S
C1967 C1968 1.387 . S
C1967 H1970 0.950 . S
C1968 C1967 1.387 . S
C1968 C1971 1.387 . S
H1969 C1965 0.950 . S
H1970 C1967 0.950 . S
C1971 C1962 1.390 . S
C1971 H1964 0.950 . S
C1971 C1968 1.387 . S
C1972 C1973 1.387 . S
C1972 H1976 0.950 . S
C1972 C1981 1.390 . S
C1973 C1972 1.387 . S
C1973 C1975 1.387 . S
H1974 C1981 0.950 . S
C1975 C1973 1.387 . S
C1975 C1977 1.390 . S
C1975 H1979 0.950 . S
H1976 C1972 0.950 . S
C1977 C1975 1.390 . S
C1977 C1978 1.387 . S
C1977 H1980 0.950 . S
C1978 C1977 1.387 . S
C1978 C1981 1.387 . S
H1979 C1975 0.950 . S
H1980 C1977 0.950 . S
C1981 C1972 1.390 . S
C1981 H1974 0.950 . S
C1981 C1978 1.387 . S
C1982 C1983 1.387 . S
C1982 H1986 0.950 . S
C1982 C1991 1.390 . S
C1983 C1982 1.387 . S
C1983 C1985 1.387 . S
H1984 C1991 0.950 . S
C1985 C1983 1.387 . S
C1985 C1987 1.390 . S
C1985 H1989 0.950 . S
H1986 C1982 0.950 . S
C1987 C1985 1.390 . S
C1987 C1988 1.387 . S
C1987 H1990 0.950 . S
C1988 C1987 1.387 . S
C1988 C1991 1.387 . S
H1989 C1985 0.950 . S
H1990 C1987 0.950 . S
C1991 C1982 1.390 . S
C1991 H1984 0.950 . S
C1991 C1988 1.387 . S
C1992 C1993 1.387 . S
C1992 H1996 0.950 . S
C1992 C2001 1.390 . S
C1993 C1992 1.387 . S
C1993 C1995 1.387 . S
H1994 C2001 0.950 . S
C1995 C1993 1.387 . S
C1995 C1997 1.390 . S
C1995 H1999 0.950 . S
H1996 C1992 0.950 . S
C1997 C1995 1.390 . S
C1997 C1998 1.387 . S
C1997 H2000 0.950 . S
C1998 C1997 1.387 . S
C1998 C2001 1.387 . S
H1999 C1995 0.950 . S
H2000 C1997 0.950 . S
C2001 C1992 1.390 . S
C2001 H1994 0.950 . S
C2001 C1998 1.387 . S
C2002 C2003 1.387 . S
C2002 H2006 0.950 . S
C2002 C2011 1.390 . S
C2003 C2002 1.387 . S
C2003 C2005 1.387 . S
H2004 C2011 0.950 . S
C2005 C2003 1.387 . S
C2005 C2007 1.390 . S
C2005 H2009 0.950 . S
H2006 C2002 0.950 . S
C2007 C2005 1.390 . S
C2007 C2008 1.387 . S
C2007 H2010 0.950 . S
C2008 C2007 1.387 . S
C2008 C2011 1.387 . S
H2009 C2005 0.950 . S
H2010 C2007 0.950 . S
C2011 C2002 1.390 . S
C2011 H2004 0.950 . S
C2011 C2008 1.387 . S
C2012 C2013 1.387 . S
C2012 H2016 0.950 . S
C2012 C2021 1.390 . S
C2013 C2012 1.387 . S
C2013 C2015 1.387 . S
H2014 C2021 0.950 . S
C2015 C2013 1.387 . S
C2015 C2017 1.390 . S
C2015 H2019 0.950 . S
H2016 C2012 0.950 . S
C2017 C2015 1.390 . S
C2017 C2018 1.387 . S
C2017 H2020 0.950 . S
C2018 C2017 1.387 . S
C2018 C2021 1.387 . S
H2019 C2015 0.950 . S
H2020 C2017 0.950 . S
C2021 C2012 1.390 . S
C2021 H2014 0.950 . S
C2021 C2018 1.387 . S
C2022 C2023 1.387 . S
C2022 H2026 0.950 . S
C2022 C2031 1.390 . S
C2023 C2022 1.387 . S
C2023 C2025 1.387 . S
H2024 C2031 0.950 . S
C2025 C2023 1.387 . S
C2025 C2027 1.390 . S
C2025 H2029 0.950 . S
H2026 C2022 0.950 . S
C2027 C2025 1.390 . S
C2027 C2028 1.387 . S
C2027 H2030 0.950 . S
C2028 C2027 1.387 . S
C2028 C2031 1.387 . S
H2029 C2025 0.950 . S
H2030 C2027 0.950 . S
C2031 C2022 1.390 . S
C2031 H2024 0.950 . S
C2031 C2028 1.387 . S
C2032 C2033 1.387 . S
C2032 H2036 0.950 . S
C2032 C2041 1.390 . S
C2033 C2032 1.387 . S
C2033 C2035 1.387 . S
H2034 C2041 0.950 . S
C2035 C2033 1.387 . S
C2035 C2037 1.390 . S
C2035 H2039 0.950 . S
H2036 C2032 0.950 . S
C2037 C2035 1.390 . S
C2037 C2038 1.387 . S
C2037 H2040 0.950 . S
C2038 C2037 1.387 . S
C2038 C2041 1.387 . S
H2039 C2035 0.950 . S
H2040 C2037 0.950 . S
C2041 C2032 1.390 . S
C2041 H2034 0.950 . S
C2041 C2038 1.387 . S
C2042 C2043 1.387 . S
C2042 H2046 0.950 . S
C2042 C2051 1.390 . S
C2043 C2042 1.387 . S
C2043 C2045 1.387 . S
H2044 C2051 0.950 . S
C2045 C2043 1.387 . S
C2045 C2047 1.390 . S
C2045 H2049 0.950 . S
H2046 C2042 0.950 . S
C2047 C2045 1.390 . S
C2047 C2048 1.387 . S
C2047 H2050 0.950 . S
C2048 C2047 1.387 . S
C2048 C2051 1.387 . S
H2049 C2045 0.950 . S
H2050 C2047 0.950 . S
C2051 C2042 1.390 . S
C2051 H2044 0.950 . S
C2051 C2048 1.387 . S
C2052 C2053 1.387 . S
C2052 H2056 0.950 . S
C2052 C2061 1.390 . S
C2053 C2052 1.387 . S
C2053 C2055 1.387 . S
H2054 C2061 0.950 . S
C2055 C2053 1.387 . S
C2055 C2057 1.390 . S
C2055 H2059 0.950 . S
H2056 C2052 0.950 . S
C2057 C2055 1.390 . S
C2057 C2058 1.387 . S
C2057 H2060 0.950 . S
C2058 C2057 1.387 . S
C2058 C2061 1.387 . S
H2059 C2055 0.950 . S
H2060 C2057 0.950 . S
C2061 C2052 1.390 . S
C2061 H2054 0.950 . S
C2061 C2058 1.387 . S
C2062 C2063 1.387 . S
C2062 H2066 0.950 . S
C2062 C2071 1.390 . S
C2063 C2062 1.387 . S
C2063 C2065 1.387 . S
H2064 C2071 0.950 . S
C2065 C2063 1.387 . S
C2065 C2067 1.390 . S
C2065 H2069 0.950 . S
H2066 C2062 0.950 . S
C2067 C2065 1.390 . S
C2067 C2068 1.387 . S
C2067 H2070 0.950 . S
C2068 C2067 1.387 . S
C2068 C2071 1.387 . S
H2069 C2065 0.950 . S
H2070 C2067 0.950 . S
C2071 C2062 1.390 . S
C2071 H2064 0.950 . S
C2071 C2068 1.387 . S
C2072 C2073 1.387 . S
C2072 H2076 0.950 . S
C2072 C2081 1.390 . S
C2073 C2072 1.387 . S
C2073 C2075 1.387 . S
H2074 C2081 0.950 . S
C2075 C2073 1.387 . S
C2075 C2077 1.390 . S
C2075 H2079 0.950 . S
H2076 C2072 0.950 . S
C2077 C2075 1.390 . S
C2077 C2078 1.387 . S
C2077 H2080 0.950 . S
C2078 C2077 1.387 . S
C2078 C2081 1.387 . S
H2079 C2075 0.950 . S
H2080 C2077 0.950 . S
C2081 C2072 1.390 . S
C2081 H2074 0.950 . S
C2081 C2078 1.387 . S
C2082 C2083 1.387 . S
C2082 H2086 0.950 . S
C2082 C2091 1.390 . S
C2083 C2082 1.387 . S
C2083 C2085 1.387 . S
H2084 C2091 0.950 . S
C2085 C2083 1.387 . S
C2085 C2087 1.390 . S
C2085 H2089 0.950 . S
H2086 C2082 0.950 . S
C2087 C2085 1.390 . S
C2087 C2088 1.387 . S
C2087 H2090 0.950 . S
C2088 C2087 1.387 . S
C2088 C2091 1.387 . S
H2089 C2085 0.950 . S
H2090 C2087 0.950 . S
C2091 C2082 1.390 . S
C2091 H2084 0.950 . S
C2091 C2088 1.387 . S
C2092 C2093 1.387 . S
C2092 H2096 0.950 . S
C2092 C2101 1.390 . S
C2093 C2092 1.387 . S
C2093 C2095 1.387 . S
H2094 C2101 0.950 . S
C2095 C2093 1.387 . S
C2095 C2097 1.390 . S
C2095 H2099 0.950 . S
H2096 C2092 0.950 . S
C2097 C2095 1.390 . S
C2097 C2098 1.387 . S
C2097 H2100 0.950 . S
C2098 C2097 1.387 . S
C2098 C2101 1.387 . S
H2099 C2095 0.950 . S
H2100 C2097 0.950 . S
C2101 C2092 1.390 . S
C2101 H2094 0.950 . S
C2101 C2098 1.387 . S
C2102 C2103 1.387 . S
C2102 H2106 0.950 . S
C2102 C2111 1.390 . S
C2103 C2102 1.387 . S
C2103 C2105 1.387 . S
H2104 C2111 0.950 . S
C2105 C2103 1.387 . S
C2105 C2107 1.390 . S
C2105 H2109 0.950 . S
H2106 C2102 0.950 . S
C2107 C2105 1.390 . S
C2107 C2108 1.387 . S
C2107 H2110 0.950 . S
C2108 C2107 1.387 . S
C2108 C2111 1.387 . S
H2109 C2105 0.950 . S
H2110 C2107 0.950 . S
C2111 C2102 1.390 . S
C2111 H2104 0.950 . S
C2111 C2108 1.387 . S
C2112 C2113 1.387 . S
C2112 H2116 0.950 . S
C2112 C2121 1.390 . S
C2113 C2112 1.387 . S
C2113 C2115 1.387 . S
H2114 C2121 0.950 1_565 S
C2115 C2113 1.387 . S
C2115 C2117 1.390 1_545 S
C2115 H2119 0.950 . S
H2116 C2112 0.950 . S
C2117 C2115 1.390 1_565 S
C2117 C2118 1.387 . S
C2117 H2120 0.950 . S
C2118 C2117 1.387 . S
C2118 C2121 1.387 1_565 S
H2119 C2115 0.950 . S
H2120 C2117 0.950 . S
C2121 C2112 1.390 . S
C2121 H2114 0.950 1_545 S
C2121 C2118 1.387 1_545 S
C2122 C2123 1.387 . S
C2122 H2126 0.950 . S
C2122 C2131 1.369 1_655 S
C2123 C2122 1.387 . S
C2123 C2125 1.387 . S
H2124 C2131 0.960 . S
C2125 C2123 1.387 . S
C2125 C2127 1.390 1_655 S
C2125 H2129 0.950 . S
H2126 C2122 0.950 . S
C2127 C2125 1.390 1_455 S
C2127 C2128 1.387 . S
C2127 H2130 0.950 . S
C2128 C2127 1.387 . S
C2128 C2131 1.399 . S
H2129 C2125 0.950 . S
H2130 C2127 0.950 . S
C2131 C2122 1.369 1_455 S
C2131 H2124 0.960 . S
C2131 C2128 1.399 . S
C2132 C2133 1.387 . S
C2132 H2136 0.950 . S
C2132 C2141 1.384 1_545 S
C2133 C2132 1.387 . S
C2133 C2135 1.387 . S
H2134 C2141 0.953 . S
C2135 C2133 1.387 . S
C2135 C2137 1.348 1_545 S
C2135 H2139 0.950 . S
H2136 C2132 0.950 . S
C2137 C2135 1.348 1_565 S
C2137 C2138 1.410 . S
C2137 H2140 0.971 . S
C2138 C2137 1.410 . S
C2138 C2141 1.391 . S
H2139 C2135 0.950 . S
H2140 C2137 0.971 . S
C2141 C2132 1.384 1_565 S
C2141 H2134 0.953 . S
C2141 C2138 1.391 . S
C2142 C2143 1.387 . S
C2142 H2146 0.950 . S
C2142 C2151 1.390 1_655 S
C2143 C2142 1.387 . S
C2143 C2145 1.387 . S
H2144 C2151 0.950 . S
C2145 C2143 1.387 . S
C2145 C2147 1.390 1_655 S
C2145 H2149 0.950 . S
H2146 C2142 0.950 . S
C2147 C2145 1.390 1_455 S
C2147 C2148 1.387 . S
C2147 H2150 0.950 . S
C2148 C2147 1.387 . S
C2148 C2151 1.387 . S
H2149 C2145 0.950 . S
H2150 C2147 0.950 . S
C2151 C2142 1.390 1_455 S
C2151 H2144 0.950 . S
C2151 C2148 1.387 . S
C2152 C2153 1.387 . S
C2152 H2156 0.950 . S
C2152 C2161 1.390 1_565 S
C2153 C2152 1.387 . S
C2153 C2155 1.387 . S
H2154 C2161 0.950 . S
C2155 C2153 1.387 . S
C2155 C2157 1.390 1_565 S
C2155 H2159 0.950 . S
H2156 C2152 0.950 . S
C2157 C2155 1.390 1_545 S
C2157 C2158 1.387 . S
C2157 H2160 0.950 . S
C2158 C2157 1.387 . S
C2158 C2161 1.387 . S
H2159 C2155 0.950 . S
H2160 C2157 0.950 . S
C2161 C2152 1.390 1_545 S
C2161 H2154 0.950 . S
C2161 C2158 1.387 . S
C2162 C2163 1.387 . S
C2162 H2166 0.950 . S
C2162 C2171 1.390 1_655 S
C2163 C2162 1.387 . S
C2163 C2165 1.387 . S
H2164 C2171 0.950 . S
C2165 C2163 1.387 . S
C2165 C2167 1.390 1_655 S
C2165 H2169 0.950 . S
H2166 C2162 0.950 . S
C2167 C2165 1.390 1_455 S
C2167 C2168 1.387 . S
C2167 H2170 0.950 . S
C2168 C2167 1.387 . S
C2168 C2171 1.387 . S
H2169 C2165 0.950 . S
H2170 C2167 0.950 . S
C2171 C2162 1.390 1_455 S
C2171 H2164 0.950 . S
C2171 C2168 1.387 . S
C2172 C2173 1.387 . S
C2172 H2176 0.950 . S
C2172 C2181 1.390 . S
C2173 C2172 1.387 . S
C2173 C2175 1.387 . S
H2174 C2181 0.950 1_545 S
C2175 C2173 1.387 . S
C2175 C2177 1.390 . S
C2175 H2179 0.950 . S
H2176 C2172 0.950 . S
C2177 C2175 1.390 . S
C2177 C2178 1.387 1_565 S
C2177 H2180 0.950 1_565 S
C2178 C2177 1.387 1_545 S
C2178 C2181 1.387 1_545 S
H2179 C2175 0.950 . S
H2180 C2177 0.950 1_545 S
C2181 C2172 1.390 . S
C2181 H2174 0.950 1_565 S
C2181 C2178 1.387 1_565 S
C2182 C2183 1.387 . S
C2182 H2186 0.950 . S
C2182 C2191 1.390 1_655 S
C2183 C2182 1.387 . S
C2183 C2185 1.387 . S
H2184 C2191 0.950 . S
C2185 C2183 1.387 . S
C2185 C2187 1.390 1_655 S
C2185 H2189 0.950 . S
H2186 C2182 0.950 . S
C2187 C2185 1.390 1_455 S
C2187 C2188 1.387 . S
C2187 H2190 0.950 . S
C2188 C2187 1.387 . S
C2188 C2191 1.387 . S
H2189 C2185 0.950 . S
H2190 C2187 0.950 . S
C2191 C2182 1.390 1_455 S
C2191 H2184 0.950 . S
C2191 C2188 1.387 . S
C2192 C2193 1.387 . S
C2192 H2196 0.950 . S
C2192 C2201 1.390 1_554 S
C2193 C2192 1.387 . S
C2193 C2195 1.387 . S
H2194 C2201 0.950 . S
C2195 C2193 1.387 . S
C2195 C2197 1.390 . S
C2195 H2199 0.950 . S
H2196 C2192 0.950 . S
C2197 C2195 1.390 . S
C2197 C2198 1.387 1_554 S
C2197 H2200 0.950 . S
C2198 C2197 1.387 1_556 S
C2198 C2201 1.387 . S
H2199 C2195 0.950 . S
H2200 C2197 0.950 . S
C2201 C2192 1.390 1_556 S
C2201 H2194 0.950 . S
C2201 C2198 1.387 . S
C2202 C2203 1.387 . S
C2202 H2206 0.950 . S
C2202 C2211 1.390 1_554 S
C2203 C2202 1.387 . S
C2203 C2205 1.387 . S
H2204 C2211 0.950 . S
C2205 C2203 1.387 . S
C2205 C2207 1.390 1_554 S
C2205 H2209 0.950 . S
H2206 C2202 0.950 . S
C2207 C2205 1.390 1_556 S
C2207 C2208 1.387 . S
C2207 H2210 0.950 . S
C2208 C2207 1.387 . S
C2208 C2211 1.387 . S
H2209 C2205 0.950 . S
H2210 C2207 0.950 . S
C2211 C2202 1.390 1_556 S
C2211 H2204 0.950 . S
C2211 C2208 1.387 . S
C2212 C2213 1.387 . S
C2212 H2216 0.950 . S
C2212 C2221 1.390 . S
C2213 C2212 1.387 . S
C2213 C2215 1.387 . S
H2214 C2221 0.950 . S
C2215 C2213 1.387 . S
C2215 C2217 1.390 . S
C2215 H2219 0.950 . S
H2216 C2212 0.950 . S
C2217 C2215 1.390 . S
C2217 C2218 1.387 1_556 S
C2217 H2220 0.950 1_556 S
C2218 C2217 1.387 1_554 S
C2218 C2221 1.387 1_554 S
H2219 C2215 0.950 . S
H2220 C2217 0.950 1_554 S
C2221 C2212 1.390 . S
C2221 H2214 0.950 . S
C2221 C2218 1.387 1_556 S
C2222 C2223 1.387 . S
C2222 H2226 0.950 . S
C2222 C2231 1.390 1_554 S
C2223 C2222 1.387 . S
C2223 C2225 1.387 . S
H2224 C2231 0.950 . S
C2225 C2223 1.387 . S
C2225 C2227 1.390 1_554 S
C2225 H2229 0.950 . S
H2226 C2222 0.950 . S
C2227 C2225 1.390 1_556 S
C2227 C2228 1.387 . S
C2227 H2230 0.950 . S
C2228 C2227 1.387 . S
C2228 C2231 1.387 . S
H2229 C2225 0.950 . S
H2230 C2227 0.950 . S
C2231 C2222 1.390 1_556 S
C2231 H2224 0.950 . S
C2231 C2228 1.387 . S
C2232 C2233 1.387 . S
C2232 H2236 0.950 . S
C2232 C2241 1.390 1_556 S
C2233 C2232 1.387 . S
C2233 C2235 1.387 . S
H2234 C2241 0.950 . S
C2235 C2233 1.387 . S
C2235 C2237 1.390 1_556 S
C2235 H2239 0.950 . S
H2236 C2232 0.950 . S
C2237 C2235 1.390 1_554 S
C2237 C2238 1.387 . S
C2237 H2240 0.950 . S
C2238 C2237 1.387 . S
C2238 C2241 1.387 . S
H2239 C2235 0.950 . S
H2240 C2237 0.950 . S
C2241 C2232 1.390 1_554 S
C2241 H2234 0.950 . S
C2241 C2238 1.387 . S
C2242 C2243 1.387 . S
C2242 H2246 0.950 . S
C2242 C2251 1.410 . S
C2243 C2242 1.387 . S
C2243 C2245 1.387 . S
H2244 C2251 0.940 1_554 S
C2245 C2243 1.387 . S
C2245 C2247 1.390 . S
C2245 H2249 0.950 . S
H2246 C2242 0.950 . S
C2247 C2245 1.390 . S
C2247 C2248 1.387 1_556 S
C2247 H2250 0.950 1_556 S
C2248 C2247 1.387 1_554 S
C2248 C2251 1.378 1_554 S
H2249 C2245 0.950 . S
H2250 C2247 0.950 1_554 S
C2251 C2242 1.410 . S
C2251 H2244 0.940 1_556 S
C2251 C2248 1.378 1_556 S
C2252 C2253 1.387 . S
C2252 H2256 0.950 . S
C2252 C2261 1.390 1_556 S
C2253 C2252 1.387 . S
C2253 C2255 1.387 . S
H2254 C2261 0.950 . S
C2255 C2253 1.387 . S
C2255 C2257 1.390 1_556 S
C2255 H2259 0.950 . S
H2256 C2252 0.950 . S
C2257 C2255 1.390 1_554 S
C2257 C2258 1.387 . S
C2257 H2260 0.950 . S
C2258 C2257 1.387 . S
C2258 C2261 1.387 . S
H2259 C2255 0.950 . S
H2260 C2257 0.950 . S
C2261 C2252 1.390 1_554 S
C2261 H2254 0.950 . S
C2261 C2258 1.387 . S
C2262 C2263 1.387 . S
C2262 H2266 0.950 . S
C2262 C2271 1.390 1_554 S
C2263 C2262 1.387 . S
C2263 C2265 1.387 . S
H2264 C2271 0.950 . S
C2265 C2263 1.387 . S
C2265 C2267 1.390 1_554 S
C2265 H2269 0.950 . S
H2266 C2262 0.950 . S
C2267 C2265 1.390 1_556 S
C2267 C2268 1.387 . S
C2267 H2270 0.950 . S
C2268 C2267 1.387 . S
C2268 C2271 1.387 . S
H2269 C2265 0.950 . S
H2270 C2267 0.950 . S
C2271 C2262 1.390 1_556 S
C2271 H2264 0.950 . S
C2271 C2268 1.387 . S
C2272 C2273 1.387 . S
C2272 H2276 0.950 . S
C2272 C2281 1.390 1_655 S
C2273 C2272 1.387 . S
C2273 C2275 1.387 . S
H2274 C2281 0.950 . S
C2275 C2273 1.387 . S
C2275 C2277 1.390 1_655 S
C2275 H2279 0.950 . S
H2276 C2272 0.950 . S
C2277 C2275 1.390 1_455 S
C2277 C2278 1.387 . S
C2277 H2280 0.950 . S
C2278 C2277 1.387 . S
C2278 C2281 1.387 . S
H2279 C2275 0.950 . S
H2280 C2277 0.950 . S
C2281 C2272 1.390 1_455 S
C2281 H2274 0.950 . S
C2281 C2278 1.387 . S
C2282 C2283 1.387 1_655 S
C2282 H2286 0.950 1_655 S
C2282 C2291 1.390 . S
C2283 C2282 1.387 1_455 S
C2283 C2285 1.387 1_455 S
H2284 C2291 0.950 . S
C2285 C2283 1.387 1_655 S
C2285 C2287 1.390 . S
C2285 H2289 0.950 1_655 S
H2286 C2282 0.950 1_455 S
C2287 C2285 1.390 . S
C2287 C2288 1.387 . S
C2287 H2290 0.950 . S
C2288 C2287 1.387 . S
C2288 C2291 1.387 . S
H2289 C2285 0.950 1_455 S
H2290 C2287 0.950 . S
C2291 C2282 1.390 . S
C2291 H2284 0.950 . S
C2291 C2288 1.387 . S
C2292 C2293 1.387 . S
C2292 H2296 0.950 . S
C2292 C2301 1.390 . S
C2293 C2292 1.387 . S
C2293 C2295 1.387 . S
H2294 C2301 0.950 1_565 S
C2295 C2293 1.387 . S
C2295 C2297 1.390 . S
C2295 H2299 0.950 . S
H2296 C2292 0.950 . S
C2297 C2295 1.390 . S
C2297 C2298 1.387 1_545 S
C2297 H2300 0.950 1_545 S
C2298 C2297 1.387 1_565 S
C2298 C2301 1.387 1_565 S
H2299 C2295 0.950 . S
H2300 C2297 0.950 1_565 S
C2301 C2292 1.390 . S
C2301 H2294 0.950 1_545 S
C2301 C2298 1.387 1_545 S
C2302 C2303 1.387 . S
C2302 H2306 0.950 . S
C2302 C2311 1.390 1_455 S
C2303 C2302 1.387 . S
C2303 C2305 1.387 . S
H2304 C2311 0.950 . S
C2305 C2303 1.387 . S
C2305 C2307 1.390 1_455 S
C2305 H2309 0.950 . S
H2306 C2302 0.950 . S
C2307 C2305 1.390 1_655 S
C2307 C2308 1.387 . S
C2307 H2310 0.950 . S
C2308 C2307 1.387 . S
C2308 C2311 1.387 . S
H2309 C2305 0.950 . S
H2310 C2307 0.950 . S
C2311 C2302 1.390 1_655 S
C2311 H2304 0.950 . S
C2311 C2308 1.387 . S
C2312 C2313 1.387 . S
C2312 H2316 0.950 . S
C2312 C2321 1.390 1_565 S
C2313 C2312 1.387 . S
C2313 C2315 1.387 . S
H2314 C2321 0.950 . S
C2315 C2313 1.387 . S
C2315 C2317 1.390 1_565 S
C2315 H2319 0.950 . S
H2316 C2312 0.950 . S
C2317 C2315 1.390 1_545 S
C2317 C2318 1.387 . S
C2317 H2320 0.950 . S
C2318 C2317 1.387 . S
C2318 C2321 1.387 . S
H2319 C2315 0.950 . S
H2320 C2317 0.950 . S
C2321 C2312 1.390 1_545 S
C2321 H2314 0.950 . S
C2321 C2318 1.387 . S
C2322 C2323 1.387 . S
C2322 H2326 0.950 . S
C2322 C2331 1.390 1_655 S
C2323 C2322 1.387 . S
C2323 C2325 1.387 . S
H2324 C2331 0.950 . S
C2325 C2323 1.387 . S
C2325 C2327 1.390 1_655 S
C2325 H2329 0.950 . S
H2326 C2322 0.950 . S
C2327 C2325 1.390 1_455 S
C2327 C2328 1.387 . S
C2327 H2330 0.950 . S
C2328 C2327 1.387 . S
C2328 C2331 1.387 . S
H2329 C2325 0.950 . S
H2330 C2327 0.950 . S
C2331 C2322 1.390 1_455 S
C2331 H2324 0.950 . S
C2331 C2328 1.387 . S
C2332 C2333 1.387 . S
C2332 H2336 0.950 . S
C2332 C2341 1.390 1_565 S
C2333 C2332 1.387 . S
C2333 C2335 1.387 . S
H2334 C2341 0.950 . S
C2335 C2333 1.387 . S
C2335 C2337 1.390 1_565 S
C2335 H2339 0.950 . S
H2336 C2332 0.950 . S
C2337 C2335 1.390 1_545 S
C2337 C2338 1.387 . S
C2337 H2340 0.950 . S
C2338 C2337 1.387 . S
C2338 C2341 1.387 . S
H2339 C2335 0.950 . S
H2340 C2337 0.950 . S
C2341 C2332 1.390 1_545 S
C2341 H2334 0.950 . S
C2341 C2338 1.387 . S
C2342 C2343 1.387 . S
C2342 H2346 0.950 . S
C2342 C2351 1.390 . S
C2343 C2342 1.387 . S
C2343 C2345 1.387 . S
H2344 C2351 0.950 1_545 S
C2345 C2343 1.387 . S
C2345 C2347 1.390 . S
C2345 H2349 0.950 . S
H2346 C2342 0.950 . S
C2347 C2345 1.390 . S
C2347 C2348 1.387 1_565 S
C2347 H2350 0.950 1_565 S
C2348 C2347 1.387 1_545 S
C2348 C2351 1.387 1_545 S
H2349 C2345 0.950 . S
H2350 C2347 0.950 1_545 S
C2351 C2342 1.390 . S
C2351 H2344 0.950 1_565 S
C2351 C2348 1.387 1_565 S
C2352 C2353 1.387 . S
C2352 H2356 0.950 . S
C2352 C2361 1.390 . S
C2353 C2352 1.387 . S
C2353 C2355 1.387 . S
H2354 C2361 0.950 . S
C2355 C2353 1.387 . S
C2355 C2357 1.390 . S
C2355 H2359 0.950 . S
H2356 C2352 0.950 . S
C2357 C2355 1.390 . S
C2357 C2358 1.387 . S
C2357 H2360 0.950 . S
C2358 C2357 1.387 . S
C2358 C2361 1.387 . S
H2359 C2355 0.950 . S
H2360 C2357 0.950 . S
C2361 C2352 1.390 . S
C2361 H2354 0.950 . S
C2361 C2358 1.387 . S
C2362 C2363 1.387 . S
C2362 H2366 0.950 . S
C2362 C2371 1.390 . S
C2363 C2362 1.387 . S
C2363 C2365 1.387 . S
H2364 C2371 0.950 . S
C2365 C2363 1.387 . S
C2365 C2367 1.390 . S
C2365 H2369 0.950 . S
H2366 C2362 0.950 . S
C2367 C2365 1.390 . S
C2367 C2368 1.387 . S
C2367 H2370 0.950 . S
C2368 C2367 1.387 . S
C2368 C2371 1.387 . S
H2369 C2365 0.950 . S
H2370 C2367 0.950 . S
C2371 C2362 1.390 . S
C2371 H2364 0.950 . S
C2371 C2368 1.387 . S
C2372 C2373 1.387 . S
C2372 H2376 0.950 . S
C2372 C2381 1.390 . S
C2373 C2372 1.387 . S
C2373 C2375 1.387 . S
H2374 C2381 0.950 . S
C2375 C2373 1.387 . S
C2375 C2377 1.390 . S
C2375 H2379 0.950 . S
H2376 C2372 0.950 . S
C2377 C2375 1.390 . S
C2377 C2378 1.387 . S
C2377 H2380 0.950 . S
C2378 C2377 1.387 . S
C2378 C2381 1.387 . S
H2379 C2375 0.950 . S
H2380 C2377 0.950 . S
C2381 C2372 1.390 . S
C2381 H2374 0.950 . S
C2381 C2378 1.387 . S
C2382 C2383 1.387 . S
C2382 H2386 0.950 . S
C2382 C2391 1.390 . S
C2383 C2382 1.387 . S
C2383 C2385 1.387 . S
H2384 C2391 0.950 . S
C2385 C2383 1.387 . S
C2385 C2387 1.390 . S
C2385 H2389 0.950 . S
H2386 C2382 0.950 . S
C2387 C2385 1.390 . S
C2387 C2388 1.387 . S
C2387 H2390 0.950 . S
C2388 C2387 1.387 . S
C2388 C2391 1.387 . S
H2389 C2385 0.950 . S
H2390 C2387 0.950 . S
C2391 C2382 1.390 . S
C2391 H2384 0.950 . S
C2391 C2388 1.387 . S
C2392 C2393 1.387 . S
C2392 H2396 0.950 . S
C2392 C2401 1.390 . S
C2393 C2392 1.387 . S
C2393 C2395 1.387 . S
H2394 C2401 0.950 . S
C2395 C2393 1.387 . S
C2395 C2397 1.390 . S
C2395 H2399 0.950 . S
H2396 C2392 0.950 . S
C2397 C2395 1.390 . S
C2397 C2398 1.387 . S
C2397 H2400 0.950 . S
C2398 C2397 1.387 . S
C2398 C2401 1.387 . S
H2399 C2395 0.950 . S
H2400 C2397 0.950 . S
C2401 C2392 1.390 . S
C2401 H2394 0.950 . S
C2401 C2398 1.387 . S
C2402 C2403 1.387 . S
C2402 H2406 0.950 . S
C2402 C2411 1.390 . S
C2403 C2402 1.387 . S
C2403 C2405 1.387 . S
H2404 C2411 0.950 . S
C2405 C2403 1.387 . S
C2405 C2407 1.390 . S
C2405 H2409 0.950 . S
H2406 C2402 0.950 . S
C2407 C2405 1.390 . S
C2407 C2408 1.387 . S
C2407 H2410 0.950 . S
C2408 C2407 1.387 . S
C2408 C2411 1.387 . S
H2409 C2405 0.950 . S
H2410 C2407 0.950 . S
C2411 C2402 1.390 . S
C2411 H2404 0.950 . S
C2411 C2408 1.387 . S
C2412 C2413 1.387 . S
C2412 H2416 0.950 . S
C2412 C2421 1.390 . S
C2413 C2412 1.387 . S
C2413 C2415 1.387 . S
H2414 C2421 0.950 . S
C2415 C2413 1.387 . S
C2415 C2417 1.390 . S
C2415 H2419 0.950 . S
H2416 C2412 0.950 . S
C2417 C2415 1.390 . S
C2417 C2418 1.387 . S
C2417 H2420 0.950 . S
C2418 C2417 1.387 . S
C2418 C2421 1.387 . S
H2419 C2415 0.950 . S
H2420 C2417 0.950 . S
C2421 C2412 1.390 . S
C2421 H2414 0.950 . S
C2421 C2418 1.387 . S
C2422 C2423 1.387 . S
C2422 H2426 0.950 . S
C2422 C2431 1.390 . S
C2423 C2422 1.387 . S
C2423 C2425 1.387 . S
H2424 C2431 0.950 . S
C2425 C2423 1.387 . S
C2425 C2427 1.390 . S
C2425 H2429 0.950 . S
H2426 C2422 0.950 . S
C2427 C2425 1.390 . S
C2427 C2428 1.387 . S
C2427 H2430 0.950 . S
C2428 C2427 1.387 . S
C2428 C2431 1.387 . S
H2429 C2425 0.950 . S
H2430 C2427 0.950 . S
C2431 C2422 1.390 . S
C2431 H2424 0.950 . S
C2431 C2428 1.387 . S
C2432 C2433 1.387 . S
C2432 H2436 0.950 . S
C2432 C2441 1.390 . S
C2433 C2432 1.387 . S
C2433 C2435 1.387 . S
H2434 C2441 0.950 . S
C2435 C2433 1.387 . S
C2435 C2437 1.390 . S
C2435 H2439 0.950 . S
H2436 C2432 0.950 . S
C2437 C2435 1.390 . S
C2437 C2438 1.387 . S
C2437 H2440 0.950 . S
C2438 C2437 1.387 . S
C2438 C2441 1.387 . S
H2439 C2435 0.950 . S
H2440 C2437 0.950 . S
C2441 C2432 1.390 . S
C2441 H2434 0.950 . S
C2441 C2438 1.387 . S
C2442 C2443 1.387 . S
C2442 H2446 0.950 . S
C2442 C2451 1.390 . S
C2443 C2442 1.387 . S
C2443 C2445 1.387 . S
H2444 C2451 0.950 . S
C2445 C2443 1.387 . S
C2445 C2447 1.390 . S
C2445 H2449 0.950 . S
H2446 C2442 0.950 . S
C2447 C2445 1.390 . S
C2447 C2448 1.387 . S
C2447 H2450 0.950 . S
C2448 C2447 1.387 . S
C2448 C2451 1.387 . S
H2449 C2445 0.950 . S
H2450 C2447 0.950 . S
C2451 C2442 1.390 . S
C2451 H2444 0.950 . S
C2451 C2448 1.387 . S
C2452 C2453 1.387 . S
C2452 H2456 0.950 . S
C2452 C2461 1.390 . S
C2453 C2452 1.387 . S
C2453 C2455 1.387 . S
H2454 C2461 0.950 . S
C2455 C2453 1.387 . S
C2455 C2457 1.390 . S
C2455 H2459 0.950 . S
H2456 C2452 0.950 . S
C2457 C2455 1.390 . S
C2457 C2458 1.387 . S
C2457 H2460 0.950 . S
C2458 C2457 1.387 . S
C2458 C2461 1.387 . S
H2459 C2455 0.950 . S
H2460 C2457 0.950 . S
C2461 C2452 1.390 . S
C2461 H2454 0.950 . S
C2461 C2458 1.387 . S
C2462 C2463 1.387 . S
C2462 H2466 0.950 . S
C2462 C2471 1.390 . S
C2463 C2462 1.387 . S
C2463 C2465 1.387 . S
H2464 C2471 0.950 . S
C2465 C2463 1.387 . S
C2465 C2467 1.390 . S
C2465 H2469 0.950 . S
H2466 C2462 0.950 . S
C2467 C2465 1.390 . S
C2467 C2468 1.387 . S
C2467 H2470 0.950 . S
C2468 C2467 1.387 . S
C2468 C2471 1.387 . S
H2469 C2465 0.950 . S
H2470 C2467 0.950 . S
C2471 C2462 1.390 . S
C2471 H2464 0.950 . S
C2471 C2468 1.387 . S
C2472 C2473 1.387 . S
C2472 H2476 0.950 . S
C2472 C2481 1.390 . S
C2473 C2472 1.387 . S
C2473 C2475 1.387 . S
H2474 C2481 0.950 . S
C2475 C2473 1.387 . S
C2475 C2477 1.390 . S
C2475 H2479 0.950 . S
H2476 C2472 0.950 . S
C2477 C2475 1.390 . S
C2477 C2478 1.387 . S
C2477 H2480 0.950 . S
C2478 C2477 1.387 . S
C2478 C2481 1.387 . S
H2479 C2475 0.950 . S
H2480 C2477 0.950 . S
C2481 C2472 1.390 . S
C2481 H2474 0.950 . S
C2481 C2478 1.387 . S
C2482 C2483 1.387 . S
C2482 H2486 0.950 . S
C2482 C2491 1.390 . S
C2483 C2482 1.387 . S
C2483 C2485 1.387 . S
H2484 C2491 0.950 . S
C2485 C2483 1.387 . S
C2485 C2487 1.390 . S
C2485 H2489 0.950 . S
H2486 C2482 0.950 . S
C2487 C2485 1.390 . S
C2487 C2488 1.387 . S
C2487 H2490 0.950 . S
C2488 C2487 1.387 . S
C2488 C2491 1.387 . S
H2489 C2485 0.950 . S
H2490 C2487 0.950 . S
C2491 C2482 1.390 . S
C2491 H2484 0.950 . S
C2491 C2488 1.387 . S
C2492 C2493 1.387 . S
C2492 H2496 0.950 . S
C2492 C2501 1.390 . S
C2493 C2492 1.387 . S
C2493 C2495 1.387 . S
H2494 C2501 0.950 . S
C2495 C2493 1.387 . S
C2495 C2497 1.390 . S
C2495 H2499 0.950 . S
H2496 C2492 0.950 . S
C2497 C2495 1.390 . S
C2497 C2498 1.387 . S
C2497 H2500 0.950 . S
C2498 C2497 1.387 . S
C2498 C2501 1.387 . S
H2499 C2495 0.950 . S
H2500 C2497 0.950 . S
C2501 C2492 1.390 . S
C2501 H2494 0.950 . S
C2501 C2498 1.387 . S
C2502 C2503 1.387 . S
C2502 H2506 0.950 . S
C2502 C2511 1.390 . S
C2503 C2502 1.387 . S
C2503 C2505 1.387 . S
H2504 C2511 0.950 . S
C2505 C2503 1.387 . S
C2505 C2507 1.390 . S
C2505 H2509 0.950 . S
H2506 C2502 0.950 . S
C2507 C2505 1.390 . S
C2507 C2508 1.387 . S
C2507 H2510 0.950 . S
C2508 C2507 1.387 . S
C2508 C2511 1.387 . S
H2509 C2505 0.950 . S
H2510 C2507 0.950 . S
C2511 C2502 1.390 . S
C2511 H2504 0.950 . S
C2511 C2508 1.387 . S
C2512 C2513 1.387 . S
C2512 H2516 0.950 . S
C2512 C2521 1.390 . S
C2513 C2512 1.387 . S
C2513 C2515 1.387 . S
H2514 C2521 0.950 . S
C2515 C2513 1.387 . S
C2515 C2517 1.390 . S
C2515 H2519 0.950 . S
H2516 C2512 0.950 . S
C2517 C2515 1.390 . S
C2517 C2518 1.387 . S
C2517 H2520 0.950 . S
C2518 C2517 1.387 . S
C2518 C2521 1.387 . S
H2519 C2515 0.950 . S
H2520 C2517 0.950 . S
C2521 C2512 1.390 . S
C2521 H2514 0.950 . S
C2521 C2518 1.387 . S
C2522 C2523 1.387 . S
C2522 H2526 0.950 . S
C2522 C2531 1.390 . S
C2523 C2522 1.387 . S
C2523 C2525 1.387 . S
H2524 C2531 0.950 . S
C2525 C2523 1.387 . S
C2525 C2527 1.390 . S
C2525 H2529 0.950 . S
H2526 C2522 0.950 . S
C2527 C2525 1.390 . S
C2527 C2528 1.387 . S
C2527 H2530 0.950 . S
C2528 C2527 1.387 . S
C2528 C2531 1.387 . S
H2529 C2525 0.950 . S
H2530 C2527 0.950 . S
C2531 C2522 1.390 . S
C2531 H2524 0.950 . S
C2531 C2528 1.387 . S
C2532 C2533 1.387 . S
C2532 H2536 0.950 . S
C2532 C2541 1.390 . S
C2533 C2532 1.387 . S
C2533 C2535 1.387 . S
H2534 C2541 0.950 . S
C2535 C2533 1.387 . S
C2535 C2537 1.390 . S
C2535 H2539 0.950 . S
H2536 C2532 0.950 . S
C2537 C2535 1.390 . S
C2537 C2538 1.387 . S
C2537 H2540 0.950 . S
C2538 C2537 1.387 . S
C2538 C2541 1.387 . S
H2539 C2535 0.950 . S
H2540 C2537 0.950 . S
C2541 C2532 1.390 . S
C2541 H2534 0.950 . S
C2541 C2538 1.387 . S
C2542 C2543 1.387 . S
C2542 H2546 0.950 . S
C2542 C2551 1.390 . S
C2543 C2542 1.387 . S
C2543 C2545 1.387 . S
H2544 C2551 0.950 . S
C2545 C2543 1.387 . S
C2545 C2547 1.390 . S
C2545 H2549 0.950 . S
H2546 C2542 0.950 . S
C2547 C2545 1.390 . S
C2547 C2548 1.387 . S
C2547 H2550 0.950 . S
C2548 C2547 1.387 . S
C2548 C2551 1.387 . S
H2549 C2545 0.950 . S
H2550 C2547 0.950 . S
C2551 C2542 1.390 . S
C2551 H2544 0.950 . S
C2551 C2548 1.387 . S
C2552 C2553 1.387 . S
C2552 H2556 0.950 . S
C2552 C2561 1.390 . S
C2553 C2552 1.387 . S
C2553 C2555 1.387 . S
H2554 C2561 0.950 . S
C2555 C2553 1.387 . S
C2555 C2557 1.390 . S
C2555 H2559 0.950 . S
H2556 C2552 0.950 . S
C2557 C2555 1.390 . S
C2557 C2558 1.387 . S
C2557 H2560 0.950 . S
C2558 C2557 1.387 . S
C2558 C2561 1.387 . S
H2559 C2555 0.950 . S
H2560 C2557 0.950 . S
C2561 C2552 1.390 . S
C2561 H2554 0.950 . S
C2561 C2558 1.387 . S
C2562 C2563 1.387 . S
C2562 H2566 0.950 . S
C2562 C2571 1.390 . S
C2563 C2562 1.387 . S
C2563 C2565 1.387 . S
H2564 C2571 0.950 . S
C2565 C2563 1.387 . S
C2565 C2567 1.390 . S
C2565 H2569 0.950 . S
H2566 C2562 0.950 . S
C2567 C2565 1.390 . S
C2567 C2568 1.387 . S
C2567 H2570 0.950 . S
C2568 C2567 1.387 . S
C2568 C2571 1.387 . S
H2569 C2565 0.950 . S
H2570 C2567 0.950 . S
C2571 C2562 1.390 . S
C2571 H2564 0.950 . S
C2571 C2568 1.387 . S
C2572 C2573 1.387 . S
C2572 H2576 0.950 . S
C2572 C2581 1.390 . S
C2573 C2572 1.387 . S
C2573 C2575 1.387 . S
H2574 C2581 0.950 . S
C2575 C2573 1.387 . S
C2575 C2577 1.390 . S
C2575 H2579 0.950 . S
H2576 C2572 0.950 . S
C2577 C2575 1.390 . S
C2577 C2578 1.387 . S
C2577 H2580 0.950 . S
C2578 C2577 1.387 . S
C2578 C2581 1.387 . S
H2579 C2575 0.950 . S
H2580 C2577 0.950 . S
C2581 C2572 1.390 . S
C2581 H2574 0.950 . S
C2581 C2578 1.387 . S
C2582 C2583 1.387 . S
C2582 H2586 0.950 . S
C2582 C2591 1.390 . S
C2583 C2582 1.387 . S
C2583 C2585 1.387 . S
H2584 C2591 0.950 . S
C2585 C2583 1.387 . S
C2585 C2587 1.390 . S
C2585 H2589 0.950 . S
H2586 C2582 0.950 . S
C2587 C2585 1.390 . S
C2587 C2588 1.387 . S
C2587 H2590 0.950 . S
C2588 C2587 1.387 . S
C2588 C2591 1.387 . S
H2589 C2585 0.950 . S
H2590 C2587 0.950 . S
C2591 C2582 1.390 . S
C2591 H2584 0.950 . S
C2591 C2588 1.387 . S
C2592 C2593 1.387 . S
C2592 H2596 0.950 . S
C2592 C2601 1.390 . S
C2593 C2592 1.387 . S
C2593 C2595 1.387 . S
H2594 C2601 0.950 . S
C2595 C2593 1.387 . S
C2595 C2597 1.390 . S
C2595 H2599 0.950 . S
H2596 C2592 0.950 . S
C2597 C2595 1.390 . S
C2597 C2598 1.387 . S
C2597 H2600 0.950 . S
C2598 C2597 1.387 . S
C2598 C2601 1.387 . S
H2599 C2595 0.950 . S
H2600 C2597 0.950 . S
C2601 C2592 1.390 . S
C2601 H2594 0.950 . S
C2601 C2598 1.387 . S
C2602 C2603 1.387 . S
C2602 H2606 0.950 . S
C2602 C2611 1.390 . S
C2603 C2602 1.387 . S
C2603 C2605 1.387 . S
H2604 C2611 0.950 . S
C2605 C2603 1.387 . S
C2605 C2607 1.390 . S
C2605 H2609 0.950 . S
H2606 C2602 0.950 . S
C2607 C2605 1.390 . S
C2607 C2608 1.387 . S
C2607 H2610 0.950 . S
C2608 C2607 1.387 . S
C2608 C2611 1.387 . S
H2609 C2605 0.950 . S
H2610 C2607 0.950 . S
C2611 C2602 1.390 . S
C2611 H2604 0.950 . S
C2611 C2608 1.387 . S
C2612 C2613 1.387 . S
C2612 H2616 0.950 . S
C2612 C2621 1.390 . S
C2613 C2612 1.387 . S
C2613 C2615 1.387 . S
H2614 C2621 0.950 . S
C2615 C2613 1.387 . S
C2615 C2617 1.390 . S
C2615 H2619 0.950 . S
H2616 C2612 0.950 . S
C2617 C2615 1.390 . S
C2617 C2618 1.387 . S
C2617 H2620 0.950 . S
C2618 C2617 1.387 . S
C2618 C2621 1.387 . S
H2619 C2615 0.950 . S
H2620 C2617 0.950 . S
C2621 C2612 1.390 . S
C2621 H2614 0.950 . S
C2621 C2618 1.387 . S
C2622 C2623 1.387 . S
C2622 H2626 0.950 . S
C2622 C2631 1.390 . S
C2623 C2622 1.387 . S
C2623 C2625 1.387 . S
H2624 C2631 0.950 . S
C2625 C2623 1.387 . S
C2625 C2627 1.390 . S
C2625 H2629 0.950 . S
H2626 C2622 0.950 . S
C2627 C2625 1.390 . S
C2627 C2628 1.387 . S
C2627 H2630 0.950 . S
C2628 C2627 1.387 . S
C2628 C2631 1.387 . S
H2629 C2625 0.950 . S
H2630 C2627 0.950 . S
C2631 C2622 1.390 . S
C2631 H2624 0.950 . S
C2631 C2628 1.387 . S
C2632 C2633 1.387 . S
C2632 H2636 0.950 . S
C2632 C2641 1.390 . S
C2633 C2632 1.387 . S
C2633 C2635 1.387 . S
H2634 C2641 0.950 . S
C2635 C2633 1.387 . S
C2635 C2637 1.390 . S
C2635 H2639 0.950 . S
H2636 C2632 0.950 . S
C2637 C2635 1.390 . S
C2637 C2638 1.387 . S
C2637 H2640 0.950 . S
C2638 C2637 1.387 . S
C2638 C2641 1.387 . S
H2639 C2635 0.950 . S
H2640 C2637 0.950 . S
C2641 C2632 1.390 . S
C2641 H2634 0.950 . S
C2641 C2638 1.387 . S
C2642 C2643 1.387 . S
C2642 H2646 0.950 . S
C2642 C2651 1.390 . S
C2643 C2642 1.387 . S
C2643 C2645 1.387 . S
H2644 C2651 0.950 . S
C2645 C2643 1.387 . S
C2645 C2647 1.390 . S
C2645 H2649 0.950 . S
H2646 C2642 0.950 . S
C2647 C2645 1.390 . S
C2647 C2648 1.387 . S
C2647 H2650 0.950 . S
C2648 C2647 1.387 . S
C2648 C2651 1.387 . S
H2649 C2645 0.950 . S
H2650 C2647 0.950 . S
C2651 C2642 1.390 . S
C2651 H2644 0.950 . S
C2651 C2648 1.387 . S
C2652 C2653 1.387 . S
C2652 H2656 0.950 . S
C2652 C2661 1.390 . S
C2653 C2652 1.387 . S
C2653 C2655 1.387 . S
H2654 C2661 0.950 . S
C2655 C2653 1.387 . S
C2655 C2657 1.390 . S
C2655 H2659 0.950 . S
H2656 C2652 0.950 . S
C2657 C2655 1.390 . S
C2657 C2658 1.387 . S
C2657 H2660 0.950 . S
C2658 C2657 1.387 . S
C2658 C2661 1.387 . S
H2659 C2655 0.950 . S
H2660 C2657 0.950 . S
C2661 C2652 1.390 . S
C2661 H2654 0.950 . S
C2661 C2658 1.387 . S
C2662 C2663 1.387 . S
C2662 H2666 0.950 . S
C2662 C2671 1.390 . S
C2663 C2662 1.387 . S
C2663 C2665 1.387 . S
H2664 C2671 0.950 . S
C2665 C2663 1.387 . S
C2665 C2667 1.390 . S
C2665 H2669 0.950 . S
H2666 C2662 0.950 . S
C2667 C2665 1.390 . S
C2667 C2668 1.387 . S
C2667 H2670 0.950 . S
C2668 C2667 1.387 . S
C2668 C2671 1.387 . S
H2669 C2665 0.950 . S
H2670 C2667 0.950 . S
C2671 C2662 1.390 . S
C2671 H2664 0.950 . S
C2671 C2668 1.387 . S
C2672 C2673 1.387 . S
C2672 H2676 0.950 . S
C2672 C2681 1.390 . S
C2673 C2672 1.387 . S
C2673 C2675 1.387 . S
H2674 C2681 0.950 . S
C2675 C2673 1.387 . S
C2675 C2677 1.390 . S
C2675 H2679 0.950 . S
H2676 C2672 0.950 . S
C2677 C2675 1.390 . S
C2677 C2678 1.387 . S
C2677 H2680 0.950 . S
C2678 C2677 1.387 . S
C2678 C2681 1.387 . S
H2679 C2675 0.950 . S
H2680 C2677 0.950 . S
C2681 C2672 1.390 . S
C2681 H2674 0.950 . S
C2681 C2678 1.387 . S
C2682 C2683 1.387 . S
C2682 H2686 0.950 . S
C2682 C2691 1.390 . S
C2683 C2682 1.387 . S
C2683 C2685 1.387 . S
H2684 C2691 0.950 . S
C2685 C2683 1.387 . S
C2685 C2687 1.390 . S
C2685 H2689 0.950 . S
H2686 C2682 0.950 . S
C2687 C2685 1.390 . S
C2687 C2688 1.387 . S
C2687 H2690 0.950 . S
C2688 C2687 1.387 . S
C2688 C2691 1.387 . S
H2689 C2685 0.950 . S
H2690 C2687 0.950 . S
C2691 C2682 1.390 . S
C2691 H2684 0.950 . S
C2691 C2688 1.387 . S
C2692 C2693 1.387 . S
C2692 H2696 0.950 . S
C2692 C2701 1.390 . S
C2693 C2692 1.387 . S
C2693 C2695 1.387 . S
H2694 C2701 0.950 . S
C2695 C2693 1.387 . S
C2695 C2697 1.390 . S
C2695 H2699 0.950 . S
H2696 C2692 0.950 . S
C2697 C2695 1.390 . S
C2697 C2698 1.387 . S
C2697 H2700 0.950 . S
C2698 C2697 1.387 . S
C2698 C2701 1.387 . S
H2699 C2695 0.950 . S
H2700 C2697 0.950 . S
C2701 C2692 1.390 . S
C2701 H2694 0.950 . S
C2701 C2698 1.387 . S
C2702 C2703 1.387 . S
C2702 H2706 0.950 . S
C2702 C2711 1.390 . S
C2703 C2702 1.387 . S
C2703 C2705 1.387 . S
H2704 C2711 0.950 . S
C2705 C2703 1.387 . S
C2705 C2707 1.390 . S
C2705 H2709 0.950 . S
H2706 C2702 0.950 . S
C2707 C2705 1.390 . S
C2707 C2708 1.387 . S
C2707 H2710 0.950 . S
C2708 C2707 1.387 . S
C2708 C2711 1.387 . S
H2709 C2705 0.950 . S
H2710 C2707 0.950 . S
C2711 C2702 1.390 . S
C2711 H2704 0.950 . S
C2711 C2708 1.387 . S
C2712 C2713 1.387 . S
C2712 H2716 0.950 . S
C2712 C2721 1.390 1_554 S
C2713 C2712 1.387 . S
C2713 C2715 1.387 . S
H2714 C2721 0.950 . S
C2715 C2713 1.387 . S
C2715 C2717 1.390 1_554 S
C2715 H2719 0.950 . S
H2716 C2712 0.950 . S
C2717 C2715 1.390 1_556 S
C2717 C2718 1.387 . S
C2717 H2720 0.950 . S
C2718 C2717 1.387 . S
C2718 C2721 1.387 . S
H2719 C2715 0.950 . S
H2720 C2717 0.950 . S
C2721 C2712 1.390 1_556 S
C2721 H2714 0.950 . S
C2721 C2718 1.387 . S
C2722 C2723 1.387 . S
C2722 H2726 0.950 . S
C2722 C2731 1.390 1_556 S
C2723 C2722 1.387 . S
C2723 C2725 1.387 . S
H2724 C2731 0.950 . S
C2725 C2723 1.387 . S
C2725 C2727 1.390 1_556 S
C2725 H2729 0.950 . S
H2726 C2722 0.950 . S
C2727 C2725 1.390 1_554 S
C2727 C2728 1.387 . S
C2727 H2730 0.950 . S
C2728 C2727 1.387 . S
C2728 C2731 1.387 . S
H2729 C2725 0.950 . S
H2730 C2727 0.950 . S
C2731 C2722 1.390 1_554 S
C2731 H2724 0.950 . S
C2731 C2728 1.387 . S
C2732 C2733 1.387 . S
C2732 H2736 0.950 . S
C2732 C2741 1.390 1_554 S
C2733 C2732 1.387 . S
C2733 C2735 1.387 . S
H2734 C2741 0.950 . S
C2735 C2733 1.387 . S
C2735 C2737 1.390 1_554 S
C2735 H2739 0.950 . S
H2736 C2732 0.950 . S
C2737 C2735 1.390 1_556 S
C2737 C2738 1.387 . S
C2737 H2740 0.950 . S
C2738 C2737 1.387 . S
C2738 C2741 1.387 . S
H2739 C2735 0.950 . S
H2740 C2737 0.950 . S
C2741 C2732 1.390 1_556 S
C2741 H2734 0.950 . S
C2741 C2738 1.387 . S
C2742 C2743 1.387 1_554 S
C2742 H2746 0.950 1_554 S
C2742 C2751 1.390 . S
C2743 C2742 1.387 1_556 S
C2743 C2745 1.387 . S
H2744 C2751 0.950 . S
C2745 C2743 1.387 . S
C2745 C2747 1.390 1_556 S
C2745 H2749 0.950 . S
H2746 C2742 0.950 1_556 S
C2747 C2745 1.390 1_554 S
C2747 C2748 1.387 . S
C2747 H2750 0.950 . S
C2748 C2747 1.387 . S
C2748 C2751 1.387 . S
H2749 C2745 0.950 . S
H2750 C2747 0.950 . S
C2751 C2742 1.390 . S
C2751 H2744 0.950 . S
C2751 C2748 1.387 . S
C2752 C2753 1.387 . S
C2752 H2756 0.950 . S
C2752 C2761 1.390 . S
C2753 C2752 1.387 . S
C2753 C2755 1.387 . S
H2754 C2761 0.950 1_455 S
C2755 C2753 1.387 . S
C2755 C2757 1.390 . S
C2755 H2759 0.950 . S
H2756 C2752 0.950 . S
C2757 C2755 1.390 . S
C2757 C2758 1.387 1_655 S
C2757 H2760 0.950 1_655 S
C2758 C2757 1.387 1_455 S
C2758 C2761 1.387 1_455 S
H2759 C2755 0.950 . S
H2760 C2757 0.950 1_455 S
C2761 C2752 1.390 . S
C2761 H2754 0.950 1_655 S
C2761 C2758 1.387 1_655 S
C2762 C2763 1.387 . S
C2762 H2766 0.950 . S
C2762 C2771 1.390 1_545 S
C2763 C2762 1.387 . S
C2763 C2765 1.387 . S
H2764 C2771 0.950 . S
C2765 C2763 1.387 . S
C2765 C2767 1.390 1_545 S
C2765 H2769 0.950 . S
H2766 C2762 0.950 . S
C2767 C2765 1.390 1_565 S
C2767 C2768 1.387 . S
C2767 H2770 0.950 . S
C2768 C2767 1.387 . S
C2768 C2771 1.387 . S
H2769 C2765 0.950 . S
H2770 C2767 0.950 . S
C2771 C2762 1.390 1_565 S
C2771 H2764 0.950 . S
C2771 C2768 1.387 . S
C2772 C2773 1.387 . S
C2772 H2776 0.950 . S
C2772 C2781 1.390 1_455 S
C2773 C2772 1.387 . S
C2773 C2775 1.387 . S
H2774 C2781 0.950 . S
C2775 C2773 1.387 . S
C2775 C2777 1.390 1_455 S
C2775 H2779 0.950 . S
H2776 C2772 0.950 . S
C2777 C2775 1.390 1_655 S
C2777 C2778 1.387 . S
C2777 H2780 0.950 . S
C2778 C2777 1.387 . S
C2778 C2781 1.387 . S
H2779 C2775 0.950 . S
H2780 C2777 0.950 . S
C2781 C2772 1.390 1_655 S
C2781 H2774 0.950 . S
C2781 C2778 1.387 . S
C2782 C2783 1.387 . S
C2782 H2786 0.950 . S
C2782 C2791 1.390 1_565 S
C2783 C2782 1.387 . S
C2783 C2785 1.387 . S
H2784 C2791 0.950 . S
C2785 C2783 1.387 . S
C2785 C2787 1.390 1_565 S
C2785 H2789 0.950 . S
H2786 C2782 0.950 . S
C2787 C2785 1.390 1_545 S
C2787 C2788 1.387 . S
C2787 H2790 0.950 . S
C2788 C2787 1.387 . S
C2788 C2791 1.387 . S
H2789 C2785 0.950 . S
H2790 C2787 0.950 . S
C2791 C2782 1.390 1_545 S
C2791 H2784 0.950 . S
C2791 C2788 1.387 . S
C2792 C2793 1.387 . S
C2792 H2796 0.950 . S
C2792 C2801 1.390 1_455 S
C2793 C2792 1.387 . S
C2793 C2795 1.387 . S
H2794 C2801 0.950 . S
C2795 C2793 1.387 . S
C2795 C2797 1.390 1_455 S
C2795 H2799 0.950 . S
H2796 C2792 0.950 . S
C2797 C2795 1.390 1_655 S
C2797 C2798 1.387 . S
C2797 H2800 0.950 . S
C2798 C2797 1.387 . S
C2798 C2801 1.387 . S
H2799 C2795 0.950 . S
H2800 C2797 0.950 . S
C2801 C2792 1.390 1_655 S
C2801 H2794 0.950 . S
C2801 C2798 1.387 . S
C2802 C2803 1.387 . S
C2802 H2806 0.950 . S
C2802 C2811 1.390 1_545 S
C2803 C2802 1.387 . S
C2803 C2805 1.387 . S
H2804 C2811 0.950 . S
C2805 C2803 1.387 . S
C2805 C2807 1.390 1_545 S
C2805 H2809 0.950 . S
H2806 C2802 0.950 . S
C2807 C2805 1.390 1_565 S
C2807 C2808 1.387 . S
C2807 H2810 0.950 . S
C2808 C2807 1.387 . S
C2808 C2811 1.387 . S
H2809 C2805 0.950 . S
H2810 C2807 0.950 . S
C2811 C2802 1.390 1_565 S
C2811 H2804 0.950 . S
C2811 C2808 1.387 . S
C2812 C2813 1.387 . S
C2812 H2816 0.950 . S
C2812 C2821 1.390 1_655 S
C2813 C2812 1.387 . S
C2813 C2815 1.387 . S
H2814 C2821 0.950 . S
C2815 C2813 1.387 . S
C2815 C2817 1.390 1_655 S
C2815 H2819 0.950 . S
H2816 C2812 0.950 . S
C2817 C2815 1.390 1_455 S
C2817 C2818 1.387 . S
C2817 H2820 0.950 . S
C2818 C2817 1.387 . S
C2818 C2821 1.387 . S
H2819 C2815 0.950 . S
H2820 C2817 0.950 . S
C2821 C2812 1.390 1_455 S
C2821 H2814 0.950 . S
C2821 C2818 1.387 . S
C2822 C2823 1.387 . S
C2822 H2826 0.950 . S
C2822 C2831 1.390 1_565 S
C2823 C2822 1.387 . S
C2823 C2825 1.387 . S
H2824 C2831 0.950 . S
C2825 C2823 1.387 . S
C2825 C2827 1.390 1_565 S
C2825 H2829 0.950 . S
H2826 C2822 0.950 . S
C2827 C2825 1.390 1_545 S
C2827 C2828 1.387 . S
C2827 H2830 0.950 . S
C2828 C2827 1.387 . S
C2828 C2831 1.387 . S
H2829 C2825 0.950 . S
H2830 C2827 0.950 . S
C2831 C2822 1.390 1_545 S
C2831 H2824 0.950 . S
C2831 C2828 1.387 . S
C1633 C1505 0.721 . S
C1638 C20 0.713 . S
C1643 C1396 1.690 . S
C1648 C43 1.567 . S
C1653 C1448 1.986 . S
C1658 C70 2.002 . S
C1663 C107 1.783 . S
C1668 C1464 1.763 . S
C1673 C156 1.213 . S
C1678 C1603 1.219 . S
C1683 C175 1.572 . S
C1688 C1550 1.550 . S
C1693 C206 2.287 . S
C1698 C1566 2.292 . S
C1703 C1380 1.191 . S
C1708 C247 1.132 . S
C1713 C1335 0.899 . S
C1718 C281 0.899 . S
C1723 C1229 1.186 . S
C1728 C311 1.178 . S
C1733 C342 2.174 . S
C1738 C1267 2.032 . S
C1743 C1312 1.997 . S
C1748 C379 2.034 . S
C1753 C413 1.186 . S
C1758 C1127 1.177 . S
C1763 C451 2.032 . S
C1768 C1158 2.174 . S
C1773 C1195 2.034 . S
C1778 C496 1.997 . S
C1783 C1097 0.896 . S
C1788 C519 0.902 . S
C1793 C564 1.188 . S
C1798 C1063 1.129 . S
C1803 C859 1.567 . S
C1808 C580 1.690 . S
C1813 C886 2.002 . S
C1818 C632 1.985 . S
C1823 C923 1.783 . S
C1828 C648 1.763 . S
C1833 C689 0.713 . S
C1838 C836 0.713 . S
C1843 C734 1.550 . S
C1848 C991 1.573 . S
C1853 C1022 2.287 . S
C1858 C750 2.292 . S
C1863 C787 1.219 . S
C1868 C972 1.213 . S
C1873 C1108 1.640 . S
C1878 C258 1.651 . S
C1883 C1124 1.824 . S
C1888 C141 1.848 . S
C1893 C172 1.026 . S
C1898 C1165 1.016 . S
C1903 C1192 1.585 . S
C1908 C213 1.525 . S
C1913 C1226 2.021 . S
C1918 C54 2.000 . S
C1923 C1278 1.314 . S
C1928 C77 1.278 . S
C1933 C1297 1.435 . S
C1938 C104 1.441 . S
C1943 C5 1.489 . S
C1948 C1346 1.428 . S
C1953 C700 1.880 . S
C1958 C1365 1.961 . S
C1963 C587 1.938 . S
C1968 C1600 2.051 . S
C1973 C1535 1.312 . S
C1978 C617 1.313 . S
C1983 C1573 0.929 . S
C1988 C655 0.938 . S
C1993 C784 2.051 . S
C1998 C1403 1.938 . S
C2003 C719 1.311 . S
C2008 C1433 1.313 . S
C2013 C1471 0.935 . S
C2018 C757 0.933 . S
C2023 C1516 1.878 . S
C2028 C549 1.960 . S
C2033 C821 1.489 . S
C2038 C530 1.428 . S
C2043 C308 1.824 . S
C2048 C957 1.848 . S
C2053 C349 1.012 . S
C2058 C988 1.028 . S
C2063 C376 1.583 . S
C2068 C1029 1.527 . S
C2073 C1074 1.650 . S
C2078 C292 1.642 . S
C2083 C893 1.279 . S
C2088 C462 1.316 . S
C2093 C481 1.436 . S
C2098 C920 1.441 . S
C2103 C870 2.000 . S
C2108 C410 2.022 . S
C2113 C2 1.126 . S
C2118 C122 1.138 . S
C2123 C39 1.434 . S
C2128 C9 1.312 . S
C2133 C36 1.921 . S
C2138 C88 1.929 . S
C2143 C73 1.360 . S
C2148 C111 1.293 . S
C2153 C138 1.216 . S
C2158 C190 1.222 . S
C2163 C209 1.420 . S
C2168 C179 1.371 . S
C2173 C240 1.876 . S
C2178 C224 1.858 . S
C2183 C243 1.381 . S
C2188 C145 1.299 . S
C2193 C277 0.903 . S
C2198 C621 0.887 . S
C2203 C315 0.948 . S
C2208 C651 1.002 . S
C2213 C682 2.297 . S
C2218 C360 2.273 . S
C2223 C383 1.605 . S
C2228 C583 1.684 . S
C2233 C417 0.895 . S
C2238 C753 0.918 . S
C2243 C447 1.692 . S
C2248 C553 1.576 . S
C2253 C478 2.250 . S
C2258 C802 2.250 . S
C2263 C723 0.958 . S
C2268 C515 1.001 . S
C2273 C326 1.491 . S
C2278 C546 1.473 . S
C2283 C598 1.526 . S
C2288 C512 1.533 . S
C2293 C614 2.023 . S
C2298 C428 2.024 . S
C2303 C444 1.578 . S
C2308 C666 1.613 . S
C2313 C685 0.820 . S
C2318 C485 0.814 . S
C2323 C716 1.572 . S
C2328 C394 1.585 . S
C2333 C768 2.167 . S
C2338 C274 2.147 . S
C2343 C345 0.878 . S
C2348 C791 0.869 . S
C2353 C818 1.128 . S
C2358 C938 1.139 . S
C2363 C855 1.437 . S
C2368 C825 1.317 . S
C2373 C852 1.921 . S
C2378 C904 1.929 . S
C2383 C889 1.360 . S
C2388 C927 1.292 . S
C2393 C954 1.216 . S
C2398 C1006 1.221 . S
C2403 C995 1.371 . S
C2408 C1025 1.418 . S
C2413 C1040 1.858 . S
C2418 C1056 1.876 . S
C2423 C961 1.299 . S
C2428 C1059 1.381 . S
C2433 C1437 0.888 . S
C2438 C1093 0.903 . S
C2443 C1467 1.000 . S
C2448 C1131 0.945 . S
C2453 C1176 2.272 . S
C2458 C1498 2.297 . S
C2463 C1399 1.684 . S
C2468 C1199 1.605 . S
C2473 C1233 0.891 . S
C2478 C1569 0.916 . S
C2483 C1369 1.580 . S
C2488 C1263 1.694 . S
C2493 C1618 2.250 . S
C2498 C1294 2.251 . S
C2503 C1331 1.001 . S
C2508 C1539 0.955 . S
C2513 C1142 1.490 . S
C2518 C1362 1.475 . S
C2523 C1414 1.525 . S
C2528 C1328 1.534 . S
C2533 C1430 2.023 . S
C2538 C1244 2.024 . S
C2543 C1482 1.614 . S
C2548 C1260 1.581 . S
C2553 C1501 0.820 . S
C2558 C1301 0.808 . S
C2563 C1532 1.574 . S
C2568 C1210 1.584 . S
C2573 C1090 2.147 . S
C2578 C1584 2.167 . S
C2583 C1161 0.878 . S
C2588 C1607 0.869 . S
C2593 C33 1.628 . S
C2598 C203 1.628 . S
C2603 C237 2.012 . S
C2608 C67 2.015 . S
C2613 C271 1.950 . S
C2618 C101 1.946 . S
C2623 C169 1.707 . S
C2628 C135 1.703 . S
C2633 C815 1.662 . S
C2638 C305 1.673 . S
C2643 C339 1.424 . S
C2648 C747 1.425 . S
C2653 C781 1.686 . S
C2658 C373 1.687 . S
C2663 C407 1.599 . S
C2668 C577 1.600 . S
C2673 C713 1.683 . S
C2678 C441 1.678 . S
C2683 C475 1.739 . S
C2688 C611 1.740 . S
C2693 C645 1.724 . S
C2698 C509 1.712 . S
C2703 C679 1.560 . S
C2708 C543 1.557 . S
C2713 C1019 1.627 . S
C2718 C849 1.628 . S
C2723 C883 2.015 . S
C2728 C1053 2.012 . S
C2733 C1087 1.950 . S
C2738 C917 1.946 . S
C2743 C951 1.702 . S
C2748 C985 1.708 . S
C2753 C1121 1.673 . S
C2758 C1631 1.660 . S
C2763 C1563 1.423 . S
C2768 C1155 1.424 . S
C2773 C1189 1.687 . S
C2778 C1597 1.686 . S
C2783 C1393 1.601 . S
C2788 C1223 1.600 . S
C2793 C1529 1.683 . S
C2798 C1257 1.677 . S
C2803 C1427 1.740 . S
C2808 C1291 1.739 . S
C2813 C1461 1.725 . S
C2818 C1325 1.714 . S
C2823 C1495 1.560 . S
C2828 C1359 1.557 . S
