# Generated by pormake.
# Topology xfa, (7)-cn, num edge types: 1
# Building blocks:
#     Node 0, Type 0, BuildingBlock: HICVOG_clean_sbu_0, # of connection points: 7
#     Node 1, Type 0, BuildingBlock: HICVOG_clean_sbu_0, # of connection points: 7
#     Node 2, Type 0, BuildingBlock: HICVOG_clean_sbu_0, # of connection points: 7
#     Node 3, Type 0, BuildingBlock: HICVOG_clean_sbu_0, # of connection points: 7
#     Node 4, Type 0, BuildingBlock: HICVOG_clean_sbu_0, # of connection points: 7
#     Node 5, Type 0, BuildingBlock: HICVOG_clean_sbu_0, # of connection points: 7
#     Node 6, Type 0, BuildingBlock: HICVOG_clean_sbu_0, # of connection points: 7
#     Node 7, Type 0, BuildingBlock: HICVOG_clean_sbu_0, # of connection points: 7
#     Edge 8, Type (0, 0), None
#     Edge 9, Type (0, 0), None
#     Edge 10, Type (0, 0), None
#     Edge 11, Type (0, 0), None
#     Edge 12, Type (0, 0), None
#     Edge 13, Type (0, 0), None
#     Edge 14, Type (0, 0), None
#     Edge 15, Type (0, 0), None
#     Edge 16, Type (0, 0), None
#     Edge 17, Type (0, 0), None
#     Edge 18, Type (0, 0), None
#     Edge 19, Type (0, 0), None
#     Edge 20, Type (0, 0), None
#     Edge 21, Type (0, 0), None
#     Edge 22, Type (0, 0), None
#     Edge 23, Type (0, 0), None
#     Edge 24, Type (0, 0), None
#     Edge 25, Type (0, 0), None
#     Edge 26, Type (0, 0), None
#     Edge 27, Type (0, 0), None
#     Edge 28, Type (0, 0), None
#     Edge 29, Type (0, 0), None
#     Edge 30, Type (0, 0), None
#     Edge 31, Type (0, 0), None
#     Edge 32, Type (0, 0), None
#     Edge 33, Type (0, 0), None
#     Edge 34, Type (0, 0), None
#     Edge 35, Type (0, 0), None
# Relax obj value: 0.217
# Max RMSD: 0.238
# Mean RMSD: 0.231
data_MOF--net-xfa--node1-HICVOG_clean_sbu_0--edge1-none
_symmetry_space_group_name_H-M    P1
_symmetry_Int_Tables_number       1
_symmetry_cell_setting            triclinic
loop_
_symmetry_equiv_pos_as_xyz
'x, y, z'
_cell_length_a     25.010089
_cell_length_b     24.765112
_cell_length_c     7.3128564
_cell_angle_alpha  90.50002
_cell_angle_beta   89.485297
_cell_angle_gamma 89.585632
loop_
_atom_site_label
_atom_site_type_symbol
_atom_site_fract_x
_atom_site_fract_y
_atom_site_fract_z
_atom_type_partial_charge
Zn0 Zn 0.0998 0.30319 0.54397 0.0
C1 C 0.16569 0.1824 0.25983 0.0
N2 N 0.19489 0.16578 0.41028 0.0
C3 C 0.17469 0.19523 0.56027 0.0
N4 N 0.13621 0.2302 0.49515 0.0
N5 N 0.12722 0.21643 0.32318 0.0
C6 C 0.05018 0.24863 1.0083 0.0
O7 O 0.07047 0.2797 1.13453 0.0
O8 O 0.08413 0.30599 0.79502 0.0
Zn9 Zn 0.05308 0.19534 0.29681 0.0
N10 N 0.14728 0.36217 0.4814 0.0
C11 C 0.20272 0.39696 0.24558 0.0
C12 C 0.17052 0.35631 0.31377 0.0
C13 C 0.15484 0.40781 0.58541 0.0
N14 N 0.21117 0.44157 0.34933 0.0
C15 C 0.18811 0.44886 0.51729 0.0
O16 O 0.99197 0.2416 0.38404 0.0
C17 C 0.9863 0.29223 0.3813 0.0
O18 O 0.02628 0.32236 0.41597 0.0
H19 H 0.16371 0.32031 0.23309 0.0
H20 H 0.13639 0.41143 0.71942 0.0
C21 C 0.00108 0.09635 0.3385 0.0
C22 C 0.97174 0.06056 0.44725 0.0
C23 C 0.01565 0.09364 0.71069 0.0
C24 C 0.04609 0.12754 0.60116 0.0
N25 N 0.03699 0.12944 0.41833 0.0
N26 N 0.97928 0.06082 0.63137 0.0
H27 H 0.99296 0.10088 0.19437 0.0
C28 C 0.05179 0.26846 0.82892 0.0
O29 O 0.03087 0.24018 0.69769 0.0
O30 O 0.03982 0.1993 1.03932 0.0
H31 H 0.07498 0.15375 0.66325 0.0
H32 H 0.22151 0.39291 1.11226 0.0
H33 H 0.02124 0.09295 0.85711 0.0
Zn34 Zn 0.3015 0.56439 0.54315 0.0
C35 C 0.29907 0.69021 0.82152 0.0
N36 N 0.32496 0.71225 0.67002 0.0
C37 C 0.31021 0.68084 0.52006 0.0
N38 N 0.28056 0.63969 0.58423 0.0
N39 N 0.26776 0.64825 0.75764 0.0
C40 C 0.22419 0.56018 1.08688 0.0
O41 O 0.24677 0.53072 0.95948 0.0
O42 O 0.29608 0.55175 0.28546 0.0
Zn43 Zn 0.19628 0.61035 0.79714 0.0
N44 N 0.36475 0.54378 0.66735 0.0
C45 C 0.38933 0.51215 0.96149 0.0
C46 C 0.35924 0.54632 0.8521 0.0
C47 C 0.40073 0.50983 0.58673 0.0
N48 N 0.42565 0.4785 0.88166 0.0
C49 C 0.43285 0.47684 0.697 0.0
O50 O 0.1765 0.53548 0.66881 0.0
C51 C 0.20687 0.49569 0.62557 0.0
O52 O 0.25675 0.50225 0.62045 0.0
H53 H 0.33095 0.57403 0.91381 0.0
H54 H 0.40175 0.50635 0.43925 0.0
C55 C 0.09282 0.66318 0.82307 0.0
C56 C 0.05132 0.69468 0.75138 0.0
C57 C 0.10412 0.71113 0.48592 0.0
C58 C 0.14557 0.68094 0.55865 0.0
N59 N 0.13917 0.65741 0.72453 0.0
N60 N 0.05855 0.71786 0.58484 0.0
H61 H 0.08898 0.64472 0.95611 0.0
C62 C 0.24656 0.56144 0.26223 0.0
O63 O 0.21724 0.58338 0.3917 0.0
O64 O 0.19124 0.59709 1.04872 0.0
H65 H 0.18244 0.67595 0.48257 0.0
H66 H 0.38473 0.51309 1.10848 0.0
H67 H 0.10835 0.72994 0.35365 0.0
Zn68 Zn 0.8916 0.70053 1.02244 0.0
C69 C 0.82475 0.8179 0.74543 0.0
N70 N 0.79386 0.83339 0.89664 0.0
C71 C 0.81523 0.80602 1.04566 0.0
N72 N 0.85577 0.77312 0.97913 0.0
N73 N 0.86487 0.78662 0.80734 0.0
C74 C 0.94207 0.75336 0.48483 0.0
O75 O 0.92218 0.72261 0.61211 0.0
O76 O 0.90645 0.69656 0.27243 0.0
Zn77 Zn 0.93868 0.80892 0.77137 0.0
N78 N 0.84461 0.64216 0.95763 0.0
C79 C 0.78879 0.60587 0.72724 0.0
C80 C 0.82145 0.64681 0.79122 0.0
C81 C 0.83687 0.59762 1.06393 0.0
N82 N 0.78002 0.56236 0.8339 0.0
C83 C 0.80332 0.5564 1.00022 0.0
O84 O -0.00151 0.76356 0.86046 0.0
C85 C 0.00486 0.71304 0.85935 0.0
O86 O 0.96549 0.68211 0.89388 0.0
H87 H 0.82844 0.68211 0.70885 0.0
H88 H 0.8553 0.59512 0.19695 0.0
C89 C 0.99376 0.90757 0.79727 0.0
C90 C 0.02682 0.94128 0.90186 0.0
C91 C 0.98539 0.90924 0.17258 0.0
C92 C 0.95154 0.87739 1.0679 0.0
N93 N 0.95732 0.87604 0.88321 0.0
N94 N 0.02189 0.94067 1.08741 0.0
H95 H -0.00015 0.90289 0.6514 0.0
C96 C 0.93909 0.73389 0.30486 0.0
O97 O 0.95801 0.76329 0.1735 0.0
O98 O 0.95197 0.80284 0.51548 0.0
H99 H 0.92225 0.85236 1.1341 0.0
H100 H 0.76986 0.60889 0.59522 0.0
H101 H 0.98222 0.90956 0.32008 0.0
Zn102 Zn 0.79587 0.39746 0.28184 0.0
C103 C 0.6798 0.32891 1.00317 0.0
N104 N 0.66447 0.29825 0.15293 0.0
C105 C 0.69162 0.31951 0.30295 0.0
N106 N 0.72457 0.35979 0.23806 0.0
N107 N 0.71106 0.36895 1.06678 0.0
C108 C 0.74298 0.44777 0.75006 0.0
O109 O 0.77263 0.42486 0.8736 0.0
O110 O 0.79838 0.4132 0.53136 0.0
Zn111 Zn 0.68913 0.44425 1.03646 0.0
N112 N 0.85522 0.35009 0.22121 0.0
C113 C 0.89562 0.29653 0.98672 0.0
C114 C 0.85303 0.32763 1.05143 0.0
C115 C 0.89878 0.34287 0.33076 0.0
N116 N 0.93827 0.2884 1.09608 0.0
C117 C 0.94172 0.31084 0.26622 0.0
O118 O 0.7347 0.5055 1.1174 0.0
C119 C 0.78476 0.51102 1.11317 0.0
O120 O 0.81497 0.47088 0.14998 0.0
H121 H 0.81853 0.33426 0.9665 0.0
H122 H 0.89944 0.36081 0.4662 0.0
C123 C 0.58765 0.4961 1.08626 0.0
C124 C 0.55304 0.52697 0.19905 0.0
C125 C 0.59639 0.49265 0.46092 0.0
C126 C 0.62871 0.46024 0.34888 0.0
N127 N 0.62475 0.46363 0.1643 0.0
N128 N 0.55916 0.52498 0.38366 0.0
H129 H 0.58739 0.50002 0.93916 0.0
C130 C 0.76478 0.44947 0.57304 0.0
O131 O 0.74124 0.47803 0.44864 0.0
O132 O 0.69369 0.45788 0.77967 0.0
H133 H 0.65759 0.43338 0.40854 0.0
H134 H 0.89464 0.27835 0.85172 0.0
H135 H 0.59994 0.49123 0.60791 0.0
Zn136 Zn 0.60548 0.20045 0.50469 0.0
C137 C 0.66987 0.31786 0.80293 0.0
N138 N 0.69912 0.33576 0.65263 0.0
C139 C 0.67989 0.30723 0.50177 0.0
N140 N 0.64209 0.27142 0.56606 0.0
N141 N 0.63227 0.28373 0.73952 0.0
C142 C 0.55279 0.25285 1.0458 0.0
O143 O 0.5644 0.21967 0.91079 0.0
O144 O 0.59834 0.19909 0.24775 0.0
Zn145 Zn 0.55774 0.30672 0.76621 0.0
N146 N 0.646 0.13903 0.58524 0.0
C147 C 0.68275 0.09343 0.83973 0.0
C148 C 0.66015 0.13938 0.76417 0.0
C149 C 0.65443 0.09464 0.47635 0.0
N150 N 0.69173 0.0496 0.73147 0.0
C151 C 0.67807 0.04848 0.55175 0.0
O152 O 0.49687 0.2615 0.68225 0.0
C153 C 0.48736 0.21375 0.63111 0.0
O154 O 0.52553 0.1827 0.57956 0.0
H155 H 0.65329 0.17486 0.84805 0.0
H156 H 0.64359 0.09564 0.33345 0.0
C157 C 0.50423 0.40621 0.72688 0.0
C158 C 0.47291 0.43989 0.61653 0.0
C159 C 0.51611 0.40389 0.35278 0.0
C160 C 0.54955 0.37355 0.46361 0.0
N161 N 0.54126 0.37321 0.6473 0.0
N162 N 0.47893 0.43678 0.43167 0.0
H163 H 0.49687 0.4032 0.87238 0.0
C164 C 0.5628 0.23485 0.22324 0.0
O165 O 0.54374 0.26325 0.35947 0.0
O166 O 0.54487 0.30298 1.01965 0.0
H167 H 0.58053 0.34899 0.40228 0.0
H168 H 0.69395 0.09278 0.98227 0.0
H169 H 0.52067 0.40255 0.20571 0.0
Zn170 Zn 0.20341 0.05721 0.97803 0.0
C171 C 0.18756 0.18488 0.7589 0.0
N172 N 0.15756 0.20142 0.91121 0.0
C173 C 0.17698 0.17207 1.05875 0.0
N174 N 0.21455 0.13712 0.99149 0.0
N175 N 0.22635 0.15015 0.82045 0.0
C176 C 0.25502 0.02311 0.46913 0.0
O177 O 0.24099 0.97547 0.52959 0.0
O178 O 0.19776 0.0279 0.22042 0.0
Zn179 Zn 0.29383 0.11397 0.74014 0.0
N180 N 0.14167 0.03567 0.83952 0.0
C181 C 0.10486 0.01463 0.54887 0.0
C182 C 0.14051 0.04379 0.65639 0.0
C183 C 0.10571 0.00283 0.92183 0.0
N184 N 0.06938 0.9812 0.63072 0.0
C185 C 0.0679 0.97539 0.81562 0.0
O186 O 0.33106 0.06443 0.92503 0.0
C187 C 0.31335 0.01612 0.927 0.0
O188 O 0.2649 0.00839 0.88554 0.0
H189 H 0.16772 0.07176 0.59422 0.0
H190 H 0.10795 0.99675 1.06772 0.0
C191 C 0.39903 0.16406 0.66381 0.0
C192 C 0.43171 0.20303 0.57935 0.0
C193 C 0.35599 0.238 0.42602 0.0
C194 C 0.32379 0.20027 0.51158 0.0
N195 N 0.34534 0.16373 0.62764 0.0
N196 N 0.40881 0.2389 0.46354 0.0
H197 H 0.4155 0.13606 0.76154 0.0
C198 C 0.24147 0.04099 0.29221 0.0
O199 O 0.27048 0.0794 0.22097 0.0
O200 O 0.27043 0.05933 0.57614 0.0
H201 H 0.28177 0.20083 0.48757 0.0
H202 H 0.10424 0.01969 0.40231 0.0
H203 H 0.33895 0.2673 0.33398 0.0
Zn204 Zn 0.3925 0.80935 1.03892 0.0
C205 C 0.31936 0.69243 0.32019 0.0
N206 N 0.29082 0.67446 0.16971 0.0
C207 C 0.31039 0.7034 1.02054 0.0
N208 N 0.34754 0.74017 1.08702 0.0
N209 N 0.3571 0.72625 0.25815 0.0
C210 C 0.43883 0.74716 0.57367 0.0
O211 O 0.4232 0.78001 0.44655 0.0
O212 O 0.4074 0.80782 0.78662 0.0
Zn213 Zn 0.42903 0.69515 0.28387 0.0
N214 N 0.36057 0.88091 1.10464 0.0
C215 C 0.37025 0.94993 0.33202 0.0
C216 C 0.37288 0.89591 0.27859 0.0
C217 C 0.34263 0.91882 0.98346 0.0
N218 N 0.35393 0.98755 0.21107 0.0
C219 C 0.33922 0.97393 1.03864 0.0
O220 O 0.49419 0.73357 0.2064 0.0
C221 C 0.50571 0.78285 0.19769 0.0
O222 O 0.46977 0.81743 0.15672 0.0
H223 H 0.38808 0.86673 0.37289 0.0
H224 H 0.33355 0.90695 0.84438 0.0
C225 C 0.47847 0.59462 0.23457 0.0
C226 C 0.51188 0.56261 1.12143 0.0
C227 C 0.47144 0.60069 0.86052 0.0
C228 C 0.43705 0.63068 0.9734 0.0
N229 N 0.44238 0.62847 0.15769 0.0
N230 N 0.5078 0.56718 0.93685 0.0
H231 H 0.48429 0.59653 0.38078 0.0
C232 C 0.43774 0.76793 0.75307 0.0
O233 O 0.45794 0.73959 0.88436 0.0
O234 O 0.44262 0.69667 0.5427 0.0
H235 H 0.40826 0.65764 0.91382 0.0
H236 H 0.38152 0.96201 0.46882 0.0
H237 H 0.46887 0.60347 0.71356 0.0
Zn238 Zn 0.69459 0.88975 0.27 0.0
C239 C 0.81397 0.82767 0.54562 0.0
N240 N 0.83184 0.79808 0.39399 0.0
C241 C 0.80312 0.8176 0.24516 0.0
N242 N 0.76737 0.85574 0.3122 0.0
N243 N 0.77976 0.86546 0.48434 0.0
C244 C 0.74444 0.94193 0.80506 0.0
O245 O 0.71516 0.91908 0.67983 0.0
O246 O 0.69065 0.90475 1.02094 0.0
Zn247 Zn 0.79817 0.94084 0.51681 0.0
N248 N 0.63939 0.83945 0.33246 0.0
C249 C 0.61038 0.77487 0.54869 0.0
C250 C 0.6485 0.81092 0.48699 0.0
C251 C 0.59289 0.83426 0.23692 0.0
N252 N 0.56492 0.76857 0.45209 0.0
C253 C 0.55455 0.79726 0.29797 0.0
O254 O 0.75012 1.00076 0.43845 0.0
C255 C 0.69978 0.00394 0.43941 0.0
O256 O 0.67203 0.96226 0.40295 0.0
H257 H 0.68507 0.8164 0.56215 0.0
H258 H 0.58662 0.85747 1.11415 0.0
C259 C 0.89783 0.99341 0.47457 0.0
C260 C 0.93228 0.02426 0.36544 0.0
C261 C 0.89279 0.98752 1.09913 0.0
C262 C 0.86106 0.95467 0.20789 0.0
N263 N 0.86263 0.95985 0.39278 0.0
N264 N 0.92797 0.02119 0.1802 0.0
H265 H 0.89641 0.9984 0.62156 0.0
C266 C 0.7238 0.94121 0.98373 0.0
O267 O 0.74809 0.96781 1.11197 0.0
O268 O 0.79306 0.95397 0.77426 0.0
H269 H 0.83395 0.92675 0.14495 0.0
H270 H 0.61693 0.75166 0.67122 0.0
H271 H 0.89066 0.98517 0.95177 0.0
loop_
_geom_bond_atom_site_label_1
_geom_bond_atom_site_label_2
_geom_bond_distance
_geom_bond_site_symmetry_2
_ccdc_geom_bond_type
Zn0 N4 2.020 . S
Zn0 O8 2.019 . S
Zn0 N10 2.119 . S
Zn0 O18 1.975 . S
C1 N2 1.334 . S
C1 N5 1.336 . S
N2 C1 1.334 . S
N2 C3 1.334 . S
C3 N2 1.334 . S
C3 N4 1.336 . S
N4 Zn0 2.020 . S
N4 C3 1.336 . S
N4 N5 1.354 . S
N5 C1 1.336 . S
N5 N4 1.354 . S
N5 Zn9 2.020 . S
C6 O7 1.244 . S
C6 O30 1.257 . S
O7 C6 1.244 . S
O8 Zn0 2.019 . S
O8 C28 1.257 . S
Zn9 N5 2.020 . S
Zn9 O16 1.975 . S
Zn9 N25 2.130 . S
Zn9 O30 2.019 1_554 S
N10 Zn0 2.119 . S
N10 C12 1.334 . S
N10 C13 1.328 . S
C11 C12 1.391 . S
C11 N14 1.329 . S
C11 H32 0.930 . S
C12 N10 1.334 . S
C12 C11 1.391 . S
C12 H19 0.930 . S
C13 N10 1.328 . S
C13 C15 1.392 . S
C13 H20 0.930 . S
N14 C11 1.329 . S
N14 C15 1.331 . S
C15 C13 1.392 . S
C15 N14 1.331 . S
O16 Zn9 1.975 . S
O16 C17 1.252 . S
C17 O16 1.252 . S
C17 O18 1.252 . S
O18 Zn0 1.975 . S
O18 C17 1.252 . S
H19 C12 0.930 . S
H20 C13 0.930 . S
C21 C22 1.392 . S
C21 N25 1.321 1_655 S
C21 H27 0.937 . S
C22 C21 1.392 . S
C22 N26 1.331 . S
C23 C24 1.391 . S
C23 N26 1.329 . S
C23 H33 0.930 . S
C24 C23 1.391 . S
C24 N25 1.329 1_655 S
C24 H31 0.930 1_655 S
N25 Zn9 2.130 . S
N25 C21 1.321 1_455 S
N25 C24 1.329 1_455 S
N26 C22 1.331 . S
N26 C23 1.329 . S
H27 C21 0.937 . S
C28 O8 1.257 . S
C28 O29 1.244 . S
O29 C28 1.244 . S
O30 C6 1.257 . S
O30 Zn9 2.019 1_556 S
H31 C24 0.930 1_455 S
H32 C11 0.930 . S
H33 C23 0.930 . S
Zn34 N38 2.020 . S
Zn34 O42 2.019 . S
Zn34 N44 2.119 . S
Zn34 O52 1.975 . S
C35 N36 1.334 . S
C35 N39 1.336 . S
N36 C35 1.334 . S
N36 C37 1.334 . S
C37 N36 1.334 . S
C37 N38 1.336 . S
N38 Zn34 2.020 . S
N38 C37 1.336 . S
N38 N39 1.354 . S
N39 C35 1.336 . S
N39 N38 1.354 . S
N39 Zn43 2.020 . S
C40 O41 1.244 1_554 S
C40 O64 1.257 1_554 S
O41 C40 1.244 1_556 S
O42 Zn34 2.019 . S
O42 C62 1.257 . S
Zn43 N39 2.020 . S
Zn43 O50 1.975 . S
Zn43 N59 2.119 . S
Zn43 O64 2.019 . S
N44 Zn34 2.119 . S
N44 C46 1.334 . S
N44 C47 1.328 . S
C45 C46 1.391 . S
C45 N48 1.329 . S
C45 H66 0.930 . S
C46 N44 1.334 . S
C46 C45 1.391 . S
C46 H53 0.930 . S
C47 N44 1.328 . S
C47 C49 1.392 . S
C47 H54 0.930 . S
N48 C45 1.329 . S
N48 C49 1.331 . S
C49 C47 1.392 . S
C49 N48 1.331 . S
O50 Zn43 1.975 . S
O50 C51 1.252 . S
C51 O50 1.252 . S
C51 O52 1.252 . S
O52 Zn34 1.975 . S
O52 C51 1.252 . S
H53 C46 0.930 . S
H54 C47 0.930 . S
C55 C56 1.392 . S
C55 N59 1.328 . S
C55 H61 0.930 . S
C56 C55 1.392 . S
C56 N60 1.331 . S
C57 C58 1.391 . S
C57 N60 1.329 . S
C57 H67 0.930 . S
C58 C57 1.391 . S
C58 N59 1.334 . S
C58 H65 0.930 . S
N59 Zn43 2.119 . S
N59 C55 1.328 . S
N59 C58 1.334 . S
N60 C56 1.331 . S
N60 C57 1.329 . S
H61 C55 0.930 . S
C62 O42 1.257 . S
C62 O63 1.244 . S
O63 C62 1.244 . S
O64 C40 1.257 1_556 S
O64 Zn43 2.019 . S
H65 C58 0.930 . S
H66 C45 0.930 . S
H67 C57 0.930 . S
Zn68 N72 2.020 1_554 S
Zn68 O76 2.019 . S
Zn68 N78 2.119 1_554 S
Zn68 O86 1.975 1_554 S
C69 N70 1.334 . S
C69 N73 1.336 . S
N70 C69 1.334 . S
N70 C71 1.334 . S
C71 N70 1.334 . S
C71 N72 1.336 . S
N72 Zn68 2.020 1_556 S
N72 C71 1.336 . S
N72 N73 1.354 . S
N73 C69 1.336 . S
N73 N72 1.354 . S
N73 Zn77 2.020 . S
C74 O75 1.244 . S
C74 O98 1.257 . S
O75 C74 1.244 . S
O76 Zn68 2.019 . S
O76 C96 1.257 . S
Zn77 N73 2.020 . S
Zn77 O84 1.975 . S
Zn77 N93 2.119 . S
Zn77 O98 2.019 . S
N78 Zn68 2.119 1_556 S
N78 C80 1.334 . S
N78 C81 1.328 1_556 S
C79 C80 1.391 . S
C79 N82 1.329 . S
C79 H100 0.930 . S
C80 N78 1.334 . S
C80 C79 1.391 . S
C80 H87 0.930 . S
C81 N78 1.328 1_554 S
C81 C83 1.392 1_554 S
C81 H88 0.930 . S
N82 C79 1.329 . S
N82 C83 1.331 . S
C83 C81 1.392 1_556 S
C83 N82 1.331 . S
O84 Zn77 1.975 . S
O84 C85 1.252 . S
C85 O84 1.252 . S
C85 O86 1.252 . S
O86 Zn68 1.975 1_556 S
O86 C85 1.252 . S
H87 C80 0.930 . S
H88 C81 0.930 . S
C89 C90 1.392 . S
C89 N93 1.328 1_455 S
C89 H95 0.930 . S
C90 C89 1.392 . S
C90 N94 1.331 . S
C91 C92 1.391 . S
C91 N94 1.329 . S
C91 H101 0.930 . S
C92 C91 1.391 . S
C92 N93 1.334 1_455 S
C92 H99 0.930 1_455 S
N93 Zn77 2.119 . S
N93 C89 1.328 1_655 S
N93 C92 1.334 1_655 S
N94 C90 1.331 . S
N94 C91 1.329 . S
H95 C89 0.930 . S
C96 O76 1.257 . S
C96 O97 1.244 . S
O97 C96 1.244 . S
O98 C74 1.257 . S
O98 Zn77 2.019 . S
H99 C92 0.930 1_655 S
H100 C79 0.930 . S
H101 C91 0.930 . S
Zn102 N106 2.020 . S
Zn102 O110 2.019 . S
Zn102 N112 2.119 . S
Zn102 O120 1.975 . S
C103 N104 1.334 . S
C103 N107 1.336 . S
N104 C103 1.334 . S
N104 C105 1.334 1_556 S
C105 N104 1.334 1_554 S
C105 N106 1.336 . S
N106 Zn102 2.020 . S
N106 C105 1.336 . S
N106 N107 1.354 1_554 S
N107 C103 1.336 . S
N107 N106 1.354 1_556 S
N107 Zn111 2.020 . S
C108 O109 1.244 . S
C108 O132 1.257 . S
O109 C108 1.244 . S
O110 Zn102 2.019 . S
O110 C130 1.257 . S
Zn111 N107 2.020 . S
Zn111 O118 1.975 . S
Zn111 N127 2.119 . S
Zn111 O132 2.019 . S
N112 Zn102 2.119 . S
N112 C114 1.334 1_554 S
N112 C115 1.328 . S
C113 C114 1.391 . S
C113 N116 1.329 1_556 S
C113 H134 0.930 . S
C114 N112 1.334 1_556 S
C114 C113 1.391 . S
C114 H121 0.930 . S
C115 N112 1.328 . S
C115 C117 1.392 . S
C115 H122 0.930 . S
N116 C113 1.329 1_554 S
N116 C117 1.331 . S
C117 C115 1.392 . S
C117 N116 1.331 . S
O118 Zn111 1.975 . S
O118 C119 1.252 1_556 S
C119 O118 1.252 1_554 S
C119 O120 1.252 . S
O120 Zn102 1.975 . S
O120 C119 1.252 . S
H121 C114 0.930 . S
H122 C115 0.930 . S
C123 C124 1.392 . S
C123 N127 1.328 . S
C123 H129 0.930 . S
C124 C123 1.392 . S
C124 N128 1.331 . S
C125 C126 1.391 . S
C125 N128 1.329 1_554 S
C125 H135 0.930 . S
C126 C125 1.391 . S
C126 N127 1.334 1_554 S
C126 H133 0.930 . S
N127 Zn111 2.119 . S
N127 C123 1.328 . S
N127 C126 1.334 1_556 S
N128 C124 1.331 . S
N128 C125 1.329 1_556 S
H129 C123 0.930 . S
C130 O110 1.257 . S
C130 O131 1.244 . S
O131 C130 1.244 . S
O132 C108 1.257 . S
O132 Zn111 2.019 . S
H133 C126 0.930 . S
H134 C113 0.930 . S
H135 C125 0.930 . S
Zn136 N140 2.020 . S
Zn136 O144 2.019 . S
Zn136 N146 2.119 . S
Zn136 O154 1.975 . S
C137 N138 1.334 . S
C137 N141 1.336 . S
N138 C137 1.334 . S
N138 C139 1.334 . S
C139 N138 1.334 . S
C139 N140 1.336 . S
N140 Zn136 2.020 . S
N140 C139 1.336 . S
N140 N141 1.354 . S
N141 C137 1.336 . S
N141 N140 1.354 . S
N141 Zn145 2.020 . S
C142 O143 1.244 . S
C142 O166 1.257 . S
O143 C142 1.244 . S
O144 Zn136 2.019 . S
O144 C164 1.257 1_554 S
Zn145 N141 2.020 . S
Zn145 O152 1.975 . S
Zn145 N161 2.119 . S
Zn145 O166 2.019 . S
N146 Zn136 2.119 . S
N146 C148 1.334 . S
N146 C149 1.328 . S
C147 C148 1.391 . S
C147 N150 1.329 . S
C147 H168 0.930 . S
C148 N146 1.334 . S
C148 C147 1.391 . S
C148 H155 0.930 . S
C149 N146 1.328 . S
C149 C151 1.392 . S
C149 H156 0.930 . S
N150 C147 1.329 . S
N150 C151 1.331 . S
C151 C149 1.392 . S
C151 N150 1.331 . S
O152 Zn145 1.975 . S
O152 C153 1.252 . S
C153 O152 1.252 . S
C153 O154 1.252 . S
O154 Zn136 1.975 . S
O154 C153 1.252 . S
H155 C148 0.930 . S
H156 C149 0.930 . S
C157 C158 1.392 . S
C157 N161 1.328 . S
C157 H163 0.930 . S
C158 C157 1.392 . S
C158 N162 1.331 . S
C159 C160 1.391 . S
C159 N162 1.329 . S
C159 H169 0.930 . S
C160 C159 1.391 . S
C160 N161 1.334 . S
C160 H167 0.930 . S
N161 Zn145 2.119 . S
N161 C157 1.328 . S
N161 C160 1.334 . S
N162 C158 1.331 . S
N162 C159 1.329 . S
H163 C157 0.930 . S
C164 O144 1.257 1_556 S
C164 O165 1.244 1_556 S
O165 C164 1.244 1_554 S
O166 C142 1.257 . S
O166 Zn145 2.019 . S
H167 C160 0.930 . S
H168 C147 0.930 . S
H169 C159 0.930 . S
Zn170 N174 2.020 . S
Zn170 O178 2.019 1_556 S
Zn170 N180 2.130 . S
Zn170 O188 1.975 . S
C171 N172 1.334 . S
C171 N175 1.336 . S
N172 C171 1.334 . S
N172 C173 1.334 . S
C173 N172 1.334 . S
C173 N174 1.336 . S
N174 Zn170 2.020 . S
N174 C173 1.336 . S
N174 N175 1.354 . S
N175 C171 1.336 . S
N175 N174 1.354 . S
N175 Zn179 2.020 . S
C176 O177 1.244 . S
C176 O200 1.257 . S
O177 C176 1.244 . S
O178 Zn170 2.019 1_554 S
O178 C198 1.257 . S
Zn179 N175 2.020 . S
Zn179 O186 1.975 . S
Zn179 N195 2.119 . S
Zn179 O200 2.019 . S
N180 Zn170 2.130 . S
N180 C182 1.329 1_545 S
N180 C183 1.321 1_545 S
C181 C182 1.391 . S
C181 N184 1.329 . S
C181 H202 0.930 . S
C182 N180 1.329 1_565 S
C182 C181 1.391 . S
C182 H189 0.930 1_565 S
C183 N180 1.321 1_565 S
C183 C185 1.392 . S
C183 H190 0.937 . S
N184 C181 1.329 . S
N184 C185 1.331 . S
C185 C183 1.392 . S
C185 N184 1.331 . S
O186 Zn179 1.975 . S
O186 C187 1.252 . S
C187 O186 1.252 . S
C187 O188 1.252 . S
O188 Zn170 1.975 . S
O188 C187 1.252 . S
H189 C182 0.930 1_545 S
H190 C183 0.937 . S
C191 C192 1.392 . S
C191 N195 1.328 . S
C191 H197 0.930 . S
C192 C191 1.392 . S
C192 N196 1.331 . S
C193 C194 1.391 . S
C193 N196 1.329 . S
C193 H203 0.930 . S
C194 C193 1.391 . S
C194 N195 1.334 . S
C194 H201 0.930 . S
N195 Zn179 2.119 . S
N195 C191 1.328 . S
N195 C194 1.334 . S
N196 C192 1.331 . S
N196 C193 1.329 . S
H197 C191 0.930 . S
C198 O178 1.257 . S
C198 O199 1.244 . S
O199 C198 1.244 . S
O200 C176 1.257 . S
O200 Zn179 2.019 . S
H201 C194 0.930 . S
H202 C181 0.930 . S
H203 C193 0.930 . S
Zn204 N208 2.020 . S
Zn204 O212 2.019 . S
Zn204 N214 2.119 . S
Zn204 O222 1.975 . S
C205 N206 1.334 . S
C205 N209 1.336 . S
N206 C205 1.334 . S
N206 C207 1.334 1_554 S
C207 N206 1.334 1_556 S
C207 N208 1.336 . S
N208 Zn204 2.020 . S
N208 C207 1.336 . S
N208 N209 1.354 1_556 S
N209 C205 1.336 . S
N209 N208 1.354 1_554 S
N209 Zn213 2.020 . S
C210 O211 1.244 . S
C210 O234 1.257 . S
O211 C210 1.244 . S
O212 Zn204 2.019 . S
O212 C232 1.257 . S
Zn213 N209 2.020 . S
Zn213 O220 1.975 . S
Zn213 N229 2.119 . S
Zn213 O234 2.019 . S
N214 Zn204 2.119 . S
N214 C216 1.334 1_556 S
N214 C217 1.328 . S
C215 C216 1.391 . S
C215 N218 1.329 1_554 S
C215 H236 0.930 . S
C216 N214 1.334 1_554 S
C216 C215 1.391 . S
C216 H223 0.930 . S
C217 N214 1.328 . S
C217 C219 1.392 . S
C217 H224 0.930 . S
N218 C215 1.329 1_556 S
N218 C219 1.331 . S
C219 C217 1.392 . S
C219 N218 1.331 . S
O220 Zn213 1.975 . S
O220 C221 1.252 1_554 S
C221 O220 1.252 1_556 S
C221 O222 1.252 . S
O222 Zn204 1.975 . S
O222 C221 1.252 . S
H223 C216 0.930 . S
H224 C217 0.930 . S
C225 C226 1.392 . S
C225 N229 1.328 . S
C225 H231 0.930 . S
C226 C225 1.392 . S
C226 N230 1.331 . S
C227 C228 1.391 . S
C227 N230 1.329 1_556 S
C227 H237 0.930 . S
C228 C227 1.391 . S
C228 N229 1.334 1_556 S
C228 H235 0.930 . S
N229 Zn213 2.119 . S
N229 C225 1.328 . S
N229 C228 1.334 1_554 S
N230 C226 1.331 . S
N230 C227 1.329 1_554 S
H231 C225 0.930 . S
C232 O212 1.257 . S
C232 O233 1.244 . S
O233 C232 1.244 . S
O234 C210 1.257 . S
O234 Zn213 2.019 . S
H235 C228 0.930 . S
H236 C215 0.930 . S
H237 C227 0.930 . S
Zn238 N242 2.020 1_556 S
Zn238 O246 2.019 . S
Zn238 N248 2.119 1_556 S
Zn238 O256 1.975 1_556 S
C239 N240 1.334 . S
C239 N243 1.336 . S
N240 C239 1.334 . S
N240 C241 1.334 . S
C241 N240 1.334 . S
C241 N242 1.336 . S
N242 Zn238 2.020 1_554 S
N242 C241 1.336 . S
N242 N243 1.354 . S
N243 C239 1.336 . S
N243 N242 1.354 . S
N243 Zn247 2.020 . S
C244 O245 1.244 . S
C244 O268 1.257 . S
O245 C244 1.244 . S
O246 Zn238 2.019 . S
O246 C266 1.257 . S
Zn247 N243 2.020 . S
Zn247 O254 1.975 . S
Zn247 N263 2.119 . S
Zn247 O268 2.019 . S
N248 Zn238 2.119 1_554 S
N248 C250 1.334 . S
N248 C251 1.328 1_554 S
C249 C250 1.391 . S
C249 N252 1.329 . S
C249 H270 0.930 . S
C250 N248 1.334 . S
C250 C249 1.391 . S
C250 H257 0.930 . S
C251 N248 1.328 1_556 S
C251 C253 1.392 1_556 S
C251 H258 0.930 . S
N252 C249 1.329 . S
N252 C253 1.331 . S
C253 C251 1.392 1_554 S
C253 N252 1.331 . S
O254 Zn247 1.975 . S
O254 C255 1.252 . S
C255 O254 1.252 . S
C255 O256 1.252 . S
O256 Zn238 1.975 1_554 S
O256 C255 1.252 . S
H257 C250 0.930 . S
H258 C251 0.930 . S
C259 C260 1.392 . S
C259 N263 1.328 1_545 S
C259 H265 0.930 . S
C260 C259 1.392 . S
C260 N264 1.331 . S
C261 C262 1.391 . S
C261 N264 1.329 . S
C261 H271 0.930 . S
C262 C261 1.391 . S
C262 N263 1.334 1_545 S
C262 H269 0.930 1_545 S
N263 Zn247 2.119 . S
N263 C259 1.328 1_565 S
N263 C262 1.334 1_565 S
N264 C260 1.331 . S
N264 C261 1.329 . S
H265 C259 0.930 . S
C266 O246 1.257 . S
C266 O267 1.244 . S
O267 C266 1.244 . S
O268 C244 1.257 . S
O268 Zn247 2.019 . S
H269 C262 0.930 1_565 S
H270 C249 0.930 . S
H271 C261 0.930 . S
C15 C51 1.885 . S
C85 C56 1.736 1_655 S
C119 C83 1.779 1_554 S
C17 C117 2.136 1_455 S
C151 C255 1.736 1_545 S
C192 C153 1.885 . S
C187 C219 2.136 1_545 S
C253 C221 1.779 1_554 S
C173 C1 4.149 1_556 S
C205 C37 3.853 . S
C69 C239 4.194 . S
C137 C103 3.853 . S
C28 C6 1.070 . S
C62 C40 1.098 . S
C74 C96 1.139 . S
C130 C108 1.119 . S
C164 C142 1.098 . S
C176 C198 1.070 . S
C210 C232 1.119 . S
C266 C244 1.139 . S
C171 C3 1.772 . S
C207 C35 2.026 . S
C71 C241 1.672 1_556 S
C139 C105 2.026 . S
C22 C260 2.515 . S
C158 C49 2.191 . S
C185 C90 2.515 . S
C124 C226 3.467 1_556 S
