# Generated by pormake.
# Topology wkj, (6)-cn, num edge types: 1
# Building blocks:
#     Node 0, Type 0, BuildingBlock: INOVEN_clean_sbu_0, # of connection points: 6
#     Node 1, Type 0, BuildingBlock: INOVEN_clean_sbu_0, # of connection points: 6
#     Node 2, Type 0, BuildingBlock: INOVEN_clean_sbu_0, # of connection points: 6
#     Node 3, Type 0, BuildingBlock: INOVEN_clean_sbu_0, # of connection points: 6
#     Node 4, Type 0, BuildingBlock: INOVEN_clean_sbu_0, # of connection points: 6
#     Node 5, Type 0, BuildingBlock: INOVEN_clean_sbu_0, # of connection points: 6
#     Node 6, Type 0, BuildingBlock: INOVEN_clean_sbu_0, # of connection points: 6
#     Node 7, Type 0, BuildingBlock: INOVEN_clean_sbu_0, # of connection points: 6
#     Node 8, Type 0, BuildingBlock: INOVEN_clean_sbu_0, # of connection points: 6
#     Node 9, Type 0, BuildingBlock: INOVEN_clean_sbu_0, # of connection points: 6
#     Node 10, Type 0, BuildingBlock: INOVEN_clean_sbu_0, # of connection points: 6
#     Node 11, Type 0, BuildingBlock: INOVEN_clean_sbu_0, # of connection points: 6
#     Edge 12, Type (0, 0), BuildingBlock: ZUJKAS_clean_linker_0, # of connection points: 2
#     Edge 13, Type (0, 0), BuildingBlock: ZUJKAS_clean_linker_0, # of connection points: 2
#     Edge 14, Type (0, 0), BuildingBlock: ZUJKAS_clean_linker_0, # of connection points: 2
#     Edge 15, Type (0, 0), BuildingBlock: ZUJKAS_clean_linker_0, # of connection points: 2
#     Edge 16, Type (0, 0), BuildingBlock: ZUJKAS_clean_linker_0, # of connection points: 2
#     Edge 17, Type (0, 0), BuildingBlock: ZUJKAS_clean_linker_0, # of connection points: 2
#     Edge 18, Type (0, 0), BuildingBlock: ZUJKAS_clean_linker_0, # of connection points: 2
#     Edge 19, Type (0, 0), BuildingBlock: ZUJKAS_clean_linker_0, # of connection points: 2
#     Edge 20, Type (0, 0), BuildingBlock: ZUJKAS_clean_linker_0, # of connection points: 2
#     Edge 21, Type (0, 0), BuildingBlock: ZUJKAS_clean_linker_0, # of connection points: 2
#     Edge 22, Type (0, 0), BuildingBlock: ZUJKAS_clean_linker_0, # of connection points: 2
#     Edge 23, Type (0, 0), BuildingBlock: ZUJKAS_clean_linker_0, # of connection points: 2
#     Edge 24, Type (0, 0), BuildingBlock: ZUJKAS_clean_linker_0, # of connection points: 2
#     Edge 25, Type (0, 0), BuildingBlock: ZUJKAS_clean_linker_0, # of connection points: 2
#     Edge 26, Type (0, 0), BuildingBlock: ZUJKAS_clean_linker_0, # of connection points: 2
#     Edge 27, Type (0, 0), BuildingBlock: ZUJKAS_clean_linker_0, # of connection points: 2
#     Edge 28, Type (0, 0), BuildingBlock: ZUJKAS_clean_linker_0, # of connection points: 2
#     Edge 29, Type (0, 0), BuildingBlock: ZUJKAS_clean_linker_0, # of connection points: 2
#     Edge 30, Type (0, 0), BuildingBlock: ZUJKAS_clean_linker_0, # of connection points: 2
#     Edge 31, Type (0, 0), BuildingBlock: ZUJKAS_clean_linker_0, # of connection points: 2
#     Edge 32, Type (0, 0), BuildingBlock: ZUJKAS_clean_linker_0, # of connection points: 2
#     Edge 33, Type (0, 0), BuildingBlock: ZUJKAS_clean_linker_0, # of connection points: 2
#     Edge 34, Type (0, 0), BuildingBlock: ZUJKAS_clean_linker_0, # of connection points: 2
#     Edge 35, Type (0, 0), BuildingBlock: ZUJKAS_clean_linker_0, # of connection points: 2
#     Edge 36, Type (0, 0), BuildingBlock: ZUJKAS_clean_linker_0, # of connection points: 2
#     Edge 37, Type (0, 0), BuildingBlock: ZUJKAS_clean_linker_0, # of connection points: 2
#     Edge 38, Type (0, 0), BuildingBlock: ZUJKAS_clean_linker_0, # of connection points: 2
#     Edge 39, Type (0, 0), BuildingBlock: ZUJKAS_clean_linker_0, # of connection points: 2
#     Edge 40, Type (0, 0), BuildingBlock: ZUJKAS_clean_linker_0, # of connection points: 2
#     Edge 41, Type (0, 0), BuildingBlock: ZUJKAS_clean_linker_0, # of connection points: 2
#     Edge 42, Type (0, 0), BuildingBlock: ZUJKAS_clean_linker_0, # of connection points: 2
#     Edge 43, Type (0, 0), BuildingBlock: ZUJKAS_clean_linker_0, # of connection points: 2
#     Edge 44, Type (0, 0), BuildingBlock: ZUJKAS_clean_linker_0, # of connection points: 2
#     Edge 45, Type (0, 0), BuildingBlock: ZUJKAS_clean_linker_0, # of connection points: 2
#     Edge 46, Type (0, 0), BuildingBlock: ZUJKAS_clean_linker_0, # of connection points: 2
#     Edge 47, Type (0, 0), BuildingBlock: ZUJKAS_clean_linker_0, # of connection points: 2
# Relax obj value: 0.538
# Max RMSD: 0.170
# Mean RMSD: 0.170
data_MOF--net-wkj--node1-INOVEN_clean_sbu_0--edge1-ZUJKAS_clean_linker_0
_symmetry_space_group_name_H-M    P1
_symmetry_Int_Tables_number       1
_symmetry_cell_setting            triclinic
loop_
_symmetry_equiv_pos_as_xyz
'x, y, z'
_cell_length_a     62.19776
_cell_length_b     62.222692
_cell_length_c     39.369851
_cell_angle_alpha  89.820575
_cell_angle_beta   90.214718
_cell_angle_gamma 120.17488
loop_
_atom_site_label
_atom_site_type_symbol
_atom_site_fract_x
_atom_site_fract_y
_atom_site_fract_z
_atom_type_partial_charge
Gd0 Gd 0.47377 0.09574 0.32322 0.0
Gd1 Gd 0.51875 0.09807 0.30847 0.0
C2 C 0.50947 0.10133 0.39177 0.0
C3 C 0.42772 0.08402 0.33093 0.0
C4 C 0.40842 0.07262 0.35739 0.0
C5 C 0.40296 0.08774 0.37776 0.0
C6 C 0.39565 0.04681 0.36307 0.0
C7 C 0.3745 0.05191 0.41145 0.0
C8 C 0.3789 0.03656 0.38992 0.0
C9 C 0.38624 0.0775 0.40464 0.0
C10 C 0.50733 0.14306 0.30351 0.0
C11 C 0.48118 0.07354 0.2463 0.0
C12 C 0.56603 0.11907 0.29908 0.0
C13 C 0.58127 0.13533 0.27122 0.0
C14 C 0.5727 0.12954 0.23761 0.0
C15 C 0.60125 0.15915 0.27873 0.0
C16 C 0.60075 0.1723 0.2208 0.0
C17 C 0.61101 0.17757 0.2536 0.0
C18 C 0.58244 0.14785 0.21262 0.0
C19 C 0.48214 0.05285 0.32969 0.0
O20 O 0.48689 0.09677 0.38094 0.0
O21 O 0.52527 0.10326 0.36742 0.0
O22 O 0.44655 0.10599 0.33767 0.0
O23 O 0.4345 0.06967 0.31597 0.0
O24 O 0.49387 0.13695 0.33052 0.0
O25 O 0.50403 0.12313 0.28909 0.0
O26 O 0.50487 0.08388 0.25502 0.0
O27 O 0.46584 0.07545 0.26878 0.0
O28 O 0.55069 0.09564 0.29174 0.0
O29 O 0.55571 0.12885 0.3176 0.0
O30 O 0.4989 0.05514 0.30798 0.0
O31 O 0.4881 0.07362 0.34118 0.0
H32 H 0.41213 0.10763 0.37349 0.0
H33 H 0.39911 0.03456 0.34747 0.0
H34 H 0.37029 0.0168 0.39479 0.0
H35 H 0.38294 0.08968 0.42065 0.0
H36 H 0.55723 0.11141 0.23105 0.0
H37 H 0.60796 0.16404 0.30458 0.0
H38 H 0.62519 0.19629 0.2604 0.0
H39 H 0.57458 0.14327 0.18728 0.0
Gd40 Gd 0.38461 0.47518 0.65169 0.0
Gd41 Gd 0.42328 0.52373 0.64234 0.0
C42 C 0.40997 0.51255 0.72209 0.0
C43 C 0.3513 0.43003 0.6682 0.0
C44 C 0.3402 0.41514 0.69874 0.0
C45 C 0.32082 0.39049 0.69559 0.0
C46 C 0.34879 0.42524 0.73101 0.0
C47 C 0.31943 0.38565 0.75699 0.0
C48 C 0.33863 0.4106 0.75988 0.0
C49 C 0.31044 0.37584 0.72451 0.0
C50 C 0.36658 0.5021 0.61912 0.0
C51 C 0.41522 0.48597 0.57805 0.0
C52 C 0.44703 0.56976 0.62342 0.0
C53 C 0.43973 0.58352 0.59997 0.0
C54 C 0.43474 0.57673 0.56566 0.0
C55 C 0.43384 0.60091 0.61317 0.0
C56 C 0.41478 0.60163 0.55959 0.0
C57 C 0.42136 0.60983 0.5932 0.0
C58 C 0.42255 0.58584 0.54565 0.0
C59 C 0.43933 0.49386 0.66928 0.0
O60 O 0.39327 0.49014 0.70932 0.0
O61 O 0.42379 0.52999 0.69982 0.0
O62 O 0.34632 0.4477 0.6626 0.0
O63 O 0.3746 0.43709 0.66269 0.0
O64 O 0.36355 0.4809 0.60953 0.0
O65 O 0.38175 0.50961 0.64431 0.0
O66 O 0.42489 0.50957 0.5879 0.0
O67 O 0.39956 0.46849 0.59989 0.0
O68 O 0.45139 0.55295 0.61052 0.0
O69 O 0.4335 0.56193 0.65079 0.0
O70 O 0.44894 0.51721 0.67671 0.0
O71 O 0.42353 0.48832 0.64628 0.0
H72 H 0.31386 0.38253 0.67074 0.0
H73 H 0.36355 0.44432 0.73391 0.0
H74 H 0.34642 0.41868 0.78438 0.0
H75 H 0.29554 0.3568 0.72141 0.0
H76 H 0.43913 0.56348 0.55462 0.0
H77 H 0.43754 0.60645 0.63959 0.0
H78 H 0.41578 0.62208 0.6046 0.0
H79 H 0.4185 0.57985 0.51944 0.0
Gd80 Gd 0.90712 0.38108 0.99211 0.0
Gd81 Gd 0.89764 0.41949 0.98409 0.0
C82 C 0.89275 0.40305 1.06382 0.0
C83 C 0.91567 0.34604 1.00996 0.0
C84 C 0.92343 0.3392 1.0413 0.0
C85 C 0.91675 0.31438 1.04713 0.0
C86 C 0.93596 0.35704 1.06655 0.0
C87 C 0.93395 0.32506 0.10413 0.0
C88 C 0.94127 0.35006 0.09766 0.0
C89 C 0.92205 0.30733 1.07838 0.0
C90 C 0.8636 0.36473 0.9555 0.0
C91 C 0.93112 0.41511 0.9227 0.0
C92 C 0.87518 0.44452 0.97363 0.0
C93 C 0.84912 0.43631 0.96573 0.0
C94 C 0.8412 0.45364 0.9621 0.0
C95 C 0.83263 0.41122 0.95832 0.0
C96 C 0.80177 0.42145 0.93845 0.0
C97 C 0.8092 0.40384 0.94472 0.0
C98 C 0.81759 0.44624 0.9488 0.0
C99 C 0.94511 0.436 1.00804 0.0
O100 O 0.90026 0.38784 1.05053 0.0
O101 O 0.88904 0.41703 1.04167 0.0
O102 O 0.89366 0.34383 1.01111 0.0
O103 O 0.93231 0.36669 0.9954 0.0
O104 O 0.88254 0.36305 0.94607 0.0
O105 O 0.86999 0.37816 0.98205 0.0
O106 O 0.9143 0.42163 0.93017 0.0
O107 O 0.93413 0.40108 0.94594 0.0
O108 O 0.88683 0.43976 0.95003 0.0
O109 O 0.87958 0.43903 1.00384 0.0
O110 O 0.93928 0.44844 0.9871 0.0
O111 O 0.92543 0.41686 1.01559 0.0
H112 H 0.90691 0.30038 1.02786 0.0
H113 H 0.9412 0.37628 1.06243 0.0
H114 H 0.95089 0.36422 0.11681 0.0
H115 H 0.91614 0.28794 1.08278 0.0
H116 H 0.85367 0.47306 0.96799 0.0
H117 H 0.83847 0.39758 0.96111 0.0
H118 H 0.79781 0.38469 0.93678 0.0
H119 H 0.81229 0.46019 0.94492 0.0
Gd120 Gd 0.52193 0.9089 0.3252 0.0
Gd121 Gd 0.47245 0.89484 0.31223 0.0
C122 C 0.48241 0.89327 0.39304 0.0
C123 C 0.56663 0.92347 0.34662 0.0
C124 C 0.58028 0.93054 0.3789 0.0
C125 C 0.59713 0.92241 0.38608 0.0
C126 C 0.57593 0.94432 0.40321 0.0
C127 C 0.60438 0.94081 0.44227 0.0
C128 C 0.5879 0.94944 0.43463 0.0
C129 C 0.60915 0.92753 0.41753 0.0
C130 C 0.49841 0.86453 0.29044 0.0
C131 C 0.51287 0.92775 0.2506 0.0
C132 C 0.42795 0.86897 0.28821 0.0
C133 C 0.41872 0.85045 0.26074 0.0
C134 C 0.43163 0.85575 0.2299 0.0
C135 C 0.40003 0.82589 0.26776 0.0
C136 C 0.40946 0.81182 0.21537 0.0
C137 C 0.39541 0.80669 0.24522 0.0
C138 C 0.42693 0.83666 0.20738 0.0
C139 C 0.49619 0.93921 0.34388 0.0
O140 O 0.50575 0.9019 0.38169 0.0
O141 O 0.46491 0.88732 0.36964 0.0
O142 O 0.54941 0.90015 0.34405 0.0
O143 O 0.55968 0.93855 0.3343 0.0
O144 O 0.51956 0.88362 0.28251 0.0
O145 O 0.48959 0.87051 0.31556 0.0
O146 O 0.489 0.91319 0.25926 0.0
O147 O 0.52993 0.93013 0.27338 0.0
O148 O 0.44283 0.89226 0.27984 0.0
O149 O 0.43589 0.86225 0.31462 0.0
O150 O 0.47267 0.92337 0.34742 0.0
O151 O 0.50542 0.93229 0.32099 0.0
H152 H 0.60063 0.91168 0.36757 0.0
H153 H 0.56313 0.95091 0.39809 0.0
H154 H 0.58419 0.96008 0.45301 0.0
H155 H 0.62159 0.92049 0.42281 0.0
H156 H 0.44626 0.87444 0.22382 0.0
H157 H 0.39006 0.82137 0.29163 0.0
H158 H 0.38173 0.78775 0.25191 0.0
H159 H 0.43752 0.84131 0.18404 0.0
Gd160 Gd 0.61621 0.52721 0.65527 0.0
Gd161 Gd 0.57687 0.47923 0.6424 0.0
C162 C 0.59202 0.49136 0.72501 0.0
C163 C 0.64729 0.57436 0.6624 0.0
C164 C 0.65924 0.59092 0.69131 0.0
C165 C 0.66628 0.61608 0.68883 0.0
C166 C 0.66233 0.58144 0.72212 0.0
C167 C 0.67814 0.62191 0.74845 0.0
C168 C 0.67182 0.59684 0.75042 0.0
C169 C 0.67563 0.63151 0.71726 0.0
C170 C 0.63456 0.49691 0.63816 0.0
C171 C 0.58408 0.51554 0.57992 0.0
C172 C 0.55527 0.43151 0.63573 0.0
C173 C 0.56151 0.41639 0.61391 0.0
C174 C 0.58455 0.42779 0.59731 0.0
C175 C 0.54577 0.39059 0.61145 0.0
C176 C 0.57638 0.38774 0.57626 0.0
C177 C 0.55307 0.37633 0.59244 0.0
C178 C 0.59197 0.41362 0.57884 0.0
C179 C 0.56195 0.51094 0.66577 0.0
O180 O 0.60745 0.51456 0.71334 0.0
O181 O 0.57906 0.4742 0.7014 0.0
O182 O 0.65408 0.55799 0.65667 0.0
O183 O 0.62328 0.56494 0.66009 0.0
O184 O 0.64093 0.5111 0.66463 0.0
O185 O 0.6167 0.49773 0.62294 0.0
O186 O 0.57374 0.49184 0.58873 0.0
O187 O 0.60036 0.53235 0.60214 0.0
O188 O 0.54726 0.44489 0.62049 0.0
O189 O 0.57217 0.44404 0.6587 0.0
O190 O 0.54849 0.49278 0.64499 0.0
O191 O 0.57972 0.50861 0.6751 0.0
H192 H 0.6639 0.62361 0.66519 0.0
H193 H 0.65672 0.56196 0.72458 0.0
H194 H 0.67303 0.58879 0.77428 0.0
H195 H 0.68033 0.65074 0.71512 0.0
H196 H 0.59696 0.4477 0.59897 0.0
H197 H 0.52801 0.38151 0.62437 0.0
H198 H 0.54065 0.35644 0.59055 0.0
H199 H 0.60974 0.42303 0.56593 0.0
Gd200 Gd 0.09078 0.61907 0.99237 0.0
Gd201 Gd 0.09475 0.57765 0.98314 0.0
C202 C 0.0977 0.59354 1.06483 0.0
C203 C 0.0769 0.65204 0.99416 0.0
C204 C 0.06299 0.65911 1.01747 0.0
C205 C 0.07532 0.676 1.04396 0.0
C206 C 0.0371 0.64845 1.01406 0.0
C207 C 0.03572 0.66847 1.06618 0.0
C208 C 0.02358 0.65304 1.03825 0.0
C209 C 0.0618 0.68056 1.06816 0.0
C210 C 0.13911 0.63474 0.97638 0.0
C211 C 0.06792 0.5849 0.91847 0.0
C212 C 0.11695 0.55193 0.9805 0.0
C213 C 0.13905 0.55617 0.9617 0.0
C214 C 0.14557 0.53768 0.9596 0.0
C215 C 0.15463 0.57962 0.94731 0.0
C216 C 0.18323 0.56623 0.92882 0.0
C217 C 0.17656 0.58464 0.9312 0.0
C218 C 0.16748 0.54262 0.94299 0.0
C219 C 0.04857 0.56747 1.0025 0.0
O220 O 0.09218 0.61028 1.05158 0.0
O221 O 0.10004 0.57889 1.04229 0.0
O222 O 0.0987 0.65634 1.00428 0.0
O223 O 0.06417 0.63049 0.97929 0.0
O224 O 0.13155 0.64234 1.00157 0.0
O225 O 0.12008 0.61686 0.96157 0.0
O226 O 0.07827 0.57218 0.9298 0.0
O227 O 0.07054 0.60376 0.93826 0.0
O228 O 0.09714 0.54646 0.9625 0.0
O229 O 0.12155 0.56874 1.00351 0.0
O230 O 0.05192 0.55262 0.98293 0.0
O231 O 0.06901 0.58352 1.01371 0.0
H232 H 0.09531 0.68491 1.04689 0.0
H233 H 0.02715 0.63581 0.9934 0.0
H234 H 0.00353 0.64373 1.03585 0.0
H235 H 0.07172 0.69234 0.08955 0.0
H236 H 0.13379 0.51954 0.9708 0.0
H237 H 0.14988 0.59412 0.94868 0.0
H238 H 0.18795 0.60278 0.91975 0.0
H239 H 0.17213 0.52806 0.94121 0.0
Gd240 Gd 0.90707 0.50522 0.50621 0.0
Gd241 Gd 0.87827 0.45436 0.52574 0.0
C242 C 0.88555 0.46479 0.4417 0.0
C243 C 0.93342 0.55 0.48308 0.0
C244 C 0.94493 0.56407 0.45223 0.0
C245 C 0.95061 0.58883 0.45072 0.0
C246 C 0.94859 0.55289 0.4237 0.0
C247 C 0.96222 0.59104 0.39153 0.0
C248 C 0.95727 0.56635 0.39348 0.0
C249 C 0.95917 0.60224 0.42063 0.0
C250 C 0.86181 0.49348 0.53564 0.0
C251 C 0.91858 0.49574 0.58402 0.0
C252 C 0.84259 0.41423 0.55253 0.0
C253 C 0.82469 0.40962 0.57965 0.0
C254 C 0.80978 0.38563 0.59268 0.0
C255 C 0.82213 0.42925 0.59221 0.0
C256 C 0.79016 0.40107 0.63145 0.0
C257 C 0.80481 0.42499 0.61752 0.0
C258 C 0.79271 0.38138 0.61853 0.0
C259 C 0.91957 0.4612 0.49617 0.0
O260 O 0.90063 0.48821 0.45167 0.0
O261 O 0.87277 0.44798 0.46612 0.0
O262 O 0.90915 0.5377 0.48313 0.0
O263 O 0.94315 0.53767 0.49677 0.0
O264 O 0.88319 0.51241 0.54328 0.0
O265 O 0.86556 0.48093 0.51357 0.0
O266 O 0.89876 0.473 0.57814 0.0
O267 O 0.9265 0.51166 0.55823 0.0
O268 O 0.86582 0.42399 0.56192 0.0
O269 O 0.83992 0.42484 0.52545 0.0
O270 O 0.8992 0.43986 0.49813 0.0
O271 O 0.91827 0.47711 0.51505 0.0
H272 H 0.94768 0.59759 0.47259 0.0
H273 H 0.94423 0.5337 0.4246 0.0
H274 H 0.95976 0.55736 0.37156 0.0
H275 H 0.96245 0.62105 0.41984 0.0
H276 H 0.81157 0.37028 0.58319 0.0
H277 H 0.83364 0.44792 0.58251 0.0
H278 H 0.80313 0.44053 0.62641 0.0
H279 H 0.78207 0.36283 0.62903 0.0
Gd280 Gd 0.38048 0.90672 0.83315 0.0
Gd281 Gd 0.42048 0.90147 0.84857 0.0
C282 C 0.40777 0.89728 0.76552 0.0
C283 C 0.34862 0.92132 0.82309 0.0
C284 C 0.34356 0.93399 0.79524 0.0
C285 C 0.3204 0.92186 0.77879 0.0
C286 C 0.36206 0.95736 0.78341 0.0
C287 C 0.33511 0.9551 0.73702 0.0
C288 C 0.3578 0.96786 0.75471 0.0
C289 C 0.31621 0.93227 0.74984 0.0
C290 C 0.36298 0.85848 0.85236 0.0
C291 C 0.40942 0.92787 0.91021 0.0
C292 C 0.44698 0.88033 0.85601 0.0
C293 C 0.44908 0.86343 0.8802 0.0
C294 C 0.44842 0.84197 0.86782 0.0
C295 C 0.4494 0.8671 0.91536 0.0
C296 C 0.44646 0.82708 0.92542 0.0
C297 C 0.44824 0.84913 0.93777 0.0
C298 C 0.44697 0.82384 0.89024 0.0
C299 C 0.4337 0.94783 0.82386 0.0
O300 O 0.39232 0.90525 0.77583 0.0
O301 O 0.41967 0.89286 0.79035 0.0
O302 O 0.34395 0.89884 0.81652 0.0
O303 O 0.36942 0.93433 0.83979 0.0
O304 O 0.35681 0.86578 0.82527 0.0
O305 O 0.38045 0.87758 0.86751 0.0
O306 O 0.42169 0.91635 0.90212 0.0
O307 O 0.39293 0.92696 0.88717 0.0
O308 O 0.45446 0.90309 0.86592 0.0
O309 O 0.42602 0.87044 0.83917 0.0
O310 O 0.44633 0.94395 0.847 0.0
O311 O 0.41706 0.92721 0.81382 0.0
H312 H 0.30585 0.90386 0.78758 0.0
H313 H 0.3801 0.96725 0.79566 0.0
H314 H 0.37256 0.98572 0.74585 0.0
H315 H 0.29861 0.92186 0.73665 0.0
H316 H 0.44807 0.8388 0.84072 0.0
H317 H 0.44962 0.88336 0.92554 0.0
H318 H 0.44745 0.85192 0.96478 0.0
H319 H 0.44564 0.80705 0.8801 0.0
Gd320 Gd 0.48646 0.39698 0.16774 0.0
Gd321 Gd 0.53666 0.42595 0.18319 0.0
C322 C 0.52564 0.41856 0.09991 0.0
C323 C 0.44117 0.37046 0.14658 0.0
C324 C 0.4248 0.36584 0.1173 0.0
C325 C 0.4077 0.34118 0.10868 0.0
C326 C 0.42563 0.38531 0.09824 0.0
C327 C 0.39238 0.35527 1.06184 0.0
C328 C 0.40945 0.38006 1.07078 0.0
C329 C 0.39167 0.33591 1.08115 0.0
C330 C 0.50376 0.36991 0.20331 0.0
C331 C 0.49767 0.42341 0.24205 0.0
C332 C 0.58193 0.43794 0.19768 0.0
C333 C 0.59154 0.42902 0.22518 0.0
C334 C 0.58152 0.42562 0.25793 0.0
C335 C 0.60819 0.42064 0.21789 0.0
C336 C 0.6033 0.40407 0.27516 0.0
C337 C 0.61412 0.4083 0.24277 0.0
C338 C 0.58748 0.41345 0.28267 0.0
C339 C 0.51942 0.45593 0.16119 0.0
O340 O 0.50198 0.4051 0.11096 0.0
O341 O 0.54314 0.42903 0.12405 0.0
O342 O 0.45784 0.3637 0.14331 0.0
O343 O 0.44939 0.3915 0.16288 0.0
O344 O 0.48409 0.37093 0.21052 0.0
O345 O 0.51424 0.38474 0.17886 0.0
O346 O 0.51916 0.42371 0.23719 0.0
O347 O 0.48255 0.41688 0.21526 0.0
O348 O 0.57216 0.45138 0.20659 0.0
O349 O 0.5684 0.42106 0.17532 0.0
O350 O 0.53515 0.46136 0.18593 0.0
O351 O 0.51305 0.43447 0.15089 0.0
H352 H 0.40685 0.32593 0.12317 0.0
H353 H 0.43871 0.40452 0.10452 0.0
H354 H 0.41026 0.3954 1.05664 0.0
H355 H 0.37909 0.31664 1.0746 0.0
H356 H 0.56841 0.43163 0.26422 0.0
H357 H 0.61584 0.4228 0.1926 0.0
H358 H 0.6264 0.40131 0.23633 0.0
H359 H 0.57935 0.41106 0.30766 0.0
Gd360 Gd 0.09099 0.4935 0.50901 0.0
Gd361 Gd 0.11659 0.54458 0.52753 0.0
C362 C 0.10973 0.53366 0.44373 0.0
C363 C 0.06822 0.44782 0.48855 0.0
C364 C 0.0555 0.43042 0.46086 0.0
C365 C 0.05273 0.40672 0.46323 0.0
C366 C 0.04663 0.43697 0.43222 0.0
C367 C 0.03243 0.39592 0.40816 0.0
C368 C 0.03504 0.41975 0.40604 0.0
C369 C 0.04135 0.38961 0.4371 0.0
C370 C 0.13675 0.50826 0.5395 0.0
C371 C 0.07776 0.50295 0.58607 0.0
C372 C 0.15085 0.58557 0.55423 0.0
C373 C 0.16932 0.58946 0.58029 0.0
C374 C 0.18507 0.61301 0.59409 0.0
C375 C 0.17141 0.56914 0.59112 0.0
C376 C 0.20435 0.59551 0.63037 0.0
C377 C 0.18901 0.57216 0.61538 0.0
C378 C 0.20242 0.61602 0.61916 0.0
C379 C 0.07373 0.5341 0.49796 0.0
O380 O 0.09651 0.50998 0.45394 0.0
O381 O 0.12118 0.55099 0.46799 0.0
O382 O 0.09208 0.46287 0.48501 0.0
O383 O 0.05685 0.45825 0.50288 0.0
O384 O 0.11587 0.48889 0.54754 0.0
O385 O 0.13213 0.51998 0.51688 0.0
O386 O 0.09729 0.52582 0.58026 0.0
O387 O 0.07036 0.48703 0.56026 0.0
O388 O 0.12772 0.57423 0.56443 0.0
O389 O 0.15365 0.57658 0.52575 0.0
O390 O 0.09286 0.55636 0.50032 0.0
O391 O 0.07693 0.51932 0.5169 0.0
H392 H 0.05966 0.40152 0.48521 0.0
H393 H 0.0488 0.45531 0.43009 0.0
H394 H 0.02808 0.42507 0.38423 0.0
H395 H 0.04003 0.37163 0.43928 0.0
H396 H 0.18367 0.6289 0.58593 0.0
H397 H 0.1592 0.55082 0.58093 0.0
H398 H 0.19024 0.55604 0.62285 0.0
H399 H 0.21368 0.63418 0.63051 0.0
Gd400 Gd 0.61344 0.09081 0.83418 0.0
Gd401 Gd 0.57354 0.09634 0.84929 0.0
C402 C 0.58429 0.09736 0.76582 0.0
C403 C 0.64538 0.07586 0.82769 0.0
C404 C 0.64909 0.0586 0.8063 0.0
C405 C 0.66862 0.06815 0.78276 0.0
C406 C 0.63342 0.03271 0.80896 0.0
C407 C 0.65542 0.0264 0.76268 0.0
C408 C 0.63654 0.01678 0.78732 0.0
C409 C 0.67171 0.05223 0.76107 0.0
C410 C 0.63167 0.13945 0.85223 0.0
C411 C 0.58467 0.07079 0.91182 0.0
C412 C 0.54814 0.11854 0.85636 0.0
C413 C 0.54793 0.13598 0.88135 0.0
C414 C 0.55278 0.15951 0.87035 0.0
C415 C 0.54626 0.13083 0.91626 0.0
C416 C 0.55728 0.17344 0.92882 0.0
C417 C 0.55077 0.14937 0.93977 0.0
C418 C 0.5576 0.17817 0.8939 0.0
C419 C 0.56095 0.04937 0.83043 0.0
O420 O 0.60052 0.09042 0.77663 0.0
O421 O 0.57232 0.10183 0.79035 0.0
O422 O 0.64775 0.0957 0.81282 0.0
O423 O 0.62681 0.06607 0.84893 0.0
O424 O 0.63748 0.13162 0.82551 0.0
O425 O 0.61397 0.1206 0.8675 0.0
O426 O 0.57298 0.08289 0.90354 0.0
O427 O 0.60053 0.07078 0.88856 0.0
O428 O 0.53993 0.09556 0.86609 0.0
O429 O 0.56861 0.12761 0.83862 0.0
O430 O 0.54831 0.05369 0.85285 0.0
O431 O 0.57638 0.06931 0.81715 0.0
H432 H 0.68116 0.08801 0.78055 0.0
H433 H 0.61841 0.02472 0.82725 0.0
H434 H 0.62388 0.99695 0.78945 0.0
H435 H 0.68623 0.06029 0.74208 0.0
H436 H 0.55419 0.16386 0.84349 0.0
H437 H 0.54278 0.11295 0.92549 0.0
H438 H 0.55075 0.14527 0.96654 0.0
H439 H 0.56251 0.19653 0.88483 0.0
Gd440 Gd 0.51165 0.60717 0.16931 0.0
Gd441 Gd 0.4611 0.57268 0.18213 0.0
C442 C 0.47336 0.58312 0.10069 0.0
C443 C 0.55664 0.63733 0.14908 0.0
C444 C 0.57234 0.6406 0.1197 0.0
C445 C 0.59819 0.653 0.12385 0.0
C446 C 0.56189 0.63165 0.0876 0.0
C447 C 0.60321 0.64787 1.06378 0.0
C448 C 0.5772 0.63516 1.05987 0.0
C449 C 0.61355 0.65665 0.0961 0.0
C450 C 0.48916 0.62956 0.20285 0.0
C451 C 0.50184 0.57956 0.2437 0.0
C452 C 0.41582 0.55335 0.20359 0.0
C453 C 0.40365 0.56014 0.23026 0.0
C454 C 0.4064 0.55629 0.26476 0.0
C455 C 0.39083 0.57259 0.22124 0.0
C456 C 0.38696 0.58037 0.28064 0.0
C457 C 0.38267 0.58274 0.24619 0.0
C458 C 0.39803 0.56622 0.28968 0.0
C459 C 0.48463 0.55093 0.15203 0.0
O460 O 0.4968 0.5961 0.1125 0.0
O461 O 0.45531 0.57351 0.12381 0.0
O462 O 0.53805 0.64108 0.14384 0.0
O463 O 0.55068 0.61792 0.16805 0.0
O464 O 0.50992 0.63101 0.21116 0.0
O465 O 0.47997 0.61447 0.17801 0.0
O466 O 0.47816 0.57275 0.23616 0.0
O467 O 0.51877 0.59184 0.21963 0.0
O468 O 0.43073 0.54533 0.2132 0.0
O469 O 0.42486 0.56907 0.17837 0.0
O470 O 0.46118 0.54343 0.14789 0.0
O471 O 0.49288 0.56713 0.17493 0.0
H472 H 0.60651 0.66004 0.14853 0.0
H473 H 0.54194 0.62185 0.08399 0.0
H474 H 0.56866 0.62772 1.03544 0.0
H475 H 0.63352 0.66671 0.09983 0.0
H476 H 0.41582 0.54643 0.27259 0.0
H477 H 0.38813 0.57553 0.1948 0.0
H478 H 0.37418 0.59349 0.23839 0.0
H479 H 0.40095 0.56345 0.3161 0.0
H480 H 0.53258 0.18918 0.33134 0.0
H481 H 0.53503 0.22773 0.31204 0.0
H482 H 0.4959 0.19121 0.22033 0.0
H483 H 0.49442 0.15261 0.23924 0.0
H484 H 0.5275 0.23833 0.20497 0.0
H485 H 0.48034 0.24185 0.32131 0.0
H486 H 0.50907 0.24312 0.33135 0.0
H487 H 0.48414 0.21567 0.31171 0.0
C488 C 0.52507 0.18945 0.30657 0.0
C489 C 0.51365 0.16758 0.28681 0.0
C490 C 0.52602 0.21159 0.29573 0.0
C491 C 0.51485 0.21276 0.26504 0.0
C492 C 0.50454 0.19126 0.24428 0.0
H493 H 0.47055 0.32654 0.23581 0.0
H494 H 0.47371 0.28975 0.2484 0.0
C495 C 0.5039 0.16905 0.25498 0.0
C496 C 0.51342 0.23599 0.25547 0.0
H497 H 0.49797 0.2781 0.28682 0.0
C498 C 0.52093 0.24688 0.22296 0.0
C499 C 0.50442 0.24748 0.27817 0.0
C500 C 0.49378 0.23629 0.31241 0.0
C501 C 0.52014 0.26856 0.21301 0.0
C502 C 0.51221 0.28071 0.23632 0.0
C503 C 0.5044 0.26955 0.26862 0.0
C504 C 0.51066 0.30405 0.22768 0.0
C505 C 0.52709 0.27761 0.17696 0.0
C506 C 0.53032 0.3254 0.21196 0.0
C507 C 0.5283 0.34665 0.2041 0.0
C508 C 0.50677 0.34771 0.21233 0.0
C509 C 0.48747 0.32673 0.22889 0.0
C510 C 0.48932 0.30543 0.23623 0.0
H511 H 0.52487 0.26246 0.15983 0.0
H512 H 0.51556 0.28522 0.16694 0.0
H513 H 0.54692 0.29247 0.17619 0.0
H514 H 0.54751 0.32588 0.20597 0.0
H515 H 0.54376 0.36239 0.19176 0.0
H516 H 0.31691 0.46805 0.61586 0.0
H517 H 0.28156 0.47375 0.60362 0.0
H518 H 0.33092 0.5528 0.59614 0.0
H519 H 0.36678 0.54715 0.60917 0.0
H520 H 0.26388 0.50295 0.63932 0.0
H521 H 0.28877 0.5352 0.50593 0.0
H522 H 0.30208 0.51905 0.52786 0.0
H523 H 0.31215 0.55077 0.53815 0.0
C524 C 0.32047 0.4868 0.61187 0.0
C525 C 0.34511 0.5071 0.61387 0.0
C526 C 0.29997 0.49003 0.60475 0.0
C527 C 0.30301 0.51368 0.5984 0.0
C528 C 0.32762 0.5342 0.60047 0.0
H529 H 0.18513 0.54712 0.52526 0.0
H530 H 0.22518 0.55036 0.5405 0.0
C531 C 0.34828 0.53099 0.60831 0.0
C532 C 0.28025 0.51629 0.59026 0.0
H533 H 0.25084 0.5298 0.52625 0.0
C534 C 0.2612 0.50894 0.61457 0.0
C535 C 0.27632 0.52445 0.55824 0.0
C536 C 0.29575 0.53274 0.53081 0.0
C537 C 0.23891 0.50945 0.60803 0.0
C538 C 0.2342 0.51622 0.57531 0.0
C539 C 0.25362 0.52421 0.55122 0.0
C540 C 0.20932 0.51456 0.56562 0.0
C541 C 0.22107 0.50348 0.63715 0.0
C542 C 0.18624 0.49333 0.57364 0.0
C543 C 0.16328 0.49173 0.56552 0.0
C544 C 0.16202 0.51092 0.54799 0.0
C545 C 0.185 0.5319 0.53886 0.0
C546 C 0.20813 0.53372 0.54761 0.0
H547 H 0.23102 0.50833 0.66192 0.0
H548 H 0.21069 0.51364 0.63498 0.0
H549 H 0.20761 0.48321 0.63751 0.0
H550 H 0.1858 0.47758 0.58603 0.0
H551 H 0.14629 0.47504 0.57272 0.0
H552 H 0.84845 0.33349 0.90048 0.0
H553 H 0.8077 0.29764 0.88754 0.0
H554 H 0.77784 0.31134 0.97815 0.0
H555 H 0.81868 0.34794 0.9905 0.0
H556 H 0.78095 0.25542 0.91489 0.0
H557 H 0.72141 0.29789 0.91882 0.0
H558 H 0.75487 0.31641 0.91982 0.0
H559 H 0.73777 0.30173 0.95796 0.0
C560 C 0.83316 0.32924 0.91749 0.0
C561 C 0.83727 0.34415 0.94651 0.0
C562 C 0.80959 0.30837 0.9101 0.0
C563 C 0.78881 0.3012 0.93137 0.0
C564 C 0.79283 0.31626 0.96036 0.0
H565 H 0.64 0.1576 0.92005 0.0
H566 H 0.67632 0.1962 0.94192 0.0
C567 C 0.81649 0.33739 0.96764 0.0
C568 C 0.76378 0.27755 0.92359 0.0
H569 H 0.70049 0.25384 0.91445 0.0
C570 C 0.7635 0.25537 0.91491 0.0
C571 C 0.74034 0.27658 0.92331 0.0
C572 C 0.73854 0.29945 0.93013 0.0
C573 C 0.74128 0.23305 0.90615 0.0
C574 C 0.71798 0.2321 0.90584 0.0
C575 C 0.71801 0.25404 0.91496 0.0
C576 C 0.6942 0.20922 0.89308 0.0
C577 C 0.74289 0.2104 0.89691 0.0
C578 C 0.69126 0.20343 0.85827 0.0
C579 C 0.67044 0.18163 0.84577 0.0
C580 C 0.65144 0.16425 0.86738 0.0
C581 C 0.65386 0.17031 0.90232 0.0
C582 C 0.67486 0.1925 0.91491 0.0
H583 H 0.76111 0.21243 0.90407 0.0
H584 H 0.72783 0.1936 0.90956 0.0
H585 H 0.74039 0.20741 0.86906 0.0
H586 H 0.70545 0.21569 0.84053 0.0
H587 H 0.66961 0.17805 0.81875 0.0
H588 H 0.46193 0.64809 0.16862 0.0
H589 H 0.45997 0.68584 0.18222 0.0
H590 H 0.50345 0.69635 0.2725 0.0
H591 H 0.506 0.65951 0.25858 0.0
H592 H 0.44334 0.70381 0.23249 0.0
H593 H 0.5455 0.76303 0.23121 0.0
H594 H 0.53007 0.73122 0.21698 0.0
H595 H 0.53571 0.73839 0.2616 0.0
C596 C 0.47089 0.65832 0.19153 0.0
C597 C 0.48433 0.65053 0.21224 0.0
C598 C 0.46984 0.68013 0.19935 0.0
C599 C 0.4822 0.69496 0.22809 0.0
C600 C 0.49443 0.68627 0.24955 0.0
H601 H 0.46441 0.81781 0.31815 0.0
H602 H 0.45878 0.77685 0.30282 0.0
C603 C 0.49566 0.66478 0.24166 0.0
C604 C 0.48301 0.71958 0.23554 0.0
H605 H 0.52317 0.7811 0.25491 0.0
C606 C 0.46087 0.72067 0.23727 0.0
C607 C 0.50573 0.74223 0.2413 0.0
C608 C 0.53059 0.74379 0.23732 0.0
C609 C 0.46082 0.74303 0.24523 0.0
C610 C 0.4835 0.76536 0.25255 0.0
C611 C 0.50559 0.76431 0.25004 0.0
C612 C 0.48519 0.79021 0.26129 0.0
C613 C 0.43638 0.74262 0.24472 0.0
C614 C 0.50194 0.81208 0.24373 0.0
C615 C 0.50525 0.83553 0.25267 0.0
C616 C 0.49208 0.83845 0.27975 0.0
C617 C 0.47483 0.81658 0.29702 0.0
C618 C 0.47152 0.79293 0.28803 0.0
H619 H 0.42219 0.72689 0.22934 0.0
H620 H 0.42924 0.74033 0.27105 0.0
H621 H 0.43862 0.76023 0.23428 0.0
H622 H 0.51281 0.81112 0.22299 0.0
H623 H 0.51868 0.85166 0.2385 0.0
H624 H 0.65317 0.5033 0.57185 0.0
H625 H 0.68945 0.50088 0.55249 0.0
H626 H 0.69535 0.47431 0.6514 0.0
H627 H 0.66034 0.47834 0.67101 0.0
H628 H 0.73822 0.50311 0.63668 0.0
H629 H 0.70348 0.45121 0.51691 0.0
H630 H 0.70177 0.47907 0.51567 0.0
H631 H 0.68321 0.4549 0.54584 0.0
C632 C 0.6618 0.49633 0.58921 0.0
C633 C 0.65322 0.49061 0.62302 0.0
C634 C 0.6828 0.49485 0.57804 0.0
C635 C 0.69574 0.487 0.59996 0.0
C636 C 0.68644 0.48057 0.63341 0.0
H637 H 0.81305 0.4545 0.52493 0.0
H638 H 0.77366 0.45222 0.54084 0.0
C639 C 0.66594 0.48259 0.64469 0.0
C640 C 0.71959 0.48685 0.58946 0.0
H641 H 0.74747 0.47164 0.52556 0.0
C642 C 0.73987 0.49597 0.61235 0.0
C643 C 0.72259 0.47725 0.55805 0.0
C644 C 0.70151 0.4648 0.53289 0.0
C645 C 0.7623 0.49602 0.60505 0.0
C646 C 0.76595 0.48794 0.57281 0.0
C647 C 0.74555 0.4784 0.55006 0.0
C648 C 0.79047 0.48919 0.56253 0.0
C649 C 0.78143 0.50388 0.63305 0.0
C650 C 0.81383 0.51069 0.5684 0.0
C651 C 0.83646 0.51172 0.56007 0.0
C652 C 0.837 0.49162 0.54433 0.0
C653 C 0.81372 0.47038 0.53715 0.0
C654 C 0.79096 0.46914 0.54625 0.0
H655 H 0.77258 0.50035 0.65848 0.0
H656 H 0.79197 0.49387 0.63161 0.0
H657 H 0.79463 0.52416 0.63107 0.0
H658 H 0.81475 0.52705 0.57933 0.0
H659 H 0.85373 0.52863 0.56565 0.0
H660 H 0.35181 0.84242 0.92069 0.0
H661 H 0.31644 0.80293 0.94168 0.0
H662 H 0.29453 0.77882 0.83852 0.0
H663 H 0.32962 0.81739 0.81788 0.0
H664 H 0.26682 0.78279 0.9357 0.0
H665 H 0.28779 0.71607 0.87385 0.0
H666 H 0.31019 0.74886 0.87566 0.0
H667 H 0.28635 0.73676 0.84338 0.0
C668 C 0.33987 0.82843 0.90251 0.0
C669 C 0.34414 0.83334 0.86738 0.0
C670 C 0.31931 0.80575 0.91455 0.0
C671 C 0.30247 0.78705 0.89195 0.0
C672 C 0.30714 0.79203 0.85699 0.0
H673 H 0.15518 0.6459 0.90809 0.0
H674 H 0.19446 0.68182 0.88745 0.0
C675 C 0.32744 0.81448 0.84508 0.0
C676 C 0.27942 0.76314 0.90425 0.0
H677 H 0.24609 0.69938 0.89404 0.0
C678 C 0.26259 0.76461 0.92674 0.0
C679 C 0.27309 0.73891 0.89277 0.0
C680 C 0.29043 0.73498 0.87037 0.0
C681 C 0.24 0.74329 0.93712 0.0
C682 C 0.23359 0.71911 0.92547 0.0
C683 C 0.25041 0.71757 0.90306 0.0
C684 C 0.21016 0.69545 0.93735 0.0
C685 C 0.22275 0.7471 0.9599 0.0
C686 C 0.20575 0.68985 0.97219 0.0
C687 C 0.18346 0.66926 0.9839 0.0
C688 C 0.16444 0.65298 0.96146 0.0
C689 C 0.16925 0.65762 0.92635 0.0
C690 C 0.1918 0.67846 0.91452 0.0
H691 H 0.22615 0.76639 0.95807 0.0
H692 H 0.20296 0.73399 0.95348 0.0
H693 H 0.22598 0.7438 0.98666 0.0
H694 H 0.21947 0.70176 0.99071 0.0
H695 H 0.18075 0.66654 1.01108 0.0
H696 H 0.59957 0.21885 0.92456 0.0
H697 H 0.62124 0.2469 0.97208 0.0
H698 H 0.55895 0.20152 1.0373 0.0
H699 H 0.53703 0.17391 0.98987 0.0
H700 H 0.58696 0.25424 1.05564 0.0
H701 H 0.64669 0.21187 1.03584 0.0
H702 H 0.64394 0.23043 1.00291 0.0
H703 H 0.61796 0.20031 1.01261 0.0
C704 C 0.59006 0.21551 0.94867 0.0
C705 C 0.56685 0.19392 0.95384 0.0
C706 C 0.60253 0.2315 0.9758 0.0
C707 C 0.59192 0.22595 1.0083 0.0
C708 C 0.56751 0.2061 1.01241 0.0
H709 H 0.56793 0.18091 0.18743 0.0
H710 H 0.5759 0.2087 0.13996 0.0
C711 C 0.55507 0.19019 0.9854 0.0
C712 C 0.60724 0.23648 1.03917 0.0
H713 H 0.64133 0.22113 0.09104 0.0
C714 C 0.59971 0.24797 1.06319 0.0
C715 C 0.62447 0.22901 1.04879 0.0
C716 C 0.63385 0.21721 1.02384 0.0
C717 C 0.60608 0.2488 0.09757 0.0
C718 C 0.61954 0.23713 0.10798 0.0
C719 C 0.63053 0.22959 0.08321 0.0
C720 C 0.61608 0.2258 0.14218 0.0
C721 C 0.59643 0.26012 0.12272 0.0
C722 C 0.63594 0.22597 0.15969 0.0
C723 C 0.63126 0.20942 0.18665 0.0
C724 C 0.60667 0.19239 0.19605 0.0
C725 C 0.58705 0.19355 0.18019 0.0
C726 C 0.59167 0.20993 0.15346 0.0
H727 H 0.59844 0.27766 0.11235 0.0
H728 H 0.57628 0.24722 0.12698 0.0
H729 H 0.60638 0.2641 0.14743 0.0
H730 H 0.6549 0.23782 0.1512 0.0
H731 H 0.64668 0.20894 0.19876 0.0
H732 H 0.34648 0.58708 0.28634 0.0
H733 H 0.33836 0.60901 0.33184 0.0
H734 H 0.40759 0.62566 0.37987 0.0
H735 H 0.41628 0.6054 0.33423 0.0
H736 H 0.32932 0.59778 0.39429 0.0
H737 H 0.41122 0.68919 0.39909 0.0
H738 H 0.40332 0.67075 0.36078 0.0
H739 H 0.42392 0.66942 0.39229 0.0
C740 C 0.36018 0.596 0.30628 0.0
C741 C 0.38187 0.59421 0.30698 0.0
C742 C 0.35554 0.60856 0.33218 0.0
C743 C 0.37264 0.61969 0.35891 0.0
C744 C 0.39448 0.61823 0.359 0.0
H745 H 0.37643 0.57145 0.51826 0.0
H746 H 0.35627 0.58345 0.47637 0.0
C747 C 0.39916 0.60596 0.33324 0.0
C748 C 0.36661 0.62919 0.38982 0.0
H749 H 0.40202 0.66411 0.4556 0.0
C750 C 0.34477 0.61301 0.4075 0.0
C751 C 0.38542 0.65021 0.407 0.0
C752 C 0.40707 0.67099 0.38843 0.0
C753 C 0.34418 0.61395 0.44306 0.0
C754 C 0.3664 0.63023 0.46065 0.0
C755 C 0.38547 0.65023 0.44257 0.0
C756 C 0.37349 0.6221 0.49233 0.0
C757 C 0.32075 0.59574 0.46142 0.0
C758 C 0.39012 0.63949 0.51599 0.0
C759 C 0.40288 0.63274 0.53916 0.0
C760 C 0.39896 0.60842 0.53923 0.0
C761 C 0.38051 0.59055 0.51804 0.0
C762 C 0.36827 0.59735 0.49458 0.0
H763 H 0.30474 0.5968 0.45083 0.0
H764 H 0.31685 0.57648 0.45703 0.0
H765 H 0.32199 0.59945 0.48914 0.0
H766 H 0.39453 0.65868 0.51507 0.0
H767 H 0.41681 0.64689 0.5555 0.0
H768 H 0.79829 0.44991 0.88844 0.0
H769 H 0.76974 0.4356 0.84123 0.0
H770 H 0.72783 0.36315 0.88758 0.0
H771 H 0.7566 0.37762 0.93586 0.0
H772 H 0.74561 0.35981 0.82983 0.0
H773 H 0.70323 0.41665 0.80416 0.0
H774 H 0.73486 0.43772 0.81565 0.0
H775 H 0.71421 0.41497 0.84615 0.0
C776 C 0.78233 0.43132 0.88976 0.0
C777 C 0.78008 0.41483 0.91583 0.0
C778 C 0.76576 0.42311 0.86253 0.0
C779 C 0.74643 0.39826 0.86073 0.0
C780 C 0.74254 0.38242 0.88842 0.0
H781 H 0.74403 0.36075 0.64603 0.0
H782 H 0.72053 0.35282 0.69909 0.0
C783 C 0.75916 0.39068 0.91585 0.0
C784 C 0.7353 0.38808 0.82698 0.0
H785 H 0.72395 0.4095 0.75327 0.0
C786 C 0.73964 0.36978 0.81325 0.0
C787 C 0.72696 0.40058 0.80532 0.0
C788 C 0.71931 0.41836 0.81886 0.0
C789 C 0.74011 0.36686 0.77802 0.0
C790 C 0.73591 0.38251 0.75626 0.0
C791 C 0.72768 0.39788 0.77005 0.0
C792 C 0.74664 0.38814 0.72174 0.0
C793 C 0.74828 0.34944 0.76443 0.0
C794 C 0.76861 0.41086 0.71666 0.0
C795 C 0.78216 0.41531 0.68685 0.0
C796 C 0.77393 0.39718 0.66121 0.0
C797 C 0.75111 0.37491 0.66554 0.0
C798 C 0.73755 0.37041 0.69566 0.0
H799 H 0.75097 0.33869 0.78492 0.0
H800 H 0.73411 0.33611 0.74644 0.0
H801 H 0.76604 0.36015 0.75037 0.0
H802 H 0.77609 0.42467 0.73668 0.0
H803 H 0.79978 0.43248 0.68481 0.0
H804 H 0.41099 0.77799 0.92003 0.0
H805 H 0.39579 0.74728 0.96608 0.0
H806 H 0.45472 0.79985 1.03102 0.0
H807 H 0.47022 0.83033 0.98509 0.0
H808 H 0.43721 0.74608 1.04459 0.0
H809 H 0.36176 0.76975 1.03688 0.0
H810 H 0.36828 0.75607 1.00109 0.0
H811 H 0.38994 0.7876 1.01291 0.0
C812 C 0.4213 0.78259 0.94369 0.0
C813 C 0.44146 0.8067 0.94935 0.0
C814 C 0.41256 0.76503 0.96994 0.0
C815 C 0.4239 0.77147 1.00204 0.0
C816 C 0.4457 0.79452 1.0064 0.0
H817 H 0.44619 0.80727 0.18533 0.0
H818 H 0.442 0.78156 0.1371 0.0
C819 C 0.4544 0.81203 0.98029 0.0
C820 C 0.41066 0.75764 1.03288 0.0
H821 H 0.37169 0.76107 0.08992 0.0
C822 C 0.42219 0.74836 1.05433 0.0
C823 C 0.39048 0.75976 1.04524 0.0
C824 C 0.37677 0.7688 1.023 0.0
C825 C 0.41635 0.74454 0.08904 0.0
C826 C 0.3995 0.75129 0.10254 0.0
C827 C 0.38511 0.75647 1.08 0.0
C828 C 0.40162 0.76022 0.13807 0.0
C829 C 0.42965 0.7351 0.11122 0.0
C830 C 0.38046 0.75667 0.15582 0.0
C831 C 0.38289 0.77239 0.18275 0.0
C832 C 0.40654 0.79166 0.19249 0.0
C833 C 0.42768 0.7931 0.17757 0.0
C834 C 0.42526 0.7778 0.1504 0.0
H835 H 0.42977 0.71919 0.09866 0.0
H836 H 0.44936 0.74993 0.11445 0.0
H837 H 0.42084 0.72904 0.13658 0.0
H838 H 0.36199 0.74321 0.14698 0.0
H839 H 0.36626 0.77066 0.19409 0.0
H840 H 0.56925 0.36817 0.31646 0.0
H841 H 0.57744 0.35212 0.36813 0.0
H842 H 0.65567 0.38956 0.34391 0.0
H843 H 0.64766 0.40721 0.29284 0.0
H844 H 0.5984 0.32627 0.3925 0.0
H845 H 0.65714 0.42656 0.42732 0.0
H846 H 0.63925 0.41756 0.38866 0.0
H847 H 0.66671 0.41498 0.39232 0.0
C848 C 0.58821 0.37289 0.32197 0.0
C849 C 0.60795 0.38979 0.30144 0.0
C850 C 0.59285 0.36336 0.3513 0.0
C851 C 0.6173 0.37027 0.36052 0.0
C852 C 0.63675 0.38462 0.33783 0.0
H853 H 0.62126 0.38972 0.57465 0.0
H854 H 0.63738 0.37651 0.52746 0.0
C855 C 0.63214 0.39454 0.30854 0.0
C856 C 0.62195 0.36605 0.39621 0.0
H857 H 0.63867 0.39826 0.47058 0.0
C858 C 0.60792 0.34192 0.40966 0.0
C859 C 0.63479 0.38639 0.41871 0.0
C860 C 0.65029 0.41285 0.40623 0.0
C861 C 0.60361 0.33804 0.44472 0.0
C862 C 0.61362 0.35879 0.46662 0.0
C863 C 0.63069 0.38235 0.45369 0.0
C864 C 0.60244 0.3581 0.50009 0.0
C865 C 0.58691 0.31199 0.45762 0.0
C866 C 0.57709 0.35088 0.5014 0.0
C867 C 0.56787 0.35841 0.52831 0.0
C868 C 0.58394 0.37352 0.5541 0.0
C869 C 0.60859 0.37837 0.55474 0.0
C870 C 0.61777 0.37066 0.52795 0.0
H871 H 0.58999 0.29851 0.44304 0.0
H872 H 0.59007 0.31028 0.48503 0.0
H873 H 0.56721 0.30686 0.45383 0.0
H874 H 0.56496 0.34172 0.47996 0.0
H875 H 0.54884 0.35453 0.52709 0.0
H876 H 0.18569 0.53725 0.87934 0.0
H877 H 0.2166 0.55089 0.83472 0.0
H878 H 0.2614 0.62064 0.88666 0.0
H879 H 0.22995 0.60707 0.93133 0.0
H880 H 0.24791 0.62859 0.82895 0.0
H881 H 0.28281 0.56562 0.80207 0.0
H882 H 0.25028 0.54639 0.81025 0.0
H883 H 0.27062 0.56641 0.8434 0.0
C884 C 0.20266 0.555 0.88213 0.0
C885 C 0.20523 0.57129 0.9084 0.0
C886 C 0.22057 0.56277 0.85664 0.0
C887 C 0.24151 0.58685 0.85723 0.0
C888 C 0.24546 0.602 0.88564 0.0
H889 H 0.25133 0.634 0.64645 0.0
H890 H 0.27468 0.63885 0.69915 0.0
C891 C 0.22741 0.5943 0.91101 0.0
C892 C 0.25459 0.59788 0.82482 0.0
H893 H 0.26637 0.57785 0.75061 0.0
C894 C 0.25318 0.61827 0.81211 0.0
C895 C 0.26215 0.58498 0.80291 0.0
C896 C 0.2668 0.56482 0.81567 0.0
C897 C 0.25454 0.62307 0.77717 0.0
C898 C 0.25767 0.60719 0.75467 0.0
C899 C 0.26341 0.58967 0.76788 0.0
C900 C 0.24733 0.60323 0.71991 0.0
C901 C 0.24913 0.64279 0.76443 0.0
C902 C 0.22474 0.58134 0.71377 0.0
C903 C 0.21138 0.57863 0.6842 0.0
C904 C 0.22036 0.59771 0.65978 0.0
C905 C 0.24373 0.61914 0.66504 0.0
C906 C 0.25717 0.62187 0.69495 0.0
H907 H 0.24705 0.65346 0.78547 0.0
H908 H 0.26449 0.65604 0.7478 0.0
H909 H 0.23173 0.63408 0.74918 0.0
H910 H 0.21663 0.56686 0.73291 0.0
H911 H 0.19331 0.56206 0.68147 0.0
H912 H 0.44902 0.94189 0.95625 0.0
H913 H 0.45945 0.96548 1.00961 0.0
H914 H 0.39434 0.97225 0.99898 0.0
H915 H 0.38407 0.94894 0.9451 0.0
H916 H 0.47225 0.01257 1.02983 0.0
H917 H 0.38463 0.95207 0.09771 0.0
H918 H 0.39243 0.94266 1.0585 0.0
H919 H 0.38038 0.96357 1.05785 0.0
C920 C 0.4366 0.94816 0.96497 0.0
C921 C 0.41529 0.94267 0.94491 0.0
C922 C 0.44278 0.96205 0.99622 0.0
C923 C 0.42785 0.9711 1.0105 0.0
C924 C 0.40649 0.96562 0.99047 0.0
H925 H 0.43454 0.0515 0.21006 0.0
H926 H 0.42261 0.02874 0.15557 0.0
C927 C 0.40053 0.95208 0.95878 0.0
C928 C 0.43495 0.98632 1.04512 0.0
H929 H 0.41295 0.98958 0.12515 0.0
C930 C 0.45904 0.00722 1.05048 0.0
C931 C 0.4185 0.98059 1.0735 0.0
C932 C 0.39261 0.9584 1.07195 0.0
C933 C 0.46657 0.02213 1.0811 0.0
C934 C 0.45033 0.01609 0.11 0.0
C935 C 0.42617 0.99513 0.10452 0.0
C936 C 0.45787 0.03086 0.14523 0.0
C937 C 0.49189 0.04523 1.08086 0.0
C938 C 0.48172 0.0403 0.1606 0.0
C939 C 0.48876 0.0539 0.19202 0.0
C940 C 0.47243 0.05883 0.21148 0.0
C941 C 0.44827 0.04885 0.19687 0.0
C942 C 0.44129 0.03542 0.16497 0.0
H943 H 0.49772 0.05239 1.05461 0.0
H944 H 0.49229 0.06028 0.09636 0.0
H945 H 0.50577 0.04066 0.09098 0.0
H946 H 0.49528 0.03686 0.14864 0.0
H947 H 0.5074 0.06036 0.20142 0.0
H948 H 0.52065 0.4337 0.3077 0.0
H949 H 0.50807 0.4443 0.36169 0.0
H950 H 0.44424 0.43967 0.31206 0.0
H951 H 0.45672 0.42915 0.25846 0.0
H952 H 0.47121 0.42411 0.40778 0.0
H953 H 0.46417 0.50333 0.35939 0.0
H954 H 0.44463 0.47556 0.33583 0.0
H955 H 0.47791 0.48903 0.33463 0.0
C956 C 0.50391 0.43496 0.30787 0.0
C957 C 0.49011 0.43034 0.27708 0.0
C958 C 0.4965 0.44112 0.33952 0.0
C959 C 0.47498 0.44359 0.34275 0.0
C960 C 0.46121 0.43886 0.31194 0.0
H961 H 0.44753 0.51728 0.52643 0.0
H962 H 0.46148 0.50747 0.47331 0.0
C963 C 0.46844 0.43247 0.2805 0.0
C964 C 0.4668 0.45046 0.37755 0.0
H965 H 0.44659 0.48828 0.41389 0.0
C966 C 0.46584 0.43818 0.40858 0.0
C967 C 0.45999 0.46926 0.38105 0.0
C968 C 0.46195 0.48528 0.35111 0.0
C969 C 0.45803 0.44328 0.44079 0.0
C970 C 0.45009 0.46127 0.44398 0.0
C971 C 0.45183 0.4741 0.41314 0.0
C972 C 0.44072 0.46739 0.47841 0.0
C973 C 0.45933 0.42957 0.47161 0.0
C974 C 0.42353 0.44886 0.50126 0.0
C975 C 0.41529 0.45461 0.53245 0.0
C976 C 0.42343 0.47937 0.54329 0.0
C977 C 0.44033 0.49789 0.52027 0.0
C978 C 0.4485 0.49214 0.48906 0.0
H979 H 0.47298 0.42322 0.46809 0.0
H980 H 0.46464 0.44141 0.49466 0.0
H981 H 0.44084 0.41284 0.47585 0.0
H982 H 0.41592 0.42948 0.4949 0.0
H983 H 0.40234 0.43931 0.54826 0.0
H984 H 0.08791 0.52706 0.65114 0.0
H985 H 0.06477 0.51302 0.70517 0.0
H986 H 0.01089 0.44491 0.65743 0.0
H987 H 0.03381 0.45882 0.60388 0.0
H988 H 0.05142 0.47814 0.75355 0.0
H989 H 0.96032 0.45583 0.70108 0.0
H990 H 0.97313 0.43937 0.67999 0.0
H991 H 0.98853 0.47275 0.67676 0.0
C992 C 0.07107 0.50907 0.65171 0.0
C993 C 0.06338 0.49457 0.62136 0.0
C994 C 0.05748 0.5008 0.68342 0.0
C995 C 0.03483 0.47761 0.68725 0.0
C996 C 0.02738 0.46312 0.65692 0.0
H997 H 0.92867 0.44326 0.86746 0.0
H998 H 0.95273 0.45759 0.8145 0.0
C999 C 0.04104 0.47123 0.62545 0.0
C1000 C 0.01956 0.46857 0.72206 0.0
H1001 H 0.96019 0.44246 0.75734 0.0
C1002 C 0.03143 0.47026 0.75379 0.0
C1003 C 0.99313 0.45841 0.72492 0.0
C1004 C 0.97799 0.45667 0.69401 0.0
C1005 C 0.01847 0.46223 0.78609 0.0
C1006 C 0.99191 0.45133 0.78878 0.0
C1007 C 0.98015 0.45016 0.75713 0.0
C1008 C 0.97637 0.44183 0.82339 0.0
C1009 C 0.03403 0.46684 0.81755 0.0
C1010 C 0.97999 0.42725 0.84849 0.0
C1011 C 0.96579 0.41877 0.87964 0.0
C1012 C 0.94667 0.42403 0.88834 0.0
C1013 C 0.94285 0.43835 0.86315 0.0
C1014 C 0.95696 0.44674 0.83196 0.0
H1015 H 0.05348 0.48209 0.8136 0.0
H1016 H 0.02619 0.47176 0.83948 0.0
H1017 H 0.03461 0.44976 0.82391 0.0
H1018 H 0.99375 0.42185 0.84394 0.0
H1019 H 0.96993 0.40785 0.8971 0.0
H1020 H 0.55909 0.9517 0.21577 0.0
H1021 H 0.57078 0.97423 0.16114 0.0
H1022 H 0.49622 0.96046 0.14908 0.0
H1023 H 0.48435 0.93738 0.20315 0.0
H1024 H 0.5561 0.96278 0.09174 0.0
H1025 H 0.53473 0.03515 0.12925 0.0
H1026 H 0.5347 0.01335 0.15949 0.0
H1027 H 0.50824 0.00431 0.13223 0.0
C1028 C 0.54493 0.95326 0.20173 0.0
C1029 C 0.52045 0.94208 0.21543 0.0
C1030 C 0.55177 0.96643 0.16974 0.0
C1031 C 0.53486 0.97007 0.14938 0.0
C1032 C 0.51039 0.95892 0.16311 0.0
H1033 H 0.54573 0.05854 0.95804 0.0
H1034 H 0.53459 0.035 1.01134 0.0
C1035 C 0.50341 0.94529 0.19471 0.0
C1036 C 0.54261 0.98503 0.11451 0.0
H1037 H 0.54397 0.03447 1.07091 0.0
C1038 C 0.55343 0.97853 0.08761 0.0
C1039 C 0.53943 0.00583 0.10702 0.0
C1040 C 0.52885 0.0153 0.13354 0.0
C1041 C 0.56012 0.99099 1.05492 0.0
C1042 C 0.55746 0.01224 1.0475 0.0
C1043 C 0.54663 0.0187 1.07466 0.0
C1044 C 0.56501 0.02742 1.0125 0.0
C1045 C 0.56888 0.97996 1.02806 0.0
C1046 C 0.58637 0.03259 0.9927 0.0
C1047 C 0.59263 0.04603 0.96087 0.0
C1048 C 0.57849 0.0561 0.94671 0.0
C1049 C 0.55759 0.05158 0.96684 0.0
C1050 C 0.55109 0.03779 0.99827 0.0
H1051 H 0.56178 0.95989 1.03279 0.0
H1052 H 0.56268 0.98192 1.00236 0.0
H1053 H 0.58949 0.98951 1.02864 0.0
H1054 H 0.59888 0.02661 1.00196 0.0
H1055 H 0.60902 0.04882 0.94748 0.0
H1056 H 0.55355 0.48518 0.52664 0.0
H1057 H 0.53994 0.49545 0.47345 0.0
H1058 H 0.58248 0.57308 0.49848 0.0
H1059 H 0.59599 0.56276 0.55193 0.0
H1060 H 0.55676 0.51721 0.41478 0.0
H1061 H 0.52279 0.57561 0.47053 0.0
H1062 H 0.55501 0.58736 0.48006 0.0
H1063 H 0.53183 0.55758 0.49657 0.0
C1064 C 0.56021 0.50459 0.52125 0.0
C1065 C 0.57628 0.52283 0.54522 0.0
C1066 C 0.55222 0.5106 0.48998 0.0
C1067 C 0.55927 0.53535 0.48024 0.0
C1068 C 0.57557 0.55367 0.50408 0.0
H1069 H 0.47593 0.56262 0.30669 0.0
H1070 H 0.48883 0.55236 0.36092 0.0
C1071 C 0.58374 0.54766 0.53531 0.0
C1072 C 0.55 0.54163 0.44574 0.0
H1073 H 0.52559 0.57636 0.41029 0.0
C1074 C 0.55009 0.53029 0.41438 0.0
C1075 C 0.54028 0.55822 0.44299 0.0
C1076 C 0.53716 0.57022 0.47431 0.0
C1077 C 0.54202 0.53533 0.38223 0.0
C1078 C 0.53331 0.55269 0.37928 0.0
C1079 C 0.53244 0.56343 0.41075 0.0
C1080 C 0.52505 0.55961 0.3445 0.0
C1081 C 0.54231 0.52114 0.35146 0.0
C1082 C 0.54048 0.56792 0.31512 0.0
C1083 C 0.53317 0.5744 0.28366 0.0
C1084 C 0.50966 0.57276 0.27875 0.0
C1085 C 0.49414 0.56439 0.30807 0.0
C1086 C 0.5017 0.55839 0.33984 0.0
H1087 H 0.54179 0.50361 0.3587 0.0
H1088 H 0.52629 0.51651 0.33446 0.0
H1089 H 0.55969 0.53277 0.33701 0.0
H1090 H 0.55875 0.56984 0.31647 0.0
H1091 H 0.54619 0.58063 0.26275 0.0
H1092 H 0.05062 0.60973 0.87343 0.0
H1093 H 0.02684 0.59529 0.81983 0.0
H1094 H 0.02281 0.52466 0.83212 0.0
H1095 H 0.0478 0.53963 0.88361 0.0
H1096 H 0.98674 0.56799 0.79118 0.0
H1097 H 0.03531 0.52241 0.73868 0.0
H1098 H 0.02258 0.50952 0.77936 0.0
H1099 H 0.04674 0.5417 0.77585 0.0
C1100 C 0.0451 0.59119 0.86464 0.0
C1101 C 0.05229 0.57646 0.88415 0.0
C1102 C 0.03104 0.58262 0.83321 0.0
C1103 C 0.02281 0.55856 0.8189 0.0
C1104 C 0.0293 0.54368 0.83937 0.0
H1105 H 0.95278 0.54363 0.60807 0.0
H1106 H 0.97589 0.55786 0.6618 0.0
C1107 C 0.04372 0.55238 0.87016 0.0
C1108 C 0.00736 0.54904 0.78407 0.0
H1109 H 0.99716 0.51219 0.71214 0.0
C1110 C 0.98952 0.55593 0.77423 0.0
C1111 C 0.00987 0.53322 0.75959 0.0
C1112 C 0.02985 0.5265 0.76359 0.0
C1113 C 0.97475 0.54756 0.7433 0.0
C1114 C 0.97673 0.53111 0.7197 0.0
C1115 C 0.9945 0.52423 0.7293 0.0
C1116 C 0.96131 0.52169 0.68517 0.0
C1117 C 0.95652 0.55625 0.73634 0.0
C1118 C 0.94444 0.49612 0.67773 0.0
C1119 C 0.93048 0.4877 0.64627 0.0
C1120 C 0.9327 0.50421 0.6195 0.0
C1121 C 0.94978 0.52972 0.62695 0.0
C1122 C 0.96332 0.53812 0.65853 0.0
H1123 H 0.95289 0.56423 0.75933 0.0
H1124 H 0.96419 0.57082 0.71638 0.0
H1125 H 0.93861 0.54067 0.72686 0.0
H1126 H 0.9417 0.48235 0.69667 0.0
H1127 H 0.91804 0.46795 0.64283 0.0
H1128 H 0.4456 0.04988 0.36962 0.0
H1129 H 0.42803 0.02178 0.41744 0.0
H1130 H 0.45533 0.97606 0.37556 0.0
H1131 H 0.47411 0.00499 0.32842 0.0
H1132 H 0.42529 0.95321 0.43365 0.0
H1133 H 0.48867 0.048 0.47623 0.0
H1134 H 0.45702 0.0374 0.46318 0.0
H1135 H 0.48161 0.04838 0.43205 0.0
C1136 C 0.44709 0.03329 0.36991 0.0
C1137 C 0.46278 0.03042 0.34682 0.0
C1138 C 0.43681 0.01711 0.39734 0.0
C1139 C 0.44248 0.99824 0.40188 0.0
C1140 C 0.45218 0.99163 0.37388 0.0
H1141 H 0.50225 0.98539 0.33758 0.0
H1142 H 0.50163 0.00871 0.38686 0.0
C1143 C 0.46304 0.00815 0.34672 0.0
C1144 C 0.44824 0.99285 0.4365 0.0
H1145 H 0.509 0.02408 0.45934 0.0
C1146 C 0.44317 0.9685 0.44166 0.0
C1147 C 0.47026 0.01207 0.45168 0.0
C1148 C 0.47453 0.03791 0.45617 0.0
C1149 C 0.46311 0.96427 0.44653 0.0
C1150 C 0.48768 0.98508 0.44748 0.0
C1151 C 0.49049 0.00822 0.45574 0.0
C1152 C 0.50598 0.9851 0.42344 0.0
C1153 C 0.45824 0.93818 0.44292 0.0
C1154 C 0.51455 0.96837 0.42762 0.0
C1155 C 0.51704 0.95652 0.39907 0.0
C1156 C 0.50988 0.96056 0.36682 0.0
C1157 C 0.50708 0.9813 0.36227 0.0
C1158 C 0.50639 0.99437 0.39062 0.0
H1159 H 0.43846 0.92422 0.44789 0.0
H1160 H 0.46267 0.93522 0.41668 0.0
H1161 H 0.47017 0.93521 0.46094 0.0
H1162 H 0.51571 0.96182 0.4527 0.0
H1163 H 0.5213 0.94204 0.4032 0.0
H1164 H 0.47653 0.48311 0.67145 0.0
H1165 H 0.49009 0.473 0.72394 0.0
H1166 H 0.42043 0.45484 0.77099 0.0
H1167 H 0.40579 0.46112 0.71653 0.0
H1168 H 0.45513 0.50369 0.78308 0.0
H1169 H 0.50608 0.45753 0.81693 0.0
H1170 H 0.49833 0.45035 0.77295 0.0
H1171 H 0.47368 0.4403 0.80383 0.0
C1172 C 0.46367 0.47563 0.69248 0.0
C1173 C 0.44135 0.47581 0.69153 0.0
C1174 C 0.47119 0.46948 0.72268 0.0
C1175 C 0.45717 0.46553 0.75258 0.0
C1176 C 0.43226 0.45928 0.74889 0.0
H1177 H 0.5867 0.54069 0.71934 0.0
H1178 H 0.56692 0.54674 0.76843 0.0
C1179 C 0.42427 0.46405 0.71801 0.0
C1180 C 0.47121 0.47996 0.783 0.0
H1181 H 0.53268 0.50046 0.78693 0.0
C1182 C 0.47212 0.503 0.78547 0.0
C1183 C 0.49302 0.47965 0.79186 0.0
C1184 C 0.49258 0.45548 0.79684 0.0
C1185 C 0.49471 0.52487 0.779 0.0
C1186 C 0.51615 0.52295 0.77431 0.0
C1187 C 0.51588 0.50166 0.78736 0.0
C1188 C 0.53155 0.53378 0.74347 0.0
C1189 C 0.49459 0.54838 0.77042 0.0
C1190 C 0.51927 0.52722 0.71172 0.0
C1191 C 0.52985 0.52168 0.6842 0.0
C1192 C 0.55339 0.52433 0.68778 0.0
C1193 C 0.56778 0.53683 0.71663 0.0
C1194 C 0.55677 0.54105 0.74464 0.0
H1195 H 0.48198 0.55081 0.78778 0.0
H1196 H 0.51359 0.56487 0.77199 0.0
H1197 H 0.48732 0.54703 0.74425 0.0
H1198 H 0.50011 0.52269 0.7096 0.0
H1199 H 0.51891 0.51335 0.66155 0.0
H1200 H 0.94596 0.41707 1.0704 0.0
H1201 H 0.9628 0.44235 0.12099 0.0
H1202 H 0.00817 0.50599 1.05817 0.0
H1203 H 0.98824 0.4816 1.0071 0.0
H1204 H 0.02281 0.51371 0.13 0.0
H1205 H 0.92169 0.47707 0.12354 0.0
H1206 H 0.93506 0.45787 0.13317 0.0
H1207 H 0.93249 0.46556 0.08971 0.0
C1208 C 0.95973 0.43646 1.06713 0.0
C1209 C 0.96419 0.44799 1.03489 0.0
C1210 C 0.96965 0.45079 0.09635 0.0
C1211 C 0.98499 0.4765 0.09324 0.0
C1212 C 0.99468 0.48646 1.06094 0.0
H1213 H 0.00129 0.52645 0.99994 0.0
H1214 H 0.97169 0.51518 1.04632 0.0
C1215 C 0.98351 0.47256 1.03168 0.0
C1216 C 0.98368 0.4935 0.1184 0.0
H1217 H 0.94809 0.51983 0.10486 0.0
C1218 C 0.00614 0.51492 0.12659 0.0
C1219 C 0.9618 0.49532 0.11822 0.0
C1220 C 0.93628 0.47267 0.11618 0.0
C1221 C 0.00823 0.53831 0.12255 0.0
C1222 C 0.988 0.53932 0.10734 0.0
C1223 C 0.96426 0.51877 0.11273 0.0
C1224 C 0.99262 0.55052 1.07274 0.0
C1225 C 0.03339 0.56114 0.12714 0.0
C1226 C 0.0107 0.57549 1.06818 0.0
C1227 C 0.02727 0.58201 1.04113 0.0
C1228 C 0.02556 0.56356 1.01868 0.0
C1229 C 0.00371 0.54052 1.01812 0.0
C1230 C 0.98675 0.53425 1.04477 0.0
H1231 H 0.04411 0.55818 0.14743 0.0
H1232 H 0.04409 0.56513 0.10319 0.0
H1233 H 0.03158 0.57745 0.13392 0.0
H1234 H 0.0146 0.58895 0.08809 0.0
H1235 H 0.04328 0.60062 1.04071 0.0
H1236 H 0.03998 0.48744 0.47551 0.0
H1237 H 0.02273 0.47617 0.4192 0.0
H1238 H 0.0602 0.55421 0.39102 0.0
H1239 H 0.07551 0.565 0.44813 0.0
H1240 H 0.02405 0.47185 0.3576 0.0
H1241 H 0.01775 0.54862 0.32124 0.0
H1242 H 0.04727 0.55233 0.33467 0.0
H1243 H 0.02859 0.55905 0.36341 0.0
C1244 C 0.04383 0.50208 0.45742 0.0
C1245 C 0.05888 0.52699 0.46639 0.0
C1246 C 0.03448 0.49577 0.42442 0.0
C1247 C 0.03993 0.51427 0.39925 0.0
C1248 C 0.05479 0.53924 0.40895 0.0
H1249 H 0.91147 0.43075 0.44285 0.0
H1250 H 0.93277 0.44092 0.38892 0.0
C1251 C 0.06362 0.5455 0.44213 0.0
C1252 C 0.02728 0.50751 0.36503 0.0
H1253 H 0.97959 0.51869 0.36165 0.0
C1254 C 0.01404 0.48195 0.35807 0.0
C1255 C 0.01469 0.52016 0.35527 0.0
C1256 C 0.02806 0.54658 0.34291 0.0
C1257 C 0.98844 0.46903 0.36553 0.0
C1258 C 0.97705 0.4834 0.37313 0.0
C1259 C 0.98902 0.50803 0.36113 0.0
C1260 C 0.96129 0.47791 0.40381 0.0
C1261 C 0.97551 0.44128 0.37036 0.0
C1262 C 0.96929 0.4957 0.43024 0.0
C1263 C 0.95624 0.49037 0.4608 0.0
C1264 C 0.93545 0.46689 0.46597 0.0
C1265 C 0.9278 0.44897 0.43994 0.0
C1266 C 0.94007 0.45469 0.40887 0.0
H1267 H 0.98687 0.43337 0.36078 0.0
H1268 H 0.97192 0.43665 0.39776 0.0
H1269 H 0.95753 0.43226 0.35648 0.0
H1270 H 0.98592 0.51372 0.42754 0.0
H1271 H 0.9624 0.50452 0.48029 0.0
H1272 H 0.47801 0.99231 0.827 0.0
H1273 H 0.50111 0.01389 0.77609 0.0
H1274 H 0.43564 0.97065 0.71494 0.0
H1275 H 0.41178 0.95208 0.7662 0.0
H1276 H 0.46545 0.94863 0.71954 0.0
H1277 H 0.52797 0.0444 0.68284 0.0
H1278 H 0.51951 0.04559 0.72593 0.0
H1279 H 0.49564 0.0333 0.69354 0.0
C1280 C 0.46827 0.98863 0.80299 0.0
C1281 C 0.44389 0.96896 0.79989 0.0
C1282 C 0.48136 0.00102 0.7737 0.0
C1283 C 0.47053 0.99224 0.74141 0.0
C1284 C 0.44468 0.97708 0.73938 0.0
H1285 H 0.59148 0.04173 0.79009 0.0
H1286 H 0.57737 0.01043 0.74592 0.0
C1287 C 0.43124 0.96594 0.76885 0.0
C1288 C 0.48615 0.98879 0.71616 0.0
H1289 H 0.54875 0.02352 0.71504 0.0
C1290 C 0.48374 0.96501 0.71718 0.0
C1291 C 0.50976 0.00915 0.70862 0.0
C1292 C 0.51324 0.03451 0.70217 0.0
C1293 C 0.50455 0.96292 0.72576 0.0
C1294 C 0.52741 0.98501 0.73102 0.0
C1295 C 0.53065 0.00673 0.71488 0.0
C1296 C 0.53976 0.98952 0.76482 0.0
C1297 C 0.50093 0.93808 0.73636 0.0
C1298 C 0.52471 0.98565 0.79368 0.0
C1299 C 0.53261 0.00398 0.81883 0.0
C1300 C 0.55577 0.02551 0.81559 0.0
C1301 C 0.57291 0.02578 0.79202 0.0
C1302 C 0.56503 0.00755 0.76699 0.0
H1303 H 0.48945 0.92379 0.71716 0.0
H1304 H 0.51901 0.93874 0.7395 0.0
H1305 H 0.49061 0.9323 0.76074 0.0
H1306 H 0.50535 0.97118 0.7938 0.0
H1307 H 0.51959 0.00279 0.83793 0.0
H1308 H 0.53496 0.57344 0.1508 0.0
H1309 H 0.56122 0.58315 0.10163 0.0
H1310 H 0.4955 0.53948 1.03955 0.0
H1311 H 0.46986 0.53073 0.08899 0.0
H1312 H 0.58522 0.58931 1.0523 0.0
H1313 H 0.5291 0.54083 0.96033 0.0
H1314 H 0.51832 0.55885 0.98292 0.0
H1315 H 0.50189 0.52509 0.98604 0.0
C1316 C 0.52632 0.56604 0.12646 0.0
C1317 C 0.50042 0.55159 0.1237 0.0
C1318 C 0.54137 0.57175 0.09781 0.0
C1319 C 0.53103 0.56235 1.06537 0.0
C1320 C 0.50483 0.54731 1.06328 0.0
H1321 H 0.54761 0.50678 0.16623 0.0
H1322 H 0.56361 0.5359 0.1193 0.0
C1323 C 0.48986 0.54177 0.092 0.0
C1324 C 0.54742 0.56422 1.03575 0.0
H1325 H 0.52497 0.5048 1.01397 0.0
C1326 C 0.57174 0.57043 1.04504 0.0
C1327 C 0.53657 0.54365 1.01363 0.0
C1328 C 0.52044 0.54218 0.98423 0.0
C1329 C 0.57528 0.55066 1.05498 0.0
C1330 C 0.55496 0.5261 1.05049 0.0
C1331 C 0.53822 0.52291 1.02392 0.0
C1332 C 0.54575 0.50803 1.07941 0.0
C1333 C 0.59922 0.55601 1.07178 0.0
C1334 C 0.5278 0.48298 1.07397 0.0
C1335 C 0.51659 0.46694 0.1013 0.0
C1336 C 0.52445 0.47484 0.13483 0.0
C1337 C 0.54146 0.49999 0.14068 0.0
C1338 C 0.55149 0.51649 0.11338 0.0
H1339 H 0.61497 0.56754 1.05449 0.0
H1340 H 0.60224 0.56712 0.09517 0.0
H1341 H 0.59939 0.53868 1.07804 0.0
H1342 H 0.52225 0.47552 1.04862 0.0
H1343 H 0.50281 0.44782 0.09589 0.0
H1344 H 0.36956 0.97609 0.68689 0.0
H1345 H 0.36448 0.98964 0.63099 0.0
H1346 H 0.28835 0.96732 0.65436 0.0
H1347 H 0.2936 0.9546 0.71143 0.0
H1348 H 0.32983 0.9587 0.58226 0.0
H1349 H 0.31762 0.03877 0.61651 0.0
H1350 H 0.33026 0.02572 0.64605 0.0
H1351 H 0.29761 0.00929 0.63657 0.0
C1352 C 0.35189 0.97459 0.6806 0.0
C1353 C 0.33205 0.96448 0.70377 0.0
C1354 C 0.34894 0.98209 0.64847 0.0
C1355 C 0.32609 0.97955 0.63868 0.0
C1356 C 0.30621 0.96966 0.66166 0.0
H1357 H 0.32961 0.00903 0.41934 0.0
H1358 H 0.30967 0.98918 0.47323 0.0
C1359 C 0.30919 0.96223 0.69407 0.0
C1360 C 0.32343 0.9867 0.60384 0.0
H1361 H 0.32183 0.03271 0.55867 0.0
C1362 C 0.32758 0.97458 0.57688 0.0
C1363 C 0.32045 0.00738 0.59723 0.0
C1364 C 0.31635 0.02123 0.62551 0.0
C1365 C 0.33077 0.98371 0.54365 0.0
C1366 C 0.32896 0.00514 0.53717 0.0
C1367 C 0.32303 0.01621 0.5638 0.0
C1368 C 0.33745 0.01865 0.5046 0.0
C1369 C 0.33804 0.97153 0.5164 0.0
C1370 C 0.35877 0.04234 0.5045 0.0
C1371 C 0.36995 0.05375 0.47397 0.0
C1372 C 0.36004 0.04162 0.44297 0.0
C1373 C 0.33777 0.01859 0.44297 0.0
C1374 C 0.32641 0.00727 0.47364 0.0
H1375 H 0.34261 0.95774 0.52704 0.0
H1376 H 0.32237 0.96169 0.4983 0.0
H1377 H 0.35441 0.98568 0.50201 0.0
H1378 H 0.36762 0.05141 0.52814 0.0
H1379 H 0.38721 0.07138 0.47478 0.0
H1380 H 0.3435 0.31862 1.05475 0.0
H1381 H 0.31771 0.30795 1.00341 0.0
H1382 H 0.37828 0.36896 0.95029 0.0
H1383 H 0.40442 0.37896 1.00057 0.0
H1384 H 0.3021 0.33472 0.96613 0.0
H1385 H 0.36 0.31144 0.88642 0.0
H1386 H 0.36321 0.31385 0.93209 0.0
H1387 H 0.37916 0.34119 0.90574 0.0
C1388 C 0.35139 0.32955 1.03197 0.0
C1389 C 0.37609 0.34954 1.03165 0.0
C1390 C 0.3366 0.3235 1.00278 0.0
C1391 C 0.34633 0.33728 0.9729 0.0
C1392 C 0.37066 0.35766 0.97287 0.0
H1393 H 0.31139 0.39826 0.82022 0.0
H1394 H 0.30771 0.37633 0.87281 0.0
C1395 C 0.38546 0.36361 1.00182 0.0
C1396 C 0.33119 0.33129 0.94165 0.0
H1397 H 0.33753 0.32868 0.85637 0.0
C1398 C 0.30938 0.33269 0.9421 0.0
C1399 C 0.33998 0.32747 0.91052 0.0
C1400 C 0.36171 0.32309 0.90875 0.0
C1401 C 0.29794 0.33349 0.91171 0.0
C1402 C 0.30917 0.3337 0.8804 0.0
C1403 C 0.32909 0.3291 0.88023 0.0
C1404 C 0.30422 0.34342 0.84869 0.0
C1405 C 0.27463 0.33518 0.91356 0.0
C1406 C 0.30308 0.33222 0.8173 0.0
C1407 C 0.30628 0.34529 0.78706 0.0
C1408 C 0.31041 0.36969 0.78772 0.0
C1409 C 0.30889 0.37975 0.8189 0.0
C1410 C 0.30618 0.36691 0.84909 0.0
H1411 H 0.26249 0.32327 0.93446 0.0
H1412 H 0.27969 0.3546 0.91943 0.0
H1413 H 0.26395 0.32943 0.8894 0.0
H1414 H 0.30163 0.31414 0.81631 0.0
H1415 H 0.30738 0.33695 0.76351 0.0
H1416 H 0.9516 0.29373 0.12007 0.0
H1417 H 0.96253 0.28561 0.17681 0.0
H1418 H 0.93753 0.33276 0.22071 0.0
H1419 H 0.9257 0.3399 0.16492 0.0
H1420 H 0.99735 0.31931 0.21481 0.0
H1421 H 0.91249 0.27985 0.29081 0.0
H1422 H 0.91141 0.27925 0.24491 0.0
H1423 H 0.91415 0.30556 0.26804 0.0
C1424 C 0.94779 0.30169 0.14205 0.0
C1425 C 0.93811 0.31769 0.13815 0.0
C1426 C 0.95402 0.29705 0.17437 0.0
C1427 C 0.9504 0.30816 0.20312 0.0
C1428 C 0.93978 0.32328 0.19917 0.0
H1429 H 0.03869 0.40539 0.34013 0.0
H1430 H 0.0195 0.37599 0.29376 0.0
C1431 C 0.9335 0.32781 0.16712 0.0
C1432 C 0.9613 0.30785 0.23643 0.0
H1433 H 0.9509 0.31331 0.3199 0.0
C1434 C 0.98703 0.31707 0.23798 0.0
C1435 C 0.94789 0.30404 0.26692 0.0
C1436 C 0.91989 0.29132 0.26746 0.0
C1437 C 9e-05 0.32611 0.26853 0.0
C1438 C 0.98712 0.32655 0.29769 0.0
C1439 C 0.96103 0.31384 0.29723 0.0
C1440 C 0.00013 0.34362 0.32626 0.0
C1441 C 0.02784 0.33656 0.26869 0.0
C1442 C 0.99485 0.33539 0.36001 0.0
C1443 C 0.00528 0.35237 0.38668 0.0
C1444 C 0.02111 0.37786 0.37999 0.0
C1445 C 0.02639 0.38596 0.34616 0.0
C1446 C 0.01584 0.36905 0.31961 0.0
H1447 H 0.03293 0.32571 0.25147 0.0
H1448 H 0.03723 0.35597 0.2591 0.0
H1449 H 0.03493 0.33646 0.29459 0.0
H1450 H 0.9824 0.31593 0.36569 0.0
H1451 H 0.00058 0.34558 0.41251 0.0
H1452 H 0.61653 0.98822 0.72966 0.0
H1453 H 0.61821 0.9665 0.67957 0.0
H1454 H 0.69836 0.00628 0.68461 0.0
H1455 H 0.69684 0.02807 0.73549 0.0
H1456 H 0.68064 0.01309 0.62508 0.0
H1457 H 0.63306 0.91272 0.6524 0.0
H1458 H 0.61512 0.92577 0.66822 0.0
H1459 H 0.6456 0.93588 0.68562 0.0
C1460 C 0.63452 0.99167 0.72106 0.0
C1461 C 0.65657 0.00999 0.73645 0.0
C1462 C 0.63544 0.97912 0.69239 0.0
C1463 C 0.6584 0.98452 0.67862 0.0
C1464 C 0.68046 0.00172 0.69505 0.0
H1465 H 0.65265 0.9549 0.45838 0.0
H1466 H 0.67147 0.96304 0.51523 0.0
C1467 C 0.67955 0.01427 0.72389 0.0
C1468 C 0.65895 0.97566 0.64405 0.0
H1469 H 0.62778 0.92423 0.59434 0.0
C1470 C 0.66986 0.99359 0.6183 0.0
C1471 C 0.64499 0.95023 0.63536 0.0
C1472 C 0.63427 0.93008 0.66199 0.0
C1473 C 0.66481 0.98697 0.58399 0.0
C1474 C 0.64877 0.96176 0.57547 0.0
C1475 C 0.6399 0.94358 0.60106 0.0
C1476 C 0.63756 0.95459 0.54135 0.0
C1477 C 0.67473 0.00721 0.55737 0.0
C1478 C 0.61223 0.94663 0.53753 0.0
C1479 C 0.60147 0.94188 0.50536 0.0
C1480 C 0.61586 0.94502 0.47638 0.0
C1481 C 0.64112 0.9523 0.48031 0.0
C1482 C 0.65191 0.95706 0.51265 0.0
H1483 H 0.68504 0.0261 0.56868 0.0
H1484 H 0.68755 0.00488 0.54025 0.0
H1485 H 0.65924 0.00588 0.54167 0.0
H1486 H 0.60089 0.94465 0.55945 0.0
H1487 H 0.58186 0.93582 0.50318 0.0
H1488 H 0.59822 0.66157 0.99968 0.0
H1489 H 0.62348 0.666 0.94994 0.0
H1490 H 0.67085 0.64935 1.01139 0.0
H1491 H 0.64502 0.64383 1.06109 0.0
H1492 H 0.67513 0.69677 0.93619 0.0
H1493 H 0.64448 0.59579 0.93737 0.0
H1494 H 0.62941 0.60852 0.96259 0.0
H1495 H 0.65902 0.61276 0.9755 0.0
C1496 C 0.61392 0.6587 1.00258 0.0
C1497 C 0.61945 0.65204 1.03418 0.0
C1498 C 0.62851 0.66156 0.97427 0.0
C1499 C 0.64886 0.65781 0.97705 0.0
C1500 C 0.65504 0.65208 1.00876 0.0
H1501 H 0.71005 0.62584 0.79922 0.0
H1502 H 0.71169 0.64159 0.85666 0.0
C1503 C 0.64037 0.64909 1.03712 0.0
C1504 C 0.66226 0.6581 0.94606 0.0
H1505 H 0.66901 0.61937 0.89188 0.0
C1506 C 0.67419 0.67998 0.92666 0.0
C1507 C 0.66101 0.63615 0.93388 0.0
C1508 C 0.64766 0.61189 0.95319 0.0
C1509 C 0.6841 0.68023 0.8946 0.0
C1510 C 0.68167 0.65796 0.88168 0.0
C1511 C 0.671 0.63648 0.90198 0.0
C1512 C 0.68646 0.65514 0.8457 0.0
C1513 C 0.69645 0.70413 0.87455 0.0
C1514 C 0.67251 0.65845 0.82027 0.0
C1515 C 0.67155 0.64948 0.78755 0.0
C1516 C 0.68429 0.6368 0.77991 0.0
C1517 C 0.69985 0.63532 0.80462 0.0
C1518 C 0.70091 0.64441 0.83732 0.0
H1519 H 0.70495 0.72053 0.89168 0.0
H1520 H 0.71104 0.70503 0.85745 0.0
H1521 H 0.68224 0.70534 0.85884 0.0
H1522 H 0.66072 0.66609 0.82633 0.0
H1523 H 0.65916 0.65062 0.76915 0.0
H1524 H 0.04459 0.70829 0.10599 0.0
H1525 H 0.0284 0.70587 0.16343 0.0
H1526 H 0.97887 0.62707 0.15087 0.0
H1527 H 0.995 0.62917 0.09411 0.0
H1528 H 0.95997 0.653 0.19307 0.0
H1529 H 0.0545 0.6703 0.22789 0.0
H1530 H 0.05238 0.69311 0.20218 0.0
H1531 H 0.04284 0.66294 0.18498 0.0
C1532 C 0.02975 0.6906 0.11519 0.0
C1533 C 0.02139 0.66885 0.09583 0.0
C1534 C 0.02048 0.68929 0.14786 0.0
C1535 C 0.00281 0.66623 0.16137 0.0
C1536 C 0.99251 0.64504 0.14074 0.0
H1537 H 0.94284 0.57307 0.3288 0.0
H1538 H 0.95271 0.59602 0.27538 0.0
C1539 C 0.00173 0.64631 0.10821 0.0
C1540 C -0.00168 0.66284 0.19819 0.0
H1541 H 0.0243 0.65504 0.27015 0.0
C1542 C 0.97413 0.654 0.21025 0.0
C1543 C 0.01692 0.66415 0.22034 0.0
C1544 C 0.04312 0.67301 0.20837 0.0
C1545 C 0.96771 0.64522 0.24362 0.0
C1546 C 0.98586 0.64483 0.26494 0.0
C1547 C 0.01043 0.65527 0.25359 0.0
C1548 C 0.97936 0.63139 0.29762 0.0
C1549 C 0.9414 0.63578 0.25539 0.0
C1550 C 0.99191 0.64346 0.32747 0.0
C1551 C 0.98676 0.63024 0.3579 0.0
C1552 C 0.96901 0.60473 0.35891 0.0
C1553 C 0.95678 0.59264 0.3288 0.0
C1554 C 0.96202 0.60584 0.29839 0.0
H1555 H 0.93274 0.64509 0.24148 0.0
H1556 H 0.9301 0.61556 0.25018 0.0
H1557 H 0.94071 0.63878 0.28306 0.0
H1558 H 0.00572 0.66308 0.32719 0.0
H1559 H 0.99673 0.63998 0.38062 0.0
H1560 H 0.48796 0.10598 0.454 0.0
H1561 H 0.50052 0.10588 0.51355 0.0
H1562 H 0.55899 0.09358 0.47923 0.0
H1563 H 0.5475 0.09525 0.42041 0.0
H1564 H 0.50269 0.08129 0.5616 0.0
H1565 H 0.60359 0.13941 0.54424 0.0
H1566 H 0.58229 0.13526 0.51051 0.0
H1567 H 0.59171 0.11246 0.51783 0.0
C1568 C 0.50383 0.10366 0.45881 0.0
C1569 C 0.51666 0.10115 0.43053 0.0
C1570 C 0.51118 0.10349 0.49379 0.0
C1571 C 0.53184 0.10062 0.5034 0.0
C1572 C 0.54398 0.09725 0.47492 0.0
H1573 H 0.60144 0.08664 0.70386 0.0
H1574 H 0.58898 0.08716 0.64432 0.0
C1575 C 0.53696 0.09788 0.44014 0.0
C1576 C 0.53999 0.10043 0.5421 0.0
H1577 H 0.5907 0.11745 0.59635 0.0
C1578 C 0.52211 0.08952 0.5686 0.0
C1579 C 0.56528 0.11094 0.55401 0.0
C1580 C 0.58682 0.1254 0.53028 0.0
C1581 C 0.52818 0.08828 0.60396 0.0
C1582 C 0.55341 0.09835 0.6157 0.0
C1583 C 0.5713 0.10926 0.58925 0.0
C1584 C 0.56153 0.09805 0.65431 0.0
C1585 C 0.50678 0.07524 0.62829 0.0
C1586 C 0.55141 0.10429 0.68254 0.0
C1587 C 0.55876 0.10405 0.71731 0.0
C1588 C 0.57703 0.09774 0.72708 0.0
C1589 C 0.58743 0.09172 0.69896 0.0
C1590 C 0.58011 0.09205 0.66401 0.0
H1591 H 0.4895 0.06146 0.61503 0.0
H1592 H 0.51097 0.06548 0.64848 0.0
H1593 H 0.50306 0.08915 0.64029 0.0
H1594 H 0.53779 0.10989 0.67791 0.0
H1595 H 0.54987 0.10901 0.73689 0.0
H1596 H 0.39824 0.48136 0.78137 0.0
H1597 H 0.40935 0.49272 0.84149 0.0
H1598 H 0.44255 0.57001 0.8147 0.0
H1599 H 0.43343 0.55872 0.75509 0.0
H1600 H 0.40345 0.50803 0.89465 0.0
H1601 H 0.49626 0.58868 0.87434 0.0
H1602 H 0.47384 0.5937 0.8527 0.0
H1603 H 0.47883 0.56863 0.83984 0.0
C1604 C 0.40811 0.50089 0.78799 0.0
C1605 C 0.4148 0.5188 0.76147 0.0
C1606 C 0.41467 0.50764 0.82335 0.0
C1607 C 0.42813 0.53283 0.83522 0.0
C1608 C 0.43371 0.55049 0.80858 0.0
H1609 H 0.50462 0.59368 1.04247 0.0
H1610 H 0.494 0.58113 0.98279 0.0
C1611 C 0.42782 0.5438 0.77335 0.0
C1612 C 0.43548 0.54036 0.87438 0.0
H1613 H 0.47912 0.58568 0.92881 0.0
C1614 C 0.42021 0.52509 0.90145 0.0
C1615 C 0.45766 0.56223 0.88625 0.0
C1616 C 0.47772 0.57909 0.86182 0.0
C1617 C 0.42574 0.53074 0.93732 0.0
C1618 C 0.44698 0.5535 0.94906 0.0
C1619 C 0.46249 0.56851 0.92203 0.0
C1620 C 0.45381 0.56171 0.98809 0.0
C1621 C 0.40884 0.51103 0.96216 0.0
C1622 C 0.43577 0.5564 1.01403 0.0
C1623 C 0.44206 0.56331 1.04918 0.0
C1624 C 0.46696 0.5769 1.06152 0.0
C1625 C 0.48513 0.58325 1.03555 0.0
C1626 C 0.47882 0.57585 1.00043 0.0
H1627 H 0.3998 0.49224 0.95048 0.0
H1628 H 0.41914 0.51072 0.98504 0.0
H1629 H 0.39381 0.51465 0.96988 0.0
H1630 H 0.41631 0.54703 1.00735 0.0
H1631 H 0.42695 0.55793 1.06697 0.0
H1632 H 0.86922 0.42517 0.09844 0.0
H1633 H 0.86801 0.43403 0.15897 0.0
H1634 H 0.91211 0.40052 0.18263 0.0
H1635 H 0.91305 0.39135 0.12189 0.0
H1636 H 0.85022 0.4105 0.21838 0.0
H1637 H 0.95159 0.46112 0.23967 0.0
H1638 H 0.93831 0.45295 0.19762 0.0
H1639 H 0.94001 0.43016 0.22396 0.0
C1640 C 0.87863 0.41936 0.11622 0.0
C1641 C 0.89112 0.40711 0.1034 0.0
C1642 C 0.87795 0.42462 0.15178 0.0
C1643 C 0.89025 0.41869 0.17762 0.0
C1644 C 0.90264 0.40626 0.16486 0.0
H1645 H 0.91542 0.4932 0.38645 0.0
H1646 H 0.91644 0.48221 0.32679 0.0
C1647 C 0.90296 0.40058 0.12923 0.0
C1648 C 0.88973 0.42524 0.21679 0.0
H1649 H 0.92655 0.45272 0.28861 0.0
C1650 C 0.86715 0.41965 0.23333 0.0
C1651 C 0.91128 0.43774 0.23835 0.0
C1652 C 0.93673 0.44612 0.22409 0.0
C1653 C 0.86547 0.42532 0.26866 0.0
C1654 C 0.88692 0.4373 0.29047 0.0
C1655 C 0.9096 0.44338 0.27373 0.0
C1656 C 0.88627 0.4441 0.3295 0.0
C1657 C 0.84025 0.41889 0.28197 0.0
C1658 C 0.8694 0.42699 0.35406 0.0
C1659 C 0.86893 0.43336 0.38929 0.0
C1660 C 0.88512 0.45748 0.40287 0.0
C1661 C 0.90208 0.47451 0.37839 0.0
C1662 C 0.90281 0.46803 0.34336 0.0
H1663 H 0.82735 0.41695 0.26107 0.0
H1664 H 0.83203 0.40085 0.29561 0.0
H1665 H 0.84163 0.43326 0.29992 0.0
H1666 H 0.85655 0.40812 0.34623 0.0
H1667 H 0.85568 0.41907 0.40609 0.0
H1668 H 0.51274 0.91434 0.4525 0.0
H1669 H 0.50071 0.9155 0.51163 0.0
H1670 H 0.4238 0.869 0.48421 0.0
H1671 H 0.43571 0.8696 0.42515 0.0
H1672 H 0.48503 0.89579 0.56576 0.0
H1673 H 0.40458 0.90665 0.53761 0.0
H1674 H 0.39992 0.87846 0.51891 0.0
H1675 H 0.42509 0.90816 0.50457 0.0
C1676 C 0.49313 0.90446 0.45865 0.0
C1677 C 0.47552 0.89221 0.43206 0.0
C1678 C 0.48603 0.90506 0.49351 0.0
C1679 C 0.46073 0.89324 0.50474 0.0
C1680 C 0.44334 0.87985 0.47827 0.0
H1681 H 0.4001 0.91842 0.70522 0.0
H1682 H 0.4133 0.91835 0.64631 0.0
C1683 C 0.45038 0.87973 0.44344 0.0
C1684 C 0.45288 0.89453 0.54314 0.0
H1685 H 0.40734 0.89517 0.59408 0.0
C1686 C 0.46796 0.89572 0.57126 0.0
C1687 C 0.43098 0.89531 0.55317 0.0
C1688 C 0.41436 0.89737 0.52702 0.0
C1689 C 0.46207 0.89711 0.60656 0.0
C1690 C 0.4393 0.89607 0.61661 0.0
C1691 C 0.42449 0.89542 0.58851 0.0
C1692 C 0.43087 0.89625 0.65498 0.0
C1693 C 0.48153 0.90101 0.63259 0.0
C1694 C 0.43521 0.88378 0.68235 0.0
C1695 C 0.42788 0.88423 0.71692 0.0
C1696 C 0.41479 0.89647 0.72706 0.0
C1697 C 0.40979 0.90844 0.6998 0.0
C1698 C 0.41756 0.90838 0.66519 0.0
H1699 H 0.50043 0.91035 0.62126 0.0
H1700 H 0.48163 0.91254 0.65411 0.0
H1701 H 0.47777 0.8827 0.64235 0.0
H1702 H 0.44408 0.87304 0.67727 0.0
H1703 H 0.43237 0.87452 0.73593 0.0
H1704 H 0.60221 0.52209 0.78368 0.0
H1705 H 0.59132 0.5106 0.84395 0.0
H1706 H 0.55682 0.43334 0.81744 0.0
H1707 H 0.56735 0.44472 0.75754 0.0
H1708 H 0.54835 0.48438 0.88383 0.0
H1709 H 0.59735 0.43149 0.89631 0.0
H1710 H 0.60185 0.45117 0.86011 0.0
H1711 H 0.57496 0.4205 0.86243 0.0
C1712 C 0.59252 0.50257 0.79038 0.0
C1713 C 0.58633 0.48466 0.76407 0.0
C1714 C 0.586 0.49582 0.82564 0.0
C1715 C 0.57328 0.4707 0.83744 0.0
C1716 C 0.56702 0.4529 0.81103 0.0
H1717 H 0.57199 0.44043 1.06582 0.0
H1718 H 0.58263 0.45234 1.00582 0.0
C1719 C 0.57313 0.45959 0.77583 0.0
C1720 C 0.56656 0.46314 0.87632 0.0
H1721 H 0.57135 0.42818 0.94229 0.0
C1722 C 0.55351 0.47202 0.89615 0.0
C1723 C 0.57294 0.44712 0.89467 0.0
C1724 C 0.58774 0.43715 0.87753 0.0
C1725 C 0.54659 0.46526 0.93141 0.0
C1726 C 0.55252 0.44882 0.94949 0.0
C1727 C 0.56608 0.44044 0.92992 0.0
C1728 C 0.54539 0.44066 0.98809 0.0
C1729 C 0.53331 0.47654 0.94946 0.0
C1730 C 0.52059 0.42927 1.00079 0.0
C1731 C 0.51425 0.42174 1.0358 0.0
C1732 C 0.53227 0.42536 1.06104 0.0
C1733 C 0.55706 0.43683 1.04837 0.0
C1734 C 0.56331 0.44385 1.01322 0.0
H1735 H 0.53569 0.49337 0.93617 0.0
H1736 H 0.51313 0.46273 0.95044 0.0
H1737 H 0.54019 0.48162 0.97595 0.0
H1738 H 0.50568 0.4258 0.98339 0.0
H1739 H 0.49494 0.41333 1.0432 0.0
H1740 H 0.09116 0.50288 0.38556 0.0
H1741 H 0.08895 0.51282 0.32566 0.0
H1742 H 0.12387 0.59036 0.35058 0.0
H1743 H 0.12641 0.58043 0.41073 0.0
H1744 H 0.0868 0.57994 0.30152 0.0
H1745 H 0.13948 0.53789 0.25 0.0
H1746 H 0.113 0.51679 0.27483 0.0
H1747 H 0.1387 0.54318 0.2949 0.0
C1748 C 0.09888 0.52224 0.37871 0.0
C1749 C 0.10952 0.54059 0.40479 0.0
C1750 C 0.0976 0.52808 0.34345 0.0
C1751 C 0.10661 0.55277 0.33122 0.0
C1752 C 0.11677 0.57109 0.35741 0.0
H1753 H 0.09525 0.55247 0.09886 0.0
H1754 H 0.09635 0.54363 0.15926 0.0
C1755 C 0.11841 0.56528 0.39267 0.0
C1756 C 0.10526 0.55924 0.29218 0.0
H1757 H 0.12056 0.55133 0.20984 0.0
C1758 C 0.09433 0.57356 0.28176 0.0
C1759 C 0.11457 0.55138 0.2644 0.0
C1760 C 0.1273 0.53665 0.27138 0.0
C1761 C 0.09184 0.57922 0.24658 0.0
C1762 C 0.1017 0.57186 0.21864 0.0
C1763 C 0.11275 0.55762 0.22931 0.0
C1764 C 0.10045 0.57795 0.17913 0.0
C1765 C 0.07722 0.59214 0.24011 0.0
C1766 C 0.10235 0.60049 0.16643 0.0
C1767 C 0.10111 0.60546 0.13067 0.0
C1768 C 0.09863 0.58866 0.1044 0.0
C1769 C 0.09723 0.56643 0.11692 0.0
C1770 C 0.09798 0.56127 0.15258 0.0
H1771 H 0.06397 0.58875 0.26108 0.0
H1772 H 0.09021 0.61249 0.2387 0.0
H1773 H 0.06647 0.58573 0.21607 0.0
H1774 H 0.10539 0.61499 0.1841 0.0
H1775 H 0.10259 0.62298 0.12362 0.0
loop_
_geom_bond_atom_site_label_1
_geom_bond_atom_site_label_2
_geom_bond_distance
_geom_bond_site_symmetry_2
_ccdc_geom_bond_type
Gd0 C3 2.818 . S
Gd0 O20 2.377 . S
Gd0 O22 2.448 . S
Gd0 O23 2.506 . S
Gd0 O24 2.435 . S
Gd0 O25 2.717 . S
Gd0 O27 2.395 . S
Gd0 O31 2.327 . S
Gd1 C12 2.818 . S
Gd1 O21 2.395 . S
Gd1 O25 2.327 . S
Gd1 O26 2.377 . S
Gd1 O28 2.448 . S
Gd1 O29 2.506 . S
Gd1 O30 2.435 . S
Gd1 O31 2.717 . S
C2 O20 1.240 . S
C2 O21 1.240 . S
C3 Gd0 2.818 . S
C3 C4 1.510 . S
C3 O22 1.249 . S
C3 O23 1.252 . S
C4 C3 1.510 . S
C4 C5 1.404 . S
C4 C6 1.352 . S
C5 C4 1.404 . S
C5 C9 1.389 . S
C5 H32 0.930 . S
C6 C4 1.352 . S
C6 C8 1.374 . S
C6 H33 0.931 . S
C7 C8 1.359 . S
C7 C9 1.364 . S
C8 C6 1.374 . S
C8 C7 1.359 . S
C8 H34 0.931 . S
C9 C5 1.389 . S
C9 C7 1.364 . S
C9 H35 0.931 . S
C10 O24 1.256 . S
C10 O25 1.257 . S
C11 O26 1.240 . S
C11 O27 1.240 . S
C12 Gd1 2.818 . S
C12 C13 1.510 . S
C12 O28 1.249 . S
C12 O29 1.252 . S
C13 C12 1.510 . S
C13 C14 1.404 . S
C13 C15 1.352 . S
C14 C13 1.404 . S
C14 C18 1.389 . S
C14 H36 0.930 . S
C15 C13 1.352 . S
C15 C17 1.374 . S
C15 H37 0.931 . S
C16 C17 1.359 . S
C16 C18 1.364 . S
C17 C15 1.374 . S
C17 C16 1.359 . S
C17 H38 0.931 . S
C18 C14 1.389 . S
C18 C16 1.364 . S
C18 H39 0.931 . S
C19 O30 1.256 . S
C19 O31 1.257 . S
O20 Gd0 2.377 . S
O20 C2 1.240 . S
O21 Gd1 2.395 . S
O21 C2 1.240 . S
O22 Gd0 2.448 . S
O22 C3 1.249 . S
O23 Gd0 2.506 . S
O23 C3 1.252 . S
O24 Gd0 2.435 . S
O24 C10 1.256 . S
O25 Gd0 2.717 . S
O25 Gd1 2.327 . S
O25 C10 1.257 . S
O26 Gd1 2.377 . S
O26 C11 1.240 . S
O27 Gd0 2.395 . S
O27 C11 1.240 . S
O28 Gd1 2.448 . S
O28 C12 1.249 . S
O29 Gd1 2.506 . S
O29 C12 1.252 . S
O30 Gd1 2.435 . S
O30 C19 1.256 . S
O31 Gd0 2.327 . S
O31 Gd1 2.717 . S
O31 C19 1.257 . S
H32 C5 0.930 . S
H33 C6 0.931 . S
H34 C8 0.931 . S
H35 C9 0.931 . S
H36 C14 0.930 . S
H37 C15 0.931 . S
H38 C17 0.931 . S
H39 C18 0.931 . S
Gd40 C43 2.818 . S
Gd40 O60 2.377 . S
Gd40 O62 2.448 . S
Gd40 O63 2.506 . S
Gd40 O64 2.435 . S
Gd40 O65 2.717 . S
Gd40 O67 2.395 . S
Gd40 O71 2.327 . S
Gd41 C52 2.818 . S
Gd41 O61 2.395 . S
Gd41 O65 2.327 . S
Gd41 O66 2.377 . S
Gd41 O68 2.448 . S
Gd41 O69 2.506 . S
Gd41 O70 2.435 . S
Gd41 O71 2.717 . S
C42 O60 1.240 . S
C42 O61 1.240 . S
C43 Gd40 2.818 . S
C43 C44 1.510 . S
C43 O62 1.249 . S
C43 O63 1.252 . S
C44 C43 1.510 . S
C44 C45 1.404 . S
C44 C46 1.352 . S
C45 C44 1.404 . S
C45 C49 1.389 . S
C45 H72 0.930 . S
C46 C44 1.352 . S
C46 C48 1.374 . S
C46 H73 0.931 . S
C47 C48 1.359 . S
C47 C49 1.364 . S
C48 C46 1.374 . S
C48 C47 1.359 . S
C48 H74 0.931 . S
C49 C45 1.389 . S
C49 C47 1.364 . S
C49 H75 0.931 . S
C50 O64 1.256 . S
C50 O65 1.257 . S
C51 O66 1.240 . S
C51 O67 1.240 . S
C52 Gd41 2.818 . S
C52 C53 1.510 . S
C52 O68 1.249 . S
C52 O69 1.252 . S
C53 C52 1.510 . S
C53 C54 1.404 . S
C53 C55 1.352 . S
C54 C53 1.404 . S
C54 C58 1.389 . S
C54 H76 0.930 . S
C55 C53 1.352 . S
C55 C57 1.374 . S
C55 H77 0.931 . S
C56 C57 1.359 . S
C56 C58 1.364 . S
C57 C55 1.374 . S
C57 C56 1.359 . S
C57 H78 0.931 . S
C58 C54 1.389 . S
C58 C56 1.364 . S
C58 H79 0.931 . S
C59 O70 1.256 . S
C59 O71 1.257 . S
O60 Gd40 2.377 . S
O60 C42 1.240 . S
O61 Gd41 2.395 . S
O61 C42 1.240 . S
O62 Gd40 2.448 . S
O62 C43 1.249 . S
O63 Gd40 2.506 . S
O63 C43 1.252 . S
O64 Gd40 2.435 . S
O64 C50 1.256 . S
O65 Gd40 2.717 . S
O65 Gd41 2.327 . S
O65 C50 1.257 . S
O66 Gd41 2.377 . S
O66 C51 1.240 . S
O67 Gd40 2.395 . S
O67 C51 1.240 . S
O68 Gd41 2.448 . S
O68 C52 1.249 . S
O69 Gd41 2.506 . S
O69 C52 1.252 . S
O70 Gd41 2.435 . S
O70 C59 1.256 . S
O71 Gd40 2.327 . S
O71 Gd41 2.717 . S
O71 C59 1.257 . S
H72 C45 0.930 . S
H73 C46 0.931 . S
H74 C48 0.931 . S
H75 C49 0.931 . S
H76 C54 0.930 . S
H77 C55 0.931 . S
H78 C57 0.931 . S
H79 C58 0.931 . S
Gd80 C83 2.818 . S
Gd80 O100 2.377 . S
Gd80 O102 2.448 . S
Gd80 O103 2.506 . S
Gd80 O104 2.435 . S
Gd80 O105 2.717 . S
Gd80 O107 2.395 . S
Gd80 O111 2.327 . S
Gd81 C92 2.818 . S
Gd81 O101 2.395 . S
Gd81 O105 2.327 . S
Gd81 O106 2.377 . S
Gd81 O108 2.448 . S
Gd81 O109 2.506 . S
Gd81 O110 2.435 . S
Gd81 O111 2.717 . S
C82 O100 1.240 . S
C82 O101 1.240 . S
C83 Gd80 2.818 . S
C83 C84 1.510 1_556 S
C83 O102 1.249 . S
C83 O103 1.252 . S
C84 C83 1.510 1_554 S
C84 C85 1.404 . S
C84 C86 1.352 . S
C85 C84 1.404 . S
C85 C89 1.389 . S
C85 H112 0.930 . S
C86 C84 1.352 . S
C86 C88 1.374 . S
C86 H113 0.931 . S
C87 C88 1.359 . S
C87 C89 1.364 . S
C88 C86 1.374 . S
C88 C87 1.359 . S
C88 H114 0.931 . S
C89 C85 1.389 . S
C89 C87 1.364 . S
C89 H115 0.931 . S
C90 O104 1.256 . S
C90 O105 1.257 . S
C91 O106 1.240 . S
C91 O107 1.240 . S
C92 Gd81 2.818 . S
C92 C93 1.510 . S
C92 O108 1.249 . S
C92 O109 1.252 . S
C93 C92 1.510 . S
C93 C94 1.404 . S
C93 C95 1.352 . S
C94 C93 1.404 . S
C94 C98 1.389 . S
C94 H116 0.930 . S
C95 C93 1.352 . S
C95 C97 1.374 . S
C95 H117 0.931 . S
C96 C97 1.359 . S
C96 C98 1.364 . S
C97 C95 1.374 . S
C97 C96 1.359 . S
C97 H118 0.931 . S
C98 C94 1.389 . S
C98 C96 1.364 . S
C98 H119 0.931 . S
C99 O110 1.256 . S
C99 O111 1.257 . S
O100 Gd80 2.377 . S
O100 C82 1.240 . S
O101 Gd81 2.395 . S
O101 C82 1.240 . S
O102 Gd80 2.448 . S
O102 C83 1.249 . S
O103 Gd80 2.506 . S
O103 C83 1.252 . S
O104 Gd80 2.435 . S
O104 C90 1.256 . S
O105 Gd80 2.717 . S
O105 Gd81 2.327 . S
O105 C90 1.257 . S
O106 Gd81 2.377 . S
O106 C91 1.240 . S
O107 Gd80 2.395 . S
O107 C91 1.240 . S
O108 Gd81 2.448 . S
O108 C92 1.249 . S
O109 Gd81 2.506 . S
O109 C92 1.252 . S
O110 Gd81 2.435 . S
O110 C99 1.256 . S
O111 Gd80 2.327 . S
O111 Gd81 2.717 . S
O111 C99 1.257 . S
H112 C85 0.930 . S
H113 C86 0.931 . S
H114 C88 0.931 . S
H115 C89 0.931 . S
H116 C94 0.930 . S
H117 C95 0.931 . S
H118 C97 0.931 . S
H119 C98 0.931 . S
Gd120 C123 2.818 . S
Gd120 O140 2.377 . S
Gd120 O142 2.448 . S
Gd120 O143 2.506 . S
Gd120 O144 2.435 . S
Gd120 O145 2.717 . S
Gd120 O147 2.395 . S
Gd120 O151 2.327 . S
Gd121 C132 2.818 . S
Gd121 O141 2.395 . S
Gd121 O145 2.327 . S
Gd121 O146 2.377 . S
Gd121 O148 2.448 . S
Gd121 O149 2.506 . S
Gd121 O150 2.435 . S
Gd121 O151 2.717 . S
C122 O140 1.240 . S
C122 O141 1.240 . S
C123 Gd120 2.818 . S
C123 C124 1.510 . S
C123 O142 1.249 . S
C123 O143 1.252 . S
C124 C123 1.510 . S
C124 C125 1.404 . S
C124 C126 1.352 . S
C125 C124 1.404 . S
C125 C129 1.389 . S
C125 H152 0.930 . S
C126 C124 1.352 . S
C126 C128 1.374 . S
C126 H153 0.931 . S
C127 C128 1.359 . S
C127 C129 1.364 . S
C128 C126 1.374 . S
C128 C127 1.359 . S
C128 H154 0.931 . S
C129 C125 1.389 . S
C129 C127 1.364 . S
C129 H155 0.931 . S
C130 O144 1.256 . S
C130 O145 1.257 . S
C131 O146 1.240 . S
C131 O147 1.240 . S
C132 Gd121 2.818 . S
C132 C133 1.510 . S
C132 O148 1.249 . S
C132 O149 1.252 . S
C133 C132 1.510 . S
C133 C134 1.404 . S
C133 C135 1.352 . S
C134 C133 1.404 . S
C134 C138 1.389 . S
C134 H156 0.930 . S
C135 C133 1.352 . S
C135 C137 1.374 . S
C135 H157 0.931 . S
C136 C137 1.359 . S
C136 C138 1.364 . S
C137 C135 1.374 . S
C137 C136 1.359 . S
C137 H158 0.931 . S
C138 C134 1.389 . S
C138 C136 1.364 . S
C138 H159 0.931 . S
C139 O150 1.256 . S
C139 O151 1.257 . S
O140 Gd120 2.377 . S
O140 C122 1.240 . S
O141 Gd121 2.395 . S
O141 C122 1.240 . S
O142 Gd120 2.448 . S
O142 C123 1.249 . S
O143 Gd120 2.506 . S
O143 C123 1.252 . S
O144 Gd120 2.435 . S
O144 C130 1.256 . S
O145 Gd120 2.717 . S
O145 Gd121 2.327 . S
O145 C130 1.257 . S
O146 Gd121 2.377 . S
O146 C131 1.240 . S
O147 Gd120 2.395 . S
O147 C131 1.240 . S
O148 Gd121 2.448 . S
O148 C132 1.249 . S
O149 Gd121 2.506 . S
O149 C132 1.252 . S
O150 Gd121 2.435 . S
O150 C139 1.256 . S
O151 Gd120 2.327 . S
O151 Gd121 2.717 . S
O151 C139 1.257 . S
H152 C125 0.930 . S
H153 C126 0.931 . S
H154 C128 0.931 . S
H155 C129 0.931 . S
H156 C134 0.930 . S
H157 C135 0.931 . S
H158 C137 0.931 . S
H159 C138 0.931 . S
Gd160 C163 2.818 . S
Gd160 O180 2.377 . S
Gd160 O182 2.448 . S
Gd160 O183 2.506 . S
Gd160 O184 2.435 . S
Gd160 O185 2.717 . S
Gd160 O187 2.395 . S
Gd160 O191 2.327 . S
Gd161 C172 2.818 . S
Gd161 O181 2.395 . S
Gd161 O185 2.327 . S
Gd161 O186 2.377 . S
Gd161 O188 2.448 . S
Gd161 O189 2.506 . S
Gd161 O190 2.435 . S
Gd161 O191 2.717 . S
C162 O180 1.240 . S
C162 O181 1.240 . S
C163 Gd160 2.818 . S
C163 C164 1.510 . S
C163 O182 1.249 . S
C163 O183 1.252 . S
C164 C163 1.510 . S
C164 C165 1.404 . S
C164 C166 1.352 . S
C165 C164 1.404 . S
C165 C169 1.389 . S
C165 H192 0.930 . S
C166 C164 1.352 . S
C166 C168 1.374 . S
C166 H193 0.931 . S
C167 C168 1.359 . S
C167 C169 1.364 . S
C168 C166 1.374 . S
C168 C167 1.359 . S
C168 H194 0.931 . S
C169 C165 1.389 . S
C169 C167 1.364 . S
C169 H195 0.931 . S
C170 O184 1.256 . S
C170 O185 1.257 . S
C171 O186 1.240 . S
C171 O187 1.240 . S
C172 Gd161 2.818 . S
C172 C173 1.510 . S
C172 O188 1.249 . S
C172 O189 1.252 . S
C173 C172 1.510 . S
C173 C174 1.404 . S
C173 C175 1.352 . S
C174 C173 1.404 . S
C174 C178 1.389 . S
C174 H196 0.930 . S
C175 C173 1.352 . S
C175 C177 1.374 . S
C175 H197 0.931 . S
C176 C177 1.359 . S
C176 C178 1.364 . S
C177 C175 1.374 . S
C177 C176 1.359 . S
C177 H198 0.931 . S
C178 C174 1.389 . S
C178 C176 1.364 . S
C178 H199 0.931 . S
C179 O190 1.256 . S
C179 O191 1.257 . S
O180 Gd160 2.377 . S
O180 C162 1.240 . S
O181 Gd161 2.395 . S
O181 C162 1.240 . S
O182 Gd160 2.448 . S
O182 C163 1.249 . S
O183 Gd160 2.506 . S
O183 C163 1.252 . S
O184 Gd160 2.435 . S
O184 C170 1.256 . S
O185 Gd160 2.717 . S
O185 Gd161 2.327 . S
O185 C170 1.257 . S
O186 Gd161 2.377 . S
O186 C171 1.240 . S
O187 Gd160 2.395 . S
O187 C171 1.240 . S
O188 Gd161 2.448 . S
O188 C172 1.249 . S
O189 Gd161 2.506 . S
O189 C172 1.252 . S
O190 Gd161 2.435 . S
O190 C179 1.256 . S
O191 Gd160 2.327 . S
O191 Gd161 2.717 . S
O191 C179 1.257 . S
H192 C165 0.930 . S
H193 C166 0.931 . S
H194 C168 0.931 . S
H195 C169 0.931 . S
H196 C174 0.930 . S
H197 C175 0.931 . S
H198 C177 0.931 . S
H199 C178 0.931 . S
Gd200 C203 2.818 . S
Gd200 O220 2.377 . S
Gd200 O222 2.448 . S
Gd200 O223 2.506 . S
Gd200 O224 2.435 . S
Gd200 O225 2.717 . S
Gd200 O227 2.395 . S
Gd200 O231 2.327 . S
Gd201 C212 2.818 . S
Gd201 O221 2.395 . S
Gd201 O225 2.327 . S
Gd201 O226 2.377 . S
Gd201 O228 2.448 . S
Gd201 O229 2.506 . S
Gd201 O230 2.435 . S
Gd201 O231 2.717 . S
C202 O220 1.240 . S
C202 O221 1.240 . S
C203 Gd200 2.818 . S
C203 C204 1.510 1_556 S
C203 O222 1.249 . S
C203 O223 1.252 . S
C204 C203 1.510 1_554 S
C204 C205 1.404 . S
C204 C206 1.352 . S
C205 C204 1.404 . S
C205 C209 1.389 . S
C205 H232 0.930 . S
C206 C204 1.352 . S
C206 C208 1.374 . S
C206 H233 0.931 . S
C207 C208 1.359 . S
C207 C209 1.364 . S
C208 C206 1.374 . S
C208 C207 1.359 . S
C208 H234 0.931 . S
C209 C205 1.389 . S
C209 C207 1.364 . S
C209 H235 0.931 . S
C210 O224 1.256 . S
C210 O225 1.257 . S
C211 O226 1.240 . S
C211 O227 1.240 . S
C212 Gd201 2.818 . S
C212 C213 1.510 . S
C212 O228 1.249 . S
C212 O229 1.252 . S
C213 C212 1.510 . S
C213 C214 1.404 . S
C213 C215 1.352 . S
C214 C213 1.404 . S
C214 C218 1.389 . S
C214 H236 0.930 . S
C215 C213 1.352 . S
C215 C217 1.374 . S
C215 H237 0.931 . S
C216 C217 1.359 . S
C216 C218 1.364 . S
C217 C215 1.374 . S
C217 C216 1.359 . S
C217 H238 0.931 . S
C218 C214 1.389 . S
C218 C216 1.364 . S
C218 H239 0.931 . S
C219 O230 1.256 . S
C219 O231 1.257 . S
O220 Gd200 2.377 . S
O220 C202 1.240 . S
O221 Gd201 2.395 . S
O221 C202 1.240 . S
O222 Gd200 2.448 . S
O222 C203 1.249 . S
O223 Gd200 2.506 . S
O223 C203 1.252 . S
O224 Gd200 2.435 . S
O224 C210 1.256 . S
O225 Gd200 2.717 . S
O225 Gd201 2.327 . S
O225 C210 1.257 . S
O226 Gd201 2.377 . S
O226 C211 1.240 . S
O227 Gd200 2.395 . S
O227 C211 1.240 . S
O228 Gd201 2.448 . S
O228 C212 1.249 . S
O229 Gd201 2.506 . S
O229 C212 1.252 . S
O230 Gd201 2.435 . S
O230 C219 1.256 . S
O231 Gd200 2.327 . S
O231 Gd201 2.717 . S
O231 C219 1.257 . S
H232 C205 0.930 . S
H233 C206 0.931 . S
H234 C208 0.931 . S
H235 C209 0.931 . S
H236 C214 0.930 . S
H237 C215 0.931 . S
H238 C217 0.931 . S
H239 C218 0.931 . S
Gd240 C243 2.818 . S
Gd240 O260 2.377 . S
Gd240 O262 2.448 . S
Gd240 O263 2.506 . S
Gd240 O264 2.435 . S
Gd240 O265 2.717 . S
Gd240 O267 2.395 . S
Gd240 O271 2.327 . S
Gd241 C252 2.818 . S
Gd241 O261 2.395 . S
Gd241 O265 2.327 . S
Gd241 O266 2.377 . S
Gd241 O268 2.448 . S
Gd241 O269 2.506 . S
Gd241 O270 2.435 . S
Gd241 O271 2.717 . S
C242 O260 1.240 . S
C242 O261 1.240 . S
C243 Gd240 2.818 . S
C243 C244 1.510 . S
C243 O262 1.249 . S
C243 O263 1.252 . S
C244 C243 1.510 . S
C244 C245 1.404 . S
C244 C246 1.352 . S
C245 C244 1.404 . S
C245 C249 1.389 . S
C245 H272 0.930 . S
C246 C244 1.352 . S
C246 C248 1.374 . S
C246 H273 0.931 . S
C247 C248 1.359 . S
C247 C249 1.364 . S
C248 C246 1.374 . S
C248 C247 1.359 . S
C248 H274 0.931 . S
C249 C245 1.389 . S
C249 C247 1.364 . S
C249 H275 0.931 . S
C250 O264 1.256 . S
C250 O265 1.257 . S
C251 O266 1.240 . S
C251 O267 1.240 . S
C252 Gd241 2.818 . S
C252 C253 1.510 . S
C252 O268 1.249 . S
C252 O269 1.252 . S
C253 C252 1.510 . S
C253 C254 1.404 . S
C253 C255 1.352 . S
C254 C253 1.404 . S
C254 C258 1.389 . S
C254 H276 0.930 . S
C255 C253 1.352 . S
C255 C257 1.374 . S
C255 H277 0.931 . S
C256 C257 1.359 . S
C256 C258 1.364 . S
C257 C255 1.374 . S
C257 C256 1.359 . S
C257 H278 0.931 . S
C258 C254 1.389 . S
C258 C256 1.364 . S
C258 H279 0.931 . S
C259 O270 1.256 . S
C259 O271 1.257 . S
O260 Gd240 2.377 . S
O260 C242 1.240 . S
O261 Gd241 2.395 . S
O261 C242 1.240 . S
O262 Gd240 2.448 . S
O262 C243 1.249 . S
O263 Gd240 2.506 . S
O263 C243 1.252 . S
O264 Gd240 2.435 . S
O264 C250 1.256 . S
O265 Gd240 2.717 . S
O265 Gd241 2.327 . S
O265 C250 1.257 . S
O266 Gd241 2.377 . S
O266 C251 1.240 . S
O267 Gd240 2.395 . S
O267 C251 1.240 . S
O268 Gd241 2.448 . S
O268 C252 1.249 . S
O269 Gd241 2.506 . S
O269 C252 1.252 . S
O270 Gd241 2.435 . S
O270 C259 1.256 . S
O271 Gd240 2.327 . S
O271 Gd241 2.717 . S
O271 C259 1.257 . S
H272 C245 0.930 . S
H273 C246 0.931 . S
H274 C248 0.931 . S
H275 C249 0.931 . S
H276 C254 0.930 . S
H277 C255 0.931 . S
H278 C257 0.931 . S
H279 C258 0.931 . S
Gd280 C283 2.818 . S
Gd280 O300 2.377 . S
Gd280 O302 2.448 . S
Gd280 O303 2.506 . S
Gd280 O304 2.435 . S
Gd280 O305 2.717 . S
Gd280 O307 2.395 . S
Gd280 O311 2.327 . S
Gd281 C292 2.818 . S
Gd281 O301 2.395 . S
Gd281 O305 2.327 . S
Gd281 O306 2.377 . S
Gd281 O308 2.448 . S
Gd281 O309 2.506 . S
Gd281 O310 2.435 . S
Gd281 O311 2.717 . S
C282 O300 1.240 . S
C282 O301 1.240 . S
C283 Gd280 2.818 . S
C283 C284 1.510 . S
C283 O302 1.249 . S
C283 O303 1.252 . S
C284 C283 1.510 . S
C284 C285 1.404 . S
C284 C286 1.352 . S
C285 C284 1.404 . S
C285 C289 1.389 . S
C285 H312 0.930 . S
C286 C284 1.352 . S
C286 C288 1.374 . S
C286 H313 0.931 . S
C287 C288 1.359 . S
C287 C289 1.364 . S
C288 C286 1.374 . S
C288 C287 1.359 . S
C288 H314 0.931 . S
C289 C285 1.389 . S
C289 C287 1.364 . S
C289 H315 0.931 . S
C290 O304 1.256 . S
C290 O305 1.257 . S
C291 O306 1.240 . S
C291 O307 1.240 . S
C292 Gd281 2.818 . S
C292 C293 1.510 . S
C292 O308 1.249 . S
C292 O309 1.252 . S
C293 C292 1.510 . S
C293 C294 1.404 . S
C293 C295 1.352 . S
C294 C293 1.404 . S
C294 C298 1.389 . S
C294 H316 0.930 . S
C295 C293 1.352 . S
C295 C297 1.374 . S
C295 H317 0.931 . S
C296 C297 1.359 . S
C296 C298 1.364 . S
C297 C295 1.374 . S
C297 C296 1.359 . S
C297 H318 0.931 . S
C298 C294 1.389 . S
C298 C296 1.364 . S
C298 H319 0.931 . S
C299 O310 1.256 . S
C299 O311 1.257 . S
O300 Gd280 2.377 . S
O300 C282 1.240 . S
O301 Gd281 2.395 . S
O301 C282 1.240 . S
O302 Gd280 2.448 . S
O302 C283 1.249 . S
O303 Gd280 2.506 . S
O303 C283 1.252 . S
O304 Gd280 2.435 . S
O304 C290 1.256 . S
O305 Gd280 2.717 . S
O305 Gd281 2.327 . S
O305 C290 1.257 . S
O306 Gd281 2.377 . S
O306 C291 1.240 . S
O307 Gd280 2.395 . S
O307 C291 1.240 . S
O308 Gd281 2.448 . S
O308 C292 1.249 . S
O309 Gd281 2.506 . S
O309 C292 1.252 . S
O310 Gd281 2.435 . S
O310 C299 1.256 . S
O311 Gd280 2.327 . S
O311 Gd281 2.717 . S
O311 C299 1.257 . S
H312 C285 0.930 . S
H313 C286 0.931 . S
H314 C288 0.931 . S
H315 C289 0.931 . S
H316 C294 0.930 . S
H317 C295 0.931 . S
H318 C297 0.931 . S
H319 C298 0.931 . S
Gd320 C323 2.818 . S
Gd320 O340 2.377 . S
Gd320 O342 2.448 . S
Gd320 O343 2.506 . S
Gd320 O344 2.435 . S
Gd320 O345 2.717 . S
Gd320 O347 2.395 . S
Gd320 O351 2.327 . S
Gd321 C332 2.818 . S
Gd321 O341 2.395 . S
Gd321 O345 2.327 . S
Gd321 O346 2.377 . S
Gd321 O348 2.448 . S
Gd321 O349 2.506 . S
Gd321 O350 2.435 . S
Gd321 O351 2.717 . S
C322 O340 1.240 . S
C322 O341 1.240 . S
C323 Gd320 2.818 . S
C323 C324 1.510 1_554 S
C323 O342 1.249 . S
C323 O343 1.252 . S
C324 C323 1.510 1_556 S
C324 C325 1.404 . S
C324 C326 1.352 . S
C325 C324 1.404 . S
C325 C329 1.389 . S
C325 H352 0.930 . S
C326 C324 1.352 . S
C326 C328 1.374 . S
C326 H353 0.931 . S
C327 C328 1.359 . S
C327 C329 1.364 . S
C328 C326 1.374 . S
C328 C327 1.359 . S
C328 H354 0.931 . S
C329 C325 1.389 . S
C329 C327 1.364 . S
C329 H355 0.931 . S
C330 O344 1.256 . S
C330 O345 1.257 . S
C331 O346 1.240 . S
C331 O347 1.240 . S
C332 Gd321 2.818 . S
C332 C333 1.510 . S
C332 O348 1.249 . S
C332 O349 1.252 . S
C333 C332 1.510 . S
C333 C334 1.404 . S
C333 C335 1.352 . S
C334 C333 1.404 . S
C334 C338 1.389 . S
C334 H356 0.930 . S
C335 C333 1.352 . S
C335 C337 1.374 . S
C335 H357 0.931 . S
C336 C337 1.359 . S
C336 C338 1.364 . S
C337 C335 1.374 . S
C337 C336 1.359 . S
C337 H358 0.931 . S
C338 C334 1.389 . S
C338 C336 1.364 . S
C338 H359 0.931 . S
C339 O350 1.256 . S
C339 O351 1.257 . S
O340 Gd320 2.377 . S
O340 C322 1.240 . S
O341 Gd321 2.395 . S
O341 C322 1.240 . S
O342 Gd320 2.448 . S
O342 C323 1.249 . S
O343 Gd320 2.506 . S
O343 C323 1.252 . S
O344 Gd320 2.435 . S
O344 C330 1.256 . S
O345 Gd320 2.717 . S
O345 Gd321 2.327 . S
O345 C330 1.257 . S
O346 Gd321 2.377 . S
O346 C331 1.240 . S
O347 Gd320 2.395 . S
O347 C331 1.240 . S
O348 Gd321 2.448 . S
O348 C332 1.249 . S
O349 Gd321 2.506 . S
O349 C332 1.252 . S
O350 Gd321 2.435 . S
O350 C339 1.256 . S
O351 Gd320 2.327 . S
O351 Gd321 2.717 . S
O351 C339 1.257 . S
H352 C325 0.930 . S
H353 C326 0.931 . S
H354 C328 0.931 . S
H355 C329 0.931 . S
H356 C334 0.930 . S
H357 C335 0.931 . S
H358 C337 0.931 . S
H359 C338 0.931 . S
Gd360 C363 2.818 . S
Gd360 O380 2.377 . S
Gd360 O382 2.448 . S
Gd360 O383 2.506 . S
Gd360 O384 2.435 . S
Gd360 O385 2.717 . S
Gd360 O387 2.395 . S
Gd360 O391 2.327 . S
Gd361 C372 2.818 . S
Gd361 O381 2.395 . S
Gd361 O385 2.327 . S
Gd361 O386 2.377 . S
Gd361 O388 2.448 . S
Gd361 O389 2.506 . S
Gd361 O390 2.435 . S
Gd361 O391 2.717 . S
C362 O380 1.240 . S
C362 O381 1.240 . S
C363 Gd360 2.818 . S
C363 C364 1.510 . S
C363 O382 1.249 . S
C363 O383 1.252 . S
C364 C363 1.510 . S
C364 C365 1.404 . S
C364 C366 1.352 . S
C365 C364 1.404 . S
C365 C369 1.389 . S
C365 H392 0.930 . S
C366 C364 1.352 . S
C366 C368 1.374 . S
C366 H393 0.931 . S
C367 C368 1.359 . S
C367 C369 1.364 . S
C368 C366 1.374 . S
C368 C367 1.359 . S
C368 H394 0.931 . S
C369 C365 1.389 . S
C369 C367 1.364 . S
C369 H395 0.931 . S
C370 O384 1.256 . S
C370 O385 1.257 . S
C371 O386 1.240 . S
C371 O387 1.240 . S
C372 Gd361 2.818 . S
C372 C373 1.510 . S
C372 O388 1.249 . S
C372 O389 1.252 . S
C373 C372 1.510 . S
C373 C374 1.404 . S
C373 C375 1.352 . S
C374 C373 1.404 . S
C374 C378 1.389 . S
C374 H396 0.930 . S
C375 C373 1.352 . S
C375 C377 1.374 . S
C375 H397 0.931 . S
C376 C377 1.359 . S
C376 C378 1.364 . S
C377 C375 1.374 . S
C377 C376 1.359 . S
C377 H398 0.931 . S
C378 C374 1.389 . S
C378 C376 1.364 . S
C378 H399 0.931 . S
C379 O390 1.256 . S
C379 O391 1.257 . S
O380 Gd360 2.377 . S
O380 C362 1.240 . S
O381 Gd361 2.395 . S
O381 C362 1.240 . S
O382 Gd360 2.448 . S
O382 C363 1.249 . S
O383 Gd360 2.506 . S
O383 C363 1.252 . S
O384 Gd360 2.435 . S
O384 C370 1.256 . S
O385 Gd360 2.717 . S
O385 Gd361 2.327 . S
O385 C370 1.257 . S
O386 Gd361 2.377 . S
O386 C371 1.240 . S
O387 Gd360 2.395 . S
O387 C371 1.240 . S
O388 Gd361 2.448 . S
O388 C372 1.249 . S
O389 Gd361 2.506 . S
O389 C372 1.252 . S
O390 Gd361 2.435 . S
O390 C379 1.256 . S
O391 Gd360 2.327 . S
O391 Gd361 2.717 . S
O391 C379 1.257 . S
H392 C365 0.930 . S
H393 C366 0.931 . S
H394 C368 0.931 . S
H395 C369 0.931 . S
H396 C374 0.930 . S
H397 C375 0.931 . S
H398 C377 0.931 . S
H399 C378 0.931 . S
Gd400 C403 2.818 . S
Gd400 O420 2.377 . S
Gd400 O422 2.448 . S
Gd400 O423 2.506 . S
Gd400 O424 2.435 . S
Gd400 O425 2.717 . S
Gd400 O427 2.395 . S
Gd400 O431 2.327 . S
Gd401 C412 2.818 . S
Gd401 O421 2.395 . S
Gd401 O425 2.327 . S
Gd401 O426 2.377 . S
Gd401 O428 2.448 . S
Gd401 O429 2.506 . S
Gd401 O430 2.435 . S
Gd401 O431 2.717 . S
C402 O420 1.240 . S
C402 O421 1.240 . S
C403 Gd400 2.818 . S
C403 C404 1.510 . S
C403 O422 1.249 . S
C403 O423 1.252 . S
C404 C403 1.510 . S
C404 C405 1.404 . S
C404 C406 1.352 . S
C405 C404 1.404 . S
C405 C409 1.389 . S
C405 H432 0.930 . S
C406 C404 1.352 . S
C406 C408 1.374 . S
C406 H433 0.931 . S
C407 C408 1.359 . S
C407 C409 1.364 . S
C408 C406 1.374 . S
C408 C407 1.359 . S
C408 H434 0.931 . S
C409 C405 1.389 . S
C409 C407 1.364 . S
C409 H435 0.931 . S
C410 O424 1.256 . S
C410 O425 1.257 . S
C411 O426 1.240 . S
C411 O427 1.240 . S
C412 Gd401 2.818 . S
C412 C413 1.510 . S
C412 O428 1.249 . S
C412 O429 1.252 . S
C413 C412 1.510 . S
C413 C414 1.404 . S
C413 C415 1.352 . S
C414 C413 1.404 . S
C414 C418 1.389 . S
C414 H436 0.930 . S
C415 C413 1.352 . S
C415 C417 1.374 . S
C415 H437 0.931 . S
C416 C417 1.359 . S
C416 C418 1.364 . S
C417 C415 1.374 . S
C417 C416 1.359 . S
C417 H438 0.931 . S
C418 C414 1.389 . S
C418 C416 1.364 . S
C418 H439 0.931 . S
C419 O430 1.256 . S
C419 O431 1.257 . S
O420 Gd400 2.377 . S
O420 C402 1.240 . S
O421 Gd401 2.395 . S
O421 C402 1.240 . S
O422 Gd400 2.448 . S
O422 C403 1.249 . S
O423 Gd400 2.506 . S
O423 C403 1.252 . S
O424 Gd400 2.435 . S
O424 C410 1.256 . S
O425 Gd400 2.717 . S
O425 Gd401 2.327 . S
O425 C410 1.257 . S
O426 Gd401 2.377 . S
O426 C411 1.240 . S
O427 Gd400 2.395 . S
O427 C411 1.240 . S
O428 Gd401 2.448 . S
O428 C412 1.249 . S
O429 Gd401 2.506 . S
O429 C412 1.252 . S
O430 Gd401 2.435 . S
O430 C419 1.256 . S
O431 Gd400 2.327 . S
O431 Gd401 2.717 . S
O431 C419 1.257 . S
H432 C405 0.930 . S
H433 C406 0.931 . S
H434 C408 0.931 . S
H435 C409 0.931 . S
H436 C414 0.930 . S
H437 C415 0.931 . S
H438 C417 0.931 . S
H439 C418 0.931 . S
Gd440 C443 2.818 . S
Gd440 O460 2.377 . S
Gd440 O462 2.448 . S
Gd440 O463 2.506 . S
Gd440 O464 2.435 . S
Gd440 O465 2.717 . S
Gd440 O467 2.395 . S
Gd440 O471 2.327 . S
Gd441 C452 2.818 . S
Gd441 O461 2.395 . S
Gd441 O465 2.327 . S
Gd441 O466 2.377 . S
Gd441 O468 2.448 . S
Gd441 O469 2.506 . S
Gd441 O470 2.435 . S
Gd441 O471 2.717 . S
C442 O460 1.240 . S
C442 O461 1.240 . S
C443 Gd440 2.818 . S
C443 C444 1.510 1_554 S
C443 O462 1.249 . S
C443 O463 1.252 . S
C444 C443 1.510 1_556 S
C444 C445 1.404 . S
C444 C446 1.352 . S
C445 C444 1.404 . S
C445 C449 1.389 . S
C445 H472 0.930 . S
C446 C444 1.352 . S
C446 C448 1.374 . S
C446 H473 0.931 . S
C447 C448 1.359 . S
C447 C449 1.364 . S
C448 C446 1.374 . S
C448 C447 1.359 . S
C448 H474 0.931 . S
C449 C445 1.389 . S
C449 C447 1.364 . S
C449 H475 0.931 . S
C450 O464 1.256 . S
C450 O465 1.257 . S
C451 O466 1.240 . S
C451 O467 1.240 . S
C452 Gd441 2.818 . S
C452 C453 1.510 . S
C452 O468 1.249 . S
C452 O469 1.252 . S
C453 C452 1.510 . S
C453 C454 1.404 . S
C453 C455 1.352 . S
C454 C453 1.404 . S
C454 C458 1.389 . S
C454 H476 0.930 . S
C455 C453 1.352 . S
C455 C457 1.374 . S
C455 H477 0.931 . S
C456 C457 1.359 . S
C456 C458 1.364 . S
C457 C455 1.374 . S
C457 C456 1.359 . S
C457 H478 0.931 . S
C458 C454 1.389 . S
C458 C456 1.364 . S
C458 H479 0.931 . S
C459 O470 1.256 . S
C459 O471 1.257 . S
O460 Gd440 2.377 . S
O460 C442 1.240 . S
O461 Gd441 2.395 . S
O461 C442 1.240 . S
O462 Gd440 2.448 . S
O462 C443 1.249 . S
O463 Gd440 2.506 . S
O463 C443 1.252 . S
O464 Gd440 2.435 . S
O464 C450 1.256 . S
O465 Gd440 2.717 . S
O465 Gd441 2.327 . S
O465 C450 1.257 . S
O466 Gd441 2.377 . S
O466 C451 1.240 . S
O467 Gd440 2.395 . S
O467 C451 1.240 . S
O468 Gd441 2.448 . S
O468 C452 1.249 . S
O469 Gd441 2.506 . S
O469 C452 1.252 . S
O470 Gd441 2.435 . S
O470 C459 1.256 . S
O471 Gd440 2.327 . S
O471 Gd441 2.717 . S
O471 C459 1.257 . S
H472 C445 0.930 . S
H473 C446 0.931 . S
H474 C448 0.931 . S
H475 C449 0.931 . S
H476 C454 0.930 . S
H477 C455 0.931 . S
H478 C457 0.931 . S
H479 C458 0.931 . S
H480 C488 0.929 . S
H481 C490 0.930 . S
H482 C492 0.930 . S
H483 C495 0.929 . S
H484 C498 0.930 . S
H485 C500 0.960 . S
H486 C500 0.960 . S
H487 C500 0.960 . S
C488 H480 0.929 . S
C488 C489 1.377 . S
C488 C490 1.384 . S
C489 C488 1.377 . S
C489 C495 1.390 . S
C490 H481 0.930 . S
C490 C488 1.384 . S
C490 C491 1.372 . S
C491 C490 1.372 . S
C491 C492 1.400 . S
C491 C496 1.490 . S
C492 H482 0.930 . S
C492 C491 1.400 . S
C492 C495 1.386 . S
H493 C509 0.930 . S
H494 C510 0.931 . S
C495 H483 0.929 . S
C495 C489 1.390 . S
C495 C492 1.386 . S
C496 C491 1.490 . S
C496 C498 1.395 . S
C496 C499 1.403 . S
H497 C503 0.930 . S
C498 H484 0.930 . S
C498 C496 1.395 . S
C498 C501 1.403 . S
C499 C496 1.403 . S
C499 C500 1.524 . S
C499 C503 1.400 . S
C500 H485 0.960 . S
C500 H486 0.960 . S
C500 H487 0.960 . S
C500 C499 1.524 . S
C501 C498 1.403 . S
C501 C502 1.392 . S
C501 C505 1.495 . S
C502 C501 1.392 . S
C502 C503 1.385 . S
C502 C504 1.478 . S
C503 H497 0.930 . S
C503 C499 1.400 . S
C503 C502 1.385 . S
C504 C502 1.478 . S
C504 C506 1.381 . S
C504 C510 1.383 . S
C505 C501 1.495 . S
C505 H511 0.959 . S
C505 H512 0.961 . S
C505 H513 0.960 . S
C506 C504 1.381 . S
C506 C507 1.394 . S
C506 H514 0.930 . S
C507 C506 1.394 . S
C507 C508 1.383 . S
C507 H515 0.929 . S
C508 C507 1.383 . S
C508 C509 1.377 . S
C509 H493 0.930 . S
C509 C508 1.377 . S
C509 C510 1.379 . S
C510 H494 0.931 . S
C510 C504 1.383 . S
C510 C509 1.379 . S
H511 C505 0.959 . S
H512 C505 0.961 . S
H513 C505 0.960 . S
H514 C506 0.930 . S
H515 C507 0.929 . S
H516 C524 0.929 . S
H517 C526 0.930 . S
H518 C528 0.930 . S
H519 C531 0.929 . S
H520 C534 0.930 . S
H521 C536 0.960 . S
H522 C536 0.960 . S
H523 C536 0.960 . S
C524 H516 0.929 . S
C524 C525 1.377 . S
C524 C526 1.384 . S
C525 C524 1.377 . S
C525 C531 1.390 . S
C526 H517 0.930 . S
C526 C524 1.384 . S
C526 C527 1.372 . S
C527 C526 1.372 . S
C527 C528 1.400 . S
C527 C532 1.490 . S
C528 H518 0.930 . S
C528 C527 1.400 . S
C528 C531 1.386 . S
H529 C545 0.930 . S
H530 C546 0.931 . S
C531 H519 0.929 . S
C531 C525 1.390 . S
C531 C528 1.386 . S
C532 C527 1.490 . S
C532 C534 1.395 . S
C532 C535 1.403 . S
H533 C539 0.930 . S
C534 H520 0.930 . S
C534 C532 1.395 . S
C534 C537 1.403 . S
C535 C532 1.403 . S
C535 C536 1.524 . S
C535 C539 1.400 . S
C536 H521 0.960 . S
C536 H522 0.960 . S
C536 H523 0.960 . S
C536 C535 1.524 . S
C537 C534 1.403 . S
C537 C538 1.392 . S
C537 C541 1.495 . S
C538 C537 1.392 . S
C538 C539 1.385 . S
C538 C540 1.478 . S
C539 H533 0.930 . S
C539 C535 1.400 . S
C539 C538 1.385 . S
C540 C538 1.478 . S
C540 C542 1.381 . S
C540 C546 1.383 . S
C541 C537 1.495 . S
C541 H547 0.959 . S
C541 H548 0.961 . S
C541 H549 0.960 . S
C542 C540 1.381 . S
C542 C543 1.394 . S
C542 H550 0.930 . S
C543 C542 1.394 . S
C543 C544 1.383 . S
C543 H551 0.929 . S
C544 C543 1.383 . S
C544 C545 1.377 . S
C545 H529 0.930 . S
C545 C544 1.377 . S
C545 C546 1.379 . S
C546 H530 0.931 . S
C546 C540 1.383 . S
C546 C545 1.379 . S
H547 C541 0.959 . S
H548 C541 0.961 . S
H549 C541 0.960 . S
H550 C542 0.930 . S
H551 C543 0.929 . S
H552 C560 0.929 . S
H553 C562 0.930 . S
H554 C564 0.930 . S
H555 C567 0.929 . S
H556 C570 0.930 . S
H557 C572 0.960 . S
H558 C572 0.960 . S
H559 C572 0.960 . S
C560 H552 0.929 . S
C560 C561 1.377 . S
C560 C562 1.384 . S
C561 C560 1.377 . S
C561 C567 1.390 . S
C562 H553 0.930 . S
C562 C560 1.384 . S
C562 C563 1.372 . S
C563 C562 1.372 . S
C563 C564 1.400 . S
C563 C568 1.490 . S
C564 H554 0.930 . S
C564 C563 1.400 . S
C564 C567 1.386 . S
H565 C581 0.930 . S
H566 C582 0.931 . S
C567 H555 0.929 . S
C567 C561 1.390 . S
C567 C564 1.386 . S
C568 C563 1.490 . S
C568 C570 1.395 . S
C568 C571 1.403 . S
H569 C575 0.930 . S
C570 H556 0.930 . S
C570 C568 1.395 . S
C570 C573 1.403 . S
C571 C568 1.403 . S
C571 C572 1.524 . S
C571 C575 1.400 . S
C572 H557 0.960 . S
C572 H558 0.960 . S
C572 H559 0.960 . S
C572 C571 1.524 . S
C573 C570 1.403 . S
C573 C574 1.392 . S
C573 C577 1.495 . S
C574 C573 1.392 . S
C574 C575 1.385 . S
C574 C576 1.478 . S
C575 H569 0.930 . S
C575 C571 1.400 . S
C575 C574 1.385 . S
C576 C574 1.478 . S
C576 C578 1.381 . S
C576 C582 1.383 . S
C577 C573 1.495 . S
C577 H583 0.959 . S
C577 H584 0.961 . S
C577 H585 0.960 . S
C578 C576 1.381 . S
C578 C579 1.394 . S
C578 H586 0.930 . S
C579 C578 1.394 . S
C579 C580 1.383 . S
C579 H587 0.929 . S
C580 C579 1.383 . S
C580 C581 1.377 . S
C581 H565 0.930 . S
C581 C580 1.377 . S
C581 C582 1.379 . S
C582 H566 0.931 . S
C582 C576 1.383 . S
C582 C581 1.379 . S
H583 C577 0.959 . S
H584 C577 0.961 . S
H585 C577 0.960 . S
H586 C578 0.930 . S
H587 C579 0.929 . S
H588 C596 0.929 . S
H589 C598 0.930 . S
H590 C600 0.930 . S
H591 C603 0.929 . S
H592 C606 0.930 . S
H593 C608 0.960 . S
H594 C608 0.960 . S
H595 C608 0.960 . S
C596 H588 0.929 . S
C596 C597 1.377 . S
C596 C598 1.384 . S
C597 C596 1.377 . S
C597 C603 1.390 . S
C598 H589 0.930 . S
C598 C596 1.384 . S
C598 C599 1.372 . S
C599 C598 1.372 . S
C599 C600 1.400 . S
C599 C604 1.490 . S
C600 H590 0.930 . S
C600 C599 1.400 . S
C600 C603 1.386 . S
H601 C617 0.930 . S
H602 C618 0.931 . S
C603 H591 0.929 . S
C603 C597 1.390 . S
C603 C600 1.386 . S
C604 C599 1.490 . S
C604 C606 1.395 . S
C604 C607 1.403 . S
H605 C611 0.930 . S
C606 H592 0.930 . S
C606 C604 1.395 . S
C606 C609 1.403 . S
C607 C604 1.403 . S
C607 C608 1.524 . S
C607 C611 1.400 . S
C608 H593 0.960 . S
C608 H594 0.960 . S
C608 H595 0.960 . S
C608 C607 1.524 . S
C609 C606 1.403 . S
C609 C610 1.392 . S
C609 C613 1.495 . S
C610 C609 1.392 . S
C610 C611 1.385 . S
C610 C612 1.478 . S
C611 H605 0.930 . S
C611 C607 1.400 . S
C611 C610 1.385 . S
C612 C610 1.478 . S
C612 C614 1.381 . S
C612 C618 1.383 . S
C613 C609 1.495 . S
C613 H619 0.959 . S
C613 H620 0.961 . S
C613 H621 0.960 . S
C614 C612 1.381 . S
C614 C615 1.394 . S
C614 H622 0.930 . S
C615 C614 1.394 . S
C615 C616 1.383 . S
C615 H623 0.929 . S
C616 C615 1.383 . S
C616 C617 1.377 . S
C617 H601 0.930 . S
C617 C616 1.377 . S
C617 C618 1.379 . S
C618 H602 0.931 . S
C618 C612 1.383 . S
C618 C617 1.379 . S
H619 C613 0.959 . S
H620 C613 0.961 . S
H621 C613 0.960 . S
H622 C614 0.930 . S
H623 C615 0.929 . S
H624 C632 0.929 . S
H625 C634 0.930 . S
H626 C636 0.930 . S
H627 C639 0.929 . S
H628 C642 0.930 . S
H629 C644 0.960 . S
H630 C644 0.960 . S
H631 C644 0.960 . S
C632 H624 0.929 . S
C632 C633 1.377 . S
C632 C634 1.384 . S
C633 C632 1.377 . S
C633 C639 1.390 . S
C634 H625 0.930 . S
C634 C632 1.384 . S
C634 C635 1.372 . S
C635 C634 1.372 . S
C635 C636 1.400 . S
C635 C640 1.490 . S
C636 H626 0.930 . S
C636 C635 1.400 . S
C636 C639 1.386 . S
H637 C653 0.930 . S
H638 C654 0.931 . S
C639 H627 0.929 . S
C639 C633 1.390 . S
C639 C636 1.386 . S
C640 C635 1.490 . S
C640 C642 1.395 . S
C640 C643 1.403 . S
H641 C647 0.930 . S
C642 H628 0.930 . S
C642 C640 1.395 . S
C642 C645 1.403 . S
C643 C640 1.403 . S
C643 C644 1.524 . S
C643 C647 1.400 . S
C644 H629 0.960 . S
C644 H630 0.960 . S
C644 H631 0.960 . S
C644 C643 1.524 . S
C645 C642 1.403 . S
C645 C646 1.392 . S
C645 C649 1.495 . S
C646 C645 1.392 . S
C646 C647 1.385 . S
C646 C648 1.478 . S
C647 H641 0.930 . S
C647 C643 1.400 . S
C647 C646 1.385 . S
C648 C646 1.478 . S
C648 C650 1.381 . S
C648 C654 1.383 . S
C649 C645 1.495 . S
C649 H655 0.959 . S
C649 H656 0.961 . S
C649 H657 0.960 . S
C650 C648 1.381 . S
C650 C651 1.394 . S
C650 H658 0.930 . S
C651 C650 1.394 . S
C651 C652 1.383 . S
C651 H659 0.929 . S
C652 C651 1.383 . S
C652 C653 1.377 . S
C653 H637 0.930 . S
C653 C652 1.377 . S
C653 C654 1.379 . S
C654 H638 0.931 . S
C654 C648 1.383 . S
C654 C653 1.379 . S
H655 C649 0.959 . S
H656 C649 0.961 . S
H657 C649 0.960 . S
H658 C650 0.930 . S
H659 C651 0.929 . S
H660 C668 0.929 . S
H661 C670 0.930 . S
H662 C672 0.930 . S
H663 C675 0.929 . S
H664 C678 0.930 . S
H665 C680 0.960 . S
H666 C680 0.960 . S
H667 C680 0.960 . S
C668 H660 0.929 . S
C668 C669 1.377 . S
C668 C670 1.384 . S
C669 C668 1.377 . S
C669 C675 1.390 . S
C670 H661 0.930 . S
C670 C668 1.384 . S
C670 C671 1.372 . S
C671 C670 1.372 . S
C671 C672 1.400 . S
C671 C676 1.490 . S
C672 H662 0.930 . S
C672 C671 1.400 . S
C672 C675 1.386 . S
H673 C689 0.930 . S
H674 C690 0.931 . S
C675 H663 0.929 . S
C675 C669 1.390 . S
C675 C672 1.386 . S
C676 C671 1.490 . S
C676 C678 1.395 . S
C676 C679 1.403 . S
H677 C683 0.930 . S
C678 H664 0.930 . S
C678 C676 1.395 . S
C678 C681 1.403 . S
C679 C676 1.403 . S
C679 C680 1.524 . S
C679 C683 1.400 . S
C680 H665 0.960 . S
C680 H666 0.960 . S
C680 H667 0.960 . S
C680 C679 1.524 . S
C681 C678 1.403 . S
C681 C682 1.392 . S
C681 C685 1.495 . S
C682 C681 1.392 . S
C682 C683 1.385 . S
C682 C684 1.478 . S
C683 H677 0.930 . S
C683 C679 1.400 . S
C683 C682 1.385 . S
C684 C682 1.478 . S
C684 C686 1.381 . S
C684 C690 1.383 . S
C685 C681 1.495 . S
C685 H691 0.959 . S
C685 H692 0.961 . S
C685 H693 0.960 . S
C686 C684 1.381 . S
C686 C687 1.394 . S
C686 H694 0.930 . S
C687 C686 1.394 . S
C687 C688 1.383 . S
C687 H695 0.929 . S
C688 C687 1.383 . S
C688 C689 1.377 . S
C689 H673 0.930 . S
C689 C688 1.377 . S
C689 C690 1.379 . S
C690 H674 0.931 . S
C690 C684 1.383 . S
C690 C689 1.379 . S
H691 C685 0.959 . S
H692 C685 0.961 . S
H693 C685 0.960 . S
H694 C686 0.930 . S
H695 C687 0.929 . S
H696 C704 0.929 . S
H697 C706 0.930 . S
H698 C708 0.930 . S
H699 C711 0.929 . S
H700 C714 0.930 . S
H701 C716 0.960 1_554 S
H702 C716 0.960 . S
H703 C716 0.960 . S
C704 H696 0.929 . S
C704 C705 1.377 . S
C704 C706 1.384 . S
C705 C704 1.377 . S
C705 C711 1.390 . S
C706 H697 0.930 . S
C706 C704 1.384 . S
C706 C707 1.372 . S
C707 C706 1.372 . S
C707 C708 1.400 . S
C707 C712 1.490 . S
C708 H698 0.930 . S
C708 C707 1.400 . S
C708 C711 1.386 . S
H709 C725 0.930 . S
H710 C726 0.931 . S
C711 H699 0.929 . S
C711 C705 1.390 . S
C711 C708 1.386 . S
C712 C707 1.490 . S
C712 C714 1.395 . S
C712 C715 1.403 . S
H713 C719 0.930 . S
C714 H700 0.930 . S
C714 C712 1.395 . S
C714 C717 1.403 1_556 S
C715 C712 1.403 . S
C715 C716 1.524 . S
C715 C719 1.400 1_556 S
C716 H701 0.960 1_556 S
C716 H702 0.960 . S
C716 H703 0.960 . S
C716 C715 1.524 . S
C717 C714 1.403 1_554 S
C717 C718 1.392 . S
C717 C721 1.495 . S
C718 C717 1.392 . S
C718 C719 1.385 . S
C718 C720 1.478 . S
C719 H713 0.930 . S
C719 C715 1.400 1_554 S
C719 C718 1.385 . S
C720 C718 1.478 . S
C720 C722 1.381 . S
C720 C726 1.383 . S
C721 C717 1.495 . S
C721 H727 0.977 . S
C721 H728 0.961 . S
C721 H729 0.960 . S
C722 C720 1.381 . S
C722 C723 1.394 . S
C722 H730 0.930 . S
C723 C722 1.394 . S
C723 C724 1.383 . S
C723 H731 0.929 . S
C724 C723 1.383 . S
C724 C725 1.377 . S
C725 H709 0.930 . S
C725 C724 1.377 . S
C725 C726 1.379 . S
C726 H710 0.931 . S
C726 C720 1.383 . S
C726 C725 1.379 . S
H727 C721 0.977 . S
H728 C721 0.961 . S
H729 C721 0.960 . S
H730 C722 0.930 . S
H731 C723 0.929 . S
H732 C740 0.929 . S
H733 C742 0.930 . S
H734 C744 0.930 . S
H735 C747 0.929 . S
H736 C750 0.930 . S
H737 C752 0.960 . S
H738 C752 0.960 . S
H739 C752 0.960 . S
C740 H732 0.929 . S
C740 C741 1.377 . S
C740 C742 1.384 . S
C741 C740 1.377 . S
C741 C747 1.390 . S
C742 H733 0.930 . S
C742 C740 1.384 . S
C742 C743 1.372 . S
C743 C742 1.372 . S
C743 C744 1.400 . S
C743 C748 1.490 . S
C744 H734 0.930 . S
C744 C743 1.400 . S
C744 C747 1.386 . S
H745 C761 0.930 . S
H746 C762 0.931 . S
C747 H735 0.929 . S
C747 C741 1.390 . S
C747 C744 1.386 . S
C748 C743 1.490 . S
C748 C750 1.395 . S
C748 C751 1.403 . S
H749 C755 0.930 . S
C750 H736 0.930 . S
C750 C748 1.395 . S
C750 C753 1.403 . S
C751 C748 1.403 . S
C751 C752 1.524 . S
C751 C755 1.400 . S
C752 H737 0.960 . S
C752 H738 0.960 . S
C752 H739 0.960 . S
C752 C751 1.524 . S
C753 C750 1.403 . S
C753 C754 1.392 . S
C753 C757 1.495 . S
C754 C753 1.392 . S
C754 C755 1.385 . S
C754 C756 1.478 . S
C755 H749 0.930 . S
C755 C751 1.400 . S
C755 C754 1.385 . S
C756 C754 1.478 . S
C756 C758 1.381 . S
C756 C762 1.383 . S
C757 C753 1.495 . S
C757 H763 0.959 . S
C757 H764 0.961 . S
C757 H765 0.960 . S
C758 C756 1.381 . S
C758 C759 1.394 . S
C758 H766 0.930 . S
C759 C758 1.394 . S
C759 C760 1.383 . S
C759 H767 0.929 . S
C760 C759 1.383 . S
C760 C761 1.377 . S
C761 H745 0.930 . S
C761 C760 1.377 . S
C761 C762 1.379 . S
C762 H746 0.931 . S
C762 C756 1.383 . S
C762 C761 1.379 . S
H763 C757 0.959 . S
H764 C757 0.961 . S
H765 C757 0.960 . S
H766 C758 0.930 . S
H767 C759 0.929 . S
H768 C776 0.929 . S
H769 C778 0.930 . S
H770 C780 0.930 . S
H771 C783 0.929 . S
H772 C786 0.930 . S
H773 C788 0.960 . S
H774 C788 0.960 . S
H775 C788 0.960 . S
C776 H768 0.929 . S
C776 C777 1.377 . S
C776 C778 1.384 . S
C777 C776 1.377 . S
C777 C783 1.390 . S
C778 H769 0.930 . S
C778 C776 1.384 . S
C778 C779 1.372 . S
C779 C778 1.372 . S
C779 C780 1.400 . S
C779 C784 1.490 . S
C780 H770 0.930 . S
C780 C779 1.400 . S
C780 C783 1.386 . S
H781 C797 0.930 . S
H782 C798 0.931 . S
C783 H771 0.929 . S
C783 C777 1.390 . S
C783 C780 1.386 . S
C784 C779 1.490 . S
C784 C786 1.395 . S
C784 C787 1.403 . S
H785 C791 0.930 . S
C786 H772 0.930 . S
C786 C784 1.395 . S
C786 C789 1.403 . S
C787 C784 1.403 . S
C787 C788 1.524 . S
C787 C791 1.400 . S
C788 H773 0.960 . S
C788 H774 0.960 . S
C788 H775 0.960 . S
C788 C787 1.524 . S
C789 C786 1.403 . S
C789 C790 1.392 . S
C789 C793 1.495 . S
C790 C789 1.392 . S
C790 C791 1.385 . S
C790 C792 1.478 . S
C791 H785 0.930 . S
C791 C787 1.400 . S
C791 C790 1.385 . S
C792 C790 1.478 . S
C792 C794 1.381 . S
C792 C798 1.383 . S
C793 C789 1.495 . S
C793 H799 0.959 . S
C793 H800 0.961 . S
C793 H801 0.960 . S
C794 C792 1.381 . S
C794 C795 1.394 . S
C794 H802 0.930 . S
C795 C794 1.394 . S
C795 C796 1.383 . S
C795 H803 0.929 . S
C796 C795 1.383 . S
C796 C797 1.377 . S
C797 H781 0.930 . S
C797 C796 1.377 . S
C797 C798 1.379 . S
C798 H782 0.931 . S
C798 C792 1.383 . S
C798 C797 1.379 . S
H799 C793 0.959 . S
H800 C793 0.961 . S
H801 C793 0.960 . S
H802 C794 0.930 . S
H803 C795 0.929 . S
H804 C812 0.929 . S
H805 C814 0.930 . S
H806 C816 0.930 . S
H807 C819 0.929 . S
H808 C822 0.930 . S
H809 C824 0.960 1_554 S
H810 C824 0.960 . S
H811 C824 0.960 . S
C812 H804 0.929 . S
C812 C813 1.377 . S
C812 C814 1.384 . S
C813 C812 1.377 . S
C813 C819 1.390 . S
C814 H805 0.930 . S
C814 C812 1.384 . S
C814 C815 1.372 . S
C815 C814 1.372 . S
C815 C816 1.400 . S
C815 C820 1.490 . S
C816 H806 0.930 . S
C816 C815 1.400 . S
C816 C819 1.386 . S
H817 C833 0.930 . S
H818 C834 0.931 . S
C819 H807 0.929 . S
C819 C813 1.390 . S
C819 C816 1.386 . S
C820 C815 1.490 . S
C820 C822 1.395 . S
C820 C823 1.403 . S
H821 C827 0.930 . S
C822 H808 0.930 . S
C822 C820 1.395 . S
C822 C825 1.403 1_556 S
C823 C820 1.403 . S
C823 C824 1.524 . S
C823 C827 1.400 1_556 S
C824 H809 0.960 1_556 S
C824 H810 0.960 . S
C824 H811 0.960 . S
C824 C823 1.524 . S
C825 C822 1.403 1_554 S
C825 C826 1.392 . S
C825 C829 1.495 . S
C826 C825 1.392 . S
C826 C827 1.385 . S
C826 C828 1.478 . S
C827 H821 0.930 . S
C827 C823 1.400 1_554 S
C827 C826 1.385 . S
C828 C826 1.478 . S
C828 C830 1.381 . S
C828 C834 1.383 . S
C829 C825 1.495 . S
C829 H835 0.959 1_554 S
C829 H836 0.961 . S
C829 H837 0.960 . S
C830 C828 1.381 . S
C830 C831 1.394 . S
C830 H838 0.930 . S
C831 C830 1.394 . S
C831 C832 1.383 . S
C831 H839 0.929 . S
C832 C831 1.383 . S
C832 C833 1.377 . S
C833 H817 0.930 . S
C833 C832 1.377 . S
C833 C834 1.379 . S
C834 H818 0.931 . S
C834 C828 1.383 . S
C834 C833 1.379 . S
H835 C829 0.959 1_556 S
H836 C829 0.961 . S
H837 C829 0.960 . S
H838 C830 0.930 . S
H839 C831 0.929 . S
H840 C848 0.929 . S
H841 C850 0.930 . S
H842 C852 0.930 . S
H843 C855 0.929 . S
H844 C858 0.930 . S
H845 C860 0.960 . S
H846 C860 0.960 . S
H847 C860 0.960 . S
C848 H840 0.929 . S
C848 C849 1.377 . S
C848 C850 1.384 . S
C849 C848 1.377 . S
C849 C855 1.390 . S
C850 H841 0.930 . S
C850 C848 1.384 . S
C850 C851 1.372 . S
C851 C850 1.372 . S
C851 C852 1.400 . S
C851 C856 1.490 . S
C852 H842 0.930 . S
C852 C851 1.400 . S
C852 C855 1.386 . S
H853 C869 0.930 . S
H854 C870 0.931 . S
C855 H843 0.929 . S
C855 C849 1.390 . S
C855 C852 1.386 . S
C856 C851 1.490 . S
C856 C858 1.395 . S
C856 C859 1.403 . S
H857 C863 0.930 . S
C858 H844 0.930 . S
C858 C856 1.395 . S
C858 C861 1.403 . S
C859 C856 1.403 . S
C859 C860 1.524 . S
C859 C863 1.400 . S
C860 H845 0.960 . S
C860 H846 0.960 . S
C860 H847 0.960 . S
C860 C859 1.524 . S
C861 C858 1.403 . S
C861 C862 1.392 . S
C861 C865 1.495 . S
C862 C861 1.392 . S
C862 C863 1.385 . S
C862 C864 1.478 . S
C863 H857 0.930 . S
C863 C859 1.400 . S
C863 C862 1.385 . S
C864 C862 1.478 . S
C864 C866 1.381 . S
C864 C870 1.383 . S
C865 C861 1.495 . S
C865 H871 0.959 . S
C865 H872 0.961 . S
C865 H873 0.960 . S
C866 C864 1.381 . S
C866 C867 1.394 . S
C866 H874 0.930 . S
C867 C866 1.394 . S
C867 C868 1.383 . S
C867 H875 0.929 . S
C868 C867 1.383 . S
C868 C869 1.377 . S
C869 H853 0.930 . S
C869 C868 1.377 . S
C869 C870 1.379 . S
C870 H854 0.931 . S
C870 C864 1.383 . S
C870 C869 1.379 . S
H871 C865 0.959 . S
H872 C865 0.961 . S
H873 C865 0.960 . S
H874 C866 0.930 . S
H875 C867 0.929 . S
H876 C884 0.929 . S
H877 C886 0.930 . S
H878 C888 0.930 . S
H879 C891 0.929 . S
H880 C894 0.930 . S
H881 C896 0.960 . S
H882 C896 0.960 . S
H883 C896 0.960 . S
C884 H876 0.929 . S
C884 C885 1.377 . S
C884 C886 1.384 . S
C885 C884 1.377 . S
C885 C891 1.390 . S
C886 H877 0.930 . S
C886 C884 1.384 . S
C886 C887 1.372 . S
C887 C886 1.372 . S
C887 C888 1.400 . S
C887 C892 1.490 . S
C888 H878 0.930 . S
C888 C887 1.400 . S
C888 C891 1.386 . S
H889 C905 0.930 . S
H890 C906 0.931 . S
C891 H879 0.929 . S
C891 C885 1.390 . S
C891 C888 1.386 . S
C892 C887 1.490 . S
C892 C894 1.395 . S
C892 C895 1.403 . S
H893 C899 0.930 . S
C894 H880 0.930 . S
C894 C892 1.395 . S
C894 C897 1.403 . S
C895 C892 1.403 . S
C895 C896 1.524 . S
C895 C899 1.400 . S
C896 H881 0.960 . S
C896 H882 0.960 . S
C896 H883 0.960 . S
C896 C895 1.524 . S
C897 C894 1.403 . S
C897 C898 1.392 . S
C897 C901 1.495 . S
C898 C897 1.392 . S
C898 C899 1.385 . S
C898 C900 1.478 . S
C899 H893 0.930 . S
C899 C895 1.400 . S
C899 C898 1.385 . S
C900 C898 1.478 . S
C900 C902 1.381 . S
C900 C906 1.383 . S
C901 C897 1.495 . S
C901 H907 0.959 . S
C901 H908 0.961 . S
C901 H909 0.960 . S
C902 C900 1.381 . S
C902 C903 1.394 . S
C902 H910 0.930 . S
C903 C902 1.394 . S
C903 C904 1.383 . S
C903 H911 0.929 . S
C904 C903 1.383 . S
C904 C905 1.377 . S
C905 H889 0.930 . S
C905 C904 1.377 . S
C905 C906 1.379 . S
C906 H890 0.931 . S
C906 C900 1.383 . S
C906 C905 1.379 . S
H907 C901 0.959 . S
H908 C901 0.961 . S
H909 C901 0.960 . S
H910 C902 0.930 . S
H911 C903 0.929 . S
H912 C920 0.929 . S
H913 C922 0.930 . S
H914 C924 0.930 . S
H915 C927 0.929 . S
H916 C930 0.930 . S
H917 C932 0.960 . S
H918 C932 0.960 . S
H919 C932 0.960 . S
C920 H912 0.929 . S
C920 C921 1.377 . S
C920 C922 1.384 . S
C921 C920 1.377 . S
C921 C927 1.390 . S
C922 H913 0.930 . S
C922 C920 1.384 . S
C922 C923 1.372 . S
C923 C922 1.372 . S
C923 C924 1.400 . S
C923 C928 1.490 . S
C924 H914 0.930 . S
C924 C923 1.400 . S
C924 C927 1.386 . S
H925 C941 0.930 . S
H926 C942 0.931 . S
C927 H915 0.929 . S
C927 C921 1.390 . S
C927 C924 1.386 . S
C928 C923 1.490 . S
C928 C930 1.395 . S
C928 C931 1.403 . S
H929 C935 0.930 . S
C930 H916 0.930 . S
C930 C928 1.395 . S
C930 C933 1.403 1_566 S
C931 C928 1.403 . S
C931 C932 1.524 . S
C931 C935 1.400 1_566 S
C932 H917 0.960 . S
C932 H918 0.960 . S
C932 H919 0.960 . S
C932 C931 1.524 . S
C933 C930 1.403 1_544 S
C933 C934 1.392 . S
C933 C937 1.495 . S
C934 C933 1.392 . S
C934 C935 1.385 . S
C934 C936 1.478 . S
C935 H929 0.930 . S
C935 C931 1.400 1_544 S
C935 C934 1.385 . S
C936 C934 1.478 . S
C936 C938 1.381 . S
C936 C942 1.383 . S
C937 C933 1.495 . S
C937 H943 0.959 . S
C937 H944 0.961 . S
C937 H945 0.960 . S
C938 C936 1.381 . S
C938 C939 1.394 . S
C938 H946 0.898 1_545 S
C939 C938 1.394 . S
C939 C940 1.383 . S
C939 H947 0.929 . S
C940 C939 1.383 . S
C940 C941 1.377 . S
C941 H925 0.930 . S
C941 C940 1.377 . S
C941 C942 1.379 . S
C942 H926 0.931 . S
C942 C936 1.383 . S
C942 C941 1.379 . S
H943 C937 0.959 . S
H944 C937 0.961 . S
H945 C937 0.960 . S
H946 C938 0.898 1_565 S
H947 C939 0.929 . S
H948 C956 0.929 . S
H949 C958 0.930 . S
H950 C960 0.930 . S
H951 C963 0.929 . S
H952 C966 0.930 . S
H953 C968 0.960 . S
H954 C968 0.960 . S
H955 C968 0.960 . S
C956 H948 0.929 . S
C956 C957 1.377 . S
C956 C958 1.384 . S
C957 C956 1.377 . S
C957 C963 1.390 . S
C958 H949 0.930 . S
C958 C956 1.384 . S
C958 C959 1.372 . S
C959 C958 1.372 . S
C959 C960 1.400 . S
C959 C964 1.490 . S
C960 H950 0.930 . S
C960 C959 1.400 . S
C960 C963 1.386 . S
H961 C977 0.930 . S
H962 C978 0.931 . S
C963 H951 0.929 . S
C963 C957 1.390 . S
C963 C960 1.386 . S
C964 C959 1.490 . S
C964 C966 1.395 . S
C964 C967 1.403 . S
H965 C971 0.930 . S
C966 H952 0.930 . S
C966 C964 1.395 . S
C966 C969 1.403 . S
C967 C964 1.403 . S
C967 C968 1.524 . S
C967 C971 1.400 . S
C968 H953 0.960 . S
C968 H954 0.960 . S
C968 H955 0.960 . S
C968 C967 1.524 . S
C969 C966 1.403 . S
C969 C970 1.392 . S
C969 C973 1.495 . S
C970 C969 1.392 . S
C970 C971 1.385 . S
C970 C972 1.478 . S
C971 H965 0.930 . S
C971 C967 1.400 . S
C971 C970 1.385 . S
C972 C970 1.478 . S
C972 C974 1.381 . S
C972 C978 1.383 . S
C973 C969 1.495 . S
C973 H979 0.959 . S
C973 H980 0.961 . S
C973 H981 0.960 . S
C974 C972 1.381 . S
C974 C975 1.394 . S
C974 H982 0.930 . S
C975 C974 1.394 . S
C975 C976 1.383 . S
C975 H983 0.929 . S
C976 C975 1.383 . S
C976 C977 1.377 . S
C977 H961 0.930 . S
C977 C976 1.377 . S
C977 C978 1.379 . S
C978 H962 0.931 . S
C978 C972 1.383 . S
C978 C977 1.379 . S
H979 C973 0.959 . S
H980 C973 0.961 . S
H981 C973 0.960 . S
H982 C974 0.930 . S
H983 C975 0.929 . S
H984 C992 0.929 . S
H985 C994 0.930 . S
H986 C996 0.930 1_655 S
H987 C999 0.929 . S
H988 C1002 0.930 . S
H989 C1004 0.960 . S
H990 C1004 0.960 . S
H991 C1004 0.960 . S
C992 H984 0.929 . S
C992 C993 1.377 . S
C992 C994 1.384 . S
C993 C992 1.377 . S
C993 C999 1.390 . S
C994 H985 0.930 . S
C994 C992 1.384 . S
C994 C995 1.372 . S
C995 C994 1.372 . S
C995 C996 1.400 . S
C995 C1000 1.490 . S
C996 H986 0.930 1_455 S
C996 C995 1.400 . S
C996 C999 1.386 . S
H997 C1013 0.930 . S
H998 C1014 0.931 . S
C999 H987 0.929 . S
C999 C993 1.390 . S
C999 C996 1.386 . S
C1000 C995 1.490 . S
C1000 C1002 1.395 . S
C1000 C1003 1.403 1_455 S
H1001 C1007 0.930 . S
C1002 H988 0.930 . S
C1002 C1000 1.395 . S
C1002 C1005 1.403 . S
C1003 C1000 1.403 1_655 S
C1003 C1004 1.524 . S
C1003 C1007 1.400 . S
C1004 H989 0.960 . S
C1004 H990 0.960 . S
C1004 H991 0.960 . S
C1004 C1003 1.524 . S
C1005 C1002 1.403 . S
C1005 C1006 1.392 1_455 S
C1005 C1009 1.495 . S
C1006 C1005 1.392 1_655 S
C1006 C1007 1.385 . S
C1006 C1008 1.478 . S
C1007 H1001 0.930 . S
C1007 C1003 1.400 . S
C1007 C1006 1.385 . S
C1008 C1006 1.478 . S
C1008 C1010 1.381 . S
C1008 C1014 1.383 . S
C1009 C1005 1.495 . S
C1009 H1015 0.959 . S
C1009 H1016 0.961 . S
C1009 H1017 0.960 . S
C1010 C1008 1.381 . S
C1010 C1011 1.394 . S
C1010 H1018 0.930 1_655 S
C1011 C1010 1.394 . S
C1011 C1012 1.383 . S
C1011 H1019 0.929 . S
C1012 C1011 1.383 . S
C1012 C1013 1.377 . S
C1013 H997 0.930 . S
C1013 C1012 1.377 . S
C1013 C1014 1.379 . S
C1014 H998 0.931 . S
C1014 C1008 1.383 . S
C1014 C1013 1.379 . S
H1015 C1009 0.959 . S
H1016 C1009 0.961 . S
H1017 C1009 0.960 . S
H1018 C1010 0.930 1_455 S
H1019 C1011 0.929 . S
H1020 C1028 0.929 . S
H1021 C1030 0.930 . S
H1022 C1032 0.930 . S
H1023 C1035 0.929 . S
H1024 C1038 0.930 . S
H1025 C1040 0.960 . S
H1026 C1040 0.960 . S
H1027 C1040 0.960 . S
C1028 H1020 0.929 . S
C1028 C1029 1.377 . S
C1028 C1030 1.384 . S
C1029 C1028 1.377 . S
C1029 C1035 1.390 . S
C1030 H1021 0.930 . S
C1030 C1028 1.384 . S
C1030 C1031 1.372 . S
C1031 C1030 1.372 . S
C1031 C1032 1.400 . S
C1031 C1036 1.490 . S
C1032 H1022 0.930 . S
C1032 C1031 1.400 . S
C1032 C1035 1.386 . S
H1033 C1049 0.930 . S
H1034 C1050 0.931 . S
C1035 H1023 0.929 . S
C1035 C1029 1.390 . S
C1035 C1032 1.386 . S
C1036 C1031 1.490 . S
C1036 C1038 1.395 . S
C1036 C1039 1.403 1_565 S
H1037 C1043 0.930 . S
C1038 H1024 0.930 . S
C1038 C1036 1.395 . S
C1038 C1041 1.403 1_554 S
C1039 C1036 1.403 1_545 S
C1039 C1040 1.524 . S
C1039 C1043 1.400 1_554 S
C1040 H1025 0.960 . S
C1040 H1026 0.960 . S
C1040 H1027 0.960 . S
C1040 C1039 1.524 . S
C1041 C1038 1.403 1_556 S
C1041 C1042 1.392 1_565 S
C1041 C1045 1.495 . S
C1042 C1041 1.392 1_545 S
C1042 C1043 1.385 . S
C1042 C1044 1.478 . S
C1043 H1037 0.930 . S
C1043 C1039 1.400 1_556 S
C1043 C1042 1.385 . S
C1044 C1042 1.478 . S
C1044 C1046 1.381 . S
C1044 C1050 1.383 . S
C1045 C1041 1.495 . S
C1045 H1051 0.959 . S
C1045 H1052 0.961 . S
C1045 H1053 0.960 . S
C1046 C1044 1.381 . S
C1046 C1047 1.394 . S
C1046 H1054 0.930 . S
C1047 C1046 1.394 . S
C1047 C1048 1.383 . S
C1047 H1055 0.929 . S
C1048 C1047 1.383 . S
C1048 C1049 1.377 . S
C1049 H1033 0.930 . S
C1049 C1048 1.377 . S
C1049 C1050 1.379 . S
C1050 H1034 0.931 . S
C1050 C1044 1.383 . S
C1050 C1049 1.379 . S
H1051 C1045 0.959 . S
H1052 C1045 0.961 . S
H1053 C1045 0.960 . S
H1054 C1046 0.930 . S
H1055 C1047 0.929 . S
H1056 C1064 0.929 . S
H1057 C1066 0.930 . S
H1058 C1068 0.930 . S
H1059 C1071 0.929 . S
H1060 C1074 0.930 . S
H1061 C1076 0.960 . S
H1062 C1076 0.960 . S
H1063 C1076 0.960 . S
C1064 H1056 0.929 . S
C1064 C1065 1.377 . S
C1064 C1066 1.384 . S
C1065 C1064 1.377 . S
C1065 C1071 1.390 . S
C1066 H1057 0.930 . S
C1066 C1064 1.384 . S
C1066 C1067 1.372 . S
C1067 C1066 1.372 . S
C1067 C1068 1.400 . S
C1067 C1072 1.490 . S
C1068 H1058 0.930 . S
C1068 C1067 1.400 . S
C1068 C1071 1.386 . S
H1069 C1085 0.930 . S
H1070 C1086 0.931 . S
C1071 H1059 0.929 . S
C1071 C1065 1.390 . S
C1071 C1068 1.386 . S
C1072 C1067 1.490 . S
C1072 C1074 1.395 . S
C1072 C1075 1.403 . S
H1073 C1079 0.930 . S
C1074 H1060 0.930 . S
C1074 C1072 1.395 . S
C1074 C1077 1.403 . S
C1075 C1072 1.403 . S
C1075 C1076 1.524 . S
C1075 C1079 1.400 . S
C1076 H1061 0.960 . S
C1076 H1062 0.960 . S
C1076 H1063 0.960 . S
C1076 C1075 1.524 . S
C1077 C1074 1.403 . S
C1077 C1078 1.392 . S
C1077 C1081 1.495 . S
C1078 C1077 1.392 . S
C1078 C1079 1.385 . S
C1078 C1080 1.478 . S
C1079 H1073 0.930 . S
C1079 C1075 1.400 . S
C1079 C1078 1.385 . S
C1080 C1078 1.478 . S
C1080 C1082 1.381 . S
C1080 C1086 1.383 . S
C1081 C1077 1.495 . S
C1081 H1087 0.959 . S
C1081 H1088 0.961 . S
C1081 H1089 0.960 . S
C1082 C1080 1.381 . S
C1082 C1083 1.394 . S
C1082 H1090 0.930 . S
C1083 C1082 1.394 . S
C1083 C1084 1.383 . S
C1083 H1091 0.929 . S
C1084 C1083 1.383 . S
C1084 C1085 1.377 . S
C1085 H1069 0.930 . S
C1085 C1084 1.377 . S
C1085 C1086 1.379 . S
C1086 H1070 0.931 . S
C1086 C1080 1.383 . S
C1086 C1085 1.379 . S
H1087 C1081 0.959 . S
H1088 C1081 0.961 . S
H1089 C1081 0.960 . S
H1090 C1082 0.930 . S
H1091 C1083 0.929 . S
H1092 C1100 0.929 . S
H1093 C1102 0.930 1_655 S
H1094 C1104 0.930 . S
H1095 C1107 0.929 . S
H1096 C1110 0.918 . S
H1097 C1112 0.960 . S
H1098 C1112 0.960 . S
H1099 C1112 0.960 . S
C1100 H1092 0.929 . S
C1100 C1101 1.377 . S
C1100 C1102 1.384 . S
C1101 C1100 1.377 . S
C1101 C1107 1.390 . S
C1102 H1093 0.930 1_455 S
C1102 C1100 1.384 . S
C1102 C1103 1.372 . S
C1103 C1102 1.372 . S
C1103 C1104 1.400 . S
C1103 C1108 1.490 . S
C1104 H1094 0.930 . S
C1104 C1103 1.400 . S
C1104 C1107 1.386 . S
H1105 C1121 0.930 . S
H1106 C1122 0.931 1_455 S
C1107 H1095 0.929 . S
C1107 C1101 1.390 . S
C1107 C1104 1.386 . S
C1108 C1103 1.490 . S
C1108 C1110 1.424 . S
C1108 C1111 1.403 . S
H1109 C1115 0.930 . S
C1110 H1096 0.918 . S
C1110 C1108 1.424 . S
C1110 C1113 1.387 1_455 S
C1111 C1108 1.403 . S
C1111 C1112 1.524 . S
C1111 C1115 1.400 1_455 S
C1112 H1097 0.960 . S
C1112 H1098 0.960 . S
C1112 H1099 0.960 . S
C1112 C1111 1.524 . S
C1113 C1110 1.387 1_655 S
C1113 C1114 1.392 . S
C1113 C1117 1.495 . S
C1114 C1113 1.392 . S
C1114 C1115 1.385 . S
C1114 C1116 1.478 . S
C1115 H1109 0.930 . S
C1115 C1111 1.400 1_655 S
C1115 C1114 1.385 . S
C1116 C1114 1.478 . S
C1116 C1118 1.381 . S
C1116 C1122 1.383 . S
C1117 C1113 1.495 . S
C1117 H1123 0.959 . S
C1117 H1124 0.961 . S
C1117 H1125 0.960 . S
C1118 C1116 1.381 . S
C1118 C1119 1.394 . S
C1118 H1126 0.930 . S
C1119 C1118 1.394 . S
C1119 C1120 1.383 . S
C1119 H1127 0.929 . S
C1120 C1119 1.383 . S
C1120 C1121 1.377 . S
C1121 H1105 0.930 . S
C1121 C1120 1.377 . S
C1121 C1122 1.379 . S
C1122 H1106 0.931 1_655 S
C1122 C1116 1.383 . S
C1122 C1121 1.379 . S
H1123 C1117 0.959 . S
H1124 C1117 0.961 . S
H1125 C1117 0.960 . S
H1126 C1118 0.930 . S
H1127 C1119 0.929 . S
H1128 C1136 0.929 . S
H1129 C1138 0.930 . S
H1130 C1140 0.930 . S
H1131 C1143 0.929 . S
H1132 C1146 0.930 . S
H1133 C1148 0.960 . S
H1134 C1148 0.960 . S
H1135 C1148 0.960 . S
C1136 H1128 0.929 . S
C1136 C1137 1.377 . S
C1136 C1138 1.384 . S
C1137 C1136 1.377 . S
C1137 C1143 1.390 . S
C1138 H1129 0.930 . S
C1138 C1136 1.384 . S
C1138 C1139 1.372 . S
C1139 C1138 1.372 . S
C1139 C1140 1.400 . S
C1139 C1144 1.490 . S
C1140 H1130 0.930 . S
C1140 C1139 1.400 . S
C1140 C1143 1.386 . S
H1141 C1157 0.930 . S
H1142 C1158 0.931 . S
C1143 H1131 0.929 . S
C1143 C1137 1.390 . S
C1143 C1140 1.386 . S
C1144 C1139 1.490 . S
C1144 C1146 1.395 1_545 S
C1144 C1147 1.403 . S
H1145 C1151 0.930 . S
C1146 H1132 0.930 . S
C1146 C1144 1.395 1_565 S
C1146 C1149 1.403 . S
C1147 C1144 1.403 . S
C1147 C1148 1.524 . S
C1147 C1151 1.400 . S
C1148 H1133 0.960 . S
C1148 H1134 0.960 . S
C1148 H1135 0.960 . S
C1148 C1147 1.524 . S
C1149 C1146 1.403 . S
C1149 C1150 1.392 . S
C1149 C1153 1.495 . S
C1150 C1149 1.392 . S
C1150 C1151 1.385 1_565 S
C1150 C1152 1.478 . S
C1151 H1145 0.930 . S
C1151 C1147 1.400 . S
C1151 C1150 1.385 1_545 S
C1152 C1150 1.478 . S
C1152 C1154 1.381 . S
C1152 C1158 1.383 . S
C1153 C1149 1.495 . S
C1153 H1159 0.959 . S
C1153 H1160 0.961 . S
C1153 H1161 0.960 . S
C1154 C1152 1.381 . S
C1154 C1155 1.394 . S
C1154 H1162 0.930 . S
C1155 C1154 1.394 . S
C1155 C1156 1.383 . S
C1155 H1163 0.929 . S
C1156 C1155 1.383 . S
C1156 C1157 1.377 . S
C1157 H1141 0.930 . S
C1157 C1156 1.377 . S
C1157 C1158 1.379 . S
C1158 H1142 0.931 . S
C1158 C1152 1.383 . S
C1158 C1157 1.379 . S
H1159 C1153 0.959 . S
H1160 C1153 0.961 . S
H1161 C1153 0.960 . S
H1162 C1154 0.930 . S
H1163 C1155 0.929 . S
H1164 C1172 0.929 . S
H1165 C1174 0.930 . S
H1166 C1176 0.930 . S
H1167 C1179 0.929 . S
H1168 C1182 0.930 . S
H1169 C1184 0.960 . S
H1170 C1184 0.960 . S
H1171 C1184 0.960 . S
C1172 H1164 0.929 . S
C1172 C1173 1.377 . S
C1172 C1174 1.384 . S
C1173 C1172 1.377 . S
C1173 C1179 1.390 . S
C1174 H1165 0.930 . S
C1174 C1172 1.384 . S
C1174 C1175 1.372 . S
C1175 C1174 1.372 . S
C1175 C1176 1.400 . S
C1175 C1180 1.490 . S
C1176 H1166 0.930 . S
C1176 C1175 1.400 . S
C1176 C1179 1.386 . S
H1177 C1193 0.930 . S
H1178 C1194 0.931 . S
C1179 H1167 0.929 . S
C1179 C1173 1.390 . S
C1179 C1176 1.386 . S
C1180 C1175 1.490 . S
C1180 C1182 1.395 . S
C1180 C1183 1.403 . S
H1181 C1187 0.930 . S
C1182 H1168 0.930 . S
C1182 C1180 1.395 . S
C1182 C1185 1.403 . S
C1183 C1180 1.403 . S
C1183 C1184 1.524 . S
C1183 C1187 1.400 . S
C1184 H1169 0.960 . S
C1184 H1170 0.960 . S
C1184 H1171 0.960 . S
C1184 C1183 1.524 . S
C1185 C1182 1.403 . S
C1185 C1186 1.392 . S
C1185 C1189 1.495 . S
C1186 C1185 1.392 . S
C1186 C1187 1.385 . S
C1186 C1188 1.478 . S
C1187 H1181 0.930 . S
C1187 C1183 1.400 . S
C1187 C1186 1.385 . S
C1188 C1186 1.478 . S
C1188 C1190 1.381 . S
C1188 C1194 1.383 . S
C1189 C1185 1.495 . S
C1189 H1195 0.959 . S
C1189 H1196 0.961 . S
C1189 H1197 0.960 . S
C1190 C1188 1.381 . S
C1190 C1191 1.394 . S
C1190 H1198 0.930 . S
C1191 C1190 1.394 . S
C1191 C1192 1.383 . S
C1191 H1199 0.929 . S
C1192 C1191 1.383 . S
C1192 C1193 1.377 . S
C1193 H1177 0.930 . S
C1193 C1192 1.377 . S
C1193 C1194 1.379 . S
C1194 H1178 0.931 . S
C1194 C1188 1.383 . S
C1194 C1193 1.379 . S
H1195 C1189 0.959 . S
H1196 C1189 0.961 . S
H1197 C1189 0.960 . S
H1198 C1190 0.930 . S
H1199 C1191 0.929 . S
H1200 C1208 0.929 . S
H1201 C1210 0.930 . S
H1202 C1212 0.930 . S
H1203 C1215 0.929 . S
H1204 C1218 0.930 . S
H1205 C1220 0.960 . S
H1206 C1220 0.960 . S
H1207 C1220 0.960 . S
C1208 H1200 0.929 . S
C1208 C1209 1.377 . S
C1208 C1210 1.384 . S
C1209 C1208 1.377 . S
C1209 C1215 1.390 . S
C1210 H1201 0.930 . S
C1210 C1208 1.384 . S
C1210 C1211 1.372 . S
C1211 C1210 1.372 . S
C1211 C1212 1.400 . S
C1211 C1216 1.490 . S
C1212 H1202 0.930 . S
C1212 C1211 1.400 . S
C1212 C1215 1.386 . S
H1213 C1229 0.930 . S
H1214 C1230 0.931 . S
C1215 H1203 0.929 . S
C1215 C1209 1.390 . S
C1215 C1212 1.386 . S
C1216 C1211 1.490 . S
C1216 C1218 1.395 1_655 S
C1216 C1219 1.403 . S
H1217 C1223 0.930 . S
C1218 H1204 0.930 . S
C1218 C1216 1.395 1_455 S
C1218 C1221 1.403 . S
C1219 C1216 1.403 . S
C1219 C1220 1.524 . S
C1219 C1223 1.400 . S
C1220 H1205 0.960 . S
C1220 H1206 0.960 . S
C1220 H1207 0.960 . S
C1220 C1219 1.524 . S
C1221 C1218 1.403 . S
C1221 C1222 1.392 . S
C1221 C1225 1.495 . S
C1222 C1221 1.392 . S
C1222 C1223 1.385 1_455 S
C1222 C1224 1.478 . S
C1223 H1217 0.930 . S
C1223 C1219 1.400 . S
C1223 C1222 1.385 1_655 S
C1224 C1222 1.478 . S
C1224 C1226 1.381 . S
C1224 C1230 1.383 . S
C1225 C1221 1.495 . S
C1225 H1231 0.959 . S
C1225 H1232 0.961 . S
C1225 H1233 0.960 . S
C1226 C1224 1.381 . S
C1226 C1227 1.394 . S
C1226 H1234 0.930 . S
C1227 C1226 1.394 . S
C1227 C1228 1.383 . S
C1227 H1235 0.929 . S
C1228 C1227 1.383 . S
C1228 C1229 1.377 . S
C1229 H1213 0.930 . S
C1229 C1228 1.377 . S
C1229 C1230 1.379 . S
C1230 H1214 0.931 . S
C1230 C1224 1.383 . S
C1230 C1229 1.379 . S
H1231 C1225 0.959 . S
H1232 C1225 0.961 . S
H1233 C1225 0.960 . S
H1234 C1226 0.930 . S
H1235 C1227 0.929 . S
H1236 C1244 0.929 . S
H1237 C1246 0.930 . S
H1238 C1248 0.930 . S
H1239 C1251 0.929 . S
H1240 C1254 0.930 . S
H1241 C1256 0.960 . S
H1242 C1256 0.960 . S
H1243 C1256 0.960 . S
C1244 H1236 0.929 . S
C1244 C1245 1.377 . S
C1244 C1246 1.384 . S
C1245 C1244 1.377 . S
C1245 C1251 1.390 . S
C1246 H1237 0.930 . S
C1246 C1244 1.384 . S
C1246 C1247 1.372 . S
C1247 C1246 1.372 . S
C1247 C1248 1.400 . S
C1247 C1252 1.490 . S
C1248 H1238 0.930 . S
C1248 C1247 1.400 . S
C1248 C1251 1.386 . S
H1249 C1265 0.930 . S
H1250 C1266 0.931 . S
C1251 H1239 0.929 . S
C1251 C1245 1.390 . S
C1251 C1248 1.386 . S
C1252 C1247 1.490 . S
C1252 C1254 1.395 1_455 S
C1252 C1255 1.403 . S
H1253 C1259 0.930 . S
C1254 H1240 0.930 . S
C1254 C1252 1.395 1_655 S
C1254 C1257 1.403 . S
C1255 C1252 1.403 . S
C1255 C1256 1.524 . S
C1255 C1259 1.400 . S
C1256 H1241 0.960 . S
C1256 H1242 0.960 . S
C1256 H1243 0.960 . S
C1256 C1255 1.524 . S
C1257 C1254 1.403 . S
C1257 C1258 1.392 . S
C1257 C1261 1.495 . S
C1258 C1257 1.392 . S
C1258 C1259 1.385 1_655 S
C1258 C1260 1.478 . S
C1259 H1253 0.930 . S
C1259 C1255 1.400 . S
C1259 C1258 1.385 1_455 S
C1260 C1258 1.478 . S
C1260 C1262 1.381 . S
C1260 C1266 1.383 . S
C1261 C1257 1.495 . S
C1261 H1267 0.959 . S
C1261 H1268 0.961 . S
C1261 H1269 0.960 . S
C1262 C1260 1.381 . S
C1262 C1263 1.394 . S
C1262 H1270 0.930 . S
C1263 C1262 1.394 . S
C1263 C1264 1.383 . S
C1263 H1271 0.929 . S
C1264 C1263 1.383 . S
C1264 C1265 1.377 . S
C1265 H1249 0.930 . S
C1265 C1264 1.377 . S
C1265 C1266 1.379 . S
C1266 H1250 0.931 . S
C1266 C1260 1.383 . S
C1266 C1265 1.379 . S
H1267 C1261 0.959 . S
H1268 C1261 0.961 . S
H1269 C1261 0.960 . S
H1270 C1262 0.930 . S
H1271 C1263 0.929 . S
H1272 C1280 0.929 . S
H1273 C1282 0.930 . S
H1274 C1284 0.930 . S
H1275 C1287 0.929 . S
H1276 C1290 0.930 . S
H1277 C1292 0.960 . S
H1278 C1292 0.960 . S
H1279 C1292 0.960 . S
C1280 H1272 0.929 . S
C1280 C1281 1.377 . S
C1280 C1282 1.384 . S
C1281 C1280 1.377 . S
C1281 C1287 1.390 . S
C1282 H1273 0.930 . S
C1282 C1280 1.384 . S
C1282 C1283 1.372 . S
C1283 C1282 1.372 . S
C1283 C1284 1.400 . S
C1283 C1288 1.490 . S
C1284 H1274 0.930 . S
C1284 C1283 1.400 . S
C1284 C1287 1.386 . S
H1285 C1301 0.930 . S
H1286 C1302 0.931 . S
C1287 H1275 0.929 . S
C1287 C1281 1.390 . S
C1287 C1284 1.386 . S
C1288 C1283 1.490 . S
C1288 C1290 1.395 . S
C1288 C1291 1.403 1_565 S
H1289 C1295 0.930 . S
C1290 H1276 0.930 . S
C1290 C1288 1.395 . S
C1290 C1293 1.403 . S
C1291 C1288 1.403 1_545 S
C1291 C1292 1.524 . S
C1291 C1295 1.400 . S
C1292 H1277 0.960 . S
C1292 H1278 0.960 . S
C1292 H1279 0.960 . S
C1292 C1291 1.524 . S
C1293 C1290 1.403 . S
C1293 C1294 1.392 1_565 S
C1293 C1297 1.495 . S
C1294 C1293 1.392 1_545 S
C1294 C1295 1.385 . S
C1294 C1296 1.478 . S
C1295 H1289 0.930 . S
C1295 C1291 1.400 . S
C1295 C1294 1.385 . S
C1296 C1294 1.478 . S
C1296 C1298 1.381 . S
C1296 C1302 1.383 . S
C1297 C1293 1.495 . S
C1297 H1303 0.959 . S
C1297 H1304 0.961 . S
C1297 H1305 0.960 . S
C1298 C1296 1.381 . S
C1298 C1299 1.394 . S
C1298 H1306 0.930 . S
C1299 C1298 1.394 . S
C1299 C1300 1.383 . S
C1299 H1307 0.929 . S
C1300 C1299 1.383 . S
C1300 C1301 1.377 . S
C1301 H1285 0.930 . S
C1301 C1300 1.377 . S
C1301 C1302 1.379 . S
C1302 H1286 0.931 . S
C1302 C1296 1.383 . S
C1302 C1301 1.379 . S
H1303 C1297 0.959 . S
H1304 C1297 0.961 . S
H1305 C1297 0.960 . S
H1306 C1298 0.930 . S
H1307 C1299 0.929 . S
H1308 C1316 0.929 . S
H1309 C1318 0.930 . S
H1310 C1320 0.930 . S
H1311 C1323 0.929 . S
H1312 C1326 0.930 . S
H1313 C1328 0.960 . S
H1314 C1328 0.960 . S
H1315 C1328 0.960 . S
C1316 H1308 0.929 . S
C1316 C1317 1.377 . S
C1316 C1318 1.384 . S
C1317 C1316 1.377 . S
C1317 C1323 1.390 . S
C1318 H1309 0.930 . S
C1318 C1316 1.384 . S
C1318 C1319 1.372 . S
C1319 C1318 1.372 . S
C1319 C1320 1.400 . S
C1319 C1324 1.490 . S
C1320 H1310 0.930 . S
C1320 C1319 1.400 . S
C1320 C1323 1.386 . S
H1321 C1337 0.930 . S
H1322 C1338 0.931 . S
C1323 H1311 0.929 . S
C1323 C1317 1.390 . S
C1323 C1320 1.386 . S
C1324 C1319 1.490 . S
C1324 C1326 1.395 . S
C1324 C1327 1.403 . S
H1325 C1331 0.930 . S
C1326 H1312 0.930 . S
C1326 C1324 1.395 . S
C1326 C1329 1.403 . S
C1327 C1324 1.403 . S
C1327 C1328 1.524 . S
C1327 C1331 1.400 . S
C1328 H1313 0.960 . S
C1328 H1314 0.960 . S
C1328 H1315 0.960 . S
C1328 C1327 1.524 . S
C1329 C1326 1.403 . S
C1329 C1330 1.392 . S
C1329 C1333 1.495 . S
C1330 C1329 1.392 . S
C1330 C1331 1.385 . S
C1330 C1332 1.478 . S
C1331 H1325 0.930 . S
C1331 C1327 1.400 . S
C1331 C1330 1.385 . S
C1332 C1330 1.478 . S
C1332 C1334 1.381 . S
C1332 C1338 1.383 . S
C1333 C1329 1.495 . S
C1333 H1339 0.959 . S
C1333 H1340 0.961 . S
C1333 H1341 0.960 . S
C1334 C1332 1.381 . S
C1334 C1335 1.394 . S
C1334 H1342 0.930 . S
C1335 C1334 1.394 . S
C1335 C1336 1.383 . S
C1335 H1343 0.929 . S
C1336 C1335 1.383 . S
C1336 C1337 1.377 . S
C1337 H1321 0.930 . S
C1337 C1336 1.377 . S
C1337 C1338 1.379 . S
C1338 H1322 0.931 . S
C1338 C1332 1.383 . S
C1338 C1337 1.379 . S
H1339 C1333 0.959 . S
H1340 C1333 0.961 . S
H1341 C1333 0.960 . S
H1342 C1334 0.930 . S
H1343 C1335 0.929 . S
H1344 C1352 0.929 . S
H1345 C1354 0.930 . S
H1346 C1356 0.930 . S
H1347 C1359 0.929 . S
H1348 C1362 0.930 . S
H1349 C1364 0.960 . S
H1350 C1364 0.960 . S
H1351 C1364 0.960 . S
C1352 H1344 0.929 . S
C1352 C1353 1.377 . S
C1352 C1354 1.384 . S
C1353 C1352 1.377 . S
C1353 C1359 1.390 . S
C1354 H1345 0.930 . S
C1354 C1352 1.384 . S
C1354 C1355 1.372 . S
C1355 C1354 1.372 . S
C1355 C1356 1.400 . S
C1355 C1360 1.490 . S
C1356 H1346 0.930 . S
C1356 C1355 1.400 . S
C1356 C1359 1.386 . S
H1357 C1373 0.930 . S
H1358 C1374 0.931 . S
C1359 H1347 0.929 . S
C1359 C1353 1.390 . S
C1359 C1356 1.386 . S
C1360 C1355 1.490 . S
C1360 C1362 1.395 . S
C1360 C1363 1.403 1_565 S
H1361 C1367 0.930 . S
C1362 H1348 0.930 . S
C1362 C1360 1.395 . S
C1362 C1365 1.403 . S
C1363 C1360 1.403 1_545 S
C1363 C1364 1.524 . S
C1363 C1367 1.400 . S
C1364 H1349 0.960 . S
C1364 H1350 0.960 . S
C1364 H1351 0.960 . S
C1364 C1363 1.524 . S
C1365 C1362 1.403 . S
C1365 C1366 1.392 1_565 S
C1365 C1369 1.495 . S
C1366 C1365 1.392 1_545 S
C1366 C1367 1.385 . S
C1366 C1368 1.478 . S
C1367 H1361 0.930 . S
C1367 C1363 1.400 . S
C1367 C1366 1.385 . S
C1368 C1366 1.478 . S
C1368 C1370 1.381 . S
C1368 C1374 1.383 . S
C1369 C1365 1.495 . S
C1369 H1375 0.959 . S
C1369 H1376 0.961 . S
C1369 H1377 0.960 . S
C1370 C1368 1.381 . S
C1370 C1371 1.394 . S
C1370 H1378 0.930 . S
C1371 C1370 1.394 . S
C1371 C1372 1.383 . S
C1371 H1379 0.929 . S
C1372 C1371 1.383 . S
C1372 C1373 1.377 . S
C1373 H1357 0.930 . S
C1373 C1372 1.377 . S
C1373 C1374 1.379 . S
C1374 H1358 0.931 . S
C1374 C1368 1.383 . S
C1374 C1373 1.379 . S
H1375 C1369 0.959 . S
H1376 C1369 0.961 . S
H1377 C1369 0.960 . S
H1378 C1370 0.930 . S
H1379 C1371 0.929 . S
H1380 C1388 0.929 . S
H1381 C1390 0.930 . S
H1382 C1392 0.930 . S
H1383 C1395 0.929 . S
H1384 C1398 0.930 . S
H1385 C1400 0.960 . S
H1386 C1400 0.960 . S
H1387 C1400 0.960 . S
C1388 H1380 0.929 . S
C1388 C1389 1.377 . S
C1388 C1390 1.384 . S
C1389 C1388 1.377 . S
C1389 C1395 1.390 . S
C1390 H1381 0.930 . S
C1390 C1388 1.384 . S
C1390 C1391 1.372 . S
C1391 C1390 1.372 . S
C1391 C1392 1.400 . S
C1391 C1396 1.490 . S
C1392 H1382 0.930 . S
C1392 C1391 1.400 . S
C1392 C1395 1.386 . S
H1393 C1409 0.930 . S
H1394 C1410 0.931 . S
C1395 H1383 0.929 . S
C1395 C1389 1.390 . S
C1395 C1392 1.386 . S
C1396 C1391 1.490 . S
C1396 C1398 1.395 . S
C1396 C1399 1.403 . S
H1397 C1403 0.930 . S
C1398 H1384 0.930 . S
C1398 C1396 1.395 . S
C1398 C1401 1.403 . S
C1399 C1396 1.403 . S
C1399 C1400 1.524 . S
C1399 C1403 1.400 . S
C1400 H1385 0.960 . S
C1400 H1386 0.960 . S
C1400 H1387 0.960 . S
C1400 C1399 1.524 . S
C1401 C1398 1.403 . S
C1401 C1402 1.392 . S
C1401 C1405 1.495 . S
C1402 C1401 1.392 . S
C1402 C1403 1.385 . S
C1402 C1404 1.478 . S
C1403 H1397 0.930 . S
C1403 C1399 1.400 . S
C1403 C1402 1.385 . S
C1404 C1402 1.478 . S
C1404 C1406 1.381 . S
C1404 C1410 1.383 . S
C1405 C1401 1.495 . S
C1405 H1411 0.959 . S
C1405 H1412 0.961 . S
C1405 H1413 0.960 . S
C1406 C1404 1.381 . S
C1406 C1407 1.394 . S
C1406 H1414 0.930 . S
C1407 C1406 1.394 . S
C1407 C1408 1.383 . S
C1407 H1415 0.929 . S
C1408 C1407 1.383 . S
C1408 C1409 1.377 . S
C1409 H1393 0.930 . S
C1409 C1408 1.377 . S
C1409 C1410 1.379 . S
C1410 H1394 0.931 . S
C1410 C1404 1.383 . S
C1410 C1409 1.379 . S
H1411 C1405 0.959 . S
H1412 C1405 0.961 . S
H1413 C1405 0.960 . S
H1414 C1406 0.930 . S
H1415 C1407 0.929 . S
H1416 C1424 0.929 . S
H1417 C1426 0.930 . S
H1418 C1428 0.930 . S
H1419 C1431 0.929 . S
H1420 C1434 0.930 . S
H1421 C1436 0.960 . S
H1422 C1436 0.960 . S
H1423 C1436 0.960 . S
C1424 H1416 0.929 . S
C1424 C1425 1.377 . S
C1424 C1426 1.384 . S
C1425 C1424 1.377 . S
C1425 C1431 1.390 . S
C1426 H1417 0.930 . S
C1426 C1424 1.384 . S
C1426 C1427 1.372 . S
C1427 C1426 1.372 . S
C1427 C1428 1.400 . S
C1427 C1432 1.490 . S
C1428 H1418 0.930 . S
C1428 C1427 1.400 . S
C1428 C1431 1.386 . S
H1429 C1445 0.930 . S
H1430 C1446 0.931 . S
C1431 H1419 0.929 . S
C1431 C1425 1.390 . S
C1431 C1428 1.386 . S
C1432 C1427 1.490 . S
C1432 C1434 1.395 1_655 S
C1432 C1435 1.403 . S
H1433 C1439 0.930 . S
C1434 H1420 0.930 . S
C1434 C1432 1.395 1_455 S
C1434 C1437 1.403 . S
C1435 C1432 1.403 . S
C1435 C1436 1.524 . S
C1435 C1439 1.400 . S
C1436 H1421 0.960 . S
C1436 H1422 0.960 . S
C1436 H1423 0.960 . S
C1436 C1435 1.524 . S
C1437 C1434 1.403 . S
C1437 C1438 1.392 . S
C1437 C1441 1.495 . S
C1438 C1437 1.392 . S
C1438 C1439 1.385 1_455 S
C1438 C1440 1.478 . S
C1439 H1433 0.930 . S
C1439 C1435 1.400 . S
C1439 C1438 1.385 1_655 S
C1440 C1438 1.478 . S
C1440 C1442 1.381 . S
C1440 C1446 1.383 . S
C1441 C1437 1.495 . S
C1441 H1447 0.959 . S
C1441 H1448 0.961 . S
C1441 H1449 0.960 . S
C1442 C1440 1.381 . S
C1442 C1443 1.394 . S
C1442 H1450 0.930 . S
C1443 C1442 1.394 . S
C1443 C1444 1.383 . S
C1443 H1451 0.929 . S
C1444 C1443 1.383 . S
C1444 C1445 1.377 . S
C1445 H1429 0.930 . S
C1445 C1444 1.377 . S
C1445 C1446 1.379 . S
C1446 H1430 0.931 . S
C1446 C1440 1.383 . S
C1446 C1445 1.379 . S
H1447 C1441 0.959 . S
H1448 C1441 0.961 . S
H1449 C1441 0.960 . S
H1450 C1442 0.930 . S
H1451 C1443 0.929 . S
H1452 C1460 0.929 . S
H1453 C1462 0.930 . S
H1454 C1464 0.930 . S
H1455 C1467 0.929 . S
H1456 C1470 0.930 . S
H1457 C1472 0.960 . S
H1458 C1472 0.960 . S
H1459 C1472 0.960 . S
C1460 H1452 0.929 . S
C1460 C1461 1.377 . S
C1460 C1462 1.384 . S
C1461 C1460 1.377 . S
C1461 C1467 1.390 . S
C1462 H1453 0.930 . S
C1462 C1460 1.384 . S
C1462 C1463 1.372 . S
C1463 C1462 1.372 . S
C1463 C1464 1.400 . S
C1463 C1468 1.490 . S
C1464 H1454 0.930 . S
C1464 C1463 1.400 . S
C1464 C1467 1.386 . S
H1465 C1481 0.930 . S
H1466 C1482 0.931 . S
C1467 H1455 0.929 . S
C1467 C1461 1.390 . S
C1467 C1464 1.386 . S
C1468 C1463 1.490 . S
C1468 C1470 1.395 . S
C1468 C1471 1.403 1_545 S
H1469 C1475 0.930 . S
C1470 H1456 0.930 . S
C1470 C1468 1.395 . S
C1470 C1473 1.403 . S
C1471 C1468 1.403 1_565 S
C1471 C1472 1.524 . S
C1471 C1475 1.400 . S
C1472 H1457 0.960 . S
C1472 H1458 0.960 . S
C1472 H1459 0.960 . S
C1472 C1471 1.524 . S
C1473 C1470 1.403 . S
C1473 C1474 1.392 1_545 S
C1473 C1477 1.495 . S
C1474 C1473 1.392 1_565 S
C1474 C1475 1.385 . S
C1474 C1476 1.478 . S
C1475 H1469 0.930 . S
C1475 C1471 1.400 . S
C1475 C1474 1.385 . S
C1476 C1474 1.478 . S
C1476 C1478 1.381 . S
C1476 C1482 1.383 . S
C1477 C1473 1.495 . S
C1477 H1483 0.959 . S
C1477 H1484 0.961 . S
C1477 H1485 0.960 . S
C1478 C1476 1.381 . S
C1478 C1479 1.394 . S
C1478 H1486 0.930 . S
C1479 C1478 1.394 . S
C1479 C1480 1.383 . S
C1479 H1487 0.929 . S
C1480 C1479 1.383 . S
C1480 C1481 1.377 . S
C1481 H1465 0.930 . S
C1481 C1480 1.377 . S
C1481 C1482 1.379 . S
C1482 H1466 0.931 . S
C1482 C1476 1.383 . S
C1482 C1481 1.379 . S
H1483 C1477 0.959 . S
H1484 C1477 0.961 . S
H1485 C1477 0.960 . S
H1486 C1478 0.930 . S
H1487 C1479 0.929 . S
H1488 C1496 0.929 . S
H1489 C1498 0.930 . S
H1490 C1500 0.930 . S
H1491 C1503 0.929 . S
H1492 C1506 0.930 . S
H1493 C1508 0.960 . S
H1494 C1508 0.960 . S
H1495 C1508 0.960 . S
C1496 H1488 0.929 . S
C1496 C1497 1.377 . S
C1496 C1498 1.384 . S
C1497 C1496 1.377 . S
C1497 C1503 1.390 . S
C1498 H1489 0.930 . S
C1498 C1496 1.384 . S
C1498 C1499 1.372 . S
C1499 C1498 1.372 . S
C1499 C1500 1.400 . S
C1499 C1504 1.490 . S
C1500 H1490 0.930 . S
C1500 C1499 1.400 . S
C1500 C1503 1.386 . S
H1501 C1517 0.930 . S
H1502 C1518 0.931 . S
C1503 H1491 0.929 . S
C1503 C1497 1.390 . S
C1503 C1500 1.386 . S
C1504 C1499 1.490 . S
C1504 C1506 1.395 . S
C1504 C1507 1.403 . S
H1505 C1511 0.930 . S
C1506 H1492 0.930 . S
C1506 C1504 1.395 . S
C1506 C1509 1.403 . S
C1507 C1504 1.403 . S
C1507 C1508 1.524 . S
C1507 C1511 1.400 . S
C1508 H1493 0.960 . S
C1508 H1494 0.960 . S
C1508 H1495 0.960 . S
C1508 C1507 1.524 . S
C1509 C1506 1.403 . S
C1509 C1510 1.392 . S
C1509 C1513 1.495 . S
C1510 C1509 1.392 . S
C1510 C1511 1.385 . S
C1510 C1512 1.478 . S
C1511 H1505 0.930 . S
C1511 C1507 1.400 . S
C1511 C1510 1.385 . S
C1512 C1510 1.478 . S
C1512 C1514 1.381 . S
C1512 C1518 1.383 . S
C1513 C1509 1.495 . S
C1513 H1519 0.959 . S
C1513 H1520 0.961 . S
C1513 H1521 0.960 . S
C1514 C1512 1.381 . S
C1514 C1515 1.394 . S
C1514 H1522 0.930 . S
C1515 C1514 1.394 . S
C1515 C1516 1.383 . S
C1515 H1523 0.929 . S
C1516 C1515 1.383 . S
C1516 C1517 1.377 . S
C1517 H1501 0.930 . S
C1517 C1516 1.377 . S
C1517 C1518 1.379 . S
C1518 H1502 0.931 . S
C1518 C1512 1.383 . S
C1518 C1517 1.379 . S
H1519 C1513 0.959 . S
H1520 C1513 0.961 . S
H1521 C1513 0.960 . S
H1522 C1514 0.930 . S
H1523 C1515 0.929 . S
H1524 C1532 0.929 . S
H1525 C1534 0.930 . S
H1526 C1536 0.930 . S
H1527 C1539 0.929 . S
H1528 C1542 0.930 . S
H1529 C1544 0.960 . S
H1530 C1544 0.960 . S
H1531 C1544 0.960 . S
C1532 H1524 0.929 . S
C1532 C1533 1.377 . S
C1532 C1534 1.384 . S
C1533 C1532 1.377 . S
C1533 C1539 1.390 . S
C1534 H1525 0.930 . S
C1534 C1532 1.384 . S
C1534 C1535 1.372 . S
C1535 C1534 1.372 . S
C1535 C1536 1.400 . S
C1535 C1540 1.490 . S
C1536 H1526 0.930 . S
C1536 C1535 1.400 . S
C1536 C1539 1.386 . S
H1537 C1553 0.930 . S
H1538 C1554 0.931 . S
C1539 H1527 0.929 . S
C1539 C1533 1.390 . S
C1539 C1536 1.386 . S
C1540 C1535 1.490 . S
C1540 C1542 1.395 1_455 S
C1540 C1543 1.403 . S
H1541 C1547 0.930 . S
C1542 H1528 0.930 . S
C1542 C1540 1.395 1_655 S
C1542 C1545 1.403 . S
C1543 C1540 1.403 . S
C1543 C1544 1.524 . S
C1543 C1547 1.400 . S
C1544 H1529 0.960 . S
C1544 H1530 0.960 . S
C1544 H1531 0.960 . S
C1544 C1543 1.524 . S
C1545 C1542 1.403 . S
C1545 C1546 1.392 . S
C1545 C1549 1.495 . S
C1546 C1545 1.392 . S
C1546 C1547 1.385 1_655 S
C1546 C1548 1.478 . S
C1547 H1541 0.930 . S
C1547 C1543 1.400 . S
C1547 C1546 1.385 1_455 S
C1548 C1546 1.478 . S
C1548 C1550 1.381 . S
C1548 C1554 1.383 . S
C1549 C1545 1.495 . S
C1549 H1555 0.959 . S
C1549 H1556 0.961 . S
C1549 H1557 0.960 . S
C1550 C1548 1.381 . S
C1550 C1551 1.394 . S
C1550 H1558 0.930 . S
C1551 C1550 1.394 . S
C1551 C1552 1.383 . S
C1551 H1559 0.929 . S
C1552 C1551 1.383 . S
C1552 C1553 1.377 . S
C1553 H1537 0.930 . S
C1553 C1552 1.377 . S
C1553 C1554 1.379 . S
C1554 H1538 0.931 . S
C1554 C1548 1.383 . S
C1554 C1553 1.379 . S
H1555 C1549 0.959 . S
H1556 C1549 0.961 . S
H1557 C1549 0.960 . S
H1558 C1550 0.930 . S
H1559 C1551 0.929 . S
H1560 C1568 0.929 . S
H1561 C1570 0.930 . S
H1562 C1572 0.930 . S
H1563 C1575 0.929 . S
H1564 C1578 0.930 . S
H1565 C1580 0.960 . S
H1566 C1580 0.960 . S
H1567 C1580 0.960 . S
C1568 H1560 0.929 . S
C1568 C1569 1.377 . S
C1568 C1570 1.384 . S
C1569 C1568 1.377 . S
C1569 C1575 1.390 . S
C1570 H1561 0.930 . S
C1570 C1568 1.384 . S
C1570 C1571 1.372 . S
C1571 C1570 1.372 . S
C1571 C1572 1.400 . S
C1571 C1576 1.490 . S
C1572 H1562 0.930 . S
C1572 C1571 1.400 . S
C1572 C1575 1.386 . S
H1573 C1589 0.930 . S
H1574 C1590 0.931 . S
C1575 H1563 0.929 . S
C1575 C1569 1.390 . S
C1575 C1572 1.386 . S
C1576 C1571 1.490 . S
C1576 C1578 1.395 . S
C1576 C1579 1.403 . S
H1577 C1583 0.930 . S
C1578 H1564 0.930 . S
C1578 C1576 1.395 . S
C1578 C1581 1.403 . S
C1579 C1576 1.403 . S
C1579 C1580 1.524 . S
C1579 C1583 1.400 . S
C1580 H1565 0.960 . S
C1580 H1566 0.960 . S
C1580 H1567 0.960 . S
C1580 C1579 1.524 . S
C1581 C1578 1.403 . S
C1581 C1582 1.392 . S
C1581 C1585 1.495 . S
C1582 C1581 1.392 . S
C1582 C1583 1.385 . S
C1582 C1584 1.478 . S
C1583 H1577 0.930 . S
C1583 C1579 1.400 . S
C1583 C1582 1.385 . S
C1584 C1582 1.478 . S
C1584 C1586 1.381 . S
C1584 C1590 1.383 . S
C1585 C1581 1.495 . S
C1585 H1591 0.959 . S
C1585 H1592 0.961 . S
C1585 H1593 0.960 . S
C1586 C1584 1.381 . S
C1586 C1587 1.394 . S
C1586 H1594 0.930 . S
C1587 C1586 1.394 . S
C1587 C1588 1.383 . S
C1587 H1595 0.929 . S
C1588 C1587 1.383 . S
C1588 C1589 1.377 . S
C1589 H1573 0.930 . S
C1589 C1588 1.377 . S
C1589 C1590 1.379 . S
C1590 H1574 0.931 . S
C1590 C1584 1.383 . S
C1590 C1589 1.379 . S
H1591 C1585 0.959 . S
H1592 C1585 0.961 . S
H1593 C1585 0.960 . S
H1594 C1586 0.930 . S
H1595 C1587 0.929 . S
H1596 C1604 0.929 . S
H1597 C1606 0.930 . S
H1598 C1608 0.930 . S
H1599 C1611 0.929 . S
H1600 C1614 0.930 . S
H1601 C1616 0.960 . S
H1602 C1616 0.960 . S
H1603 C1616 0.960 . S
C1604 H1596 0.929 . S
C1604 C1605 1.377 . S
C1604 C1606 1.384 . S
C1605 C1604 1.377 . S
C1605 C1611 1.390 . S
C1606 H1597 0.930 . S
C1606 C1604 1.384 . S
C1606 C1607 1.372 . S
C1607 C1606 1.372 . S
C1607 C1608 1.400 . S
C1607 C1612 1.490 . S
C1608 H1598 0.930 . S
C1608 C1607 1.400 . S
C1608 C1611 1.386 . S
H1609 C1625 0.930 . S
H1610 C1626 0.931 . S
C1611 H1599 0.929 . S
C1611 C1605 1.390 . S
C1611 C1608 1.386 . S
C1612 C1607 1.490 . S
C1612 C1614 1.395 . S
C1612 C1615 1.403 . S
H1613 C1619 0.930 . S
C1614 H1600 0.930 . S
C1614 C1612 1.395 . S
C1614 C1617 1.403 . S
C1615 C1612 1.403 . S
C1615 C1616 1.524 . S
C1615 C1619 1.400 . S
C1616 H1601 0.960 . S
C1616 H1602 0.960 . S
C1616 H1603 0.960 . S
C1616 C1615 1.524 . S
C1617 C1614 1.403 . S
C1617 C1618 1.392 . S
C1617 C1621 1.495 . S
C1618 C1617 1.392 . S
C1618 C1619 1.385 . S
C1618 C1620 1.478 . S
C1619 H1613 0.930 . S
C1619 C1615 1.400 . S
C1619 C1618 1.385 . S
C1620 C1618 1.478 . S
C1620 C1622 1.381 . S
C1620 C1626 1.383 . S
C1621 C1617 1.495 . S
C1621 H1627 0.959 . S
C1621 H1628 0.961 . S
C1621 H1629 0.960 . S
C1622 C1620 1.381 . S
C1622 C1623 1.394 . S
C1622 H1630 0.930 . S
C1623 C1622 1.394 . S
C1623 C1624 1.383 . S
C1623 H1631 0.929 . S
C1624 C1623 1.383 . S
C1624 C1625 1.377 . S
C1625 H1609 0.930 . S
C1625 C1624 1.377 . S
C1625 C1626 1.379 . S
C1626 H1610 0.931 . S
C1626 C1620 1.383 . S
C1626 C1625 1.379 . S
H1627 C1621 0.959 . S
H1628 C1621 0.961 . S
H1629 C1621 0.960 . S
H1630 C1622 0.930 . S
H1631 C1623 0.929 . S
H1632 C1640 0.929 . S
H1633 C1642 0.930 . S
H1634 C1644 0.930 . S
H1635 C1647 0.929 . S
H1636 C1650 0.930 . S
H1637 C1652 0.960 . S
H1638 C1652 0.960 . S
H1639 C1652 0.960 . S
C1640 H1632 0.929 . S
C1640 C1641 1.377 . S
C1640 C1642 1.384 . S
C1641 C1640 1.377 . S
C1641 C1647 1.390 . S
C1642 H1633 0.930 . S
C1642 C1640 1.384 . S
C1642 C1643 1.372 . S
C1643 C1642 1.372 . S
C1643 C1644 1.400 . S
C1643 C1648 1.490 . S
C1644 H1634 0.930 . S
C1644 C1643 1.400 . S
C1644 C1647 1.386 . S
H1645 C1661 0.930 . S
H1646 C1662 0.931 . S
C1647 H1635 0.929 . S
C1647 C1641 1.390 . S
C1647 C1644 1.386 . S
C1648 C1643 1.490 . S
C1648 C1650 1.395 . S
C1648 C1651 1.403 . S
H1649 C1655 0.930 . S
C1650 H1636 0.930 . S
C1650 C1648 1.395 . S
C1650 C1653 1.403 . S
C1651 C1648 1.403 . S
C1651 C1652 1.524 . S
C1651 C1655 1.400 . S
C1652 H1637 0.960 . S
C1652 H1638 0.960 . S
C1652 H1639 0.960 . S
C1652 C1651 1.524 . S
C1653 C1650 1.403 . S
C1653 C1654 1.392 . S
C1653 C1657 1.495 . S
C1654 C1653 1.392 . S
C1654 C1655 1.385 . S
C1654 C1656 1.478 . S
C1655 H1649 0.930 . S
C1655 C1651 1.400 . S
C1655 C1654 1.385 . S
C1656 C1654 1.478 . S
C1656 C1658 1.381 . S
C1656 C1662 1.383 . S
C1657 C1653 1.495 . S
C1657 H1663 0.959 . S
C1657 H1664 0.961 . S
C1657 H1665 0.960 . S
C1658 C1656 1.381 . S
C1658 C1659 1.394 . S
C1658 H1666 0.930 . S
C1659 C1658 1.394 . S
C1659 C1660 1.383 . S
C1659 H1667 0.929 . S
C1660 C1659 1.383 . S
C1660 C1661 1.377 . S
C1661 H1645 0.930 . S
C1661 C1660 1.377 . S
C1661 C1662 1.379 . S
C1662 H1646 0.931 . S
C1662 C1656 1.383 . S
C1662 C1661 1.379 . S
H1663 C1657 0.959 . S
H1664 C1657 0.961 . S
H1665 C1657 0.960 . S
H1666 C1658 0.930 . S
H1667 C1659 0.929 . S
H1668 C1676 0.929 . S
H1669 C1678 0.930 . S
H1670 C1680 0.930 . S
H1671 C1683 0.929 . S
H1672 C1686 0.930 . S
H1673 C1688 0.960 . S
H1674 C1688 0.960 . S
H1675 C1688 0.960 . S
C1676 H1668 0.929 . S
C1676 C1677 1.377 . S
C1676 C1678 1.384 . S
C1677 C1676 1.377 . S
C1677 C1683 1.390 . S
C1678 H1669 0.930 . S
C1678 C1676 1.384 . S
C1678 C1679 1.372 . S
C1679 C1678 1.372 . S
C1679 C1680 1.400 . S
C1679 C1684 1.490 . S
C1680 H1670 0.930 . S
C1680 C1679 1.400 . S
C1680 C1683 1.386 . S
H1681 C1697 0.930 . S
H1682 C1698 0.931 . S
C1683 H1671 0.929 . S
C1683 C1677 1.390 . S
C1683 C1680 1.386 . S
C1684 C1679 1.490 . S
C1684 C1686 1.395 . S
C1684 C1687 1.403 . S
H1685 C1691 0.930 . S
C1686 H1672 0.930 . S
C1686 C1684 1.395 . S
C1686 C1689 1.403 . S
C1687 C1684 1.403 . S
C1687 C1688 1.524 . S
C1687 C1691 1.400 . S
C1688 H1673 0.960 . S
C1688 H1674 0.960 . S
C1688 H1675 0.960 . S
C1688 C1687 1.524 . S
C1689 C1686 1.403 . S
C1689 C1690 1.392 . S
C1689 C1693 1.495 . S
C1690 C1689 1.392 . S
C1690 C1691 1.385 . S
C1690 C1692 1.478 . S
C1691 H1685 0.930 . S
C1691 C1687 1.400 . S
C1691 C1690 1.385 . S
C1692 C1690 1.478 . S
C1692 C1694 1.381 . S
C1692 C1698 1.383 . S
C1693 C1689 1.495 . S
C1693 H1699 0.959 . S
C1693 H1700 0.961 . S
C1693 H1701 0.960 . S
C1694 C1692 1.381 . S
C1694 C1695 1.394 . S
C1694 H1702 0.930 . S
C1695 C1694 1.394 . S
C1695 C1696 1.383 . S
C1695 H1703 0.929 . S
C1696 C1695 1.383 . S
C1696 C1697 1.377 . S
C1697 H1681 0.930 . S
C1697 C1696 1.377 . S
C1697 C1698 1.379 . S
C1698 H1682 0.931 . S
C1698 C1692 1.383 . S
C1698 C1697 1.379 . S
H1699 C1693 0.959 . S
H1700 C1693 0.961 . S
H1701 C1693 0.960 . S
H1702 C1694 0.930 . S
H1703 C1695 0.929 . S
H1704 C1712 0.929 . S
H1705 C1714 0.930 . S
H1706 C1716 0.930 . S
H1707 C1719 0.929 . S
H1708 C1722 0.930 . S
H1709 C1724 0.960 . S
H1710 C1724 0.960 . S
H1711 C1724 0.960 . S
C1712 H1704 0.929 . S
C1712 C1713 1.377 . S
C1712 C1714 1.384 . S
C1713 C1712 1.377 . S
C1713 C1719 1.390 . S
C1714 H1705 0.930 . S
C1714 C1712 1.384 . S
C1714 C1715 1.372 . S
C1715 C1714 1.372 . S
C1715 C1716 1.400 . S
C1715 C1720 1.490 . S
C1716 H1706 0.930 . S
C1716 C1715 1.400 . S
C1716 C1719 1.386 . S
H1717 C1733 0.930 . S
H1718 C1734 0.931 . S
C1719 H1707 0.929 . S
C1719 C1713 1.390 . S
C1719 C1716 1.386 . S
C1720 C1715 1.490 . S
C1720 C1722 1.395 . S
C1720 C1723 1.403 . S
H1721 C1727 0.930 . S
C1722 H1708 0.930 . S
C1722 C1720 1.395 . S
C1722 C1725 1.403 . S
C1723 C1720 1.403 . S
C1723 C1724 1.524 . S
C1723 C1727 1.400 . S
C1724 H1709 0.960 . S
C1724 H1710 0.960 . S
C1724 H1711 0.960 . S
C1724 C1723 1.524 . S
C1725 C1722 1.403 . S
C1725 C1726 1.392 . S
C1725 C1729 1.495 . S
C1726 C1725 1.392 . S
C1726 C1727 1.385 . S
C1726 C1728 1.478 . S
C1727 H1721 0.930 . S
C1727 C1723 1.400 . S
C1727 C1726 1.385 . S
C1728 C1726 1.478 . S
C1728 C1730 1.381 . S
C1728 C1734 1.383 . S
C1729 C1725 1.495 . S
C1729 H1735 0.959 . S
C1729 H1736 0.961 . S
C1729 H1737 0.960 . S
C1730 C1728 1.381 . S
C1730 C1731 1.394 . S
C1730 H1738 0.930 . S
C1731 C1730 1.394 . S
C1731 C1732 1.383 . S
C1731 H1739 0.929 . S
C1732 C1731 1.383 . S
C1732 C1733 1.377 . S
C1733 H1717 0.930 . S
C1733 C1732 1.377 . S
C1733 C1734 1.379 . S
C1734 H1718 0.931 . S
C1734 C1728 1.383 . S
C1734 C1733 1.379 . S
H1735 C1729 0.959 . S
H1736 C1729 0.961 . S
H1737 C1729 0.960 . S
H1738 C1730 0.930 . S
H1739 C1731 0.929 . S
H1740 C1748 0.929 . S
H1741 C1750 0.930 . S
H1742 C1752 0.930 . S
H1743 C1755 0.929 . S
H1744 C1758 0.930 . S
H1745 C1760 0.960 . S
H1746 C1760 0.960 . S
H1747 C1760 0.960 . S
C1748 H1740 0.929 . S
C1748 C1749 1.377 . S
C1748 C1750 1.384 . S
C1749 C1748 1.377 . S
C1749 C1755 1.390 . S
C1750 H1741 0.930 . S
C1750 C1748 1.384 . S
C1750 C1751 1.372 . S
C1751 C1750 1.372 . S
C1751 C1752 1.400 . S
C1751 C1756 1.490 . S
C1752 H1742 0.930 . S
C1752 C1751 1.400 . S
C1752 C1755 1.386 . S
H1753 C1769 0.930 . S
H1754 C1770 0.931 . S
C1755 H1743 0.929 . S
C1755 C1749 1.390 . S
C1755 C1752 1.386 . S
C1756 C1751 1.490 . S
C1756 C1758 1.395 . S
C1756 C1759 1.403 . S
H1757 C1763 0.930 . S
C1758 H1744 0.930 . S
C1758 C1756 1.395 . S
C1758 C1761 1.403 . S
C1759 C1756 1.403 . S
C1759 C1760 1.524 . S
C1759 C1763 1.400 . S
C1760 H1745 0.960 . S
C1760 H1746 0.960 . S
C1760 H1747 0.960 . S
C1760 C1759 1.524 . S
C1761 C1758 1.403 . S
C1761 C1762 1.392 . S
C1761 C1765 1.495 . S
C1762 C1761 1.392 . S
C1762 C1763 1.385 . S
C1762 C1764 1.478 . S
C1763 H1757 0.930 . S
C1763 C1759 1.400 . S
C1763 C1762 1.385 . S
C1764 C1762 1.478 . S
C1764 C1766 1.381 . S
C1764 C1770 1.383 . S
C1765 C1761 1.495 . S
C1765 H1771 0.959 . S
C1765 H1772 0.961 . S
C1765 H1773 0.960 . S
C1766 C1764 1.381 . S
C1766 C1767 1.394 . S
C1766 H1774 0.930 . S
C1767 C1766 1.394 . S
C1767 C1768 1.383 . S
C1767 H1775 0.929 . S
C1768 C1767 1.383 . S
C1768 C1769 1.377 . S
C1769 H1753 0.930 . S
C1769 C1768 1.377 . S
C1769 C1770 1.379 . S
C1770 H1754 0.931 . S
C1770 C1764 1.383 . S
C1770 C1769 1.379 . S
H1771 C1765 0.959 . S
H1772 C1765 0.961 . S
H1773 C1765 0.960 . S
H1774 C1766 0.930 . S
H1775 C1767 0.929 . S
C489 C10 0.979 . S
C508 C330 0.991 . S
C525 C50 0.972 . S
C544 C370 0.951 . S
C561 C90 0.973 . S
C580 C410 0.952 . S
C597 C450 0.975 . S
C616 C130 0.993 . S
C633 C170 0.970 . S
C652 C250 0.968 . S
C669 C290 0.979 . S
C688 C210 0.972 . S
C705 C416 1.482 . S
C724 C16 1.504 . S
C741 C456 1.483 . S
C760 C56 1.503 . S
C777 C96 1.477 . S
C796 C256 1.477 . S
C813 C296 1.482 . S
C832 C136 1.504 . S
C849 C336 1.479 . S
C868 C176 1.491 . S
C885 C216 1.477 . S
C904 C376 1.474 . S
C921 C291 4.247 . S
C940 C11 4.235 . S
C957 C331 4.247 . S
C976 C51 4.232 . S
C993 C371 4.247 . S
C1012 C91 4.232 . S
C1029 C131 4.245 . S
C1048 C411 4.237 . S
C1065 C171 4.246 . S
C1084 C451 4.233 . S
C1101 C211 4.244 . S
C1120 C251 4.247 . S
C1137 C19 0.836 . S
C1156 C139 0.809 . S
C1173 C59 0.847 . S
C1192 C179 0.833 . S
C1209 C99 0.833 . S
C1228 C219 0.822 . S
C1245 C379 0.845 . S
C1264 C259 0.789 . S
C1281 C299 0.841 . S
C1300 C419 0.868 . S
C1317 C459 0.848 . S
C1336 C339 0.818 . S
C1353 C287 0.768 . S
C1372 C7 0.741 . S
C1389 C327 0.789 . S
C1408 C47 0.835 . S
C1425 C87 0.789 . S
C1444 C367 0.841 . S
C1461 C407 0.768 . S
C1480 C127 0.747 . S
C1497 C447 0.772 . S
C1516 C167 0.769 . S
C1533 C207 0.789 . S
C1552 C247 0.840 . S
C1569 C2 4.618 . S
C1588 C402 4.610 . S
C1605 C42 4.618 . S
C1624 C442 4.610 1_556 S
C1641 C82 4.618 1_554 S
C1660 C242 4.612 . S
C1677 C122 4.618 . S
C1696 C282 4.609 . S
C1713 C162 4.618 . S
C1732 C322 4.611 1_556 S
C1749 C362 4.618 . S
C1768 C202 4.612 1_554 S
