# Generated by pormake.
# Topology zfu, (5)-cn, num edge types: 1
# Building blocks:
#     Node 0, Type 0, BuildingBlock: XOMCOT_clean_sbu_0, # of connection points: 5
#     Node 1, Type 0, BuildingBlock: XOMCOT_clean_sbu_0, # of connection points: 5
#     Node 2, Type 0, BuildingBlock: XOMCOT_clean_sbu_0, # of connection points: 5
#     Node 3, Type 0, BuildingBlock: XOMCOT_clean_sbu_0, # of connection points: 5
#     Node 4, Type 0, BuildingBlock: XOMCOT_clean_sbu_0, # of connection points: 5
#     Node 5, Type 0, BuildingBlock: XOMCOT_clean_sbu_0, # of connection points: 5
#     Node 6, Type 0, BuildingBlock: XOMCOT_clean_sbu_0, # of connection points: 5
#     Node 7, Type 0, BuildingBlock: XOMCOT_clean_sbu_0, # of connection points: 5
#     Edge 8, Type (0, 0), BuildingBlock: EZIPEK_clean_linker_0, # of connection points: 2
#     Edge 9, Type (0, 0), BuildingBlock: EZIPEK_clean_linker_0, # of connection points: 2
#     Edge 10, Type (0, 0), BuildingBlock: EZIPEK_clean_linker_0, # of connection points: 2
#     Edge 11, Type (0, 0), BuildingBlock: EZIPEK_clean_linker_0, # of connection points: 2
#     Edge 12, Type (0, 0), BuildingBlock: EZIPEK_clean_linker_0, # of connection points: 2
#     Edge 13, Type (0, 0), BuildingBlock: EZIPEK_clean_linker_0, # of connection points: 2
#     Edge 14, Type (0, 0), BuildingBlock: EZIPEK_clean_linker_0, # of connection points: 2
#     Edge 15, Type (0, 0), BuildingBlock: EZIPEK_clean_linker_0, # of connection points: 2
#     Edge 16, Type (0, 0), BuildingBlock: EZIPEK_clean_linker_0, # of connection points: 2
#     Edge 17, Type (0, 0), BuildingBlock: EZIPEK_clean_linker_0, # of connection points: 2
#     Edge 18, Type (0, 0), BuildingBlock: EZIPEK_clean_linker_0, # of connection points: 2
#     Edge 19, Type (0, 0), BuildingBlock: EZIPEK_clean_linker_0, # of connection points: 2
#     Edge 20, Type (0, 0), BuildingBlock: EZIPEK_clean_linker_0, # of connection points: 2
#     Edge 21, Type (0, 0), BuildingBlock: EZIPEK_clean_linker_0, # of connection points: 2
#     Edge 22, Type (0, 0), BuildingBlock: EZIPEK_clean_linker_0, # of connection points: 2
#     Edge 23, Type (0, 0), BuildingBlock: EZIPEK_clean_linker_0, # of connection points: 2
#     Edge 24, Type (0, 0), BuildingBlock: EZIPEK_clean_linker_0, # of connection points: 2
#     Edge 25, Type (0, 0), BuildingBlock: EZIPEK_clean_linker_0, # of connection points: 2
#     Edge 26, Type (0, 0), BuildingBlock: EZIPEK_clean_linker_0, # of connection points: 2
#     Edge 27, Type (0, 0), BuildingBlock: EZIPEK_clean_linker_0, # of connection points: 2
# Relax obj value: 0.185
# Max RMSD: 0.196
# Mean RMSD: 0.196
data_MOF--net-zfu--node1-XOMCOT_clean_sbu_0--edge1-EZIPEK_clean_linker_0
_symmetry_space_group_name_H-M    P1
_symmetry_Int_Tables_number       1
_symmetry_cell_setting            triclinic
loop_
_symmetry_equiv_pos_as_xyz
'x, y, z'
_cell_length_a     30.77277
_cell_length_b     31.008209
_cell_length_c     18.809884
_cell_angle_alpha  90.566481
_cell_angle_beta   89.70307
_cell_angle_gamma 90.029422
loop_
_atom_site_label
_atom_site_type_symbol
_atom_site_fract_x
_atom_site_fract_y
_atom_site_fract_z
_atom_type_partial_charge
Co0 Co 0.48016 0.7742 0.95771 0.0
C1 C 0.54249 0.70283 0.99998 0.0
C2 C 0.52007 0.69853 0.89248 0.0
C3 C 0.54766 0.66483 0.9035 0.0
N4 N 0.51557 0.72207 0.95311 0.0
N5 N 0.56193 0.66767 0.97053 0.0
H6 H 0.54873 0.71442 0.05331 0.0
H7 H 0.50563 0.70583 0.84184 0.0
C8 C 0.40775 0.7529 0.84938 0.0
O9 O 0.38279 0.785 0.86941 0.0
N10 N 0.44572 0.82644 0.95524 0.0
C11 C 0.42307 0.84646 1.00743 0.0
C12 C 0.40173 0.88144 0.97854 0.0
C13 C 0.43915 0.85016 0.89636 0.0
N14 N 0.41146 0.88309 0.90853 0.0
C15 C 0.46077 0.74531 0.09718 0.0
C16 C 0.37404 0.72573 0.08083 0.0
C17 C 0.39258 0.72308 0.14833 0.0
C18 C 0.43639 0.7334 0.15617 0.0
C19 C 0.39927 0.73977 1.02343 0.0
N20 N 0.4425 0.74911 0.03131 0.0
H21 H 0.49448 0.75246 0.106 0.0
H22 H 0.38306 0.74327 0.97412 0.0
H23 H 0.42107 0.83575 0.06188 0.0
H24 H 0.45216 0.84176 0.84446 0.0
O25 O 0.51885 0.80169 1.02325 0.0
O26 O 0.52727 0.80483 0.90692 0.0
O27 O 0.44512 0.74715 0.87703 0.0
C28 C 0.54127 0.81536 0.9704 0.0
H29 H 0.55774 0.64075 0.86472 0.0
H30 H 0.37915 0.90269 1.00588 0.0
H31 H 0.34009 0.71785 0.07286 0.0
H32 H 0.4519 0.73167 0.20766 0.0
Co33 Co 0.7581 0.96171 0.2427 0.0
C34 C 0.82885 0.0183 0.30573 0.0
C35 C 0.82201 0.02079 0.19221 0.0
C36 C 0.85384 0.04919 0.21142 0.0
N37 N 0.80635 1.00121 0.25068 0.0
N38 N 0.85816 0.0477 0.28234 0.0
H39 H 0.82339 1.01035 0.36096 0.0
H40 H 0.81021 0.0153 0.13882 0.0
C41 C 0.80089 0.89313 0.15512 0.0
O42 O 0.7837 0.86535 0.19948 0.0
N43 N 0.70869 0.92346 0.22437 0.0
C44 C 0.67271 0.91558 0.26386 0.0
C45 C 0.6421 0.89509 0.22198 0.0
C46 C 0.69809 0.90929 0.1582 0.0
N47 N 0.65837 0.8911 0.15577 0.0
C48 C 0.75856 0.91278 0.37068 0.0
C49 C 0.84542 0.89092 0.37118 0.0
C50 C 0.81935 0.88019 0.4297 0.0
C51 C 0.77546 0.89105 0.42875 0.0
C52 C 0.82706 0.91298 0.31383 0.0
N53 N 0.78374 0.92308 0.31321 0.0
H54 H 0.72572 0.92382 0.37486 0.0
H55 H 0.84809 0.92332 0.27155 0.0
H56 H 0.66652 0.92765 0.3169 0.0
H57 H 0.71746 0.91525 0.11123 0.0
O58 O 0.72529 0.99479 0.31072 0.0
O59 O 0.72581 1.00817 0.19549 0.0
O60 O 0.7913 0.9332 0.16093 0.0
C61 C 0.7124 0.01883 0.25948 0.0
H62 H 0.87207 0.07005 0.17633 0.0
H63 H 0.60936 0.88645 0.23764 0.0
H64 H 0.87988 0.88385 0.37114 0.0
H65 H 0.75472 0.88432 0.47403 0.0
Co66 Co 0.56132 0.25144 0.48356 0.0
C67 C 0.50426 0.33147 0.51622 0.0
C68 C 0.50197 0.3054 0.41039 0.0
C69 C 0.47318 0.33877 0.41457 0.0
N70 N 0.52117 0.29977 0.47402 0.0
N71 N 0.47457 0.35526 0.48078 0.0
H72 H 0.51312 0.33799 0.57057 0.0
H73 H 0.50843 0.28599 0.36346 0.0
C74 C 0.61093 0.31609 0.40237 0.0
O75 O 0.59936 0.34311 0.45328 0.0
N76 N 0.60002 0.20229 0.48214 0.0
C77 C 0.61855 0.17971 0.5348 0.0
C78 C 0.64156 0.1456 0.50445 0.0
C79 C 0.61146 0.18164 0.4213 0.0
N80 N 0.63682 0.14714 0.43316 0.0
C81 C 0.57554 0.28935 0.6198 0.0
C82 C 0.66431 0.3008 0.61022 0.0
C83 C 0.6426 0.31244 0.67328 0.0
C84 C 0.59783 0.30638 0.67774 0.0
C85 C 0.64045 0.28398 0.55279 0.0
N86 N 0.5962 0.27999 0.55702 0.0
H87 H 0.54139 0.28274 0.62652 0.0
H88 H 0.65765 0.27334 0.50579 0.0
H89 H 0.61511 0.18704 0.59089 0.0
H90 H 0.60068 0.19128 0.36912 0.0
O91 O 0.52315 0.22355 0.54926 0.0
O92 O 0.51792 0.21574 0.43282 0.0
O93 O 0.59718 0.27708 0.40341 0.0
C94 C 0.50265 0.20709 0.49613 0.0
H95 H 0.45323 0.35077 0.37183 0.0
H96 H 0.6596 0.12115 0.53243 0.0
H97 H 0.69925 0.30409 0.60592 0.0
H98 H 0.58031 0.31391 0.72642 0.0
Co99 Co 0.27579 0.06152 0.74136 0.0
C100 C 0.2071 0.99813 0.78797 0.0
C101 C 0.20392 0.01566 0.678 0.0
C102 C 0.17123 0.98692 0.6911 0.0
N103 N 0.22574 0.02377 0.73872 0.0
N104 N 0.17358 0.97546 0.75965 0.0
H105 H 0.21807 0.99551 0.84233 0.0
H106 H 0.21188 0.02899 0.62668 0.0
C107 C 0.24074 0.13865 0.66774 0.0
O108 O 0.25767 0.16134 0.72009 0.0
N109 N 0.327 0.09852 0.73399 0.0
C110 C 0.36154 0.10388 0.7775 0.0
C111 C 0.39494 0.12334 0.74009 0.0
C112 C 0.34097 0.11342 0.67032 0.0
N113 N 0.3817 0.12903 0.67281 0.0
C114 C 0.27183 0.09955 0.88038 0.0
C115 C 0.18651 0.12678 0.87689 0.0
C116 C 0.20988 0.13119 0.94029 0.0
C117 C 0.25298 0.11725 0.94153 0.0
C118 C 0.20649 0.10791 0.81708 0.0
N119 N 0.24919 0.09565 0.81834 0.0
H120 H 0.30391 0.08653 0.88494 0.0
H121 H 0.18711 0.10196 0.77083 0.0
H122 H 0.36475 0.09086 0.83011 0.0
H123 H 0.32295 0.11007 0.62137 0.0
O124 O 0.30551 0.02307 0.80325 0.0
O125 O 0.3083 0.01786 0.68589 0.0
O126 O 0.24667 0.09773 0.66508 0.0
C127 C 0.32032 1.00318 0.74785 0.0
H128 H 0.14859 0.97379 0.65267 0.0
H129 H 0.4272 0.13051 0.75958 0.0
H130 H 0.15274 0.13646 0.87442 0.0
H131 H 0.27171 0.11914 0.99008 0.0
Co132 Co 0.97044 0.74664 0.87682 0.0
C133 C 0.03082 0.82177 0.83579 0.0
C134 C 0.02837 0.80517 0.94599 0.0
C135 C 0.0574 0.83822 0.93855 0.0
N136 N 1.01142 0.79448 0.88205 0.0
N137 N 0.05878 0.84863 0.86958 0.0
H138 H 0.02594 0.82228 0.7792 0.0
H139 H 0.02027 0.78938 0.99533 0.0
C140 C 0.92248 0.81522 0.95454 0.0
O141 O 0.93364 0.84034 0.90163 0.0
N142 N 0.93083 0.6986 0.88309 0.0
C143 C 0.91408 0.67203 0.83319 0.0
C144 C 0.89278 0.63857 0.86751 0.0
C145 C 0.91985 0.68117 0.94616 0.0
N146 N 0.89664 0.64473 0.93838 0.0
C147 C 0.95614 0.77922 0.7379 0.0
C148 C 0.86845 0.79647 0.74926 0.0
C149 C 0.89033 0.80583 0.68562 0.0
C150 C 0.93446 0.79648 0.6801 0.0
C151 C 0.89174 0.77929 0.80654 0.0
N152 N 0.9357 0.77299 0.80168 0.0
H153 H 0.98959 0.77009 0.73029 0.0
H154 H 0.87438 0.77082 0.85424 0.0
H155 H 0.91852 0.67566 0.77648 0.0
H156 H 0.93031 0.69396 0.99702 0.0
O157 O 1.00733 0.71504 0.81286 0.0
O158 O 1.01332 0.71222 0.92965 0.0
O159 O 0.93577 0.77609 0.9555 0.0
C160 C 0.02746 0.69995 0.86692 0.0
H161 H 0.07647 0.85326 0.98018 0.0
H162 H 0.8769 0.61125 0.84253 0.0
H163 H 0.83386 0.80216 0.75438 0.0
H164 H 0.95198 0.80189 0.63086 0.0
Co165 Co 0.77925 0.461 0.12405 0.0
C166 C 0.70943 0.51825 0.06299 0.0
C167 C 0.71585 0.52073 0.17668 0.0
C168 C 0.68495 0.54999 0.15784 0.0
N169 N 0.73122 0.50071 0.1178 0.0
N170 N 0.68089 0.5485 0.08678 0.0
H171 H 0.7148 0.50994 1.00761 0.0
H172 H 0.72729 0.51501 0.23002 0.0
C173 C 0.73611 0.39191 0.20813 0.0
O174 O 0.75353 0.36422 0.16298 0.0
N175 N 0.82865 0.42259 0.13987 0.0
C176 C 0.86436 0.41547 0.0991 0.0
C177 C 0.89588 0.39577 0.13933 0.0
C178 C 0.84023 0.40857 0.20523 0.0
N179 N 0.88052 0.39149 0.20591 0.0
C180 C 0.77833 0.41382 0.99254 0.0
C181 C 0.69154 0.39162 0.99203 0.0
C182 C 0.71721 0.38191 0.9323 0.0
C183 C 0.76108 0.39288 0.93322 0.0
C184 C 0.71024 0.41283 0.0506 0.0
N185 N 0.75353 0.42311 0.05122 0.0
H186 H 0.81105 0.42517 0.98843 0.0
H187 H 0.68942 0.42254 0.09379 0.0
H188 H 0.86991 0.4279 0.04652 0.0
H189 H 0.82112 0.41396 0.25288 0.0
O190 O 0.81221 0.4948 0.05839 0.0
O191 O 0.81134 0.50676 0.17458 0.0
O192 O 0.74589 0.43195 0.20415 0.0
C193 C 0.82485 0.51822 0.11141 0.0
H194 H 0.66696 0.5712 0.19334 0.0
H195 H 0.92869 0.3881 0.12246 0.0
H196 H 0.65708 0.38451 0.99215 0.0
H197 H 0.78149 0.38699 0.88702 0.0
Co198 Co 0.06267 0.274 0.39213 0.0
C199 C 0.99995 0.20128 0.35742 0.0
C200 C 1.01483 0.20944 0.46808 0.0
C201 C 0.98689 0.1754 0.46163 0.0
N202 N 0.0242 0.22504 0.40307 0.0
N203 N 0.97696 0.17067 0.39255 0.0
H204 H 0.99888 0.20628 0.30059 0.0
H205 H 0.02741 0.22225 0.51752 0.0
C206 C 0.14054 0.24 0.46733 0.0
O207 O 0.1635 0.25388 0.41306 0.0
N208 N 0.10086 0.32466 0.39142 0.0
C209 C 0.10372 0.3574 0.34458 0.0
C210 C 0.12692 0.39097 0.37493 0.0
C211 C 0.1209 0.34015 0.4506 0.0
N212 N 0.13787 0.3798 0.4414 0.0
C213 C 0.10025 0.26471 0.25386 0.0
C214 C 0.12844 0.18058 0.264 0.0
C215 C 0.13395 0.20233 0.19956 0.0
C216 C 0.11922 0.24473 0.19489 0.0
C217 C 0.10822 0.2017 0.32166 0.0
N218 N 0.09586 0.244 0.31726 0.0
H219 H 0.08713 0.29633 0.24672 0.0
H220 H 0.10195 0.18374 0.36903 0.0
H221 H 0.08648 0.35941 0.29495 0.0
H222 H 0.11987 0.32452 0.50167 0.0
O223 O 0.02302 0.30046 0.32773 0.0
O224 O 0.01929 0.30921 0.44433 0.0
O225 O 0.09972 0.24813 0.47069 0.0
C226 C 1.00334 0.31759 0.38147 0.0
H227 H 0.97357 0.15634 0.50448 0.0
H228 H 0.13247 0.42239 0.35198 0.0
H229 H 0.13868 0.14735 0.26907 0.0
H230 H 0.12186 0.26219 0.14542 0.0
Co231 Co 0.25932 0.57541 0.58814 0.0
C232 C 0.32452 0.50623 0.54536 0.0
C233 C 0.35186 0.56925 0.55995 0.0
C234 C 0.3852 0.54093 0.54833 0.0
N235 N 0.31367 0.54768 0.56001 0.0
N236 N 0.36813 0.50139 0.53912 0.0
H237 H 0.30158 0.48031 0.53917 0.0
H238 H 0.35552 0.60353 0.56884 0.0
C239 C 0.29329 0.64732 0.68681 0.0
O240 O 0.25786 0.67019 0.68109 0.0
N241 N 0.20654 0.60434 0.6202 0.0
C242 C 0.1765 0.6244 0.58047 0.0
C243 C 0.14407 0.63996 0.62486 0.0
C244 C 0.19153 0.6072 0.68804 0.0
N245 N 0.15377 0.62937 0.69228 0.0
C246 C 0.27378 0.59467 0.44508 0.0
C247 C 0.28579 0.68259 0.45468 0.0
C248 C 0.29631 0.66085 0.39123 0.0
C249 C 0.28733 0.61692 0.38549 0.0
C250 C 0.27 0.65902 0.51266 0.0
N251 N 0.26794 0.61506 0.50921 0.0
H252 H 0.27098 0.56007 0.44043 0.0
H253 H 0.26127 0.67631 0.55991 0.0
H254 H 0.17791 0.62733 0.52326 0.0
H255 H 0.20816 0.59386 0.73335 0.0
O256 O 0.22464 0.53565 0.53414 0.0
O257 O 0.24299 0.52487 0.64584 0.0
O258 O 0.29666 0.61013 0.65743 0.0
C259 C 0.22242 0.51129 0.58907 0.0
H260 H 0.41951 0.54866 0.54635 0.0
H261 H 0.1155 0.65771 0.60897 0.0
H262 H 0.29128 0.71697 0.4602 0.0
H263 H 0.29432 0.5992 0.33679 0.0
C264 C 0.60607 0.5702 0.06156 0.0
C265 C 0.65112 0.57501 0.04805 0.0
C266 C 0.63691 0.64061 0.98072 0.0
C267 C 0.59254 0.63834 1.00114 0.0
N268 N 0.53423 0.60272 0.06221 0.0
N269 N 0.71059 0.61561 0.9994 0.0
C270 C 0.57695 0.60357 0.04214 0.0
C271 C 0.66688 0.61025 1.00821 0.0
N272 N 0.59151 0.53294 0.0917 0.0
N273 N 0.65002 0.67148 0.93399 0.0
H274 H 0.73328 0.59343 1.01748 0.0
H275 H 0.72458 0.64296 0.97731 0.0
H276 H 0.62903 0.69498 0.91494 0.0
H277 H 0.68071 0.67232 0.91056 0.0
H278 H 0.55884 0.52537 0.09872 0.0
H279 H 0.61247 0.50771 0.1043 0.0
H280 H 0.52125 0.58052 0.0976 0.0
H281 H 0.51201 0.62611 0.0465 0.0
C282 C 0.96248 0.10205 0.32952 0.0
C283 C 0.94665 0.13932 0.36523 0.0
C284 C 0.87192 0.11199 0.35668 0.0
C285 C 0.88776 0.0747 0.32139 0.0
N286 N 0.94705 0.02995 0.28359 0.0
N287 N 0.88793 0.17679 0.42438 0.0
C288 C 0.93292 0.06851 0.31082 0.0
C289 C 0.9018 0.14329 0.38245 0.0
N290 N 1.00579 0.09893 0.31397 0.0
N291 N 0.82813 0.11843 0.36221 0.0
H292 H 0.90846 0.20138 0.4415 0.0
H293 H 0.85679 0.17899 0.44598 0.0
H294 H 0.8055 0.09533 0.34643 0.0
H295 H 0.81409 0.14731 0.37906 0.0
H296 H 0.01937 0.07465 0.28246 0.0
H297 H 0.02836 0.12202 0.33033 0.0
H298 H 0.97957 0.0214 0.27806 0.0
H299 H 0.92561 1.00491 0.27114 0.0
C300 C 0.41872 0.39094 0.55744 0.0
C301 C 0.45095 0.39317 0.50339 0.0
C302 C 0.42266 0.46304 0.46673 0.0
C303 C 0.39316 0.46299 0.52463 0.0
N304 N 0.36953 0.43099 0.63454 0.0
N305 N 0.49103 0.43634 0.42041 0.0
C306 C 0.39283 0.42801 0.57276 0.0
C307 C 0.45519 0.43095 0.46242 0.0
N308 N 0.41184 0.35321 0.59242 0.0
N309 N 0.41859 0.49307 0.41458 0.0
H310 H 0.51645 0.41409 0.41951 0.0
H311 H 0.49765 0.46479 0.39335 0.0
H312 H 0.39346 0.51565 0.41445 0.0
H313 H 0.43709 0.49247 0.36802 0.0
H314 H 0.38554 0.34829 0.6265 0.0
H315 H 0.43075 0.32584 0.58357 0.0
H316 H 0.37129 0.40814 0.67464 0.0
H317 H 0.35157 0.45828 0.64858 0.0
C318 C 0.07994 0.92473 0.85633 0.0
C319 C 0.08701 0.88063 0.83959 0.0
C320 C 0.15187 0.89924 0.77105 0.0
C321 C 0.1467 0.94307 0.7919 0.0
N322 N 0.10847 0.99788 0.85813 0.0
N323 N 0.13291 0.8246 0.79207 0.0
C324 C 0.1116 0.95586 0.83624 0.0
C325 C 0.12384 0.86751 0.7998 0.0
N326 N 0.04203 0.93663 0.88915 0.0
N327 N 0.18294 0.88816 0.72216 0.0
H328 H 0.11287 0.80054 0.81236 0.0
H329 H 0.16186 0.81289 0.77052 0.0
H330 H 0.20487 0.91032 0.70148 0.0
H331 H 0.18511 0.85777 0.69838 0.0
H332 H 0.03275 0.96849 0.89814 0.0
H333 H 1.01803 0.91434 0.90263 0.0
H334 H 0.08615 1.00888 0.89588 0.0
H335 H 0.13017 0.02161 0.84146 0.0
C336 C 0.36308 0.66326 0.31626 0.0
C337 C 0.32198 0.68127 0.33365 0.0
C338 C 0.32983 0.73152 0.23487 0.0
C339 C 0.36713 0.70837 0.21095 0.0
N340 N 0.4128 0.64528 0.22115 0.0
N341 N 0.26298 0.72884 0.3034 0.0
C342 C 0.38198 0.67223 0.24949 0.0
C343 C 0.30437 0.71454 0.29143 0.0
N344 N 0.38441 0.63805 0.36404 0.0
N345 N 0.31959 0.77035 0.20568 0.0
H346 H 0.2433 0.71699 0.34405 0.0
H347 H 0.24707 0.74982 0.26933 0.0
H348 H 0.33824 0.78462 0.16588 0.0
H349 H 0.29515 0.7903 0.22589 0.0
H350 H 0.41611 0.62718 0.3559 0.0
H351 H 0.37233 0.63213 0.41497 0.0
H352 H 0.4217 0.61637 0.24487 0.0
H353 H 0.42586 0.64921 0.17034 0.0
C354 C 0.85458 0.88813 0.54929 0.0
C355 C 0.8379 0.86073 0.49492 0.0
C356 C 0.85287 0.79713 0.56777 0.0
C357 C 0.86795 0.82466 0.62319 0.0
N358 N 0.87784 0.89602 0.67204 0.0
N359 N 0.81569 0.79016 0.45456 0.0
C360 C 0.86715 0.87012 0.61547 0.0
C361 C 0.83544 0.81546 0.50486 0.0
N362 N 0.8592 0.93131 0.53691 0.0
N363 N 0.8564 0.7534 0.57468 0.0
H364 H 0.80435 0.8022 0.4065 0.0
H365 H 0.80819 0.75777 0.4618 0.0
H366 H 0.86695 0.73885 0.62129 0.0
H367 H 0.85109 0.7315 0.53337 0.0
H368 H 0.87552 0.95245 0.57077 0.0
H369 H 0.84919 0.94588 0.49002 0.0
H370 H 0.87376 0.92932 0.67294 0.0
H371 H 0.88785 0.88387 0.72082 0.0
C372 C 0.69886 0.31849 0.85351 0.0
C373 C 0.69807 0.3637 0.86601 0.0
C374 C 0.66857 0.37518 0.74653 0.0
C375 C 0.66589 0.32987 0.73644 0.0
N376 N 0.67471 0.25785 0.78108 0.0
N377 N 0.67889 0.4353 0.82845 0.0
C378 C 0.68021 0.30134 0.79007 0.0
C379 C 0.68206 0.39214 0.81351 0.0
N380 N 0.71819 0.29209 0.90182 0.0
N381 N 0.65885 0.40191 0.69142 0.0
H382 H 0.68947 0.44909 0.87612 0.0
H383 H 0.66311 0.45723 0.79599 0.0
H384 H 0.6484 0.39051 0.64201 0.0
H385 H 0.6643 0.43503 0.69233 0.0
H386 H 0.72442 0.25953 0.89254 0.0
H387 H 0.73058 0.30334 0.95009 0.0
H388 H 0.67946 0.23549 0.82119 0.0
H389 H 0.66298 0.24407 0.73413 0.0
C390 C 0.20705 0.18708 0.03798 0.0
C391 C 0.18955 0.14916 1.00639 0.0
C392 C 0.134 0.14645 0.10046 0.0
C393 C 0.15453 0.18157 0.13592 0.0
N394 N 0.21664 0.22872 0.1462 0.0
N395 N 0.14218 0.0873 1.01641 0.0
C396 C 0.19294 0.19988 0.10697 0.0
C397 C 0.15465 0.12721 0.04014 0.0
N398 N 0.23601 0.21183 1.00106 0.0
N399 N 0.09399 0.13255 0.12228 0.0
H400 H 0.15705 0.07156 0.97352 0.0
H401 H 0.11994 0.06808 0.04352 0.0
H402 H 0.07731 0.14617 0.16531 0.0
H403 H 0.07565 0.11017 0.09365 0.0
H404 H 0.24646 0.24201 1.01882 0.0
H405 H 0.24614 0.20433 0.94939 0.0
H406 H 0.24709 0.23992 0.13041 0.0
H407 H 0.20801 0.23797 0.19786 0.0
C408 C 0.34233 0.65541 0.7929 0.0
C409 C 0.33125 0.66722 0.72284 0.0
C410 C 0.37825 0.73083 0.73113 0.0
C411 C 0.38882 0.71963 0.80166 0.0
N412 N 0.39258 0.66404 0.89075 0.0
N413 N 0.35163 0.70572 0.61743 0.0
C414 C 0.37482 0.67943 0.82967 0.0
C415 C 0.35321 0.70181 0.68946 0.0
N416 N 0.32059 0.62252 0.82533 0.0
N417 N 0.39165 0.76943 0.70423 0.0
H418 H 0.33733 0.68212 0.58572 0.0
H419 H 0.36938 0.72848 0.58909 0.0
H420 H 0.41244 0.79026 0.73169 0.0
H421 H 0.3804 0.78164 0.65632 0.0
H422 H 0.32341 0.6158 0.87926 0.0
H423 H 0.2976 0.60353 0.79906 0.0
H424 H 0.386 0.63345 0.91048 0.0
H425 H 0.41767 0.67967 0.91743 0.0
C426 C 0.81919 0.83978 0.059 0.0
C427 C 0.83152 0.87673 0.09904 0.0
C428 C 0.90472 0.87256 0.04541 0.0
C429 C 0.89322 0.83316 1.01099 0.0
N430 N 0.84154 0.77471 0.9979 0.0
N431 N 0.8878 0.92709 0.1341 0.0
C432 C 0.85121 0.81527 1.02194 0.0
C433 C 0.87467 0.89309 0.0928 0.0
N434 N 0.7762 0.82937 0.0532 0.0
N435 N 0.94469 0.89041 0.03301 0.0
H436 H 0.86671 0.94562 0.16469 0.0
H437 H 0.92014 0.93612 0.14048 0.0
H438 H 0.96959 0.8741 1.00627 0.0
H439 H 0.95282 0.92196 0.04692 0.0
H440 H 0.76449 0.80556 1.01884 0.0
H441 H 0.75175 0.84814 0.07618 0.0
H442 H 0.81295 0.75869 1.01136 0.0
H443 H 0.86354 0.75504 0.97104 0.0
C444 C 0.66096 0.39173 0.26591 0.0
C445 C 0.70432 0.37557 0.26214 0.0
C446 C 0.68316 0.31465 0.33769 0.0
C447 C 0.64079 0.33225 0.34572 0.0
N448 N 0.58868 0.38734 0.31791 0.0
N449 N 0.75875 0.32831 0.30935 0.0
C450 C 0.62962 0.37076 0.30981 0.0
C451 C 0.71587 0.33879 0.3021 0.0
N452 N 0.64907 0.42625 0.22593 0.0
N453 N 0.69236 0.2746 0.36303 0.0
H454 H 0.78362 0.34674 0.28732 0.0
H455 H 0.76997 0.30472 0.34375 0.0
H456 H 0.66956 0.25531 0.3883 0.0
H457 H 0.72137 0.25853 0.35213 0.0
H458 H 0.61701 0.43522 0.21684 0.0
H459 H 0.67117 0.4459 0.20009 0.0
H460 H 0.57983 0.41838 0.30325 0.0
H461 H 0.56336 0.3701 0.34134 0.0
C462 C 0.20374 0.22948 0.54893 0.0
C463 C 0.1631 0.21454 0.52343 0.0
C464 C 0.17208 0.14878 0.59433 0.0
C465 C 0.21505 0.16173 0.61248 0.0
N466 N 0.27514 0.20963 0.58959 0.0
N467 N 0.11167 0.15557 0.51434 0.0
C468 C 0.23181 0.20073 0.58464 0.0
C469 C 0.14801 0.17307 0.5442 0.0
N470 N 0.21488 0.2718 0.54173 0.0
N471 N 0.15307 0.11436 0.62667 0.0
H472 H 0.09146 0.17232 0.48073 0.0
H473 H 0.10313 0.12321 0.51928 0.0
H474 H 0.16942 0.0941 0.66067 0.0
H475 H 0.11995 0.10761 0.62348 0.0
H476 H 0.24252 0.28532 0.56476 0.0
H477 H 0.19361 0.2943 0.52048 0.0
H478 H 0.28975 0.23583 0.56469 0.0
H479 H 0.2971 0.18786 0.61104 0.0
C480 C 0.34768 0.90088 0.8339 0.0
C481 C 0.39107 0.90953 0.85524 0.0
C482 C 0.3928 0.97281 0.77772 0.0
C483 C 0.34878 0.96537 0.7598 0.0
N484 N 0.28927 0.91633 0.75135 0.0
N485 N 0.4579 0.94815 0.8375 0.0
C486 C 0.32809 0.92705 0.78127 0.0
C487 C 0.41474 0.9435 0.82312 0.0
N488 N 0.32462 0.86886 0.86611 0.0
N489 N 0.4126 1.00931 0.75398 0.0
H490 H 0.47393 0.92857 0.87347 0.0
H491 H 0.47831 0.96965 0.81142 0.0
H492 H 0.39744 0.02925 0.71752 0.0
H493 H 0.44282 0.02024 0.77097 0.0
H494 H 0.29154 0.86376 0.85834 0.0
H495 H 0.33784 0.84909 0.90476 0.0
H496 H 0.27355 0.88708 0.75972 0.0
H497 H 0.27545 0.9354 0.71199 0.0
C498 C 0.6176 0.81782 1.0091 0.0
C499 C 0.58063 0.84112 0.98725 0.0
C500 C 0.60404 0.90263 0.06121 0.0
C501 C 0.63552 0.87596 0.09339 0.0
N502 N 0.67231 0.8079 0.10018 0.0
N503 N 0.53907 0.90643 0.98854 0.0
C504 C 0.643 0.83369 0.06686 0.0
C505 C 0.57466 0.88428 1.0109 0.0
N506 N 0.62719 0.77977 0.97568 0.0
N507 N 0.60213 0.94525 0.07976 0.0
H508 H 0.51839 0.89364 0.95001 0.0
H509 H 0.52934 0.93614 1.00934 0.0
H510 H 0.62318 0.95896 0.11699 0.0
H511 H 0.58221 0.96751 0.05475 0.0
H512 H 0.65529 0.76211 0.9852 0.0
H513 H 0.60854 0.76843 0.93318 0.0
H514 H 0.67656 0.77534 0.08811 0.0
H515 H 0.69059 0.81868 0.14343 0.0
C516 C 0.64505 0.04993 0.31092 0.0
C517 C 0.68584 0.05738 0.27837 0.0
C518 C 0.69127 0.12717 0.34075 0.0
C519 C 0.65305 0.11714 0.37984 0.0
N520 N 0.59353 0.06943 0.4042 0.0
N521 N 0.74247 0.10661 0.24667 0.0
C522 C 0.62956 0.07884 0.36469 0.0
C523 C 0.70708 0.0975 0.28795 0.0
N524 N 0.62125 0.01513 0.28904 0.0
N525 N 0.71339 0.16406 0.35736 0.0
H526 H 0.75326 0.08545 0.20691 0.0
H527 H 0.75931 0.13567 0.24789 0.0
H528 H 0.70336 0.1847 0.39833 0.0
H529 H 0.74234 0.17352 0.3335 0.0
H530 H 0.59 1.00818 0.30689 0.0
H531 H 0.63177 0.99538 0.24711 0.0
H532 H 0.57645 0.04055 0.40061 0.0
H533 H 0.58222 0.08988 0.44444 0.0
C534 C 0.4647 0.13838 0.5253 0.0
C535 C 0.46214 0.18304 0.51166 0.0
C536 C 0.4029 0.19058 0.59806 0.0
C537 C 0.40649 0.14635 0.61432 0.0
N538 N 0.43145 0.07571 0.58009 0.0
N539 N 0.41852 0.24691 0.51329 0.0
C540 C 0.43435 0.11932 0.57326 0.0
C541 C 0.42747 0.20744 0.54069 0.0
N542 N 0.4973 0.1149 0.49454 0.0
N543 N 0.37788 0.2169 0.63995 0.0
H544 H 0.43574 0.25862 0.4697 0.0
H545 H 0.39129 0.26495 0.52784 0.0
H546 H 0.36006 0.20537 0.68313 0.0
H547 H 0.37731 0.25033 0.63487 0.0
H548 H 0.50454 0.08322 0.50798 0.0
H549 H 0.51776 0.1283 0.45621 0.0
H550 H 0.44875 0.05386 0.54856 0.0
H551 H 0.40844 0.06154 0.61322 0.0
C552 C 0.84297 0.6254 0.03145 0.0
C553 C 0.88243 0.61665 0.99485 0.0
C554 C 0.89253 0.55114 0.065 0.0
C555 C 0.85085 0.55732 0.09549 0.0
N556 N 0.79254 0.60515 0.12606 0.0
N557 N 0.95032 0.57873 0.9894 0.0
C558 C 0.82831 0.5965 0.08517 0.0
C559 C 0.90909 0.58183 1.01593 0.0
N560 N 0.81918 0.66063 1.01276 0.0
N561 N 0.91533 0.51494 0.08186 0.0
H562 H 0.96294 0.60136 0.95443 0.0
H563 H 0.97293 0.55589 1.00523 0.0
H564 H 0.90499 0.49459 0.12244 0.0
H565 H 0.94375 0.50501 0.05642 0.0
H566 H 0.78946 0.66904 0.03539 0.0
H567 H 0.82895 0.68118 0.97213 0.0
H568 H 0.77472 0.63359 0.12403 0.0
H569 H 0.78276 0.58456 0.16663 0.0
C570 C 0.92576 0.32011 0.34891 0.0
C571 C 0.96372 0.3434 0.36686 0.0
C572 C 0.93767 0.40425 0.29594 0.0
C573 C 0.90489 0.37735 0.26688 0.0
N574 N 0.86743 0.30946 0.26397 0.0
N575 N 1.0049 0.4089 0.36304 0.0
C576 C 0.89819 0.33547 0.29409 0.0
C577 C 0.96885 0.38635 0.34315 0.0
N578 N 0.91701 0.2827 0.38354 0.0
N579 N 0.93886 0.44672 0.27765 0.0
H580 H 0.02646 0.39672 0.40033 0.0
H581 H 1.01393 0.43847 0.34181 0.0
H582 H 0.9161 0.46013 0.24338 0.0
H583 H 0.95989 0.46918 0.30034 0.0
H584 H 0.88818 0.26553 0.3773 0.0
H585 H 0.93711 0.2717 0.42408 0.0
H586 H 0.86362 0.27701 0.27623 0.0
H587 H 0.84746 0.31984 0.22289 0.0
C588 C 0.15182 0.47511 0.564 0.0
C589 C 0.19627 0.47101 0.58269 0.0
C590 C 0.20021 0.40281 0.51636 0.0
C591 C 0.15634 0.40772 0.49546 0.0
N592 N 0.08694 0.44048 0.5177 0.0
N593 N 0.25614 0.42311 0.60114 0.0
C594 C 0.13093 0.44124 0.52572 0.0
C595 C 0.21818 0.43196 0.56737 0.0
N596 N 0.13037 0.51254 0.5796 0.0
N597 N 0.22544 0.37221 0.48399 0.0
H598 H 0.26858 0.44393 0.63999 0.0
H599 H 0.27245 0.39381 0.59562 0.0
H600 H 0.21335 0.35167 0.4445 0.0
H601 H 0.25878 0.36963 0.49238 0.0
H602 H 0.09965 0.51998 0.56025 0.0
H603 H 0.14469 0.53699 0.60975 0.0
H604 H 0.066 0.46221 0.54288 0.0
H605 H 0.0713 0.41516 0.49153 0.0
C606 C 0.13619 0.67882 0.79342 0.0
C607 C 0.12818 0.64009 0.75481 0.0
C608 C 0.05846 0.63209 0.81658 0.0
C609 C 0.0656 0.67188 0.85263 0.0
N610 N 0.11616 0.72529 0.89338 0.0
N611 N 0.08867 0.57374 0.74481 0.0
C612 C 0.10661 0.69213 0.84788 0.0
C613 C 0.0917 0.61449 0.77216 0.0
N614 N 0.17026 0.70435 0.77441 0.0
N615 N 0.01866 0.61289 0.82093 0.0
H616 H 0.1131 0.56057 0.71283 0.0
H617 H 0.06451 0.55194 0.75923 0.0
H618 H 0.99423 0.62504 0.85398 0.0
H619 H 1.00925 0.58666 0.78962 0.0
H620 H 0.17603 0.73478 0.7962 0.0
H621 H 0.19087 0.69619 0.7325 0.0
H622 H 0.14662 0.73983 0.8962 0.0
H623 H 0.09444 0.73519 0.93309 0.0
loop_
_geom_bond_atom_site_label_1
_geom_bond_atom_site_label_2
_geom_bond_distance
_geom_bond_site_symmetry_2
_ccdc_geom_bond_type
Co0 N4 2.148 . S
Co0 N10 2.128 . S
Co0 N20 2.194 1_556 S
Co0 O25 2.351 1_556 S
Co0 O26 2.155 . S
Co0 O27 2.096 . S
C1 N4 1.301 1_554 S
C1 N5 1.328 . S
C1 H6 0.930 . S
C2 C3 1.333 . S
C2 N4 1.317 . S
C2 H7 0.930 . S
C3 C2 1.333 . S
C3 N5 1.350 1_556 S
C3 H29 0.931 . S
N4 Co0 2.148 . S
N4 C1 1.301 1_556 S
N4 C2 1.317 . S
N5 C1 1.328 . S
N5 C3 1.350 1_554 S
H6 C1 0.930 . S
H7 C2 0.930 . S
C8 O9 1.224 . S
C8 O27 1.247 . S
O9 C8 1.224 . S
N10 Co0 2.128 . S
N10 C11 1.355 1_556 S
N10 C13 1.311 . S
C11 N10 1.355 1_554 S
C11 C12 1.363 . S
C11 H23 0.929 . S
C12 C11 1.363 . S
C12 N14 1.375 1_554 S
C12 H30 0.931 . S
C13 N10 1.311 . S
C13 N14 1.347 . S
C13 H24 0.929 . S
N14 C12 1.375 1_556 S
N14 C13 1.347 . S
C15 C18 1.365 . S
C15 N20 1.328 . S
C15 H21 0.929 . S
C16 C17 1.362 . S
C16 C19 1.378 . S
C16 H31 0.929 . S
C17 C16 1.362 . S
C17 C18 1.366 . S
C18 C15 1.365 . S
C18 C17 1.366 . S
C18 H32 0.930 . S
C19 C16 1.378 . S
C19 N20 1.315 . S
C19 H22 0.930 . S
N20 Co0 2.194 1_554 S
N20 C15 1.328 . S
N20 C19 1.315 . S
H21 C15 0.929 . S
H22 C19 0.930 . S
H23 C11 0.929 . S
H24 C13 0.929 . S
O25 Co0 2.351 1_554 S
O25 C28 1.244 . S
O26 Co0 2.155 . S
O26 C28 1.240 1_556 S
O27 Co0 2.096 . S
O27 C8 1.247 . S
C28 O25 1.244 . S
C28 O26 1.240 1_554 S
H29 C3 0.931 . S
H30 C12 0.931 . S
H31 C16 0.929 . S
H32 C18 0.930 . S
Co33 N37 2.148 . S
Co33 N43 2.128 . S
Co33 N53 2.194 . S
Co33 O58 2.351 . S
Co33 O59 2.155 . S
Co33 O60 2.096 . S
C34 N37 1.301 1_545 S
C34 N38 1.328 . S
C34 H39 0.930 . S
C35 C36 1.333 1_565 S
C35 N37 1.317 . S
C35 H40 0.930 . S
C36 C35 1.333 1_545 S
C36 N38 1.350 . S
C36 H62 0.931 . S
N37 Co33 2.148 . S
N37 C34 1.301 1_565 S
N37 C35 1.317 . S
N38 C34 1.328 . S
N38 C36 1.350 . S
H39 C34 0.930 . S
H40 C35 0.930 . S
C41 O42 1.224 . S
C41 O60 1.247 . S
O42 C41 1.224 . S
N43 Co33 2.128 . S
N43 C44 1.355 . S
N43 C46 1.311 . S
C44 N43 1.355 . S
C44 C45 1.363 . S
C44 H56 0.929 . S
C45 C44 1.363 . S
C45 N47 1.375 . S
C45 H63 0.931 . S
C46 N43 1.311 . S
C46 N47 1.347 . S
C46 H57 0.929 . S
N47 C45 1.375 . S
N47 C46 1.347 . S
C48 C51 1.365 . S
C48 N53 1.328 . S
C48 H54 0.929 . S
C49 C50 1.362 . S
C49 C52 1.378 . S
C49 H64 0.929 . S
C50 C49 1.362 . S
C50 C51 1.366 . S
C51 C48 1.365 . S
C51 C50 1.366 . S
C51 H65 0.930 . S
C52 C49 1.378 . S
C52 N53 1.315 . S
C52 H55 0.930 . S
N53 Co33 2.194 . S
N53 C48 1.328 . S
N53 C52 1.315 . S
H54 C48 0.929 . S
H55 C52 0.930 . S
H56 C44 0.929 . S
H57 C46 0.929 . S
O58 Co33 2.351 . S
O58 C61 1.244 1_565 S
O59 Co33 2.155 . S
O59 C61 1.240 1_565 S
O60 Co33 2.096 . S
O60 C41 1.247 . S
C61 O58 1.244 1_545 S
C61 O59 1.240 1_545 S
H62 C36 0.931 . S
H63 C45 0.931 . S
H64 C49 0.929 . S
H65 C51 0.930 . S
Co66 N70 2.148 . S
Co66 N76 2.128 . S
Co66 N86 2.194 . S
Co66 O91 2.351 . S
Co66 O92 2.155 . S
Co66 O93 2.096 . S
C67 N70 1.301 . S
C67 N71 1.328 . S
C67 H72 0.930 . S
C68 C69 1.333 . S
C68 N70 1.317 . S
C68 H73 0.930 . S
C69 C68 1.333 . S
C69 N71 1.350 . S
C69 H95 0.931 . S
N70 Co66 2.148 . S
N70 C67 1.301 . S
N70 C68 1.317 . S
N71 C67 1.328 . S
N71 C69 1.350 . S
H72 C67 0.930 . S
H73 C68 0.930 . S
C74 O75 1.224 . S
C74 O93 1.247 . S
O75 C74 1.224 . S
N76 Co66 2.128 . S
N76 C77 1.355 . S
N76 C79 1.311 . S
C77 N76 1.355 . S
C77 C78 1.363 . S
C77 H89 0.929 . S
C78 C77 1.363 . S
C78 N80 1.375 . S
C78 H96 0.931 . S
C79 N76 1.311 . S
C79 N80 1.347 . S
C79 H90 0.929 . S
N80 C78 1.375 . S
N80 C79 1.347 . S
C81 C84 1.365 . S
C81 N86 1.328 . S
C81 H87 0.929 . S
C82 C83 1.362 . S
C82 C85 1.378 . S
C82 H97 0.929 . S
C83 C82 1.362 . S
C83 C84 1.366 . S
C84 C81 1.365 . S
C84 C83 1.366 . S
C84 H98 0.930 . S
C85 C82 1.378 . S
C85 N86 1.315 . S
C85 H88 0.930 . S
N86 Co66 2.194 . S
N86 C81 1.328 . S
N86 C85 1.315 . S
H87 C81 0.929 . S
H88 C85 0.930 . S
H89 C77 0.929 . S
H90 C79 0.929 . S
O91 Co66 2.351 . S
O91 C94 1.244 . S
O92 Co66 2.155 . S
O92 C94 1.240 . S
O93 Co66 2.096 . S
O93 C74 1.247 . S
C94 O91 1.244 . S
C94 O92 1.240 . S
H95 C69 0.931 . S
H96 C78 0.931 . S
H97 C82 0.929 . S
H98 C84 0.930 . S
Co99 N103 2.148 . S
Co99 N109 2.128 . S
Co99 N119 2.194 . S
Co99 O124 2.351 . S
Co99 O125 2.155 . S
Co99 O126 2.096 . S
C100 N103 1.301 1_565 S
C100 N104 1.328 . S
C100 H105 0.930 . S
C101 C102 1.333 1_545 S
C101 N103 1.317 . S
C101 H106 0.930 . S
C102 C101 1.333 1_565 S
C102 N104 1.350 . S
C102 H128 0.931 . S
N103 Co99 2.148 . S
N103 C100 1.301 1_545 S
N103 C101 1.317 . S
N104 C100 1.328 . S
N104 C102 1.350 . S
H105 C100 0.930 . S
H106 C101 0.930 . S
C107 O108 1.224 . S
C107 O126 1.247 . S
O108 C107 1.224 . S
N109 Co99 2.128 . S
N109 C110 1.355 . S
N109 C112 1.311 . S
C110 N109 1.355 . S
C110 C111 1.363 . S
C110 H122 0.929 . S
C111 C110 1.363 . S
C111 N113 1.375 . S
C111 H129 0.931 . S
C112 N109 1.311 . S
C112 N113 1.347 . S
C112 H123 0.929 . S
N113 C111 1.375 . S
N113 C112 1.347 . S
C114 C117 1.365 . S
C114 N119 1.328 . S
C114 H120 0.929 . S
C115 C116 1.362 . S
C115 C118 1.378 . S
C115 H130 0.929 . S
C116 C115 1.362 . S
C116 C117 1.366 . S
C117 C114 1.365 . S
C117 C116 1.366 . S
C117 H131 0.930 . S
C118 C115 1.378 . S
C118 N119 1.315 . S
C118 H121 0.930 . S
N119 Co99 2.194 . S
N119 C114 1.328 . S
N119 C118 1.315 . S
H120 C114 0.929 . S
H121 C118 0.930 . S
H122 C110 0.929 . S
H123 C112 0.929 . S
O124 Co99 2.351 . S
O124 C127 1.244 1_545 S
O125 Co99 2.155 . S
O125 C127 1.240 1_545 S
O126 Co99 2.096 . S
O126 C107 1.247 . S
C127 O124 1.244 1_565 S
C127 O125 1.240 1_565 S
H128 C102 0.931 . S
H129 C111 0.931 . S
H130 C115 0.929 . S
H131 C117 0.930 . S
Co132 N136 2.148 . S
Co132 N142 2.128 . S
Co132 N152 2.194 . S
Co132 O157 2.351 . S
Co132 O158 2.155 . S
Co132 O159 2.096 . S
C133 N136 1.301 1_455 S
C133 N137 1.328 . S
C133 H138 0.930 . S
C134 C135 1.333 1_655 S
C134 N136 1.317 . S
C134 H139 0.930 . S
C135 C134 1.333 1_455 S
C135 N137 1.350 . S
C135 H161 0.931 . S
N136 Co132 2.148 . S
N136 C133 1.301 1_655 S
N136 C134 1.317 . S
N137 C133 1.328 . S
N137 C135 1.350 . S
H138 C133 0.930 . S
H139 C134 0.930 . S
C140 O141 1.224 . S
C140 O159 1.247 . S
O141 C140 1.224 . S
N142 Co132 2.128 . S
N142 C143 1.355 . S
N142 C145 1.311 . S
C143 N142 1.355 . S
C143 C144 1.363 . S
C143 H155 0.929 . S
C144 C143 1.363 . S
C144 N146 1.375 . S
C144 H162 0.931 . S
C145 N142 1.311 . S
C145 N146 1.347 . S
C145 H156 0.929 . S
N146 C144 1.375 . S
N146 C145 1.347 . S
C147 C150 1.365 . S
C147 N152 1.328 . S
C147 H153 0.929 . S
C148 C149 1.362 . S
C148 C151 1.378 . S
C148 H163 0.929 . S
C149 C148 1.362 . S
C149 C150 1.366 . S
C150 C147 1.365 . S
C150 C149 1.366 . S
C150 H164 0.930 . S
C151 C148 1.378 . S
C151 N152 1.315 . S
C151 H154 0.930 . S
N152 Co132 2.194 . S
N152 C147 1.328 . S
N152 C151 1.315 . S
H153 C147 0.929 . S
H154 C151 0.930 . S
H155 C143 0.929 . S
H156 C145 0.929 . S
O157 Co132 2.351 . S
O157 C160 1.244 1_655 S
O158 Co132 2.155 . S
O158 C160 1.240 1_655 S
O159 Co132 2.096 . S
O159 C140 1.247 . S
C160 O157 1.244 1_455 S
C160 O158 1.240 1_455 S
H161 C135 0.931 . S
H162 C144 0.931 . S
H163 C148 0.929 . S
H164 C150 0.930 . S
Co165 N169 2.148 . S
Co165 N175 2.128 . S
Co165 N185 2.194 1_554 S
Co165 O190 2.351 1_554 S
Co165 O191 2.155 . S
Co165 O192 2.096 . S
C166 N169 1.301 . S
C166 N170 1.328 . S
C166 H171 0.930 1_554 S
C167 C168 1.333 . S
C167 N169 1.317 . S
C167 H172 0.930 . S
C168 C167 1.333 . S
C168 N170 1.350 . S
C168 H194 0.931 . S
N169 Co165 2.148 . S
N169 C166 1.301 . S
N169 C167 1.317 . S
N170 C166 1.328 . S
N170 C168 1.350 . S
H171 C166 0.930 1_556 S
H172 C167 0.930 . S
C173 O174 1.224 . S
C173 O192 1.247 . S
O174 C173 1.224 . S
N175 Co165 2.128 . S
N175 C176 1.355 . S
N175 C178 1.311 . S
C176 N175 1.355 . S
C176 C177 1.363 . S
C176 H188 0.929 1_554 S
C177 C176 1.363 . S
C177 N179 1.375 . S
C177 H195 0.931 . S
C178 N175 1.311 . S
C178 N179 1.347 . S
C178 H189 0.929 . S
N179 C177 1.375 . S
N179 C178 1.347 . S
C180 C183 1.365 . S
C180 N185 1.328 . S
C180 H186 0.929 . S
C181 C182 1.362 . S
C181 C184 1.378 . S
C181 H196 0.929 . S
C182 C181 1.362 . S
C182 C183 1.366 . S
C183 C180 1.365 . S
C183 C182 1.366 . S
C183 H197 0.930 . S
C184 C181 1.378 . S
C184 N185 1.315 . S
C184 H187 0.930 1_556 S
N185 Co165 2.194 1_556 S
N185 C180 1.328 . S
N185 C184 1.315 . S
H186 C180 0.929 . S
H187 C184 0.930 1_554 S
H188 C176 0.929 1_556 S
H189 C178 0.929 . S
O190 Co165 2.351 1_556 S
O190 C193 1.244 1_556 S
O191 Co165 2.155 . S
O191 C193 1.240 . S
O192 Co165 2.096 . S
O192 C173 1.247 . S
C193 O190 1.244 1_554 S
C193 O191 1.240 . S
H194 C168 0.931 . S
H195 C177 0.931 . S
H196 C181 0.929 . S
H197 C183 0.930 . S
Co198 N202 2.148 . S
Co198 N208 2.128 . S
Co198 N218 2.194 . S
Co198 O223 2.351 . S
Co198 O224 2.155 . S
Co198 O225 2.096 . S
C199 N202 1.301 1_655 S
C199 N203 1.328 . S
C199 H204 0.930 . S
C200 C201 1.333 1_455 S
C200 N202 1.317 . S
C200 H205 0.930 . S
C201 C200 1.333 1_655 S
C201 N203 1.350 . S
C201 H227 0.931 . S
N202 Co198 2.148 . S
N202 C199 1.301 1_455 S
N202 C200 1.317 . S
N203 C199 1.328 . S
N203 C201 1.350 . S
H204 C199 0.930 . S
H205 C200 0.930 . S
C206 O207 1.224 . S
C206 O225 1.247 . S
O207 C206 1.224 . S
N208 Co198 2.128 . S
N208 C209 1.355 . S
N208 C211 1.311 . S
C209 N208 1.355 . S
C209 C210 1.363 . S
C209 H221 0.929 . S
C210 C209 1.363 . S
C210 N212 1.375 . S
C210 H228 0.931 . S
C211 N208 1.311 . S
C211 N212 1.347 . S
C211 H222 0.929 . S
N212 C210 1.375 . S
N212 C211 1.347 . S
C213 C216 1.365 . S
C213 N218 1.328 . S
C213 H219 0.929 . S
C214 C215 1.362 . S
C214 C217 1.378 . S
C214 H229 0.929 . S
C215 C214 1.362 . S
C215 C216 1.366 . S
C216 C213 1.365 . S
C216 C215 1.366 . S
C216 H230 0.930 . S
C217 C214 1.378 . S
C217 N218 1.315 . S
C217 H220 0.930 . S
N218 Co198 2.194 . S
N218 C213 1.328 . S
N218 C217 1.315 . S
H219 C213 0.929 . S
H220 C217 0.930 . S
H221 C209 0.929 . S
H222 C211 0.929 . S
O223 Co198 2.351 . S
O223 C226 1.244 1_455 S
O224 Co198 2.155 . S
O224 C226 1.240 1_455 S
O225 Co198 2.096 . S
O225 C206 1.247 . S
C226 O223 1.244 1_655 S
C226 O224 1.240 1_655 S
H227 C201 0.931 . S
H228 C210 0.931 . S
H229 C214 0.929 . S
H230 C216 0.930 . S
Co231 N235 2.148 . S
Co231 N241 2.128 . S
Co231 N251 2.194 . S
Co231 O256 2.351 . S
Co231 O257 2.155 . S
Co231 O258 2.096 . S
C232 N235 1.301 . S
C232 N236 1.328 . S
C232 H237 0.930 . S
C233 C234 1.333 . S
C233 N235 1.317 . S
C233 H238 0.930 . S
C234 C233 1.333 . S
C234 N236 1.350 . S
C234 H260 0.931 . S
N235 Co231 2.148 . S
N235 C232 1.301 . S
N235 C233 1.317 . S
N236 C232 1.328 . S
N236 C234 1.350 . S
H237 C232 0.930 . S
H238 C233 0.930 . S
C239 O240 1.224 . S
C239 O258 1.247 . S
O240 C239 1.224 . S
N241 Co231 2.128 . S
N241 C242 1.355 . S
N241 C244 1.311 . S
C242 N241 1.355 . S
C242 C243 1.363 . S
C242 H254 0.929 . S
C243 C242 1.363 . S
C243 N245 1.375 . S
C243 H261 0.931 . S
C244 N241 1.311 . S
C244 N245 1.347 . S
C244 H255 0.929 . S
N245 C243 1.375 . S
N245 C244 1.347 . S
C246 C249 1.365 . S
C246 N251 1.328 . S
C246 H252 0.929 . S
C247 C248 1.362 . S
C247 C250 1.378 . S
C247 H262 0.929 . S
C248 C247 1.362 . S
C248 C249 1.366 . S
C249 C246 1.365 . S
C249 C248 1.366 . S
C249 H263 0.930 . S
C250 C247 1.378 . S
C250 N251 1.315 . S
C250 H253 0.930 . S
N251 Co231 2.194 . S
N251 C246 1.328 . S
N251 C250 1.315 . S
H252 C246 0.929 . S
H253 C250 0.930 . S
H254 C242 0.929 . S
H255 C244 0.929 . S
O256 Co231 2.351 . S
O256 C259 1.244 . S
O257 Co231 2.155 . S
O257 C259 1.240 . S
O258 Co231 2.096 . S
O258 C239 1.247 . S
C259 O256 1.244 . S
C259 O257 1.240 . S
H260 C234 0.931 . S
H261 C243 0.931 . S
H262 C247 0.929 . S
H263 C249 0.930 . S
C264 C265 1.363 . S
C264 C270 1.379 . S
C264 N272 1.356 . S
C265 C264 1.363 . S
C265 C271 1.363 1_554 S
C266 C267 1.363 1_556 S
C266 C271 1.379 . S
C266 N273 1.356 . S
C267 C266 1.363 1_554 S
C267 C270 1.363 . S
N268 C270 1.356 . S
N268 H280 0.984 . S
N268 H281 0.985 . S
N269 C271 1.356 . S
N269 H274 0.984 . S
N269 H275 0.985 . S
C270 C264 1.379 . S
C270 C267 1.363 . S
C270 N268 1.356 . S
C271 C265 1.363 1_556 S
C271 C266 1.379 . S
C271 N269 1.356 . S
N272 C264 1.356 . S
N272 H278 0.984 . S
N272 H279 0.984 . S
N273 C266 1.356 . S
N273 H276 0.984 . S
N273 H277 0.985 . S
H274 N269 0.984 . S
H275 N269 0.985 . S
H276 N273 0.984 . S
H277 N273 0.985 . S
H278 N272 0.984 . S
H279 N272 0.984 . S
H280 N268 0.984 . S
H281 N268 0.985 . S
C282 C283 1.363 . S
C282 C288 1.379 . S
C282 N290 1.356 . S
C283 C282 1.363 . S
C283 C289 1.363 . S
C284 C285 1.363 . S
C284 C289 1.379 . S
C284 N291 1.356 . S
C285 C284 1.363 . S
C285 C288 1.363 . S
N286 C288 1.356 . S
N286 H298 0.984 . S
N286 H299 0.985 . S
N287 C289 1.356 . S
N287 H292 0.984 . S
N287 H293 0.985 . S
C288 C282 1.379 . S
C288 C285 1.363 . S
C288 N286 1.356 . S
C289 C283 1.363 . S
C289 C284 1.379 . S
C289 N287 1.356 . S
N290 C282 1.356 . S
N290 H296 0.984 . S
N290 H297 0.984 . S
N291 C284 1.356 . S
N291 H294 0.984 . S
N291 H295 0.985 . S
H292 N287 0.984 . S
H293 N287 0.985 . S
H294 N291 0.984 . S
H295 N291 0.985 . S
H296 N290 0.984 . S
H297 N290 0.984 . S
H298 N286 0.984 . S
H299 N286 0.985 . S
C300 C301 1.363 . S
C300 C306 1.379 . S
C300 N308 1.356 . S
C301 C300 1.363 . S
C301 C307 1.363 . S
C302 C303 1.363 . S
C302 C307 1.379 . S
C302 N309 1.356 . S
C303 C302 1.363 . S
C303 C306 1.363 . S
N304 C306 1.356 . S
N304 H316 0.984 . S
N304 H317 0.985 . S
N305 C307 1.356 . S
N305 H310 0.984 . S
N305 H311 0.985 . S
C306 C300 1.379 . S
C306 C303 1.363 . S
C306 N304 1.356 . S
C307 C301 1.363 . S
C307 C302 1.379 . S
C307 N305 1.356 . S
N308 C300 1.356 . S
N308 H314 0.984 . S
N308 H315 0.984 . S
N309 C302 1.356 . S
N309 H312 0.984 . S
N309 H313 0.985 . S
H310 N305 0.984 . S
H311 N305 0.985 . S
H312 N309 0.984 . S
H313 N309 0.985 . S
H314 N308 0.984 . S
H315 N308 0.984 . S
H316 N304 0.984 . S
H317 N304 0.985 . S
C318 C319 1.363 . S
C318 C324 1.379 . S
C318 N326 1.356 . S
C319 C318 1.363 . S
C319 C325 1.363 . S
C320 C321 1.363 . S
C320 C325 1.379 . S
C320 N327 1.356 . S
C321 C320 1.363 . S
C321 C324 1.363 . S
N322 C324 1.356 . S
N322 H334 0.984 . S
N322 H335 0.985 . S
N323 C325 1.356 . S
N323 H328 0.984 . S
N323 H329 0.985 . S
C324 C318 1.379 . S
C324 C321 1.363 . S
C324 N322 1.356 . S
C325 C319 1.363 . S
C325 C320 1.379 . S
C325 N323 1.356 . S
N326 C318 1.356 . S
N326 H332 0.984 . S
N326 H333 0.984 . S
N327 C320 1.356 . S
N327 H330 0.984 . S
N327 H331 0.985 . S
H328 N323 0.984 . S
H329 N323 0.985 . S
H330 N327 0.984 . S
H331 N327 0.985 . S
H332 N326 0.984 . S
H333 N326 0.984 . S
H334 N322 0.984 . S
H335 N322 0.985 . S
C336 C337 1.363 . S
C336 C342 1.379 . S
C336 N344 1.356 . S
C337 C336 1.363 . S
C337 C343 1.363 . S
C338 C339 1.363 . S
C338 C343 1.379 . S
C338 N345 1.356 . S
C339 C338 1.363 . S
C339 C342 1.363 . S
N340 C342 1.356 . S
N340 H352 0.984 . S
N340 H353 0.985 . S
N341 C343 1.356 . S
N341 H346 0.984 . S
N341 H347 0.985 . S
C342 C336 1.379 . S
C342 C339 1.363 . S
C342 N340 1.356 . S
C343 C337 1.363 . S
C343 C338 1.379 . S
C343 N341 1.356 . S
N344 C336 1.356 . S
N344 H350 0.984 . S
N344 H351 0.984 . S
N345 C338 1.356 . S
N345 H348 0.984 . S
N345 H349 0.985 . S
H346 N341 0.984 . S
H347 N341 0.985 . S
H348 N345 0.984 . S
H349 N345 0.985 . S
H350 N344 0.984 . S
H351 N344 0.984 . S
H352 N340 0.984 . S
H353 N340 0.985 . S
C354 C355 1.363 . S
C354 C360 1.379 . S
C354 N362 1.356 . S
C355 C354 1.363 . S
C355 C361 1.363 . S
C356 C357 1.363 . S
C356 C361 1.379 . S
C356 N363 1.356 . S
C357 C356 1.363 . S
C357 C360 1.363 . S
N358 C360 1.356 . S
N358 H370 0.984 . S
N358 H371 0.985 . S
N359 C361 1.356 . S
N359 H364 0.984 . S
N359 H365 0.985 . S
C360 C354 1.379 . S
C360 C357 1.363 . S
C360 N358 1.356 . S
C361 C355 1.363 . S
C361 C356 1.379 . S
C361 N359 1.356 . S
N362 C354 1.356 . S
N362 H368 0.984 . S
N362 H369 0.984 . S
N363 C356 1.356 . S
N363 H366 0.984 . S
N363 H367 0.985 . S
H364 N359 0.984 . S
H365 N359 0.985 . S
H366 N363 0.984 . S
H367 N363 0.985 . S
H368 N362 0.984 . S
H369 N362 0.984 . S
H370 N358 0.984 . S
H371 N358 0.985 . S
C372 C373 1.363 . S
C372 C378 1.379 . S
C372 N380 1.356 . S
C373 C372 1.363 . S
C373 C379 1.363 . S
C374 C375 1.363 . S
C374 C379 1.379 . S
C374 N381 1.356 . S
C375 C374 1.363 . S
C375 C378 1.363 . S
N376 C378 1.356 . S
N376 H388 0.984 . S
N376 H389 0.985 . S
N377 C379 1.356 . S
N377 H382 0.984 . S
N377 H383 0.985 . S
C378 C372 1.379 . S
C378 C375 1.363 . S
C378 N376 1.356 . S
C379 C373 1.363 . S
C379 C374 1.379 . S
C379 N377 1.356 . S
N380 C372 1.356 . S
N380 H386 0.984 . S
N380 H387 0.984 . S
N381 C374 1.356 . S
N381 H384 0.984 . S
N381 H385 0.985 . S
H382 N377 0.984 . S
H383 N377 0.985 . S
H384 N381 0.984 . S
H385 N381 0.985 . S
H386 N380 0.984 . S
H387 N380 0.984 . S
H388 N376 0.984 . S
H389 N376 0.985 . S
C390 C391 1.363 . S
C390 C396 1.379 1_556 S
C390 N398 1.356 . S
C391 C390 1.363 . S
C391 C397 1.369 . S
C392 C393 1.363 . S
C392 C397 1.369 1_554 S
C392 N399 1.356 . S
C393 C392 1.363 . S
C393 C396 1.363 . S
N394 C396 1.356 . S
N394 H406 0.984 . S
N394 H407 0.985 . S
N395 C397 1.363 . S
N395 H400 0.984 . S
N395 H401 0.985 . S
C396 C390 1.379 1_554 S
C396 C393 1.363 . S
C396 N394 1.356 . S
C397 C391 1.369 . S
C397 C392 1.369 1_556 S
C397 N395 1.363 . S
N398 C390 1.356 . S
N398 H404 0.984 . S
N398 H405 0.984 . S
N399 C392 1.356 . S
N399 H402 0.984 . S
N399 H403 0.985 . S
H400 N395 0.984 . S
H401 N395 0.985 . S
H402 N399 0.984 . S
H403 N399 0.985 . S
H404 N398 0.984 . S
H405 N398 0.984 . S
H406 N394 0.984 . S
H407 N394 0.985 . S
C408 C409 1.363 . S
C408 C414 1.379 . S
C408 N416 1.356 . S
C409 C408 1.363 . S
C409 C415 1.363 . S
C410 C411 1.363 . S
C410 C415 1.379 . S
C410 N417 1.356 . S
C411 C410 1.363 . S
C411 C414 1.363 . S
N412 C414 1.356 . S
N412 H424 0.984 . S
N412 H425 0.985 . S
N413 C415 1.356 . S
N413 H418 0.984 . S
N413 H419 0.985 . S
C414 C408 1.379 . S
C414 C411 1.363 . S
C414 N412 1.356 . S
C415 C409 1.363 . S
C415 C410 1.379 . S
C415 N413 1.356 . S
N416 C408 1.356 . S
N416 H422 0.984 . S
N416 H423 0.984 . S
N417 C410 1.356 . S
N417 H420 0.984 . S
N417 H421 0.985 . S
H418 N413 0.984 . S
H419 N413 0.985 . S
H420 N417 0.984 . S
H421 N417 0.985 . S
H422 N416 0.984 . S
H423 N416 0.984 . S
H424 N412 0.984 . S
H425 N412 0.985 . S
C426 C427 1.363 1_556 S
C426 C432 1.379 . S
C426 N434 1.356 . S
C427 C426 1.363 1_554 S
C427 C433 1.363 . S
C428 C429 1.354 1_554 S
C428 C433 1.379 . S
C428 N435 1.356 . S
C429 C428 1.354 1_556 S
C429 C432 1.368 . S
N430 C432 1.356 . S
N430 H442 0.984 . S
N430 H443 0.985 . S
N431 C433 1.356 . S
N431 H436 0.984 . S
N431 H437 0.985 . S
C432 C426 1.379 . S
C432 C429 1.368 . S
C432 N430 1.356 . S
C433 C427 1.363 . S
C433 C428 1.379 . S
C433 N431 1.356 . S
N434 C426 1.356 . S
N434 H440 0.984 . S
N434 H441 0.984 1_556 S
N435 C428 1.356 . S
N435 H438 0.984 . S
N435 H439 0.985 . S
H436 N431 0.984 . S
H437 N431 0.985 . S
H438 N435 0.984 . S
H439 N435 0.985 . S
H440 N434 0.984 . S
H441 N434 0.984 1_554 S
H442 N430 0.984 . S
H443 N430 0.985 . S
C444 C445 1.363 . S
C444 C450 1.379 . S
C444 N452 1.356 . S
C445 C444 1.363 . S
C445 C451 1.363 . S
C446 C447 1.363 . S
C446 C451 1.379 . S
C446 N453 1.356 . S
C447 C446 1.363 . S
C447 C450 1.363 . S
N448 C450 1.356 . S
N448 H460 0.984 . S
N448 H461 0.985 . S
N449 C451 1.356 . S
N449 H454 0.984 . S
N449 H455 0.985 . S
C450 C444 1.379 . S
C450 C447 1.363 . S
C450 N448 1.356 . S
C451 C445 1.363 . S
C451 C446 1.379 . S
C451 N449 1.356 . S
N452 C444 1.356 . S
N452 H458 0.984 . S
N452 H459 0.984 . S
N453 C446 1.356 . S
N453 H456 0.984 . S
N453 H457 0.985 . S
H454 N449 0.984 . S
H455 N449 0.985 . S
H456 N453 0.984 . S
H457 N453 0.985 . S
H458 N452 0.984 . S
H459 N452 0.984 . S
H460 N448 0.984 . S
H461 N448 0.985 . S
C462 C463 1.363 . S
C462 C468 1.379 . S
C462 N470 1.356 . S
C463 C462 1.363 . S
C463 C469 1.363 . S
C464 C465 1.363 . S
C464 C469 1.379 . S
C464 N471 1.356 . S
C465 C464 1.363 . S
C465 C468 1.363 . S
N466 C468 1.356 . S
N466 H478 0.984 . S
N466 H479 0.985 . S
N467 C469 1.356 . S
N467 H472 0.984 . S
N467 H473 0.985 . S
C468 C462 1.379 . S
C468 C465 1.363 . S
C468 N466 1.356 . S
C469 C463 1.363 . S
C469 C464 1.379 . S
C469 N467 1.356 . S
N470 C462 1.356 . S
N470 H476 0.984 . S
N470 H477 0.984 . S
N471 C464 1.356 . S
N471 H474 0.984 . S
N471 H475 0.985 . S
H472 N467 0.984 . S
H473 N467 0.985 . S
H474 N471 0.984 . S
H475 N471 0.985 . S
H476 N470 0.984 . S
H477 N470 0.984 . S
H478 N466 0.984 . S
H479 N466 0.985 . S
C480 C481 1.363 . S
C480 C486 1.379 . S
C480 N488 1.356 . S
C481 C480 1.363 . S
C481 C487 1.363 . S
C482 C483 1.363 . S
C482 C487 1.379 . S
C482 N489 1.356 . S
C483 C482 1.363 . S
C483 C486 1.363 . S
N484 C486 1.356 . S
N484 H496 0.984 . S
N484 H497 0.985 . S
N485 C487 1.356 . S
N485 H490 0.984 . S
N485 H491 0.985 . S
C486 C480 1.379 . S
C486 C483 1.363 . S
C486 N484 1.356 . S
C487 C481 1.363 . S
C487 C482 1.379 . S
C487 N485 1.356 . S
N488 C480 1.356 . S
N488 H494 0.984 . S
N488 H495 0.984 . S
N489 C482 1.356 . S
N489 H492 0.984 . S
N489 H493 0.985 . S
H490 N485 0.984 . S
H491 N485 0.985 . S
H492 N489 0.984 . S
H493 N489 0.985 . S
H494 N488 0.984 . S
H495 N488 0.984 . S
H496 N484 0.984 . S
H497 N484 0.985 . S
C498 C499 1.363 . S
C498 C504 1.379 . S
C498 N506 1.356 . S
C499 C498 1.363 . S
C499 C505 1.363 . S
C500 C501 1.363 . S
C500 C505 1.379 . S
C500 N507 1.356 . S
C501 C500 1.363 . S
C501 C504 1.363 . S
N502 C504 1.356 . S
N502 H514 0.984 . S
N502 H515 0.985 . S
N503 C505 1.356 1_556 S
N503 H508 0.984 . S
N503 H509 0.985 . S
C504 C498 1.379 . S
C504 C501 1.363 . S
C504 N502 1.356 . S
C505 C499 1.363 . S
C505 C500 1.379 . S
C505 N503 1.356 1_554 S
N506 C498 1.356 . S
N506 H512 0.984 . S
N506 H513 0.984 . S
N507 C500 1.356 . S
N507 H510 0.984 . S
N507 H511 0.985 . S
H508 N503 0.984 . S
H509 N503 0.985 . S
H510 N507 0.984 . S
H511 N507 0.985 . S
H512 N506 0.984 . S
H513 N506 0.984 . S
H514 N502 0.984 . S
H515 N502 0.985 . S
C516 C517 1.363 . S
C516 C522 1.379 . S
C516 N524 1.356 . S
C517 C516 1.363 . S
C517 C523 1.363 . S
C518 C519 1.363 . S
C518 C523 1.379 . S
C518 N525 1.356 . S
C519 C518 1.363 . S
C519 C522 1.363 . S
N520 C522 1.356 . S
N520 H532 0.984 . S
N520 H533 0.985 . S
N521 C523 1.356 . S
N521 H526 0.984 . S
N521 H527 0.985 . S
C522 C516 1.379 . S
C522 C519 1.363 . S
C522 N520 1.356 . S
C523 C517 1.363 . S
C523 C518 1.379 . S
C523 N521 1.356 . S
N524 C516 1.356 . S
N524 H530 0.984 1_545 S
N524 H531 0.984 1_545 S
N525 C518 1.356 . S
N525 H528 0.984 . S
N525 H529 0.985 . S
H526 N521 0.984 . S
H527 N521 0.985 . S
H528 N525 0.984 . S
H529 N525 0.985 . S
H530 N524 0.984 1_565 S
H531 N524 0.984 1_565 S
H532 N520 0.984 . S
H533 N520 0.985 . S
C534 C535 1.363 . S
C534 C540 1.379 . S
C534 N542 1.356 . S
C535 C534 1.363 . S
C535 C541 1.363 . S
C536 C537 1.363 . S
C536 C541 1.379 . S
C536 N543 1.356 . S
C537 C536 1.363 . S
C537 C540 1.363 . S
N538 C540 1.356 . S
N538 H550 0.984 . S
N538 H551 0.985 . S
N539 C541 1.356 . S
N539 H544 0.984 . S
N539 H545 0.985 . S
C540 C534 1.379 . S
C540 C537 1.363 . S
C540 N538 1.356 . S
C541 C535 1.363 . S
C541 C536 1.379 . S
C541 N539 1.356 . S
N542 C534 1.356 . S
N542 H548 0.984 . S
N542 H549 0.984 . S
N543 C536 1.356 . S
N543 H546 0.984 . S
N543 H547 0.985 . S
H544 N539 0.984 . S
H545 N539 0.985 . S
H546 N543 0.984 . S
H547 N543 0.985 . S
H548 N542 0.984 . S
H549 N542 0.984 . S
H550 N538 0.984 . S
H551 N538 0.985 . S
C552 C553 1.363 . S
C552 C558 1.379 1_556 S
C552 N560 1.356 . S
C553 C552 1.363 . S
C553 C559 1.363 . S
C554 C555 1.363 1_556 S
C554 C559 1.379 . S
C554 N561 1.356 . S
C555 C554 1.363 1_554 S
C555 C558 1.363 . S
N556 C558 1.356 . S
N556 H568 0.984 . S
N556 H569 0.985 . S
N557 C559 1.356 . S
N557 H562 0.984 . S
N557 H563 0.985 . S
C558 C552 1.379 1_554 S
C558 C555 1.363 . S
C558 N556 1.356 . S
C559 C553 1.363 . S
C559 C554 1.379 . S
C559 N557 1.356 . S
N560 C552 1.356 . S
N560 H566 0.984 1_556 S
N560 H567 0.984 . S
N561 C554 1.356 . S
N561 H564 0.984 . S
N561 H565 0.985 . S
H562 N557 0.984 . S
H563 N557 0.985 . S
H564 N561 0.984 . S
H565 N561 0.985 . S
H566 N560 0.984 1_554 S
H567 N560 0.984 . S
H568 N556 0.984 . S
H569 N556 0.985 . S
C570 C571 1.363 . S
C570 C576 1.379 . S
C570 N578 1.356 . S
C571 C570 1.363 . S
C571 C577 1.363 . S
C572 C573 1.363 . S
C572 C577 1.379 . S
C572 N579 1.356 . S
C573 C572 1.363 . S
C573 C576 1.363 . S
N574 C576 1.356 . S
N574 H586 0.984 . S
N574 H587 0.985 . S
N575 C577 1.356 . S
N575 H580 0.984 . S
N575 H581 0.985 . S
C576 C570 1.379 . S
C576 C573 1.363 . S
C576 N574 1.356 . S
C577 C571 1.363 . S
C577 C572 1.379 . S
C577 N575 1.356 . S
N578 C570 1.356 . S
N578 H584 0.984 . S
N578 H585 0.984 . S
N579 C572 1.356 . S
N579 H582 0.984 . S
N579 H583 0.985 . S
H580 N575 0.984 . S
H581 N575 0.985 . S
H582 N579 0.984 . S
H583 N579 0.985 . S
H584 N578 0.984 . S
H585 N578 0.984 . S
H586 N574 0.984 . S
H587 N574 0.985 . S
C588 C589 1.363 . S
C588 C594 1.379 . S
C588 N596 1.356 . S
C589 C588 1.363 . S
C589 C595 1.363 . S
C590 C591 1.363 . S
C590 C595 1.379 . S
C590 N597 1.356 . S
C591 C590 1.363 . S
C591 C594 1.363 . S
N592 C594 1.356 . S
N592 H604 0.984 . S
N592 H605 0.985 . S
N593 C595 1.356 . S
N593 H598 0.984 . S
N593 H599 0.985 . S
C594 C588 1.379 . S
C594 C591 1.363 . S
C594 N592 1.356 . S
C595 C589 1.363 . S
C595 C590 1.379 . S
C595 N593 1.356 . S
N596 C588 1.356 . S
N596 H602 0.984 . S
N596 H603 0.984 . S
N597 C590 1.356 . S
N597 H600 0.984 . S
N597 H601 0.985 . S
H598 N593 0.984 . S
H599 N593 0.985 . S
H600 N597 0.984 . S
H601 N597 0.985 . S
H602 N596 0.984 . S
H603 N596 0.984 . S
H604 N592 0.984 . S
H605 N592 0.985 . S
C606 C607 1.363 . S
C606 C612 1.379 . S
C606 N614 1.356 . S
C607 C606 1.363 . S
C607 C613 1.363 . S
C608 C609 1.363 . S
C608 C613 1.379 . S
C608 N615 1.356 . S
C609 C608 1.363 . S
C609 C612 1.363 . S
N610 C612 1.356 . S
N610 H622 0.984 . S
N610 H623 0.985 . S
N611 C613 1.356 . S
N611 H616 0.984 . S
N611 H617 0.985 . S
C612 C606 1.379 . S
C612 C609 1.363 . S
C612 N610 1.356 . S
C613 C607 1.363 . S
C613 C608 1.379 . S
C613 N611 1.356 . S
N614 C606 1.356 . S
N614 H620 0.984 . S
N614 H621 0.984 . S
N615 C608 1.356 . S
N615 H618 0.984 1_455 S
N615 H619 0.985 . S
H616 N611 0.984 . S
H617 N611 0.985 . S
H618 N615 0.984 1_655 S
H619 N615 0.985 . S
H620 N614 0.984 . S
H621 N614 0.984 . S
H622 N610 0.984 . S
H623 N610 0.985 . S
C265 N170 1.300 . S
C267 N5 1.300 . S
C283 N203 1.300 . S
C285 N38 1.300 . S
C301 N71 1.300 . S
C303 N236 1.300 . S
C319 N137 1.300 . S
C321 N104 1.300 . S
C337 C248 0.978 . S
C339 C17 0.978 . S
C355 C50 0.978 . S
C357 C149 0.978 . S
C373 C182 0.978 . S
C375 C83 0.978 . S
C391 C116 0.978 . S
C393 C215 0.978 . S
C409 C239 1.759 . S
C411 C8 1.759 . S
C427 C41 1.759 . S
C429 C140 1.765 . S
C445 C173 1.759 . S
C447 C74 1.759 . S
C463 C206 1.759 . S
C465 C107 1.759 . S
C481 N14 1.809 . S
C483 C127 1.796 . S
C499 C28 1.796 . S
C501 N47 1.809 . S
C517 C61 1.796 . S
C519 N80 1.809 . S
C535 C94 1.796 . S
C537 N113 1.809 . S
C553 N146 1.809 . S
C555 C193 1.796 . S
C571 C226 1.796 . S
C573 N179 1.809 . S
C589 C259 1.796 . S
C591 N212 1.809 . S
C607 N245 1.809 . S
C609 C160 1.796 . S
