# Generated by pormake.
# Topology sxc, (6)-cn, num edge types: 1
# Building blocks:
#     Node 0, Type 0, BuildingBlock: KUMBUR_clean_sbu_1, # of connection points: 6
#     Node 1, Type 0, BuildingBlock: KUMBUR_clean_sbu_1, # of connection points: 6
#     Node 2, Type 0, BuildingBlock: KUMBUR_clean_sbu_1, # of connection points: 6
#     Edge 3, Type (0, 0), BuildingBlock: KIFKEQ_clean_linker_1, # of connection points: 2
#     Edge 4, Type (0, 0), BuildingBlock: KIFKEQ_clean_linker_1, # of connection points: 2
#     Edge 5, Type (0, 0), BuildingBlock: KIFKEQ_clean_linker_1, # of connection points: 2
#     Edge 6, Type (0, 0), BuildingBlock: KIFKEQ_clean_linker_1, # of connection points: 2
#     Edge 7, Type (0, 0), BuildingBlock: KIFKEQ_clean_linker_1, # of connection points: 2
#     Edge 8, Type (0, 0), BuildingBlock: KIFKEQ_clean_linker_1, # of connection points: 2
#     Edge 9, Type (0, 0), BuildingBlock: KIFKEQ_clean_linker_1, # of connection points: 2
#     Edge 10, Type (0, 0), BuildingBlock: KIFKEQ_clean_linker_1, # of connection points: 2
#     Edge 11, Type (0, 0), BuildingBlock: KIFKEQ_clean_linker_1, # of connection points: 2
# Relax obj value: 0.254
# Max RMSD: 0.159
# Mean RMSD: 0.116
data_MOF--net-sxc--node1-KUMBUR_clean_sbu_1--edge1-KIFKEQ_clean_linker_1
_symmetry_space_group_name_H-M    P1
_symmetry_Int_Tables_number       1
_symmetry_cell_setting            triclinic
loop_
_symmetry_equiv_pos_as_xyz
'x, y, z'
_cell_length_a     15.611267
_cell_length_b     16.792878
_cell_length_c     45.242289
_cell_angle_alpha  107.95896
_cell_angle_beta   97.579681
_cell_angle_gamma 98.444759
loop_
_atom_site_label
_atom_site_type_symbol
_atom_site_fract_x
_atom_site_fract_y
_atom_site_fract_z
_atom_type_partial_charge
Tb0 Tb 0.94855 0.15467 0.98029 0.0
C1 C 0.31943 1.09467 0.01821 0.0
N2 N 0.25427 0.12522 0.03278 0.0
C3 C 0.28003 1.0518 0.06994 0.0
C4 C 0.36445 1.03765 0.02806 0.0
C5 C 0.23778 0.1088 0.0595 0.0
C6 C 0.34279 1.01515 0.05389 0.0
C7 C 0.41228 1.0952 0.97927 0.0
C8 C 0.34298 0.12336 -0.00587 0.0
C9 C 0.45455 1.03524 0.98799 0.0
C10 C 0.43076 1.00662 0.01234 0.0
Tb11 Tb 0.19561 0.22303 0.0155 0.0
N12 N 0.3028 0.18372 0.98706 0.0
C13 C 0.43955 0.13072 0.95704 0.0
C14 C 0.3335 0.22259 0.96692 0.0
C15 C 0.40075 0.19544 0.95116 0.0
H16 H 0.191 0.13866 0.07233 0.0
H17 H 0.42391 0.22574 0.93498 0.0
H18 H 0.96013 0.24065 0.924 0.0
H19 H 0.72035 0.16103 0.06139 0.0
H20 H 0.30815 0.27618 0.96345 0.0
H21 H 0.4927 0.11096 0.94519 0.0
H22 H 0.83604 0.10798 0.0336 0.0
H23 H 0.26486 1.03684 0.09052 0.0
H24 H 0.5075 1.0125 0.97668 0.0
H25 H 0.46548 0.96203 0.01934 0.0
H26 H 0.88853 0.34231 0.90501 0.0
H27 H 0.37575 0.97137 0.06215 0.0
H28 H 0.65173 0.27389 0.04945 0.0
N29 N 0.89271 0.25309 0.96251 0.0
C30 C 0.82665 0.28394 0.97639 0.0
C31 C 0.87118 0.32709 0.9253 0.0
C32 C 0.78294 0.34105 0.96607 0.0
C33 C 0.91215 0.27012 0.9362 0.0
C34 C 0.80698 0.36348 0.9405 0.0
N35 N 0.84172 0.19706 0.00849 0.0
C36 C 0.81098 0.16082 0.02933 0.0
C37 C 0.7325 0.28612 0.01509 0.0
C38 C 0.80183 0.25655 0.00059 0.0
C39 C 0.70487 0.25296 0.03784 0.0
C40 C 0.74363 0.18939 0.04471 0.0
H41 H 0.77514 0.40737 0.93192 0.0
H42 H 0.68218 0.41729 0.97378 0.0
H43 H 0.63788 0.36919 0.01666 0.0
O44 O 0.8214 1.07901 0.96318 0.0
O45 O 1.00275 0.30265 -0.00471 0.0
O46 O 0.155 0.33318 0.001 0.0
O47 O 0.91386 1.07983 0.93208 0.0
O48 O 0.98236 0.13919 0.02632 0.0
O49 O 0.09426 0.2521 0.04401 0.0
O50 O 0.32438 0.29306 0.03401 0.0
O51 O 0.14223 1.07538 0.00158 0.0
O52 O 0.98955 1.04285 -0.00634 0.0
O53 O 0.22516 0.30626 0.06284 0.0
O54 O 0.16068 0.23611 0.96906 0.0
O55 O 1.05047 0.12214 0.95247 0.0
C56 C 0.07787 0.35964 -0.00123 0.0
C57 C 0.81973 0.94788 0.92379 0.0
C58 C 0.75185 0.81371 0.92896 0.0
C59 C 0.7934 0.76884 0.90524 0.0
C60 C 0.8591 0.90193 0.89946 0.0
C61 C 0.84596 0.8129 0.89032 0.0
C62 C 0.76465 0.90286 0.93789 0.0
C63 C 1.03977 0.19473 0.04983 0.0
C64 C 0.83842 1.0423 0.93539 0.0
C65 C 0.71602 0.3728 0.9812 0.0
C66 C 0.69095 0.34552 0.00568 0.0
C67 C 1.06707 1.0175 -0.00298 0.0
C68 C 0.33307 0.42961 0.07098 0.0
C69 C 0.40874 0.55658 0.06253 0.0
C70 C 0.39783 0.60669 0.09253 0.0
C71 C 0.32323 0.48044 0.10091 0.0
C72 C 0.37392 0.4685 0.05169 0.0
C73 C 0.35467 0.5687 0.11144 0.0
C74 C 0.10439 0.17823 0.94585 0.0
C75 C 0.30489 0.33595 0.06058 0.0
H76 H 0.7846 0.69994 0.89814 0.0
H77 H 0.90091 0.93474 0.88781 0.0
H78 H 0.87727 0.77805 0.87183 0.0
H79 H 0.73371 0.93725 0.95667 0.0
H80 H 0.42443 0.67471 0.10172 0.0
H81 H 0.29199 0.45179 0.11621 0.0
H82 H 0.37965 0.42991 0.02822 0.0
H83 H 0.34717 0.60757 0.13461 0.0
Tb84 Tb 0.08327 1.06502 0.31792 0.0
C85 C 0.33281 0.37631 0.3785 0.0
N86 N 0.25732 0.34361 0.38659 0.0
C87 C 0.33944 0.36051 0.43769 0.0
C88 C 0.41508 0.39701 0.39906 0.0
C89 C 0.25924 0.3425 0.41676 0.0
C90 C 0.41793 0.386 0.42855 0.0
C91 C 0.40333 0.42777 0.34111 0.0
C92 C 0.32731 0.39198 0.34983 0.0
C93 C 0.4855 0.446 0.3612 0.0
C94 C 0.4914 0.43033 0.39 0.0
Tb95 Tb 0.13259 0.31507 0.34869 0.0
N96 N 0.24746 0.36951 0.33003 0.0
C97 C 0.39449 0.4432 0.31225 0.0
C98 C 0.23772 0.38751 0.30252 0.0
C99 C 0.31122 0.42373 0.29304 0.0
H100 H 0.19963 0.33226 0.42567 0.0
H101 H 0.30357 0.43691 0.27099 0.0
H102 H 0.96465 1.02035 0.24611 0.0
H103 H 1.03367 0.93276 0.41107 0.0
H104 H 0.17338 0.37452 0.288 0.0
H105 H 0.45135 0.4707 0.30472 0.0
H106 H 0.12158 1.00755 0.38272 0.0
H107 H 0.34037 0.3572 0.46125 0.0
H108 H 0.54486 0.47257 0.35473 0.0
H109 H 0.55518 0.44579 0.40541 0.0
H110 H 0.81616 0.94257 0.21694 0.0
H111 H 0.47981 0.40103 0.445 0.0
H112 H 0.87874 0.86224 0.38793 0.0
N113 N 0.94865 0.99223 0.28806 0.0
C114 C 0.89677 0.94718 0.30164 0.0
C115 C 0.83772 0.94399 0.24087 0.0
C116 C 0.81139 0.9015 0.2858 0.0
C117 C 0.92187 0.98853 0.25758 0.0
C118 C 0.78178 0.90116 0.25518 0.0
N119 N 1.01403 0.98889 0.34532 0.0
C120 C 1.05282 0.98056 0.37284 0.0
C121 C 0.87863 0.90007 0.34631 0.0
C122 C 0.93001 0.94676 0.3315 0.0
C123 C 0.9161 0.89696 0.37565 0.0
C124 C 1.00382 0.93659 0.38877 0.0
H125 H 0.71659 0.86683 0.2422 0.0
H126 H 0.69279 0.82239 0.28925 0.0
H127 H 0.75173 0.82103 0.34227 0.0
O128 O 0.10288 0.93895 0.30766 0.0
O129 O 0.96079 0.12039 0.31674 0.0
O130 O 0.99292 0.26333 0.34896 0.0
O131 O 0.16314 1.02056 0.28458 0.0
O132 O 0.13821 0.13432 0.36809 0.0
O133 O 0.08234 0.25574 0.38174 0.0
O134 O 1.06586 0.40992 0.34032 0.0
O135 O 0.22336 0.23811 0.32314 0.0
O136 O 0.2168 0.13381 0.34451 0.0
O137 O 0.16757 0.43873 0.38092 0.0
O138 O 1.06652 0.26409 0.29891 0.0
O139 O 0.09156 0.12525 0.28121 0.0
C140 C 0.93567 0.19134 0.3325 0.0
C141 C 0.25219 0.93966 0.30427 0.0
C142 C 0.35804 0.941 0.34951 0.0
C143 C 0.42119 0.92548 0.33016 0.0
C144 C 0.3164 0.9259 0.28532 0.0
C145 C 0.40055 0.91892 0.29828 0.0
C146 C 0.27417 0.94797 0.33633 0.0
C147 C 0.10025 0.18724 0.38743 0.0
C148 C 0.16423 0.95131 0.29177 0.0
C149 C 0.75889 0.85724 0.3009 0.0
C150 C 0.79241 0.85662 0.33111 0.0
C151 C 0.26432 0.18604 0.3337 0.0
C152 C 1.06291 0.52297 0.38812 0.0
C153 C 0.07935 0.65455 0.4326 0.0
C154 C 0.99042 0.63243 0.43439 0.0
C155 C 0.97476 0.49968 0.39053 0.0
C156 C 0.114 0.59995 0.40907 0.0
C157 C 0.93861 0.55482 0.41353 0.0
C158 C 1.07096 0.19414 0.27612 0.0
C159 C 0.10907 0.46774 0.36655 0.0
H160 H 0.48609 0.91881 0.33969 0.0
H161 H 0.30164 0.92095 0.26068 0.0
H162 H 0.4498 0.90802 0.28353 0.0
H163 H 0.22518 0.95867 0.35117 0.0
H164 H 0.96142 0.67477 0.45178 0.0
H165 H 0.93456 0.43938 0.37501 0.0
H166 H 0.18198 0.6178 0.40683 0.0
H167 H 0.87035 0.5373 0.41522 0.0
Tb168 Tb 0.15055 0.29317 0.68492 0.0
C169 C 0.25679 0.95573 0.63475 0.0
N170 N 0.21334 1.00835 0.62359 0.0
C171 C 0.30503 1.00153 0.58468 0.0
C172 C 0.32889 0.92703 0.62209 0.0
C173 C 0.23409 1.02865 0.59809 0.0
C174 C 0.3532 0.95121 0.59692 0.0
C175 C 0.27605 0.88148 0.67274 0.0
C176 C 0.23067 0.93342 0.65986 0.0
C177 C 0.34813 0.85294 0.66023 0.0
C178 C 0.3745 0.87569 0.635 0.0
Tb179 Tb 0.09704 1.04499 0.64679 0.0
N180 N 0.16127 0.96309 0.67171 0.0
C181 C 0.24756 0.85964 0.69779 0.0
C182 C 0.13187 0.94003 0.69565 0.0
C183 C 0.17492 0.88865 0.70915 0.0
H184 H 0.19589 1.06493 0.58781 0.0
H185 H 0.15146 0.87075 0.72813 0.0
H186 H 1.03167 0.2867 0.73988 0.0
H187 H 0.17826 0.49663 0.61312 0.0
H188 H 1.07377 0.95886 0.70393 0.0
H189 H 0.28057 0.81971 0.70829 0.0
H190 H 0.22175 0.3895 0.63602 0.0
H191 H 0.32209 1.01893 0.56476 0.0
H192 H 0.3839 0.81315 0.66988 0.0
H193 H 0.43028 0.85324 0.62565 0.0
H194 H 0.91173 0.35365 0.76099 0.0
H195 H 0.40829 0.93056 0.58654 0.0
H196 H 1.05416 0.56571 0.62897 0.0
N197 N 1.03901 0.34984 0.70595 0.0
C198 C 1.01219 0.41108 0.69526 0.0
C199 C 0.93894 0.36986 0.74231 0.0
C200 C 0.9445 0.45158 0.70671 0.0
C201 C 1.00649 0.33159 0.73021 0.0
C202 C 0.90704 0.42938 0.73025 0.0
N203 N 0.11995 0.39415 0.66319 0.0
C204 C 0.16581 0.41732 0.64242 0.0
C205 C 1.02712 0.49563 0.66077 0.0
C206 C 1.05306 0.43285 0.67271 0.0
C207 C 1.07205 0.51776 0.63874 0.0
C208 C 0.14207 0.4788 0.62969 0.0
H209 H 0.8546 0.45875 0.73961 0.0
H210 H 0.86438 0.5442 0.70264 0.0
H211 H 0.93714 0.58309 0.66251 0.0
O212 O 0.23585 0.41329 0.70385 0.0
O213 O 1.00623 0.23744 0.66771 0.0
O214 O 0.97987 1.09314 0.66236 0.0
O215 O 0.22094 0.32984 0.73139 0.0
O216 O 0.17053 0.24401 0.63602 0.0
O217 O 1.06414 0.12215 0.61695 0.0
O218 O 1.02891 0.91933 0.63574 0.0
O219 O 0.23723 0.11166 0.66939 0.0
O220 O 0.25567 0.2412 0.66172 0.0
O221 O 1.03428 0.97772 0.59967 0.0
O222 O 1.06032 1.08791 0.69345 0.0
O223 O 0.16748 0.20776 0.71273 0.0
C224 C 0.95173 0.16486 0.66389 0.0
C225 C 0.36516 0.40332 0.73506 0.0
C226 C 0.5089 0.45571 0.72519 0.0
C227 C 0.54579 0.40021 0.7384 0.0
C228 C 0.40347 0.34933 0.74893 0.0
C229 C 0.49332 0.34817 0.75064 0.0
C230 C 0.41913 0.45789 0.72408 0.0
C231 C 0.11337 0.18633 0.61257 0.0
C232 C 0.26854 0.39717 0.72892 0.0
C233 C 0.91691 0.51289 0.6944 0.0
C234 C 0.9582 0.53489 0.67149 0.0
C235 C 0.28897 0.17714 0.66612 0.0
C236 C 0.90313 0.88021 0.59546 0.0
C237 C 0.76901 0.78931 0.59784 0.0
C238 C 0.72046 0.81795 0.57611 0.0
C239 C 0.85398 0.90776 0.57349 0.0
C240 C 0.86016 0.82068 0.60721 0.0
C241 C 0.76305 0.87663 0.56393 0.0
C242 C 0.108 0.15175 0.71755 0.0
C243 C 0.99885 0.91226 0.60665 0.0
H244 H 0.61477 0.39688 0.73907 0.0
H245 H 0.36389 0.30631 0.75767 0.0
H246 H 0.52188 0.30537 0.76082 0.0
H247 H 0.39019 0.49882 0.71292 0.0
H248 H 0.64998 0.79477 0.56845 0.0
H249 H 0.88544 0.95345 0.56384 0.0
H250 H 0.89782 0.80042 0.6245 0.0
H251 H 0.72541 0.8983 0.54712 0.0
H252 H 0.93839 0.45665 0.00078 0.0
H253 H 0.21402 0.49447 -0.00224 0.0
H254 H 0.93541 0.60127 -0.00029 0.0
H255 H 0.21245 0.64 -0.00263 0.0
H256 H 0.20689 0.92097 -0.00478 0.0
H257 H 0.21011 0.77631 -0.00372 0.0
H258 H 0.93359 0.73783 -0.00071 0.0
H259 H 0.93133 0.88281 -0.00163 0.0
C260 C 0.99923 0.49427 -0.00049 0.0
C261 C 1.07596 0.45652 -0.00123 0.0
C262 C 0.99791 0.58095 -0.00085 0.0
C263 C 1.07355 0.64016 -0.00173 0.0
C264 C 0.15063 0.60232 -0.00212 0.0
C265 C 0.15173 0.51551 -0.00186 0.0
C266 C 0.14612 0.88327 -0.00349 0.0
C267 C 1.06925 0.92083 -0.0028 0.0
C268 C 0.14761 0.79662 -0.0031 0.0
C269 C 1.07213 0.73745 -0.0021 0.0
C270 C 0.99508 0.7753 -0.00158 0.0
C271 C 0.99366 0.86186 -0.00204 0.0
H272 H 0.3721 0.24832 0.29792 0.0
H273 H 0.38287 0.1239 0.36783 0.0
H274 H 0.52996 0.25191 0.29811 0.0
H275 H 0.53934 0.12248 0.36685 0.0
H276 H 0.80418 1.06329 0.33504 0.0
H277 H 0.64677 1.06113 0.3348 0.0
H278 H 0.68213 0.31579 0.32993 0.0
H279 H 0.83993 0.31738 0.33013 0.0
C280 C 0.4077 0.22143 0.31343 0.0
C281 C 0.3625 0.18558 0.3329 0.0
C282 C 0.49924 0.22328 0.31349 0.0
C283 C 0.55 0.18725 0.33242 0.0
C284 C 0.50428 0.15028 0.35154 0.0
C285 C 0.41332 0.15043 0.352 0.0
C286 C 0.77875 0.11853 0.33345 0.0
C287 C 0.83682 0.19002 0.3322 0.0
C288 C 0.68756 0.11784 0.33375 0.0
C289 C 0.64909 0.18821 0.33226 0.0
C290 C 0.7072 0.25961 0.33081 0.0
C291 C 0.79881 0.26084 0.33116 0.0
H292 H 0.82848 0.6556 0.61009 0.0
H293 H 0.6129 0.79084 0.61909 0.0
H294 H 0.77352 0.57717 0.64285 0.0
H295 H 0.55357 0.70721 0.64979 0.0
H296 H 0.52297 0.62479 0.73352 0.0
H297 H 0.58577 0.70131 0.70112 0.0
H298 H 0.66645 0.4724 0.64734 0.0
H299 H 0.60784 0.39837 0.68112 0.0
C300 C 0.76848 0.66763 0.6187 0.0
C301 C 0.7259 0.73056 0.6125 0.0
C302 C 0.73644 0.62195 0.63725 0.0
C303 C 0.65999 0.63687 0.64951 0.0
C304 C 0.61417 0.69589 0.64154 0.0
C305 C 0.64711 0.74268 0.62339 0.0
C306 C 0.55567 0.59171 0.71508 0.0
C307 C 0.56018 0.50567 0.7095 0.0
C308 C 0.59048 0.63495 0.69622 0.0
C309 C 0.62917 0.59249 0.67103 0.0
C310 C 0.63737 0.50738 0.66652 0.0
C311 C 0.60387 0.46471 0.68581 0.0
H312 H 0.81805 1.03782 0.66539 0.0
H313 H 0.85962 0.29154 0.65972 0.0
H314 H 0.66197 1.03945 0.66509 0.0
H315 H 0.70557 0.29606 0.66151 0.0
H316 H 0.40558 0.26559 0.64066 0.0
H317 H 0.55965 0.25895 0.63822 0.0
H318 H 0.54983 1.08227 0.69031 0.0
H319 H 0.39442 1.08558 0.69096 0.0
C320 C 0.79456 1.09473 0.66446 0.0
C321 C 0.85385 0.16532 0.66325 0.0
C322 C 0.70402 1.09611 0.6646 0.0
C323 C 0.66827 0.16833 0.66365 0.0
C324 C 0.72784 0.23844 0.66204 0.0
C325 C 0.818 0.23659 0.66157 0.0
C326 C 0.43621 0.22531 0.65165 0.0
C327 C 0.38608 0.17599 0.66593 0.0
C328 C 0.52586 0.22189 0.65051 0.0
C329 C 0.57044 0.17061 0.66431 0.0
C330 C 0.51985 0.12187 0.67886 0.0
C331 C 0.42977 0.12417 0.67948 0.0
H332 H 0.7987 0.70267 0.95786 0.0
H333 H 0.58534 0.82667 0.93838 0.0
H334 H 0.71748 0.64264 0.99102 0.0
H335 H 0.50108 0.76303 0.96995 0.0
H336 H 0.41036 0.71252 0.05455 0.0
H337 H 0.49398 0.77304 0.02212 0.0
H338 H 0.59913 0.54282 0.99149 0.0
H339 H 0.52246 0.48618 0.02595 0.0
C340 C 0.73348 0.71542 0.96022 0.0
C341 C 0.69814 0.76915 0.94575 0.0
C342 C 0.68659 0.68094 0.97912 0.0
C343 C 0.60252 0.69815 0.98336 0.0
C344 C 0.5663 0.74991 0.9679 0.0
C345 C 0.61399 0.78563 0.94952 0.0
C346 C 0.45252 0.67555 0.04129 0.0
C347 C 0.45914 0.59431 0.04278 0.0
C348 C 0.49944 0.70961 0.02225 0.0
C349 C 0.55313 0.66268 0.00393 0.0
C350 C 0.5596 0.58148 0.0055 0.0
C351 C 0.51411 0.54822 0.02492 0.0
H352 H 1.0471 0.81288 0.43834 0.0
H353 H 0.24243 0.68392 0.46889 0.0
H354 H 0.163 0.92945 0.44103 0.0
H355 H 0.35925 0.79967 0.47065 0.0
H356 H 0.3294 1.06043 0.40212 0.0
H357 H 0.29489 1.03169 0.44916 0.0
H358 H 0.38033 0.7911 0.4176 0.0
H359 H 0.41704 0.82142 0.37131 0.0
C360 C 0.1145 0.81195 0.44755 0.0
C361 C 0.13638 0.73788 0.45189 0.0
C362 C 0.18153 0.87873 0.44889 0.0
C363 C 0.27046 0.87069 0.45386 0.0
C364 C 0.29131 0.80591 0.46542 0.0
C365 C 0.22428 0.73976 0.46456 0.0
C366 C 0.34527 1.00365 0.40616 0.0
C367 C 0.3735 0.94189 0.38264 0.0
C368 C 0.32521 0.98708 0.43313 0.0
C369 C 0.33127 0.90773 0.43661 0.0
C370 C 0.37391 0.85281 0.41577 0.0
C371 C 0.39485 0.86986 0.38895 0.0
H372 H 1.02498 0.31949 0.25291 0.0
H373 H 0.09173 1.06963 0.22302 0.0
H374 H 1.01391 0.3213 0.19866 0.0
H375 H 0.07881 1.07114 0.16904 0.0
H376 H 0.96423 1.0672 0.06957 0.0
H377 H 0.96656 1.06769 0.12379 0.0
H378 H 0.11355 0.32732 0.15952 0.0
H379 H 0.11117 0.32689 0.10529 0.0
C380 C 1.03709 0.26482 0.2349 0.0
C381 C 1.05944 0.1945 0.2427 0.0
C382 C 1.03086 0.266 0.20374 0.0
C383 C 1.04534 0.19631 0.17935 0.0
C384 C 1.06615 0.12552 0.18704 0.0
C385 C 1.07364 0.12483 0.21819 0.0
C386 C 0.99638 0.1247 0.08898 0.0
C387 C 1.03748 0.19698 0.08297 0.0
C388 C 0.99829 0.12477 0.1201 0.0
C389 C 1.04038 0.19751 0.14615 0.0
C390 C 0.07991 0.27042 0.14012 0.0
C391 C 0.07902 0.26996 0.10897 0.0
H392 H 0.22465 0.14496 0.42522 0.0
H393 H 0.97385 0.22346 0.42317 0.0
H394 H 0.22644 0.14659 0.47968 0.0
H395 H 0.97452 0.2233 0.47751 0.0
H396 H 0.24043 0.26449 0.58853 0.0
H397 H 0.23543 0.26268 0.53399 0.0
H398 H 0.97098 0.11268 0.5076 0.0
H399 H 0.97634 0.11322 0.56205 0.0
C400 C 0.16926 0.16117 0.43626 0.0
C401 C 0.09872 0.18326 0.41982 0.0
C402 C 0.17063 0.16285 0.46753 0.0
C403 C 0.10064 0.18499 0.48295 0.0
C404 C 1.02922 0.20551 0.46626 0.0
C405 C 1.02888 0.20579 0.43521 0.0
C406 C 0.18087 0.23182 0.5712 0.0
C407 C 0.10857 0.18949 0.57978 0.0
C408 C 0.17832 0.23014 0.53986 0.0
C409 C 0.1028 0.1875 0.51641 0.0
C410 C 1.0299 0.14653 0.52512 0.0
C411 C 1.03311 0.1467 0.55631 0.0
H412 H 0.97934 1.06892 0.74006 0.0
H413 H 0.2361 0.23432 0.77017 0.0
H414 H 0.97775 1.07463 0.79469 0.0
H415 H 0.23634 0.23807 0.82416 0.0
H416 H 1.0347 1.04126 0.89185 0.0
H417 H 1.03527 1.03232 0.83704 0.0
H418 H 0.1776 0.29384 0.86907 0.0
H419 H 0.17897 0.30131 0.92378 0.0
C420 C 1.03584 0.10584 0.75825 0.0
C421 C 0.10759 0.15152 0.75057 0.0
C422 C 1.03525 0.10895 0.78969 0.0
C423 C 0.10675 0.15737 0.81433 0.0
C424 C 0.17895 0.20173 0.80632 0.0
C425 C 0.17909 0.19919 0.77508 0.0
C426 C 1.0661 1.09682 0.88717 0.0
C427 C 0.10698 0.17193 0.91233 0.0
C428 C 1.06606 1.09192 0.85559 0.0
C429 C 0.10645 0.16226 0.84816 0.0
C430 C 0.14723 0.23748 0.87351 0.0
C431 C 0.14787 0.24204 0.90506 0.0
loop_
_geom_bond_atom_site_label_1
_geom_bond_atom_site_label_2
_geom_bond_distance
_geom_bond_site_symmetry_2
_ccdc_geom_bond_type
Tb0 N29 2.617 . S
Tb0 N35 2.572 1_556 S
Tb0 O44 2.465 1_546 S
Tb0 O45 2.387 1_556 S
Tb0 O47 2.428 1_545 S
Tb0 O48 2.308 1_556 S
Tb0 O52 2.349 1_545 S
Tb0 O55 2.393 . S
Tb0 C64 2.802 1_545 S
C1 N2 1.379 . S
C1 C4 1.416 . S
C1 C8 1.424 . S
N2 C1 1.379 . S
N2 C5 1.334 . S
N2 Tb11 2.617 . S
C3 C5 1.390 . S
C3 C6 1.339 . S
C3 H23 0.930 . S
C4 C1 1.416 . S
C4 C6 1.416 . S
C4 C10 1.448 . S
C5 N2 1.334 . S
C5 C3 1.390 . S
C5 H16 0.930 . S
C6 C3 1.339 . S
C6 C4 1.416 . S
C6 H27 0.930 . S
C7 C8 1.413 . S
C7 C9 1.427 . S
C7 C13 1.416 1_554 S
C8 C1 1.424 . S
C8 C7 1.413 . S
C8 N12 1.361 . S
C9 C7 1.427 . S
C9 C10 1.328 . S
C9 H24 0.929 1_545 S
C10 C4 1.448 . S
C10 C9 1.328 . S
C10 H25 0.930 . S
Tb11 N2 2.617 . S
Tb11 N12 2.572 . S
Tb11 O46 2.349 . S
Tb11 O49 2.393 . S
Tb11 O50 2.465 . S
Tb11 O51 2.387 . S
Tb11 O53 2.428 . S
Tb11 O54 2.308 1_554 S
Tb11 C75 2.802 . S
N12 C8 1.361 . S
N12 Tb11 2.572 . S
N12 C14 1.340 1_554 S
C13 C7 1.416 1_556 S
C13 C15 1.332 . S
C13 H21 0.931 1_545 S
C14 N12 1.340 1_556 S
C14 C15 1.407 . S
C14 H20 0.930 . S
C15 C13 1.332 . S
C15 C14 1.407 . S
C15 H17 0.929 . S
H16 C5 0.930 . S
H17 C15 0.929 . S
H18 C33 0.930 . S
H19 C40 0.929 . S
H20 C14 0.930 . S
H21 C13 0.931 1_565 S
H22 C36 0.930 . S
H23 C3 0.930 . S
H24 C9 0.929 1_565 S
H25 C10 0.930 . S
H26 C31 0.930 . S
H27 C6 0.930 . S
H28 C39 0.931 . S
N29 Tb0 2.617 . S
N29 C30 1.379 . S
N29 C33 1.334 . S
C30 N29 1.379 . S
C30 C32 1.416 . S
C30 C38 1.424 . S
C31 H26 0.930 . S
C31 C33 1.390 . S
C31 C34 1.339 . S
C32 C30 1.416 . S
C32 C34 1.416 . S
C32 C65 1.448 . S
C33 H18 0.930 . S
C33 N29 1.334 . S
C33 C31 1.390 . S
C34 C31 1.339 . S
C34 C32 1.416 . S
C34 H41 0.930 . S
N35 Tb0 2.572 1_554 S
N35 C36 1.340 . S
N35 C38 1.361 1_554 S
C36 H22 0.930 . S
C36 N35 1.340 . S
C36 C40 1.407 . S
C37 C38 1.413 1_554 S
C37 C39 1.416 . S
C37 C66 1.427 1_554 S
C38 C30 1.424 . S
C38 N35 1.361 1_556 S
C38 C37 1.413 1_556 S
C39 H28 0.931 . S
C39 C37 1.416 . S
C39 C40 1.332 . S
C40 H19 0.929 . S
C40 C36 1.407 . S
C40 C39 1.332 . S
H41 C34 0.930 . S
H42 C65 0.930 . S
H43 C66 0.929 . S
O44 Tb0 2.465 1_564 S
O44 C64 1.264 1_554 S
O45 Tb0 2.387 1_554 S
O45 C56 1.264 . S
O46 Tb11 2.349 . S
O46 C56 1.243 1_455 S
O47 Tb0 2.428 1_565 S
O47 C64 1.256 . S
O48 Tb0 2.308 1_554 S
O48 C63 1.266 . S
O49 Tb11 2.393 . S
O49 C63 1.248 1_455 S
O50 Tb11 2.465 . S
O50 C75 1.264 . S
O51 Tb11 2.387 . S
O51 C67 1.264 1_545 S
O52 Tb0 2.349 1_565 S
O52 C67 1.243 1_656 S
O53 Tb11 2.428 . S
O53 C75 1.256 . S
O54 Tb11 2.308 1_556 S
O54 C74 1.266 . S
O55 Tb0 2.393 . S
O55 C74 1.248 1_655 S
C56 O45 1.264 . S
C56 O46 1.243 1_655 S
C57 C60 1.399 . S
C57 C62 1.383 1_556 S
C57 C64 1.496 . S
C58 C59 1.399 1_554 S
C58 C62 1.389 . S
C59 C58 1.399 1_556 S
C59 C61 1.380 . S
C59 H76 0.929 . S
C60 C57 1.399 . S
C60 C61 1.392 . S
C60 H77 0.929 . S
C61 C59 1.380 . S
C61 C60 1.392 . S
C61 H78 0.929 . S
C62 C57 1.383 1_554 S
C62 C58 1.389 . S
C62 H79 0.931 . S
C63 O48 1.266 . S
C63 O49 1.248 1_655 S
C64 Tb0 2.802 1_565 S
C64 O44 1.264 1_556 S
C64 O47 1.256 . S
C64 C57 1.496 . S
C65 C32 1.448 . S
C65 H42 0.930 . S
C65 C66 1.328 . S
C66 C37 1.427 1_556 S
C66 H43 0.929 . S
C66 C65 1.328 . S
C67 O51 1.264 1_565 S
C67 O52 1.243 1_454 S
C68 C71 1.399 . S
C68 C72 1.383 . S
C68 C75 1.496 . S
C69 C70 1.399 . S
C69 C72 1.389 . S
C70 C69 1.399 . S
C70 C73 1.380 . S
C70 H80 0.929 . S
C71 C68 1.399 . S
C71 C73 1.392 . S
C71 H81 0.929 . S
C72 C68 1.383 . S
C72 C69 1.389 . S
C72 H82 0.931 1_554 S
C73 C70 1.380 . S
C73 C71 1.392 . S
C73 H83 0.929 . S
C74 O54 1.266 . S
C74 O55 1.248 1_455 S
C75 Tb11 2.802 . S
C75 O50 1.264 . S
C75 O53 1.256 . S
C75 C68 1.496 . S
H76 C59 0.929 . S
H77 C60 0.929 . S
H78 C61 0.929 . S
H79 C62 0.931 . S
H80 C70 0.929 . S
H81 C71 0.929 . S
H82 C72 0.931 1_556 S
H83 C73 0.929 . S
Tb84 N113 2.617 1_545 S
Tb84 N119 2.572 1_545 S
Tb84 O128 2.465 1_645 S
Tb84 O129 2.387 . S
Tb84 O131 2.428 1_645 S
Tb84 O132 2.308 . S
Tb84 O136 2.349 1_655 S
Tb84 O139 2.393 1_655 S
Tb84 C148 2.802 1_645 S
C85 N86 1.379 . S
C85 C88 1.416 . S
C85 C92 1.424 . S
N86 C85 1.379 . S
N86 C89 1.334 . S
N86 Tb95 2.617 . S
C87 C89 1.390 . S
C87 C90 1.339 . S
C87 H107 0.930 . S
C88 C85 1.416 . S
C88 C90 1.416 . S
C88 C94 1.448 . S
C89 N86 1.334 . S
C89 C87 1.390 . S
C89 H100 0.930 . S
C90 C87 1.339 . S
C90 C88 1.416 . S
C90 H111 0.930 . S
C91 C92 1.413 . S
C91 C93 1.427 . S
C91 C97 1.416 . S
C92 C85 1.424 . S
C92 C91 1.413 . S
C92 N96 1.361 . S
C93 C91 1.427 . S
C93 C94 1.328 . S
C93 H108 0.929 . S
C94 C88 1.448 . S
C94 C93 1.328 . S
C94 H109 0.930 . S
Tb95 N86 2.617 . S
Tb95 N96 2.572 . S
Tb95 O130 2.349 1_455 S
Tb95 O133 2.393 . S
Tb95 O134 2.465 . S
Tb95 O135 2.387 . S
Tb95 O137 2.428 . S
Tb95 O138 2.308 . S
Tb95 C159 2.802 . S
N96 C92 1.361 . S
N96 Tb95 2.572 . S
N96 C98 1.340 . S
C97 C91 1.416 . S
C97 C99 1.332 . S
C97 H105 0.931 . S
C98 N96 1.340 . S
C98 C99 1.407 . S
C98 H104 0.930 . S
C99 C97 1.332 . S
C99 C98 1.407 . S
C99 H101 0.929 . S
H100 C89 0.930 . S
H101 C99 0.929 . S
H102 C117 0.930 . S
H103 C124 0.929 . S
H104 C98 0.930 . S
H105 C97 0.931 . S
H106 C120 0.930 . S
H107 C87 0.930 . S
H108 C93 0.929 . S
H109 C94 0.930 . S
H110 C115 0.930 . S
H111 C90 0.930 . S
H112 C123 0.931 . S
N113 Tb84 2.617 1_565 S
N113 C114 1.379 . S
N113 C117 1.334 . S
C114 N113 1.379 . S
C114 C116 1.416 . S
C114 C122 1.424 . S
C115 H110 0.930 . S
C115 C117 1.390 . S
C115 C118 1.339 . S
C116 C114 1.416 . S
C116 C118 1.416 . S
C116 C149 1.448 . S
C117 H102 0.930 . S
C117 N113 1.334 . S
C117 C115 1.390 . S
C118 C115 1.339 . S
C118 C116 1.416 . S
C118 H125 0.930 . S
N119 Tb84 2.572 1_565 S
N119 C120 1.340 . S
N119 C122 1.361 . S
C120 H106 0.930 . S
C120 N119 1.340 . S
C120 C124 1.407 . S
C121 C122 1.413 . S
C121 C123 1.416 . S
C121 C150 1.427 . S
C122 C114 1.424 . S
C122 N119 1.361 . S
C122 C121 1.413 . S
C123 H112 0.931 . S
C123 C121 1.416 . S
C123 C124 1.332 . S
C124 H103 0.929 . S
C124 C120 1.407 . S
C124 C123 1.332 . S
H125 C118 0.930 . S
H126 C149 0.930 . S
H127 C150 0.929 . S
O128 Tb84 2.465 1_465 S
O128 C148 1.264 . S
O129 Tb84 2.387 . S
O129 C140 1.264 . S
O130 Tb95 2.349 1_655 S
O130 C140 1.243 . S
O131 Tb84 2.428 1_465 S
O131 C148 1.256 . S
O132 Tb84 2.308 . S
O132 C147 1.266 1_655 S
O133 Tb95 2.393 . S
O133 C147 1.248 . S
O134 Tb95 2.465 . S
O134 C159 1.264 . S
O135 Tb95 2.387 . S
O135 C151 1.264 . S
O136 Tb84 2.349 1_455 S
O136 C151 1.243 . S
O137 Tb95 2.428 . S
O137 C159 1.256 . S
O138 Tb95 2.308 . S
O138 C158 1.266 . S
O139 Tb84 2.393 1_455 S
O139 C158 1.248 . S
C140 O129 1.264 . S
C140 O130 1.243 . S
C141 C144 1.399 . S
C141 C146 1.383 . S
C141 C148 1.496 . S
C142 C143 1.399 . S
C142 C146 1.389 . S
C143 C142 1.399 . S
C143 C145 1.380 . S
C143 H160 0.929 . S
C144 C141 1.399 . S
C144 C145 1.392 . S
C144 H161 0.929 . S
C145 C143 1.380 . S
C145 C144 1.392 . S
C145 H162 0.929 . S
C146 C141 1.383 . S
C146 C142 1.389 . S
C146 H163 0.931 . S
C147 O132 1.266 1_455 S
C147 O133 1.248 . S
C148 Tb84 2.802 1_465 S
C148 O128 1.264 . S
C148 O131 1.256 . S
C148 C141 1.496 . S
C149 C116 1.448 . S
C149 H126 0.930 . S
C149 C150 1.328 . S
C150 C121 1.427 . S
C150 H127 0.929 . S
C150 C149 1.328 . S
C151 O135 1.264 . S
C151 O136 1.243 . S
C152 C155 1.399 . S
C152 C156 1.383 1_455 S
C152 C159 1.496 . S
C153 C154 1.399 . S
C153 C156 1.389 . S
C154 C153 1.399 . S
C154 C157 1.379 1_655 S
C154 H164 0.929 . S
C155 C152 1.399 . S
C155 C157 1.394 . S
C155 H165 0.929 . S
C156 C152 1.383 1_655 S
C156 C153 1.389 . S
C156 H166 0.931 . S
C157 C154 1.379 1_455 S
C157 C155 1.394 . S
C157 H167 0.931 . S
C158 O138 1.266 . S
C158 O139 1.248 . S
C159 Tb95 2.802 . S
C159 O134 1.264 . S
C159 O137 1.256 . S
C159 C152 1.496 . S
H160 C143 0.929 . S
H161 C144 0.929 . S
H162 C145 0.929 . S
H163 C146 0.931 . S
H164 C154 0.929 . S
H165 C155 0.929 . S
H166 C156 0.931 . S
H167 C157 0.931 . S
Tb168 N197 2.617 . S
Tb168 N203 2.572 . S
Tb168 O212 2.465 . S
Tb168 O213 2.387 1_455 S
Tb168 O215 2.428 . S
Tb168 O216 2.308 . S
Tb168 O220 2.349 . S
Tb168 O223 2.393 . S
Tb168 C232 2.802 . S
C169 N170 1.379 . S
C169 C172 1.416 . S
C169 C176 1.424 . S
N170 C169 1.379 . S
N170 C173 1.334 . S
N170 Tb179 2.617 . S
C171 C173 1.390 . S
C171 C174 1.339 . S
C171 H191 0.930 . S
C172 C169 1.416 . S
C172 C174 1.416 . S
C172 C178 1.448 . S
C173 N170 1.334 . S
C173 C171 1.390 . S
C173 H184 0.930 . S
C174 C171 1.339 . S
C174 C172 1.416 . S
C174 H195 0.930 . S
C175 C176 1.413 . S
C175 C177 1.427 . S
C175 C181 1.416 . S
C176 C169 1.424 . S
C176 C175 1.413 . S
C176 N180 1.361 . S
C177 C175 1.427 . S
C177 C178 1.328 . S
C177 H192 0.929 . S
C178 C172 1.448 . S
C178 C177 1.328 . S
C178 H193 0.930 . S
Tb179 N170 2.617 . S
Tb179 N180 2.572 . S
Tb179 O214 2.349 1_455 S
Tb179 O217 2.393 . S
Tb179 O218 2.465 1_455 S
Tb179 O219 2.387 . S
Tb179 O221 2.428 1_455 S
Tb179 O222 2.308 . S
Tb179 C243 2.802 1_455 S
N180 C176 1.361 . S
N180 Tb179 2.572 . S
N180 C182 1.340 . S
C181 C175 1.416 . S
C181 C183 1.332 . S
C181 H189 0.931 . S
C182 N180 1.340 . S
C182 C183 1.407 . S
C182 H188 0.930 . S
C183 C181 1.332 . S
C183 C182 1.407 . S
C183 H185 0.929 . S
H184 C173 0.930 . S
H185 C183 0.929 . S
H186 C201 0.930 . S
H187 C208 0.929 . S
H188 C182 0.930 . S
H189 C181 0.931 . S
H190 C204 0.930 . S
H191 C171 0.930 . S
H192 C177 0.929 . S
H193 C178 0.930 . S
H194 C199 0.930 . S
H195 C174 0.930 . S
H196 C207 0.931 . S
N197 Tb168 2.617 . S
N197 C198 1.379 . S
N197 C201 1.334 . S
C198 N197 1.379 . S
C198 C200 1.416 . S
C198 C206 1.424 . S
C199 H194 0.930 . S
C199 C201 1.390 . S
C199 C202 1.339 . S
C200 C198 1.416 . S
C200 C202 1.416 . S
C200 C233 1.448 1_455 S
C201 H186 0.930 . S
C201 N197 1.334 . S
C201 C199 1.390 . S
C202 C199 1.339 . S
C202 C200 1.416 . S
C202 H209 0.930 . S
N203 Tb168 2.572 . S
N203 C204 1.340 . S
N203 C206 1.361 . S
C204 H190 0.930 . S
C204 N203 1.340 . S
C204 C208 1.407 1_455 S
C205 C206 1.413 1_655 S
C205 C207 1.416 . S
C205 C234 1.427 . S
C206 C198 1.424 . S
C206 N203 1.361 . S
C206 C205 1.413 1_455 S
C207 H196 0.931 . S
C207 C205 1.416 . S
C207 C208 1.332 . S
C208 H187 0.929 . S
C208 C204 1.407 1_655 S
C208 C207 1.332 . S
H209 C202 0.930 . S
H210 C233 0.930 . S
H211 C234 0.929 . S
O212 Tb168 2.465 . S
O212 C232 1.264 . S
O213 Tb168 2.387 1_655 S
O213 C224 1.264 . S
O214 Tb179 2.349 1_655 S
O214 C224 1.243 1_565 S
O215 Tb168 2.428 . S
O215 C232 1.256 . S
O216 Tb168 2.308 . S
O216 C231 1.266 . S
O217 Tb179 2.393 . S
O217 C231 1.248 1_565 S
O218 Tb179 2.465 1_655 S
O218 C243 1.264 . S
O219 Tb179 2.387 . S
O219 C235 1.264 1_565 S
O220 Tb168 2.349 . S
O220 C235 1.243 . S
O221 Tb179 2.428 1_655 S
O221 C243 1.256 . S
O222 Tb179 2.308 . S
O222 C242 1.266 1_565 S
O223 Tb168 2.393 . S
O223 C242 1.248 . S
C224 O213 1.264 . S
C224 O214 1.243 1_545 S
C225 C228 1.399 . S
C225 C230 1.383 . S
C225 C232 1.496 . S
C226 C227 1.399 . S
C226 C230 1.389 . S
C227 C226 1.399 . S
C227 C229 1.380 . S
C227 H244 0.929 . S
C228 C225 1.399 . S
C228 C229 1.392 . S
C228 H245 0.929 . S
C229 C227 1.380 . S
C229 C228 1.392 . S
C229 H246 0.929 . S
C230 C225 1.383 . S
C230 C226 1.389 . S
C230 H247 0.931 . S
C231 O216 1.266 . S
C231 O217 1.248 1_545 S
C232 Tb168 2.802 . S
C232 O212 1.264 . S
C232 O215 1.256 . S
C232 C225 1.496 . S
C233 C200 1.448 1_655 S
C233 H210 0.930 . S
C233 C234 1.328 . S
C234 C205 1.427 . S
C234 H211 0.929 . S
C234 C233 1.328 . S
C235 O219 1.264 1_545 S
C235 O220 1.243 . S
C236 C239 1.399 . S
C236 C240 1.383 . S
C236 C243 1.496 . S
C237 C238 1.399 . S
C237 C240 1.389 . S
C238 C237 1.399 . S
C238 C241 1.380 . S
C238 H248 0.929 . S
C239 C236 1.399 . S
C239 C241 1.392 . S
C239 H249 0.929 . S
C240 C236 1.383 . S
C240 C237 1.389 . S
C240 H250 0.931 . S
C241 C238 1.380 . S
C241 C239 1.392 . S
C241 H251 0.929 . S
C242 O222 1.266 1_545 S
C242 O223 1.248 . S
C243 Tb179 2.802 1_655 S
C243 O218 1.264 . S
C243 O221 1.256 . S
C243 C236 1.496 . S
H244 C227 0.929 . S
H245 C228 0.929 . S
H246 C229 0.929 . S
H247 C230 0.931 . S
H248 C238 0.929 . S
H249 C239 0.929 . S
H250 C240 0.931 . S
H251 C241 0.929 . S
H252 C260 0.950 . S
H253 C265 0.950 . S
H254 C262 0.950 . S
H255 C264 0.950 . S
H256 C266 0.950 . S
H257 C268 0.950 . S
H258 C270 0.950 . S
H259 C271 0.950 . S
C260 H252 0.950 . S
C260 C261 1.386 1_556 S
C260 C262 1.391 . S
C261 C260 1.386 1_554 S
C261 C265 1.393 1_655 S
C262 H254 0.950 . S
C262 C260 1.391 . S
C262 C263 1.400 1_556 S
C263 C262 1.400 1_554 S
C263 C264 1.397 1_655 S
C263 C269 1.493 1_655 S
C264 H255 0.950 . S
C264 C263 1.397 1_455 S
C264 C265 1.391 . S
C265 H253 0.950 . S
C265 C261 1.393 1_455 S
C265 C264 1.391 . S
C266 H256 0.950 . S
C266 C267 1.386 . S
C266 C268 1.391 . S
C267 C266 1.386 . S
C267 C271 1.393 1_454 S
C268 H257 0.950 . S
C268 C266 1.391 . S
C268 C269 1.400 . S
C269 C263 1.493 1_455 S
C269 C268 1.400 . S
C269 C270 1.398 1_454 S
C270 H258 0.950 . S
C270 C269 1.398 1_656 S
C270 C271 1.391 . S
C271 H259 0.950 . S
C271 C267 1.393 1_656 S
C271 C270 1.391 . S
H272 C280 0.950 . S
H273 C285 0.950 . S
H274 C282 0.950 . S
H275 C284 0.950 . S
H276 C286 0.950 . S
H277 C288 0.950 . S
H278 C290 0.950 . S
H279 C291 0.950 . S
C280 H272 0.950 . S
C280 C281 1.386 . S
C280 C282 1.391 . S
C281 C280 1.386 . S
C281 C285 1.393 . S
C282 H274 0.950 . S
C282 C280 1.391 . S
C282 C283 1.400 . S
C283 C282 1.400 . S
C283 C284 1.398 . S
C283 C289 1.491 . S
C284 H275 0.950 . S
C284 C283 1.398 . S
C284 C285 1.391 . S
C285 H273 0.950 . S
C285 C281 1.393 . S
C285 C284 1.391 . S
C286 H276 0.950 . S
C286 C287 1.386 . S
C286 C288 1.391 . S
C287 C286 1.386 . S
C287 C291 1.393 . S
C288 H277 0.950 . S
C288 C286 1.391 . S
C288 C289 1.400 . S
C289 C283 1.491 . S
C289 C288 1.400 . S
C289 C290 1.398 . S
C290 H278 0.950 . S
C290 C289 1.398 . S
C290 C291 1.391 . S
C291 H279 0.950 . S
C291 C287 1.393 . S
C291 C290 1.391 . S
H292 C300 0.950 . S
H293 C305 0.950 . S
H294 C302 0.950 . S
H295 C304 0.950 . S
H296 C306 0.950 . S
H297 C308 0.950 . S
H298 C310 0.950 . S
H299 C311 0.950 . S
C300 H292 0.950 . S
C300 C301 1.386 . S
C300 C302 1.391 . S
C301 C300 1.386 . S
C301 C305 1.393 . S
C302 H294 0.950 . S
C302 C300 1.391 . S
C302 C303 1.400 . S
C303 C302 1.400 . S
C303 C304 1.398 . S
C303 C309 1.491 . S
C304 H295 0.950 . S
C304 C303 1.398 . S
C304 C305 1.391 . S
C305 H293 0.950 . S
C305 C301 1.393 . S
C305 C304 1.391 . S
C306 H296 0.950 . S
C306 C307 1.386 . S
C306 C308 1.391 . S
C307 C306 1.386 . S
C307 C311 1.393 . S
C308 H297 0.950 . S
C308 C306 1.391 . S
C308 C309 1.400 . S
C309 C303 1.491 . S
C309 C308 1.400 . S
C309 C310 1.398 . S
C310 H298 0.950 . S
C310 C309 1.398 . S
C310 C311 1.391 . S
C311 H299 0.950 . S
C311 C307 1.393 . S
C311 C310 1.391 . S
H312 C320 0.941 1_565 S
H313 C325 0.950 . S
H314 C322 0.950 1_565 S
H315 C324 0.950 . S
H316 C326 0.950 . S
H317 C328 0.950 . S
H318 C330 0.950 . S
H319 C331 0.950 . S
C320 H312 0.941 1_545 S
C320 C321 1.386 . S
C320 C322 1.391 . S
C321 C320 1.386 . S
C321 C325 1.393 . S
C322 H314 0.950 1_545 S
C322 C320 1.391 . S
C322 C323 1.400 . S
C323 C322 1.400 . S
C323 C324 1.398 . S
C323 C329 1.491 . S
C324 H315 0.950 . S
C324 C323 1.398 . S
C324 C325 1.391 . S
C325 H313 0.950 . S
C325 C321 1.393 . S
C325 C324 1.391 . S
C326 H316 0.950 . S
C326 C327 1.386 . S
C326 C328 1.391 . S
C327 C326 1.386 . S
C327 C331 1.393 1_545 S
C328 H317 0.950 . S
C328 C326 1.391 . S
C328 C329 1.400 . S
C329 C323 1.491 . S
C329 C328 1.400 . S
C329 C330 1.398 1_545 S
C330 H318 0.950 . S
C330 C329 1.398 1_565 S
C330 C331 1.391 . S
C331 H319 0.950 . S
C331 C327 1.393 1_565 S
C331 C330 1.391 . S
H332 C340 0.950 . S
H333 C345 0.950 . S
H334 C342 0.950 . S
H335 C344 0.950 1_556 S
H336 C346 0.950 . S
H337 C348 0.950 . S
H338 C350 0.950 . S
H339 C351 0.950 . S
C340 H332 0.950 . S
C340 C341 1.386 . S
C340 C342 1.391 . S
C341 C340 1.386 . S
C341 C345 1.393 . S
C342 H334 0.950 . S
C342 C340 1.391 . S
C342 C343 1.400 . S
C343 C342 1.400 . S
C343 C344 1.398 . S
C343 C349 1.491 . S
C344 H335 0.950 1_554 S
C344 C343 1.398 . S
C344 C345 1.391 . S
C345 H333 0.950 . S
C345 C341 1.393 . S
C345 C344 1.391 . S
C346 H336 0.950 . S
C346 C347 1.386 . S
C346 C348 1.391 . S
C347 C346 1.386 . S
C347 C351 1.393 1_556 S
C348 H337 0.950 . S
C348 C346 1.391 . S
C348 C349 1.400 1_556 S
C349 C343 1.491 . S
C349 C348 1.400 1_554 S
C349 C350 1.398 . S
C350 H338 0.950 . S
C350 C349 1.398 . S
C350 C351 1.391 . S
C351 H339 0.950 . S
C351 C347 1.393 1_554 S
C351 C350 1.391 . S
H352 C360 0.950 . S
H353 C365 0.950 . S
H354 C362 0.950 . S
H355 C364 0.950 . S
H356 C366 0.950 . S
H357 C368 0.950 1_655 S
H358 C370 0.950 . S
H359 C371 0.950 . S
C360 H352 0.950 . S
C360 C361 1.386 . S
C360 C362 1.391 1_655 S
C361 C360 1.386 . S
C361 C365 1.393 . S
C362 H354 0.950 . S
C362 C360 1.391 1_455 S
C362 C363 1.400 . S
C363 C362 1.400 . S
C363 C364 1.398 1_455 S
C363 C369 1.491 . S
C364 H355 0.950 . S
C364 C363 1.398 1_655 S
C364 C365 1.391 . S
C365 H353 0.950 . S
C365 C361 1.393 . S
C365 C364 1.391 . S
C366 H356 0.950 . S
C366 C367 1.386 . S
C366 C368 1.391 . S
C367 C366 1.386 . S
C367 C371 1.393 . S
C368 H357 0.950 1_455 S
C368 C366 1.391 . S
C368 C369 1.400 . S
C369 C363 1.491 . S
C369 C368 1.400 . S
C369 C370 1.398 . S
C370 H358 0.950 . S
C370 C369 1.398 . S
C370 C371 1.391 . S
C371 H359 0.950 . S
C371 C367 1.393 . S
C371 C370 1.391 . S
H372 C380 0.950 . S
H373 C385 0.950 . S
H374 C382 0.950 . S
H375 C384 0.950 . S
H376 C386 0.950 . S
H377 C388 0.950 . S
H378 C390 0.950 . S
H379 C391 0.950 . S
C380 H372 0.950 . S
C380 C381 1.386 1_655 S
C380 C382 1.391 . S
C381 C380 1.386 1_455 S
C381 C385 1.393 . S
C382 H374 0.950 . S
C382 C380 1.391 . S
C382 C383 1.400 1_655 S
C383 C382 1.400 1_455 S
C383 C384 1.398 . S
C383 C389 1.491 1_455 S
C384 H375 0.950 . S
C384 C383 1.398 . S
C384 C385 1.391 . S
C385 H373 0.950 . S
C385 C381 1.393 . S
C385 C384 1.391 . S
C386 H376 0.950 . S
C386 C387 1.386 1_455 S
C386 C388 1.391 . S
C387 C386 1.386 1_655 S
C387 C391 1.393 . S
C388 H377 0.950 . S
C388 C386 1.391 . S
C388 C389 1.400 1_455 S
C389 C383 1.491 1_655 S
C389 C388 1.400 1_655 S
C389 C390 1.398 . S
C390 H378 0.950 . S
C390 C389 1.398 . S
C390 C391 1.391 . S
C391 H379 0.950 . S
C391 C387 1.393 . S
C391 C390 1.391 . S
H392 C400 0.950 1_655 S
H393 C405 0.950 . S
H394 C402 0.950 1_565 S
H395 C404 0.950 . S
H396 C406 0.950 . S
H397 C408 0.950 . S
H398 C410 0.950 . S
H399 C411 0.950 . S
C400 H392 0.950 1_455 S
C400 C401 1.386 . S
C400 C402 1.391 . S
C401 C400 1.386 . S
C401 C405 1.393 . S
C402 H394 0.950 1_545 S
C402 C400 1.391 . S
C402 C403 1.400 . S
C403 C402 1.400 . S
C403 C404 1.398 . S
C403 C409 1.491 . S
C404 H395 0.950 . S
C404 C403 1.398 . S
C404 C405 1.391 . S
C405 H393 0.950 . S
C405 C401 1.393 . S
C405 C404 1.391 . S
C406 H396 0.950 . S
C406 C407 1.386 . S
C406 C408 1.391 . S
C407 C406 1.386 . S
C407 C411 1.393 1_545 S
C408 H397 0.950 . S
C408 C406 1.391 . S
C408 C409 1.400 . S
C409 C403 1.491 . S
C409 C408 1.400 . S
C409 C410 1.398 1_545 S
C410 H398 0.950 . S
C410 C409 1.398 1_565 S
C410 C411 1.391 . S
C411 H399 0.950 . S
C411 C407 1.393 1_565 S
C411 C410 1.391 . S
H412 C420 0.950 . S
H413 C425 0.950 . S
H414 C422 0.950 1_655 S
H415 C424 0.950 . S
H416 C426 0.950 . S
H417 C428 0.950 1_565 S
H418 C430 0.950 1_655 S
H419 C431 0.950 . S
C420 H412 0.950 . S
C420 C421 1.386 . S
C420 C422 1.391 . S
C421 C420 1.386 . S
C421 C425 1.393 1_545 S
C422 H414 0.950 1_455 S
C422 C420 1.391 . S
C422 C423 1.400 . S
C423 C422 1.400 . S
C423 C424 1.398 1_545 S
C423 C429 1.491 . S
C424 H415 0.950 . S
C424 C423 1.398 1_565 S
C424 C425 1.391 . S
C425 H413 0.950 . S
C425 C421 1.393 1_565 S
C425 C424 1.391 . S
C426 H416 0.950 . S
C426 C427 1.386 . S
C426 C428 1.391 . S
C427 C426 1.386 . S
C427 C431 1.393 1_455 S
C428 H417 0.950 1_545 S
C428 C426 1.391 . S
C428 C429 1.400 . S
C429 C423 1.491 . S
C429 C428 1.400 . S
C429 C430 1.398 . S
C430 H418 0.950 1_455 S
C430 C429 1.398 . S
C430 C431 1.391 1_455 S
C431 H419 0.950 . S
C431 C427 1.393 1_655 S
C431 C430 1.391 1_655 S
C261 C56 4.294 . S
C267 C67 4.294 . S
C281 C151 2.613 . S
C287 C140 2.613 . S
C301 C237 0.670 . S
C307 C226 0.670 . S
C321 C224 2.578 . S
C327 C235 2.578 . S
C341 C58 0.819 . S
C347 C69 0.819 1_556 S
C361 C153 1.244 . S
C367 C142 1.244 . S
C381 C158 1.525 . S
C387 C63 1.534 . S
C401 C147 1.601 . S
C407 C231 1.569 . S
C421 C242 1.573 . S
C427 C74 1.582 . S
