# Generated by pormake.
# Topology mon, (4)-cn, num edge types: 1
# Building blocks:
#     Node 0, Type 0, BuildingBlock: ICAMEG_clean_sbu_1, # of connection points: 4
#     Node 1, Type 0, BuildingBlock: ICAMEG_clean_sbu_1, # of connection points: 4
#     Node 2, Type 0, BuildingBlock: ICAMEG_clean_sbu_1, # of connection points: 4
#     Node 3, Type 0, BuildingBlock: ICAMEG_clean_sbu_1, # of connection points: 4
#     Node 4, Type 0, BuildingBlock: ICAMEG_clean_sbu_1, # of connection points: 4
#     Node 5, Type 0, BuildingBlock: ICAMEG_clean_sbu_1, # of connection points: 4
#     Node 6, Type 0, BuildingBlock: ICAMEG_clean_sbu_1, # of connection points: 4
#     Node 7, Type 0, BuildingBlock: ICAMEG_clean_sbu_1, # of connection points: 4
#     Node 8, Type 0, BuildingBlock: ICAMEG_clean_sbu_1, # of connection points: 4
#     Node 9, Type 0, BuildingBlock: ICAMEG_clean_sbu_1, # of connection points: 4
#     Node 10, Type 0, BuildingBlock: ICAMEG_clean_sbu_1, # of connection points: 4
#     Node 11, Type 0, BuildingBlock: ICAMEG_clean_sbu_1, # of connection points: 4
#     Node 12, Type 0, BuildingBlock: ICAMEG_clean_sbu_1, # of connection points: 4
#     Node 13, Type 0, BuildingBlock: ICAMEG_clean_sbu_1, # of connection points: 4
#     Node 14, Type 0, BuildingBlock: ICAMEG_clean_sbu_1, # of connection points: 4
#     Node 15, Type 0, BuildingBlock: ICAMEG_clean_sbu_1, # of connection points: 4
#     Edge 16, Type (0, 0), None
#     Edge 17, Type (0, 0), None
#     Edge 18, Type (0, 0), None
#     Edge 19, Type (0, 0), None
#     Edge 20, Type (0, 0), None
#     Edge 21, Type (0, 0), None
#     Edge 22, Type (0, 0), None
#     Edge 23, Type (0, 0), None
#     Edge 24, Type (0, 0), None
#     Edge 25, Type (0, 0), None
#     Edge 26, Type (0, 0), None
#     Edge 27, Type (0, 0), None
#     Edge 28, Type (0, 0), None
#     Edge 29, Type (0, 0), None
#     Edge 30, Type (0, 0), None
#     Edge 31, Type (0, 0), None
#     Edge 32, Type (0, 0), None
#     Edge 33, Type (0, 0), None
#     Edge 34, Type (0, 0), None
#     Edge 35, Type (0, 0), None
#     Edge 36, Type (0, 0), None
#     Edge 37, Type (0, 0), None
#     Edge 38, Type (0, 0), None
#     Edge 39, Type (0, 0), None
#     Edge 40, Type (0, 0), None
#     Edge 41, Type (0, 0), None
#     Edge 42, Type (0, 0), None
#     Edge 43, Type (0, 0), None
#     Edge 44, Type (0, 0), None
#     Edge 45, Type (0, 0), None
#     Edge 46, Type (0, 0), None
#     Edge 47, Type (0, 0), None
# Relax obj value: 0.228
# Max RMSD: 0.232
# Mean RMSD: 0.232
data_MOF--net-mon--node1-ICAMEG_clean_sbu_1--edge1-none
_symmetry_space_group_name_H-M    P1
_symmetry_Int_Tables_number       1
_symmetry_cell_setting            triclinic
loop_
_symmetry_equiv_pos_as_xyz
'x, y, z'
_cell_length_a     16.878035
_cell_length_b     16.877633
_cell_length_c     44.709681
_cell_angle_alpha  90.220834
_cell_angle_beta   89.975022
_cell_angle_gamma 90.000179
loop_
_atom_site_label
_atom_site_type_symbol
_atom_site_fract_x
_atom_site_fract_y
_atom_site_fract_z
_atom_type_partial_charge
Co0 Co 0.97301 0.93835 0.58236 0.0
Co1 Co 0.00643 0.04421 0.64559 0.0
O2 O 0.01356 0.02765 0.60345 0.0
C3 C 0.10791 0.98368 0.53464 0.0
O4 O 0.17266 0.97702 0.55067 0.0
C5 C 0.01399 0.20476 0.61704 0.0
O6 O 0.04632 0.17288 0.59342 0.0
O7 O 0.88651 0.00696 0.64515 0.0
O8 O 0.89981 0.90447 0.61443 0.0
H9 H 0.90387 0.00991 0.75 0.0
H10 H 0.95612 0.10708 0.56367 0.0
O11 O 0.03979 0.97092 0.54629 0.0
H12 H 0.68659 0.0 0.56907 0.0
H13 H 0.88216 0.80251 0.48799 0.0
H14 H 0.92494 0.77059 0.59615 0.0
H15 H 0.80348 0.9138 0.5669 0.0
H16 H 0.93932 0.91062 0.51777 0.0
O17 O 0.98238 0.16145 0.63751 0.0
H18 H 0.93053 0.97235 0.69611 0.0
H19 H 0.06105 0.18059 0.68398 0.0
H20 H 0.85219 0.66738 0.56723 0.0
H21 H 0.84196 0.19987 0.56647 0.0
H22 H 0.8343 0.68163 0.51298 0.0
H23 H 0.70621 0.14594 0.56918 0.0
O24 O 0.05884 0.87728 0.60606 0.0
H25 H 0.27005 0.1571 0.61004 0.0
H26 H 0.13325 0.01887 0.69148 0.0
H27 H 0.26405 0.07758 0.70079 0.0
H28 H 0.32942 0.15612 0.66089 0.0
H29 H 0.1454 0.08645 0.60133 0.0
H30 H 0.04922 0.21446 0.73727 0.0
H31 H 0.96716 0.13019 0.77055 0.0
O32 O 0.03777 0.92974 0.65287 0.0
C33 C 0.85881 0.94111 0.63362 0.0
C34 C 0.93998 0.04641 0.73567 0.0
C35 C 0.02046 0.16197 0.72858 0.0
N36 N -0.003 0.07182 0.6877 0.0
C37 C 0.95344 0.02542 0.70573 0.0
C38 C 0.02778 0.14161 0.69844 0.0
C39 C 0.97513 0.11441 0.74726 0.0
C40 C 0.89744 0.08411 0.56487 0.0
N41 N 0.88686 0.00434 0.56667 0.0
C42 C 0.833 0.13647 0.56612 0.0
C43 C 0.75657 0.10637 0.56797 0.0
C44 C 0.74564 0.02487 0.56803 0.0
C45 C 0.81176 0.9753 0.56653 0.0
C46 C 0.88945 0.79615 0.5118 0.0
C47 C 0.91494 0.77841 0.57252 0.0
C48 C 0.92418 0.85627 0.52885 0.0
N49 N 0.93643 0.84739 0.55897 0.0
C50 C 0.87569 0.7189 0.55629 0.0
C51 C 0.86361 0.72767 0.52575 0.0
C52 C 0.07037 0.87819 0.63525 0.0
C53 C 0.23832 0.13087 0.62857 0.0
C54 C 0.1609 0.0527 0.67387 0.0
C55 C 0.23553 0.08538 0.67932 0.0
C56 C 0.27224 0.12904 0.65693 0.0
N57 N 0.12137 0.06772 0.64767 0.0
C58 C 0.16493 0.09456 0.62397 0.0
Co59 Co 0.30391 0.71631 0.83257 0.0
Co60 Co 0.1993 0.75143 0.89584 0.0
O61 O 0.21533 0.75785 0.8537 0.0
C62 C 0.2567 0.84913 0.78426 0.0
O63 O 0.26226 0.91491 0.79987 0.0
C64 C 0.03872 0.75917 0.8671 0.0
O65 O 0.07084 0.79111 0.84355 0.0
O66 O 0.23641 0.63143 0.89554 0.0
O67 O 0.33838 0.64402 0.86471 0.0
H68 H 0.23639 0.65233 1.0005 0.0
H69 H 0.13507 0.70032 0.81356 0.0
O70 O 0.27085 0.78197 0.79636 0.0
H71 H 0.23933 0.42993 0.82035 0.0
H72 H 0.43702 0.62051 0.73838 0.0
H73 H 0.47207 0.66965 0.84614 0.0
H74 H 0.32667 0.54583 0.81797 0.0
H75 H 0.32925 0.67845 0.76818 0.0
O76 O 0.08181 0.72772 0.8877 0.0
H77 H 0.27238 0.67703 0.94642 0.0
H78 H 0.06311 0.80596 0.93426 0.0
H79 H 0.57471 0.59584 0.81739 0.0
H80 H 0.04111 0.58721 0.81693 0.0
H81 H 0.55902 0.57495 0.76328 0.0
H82 H 0.09359 0.45107 0.82022 0.0
O83 O 0.36579 0.80256 0.8561 0.0
H84 H 0.08731 0.01504 0.86012 0.0
H85 H 0.22498 0.87877 0.94177 0.0
H86 H 0.16671 0.00984 0.95098 0.0
H87 H 0.08851 0.07506 0.91096 0.0
H88 H 0.15754 0.89005 0.85152 0.0
H89 H 0.03021 0.79529 0.98762 0.0
H90 H 0.11592 0.71518 0.02102 0.0
O91 O 0.31393 0.78269 0.90301 0.0
C92 C 0.30218 0.60355 0.88404 0.0
C93 C 0.19923 0.68753 0.9861 0.0
C94 C 0.08278 0.76671 0.97893 0.0
N95 N 0.17229 0.74262 0.93798 0.0
C96 C 0.2194 0.7 0.95606 0.0
C97 C 0.10251 0.77328 0.94874 0.0
C98 C 0.13114 0.72247 0.99768 0.0
C99 C 0.15743 0.64146 0.81513 0.0
N100 N 0.23707 0.63012 0.81717 0.0
C101 C 0.1044 0.57761 0.81665 0.0
C102 C 0.13369 0.50097 0.81885 0.0
C103 C 0.21508 0.48919 0.81903 0.0
C104 C 0.26532 0.55472 0.81737 0.0
C105 C 0.44407 0.62925 0.76211 0.0
C106 C 0.4636 0.6583 0.8226 0.0
C107 C 0.38422 0.66447 0.77914 0.0
N108 N 0.3941 0.67861 0.80913 0.0
C109 C 0.52277 0.61842 0.80645 0.0
C110 C 0.51318 0.60467 0.776 0.0
C111 C 0.36531 0.81482 0.88529 0.0
C112 C 0.11339 0.98343 0.87869 0.0
C113 C 0.19117 0.90626 0.92411 0.0
C114 C 0.15879 0.98108 0.92951 0.0
C115 C 0.11533 0.0177 0.90705 0.0
N116 N 0.17605 0.86646 0.89789 0.0
C117 C 0.14943 0.90985 0.87416 0.0
Co118 Co 0.53626 0.055 0.08175 0.0
Co119 Co 0.50705 0.95133 0.1456 0.0
O120 O 0.49712 0.96606 0.10334 0.0
C121 C 0.40082 0.00611 0.03468 0.0
O122 O 0.33648 0.01242 0.05102 0.0
C123 C 0.49851 0.79036 0.11688 0.0
O124 O 0.46545 0.82254 0.09357 0.0
O125 O 0.62563 0.98819 0.14376 0.0
O126 O 0.60907 0.09025 0.11344 0.0
H127 H 0.60231 -0.00274 0.25189 0.0
H128 H 0.55385 0.88656 0.06263 0.0
O129 O 0.46906 0.02051 0.04596 0.0
H130 H 0.82298 -0.00495 0.06766 0.0
H131 H 0.62506 0.18881 0.98702 0.0
H132 H 0.58394 0.2232 0.0953 0.0
H133 H 0.70597 0.08095 0.0658 0.0
H134 H 0.5695 0.08071 1.01704 0.0
O135 O 0.53058 0.83345 0.13752 0.0
H136 H 0.60174 0.02053 0.19699 0.0
H137 H 0.45615 0.8189 0.18498 0.0
H138 H 0.65482 0.32621 0.06618 0.0
H139 H 0.66844 0.79435 0.06489 0.0
H140 H 0.67192 0.31086 1.01181 0.0
H141 H 0.80399 0.84899 0.06767 0.0
O142 O 0.45103 0.11643 0.10578 0.0
H143 H 0.24342 0.83586 0.11146 0.0
H144 H 0.38132 0.97432 0.19282 0.0
H145 H 0.25358 0.91039 0.20298 0.0
H146 H 0.18795 0.8317 0.16294 0.0
H147 H 0.3661 0.90915 0.10236 0.0
H148 H 0.45736 0.79326 0.23887 0.0
H149 H 0.53083 0.88355 0.27285 0.0
O150 O 0.47432 0.06568 0.15251 0.0
C151 C 0.65126 0.05419 0.1322 0.0
C152 C 0.57065 0.95833 0.23706 0.0
C153 C 0.48887 0.8438 0.23 0.0
N154 N 0.52111 0.92736 0.18813 0.0
C155 C 0.56774 0.97265 0.20621 0.0
C156 C 0.48813 0.8593 0.19939 0.0
C157 C 0.52985 0.89437 0.24901 0.0
C158 C 0.61245 0.9098 0.06376 0.0
N159 N 0.6227 0.9896 0.06578 0.0
C160 C 0.67713 0.85779 0.06478 0.0
C161 C 0.75342 0.88832 0.06664 0.0
C162 C 0.76402 0.96992 0.06674 0.0
C163 C 0.6977 0.0192 0.06541 0.0
C164 C 0.61796 0.19571 1.01084 0.0
C165 C 0.59337 0.2148 0.07162 0.0
C166 C 0.58396 0.13571 0.02802 0.0
N167 N 0.5718 0.14545 0.05814 0.0
C168 C 0.63179 0.2742 0.05527 0.0
C169 C 0.64328 0.26485 0.02468 0.0
C170 C 0.44123 0.11704 0.13505 0.0
C171 C 0.27567 0.86193 0.12997 0.0
C172 C 0.3537 0.94033 0.17522 0.0
C173 C 0.28082 0.90453 0.18116 0.0
C174 C 0.24399 0.86075 0.15871 0.0
N175 N 0.3923 0.92683 0.14867 0.0
C176 C 0.34789 0.90015 0.1251 0.0
Co177 Co 0.2037 0.26713 0.33318 0.0
Co178 Co 0.31185 0.23234 0.39605 0.0
O179 O 0.29604 0.22977 0.35338 0.0
C180 C 0.25188 0.13824 0.2835 0.0
O181 O 0.23673 0.07159 0.2974 0.0
C182 C 0.47057 0.24877 0.36614 0.0
O183 O 0.43757 0.24202 0.33971 0.0
O184 O 0.27128 0.35006 0.39783 0.0
O185 O 0.17011 0.33719 0.36634 0.0
H186 H 0.2732 0.32445 0.50182 0.0
H187 H 0.34932 0.35436 0.3527 0.0
O188 O 0.24211 0.2051 0.29667 0.0
H189 H 0.24386 0.52207 0.27376 0.0
H190 H 0.02645 0.29361 0.24128 0.0
H191 H 0.04346 0.3357 0.34917 0.0
H192 H 0.18946 0.39013 0.28075 0.0
H193 H 0.14121 0.24819 0.26845 0.0
O194 O 0.42825 0.2609 0.38955 0.0
H195 H 0.23771 0.30367 0.44766 0.0
H196 H 0.44452 0.17046 0.43444 0.0
H197 H 0.93645 0.39969 0.32055 0.0
H198 H 0.41177 0.47943 0.34273 0.0
H199 H 0.92837 0.37926 0.26597 0.0
H200 H 0.3584 0.56665 0.30314 0.0
O201 O 0.14753 0.17679 0.35616 0.0
H202 H 0.46057 0.98863 0.35994 0.0
H203 H 0.27678 0.09563 0.43545 0.0
H204 H 0.33834 0.96545 0.44352 0.0
H205 H 0.43698 0.91437 0.40695 0.0
H206 H 0.39475 0.11578 0.35223 0.0
H207 H 0.47489 0.17512 0.48818 0.0
H208 H 0.39053 0.25569 0.52218 0.0
O209 O 0.1983 0.19747 0.40295 0.0
C210 C 0.20645 0.37768 0.38584 0.0
C211 C 0.30953 0.28851 0.48723 0.0
C212 C 0.42335 0.20563 0.47963 0.0
N213 N 0.33662 0.23586 0.43852 0.0
C214 C 0.28993 0.27846 0.45701 0.0
C215 C 0.4048 0.20207 0.44924 0.0
C216 C 0.37584 0.25033 0.49869 0.0
C217 C 0.32681 0.38674 0.33414 0.0
N218 N 0.26311 0.36031 0.31772 0.0
C219 C 0.36247 0.46005 0.32905 0.0
C220 C 0.33285 0.50873 0.30694 0.0
C221 C 0.26934 0.48266 0.28999 0.0
C222 C 0.23686 0.40741 0.29493 0.0
C223 C 0.03277 0.30777 0.26472 0.0
C224 C 0.04419 0.33159 0.32535 0.0
C225 C 0.09769 0.28016 0.28094 0.0
N226 N 0.10609 0.29608 0.31097 0.0
C227 C 0.98102 0.36474 0.30936 0.0
C228 C 0.9763 0.35384 0.27874 0.0
C229 C 0.14692 0.16563 0.38528 0.0
C230 C 0.42214 0.01281 0.37708 0.0
C231 C 0.31794 0.07314 0.41893 0.0
C232 C 0.35308 -0.00054 0.42381 0.0
C233 C 0.40826 0.97083 0.40329 0.0
N234 N 0.34089 0.11946 0.39535 0.0
C235 C 0.38592 0.08641 0.37313 0.0
Co236 Co 0.98556 0.05255 0.45128 0.0
Co237 Co 0.02262 0.94304 0.38863 0.0
O238 O 0.0227 0.95922 0.43139 0.0
C239 C 0.11115 0.00589 0.5021 0.0
O240 O 0.17863 0.02238 0.48893 0.0
C241 C 0.00362 0.78464 0.41809 0.0
O242 O 0.0074 0.8178 0.44461 0.0
O243 O 0.90524 0.98395 0.3862 0.0
O244 O 0.91743 0.08563 0.41769 0.0
H245 H 0.93511 0.97897 0.28236 0.0
H246 H 0.89672 0.90805 0.43138 0.0
O247 O 0.04525 0.01443 0.48825 0.0
H248 H 0.73009 0.01489 0.51094 0.0
H249 H 0.95874 0.23377 0.54239 0.0
H250 H 0.91779 0.21252 0.43462 0.0
H251 H 0.86298 0.0675 0.50391 0.0
H252 H 0.00391 0.11785 0.51576 0.0
O253 O 0.99339 0.82685 0.39466 0.0
H254 H 0.95324 0.01584 0.33656 0.0
H255 H 0.08744 0.81031 0.35064 0.0
H256 H 0.85368 0.3208 0.46279 0.0
H257 H 0.76946 0.84893 0.44066 0.0
H258 H 0.87325 0.33087 0.51734 0.0
H259 H 0.68295 0.90303 0.48056 0.0
O260 O 0.07736 0.10763 0.42869 0.0
H261 H 0.26339 0.79431 0.42673 0.0
H262 H 0.16205 0.97734 0.3503 0.0
H263 H 0.29265 0.91543 0.34333 0.0
H264 H 0.34111 0.81739 0.3804 0.0
H265 H 0.13548 0.85985 0.43324 0.0
H266 H 0.08551 0.77888 0.29696 0.0
H267 H 0.00578 0.86191 0.26247 0.0
O268 O 0.05798 0.05636 0.3819 0.0
C269 C 0.87739 0.04892 0.39815 0.0
C270 C 0.97079 0.94334 0.29716 0.0
C271 C 0.05429 0.83042 0.30528 0.0
N272 N 0.02163 0.9178 0.34614 0.0
C273 C 0.97939 0.9637 0.3274 0.0
C274 C 0.05637 0.84964 0.33565 0.0
C275 C 0.01005 0.87715 0.28595 0.0
C276 C 0.86396 0.93147 0.44979 0.0
N277 N 0.89121 -0.00549 0.46644 0.0
C278 C 0.78966 0.89753 0.45458 0.0
C279 C 0.7414 0.92752 0.47688 0.0
C280 C 0.76881 0.98964 0.49433 0.0
C281 C 0.84457 0.02102 0.48943 0.0
C282 C 0.94457 0.22644 0.519 0.0
C283 C 0.92154 0.21265 0.45844 0.0
C284 C 0.97208 0.16076 0.50307 0.0
N285 N 0.95651 0.15113 0.47309 0.0
C286 C 0.88832 0.27655 0.47416 0.0
C287 C 0.89875 0.28242 0.50477 0.0
C288 C 0.08924 0.108 0.3996 0.0
C289 C 0.24053 0.83261 0.40939 0.0
C290 C 0.18332 0.93635 0.367 0.0
C291 C 0.25726 0.90104 0.36276 0.0
C292 C 0.28442 0.84619 0.38356 0.0
N293 N 0.13531 0.9137 0.39017 0.0
C294 C 0.16661 0.86877 0.41266 0.0
Co295 Co 0.1856 0.72218 0.70183 0.0
Co296 Co 0.29345 0.75247 0.63842 0.0
O297 O 0.27894 0.75737 0.68136 0.0
C298 C 0.23328 0.84998 0.75179 0.0
O299 O 0.21426 0.91623 0.73833 0.0
C300 C 0.45254 0.7355 0.66777 0.0
O301 O 0.42004 0.74306 0.69426 0.0
O302 O 0.25313 0.63612 0.63791 0.0
O303 O 0.15127 0.65378 0.66866 0.0
H304 H 0.24882 0.66656 0.53073 0.0
H305 H 0.33052 0.6317 0.68322 0.0
O306 O 0.22551 0.78308 0.73844 0.0
H307 H 0.21749 0.46731 0.76185 0.0
H308 H 0.00526 0.70334 0.793 0.0
H309 H 0.02515 0.65128 0.68573 0.0
H310 H 0.16597 0.6 0.75401 0.0
H311 H 0.12023 0.74676 0.7658 0.0
O312 O 0.4098 0.72333 0.64447 0.0
H313 H 0.22558 0.66203 0.58552 0.0
H314 H 0.42225 0.81346 0.59916 0.0
H315 H 0.91672 0.59168 0.71451 0.0
H316 H 0.38866 0.50455 0.69343 0.0
H317 H 0.90746 0.61611 0.76892 0.0
H318 H 0.33147 0.41914 0.73285 0.0
O319 O 0.13109 0.81296 0.67891 0.0
H320 H 0.4457 -0.00417 0.67251 0.0
H321 H 0.25877 0.88827 0.59836 0.0
H322 H 0.3245 0.01544 0.58859 0.0
H323 H 0.42354 0.06746 0.62479 0.0
H324 H 0.37839 0.86987 0.68121 0.0
H325 H 0.44584 0.82001 0.54517 0.0
H326 H 0.35825 0.74582 0.51042 0.0
O327 O 0.18007 0.7889 0.63211 0.0
C328 C 0.18781 0.61104 0.64997 0.0
C329 C 0.28616 0.69915 0.54587 0.0
C330 C 0.3966 0.78584 0.55372 0.0
N331 N 0.3159 0.74525 0.59545 0.0
C332 C 0.2721 0.69873 0.57677 0.0
C333 C 0.3819 0.78267 0.58439 0.0
C334 C 0.34772 0.74424 0.53429 0.0
C335 C 0.30615 0.59973 0.70156 0.0
N336 N 0.24235 0.62776 0.71755 0.0
C337 C 0.33936 0.52536 0.70682 0.0
C338 C 0.3076 0.47767 0.72885 0.0
C339 C 0.24431 0.50564 0.74553 0.0
C340 C 0.21381 0.58149 0.74022 0.0
C341 C 0.012 0.68736 0.76975 0.0
C342 C 0.02528 0.65834 0.70948 0.0
C343 C 0.0774 0.71357 0.7535 0.0
N344 N 0.08679 0.69521 0.72372 0.0
C345 C 0.96121 0.62718 0.72554 0.0
C346 C 0.95574 0.64042 0.75603 0.0
C347 C 0.12916 0.82192 0.64974 0.0
C348 C 0.40676 0.97134 0.6556 0.0
C349 C 0.30069 0.9108 0.61454 0.0
C350 C 0.33823 0.98275 0.60871 0.0
C351 C 0.39381 0.01178 0.62898 0.0
N352 N 0.32351 0.86514 0.63828 0.0
C353 C 0.36947 0.89851 0.66016 0.0
Co354 Co 0.52235 0.93148 0.95165 0.0
Co355 Co 0.49123 0.03805 0.88825 0.0
O356 O 0.48621 0.0242 0.93113 0.0
C357 C 0.39705 0.98111 1.00238 0.0
O358 O 0.32967 0.96119 0.9898 0.0
C359 C 0.50718 0.19774 0.91763 0.0
O360 O 0.49852 0.16565 0.94409 0.0
O361 O 0.60773 -0.00195 0.88799 0.0
O362 O 0.58968 0.89619 0.91843 0.0
H363 H 0.57706 0.9899 0.78084 0.0
H364 H 0.61055 0.0779 0.93323 0.0
O365 O 0.46274 0.97247 0.98835 0.0
H366 H 0.78155 0.96286 1.00932 0.0
H367 H 0.54703 0.75539 0.04347 0.0
H368 H 0.59208 0.77027 0.93565 0.0
H369 H 0.64899 0.9105 1.00229 0.0
H370 H 0.50095 0.86856 1.01598 0.0
O371 O 0.52004 0.15465 0.89439 0.0
H372 H 0.58191 0.96884 0.83569 0.0
H373 H 0.43079 0.16613 0.8486 0.0
H374 H 0.65294 0.66288 0.96447 0.0
H375 H 0.73718 0.13763 0.94309 0.0
H376 H 0.63188 0.65594 0.01908 0.0
H377 H 0.82593 0.07965 0.98128 0.0
O378 O 0.4311 0.87645 0.92891 0.0
H379 H 0.24705 0.18999 0.92168 0.0
H380 H 0.35589 0.00275 0.84777 0.0
H381 H 0.22875 0.06816 0.83764 0.0
H382 H 0.17619 0.16752 0.8737 0.0
H383 H 0.37277 0.1226 0.9308 0.0
H384 H 0.4243 0.18802 0.79451 0.0
H385 H 0.49813 0.09904 0.7601 0.0
O386 O 0.45482 0.92444 0.88202 0.0
C387 C 0.63269 0.93268 0.89996 0.0
C388 C 0.54473 0.02803 0.79582 0.0
C389 C 0.4584 0.13902 0.80325 0.0
N390 N 0.4988 0.05959 0.84526 0.0
C391 C 0.54523 0.01511 0.82676 0.0
C392 C 0.46156 0.12533 0.83397 0.0
C393 C 0.4998 0.08935 0.78401 0.0
C394 C 0.64359 0.05351 0.95127 0.0
N395 N 0.61728 0.98876 0.96699 0.0
C396 C 0.71785 0.08748 0.95624 0.0
C397 C 0.76743 0.05524 0.97757 0.0
C398 C 0.74159 0.99046 0.99376 0.0
C399 C 0.66566 0.95949 0.98889 0.0
C400 C 0.56083 0.76064 0.02001 0.0
C401 C 0.5861 0.77125 0.95944 0.0
C402 C 0.53326 0.82512 1.00362 0.0
N403 N 0.54993 0.83327 0.97368 0.0
C404 C 0.61798 0.70774 0.97555 0.0
C405 C 0.60668 0.70362 1.00616 0.0
C406 C 0.42185 0.8739 0.89972 0.0
C407 C 0.27188 0.15104 0.90482 0.0
C408 C 0.33314 0.0448 0.86388 0.0
C409 C 0.2612 0.08216 0.85785 0.0
C410 C 0.23186 0.1379 0.87804 0.0
N411 N 0.37846 0.06787 0.88779 0.0
C412 C 0.34463 0.11379 0.90961 0.0
Co413 Co 0.32258 0.27164 0.20277 0.0
Co414 Co 0.21789 0.24074 0.13914 0.0
O415 O 0.23292 0.23227 0.18143 0.0
C416 C 0.27554 0.13916 0.25108 0.0
O417 O 0.28489 0.07326 0.2358 0.0
C418 C 0.05669 0.2338 0.16742 0.0
O419 O 0.08824 0.20107 0.19093 0.0
O420 O 0.25502 0.35919 0.14066 0.0
O421 O 0.35778 0.34265 0.17075 0.0
H422 H 0.26245 0.33288 0.03254 0.0
H423 H 0.15319 0.29355 0.22018 0.0
O424 O 0.28792 0.20651 0.23888 0.0
H425 H 0.26873 0.55974 0.21623 0.0
H426 H 0.45878 0.36212 0.2971 0.0
H427 H 0.49076 0.31856 0.18883 0.0
H428 H 0.35154 0.44081 0.21941 0.0
H429 H 0.35024 0.30582 0.26745 0.0
O430 O 0.10032 0.26523 0.14694 0.0
H431 H 0.28578 0.33471 0.08746 0.0
H432 H 0.08529 0.18817 0.09991 0.0
H433 H 0.59479 0.38931 0.21766 0.0
H434 H 0.06419 0.41023 0.21707 0.0
H435 H 0.58067 0.40768 0.27203 0.0
H436 H 0.12233 0.54441 0.21483 0.0
O437 O 0.38312 0.18497 0.17913 0.0
H438 H 0.10231 0.97885 0.17459 0.0
H439 H 0.23981 0.11294 0.09245 0.0
H440 H 0.17511 0.98509 0.08292 0.0
H441 H 0.09693 0.92136 0.12336 0.0
H442 H 0.17591 0.1018 0.18303 0.0
H443 H 0.0595 0.18704 0.04601 0.0
H444 H 0.14917 0.25978 1.01178 0.0
O445 O 0.33205 0.20741 0.13237 0.0
C446 C 0.32118 0.38488 0.15217 0.0
C447 C 0.22375 0.30156 0.04747 0.0
C448 C 0.10986 0.21924 0.05478 0.0
N449 N 0.19354 0.25335 0.09655 0.0
C450 C 0.23822 0.2999 0.07834 0.0
C451 C 0.12551 0.21974 0.08539 0.0
C452 C 0.16008 0.25982 0.03564 0.0
C453 C 0.17811 0.35147 0.21934 0.0
N454 N 0.25828 0.35964 0.21827 0.0
C455 C 0.1278 0.41741 0.21783 0.0
C456 C 0.1603 0.49289 0.21627 0.0
C457 C 0.2421 0.50142 0.21693 0.0
C458 C 0.28962 0.43394 0.21893 0.0
C459 C 0.46537 0.35412 0.27331 0.0
C460 C 0.48293 0.32835 0.21251 0.0
C461 C 0.40497 0.31979 0.25631 0.0
N462 N 0.41385 0.30717 0.22617 0.0
C463 C 0.5429 0.36676 0.2287 0.0
C464 C 0.53429 0.37889 0.25929 0.0
C465 C 0.38358 0.1747 0.14987 0.0
C466 C 0.12814 0.01025 0.1559 0.0
C467 C 0.20598 0.08618 0.1102 0.0
C468 C 0.16975 0.01323 0.10462 0.0
C469 C 0.12627 0.97745 0.1273 0.0
N470 N 0.19297 0.12595 0.13656 0.0
C471 C 0.16662 0.08257 0.16038 0.0
Co472 Co 0.70336 0.22141 0.20097 0.0
Co473 Co 0.81154 0.25589 0.13806 0.0
O474 O 0.7957 0.2587 0.18073 0.0
C475 C 0.75175 0.35029 0.25064 0.0
O476 O 0.73637 0.41696 0.2368 0.0
C477 C 0.97027 0.23986 0.16796 0.0
O478 O 0.93727 0.24693 0.19439 0.0
O479 O 0.77103 0.13811 0.13641 0.0
O480 O 0.66969 0.15127 0.16785 0.0
H481 H 0.77322 0.16276 0.03243 0.0
H482 H 0.84928 0.13433 0.18158 0.0
O483 O 0.74194 0.28346 0.23745 0.0
H484 H 0.74287 0.96616 0.26023 0.0
H485 H 0.52641 0.19504 0.29299 0.0
H486 H 0.54304 0.15287 0.18508 0.0
H487 H 0.68849 0.09805 0.25324 0.0
H488 H 0.64098 0.24056 0.26571 0.0
O489 O 0.92795 0.22744 0.14458 0.0
H490 H 0.73756 0.18412 0.08656 0.0
H491 H 0.94419 0.31765 0.09958 0.0
H492 H 0.43604 0.08909 0.21377 0.0
H493 H 0.91183 0.00936 0.19161 0.0
H494 H 0.42814 0.10951 0.26837 0.0
H495 H 0.858 0.9219 0.23105 0.0
O496 O 0.64729 0.31174 0.17796 0.0
H497 H 0.95988 0.50014 0.17387 0.0
H498 H 0.77631 0.39222 0.09853 0.0
H499 H 0.83753 0.5225 0.09032 0.0
H500 H 0.9361 0.57403 0.12679 0.0
H501 H 0.89429 0.37292 0.18174 0.0
H502 H 0.9747 0.31248 0.04585 0.0
H503 H 0.89054 0.23142 1.01197 0.0
O504 O 0.69797 0.29069 0.13116 0.0
C505 C 0.70613 0.11061 0.14841 0.0
C506 C 0.80948 0.19889 0.04696 0.0
C507 C 0.92318 0.28198 0.05445 0.0
N508 N 0.83637 0.25209 0.0956 0.0
C509 C 0.78979 0.20925 0.07717 0.0
C510 C 0.90454 0.28585 0.08483 0.0
C511 C 0.87578 0.23702 0.03545 0.0
C512 C 0.82663 0.10191 0.20011 0.0
N513 N 0.7627 0.12822 0.21646 0.0
C514 C 0.86232 0.02863 0.20522 0.0
C515 C 0.83244 0.97981 0.22725 0.0
C516 C 0.7686 0.00569 0.24409 0.0
C517 C 0.73615 0.08095 0.23916 0.0
C518 C 0.53258 0.18096 0.26954 0.0
C519 C 0.54381 0.15708 0.2089 0.0
C520 C 0.59742 0.20859 0.25326 0.0
N521 N 0.60574 0.19262 0.22323 0.0
C522 C 0.48064 0.12401 0.22493 0.0
C523 C 0.47603 0.13492 0.25556 0.0
C524 C 0.64669 0.32278 0.14883 0.0
C525 C 0.92149 0.47576 0.15676 0.0
C526 C 0.81742 0.41491 0.11501 0.0
C527 C 0.85237 0.48865 0.11005 0.0
C528 C 0.9075 0.51753 0.13052 0.0
N529 N 0.84047 0.36881 0.13863 0.0
C530 C 0.88543 0.40211 0.16081 0.0
Co531 Co 0.8041 0.7725 0.70154 0.0
Co532 Co 0.69953 0.73726 0.63829 0.0
O533 O 0.71551 0.73101 0.68043 0.0
C534 C 0.75676 0.63966 0.74982 0.0
O535 O 0.7623 0.57392 0.73418 0.0
C536 C 0.53891 0.72963 0.66704 0.0
O537 O 0.57098 0.69782 0.69062 0.0
O538 O 0.73668 0.85724 0.63853 0.0
O539 O 0.83858 0.84479 0.66939 0.0
H540 H 0.73672 0.83573 0.53353 0.0
H541 H 0.63524 0.78861 0.72057 0.0
O542 O 0.77098 0.70685 0.73775 0.0
H543 H 0.73971 0.05892 0.7138 0.0
H544 H 0.93717 0.86822 0.79571 0.0
H545 H 0.97227 0.81913 0.68793 0.0
H546 H 0.82696 0.94296 0.71615 0.0
H547 H 0.82939 0.81034 0.76592 0.0
O548 O 0.58204 0.76102 0.64644 0.0
H549 H 0.77261 0.81152 0.58764 0.0
H550 H 0.56336 0.68256 0.59994 0.0
H551 H 0.07491 0.89291 0.71666 0.0
H552 H 0.54136 0.90179 0.71725 0.0
H553 H 0.0592 0.91377 0.77078 0.0
H554 H 0.59395 0.03789 0.71397 0.0
O555 O 0.86599 0.68623 0.67801 0.0
H556 H 0.58749 0.47386 0.67423 0.0
H557 H 0.72518 0.60968 0.59244 0.0
H558 H 0.66679 0.47862 0.58333 0.0
H559 H 0.58857 0.41363 0.62343 0.0
H560 H 0.65776 0.59886 0.68271 0.0
H561 H 0.53053 0.69286 0.54658 0.0
H562 H 0.61631 0.7727 0.51308 0.0
O563 O 0.81415 0.70597 0.63111 0.0
C564 C 0.80239 0.88515 0.65004 0.0
C565 C 0.69955 0.80064 0.54797 0.0
C566 C 0.5831 0.7215 0.55523 0.0
N567 N 0.67255 0.74589 0.59616 0.0
C568 C 0.71966 0.78843 0.57803 0.0
C569 C 0.60278 0.71516 0.58543 0.0
C570 C 0.63149 0.7656 0.53644 0.0
C571 C 0.65764 0.84745 0.71901 0.0
N572 N 0.73729 0.85873 0.71696 0.0
C573 C 0.60466 0.91133 0.71751 0.0
C574 C 0.63401 0.98796 0.71531 0.0
C575 C 0.71541 -0.00032 0.71512 0.0
C576 C 0.76559 0.93411 0.71676 0.0
C577 C 0.94423 0.85949 0.77198 0.0
C578 C 0.96379 0.83047 0.71148 0.0
C579 C 0.88438 0.8243 0.75496 0.0
N580 N 0.89428 0.81016 0.72497 0.0
C581 C 0.02296 0.87032 0.72762 0.0
C582 C 0.01335 0.88406 0.75807 0.0
C583 C 0.86555 0.67393 0.64882 0.0
C584 C 0.61356 0.50537 0.65563 0.0
C585 C 0.69136 0.5823 0.61012 0.0
C586 C 0.6589 0.50747 0.60478 0.0
C587 C 0.61544 0.47099 0.62728 0.0
N588 N 0.67626 0.62223 0.63632 0.0
C589 C 0.64965 0.57896 0.6601 0.0
Co590 Co 0.82292 0.21682 0.33131 0.0
Co591 Co 0.71811 0.24759 0.39496 0.0
O592 O 0.73322 0.25608 0.35268 0.0
C593 C 0.77565 0.34932 0.28304 0.0
O594 O 0.78487 0.41521 0.29833 0.0
C595 C 0.55701 0.25465 0.36667 0.0
O596 O 0.58866 0.28736 0.34316 0.0
O597 O 0.75527 0.12914 0.39342 0.0
O598 O 0.85811 0.14573 0.36332 0.0
H599 H 0.76219 0.15498 0.50152 0.0
H600 H 0.65358 0.19483 0.31389 0.0
O601 O 0.7882 0.28197 0.29522 0.0
H602 H 0.76931 0.92871 0.31778 0.0
H603 H 0.95923 0.12647 0.23694 0.0
H604 H 0.99109 0.17 0.34522 0.0
H605 H 0.85205 0.0477 0.31465 0.0
H606 H 0.85061 0.18264 0.26663 0.0
O607 O 0.60056 0.22314 0.38715 0.0
H608 H 0.78579 0.15344 0.44661 0.0
H609 H 0.58543 0.30015 0.4342 0.0
H610 H 0.09519 0.09935 0.31636 0.0
H611 H 0.56466 0.07807 0.31692 0.0
H612 H 0.08115 0.08101 0.262 0.0
H613 H 0.62289 0.94394 0.31915 0.0
O614 O 0.88338 0.3035 0.35499 0.0
H615 H 0.60305 0.50967 0.35948 0.0
H616 H 0.73979 0.37533 0.44169 0.0
H617 H 0.67527 0.50329 0.45118 0.0
H618 H 0.59747 0.56717 0.41071 0.0
H619 H 0.67642 0.38657 0.35107 0.0
H620 H 0.55939 0.30102 0.48809 0.0
H621 H 0.64886 0.22805 0.5223 0.0
O622 O 0.83225 0.28094 0.40175 0.0
C623 C 0.82144 0.10349 0.38189 0.0
C624 C 0.72359 0.18642 0.4866 0.0
C625 C 0.60979 0.26886 0.47932 0.0
N626 N 0.69365 0.23491 0.43755 0.0
C627 C 0.7382 0.18824 0.45574 0.0
C628 C 0.62559 0.26851 0.44871 0.0
C629 C 0.65989 0.22814 0.49845 0.0
C630 C 0.67855 0.13693 0.3147 0.0
N631 N 0.75872 0.1288 0.31579 0.0
C632 C 0.62828 0.07094 0.31618 0.0
C633 C 0.66083 -0.00452 0.31773 0.0
C634 C 0.74264 0.98701 0.31709 0.0
C635 C 0.79012 0.05453 0.31512 0.0
C636 C 0.96581 0.13448 0.26074 0.0
C637 C 0.9833 0.16023 0.32153 0.0
C638 C 0.90537 0.16876 0.27775 0.0
N639 N 0.91423 0.1814 0.30789 0.0
C640 C 0.0433 0.12186 0.30533 0.0
C641 C 0.03473 0.10976 0.27474 0.0
C642 C 0.88378 0.31375 0.38426 0.0
C643 C 0.6287 0.47822 0.37818 0.0
C644 C 0.7061 0.40213 0.42392 0.0
C645 C 0.66998 0.47515 0.42948 0.0
C646 C 0.62672 0.51102 0.40678 0.0
N647 N 0.6932 0.36239 0.39755 0.0
C648 C 0.66706 0.40581 0.37372 0.0
Co649 Co 0.68544 0.76654 0.83223 0.0
Co650 Co 0.79313 0.73633 0.89565 0.0
O651 O 0.77876 0.73137 0.85271 0.0
C652 C 0.73324 0.63877 0.78227 0.0
O653 O 0.7141 0.57252 0.79572 0.0
C654 C 0.95235 0.7532 0.86635 0.0
O655 O 0.91999 0.74556 0.83985 0.0
O656 O 0.75284 0.85269 0.89612 0.0
O657 O 0.651 0.8349 0.86539 0.0
H658 H 0.74804 0.82251 1.00329 0.0
H659 H 0.83044 0.85696 0.85077 0.0
O660 O 0.72547 0.70566 0.79563 0.0
H661 H 0.71715 0.02162 0.77232 0.0
H662 H 0.50533 0.78538 0.74106 0.0
H663 H 0.52493 0.83749 0.84833 0.0
H664 H 0.6656 0.88895 0.78015 0.0
H665 H 0.6202 0.7419 0.76827 0.0
O666 O 0.90951 0.76546 0.88962 0.0
H667 H 0.72514 0.82701 0.9485 0.0
H668 H 0.92172 0.67536 0.93497 0.0
H669 H 0.41657 0.89704 0.81954 0.0
H670 H 0.88863 0.98408 0.84055 0.0
H671 H 0.40745 0.87259 0.76514 0.0
H672 H 0.83132 0.06963 0.80122 0.0
O673 O 0.63091 0.67575 0.85514 0.0
H674 H 0.94554 0.49291 0.86169 0.0
H675 H 0.75824 0.6006 0.93573 0.0
H676 H 0.8239 0.47344 0.94556 0.0
H677 H 0.92314 0.42137 0.90941 0.0
H678 H 0.87823 0.61883 0.85292 0.0
H679 H 0.94501 0.66887 0.98898 0.0
H680 H 0.8573 0.74319 0.02367 0.0
O681 O 0.67973 0.6999 0.90194 0.0
C682 C 0.68755 0.87771 0.88404 0.0
C683 C 0.78546 0.78988 0.98818 0.0
C684 C 0.89585 0.70307 0.9804 0.0
N685 N 0.81541 0.74364 0.93863 0.0
C686 C 0.77157 0.79026 0.95727 0.0
C687 C 0.88132 0.7062 0.94973 0.0
C688 C 0.84691 0.74475 0.99979 0.0
C689 C 0.80604 0.88896 0.83245 0.0
N690 N 0.74218 0.861 0.81651 0.0
C691 C 0.83926 0.96333 0.82719 0.0
C692 C 0.80744 0.01109 0.80521 0.0
C693 C 0.74405 0.98322 0.78859 0.0
C694 C 0.71354 0.90736 0.79389 0.0
C695 C 0.51199 0.80134 0.76431 0.0
C696 C 0.52512 0.83038 0.82458 0.0
C697 C 0.57734 0.77511 0.78057 0.0
N698 N 0.58666 0.79348 0.81034 0.0
C699 C 0.46109 0.86153 0.80852 0.0
C700 C 0.45569 0.84827 0.77803 0.0
C701 C 0.62889 0.66682 0.88431 0.0
C702 C 0.90652 0.51744 0.87857 0.0
C703 C 0.80024 0.57804 0.91958 0.0
C704 C 0.83774 0.5061 0.92543 0.0
C705 C 0.89343 0.47705 0.9052 0.0
N706 N 0.82318 0.62366 0.89583 0.0
C707 C 0.86923 0.59024 0.87397 0.0
Co708 Co 0.48549 0.43582 0.0828 0.0
Co709 Co 0.52228 0.54539 0.14545 0.0
O710 O 0.52239 0.52923 0.10269 0.0
C711 C 0.61098 0.48256 0.03189 0.0
O712 O 0.67847 0.46568 0.04496 0.0
C713 C 0.50312 0.70379 0.11603 0.0
O714 O 0.5069 0.6707 0.0895 0.0
O715 O 0.40493 0.5044 0.14788 0.0
O716 O 0.41733 0.40266 0.1164 0.0
H717 H 0.43441 0.50959 0.2517 0.0
H718 H 0.3963 0.58021 0.10266 0.0
O719 O 0.54513 0.47411 0.04581 0.0
H720 H 0.2302 0.47288 0.02308 0.0
H721 H 0.45942 0.25453 0.99171 0.0
H722 H 0.4176 0.27581 0.09944 0.0
H723 H 0.36313 0.42051 0.03019 0.0
H724 H 0.50447 0.37036 0.01836 0.0
O725 O 0.49292 0.66153 0.13945 0.0
H726 H 0.45275 0.47266 0.19751 0.0
H727 H 0.58703 0.67814 0.18343 0.0
H728 H 0.3538 0.16748 0.07124 0.0
H729 H 0.26892 0.63901 0.09334 0.0
H730 H 0.37375 0.15742 1.01669 0.0
H731 H 0.18268 0.58468 0.05343 0.0
O732 O 0.57733 0.38087 0.10539 0.0
H733 H 0.76296 0.69425 0.10727 0.0
H734 H 0.6617 0.51122 0.18375 0.0
H735 H 0.7923 0.57316 0.19066 0.0
H736 H 0.84074 0.67117 0.15356 0.0
H737 H 0.63504 0.62872 0.10082 0.0
H738 H 0.58485 0.70966 0.2371 0.0
H739 H 0.50497 0.62669 0.27159 0.0
O740 O 0.55774 0.4321 0.15218 0.0
C741 C 0.37717 0.43943 0.1359 0.0
C742 C 0.47015 0.5452 0.23691 0.0
C743 C 0.55369 0.6581 0.22879 0.0
N744 N 0.52121 0.57064 0.18794 0.0
C745 C 0.47888 0.5248 0.20668 0.0
C746 C 0.55591 0.63882 0.19842 0.0
C747 C 0.50935 0.61141 0.24811 0.0
C748 C 0.36364 0.55668 0.08425 0.0
N749 N 0.39107 0.49365 0.06763 0.0
C750 C 0.28928 0.59044 0.07945 0.0
C751 C 0.24117 0.56032 0.05713 0.0
C752 C 0.26878 0.49823 0.0397 0.0
C753 C 0.34457 0.467 0.04464 0.0
C754 C 0.44511 0.26182 1.01508 0.0
C755 C 0.42159 0.27565 0.07563 0.0
C756 C 0.47251 0.3275 0.03103 0.0
N757 N 0.45668 0.33717 0.061 0.0
C758 C 0.38851 0.21173 0.05989 0.0
C759 C 0.39917 0.20586 0.02929 0.0
C760 C 0.58909 0.38047 0.13448 0.0
C761 C 0.74012 0.65594 0.12462 0.0
C762 C 0.68296 0.55221 0.16704 0.0
C763 C 0.7569 0.58754 0.17125 0.0
C764 C 0.78404 0.64237 0.15043 0.0
N765 N 0.63493 0.57483 0.14389 0.0
C766 C 0.6662 0.61978 0.12138 0.0
Co767 Co 0.02264 0.55728 0.58243 0.0
Co768 Co 0.9915 0.45075 0.64584 0.0
O769 O 0.98641 0.46462 0.60296 0.0
C770 C 0.89725 0.5075 0.5318 0.0
O771 O 0.82986 0.52721 0.54445 0.0
C772 C 0.0071 0.29102 0.61643 0.0
O773 O -0.00182 0.32309 0.58999 0.0
O774 O 0.10805 0.49066 0.64602 0.0
O775 O 0.08999 0.59258 0.61561 0.0
H776 H 0.07742 0.49899 0.75319 0.0
H777 H 0.11043 0.41051 0.60071 0.0
O778 O 0.96297 0.5163 0.54577 0.0
H779 H 0.28242 0.52614 0.52503 0.0
H780 H 0.04799 0.73297 0.49052 0.0
H781 H 0.09226 0.71855 0.5984 0.0
H782 H 0.14994 0.57868 0.53199 0.0
H783 H 0.00161 0.61994 0.51806 0.0
O784 O 0.02021 0.33412 0.63965 0.0
H785 H 0.08227 0.51997 0.69834 0.0
H786 H 0.93116 0.32266 0.68551 0.0
H787 H 0.15329 0.82583 0.56955 0.0
H788 H 0.23686 0.35042 0.5908 0.0
H789 H 0.1326 0.83255 0.51491 0.0
H790 H 0.32614 0.4087 0.55282 0.0
O791 O 0.93143 0.61236 0.6052 0.0
H792 H 0.74704 0.2991 0.61257 0.0
H793 H 0.85633 0.48606 0.68643 0.0
H794 H 0.7292 0.4207 0.69667 0.0
H795 H 0.67646 0.32142 0.66064 0.0
H796 H 0.8727 0.36653 0.60333 0.0
H797 H 0.9247 0.30083 0.73962 0.0
H798 H -0.00147 0.38986 0.77398 0.0
O799 O 0.95515 0.56437 0.65208 0.0
C800 C 0.133 0.55604 0.63404 0.0
C801 C 0.04512 0.46082 0.73824 0.0
C802 C 0.9588 0.34981 0.73085 0.0
N803 N -0.00083 0.42919 0.68882 0.0
C804 C 0.04561 0.47371 0.70729 0.0
C805 C 0.96196 0.36346 0.70013 0.0
C806 C 0.0002 0.39951 0.75007 0.0
C807 C 0.1436 0.43495 0.58271 0.0
N808 N 0.11756 0.49993 0.56707 0.0
C809 C 0.21779 0.4008 0.57773 0.0
C810 C 0.26767 0.43321 0.55652 0.0
C811 C 0.24219 0.49835 0.54046 0.0
C812 C 0.16628 0.52941 0.54529 0.0
C813 C 0.06156 0.72784 0.514 0.0
C814 C 0.0864 0.7175 0.57459 0.0
C815 C 0.03382 0.66346 0.53041 0.0
N816 N 0.05028 0.65544 0.56037 0.0
C817 C 0.11839 0.78094 0.55847 0.0
C818 C 0.10729 0.78492 0.52785 0.0
C819 C 0.92216 0.6149 0.63439 0.0
C820 C 0.77198 0.33797 0.62942 0.0
C821 C 0.83349 0.44406 0.67033 0.0
C822 C 0.76156 0.40672 0.67642 0.0
C823 C 0.73211 0.35103 0.65624 0.0
N824 N 0.8787 0.42101 0.64638 0.0
C825 C 0.84472 0.37522 0.62457 0.0
Co826 Co 0.47271 0.55028 0.9517 0.0
Co827 Co 0.50622 0.44453 0.88843 0.0
O828 O 0.51337 0.46106 0.93058 0.0
C829 C 0.60763 0.50487 0.99937 0.0
O830 O 0.67232 0.51133 0.98326 0.0
C831 C 0.51388 0.28402 0.917 0.0
O832 O 0.54608 0.31598 0.94062 0.0
O833 O 0.38627 0.48171 0.88892 0.0
O834 O 0.39952 0.58418 0.91965 0.0
H835 H 0.40354 0.47885 0.78408 0.0
H836 H 0.4563 0.38171 0.9706 0.0
O837 O 0.53949 0.51775 0.98777 0.0
H838 H 0.18639 0.4877 0.96483 0.0
H839 H 0.38136 0.68586 0.04608 0.0
H840 H 0.42474 0.71807 0.93795 0.0
H841 H 0.30296 0.57436 0.96692 0.0
H842 H 0.43865 0.5778 1.01627 0.0
O843 O 0.48229 0.32725 0.89652 0.0
H844 H 0.43026 0.5164 0.83795 0.0
H845 H 0.56092 0.30824 0.85 0.0
H846 H 0.35189 0.82123 0.96688 0.0
H847 H 0.34249 0.28845 0.9678 0.0
H848 H 0.33368 0.80683 0.02112 0.0
H849 H 0.20657 0.34183 0.96492 0.0
O850 O 0.55849 0.61145 0.92799 0.0
H851 H 0.77002 0.33171 0.92378 0.0
H852 H 0.63292 0.47019 0.84251 0.0
H853 H 0.76381 0.41177 0.8331 0.0
H854 H 0.82936 0.33313 0.8729 0.0
H855 H 0.64528 0.40214 0.9326 0.0
H856 H 0.54899 0.27434 0.79672 0.0
H857 H 0.46684 0.35859 0.76349 0.0
O858 O 0.53749 0.55903 0.88117 0.0
C859 C 0.35858 0.54756 0.90045 0.0
C860 C 0.43968 0.44236 0.79839 0.0
C861 C 0.52023 0.32683 0.80542 0.0
N862 N 0.49678 0.41696 0.84633 0.0
C863 C 0.45317 0.46334 0.82832 0.0
C864 C 0.52761 0.3472 0.83556 0.0
C865 C 0.47485 0.37438 0.78678 0.0
C866 C 0.39753 0.40444 0.96931 0.0
N867 N 0.38666 0.48414 0.96739 0.0
C868 C 0.33329 0.35182 0.96807 0.0
C869 C 0.25677 0.3816 0.96612 0.0
C870 C 0.24553 0.46307 0.96595 0.0
C871 C 0.31145 0.5129 0.96743 0.0
C872 C 0.38877 0.69227 0.02228 0.0
C873 C 0.4146 0.71018 0.96158 0.0
C874 C 0.42354 0.63218 1.00521 0.0
N875 N 0.43597 0.64115 0.97511 0.0
C876 C 0.37528 0.76966 0.97781 0.0
C877 C 0.36303 0.76081 1.00834 0.0
C878 C 0.57006 0.61057 0.8988 0.0
C879 C 0.73823 0.35801 0.90528 0.0
C880 C 0.66065 0.43633 0.86009 0.0
C881 C 0.73533 0.40379 0.85457 0.0
C882 C 0.77213 0.36008 0.87691 0.0
N883 N 0.62117 0.42111 0.88629 0.0
C884 C 0.66478 0.39417 0.90994 0.0
Co885 Co 0.0364 0.43325 0.45244 0.0
Co886 Co 0.00753 0.53707 0.3886 0.0
O887 O -0.00246 0.52233 0.43086 0.0
C888 C 0.90094 0.48233 0.49952 0.0
O889 O 0.83657 0.4758 0.48324 0.0
C890 C -0.00095 0.69806 0.4173 0.0
O891 O 0.966 0.66594 0.44063 0.0
O892 O 0.12605 0.50007 0.39046 0.0
O893 O 0.10924 0.39794 0.42076 0.0
H894 H 0.10328 0.49118 0.28235 0.0
H895 H 0.05464 0.60178 0.47142 0.0
O896 O 0.96918 0.46793 0.48821 0.0
H897 H 0.32326 0.4919 0.4668 0.0
H898 H 0.1245 0.29921 0.5472 0.0
H899 H 0.08404 0.26504 0.43888 0.0
H900 H 0.20584 0.40658 0.46861 0.0
H901 H 0.06918 0.40738 0.51718 0.0
O902 O 0.03117 0.65492 0.39668 0.0
H903 H 0.1025 0.46794 0.33724 0.0
H904 H 0.95682 0.66953 0.34921 0.0
H905 H 0.15469 0.16196 0.468 0.0
H906 H 0.16969 0.69338 0.46926 0.0
H907 H 0.17143 0.17717 0.5224 0.0
H908 H 0.305 0.63805 0.46666 0.0
O909 O 0.9511 0.37201 0.42839 0.0
H910 H 0.74397 0.65265 0.42285 0.0
H911 H 0.88182 0.51443 0.34138 0.0
H912 H 0.75415 0.57851 0.33128 0.0
H913 H 0.68854 0.65707 0.37138 0.0
H914 H 0.86662 0.57929 0.43188 0.0
H915 H 0.95825 0.69516 0.29532 0.0
H916 H 0.03189 0.60489 0.26136 0.0
O917 O 0.97463 0.42277 0.38167 0.0
C918 C 0.15156 0.43407 0.40204 0.0
C919 C 0.07156 0.53011 0.29717 0.0
C920 C 0.98973 0.64462 0.3042 0.0
N921 N 0.02174 0.56104 0.34607 0.0
C922 C 0.06851 0.51579 0.32801 0.0
C923 C 0.98884 0.62912 0.33481 0.0
C924 C 0.03081 0.59406 0.2852 0.0
C925 C 0.11312 0.57822 0.47038 0.0
N926 N 0.12299 0.49836 0.46845 0.0
C927 C 0.17807 0.6299 0.46941 0.0
C928 C 0.25423 0.59899 0.46765 0.0
C929 C 0.26442 0.51732 0.46763 0.0
C930 C 0.19784 0.46838 0.46893 0.0
C931 C 0.11751 0.29234 0.52337 0.0
C932 C 0.09329 0.27338 0.46256 0.0
C933 C 0.08361 0.35238 0.50619 0.0
N934 N 0.07162 0.34269 0.47606 0.0
C935 C 0.13159 0.21394 0.47892 0.0
C936 C 0.14288 0.22322 0.50952 0.0
C937 C 0.94142 0.37141 0.39911 0.0
C938 C 0.77621 0.62663 0.40432 0.0
C939 C 0.85423 0.54837 0.359 0.0
C940 C 0.78138 0.58426 0.3531 0.0
C941 C 0.74455 0.62796 0.37559 0.0
N942 N 0.89282 0.56173 0.38555 0.0
C943 C 0.84841 0.58835 0.40915 0.0
loop_
_geom_bond_atom_site_label_1
_geom_bond_atom_site_label_2
_geom_bond_distance
_geom_bond_site_symmetry_2
_ccdc_geom_bond_type
Co0 O2 2.143 1_665 S
Co0 O8 2.074 . S
Co0 O11 2.093 1_655 S
Co0 O24 2.097 1_655 S
Co0 N41 2.151 . S
Co0 N49 2.214 . S
Co1 O2 2.160 . S
Co1 O7 2.058 1_455 S
Co1 O17 2.057 . S
Co1 O32 2.037 1_545 S
Co1 N36 2.145 . S
Co1 N57 2.257 . S
O2 Co0 2.143 1_445 S
O2 Co1 2.160 . S
C3 O4 1.278 1_565 S
C3 O11 1.224 . S
O4 C3 1.278 1_545 S
C5 O6 1.245 . S
C5 O17 1.232 1_655 S
O6 C5 1.245 . S
O7 Co1 2.058 1_655 S
O7 C33 1.269 1_545 S
O8 Co0 2.074 . S
O8 C33 1.257 . S
H9 C34 0.930 . S
H10 C40 0.930 1_545 S
O11 Co0 2.093 1_455 S
O11 C3 1.224 . S
H12 C44 0.929 . S
H13 C46 0.930 . S
H14 C47 0.930 . S
H15 C45 0.929 . S
H16 C48 0.928 . S
O17 Co1 2.057 . S
O17 C5 1.232 1_455 S
H18 C37 0.929 1_565 S
H19 C38 0.929 . S
H20 C50 0.931 . S
H21 C42 0.929 . S
H22 C51 0.930 . S
H23 C43 0.931 . S
O24 Co0 2.097 1_455 S
O24 C52 1.214 . S
H25 C53 0.929 . S
H26 C54 0.929 . S
H27 C55 0.930 . S
H28 C56 0.929 . S
H29 C58 0.930 . S
H30 C35 0.930 . S
H31 C39 0.930 . S
O32 Co1 2.037 1_565 S
O32 C52 1.234 . S
C33 O7 1.269 1_565 S
C33 O8 1.257 . S
C34 H9 0.930 . S
C34 C37 1.388 . S
C34 C39 1.418 . S
C35 H30 0.930 . S
C35 C38 1.404 . S
C35 C39 1.353 . S
N36 Co1 2.145 . S
N36 C37 1.397 . S
N36 C38 1.334 . S
C37 H18 0.929 1_545 S
C37 C34 1.388 . S
C37 N36 1.397 . S
C38 H19 0.929 . S
C38 C35 1.404 . S
C38 N36 1.334 . S
C39 H31 0.930 . S
C39 C34 1.418 . S
C39 C35 1.353 . S
C40 H10 0.930 1_565 S
C40 N41 1.330 . S
C40 C42 1.446 1_565 S
N41 Co0 2.151 . S
N41 C40 1.330 . S
N41 C45 1.418 . S
C42 H21 0.929 . S
C42 C40 1.446 1_545 S
C42 C43 1.332 1_545 S
C43 H23 0.931 . S
C43 C42 1.332 1_565 S
C43 C44 1.267 . S
C44 H12 0.929 . S
C44 C43 1.267 . S
C44 C45 1.251 . S
C45 H15 0.929 . S
C45 N41 1.418 . S
C45 C44 1.251 . S
C46 H13 0.930 . S
C46 C48 1.406 . S
C46 C51 1.261 . S
C47 H14 0.930 . S
C47 N49 1.325 . S
C47 C50 1.357 . S
C48 H16 0.928 . S
C48 C46 1.406 . S
C48 N49 1.261 . S
N49 Co0 2.214 . S
N49 C47 1.325 . S
N49 C48 1.261 . S
C50 H20 0.931 . S
C50 C47 1.357 . S
C50 C51 1.312 . S
C51 H22 0.930 . S
C51 C46 1.261 . S
C51 C50 1.312 . S
C52 O24 1.214 . S
C52 O32 1.234 . S
C53 H25 0.929 . S
C53 C56 1.391 . S
C53 C58 1.391 . S
C54 H26 0.929 . S
C54 C55 1.390 . S
C54 N57 1.391 . S
C55 H27 0.930 . S
C55 C54 1.390 . S
C55 C56 1.392 . S
C56 H28 0.929 . S
C56 C53 1.391 . S
C56 C55 1.392 . S
N57 Co1 2.257 . S
N57 C54 1.391 . S
N57 C58 1.388 . S
C58 H29 0.930 . S
C58 C53 1.391 . S
C58 N57 1.388 . S
Co59 O61 2.143 . S
Co59 O67 2.074 . S
Co59 O70 2.093 . S
Co59 O83 2.097 . S
Co59 N100 2.151 . S
Co59 N108 2.214 . S
Co60 O61 2.160 . S
Co60 O66 2.058 . S
Co60 O76 2.057 . S
Co60 O91 2.037 . S
Co60 N95 2.145 . S
Co60 N116 2.257 . S
O61 Co59 2.143 . S
O61 Co60 2.160 . S
C62 O63 1.278 . S
C62 O70 1.224 . S
O63 C62 1.278 . S
C64 O65 1.245 . S
C64 O76 1.232 . S
O65 C64 1.245 . S
O66 Co60 2.058 . S
O66 C92 1.269 . S
O67 Co59 2.074 . S
O67 C92 1.257 . S
H68 C93 0.930 . S
H69 C99 0.930 . S
O70 Co59 2.093 . S
O70 C62 1.224 . S
H71 C103 0.929 . S
H72 C105 0.930 . S
H73 C106 0.930 . S
H74 C104 0.929 . S
H75 C107 0.928 . S
O76 Co60 2.057 . S
O76 C64 1.232 . S
H77 C96 0.929 . S
H78 C97 0.929 . S
H79 C109 0.931 . S
H80 C101 0.929 . S
H81 C110 0.930 . S
H82 C102 0.931 . S
O83 Co59 2.097 . S
O83 C111 1.214 . S
H84 C112 0.929 . S
H85 C113 0.929 . S
H86 C114 0.930 . S
H87 C115 0.929 . S
H88 C117 0.930 . S
H89 C94 0.930 . S
H90 C98 0.930 . S
O91 Co60 2.037 . S
O91 C111 1.234 . S
C92 O66 1.269 . S
C92 O67 1.257 . S
C93 H68 0.930 . S
C93 C96 1.388 . S
C93 C98 1.418 . S
C94 H89 0.930 . S
C94 C97 1.404 . S
C94 C98 1.353 . S
N95 Co60 2.145 . S
N95 C96 1.397 . S
N95 C97 1.334 . S
C96 H77 0.929 . S
C96 C93 1.388 . S
C96 N95 1.397 . S
C97 H78 0.929 . S
C97 C94 1.404 . S
C97 N95 1.334 . S
C98 H90 0.930 . S
C98 C93 1.418 . S
C98 C94 1.353 . S
C99 H69 0.930 . S
C99 N100 1.330 . S
C99 C101 1.446 . S
N100 Co59 2.151 . S
N100 C99 1.330 . S
N100 C104 1.418 . S
C101 H80 0.929 . S
C101 C99 1.446 . S
C101 C102 1.332 . S
C102 H82 0.931 . S
C102 C101 1.332 . S
C102 C103 1.267 . S
C103 H71 0.929 . S
C103 C102 1.267 . S
C103 C104 1.251 . S
C104 H74 0.929 . S
C104 N100 1.418 . S
C104 C103 1.251 . S
C105 H72 0.930 . S
C105 C107 1.406 . S
C105 C110 1.261 . S
C106 H73 0.930 . S
C106 N108 1.325 . S
C106 C109 1.357 . S
C107 H75 0.928 . S
C107 C105 1.406 . S
C107 N108 1.261 . S
N108 Co59 2.214 . S
N108 C106 1.325 . S
N108 C107 1.261 . S
C109 H79 0.931 . S
C109 C106 1.357 . S
C109 C110 1.312 . S
C110 H81 0.930 . S
C110 C105 1.261 . S
C110 C109 1.312 . S
C111 O83 1.214 . S
C111 O91 1.234 . S
C112 H84 0.929 . S
C112 C115 1.391 1_565 S
C112 C117 1.391 . S
C113 H85 0.929 . S
C113 C114 1.390 1_565 S
C113 N116 1.391 . S
C114 H86 0.930 . S
C114 C113 1.390 1_545 S
C114 C115 1.392 . S
C115 H87 0.929 . S
C115 C112 1.391 1_545 S
C115 C114 1.392 . S
N116 Co60 2.257 . S
N116 C113 1.391 . S
N116 C117 1.388 . S
C117 H88 0.930 . S
C117 C112 1.391 . S
C117 N116 1.388 . S
Co118 O120 2.143 1_545 S
Co118 O126 2.074 . S
Co118 O129 2.093 . S
Co118 O142 2.097 . S
Co118 N159 2.151 . S
Co118 N167 2.214 . S
Co119 O120 2.160 . S
Co119 O125 2.058 . S
Co119 O135 2.057 . S
Co119 O150 2.037 1_565 S
Co119 N154 2.145 . S
Co119 N175 2.257 . S
O120 Co118 2.143 1_565 S
O120 Co119 2.160 . S
C121 O122 1.278 1_545 S
C121 O129 1.224 . S
O122 C121 1.278 1_565 S
C123 O124 1.245 . S
C123 O135 1.232 . S
O124 C123 1.245 . S
O125 Co119 2.058 . S
O125 C151 1.269 1_565 S
O126 Co118 2.074 . S
O126 C151 1.257 . S
H127 C152 0.930 . S
H128 C158 0.930 1_565 S
O129 Co118 2.093 . S
O129 C121 1.224 . S
H130 C162 0.929 . S
H131 C164 0.930 . S
H132 C165 0.930 . S
H133 C163 0.929 . S
H134 C166 0.928 . S
O135 Co119 2.057 . S
O135 C123 1.232 . S
H136 C155 0.929 1_545 S
H137 C156 0.929 . S
H138 C168 0.931 . S
H139 C160 0.929 . S
H140 C169 0.930 . S
H141 C161 0.931 . S
O142 Co118 2.097 . S
O142 C170 1.214 . S
H143 C171 0.929 . S
H144 C172 0.929 . S
H145 C173 0.930 . S
H146 C174 0.929 . S
H147 C176 0.930 . S
H148 C153 0.930 . S
H149 C157 0.930 . S
O150 Co119 2.037 1_545 S
O150 C170 1.234 . S
C151 O125 1.269 1_545 S
C151 O126 1.257 . S
C152 H127 0.930 . S
C152 C155 1.388 . S
C152 C157 1.418 . S
C153 H148 0.930 . S
C153 C156 1.404 . S
C153 C157 1.353 . S
N154 Co119 2.145 . S
N154 C155 1.397 . S
N154 C156 1.334 . S
C155 H136 0.929 1_565 S
C155 C152 1.388 . S
C155 N154 1.397 . S
C156 H137 0.929 . S
C156 C153 1.404 . S
C156 N154 1.334 . S
C157 H149 0.930 . S
C157 C152 1.418 . S
C157 C153 1.353 . S
C158 H128 0.930 1_545 S
C158 N159 1.330 . S
C158 C160 1.446 1_545 S
N159 Co118 2.151 . S
N159 C158 1.330 . S
N159 C163 1.418 . S
C160 H139 0.929 . S
C160 C158 1.446 1_565 S
C160 C161 1.332 1_565 S
C161 H141 0.931 . S
C161 C160 1.332 1_545 S
C161 C162 1.267 . S
C162 H130 0.929 . S
C162 C161 1.267 . S
C162 C163 1.251 . S
C163 H133 0.929 . S
C163 N159 1.418 . S
C163 C162 1.251 . S
C164 H131 0.930 . S
C164 C166 1.406 . S
C164 C169 1.261 . S
C165 H132 0.930 . S
C165 N167 1.325 . S
C165 C168 1.357 . S
C166 H134 0.928 . S
C166 C164 1.406 . S
C166 N167 1.261 . S
N167 Co118 2.214 . S
N167 C165 1.325 . S
N167 C166 1.261 . S
C168 H138 0.931 . S
C168 C165 1.357 . S
C168 C169 1.312 . S
C169 H140 0.930 . S
C169 C164 1.261 . S
C169 C168 1.312 . S
C170 O142 1.214 . S
C170 O150 1.234 . S
C171 H143 0.929 . S
C171 C174 1.391 . S
C171 C176 1.391 . S
C172 H144 0.929 . S
C172 C173 1.390 . S
C172 N175 1.391 . S
C173 H145 0.930 . S
C173 C172 1.390 . S
C173 C174 1.392 . S
C174 H146 0.929 . S
C174 C171 1.391 . S
C174 C173 1.392 . S
N175 Co119 2.257 . S
N175 C172 1.391 . S
N175 C176 1.388 . S
C176 H147 0.930 . S
C176 C171 1.391 . S
C176 N175 1.388 . S
Co177 O179 2.143 . S
Co177 O185 2.074 . S
Co177 O188 2.093 . S
Co177 O201 2.097 . S
Co177 N218 2.151 . S
Co177 N226 2.214 . S
Co178 O179 2.160 . S
Co178 O184 2.058 . S
Co178 O194 2.057 . S
Co178 O209 2.037 . S
Co178 N213 2.145 . S
Co178 N234 2.257 . S
O179 Co177 2.143 . S
O179 Co178 2.160 . S
C180 O181 1.278 . S
C180 O188 1.224 . S
O181 C180 1.278 . S
C182 O183 1.245 . S
C182 O194 1.232 . S
O183 C182 1.245 . S
O184 Co178 2.058 . S
O184 C210 1.269 . S
O185 Co177 2.074 . S
O185 C210 1.257 . S
H186 C211 0.930 . S
H187 C217 0.930 . S
O188 Co177 2.093 . S
O188 C180 1.224 . S
H189 C221 0.929 . S
H190 C223 0.930 . S
H191 C224 0.930 1_455 S
H192 C222 0.929 . S
H193 C225 0.928 . S
O194 Co178 2.057 . S
O194 C182 1.232 . S
H195 C214 0.929 . S
H196 C215 0.929 . S
H197 C227 0.931 . S
H198 C219 0.929 . S
H199 C228 0.930 . S
H200 C220 0.931 . S
O201 Co177 2.097 . S
O201 C229 1.214 . S
H202 C230 0.929 . S
H203 C231 0.929 . S
H204 C232 0.930 . S
H205 C233 0.929 . S
H206 C235 0.930 . S
H207 C212 0.930 . S
H208 C216 0.930 . S
O209 Co178 2.037 . S
O209 C229 1.234 . S
C210 O184 1.269 . S
C210 O185 1.257 . S
C211 H186 0.930 . S
C211 C214 1.388 . S
C211 C216 1.418 . S
C212 H207 0.930 . S
C212 C215 1.404 . S
C212 C216 1.353 . S
N213 Co178 2.145 . S
N213 C214 1.397 . S
N213 C215 1.334 . S
C214 H195 0.929 . S
C214 C211 1.388 . S
C214 N213 1.397 . S
C215 H196 0.929 . S
C215 C212 1.404 . S
C215 N213 1.334 . S
C216 H208 0.930 . S
C216 C211 1.418 . S
C216 C212 1.353 . S
C217 H187 0.930 . S
C217 N218 1.330 . S
C217 C219 1.446 . S
N218 Co177 2.151 . S
N218 C217 1.330 . S
N218 C222 1.418 . S
C219 H198 0.929 . S
C219 C217 1.446 . S
C219 C220 1.332 . S
C220 H200 0.931 . S
C220 C219 1.332 . S
C220 C221 1.267 . S
C221 H189 0.929 . S
C221 C220 1.267 . S
C221 C222 1.251 . S
C222 H192 0.929 . S
C222 N218 1.418 . S
C222 C221 1.251 . S
C223 H190 0.930 . S
C223 C225 1.406 1_655 S
C223 C228 1.261 . S
C224 H191 0.930 1_655 S
C224 N226 1.325 1_655 S
C224 C227 1.357 . S
C225 H193 0.928 . S
C225 C223 1.406 1_455 S
C225 N226 1.261 . S
N226 Co177 2.214 . S
N226 C224 1.325 1_455 S
N226 C225 1.261 . S
C227 H197 0.931 . S
C227 C224 1.357 . S
C227 C228 1.312 . S
C228 H199 0.930 . S
C228 C223 1.261 . S
C228 C227 1.312 . S
C229 O201 1.214 . S
C229 O209 1.234 . S
C230 H202 0.929 . S
C230 C233 1.391 1_545 S
C230 C235 1.391 . S
C231 H203 0.929 . S
C231 C232 1.390 1_545 S
C231 N234 1.391 . S
C232 H204 0.930 . S
C232 C231 1.390 1_565 S
C232 C233 1.392 . S
C233 H205 0.929 . S
C233 C230 1.391 1_565 S
C233 C232 1.392 . S
N234 Co178 2.257 . S
N234 C231 1.391 . S
N234 C235 1.388 . S
C235 H206 0.930 . S
C235 C230 1.391 . S
C235 N234 1.388 . S
Co236 O238 2.143 1_645 S
Co236 O244 2.074 . S
Co236 O247 2.093 1_655 S
Co236 O260 2.097 1_655 S
Co236 N277 2.151 . S
Co236 N285 2.214 . S
Co237 O238 2.160 . S
Co237 O243 2.058 1_455 S
Co237 O253 2.057 . S
Co237 O268 2.037 1_565 S
Co237 N272 2.145 . S
Co237 N293 2.257 . S
O238 Co236 2.143 1_465 S
O238 Co237 2.160 . S
C239 O240 1.278 1_545 S
C239 O247 1.224 . S
O240 C239 1.278 1_565 S
C241 O242 1.245 . S
C241 O253 1.232 1_655 S
O242 C241 1.245 . S
O243 Co237 2.058 1_655 S
O243 C269 1.269 1_565 S
O244 Co236 2.074 . S
O244 C269 1.257 . S
H245 C270 0.930 . S
H246 C276 0.930 1_565 S
O247 Co236 2.093 1_455 S
O247 C239 1.224 . S
H248 C280 0.929 . S
H249 C282 0.930 . S
H250 C283 0.930 . S
H251 C281 0.929 . S
H252 C284 0.928 . S
O253 Co237 2.057 . S
O253 C241 1.232 1_455 S
H254 C273 0.929 1_545 S
H255 C274 0.929 . S
H256 C286 0.931 . S
H257 C278 0.929 . S
H258 C287 0.930 . S
H259 C279 0.931 . S
O260 Co236 2.097 1_455 S
O260 C288 1.214 . S
H261 C289 0.929 . S
H262 C290 0.929 . S
H263 C291 0.930 . S
H264 C292 0.929 . S
H265 C294 0.930 . S
H266 C271 0.930 . S
H267 C275 0.930 . S
O268 Co237 2.037 1_545 S
O268 C288 1.234 . S
C269 O243 1.269 1_545 S
C269 O244 1.257 . S
C270 H245 0.930 . S
C270 C273 1.388 . S
C270 C275 1.418 . S
C271 H266 0.930 . S
C271 C274 1.404 . S
C271 C275 1.353 . S
N272 Co237 2.145 . S
N272 C273 1.397 . S
N272 C274 1.334 . S
C273 H254 0.929 1_565 S
C273 C270 1.388 . S
C273 N272 1.397 . S
C274 H255 0.929 . S
C274 C271 1.404 . S
C274 N272 1.334 . S
C275 H267 0.930 . S
C275 C270 1.418 . S
C275 C271 1.353 . S
C276 H246 0.930 1_545 S
C276 N277 1.330 . S
C276 C278 1.446 1_545 S
N277 Co236 2.151 . S
N277 C276 1.330 . S
N277 C281 1.418 . S
C278 H257 0.929 . S
C278 C276 1.446 1_565 S
C278 C279 1.332 1_565 S
C279 H259 0.931 . S
C279 C278 1.332 1_545 S
C279 C280 1.267 . S
C280 H248 0.929 . S
C280 C279 1.267 . S
C280 C281 1.251 . S
C281 H251 0.929 . S
C281 N277 1.418 . S
C281 C280 1.251 . S
C282 H249 0.930 . S
C282 C284 1.406 . S
C282 C287 1.261 . S
C283 H250 0.930 . S
C283 N285 1.325 . S
C283 C286 1.357 . S
C284 H252 0.928 . S
C284 C282 1.406 . S
C284 N285 1.261 . S
N285 Co236 2.214 . S
N285 C283 1.325 . S
N285 C284 1.261 . S
C286 H256 0.931 . S
C286 C283 1.357 . S
C286 C287 1.312 . S
C287 H258 0.930 . S
C287 C282 1.261 . S
C287 C286 1.312 . S
C288 O260 1.214 . S
C288 O268 1.234 . S
C289 H261 0.929 . S
C289 C292 1.391 . S
C289 C294 1.391 . S
C290 H262 0.929 . S
C290 C291 1.390 . S
C290 N293 1.391 . S
C291 H263 0.930 . S
C291 C290 1.390 . S
C291 C292 1.392 . S
C292 H264 0.929 . S
C292 C289 1.391 . S
C292 C291 1.392 . S
N293 Co237 2.257 . S
N293 C290 1.391 . S
N293 C294 1.388 . S
C294 H265 0.930 . S
C294 C289 1.391 . S
C294 N293 1.388 . S
Co295 O297 2.143 . S
Co295 O303 2.074 . S
Co295 O306 2.093 . S
Co295 O319 2.097 . S
Co295 N336 2.151 . S
Co295 N344 2.214 . S
Co296 O297 2.160 . S
Co296 O302 2.058 . S
Co296 O312 2.057 . S
Co296 O327 2.037 . S
Co296 N331 2.145 . S
Co296 N352 2.257 . S
O297 Co295 2.143 . S
O297 Co296 2.160 . S
C298 O299 1.278 . S
C298 O306 1.224 . S
O299 C298 1.278 . S
C300 O301 1.245 . S
C300 O312 1.232 . S
O301 C300 1.245 . S
O302 Co296 2.058 . S
O302 C328 1.269 . S
O303 Co295 2.074 . S
O303 C328 1.257 . S
H304 C329 0.930 . S
H305 C335 0.930 . S
O306 Co295 2.093 . S
O306 C298 1.224 . S
H307 C339 0.929 . S
H308 C341 0.930 . S
H309 C342 0.930 1_455 S
H310 C340 0.929 . S
H311 C343 0.928 . S
O312 Co296 2.057 . S
O312 C300 1.232 . S
H313 C332 0.929 . S
H314 C333 0.929 . S
H315 C345 0.931 . S
H316 C337 0.929 . S
H317 C346 0.930 . S
H318 C338 0.931 . S
O319 Co295 2.097 . S
O319 C347 1.214 . S
H320 C348 0.929 . S
H321 C349 0.929 . S
H322 C350 0.930 . S
H323 C351 0.929 . S
H324 C353 0.930 . S
H325 C330 0.930 . S
H326 C334 0.930 . S
O327 Co296 2.037 . S
O327 C347 1.234 . S
C328 O302 1.269 . S
C328 O303 1.257 . S
C329 H304 0.930 . S
C329 C332 1.388 . S
C329 C334 1.418 . S
C330 H325 0.930 . S
C330 C333 1.404 . S
C330 C334 1.353 . S
N331 Co296 2.145 . S
N331 C332 1.397 . S
N331 C333 1.334 . S
C332 H313 0.929 . S
C332 C329 1.388 . S
C332 N331 1.397 . S
C333 H314 0.929 . S
C333 C330 1.404 . S
C333 N331 1.334 . S
C334 H326 0.930 . S
C334 C329 1.418 . S
C334 C330 1.353 . S
C335 H305 0.930 . S
C335 N336 1.330 . S
C335 C337 1.446 . S
N336 Co295 2.151 . S
N336 C335 1.330 . S
N336 C340 1.418 . S
C337 H316 0.929 . S
C337 C335 1.446 . S
C337 C338 1.332 . S
C338 H318 0.931 . S
C338 C337 1.332 . S
C338 C339 1.267 . S
C339 H307 0.929 . S
C339 C338 1.267 . S
C339 C340 1.251 . S
C340 H310 0.929 . S
C340 N336 1.418 . S
C340 C339 1.251 . S
C341 H308 0.930 . S
C341 C343 1.406 1_655 S
C341 C346 1.261 . S
C342 H309 0.930 1_655 S
C342 N344 1.325 1_655 S
C342 C345 1.357 . S
C343 H311 0.928 . S
C343 C341 1.406 1_455 S
C343 N344 1.261 . S
N344 Co295 2.214 . S
N344 C342 1.325 1_455 S
N344 C343 1.261 . S
C345 H315 0.931 . S
C345 C342 1.357 . S
C345 C346 1.312 . S
C346 H317 0.930 . S
C346 C341 1.261 . S
C346 C345 1.312 . S
C347 O319 1.214 . S
C347 O327 1.234 . S
C348 H320 0.929 . S
C348 C351 1.391 1_565 S
C348 C353 1.391 . S
C349 H321 0.929 . S
C349 C350 1.390 1_565 S
C349 N352 1.391 . S
C350 H322 0.930 . S
C350 C349 1.390 1_545 S
C350 C351 1.392 . S
C351 H323 0.929 . S
C351 C348 1.391 1_545 S
C351 C350 1.392 . S
N352 Co296 2.257 . S
N352 C349 1.391 . S
N352 C353 1.388 . S
C353 H324 0.930 . S
C353 C348 1.391 . S
C353 N352 1.388 . S
Co354 O356 2.143 1_565 S
Co354 O362 2.074 . S
Co354 O365 2.093 . S
Co354 O378 2.097 . S
Co354 N395 2.151 . S
Co354 N403 2.214 . S
Co355 O356 2.160 . S
Co355 O361 2.058 . S
Co355 O371 2.057 . S
Co355 O386 2.037 1_545 S
Co355 N390 2.145 . S
Co355 N411 2.257 . S
O356 Co354 2.143 1_545 S
O356 Co355 2.160 . S
C357 O358 1.278 1_565 S
C357 O365 1.224 . S
O358 C357 1.278 1_545 S
C359 O360 1.245 . S
C359 O371 1.232 . S
O360 C359 1.245 . S
O361 Co355 2.058 . S
O361 C387 1.269 1_545 S
O362 Co354 2.074 . S
O362 C387 1.257 . S
H363 C388 0.930 . S
H364 C394 0.930 1_545 S
O365 Co354 2.093 . S
O365 C357 1.224 . S
H366 C398 0.929 . S
H367 C400 0.930 . S
H368 C401 0.930 . S
H369 C399 0.929 . S
H370 C402 0.928 . S
O371 Co355 2.057 . S
O371 C359 1.232 . S
H372 C391 0.929 1_565 S
H373 C392 0.929 . S
H374 C404 0.931 . S
H375 C396 0.929 . S
H376 C405 0.930 . S
H377 C397 0.931 . S
O378 Co354 2.097 . S
O378 C406 1.214 . S
H379 C407 0.929 . S
H380 C408 0.929 . S
H381 C409 0.930 . S
H382 C410 0.929 . S
H383 C412 0.930 . S
H384 C389 0.930 . S
H385 C393 0.930 . S
O386 Co355 2.037 1_565 S
O386 C406 1.234 . S
C387 O361 1.269 1_565 S
C387 O362 1.257 . S
C388 H363 0.930 . S
C388 C391 1.388 . S
C388 C393 1.418 . S
C389 H384 0.930 . S
C389 C392 1.404 . S
C389 C393 1.353 . S
N390 Co355 2.145 . S
N390 C391 1.397 . S
N390 C392 1.334 . S
C391 H372 0.929 1_545 S
C391 C388 1.388 . S
C391 N390 1.397 . S
C392 H373 0.929 . S
C392 C389 1.404 . S
C392 N390 1.334 . S
C393 H385 0.930 . S
C393 C388 1.418 . S
C393 C389 1.353 . S
C394 H364 0.930 1_565 S
C394 N395 1.330 . S
C394 C396 1.446 1_565 S
N395 Co354 2.151 . S
N395 C394 1.330 . S
N395 C399 1.418 . S
C396 H375 0.929 . S
C396 C394 1.446 1_545 S
C396 C397 1.332 1_545 S
C397 H377 0.931 . S
C397 C396 1.332 1_565 S
C397 C398 1.267 . S
C398 H366 0.929 . S
C398 C397 1.267 . S
C398 C399 1.251 . S
C399 H369 0.929 . S
C399 N395 1.418 . S
C399 C398 1.251 . S
C400 H367 0.930 . S
C400 C402 1.406 . S
C400 C405 1.261 . S
C401 H368 0.930 . S
C401 N403 1.325 . S
C401 C404 1.357 . S
C402 H370 0.928 . S
C402 C400 1.406 . S
C402 N403 1.261 . S
N403 Co354 2.214 . S
N403 C401 1.325 . S
N403 C402 1.261 . S
C404 H374 0.931 . S
C404 C401 1.357 . S
C404 C405 1.312 . S
C405 H376 0.930 . S
C405 C400 1.261 . S
C405 C404 1.312 . S
C406 O378 1.214 . S
C406 O386 1.234 . S
C407 H379 0.929 . S
C407 C410 1.391 . S
C407 C412 1.391 . S
C408 H380 0.929 . S
C408 C409 1.390 . S
C408 N411 1.391 . S
C409 H381 0.930 . S
C409 C408 1.390 . S
C409 C410 1.392 . S
C410 H382 0.929 . S
C410 C407 1.391 . S
C410 C409 1.392 . S
N411 Co355 2.257 . S
N411 C408 1.391 . S
N411 C412 1.388 . S
C412 H383 0.930 . S
C412 C407 1.391 . S
C412 N411 1.388 . S
Co413 O415 2.143 . S
Co413 O421 2.074 . S
Co413 O424 2.093 . S
Co413 O437 2.097 . S
Co413 N454 2.151 . S
Co413 N462 2.214 . S
Co414 O415 2.160 . S
Co414 O420 2.058 . S
Co414 O430 2.057 . S
Co414 O445 2.037 . S
Co414 N449 2.145 . S
Co414 N470 2.257 . S
O415 Co413 2.143 . S
O415 Co414 2.160 . S
C416 O417 1.278 . S
C416 O424 1.224 . S
O417 C416 1.278 . S
C418 O419 1.245 . S
C418 O430 1.232 . S
O419 C418 1.245 . S
O420 Co414 2.058 . S
O420 C446 1.269 . S
O421 Co413 2.074 . S
O421 C446 1.257 . S
H422 C447 0.930 . S
H423 C453 0.930 . S
O424 Co413 2.093 . S
O424 C416 1.224 . S
H425 C457 0.929 . S
H426 C459 0.930 . S
H427 C460 0.930 . S
H428 C458 0.929 . S
H429 C461 0.928 . S
O430 Co414 2.057 . S
O430 C418 1.232 . S
H431 C450 0.929 . S
H432 C451 0.929 . S
H433 C463 0.931 . S
H434 C455 0.929 . S
H435 C464 0.930 . S
H436 C456 0.931 . S
O437 Co413 2.097 . S
O437 C465 1.214 . S
H438 C466 0.929 . S
H439 C467 0.929 . S
H440 C468 0.930 . S
H441 C469 0.929 . S
H442 C471 0.930 . S
H443 C448 0.930 . S
H444 C452 0.930 . S
O445 Co414 2.037 . S
O445 C465 1.234 . S
C446 O420 1.269 . S
C446 O421 1.257 . S
C447 H422 0.930 . S
C447 C450 1.388 . S
C447 C452 1.418 . S
C448 H443 0.930 . S
C448 C451 1.404 . S
C448 C452 1.353 . S
N449 Co414 2.145 . S
N449 C450 1.397 . S
N449 C451 1.334 . S
C450 H431 0.929 . S
C450 C447 1.388 . S
C450 N449 1.397 . S
C451 H432 0.929 . S
C451 C448 1.404 . S
C451 N449 1.334 . S
C452 H444 0.930 . S
C452 C447 1.418 . S
C452 C448 1.353 . S
C453 H423 0.930 . S
C453 N454 1.330 . S
C453 C455 1.446 . S
N454 Co413 2.151 . S
N454 C453 1.330 . S
N454 C458 1.418 . S
C455 H434 0.929 . S
C455 C453 1.446 . S
C455 C456 1.332 . S
C456 H436 0.931 . S
C456 C455 1.332 . S
C456 C457 1.267 . S
C457 H425 0.929 . S
C457 C456 1.267 . S
C457 C458 1.251 . S
C458 H428 0.929 . S
C458 N454 1.418 . S
C458 C457 1.251 . S
C459 H426 0.930 . S
C459 C461 1.406 . S
C459 C464 1.261 . S
C460 H427 0.930 . S
C460 N462 1.325 . S
C460 C463 1.357 . S
C461 H429 0.928 . S
C461 C459 1.406 . S
C461 N462 1.261 . S
N462 Co413 2.214 . S
N462 C460 1.325 . S
N462 C461 1.261 . S
C463 H433 0.931 . S
C463 C460 1.357 . S
C463 C464 1.312 . S
C464 H435 0.930 . S
C464 C459 1.261 . S
C464 C463 1.312 . S
C465 O437 1.214 . S
C465 O445 1.234 . S
C466 H438 0.929 . S
C466 C469 1.391 1_545 S
C466 C471 1.391 . S
C467 H439 0.929 . S
C467 C468 1.390 1_545 S
C467 N470 1.391 . S
C468 H440 0.930 . S
C468 C467 1.390 1_565 S
C468 C469 1.392 . S
C469 H441 0.929 . S
C469 C466 1.391 1_565 S
C469 C468 1.392 . S
N470 Co414 2.257 . S
N470 C467 1.391 . S
N470 C471 1.388 . S
C471 H442 0.930 . S
C471 C466 1.391 . S
C471 N470 1.388 . S
Co472 O474 2.143 . S
Co472 O480 2.074 . S
Co472 O483 2.093 . S
Co472 O496 2.097 . S
Co472 N513 2.151 . S
Co472 N521 2.214 . S
Co473 O474 2.160 . S
Co473 O479 2.058 . S
Co473 O489 2.057 . S
Co473 O504 2.037 . S
Co473 N508 2.145 . S
Co473 N529 2.257 . S
O474 Co472 2.143 . S
O474 Co473 2.160 . S
C475 O476 1.278 . S
C475 O483 1.224 . S
O476 C475 1.278 . S
C477 O478 1.245 . S
C477 O489 1.232 . S
O478 C477 1.245 . S
O479 Co473 2.058 . S
O479 C505 1.269 . S
O480 Co472 2.074 . S
O480 C505 1.257 . S
H481 C506 0.930 . S
H482 C512 0.930 . S
O483 Co472 2.093 . S
O483 C475 1.224 . S
H484 C516 0.929 . S
H485 C518 0.930 . S
H486 C519 0.930 . S
H487 C517 0.929 . S
H488 C520 0.928 . S
O489 Co473 2.057 . S
O489 C477 1.232 . S
H490 C509 0.929 . S
H491 C510 0.929 . S
H492 C522 0.931 . S
H493 C514 0.929 . S
H494 C523 0.930 . S
H495 C515 0.931 . S
O496 Co472 2.097 . S
O496 C524 1.214 . S
H497 C525 0.929 . S
H498 C526 0.929 . S
H499 C527 0.930 . S
H500 C528 0.929 . S
H501 C530 0.930 . S
H502 C507 0.924 1_455 S
H503 C511 0.930 . S
O504 Co473 2.037 . S
O504 C524 1.234 . S
C505 O479 1.269 . S
C505 O480 1.257 . S
C506 H481 0.930 . S
C506 C509 1.388 . S
C506 C511 1.418 . S
C507 H502 0.924 1_655 S
C507 C510 1.404 . S
C507 C511 1.353 . S
N508 Co473 2.145 . S
N508 C509 1.397 . S
N508 C510 1.334 . S
C509 H490 0.929 . S
C509 C506 1.388 . S
C509 N508 1.397 . S
C510 H491 0.929 . S
C510 C507 1.404 . S
C510 N508 1.334 . S
C511 H503 0.930 . S
C511 C506 1.418 . S
C511 C507 1.353 . S
C512 H482 0.930 . S
C512 N513 1.330 . S
C512 C514 1.446 . S
N513 Co472 2.151 . S
N513 C512 1.330 . S
N513 C517 1.418 . S
C514 H493 0.929 . S
C514 C512 1.446 . S
C514 C515 1.332 1_545 S
C515 H495 0.931 . S
C515 C514 1.332 1_565 S
C515 C516 1.267 . S
C516 H484 0.929 . S
C516 C515 1.267 . S
C516 C517 1.251 1_565 S
C517 H487 0.929 . S
C517 N513 1.418 . S
C517 C516 1.251 1_545 S
C518 H485 0.930 . S
C518 C520 1.406 . S
C518 C523 1.261 . S
C519 H486 0.930 . S
C519 N521 1.325 . S
C519 C522 1.357 . S
C520 H488 0.928 . S
C520 C518 1.406 . S
C520 N521 1.261 . S
N521 Co472 2.214 . S
N521 C519 1.325 . S
N521 C520 1.261 . S
C522 H492 0.931 . S
C522 C519 1.357 . S
C522 C523 1.312 . S
C523 H494 0.930 . S
C523 C518 1.261 . S
C523 C522 1.312 . S
C524 O496 1.214 . S
C524 O504 1.234 . S
C525 H497 0.929 . S
C525 C528 1.391 . S
C525 C530 1.391 . S
C526 H498 0.929 . S
C526 C527 1.390 . S
C526 N529 1.391 . S
C527 H499 0.930 . S
C527 C526 1.390 . S
C527 C528 1.392 . S
C528 H500 0.929 . S
C528 C525 1.391 . S
C528 C527 1.392 . S
N529 Co473 2.257 . S
N529 C526 1.391 . S
N529 C530 1.388 . S
C530 H501 0.930 . S
C530 C525 1.391 . S
C530 N529 1.388 . S
Co531 O533 2.143 . S
Co531 O539 2.074 . S
Co531 O542 2.093 . S
Co531 O555 2.097 . S
Co531 N572 2.151 . S
Co531 N580 2.214 . S
Co532 O533 2.160 . S
Co532 O538 2.058 . S
Co532 O548 2.057 . S
Co532 O563 2.037 . S
Co532 N567 2.145 . S
Co532 N588 2.257 . S
O533 Co531 2.143 . S
O533 Co532 2.160 . S
C534 O535 1.278 . S
C534 O542 1.224 . S
O535 C534 1.278 . S
C536 O537 1.245 . S
C536 O548 1.232 . S
O537 C536 1.245 . S
O538 Co532 2.058 . S
O538 C564 1.269 . S
O539 Co531 2.074 . S
O539 C564 1.257 . S
H540 C565 0.930 . S
H541 C571 0.930 . S
O542 Co531 2.093 . S
O542 C534 1.224 . S
H543 C575 0.929 . S
H544 C577 0.930 . S
H545 C578 0.930 . S
H546 C576 0.929 . S
H547 C579 0.928 1_655 S
O548 Co532 2.057 . S
O548 C536 1.232 . S
H549 C568 0.929 . S
H550 C569 0.929 . S
H551 C581 0.931 . S
H552 C573 0.929 . S
H553 C582 0.930 . S
H554 C574 0.931 . S
O555 Co531 2.097 . S
O555 C583 1.214 . S
H556 C584 0.929 . S
H557 C585 0.929 . S
H558 C586 0.930 . S
H559 C587 0.929 . S
H560 C589 0.930 . S
H561 C566 0.930 . S
H562 C570 0.930 . S
O563 Co532 2.037 . S
O563 C583 1.234 . S
C564 O538 1.269 . S
C564 O539 1.257 . S
C565 H540 0.930 . S
C565 C568 1.388 . S
C565 C570 1.418 . S
C566 H561 0.930 . S
C566 C569 1.404 . S
C566 C570 1.353 . S
N567 Co532 2.145 . S
N567 C568 1.397 . S
N567 C569 1.334 . S
C568 H549 0.929 . S
C568 C565 1.388 . S
C568 N567 1.397 . S
C569 H550 0.929 . S
C569 C566 1.404 . S
C569 N567 1.334 . S
C570 H562 0.930 . S
C570 C565 1.418 . S
C570 C566 1.353 . S
C571 H541 0.930 . S
C571 N572 1.330 . S
C571 C573 1.446 . S
N572 Co531 2.151 . S
N572 C571 1.330 . S
N572 C576 1.418 . S
C573 H552 0.929 . S
C573 C571 1.446 . S
C573 C574 1.332 1_565 S
C574 H554 0.931 . S
C574 C573 1.332 1_545 S
C574 C575 1.267 . S
C575 H543 0.929 . S
C575 C574 1.267 . S
C575 C576 1.251 1_545 S
C576 H546 0.929 . S
C576 N572 1.418 . S
C576 C575 1.251 1_565 S
C577 H544 0.930 . S
C577 C579 1.406 . S
C577 C582 1.261 . S
C578 H545 0.930 . S
C578 N580 1.325 1_455 S
C578 C581 1.357 . S
C579 H547 0.928 1_455 S
C579 C577 1.406 . S
C579 N580 1.261 1_455 S
N580 Co531 2.214 . S
N580 C578 1.325 1_655 S
N580 C579 1.261 1_655 S
C581 H551 0.931 . S
C581 C578 1.357 . S
C581 C582 1.312 . S
C582 H553 0.930 . S
C582 C577 1.261 . S
C582 C581 1.312 . S
C583 O555 1.214 . S
C583 O563 1.234 . S
C584 H556 0.929 . S
C584 C587 1.391 . S
C584 C589 1.391 . S
C585 H557 0.929 . S
C585 C586 1.390 . S
C585 N588 1.391 . S
C586 H558 0.930 . S
C586 C585 1.390 . S
C586 C587 1.392 . S
C587 H559 0.929 . S
C587 C584 1.391 . S
C587 C586 1.392 . S
N588 Co532 2.257 . S
N588 C585 1.391 . S
N588 C589 1.388 . S
C589 H560 0.930 . S
C589 C584 1.391 . S
C589 N588 1.388 . S
Co590 O592 2.143 . S
Co590 O598 2.074 . S
Co590 O601 2.093 . S
Co590 O614 2.097 . S
Co590 N631 2.151 . S
Co590 N639 2.214 . S
Co591 O592 2.160 . S
Co591 O597 2.058 . S
Co591 O607 2.057 . S
Co591 O622 2.037 . S
Co591 N626 2.145 . S
Co591 N647 2.257 . S
O592 Co590 2.143 . S
O592 Co591 2.160 . S
C593 O594 1.278 . S
C593 O601 1.224 . S
O594 C593 1.278 . S
C595 O596 1.245 . S
C595 O607 1.232 . S
O596 C595 1.245 . S
O597 Co591 2.058 . S
O597 C623 1.269 . S
O598 Co590 2.074 . S
O598 C623 1.257 . S
H599 C624 0.930 . S
H600 C630 0.930 . S
O601 Co590 2.093 . S
O601 C593 1.224 . S
H602 C634 0.929 . S
H603 C636 0.930 . S
H604 C637 0.930 . S
H605 C635 0.929 . S
H606 C638 0.928 1_655 S
O607 Co591 2.057 . S
O607 C595 1.232 . S
H608 C627 0.929 . S
H609 C628 0.929 . S
H610 C640 0.931 . S
H611 C632 0.929 . S
H612 C641 0.930 . S
H613 C633 0.931 . S
O614 Co590 2.097 . S
O614 C642 1.214 . S
H615 C643 0.929 . S
H616 C644 0.929 . S
H617 C645 0.930 . S
H618 C646 0.929 . S
H619 C648 0.930 . S
H620 C625 0.930 . S
H621 C629 0.930 . S
O622 Co591 2.037 . S
O622 C642 1.234 . S
C623 O597 1.269 . S
C623 O598 1.257 . S
C624 H599 0.930 . S
C624 C627 1.388 . S
C624 C629 1.418 . S
C625 H620 0.930 . S
C625 C628 1.404 . S
C625 C629 1.353 . S
N626 Co591 2.145 . S
N626 C627 1.397 . S
N626 C628 1.334 . S
C627 H608 0.929 . S
C627 C624 1.388 . S
C627 N626 1.397 . S
C628 H609 0.929 . S
C628 C625 1.404 . S
C628 N626 1.334 . S
C629 H621 0.930 . S
C629 C624 1.418 . S
C629 C625 1.353 . S
C630 H600 0.930 . S
C630 N631 1.330 . S
C630 C632 1.446 . S
N631 Co590 2.151 . S
N631 C630 1.330 . S
N631 C635 1.418 . S
C632 H611 0.929 . S
C632 C630 1.446 . S
C632 C633 1.332 1_545 S
C633 H613 0.931 . S
C633 C632 1.332 1_565 S
C633 C634 1.267 . S
C634 H602 0.929 . S
C634 C633 1.267 . S
C634 C635 1.251 1_565 S
C635 H605 0.929 . S
C635 N631 1.418 . S
C635 C634 1.251 1_545 S
C636 H603 0.930 . S
C636 C638 1.406 . S
C636 C641 1.261 . S
C637 H604 0.930 . S
C637 N639 1.325 1_455 S
C637 C640 1.357 . S
C638 H606 0.928 1_455 S
C638 C636 1.406 . S
C638 N639 1.261 1_455 S
N639 Co590 2.214 . S
N639 C637 1.325 1_655 S
N639 C638 1.261 1_655 S
C640 H610 0.931 . S
C640 C637 1.357 . S
C640 C641 1.312 . S
C641 H612 0.930 . S
C641 C636 1.261 . S
C641 C640 1.312 . S
C642 O614 1.214 . S
C642 O622 1.234 . S
C643 H615 0.929 . S
C643 C646 1.391 . S
C643 C648 1.391 . S
C644 H616 0.929 . S
C644 C645 1.390 . S
C644 N647 1.391 . S
C645 H617 0.930 . S
C645 C644 1.390 . S
C645 C646 1.392 . S
C646 H618 0.929 . S
C646 C643 1.391 . S
C646 C645 1.392 . S
N647 Co591 2.257 . S
N647 C644 1.391 . S
N647 C648 1.388 . S
C648 H619 0.930 . S
C648 C643 1.391 . S
C648 N647 1.388 . S
Co649 O651 2.143 . S
Co649 O657 2.074 . S
Co649 O660 2.093 . S
Co649 O673 2.097 . S
Co649 N690 2.151 . S
Co649 N698 2.214 . S
Co650 O651 2.160 . S
Co650 O656 2.058 . S
Co650 O666 2.057 . S
Co650 O681 2.037 . S
Co650 N685 2.145 . S
Co650 N706 2.257 . S
O651 Co649 2.143 . S
O651 Co650 2.160 . S
C652 O653 1.278 . S
C652 O660 1.224 . S
O653 C652 1.278 . S
C654 O655 1.245 . S
C654 O666 1.232 . S
O655 C654 1.245 . S
O656 Co650 2.058 . S
O656 C682 1.269 . S
O657 Co649 2.074 . S
O657 C682 1.257 . S
H658 C683 0.930 . S
H659 C689 0.930 . S
O660 Co649 2.093 . S
O660 C652 1.224 . S
H661 C693 0.929 . S
H662 C695 0.930 . S
H663 C696 0.930 . S
H664 C694 0.929 . S
H665 C697 0.928 . S
O666 Co650 2.057 . S
O666 C654 1.232 . S
H667 C686 0.929 . S
H668 C687 0.929 . S
H669 C699 0.931 . S
H670 C691 0.929 . S
H671 C700 0.930 . S
H672 C692 0.931 . S
O673 Co649 2.097 . S
O673 C701 1.214 . S
H674 C702 0.929 . S
H675 C703 0.929 . S
H676 C704 0.930 . S
H677 C705 0.929 . S
H678 C707 0.930 . S
H679 C684 0.924 1_455 S
H680 C688 0.930 . S
O681 Co650 2.037 . S
O681 C701 1.234 . S
C682 O656 1.269 . S
C682 O657 1.257 . S
C683 H658 0.930 . S
C683 C686 1.388 . S
C683 C688 1.418 . S
C684 H679 0.924 1_655 S
C684 C687 1.404 . S
C684 C688 1.353 . S
N685 Co650 2.145 . S
N685 C686 1.397 . S
N685 C687 1.334 . S
C686 H667 0.929 . S
C686 C683 1.388 . S
C686 N685 1.397 . S
C687 H668 0.929 . S
C687 C684 1.404 . S
C687 N685 1.334 . S
C688 H680 0.930 . S
C688 C683 1.418 . S
C688 C684 1.353 . S
C689 H659 0.930 . S
C689 N690 1.330 . S
C689 C691 1.446 . S
N690 Co649 2.151 . S
N690 C689 1.330 . S
N690 C694 1.418 . S
C691 H670 0.929 . S
C691 C689 1.446 . S
C691 C692 1.332 1_565 S
C692 H672 0.931 . S
C692 C691 1.332 1_545 S
C692 C693 1.267 . S
C693 H661 0.929 . S
C693 C692 1.267 . S
C693 C694 1.251 1_545 S
C694 H664 0.929 . S
C694 N690 1.418 . S
C694 C693 1.251 1_565 S
C695 H662 0.930 . S
C695 C697 1.406 . S
C695 C700 1.261 . S
C696 H663 0.930 . S
C696 N698 1.325 . S
C696 C699 1.357 . S
C697 H665 0.928 . S
C697 C695 1.406 . S
C697 N698 1.261 . S
N698 Co649 2.214 . S
N698 C696 1.325 . S
N698 C697 1.261 . S
C699 H669 0.931 . S
C699 C696 1.357 . S
C699 C700 1.312 . S
C700 H671 0.930 . S
C700 C695 1.261 . S
C700 C699 1.312 . S
C701 O673 1.214 . S
C701 O681 1.234 . S
C702 H674 0.929 . S
C702 C705 1.391 . S
C702 C707 1.391 . S
C703 H675 0.929 . S
C703 C704 1.390 . S
C703 N706 1.391 . S
C704 H676 0.930 . S
C704 C703 1.390 . S
C704 C705 1.392 . S
C705 H677 0.929 . S
C705 C702 1.391 . S
C705 C704 1.392 . S
N706 Co650 2.257 . S
N706 C703 1.391 . S
N706 C707 1.388 . S
C707 H678 0.930 . S
C707 C702 1.391 . S
C707 N706 1.388 . S
Co708 O710 2.143 . S
Co708 O716 2.074 . S
Co708 O719 2.093 . S
Co708 O732 2.097 . S
Co708 N749 2.151 . S
Co708 N757 2.214 . S
Co709 O710 2.160 . S
Co709 O715 2.058 . S
Co709 O725 2.057 . S
Co709 O740 2.037 . S
Co709 N744 2.145 . S
Co709 N765 2.257 . S
O710 Co708 2.143 . S
O710 Co709 2.160 . S
C711 O712 1.278 . S
C711 O719 1.224 . S
O712 C711 1.278 . S
C713 O714 1.245 . S
C713 O725 1.232 . S
O714 C713 1.245 . S
O715 Co709 2.058 . S
O715 C741 1.269 . S
O716 Co708 2.074 . S
O716 C741 1.257 . S
H717 C742 0.930 . S
H718 C748 0.930 . S
O719 Co708 2.093 . S
O719 C711 1.224 . S
H720 C752 0.929 . S
H721 C754 0.930 . S
H722 C755 0.930 . S
H723 C753 0.929 . S
H724 C756 0.928 . S
O725 Co709 2.057 . S
O725 C713 1.232 . S
H726 C745 0.929 . S
H727 C746 0.929 . S
H728 C758 0.931 . S
H729 C750 0.929 . S
H730 C759 0.930 . S
H731 C751 0.931 . S
O732 Co708 2.097 . S
O732 C760 1.214 . S
H733 C761 0.929 . S
H734 C762 0.929 . S
H735 C763 0.930 . S
H736 C764 0.929 . S
H737 C766 0.930 . S
H738 C743 0.930 . S
H739 C747 0.930 . S
O740 Co709 2.037 . S
O740 C760 1.234 . S
C741 O715 1.269 . S
C741 O716 1.257 . S
C742 H717 0.930 . S
C742 C745 1.388 . S
C742 C747 1.418 . S
C743 H738 0.930 . S
C743 C746 1.404 . S
C743 C747 1.353 . S
N744 Co709 2.145 . S
N744 C745 1.397 . S
N744 C746 1.334 . S
C745 H726 0.929 . S
C745 C742 1.388 . S
C745 N744 1.397 . S
C746 H727 0.929 . S
C746 C743 1.404 . S
C746 N744 1.334 . S
C747 H739 0.930 . S
C747 C742 1.418 . S
C747 C743 1.353 . S
C748 H718 0.930 . S
C748 N749 1.330 . S
C748 C750 1.446 . S
N749 Co708 2.151 . S
N749 C748 1.330 . S
N749 C753 1.418 . S
C750 H729 0.929 . S
C750 C748 1.446 . S
C750 C751 1.332 . S
C751 H731 0.931 . S
C751 C750 1.332 . S
C751 C752 1.267 . S
C752 H720 0.929 . S
C752 C751 1.267 . S
C752 C753 1.251 . S
C753 H723 0.929 . S
C753 N749 1.418 . S
C753 C752 1.251 . S
C754 H721 0.930 . S
C754 C756 1.406 . S
C754 C759 1.261 . S
C755 H722 0.930 . S
C755 N757 1.325 . S
C755 C758 1.357 . S
C756 H724 0.928 . S
C756 C754 1.406 . S
C756 N757 1.261 . S
N757 Co708 2.214 . S
N757 C755 1.325 . S
N757 C756 1.261 . S
C758 H728 0.931 . S
C758 C755 1.357 . S
C758 C759 1.312 . S
C759 H730 0.930 . S
C759 C754 1.261 . S
C759 C758 1.312 . S
C760 O732 1.214 . S
C760 O740 1.234 . S
C761 H733 0.929 . S
C761 C764 1.391 . S
C761 C766 1.391 . S
C762 H734 0.929 . S
C762 C763 1.390 . S
C762 N765 1.391 . S
C763 H735 0.930 . S
C763 C762 1.390 . S
C763 C764 1.392 . S
C764 H736 0.929 . S
C764 C761 1.391 . S
C764 C763 1.392 . S
N765 Co709 2.257 . S
N765 C762 1.391 . S
N765 C766 1.388 . S
C766 H737 0.930 . S
C766 C761 1.391 . S
C766 N765 1.388 . S
Co767 O769 2.143 . S
Co767 O775 2.074 . S
Co767 O778 2.093 1_455 S
Co767 O791 2.097 1_455 S
Co767 N808 2.151 . S
Co767 N816 2.214 . S
Co768 O769 2.160 1_655 S
Co768 O774 2.058 1_655 S
Co768 O784 2.057 1_655 S
Co768 O799 2.037 . S
Co768 N803 2.145 . S
Co768 N824 2.257 . S
O769 Co767 2.143 . S
O769 Co768 2.160 1_455 S
C770 O771 1.278 . S
C770 O778 1.224 . S
O771 C770 1.278 . S
C772 O773 1.245 . S
C772 O784 1.232 . S
O773 C772 1.245 . S
O774 Co768 2.058 1_455 S
O774 C800 1.269 . S
O775 Co767 2.074 . S
O775 C800 1.257 . S
H776 C801 0.930 . S
H777 C807 0.930 . S
O778 Co767 2.093 1_655 S
O778 C770 1.224 . S
H779 C811 0.929 . S
H780 C813 0.930 . S
H781 C814 0.930 . S
H782 C812 0.929 . S
H783 C815 0.928 . S
O784 Co768 2.057 1_455 S
O784 C772 1.232 . S
H785 C804 0.929 . S
H786 C805 0.929 . S
H787 C817 0.931 . S
H788 C809 0.929 . S
H789 C818 0.930 . S
H790 C810 0.931 . S
O791 Co767 2.097 1_655 S
O791 C819 1.214 . S
H792 C820 0.929 . S
H793 C821 0.929 . S
H794 C822 0.930 . S
H795 C823 0.929 . S
H796 C825 0.930 . S
H797 C802 0.930 . S
H798 C806 0.930 . S
O799 Co768 2.037 . S
O799 C819 1.234 . S
C800 O774 1.269 . S
C800 O775 1.257 . S
C801 H776 0.930 . S
C801 C804 1.388 . S
C801 C806 1.418 . S
C802 H797 0.930 . S
C802 C805 1.404 . S
C802 C806 1.353 . S
N803 Co768 2.145 . S
N803 C804 1.397 . S
N803 C805 1.334 . S
C804 H785 0.929 . S
C804 C801 1.388 . S
C804 N803 1.397 . S
C805 H786 0.929 . S
C805 C802 1.404 . S
C805 N803 1.334 . S
C806 H798 0.930 . S
C806 C801 1.418 . S
C806 C802 1.353 . S
C807 H777 0.930 . S
C807 N808 1.330 . S
C807 C809 1.446 . S
N808 Co767 2.151 . S
N808 C807 1.330 . S
N808 C812 1.418 . S
C809 H788 0.929 . S
C809 C807 1.446 . S
C809 C810 1.332 . S
C810 H790 0.931 . S
C810 C809 1.332 . S
C810 C811 1.267 . S
C811 H779 0.929 . S
C811 C810 1.267 . S
C811 C812 1.251 . S
C812 H782 0.929 . S
C812 N808 1.418 . S
C812 C811 1.251 . S
C813 H780 0.930 . S
C813 C815 1.406 . S
C813 C818 1.261 . S
C814 H781 0.930 . S
C814 N816 1.325 . S
C814 C817 1.357 . S
C815 H783 0.928 . S
C815 C813 1.406 . S
C815 N816 1.261 . S
N816 Co767 2.214 . S
N816 C814 1.325 . S
N816 C815 1.261 . S
C817 H787 0.931 . S
C817 C814 1.357 . S
C817 C818 1.312 . S
C818 H789 0.930 . S
C818 C813 1.261 . S
C818 C817 1.312 . S
C819 O791 1.214 . S
C819 O799 1.234 . S
C820 H792 0.929 . S
C820 C823 1.391 . S
C820 C825 1.391 . S
C821 H793 0.929 . S
C821 C822 1.390 . S
C821 N824 1.391 . S
C822 H794 0.930 . S
C822 C821 1.390 . S
C822 C823 1.392 . S
C823 H795 0.929 . S
C823 C820 1.391 . S
C823 C822 1.392 . S
N824 Co768 2.257 . S
N824 C821 1.391 . S
N824 C825 1.388 . S
C825 H796 0.930 . S
C825 C820 1.391 . S
C825 N824 1.388 . S
Co826 O828 2.143 . S
Co826 O834 2.074 . S
Co826 O837 2.093 . S
Co826 O850 2.097 . S
Co826 N867 2.151 . S
Co826 N875 2.214 . S
Co827 O828 2.160 . S
Co827 O833 2.058 . S
Co827 O843 2.057 . S
Co827 O858 2.037 . S
Co827 N862 2.145 . S
Co827 N883 2.257 . S
O828 Co826 2.143 . S
O828 Co827 2.160 . S
C829 O830 1.278 . S
C829 O837 1.224 . S
O830 C829 1.278 . S
C831 O832 1.245 . S
C831 O843 1.232 . S
O832 C831 1.245 . S
O833 Co827 2.058 . S
O833 C859 1.269 . S
O834 Co826 2.074 . S
O834 C859 1.257 . S
H835 C860 0.930 . S
H836 C866 0.930 . S
O837 Co826 2.093 . S
O837 C829 1.224 . S
H838 C870 0.929 . S
H839 C872 0.930 . S
H840 C873 0.930 . S
H841 C871 0.929 . S
H842 C874 0.928 . S
O843 Co827 2.057 . S
O843 C831 1.232 . S
H844 C863 0.929 . S
H845 C864 0.929 . S
H846 C876 0.931 . S
H847 C868 0.929 . S
H848 C877 0.930 . S
H849 C869 0.931 . S
O850 Co826 2.097 . S
O850 C878 1.214 . S
H851 C879 0.929 . S
H852 C880 0.929 . S
H853 C881 0.930 . S
H854 C882 0.929 . S
H855 C884 0.930 . S
H856 C861 0.930 . S
H857 C865 0.930 . S
O858 Co827 2.037 . S
O858 C878 1.234 . S
C859 O833 1.269 . S
C859 O834 1.257 . S
C860 H835 0.930 . S
C860 C863 1.388 . S
C860 C865 1.418 . S
C861 H856 0.930 . S
C861 C864 1.404 . S
C861 C865 1.353 . S
N862 Co827 2.145 . S
N862 C863 1.397 . S
N862 C864 1.334 . S
C863 H844 0.929 . S
C863 C860 1.388 . S
C863 N862 1.397 . S
C864 H845 0.929 . S
C864 C861 1.404 . S
C864 N862 1.334 . S
C865 H857 0.930 . S
C865 C860 1.418 . S
C865 C861 1.353 . S
C866 H836 0.930 . S
C866 N867 1.330 . S
C866 C868 1.446 . S
N867 Co826 2.151 . S
N867 C866 1.330 . S
N867 C871 1.418 . S
C868 H847 0.929 . S
C868 C866 1.446 . S
C868 C869 1.332 . S
C869 H849 0.931 . S
C869 C868 1.332 . S
C869 C870 1.267 . S
C870 H838 0.929 . S
C870 C869 1.267 . S
C870 C871 1.251 . S
C871 H841 0.929 . S
C871 N867 1.418 . S
C871 C870 1.251 . S
C872 H839 0.930 . S
C872 C874 1.406 . S
C872 C877 1.261 . S
C873 H840 0.930 . S
C873 N875 1.325 . S
C873 C876 1.357 . S
C874 H842 0.928 . S
C874 C872 1.406 . S
C874 N875 1.261 . S
N875 Co826 2.214 . S
N875 C873 1.325 . S
N875 C874 1.261 . S
C876 H846 0.931 . S
C876 C873 1.357 . S
C876 C877 1.312 . S
C877 H848 0.930 . S
C877 C872 1.261 . S
C877 C876 1.312 . S
C878 O850 1.214 . S
C878 O858 1.234 . S
C879 H851 0.929 . S
C879 C882 1.391 . S
C879 C884 1.391 . S
C880 H852 0.929 . S
C880 C881 1.390 . S
C880 N883 1.391 . S
C881 H853 0.930 . S
C881 C880 1.390 . S
C881 C882 1.392 . S
C882 H854 0.929 . S
C882 C879 1.391 . S
C882 C881 1.392 . S
N883 Co827 2.257 . S
N883 C880 1.391 . S
N883 C884 1.388 . S
C884 H855 0.930 . S
C884 C879 1.391 . S
C884 N883 1.388 . S
Co885 O887 2.143 . S
Co885 O893 2.074 . S
Co885 O896 2.093 1_455 S
Co885 O909 2.097 1_455 S
Co885 N926 2.151 . S
Co885 N934 2.214 . S
Co886 O887 2.160 1_655 S
Co886 O892 2.058 1_655 S
Co886 O902 2.057 1_655 S
Co886 O917 2.037 . S
Co886 N921 2.145 . S
Co886 N942 2.257 . S
O887 Co885 2.143 . S
O887 Co886 2.160 1_455 S
C888 O889 1.278 . S
C888 O896 1.224 . S
O889 C888 1.278 . S
C890 O891 1.245 . S
C890 O902 1.232 . S
O891 C890 1.245 . S
O892 Co886 2.058 1_455 S
O892 C918 1.269 . S
O893 Co885 2.074 . S
O893 C918 1.257 . S
H894 C919 0.930 . S
H895 C925 0.930 . S
O896 Co885 2.093 1_655 S
O896 C888 1.224 . S
H897 C929 0.929 . S
H898 C931 0.930 . S
H899 C932 0.930 . S
H900 C930 0.929 . S
H901 C933 0.928 . S
O902 Co886 2.057 1_455 S
O902 C890 1.232 . S
H903 C922 0.929 . S
H904 C923 0.929 . S
H905 C935 0.931 . S
H906 C927 0.929 . S
H907 C936 0.930 . S
H908 C928 0.931 . S
O909 Co885 2.097 1_655 S
O909 C937 1.214 . S
H910 C938 0.929 . S
H911 C939 0.929 . S
H912 C940 0.930 . S
H913 C941 0.929 . S
H914 C943 0.930 . S
H915 C920 0.930 . S
H916 C924 0.930 . S
O917 Co886 2.037 . S
O917 C937 1.234 . S
C918 O892 1.269 . S
C918 O893 1.257 . S
C919 H894 0.930 . S
C919 C922 1.388 . S
C919 C924 1.418 . S
C920 H915 0.930 . S
C920 C923 1.404 . S
C920 C924 1.353 . S
N921 Co886 2.145 . S
N921 C922 1.397 . S
N921 C923 1.334 . S
C922 H903 0.929 . S
C922 C919 1.388 . S
C922 N921 1.397 . S
C923 H904 0.929 . S
C923 C920 1.404 . S
C923 N921 1.334 . S
C924 H916 0.930 . S
C924 C919 1.418 . S
C924 C920 1.353 . S
C925 H895 0.930 . S
C925 N926 1.330 . S
C925 C927 1.446 . S
N926 Co885 2.151 . S
N926 C925 1.330 . S
N926 C930 1.418 . S
C927 H906 0.929 . S
C927 C925 1.446 . S
C927 C928 1.332 . S
C928 H908 0.931 . S
C928 C927 1.332 . S
C928 C929 1.267 . S
C929 H897 0.929 . S
C929 C928 1.267 . S
C929 C930 1.251 . S
C930 H900 0.929 . S
C930 N926 1.418 . S
C930 C929 1.251 . S
C931 H898 0.930 . S
C931 C933 1.406 . S
C931 C936 1.261 . S
C932 H899 0.930 . S
C932 N934 1.325 . S
C932 C935 1.357 . S
C933 H901 0.928 . S
C933 C931 1.406 . S
C933 N934 1.261 . S
N934 Co885 2.214 . S
N934 C932 1.325 . S
N934 C933 1.261 . S
C935 H905 0.931 . S
C935 C932 1.357 . S
C935 C936 1.312 . S
C936 H907 0.930 . S
C936 C931 1.261 . S
C936 C935 1.312 . S
C937 O909 1.214 . S
C937 O917 1.234 . S
C938 H910 0.929 . S
C938 C941 1.391 . S
C938 C943 1.391 . S
C939 H911 0.929 . S
C939 C940 1.390 . S
C939 N942 1.391 . S
C940 H912 0.930 . S
C940 C939 1.390 . S
C940 C941 1.392 . S
C941 H913 0.929 . S
C941 C938 1.391 . S
C941 C940 1.392 . S
N942 Co886 2.257 . S
N942 C939 1.391 . S
N942 C943 1.388 . S
C943 H914 0.930 . S
C943 C938 1.391 . S
C943 N942 1.388 . S
C5 C772 1.991 1_655 S
C654 C64 1.991 1_655 S
C713 C123 1.991 . S
C595 C182 1.991 . S
C241 C890 1.991 1_655 S
C300 C536 1.991 . S
C831 C359 1.991 . S
C418 C477 1.991 1_455 S
C239 C3 1.751 1_545 S
C62 C298 1.750 . S
C121 C357 1.751 1_544 S
C416 C180 1.750 . S
C475 C593 1.751 . S
C534 C652 1.751 . S
C829 C711 1.751 1_556 S
C770 C888 1.750 . S
C347 C52 1.709 . S
C111 C406 1.709 . S
C170 C465 1.709 . S
C288 C229 1.709 . S
C269 C623 2.402 . S
C151 C505 2.401 . S
C682 C387 2.401 . S
C564 C33 2.402 . S
C524 C760 1.709 . S
C642 C937 1.708 . S
C819 C583 1.708 . S
C701 C878 1.709 . S
C859 C92 2.401 . S
C800 C328 2.402 . S
C918 C210 2.402 . S
C741 C446 2.401 . S
