# Generated by pormake.
# Topology kag, (6)-cn, num edge types: 1
# Building blocks:
#     Node 0, Type 0, BuildingBlock: KUMBOL_clean_sbu_0, # of connection points: 6
#     Node 1, Type 0, BuildingBlock: KUMBOL_clean_sbu_0, # of connection points: 6
#     Node 2, Type 0, BuildingBlock: KUMBOL_clean_sbu_0, # of connection points: 6
#     Edge 3, Type (0, 0), BuildingBlock: CIFDUS_clean_linker_0, # of connection points: 2
#     Edge 4, Type (0, 0), BuildingBlock: CIFDUS_clean_linker_0, # of connection points: 2
#     Edge 5, Type (0, 0), BuildingBlock: CIFDUS_clean_linker_0, # of connection points: 2
#     Edge 6, Type (0, 0), BuildingBlock: CIFDUS_clean_linker_0, # of connection points: 2
#     Edge 7, Type (0, 0), BuildingBlock: CIFDUS_clean_linker_0, # of connection points: 2
#     Edge 8, Type (0, 0), BuildingBlock: CIFDUS_clean_linker_0, # of connection points: 2
#     Edge 9, Type (0, 0), BuildingBlock: CIFDUS_clean_linker_0, # of connection points: 2
#     Edge 10, Type (0, 0), BuildingBlock: CIFDUS_clean_linker_0, # of connection points: 2
#     Edge 11, Type (0, 0), BuildingBlock: CIFDUS_clean_linker_0, # of connection points: 2
# Relax obj value: 0.083
# Max RMSD: 0.202
# Mean RMSD: 0.149
data_MOF--net-kag--node1-KUMBOL_clean_sbu_0--edge1-CIFDUS_clean_linker_0
_symmetry_space_group_name_H-M    P1
_symmetry_Int_Tables_number       1
_symmetry_cell_setting            triclinic
loop_
_symmetry_equiv_pos_as_xyz
'x, y, z'
_cell_length_a     35.727732
_cell_length_b     25.63664
_cell_length_c     13.357603
_cell_angle_alpha  95.32532
_cell_angle_beta   113.8478
_cell_angle_gamma 93.164909
loop_
_atom_site_label
_atom_site_type_symbol
_atom_site_fract_x
_atom_site_fract_y
_atom_site_fract_z
_atom_type_partial_charge
Gd0 Gd 0.02079 0.63486 -0.00412 0.0
Gd1 Gd 1.00778 0.49093 0.97632 0.0
C2 C 0.11369 0.39941 0.97681 0.0
C3 C 0.08221 0.34455 0.79939 0.0
C4 C 0.04219 0.40441 0.85719 0.0
C5 C 0.07616 0.42118 0.95463 0.0
C6 C 0.04447 0.3648 0.77989 0.0
C7 C 0.11679 0.36194 0.89755 0.0
C8 C 0.14666 0.41501 0.07906 0.0
C9 C 0.14121 0.4499 0.15764 0.0
N10 N 0.07204 0.45718 0.02971 0.0
C11 C 0.10327 0.47005 0.13212 0.0
H12 H 0.09953 0.49716 0.19338 0.0
C13 C 0.9705 0.40382 0.75456 0.0
N14 N 1.00624 0.42476 0.84084 0.0
C15 C 0.97117 0.36455 0.67544 0.0
C16 C 1.00846 0.34558 0.68714 0.0
H17 H 0.94169 0.41862 0.74542 0.0
H18 H 0.14548 0.34516 0.91263 0.0
H19 H 0.93339 0.63316 0.76621 0.0
H20 H 0.17605 0.3994 0.09911 0.0
H21 H 0.16625 0.46139 0.23779 0.0
H22 H 0.08472 0.31452 0.74039 0.0
H23 H 0.08176 0.70787 0.23322 0.0
H24 H 0.84892 0.71785 0.85386 0.0
H25 H 0.86509 0.66538 0.71412 0.0
H26 H 0.93052 0.79337 0.22721 0.0
H27 H 0.94299 0.34902 0.60551 0.0
H28 H 1.0089 0.31509 0.62588 0.0
H29 H 0.87329 0.7643 0.04679 0.0
H30 H 0.07486 0.77195 0.37416 0.0
N31 N 0.95566 0.66647 0.93439 0.0
C32 C 0.87905 0.70398 0.8772 0.0
C33 C 0.88812 0.67456 0.79796 0.0
C34 C 0.90948 0.71685 0.98451 0.0
C35 C 0.94814 0.69765 0.01067 0.0
C36 C 0.92696 0.65647 0.82782 0.0
N37 N 0.01757 0.69679 0.13231 0.0
C38 C 0.98013 0.71341 0.1128 0.0
C39 C 0.04791 0.75542 0.30152 0.0
C40 C 1.00903 0.76964 0.28718 0.0
C41 C 0.05177 0.71941 0.22173 0.0
C42 C 0.97464 0.74956 0.19073 0.0
H43 H 1.00613 0.79762 0.34898 0.0
O44 O 0.07334 0.68882 0.02022 0.0
O45 O 0.04792 0.56096 0.98025 0.0
O46 O 0.03168 0.52753 0.15638 0.0
O47 O 0.02271 0.61728 0.15979 0.0
O48 O 0.08806 0.6214 0.08751 0.0
O49 O 1.01549 0.69008 0.87795 0.0
O50 O 0.95432 0.44449 0.97021 0.0
O51 O 0.97973 0.56487 0.98974 0.0
O52 O 1.00011 0.59787 0.81635 0.0
O53 O 1.00373 0.50649 0.80944 0.0
O54 O 0.94198 0.50445 0.87372 0.0
O55 O 1.01487 0.4354 0.09467 0.0
C56 C 0.08564 0.57437 0.03978 0.0
C57 C 0.93553 0.76626 0.16766 0.0
C58 C 0.90296 0.74978 0.06483 0.0
C59 C 0.05318 0.71167 0.93374 0.0
C60 C 0.06021 0.76927 0.9489 0.0
C61 C 0.04 0.80108 -0.00197 0.0
C62 C 0.08981 0.7925 0.91871 0.0
C63 C 0.09985 0.84729 0.93815 0.0
C64 C 0.05003 0.85567 0.01842 0.0
C65 C 0.08001 0.87878 0.98932 0.0
C66 C 0.02973 0.57367 0.20727 0.0
C67 C 0.94291 0.55105 0.92128 0.0
C68 C 0.97577 0.41884 0.05037 0.0
C69 C 0.9638 0.36208 0.03298 0.0
C70 C 0.98679 0.32473 0.00694 0.0
C71 C 0.92707 0.34553 0.03954 0.0
C72 C 0.91266 0.29201 0.02024 0.0
C73 C 0.97292 0.27109 0.98893 0.0
C74 C 0.93608 0.25464 -0.00407 0.0
C75 C 0.99911 0.55072 0.76356 0.0
H76 H 0.01684 0.78388 0.02122 0.0
H77 H 0.10564 0.76768 0.88164 0.0
H78 H 0.03455 0.88012 0.05692 0.0
H79 H 0.08717 0.92115 0.00495 0.0
H80 H 1.01513 0.33692 0.00037 0.0
H81 H 0.90968 0.37471 0.06059 0.0
H82 H 0.99067 0.24223 0.96908 0.0
H83 H 0.92568 0.21302 0.98108 0.0
Gd84 Gd 0.46712 1.05681 0.93018 0.0
Gd85 Gd 0.57773 0.06825 0.07877 0.0
C86 C 0.63981 0.92866 0.00869 0.0
C87 C 0.67396 0.90376 0.19259 0.0
C88 C 0.62379 0.96793 0.15682 0.0
C89 C 0.61933 0.96517 0.04853 0.0
C90 C 0.65023 0.93592 0.22901 0.0
C91 C 0.66868 0.90004 0.08241 0.0
C92 C 0.62968 0.92074 0.89552 0.0
C93 C 0.59862 0.94728 0.82492 0.0
N94 N 0.59271 0.99545 0.98061 0.0
C95 C 0.58013 0.98425 0.8687 0.0
H96 H 0.55529 1.00214 0.81111 0.0
C97 C 0.60086 0.99888 0.29214 0.0
N98 N 0.60089 1.00013 0.18989 0.0
C99 C 0.62584 0.96688 0.3655 0.0
C100 C 0.65153 0.93644 0.33509 0.0
H101 H 0.5827 1.02302 0.32042 0.0
H102 H 0.68555 0.87293 0.05389 0.0
H103 H 0.45531 0.16138 0.08029 0.0
H104 H 0.64426 0.8925 0.86145 0.0
H105 H 0.58893 0.93943 0.73654 0.0
H106 H 0.69505 0.87973 0.24758 0.0
H107 H 0.44328 0.99094 0.6792 0.0
H108 H 0.36717 0.24959 0.85992 0.0
H109 H 0.41202 0.23453 0.0499 0.0
H110 H 0.34217 0.16302 0.50234 0.0
H111 H 0.62595 0.9667 0.44663 0.0
H112 H 0.67135 0.91232 0.39288 0.0
H113 H 0.34361 0.22509 0.656 0.0
H114 H 0.40053 1.00026 0.48459 0.0
N115 N 0.43616 0.13556 0.9092 0.0
C116 C 0.38695 0.21803 0.87273 0.0
C117 C 0.41205 0.20955 0.98002 0.0
C118 C 0.38744 0.18566 0.78311 0.0
C119 C 0.41237 0.14375 0.80421 0.0
C120 C 0.43667 0.168 -0.00312 0.0
N121 N 0.43223 1.06533 0.74155 0.0
C122 C 0.41088 0.10814 0.71769 0.0
C123 C 0.40335 1.03097 0.54928 0.0
C124 C 0.38229 0.07554 0.52314 0.0
C125 C 0.4277 1.02594 0.65959 0.0
C126 C 0.38526 0.11432 0.60776 0.0
H127 H 0.36299 0.07894 0.43772 0.0
O128 O 0.42136 0.98894 0.87716 0.0
O129 O 0.52076 1.01236 0.02821 0.0
O130 O 0.56567 0.08722 0.90681 0.0
O131 O 0.49401 0.08565 0.81437 0.0
O132 O 0.48063 0.97646 0.87445 0.0
O133 O 0.41738 1.05436 0.98519 0.0
O134 O 0.62787 0.1011 0.23327 0.0
O135 O 0.52278 0.11244 0.01489 0.0
O136 O 0.4829 0.07781 0.11339 0.0
O137 O 0.55437 0.08632 0.20938 0.0
O138 O 0.57757 0.15766 0.08165 0.0
O139 O 0.63816 0.08793 0.0834 0.0
C140 C 0.5119 0.9697 0.96241 0.0
C141 C 0.36195 0.15754 0.5862 0.0
C142 C 0.36274 0.19284 0.67371 0.0
C143 C 0.39951 1.0097 0.92538 0.0
C144 C 0.35481 1.00736 0.85796 0.0
C145 C 0.3398 1.01946 0.74918 0.0
C146 C 0.32667 0.99169 0.90137 0.0
C147 C 0.28397 0.98829 0.83612 0.0
C148 C 0.29776 1.01841 0.68611 0.0
C149 C 0.26995 1.00315 0.72921 0.0
C150 C 0.53181 0.09303 0.81895 0.0
C151 C 0.53854 0.16038 0.03547 0.0
C152 C 0.6534 0.10818 0.18697 0.0
C153 C 0.67733 0.15995 0.21293 0.0
C154 C 0.66539 0.20487 0.25652 0.0
C155 C 0.71194 0.16471 0.18865 0.0
C156 C 0.73384 0.21401 0.20418 0.0
C157 C 0.68737 0.254 0.27301 0.0
C158 C 0.72125 0.25874 0.24616 0.0
C159 C 0.51695 0.08721 0.20596 0.0
H160 H 0.36029 1.02883 0.71166 0.0
H161 H 0.33799 0.98047 0.98399 0.0
H162 H 0.2867 1.02857 0.6028 0.0
H163 H 0.23735 1.00216 0.6781 0.0
H164 H 0.63888 0.20225 0.27645 0.0
H165 H 0.72109 0.1302 0.15435 0.0
H166 H 0.6779 0.28856 0.30576 0.0
H167 H 0.73777 0.2972 0.25876 0.0
Gd168 Gd 0.58042 0.57827 0.07678 0.0
Gd169 Gd 0.46523 0.55015 0.93475 0.0
C170 C 0.42681 0.37385 0.86935 0.0
C171 C 0.40575 0.35521 0.67145 0.0
C172 C 0.42947 0.44464 0.76393 0.0
C173 C 0.43733 0.42703 0.86452 0.0
C174 C 0.41194 0.40916 0.66567 0.0
C175 C 0.41308 0.33767 0.7732 0.0
C176 C 0.4294 0.35911 0.97007 0.0
C177 C 0.4409 0.3972 0.06159 0.0
N178 N 0.45141 0.4628 0.95631 0.0
C179 C 0.45177 0.44928 0.05312 0.0
H180 H 0.4608 0.4784 0.12444 0.0
C181 C 0.41644 0.51721 0.66262 0.0
N182 N 0.43393 0.49723 0.76121 0.0
C183 C 0.40005 0.48371 0.563 0.0
C184 C 0.3987 0.42931 0.56448 0.0
H185 H 0.41664 0.55936 0.66108 0.0
H186 H 0.40686 0.29636 0.7758 0.0
H187 H 0.59203 0.65514 0.90237 0.0
H188 H 0.42179 0.31886 0.97778 0.0
H189 H 0.44202 0.38636 0.13908 0.0
H190 H 0.39328 0.32712 0.59725 0.0
H191 H 0.62722 0.56677 0.35085 0.0
H192 H 0.61845 0.81442 0.05532 0.0
H193 H 0.60845 0.74914 0.89647 0.0
H194 H 0.63659 0.79844 0.42586 0.0
H195 H 0.38804 0.49985 0.48532 0.0
H196 H 0.38526 0.40333 0.48728 0.0
H197 H 0.6262 0.83266 0.25168 0.0
H198 H 0.6493 0.62376 0.52838 0.0
N199 N 0.59377 0.66724 0.06417 0.0
C200 C 0.61295 0.77317 0.06009 0.0
C201 C 0.60691 0.73638 0.96982 0.0
C202 C 0.61243 0.75601 0.15594 0.0
C203 C 0.60351 0.70186 0.15615 0.0
C204 C 0.59732 0.68315 0.97331 0.0
N205 N 0.60748 0.62937 0.25314 0.0
C206 C 0.60946 0.68229 0.25364 0.0
C207 C 0.6376 0.6408 0.4517 0.0
C208 C 0.63576 0.69505 0.45275 0.0
C209 C 0.6248 0.60866 0.35092 0.0
C210 C 0.62333 0.71665 0.35326 0.0
H211 H 0.64645 0.72008 0.53093 0.0
O212 O 0.64336 0.55959 0.16678 0.0
O213 O 0.52624 0.51514 0.00892 0.0
O214 O 0.48604 0.57121 0.11653 0.0
O215 O 0.5559 0.56087 0.20291 0.0
O216 O 0.58327 0.49124 0.09413 0.0
O217 O 0.62298 0.57148 -0.0033 0.0
O218 O 0.4029 0.57219 0.85093 0.0
O219 O 0.51915 0.61319 -0.00033 0.0
O220 O 0.56111 0.56547 0.89449 0.0
O221 O 0.48923 0.55658 0.80373 0.0
O222 O 0.46247 0.63458 0.89892 0.0
O223 O 0.4248 0.55839 0.02059 0.0
C224 C 0.54509 0.47392 0.03809 0.0
C225 C 0.62713 0.77125 0.35087 0.0
C226 C 0.62168 0.79083 0.25204 0.0
C227 C 0.65446 0.56478 0.08614 0.0
C228 C 0.69318 0.59952 0.1134 0.0
C229 C 0.69838 0.64959 0.17209 0.0
C230 C 0.72528 0.58359 0.08353 0.0
C231 C 0.76202 0.61776 0.11399 0.0
C232 C 0.73358 0.68374 0.19864 0.0
C233 C 0.76502 0.66813 0.17002 0.0
C234 C 0.51973 0.56741 0.20443 0.0
C235 C 0.50016 0.65285 0.95904 0.0
C236 C 0.3931 0.56746 0.93403 0.0
C237 C 0.35359 0.53552 0.91035 0.0
C238 C 0.3449 0.48583 0.8481 0.0
C239 C 0.32467 0.55353 0.95054 0.0
C240 C 0.28754 0.52165 0.9282 0.0
C241 C 0.30933 0.45382 0.82858 0.0
C242 C 0.28114 0.4712 0.86865 0.0
C243 C 0.52647 0.5594 0.80513 0.0
H244 H 0.67533 0.6623 0.19878 0.0
H245 H 0.72221 0.54467 0.04008 0.0
H246 H 0.73676 0.7224 0.24312 0.0
H247 H 0.79218 0.69556 0.19295 0.0
H248 H 0.36567 0.47155 0.81434 0.0
H249 H 0.3308 0.59226 -0.00285 0.0
H250 H 0.30353 0.41516 0.7819 0.0
H251 H 0.25425 0.44458 0.85313 0.0
H252 H 0.03134 0.62549 0.68119 0.0
H253 H 0.96725 0.46946 0.59554 0.0
H254 H 0.9735 0.46117 0.41933 0.0
H255 H 0.99738 0.49845 0.28875 0.0
H256 H 0.06292 0.65355 0.3772 0.0
H257 H 0.056 0.66215 0.55227 0.0
C258 C 0.01815 0.58999 0.6232 0.0
C259 C 0.99858 0.54823 0.65143 0.0
C260 C 0.02251 0.5852 0.52263 0.0
C261 C 0.98255 0.50208 0.57626 0.0
C262 C 0.98619 0.4973 0.47539 0.0
C263 C 1.0107 0.53377 0.34719 0.0
C264 C 0.03045 0.57556 0.31946 0.0
C265 C 1.00646 0.53841 0.44803 0.0
C266 C 0.04694 0.62133 0.39539 0.0
C267 C 0.04308 0.62616 0.49585 0.0
H268 H 0.57875 0.10324 0.4137 0.0
H269 H 0.44664 0.09624 0.24053 0.0
H270 H 0.4403 0.10522 0.41655 0.0
H271 H 0.47191 0.10803 0.61869 0.0
H272 H 0.60297 0.10301 0.78766 0.0
H273 H 0.61008 0.10701 0.61466 0.0
C274 C 0.54842 0.10327 0.41367 0.0
C275 C 0.51316 0.09776 0.31297 0.0
C276 C 0.54482 0.10634 0.51497 0.0
C277 C 0.47435 0.09966 0.31612 0.0
C278 C 0.47067 0.10474 0.41699 0.0
C279 C 0.50192 0.10698 0.61784 0.0
C280 C 0.53652 0.10344 0.71637 0.0
C281 C 0.50562 0.10674 0.5168 0.0
C282 C 0.57554 0.10503 0.71358 0.0
C283 C 0.57968 0.10705 0.61427 0.0
H284 H 0.4746 0.59164 0.61471 0.0
H285 H 0.58791 0.52046 0.76052 0.0
H286 H 0.59614 0.51666 0.58743 0.0
H287 H 0.57071 0.53269 0.39425 0.0
H288 H 0.45857 0.60686 0.25079 0.0
H289 H 0.44986 0.60915 0.42253 0.0
C290 C 0.50076 0.5747 0.60796 0.0
C291 C 0.53037 0.556 0.69946 0.0
C292 C 0.50554 0.57311 0.50874 0.0
C293 C 0.56472 0.53528 0.69084 0.0
C294 C 0.56945 0.53298 0.59201 0.0
C295 C 0.54478 0.55016 0.40109 0.0
C296 C 0.51564 0.56992 0.31016 0.0
C297 C 0.54011 0.55195 0.50052 0.0
C298 C 0.48151 0.59115 0.3195 0.0
C299 C 0.47646 0.59264 0.41776 0.0
H300 H 0.16932 0.59873 0.15456 0.0
H301 H 0.0785 0.51653 0.84878 0.0
H302 H 0.1318 0.49548 0.78792 0.0
H303 H 0.20391 0.5017 0.81722 0.0
H304 H 0.29699 0.58147 0.12262 0.0
H305 H 0.24342 0.60376 0.18538 0.0
C306 C 0.1613 0.57582 0.07503 0.0
C307 C 0.1195 0.5584 0.00763 0.0
C308 C 0.19266 0.56416 0.03929 0.0
C309 C 0.10992 0.52967 0.90394 0.0
C310 C 0.14063 0.51786 0.86837 0.0
C311 C 0.21289 0.52339 0.8984 0.0
C312 C 0.25497 0.53923 0.96516 0.0
C313 C 0.18205 0.53502 0.93496 0.0
C314 C 0.26514 0.56891 0.06849 0.0
C315 C 0.23441 0.58127 0.10501 0.0
H316 H 0.74472 0.27888 0.06829 0.0
H317 H 0.80092 0.1588 0.26912 0.0
H318 H 0.86014 0.16849 0.22135 0.0
H319 H 0.89779 0.21575 0.13199 0.0
H320 H 0.84027 0.3346 0.92846 0.0
H321 H 0.77948 0.32047 0.96664 0.0
C322 C 0.77004 0.25498 0.10153 0.0
C323 C 0.76902 0.21884 0.1732 0.0
C324 C 0.80357 0.26043 0.07292 0.0
C325 C 0.80138 0.18711 0.21415 0.0
C326 C 0.83513 0.19263 0.18687 0.0
C327 C 0.87156 0.23766 0.09429 0.0
C328 C 0.87362 0.27655 0.02871 0.0
C329 C 0.83678 0.22963 0.11731 0.0
C330 C 0.83955 0.30497 0.98063 0.0
C331 C 0.80484 0.297 0.00249 0.0
H332 H 0.51249 0.88335 0.8267 0.0
H333 H 0.52728 0.92927 0.15967 0.0
H334 H 0.5283 0.8365 0.19275 0.0
H335 H 0.51792 0.73979 0.12013 0.0
H336 H 0.50427 0.69605 0.78721 0.0
H337 H 0.50892 0.78887 0.76075 0.0
C338 C 0.51684 0.87329 0.90749 0.0
C339 C 0.52053 0.91426 0.99101 0.0
C340 C 0.51695 0.81935 0.92551 0.0
C341 C 0.52549 0.89956 0.09439 0.0
C342 C 0.52539 0.84601 0.11276 0.0
C343 C 0.51755 0.75058 0.04321 0.0
C344 C 0.51344 0.70994 0.95804 0.0
C345 C 0.52034 0.80516 0.0283 0.0
C346 C 0.50977 0.72565 0.85639 0.0
C347 C 0.51203 0.7791 0.84076 0.0
H348 H 0.93769 0.59034 0.11338 0.0
H349 H 0.86391 0.53971 0.7686 0.0
H350 H 0.80109 0.55271 0.79592 0.0
H351 H 0.76648 0.57809 0.91938 0.0
H352 H 0.84113 0.62515 0.2655 0.0
H353 H 0.90348 0.61336 0.23662 0.0
C354 C 0.90791 0.58291 0.04396 0.0
C355 C 0.90567 0.5652 0.93842 0.0
C356 C 0.87171 0.58907 0.06096 0.0
C357 C 0.86659 0.5542 0.85028 0.0
C358 C 0.83058 0.56131 0.86604 0.0
C359 C 0.79634 0.58488 0.98859 0.0
C360 C 0.79882 0.60245 0.09461 0.0
C361 C 0.83259 0.57829 0.97132 0.0
C362 C 0.83808 0.61172 0.18297 0.0
C363 C 0.87392 0.60523 0.16653 0.0
H364 H 0.16595 0.91887 0.05923 0.0
H365 H 0.10282 0.82775 0.73883 0.0
H366 H 0.15474 0.86257 0.68078 0.0
H367 H 0.21809 0.91761 0.72104 0.0
H368 H 0.28225 1.00977 0.0397 0.0
H369 H 0.23032 0.97513 0.09953 0.0
C370 C 0.1635 0.90717 0.9765 0.0
C371 C 0.13068 0.87088 0.90327 0.0
C372 C 0.19375 0.92706 0.94388 0.0
C373 C 0.12801 0.85536 0.79675 0.0
C374 C 0.15762 0.87526 0.76351 0.0
C375 C 0.22052 0.93063 0.80328 0.0
C376 C 0.25367 0.96665 0.8754 0.0
C377 C 0.19062 0.91092 0.83643 0.0
C378 C 0.25703 0.98195 0.98274 0.0
C379 C 0.22724 0.96241 0.01666 0.0
H380 H 0.5181 0.38669 0.87206 0.0
H381 H 0.54788 0.43119 0.2166 0.0
H382 H 0.54382 0.33862 0.24427 0.0
H383 H 0.53888 0.2442 0.17639 0.0
H384 H 0.50584 0.19713 0.83151 0.0
H385 H 0.50248 0.28967 0.79776 0.0
C386 C 0.52206 0.37622 0.95224 0.0
C387 C 0.53122 0.41716 0.04105 0.0
C388 C 0.51915 0.32165 0.96781 0.0
C389 C 0.53892 0.40155 0.1455 0.0
C390 C 0.5369 0.34819 0.16171 0.0
C391 C 0.52921 0.25384 0.09278 0.0
C392 C 0.52154 0.21252 0.00644 0.0
C393 C 0.52767 0.30773 0.07416 0.0
C394 C 0.51071 0.22693 0.89962 0.0
C395 C 0.5095 0.28046 0.88058 0.0
loop_
_geom_bond_atom_site_label_1
_geom_bond_atom_site_label_2
_geom_bond_distance
_geom_bond_site_symmetry_2
_ccdc_geom_bond_type
Gd0 N31 2.661 1_454 S
Gd0 N37 2.601 . S
Gd0 O44 2.545 . S
Gd0 O45 2.606 . S
Gd0 O47 2.429 . S
Gd0 O48 2.545 . S
Gd0 O49 2.412 1_554 S
Gd0 O51 2.362 1_454 S
Gd0 O52 2.324 1_554 S
Gd0 C59 2.828 . S
Gd1 N10 2.661 1_656 S
Gd1 N14 2.601 . S
Gd1 O45 2.362 1_656 S
Gd1 O46 2.324 1_656 S
Gd1 O50 2.545 . S
Gd1 O51 2.606 . S
Gd1 O53 2.429 . S
Gd1 O54 2.545 . S
Gd1 O55 2.412 1_556 S
Gd1 C68 2.828 . S
C2 C5 1.417 . S
C2 C7 1.431 1_554 S
C2 C8 1.412 . S
C3 C6 1.437 . S
C3 C7 1.317 . S
C3 H22 0.929 . S
C4 C5 1.426 1_556 S
C4 C6 1.413 . S
C4 N14 1.359 1_455 S
C5 C2 1.417 . S
C5 C4 1.426 1_554 S
C5 N10 1.350 . S
C6 C3 1.437 . S
C6 C4 1.413 . S
C6 C16 1.391 . S
C7 C2 1.431 1_556 S
C7 C3 1.317 . S
C7 H18 0.930 1_556 S
C8 C2 1.412 . S
C8 C9 1.355 . S
C8 H20 0.930 . S
C9 C8 1.355 . S
C9 C11 1.402 . S
C9 H21 0.930 . S
N10 Gd1 2.661 1_454 S
N10 C5 1.350 . S
N10 C11 1.307 . S
C11 C9 1.402 . S
C11 N10 1.307 . S
C11 H12 0.930 . S
H12 C11 0.930 . S
C13 N14 1.334 . S
C13 C15 1.394 . S
C13 H17 0.930 . S
N14 Gd1 2.601 . S
N14 C4 1.359 1_655 S
N14 C13 1.334 . S
C15 C13 1.394 . S
C15 C16 1.359 1_655 S
C15 H27 0.930 . S
C16 C6 1.391 . S
C16 C15 1.359 1_455 S
C16 H28 0.929 . S
H17 C13 0.930 . S
H18 C7 0.930 1_554 S
H19 C36 0.930 . S
H20 C8 0.930 . S
H21 C9 0.930 . S
H22 C3 0.929 . S
H23 C41 0.930 . S
H24 C32 0.930 . S
H25 C33 0.930 . S
H26 C57 0.929 . S
H27 C15 0.930 . S
H28 C16 0.929 . S
H29 C58 0.930 1_556 S
H30 C39 0.930 . S
N31 Gd0 2.661 1_656 S
N31 C35 1.350 . S
N31 C36 1.307 . S
C32 H24 0.930 . S
C32 C33 1.355 . S
C32 C34 1.412 . S
C33 H25 0.930 . S
C33 C32 1.355 . S
C33 C36 1.402 . S
C34 C32 1.412 . S
C34 C35 1.417 . S
C34 C58 1.431 1_556 S
C35 N31 1.350 . S
C35 C34 1.417 . S
C35 C38 1.426 1_556 S
C36 H19 0.930 . S
C36 N31 1.307 . S
C36 C33 1.402 . S
N37 Gd0 2.601 . S
N37 C38 1.359 1_455 S
N37 C41 1.334 . S
C38 C35 1.426 1_554 S
C38 N37 1.359 1_655 S
C38 C42 1.413 . S
C39 H30 0.930 . S
C39 C40 1.359 1_455 S
C39 C41 1.394 . S
C40 C39 1.359 1_655 S
C40 C42 1.391 . S
C40 H43 0.929 . S
C41 H23 0.930 . S
C41 N37 1.334 . S
C41 C39 1.394 . S
C42 C38 1.413 . S
C42 C40 1.391 . S
C42 C57 1.437 . S
H43 C40 0.929 . S
O44 Gd0 2.545 . S
O44 C59 1.258 . S
O45 Gd0 2.606 . S
O45 Gd1 2.362 1_454 S
O45 C56 1.284 . S
O46 Gd1 2.324 1_454 S
O46 C66 1.253 . S
O47 Gd0 2.429 . S
O47 C66 1.268 . S
O48 Gd0 2.545 . S
O48 C56 1.250 . S
O49 Gd0 2.412 1_556 S
O49 C59 1.252 1_556 S
O50 Gd1 2.545 . S
O50 C68 1.258 . S
O51 Gd0 2.362 1_656 S
O51 Gd1 2.606 . S
O51 C67 1.284 . S
O52 Gd0 2.324 1_556 S
O52 C75 1.253 1_455 S
O53 Gd1 2.429 . S
O53 C75 1.268 . S
O54 Gd1 2.545 . S
O54 C67 1.250 . S
O55 Gd1 2.412 1_554 S
O55 C68 1.252 1_554 S
C56 O45 1.284 . S
C56 O48 1.250 . S
C57 H26 0.929 . S
C57 C42 1.437 . S
C57 C58 1.317 . S
C58 H29 0.930 1_554 S
C58 C34 1.431 1_554 S
C58 C57 1.317 . S
C59 Gd0 2.828 . S
C59 O44 1.258 . S
C59 O49 1.252 1_554 S
C59 C60 1.497 . S
C60 C59 1.497 . S
C60 C61 1.395 . S
C60 C62 1.380 1_554 S
C61 C60 1.395 . S
C61 C64 1.398 . S
C61 H76 0.930 . S
C62 C60 1.380 1_556 S
C62 C63 1.391 1_556 S
C62 H77 0.930 . S
C63 C62 1.391 1_554 S
C63 C65 1.387 . S
C64 C61 1.398 . S
C64 C65 1.380 . S
C64 H78 0.930 . S
C65 C63 1.387 . S
C65 C64 1.380 . S
C65 H79 0.930 . S
C66 O46 1.253 . S
C66 O47 1.268 . S
C67 O51 1.284 . S
C67 O54 1.250 . S
C68 Gd1 2.828 . S
C68 O50 1.258 . S
C68 O55 1.252 1_556 S
C68 C69 1.497 . S
C69 C68 1.497 . S
C69 C70 1.395 . S
C69 C71 1.380 1_556 S
C70 C69 1.395 . S
C70 C73 1.398 . S
C70 H80 0.930 . S
C71 C69 1.380 1_554 S
C71 C72 1.391 1_554 S
C71 H81 0.930 . S
C72 C71 1.391 1_556 S
C72 C74 1.387 . S
C73 C70 1.398 . S
C73 C74 1.380 . S
C73 H82 0.930 . S
C74 C72 1.387 . S
C74 C73 1.380 . S
C74 H83 0.930 . S
C75 O52 1.253 1_655 S
C75 O53 1.268 . S
H76 C61 0.930 . S
H77 C62 0.930 . S
H78 C64 0.930 . S
H79 C65 0.930 . S
H80 C70 0.930 . S
H81 C71 0.930 . S
H82 C73 0.930 . S
H83 C74 0.930 . S
Gd84 N115 2.661 1_565 S
Gd84 N121 2.601 1_565 S
Gd84 O128 2.545 . S
Gd84 O129 2.606 1_556 S
Gd84 O131 2.429 . S
Gd84 O132 2.545 . S
Gd84 O133 2.412 . S
Gd84 O135 2.362 1_565 S
Gd84 O136 2.324 1_556 S
Gd84 C143 2.828 . S
Gd85 N94 2.661 1_545 S
Gd85 N98 2.601 1_545 S
Gd85 O129 2.362 1_545 S
Gd85 O130 2.324 1_554 S
Gd85 O134 2.545 . S
Gd85 O135 2.606 1_554 S
Gd85 O137 2.429 . S
Gd85 O138 2.545 . S
Gd85 O139 2.412 . S
Gd85 C152 2.828 . S
C86 C89 1.417 . S
C86 C91 1.431 . S
C86 C92 1.412 1_554 S
C87 C90 1.437 . S
C87 C91 1.317 . S
C87 H106 0.929 . S
C88 C89 1.426 . S
C88 C90 1.413 . S
C88 N98 1.359 . S
C89 C86 1.417 . S
C89 C88 1.426 . S
C89 N94 1.350 . S
C90 C87 1.437 . S
C90 C88 1.413 . S
C90 C100 1.391 . S
C91 C86 1.431 . S
C91 C87 1.317 . S
C91 H102 0.930 . S
C92 C86 1.412 1_556 S
C92 C93 1.355 . S
C92 H104 0.930 . S
C93 C92 1.355 . S
C93 C95 1.402 . S
C93 H105 0.930 . S
N94 Gd85 2.661 1_565 S
N94 C89 1.350 . S
N94 C95 1.307 1_554 S
C95 C93 1.402 . S
C95 N94 1.307 1_556 S
C95 H96 0.930 . S
H96 C95 0.930 . S
C97 N98 1.334 1_545 S
C97 C99 1.394 1_545 S
C97 H101 0.930 . S
N98 Gd85 2.601 1_565 S
N98 C88 1.359 . S
N98 C97 1.334 1_565 S
C99 C97 1.394 1_565 S
C99 C100 1.359 . S
C99 H111 0.930 1_565 S
C100 C90 1.391 . S
C100 C99 1.359 . S
C100 H112 0.929 . S
H101 C97 0.930 . S
H102 C91 0.930 . S
H103 C120 0.930 . S
H104 C92 0.930 . S
H105 C93 0.930 . S
H106 C87 0.929 . S
H107 C125 0.930 . S
H108 C116 0.930 . S
H109 C117 0.930 . S
H110 C141 0.929 . S
H111 C99 0.930 1_545 S
H112 C100 0.929 . S
H113 C142 0.930 . S
H114 C123 0.930 1_565 S
N115 Gd84 2.661 1_545 S
N115 C119 1.350 . S
N115 C120 1.307 1_556 S
C116 H108 0.930 . S
C116 C117 1.355 . S
C116 C118 1.412 1_554 S
C117 H109 0.930 . S
C117 C116 1.355 . S
C117 C120 1.402 . S
C118 C116 1.412 1_556 S
C118 C119 1.417 . S
C118 C142 1.431 . S
C119 N115 1.350 . S
C119 C118 1.417 . S
C119 C122 1.426 . S
C120 H103 0.930 . S
C120 N115 1.307 1_554 S
C120 C117 1.402 . S
N121 Gd84 2.601 1_545 S
N121 C122 1.359 . S
N121 C125 1.334 1_545 S
C122 C119 1.426 . S
C122 N121 1.359 . S
C122 C126 1.413 . S
C123 H114 0.930 1_545 S
C123 C124 1.359 . S
C123 C125 1.394 1_545 S
C124 C123 1.359 . S
C124 C126 1.391 . S
C124 H127 0.929 . S
C125 H107 0.930 . S
C125 N121 1.334 1_565 S
C125 C123 1.394 1_565 S
C126 C122 1.413 . S
C126 C124 1.391 . S
C126 C141 1.437 . S
H127 C124 0.929 . S
O128 Gd84 2.545 . S
O128 C143 1.258 . S
O129 Gd84 2.606 1_554 S
O129 Gd85 2.362 1_565 S
O129 C140 1.284 . S
O130 Gd85 2.324 1_556 S
O130 C150 1.253 . S
O131 Gd84 2.429 . S
O131 C150 1.265 1_565 S
O132 Gd84 2.545 . S
O132 C140 1.250 1_556 S
O133 Gd84 2.412 . S
O133 C143 1.252 . S
O134 Gd85 2.545 . S
O134 C152 1.258 . S
O135 Gd84 2.362 1_545 S
O135 Gd85 2.606 1_556 S
O135 C151 1.284 . S
O136 Gd84 2.324 1_554 S
O136 C159 1.253 . S
O137 Gd85 2.429 . S
O137 C159 1.268 1_545 S
O138 Gd85 2.545 . S
O138 C151 1.250 1_554 S
O139 Gd85 2.412 . S
O139 C152 1.252 . S
C140 O129 1.284 . S
C140 O132 1.250 1_554 S
C141 H110 0.929 . S
C141 C126 1.437 . S
C141 C142 1.317 . S
C142 H113 0.930 . S
C142 C118 1.431 . S
C142 C141 1.317 . S
C143 Gd84 2.828 . S
C143 O128 1.258 . S
C143 O133 1.252 . S
C143 C144 1.497 . S
C144 C143 1.497 . S
C144 C145 1.395 . S
C144 C146 1.380 . S
C145 C144 1.395 . S
C145 C148 1.398 . S
C145 H160 0.930 . S
C146 C144 1.380 . S
C146 C147 1.391 . S
C146 H161 0.930 1_556 S
C147 C146 1.391 . S
C147 C149 1.387 . S
C148 C145 1.398 . S
C148 C149 1.380 . S
C148 H162 0.930 . S
C149 C147 1.387 . S
C149 C148 1.380 . S
C149 H163 0.930 . S
C150 O130 1.253 . S
C150 O131 1.265 1_545 S
C151 O135 1.284 . S
C151 O138 1.250 1_556 S
C152 Gd85 2.828 . S
C152 O134 1.258 . S
C152 O139 1.252 . S
C152 C153 1.497 . S
C153 C152 1.497 . S
C153 C154 1.395 . S
C153 C155 1.380 . S
C154 C153 1.395 . S
C154 C157 1.398 . S
C154 H164 0.930 . S
C155 C153 1.380 . S
C155 C156 1.391 . S
C155 H165 0.930 1_554 S
C156 C155 1.391 . S
C156 C158 1.387 . S
C157 C154 1.398 . S
C157 C158 1.380 . S
C157 H166 0.930 . S
C158 C156 1.387 . S
C158 C157 1.380 . S
C158 H167 0.930 . S
C159 O136 1.253 . S
C159 O137 1.268 1_565 S
H160 C145 0.930 . S
H161 C146 0.930 1_554 S
H162 C148 0.930 . S
H163 C149 0.930 . S
H164 C154 0.930 . S
H165 C155 0.930 1_556 S
H166 C157 0.930 . S
H167 C158 0.930 . S
Gd168 N199 2.661 . S
Gd168 N205 2.601 . S
Gd168 O212 2.545 . S
Gd168 O213 2.606 1_554 S
Gd168 O215 2.429 . S
Gd168 O216 2.545 . S
Gd168 O217 2.412 . S
Gd168 O219 2.362 . S
Gd168 O220 2.324 1_554 S
Gd168 C227 2.828 . S
Gd169 N178 2.661 . S
Gd169 N182 2.601 . S
Gd169 O213 2.362 . S
Gd169 O214 2.324 1_556 S
Gd169 O218 2.545 . S
Gd169 O219 2.606 1_556 S
Gd169 O221 2.429 . S
Gd169 O222 2.545 . S
Gd169 O223 2.412 . S
Gd169 C236 2.828 . S
C170 C173 1.417 . S
C170 C175 1.431 . S
C170 C176 1.412 1_556 S
C171 C174 1.437 . S
C171 C175 1.317 . S
C171 H190 0.929 . S
C172 C173 1.426 . S
C172 C174 1.413 . S
C172 N182 1.359 . S
C173 C170 1.417 . S
C173 C172 1.426 . S
C173 N178 1.350 . S
C174 C171 1.437 . S
C174 C172 1.413 . S
C174 C184 1.391 . S
C175 C170 1.431 . S
C175 C171 1.317 . S
C175 H186 0.930 . S
C176 C170 1.412 1_554 S
C176 C177 1.355 . S
C176 H188 0.930 . S
C177 C176 1.355 . S
C177 C179 1.402 . S
C177 H189 0.930 . S
N178 Gd169 2.661 . S
N178 C173 1.350 . S
N178 C179 1.307 1_556 S
C179 C177 1.402 . S
C179 N178 1.307 1_554 S
C179 H180 0.930 . S
H180 C179 0.930 . S
C181 N182 1.334 . S
C181 C183 1.394 . S
C181 H185 0.930 . S
N182 Gd169 2.601 . S
N182 C172 1.359 . S
N182 C181 1.334 . S
C183 C181 1.394 . S
C183 C184 1.359 . S
C183 H195 0.930 . S
C184 C174 1.391 . S
C184 C183 1.359 . S
C184 H196 0.929 . S
H185 C181 0.930 . S
H186 C175 0.930 . S
H187 C204 0.930 . S
H188 C176 0.930 . S
H189 C177 0.930 . S
H190 C171 0.929 . S
H191 C209 0.930 . S
H192 C200 0.930 . S
H193 C201 0.930 . S
H194 C225 0.929 . S
H195 C183 0.930 . S
H196 C184 0.929 . S
H197 C226 0.930 . S
H198 C207 0.930 . S
N199 Gd168 2.661 . S
N199 C203 1.350 . S
N199 C204 1.307 1_554 S
C200 H192 0.930 . S
C200 C201 1.355 . S
C200 C202 1.412 1_556 S
C201 H193 0.930 . S
C201 C200 1.355 . S
C201 C204 1.402 . S
C202 C200 1.412 1_554 S
C202 C203 1.417 . S
C202 C226 1.431 . S
C203 N199 1.350 . S
C203 C202 1.417 . S
C203 C206 1.426 . S
C204 H187 0.930 . S
C204 N199 1.307 1_556 S
C204 C201 1.402 . S
N205 Gd168 2.601 . S
N205 C206 1.359 . S
N205 C209 1.334 . S
C206 C203 1.426 . S
C206 N205 1.359 . S
C206 C210 1.413 . S
C207 H198 0.930 . S
C207 C208 1.359 . S
C207 C209 1.394 . S
C208 C207 1.359 . S
C208 C210 1.391 . S
C208 H211 0.929 . S
C209 H191 0.930 . S
C209 N205 1.334 . S
C209 C207 1.394 . S
C210 C206 1.413 . S
C210 C208 1.391 . S
C210 C225 1.437 . S
H211 C208 0.929 . S
O212 Gd168 2.545 . S
O212 C227 1.258 . S
O213 Gd168 2.606 1_556 S
O213 Gd169 2.362 . S
O213 C224 1.284 . S
O214 Gd169 2.324 1_554 S
O214 C234 1.254 . S
O215 Gd168 2.429 . S
O215 C234 1.268 . S
O216 Gd168 2.545 . S
O216 C224 1.250 1_554 S
O217 Gd168 2.412 . S
O217 C227 1.252 . S
O218 Gd169 2.545 . S
O218 C236 1.258 . S
O219 Gd168 2.362 . S
O219 Gd169 2.606 1_554 S
O219 C235 1.284 . S
O220 Gd168 2.324 1_556 S
O220 C243 1.254 . S
O221 Gd169 2.429 . S
O221 C243 1.268 . S
O222 Gd169 2.545 . S
O222 C235 1.250 1_556 S
O223 Gd169 2.412 . S
O223 C236 1.252 . S
C224 O213 1.284 . S
C224 O216 1.250 1_556 S
C225 H194 0.929 . S
C225 C210 1.437 . S
C225 C226 1.317 . S
C226 H197 0.930 . S
C226 C202 1.431 . S
C226 C225 1.317 . S
C227 Gd168 2.828 . S
C227 O212 1.258 . S
C227 O217 1.252 . S
C227 C228 1.497 . S
C228 C227 1.497 . S
C228 C229 1.395 . S
C228 C230 1.380 . S
C229 C228 1.395 . S
C229 C232 1.398 . S
C229 H244 0.930 . S
C230 C228 1.380 . S
C230 C231 1.391 . S
C230 H245 0.930 1_554 S
C231 C230 1.391 . S
C231 C233 1.387 . S
C232 C229 1.398 . S
C232 C233 1.380 . S
C232 H246 0.930 . S
C233 C231 1.387 . S
C233 C232 1.380 . S
C233 H247 0.930 . S
C234 O214 1.254 . S
C234 O215 1.268 . S
C235 O219 1.284 . S
C235 O222 1.250 1_554 S
C236 Gd169 2.828 . S
C236 O218 1.258 . S
C236 O223 1.252 . S
C236 C237 1.497 . S
C237 C236 1.497 . S
C237 C238 1.395 . S
C237 C239 1.380 . S
C238 C237 1.395 . S
C238 C241 1.398 . S
C238 H248 0.930 . S
C239 C237 1.380 . S
C239 C240 1.391 . S
C239 H249 0.930 1_556 S
C240 C239 1.391 . S
C240 C242 1.387 . S
C241 C238 1.398 . S
C241 C242 1.380 . S
C241 H250 0.930 . S
C242 C240 1.387 . S
C242 C241 1.380 . S
C242 H251 0.930 . S
C243 O220 1.254 . S
C243 O221 1.268 . S
H244 C229 0.930 . S
H245 C230 0.930 1_556 S
H246 C232 0.930 . S
H247 C233 0.930 . S
H248 C238 0.930 . S
H249 C239 0.930 1_554 S
H250 C241 0.930 . S
H251 C242 0.930 . S
H252 C258 0.930 . S
H253 C261 0.930 . S
H254 C262 0.930 . S
H255 C263 0.930 . S
H256 C266 0.930 . S
H257 C267 0.930 . S
C258 H252 0.930 . S
C258 C259 1.355 1_455 S
C258 C260 1.415 . S
C259 C258 1.355 1_655 S
C259 C261 1.419 . S
C260 C258 1.415 . S
C260 C265 1.425 1_455 S
C260 C267 1.409 . S
C261 H253 0.930 . S
C261 C259 1.419 . S
C261 C262 1.362 . S
C262 H254 0.930 . S
C262 C261 1.362 . S
C262 C265 1.409 . S
C263 H255 0.930 . S
C263 C264 1.355 1_655 S
C263 C265 1.415 . S
C264 C263 1.355 1_455 S
C264 C266 1.419 . S
C265 C260 1.425 1_655 S
C265 C262 1.409 . S
C265 C263 1.415 . S
C266 H256 0.930 . S
C266 C264 1.419 . S
C266 C267 1.362 . S
C267 H257 0.930 . S
C267 C260 1.409 . S
C267 C266 1.362 . S
H268 C274 0.930 . S
H269 C277 0.930 . S
H270 C278 0.930 . S
H271 C279 0.930 . S
H272 C282 0.930 . S
H273 C283 0.930 . S
C274 H268 0.930 . S
C274 C275 1.355 . S
C274 C276 1.415 1_565 S
C275 C274 1.355 . S
C275 C277 1.419 . S
C276 C274 1.415 1_545 S
C276 C281 1.425 1_545 S
C276 C283 1.409 . S
C277 H269 0.930 . S
C277 C275 1.419 . S
C277 C278 1.362 . S
C278 H270 0.930 . S
C278 C277 1.362 . S
C278 C281 1.409 . S
C279 H271 0.930 . S
C279 C280 1.355 . S
C279 C281 1.415 1_545 S
C280 C279 1.355 . S
C280 C282 1.419 . S
C281 C276 1.425 1_565 S
C281 C278 1.409 . S
C281 C279 1.415 1_565 S
C282 H272 0.930 . S
C282 C280 1.419 . S
C282 C283 1.362 . S
C283 H273 0.930 . S
C283 C276 1.409 . S
C283 C282 1.362 . S
H284 C290 0.930 . S
H285 C293 0.930 . S
H286 C294 0.930 . S
H287 C295 0.930 . S
H288 C298 0.930 . S
H289 C299 0.930 . S
C290 H284 0.930 . S
C290 C291 1.355 . S
C290 C292 1.415 . S
C291 C290 1.355 . S
C291 C293 1.419 . S
C292 C290 1.415 . S
C292 C297 1.425 . S
C292 C299 1.409 . S
C293 H285 0.930 . S
C293 C291 1.419 . S
C293 C294 1.362 . S
C294 H286 0.930 . S
C294 C293 1.362 . S
C294 C297 1.409 . S
C295 H287 0.930 . S
C295 C296 1.355 . S
C295 C297 1.415 . S
C296 C295 1.355 . S
C296 C298 1.419 . S
C297 C292 1.425 . S
C297 C294 1.409 . S
C297 C295 1.415 . S
C298 H288 0.930 . S
C298 C296 1.419 . S
C298 C299 1.362 . S
C299 H289 0.930 . S
C299 C292 1.409 . S
C299 C298 1.362 . S
H300 C306 0.930 . S
H301 C309 0.930 . S
H302 C310 0.930 . S
H303 C311 0.930 . S
H304 C314 0.930 . S
H305 C315 0.930 . S
C306 H300 0.930 . S
C306 C307 1.355 . S
C306 C308 1.415 . S
C307 C306 1.355 . S
C307 C309 1.419 1_554 S
C308 C306 1.415 . S
C308 C313 1.425 1_554 S
C308 C315 1.409 . S
C309 H301 0.930 . S
C309 C307 1.419 1_556 S
C309 C310 1.362 . S
C310 H302 0.930 . S
C310 C309 1.362 . S
C310 C313 1.409 . S
C311 H303 0.930 . S
C311 C312 1.354 . S
C311 C313 1.415 . S
C312 C311 1.354 . S
C312 C314 1.417 1_556 S
C313 C308 1.425 1_556 S
C313 C310 1.409 . S
C313 C311 1.415 . S
C314 H304 0.930 . S
C314 C312 1.417 1_554 S
C314 C315 1.362 . S
C315 H305 0.930 . S
C315 C308 1.409 . S
C315 C314 1.362 . S
H316 C322 0.930 . S
H317 C325 0.930 . S
H318 C326 0.930 . S
H319 C327 0.930 . S
H320 C330 0.930 . S
H321 C331 0.930 . S
C322 H316 0.930 . S
C322 C323 1.355 1_556 S
C322 C324 1.415 . S
C323 C322 1.355 1_554 S
C323 C325 1.419 . S
C324 C322 1.415 . S
C324 C329 1.425 1_556 S
C324 C331 1.409 . S
C325 H317 0.930 . S
C325 C323 1.419 . S
C325 C326 1.362 . S
C326 H318 0.930 . S
C326 C325 1.362 . S
C326 C329 1.409 . S
C327 H319 0.930 . S
C327 C328 1.355 . S
C327 C329 1.415 . S
C328 C327 1.355 . S
C328 C330 1.419 1_554 S
C329 C324 1.425 1_554 S
C329 C326 1.409 . S
C329 C327 1.415 . S
C330 H320 0.930 . S
C330 C328 1.419 1_556 S
C330 C331 1.362 . S
C331 H321 0.930 . S
C331 C324 1.409 . S
C331 C330 1.362 . S
H332 C338 0.930 . S
H333 C341 0.930 . S
H334 C342 0.930 . S
H335 C343 0.930 . S
H336 C346 0.930 . S
H337 C347 0.930 . S
C338 H332 0.930 . S
C338 C339 1.355 1_556 S
C338 C340 1.415 . S
C339 C338 1.355 1_554 S
C339 C341 1.419 . S
C340 C338 1.415 . S
C340 C345 1.425 1_556 S
C340 C347 1.409 . S
C341 H333 0.930 . S
C341 C339 1.419 . S
C341 C342 1.362 . S
C342 H334 0.930 . S
C342 C341 1.362 . S
C342 C345 1.409 . S
C343 H335 0.930 . S
C343 C344 1.355 . S
C343 C345 1.415 . S
C344 C343 1.355 . S
C344 C346 1.419 1_554 S
C345 C340 1.425 1_554 S
C345 C342 1.409 . S
C345 C343 1.415 . S
C346 H336 0.930 . S
C346 C344 1.419 1_556 S
C346 C347 1.362 . S
C347 H337 0.930 . S
C347 C340 1.409 . S
C347 C346 1.362 . S
H348 C354 0.930 . S
H349 C357 0.930 . S
H350 C358 0.930 . S
H351 C359 0.930 . S
H352 C362 0.930 . S
H353 C363 0.930 . S
C354 H348 0.930 . S
C354 C355 1.355 1_554 S
C354 C356 1.415 . S
C355 C354 1.355 1_556 S
C355 C357 1.419 . S
C356 C354 1.415 . S
C356 C361 1.425 1_554 S
C356 C363 1.409 . S
C357 H349 0.930 . S
C357 C355 1.419 . S
C357 C358 1.362 . S
C358 H350 0.930 . S
C358 C357 1.362 . S
C358 C361 1.409 . S
C359 H351 0.930 . S
C359 C360 1.355 1_556 S
C359 C361 1.415 . S
C360 C359 1.355 1_554 S
C360 C362 1.419 . S
C361 C356 1.425 1_556 S
C361 C358 1.409 . S
C361 C359 1.415 . S
C362 H352 0.930 . S
C362 C360 1.419 . S
C362 C363 1.362 . S
C363 H353 0.930 . S
C363 C356 1.409 . S
C363 C362 1.362 . S
H364 C370 0.930 . S
H365 C373 0.930 . S
H366 C374 0.930 . S
H367 C375 0.930 . S
H368 C378 0.930 . S
H369 C379 0.930 . S
C370 H364 0.930 . S
C370 C371 1.355 1_554 S
C370 C372 1.415 . S
C371 C370 1.355 1_556 S
C371 C373 1.419 . S
C372 C370 1.415 . S
C372 C377 1.425 1_554 S
C372 C379 1.409 . S
C373 H365 0.930 . S
C373 C371 1.419 . S
C373 C374 1.362 . S
C374 H366 0.930 . S
C374 C373 1.362 . S
C374 C377 1.409 . S
C375 H367 0.930 . S
C375 C376 1.355 . S
C375 C377 1.415 . S
C376 C375 1.355 . S
C376 C378 1.419 1_556 S
C377 C372 1.425 1_556 S
C377 C374 1.409 . S
C377 C375 1.415 . S
C378 H368 0.930 . S
C378 C376 1.419 1_554 S
C378 C379 1.362 . S
C379 H369 0.930 . S
C379 C372 1.409 . S
C379 C378 1.362 . S
H380 C386 0.930 . S
H381 C389 0.930 . S
H382 C390 0.930 . S
H383 C391 0.930 . S
H384 C394 0.930 . S
H385 C395 0.930 . S
C386 H380 0.930 . S
C386 C387 1.355 . S
C386 C388 1.415 . S
C387 C386 1.355 . S
C387 C389 1.419 . S
C388 C386 1.415 . S
C388 C393 1.425 . S
C388 C395 1.409 . S
C389 H381 0.930 . S
C389 C387 1.419 . S
C389 C390 1.362 . S
C390 H382 0.930 . S
C390 C389 1.362 . S
C390 C393 1.409 . S
C391 H383 0.930 . S
C391 C392 1.355 . S
C391 C393 1.415 . S
C392 C391 1.355 . S
C392 C394 1.419 . S
C393 C388 1.425 . S
C393 C390 1.409 . S
C393 C391 1.415 . S
C394 H384 0.930 . S
C394 C392 1.419 . S
C394 C395 1.362 . S
C395 H385 0.930 . S
C395 C388 1.409 . S
C395 C394 1.362 . S
C259 C75 1.463 . S
C264 C66 1.463 . S
C275 C159 1.479 . S
C280 C150 1.481 . S
C291 C243 1.525 . S
C296 C234 1.525 . S
C307 C56 1.545 . S
C312 C240 1.493 . S
C323 C156 0.702 . S
C328 C72 0.786 1_554 S
C339 C140 2.329 . S
C344 C235 2.373 . S
C355 C67 1.601 . S
C360 C231 1.492 . S
C371 C63 0.905 1_556 S
C376 C147 0.897 . S
C387 C224 2.399 . S
C392 C151 2.286 . S
