# Generated by pormake.
# Topology ume, (4)-cn, num edge types: 1
# Building blocks:
#     Node 0, Type 0, BuildingBlock: KOZSID_clean_sbu_0, # of connection points: 4
#     Node 1, Type 0, BuildingBlock: KOZSID_clean_sbu_0, # of connection points: 4
#     Node 2, Type 0, BuildingBlock: KOZSID_clean_sbu_0, # of connection points: 4
#     Node 3, Type 0, BuildingBlock: KOZSID_clean_sbu_0, # of connection points: 4
#     Node 4, Type 0, BuildingBlock: KOZSID_clean_sbu_0, # of connection points: 4
#     Node 5, Type 0, BuildingBlock: KOZSID_clean_sbu_0, # of connection points: 4
#     Node 6, Type 0, BuildingBlock: KOZSID_clean_sbu_0, # of connection points: 4
#     Node 7, Type 0, BuildingBlock: KOZSID_clean_sbu_0, # of connection points: 4
#     Node 8, Type 0, BuildingBlock: KOZSID_clean_sbu_0, # of connection points: 4
#     Node 9, Type 0, BuildingBlock: KOZSID_clean_sbu_0, # of connection points: 4
#     Node 10, Type 0, BuildingBlock: KOZSID_clean_sbu_0, # of connection points: 4
#     Node 11, Type 0, BuildingBlock: KOZSID_clean_sbu_0, # of connection points: 4
#     Node 12, Type 0, BuildingBlock: KOZSID_clean_sbu_0, # of connection points: 4
#     Node 13, Type 0, BuildingBlock: KOZSID_clean_sbu_0, # of connection points: 4
#     Node 14, Type 0, BuildingBlock: KOZSID_clean_sbu_0, # of connection points: 4
#     Node 15, Type 0, BuildingBlock: KOZSID_clean_sbu_0, # of connection points: 4
#     Edge 16, Type (0, 0), BuildingBlock: EZIPEK_clean_linker_0, # of connection points: 2
#     Edge 17, Type (0, 0), BuildingBlock: EZIPEK_clean_linker_0, # of connection points: 2
#     Edge 18, Type (0, 0), BuildingBlock: EZIPEK_clean_linker_0, # of connection points: 2
#     Edge 19, Type (0, 0), BuildingBlock: EZIPEK_clean_linker_0, # of connection points: 2
#     Edge 20, Type (0, 0), BuildingBlock: EZIPEK_clean_linker_0, # of connection points: 2
#     Edge 21, Type (0, 0), BuildingBlock: EZIPEK_clean_linker_0, # of connection points: 2
#     Edge 22, Type (0, 0), BuildingBlock: EZIPEK_clean_linker_0, # of connection points: 2
#     Edge 23, Type (0, 0), BuildingBlock: EZIPEK_clean_linker_0, # of connection points: 2
#     Edge 24, Type (0, 0), BuildingBlock: EZIPEK_clean_linker_0, # of connection points: 2
#     Edge 25, Type (0, 0), BuildingBlock: EZIPEK_clean_linker_0, # of connection points: 2
#     Edge 26, Type (0, 0), BuildingBlock: EZIPEK_clean_linker_0, # of connection points: 2
#     Edge 27, Type (0, 0), BuildingBlock: EZIPEK_clean_linker_0, # of connection points: 2
#     Edge 28, Type (0, 0), BuildingBlock: EZIPEK_clean_linker_0, # of connection points: 2
#     Edge 29, Type (0, 0), BuildingBlock: EZIPEK_clean_linker_0, # of connection points: 2
#     Edge 30, Type (0, 0), BuildingBlock: EZIPEK_clean_linker_0, # of connection points: 2
#     Edge 31, Type (0, 0), BuildingBlock: EZIPEK_clean_linker_0, # of connection points: 2
#     Edge 32, Type (0, 0), BuildingBlock: EZIPEK_clean_linker_0, # of connection points: 2
#     Edge 33, Type (0, 0), BuildingBlock: EZIPEK_clean_linker_0, # of connection points: 2
#     Edge 34, Type (0, 0), BuildingBlock: EZIPEK_clean_linker_0, # of connection points: 2
#     Edge 35, Type (0, 0), BuildingBlock: EZIPEK_clean_linker_0, # of connection points: 2
#     Edge 36, Type (0, 0), BuildingBlock: EZIPEK_clean_linker_0, # of connection points: 2
#     Edge 37, Type (0, 0), BuildingBlock: EZIPEK_clean_linker_0, # of connection points: 2
#     Edge 38, Type (0, 0), BuildingBlock: EZIPEK_clean_linker_0, # of connection points: 2
#     Edge 39, Type (0, 0), BuildingBlock: EZIPEK_clean_linker_0, # of connection points: 2
#     Edge 40, Type (0, 0), BuildingBlock: EZIPEK_clean_linker_0, # of connection points: 2
#     Edge 41, Type (0, 0), BuildingBlock: EZIPEK_clean_linker_0, # of connection points: 2
#     Edge 42, Type (0, 0), BuildingBlock: EZIPEK_clean_linker_0, # of connection points: 2
#     Edge 43, Type (0, 0), BuildingBlock: EZIPEK_clean_linker_0, # of connection points: 2
#     Edge 44, Type (0, 0), BuildingBlock: EZIPEK_clean_linker_0, # of connection points: 2
#     Edge 45, Type (0, 0), BuildingBlock: EZIPEK_clean_linker_0, # of connection points: 2
#     Edge 46, Type (0, 0), BuildingBlock: EZIPEK_clean_linker_0, # of connection points: 2
#     Edge 47, Type (0, 0), BuildingBlock: EZIPEK_clean_linker_0, # of connection points: 2
# Relax obj value: 0.055
# Max RMSD: 0.255
# Mean RMSD: 0.215
data_MOF--net-ume--node1-KOZSID_clean_sbu_0--edge1-EZIPEK_clean_linker_0
_symmetry_space_group_name_H-M    P1
_symmetry_Int_Tables_number       1
_symmetry_cell_setting            triclinic
loop_
_symmetry_equiv_pos_as_xyz
'x, y, z'
_cell_length_a     24.600956
_cell_length_b     30.34634
_cell_length_c     103.51562
_cell_angle_alpha  89.927133
_cell_angle_beta   90.067768
_cell_angle_gamma 90.026706
loop_
_atom_site_label
_atom_site_type_symbol
_atom_site_fract_x
_atom_site_fract_y
_atom_site_fract_z
_atom_type_partial_charge
C0 C 0.3632 0.08644 0.32374 0.0
C1 C 0.38692 0.12683 0.32648 0.0
C2 C 0.34923 0.15858 0.32334 0.0
C3 C 0.30469 0.13592 0.31882 0.0
N4 N 0.31204 0.09199 0.31909 0.0
Co5 Co 0.25971 0.04789 0.3125 0.0
N6 N 0.19815 0.09016 0.31265 0.0
C7 C 0.20258 0.13426 0.31325 0.0
C8 C 0.1527 0.15475 0.31353 0.0
C9 C 0.1148 0.12133 0.31309 0.0
C10 C 0.14363 0.08215 0.31259 0.0
N11 N 0.20765 1.00357 0.30564 0.0
C12 C 0.15267 1.00249 0.3062 0.0
C13 C 0.1325 0.96393 0.30076 0.0
C14 C 0.17628 0.94064 0.29643 0.0
C15 C 0.22066 0.96573 0.29959 0.0
N16 N 0.31916 1.00391 0.31267 0.0
C17 C 0.31933 0.96457 0.30665 0.0
C18 C 0.36287 0.93878 0.30993 0.0
C19 C 0.39238 0.96367 0.31839 0.0
C20 C 0.36575 1.00398 0.31955 0.0
N21 N 0.24238 0.03161 0.3308 0.0
C22 C 0.24185 0.01488 0.35791 0.0
C23 C 0.24757 0.98042 0.3489 0.0
C24 C 0.24713 0.98937 0.33543 0.0
C25 C 0.23338 0.05724 0.35296 0.0
C26 C 0.23377 0.06484 0.33956 0.0
N27 N 0.2805 0.06751 0.29442 0.0
C28 C 0.26439 0.11382 0.27539 0.0
C29 C 0.32032 0.11566 0.27234 0.0
C30 C 0.35477 0.09029 0.28017 0.0
C31 C 0.33434 0.06661 0.29089 0.0
C32 C 0.2454 0.08945 0.28629 0.0
H33 H 0.36327 0.04904 0.29662 0.0
H34 H 0.20238 0.08989 0.28832 0.0
H35 H 0.25311 0.96234 0.32882 0.0
H36 H 0.2299 0.09843 0.33639 0.0
C37 C 0.25343 0.15385 0.31575 0.0
C38 C 0.39162 0.04383 0.32477 0.0
C39 C 0.11841 0.03809 0.31123 0.0
C40 C 0.27352 0.94961 0.3001 0.0
H41 H 0.42739 0.13262 0.33023 0.0
H42 H 0.35348 0.19386 0.32446 0.0
H43 H 0.14471 0.18966 0.31449 0.0
H44 H 0.07108 0.12523 0.31314 0.0
H45 H 0.09071 0.95311 0.30015 0.0
H46 H 0.17594 0.90782 0.29234 0.0
H47 H 0.37109 0.90527 0.30696 0.0
H48 H 0.43037 0.95379 0.32279 0.0
H49 H 0.25392 0.947 0.35224 0.0
H50 H 0.22864 0.08489 0.35947 0.0
H51 H 0.23549 0.13198 0.26956 0.0
H52 H 0.39803 0.08962 0.27824 0.0
C53 C 0.96668 0.80425 0.5476 0.0
C54 C 0.00941 0.80795 0.53897 0.0
C55 C 0.05383 0.78829 0.5447 0.0
C56 C 0.03615 0.77377 0.55658 0.0
N57 N 0.98322 0.78266 0.55859 0.0
Co58 Co 0.94351 0.77158 0.57512 0.0
N59 N 0.01072 0.75894 0.58518 0.0
C60 C 0.05907 0.74851 0.57991 0.0
C61 C 0.09829 0.74067 0.58911 0.0
C62 C 0.07291 0.74632 0.60084 0.0
C63 C 0.01944 0.7575 0.59819 0.0
N64 N 0.90278 0.76505 0.59168 0.0
C65 C 0.92057 0.76519 0.60413 0.0
C66 C 0.87745 0.76109 0.6127 0.0
C67 C 0.83122 0.75793 0.60538 0.0
C68 C 0.8485 0.76052 0.5928 0.0
N69 N 0.87551 0.78233 0.565 0.0
C70 C 0.8249 0.77205 0.56895 0.0
C71 C 0.78551 0.78296 0.5601 0.0
C72 C 0.81274 0.80166 0.54996 0.0
C73 C 0.86746 0.80121 0.5532 0.0
N74 N 0.93936 0.7056 0.57163 0.0
C75 C 0.96432 0.61271 0.5702 0.0
C76 C 0.93103 0.63034 0.57997 0.0
C77 C 0.92132 0.67621 0.58085 0.0
C78 C 0.98036 0.64276 0.56056 0.0
C79 C 0.96449 0.6875 0.56101 0.0
N80 N 0.95203 0.83519 0.57869 0.0
C81 C 0.91798 0.90908 0.58214 0.0
C82 C 0.97127 0.926 0.58186 0.0
C83 C 0.01409 0.89653 0.58048 0.0
C84 C 0.00373 0.85203 0.57872 0.0
C85 C 0.90926 0.86328 0.58068 0.0
H86 H 0.03847 0.83177 0.57701 0.0
H87 H 0.86816 0.85082 0.58084 0.0
H88 H 0.90052 0.68686 0.58937 0.0
H89 H 0.97487 0.70707 0.55274 0.0
C90 C 0.06834 0.75594 0.56661 0.0
C91 C 0.91017 0.81926 0.54479 0.0
C92 C 0.97781 0.76563 0.60822 0.0
C93 C 0.81506 0.76195 0.5819 0.0
H94 H 0.00841 0.82311 0.5295 0.0
H95 H 0.09456 0.78614 0.54082 0.0
H96 H 0.14095 0.73396 0.58752 0.0
H97 H 0.09165 0.74315 0.61026 0.0
H98 H 0.87926 0.75982 0.62314 0.0
H99 H 0.78988 0.75482 0.60883 0.0
H100 H 0.7419 0.78032 0.56124 0.0
H101 H 0.7943 0.81507 0.54131 0.0
H102 H 0.91483 0.60908 0.58745 0.0
H103 H 0.00543 0.63202 0.55258 0.0
H104 H 0.88361 0.93104 0.58319 0.0
H105 H 0.05574 0.90819 0.58019 0.0
C106 C 0.13758 0.44302 0.82357 0.0
C107 C 0.11342 0.40267 0.82616 0.0
C108 C 0.1507 0.37083 0.82288 0.0
C109 C 0.19543 0.39342 0.81846 0.0
N110 N 0.18861 0.43739 0.8189 0.0
Co111 Co 0.24137 0.48151 0.81252 0.0
N112 N 0.3024 0.43869 0.81247 0.0
C113 C 0.29747 0.39459 0.81292 0.0
C114 C 0.34707 0.37366 0.81309 0.0
C115 C 0.38537 0.40678 0.81272 0.0
C116 C 0.35702 0.44621 0.81238 0.0
N117 N 0.29389 0.52582 0.80584 0.0
C118 C 0.3489 0.52628 0.8063 0.0
C119 C 0.36949 0.56492 0.80098 0.0
C120 C 0.32593 0.58896 0.79685 0.0
C121 C 0.28127 0.56418 0.79999 0.0
N122 N 0.18252 0.52599 0.81293 0.0
C123 C 0.18278 0.56575 0.80711 0.0
C124 C 0.13939 0.59155 0.81046 0.0
C125 C 0.10951 0.56625 0.81873 0.0
C126 C 0.13584 0.52575 0.81975 0.0
N127 N 0.25915 0.49654 0.8309 0.0
C128 C 0.26038 0.51191 0.85809 0.0
C129 C 0.25516 0.54686 0.84919 0.0
C130 C 0.25523 0.53858 0.83569 0.0
C131 C 0.26795 0.46969 0.85298 0.0
C132 C 0.26723 0.46277 0.83954 0.0
N133 N 0.22 0.46325 0.79433 0.0
C134 C 0.14531 0.44358 0.77976 0.0
C135 C 0.17889 0.41755 0.77196 0.0
C136 C 0.23469 0.41747 0.77517 0.0
C137 C 0.25438 0.44075 0.78618 0.0
C138 C 0.16634 0.46592 0.79066 0.0
H139 H 0.29731 0.43906 0.78828 0.0
H140 H 0.13789 0.48399 0.79637 0.0
H141 H 0.24968 0.56602 0.82918 0.0
H142 H 0.27048 0.42931 0.83624 0.0
C143 C 0.24644 0.37525 0.81534 0.0
C144 C 0.10963 0.48574 0.82476 0.0
C145 C 0.38279 0.49007 0.81112 0.0
C146 C 0.22867 0.58076 0.80062 0.0
H147 H 0.07293 0.39698 0.82989 0.0
H148 H 0.14607 0.33552 0.82387 0.0
H149 H 0.35463 0.33864 0.8139 0.0
H150 H 0.42904 0.4025 0.8127 0.0
H151 H 0.41145 0.57527 0.80032 0.0
H152 H 0.32664 0.622 0.79289 0.0
H153 H 0.13143 0.62527 0.80761 0.0
H154 H 0.07145 0.57599 0.8231 0.0
H155 H 0.24952 0.5802 0.85265 0.0
H156 H 0.27229 0.44166 0.85938 0.0
H157 H 0.10225 0.44576 0.77766 0.0
H158 H 0.26295 0.39881 0.76932 0.0
C159 C 0.53205 0.71912 0.04611 0.0
C160 C 0.48929 0.7085 0.03798 0.0
C161 C 0.44253 0.72211 0.04401 0.0
C162 C 0.45895 0.74009 0.05555 0.0
N163 N 0.51351 0.73984 0.05706 0.0
Co164 Co 0.55296 0.75488 0.07351 0.0
N165 N 0.48463 0.76407 0.08367 0.0
C166 C 0.4341 0.76696 0.07861 0.0
C167 C 0.39478 0.77206 0.08792 0.0
C168 C 0.42198 0.77209 0.09952 0.0
C169 C 0.47659 0.76674 0.09671 0.0
N170 N 0.59365 0.76594 0.08998 0.0
C171 C 0.5762 0.76675 0.10245 0.0
C172 C 0.61941 0.77153 0.11099 0.0
C173 C 0.66551 0.77363 0.10369 0.0
C174 C 0.6481 0.76967 0.09117 0.0
N175 N 0.62178 0.74711 0.06332 0.0
C176 C 0.67225 0.75756 0.06741 0.0
C177 C 0.71209 0.74847 0.05855 0.0
C178 C 0.68561 0.73034 0.04824 0.0
C179 C 0.63091 0.72916 0.05144 0.0
N180 N 0.55144 0.82077 0.06944 0.0
C181 C 0.53225 0.91467 0.06866 0.0
C182 C 0.58113 0.89672 0.07349 0.0
C183 C 0.58927 0.85033 0.07406 0.0
C184 C 0.49551 0.88426 0.06345 0.0
C185 C 0.50697 0.83886 0.06335 0.0
N186 N 0.55065 0.69094 0.07771 0.0
C187 C 0.59187 0.61906 0.08068 0.0
C188 C 0.54023 0.59922 0.08114 0.0
C189 C 0.49481 0.62602 0.08051 0.0
C190 C 0.50077 0.67094 0.07866 0.0
C191 C 0.59618 0.66529 0.07914 0.0
H192 H 0.46371 0.68838 0.07762 0.0
H193 H 0.63612 0.6798 0.07871 0.0
H194 H 0.62622 0.83934 0.07843 0.0
H195 H 0.47808 0.81927 0.05841 0.0
C196 C 0.4246 0.75435 0.06566 0.0
C197 C 0.58976 0.7086 0.04311 0.0
C198 C 0.51944 0.76329 0.10668 0.0
C199 C 0.68183 0.76685 0.08039 0.0
H200 H 0.49169 0.69186 0.02875 0.0
H201 H 0.40127 0.71774 0.0406 0.0
H202 H 0.35118 0.77268 0.08652 0.0
H203 H 0.40366 0.77429 0.109 0.0
H204 H 0.61798 0.77283 0.12143 0.0
H205 H 0.70694 0.77641 0.10713 0.0
H206 H 0.7556 0.75179 0.05978 0.0
H207 H 0.70464 0.7178 0.03957 0.0
H208 H 0.61239 0.91833 0.07725 0.0
H209 H 0.45748 0.89544 0.05931 0.0
H210 H 0.62825 0.59906 0.08116 0.0
H211 H 0.4543 0.61194 0.08081 0.0
C212 C 0.36307 0.44156 0.94898 0.0
C213 C 0.38758 0.40153 0.94621 0.0
C214 C 0.35097 0.36919 0.94957 0.0
C215 C 0.30627 0.39116 0.95424 0.0
N216 N 0.31257 0.4352 0.95389 0.0
Co217 Co 0.25952 0.4786 0.96043 0.0
N218 N 0.19884 0.43549 0.96028 0.0
C219 C 0.20414 0.39145 0.95975 0.0
C220 C 0.15465 0.3703 0.95942 0.0
C221 C 0.11611 0.40323 0.95977 0.0
C222 C 0.14418 0.44279 0.96026 0.0
N223 N 0.20666 0.52222 0.96725 0.0
C224 C 0.15166 0.52252 0.96668 0.0
C225 C 0.13075 0.56067 0.97218 0.0
C226 C 0.1741 0.58454 0.97654 0.0
C227 C 0.21898 0.56014 0.97335 0.0
N228 N 0.31799 0.52337 0.96022 0.0
C229 C 0.3176 0.56261 0.9663 0.0
C230 C 0.3606 0.58897 0.96299 0.0
C231 C 0.39026 0.56459 0.95445 0.0
C232 C 0.36423 0.52402 0.95324 0.0
N233 N 0.24188 0.49445 0.94211 0.0
C234 C 0.24169 0.51108 0.91498 0.0
C235 C 0.24547 0.54572 0.92401 0.0
C236 C 0.2452 0.53678 0.93748 0.0
C237 C 0.23472 0.46853 0.91994 0.0
C238 C 0.23479 0.46101 0.93334 0.0
N239 N 0.28091 0.4595 0.97855 0.0
C240 C 0.35563 0.43909 0.99303 0.0
C241 C 0.32189 0.41316 1.00085 0.0
C242 C 0.26604 0.41341 0.99768 0.0
C243 C 0.24643 0.43696 0.98668 0.0
C244 C 0.33466 0.46174 0.98217 0.0
H245 H 0.20348 0.43547 0.98459 0.0
H246 H 0.36318 0.47973 0.97643 0.0
H247 H 0.24995 0.56395 0.94411 0.0
H248 H 0.23181 0.42736 0.93653 0.0
C249 C 0.2554 0.37251 0.95732 0.0
C250 C 0.39018 0.48468 0.94774 0.0
C251 C 0.11815 0.48654 0.96156 0.0
C252 C 0.27158 0.57694 0.97287 0.0
H253 H 0.42779 0.39636 0.94226 0.0
H254 H 0.35591 0.33398 0.94843 0.0
H255 H 0.14734 0.33528 0.95849 0.0
H256 H 0.07246 0.39875 0.95967 0.0
H257 H 0.08872 0.57084 0.97282 0.0
H258 H 0.17312 0.61728 0.98067 0.0
H259 H 0.3683 0.62255 0.96599 0.0
H260 H 0.42787 0.57503 0.94998 0.0
H261 H 0.25005 0.57935 0.92068 0.0
H262 H 0.23089 0.44077 0.91343 0.0
H263 H 0.39875 0.44099 0.99509 0.0
H264 H 0.23768 0.3948 1.00352 0.0
C265 C 0.53304 0.80948 0.22446 0.0
C266 C 0.49051 0.82323 0.23222 0.0
C267 C 0.44385 0.81776 0.22518 0.0
C268 C 0.4602 0.80075 0.21353 0.0
N269 N 0.51426 0.79381 0.21281 0.0
Co270 Co 0.55409 0.77571 0.19667 0.0
N271 N 0.4858 0.76909 0.18603 0.0
C272 C 0.43513 0.77809 0.1902 0.0
C273 C 0.39611 0.77285 0.18083 0.0
C274 C 0.42379 0.76073 0.16991 0.0
C275 C 0.47837 0.75916 0.17321 0.0
N276 N 0.59516 0.76002 0.18053 0.0
C277 C 0.57819 0.75298 0.16814 0.0
C278 C 0.62152 0.74421 0.15998 0.0
C279 C 0.6674 0.74618 0.16736 0.0
C280 C 0.64959 0.75601 0.17956 0.0
N281 N 0.62261 0.78013 0.20743 0.0
C282 C 0.67339 0.77187 0.20317 0.0
C283 C 0.71309 0.77867 0.21224 0.0
C284 C 0.68638 0.79319 0.22295 0.0
C285 C 0.6315 0.79429 0.21984 0.0
N286 N 0.54663 0.71096 0.20119 0.0
C287 C 0.52647 0.61762 0.20315 0.0
C288 C 0.57907 0.63474 0.20096 0.0
C289 C 0.588 0.6809 0.19978 0.0
C290 C 0.4853 0.64893 0.205 0.0
C291 C 0.49643 0.69444 0.20444 0.0
N292 N 0.55787 0.84023 0.19198 0.0
C293 C 0.58002 0.91556 0.19807 0.0
C294 C 0.53785 0.93186 0.19037 0.0
C295 C 0.51067 0.90259 0.18238 0.0
C296 C 0.52171 0.85765 0.18318 0.0
C297 C 0.58978 0.86982 0.19862 0.0
H298 H 0.49835 0.83811 0.17676 0.0
H299 H 0.62201 0.85944 0.20484 0.0
H300 H 0.62841 0.69163 0.19749 0.0
H301 H 0.46302 0.71585 0.20633 0.0
C302 C 0.42655 0.79348 0.20279 0.0
C303 C 0.5908 0.81513 0.2283 0.0
C304 C 0.52204 0.75568 0.16347 0.0
C305 C 0.68288 0.76184 0.19027 0.0
H306 H 0.49332 0.83754 0.24177 0.0
H307 H 0.40304 0.82678 0.22803 0.0
H308 H 0.35291 0.77885 0.18169 0.0
H309 H 0.40624 0.75597 0.16042 0.0
H310 H 0.6201 0.73756 0.14971 0.0
H311 H 0.70889 0.74141 0.16418 0.0
H312 H 0.75661 0.77563 0.211 0.0
H313 H 0.70562 0.80404 0.23179 0.0
H314 H 0.61307 0.61248 0.19974 0.0
H315 H 0.444 0.63833 0.20687 0.0
H316 H 0.6037 0.93773 0.20403 0.0
H317 H 0.47915 0.91417 0.17589 0.0
C318 C 0.14194 0.08459 0.44855 0.0
C319 C 0.11757 0.12467 0.44573 0.0
C320 C 0.1543 0.15692 0.44908 0.0
C321 C 0.19896 0.13485 0.45377 0.0
N322 N 0.19253 0.09083 0.45345 0.0
Co323 Co 0.24551 0.04733 0.46006 0.0
N324 N 0.30627 0.09038 0.45996 0.0
C325 C 0.30102 0.13444 0.4594 0.0
C326 C 0.35051 0.15558 0.45915 0.0
C327 C 0.38903 0.12264 0.45958 0.0
C328 C 0.36092 0.08308 0.46004 0.0
N329 N 0.29827 1.00362 0.46695 0.0
C330 C 0.35329 1.00332 0.46648 0.0
C331 C 0.37409 0.96512 0.47201 0.0
C332 C 0.33065 0.94122 0.4763 0.0
C333 C 0.28584 0.96565 0.47303 0.0
N334 N 0.1869 1.00263 0.45983 0.0
C335 C 0.18723 0.96333 0.4659 0.0
C336 C 0.14414 0.93707 0.46259 0.0
C337 C 0.11448 0.96157 0.45404 0.0
C338 C 0.14059 1.00212 0.45284 0.0
N339 N 0.26317 0.03148 0.44179 0.0
C340 C 0.26263 0.01488 0.4147 0.0
C341 C 0.25899 0.98023 0.42374 0.0
C342 C 0.25965 0.98916 0.4372 0.0
C343 C 0.26996 0.05741 0.41961 0.0
C344 C 0.27026 0.06492 0.43301 0.0
N345 N 0.22414 0.06638 0.47814 0.0
C346 C 0.23911 0.11227 0.49726 0.0
C347 C 0.18311 0.11319 0.50028 0.0
C348 C 0.14926 0.08763 0.49237 0.0
C349 C 0.1703 0.06461 0.48163 0.0
C350 C 0.25872 0.08857 0.48633 0.0
H351 H 0.14178 0.0468 0.47585 0.0
H352 H 0.30173 0.0897 0.48431 0.0
H353 H 0.25495 0.96199 0.44385 0.0
H354 H 0.27346 0.09855 0.43617 0.0
C355 C 0.24983 0.15343 0.4569 0.0
C356 C 0.11456 0.04156 0.44737 0.0
C357 C 0.38693 0.03935 0.46142 0.0
C358 C 0.23322 0.9489 0.4725 0.0
H359 H 0.07732 0.12993 0.44179 0.0
H360 H 0.14946 0.19215 0.44792 0.0
H361 H 0.35786 0.1906 0.45823 0.0
H362 H 0.43267 0.12711 0.45957 0.0
H363 H 0.41611 0.95497 0.47273 0.0
H364 H 0.33155 0.90845 0.48044 0.0
H365 H 0.13637 0.90348 0.46559 0.0
H366 H 0.07677 0.95126 0.44958 0.0
H367 H 0.25419 0.94662 0.42043 0.0
H368 H 0.27373 0.08517 0.41308 0.0
H369 H 0.26756 0.13064 0.50315 0.0
H370 H 0.106 0.08628 0.49427 0.0
C371 C 0.9677 0.72386 0.72517 0.0
C372 C 0.01044 0.71267 0.73325 0.0
C373 C 0.05726 0.72623 0.72722 0.0
C374 C 0.04087 0.74475 0.71574 0.0
N375 N 0.98631 0.74491 0.71426 0.0
Co376 Co 0.94694 0.76095 0.69787 0.0
N377 N 0.01535 0.77123 0.68778 0.0
C378 C 0.06587 0.77355 0.69287 0.0
C379 C 0.10525 0.77977 0.68363 0.0
C380 C 0.0781 0.7812 0.67203 0.0
C381 C 0.02347 0.77554 0.67478 0.0
N382 N 0.90636 0.77304 0.68142 0.0
C383 C 0.92399 0.77555 0.66898 0.0
C384 C 0.88097 0.78121 0.66045 0.0
C385 C 0.83469 0.78195 0.66771 0.0
C386 C 0.85191 0.77649 0.6802 0.0
N387 N 0.87802 0.75236 0.708 0.0
C388 C 0.82752 0.76262 0.70389 0.0
C389 C 0.78761 0.75301 0.71269 0.0
C390 C 0.81406 0.73474 0.72299 0.0
C391 C 0.86883 0.734 0.71985 0.0
N392 N 0.94822 0.82649 0.70227 0.0
C393 C 0.96723 0.92032 0.70341 0.0
C394 C 0.91824 0.90255 0.69858 0.0
C395 C 0.91016 0.85619 0.69784 0.0
C396 C 0.00415 0.8897 0.70845 0.0
C397 C 0.99282 0.84429 0.70836 0.0
N398 N 0.94951 0.69717 0.69338 0.0
C399 C 0.90866 0.62484 0.69102 0.0
C400 C 0.96038 0.6053 0.6903 0.0
C401 C 0.00557 0.63249 0.69036 0.0
C402 C 0.99942 0.6775 0.69202 0.0
C403 C 0.9041 0.67111 0.69236 0.0
H404 H 0.03648 0.69519 0.69265 0.0
H405 H 0.86406 0.68527 0.69304 0.0
H406 H 0.87312 0.84532 0.69348 0.0
H407 H 0.02194 0.82439 0.71314 0.0
C408 C 0.07525 0.75963 0.70571 0.0
C409 C 0.90997 0.71344 0.72819 0.0
C410 C 0.98076 0.77298 0.66477 0.0
C411 C 0.81807 0.77263 0.69094 0.0
H412 H 0.00799 0.6957 0.74243 0.0
H413 H 0.09851 0.72158 0.7306 0.0
H414 H 0.14884 0.78026 0.68505 0.0
H415 H 0.09646 0.7845 0.66258 0.0
H416 H 0.88277 0.78416 0.65003 0.0
H417 H 0.79332 0.78508 0.66425 0.0
H418 H 0.74409 0.75617 0.71144 0.0
H419 H 0.79499 0.72185 0.73162 0.0
H420 H 0.88686 0.92431 0.69494 0.0
H421 H 0.04227 0.90074 0.71258 0.0
H422 H 0.87243 0.60457 0.69095 0.0
H423 H 0.04614 0.61867 0.6898 0.0
C424 C 0.86056 0.57811 0.82317 0.0
C425 C 0.8849 0.6183 0.82586 0.0
C426 C 0.84773 0.65037 0.82265 0.0
C427 C 0.80288 0.62808 0.81816 0.0
N428 N 0.80955 0.58407 0.81849 0.0
Co429 Co 0.75666 0.54036 0.81195 0.0
N430 N 0.69573 0.58323 0.81208 0.0
C431 C 0.70072 0.6273 0.81267 0.0
C432 C 0.65113 0.64822 0.81299 0.0
C433 C 0.6128 0.61512 0.81257 0.0
C434 C 0.64112 0.57571 0.81205 0.0
N435 N 0.70402 0.49651 0.80509 0.0
C436 C 0.64902 0.49604 0.80561 0.0
C437 C 0.62828 0.45777 0.80012 0.0
C438 C 0.67174 0.43397 0.79583 0.0
C439 C 0.71651 0.45853 0.79906 0.0
N440 N 0.8154 0.4958 0.8122 0.0
C441 C 0.81503 0.45637 0.80623 0.0
C442 C 0.85822 0.43025 0.80956 0.0
C443 C 0.88804 0.45501 0.81799 0.0
C444 C 0.86194 0.49556 0.8191 0.0
N445 N 0.739 0.52436 0.83023 0.0
C446 C 0.73833 0.50728 0.8573 0.0
C447 C 0.74278 0.47283 0.84825 0.0
C448 C 0.74247 0.48197 0.8348 0.0
C449 C 0.73111 0.54988 0.85241 0.0
C450 C 0.7315 0.55764 0.83902 0.0
N451 N 0.77789 0.55952 0.79385 0.0
C452 C 0.85252 0.57979 0.77939 0.0
C453 C 0.81895 0.60634 0.7717 0.0
C454 C 0.76316 0.60636 0.77488 0.0
C455 C 0.74349 0.5825 0.78579 0.0
C456 C 0.83151 0.55693 0.79018 0.0
H457 H 0.70058 0.58414 0.78789 0.0
H458 H 0.85996 0.53852 0.79583 0.0
H459 H 0.74752 0.45492 0.82815 0.0
H460 H 0.72852 0.59133 0.83587 0.0
C461 C 0.75185 0.64647 0.81512 0.0
C462 C 0.88821 0.53524 0.82432 0.0
C463 C 0.61535 0.53188 0.8107 0.0
C464 C 0.7691 0.44182 0.79964 0.0
H465 H 0.92541 0.62376 0.82963 0.0
H466 H 0.85249 0.68563 0.82374 0.0
H467 H 0.6436 0.6832 0.81395 0.0
H468 H 0.56912 0.6194 0.81264 0.0
H469 H 0.5863 0.44745 0.79945 0.0
H470 H 0.67091 0.40117 0.79174 0.0
H471 H 0.86602 0.39663 0.80662 0.0
H472 H 0.92589 0.44488 0.82242 0.0
H473 H 0.74807 0.43923 0.85155 0.0
H474 H 0.72729 0.57752 0.85896 0.0
H475 H 0.89556 0.57765 0.77729 0.0
H476 H 0.73493 0.62541 0.76911 0.0
C477 C 0.46567 0.28997 0.04767 0.0
C478 C 0.50766 0.29007 0.03876 0.0
C479 C 0.55079 0.26826 0.04444 0.0
C480 C 0.53319 0.25601 0.05655 0.0
N481 N 0.48175 0.2688 0.05877 0.0
Co482 Co 0.44281 0.26119 0.0755 0.0
N483 N 0.50992 0.2491 0.08556 0.0
C484 C 0.55726 0.23605 0.08031 0.0
C485 C 0.59662 0.22876 0.08953 0.0
C486 C 0.57219 0.23739 0.10124 0.0
C487 C 0.51908 0.24966 0.09858 0.0
N488 N 0.4024 0.25677 0.09211 0.0
C489 C 0.42027 0.25871 0.10455 0.0
C490 C 0.37729 0.25412 0.11313 0.0
C491 C 0.33131 0.24849 0.10585 0.0
C492 C 0.34851 0.25009 0.09325 0.0
N493 N 0.37487 0.27183 0.06544 0.0
C494 C 0.32442 0.26127 0.06941 0.0
C495 C 0.28495 0.27203 0.06056 0.0
C496 C 0.31209 0.29076 0.0504 0.0
C497 C 0.36682 0.2905 0.05362 0.0
N498 N 0.43727 0.19553 0.07275 0.0
C499 C 0.46377 0.10366 0.07046 0.0
C500 C 0.44566 0.12203 0.08215 0.0
C501 C 0.4347 0.16752 0.0832 0.0
C502 C 0.46378 0.13225 0.0597 0.0
C503 C 0.44801 0.17695 0.06092 0.0
N504 N 0.45329 0.32483 0.07833 0.0
C505 C 0.42228 0.39926 0.0821 0.0
C506 C 0.47589 0.4151 0.08098 0.0
C507 C 0.51742 0.385 0.07889 0.0
C508 C 0.50533 0.34067 0.07742 0.0
C509 C 0.41187 0.35364 0.08087 0.0
H510 H 0.53887 0.31952 0.07525 0.0
H511 H 0.37061 0.34177 0.08169 0.0
H512 H 0.42712 0.17972 0.09276 0.0
H513 H 0.4476 0.19675 0.05228 0.0
C514 C 0.56536 0.23938 0.0668 0.0
C515 C 0.40977 0.30725 0.04503 0.0
C516 C 0.47765 0.25938 0.1086 0.0
C517 C 0.31488 0.25068 0.08236 0.0
H518 H 0.50704 0.30421 0.02916 0.0
H519 H 0.59089 0.26355 0.04039 0.0
H520 H 0.63871 0.21998 0.08793 0.0
H521 H 0.59116 0.23493 0.11065 0.0
H522 H 0.3791 0.25375 0.12358 0.0
H523 H 0.29012 0.24454 0.10933 0.0
H524 H 0.24136 0.26904 0.06168 0.0
H525 H 0.29365 0.30367 0.04168 0.0
H526 H 0.44315 0.10179 0.09076 0.0
H527 H 0.47666 0.12039 0.05033 0.0
H528 H 0.38897 0.4219 0.0837 0.0
H529 H 0.55915 0.39599 0.0779 0.0
C530 C 0.6401 0.95035 0.32335 0.0
C531 C 0.61535 0.9103 0.32602 0.0
C532 C 0.65234 0.87801 0.32292 0.0
C533 C 0.69751 0.90003 0.3185 0.0
N534 N 0.6912 0.94406 0.31877 0.0
Co535 Co 0.74464 0.98742 0.31227 0.0
N536 N 0.80524 0.94425 0.31254 0.0
C537 C 0.79982 0.90021 0.31315 0.0
C538 C 0.84923 0.879 0.31353 0.0
C539 C 0.88787 0.91188 0.31313 0.0
C540 C 0.85993 0.95147 0.31255 0.0
N541 N 0.79776 0.031 0.30547 0.0
C542 C 0.85274 0.03123 0.30607 0.0
C543 C 0.87384 0.06944 0.3006 0.0
C544 C 0.83064 0.09341 0.29622 0.0
C545 C 0.78567 0.06903 0.29937 0.0
N546 N 0.68623 0.0323 0.31237 0.0
C547 C 0.68704 0.0717 0.30635 0.0
C548 C 0.64412 0.09814 0.30961 0.0
C549 C 0.61398 0.07364 0.31804 0.0
C550 C 0.63962 0.0329 0.31921 0.0
N551 N 0.76207 1.00328 0.3306 0.0
C552 C 0.76314 0.0199 0.35771 0.0
C553 C 0.75848 0.0545 0.34867 0.0
C554 C 0.75859 0.04559 0.33521 0.0
C555 C 0.7702 0.97739 0.35278 0.0
C556 C 0.76958 0.96986 0.33938 0.0
N557 N 0.7237 0.96824 0.29415 0.0
C558 C 0.73863 0.92117 0.27527 0.0
C559 C 0.68286 0.92107 0.27202 0.0
C560 C 0.64921 0.94764 0.27966 0.0
C561 C 0.67012 0.97071 0.29043 0.0
C562 C 0.75818 0.94517 0.28617 0.0
H563 H 0.64165 0.98919 0.29602 0.0
H564 H 0.80106 0.94355 0.28832 0.0
H565 H 0.75346 0.07275 0.32858 0.0
H566 H 0.77244 0.93621 0.33622 0.0
C567 C 0.74846 0.88135 0.31555 0.0
C568 C 0.61283 0.99343 0.32443 0.0
C569 C 0.88612 0.99516 0.31118 0.0
C570 C 0.7332 0.08597 0.29983 0.0
H571 H 0.5747 0.9051 0.32971 0.0
H572 H 0.64723 0.84279 0.32402 0.0
H573 H 0.85643 0.84398 0.31452 0.0
H574 H 0.93151 0.90734 0.31324 0.0
H575 H 0.91588 0.07962 0.3 0.0
H576 H 0.83177 0.12621 0.2921 0.0
H577 H 0.63672 0.13181 0.30663 0.0
H578 H 0.57624 0.08408 0.32243 0.0
H579 H 0.75325 0.08804 0.352 0.0
H580 H 0.77411 0.94963 0.3593 0.0
H581 H 0.76696 0.9021 0.26956 0.0
H582 H 0.60616 0.94971 0.27753 0.0
C583 C 0.03898 0.23528 0.54673 0.0
C584 C 0.99728 0.2335 0.53774 0.0
C585 C 0.95246 0.25256 0.54342 0.0
C586 C 0.96897 0.26499 0.55559 0.0
N587 N 0.02152 0.25524 0.55786 0.0
Co588 Co 0.06004 0.2649 0.57465 0.0
N589 N 0.99194 0.27542 0.58451 0.0
C590 C 0.94365 0.28548 0.57913 0.0
C591 C 0.90375 0.2922 0.58821 0.0
C592 C 0.92861 0.28628 0.6 0.0
C593 C 0.98249 0.27615 0.59751 0.0
N594 N 0.09972 0.27087 0.5914 0.0
C595 C 0.08131 0.27016 0.60379 0.0
C596 C 0.1239 0.27484 0.6125 0.0
C597 C 0.17037 0.2791 0.60535 0.0
C598 C 0.15376 0.27658 0.59272 0.0
N599 N 0.12872 0.25529 0.56474 0.0
C600 C 0.17905 0.26523 0.56897 0.0
C601 C 0.21918 0.25331 0.56047 0.0
C602 C 0.19278 0.23432 0.55026 0.0
C603 C 0.13765 0.23592 0.55304 0.0
N604 N 0.0633 0.33119 0.57159 0.0
C605 C 0.03751 0.42397 0.57023 0.0
C606 C 0.06796 0.40588 0.58046 0.0
C607 C 0.07791 0.36005 0.58127 0.0
C608 C 0.02478 0.39448 0.56016 0.0
C609 C 0.04115 0.34982 0.56065 0.0
N610 N 0.05277 0.20102 0.57782 0.0
C611 C 0.08789 0.12925 0.58366 0.0
C612 C 0.03645 0.11018 0.58164 0.0
C613 C 0.99371 0.13746 0.57798 0.0
C614 C 0.00251 0.18232 0.57624 0.0
C615 C 0.0953 0.17487 0.5816 0.0
H616 H 0.968 0.20159 0.57345 0.0
H617 H 0.13521 0.18887 0.58297 0.0
H618 H 0.09599 0.34898 0.59011 0.0
H619 H 0.03362 0.33071 0.55212 0.0
C620 C 0.93567 0.28061 0.56569 0.0
C621 C 0.09525 0.21939 0.54419 0.0
C622 C 0.0239 0.26903 0.6077 0.0
C623 C 0.18783 0.2755 0.58195 0.0
H624 H 0.99913 0.2197 0.52811 0.0
H625 H 0.91215 0.2555 0.53932 0.0
H626 H 0.86114 0.29888 0.58648 0.0
H627 H 0.90938 0.28898 0.60937 0.0
H628 H 0.12156 0.27586 0.62294 0.0
H629 H 0.21144 0.2828 0.60895 0.0
H630 H 0.2627 0.2553 0.56192 0.0
H631 H 0.21216 0.22006 0.54188 0.0
H632 H 0.0816 0.42669 0.58832 0.0
H633 H 0.00199 0.4056 0.55183 0.0
H634 H 0.12208 0.10898 0.5865 0.0
H635 H 0.95345 0.12403 0.57636 0.0
C636 C 0.86423 0.95078 0.44863 0.0
C637 C 0.8881 0.91043 0.44595 0.0
C638 C 0.85105 0.87857 0.44942 0.0
C639 C 0.80672 0.90113 0.45404 0.0
N640 N 0.81363 0.9451 0.45356 0.0
Co641 Co 0.76118 0.98922 0.46001 0.0
N642 N 0.69998 0.94658 0.46008 0.0
C643 C 0.70477 0.90247 0.4597 0.0
C644 C 0.65507 0.88164 0.45956 0.0
C645 C 0.6169 0.91484 0.45987 0.0
C646 C 0.64539 0.95422 0.46016 0.0
N647 N 0.70894 0.03355 0.46672 0.0
C648 C 0.65392 0.0342 0.46624 0.0
C649 C 0.63357 0.07278 0.4716 0.0
C650 C 0.67731 0.09657 0.47578 0.0
C651 C 0.72183 0.07169 0.47263 0.0
N652 N 0.8203 0.03346 0.45961 0.0
C653 C 0.82046 0.07297 0.46553 0.0
C654 C 0.86384 0.09878 0.46214 0.0
C655 C 0.89319 0.07375 0.4537 0.0
C656 C 0.8666 0.03337 0.45264 0.0
N657 N 0.74352 1.00457 0.44167 0.0
C658 C 0.74374 0.02044 0.41453 0.0
C659 C 0.74799 0.05529 0.42346 0.0
C660 C 0.74744 0.04673 0.43694 0.0
C661 C 0.73603 0.97809 0.41957 0.0
C662 C 0.73592 0.97093 0.43299 0.0
N663 N 0.78248 0.97074 0.47816 0.0
C664 C 0.85709 0.94933 0.49251 0.0
C665 C 0.82267 0.92518 0.50065 0.0
C666 C 0.76666 0.9268 0.49765 0.0
C667 C 0.74747 0.94983 0.48652 0.0
C668 C 0.83644 0.9718 0.4816 0.0
H669 H 0.70441 0.94924 0.48451 0.0
H670 H 0.86526 0.98864 0.47565 0.0
H671 H 0.75255 0.07405 0.4435 0.0
H672 H 0.73241 0.93742 0.43627 0.0
C673 C 0.75571 0.88304 0.45726 0.0
C674 C 0.89215 0.99354 0.44732 0.0
C675 C 0.61982 0.99816 0.46138 0.0
C676 C 0.77464 0.08801 0.47205 0.0
H677 H 0.92825 0.90473 0.44202 0.0
H678 H 0.85548 0.84327 0.44838 0.0
H679 H 0.64737 0.84663 0.45878 0.0
H680 H 0.57321 0.91064 0.4599 0.0
H681 H 0.59167 0.08324 0.47228 0.0
H682 H 0.6768 0.1295 0.47979 0.0
H683 H 0.87201 0.13241 0.46502 0.0
H684 H 0.93098 0.08362 0.44921 0.0
H685 H 0.75316 0.08877 0.42005 0.0
H686 H 0.73183 0.9502 0.41313 0.0
H687 H 0.90039 0.95008 0.4944 0.0
H688 H 0.73787 0.90944 0.50371 0.0
C689 C 0.0346 0.29519 0.72519 0.0
C690 C 0.99277 0.29514 0.73414 0.0
C691 C 0.9495 0.27349 0.72848 0.0
C692 C 0.96688 0.26149 0.71634 0.0
N693 N 0.01832 0.27427 0.71408 0.0
Co694 Co 0.05703 0.26696 0.69732 0.0
N695 N 0.98973 0.25507 0.68731 0.0
C696 C 0.94239 0.24208 0.69259 0.0
C697 C 0.90291 0.23478 0.68341 0.0
C698 C 0.92725 0.24332 0.67169 0.0
C699 C 0.98043 0.25552 0.6743 0.0
N700 N 0.09725 0.26283 0.68066 0.0
C701 C 0.0792 0.26473 0.66824 0.0
C702 C 0.12207 0.26033 0.65962 0.0
C703 C 0.16818 0.25483 0.66687 0.0
C704 C 0.15114 0.25632 0.67948 0.0
N705 N 0.12514 0.27741 0.70732 0.0
C706 C 0.17554 0.26699 0.70331 0.0
C707 C 0.21513 0.2776 0.71214 0.0
C708 C 0.18813 0.29609 0.72234 0.0
C709 C 0.13335 0.29585 0.71916 0.0
N710 N 0.0625 0.20123 0.69999 0.0
C711 C 0.03583 0.10931 0.70212 0.0
C712 C 0.05418 0.12796 0.69048 0.0
C713 C 0.06526 0.17346 0.68952 0.0
C714 C 0.03571 0.13761 0.71293 0.0
C715 C 0.05155 0.18234 0.71178 0.0
N716 N 0.04666 0.33069 0.69454 0.0
C717 C 0.07776 0.40498 0.69045 0.0
C718 C 0.02427 0.42097 0.69164 0.0
C719 C 0.98276 0.39101 0.694 0.0
C720 C 0.99474 0.34666 0.69556 0.0
C721 C 0.08807 0.35938 0.69182 0.0
H722 H 0.96123 0.32557 0.69784 0.0
H723 H 0.12924 0.34742 0.69091 0.0
H724 H 0.07307 0.18583 0.67998 0.0
H725 H 0.05186 0.20191 0.72046 0.0
C726 C 0.93449 0.24515 0.70611 0.0
C727 C 0.09053 0.31242 0.72779 0.0
C728 C 0.02178 0.26501 0.66424 0.0
C729 C 0.18492 0.25673 0.69035 0.0
H730 H 0.99358 0.30909 0.74375 0.0
H731 H 0.90945 0.26874 0.73256 0.0
H732 H 0.86084 0.22597 0.68505 0.0
H733 H 0.9082 0.24079 0.66229 0.0
H734 H 0.1201 0.25992 0.64918 0.0
H735 H 0.20931 0.25095 0.66336 0.0
H736 H 0.25871 0.27468 0.71098 0.0
H737 H 0.20668 0.30885 0.73106 0.0
H738 H 0.05679 0.10794 0.68185 0.0
H739 H 0.02269 0.12549 0.72227 0.0
H740 H 0.11106 0.42748 0.68865 0.0
H741 H 0.94112 0.4021 0.69505 0.0
C742 C 0.64055 0.57545 0.94817 0.0
C743 C 0.61662 0.61583 0.9455 0.0
C744 C 0.65386 0.64764 0.94888 0.0
C745 C 0.69835 0.62502 0.95343 0.0
N746 N 0.69136 0.58106 0.953 0.0
Co747 Co 0.74389 0.53688 0.95945 0.0
N748 N 0.80517 0.57952 0.95946 0.0
C749 C 0.80044 0.62363 0.95897 0.0
C750 C 0.85015 0.64444 0.95881 0.0
C751 C 0.88828 0.61123 0.95922 0.0
C752 C 0.85976 0.57186 0.95959 0.0
N753 N 0.7962 0.49251 0.96619 0.0
C754 C 0.85123 0.4919 0.96577 0.0
C755 C 0.87158 0.45327 0.97114 0.0
C756 C 0.82787 0.4294 0.97527 0.0
C757 C 0.78334 0.45427 0.97208 0.0
N758 N 0.68482 0.49257 0.95903 0.0
C759 C 0.6848 0.4529 0.96489 0.0
C760 C 0.64137 0.42715 0.9615 0.0
C761 C 0.61181 0.45237 0.95312 0.0
C762 C 0.63836 0.49279 0.95209 0.0
N763 N 0.76135 0.52159 0.94113 0.0
C764 C 0.76011 0.50584 0.91402 0.0
C765 C 0.75627 0.47093 0.92296 0.0
C766 C 0.75738 0.47943 0.93643 0.0
C767 C 0.76805 0.54816 0.91902 0.0
C768 C 0.76866 0.55526 0.93243 0.0
N769 N 0.72265 0.55536 0.97759 0.0
C770 C 0.64792 0.57513 0.99206 0.0
C771 C 0.68133 0.6018 0.99974 0.0
C772 C 0.73712 0.60205 0.99657 0.0
C773 C 0.75693 0.57835 0.98566 0.0
C774 C 0.66906 0.55245 0.98127 0.0
H775 H 0.79984 0.58016 0.98359 0.0
H776 H 0.64067 0.53397 0.97563 0.0
H777 H 0.75257 0.45209 0.94301 0.0
H778 H 0.77224 0.58877 0.93568 0.0
C779 C 0.74948 0.64309 0.95655 0.0
C780 C 0.61253 0.53275 0.94692 0.0
C781 C 0.88536 0.52796 0.96093 0.0
C782 C 0.73061 0.43785 0.97143 0.0
H783 H 0.57632 0.62156 0.94165 0.0
H784 H 0.64944 0.68295 0.94783 0.0
H785 H 0.85788 0.67944 0.95797 0.0
H786 H 0.93198 0.61541 0.95927 0.0
H787 H 0.91349 0.44282 0.97185 0.0
H788 H 0.8284 0.39642 0.97927 0.0
H789 H 0.63322 0.39348 0.96436 0.0
H790 H 0.57383 0.44265 0.94868 0.0
H791 H 0.75097 0.43747 0.91957 0.0
H792 H 0.77196 0.57608 0.91255 0.0
H793 H 0.6049 0.57278 0.99416 0.0
H794 H 0.76524 0.62117 1.00234 0.0
C795 C 0.46127 0.24264 0.2263 0.0
C796 C 0.50226 0.24364 0.23548 0.0
C797 C 0.54622 0.26422 0.2298 0.0
C798 C 0.52992 0.27489 0.21745 0.0
N799 N 0.47848 0.26232 0.2151 0.0
Co800 Co 0.44063 0.26887 0.19819 0.0
N801 N 0.50884 0.27726 0.18826 0.0
C802 C 0.55668 0.28902 0.19355 0.0
C803 C 0.59683 0.29408 0.18442 0.0
C804 C 0.57243 0.28539 0.17271 0.0
C805 C 0.51853 0.2754 0.17528 0.0
N806 N 0.40119 0.27333 0.18141 0.0
C807 C 0.41944 0.27014 0.16904 0.0
C808 C 0.37706 0.27565 0.16031 0.0
C809 C 0.33113 0.28319 0.16744 0.0
C810 C 0.34776 0.28176 0.1801 0.0
N811 N 0.372 0.26087 0.20813 0.0
C812 C 0.32201 0.2717 0.2039 0.0
C813 C 0.28173 0.26019 0.21244 0.0
C814 C 0.30785 0.24065 0.22265 0.0
C815 C 0.36297 0.24151 0.21983 0.0
N816 N 0.438 0.33492 0.20035 0.0
C817 C 0.46305 0.4272 0.20244 0.0
C818 C 0.45108 0.40731 0.19052 0.0
C819 C 0.44036 0.36175 0.18965 0.0
C820 C 0.45846 0.39978 0.21342 0.0
C821 C 0.44415 0.35463 0.21222 0.0
N822 N 0.44742 0.20464 0.19592 0.0
C823 C 0.41284 0.13253 0.19033 0.0
C824 C 0.4639 0.11351 0.19291 0.0
C825 C 0.50601 0.14098 0.1969 0.0
C826 C 0.49716 0.18598 0.19825 0.0
C827 C 0.40532 0.17831 0.192 0.0
H828 H 0.53124 0.20559 0.20119 0.0
H829 H 0.36584 0.19243 0.19009 0.0
H830 H 0.4368 0.34836 0.18009 0.0
H831 H 0.44068 0.3354 0.22095 0.0
C832 C 0.56363 0.28832 0.20712 0.0
C833 C 0.40554 0.22505 0.22868 0.0
C834 C 0.47692 0.26734 0.16515 0.0
C835 C 0.31362 0.28217 0.19089 0.0
H836 H 0.50055 0.23061 0.24521 0.0
H837 H 0.58615 0.26881 0.23399 0.0
H838 H 0.63918 0.30189 0.18609 0.0
H839 H 0.59183 0.28667 0.16334 0.0
H840 H 0.37926 0.27529 0.14987 0.0
H841 H 0.29028 0.2881 0.16383 0.0
H842 H 0.23825 0.26284 0.21103 0.0
H843 H 0.28834 0.2267 0.23107 0.0
H844 H 0.45284 0.42653 0.1817 0.0
H845 H 0.46664 0.41296 0.22294 0.0
H846 H 0.37926 0.11222 0.18712 0.0
H847 H 0.54602 0.12768 0.19891 0.0
C848 C 0.97396 1.01082 0.32349 0.0
C849 C 0.94718 1.0015 0.31162 0.0
C850 C 0.02863 0.02587 0.29981 0.0
C851 C 0.05748 0.03097 0.31161 0.0
N852 N 0.05955 0.0234 0.33476 0.0
N853 N 0.95346 0.99087 0.28862 0.0
C854 C 0.0306 0.0221 0.32349 0.0
C855 C 0.97618 1.00592 0.29983 0.0
N856 N 0.9449 1.01 0.33472 0.0
N857 N 0.0514 0.04044 0.28856 0.0
H858 H 0.91525 0.97594 0.28833 0.0
H859 H 0.97446 0.98941 0.27991 0.0
H860 H 0.08954 0.05547 0.28823 0.0
H861 H 0.03048 0.04142 0.27981 0.0
H862 H 0.96011 0.02121 0.34351 0.0
H863 H 0.90419 1.00038 0.33509 0.0
H864 H 0.04423 1.01258 0.34358 0.0
H865 H 0.10028 0.03297 0.33513 0.0
C866 C 0.98807 0.53938 0.55849 0.0
C867 C 0.98259 0.56403 0.57017 0.0
C868 C 0.00214 0.49434 0.58175 0.0
C869 C 0.01878 0.47254 0.57017 0.0
N870 N 0.04345 0.48493 0.54778 0.0
N871 N 0.00568 0.56385 0.59299 0.0
C872 C 0.01643 0.49812 0.55859 0.0
C873 C 0.99588 0.54125 0.58185 0.0
N874 N 0.96406 0.55353 0.54736 0.0
N875 N 0.98919 0.4708 0.59255 0.0
H876 H 0.00857 0.5981 0.5933 0.0
H877 H 0.01841 0.54811 0.60144 0.0
H878 H 0.98623 0.43654 0.59257 0.0
H879 H 0.9741 0.48583 0.60087 0.0
H880 H 0.9648 0.5349 0.5389 0.0
H881 H 0.93754 0.5803 0.5471 0.0
H882 H 0.04493 0.50424 0.53943 0.0
H883 H 0.07012 0.45824 0.54777 0.0
C884 C 0.52496 0.52093 0.79946 0.0
C885 C 0.55438 0.52524 0.8112 0.0
C886 C 0.47125 0.50513 0.82322 0.0
C887 C 0.44382 0.49656 0.81139 0.0
N888 N 0.44875 0.48721 0.78833 0.0
N889 N 0.55747 0.51668 0.83431 0.0
C890 C 0.47223 0.50146 0.79954 0.0
C891 C 0.52798 0.51605 0.82312 0.0
N892 N 0.54745 0.53577 0.7882 0.0
N893 N 0.44273 0.50393 0.83453 0.0
H894 H 0.5983 0.526 0.83461 0.0
H895 H 0.54249 0.50557 0.84313 0.0
H896 H 0.40194 0.49458 0.83498 0.0
H897 H 0.45848 0.5146 0.84333 0.0
H898 H 0.52616 0.53737 0.77951 0.0
H899 H 0.58583 0.55038 0.78783 0.0
H900 H 0.46928 0.48606 0.77954 0.0
H901 H 0.41034 0.47263 0.78807 0.0
C902 C 0.46852 0.02723 0.05933 0.0
C903 C 0.48357 0.05561 0.06971 0.0
C904 C 0.5266 0.99062 0.08012 0.0
C905 C 0.51865 0.96416 0.06888 0.0
N906 N 0.49711 0.96591 0.04607 0.0
N907 N 0.54481 0.06431 0.08789 0.0
C908 C 0.49422 0.98511 0.05796 0.0
C909 C 0.518 0.03733 0.07949 0.0
N910 N 0.42761 0.03884 0.0511 0.0
N911 N 0.53948 0.97152 0.09166 0.0
H912 H 0.54412 0.09856 0.08708 0.0
H913 H 0.5732 0.05246 0.09453 0.0
H914 H 0.54141 0.93752 0.09297 0.0
H915 H 0.5414 0.98943 0.10024 0.0
H916 H 0.41286 0.01755 0.04401 0.0
H917 H 0.40398 0.06697 0.05241 0.0
H918 H 0.4833 0.98158 0.03771 0.0
H919 H 0.5193 0.93722 0.04438 0.0
C920 C 0.03074 0.50213 0.94906 0.0
C921 C 0.05712 0.49298 0.961 0.0
C922 C 0.97477 0.51648 0.9726 0.0
C923 C 0.94641 0.52137 0.96072 0.0
N924 N 0.94553 0.51415 0.93757 0.0
N925 N 0.05007 0.48239 0.98399 0.0
C926 C 0.97396 0.51292 0.94891 0.0
C927 C 0.02759 0.49717 0.97272 0.0
N928 N 0.0603 0.50159 0.9379 0.0
N929 N 0.95122 0.53066 0.98379 0.0
H930 H 0.08851 0.46792 0.9844 0.0
H931 H 0.02874 0.48069 0.99266 0.0
H932 H 0.91278 0.54518 0.98402 0.0
H933 H 0.9717 0.53186 0.9926 0.0
H934 H 0.04534 0.51268 0.92906 0.0
H935 H 0.10114 0.49235 0.93763 0.0
H936 H 0.96136 0.5036 0.92878 0.0
H937 H 0.90472 0.5234 0.9371 0.0
C938 C 0.45828 0.506 0.21211 0.0
C939 C 0.48154 0.47564 0.20317 0.0
C940 C 0.53108 0.53892 0.19346 0.0
C941 C 0.51352 0.56796 0.20345 0.0
N942 N 0.47254 0.57248 0.22462 0.0
N943 N 0.55474 0.46377 0.18798 0.0
C944 C 0.48078 0.54945 0.21348 0.0
C945 C 0.52235 0.49229 0.19464 0.0
N946 N 0.41281 0.49467 0.21888 0.0
N947 N 0.55355 0.5555 0.18242 0.0
H948 H 0.55293 0.42971 0.18925 0.0
H949 H 0.58776 0.47428 0.18246 0.0
H950 H 0.55705 0.58916 0.18061 0.0
H951 H 0.56252 0.53583 0.17446 0.0
H952 H 0.39181 0.51703 0.22466 0.0
H953 H 0.39246 0.4649 0.21753 0.0
H954 H 0.4528 0.55898 0.23261 0.0
H955 H 0.49111 0.60276 0.22642 0.0
C956 C 0.47478 0.0239 0.44916 0.0
C957 C 0.44799 0.03297 0.46103 0.0
C958 C 0.53004 1.00965 0.47283 0.0
C959 C 0.55879 1.0048 0.46103 0.0
N960 N 0.56039 1.01204 0.43788 0.0
N961 N 0.45424 0.04354 0.48403 0.0
C962 C 0.53159 1.01321 0.44915 0.0
C963 C 0.47715 0.02882 0.47281 0.0
N964 N 0.44559 0.02442 0.43792 0.0
N965 N 0.5533 0.99554 0.48409 0.0
H966 H 0.41573 0.05791 0.48433 0.0
H967 H 0.47528 0.04528 0.49275 0.0
H968 H 0.59179 0.98114 0.48442 0.0
H969 H 0.53255 0.9943 0.49285 0.0
H970 H 0.46086 1.01338 0.42912 0.0
H971 H 0.40473 0.03359 0.43755 0.0
H972 H 0.54482 0.02257 0.42904 0.0
H973 H 0.60125 1.00287 0.4375 0.0
C974 C 0.98145 0.0434 0.69294 0.0
C975 C 0.01591 0.06127 0.70276 0.0
C976 C 0.00528 0.99028 0.71432 0.0
C977 C 0.98079 0.96981 0.70334 0.0
N978 N 0.95978 0.97812 0.68059 0.0
N979 N 0.07181 0.04382 0.72134 0.0
C980 C 0.97277 0.99673 0.69218 0.0
C981 C 0.03094 0.03249 0.71307 0.0
N982 N 0.95471 0.07075 0.68461 0.0
N983 N 0.00252 0.97049 0.72614 0.0
H984 H 0.09535 0.07207 0.72013 0.0
H985 H 0.08659 0.02227 0.72837 0.0
H986 H 0.98042 0.94166 0.72774 0.0
H987 H 0.01634 0.98577 0.73455 0.0
H988 H 0.92628 0.05919 0.67795 0.0
H989 H 0.95551 0.10496 0.6855 0.0
H990 H 0.95786 0.99638 0.67206 0.0
H991 H 0.95775 0.94417 0.67918 0.0
C992 C 0.52367 1.00462 0.31411 0.0
C993 C 0.55242 0.99665 0.32567 0.0
C994 C 0.47631 0.02873 0.33776 0.0
C995 C 0.45214 0.0416 0.32591 0.0
N996 N 0.46616 0.05737 0.30341 0.0
N997 N 0.55686 1.00073 0.34877 0.0
C998 C 0.48056 0.03492 0.31427 0.0
C999 C 0.52883 1.00859 0.33765 0.0
N1000 N 0.53772 0.98333 0.30306 0.0
N1001 N 0.44873 0.03565 0.34898 0.0
H1002 H 0.59288 0.98258 0.34874 0.0
H1003 H 0.54488 1.01235 0.35779 0.0
H1004 H 0.41279 0.05389 0.34911 0.0
H1005 H 0.46101 0.02327 0.3579 0.0
H1006 H 0.51625 0.98711 0.29443 0.0
H1007 H 0.56571 0.95755 0.3032 0.0
H1008 H 0.48742 0.05456 0.29474 0.0
H1009 H 0.43803 0.08303 0.30379 0.0
C1010 C 0.00945 0.99296 0.57088 0.0
C1011 C 0.98437 0.97423 0.58197 0.0
C1012 C 0.99678 0.04455 0.59346 0.0
C1013 C 0.0257 0.06175 0.58268 0.0
N1014 N 0.07049 0.04842 0.5624 0.0
N1015 N 0.96223 0.97973 0.60459 0.0
C1016 C 0.03543 0.03468 0.57179 0.0
C1017 C 0.98009 0.99939 0.59349 0.0
N1018 N 0.00707 0.97135 0.55931 0.0
N1019 N 0.98485 0.07155 0.60362 0.0
H1020 H 0.94937 0.947 0.60494 0.0
H1021 H 0.96381 0.9948 0.61361 0.0
H1022 H 0.99937 0.10378 0.60427 0.0
H1023 H 0.95844 0.06279 0.61105 0.0
H1024 H 0.01943 0.98542 0.55061 0.0
H1025 H 0.98779 0.941 0.55818 0.0
H1026 H 0.08369 0.02814 0.55492 0.0
H1027 H 0.09079 0.07851 0.56282 0.0
C1028 C 0.025 0.50076 0.83769 0.0
C1029 C 0.04917 0.48818 0.82583 0.0
C1030 C 0.97744 0.52515 0.81404 0.0
C1031 C 0.94861 0.53256 0.82558 0.0
N1032 N 0.94436 0.5283 0.84868 0.0
N1033 N 0.03558 0.47323 0.80326 0.0
C1034 C 0.97235 0.52064 0.83757 0.0
C1035 C 0.02085 0.49516 0.81416 0.0
N1036 N 0.05273 0.49387 0.84891 0.0
N1037 N 0.96316 0.54667 0.80301 0.0
H1038 H 0.06408 0.44784 0.80358 0.0
H1039 H 0.01433 0.4762 0.79457 0.0
H1040 H 0.93477 0.57216 0.80316 0.0
H1041 H 0.98473 0.54336 0.79439 0.0
H1042 H 0.04044 0.50609 0.85783 0.0
H1043 H 0.08886 0.47589 0.84905 0.0
H1044 H 0.95656 0.51671 0.8577 0.0
H1045 H 0.90821 0.54627 0.84865 0.0
C1046 C 0.51764 0.52961 0.06921 0.0
C1047 C 0.5309 0.55058 0.08108 0.0
C1048 C 0.50091 0.48459 0.093 0.0
C1049 C 0.49027 0.46296 0.08109 0.0
N1050 N 0.49708 0.46196 0.05783 0.0
N1051 N 0.54097 0.54744 0.10416 0.0
C1052 C 0.50117 0.48468 0.06919 0.0
C1053 C 0.52435 0.52774 0.09296 0.0
N1054 N 0.51864 0.55329 0.05796 0.0
N1055 N 0.48802 0.46388 0.10434 0.0
H1056 H 0.55772 0.57903 0.10438 0.0
H1057 H 0.54192 0.53176 0.11309 0.0
H1058 H 0.47197 0.43207 0.10468 0.0
H1059 H 0.48985 0.47883 0.11336 0.0
H1060 H 0.50264 0.54189 0.04927 0.0
H1061 H 0.53214 0.58578 0.05745 0.0
H1062 H 0.5111 0.47398 0.04901 0.0
H1063 H 0.48311 0.42961 0.05728 0.0
C1064 C 0.48013 0.4944 0.95773 0.0
C1065 C 0.45042 0.4877 0.94625 0.0
C1066 C 0.52717 0.5183 0.93403 0.0
C1067 C 0.55205 0.53056 0.94586 0.0
N1068 N 0.5391 0.54592 0.96843 0.0
N1069 N 0.44407 0.49491 0.92318 0.0
C1070 C 0.52387 0.52404 0.95755 0.0
C1071 C 0.47354 0.50012 0.93423 0.0
N1072 N 0.4663 0.47274 0.96876 0.0
N1073 N 0.55503 0.52365 0.92277 0.0
H1074 H 0.40628 0.47922 0.92319 0.0
H1075 H 0.45638 0.50708 0.91425 0.0
H1076 H 0.59268 0.53951 0.9225 0.0
H1077 H 0.54151 0.51151 0.91392 0.0
H1078 H 0.4885 0.47574 0.97731 0.0
H1079 H 0.43764 0.44743 0.96867 0.0
H1080 H 0.51795 0.54315 0.97712 0.0
H1081 H 0.56793 0.57108 0.9681 0.0
C1082 C 0.4781 0.99018 0.20024 0.0
C1083 C 0.5188 0.97853 0.19111 0.0
C1084 C 0.51205 0.05215 0.18132 0.0
C1085 C 0.47578 0.06538 0.19126 0.0
N1086 N 0.42509 0.04789 0.21048 0.0
N1087 N 0.57817 0.99879 0.17363 0.0
C1088 C 0.45866 0.03448 0.20075 0.0
C1089 C 0.53668 1.00964 0.18181 0.0
N1090 N 0.45718 0.95851 0.20824 0.0
N1091 N 0.52165 0.08008 0.1712 0.0
H1092 H 0.59658 0.96783 0.17365 0.0
H1093 H 0.5972 0.02124 0.16752 0.0
H1094 H 0.50322 0.11092 0.17047 0.0
H1095 H 0.5435 0.07137 0.16299 0.0
H1096 H 0.4232 0.96319 0.21406 0.0
H1097 H 0.47179 0.92626 0.20855 0.0
H1098 H 0.41654 0.02904 0.21863 0.0
H1099 H 0.40739 0.07905 0.21071 0.0
C1100 C 0.98161 1.00235 0.4576 0.0
C1101 C 0.95256 0.99581 0.44603 0.0
C1102 C 0.0303 0.02622 0.43411 0.0
C1103 C 0.05419 0.03875 0.44604 0.0
N1104 N 0.03925 0.05424 0.46854 0.0
N1105 N 0.94793 1.00288 0.42294 0.0
C1106 C 0.02512 0.0322 0.4576 0.0
C1107 C 0.9766 1.00813 0.4341 0.0
N1108 N 0.96746 0.98032 0.46854 0.0
N1109 N 0.05909 0.03126 0.42297 0.0
H1110 H 0.91017 0.98716 0.42281 0.0
H1111 H 0.9609 0.01502 0.41405 0.0
H1112 H 0.09691 0.04688 0.42284 0.0
H1113 H 0.04618 0.01898 0.41409 0.0
H1114 H 0.98919 0.9833 0.47716 0.0
H1115 H 0.93916 0.95475 0.46829 0.0
H1116 H 0.01751 0.05125 0.47714 0.0
H1117 H 0.06751 0.07983 0.46828 0.0
C1118 C 1.0002 0.49165 0.70298 0.0
C1119 C 0.01004 0.46887 0.69122 0.0
C1120 C 0.97556 0.53282 0.67899 0.0
C1121 C 0.97007 0.5567 0.69071 0.0
N1122 N 0.9843 0.56132 0.71373 0.0
N1123 N 0.01068 0.46791 0.66797 0.0
C1124 C 0.98415 0.53668 0.70267 0.0
C1125 C 0.99871 0.48957 0.67919 0.0
N1126 N 0.00491 0.46986 0.71451 0.0
N1127 N 0.95812 0.55158 0.66771 0.0
H1128 H 0.02643 0.436 0.6678 0.0
H1129 H 0.00842 0.48218 0.65885 0.0
H1130 H 0.94157 0.5832 0.6673 0.0
H1131 H 0.95628 0.53509 0.65892 0.0
H1132 H 0.99169 0.48271 0.72328 0.0
H1133 H 0.01852 0.43746 0.71525 0.0
H1134 H 0.00083 0.55054 0.72244 0.0
H1135 H 0.97129 0.59397 0.71404 0.0
C1136 C 0.20242 0.99853 0.3803 0.0
C1137 C 0.24828 1.0082 0.37243 0.0
C1138 C 0.30511 1.01256 0.39224 0.0
C1139 C 0.25822 1.00792 0.40016 0.0
N1140 N 0.16127 0.99852 0.40171 0.0
N1141 N 0.34324 0.02617 0.37092 0.0
C1142 C 0.20669 1.00094 0.39416 0.0
C1143 C 0.29966 0.01539 0.37844 0.0
N1144 N 0.15471 0.98669 0.37449 0.0
N1145 N 0.35525 1.01314 0.39795 0.0
H1146 H 0.34145 0.02589 0.36086 0.0
H1147 H 0.38009 0.03757 0.37456 0.0
H1148 H 0.3606 1.01094 0.40793 0.0
H1149 H 0.39165 1.01202 0.39285 0.0
H1150 H 0.12105 0.97476 0.37946 0.0
H1151 H 0.15006 0.98561 0.36447 0.0
H1152 H 0.12182 0.99872 0.39809 0.0
H1153 H 0.16287 0.99881 0.41177 0.0
C1154 C 0.99057 0.72747 0.63011 0.0
C1155 C 0.9911 0.76691 0.62263 0.0
C1156 C 0.99476 0.81048 0.64284 0.0
C1157 C 0.9931 0.77108 0.65032 0.0
N1158 N 1.00006 0.69219 0.6512 0.0
N1159 N 0.00403 0.84529 0.62168 0.0
C1160 C 0.99466 0.72962 0.64395 0.0
C1161 C 0.99672 0.80819 0.62898 0.0
N1162 N 0.98359 0.688 0.62398 0.0
N1163 N 0.99202 0.85018 0.64902 0.0
H1164 H 0.0051 0.84459 0.6116 0.0
H1165 H 0.01316 0.87612 0.6255 0.0
H1166 H 0.99282 0.85298 0.65907 0.0
H1167 H 0.98645 0.88016 0.64432 0.0
H1168 H 0.97625 0.65839 0.62875 0.0
H1169 H 0.98241 0.6851 0.61394 0.0
H1170 H 0.00638 0.66101 0.64732 0.0
H1171 H 0.00252 0.69279 0.66126 0.0
C1172 C 0.30059 0.5278 0.88046 0.0
C1173 C 0.25451 0.51805 0.87264 0.0
C1174 C 0.19843 0.51326 0.89255 0.0
C1175 C 0.24555 0.51807 0.90041 0.0
N1176 N 0.34248 0.52785 0.90181 0.0
N1177 N 0.15961 0.49968 0.87128 0.0
C1178 C 0.29682 0.52529 0.89433 0.0
C1179 C 0.2034 0.51056 0.87874 0.0
N1180 N 0.34807 0.53982 0.87458 0.0
N1181 N 0.14849 0.51244 0.89833 0.0
H1182 H 0.16107 0.49995 0.86122 0.0
H1183 H 0.1229 0.4882 0.87497 0.0
H1184 H 0.14347 0.51455 0.90832 0.0
H1185 H 0.1119 0.51343 0.89329 0.0
H1186 H 0.38182 0.55187 0.87951 0.0
H1187 H 0.35244 0.54086 0.86456 0.0
H1188 H 0.38181 0.52781 0.89814 0.0
H1189 H 0.34123 0.52753 0.91188 0.0
C1190 C 0.50025 0.7214 0.12773 0.0
C1191 C 0.50726 0.7622 0.12113 0.0
C1192 C 0.52015 0.79918 0.14215 0.0
C1193 C 0.51141 0.75875 0.14889 0.0
N1194 N 0.48483 0.68249 0.14804 0.0
N1195 N 0.51032 0.84119 0.12225 0.0
C1196 C 0.49839 0.72029 0.14163 0.0
C1197 C 0.51229 0.80147 0.12846 0.0
N1198 N 0.49776 0.6834 0.12068 0.0
N1199 N 0.53949 0.83498 0.14867 0.0
H1200 H 0.50539 0.84385 0.11226 0.0
H1201 H 0.50827 0.87125 0.12707 0.0
H1202 H 0.548 0.83438 0.15849 0.0
H1203 H 0.55235 0.86382 0.14415 0.0
H1204 H 0.49924 0.65203 0.12474 0.0
H1205 H 0.49703 0.68329 0.1106 0.0
H1206 H 0.46985 0.65444 0.14348 0.0
H1207 H 0.48484 0.68024 0.15809 0.0
C1208 C 0.79655 0.50449 0.87774 0.0
C1209 C 0.74456 0.50018 0.87179 0.0
C1210 C 0.70291 0.49503 0.89355 0.0
C1211 C 0.755 0.49932 0.89949 0.0
N1212 N 0.85219 0.49984 0.89721 0.0
N1213 N 0.64943 0.4839 0.87393 0.0
C1214 C 0.80202 0.50157 0.89153 0.0
C1215 C 0.69814 0.49305 0.87971 0.0
N1216 N 0.84079 0.51269 0.87015 0.0
N1217 N 0.65762 0.49462 0.90118 0.0
H1218 H 0.64456 0.48305 0.86392 0.0
H1219 H 0.61487 0.47394 0.87893 0.0
H1220 H 0.65959 0.49435 0.91124 0.0
H1221 H 0.61814 0.49688 0.89764 0.0
H1222 H 0.87855 0.52211 0.87374 0.0
H1223 H 0.83885 0.5122 0.8601 0.0
H1224 H 0.88839 0.49687 0.8921 0.0
H1225 H 0.85751 0.49773 0.90719 0.0
C1226 C 0.49379 0.22388 0.14445 0.0
C1227 C 0.4905 0.26545 0.15074 0.0
C1228 C 0.49399 0.3018 0.12927 0.0
C1229 C 0.49048 0.26049 0.12304 0.0
N1230 N 0.4852 0.18156 0.12453 0.0
N1231 N 0.48794 0.34454 0.14925 0.0
C1232 C 0.49069 0.22127 0.1306 0.0
C1233 C 0.49163 0.30473 0.14315 0.0
N1234 N 0.50009 0.18681 0.1518 0.0
N1235 N 0.49925 0.33771 0.12147 0.0
H1236 H 0.48847 0.34755 0.15928 0.0
H1237 H 0.48227 0.37448 0.14455 0.0
H1238 H 0.50478 0.36994 0.12466 0.0
H1239 H 0.50478 0.36994 0.12466 0.0
H1240 H 0.5076 0.15567 0.14801 0.0
H1241 H 0.50223 0.18788 0.16187 0.0
H1242 H 0.47859 0.15192 0.12933 0.0
H1243 H 0.4845 0.17853 0.11449 0.0
C1244 C 0.80383 0.03476 0.38006 0.0
C1245 C 0.75733 0.0267 0.37222 0.0
C1246 C 0.70081 0.02387 0.39209 0.0
C1247 C 0.74807 0.02705 0.39996 0.0
N1248 N 0.84538 0.03361 0.40145 0.0
N1249 N 0.6615 1.01198 0.37078 0.0
C1250 C 0.79975 0.03248 0.39392 0.0
C1251 C 0.70577 0.02113 0.37828 0.0
N1252 N 0.85197 0.04502 0.3742 0.0
N1253 N 0.65083 0.02458 0.39785 0.0
H1254 H 0.66303 1.0125 0.36072 0.0
H1255 H 0.62419 1.00174 0.37444 0.0
H1256 H 0.64585 0.02663 0.40784 0.0
H1257 H 0.61435 0.02682 0.39279 0.0
H1258 H 0.88636 0.05573 0.37915 0.0
H1259 H 0.85642 0.04601 0.36419 0.0
H1260 H 0.88473 0.0322 0.39782 0.0
H1261 H 0.84392 0.03355 0.41151 0.0
C1262 C 0.00567 0.30675 0.6432 0.0
C1263 C 0.00874 0.26571 0.64981 0.0
C1264 C 0.00564 0.22743 0.62866 0.0
C1265 C 0.01016 0.26841 0.62208 0.0
N1266 N 0.01559 0.34749 0.62302 0.0
N1267 N 0.01346 0.18657 0.64885 0.0
C1268 C 0.00967 0.30823 0.62936 0.0
C1269 C 0.00837 0.2259 0.64252 0.0
N1270 N 0.99888 0.34441 0.65025 0.0
N1271 N 0.99867 0.18985 0.62158 0.0
H1272 H 0.01378 0.18408 0.6589 0.0
H1273 H 0.02024 0.15664 0.64423 0.0
H1274 H 0.99706 0.19002 0.61151 0.0
H1275 H 0.99 0.15922 0.62561 0.0
H1276 H 0.99151 0.37522 0.64619 0.0
H1277 H 0.99619 0.34421 0.66031 0.0
H1278 H 0.02215 0.37744 0.62765 0.0
H1279 H 0.01668 0.34986 0.61297 0.0
C1280 C 0.3689 0.12447 0.25036 0.0
C1281 C 0.34352 0.14425 0.26132 0.0
C1282 C 0.36343 0.21781 0.25155 0.0
C1283 C 0.38959 0.19781 0.24073 0.0
N1284 N 0.42876 0.13224 0.23177 0.0
N1285 N 0.32702 0.21067 0.27338 0.0
C1286 C 0.39579 0.15121 0.24077 0.0
C1287 C 0.34365 0.19126 0.26216 0.0
N1288 N 0.36512 0.07991 0.24873 0.0
N1289 N 0.35697 0.26252 0.25162 0.0
H1290 H 0.31284 0.19272 0.28129 0.0
H1291 H 0.33128 0.24413 0.27532 0.0
H1292 H 0.37414 0.28294 0.24461 0.0
H1293 H 0.33245 0.27918 0.25818 0.0
H1294 H 0.37728 0.06382 0.24034 0.0
H1295 H 0.34528 0.05937 0.25529 0.0
H1296 H 0.44176 0.09967 0.2324 0.0
H1297 H 0.44764 0.15023 0.22444 0.0
C1298 C 0.86134 0.91885 0.52376 0.0
C1299 C 0.84602 0.89807 0.51195 0.0
C1300 C 0.88171 0.82713 0.52084 0.0
C1301 C 0.89354 0.84736 0.53296 0.0
N1302 N 0.88902 0.91194 0.54632 0.0
N1303 N 0.83894 0.83137 0.49953 0.0
C1304 C 0.88196 0.89315 0.53445 0.0
C1305 C 0.85568 0.85187 0.5106 0.0
N1306 N 0.85686 0.9636 0.52474 0.0
N1307 N 0.8958 0.78398 0.51909 0.0
H1308 H 0.822 0.84836 0.49174 0.0
H1309 H 0.83881 0.79741 0.49823 0.0
H1310 H 0.91296 0.76483 0.52641 0.0
H1311 H 0.89396 0.7677 0.51027 0.0
H1312 H 0.87318 0.98188 0.53231 0.0
H1313 H 0.8395 0.98307 0.51753 0.0
H1314 H 0.87541 0.94331 0.54874 0.0
H1315 H 0.90616 0.89498 0.55408 0.0
C1316 C 0.12456 0.38506 0.73778 0.0
C1317 C 0.10728 0.34053 0.7396 0.0
C1318 C 0.13402 0.34734 0.76278 0.0
C1319 C 0.15506 0.39064 0.7607 0.0
N1320 N 0.17465 0.44909 0.74574 0.0
N1321 N 0.10464 0.27725 0.75361 0.0
C1322 C 0.15134 0.40896 0.74804 0.0
C1323 C 0.11422 0.32129 0.75209 0.0
N1324 N 0.11449 0.40486 0.72616 0.0
N1325 N 0.13224 0.33109 0.77508 0.0
H1326 H 0.09024 0.2573 0.74616 0.0
H1327 H 0.11483 0.25973 0.76192 0.0
H1328 H 0.14803 0.34809 0.783 0.0
H1329 H 0.11176 0.30231 0.7776 0.0
H1330 H 0.12065 0.4382 0.72434 0.0
H1331 H 0.09564 0.38842 0.71854 0.0
H1332 H 0.17925 0.46271 0.73658 0.0
H1333 H 0.19302 0.46777 0.75298 0.0
C1334 C 0.63072 0.67019 1.00831 0.0
C1335 C 0.65726 0.62919 1.01083 0.0
C1336 C 0.63152 0.63723 0.03398 0.0
C1337 C 0.60844 0.67968 0.03164 0.0
N1338 N 0.59373 0.7391 1.01666 0.0
N1339 N 0.68696 0.57568 0.02645 0.0
C1340 C 0.60989 0.69664 1.01879 0.0
C1341 C 0.65869 0.61339 1.0238 0.0
N1342 N 0.62487 0.68384 0.9958 0.0
N1343 N 0.62636 0.61917 0.046 0.0
H1344 H 0.70533 0.55669 1.01929 0.0
H1345 H 0.69541 0.56456 0.03575 0.0
H1346 H 0.60722 0.63564 0.05355 0.0
H1347 H 0.63677 0.58687 0.0483 0.0
H1348 H 0.60046 0.71024 0.99304 0.0
H1349 H 0.64174 0.66696 0.98801 0.0
H1350 H 0.59953 0.75569 1.00796 0.0
H1351 H 0.57789 0.75907 1.02393 0.0
C1352 C 0.38653 0.31663 1.02071 0.0
C1353 C 0.39314 0.3356 0.03322 0.0
C1354 C 0.34898 0.40408 0.0248 0.0
C1355 C 0.3456 0.38605 1.01211 0.0
N1356 N 0.36891 0.32687 0.9977 0.0
N1357 N 0.38531 0.39959 0.04672 0.0
C1358 C 0.36685 0.34286 1.01002 0.0
C1359 C 0.37562 0.38003 0.03507 0.0
N1360 N 0.39628 0.27265 1.01914 0.0
N1361 N 0.32549 0.44409 0.02713 0.0
H1362 H 0.40398 0.38302 0.05435 0.0
H1363 H 0.37906 0.43289 0.04858 0.0
H1364 H 0.30727 0.46291 1.01988 0.0
H1365 H 0.32062 0.45748 0.0363 0.0
H1366 H 0.38633 0.2553 1.0108 0.0
H1367 H 0.41055 0.25257 0.02659 0.0
H1368 H 0.38957 0.29822 0.99517 0.0
H1369 H 0.35316 0.34397 0.98978 0.0
C1370 C 0.65244 0.84691 0.26206 0.0
C1371 C 0.65897 0.89351 0.26088 0.0
C1372 C 0.60993 0.88942 0.23983 0.0
C1373 C 0.60923 0.84239 0.24022 0.0
N1374 N 0.63125 0.77628 0.25194 0.0
N1375 N 0.64947 0.95811 0.24759 0.0
C1376 C 0.63087 0.82126 0.25145 0.0
C1377 C 0.63899 0.91436 0.24948 0.0
N1378 N 0.66493 0.82718 0.27356 0.0
N1379 N 0.58122 0.9107 0.23043 0.0
H1380 H 0.67045 0.97731 0.2543 0.0
H1381 H 0.64187 0.97445 0.23892 0.0
H1382 H 0.5585 0.894 0.22352 0.0
H1383 H 0.57503 0.94464 0.23028 0.0
H1384 H 0.65584 0.79452 0.27573 0.0
H1385 H 0.68091 0.84446 0.2814 0.0
H1386 H 0.65228 0.75819 0.25887 0.0
H1387 H 0.6126 0.75678 0.24492 0.0
C1388 C 0.15838 0.188 0.51068 0.0
C1389 C 0.15917 0.14097 0.51136 0.0
C1390 C 0.10597 0.14633 0.53179 0.0
C1391 C 0.11166 0.19296 0.53204 0.0
N1392 N 0.14376 0.25855 0.52146 0.0
N1393 N 0.13805 0.07578 0.52367 0.0
C1394 C 0.1379 0.21379 0.52135 0.0
C1395 C 0.13364 0.12037 0.52218 0.0
N1396 N 0.17504 0.20817 0.49956 0.0
N1397 N 0.07275 0.12658 0.54061 0.0
H1398 H 0.15856 0.05578 0.5171 0.0
H1399 H 0.12574 0.05918 0.53198 0.0
H1400 H 0.05339 0.14394 0.54798 0.0
H1401 H 0.06005 0.09398 0.53975 0.0
H1402 H 0.17035 0.24168 0.49774 0.0
H1403 H 0.18967 0.19078 0.4916 0.0
H1404 H 0.16829 0.27579 0.51501 0.0
H1405 H 0.12601 0.27845 0.5285 0.0
C1406 C 0.88976 0.7015 0.75253 0.0
C1407 C 0.89132 0.6845 0.7397 0.0
C1408 C 0.84158 0.61795 0.74762 0.0
C1409 C 0.84283 0.63383 0.76057 0.0
N1410 N 0.87477 0.68875 0.77553 0.0
N1411 N 0.87402 0.62374 0.72542 0.0
C1412 C 0.86907 0.67499 0.76304 0.0
C1413 C 0.86861 0.64188 0.73741 0.0
N1414 N 0.90575 0.74402 0.75461 0.0
N1415 N 0.81359 0.58007 0.74501 0.0
H1416 H 0.893 0.6403 0.71786 0.0
H1417 H 0.864 0.59133 0.72318 0.0
H1418 H 0.79531 0.56103 0.75218 0.0
H1419 H 0.80527 0.56887 0.73572 0.0
H1420 H 0.89986 0.76063 0.76329 0.0
H1421 H 0.92157 0.76399 0.74732 0.0
H1422 H 0.89896 0.71531 0.77826 0.0
H1423 H 0.85802 0.6718 0.78335 0.0
loop_
_geom_bond_atom_site_label_1
_geom_bond_atom_site_label_2
_geom_bond_distance
_geom_bond_site_symmetry_2
_ccdc_geom_bond_type
C0 C1 1.443 . S
C0 N4 1.376 . S
C0 C38 1.389 . S
C1 C0 1.443 . S
C1 C2 1.340 . S
C1 H41 0.951 . S
C2 C1 1.340 . S
C2 C3 1.439 . S
C2 H42 0.950 . S
C3 C2 1.439 . S
C3 N4 1.374 . S
C3 C37 1.395 . S
N4 C0 1.376 . S
N4 C3 1.374 . S
N4 Co5 2.008 . S
Co5 N4 2.008 . S
Co5 N6 1.995 . S
Co5 N11 2.008 . S
Co5 N16 1.995 . S
Co5 N21 2.282 . S
Co5 N27 2.282 . S
N6 Co5 1.995 . S
N6 C7 1.376 . S
N6 C10 1.383 . S
C7 N6 1.376 . S
C7 C8 1.446 . S
C7 C37 1.391 . S
C8 C7 1.446 . S
C8 C9 1.339 . S
C8 H43 0.949 . S
C9 C8 1.339 . S
C9 C10 1.439 . S
C9 H44 0.950 . S
C10 N6 1.383 . S
C10 C9 1.439 . S
C10 C39 1.392 . S
N11 Co5 2.008 . S
N11 C12 1.376 . S
N11 C15 1.374 1_545 S
C12 N11 1.376 . S
C12 C13 1.443 1_545 S
C12 C39 1.389 . S
C13 C12 1.443 1_565 S
C13 C14 1.340 . S
C13 H45 0.951 . S
C14 C13 1.340 . S
C14 C15 1.439 . S
C14 H46 0.950 . S
C15 N11 1.374 1_565 S
C15 C14 1.439 . S
C15 C40 1.395 . S
N16 Co5 1.995 . S
N16 C17 1.376 1_545 S
N16 C20 1.383 . S
C17 N16 1.376 1_565 S
C17 C18 1.446 . S
C17 C40 1.391 . S
C18 C17 1.446 . S
C18 C19 1.339 . S
C18 H47 0.949 . S
C19 C18 1.339 . S
C19 C20 1.439 1_565 S
C19 H48 0.950 . S
C20 N16 1.383 . S
C20 C19 1.439 1_545 S
C20 C38 1.392 . S
N21 Co5 2.282 . S
N21 C24 1.332 . S
N21 C26 1.332 . S
C22 C23 1.386 1_545 S
C22 C25 1.388 . S
C23 C22 1.386 1_565 S
C23 C24 1.382 1_565 S
C23 H49 0.950 . S
C24 N21 1.332 . S
C24 C23 1.382 1_545 S
C24 H35 0.952 1_545 S
C25 C22 1.388 . S
C25 C26 1.382 . S
C25 H50 0.950 . S
C26 N21 1.332 . S
C26 C25 1.382 . S
C26 H36 0.948 . S
N27 Co5 2.282 . S
N27 C31 1.332 . S
N27 C32 1.332 . S
C28 C29 1.388 . S
C28 C32 1.382 . S
C28 H51 0.950 . S
C29 C28 1.388 . S
C29 C30 1.386 . S
C30 C29 1.386 . S
C30 C31 1.382 . S
C30 H52 0.950 . S
C31 N27 1.332 . S
C31 C30 1.382 . S
C31 H33 0.952 . S
C32 N27 1.332 . S
C32 C28 1.382 . S
C32 H34 0.948 . S
H33 C31 0.952 . S
H34 C32 0.948 . S
H35 C24 0.952 1_565 S
H36 C26 0.948 . S
C37 C3 1.395 . S
C37 C7 1.391 . S
C38 C0 1.389 . S
C38 C20 1.392 . S
C39 C10 1.392 . S
C39 C12 1.389 . S
C40 C15 1.395 . S
C40 C17 1.391 . S
H41 C1 0.951 . S
H42 C2 0.950 . S
H43 C8 0.949 . S
H44 C9 0.950 . S
H45 C13 0.951 . S
H46 C14 0.950 . S
H47 C18 0.949 . S
H48 C19 0.950 . S
H49 C23 0.950 . S
H50 C25 0.950 . S
H51 C28 0.950 . S
H52 C30 0.950 . S
C53 C54 1.443 1_655 S
C53 N57 1.376 1_655 S
C53 C91 1.389 . S
C54 C53 1.443 1_455 S
C54 C55 1.340 . S
C54 H94 0.951 . S
C55 C54 1.340 . S
C55 C56 1.439 . S
C55 H95 0.950 . S
C56 C55 1.439 . S
C56 N57 1.374 . S
C56 C90 1.395 . S
N57 C53 1.376 1_455 S
N57 C56 1.374 . S
N57 Co58 2.008 1_455 S
Co58 N57 2.008 1_655 S
Co58 N59 1.995 1_655 S
Co58 N64 2.008 . S
Co58 N69 1.995 . S
Co58 N74 2.282 . S
Co58 N80 2.282 . S
N59 Co58 1.995 1_455 S
N59 C60 1.376 . S
N59 C63 1.383 . S
C60 N59 1.376 . S
C60 C61 1.446 . S
C60 C90 1.391 . S
C61 C60 1.446 . S
C61 C62 1.339 . S
C61 H96 0.949 . S
C62 C61 1.339 . S
C62 C63 1.439 . S
C62 H97 0.950 . S
C63 N59 1.383 . S
C63 C62 1.439 . S
C63 C92 1.392 1_455 S
N64 Co58 2.008 . S
N64 C65 1.376 . S
N64 C68 1.374 . S
C65 N64 1.376 . S
C65 C66 1.443 . S
C65 C92 1.389 . S
C66 C65 1.443 . S
C66 C67 1.340 . S
C66 H98 0.951 . S
C67 C66 1.340 . S
C67 C68 1.439 . S
C67 H99 0.950 . S
C68 N64 1.374 . S
C68 C67 1.439 . S
C68 C93 1.395 . S
N69 Co58 1.995 . S
N69 C70 1.376 . S
N69 C73 1.383 . S
C70 N69 1.376 . S
C70 C71 1.446 . S
C70 C93 1.391 . S
C71 C70 1.446 . S
C71 C72 1.339 . S
C71 H100 0.949 . S
C72 C71 1.339 . S
C72 C73 1.439 . S
C72 H101 0.950 . S
C73 N69 1.383 . S
C73 C72 1.439 . S
C73 C91 1.392 . S
N74 Co58 2.282 . S
N74 C77 1.332 . S
N74 C79 1.332 1_655 S
C75 C76 1.386 . S
C75 C78 1.388 1_655 S
C76 C75 1.386 . S
C76 C77 1.382 . S
C76 H102 0.950 . S
C77 N74 1.332 . S
C77 C76 1.382 . S
C77 H88 0.952 . S
C78 C75 1.388 1_455 S
C78 C79 1.382 . S
C78 H103 0.950 . S
C79 N74 1.332 1_455 S
C79 C78 1.382 . S
C79 H89 0.948 . S
N80 Co58 2.282 . S
N80 C84 1.330 1_655 S
N80 C85 1.332 . S
C81 C82 1.388 . S
C81 C85 1.382 . S
C81 H104 0.950 . S
C82 C81 1.388 . S
C82 C83 1.386 1_655 S
C83 C82 1.386 1_455 S
C83 C84 1.382 . S
C83 H105 0.950 . S
C84 N80 1.330 1_455 S
C84 C83 1.382 . S
C84 H86 0.954 . S
C85 N80 1.332 . S
C85 C81 1.382 . S
C85 H87 0.948 . S
H86 C84 0.954 . S
H87 C85 0.948 . S
H88 C77 0.952 . S
H89 C79 0.948 . S
C90 C56 1.395 . S
C90 C60 1.391 . S
C91 C53 1.389 . S
C91 C73 1.392 . S
C92 C63 1.392 1_655 S
C92 C65 1.389 . S
C93 C68 1.395 . S
C93 C70 1.391 . S
H94 C54 0.951 . S
H95 C55 0.950 . S
H96 C61 0.949 . S
H97 C62 0.950 . S
H98 C66 0.951 . S
H99 C67 0.950 . S
H100 C71 0.949 . S
H101 C72 0.950 . S
H102 C76 0.950 . S
H103 C78 0.950 . S
H104 C81 0.950 . S
H105 C83 0.950 . S
C106 C107 1.443 . S
C106 N110 1.376 . S
C106 C144 1.389 . S
C107 C106 1.443 . S
C107 C108 1.340 . S
C107 H147 0.951 . S
C108 C107 1.340 . S
C108 C109 1.439 . S
C108 H148 0.950 . S
C109 C108 1.439 . S
C109 N110 1.374 . S
C109 C143 1.395 . S
N110 C106 1.376 . S
N110 C109 1.374 . S
N110 Co111 2.008 . S
Co111 N110 2.008 . S
Co111 N112 1.995 . S
Co111 N117 2.008 . S
Co111 N122 1.995 . S
Co111 N127 2.282 . S
Co111 N133 2.282 . S
N112 Co111 1.995 . S
N112 C113 1.376 . S
N112 C116 1.383 . S
C113 N112 1.376 . S
C113 C114 1.446 . S
C113 C143 1.391 . S
C114 C113 1.446 . S
C114 C115 1.339 . S
C114 H149 0.949 . S
C115 C114 1.339 . S
C115 C116 1.439 . S
C115 H150 0.950 . S
C116 N112 1.383 . S
C116 C115 1.439 . S
C116 C145 1.392 . S
N117 Co111 2.008 . S
N117 C118 1.376 . S
N117 C121 1.374 . S
C118 N117 1.376 . S
C118 C119 1.443 . S
C118 C145 1.389 . S
C119 C118 1.443 . S
C119 C120 1.340 . S
C119 H151 0.951 . S
C120 C119 1.340 . S
C120 C121 1.439 . S
C120 H152 0.950 . S
C121 N117 1.374 . S
C121 C120 1.439 . S
C121 C146 1.395 . S
N122 Co111 1.995 . S
N122 C123 1.376 . S
N122 C126 1.383 . S
C123 N122 1.376 . S
C123 C124 1.446 . S
C123 C146 1.391 . S
C124 C123 1.446 . S
C124 C125 1.339 . S
C124 H153 0.949 . S
C125 C124 1.339 . S
C125 C126 1.439 . S
C125 H154 0.950 . S
C126 N122 1.383 . S
C126 C125 1.439 . S
C126 C144 1.392 . S
N127 Co111 2.282 . S
N127 C130 1.332 . S
N127 C132 1.332 . S
C128 C129 1.386 . S
C128 C131 1.388 . S
C129 C128 1.386 . S
C129 C130 1.382 . S
C129 H155 0.950 . S
C130 N127 1.332 . S
C130 C129 1.382 . S
C130 H141 0.952 . S
C131 C128 1.388 . S
C131 C132 1.382 . S
C131 H156 0.950 . S
C132 N127 1.332 . S
C132 C131 1.382 . S
C132 H142 0.948 . S
N133 Co111 2.282 . S
N133 C137 1.332 . S
N133 C138 1.332 . S
C134 C135 1.388 . S
C134 C138 1.382 . S
C134 H157 0.950 . S
C135 C134 1.388 . S
C135 C136 1.386 . S
C136 C135 1.386 . S
C136 C137 1.382 . S
C136 H158 0.950 . S
C137 N133 1.332 . S
C137 C136 1.382 . S
C137 H139 0.952 . S
C138 N133 1.332 . S
C138 C134 1.382 . S
C138 H140 0.948 . S
H139 C137 0.952 . S
H140 C138 0.948 . S
H141 C130 0.952 . S
H142 C132 0.948 . S
C143 C109 1.395 . S
C143 C113 1.391 . S
C144 C106 1.389 . S
C144 C126 1.392 . S
C145 C116 1.392 . S
C145 C118 1.389 . S
C146 C121 1.395 . S
C146 C123 1.391 . S
H147 C107 0.951 . S
H148 C108 0.950 . S
H149 C114 0.949 . S
H150 C115 0.950 . S
H151 C119 0.951 . S
H152 C120 0.950 . S
H153 C124 0.949 . S
H154 C125 0.950 . S
H155 C129 0.950 . S
H156 C131 0.950 . S
H157 C134 0.950 . S
H158 C136 0.950 . S
C159 C160 1.443 . S
C159 N163 1.376 . S
C159 C197 1.389 . S
C160 C159 1.443 . S
C160 C161 1.340 . S
C160 H200 0.951 . S
C161 C160 1.340 . S
C161 C162 1.439 . S
C161 H201 0.950 . S
C162 C161 1.439 . S
C162 N163 1.374 . S
C162 C196 1.395 . S
N163 C159 1.376 . S
N163 C162 1.374 . S
N163 Co164 2.008 . S
Co164 N163 2.008 . S
Co164 N165 1.995 . S
Co164 N170 2.008 . S
Co164 N175 1.995 . S
Co164 N180 2.282 . S
Co164 N186 2.282 . S
N165 Co164 1.995 . S
N165 C166 1.376 . S
N165 C169 1.383 . S
C166 N165 1.376 . S
C166 C167 1.446 . S
C166 C196 1.391 . S
C167 C166 1.446 . S
C167 C168 1.339 . S
C167 H202 0.949 . S
C168 C167 1.339 . S
C168 C169 1.439 . S
C168 H203 0.950 . S
C169 N165 1.383 . S
C169 C168 1.439 . S
C169 C198 1.392 . S
N170 Co164 2.008 . S
N170 C171 1.376 . S
N170 C174 1.374 . S
C171 N170 1.376 . S
C171 C172 1.443 . S
C171 C198 1.389 . S
C172 C171 1.443 . S
C172 C173 1.340 . S
C172 H204 0.951 . S
C173 C172 1.340 . S
C173 C174 1.439 . S
C173 H205 0.950 . S
C174 N170 1.374 . S
C174 C173 1.439 . S
C174 C199 1.395 . S
N175 Co164 1.995 . S
N175 C176 1.376 . S
N175 C179 1.383 . S
C176 N175 1.376 . S
C176 C177 1.446 . S
C176 C199 1.391 . S
C177 C176 1.446 . S
C177 C178 1.339 . S
C177 H206 0.949 . S
C178 C177 1.339 . S
C178 C179 1.439 . S
C178 H207 0.950 . S
C179 N175 1.383 . S
C179 C178 1.439 . S
C179 C197 1.392 . S
N180 Co164 2.282 . S
N180 C183 1.332 . S
N180 C185 1.332 . S
C181 C182 1.386 . S
C181 C184 1.388 . S
C182 C181 1.386 . S
C182 C183 1.382 . S
C182 H208 0.950 . S
C183 N180 1.332 . S
C183 C182 1.382 . S
C183 H194 0.952 . S
C184 C181 1.388 . S
C184 C185 1.382 . S
C184 H209 0.950 . S
C185 N180 1.332 . S
C185 C184 1.382 . S
C185 H195 0.948 . S
N186 Co164 2.282 . S
N186 C190 1.332 . S
N186 C191 1.332 . S
C187 C188 1.388 . S
C187 C191 1.382 . S
C187 H210 0.950 . S
C188 C187 1.388 . S
C188 C189 1.386 . S
C189 C188 1.386 . S
C189 C190 1.382 . S
C189 H211 0.950 . S
C190 N186 1.332 . S
C190 C189 1.382 . S
C190 H192 0.952 . S
C191 N186 1.332 . S
C191 C187 1.382 . S
C191 H193 0.948 . S
H192 C190 0.952 . S
H193 C191 0.948 . S
H194 C183 0.952 . S
H195 C185 0.948 . S
C196 C162 1.395 . S
C196 C166 1.391 . S
C197 C159 1.389 . S
C197 C179 1.392 . S
C198 C169 1.392 . S
C198 C171 1.389 . S
C199 C174 1.395 . S
C199 C176 1.391 . S
H200 C160 0.951 . S
H201 C161 0.950 . S
H202 C167 0.949 . S
H203 C168 0.950 . S
H204 C172 0.951 . S
H205 C173 0.950 . S
H206 C177 0.949 . S
H207 C178 0.950 . S
H208 C182 0.950 . S
H209 C184 0.950 . S
H210 C187 0.950 . S
H211 C189 0.950 . S
C212 C213 1.443 . S
C212 N216 1.376 . S
C212 C250 1.389 . S
C213 C212 1.443 . S
C213 C214 1.340 . S
C213 H253 0.951 . S
C214 C213 1.340 . S
C214 C215 1.439 . S
C214 H254 0.950 . S
C215 C214 1.439 . S
C215 N216 1.374 . S
C215 C249 1.395 . S
N216 C212 1.376 . S
N216 C215 1.374 . S
N216 Co217 2.008 . S
Co217 N216 2.008 . S
Co217 N218 1.995 . S
Co217 N223 2.008 . S
Co217 N228 1.995 . S
Co217 N233 2.282 . S
Co217 N239 2.282 . S
N218 Co217 1.995 . S
N218 C219 1.376 . S
N218 C222 1.383 . S
C219 N218 1.376 . S
C219 C220 1.446 . S
C219 C249 1.391 . S
C220 C219 1.446 . S
C220 C221 1.339 . S
C220 H255 0.949 . S
C221 C220 1.339 . S
C221 C222 1.439 . S
C221 H256 0.950 . S
C222 N218 1.383 . S
C222 C221 1.439 . S
C222 C251 1.392 . S
N223 Co217 2.008 . S
N223 C224 1.376 . S
N223 C227 1.374 . S
C224 N223 1.376 . S
C224 C225 1.443 . S
C224 C251 1.389 . S
C225 C224 1.443 . S
C225 C226 1.340 . S
C225 H257 0.951 . S
C226 C225 1.340 . S
C226 C227 1.439 . S
C226 H258 0.950 . S
C227 N223 1.374 . S
C227 C226 1.439 . S
C227 C252 1.395 . S
N228 Co217 1.995 . S
N228 C229 1.376 . S
N228 C232 1.383 . S
C229 N228 1.376 . S
C229 C230 1.446 . S
C229 C252 1.391 . S
C230 C229 1.446 . S
C230 C231 1.339 . S
C230 H259 0.949 . S
C231 C230 1.339 . S
C231 C232 1.439 . S
C231 H260 0.950 . S
C232 N228 1.383 . S
C232 C231 1.439 . S
C232 C250 1.392 . S
N233 Co217 2.282 . S
N233 C236 1.332 . S
N233 C238 1.332 . S
C234 C235 1.386 . S
C234 C237 1.388 . S
C235 C234 1.386 . S
C235 C236 1.382 . S
C235 H261 0.950 . S
C236 N233 1.332 . S
C236 C235 1.382 . S
C236 H247 0.952 . S
C237 C234 1.388 . S
C237 C238 1.382 . S
C237 H262 0.950 . S
C238 N233 1.332 . S
C238 C237 1.382 . S
C238 H248 0.948 . S
N239 Co217 2.282 . S
N239 C243 1.332 . S
N239 C244 1.332 . S
C240 C241 1.388 . S
C240 C244 1.382 . S
C240 H263 0.950 . S
C241 C240 1.388 . S
C241 C242 1.386 . S
C242 C241 1.386 . S
C242 C243 1.382 . S
C242 H264 0.950 . S
C243 N239 1.332 . S
C243 C242 1.382 . S
C243 H245 0.952 . S
C244 N239 1.332 . S
C244 C240 1.382 . S
C244 H246 0.948 . S
H245 C243 0.952 . S
H246 C244 0.948 . S
H247 C236 0.952 . S
H248 C238 0.948 . S
C249 C215 1.395 . S
C249 C219 1.391 . S
C250 C212 1.389 . S
C250 C232 1.392 . S
C251 C222 1.392 . S
C251 C224 1.389 . S
C252 C227 1.395 . S
C252 C229 1.391 . S
H253 C213 0.951 . S
H254 C214 0.950 . S
H255 C220 0.949 . S
H256 C221 0.950 . S
H257 C225 0.951 . S
H258 C226 0.950 . S
H259 C230 0.949 . S
H260 C231 0.950 . S
H261 C235 0.950 . S
H262 C237 0.950 . S
H263 C240 0.950 . S
H264 C242 0.950 . S
C265 C266 1.443 . S
C265 N269 1.376 . S
C265 C303 1.389 . S
C266 C265 1.443 . S
C266 C267 1.340 . S
C266 H306 0.951 . S
C267 C266 1.340 . S
C267 C268 1.439 . S
C267 H307 0.950 . S
C268 C267 1.439 . S
C268 N269 1.374 . S
C268 C302 1.395 . S
N269 C265 1.376 . S
N269 C268 1.374 . S
N269 Co270 2.008 . S
Co270 N269 2.008 . S
Co270 N271 1.995 . S
Co270 N276 2.008 . S
Co270 N281 1.995 . S
Co270 N286 2.282 . S
Co270 N292 2.282 . S
N271 Co270 1.995 . S
N271 C272 1.376 . S
N271 C275 1.383 . S
C272 N271 1.376 . S
C272 C273 1.446 . S
C272 C302 1.391 . S
C273 C272 1.446 . S
C273 C274 1.339 . S
C273 H308 0.949 . S
C274 C273 1.339 . S
C274 C275 1.439 . S
C274 H309 0.950 . S
C275 N271 1.383 . S
C275 C274 1.439 . S
C275 C304 1.392 . S
N276 Co270 2.008 . S
N276 C277 1.376 . S
N276 C280 1.374 . S
C277 N276 1.376 . S
C277 C278 1.443 . S
C277 C304 1.389 . S
C278 C277 1.443 . S
C278 C279 1.340 . S
C278 H310 0.951 . S
C279 C278 1.340 . S
C279 C280 1.439 . S
C279 H311 0.950 . S
C280 N276 1.374 . S
C280 C279 1.439 . S
C280 C305 1.395 . S
N281 Co270 1.995 . S
N281 C282 1.376 . S
N281 C285 1.383 . S
C282 N281 1.376 . S
C282 C283 1.446 . S
C282 C305 1.391 . S
C283 C282 1.446 . S
C283 C284 1.339 . S
C283 H312 0.949 . S
C284 C283 1.339 . S
C284 C285 1.439 . S
C284 H313 0.950 . S
C285 N281 1.383 . S
C285 C284 1.439 . S
C285 C303 1.392 . S
N286 Co270 2.282 . S
N286 C289 1.332 . S
N286 C291 1.332 . S
C287 C288 1.386 . S
C287 C290 1.388 . S
C288 C287 1.386 . S
C288 C289 1.382 . S
C288 H314 0.950 . S
C289 N286 1.332 . S
C289 C288 1.382 . S
C289 H300 0.952 . S
C290 C287 1.388 . S
C290 C291 1.382 . S
C290 H315 0.950 . S
C291 N286 1.332 . S
C291 C290 1.382 . S
C291 H301 0.948 . S
N292 Co270 2.282 . S
N292 C296 1.332 . S
N292 C297 1.332 . S
C293 C294 1.388 . S
C293 C297 1.382 . S
C293 H316 0.950 . S
C294 C293 1.388 . S
C294 C295 1.386 . S
C295 C294 1.386 . S
C295 C296 1.382 . S
C295 H317 0.950 . S
C296 N292 1.332 . S
C296 C295 1.382 . S
C296 H298 0.952 . S
C297 N292 1.332 . S
C297 C293 1.382 . S
C297 H299 0.948 . S
H298 C296 0.952 . S
H299 C297 0.948 . S
H300 C289 0.952 . S
H301 C291 0.948 . S
C302 C268 1.395 . S
C302 C272 1.391 . S
C303 C265 1.389 . S
C303 C285 1.392 . S
C304 C275 1.392 . S
C304 C277 1.389 . S
C305 C280 1.395 . S
C305 C282 1.391 . S
H306 C266 0.951 . S
H307 C267 0.950 . S
H308 C273 0.949 . S
H309 C274 0.950 . S
H310 C278 0.951 . S
H311 C279 0.950 . S
H312 C283 0.949 . S
H313 C284 0.950 . S
H314 C288 0.950 . S
H315 C290 0.950 . S
H316 C293 0.950 . S
H317 C295 0.950 . S
C318 C319 1.443 . S
C318 N322 1.376 . S
C318 C356 1.389 . S
C319 C318 1.443 . S
C319 C320 1.340 . S
C319 H359 0.951 . S
C320 C319 1.340 . S
C320 C321 1.439 . S
C320 H360 0.950 . S
C321 C320 1.439 . S
C321 N322 1.374 . S
C321 C355 1.395 . S
N322 C318 1.376 . S
N322 C321 1.374 . S
N322 Co323 2.008 . S
Co323 N322 2.008 . S
Co323 N324 1.995 . S
Co323 N329 2.008 . S
Co323 N334 1.995 . S
Co323 N339 2.282 . S
Co323 N345 2.282 . S
N324 Co323 1.995 . S
N324 C325 1.376 . S
N324 C328 1.383 . S
C325 N324 1.376 . S
C325 C326 1.446 . S
C325 C355 1.391 . S
C326 C325 1.446 . S
C326 C327 1.339 . S
C326 H361 0.949 . S
C327 C326 1.339 . S
C327 C328 1.439 . S
C327 H362 0.950 . S
C328 N324 1.383 . S
C328 C327 1.439 . S
C328 C357 1.392 . S
N329 Co323 2.008 . S
N329 C330 1.376 . S
N329 C333 1.374 1_545 S
C330 N329 1.376 . S
C330 C331 1.443 1_545 S
C330 C357 1.389 . S
C331 C330 1.443 1_565 S
C331 C332 1.340 . S
C331 H363 0.951 . S
C332 C331 1.340 . S
C332 C333 1.439 . S
C332 H364 0.950 . S
C333 N329 1.374 1_565 S
C333 C332 1.439 . S
C333 C358 1.395 . S
N334 Co323 1.995 . S
N334 C335 1.376 1_545 S
N334 C338 1.383 . S
C335 N334 1.376 1_565 S
C335 C336 1.446 . S
C335 C358 1.391 . S
C336 C335 1.446 . S
C336 C337 1.339 . S
C336 H365 0.949 . S
C337 C336 1.339 . S
C337 C338 1.439 1_565 S
C337 H366 0.950 . S
C338 N334 1.383 . S
C338 C337 1.439 1_545 S
C338 C356 1.392 . S
N339 Co323 2.282 . S
N339 C342 1.332 . S
N339 C344 1.332 . S
C340 C341 1.386 1_545 S
C340 C343 1.388 . S
C341 C340 1.386 1_565 S
C341 C342 1.382 1_565 S
C341 H367 0.950 . S
C342 N339 1.332 . S
C342 C341 1.382 1_545 S
C342 H353 0.952 1_545 S
C343 C340 1.388 . S
C343 C344 1.382 . S
C343 H368 0.950 . S
C344 N339 1.332 . S
C344 C343 1.382 . S
C344 H354 0.948 . S
N345 Co323 2.282 . S
N345 C349 1.332 . S
N345 C350 1.332 . S
C346 C347 1.388 . S
C346 C350 1.382 . S
C346 H369 0.950 . S
C347 C346 1.388 . S
C347 C348 1.386 . S
C348 C347 1.386 . S
C348 C349 1.382 . S
C348 H370 0.950 . S
C349 N345 1.332 . S
C349 C348 1.382 . S
C349 H351 0.952 . S
C350 N345 1.332 . S
C350 C346 1.382 . S
C350 H352 0.948 . S
H351 C349 0.952 . S
H352 C350 0.948 . S
H353 C342 0.952 1_565 S
H354 C344 0.948 . S
C355 C321 1.395 . S
C355 C325 1.391 . S
C356 C318 1.389 . S
C356 C338 1.392 . S
C357 C328 1.392 . S
C357 C330 1.389 . S
C358 C333 1.395 . S
C358 C335 1.391 . S
H359 C319 0.951 . S
H360 C320 0.950 . S
H361 C326 0.949 . S
H362 C327 0.950 . S
H363 C331 0.951 . S
H364 C332 0.950 . S
H365 C336 0.949 . S
H366 C337 0.950 . S
H367 C341 0.950 . S
H368 C343 0.950 . S
H369 C346 0.950 . S
H370 C348 0.950 . S
C371 C372 1.443 1_655 S
C371 N375 1.376 1_655 S
C371 C409 1.389 . S
C372 C371 1.443 1_455 S
C372 C373 1.340 . S
C372 H412 0.951 . S
C373 C372 1.340 . S
C373 C374 1.439 . S
C373 H413 0.950 . S
C374 C373 1.439 . S
C374 N375 1.374 . S
C374 C408 1.395 . S
N375 C371 1.376 1_455 S
N375 C374 1.374 . S
N375 Co376 2.008 1_455 S
Co376 N375 2.008 1_655 S
Co376 N377 1.995 1_655 S
Co376 N382 2.008 . S
Co376 N387 1.995 . S
Co376 N392 2.282 . S
Co376 N398 2.282 . S
N377 Co376 1.995 1_455 S
N377 C378 1.376 . S
N377 C381 1.383 . S
C378 N377 1.376 . S
C378 C379 1.446 . S
C378 C408 1.391 . S
C379 C378 1.446 . S
C379 C380 1.339 . S
C379 H414 0.949 . S
C380 C379 1.339 . S
C380 C381 1.439 . S
C380 H415 0.950 . S
C381 N377 1.383 . S
C381 C380 1.439 . S
C381 C410 1.392 1_455 S
N382 Co376 2.008 . S
N382 C383 1.376 . S
N382 C386 1.374 . S
C383 N382 1.376 . S
C383 C384 1.443 . S
C383 C410 1.389 . S
C384 C383 1.443 . S
C384 C385 1.340 . S
C384 H416 0.951 . S
C385 C384 1.340 . S
C385 C386 1.439 . S
C385 H417 0.950 . S
C386 N382 1.374 . S
C386 C385 1.439 . S
C386 C411 1.395 . S
N387 Co376 1.995 . S
N387 C388 1.376 . S
N387 C391 1.383 . S
C388 N387 1.376 . S
C388 C389 1.446 . S
C388 C411 1.391 . S
C389 C388 1.446 . S
C389 C390 1.339 . S
C389 H418 0.949 . S
C390 C389 1.339 . S
C390 C391 1.439 . S
C390 H419 0.950 . S
C391 N387 1.383 . S
C391 C390 1.439 . S
C391 C409 1.392 . S
N392 Co376 2.282 . S
N392 C395 1.332 . S
N392 C397 1.332 1_655 S
C393 C394 1.386 . S
C393 C396 1.388 1_655 S
C394 C393 1.386 . S
C394 C395 1.382 . S
C394 H420 0.950 . S
C395 N392 1.332 . S
C395 C394 1.382 . S
C395 H406 0.952 . S
C396 C393 1.388 1_455 S
C396 C397 1.382 . S
C396 H421 0.950 . S
C397 N392 1.332 1_455 S
C397 C396 1.382 . S
C397 H407 0.948 . S
N398 Co376 2.282 . S
N398 C402 1.327 1_655 S
N398 C403 1.332 . S
C399 C400 1.388 . S
C399 C403 1.382 . S
C399 H422 0.950 . S
C400 C399 1.388 . S
C400 C401 1.386 1_655 S
C401 C400 1.386 1_455 S
C401 C402 1.382 . S
C401 H423 0.950 . S
C402 N398 1.327 1_455 S
C402 C401 1.382 . S
C402 H404 0.957 . S
C403 N398 1.332 . S
C403 C399 1.382 . S
C403 H405 0.948 . S
H404 C402 0.957 . S
H405 C403 0.948 . S
H406 C395 0.952 . S
H407 C397 0.948 . S
C408 C374 1.395 . S
C408 C378 1.391 . S
C409 C371 1.389 . S
C409 C391 1.392 . S
C410 C381 1.392 1_655 S
C410 C383 1.389 . S
C411 C386 1.395 . S
C411 C388 1.391 . S
H412 C372 0.951 . S
H413 C373 0.950 . S
H414 C379 0.949 . S
H415 C380 0.950 . S
H416 C384 0.951 . S
H417 C385 0.950 . S
H418 C389 0.949 . S
H419 C390 0.950 . S
H420 C394 0.950 . S
H421 C396 0.950 . S
H422 C399 0.950 . S
H423 C401 0.950 . S
C424 C425 1.443 . S
C424 N428 1.376 . S
C424 C462 1.389 . S
C425 C424 1.443 . S
C425 C426 1.340 . S
C425 H465 0.951 . S
C426 C425 1.340 . S
C426 C427 1.439 . S
C426 H466 0.950 . S
C427 C426 1.439 . S
C427 N428 1.374 . S
C427 C461 1.395 . S
N428 C424 1.376 . S
N428 C427 1.374 . S
N428 Co429 2.008 . S
Co429 N428 2.008 . S
Co429 N430 1.995 . S
Co429 N435 2.008 . S
Co429 N440 1.995 . S
Co429 N445 2.282 . S
Co429 N451 2.282 . S
N430 Co429 1.995 . S
N430 C431 1.376 . S
N430 C434 1.383 . S
C431 N430 1.376 . S
C431 C432 1.446 . S
C431 C461 1.391 . S
C432 C431 1.446 . S
C432 C433 1.339 . S
C432 H467 0.949 . S
C433 C432 1.339 . S
C433 C434 1.439 . S
C433 H468 0.950 . S
C434 N430 1.383 . S
C434 C433 1.439 . S
C434 C463 1.392 . S
N435 Co429 2.008 . S
N435 C436 1.376 . S
N435 C439 1.374 . S
C436 N435 1.376 . S
C436 C437 1.443 . S
C436 C463 1.389 . S
C437 C436 1.443 . S
C437 C438 1.340 . S
C437 H469 0.951 . S
C438 C437 1.340 . S
C438 C439 1.439 . S
C438 H470 0.950 . S
C439 N435 1.374 . S
C439 C438 1.439 . S
C439 C464 1.395 . S
N440 Co429 1.995 . S
N440 C441 1.376 . S
N440 C444 1.383 . S
C441 N440 1.376 . S
C441 C442 1.446 . S
C441 C464 1.391 . S
C442 C441 1.446 . S
C442 C443 1.339 . S
C442 H471 0.949 . S
C443 C442 1.339 . S
C443 C444 1.439 . S
C443 H472 0.950 . S
C444 N440 1.383 . S
C444 C443 1.439 . S
C444 C462 1.392 . S
N445 Co429 2.282 . S
N445 C448 1.332 . S
N445 C450 1.332 . S
C446 C447 1.386 . S
C446 C449 1.388 . S
C447 C446 1.386 . S
C447 C448 1.382 . S
C447 H473 0.950 . S
C448 N445 1.332 . S
C448 C447 1.382 . S
C448 H459 0.952 . S
C449 C446 1.388 . S
C449 C450 1.382 . S
C449 H474 0.950 . S
C450 N445 1.332 . S
C450 C449 1.382 . S
C450 H460 0.948 . S
N451 Co429 2.282 . S
N451 C455 1.332 . S
N451 C456 1.332 . S
C452 C453 1.388 . S
C452 C456 1.382 . S
C452 H475 0.950 . S
C453 C452 1.388 . S
C453 C454 1.386 . S
C454 C453 1.386 . S
C454 C455 1.382 . S
C454 H476 0.950 . S
C455 N451 1.332 . S
C455 C454 1.382 . S
C455 H457 0.952 . S
C456 N451 1.332 . S
C456 C452 1.382 . S
C456 H458 0.948 . S
H457 C455 0.952 . S
H458 C456 0.948 . S
H459 C448 0.952 . S
H460 C450 0.948 . S
C461 C427 1.395 . S
C461 C431 1.391 . S
C462 C424 1.389 . S
C462 C444 1.392 . S
C463 C434 1.392 . S
C463 C436 1.389 . S
C464 C439 1.395 . S
C464 C441 1.391 . S
H465 C425 0.951 . S
H466 C426 0.950 . S
H467 C432 0.949 . S
H468 C433 0.950 . S
H469 C437 0.951 . S
H470 C438 0.950 . S
H471 C442 0.949 . S
H472 C443 0.950 . S
H473 C447 0.950 . S
H474 C449 0.950 . S
H475 C452 0.950 . S
H476 C454 0.950 . S
C477 C478 1.443 . S
C477 N481 1.376 . S
C477 C515 1.389 . S
C478 C477 1.443 . S
C478 C479 1.340 . S
C478 H518 0.951 . S
C479 C478 1.340 . S
C479 C480 1.439 . S
C479 H519 0.950 . S
C480 C479 1.439 . S
C480 N481 1.374 . S
C480 C514 1.395 . S
N481 C477 1.376 . S
N481 C480 1.374 . S
N481 Co482 2.008 . S
Co482 N481 2.008 . S
Co482 N483 1.995 . S
Co482 N488 2.008 . S
Co482 N493 1.995 . S
Co482 N498 2.282 . S
Co482 N504 2.282 . S
N483 Co482 1.995 . S
N483 C484 1.376 . S
N483 C487 1.383 . S
C484 N483 1.376 . S
C484 C485 1.446 . S
C484 C514 1.391 . S
C485 C484 1.446 . S
C485 C486 1.339 . S
C485 H520 0.949 . S
C486 C485 1.339 . S
C486 C487 1.439 . S
C486 H521 0.950 . S
C487 N483 1.383 . S
C487 C486 1.439 . S
C487 C516 1.392 . S
N488 Co482 2.008 . S
N488 C489 1.376 . S
N488 C492 1.374 . S
C489 N488 1.376 . S
C489 C490 1.443 . S
C489 C516 1.389 . S
C490 C489 1.443 . S
C490 C491 1.340 . S
C490 H522 0.951 . S
C491 C490 1.340 . S
C491 C492 1.439 . S
C491 H523 0.950 . S
C492 N488 1.374 . S
C492 C491 1.439 . S
C492 C517 1.395 . S
N493 Co482 1.995 . S
N493 C494 1.376 . S
N493 C497 1.383 . S
C494 N493 1.376 . S
C494 C495 1.446 . S
C494 C517 1.391 . S
C495 C494 1.446 . S
C495 C496 1.339 . S
C495 H524 0.949 . S
C496 C495 1.339 . S
C496 C497 1.439 . S
C496 H525 0.950 . S
C497 N493 1.383 . S
C497 C496 1.439 . S
C497 C515 1.392 . S
N498 Co482 2.282 . S
N498 C501 1.332 . S
N498 C503 1.332 . S
C499 C500 1.386 . S
C499 C502 1.388 . S
C500 C499 1.386 . S
C500 C501 1.382 . S
C500 H526 0.950 . S
C501 N498 1.332 . S
C501 C500 1.382 . S
C501 H512 0.952 . S
C502 C499 1.388 . S
C502 C503 1.382 . S
C502 H527 0.950 . S
C503 N498 1.332 . S
C503 C502 1.382 . S
C503 H513 0.948 . S
N504 Co482 2.282 . S
N504 C508 1.332 . S
N504 C509 1.332 . S
C505 C506 1.388 . S
C505 C509 1.382 . S
C505 H528 0.950 . S
C506 C505 1.388 . S
C506 C507 1.386 . S
C507 C506 1.386 . S
C507 C508 1.382 . S
C507 H529 0.950 . S
C508 N504 1.332 . S
C508 C507 1.382 . S
C508 H510 0.952 . S
C509 N504 1.332 . S
C509 C505 1.382 . S
C509 H511 0.948 . S
H510 C508 0.952 . S
H511 C509 0.948 . S
H512 C501 0.952 . S
H513 C503 0.948 . S
C514 C480 1.395 . S
C514 C484 1.391 . S
C515 C477 1.389 . S
C515 C497 1.392 . S
C516 C487 1.392 . S
C516 C489 1.389 . S
C517 C492 1.395 . S
C517 C494 1.391 . S
H518 C478 0.951 . S
H519 C479 0.950 . S
H520 C485 0.949 . S
H521 C486 0.950 . S
H522 C490 0.951 . S
H523 C491 0.950 . S
H524 C495 0.949 . S
H525 C496 0.950 . S
H526 C500 0.950 . S
H527 C502 0.950 . S
H528 C505 0.950 . S
H529 C507 0.950 . S
C530 C531 1.443 . S
C530 N534 1.376 . S
C530 C568 1.389 . S
C531 C530 1.443 . S
C531 C532 1.340 . S
C531 H571 0.951 . S
C532 C531 1.340 . S
C532 C533 1.439 . S
C532 H572 0.950 . S
C533 C532 1.439 . S
C533 N534 1.374 . S
C533 C567 1.395 . S
N534 C530 1.376 . S
N534 C533 1.374 . S
N534 Co535 2.008 . S
Co535 N534 2.008 . S
Co535 N536 1.995 . S
Co535 N541 2.008 . S
Co535 N546 1.995 . S
Co535 N551 2.282 . S
Co535 N557 2.282 . S
N536 Co535 1.995 . S
N536 C537 1.376 . S
N536 C540 1.383 . S
C537 N536 1.376 . S
C537 C538 1.446 . S
C537 C567 1.391 . S
C538 C537 1.446 . S
C538 C539 1.339 . S
C538 H573 0.949 . S
C539 C538 1.339 . S
C539 C540 1.439 . S
C539 H574 0.950 . S
C540 N536 1.383 . S
C540 C539 1.439 . S
C540 C569 1.392 . S
N541 Co535 2.008 . S
N541 C542 1.376 . S
N541 C545 1.374 1_565 S
C542 N541 1.376 . S
C542 C543 1.443 1_565 S
C542 C569 1.389 . S
C543 C542 1.443 1_545 S
C543 C544 1.340 . S
C543 H575 0.951 . S
C544 C543 1.340 . S
C544 C545 1.439 . S
C544 H576 0.950 . S
C545 N541 1.374 1_545 S
C545 C544 1.439 . S
C545 C570 1.395 . S
N546 Co535 1.995 . S
N546 C547 1.376 1_565 S
N546 C550 1.383 . S
C547 N546 1.376 1_545 S
C547 C548 1.446 . S
C547 C570 1.391 . S
C548 C547 1.446 . S
C548 C549 1.339 . S
C548 H577 0.949 . S
C549 C548 1.339 . S
C549 C550 1.439 1_545 S
C549 H578 0.950 . S
C550 N546 1.383 . S
C550 C549 1.439 1_565 S
C550 C568 1.392 . S
N551 Co535 2.282 . S
N551 C554 1.332 . S
N551 C556 1.332 . S
C552 C553 1.386 1_565 S
C552 C555 1.388 . S
C553 C552 1.386 1_545 S
C553 C554 1.382 1_545 S
C553 H579 0.950 . S
C554 N551 1.332 . S
C554 C553 1.382 1_565 S
C554 H565 0.952 1_565 S
C555 C552 1.388 . S
C555 C556 1.382 . S
C555 H580 0.950 . S
C556 N551 1.332 . S
C556 C555 1.382 . S
C556 H566 0.948 . S
N557 Co535 2.282 . S
N557 C561 1.332 . S
N557 C562 1.332 . S
C558 C559 1.388 . S
C558 C562 1.382 . S
C558 H581 0.950 . S
C559 C558 1.388 . S
C559 C560 1.386 . S
C560 C559 1.386 . S
C560 C561 1.382 . S
C560 H582 0.950 . S
C561 N557 1.332 . S
C561 C560 1.382 . S
C561 H563 0.952 . S
C562 N557 1.332 . S
C562 C558 1.382 . S
C562 H564 0.948 . S
H563 C561 0.952 . S
H564 C562 0.948 . S
H565 C554 0.952 1_545 S
H566 C556 0.948 . S
C567 C533 1.395 . S
C567 C537 1.391 . S
C568 C530 1.389 . S
C568 C550 1.392 . S
C569 C540 1.392 . S
C569 C542 1.389 . S
C570 C545 1.395 . S
C570 C547 1.391 . S
H571 C531 0.951 . S
H572 C532 0.950 . S
H573 C538 0.949 . S
H574 C539 0.950 . S
H575 C543 0.951 . S
H576 C544 0.950 . S
H577 C548 0.949 . S
H578 C549 0.950 . S
H579 C553 0.950 . S
H580 C555 0.950 . S
H581 C558 0.950 . S
H582 C560 0.950 . S
C583 C584 1.443 1_455 S
C583 N587 1.376 1_455 S
C583 C621 1.389 . S
C584 C583 1.443 1_655 S
C584 C585 1.340 . S
C584 H624 0.951 . S
C585 C584 1.340 . S
C585 C586 1.439 . S
C585 H625 0.950 . S
C586 C585 1.439 . S
C586 N587 1.374 . S
C586 C620 1.395 . S
N587 C583 1.376 1_655 S
N587 C586 1.374 . S
N587 Co588 2.008 1_655 S
Co588 N587 2.008 1_455 S
Co588 N589 1.995 1_455 S
Co588 N594 2.008 . S
Co588 N599 1.995 . S
Co588 N604 2.282 . S
Co588 N610 2.282 . S
N589 Co588 1.995 1_655 S
N589 C590 1.376 . S
N589 C593 1.383 . S
C590 N589 1.376 . S
C590 C591 1.446 . S
C590 C620 1.391 . S
C591 C590 1.446 . S
C591 C592 1.339 . S
C591 H626 0.949 . S
C592 C591 1.339 . S
C592 C593 1.439 . S
C592 H627 0.950 . S
C593 N589 1.383 . S
C593 C592 1.439 . S
C593 C622 1.392 1_655 S
N594 Co588 2.008 . S
N594 C595 1.376 . S
N594 C598 1.374 . S
C595 N594 1.376 . S
C595 C596 1.443 . S
C595 C622 1.389 . S
C596 C595 1.443 . S
C596 C597 1.340 . S
C596 H628 0.951 . S
C597 C596 1.340 . S
C597 C598 1.439 . S
C597 H629 0.950 . S
C598 N594 1.374 . S
C598 C597 1.439 . S
C598 C623 1.395 . S
N599 Co588 1.995 . S
N599 C600 1.376 . S
N599 C603 1.383 . S
C600 N599 1.376 . S
C600 C601 1.446 . S
C600 C623 1.391 . S
C601 C600 1.446 . S
C601 C602 1.339 . S
C601 H630 0.949 . S
C602 C601 1.339 . S
C602 C603 1.439 . S
C602 H631 0.950 . S
C603 N599 1.383 . S
C603 C602 1.439 . S
C603 C621 1.392 . S
N604 Co588 2.282 . S
N604 C607 1.332 . S
N604 C609 1.332 1_455 S
C605 C606 1.386 . S
C605 C608 1.388 1_455 S
C606 C605 1.386 . S
C606 C607 1.382 . S
C606 H632 0.950 . S
C607 N604 1.332 . S
C607 C606 1.382 . S
C607 H618 0.952 . S
C608 C605 1.388 1_655 S
C608 C609 1.382 . S
C608 H633 0.950 . S
C609 N604 1.332 1_655 S
C609 C608 1.382 . S
C609 H619 0.948 . S
N610 Co588 2.282 . S
N610 C614 1.329 1_455 S
N610 C615 1.332 . S
C611 C612 1.388 . S
C611 C615 1.382 . S
C611 H634 0.950 . S
C612 C611 1.388 . S
C612 C613 1.386 1_455 S
C613 C612 1.386 1_655 S
C613 C614 1.382 . S
C613 H635 0.950 . S
C614 N610 1.329 1_655 S
C614 C613 1.382 . S
C614 H616 0.954 . S
C615 N610 1.332 . S
C615 C611 1.382 . S
C615 H617 0.948 . S
H616 C614 0.954 . S
H617 C615 0.948 . S
H618 C607 0.952 . S
H619 C609 0.948 . S
C620 C586 1.395 . S
C620 C590 1.391 . S
C621 C583 1.389 . S
C621 C603 1.392 . S
C622 C593 1.392 1_455 S
C622 C595 1.389 . S
C623 C598 1.395 . S
C623 C600 1.391 . S
H624 C584 0.951 . S
H625 C585 0.950 . S
H626 C591 0.949 . S
H627 C592 0.950 . S
H628 C596 0.951 . S
H629 C597 0.950 . S
H630 C601 0.949 . S
H631 C602 0.950 . S
H632 C606 0.950 . S
H633 C608 0.950 . S
H634 C611 0.950 . S
H635 C613 0.950 . S
C636 C637 1.443 . S
C636 N640 1.376 . S
C636 C674 1.389 . S
C637 C636 1.443 . S
C637 C638 1.340 . S
C637 H677 0.951 . S
C638 C637 1.340 . S
C638 C639 1.439 . S
C638 H678 0.950 . S
C639 C638 1.439 . S
C639 N640 1.374 . S
C639 C673 1.395 . S
N640 C636 1.376 . S
N640 C639 1.374 . S
N640 Co641 2.008 . S
Co641 N640 2.008 . S
Co641 N642 1.995 . S
Co641 N647 2.008 . S
Co641 N652 1.995 . S
Co641 N657 2.282 . S
Co641 N663 2.282 . S
N642 Co641 1.995 . S
N642 C643 1.376 . S
N642 C646 1.383 . S
C643 N642 1.376 . S
C643 C644 1.446 . S
C643 C673 1.391 . S
C644 C643 1.446 . S
C644 C645 1.339 . S
C644 H679 0.949 . S
C645 C644 1.339 . S
C645 C646 1.439 . S
C645 H680 0.950 . S
C646 N642 1.383 . S
C646 C645 1.439 . S
C646 C675 1.392 . S
N647 Co641 2.008 . S
N647 C648 1.376 . S
N647 C651 1.374 1_565 S
C648 N647 1.376 . S
C648 C649 1.443 1_565 S
C648 C675 1.389 . S
C649 C648 1.443 1_545 S
C649 C650 1.340 . S
C649 H681 0.951 . S
C650 C649 1.340 . S
C650 C651 1.439 . S
C650 H682 0.950 . S
C651 N647 1.374 1_545 S
C651 C650 1.439 . S
C651 C676 1.395 . S
N652 Co641 1.995 . S
N652 C653 1.376 1_565 S
N652 C656 1.383 . S
C653 N652 1.376 1_545 S
C653 C654 1.446 . S
C653 C676 1.391 . S
C654 C653 1.446 . S
C654 C655 1.339 . S
C654 H683 0.949 . S
C655 C654 1.339 . S
C655 C656 1.439 1_545 S
C655 H684 0.950 . S
C656 N652 1.383 . S
C656 C655 1.439 1_565 S
C656 C674 1.392 . S
N657 Co641 2.282 . S
N657 C660 1.332 . S
N657 C662 1.332 . S
C658 C659 1.386 1_565 S
C658 C661 1.388 . S
C659 C658 1.386 1_545 S
C659 C660 1.382 1_545 S
C659 H685 0.950 . S
C660 N657 1.332 . S
C660 C659 1.382 1_565 S
C660 H671 0.952 1_565 S
C661 C658 1.388 . S
C661 C662 1.382 . S
C661 H686 0.950 . S
C662 N657 1.332 . S
C662 C661 1.382 . S
C662 H672 0.948 . S
N663 Co641 2.282 . S
N663 C667 1.332 . S
N663 C668 1.332 . S
C664 C665 1.388 . S
C664 C668 1.382 . S
C664 H687 0.950 . S
C665 C664 1.388 . S
C665 C666 1.386 . S
C666 C665 1.386 . S
C666 C667 1.382 . S
C666 H688 0.950 . S
C667 N663 1.332 . S
C667 C666 1.382 . S
C667 H669 0.952 . S
C668 N663 1.332 . S
C668 C664 1.382 . S
C668 H670 0.948 . S
H669 C667 0.952 . S
H670 C668 0.948 . S
H671 C660 0.952 1_545 S
H672 C662 0.948 . S
C673 C639 1.395 . S
C673 C643 1.391 . S
C674 C636 1.389 . S
C674 C656 1.392 . S
C675 C646 1.392 . S
C675 C648 1.389 . S
C676 C651 1.395 . S
C676 C653 1.391 . S
H677 C637 0.951 . S
H678 C638 0.950 . S
H679 C644 0.949 . S
H680 C645 0.950 . S
H681 C649 0.951 . S
H682 C650 0.950 . S
H683 C654 0.949 . S
H684 C655 0.950 . S
H685 C659 0.950 . S
H686 C661 0.950 . S
H687 C664 0.950 . S
H688 C666 0.950 . S
C689 C690 1.443 1_455 S
C689 N693 1.376 1_455 S
C689 C727 1.389 . S
C690 C689 1.443 1_655 S
C690 C691 1.340 . S
C690 H730 0.951 . S
C691 C690 1.340 . S
C691 C692 1.439 . S
C691 H731 0.950 . S
C692 C691 1.439 . S
C692 N693 1.374 . S
C692 C726 1.395 . S
N693 C689 1.376 1_655 S
N693 C692 1.374 . S
N693 Co694 2.008 1_655 S
Co694 N693 2.008 1_455 S
Co694 N695 1.995 1_455 S
Co694 N700 2.008 . S
Co694 N705 1.995 . S
Co694 N710 2.282 . S
Co694 N716 2.282 . S
N695 Co694 1.995 1_655 S
N695 C696 1.376 . S
N695 C699 1.383 . S
C696 N695 1.376 . S
C696 C697 1.446 . S
C696 C726 1.391 . S
C697 C696 1.446 . S
C697 C698 1.339 . S
C697 H732 0.949 . S
C698 C697 1.339 . S
C698 C699 1.439 . S
C698 H733 0.950 . S
C699 N695 1.383 . S
C699 C698 1.439 . S
C699 C728 1.392 1_655 S
N700 Co694 2.008 . S
N700 C701 1.376 . S
N700 C704 1.374 . S
C701 N700 1.376 . S
C701 C702 1.443 . S
C701 C728 1.389 . S
C702 C701 1.443 . S
C702 C703 1.340 . S
C702 H734 0.951 . S
C703 C702 1.340 . S
C703 C704 1.439 . S
C703 H735 0.950 . S
C704 N700 1.374 . S
C704 C703 1.439 . S
C704 C729 1.395 . S
N705 Co694 1.995 . S
N705 C706 1.376 . S
N705 C709 1.383 . S
C706 N705 1.376 . S
C706 C707 1.446 . S
C706 C729 1.391 . S
C707 C706 1.446 . S
C707 C708 1.339 . S
C707 H736 0.949 . S
C708 C707 1.339 . S
C708 C709 1.439 . S
C708 H737 0.950 . S
C709 N705 1.383 . S
C709 C708 1.439 . S
C709 C727 1.392 . S
N710 Co694 2.282 . S
N710 C713 1.332 . S
N710 C715 1.332 1_455 S
C711 C712 1.386 . S
C711 C714 1.388 1_455 S
C712 C711 1.386 . S
C712 C713 1.382 . S
C712 H738 0.950 . S
C713 N710 1.332 . S
C713 C712 1.382 . S
C713 H724 0.952 . S
C714 C711 1.388 1_655 S
C714 C715 1.382 . S
C714 H739 0.950 . S
C715 N710 1.332 1_655 S
C715 C714 1.382 . S
C715 H725 0.948 . S
N716 Co694 2.282 . S
N716 C720 1.327 1_455 S
N716 C721 1.332 . S
C717 C718 1.388 . S
C717 C721 1.382 . S
C717 H740 0.950 . S
C718 C717 1.388 . S
C718 C719 1.386 1_455 S
C719 C718 1.386 1_655 S
C719 C720 1.382 . S
C719 H741 0.950 . S
C720 N716 1.327 1_655 S
C720 C719 1.382 . S
C720 H722 0.957 . S
C721 N716 1.332 . S
C721 C717 1.382 . S
C721 H723 0.948 . S
H722 C720 0.957 . S
H723 C721 0.948 . S
H724 C713 0.952 . S
H725 C715 0.948 . S
C726 C692 1.395 . S
C726 C696 1.391 . S
C727 C689 1.389 . S
C727 C709 1.392 . S
C728 C699 1.392 1_455 S
C728 C701 1.389 . S
C729 C704 1.395 . S
C729 C706 1.391 . S
H730 C690 0.951 . S
H731 C691 0.950 . S
H732 C697 0.949 . S
H733 C698 0.950 . S
H734 C702 0.951 . S
H735 C703 0.950 . S
H736 C707 0.949 . S
H737 C708 0.950 . S
H738 C712 0.950 . S
H739 C714 0.950 . S
H740 C717 0.950 . S
H741 C719 0.950 . S
C742 C743 1.443 . S
C742 N746 1.376 . S
C742 C780 1.389 . S
C743 C742 1.443 . S
C743 C744 1.340 . S
C743 H783 0.951 . S
C744 C743 1.340 . S
C744 C745 1.439 . S
C744 H784 0.950 . S
C745 C744 1.439 . S
C745 N746 1.374 . S
C745 C779 1.395 . S
N746 C742 1.376 . S
N746 C745 1.374 . S
N746 Co747 2.008 . S
Co747 N746 2.008 . S
Co747 N748 1.995 . S
Co747 N753 2.008 . S
Co747 N758 1.995 . S
Co747 N763 2.282 . S
Co747 N769 2.282 . S
N748 Co747 1.995 . S
N748 C749 1.376 . S
N748 C752 1.383 . S
C749 N748 1.376 . S
C749 C750 1.446 . S
C749 C779 1.391 . S
C750 C749 1.446 . S
C750 C751 1.339 . S
C750 H785 0.949 . S
C751 C750 1.339 . S
C751 C752 1.439 . S
C751 H786 0.950 . S
C752 N748 1.383 . S
C752 C751 1.439 . S
C752 C781 1.392 . S
N753 Co747 2.008 . S
N753 C754 1.376 . S
N753 C757 1.374 . S
C754 N753 1.376 . S
C754 C755 1.443 . S
C754 C781 1.389 . S
C755 C754 1.443 . S
C755 C756 1.340 . S
C755 H787 0.951 . S
C756 C755 1.340 . S
C756 C757 1.439 . S
C756 H788 0.950 . S
C757 N753 1.374 . S
C757 C756 1.439 . S
C757 C782 1.395 . S
N758 Co747 1.995 . S
N758 C759 1.376 . S
N758 C762 1.383 . S
C759 N758 1.376 . S
C759 C760 1.446 . S
C759 C782 1.391 . S
C760 C759 1.446 . S
C760 C761 1.339 . S
C760 H789 0.949 . S
C761 C760 1.339 . S
C761 C762 1.439 . S
C761 H790 0.950 . S
C762 N758 1.383 . S
C762 C761 1.439 . S
C762 C780 1.392 . S
N763 Co747 2.282 . S
N763 C766 1.332 . S
N763 C768 1.332 . S
C764 C765 1.386 . S
C764 C767 1.388 . S
C765 C764 1.386 . S
C765 C766 1.382 . S
C765 H791 0.950 . S
C766 N763 1.332 . S
C766 C765 1.382 . S
C766 H777 0.952 . S
C767 C764 1.388 . S
C767 C768 1.382 . S
C767 H792 0.950 . S
C768 N763 1.332 . S
C768 C767 1.382 . S
C768 H778 0.948 . S
N769 Co747 2.282 . S
N769 C773 1.332 . S
N769 C774 1.332 . S
C770 C771 1.388 . S
C770 C774 1.382 . S
C770 H793 0.950 . S
C771 C770 1.388 . S
C771 C772 1.386 . S
C772 C771 1.386 . S
C772 C773 1.382 . S
C772 H794 0.950 . S
C773 N769 1.332 . S
C773 C772 1.382 . S
C773 H775 0.952 . S
C774 N769 1.332 . S
C774 C770 1.382 . S
C774 H776 0.948 . S
H775 C773 0.952 . S
H776 C774 0.948 . S
H777 C766 0.952 . S
H778 C768 0.948 . S
C779 C745 1.395 . S
C779 C749 1.391 . S
C780 C742 1.389 . S
C780 C762 1.392 . S
C781 C752 1.392 . S
C781 C754 1.389 . S
C782 C757 1.395 . S
C782 C759 1.391 . S
H783 C743 0.951 . S
H784 C744 0.950 . S
H785 C750 0.949 . S
H786 C751 0.950 . S
H787 C755 0.951 . S
H788 C756 0.950 . S
H789 C760 0.949 . S
H790 C761 0.950 . S
H791 C765 0.950 . S
H792 C767 0.950 . S
H793 C770 0.950 . S
H794 C772 0.950 . S
C795 C796 1.443 . S
C795 N799 1.376 . S
C795 C833 1.389 . S
C796 C795 1.443 . S
C796 C797 1.340 . S
C796 H836 0.951 . S
C797 C796 1.340 . S
C797 C798 1.439 . S
C797 H837 0.950 . S
C798 C797 1.439 . S
C798 N799 1.374 . S
C798 C832 1.395 . S
N799 C795 1.376 . S
N799 C798 1.374 . S
N799 Co800 2.008 . S
Co800 N799 2.008 . S
Co800 N801 1.995 . S
Co800 N806 2.008 . S
Co800 N811 1.995 . S
Co800 N816 2.282 . S
Co800 N822 2.282 . S
N801 Co800 1.995 . S
N801 C802 1.376 . S
N801 C805 1.383 . S
C802 N801 1.376 . S
C802 C803 1.446 . S
C802 C832 1.391 . S
C803 C802 1.446 . S
C803 C804 1.339 . S
C803 H838 0.949 . S
C804 C803 1.339 . S
C804 C805 1.439 . S
C804 H839 0.950 . S
C805 N801 1.383 . S
C805 C804 1.439 . S
C805 C834 1.392 . S
N806 Co800 2.008 . S
N806 C807 1.376 . S
N806 C810 1.374 . S
C807 N806 1.376 . S
C807 C808 1.443 . S
C807 C834 1.389 . S
C808 C807 1.443 . S
C808 C809 1.340 . S
C808 H840 0.951 . S
C809 C808 1.340 . S
C809 C810 1.439 . S
C809 H841 0.950 . S
C810 N806 1.374 . S
C810 C809 1.439 . S
C810 C835 1.395 . S
N811 Co800 1.995 . S
N811 C812 1.376 . S
N811 C815 1.383 . S
C812 N811 1.376 . S
C812 C813 1.446 . S
C812 C835 1.391 . S
C813 C812 1.446 . S
C813 C814 1.339 . S
C813 H842 0.949 . S
C814 C813 1.339 . S
C814 C815 1.439 . S
C814 H843 0.950 . S
C815 N811 1.383 . S
C815 C814 1.439 . S
C815 C833 1.392 . S
N816 Co800 2.282 . S
N816 C819 1.332 . S
N816 C821 1.332 . S
C817 C818 1.386 . S
C817 C820 1.388 . S
C818 C817 1.386 . S
C818 C819 1.382 . S
C818 H844 0.950 . S
C819 N816 1.332 . S
C819 C818 1.382 . S
C819 H830 0.952 . S
C820 C817 1.388 . S
C820 C821 1.382 . S
C820 H845 0.950 . S
C821 N816 1.332 . S
C821 C820 1.382 . S
C821 H831 0.948 . S
N822 Co800 2.282 . S
N822 C826 1.332 . S
N822 C827 1.332 . S
C823 C824 1.388 . S
C823 C827 1.382 . S
C823 H846 0.950 . S
C824 C823 1.388 . S
C824 C825 1.386 . S
C825 C824 1.386 . S
C825 C826 1.382 . S
C825 H847 0.950 . S
C826 N822 1.332 . S
C826 C825 1.382 . S
C826 H828 0.952 . S
C827 N822 1.332 . S
C827 C823 1.382 . S
C827 H829 0.948 . S
H828 C826 0.952 . S
H829 C827 0.948 . S
H830 C819 0.952 . S
H831 C821 0.948 . S
C832 C798 1.395 . S
C832 C802 1.391 . S
C833 C795 1.389 . S
C833 C815 1.392 . S
C834 C805 1.392 . S
C834 C807 1.389 . S
C835 C810 1.395 . S
C835 C812 1.391 . S
H836 C796 0.951 . S
H837 C797 0.950 . S
H838 C803 0.949 . S
H839 C804 0.950 . S
H840 C808 0.951 . S
H841 C809 0.950 . S
H842 C813 0.949 . S
H843 C814 0.950 . S
H844 C818 0.950 . S
H845 C820 0.950 . S
H846 C823 0.950 . S
H847 C825 0.950 . S
C848 C849 1.363 1_545 S
C848 C854 1.379 1_655 S
C848 N856 1.356 1_545 S
C849 C848 1.363 1_565 S
C849 C855 1.363 . S
C850 C851 1.363 1_565 S
C850 C855 1.379 1_455 S
C850 N857 1.356 1_565 S
C851 C850 1.363 1_545 S
C851 C854 1.363 . S
N852 C854 1.356 . S
N852 H864 0.984 . S
N852 H865 0.985 . S
N853 C855 1.356 . S
N853 H858 0.984 . S
N853 H859 0.985 . S
C854 C848 1.379 1_455 S
C854 C851 1.363 . S
C854 N852 1.356 . S
C855 C849 1.363 . S
C855 C850 1.379 1_655 S
C855 N853 1.356 . S
N856 C848 1.356 1_565 S
N856 H862 0.984 1_565 S
N856 H863 0.984 . S
N857 C850 1.356 1_545 S
N857 H860 0.984 . S
N857 H861 0.985 1_545 S
H858 N853 0.984 . S
H859 N853 0.985 . S
H860 N857 0.984 . S
H861 N857 0.985 1_565 S
H862 N856 0.984 1_545 S
H863 N856 0.984 . S
H864 N852 0.984 . S
H865 N852 0.985 . S
C866 C867 1.363 . S
C866 C872 1.379 . S
C866 N874 1.356 . S
C867 C866 1.363 . S
C867 C873 1.363 1_655 S
C868 C869 1.363 . S
C868 C873 1.379 . S
C868 N875 1.356 . S
C869 C868 1.363 . S
C869 C872 1.363 1_455 S
N870 C872 1.356 . S
N870 H882 0.984 . S
N870 H883 0.985 1_655 S
N871 C873 1.356 . S
N871 H876 0.984 1_455 S
N871 H877 0.985 . S
C872 C866 1.379 . S
C872 C869 1.363 1_655 S
C872 N870 1.356 . S
C873 C867 1.363 1_455 S
C873 C868 1.379 . S
C873 N871 1.356 . S
N874 C866 1.356 . S
N874 H880 0.984 . S
N874 H881 0.984 . S
N875 C868 1.356 . S
N875 H878 0.984 . S
N875 H879 0.985 . S
H876 N871 0.984 1_655 S
H877 N871 0.985 . S
H878 N875 0.984 . S
H879 N875 0.985 . S
H880 N874 0.984 . S
H881 N874 0.984 . S
H882 N870 0.984 . S
H883 N870 0.985 1_455 S
C884 C885 1.363 . S
C884 C890 1.379 . S
C884 N892 1.356 . S
C885 C884 1.363 . S
C885 C891 1.363 . S
C886 C887 1.363 . S
C886 C891 1.379 . S
C886 N893 1.356 . S
C887 C886 1.363 . S
C887 C890 1.363 . S
N888 C890 1.356 . S
N888 H900 0.984 . S
N888 H901 0.985 . S
N889 C891 1.356 . S
N889 H894 0.984 . S
N889 H895 0.985 . S
C890 C884 1.379 . S
C890 C887 1.363 . S
C890 N888 1.356 . S
C891 C885 1.363 . S
C891 C886 1.379 . S
C891 N889 1.356 . S
N892 C884 1.356 . S
N892 H898 0.984 . S
N892 H899 0.984 . S
N893 C886 1.356 . S
N893 H896 0.984 . S
N893 H897 0.985 . S
H894 N889 0.984 . S
H895 N889 0.985 . S
H896 N893 0.984 . S
H897 N893 0.985 . S
H898 N892 0.984 . S
H899 N892 0.984 . S
H900 N888 0.984 . S
H901 N888 0.985 . S
C902 C903 1.363 . S
C902 C908 1.379 1_545 S
C902 N910 1.356 . S
C903 C902 1.363 . S
C903 C909 1.363 . S
C904 C905 1.363 . S
C904 C909 1.379 1_565 S
C904 N911 1.356 . S
C905 C904 1.363 . S
C905 C908 1.363 . S
N906 C908 1.356 . S
N906 H918 0.984 . S
N906 H919 0.985 . S
N907 C909 1.356 . S
N907 H912 0.984 . S
N907 H913 0.985 . S
C908 C902 1.379 1_565 S
C908 C905 1.363 . S
C908 N906 1.356 . S
C909 C903 1.363 . S
C909 C904 1.379 1_545 S
C909 N907 1.356 . S
N910 C902 1.356 . S
N910 H916 0.984 . S
N910 H917 0.984 . S
N911 C904 1.356 . S
N911 H914 0.984 . S
N911 H915 0.985 . S
H912 N907 0.984 . S
H913 N907 0.985 . S
H914 N911 0.984 . S
H915 N911 0.985 . S
H916 N910 0.984 . S
H917 N910 0.984 . S
H918 N906 0.984 . S
H919 N906 0.985 . S
C920 C921 1.363 . S
C920 C926 1.379 1_455 S
C920 N928 1.356 . S
C921 C920 1.363 . S
C921 C927 1.363 . S
C922 C923 1.363 . S
C922 C927 1.379 1_655 S
C922 N929 1.356 . S
C923 C922 1.363 . S
C923 C926 1.363 . S
N924 C926 1.356 . S
N924 H936 0.984 . S
N924 H937 0.985 . S
N925 C927 1.356 . S
N925 H930 0.984 . S
N925 H931 0.985 . S
C926 C920 1.379 1_655 S
C926 C923 1.363 . S
C926 N924 1.356 . S
C927 C921 1.363 . S
C927 C922 1.379 1_455 S
C927 N925 1.356 . S
N928 C920 1.356 . S
N928 H934 0.984 . S
N928 H935 0.984 . S
N929 C922 1.356 . S
N929 H932 0.984 . S
N929 H933 0.985 . S
H930 N925 0.984 . S
H931 N925 0.985 . S
H932 N929 0.984 . S
H933 N929 0.985 . S
H934 N928 0.984 . S
H935 N928 0.984 . S
H936 N924 0.984 . S
H937 N924 0.985 . S
C938 C939 1.363 . S
C938 C944 1.379 . S
C938 N946 1.356 . S
C939 C938 1.363 . S
C939 C945 1.363 . S
C940 C941 1.363 . S
C940 C945 1.379 . S
C940 N947 1.356 . S
C941 C940 1.363 . S
C941 C944 1.363 . S
N942 C944 1.356 . S
N942 H954 0.984 . S
N942 H955 0.985 . S
N943 C945 1.356 . S
N943 H948 0.984 . S
N943 H949 0.985 . S
C944 C938 1.379 . S
C944 C941 1.363 . S
C944 N942 1.356 . S
C945 C939 1.363 . S
C945 C940 1.379 . S
C945 N943 1.356 . S
N946 C938 1.356 . S
N946 H952 0.984 . S
N946 H953 0.984 . S
N947 C940 1.356 . S
N947 H950 0.984 . S
N947 H951 0.985 . S
H948 N943 0.984 . S
H949 N943 0.985 . S
H950 N947 0.984 . S
H951 N947 0.985 . S
H952 N946 0.984 . S
H953 N946 0.984 . S
H954 N942 0.984 . S
H955 N942 0.985 . S
C956 C957 1.363 1_565 S
C956 C962 1.379 . S
C956 N964 1.356 1_565 S
C957 C956 1.363 1_545 S
C957 C963 1.363 . S
C958 C959 1.363 1_545 S
C958 C963 1.379 . S
C958 N965 1.356 1_545 S
C959 C958 1.363 1_565 S
C959 C962 1.363 . S
N960 C962 1.356 . S
N960 H972 0.984 . S
N960 H973 0.985 . S
N961 C963 1.356 . S
N961 H966 0.984 . S
N961 H967 0.985 . S
C962 C956 1.379 . S
C962 C959 1.363 . S
C962 N960 1.356 . S
C963 C957 1.363 . S
C963 C958 1.379 . S
C963 N961 1.356 . S
N964 C956 1.356 1_545 S
N964 H970 0.984 1_545 S
N964 H971 0.984 . S
N965 C958 1.356 1_565 S
N965 H968 0.984 . S
N965 H969 0.985 1_565 S
H966 N961 0.984 . S
H967 N961 0.985 . S
H968 N965 0.984 . S
H969 N965 0.985 1_545 S
H970 N964 0.984 1_565 S
H971 N964 0.984 . S
H972 N960 0.984 . S
H973 N960 0.985 . S
C974 C975 1.363 1_655 S
C974 C980 1.379 1_545 S
C974 N982 1.356 . S
C975 C974 1.363 1_455 S
C975 C981 1.363 . S
C976 C977 1.363 1_455 S
C976 C981 1.379 1_565 S
C976 N983 1.356 . S
C977 C976 1.363 1_655 S
C977 C980 1.363 . S
N978 C980 1.356 . S
N978 H990 0.984 . S
N978 H991 0.985 . S
N979 C981 1.356 . S
N979 H984 0.984 . S
N979 H985 0.985 . S
C980 C974 1.379 1_565 S
C980 C977 1.363 . S
C980 N978 1.356 . S
C981 C975 1.363 . S
C981 C976 1.379 1_545 S
C981 N979 1.356 . S
N982 C974 1.356 . S
N982 H988 0.984 . S
N982 H989 0.984 1_655 S
N983 C976 1.356 . S
N983 H986 0.984 1_455 S
N983 H987 0.985 . S
H984 N979 0.984 . S
H985 N979 0.985 . S
H986 N983 0.984 1_655 S
H987 N983 0.985 . S
H988 N982 0.984 . S
H989 N982 0.984 1_455 S
H990 N978 0.984 . S
H991 N978 0.985 . S
C992 C993 1.363 . S
C992 C998 1.379 1_565 S
C992 N1000 1.356 . S
C993 C992 1.363 . S
C993 C999 1.363 . S
C994 C995 1.363 . S
C994 C999 1.379 1_545 S
C994 N1001 1.356 . S
C995 C994 1.363 . S
C995 C998 1.363 . S
N996 C998 1.356 . S
N996 H1008 0.984 . S
N996 H1009 0.985 . S
N997 C999 1.356 . S
N997 H1002 0.984 . S
N997 H1003 0.985 . S
C998 C992 1.379 1_545 S
C998 C995 1.363 . S
C998 N996 1.356 . S
C999 C993 1.363 . S
C999 C994 1.379 1_565 S
C999 N997 1.356 . S
N1000 C992 1.356 . S
N1000 H1006 0.984 1_565 S
N1000 H1007 0.984 . S
N1001 C994 1.356 . S
N1001 H1004 0.984 . S
N1001 H1005 0.985 1_545 S
H1002 N997 0.984 . S
H1003 N997 0.985 . S
H1004 N1001 0.984 . S
H1005 N1001 0.985 1_565 S
H1006 N1000 0.984 1_545 S
H1007 N1000 0.984 . S
H1008 N996 0.984 . S
H1009 N996 0.985 . S
C1010 C1011 1.363 1_455 S
C1010 C1016 1.379 1_565 S
C1010 N1018 1.356 . S
C1011 C1010 1.363 1_655 S
C1011 C1017 1.363 . S
C1012 C1013 1.363 1_655 S
C1012 C1017 1.379 1_545 S
C1012 N1019 1.356 . S
C1013 C1012 1.363 1_455 S
C1013 C1016 1.363 . S
N1014 C1016 1.356 . S
N1014 H1026 0.984 . S
N1014 H1027 0.985 . S
N1015 C1017 1.356 . S
N1015 H1020 0.984 . S
N1015 H1021 0.985 . S
C1016 C1010 1.379 1_545 S
C1016 C1013 1.363 . S
C1016 N1014 1.356 . S
C1017 C1011 1.363 . S
C1017 C1012 1.379 1_565 S
C1017 N1015 1.356 . S
N1018 C1010 1.356 . S
N1018 H1024 0.984 . S
N1018 H1025 0.984 1_455 S
N1019 C1012 1.356 . S
N1019 H1022 0.984 1_655 S
N1019 H1023 0.985 . S
H1020 N1015 0.984 . S
H1021 N1015 0.985 . S
H1022 N1019 0.984 1_455 S
H1023 N1019 0.985 . S
H1024 N1018 0.984 . S
H1025 N1018 0.984 1_655 S
H1026 N1014 0.984 . S
H1027 N1014 0.985 . S
C1028 C1029 1.363 1_655 S
C1028 C1034 1.379 . S
C1028 N1036 1.356 1_655 S
C1029 C1028 1.363 1_455 S
C1029 C1035 1.363 . S
C1030 C1031 1.363 1_455 S
C1030 C1035 1.379 . S
C1030 N1037 1.356 1_455 S
C1031 C1030 1.363 1_655 S
C1031 C1034 1.363 . S
N1032 C1034 1.356 . S
N1032 H1044 0.984 . S
N1032 H1045 0.985 . S
N1033 C1035 1.356 . S
N1033 H1038 0.984 . S
N1033 H1039 0.985 . S
C1034 C1028 1.379 . S
C1034 C1031 1.363 . S
C1034 N1032 1.356 . S
C1035 C1029 1.363 . S
C1035 C1030 1.379 . S
C1035 N1033 1.356 . S
N1036 C1028 1.356 1_455 S
N1036 H1042 0.984 1_455 S
N1036 H1043 0.984 . S
N1037 C1030 1.356 1_655 S
N1037 H1040 0.984 . S
N1037 H1041 0.985 1_655 S
H1038 N1033 0.984 . S
H1039 N1033 0.985 . S
H1040 N1037 0.984 . S
H1041 N1037 0.985 1_455 S
H1042 N1036 0.984 1_655 S
H1043 N1036 0.984 . S
H1044 N1032 0.984 . S
H1045 N1032 0.985 . S
C1046 C1047 1.363 . S
C1046 C1052 1.379 . S
C1046 N1054 1.356 . S
C1047 C1046 1.363 . S
C1047 C1053 1.363 . S
C1048 C1049 1.363 . S
C1048 C1053 1.379 . S
C1048 N1055 1.356 . S
C1049 C1048 1.363 . S
C1049 C1052 1.363 . S
N1050 C1052 1.356 . S
N1050 H1062 0.984 . S
N1050 H1063 0.985 . S
N1051 C1053 1.356 . S
N1051 H1056 0.984 . S
N1051 H1057 0.985 . S
C1052 C1046 1.379 . S
C1052 C1049 1.363 . S
C1052 N1050 1.356 . S
C1053 C1047 1.363 . S
C1053 C1048 1.379 . S
C1053 N1051 1.356 . S
N1054 C1046 1.356 . S
N1054 H1060 0.984 . S
N1054 H1061 0.984 . S
N1055 C1048 1.356 . S
N1055 H1058 0.984 . S
N1055 H1059 0.985 . S
H1056 N1051 0.984 . S
H1057 N1051 0.985 . S
H1058 N1055 0.984 . S
H1059 N1055 0.985 . S
H1060 N1054 0.984 . S
H1061 N1054 0.984 . S
H1062 N1050 0.984 . S
H1063 N1050 0.985 . S
C1064 C1065 1.363 . S
C1064 C1070 1.379 . S
C1064 N1072 1.356 . S
C1065 C1064 1.363 . S
C1065 C1071 1.363 . S
C1066 C1067 1.363 . S
C1066 C1071 1.379 . S
C1066 N1073 1.356 . S
C1067 C1066 1.363 . S
C1067 C1070 1.363 . S
N1068 C1070 1.356 . S
N1068 H1080 0.984 . S
N1068 H1081 0.985 . S
N1069 C1071 1.356 . S
N1069 H1074 0.984 . S
N1069 H1075 0.985 . S
C1070 C1064 1.379 . S
C1070 C1067 1.363 . S
C1070 N1068 1.356 . S
C1071 C1065 1.363 . S
C1071 C1066 1.379 . S
C1071 N1069 1.356 . S
N1072 C1064 1.356 . S
N1072 H1078 0.984 . S
N1072 H1079 0.984 . S
N1073 C1066 1.356 . S
N1073 H1076 0.984 . S
N1073 H1077 0.985 . S
H1074 N1069 0.984 . S
H1075 N1069 0.985 . S
H1076 N1073 0.984 . S
H1077 N1073 0.985 . S
H1078 N1072 0.984 . S
H1079 N1072 0.984 . S
H1080 N1068 0.984 . S
H1081 N1068 0.985 . S
C1082 C1083 1.363 . S
C1082 C1088 1.379 1_565 S
C1082 N1090 1.356 . S
C1083 C1082 1.363 . S
C1083 C1089 1.363 . S
C1084 C1085 1.363 . S
C1084 C1089 1.379 1_545 S
C1084 N1091 1.356 . S
C1085 C1084 1.363 . S
C1085 C1088 1.363 . S
N1086 C1088 1.356 . S
N1086 H1098 0.984 . S
N1086 H1099 0.985 . S
N1087 C1089 1.356 . S
N1087 H1092 0.984 . S
N1087 H1093 0.985 . S
C1088 C1082 1.379 1_545 S
C1088 C1085 1.363 . S
C1088 N1086 1.356 . S
C1089 C1083 1.363 . S
C1089 C1084 1.379 1_565 S
C1089 N1087 1.356 . S
N1090 C1082 1.356 . S
N1090 H1096 0.984 . S
N1090 H1097 0.984 . S
N1091 C1084 1.356 . S
N1091 H1094 0.984 . S
N1091 H1095 0.985 . S
H1092 N1087 0.984 . S
H1093 N1087 0.985 . S
H1094 N1091 0.984 . S
H1095 N1091 0.985 . S
H1096 N1090 0.984 . S
H1097 N1090 0.984 . S
H1098 N1086 0.984 . S
H1099 N1086 0.985 . S
C1100 C1101 1.363 . S
C1100 C1106 1.379 1_565 S
C1100 N1108 1.356 . S
C1101 C1100 1.363 . S
C1101 C1107 1.363 1_655 S
C1102 C1103 1.363 . S
C1102 C1107 1.379 1_545 S
C1102 N1109 1.356 . S
C1103 C1102 1.363 . S
C1103 C1106 1.363 1_455 S
N1104 C1106 1.356 1_455 S
N1104 H1116 0.984 1_455 S
N1104 H1117 0.985 . S
N1105 C1107 1.356 1_655 S
N1105 H1110 0.984 . S
N1105 H1111 0.985 1_655 S
C1106 C1100 1.379 1_545 S
C1106 C1103 1.363 1_655 S
C1106 N1104 1.356 1_655 S
C1107 C1101 1.363 1_455 S
C1107 C1102 1.379 1_565 S
C1107 N1105 1.356 1_455 S
N1108 C1100 1.356 . S
N1108 H1114 0.984 1_565 S
N1108 H1115 0.984 . S
N1109 C1102 1.356 . S
N1109 H1112 0.984 . S
N1109 H1113 0.985 1_545 S
H1110 N1105 0.984 . S
H1111 N1105 0.985 1_455 S
H1112 N1109 0.984 . S
H1113 N1109 0.985 1_565 S
H1114 N1108 0.984 1_545 S
H1115 N1108 0.984 . S
H1116 N1104 0.984 1_655 S
H1117 N1104 0.985 . S
C1118 C1119 1.363 1_655 S
C1118 C1124 1.379 . S
C1118 N1126 1.356 . S
C1119 C1118 1.363 1_455 S
C1119 C1125 1.363 . S
C1120 C1121 1.363 1_455 S
C1120 C1125 1.379 . S
C1120 N1127 1.356 . S
C1121 C1120 1.363 1_655 S
C1121 C1124 1.363 . S
N1122 C1124 1.356 . S
N1122 H1134 0.984 . S
N1122 H1135 0.985 . S
N1123 C1125 1.356 . S
N1123 H1128 0.984 . S
N1123 H1129 0.985 . S
C1124 C1118 1.379 . S
C1124 C1121 1.363 . S
C1124 N1122 1.356 . S
C1125 C1119 1.363 . S
C1125 C1120 1.379 . S
C1125 N1123 1.356 . S
N1126 C1118 1.356 . S
N1126 H1132 0.984 . S
N1126 H1133 0.984 1_655 S
N1127 C1120 1.356 . S
N1127 H1130 0.984 1_455 S
N1127 H1131 0.985 . S
H1128 N1123 0.984 . S
H1129 N1123 0.985 . S
H1130 N1127 0.984 1_655 S
H1131 N1127 0.985 . S
H1132 N1126 0.984 . S
H1133 N1126 0.984 1_455 S
H1134 N1122 0.984 . S
H1135 N1122 0.985 . S
C1136 C1137 1.363 1_565 S
C1136 C1142 1.379 . S
C1136 N1144 1.356 . S
C1137 C1136 1.363 1_545 S
C1137 C1143 1.363 . S
C1138 C1139 1.363 . S
C1138 C1143 1.379 . S
C1138 N1145 1.356 . S
C1139 C1138 1.363 . S
C1139 C1142 1.363 1_545 S
N1140 C1142 1.356 . S
N1140 H1152 0.984 . S
N1140 H1153 0.985 . S
N1141 C1143 1.356 . S
N1141 H1146 0.984 . S
N1141 H1147 0.985 . S
C1142 C1136 1.379 . S
C1142 C1139 1.363 1_565 S
C1142 N1140 1.356 . S
C1143 C1137 1.363 . S
C1143 C1138 1.379 . S
C1143 N1141 1.356 . S
N1144 C1136 1.356 . S
N1144 H1150 0.984 . S
N1144 H1151 0.984 . S
N1145 C1138 1.356 . S
N1145 H1148 0.984 . S
N1145 H1149 0.985 . S
H1146 N1141 0.984 . S
H1147 N1141 0.985 . S
H1148 N1145 0.984 . S
H1149 N1145 0.985 . S
H1150 N1144 0.984 . S
H1151 N1144 0.984 . S
H1152 N1140 0.984 . S
H1153 N1140 0.985 . S
C1154 C1155 1.363 . S
C1154 C1160 1.379 . S
C1154 N1162 1.356 . S
C1155 C1154 1.363 . S
C1155 C1161 1.363 1_655 S
C1156 C1157 1.363 1_455 S
C1156 C1161 1.379 . S
C1156 N1163 1.356 . S
C1157 C1156 1.363 1_655 S
C1157 C1160 1.363 . S
N1158 C1160 1.356 . S
N1158 H1170 0.984 . S
N1158 H1171 0.985 . S
N1159 C1161 1.356 . S
N1159 H1164 0.984 . S
N1159 H1165 0.985 . S
C1160 C1154 1.379 . S
C1160 C1157 1.363 . S
C1160 N1158 1.356 . S
C1161 C1155 1.363 1_455 S
C1161 C1156 1.379 . S
C1161 N1159 1.356 . S
N1162 C1154 1.356 . S
N1162 H1168 0.984 . S
N1162 H1169 0.984 . S
N1163 C1156 1.356 . S
N1163 H1166 0.984 . S
N1163 H1167 0.985 . S
H1164 N1159 0.984 . S
H1165 N1159 0.985 . S
H1166 N1163 0.984 . S
H1167 N1163 0.985 . S
H1168 N1162 0.984 . S
H1169 N1162 0.984 . S
H1170 N1158 0.984 . S
H1171 N1158 0.985 . S
C1172 C1173 1.363 . S
C1172 C1178 1.379 . S
C1172 N1180 1.356 . S
C1173 C1172 1.363 . S
C1173 C1179 1.363 . S
C1174 C1175 1.363 . S
C1174 C1179 1.379 . S
C1174 N1181 1.356 . S
C1175 C1174 1.363 . S
C1175 C1178 1.363 . S
N1176 C1178 1.356 . S
N1176 H1188 0.984 . S
N1176 H1189 0.985 . S
N1177 C1179 1.356 . S
N1177 H1182 0.984 . S
N1177 H1183 0.985 . S
C1178 C1172 1.379 . S
C1178 C1175 1.363 . S
C1178 N1176 1.356 . S
C1179 C1173 1.363 . S
C1179 C1174 1.379 . S
C1179 N1177 1.356 . S
N1180 C1172 1.356 . S
N1180 H1186 0.984 . S
N1180 H1187 0.984 . S
N1181 C1174 1.356 . S
N1181 H1184 0.984 . S
N1181 H1185 0.985 . S
H1182 N1177 0.984 . S
H1183 N1177 0.985 . S
H1184 N1181 0.984 . S
H1185 N1181 0.985 . S
H1186 N1180 0.984 . S
H1187 N1180 0.984 . S
H1188 N1176 0.984 . S
H1189 N1176 0.985 . S
C1190 C1191 1.363 . S
C1190 C1196 1.379 . S
C1190 N1198 1.356 . S
C1191 C1190 1.363 . S
C1191 C1197 1.363 . S
C1192 C1193 1.363 . S
C1192 C1197 1.379 . S
C1192 N1199 1.356 . S
C1193 C1192 1.363 . S
C1193 C1196 1.363 . S
N1194 C1196 1.356 . S
N1194 H1206 0.984 . S
N1194 H1207 0.985 . S
N1195 C1197 1.356 . S
N1195 H1200 0.984 . S
N1195 H1201 0.985 . S
C1196 C1190 1.379 . S
C1196 C1193 1.363 . S
C1196 N1194 1.356 . S
C1197 C1191 1.363 . S
C1197 C1192 1.379 . S
C1197 N1195 1.356 . S
N1198 C1190 1.356 . S
N1198 H1204 0.984 . S
N1198 H1205 0.984 . S
N1199 C1192 1.356 . S
N1199 H1202 0.984 . S
N1199 H1203 0.985 . S
H1200 N1195 0.984 . S
H1201 N1195 0.985 . S
H1202 N1199 0.984 . S
H1203 N1199 0.985 . S
H1204 N1198 0.984 . S
H1205 N1198 0.984 . S
H1206 N1194 0.984 . S
H1207 N1194 0.985 . S
C1208 C1209 1.363 . S
C1208 C1214 1.379 . S
C1208 N1216 1.356 . S
C1209 C1208 1.363 . S
C1209 C1215 1.363 . S
C1210 C1211 1.363 . S
C1210 C1215 1.379 . S
C1210 N1217 1.356 . S
C1211 C1210 1.363 . S
C1211 C1214 1.363 . S
N1212 C1214 1.356 . S
N1212 H1224 0.984 . S
N1212 H1225 0.985 . S
N1213 C1215 1.356 . S
N1213 H1218 0.984 . S
N1213 H1219 0.985 . S
C1214 C1208 1.379 . S
C1214 C1211 1.363 . S
C1214 N1212 1.356 . S
C1215 C1209 1.363 . S
C1215 C1210 1.379 . S
C1215 N1213 1.356 . S
N1216 C1208 1.356 . S
N1216 H1222 0.984 . S
N1216 H1223 0.984 . S
N1217 C1210 1.356 . S
N1217 H1220 0.984 . S
N1217 H1221 0.985 . S
H1218 N1213 0.984 . S
H1219 N1213 0.985 . S
H1220 N1217 0.984 . S
H1221 N1217 0.985 . S
H1222 N1216 0.984 . S
H1223 N1216 0.984 . S
H1224 N1212 0.984 . S
H1225 N1212 0.985 . S
C1226 C1227 1.363 . S
C1226 C1232 1.379 . S
C1226 N1234 1.356 . S
C1227 C1226 1.363 . S
C1227 C1233 1.363 . S
C1228 C1229 1.363 . S
C1228 C1233 1.379 . S
C1228 N1235 1.356 . S
C1229 C1228 1.363 . S
C1229 C1232 1.363 . S
N1230 C1232 1.356 . S
N1230 H1242 0.984 . S
N1230 H1243 0.985 . S
N1231 C1233 1.356 . S
N1231 H1236 0.984 . S
N1231 H1237 0.985 . S
C1232 C1226 1.379 . S
C1232 C1229 1.363 . S
C1232 N1230 1.356 . S
C1233 C1227 1.363 . S
C1233 C1228 1.379 . S
C1233 N1231 1.356 . S
N1234 C1226 1.356 . S
N1234 H1240 0.984 . S
N1234 H1241 0.984 . S
N1235 C1228 1.356 . S
N1235 H1238 0.984 . S
N1235 H1239 0.985 . S
H1236 N1231 0.984 . S
H1237 N1231 0.985 . S
H1238 N1235 0.984 . S
H1239 N1235 0.985 . S
H1240 N1234 0.984 . S
H1241 N1234 0.984 . S
H1242 N1230 0.984 . S
H1243 N1230 0.985 . S
C1244 C1245 1.363 1_545 S
C1244 C1250 1.379 . S
C1244 N1252 1.356 . S
C1245 C1244 1.363 1_565 S
C1245 C1251 1.363 . S
C1246 C1247 1.363 . S
C1246 C1251 1.379 . S
C1246 N1253 1.356 . S
C1247 C1246 1.363 . S
C1247 C1250 1.363 1_565 S
N1248 C1250 1.356 . S
N1248 H1260 0.984 . S
N1248 H1261 0.985 . S
N1249 C1251 1.356 . S
N1249 H1254 0.984 . S
N1249 H1255 0.985 . S
C1250 C1244 1.379 . S
C1250 C1247 1.363 1_545 S
C1250 N1248 1.356 . S
C1251 C1245 1.363 . S
C1251 C1246 1.379 . S
C1251 N1249 1.356 . S
N1252 C1244 1.356 . S
N1252 H1258 0.984 . S
N1252 H1259 0.984 . S
N1253 C1246 1.356 . S
N1253 H1256 0.984 . S
N1253 H1257 0.985 . S
H1254 N1249 0.984 . S
H1255 N1249 0.985 . S
H1256 N1253 0.984 . S
H1257 N1253 0.985 . S
H1258 N1252 0.984 . S
H1259 N1252 0.984 . S
H1260 N1248 0.984 . S
H1261 N1248 0.985 . S
C1262 C1263 1.363 1_655 S
C1262 C1268 1.379 . S
C1262 N1270 1.356 . S
C1263 C1262 1.363 1_455 S
C1263 C1269 1.363 . S
C1264 C1265 1.363 . S
C1264 C1269 1.379 . S
C1264 N1271 1.356 . S
C1265 C1264 1.363 . S
C1265 C1268 1.363 1_455 S
N1266 C1268 1.356 . S
N1266 H1278 0.984 . S
N1266 H1279 0.985 . S
N1267 C1269 1.356 . S
N1267 H1272 0.984 . S
N1267 H1273 0.985 . S
C1268 C1262 1.379 . S
C1268 C1265 1.363 1_655 S
C1268 N1266 1.356 . S
C1269 C1263 1.363 . S
C1269 C1264 1.379 . S
C1269 N1267 1.356 . S
N1270 C1262 1.356 . S
N1270 H1276 0.984 . S
N1270 H1277 0.984 . S
N1271 C1264 1.356 . S
N1271 H1274 0.984 . S
N1271 H1275 0.985 . S
H1272 N1267 0.984 . S
H1273 N1267 0.985 . S
H1274 N1271 0.984 . S
H1275 N1271 0.985 . S
H1276 N1270 0.984 . S
H1277 N1270 0.984 . S
H1278 N1266 0.984 . S
H1279 N1266 0.985 . S
C1280 C1281 1.363 . S
C1280 C1286 1.379 . S
C1280 N1288 1.356 . S
C1281 C1280 1.363 . S
C1281 C1287 1.363 . S
C1282 C1283 1.363 . S
C1282 C1287 1.379 . S
C1282 N1289 1.356 . S
C1283 C1282 1.363 . S
C1283 C1286 1.363 . S
N1284 C1286 1.356 . S
N1284 H1296 0.984 . S
N1284 H1297 0.985 . S
N1285 C1287 1.356 . S
N1285 H1290 0.984 . S
N1285 H1291 0.985 . S
C1286 C1280 1.379 . S
C1286 C1283 1.363 . S
C1286 N1284 1.356 . S
C1287 C1281 1.363 . S
C1287 C1282 1.379 . S
C1287 N1285 1.356 . S
N1288 C1280 1.356 . S
N1288 H1294 0.984 . S
N1288 H1295 0.984 . S
N1289 C1282 1.356 . S
N1289 H1292 0.984 . S
N1289 H1293 0.985 . S
H1290 N1285 0.984 . S
H1291 N1285 0.985 . S
H1292 N1289 0.984 . S
H1293 N1289 0.985 . S
H1294 N1288 0.984 . S
H1295 N1288 0.984 . S
H1296 N1284 0.984 . S
H1297 N1284 0.985 . S
C1298 C1299 1.363 . S
C1298 C1304 1.379 . S
C1298 N1306 1.356 . S
C1299 C1298 1.363 . S
C1299 C1305 1.363 . S
C1300 C1301 1.363 . S
C1300 C1305 1.379 . S
C1300 N1307 1.356 . S
C1301 C1300 1.363 . S
C1301 C1304 1.363 . S
N1302 C1304 1.356 . S
N1302 H1314 0.984 . S
N1302 H1315 0.985 . S
N1303 C1305 1.356 . S
N1303 H1308 0.984 . S
N1303 H1309 0.985 . S
C1304 C1298 1.379 . S
C1304 C1301 1.363 . S
C1304 N1302 1.356 . S
C1305 C1299 1.363 . S
C1305 C1300 1.379 . S
C1305 N1303 1.356 . S
N1306 C1298 1.356 . S
N1306 H1312 0.984 . S
N1306 H1313 0.984 . S
N1307 C1300 1.356 . S
N1307 H1310 0.984 . S
N1307 H1311 0.985 . S
H1308 N1303 0.984 . S
H1309 N1303 0.985 . S
H1310 N1307 0.984 . S
H1311 N1307 0.985 . S
H1312 N1306 0.984 . S
H1313 N1306 0.984 . S
H1314 N1302 0.984 . S
H1315 N1302 0.985 . S
C1316 C1317 1.363 . S
C1316 C1322 1.379 . S
C1316 N1324 1.356 . S
C1317 C1316 1.363 . S
C1317 C1323 1.363 . S
C1318 C1319 1.363 . S
C1318 C1323 1.379 . S
C1318 N1325 1.356 . S
C1319 C1318 1.363 . S
C1319 C1322 1.363 . S
N1320 C1322 1.356 . S
N1320 H1332 0.984 . S
N1320 H1333 0.985 . S
N1321 C1323 1.356 . S
N1321 H1326 0.984 . S
N1321 H1327 0.985 1_455 S
C1322 C1316 1.379 . S
C1322 C1319 1.363 . S
C1322 N1320 1.356 . S
C1323 C1317 1.363 . S
C1323 C1318 1.379 . S
C1323 N1321 1.356 . S
N1324 C1316 1.356 . S
N1324 H1330 0.984 . S
N1324 H1331 0.984 . S
N1325 C1318 1.356 . S
N1325 H1328 0.984 . S
N1325 H1329 0.985 . S
H1326 N1321 0.984 . S
H1327 N1321 0.985 1_655 S
H1328 N1325 0.984 . S
H1329 N1325 0.985 . S
H1330 N1324 0.984 . S
H1331 N1324 0.984 . S
H1332 N1320 0.984 . S
H1333 N1320 0.985 . S
C1334 C1335 1.363 . S
C1334 C1340 1.379 . S
C1334 N1342 1.356 . S
C1335 C1334 1.363 . S
C1335 C1341 1.363 1_556 S
C1336 C1337 1.363 . S
C1336 C1341 1.379 . S
C1336 N1343 1.356 . S
C1337 C1336 1.363 . S
C1337 C1340 1.363 1_554 S
N1338 C1340 1.356 . S
N1338 H1350 0.984 . S
N1338 H1351 0.985 1_556 S
N1339 C1341 1.356 . S
N1339 H1344 0.984 1_554 S
N1339 H1345 0.985 . S
C1340 C1334 1.379 . S
C1340 C1337 1.363 1_556 S
C1340 N1338 1.356 . S
C1341 C1335 1.363 1_554 S
C1341 C1336 1.379 . S
C1341 N1339 1.356 . S
N1342 C1334 1.356 . S
N1342 H1348 0.984 . S
N1342 H1349 0.984 . S
N1343 C1336 1.356 . S
N1343 H1346 0.984 . S
N1343 H1347 0.985 . S
H1344 N1339 0.984 1_556 S
H1345 N1339 0.985 . S
H1346 N1343 0.984 . S
H1347 N1343 0.985 . S
H1348 N1342 0.984 . S
H1349 N1342 0.984 . S
H1350 N1338 0.984 . S
H1351 N1338 0.985 1_554 S
C1352 C1353 1.363 1_556 S
C1352 C1358 1.379 . S
C1352 N1360 1.356 . S
C1353 C1352 1.363 1_554 S
C1353 C1359 1.363 . S
C1354 C1355 1.363 1_554 S
C1354 C1359 1.379 . S
C1354 N1361 1.356 . S
C1355 C1354 1.363 1_556 S
C1355 C1358 1.363 . S
N1356 C1358 1.356 . S
N1356 H1368 0.984 . S
N1356 H1369 0.985 . S
N1357 C1359 1.356 . S
N1357 H1362 0.984 . S
N1357 H1363 0.985 . S
C1358 C1352 1.379 . S
C1358 C1355 1.363 . S
C1358 N1356 1.356 . S
C1359 C1353 1.363 . S
C1359 C1354 1.379 . S
C1359 N1357 1.356 . S
N1360 C1352 1.356 . S
N1360 H1366 0.984 . S
N1360 H1367 0.984 1_556 S
N1361 C1354 1.356 . S
N1361 H1364 0.930 1_554 S
N1361 H1365 0.985 . S
H1362 N1357 0.984 . S
H1363 N1357 0.985 . S
H1364 N1361 0.930 1_556 S
H1365 N1361 0.985 . S
H1366 N1360 0.984 . S
H1367 N1360 0.984 1_554 S
H1368 N1356 0.984 . S
H1369 N1356 0.985 . S
C1370 C1371 1.363 . S
C1370 C1376 1.379 . S
C1370 N1378 1.356 . S
C1371 C1370 1.363 . S
C1371 C1377 1.363 . S
C1372 C1373 1.363 . S
C1372 C1377 1.379 . S
C1372 N1379 1.356 . S
C1373 C1372 1.363 . S
C1373 C1376 1.363 . S
N1374 C1376 1.356 . S
N1374 H1386 0.984 . S
N1374 H1387 0.985 . S
N1375 C1377 1.356 . S
N1375 H1380 0.984 . S
N1375 H1381 0.985 . S
C1376 C1370 1.379 . S
C1376 C1373 1.363 . S
C1376 N1374 1.356 . S
C1377 C1371 1.363 . S
C1377 C1372 1.379 . S
C1377 N1375 1.356 . S
N1378 C1370 1.356 . S
N1378 H1384 0.984 . S
N1378 H1385 0.984 . S
N1379 C1372 1.356 . S
N1379 H1382 0.984 . S
N1379 H1383 0.985 . S
H1380 N1375 0.984 . S
H1381 N1375 0.985 . S
H1382 N1379 0.984 . S
H1383 N1379 0.985 . S
H1384 N1378 0.984 . S
H1385 N1378 0.984 . S
H1386 N1374 0.984 . S
H1387 N1374 0.985 . S
C1388 C1389 1.363 . S
C1388 C1394 1.379 . S
C1388 N1396 1.356 . S
C1389 C1388 1.363 . S
C1389 C1395 1.363 . S
C1390 C1391 1.363 . S
C1390 C1395 1.379 . S
C1390 N1397 1.356 . S
C1391 C1390 1.363 . S
C1391 C1394 1.363 . S
N1392 C1394 1.356 . S
N1392 H1404 0.984 . S
N1392 H1405 0.985 . S
N1393 C1395 1.356 . S
N1393 H1398 0.984 . S
N1393 H1399 0.985 . S
C1394 C1388 1.379 . S
C1394 C1391 1.363 . S
C1394 N1392 1.356 . S
C1395 C1389 1.363 . S
C1395 C1390 1.379 . S
C1395 N1393 1.356 . S
N1396 C1388 1.356 . S
N1396 H1402 0.984 . S
N1396 H1403 0.984 . S
N1397 C1390 1.356 . S
N1397 H1400 0.984 . S
N1397 H1401 0.985 . S
H1398 N1393 0.984 . S
H1399 N1393 0.985 . S
H1400 N1397 0.984 . S
H1401 N1397 0.985 . S
H1402 N1396 0.984 . S
H1403 N1396 0.984 . S
H1404 N1392 0.984 . S
H1405 N1392 0.985 . S
C1406 C1407 1.363 . S
C1406 C1412 1.379 . S
C1406 N1414 1.356 . S
C1407 C1406 1.363 . S
C1407 C1413 1.363 . S
C1408 C1409 1.363 . S
C1408 C1413 1.379 . S
C1408 N1415 1.356 . S
C1409 C1408 1.363 . S
C1409 C1412 1.363 . S
N1410 C1412 1.356 . S
N1410 H1422 0.984 . S
N1410 H1423 0.985 . S
N1411 C1413 1.356 . S
N1411 H1416 0.984 . S
N1411 H1417 0.985 . S
C1412 C1406 1.379 . S
C1412 C1409 1.363 . S
C1412 N1410 1.356 . S
C1413 C1407 1.363 . S
C1413 C1408 1.379 . S
C1413 N1411 1.356 . S
N1414 C1406 1.356 . S
N1414 H1420 0.984 . S
N1414 H1421 0.984 . S
N1415 C1408 1.356 . S
N1415 H1418 0.984 . S
N1415 H1419 0.985 . S
H1416 N1411 0.984 . S
H1417 N1411 0.985 . S
H1418 N1415 0.984 . S
H1419 N1415 0.985 . S
H1420 N1414 0.984 . S
H1421 N1414 0.984 . S
H1422 N1410 0.984 . S
H1423 N1410 0.985 . S
C849 C569 2.324 . S
C851 C39 2.324 . S
C867 C75 2.012 . S
C869 C605 2.012 . S
C885 C463 2.324 . S
C887 C145 2.324 . S
C903 C499 2.011 . S
C905 C181 2.011 . S
C921 C251 2.324 . S
C923 C781 2.324 . S
C939 C817 2.010 . S
C941 C287 2.010 . S
C957 C357 2.325 . S
C959 C675 2.325 . S
C975 C711 2.010 . S
C977 C393 2.010 . S
C993 C568 1.519 . S
C995 C38 1.519 . S
C1011 C82 1.163 . S
C1013 C612 1.163 . S
C1029 C144 1.519 . S
C1031 C462 1.519 . S
C1047 C188 1.163 . S
C1049 C506 1.163 . S
C1065 C250 1.519 . S
C1067 C780 1.519 . S
C1083 C294 1.162 . S
C1085 C824 1.162 . S
C1101 C674 1.520 . S
C1103 C356 1.520 . S
C1119 C718 1.162 . S
C1121 C400 1.162 . S
C1137 C22 1.930 . S
C1139 C340 1.930 . S
C1155 C92 1.812 . S
C1157 C410 1.812 . S
C1173 C128 1.930 . S
C1175 C234 1.930 . S
C1191 C198 1.812 . S
C1193 C304 1.812 . S
C1209 C446 1.930 . S
C1211 C764 1.930 . S
C1227 C834 1.812 . S
C1229 C516 1.812 . S
C1245 C552 1.930 . S
C1247 C658 1.930 . S
C1263 C728 1.812 . S
C1265 C622 1.812 . S
C1281 C29 1.913 . S
C1283 C833 1.925 . S
C1299 C665 1.913 . S
C1301 C91 1.925 . S
C1317 C727 1.925 . S
C1319 C135 1.913 . S
C1335 C771 1.913 . S
C1337 C197 1.926 . S
C1353 C515 1.926 . S
C1355 C241 1.913 . S
C1371 C559 1.913 . S
C1373 C303 1.926 . S
C1389 C347 1.913 . S
C1391 C621 1.925 . S
C1407 C409 1.925 . S
C1409 C453 1.913 . S
