# Generated by pormake.
# Topology smc, (6)-cn, num edge types: 1
# Building blocks:
#     Node 0, Type 0, BuildingBlock: PAMTUU_clean_sbu_0, # of connection points: 6
#     Node 1, Type 0, BuildingBlock: PAMTUU_clean_sbu_0, # of connection points: 6
#     Node 2, Type 0, BuildingBlock: PAMTUU_clean_sbu_0, # of connection points: 6
#     Node 3, Type 0, BuildingBlock: PAMTUU_clean_sbu_0, # of connection points: 6
#     Node 4, Type 0, BuildingBlock: PAMTUU_clean_sbu_0, # of connection points: 6
#     Node 5, Type 0, BuildingBlock: PAMTUU_clean_sbu_0, # of connection points: 6
#     Node 6, Type 0, BuildingBlock: PAMTUU_clean_sbu_0, # of connection points: 6
#     Node 7, Type 0, BuildingBlock: PAMTUU_clean_sbu_0, # of connection points: 6
#     Node 8, Type 0, BuildingBlock: PAMTUU_clean_sbu_0, # of connection points: 6
#     Edge 9, Type (0, 0), BuildingBlock: MIFKUJ_clean_linker_0, # of connection points: 2
#     Edge 10, Type (0, 0), BuildingBlock: MIFKUJ_clean_linker_0, # of connection points: 2
#     Edge 11, Type (0, 0), BuildingBlock: MIFKUJ_clean_linker_0, # of connection points: 2
#     Edge 12, Type (0, 0), BuildingBlock: MIFKUJ_clean_linker_0, # of connection points: 2
#     Edge 13, Type (0, 0), BuildingBlock: MIFKUJ_clean_linker_0, # of connection points: 2
#     Edge 14, Type (0, 0), BuildingBlock: MIFKUJ_clean_linker_0, # of connection points: 2
#     Edge 15, Type (0, 0), BuildingBlock: MIFKUJ_clean_linker_0, # of connection points: 2
#     Edge 16, Type (0, 0), BuildingBlock: MIFKUJ_clean_linker_0, # of connection points: 2
#     Edge 17, Type (0, 0), BuildingBlock: MIFKUJ_clean_linker_0, # of connection points: 2
#     Edge 18, Type (0, 0), BuildingBlock: MIFKUJ_clean_linker_0, # of connection points: 2
#     Edge 19, Type (0, 0), BuildingBlock: MIFKUJ_clean_linker_0, # of connection points: 2
#     Edge 20, Type (0, 0), BuildingBlock: MIFKUJ_clean_linker_0, # of connection points: 2
#     Edge 21, Type (0, 0), BuildingBlock: MIFKUJ_clean_linker_0, # of connection points: 2
#     Edge 22, Type (0, 0), BuildingBlock: MIFKUJ_clean_linker_0, # of connection points: 2
#     Edge 23, Type (0, 0), BuildingBlock: MIFKUJ_clean_linker_0, # of connection points: 2
#     Edge 24, Type (0, 0), BuildingBlock: MIFKUJ_clean_linker_0, # of connection points: 2
#     Edge 25, Type (0, 0), BuildingBlock: MIFKUJ_clean_linker_0, # of connection points: 2
#     Edge 26, Type (0, 0), BuildingBlock: MIFKUJ_clean_linker_0, # of connection points: 2
#     Edge 27, Type (0, 0), BuildingBlock: MIFKUJ_clean_linker_0, # of connection points: 2
#     Edge 28, Type (0, 0), BuildingBlock: MIFKUJ_clean_linker_0, # of connection points: 2
#     Edge 29, Type (0, 0), BuildingBlock: MIFKUJ_clean_linker_0, # of connection points: 2
#     Edge 30, Type (0, 0), BuildingBlock: MIFKUJ_clean_linker_0, # of connection points: 2
#     Edge 31, Type (0, 0), BuildingBlock: MIFKUJ_clean_linker_0, # of connection points: 2
#     Edge 32, Type (0, 0), BuildingBlock: MIFKUJ_clean_linker_0, # of connection points: 2
#     Edge 33, Type (0, 0), BuildingBlock: MIFKUJ_clean_linker_0, # of connection points: 2
#     Edge 34, Type (0, 0), BuildingBlock: MIFKUJ_clean_linker_0, # of connection points: 2
#     Edge 35, Type (0, 0), BuildingBlock: MIFKUJ_clean_linker_0, # of connection points: 2
# Relax obj value: 0.234
# Max RMSD: 0.320
# Mean RMSD: 0.291
data_MOF--net-smc--node1-PAMTUU_clean_sbu_0--edge1-MIFKUJ_clean_linker_0
_symmetry_space_group_name_H-M    P1
_symmetry_Int_Tables_number       1
_symmetry_cell_setting            triclinic
loop_
_symmetry_equiv_pos_as_xyz
'x, y, z'
_cell_length_a     51.740949
_cell_length_b     40.389306
_cell_length_c     51.763817
_cell_angle_alpha  90.403482
_cell_angle_beta   90.142828
_cell_angle_gamma 119.49762
loop_
_atom_site_label
_atom_site_type_symbol
_atom_site_fract_x
_atom_site_fract_y
_atom_site_fract_z
_atom_type_partial_charge
Tb0 Tb 0.07181 0.41613 1.00913 0.0
Tb1 Tb 0.04944 0.47323 0.02931 0.0
C2 C 1.03207 0.43579 0.97356 0.0
C3 C 0.12161 0.38029 1.01061 0.0
C4 C 0.17599 0.42139 0.03687 0.0
C5 C 0.17533 0.417 1.00985 0.0
C6 C 0.14828 0.3965 0.99679 0.0
C7 C 0.12276 0.37978 0.0378 0.0
C8 C 0.14975 0.40044 0.05084 0.0
C9 C 0.09463 0.37597 0.99778 0.0
O10 O 0.11152 0.47227 1.01461 0.0
O11 O 0.08883 0.50709 1.0068 0.0
O12 O 0.08205 0.47734 0.05814 0.0
O13 O 0.07543 0.41786 0.0512 0.0
O14 O 1.04061 0.51775 0.02221 0.0
O15 O 1.03447 0.49315 0.06013 0.0
O16 O 1.01773 0.41715 0.04292 0.0
O17 O 1.02367 0.38093 1.01198 0.0
O18 O 0.05546 0.431 0.97455 0.0
O19 O 1.02306 0.44629 0.99429 0.0
C20 C 0.11311 0.50489 1.00894 0.0
O21 O 0.07113 0.36384 1.01227 0.0
O22 O 0.09893 0.40544 0.98427 0.0
C23 C 0.08478 0.44828 0.06593 0.0
C24 C 0.99987 0.51022 0.04604 0.0
C25 C 0.94255 0.50107 0.04578 0.0
C26 C 0.96629 0.53339 0.05739 0.0
C27 C 0.9948 0.53793 0.05747 0.0
C28 C 0.97617 0.47742 0.03503 0.0
C29 C 0.94766 0.47294 0.03481 0.0
C30 C 1.02989 0.51565 0.04527 0.0
C31 C 1.00732 0.38548 0.0295 0.0
H32 H 0.19547 0.43191 0.99867 0.0
H33 H 0.14805 0.39703 0.97587 0.0
H34 H 0.10263 0.36704 0.04911 0.0
H35 H 0.1496 0.4029 0.07169 0.0
H36 H 0.963 0.55576 0.06561 0.0
H37 H 1.01295 0.56332 0.06606 0.0
H38 H 0.97982 0.45562 0.02629 0.0
H39 H 0.9297 0.44773 0.02587 0.0
Tb40 Tb 0.61979 0.63717 0.02246 0.0
Tb41 Tb 0.55519 0.60303 0.99895 0.0
C42 C 0.56984 0.61733 0.05882 0.0
C43 C 0.69394 0.65401 0.03552 0.0
C44 C 0.73311 0.62527 0.02984 0.0
C45 C 0.74077 0.65721 0.04576 0.0
C46 C 0.7213 0.67165 0.04847 0.0
C47 C 0.68684 0.62324 1.01876 0.0
C48 C 0.70626 0.60897 1.01593 0.0
C49 C 0.67176 0.66564 0.04041 0.0
O50 O 0.6072 0.57595 1.01503 0.0
O51 O 0.55733 0.55111 1.00732 0.0
O52 O 0.58147 0.60479 0.96444 0.0
O53 O 0.62856 0.63615 0.98192 0.0
O54 O 0.51007 0.5645 1.00476 0.0
O55 O 0.52425 0.60234 0.97223 0.0
O56 O 0.57262 0.6636 0.99358 0.0
O57 O 0.60779 0.68425 0.02524 0.0
O58 O 0.58977 0.6079 0.05336 0.0
O59 O 0.55657 0.62389 0.03937 0.0
C60 C 0.58022 0.54594 1.01161 0.0
O61 O 0.66472 0.67918 0.02054 0.0
O62 O 0.6483 0.64063 0.05253 0.0
C63 C 0.61072 0.62095 0.96215 0.0
C64 C 0.48284 0.59462 0.99534 0.0
C65 C 0.44519 0.61715 1.01904 0.0
C66 C 0.43395 0.58758 1.00048 0.0
C67 C 0.4527 0.57627 0.98877 0.0
C68 C 0.49438 0.62556 1.01271 0.0
C69 C 0.47569 0.6367 0.02455 0.0
C70 C 0.50192 0.57956 0.98652 0.0
C71 C 0.58973 0.6903 1.00998 0.0
H72 H 0.76157 0.67062 0.05639 0.0
H73 H 0.72727 0.6959 0.06108 0.0
H74 H 0.66586 0.60954 1.00843 0.0
H75 H 0.69968 0.58419 1.00368 0.0
H76 H 0.41037 0.57161 0.99627 0.0
H77 H 0.44345 0.55219 0.97555 0.0
H78 H 0.51764 0.63997 1.01806 0.0
H79 H 0.48484 0.65944 0.0388 0.0
Tb80 Tb 0.47884 0.04652 1.01798 0.0
Tb81 Tb 0.54571 0.09245 0.03926 0.0
C82 C 0.52901 0.09364 0.97885 0.0
C83 C 0.40186 0.96559 1.0091 0.0
C84 C 0.35895 0.88732 1.01308 0.0
C85 C 0.35616 0.91042 0.99423 0.0
C86 C 0.37733 0.94903 0.99231 0.0
C87 C 0.40495 0.94283 0.0279 0.0
C88 C 0.38369 0.90413 0.02991 0.0
C89 C 0.42461 1.006 1.00579 0.0
O90 O 0.49786 1.0079 1.01029 0.0
O91 O 0.53409 1.03259 0.04104 0.0
O92 O 0.51515 0.08131 0.07241 0.0
O93 O 0.47911 1.02564 0.05623 0.0
O94 O 0.58589 0.09243 0.04241 0.0
O95 O 0.57944 0.13462 0.06291 0.0
O96 O 0.54027 0.13978 0.02717 0.0
O97 O 0.48925 0.10821 0.02469 0.0
O98 O 0.50082 0.07739 0.98425 0.0
O99 O 0.54958 0.09871 0.99632 0.0
C100 C 0.51838 1.00545 0.0243 0.0
O101 O 0.43393 1.02722 0.02663 0.0
O102 O 0.44652 1.01209 0.99058 0.0
C103 C 0.49094 0.04833 0.07597 0.0
C104 C 0.62915 0.14937 0.05328 0.0
C105 C 0.69084 0.18776 0.0448 0.0
C106 C 0.67952 0.17735 0.06987 0.0
C107 C 0.64896 0.15841 0.07405 0.0
C108 C 0.6403 0.16158 0.02835 0.0
C109 C 0.67104 0.18094 0.02416 0.0
C110 C 0.59772 0.12196 0.05776 0.0
C111 C 0.51543 0.14089 0.02503 0.0
H112 H 0.33784 0.89856 0.98058 0.0
H113 H 0.3747 0.96592 0.97744 0.0
H114 H 0.42386 0.95493 0.04096 0.0
H115 H 0.38652 0.8875 0.04483 0.0
H116 H 0.69431 0.18273 0.08615 0.0
H117 H 0.64076 0.149 0.09338 0.0
H118 H 0.62528 0.1545 1.01203 0.0
H119 H 0.67925 0.18866 1.00465 0.0
Tb120 Tb 0.7384 0.79934 0.34778 0.0
Tb121 Tb 0.68706 0.83074 0.36155 0.0
C122 C 0.69283 0.79516 0.30499 0.0
C123 C 0.82062 0.80715 0.3438 0.0
C124 C 0.88255 0.82291 0.34173 0.0
C125 C 0.85898 0.79156 0.3284 0.0
C126 C 0.82886 0.7839 0.3294 0.0
C127 C 0.84404 0.83811 0.35726 0.0
C128 C 0.87391 0.84565 0.35635 0.0
C129 C 0.78881 0.80144 0.34433 0.0
O130 O 0.75044 0.85588 0.33394 0.0
O131 O 0.73165 0.87816 0.36463 0.0
O132 O 0.70682 0.82886 0.39929 0.0
O133 O 0.73042 0.79409 0.389 0.0
O134 O 0.6727 0.86956 0.35066 0.0
O135 O 0.65111 0.83027 0.38177 0.0
O136 O 0.66206 0.76968 0.36282 0.0
O137 O 0.69446 0.74601 0.35246 0.0
O138 O 0.71439 0.78809 0.31159 0.0
O139 O 0.68269 0.81304 0.32017 0.0
C140 C 0.75291 0.88364 0.34877 0.0
O141 O 0.78365 0.82547 0.3572 0.0
O142 O 0.76447 0.774 0.3336 0.0
C143 C 0.72123 0.81051 0.40584 0.0
C144 C 0.62296 0.85801 0.36198 0.0
C145 C 0.57267 0.87049 0.35505 0.0
C146 C 0.5938 0.87851 0.33528 0.0
C147 C 0.61844 0.87259 0.33871 0.0
C148 C 0.60161 0.84924 0.38149 0.0
C149 C 0.57708 0.85526 0.37813 0.0
C150 C 0.65157 0.85748 0.36786 0.0
C151 C 0.66756 0.74169 0.35801 0.0
H152 H 0.86373 0.77302 0.3166 0.0
H153 H 0.81205 0.75994 0.31851 0.0
H154 H 0.83935 0.85707 0.36868 0.0
H155 H 0.89024 0.86955 0.36756 0.0
H156 H 0.59151 0.88967 0.317 0.0
H157 H 0.63438 0.88034 0.32323 0.0
H158 H 0.60444 0.83888 0.39993 0.0
H159 H 0.56214 0.84913 0.39422 0.0
Tb160 Tb 0.27232 0.97069 0.3324 0.0
Tb161 Tb 0.24754 0.88251 0.3397 0.0
C162 C 0.27911 0.92542 0.28743 0.0
C163 C 0.27106 0.05871 0.33875 0.0
C164 C 0.23593 0.09004 0.35537 0.0
C165 C 0.25864 0.10912 0.33716 0.0
C166 C 0.27597 0.09341 0.32879 0.0
C167 C 0.24906 1.04015 0.35745 0.0
C168 C 0.23159 0.05561 0.36565 0.0
C169 C 0.28639 1.03956 0.32793 0.0
O170 O 0.22364 0.94625 0.34032 0.0
O171 O 0.20681 0.88421 0.32937 0.0
O172 O 0.24279 0.90248 0.37844 0.0
O173 O 0.27779 0.96487 0.37308 0.0
O174 O 0.22799 0.82865 0.32176 0.0
O175 O 0.24079 0.83572 0.36205 0.0
O176 O 0.29366 0.90811 0.3524 0.0
O177 O 0.3133 0.96476 0.33114 0.0
O178 O 0.27063 0.95005 0.29339 0.0
O179 O 0.27472 0.89862 0.30402 0.0
C180 C 0.20117 0.91195 0.33475 0.0
O181 O 0.29857 1.02748 0.34469 0.0
O182 O 0.27094 1.01351 0.31074 0.0
C183 C 0.26131 0.93644 0.38817 0.0
C184 C 0.25721 0.80219 0.33522 0.0
C185 C 0.30342 0.78935 0.31828 0.0
C186 C 0.30661 0.80969 0.34124 0.0
C187 C 0.28378 0.81611 0.34961 0.0
C188 C 0.25393 0.78148 0.31244 0.0
C189 C 0.27676 0.77516 0.30405 0.0
C190 C 0.23546 0.81476 0.34129 0.0
C191 C 0.31684 0.93811 0.34301 0.0
H192 H 0.26292 0.1361 0.32925 0.0
H193 H 0.29275 0.10792 0.31423 0.0
H194 H 0.24486 1.01314 0.36524 0.0
H195 H 0.21416 1.04002 0.37948 0.0
H196 H 0.32666 0.82036 0.35281 0.0
H197 H 0.28723 0.83256 0.36715 0.0
H198 H 0.2339 0.77081 0.30083 0.0
H199 H 0.27314 0.75814 0.28675 0.0
Tb200 Tb 0.12591 0.41365 0.37172 0.0
Tb201 Tb 0.19927 0.45721 0.38603 0.0
C202 C 0.17182 0.43012 0.32902 0.0
C203 C 0.04819 0.33877 0.35803 0.0
C204 C 1.00341 0.26222 0.35247 0.0
C205 C 0.99701 0.29191 0.34863 0.0
C206 C 1.01923 0.32984 0.35138 0.0
C207 C 0.05499 0.30941 0.36119 0.0
C208 C 1.03278 0.2714 0.3584 0.0
C209 C 0.0706 0.37857 0.36308 0.0
O210 O 0.13639 0.37137 0.38719 0.0
O211 O 0.18609 0.39894 0.37675 0.0
O212 O 0.1724 0.43626 0.42237 0.0
O213 O 0.13301 0.44226 0.40843 0.0
O214 O 0.24063 0.507 0.38163 0.0
O215 O 0.23699 0.46165 0.40574 0.0
O216 O 0.18069 0.4946 0.38885 0.0
O217 O 0.14658 0.47143 0.35681 0.0
O218 O 0.1478 0.40313 0.3398 0.0
O219 O 0.19388 0.45623 0.34329 0.0
C220 C 0.1608 0.36933 0.38347 0.0
O221 O 0.08253 0.38561 0.38606 0.0
O222 O 0.09044 0.39547 0.34524 0.0
C223 C 0.14719 0.43644 0.42721 0.0
C224 C 0.28638 0.50636 0.3901 0.0
C225 C 0.34874 0.53578 0.38043 0.0
C226 C 0.33724 0.52922 0.40577 0.0
C227 C 0.30677 0.51468 0.41043 0.0
C228 C 0.29745 0.51277 0.3647 0.0
C229 C 0.32807 0.52701 0.35994 0.0
C230 C 0.25483 0.49536 0.39654 0.0
C231 C 0.16919 0.50057 0.36808 0.0
H232 H 0.97474 0.28582 0.34366 0.0
H233 H 1.01365 0.3522 0.34887 0.0
H234 H 0.0773 0.31587 0.3664 0.0
H235 H 1.03839 0.24922 0.36167 0.0
H236 H 0.35184 0.53629 0.42235 0.0
H237 H 0.29921 0.51094 0.43025 0.0
H238 H 0.28253 0.50722 0.3485 0.0
H239 H 0.3354 0.53103 0.34008 0.0
Tb240 Tb 0.39425 0.07166 0.68878 0.0
Tb241 Tb 0.37288 0.13332 0.69763 0.0
C242 C 0.36167 0.08857 0.64443 0.0
C243 C 0.43928 1.02918 0.70219 0.0
C244 C 0.49565 0.05866 0.7253 0.0
C245 C 0.48875 1.03691 0.7023 0.0
C246 C 0.46081 1.02266 0.69065 0.0
C247 C 0.44495 0.04656 0.72669 0.0
C248 C 0.47286 0.06126 0.73816 0.0
C249 C 0.41438 1.02636 0.68679 0.0
O250 O 0.43479 0.1281 0.69091 0.0
O251 O 0.414 0.16303 0.67656 0.0
O252 O 0.40481 0.14274 0.72911 0.0
O253 O 0.39386 0.08107 0.73012 0.0
O254 O 0.36385 0.17522 0.68362 0.0
O255 O 0.35709 0.15916 0.72375 0.0
O256 O 0.33998 0.08032 0.71446 0.0
O257 O 0.34547 1.03965 0.68745 0.0
O258 O 0.38396 0.08305 0.65025 0.0
O259 O 0.35035 0.10178 0.66189 0.0
C260 C 0.4375 0.15971 0.68109 0.0
O261 O 0.39068 1.01955 0.69972 0.0
O262 O 0.42186 0.05418 0.6706 0.0
C263 C 0.40568 0.11468 0.74116 0.0
C264 C 0.32329 0.17456 0.7047 0.0
C265 C 0.26681 0.16861 0.7034 0.0
C266 C 0.28947 0.19599 0.71925 0.0
C267 C 0.3175 0.19897 0.71984 0.0
C268 C 0.30056 0.14654 0.68926 0.0
C269 C 0.27255 0.14378 0.68846 0.0
C270 C 0.35295 0.17826 0.70562 0.0
C271 C 0.32867 0.04742 0.70254 0.0
H272 H 0.50564 1.03348 0.69226 0.0
H273 H 0.45688 1.00928 0.67175 0.0
H274 H 0.42869 0.05188 0.73595 0.0
H275 H 0.47719 0.07781 0.75579 0.0
H276 H 0.28576 0.21582 0.73068 0.0
H277 H 0.33475 0.22056 0.73197 0.0
H278 H 0.30455 0.12703 0.67771 0.0
H279 H 0.25539 0.12231 0.6762 0.0
Tb280 Tb 0.94023 0.30631 0.69454 0.0
Tb281 Tb 0.87635 0.27513 0.66955 0.0
C282 C 0.88968 0.28717 0.72933 0.0
C283 C 1.01338 0.31939 0.71047 0.0
C284 C 0.05256 0.29041 0.70403 0.0
C285 C 0.05471 0.3125 0.72595 0.0
C286 C 1.0352 0.3268 0.72916 0.0
C287 C 1.01171 0.29839 0.68819 0.0
C288 C 1.03117 0.2841 0.68496 0.0
C289 C 0.99068 0.33035 0.71521 0.0
O290 O 0.92721 0.2458 0.68388 0.0
O291 O 0.87723 0.22218 0.67744 0.0
O292 O 0.90377 0.27687 0.63599 0.0
O293 O 0.9505 0.31056 0.65406 0.0
O294 O 0.83061 0.23881 0.67393 0.0
O295 O 0.84758 0.27672 0.64149 0.0
O296 O 0.89602 0.3362 0.66463 0.0
O297 O 0.92873 0.35406 0.69809 0.0
O298 O 0.90724 0.27435 0.72287 0.0
O299 O 0.87709 0.29522 0.7101 0.0
C300 C 0.89994 0.21623 0.68059 0.0
O301 O 0.98551 0.34736 0.69627 0.0
O302 O 0.96614 0.30369 0.72493 0.0
C303 C 0.93312 0.29495 0.63408 0.0
C304 C 0.80555 0.27108 0.66241 0.0
C305 C 0.76747 0.29364 0.68533 0.0
C306 C 0.75653 0.26363 0.66706 0.0
C307 C 0.77545 0.25234 0.65578 0.0
C308 C 0.81703 0.303 0.67895 0.0
C309 C 0.79811 0.31419 0.69038 0.0
C310 C 0.82422 0.25475 0.65502 0.0
C311 C 0.91198 0.36167 0.68217 0.0
H312 H 0.07125 0.31835 0.74079 0.0
H313 H 1.03667 0.34282 0.74651 0.0
H314 H 0.99476 0.29207 0.67366 0.0
H315 H 1.02871 0.26694 0.66798 0.0
H316 H 0.73295 0.24678 0.66307 0.0
H317 H 0.76628 0.2276 0.64313 0.0
H318 H 0.84033 0.31783 0.68424 0.0
H319 H 0.80712 0.33738 0.70432 0.0
Tb320 Tb 0.79465 0.7144 0.6887 0.0
Tb321 Tb 0.86317 0.76119 0.70241 0.0
C322 C 0.83817 0.75411 0.64519 0.0
C323 C 0.72046 0.62561 0.68082 0.0
C324 C 0.6819 0.54518 0.67794 0.0
C325 C 0.6935 0.56687 0.65537 0.0
C326 C 0.71251 0.60652 0.65679 0.0
C327 C 0.70881 0.60387 0.70331 0.0
C328 C 0.69001 0.56438 0.70191 0.0
C329 C 0.73962 0.66797 0.68283 0.0
O330 O 0.80954 0.67219 0.69989 0.0
O331 O 0.85703 0.70731 0.68705 0.0
O332 O 0.83627 0.73356 0.73788 0.0
O333 O 0.79943 0.74327 0.72476 0.0
O334 O 0.9053 0.76743 0.69681 0.0
O335 O 0.89841 0.79981 0.72672 0.0
O336 O 0.8532 0.80768 0.70057 0.0
O337 O 0.80549 0.7764 0.68364 0.0
O338 O 0.81709 0.72085 0.65251 0.0
O339 O 0.85783 0.77734 0.66243 0.0
C340 C 0.83501 0.67403 0.69322 0.0
O341 O 0.75273 0.68107 0.70503 0.0
O342 O 0.75728 0.68634 0.66372 0.0
C343 C 0.81257 0.73649 0.74364 0.0
C344 C 0.94806 0.8244 0.71046 0.0
C345 C 1.00985 0.87235 0.70289 0.0
C346 C 0.99791 0.86386 0.72794 0.0
C347 C 0.96742 0.84015 0.73164 0.0
C348 C 0.95956 0.83451 0.68539 0.0
C349 C 0.99013 0.85827 0.68165 0.0
C350 C 0.9176 0.79286 0.71509 0.0
C351 C 0.82999 0.80887 0.69102 0.0
H352 H 0.68796 0.5532 0.63654 0.0
H353 H 0.72079 0.62224 0.63904 0.0
H354 H 0.71389 0.61748 0.72216 0.0
H355 H 0.68115 0.54903 0.7197 0.0
H356 H 1.0123 0.87374 0.74478 0.0
H357 H 0.95917 0.83241 0.75115 0.0
H358 H 0.94517 0.82271 0.66866 0.0
H359 H 0.99841 0.86472 0.66209 0.0
H360 H 0.44359 0.61819 0.07139 0.0
H361 H 0.40103 0.60747 0.09759 0.0
H362 H 0.35657 0.61596 0.02945 0.0
H363 H 0.3994 0.6276 1.00328 0.0
H364 H 0.33556 0.63185 0.0778 0.0
H365 H 0.35603 0.53373 0.03603 0.0
H366 H 0.3897 0.5071 0.03123 0.0
H367 H 0.39117 0.49539 0.11356 0.0
H368 H 0.35776 0.52244 0.11877 0.0
H369 H 0.21132 0.49344 0.02024 0.0
H370 H 0.25676 0.54279 0.03988 0.0
H371 H 0.24567 0.46879 0.10377 0.0
H372 H 0.20038 0.41828 0.08341 0.0
H373 H 0.29678 0.49278 0.084 0.0
H374 H 0.24665 0.55392 0.11233 0.0
H375 H 0.21259 0.58004 0.11352 0.0
H376 H 0.26574 0.66382 0.0576 0.0
H377 H 0.29907 0.63699 0.05475 0.0
C378 C 0.42538 0.61979 0.06225 0.0
C379 C 0.42439 0.62301 0.03529 0.0
C380 C 0.40116 0.61386 0.07729 0.0
C381 C 0.37553 0.61026 0.06536 0.0
C382 C 0.37619 0.61868 0.03902 0.0
C383 C 0.40046 0.62479 0.024 0.0
C384 C 0.34621 0.58682 0.07728 0.0
C385 C 0.32674 0.60144 0.07957 0.0
C386 C 0.33542 0.54752 0.0809 0.0
C387 C 0.35466 0.53022 0.0778 0.0
C388 C 0.36356 0.52542 0.05307 0.0
C389 C 0.38262 0.51036 0.05028 0.0
C390 C 0.3926 0.4996 0.07209 0.0
C391 C 0.38345 0.50379 0.09671 0.0
C392 C 0.36448 0.51899 0.09959 0.0
C393 C 0.21858 0.48754 0.03843 0.0
C394 C 0.20285 0.45159 0.04989 0.0
C395 C 0.24419 0.5162 0.05003 0.0
C396 C 0.25448 0.50976 0.07355 0.0
C397 C 0.23799 0.47447 0.08573 0.0
C398 C 0.21229 0.4456 0.07402 0.0
C399 C 0.28503 0.53712 0.0822 0.0
C400 C 0.30504 0.52323 0.08384 0.0
C401 C 0.29597 0.57697 0.08211 0.0
C402 C 0.27552 0.59313 0.08326 0.0
C403 C 0.25088 0.5775 0.0999 0.0
C404 C 0.23156 0.59239 0.10079 0.0
C405 C 0.23682 0.62338 0.08545 0.0
C406 C 0.26141 0.6395 0.0692 0.0
C407 C 0.28052 0.62437 0.0679 0.0
H408 H 0.22194 0.63502 0.08624 0.0
H409 H 0.40738 0.48798 0.0699 0.0
H410 H 0.56725 1.00244 0.04237 0.0
H411 H 0.57948 0.95141 0.04002 0.0
H412 H 0.49769 0.88074 0.99909 0.0
H413 H 0.48531 0.93255 1.00118 0.0
H414 H 0.50822 0.83843 0.0363 0.0
H415 H 0.56611 0.92204 0.96816 0.0
H416 H 0.60187 0.98355 0.94916 0.0
H417 H 0.66962 0.9925 1.00146 0.0
H418 H 0.63413 0.93125 0.02102 0.0
H419 H 0.54385 0.69828 0.98999 0.0
H420 H 0.53286 0.7501 0.994 0.0
H421 H 0.61279 0.81484 0.03865 0.0
H422 H 0.62347 0.76149 0.03567 0.0
H423 H 0.60425 0.86084 1.00043 0.0
H424 H 0.55079 0.7821 0.06895 0.0
H425 H 0.51689 0.72575 0.094 0.0
H426 H 0.44346 0.71085 0.04687 0.0
H427 H 0.47707 0.76687 0.02115 0.0
C428 C 0.55163 0.9762 0.03273 0.0
C429 C 0.52509 0.97244 0.02194 0.0
C430 C 0.55887 0.94667 0.0313 0.0
C431 C 0.53991 0.91146 1.01916 0.0
C432 C 0.5131 0.90723 1.00859 0.0
C433 C 0.50598 0.9372 1.00969 0.0
C434 C 0.54823 0.87967 1.01778 0.0
C435 C 0.52898 0.84334 0.02792 0.0
C436 C 0.57595 0.88554 1.00804 0.0
C437 C 0.59738 0.92222 0.99621 0.0
C438 C 0.58857 0.93725 0.97574 0.0
C439 C 0.60881 0.97205 0.96485 0.0
C440 C 0.63798 0.99197 0.97414 0.0
C441 C 0.647 0.97706 0.9943 0.0
C442 C 0.62685 0.94229 1.00528 0.0
C443 C 0.55933 0.72326 1.00087 0.0
C444 C 0.58478 0.72478 1.01249 0.0
C445 C 0.55282 0.75331 1.00316 0.0
C446 C 0.57172 0.7872 1.01667 0.0
C447 C 0.59756 0.78943 0.028 0.0
C448 C 0.60374 0.75863 0.0263 0.0
C449 C 0.56403 0.81946 1.01865 0.0
C450 C 0.58337 0.85582 1.00863 0.0
C451 C 0.53661 0.81384 0.0289 0.0
C452 C 0.51654 0.77853 0.04294 0.0
C453 C 0.52752 0.76645 0.06359 0.0
C454 C 0.50834 0.73469 0.078 0.0
C455 C 0.47805 0.71491 0.07211 0.0
C456 C 0.46694 0.72635 0.05146 0.0
C457 C 0.48606 0.75809 0.03693 0.0
H458 H 0.46322 0.69088 0.08371 0.0
H459 H 0.65361 1.01891 0.96569 0.0
H460 H 0.29858 0.85439 1.00651 0.0
H461 H 0.26139 0.78731 1.00817 0.0
H462 H 0.32937 0.75891 0.02682 0.0
H463 H 0.36717 0.82624 0.02398 0.0
H464 H 0.29205 0.70808 0.99375 0.0
H465 H 0.28087 0.75589 0.07339 0.0
H466 H 0.27604 0.79934 0.10418 0.0
H467 H 0.19342 0.77524 0.06869 0.0
H468 H 0.19797 0.73206 0.0374 0.0
H469 H 0.16888 0.51795 0.02378 0.0
H470 H 0.21469 0.57993 0.02731 0.0
H471 H 0.16813 0.63523 0.99693 0.0
H472 H 0.12283 0.5742 0.99331 0.0
H473 H 0.19909 0.66878 0.04244 0.0
H474 H 0.2164 0.62125 0.96037 0.0
H475 H 0.22305 0.57412 0.93495 0.0
H476 H 0.29717 0.59373 0.98295 0.0
H477 H 0.29087 0.64088 1.00867 0.0
C478 C 0.30583 0.83401 1.01072 0.0
C479 C 0.33607 0.84605 1.01505 0.0
C480 C 0.28437 0.7955 1.01199 0.0
C481 C 0.29236 0.76782 1.018 0.0
C482 C 0.32253 0.77959 0.02224 0.0
C483 C 0.34412 0.81825 0.02087 0.0
C484 C 0.26903 0.7268 1.01954 0.0
C485 C 0.27193 0.69947 1.00472 0.0
C486 C 0.24284 0.71501 0.03416 0.0
C487 C 0.2399 0.74096 0.0529 0.0
C488 C 0.26179 0.76008 0.07201 0.0
C489 C 0.25908 0.78462 0.08958 0.0
C490 C 0.23447 0.79011 0.08837 0.0
C491 C 0.21248 0.77098 0.0696 0.0
C492 C 0.2151 0.74643 0.05195 0.0
C493 C 0.16858 0.54327 1.01746 0.0
C494 C 0.14207 0.54098 1.00829 0.0
C495 C 0.19476 0.5787 1.01958 0.0
C496 C 0.19483 0.61235 1.01249 0.0
C497 C 0.16861 0.6098 1.00271 0.0
C498 C 0.14267 0.5747 1.00055 0.0
C499 C 0.22157 0.65069 1.01573 0.0
C500 C 0.21932 0.67748 0.03161 0.0
C501 C 0.2486 0.66155 1.00275 0.0
C502 C 0.2529 0.63416 0.98668 0.0
C503 C 0.23401 0.61535 0.96558 0.0
C504 C 0.23775 0.58869 0.95108 0.0
C505 C 0.26044 0.58082 0.95739 0.0
C506 C 0.27956 0.59977 0.97811 0.0
C507 C 0.27593 0.62649 0.99264 0.0
H508 H 0.26326 0.56011 0.94617 0.0
H509 H 0.23242 0.80912 0.102 0.0
H510 H 0.56744 0.20942 0.0243 0.0
H511 H 0.57652 0.27408 0.02205 0.0
H512 H 0.48245 0.23307 1.01939 0.0
H513 H 0.47293 0.16669 0.02134 0.0
H514 H 0.50897 0.29342 0.98774 0.0
H515 H 0.53016 0.27875 0.07558 0.0
H516 H 0.55359 0.26286 0.11135 0.0
H517 H 0.63992 0.34614 0.08489 0.0
H518 H 0.61704 0.36213 0.04873 0.0
H519 H 0.52639 0.47913 1.0083 0.0
H520 H 0.51484 0.41311 1.01069 0.0
H521 H 0.60779 0.44946 1.01979 0.0
H522 H 0.61949 0.51649 1.0181 0.0
H523 H 0.58072 0.39075 0.04865 0.0
H524 H 0.56101 0.40445 0.96048 0.0
H525 H 0.53887 0.42057 0.9238 0.0
H526 H 0.4515 0.3398 0.94965 0.0
H527 H 0.47311 0.32355 0.9867 0.0
C528 C 0.54823 0.21338 0.02336 0.0
C529 C 0.51916 0.18131 0.02329 0.0
C530 C 0.55368 0.25131 0.02222 0.0
C531 C 0.53047 0.26006 0.02112 0.0
C532 C 0.50122 0.22823 0.02044 0.0
C533 C 0.49566 0.18975 0.02162 0.0
C534 C 0.53724 0.30205 0.0205 0.0
C535 C 0.52428 0.31433 1.00146 0.0
C536 C 0.55804 0.33097 0.03759 0.0
C537 C 0.57187 0.32137 0.05928 0.0
C538 C 0.55415 0.29346 0.07727 0.0
C539 C 0.56734 0.28446 0.09763 0.0
C540 C 0.59822 0.3034 0.10035 0.0
C541 C 0.616 0.33144 0.08274 0.0
C542 C 0.60293 0.34049 0.06231 0.0
C543 C 0.5447 0.47358 1.01069 0.0
C544 C 0.57415 0.50445 1.01278 0.0
C545 C 0.53792 0.435 1.01186 0.0
C546 C 0.56018 0.42463 1.01485 0.0
C547 C 0.58971 0.45542 1.01731 0.0
C548 C 0.59654 0.49432 1.01625 0.0
C549 C 0.5525 0.38225 1.01584 0.0
C550 C 0.56533 0.36988 0.03494 0.0
C551 C 0.53176 0.35333 0.99869 0.0
C552 C 0.51868 0.36309 0.97651 0.0
C553 C 0.53707 0.39034 0.95845 0.0
C554 C 0.52462 0.39946 0.93758 0.0
C555 C 0.4938 0.3813 0.93444 0.0
C556 C 0.47537 0.3539 0.95213 0.0
C557 C 0.48771 0.3447 0.97306 0.0
H558 H 0.4842 0.38839 0.91826 0.0
H559 H 0.60838 0.2964 0.11613 0.0
H560 H 0.72927 0.2512 1.01773 0.0
H561 H 0.78302 0.27741 1.01285 0.0
H562 H 0.778 0.18337 0.05603 0.0
H563 H 0.72473 0.158 0.06157 0.0
H564 H 0.82116 0.24386 0.07372 0.0
H565 H 0.79036 0.19353 0.98892 0.0
H566 H 0.76534 0.1826 0.94661 0.0
H567 H 0.81739 0.30152 0.92955 0.0
H568 H 0.84239 0.3133 0.97195 0.0
H569 H 0.97451 0.31852 1.00237 0.0
H570 H 0.92048 0.27662 1.00359 0.0
H571 H 0.91386 0.34906 0.06176 0.0
H572 H 0.96729 0.38997 0.0613 0.0
H573 H 0.87678 0.29003 0.99187 0.0
H574 H 0.85855 0.30128 0.10187 0.0
H575 H 0.88442 0.30643 0.14305 0.0
H576 H 0.93009 0.25326 0.10806 0.0
H577 H 0.90418 0.24728 0.06679 0.0
C578 C 0.73972 0.2361 0.02596 0.0
C579 C 0.72298 0.20286 0.04026 0.0
C580 C 0.77037 0.25092 0.02306 0.0
C581 C 0.78464 0.23227 0.03395 0.0
C582 C 0.76764 0.19847 0.0476 0.0
C583 C 0.73721 0.18402 0.05079 0.0
C584 C 0.81747 0.249 0.03261 0.0
C585 C 0.83322 0.25373 0.05576 0.0
C586 C 0.83335 0.26119 1.00914 0.0
C587 C 0.81806 0.25434 0.98375 0.0
C588 C 0.79627 0.21742 0.97627 0.0
C589 C 0.78213 0.21106 0.95224 0.0
C590 C 0.78972 0.24136 0.93543 0.0
C591 C 0.81149 0.27809 0.94261 0.0
C592 C 0.82567 0.28461 0.96664 0.0
C593 C 0.96156 0.32502 1.01579 0.0
C594 C 0.97533 0.35742 0.03189 0.0
C595 C 0.93069 0.30124 1.01631 0.0
C596 C 0.91312 0.30944 0.03297 0.0
C597 C 0.92692 0.34159 0.04915 0.0
C598 C 0.95762 0.36508 0.0488 0.0
C599 C 0.88025 0.28553 0.03301 0.0
C600 C 0.86455 0.27966 1.00972 0.0
C601 C 0.8643 0.2713 0.05623 0.0
C602 C 0.87955 0.27407 0.08117 0.0
C603 C 0.87397 0.29046 0.103 0.0
C604 C 0.88868 0.29358 0.12635 0.0
C605 C 0.90894 0.28027 0.12815 0.0
C606 C 0.91445 0.26367 0.10662 0.0
C607 C 0.89978 0.26044 0.08324 0.0
H608 H 0.92035 0.28277 0.14623 0.0
H609 H 0.77878 0.23637 0.91681 0.0
H610 H 0.90758 0.48285 1.0028 0.0
H611 H 0.86373 0.49014 0.9969 0.0
H612 H 0.86813 0.52199 0.07719 0.0
H613 H 0.91177 0.51427 0.08332 0.0
H614 H 0.80919 0.47843 0.05752 0.0
H615 H 0.90402 0.58925 0.03615 0.0
H616 H 0.95136 0.62175 1.01258 0.0
H617 H 0.90395 0.59198 0.94031 0.0
H618 H 0.85631 0.55877 0.9635 0.0
H619 H 0.7591 0.61018 0.0704 0.0
H620 H 0.78782 0.57702 0.06938 0.0
H621 H 0.77727 0.56506 0.98653 0.0
H622 H 0.74903 0.59909 0.98735 0.0
H623 H 0.83372 0.58921 1.00147 0.0
H624 H 0.73836 0.48868 0.02312 0.0
H625 H 0.69089 0.45591 0.04644 0.0
H626 H 0.73764 0.46499 0.11712 0.0
H627 H 0.78545 0.49831 0.09431 0.0
C628 C 0.89862 0.49022 1.01937 0.0
C629 C 0.9132 0.49851 0.04345 0.0
C630 C 0.87367 0.49446 1.01595 0.0
C631 C 0.86306 0.50702 0.03655 0.0
C632 C 0.8761 0.51229 0.06109 0.0
C633 C 0.90112 0.50823 0.0645 0.0
C634 C 0.84134 0.51992 0.03191 0.0
C635 C 0.81442 0.50262 0.0453 0.0
C636 C 0.84807 0.55088 1.01543 0.0
C637 C 0.87666 0.57115 1.00152 0.0
C638 C 0.90371 0.58938 1.01523 0.0
C639 C 0.93059 0.60796 1.00195 0.0
C640 C 0.93067 0.60883 0.97496 0.0
C641 C 0.90386 0.59121 0.96121 0.0
C642 C 0.87692 0.57251 0.97441 0.0
C643 C 0.76322 0.6009 0.05194 0.0
C644 C 0.75195 0.60726 0.02894 0.0
C645 C 0.77922 0.58149 0.05142 0.0
C646 C 0.78411 0.56801 0.02793 0.0
C647 C 0.77341 0.57494 1.00486 0.0
C648 C 0.75731 0.59429 1.00537 0.0
C649 C 0.80167 0.54827 0.02752 0.0
C650 C 0.82797 0.56442 1.01323 0.0
C651 C 0.79425 0.51619 0.04311 0.0
C652 C 0.76554 0.49625 0.057 0.0
C653 C 0.73855 0.48398 0.04368 0.0
C654 C 0.71157 0.46524 0.0568 0.0
C655 C 0.71125 0.45842 0.08325 0.0
C656 C 0.73792 0.47029 0.09663 0.0
C657 C 0.76497 0.48906 0.0836 0.0
H658 H 0.69033 0.44386 0.09336 0.0
H659 H 0.9515 0.62323 0.96471 0.0
H660 H 0.93536 0.89266 0.34906 0.0
H661 H 0.98686 0.90711 0.34856 0.0
H662 H 0.95895 0.79027 0.32984 0.0
H663 H 0.90694 0.775 0.33166 0.0
H664 H 1.00377 0.8112 0.35978 0.0
H665 H 0.99498 0.87409 0.28492 0.0
H666 H 0.98332 0.91723 0.26033 0.0
H667 H 0.04612 1.01202 0.30621 0.0
H668 H 0.05791 0.96935 0.33129 0.0
H669 H 0.14904 0.844 0.32478 0.0
H670 H 0.09734 0.82983 0.32557 0.0
H671 H 0.1259 0.9461 0.34682 0.0
H672 H 0.178 0.96058 0.34558 0.0
H673 H 0.08095 0.92576 0.31575 0.0
H674 H 0.08993 0.86289 0.39038 0.0
H675 H 0.10171 0.81978 0.41487 0.0
H676 H 1.03859 0.72491 0.36924 0.0
H677 H 1.02669 0.76755 0.34425 0.0
C678 C 0.93963 0.86948 0.34508 0.0
C679 C 0.91557 0.8322 0.3405 0.0
C680 C 0.96985 0.87817 0.34435 0.0
C681 C 0.97812 0.85032 0.33862 0.0
C682 C 0.95422 0.813 0.33421 0.0
C683 C 0.9239 0.80422 0.33503 0.0
C684 C 1.01116 0.85987 0.33755 0.0
C685 C 1.02033 0.83605 0.34972 0.0
C686 C 1.0341 0.89275 0.32518 0.0
C687 C 1.02709 0.91846 0.31014 0.0
C688 C 1.00616 0.90409 0.28987 0.0
C689 C 0.99955 0.92846 0.27583 0.0
C690 C 1.01391 0.96732 0.28175 0.0
C691 C 1.03498 0.98191 0.30167 0.0
C692 C 1.04165 0.95765 0.31579 0.0
C693 C 0.14461 0.86683 0.32969 0.0
C694 C 0.16863 0.90366 0.33518 0.0
C695 C 0.11448 0.85848 0.33035 0.0
C696 C 0.10645 0.88638 0.33677 0.0
C697 C 0.13048 0.92342 0.34187 0.0
C698 C 0.16073 0.93181 0.34121 0.0
C699 C 0.0735 0.87704 0.33792 0.0
C700 C 0.06436 0.9009 0.32578 0.0
C701 C 0.05058 0.84418 0.3503 0.0
C702 C 0.05765 0.81847 0.36528 0.0
C703 C 0.07871 0.83287 0.38545 0.0
C704 C 0.08539 0.80852 0.39944 0.0
C705 C 0.07097 0.76965 0.39356 0.0
C706 C 0.04978 0.75504 0.37374 0.0
C707 C 1.04304 0.77928 0.35967 0.0
H708 H 0.07617 0.75084 0.40442 0.0
H709 H 1.00876 0.98614 0.27086 0.0
H710 H 0.20545 0.35419 0.37371 0.0
H711 H 0.20522 0.29453 0.37869 0.0
H712 H 0.11499 0.24131 0.40613 0.0
H713 H 0.11477 0.30156 0.40072 0.0
H714 H 0.19862 0.25244 0.42031 0.0
H715 H 0.08354 0.14612 0.3856 0.0
H716 H 1.04136 0.14372 0.36152 0.0
H717 H 0.1019 0.23752 0.315 0.0
H718 H 0.14438 0.24019 0.33866 0.0
H719 H 0.2152 0.09121 0.40392 0.0
H720 H 0.18708 0.12225 0.41752 0.0
H721 H 0.18607 0.15673 0.33898 0.0
H722 H 0.21274 0.12416 0.32503 0.0
H723 H 0.13553 0.14244 0.3632 0.0
H724 H 0.24296 0.21316 0.38091 0.0
H725 H 0.28884 0.2213 0.40149 0.0
H726 H 0.24908 0.20666 0.47628 0.0
H727 H 0.20284 0.19804 0.45606 0.0
C728 C 0.18548 0.32999 0.38088 0.0
C729 C 0.1601 0.33266 0.38677 0.0
C730 C 0.18548 0.29587 0.38388 0.0
C731 C 0.16017 0.26359 0.39292 0.0
C732 C 0.13473 0.26597 0.39909 0.0
C733 C 0.13465 0.30033 0.39595 0.0
C734 C 0.16093 0.22759 0.39446 0.0
C735 C 0.18435 0.2279 0.40835 0.0
C736 C 0.14222 0.1956 0.37898 0.0
C737 C 0.11702 0.19357 0.36406 0.0
C738 C 0.0878 0.1661 0.37016 0.0
C739 C 0.06386 0.16473 0.35661 0.0
C740 C 0.06894 0.19054 0.33681 0.0
C741 C 0.09798 0.21763 0.3304 0.0
C742 C 0.12199 0.21908 0.34387 0.0
C743 C 0.2083 0.10452 0.38942 0.0
C744 C 0.21674 0.10593 0.36345 0.0
C745 C 0.19225 0.12226 0.39725 0.0
C746 C 0.18482 0.14216 0.37932 0.0
C747 C 0.19156 0.14151 0.35315 0.0
C748 C 0.20732 0.1235 0.34528 0.0
C749 C 0.17429 0.16845 0.38789 0.0
C750 C 0.14893 0.1661 0.37611 0.0
C751 C 0.19165 0.19919 0.40486 0.0
C752 C 0.2194 0.20446 0.417 0.0
C753 C 0.24398 0.21146 0.40173 0.0
C754 C 0.27003 0.21617 0.41332 0.0
C755 C 0.27184 0.21436 0.44017 0.0
C756 C 0.24762 0.20794 0.45549 0.0
C757 C 0.22149 0.20313 0.44398 0.0
H758 H 0.29203 0.21803 0.44911 0.0
H759 H 0.05039 0.18949 0.32639 0.0
H760 H 0.94754 0.23222 0.37215 0.0
H761 H 0.90762 0.16628 0.37025 0.0
H762 H 0.96466 0.1346 0.32906 0.0
H763 H 1.00466 0.20106 0.33023 0.0
H764 H 0.90876 0.10201 0.30773 0.0
H765 H 0.95105 0.11304 0.39151 0.0
H766 H 0.96997 0.14193 0.43441 0.0
H767 H 0.88387 0.12516 0.4544 0.0
H768 H 0.86452 0.09667 0.41146 0.0
H769 H 0.8053 0.90356 0.32415 0.0
H770 H 0.85009 0.96612 0.32376 0.0
H771 H 0.80537 1.01249 0.36917 0.0
H772 H 0.76086 0.95004 0.37013 0.0
H773 H 0.85896 1.0352 0.38816 0.0
H774 H 0.81792 1.029 0.30312 0.0
H775 H 0.79913 1.00087 0.26001 0.0
H776 H 0.88299 1.00862 0.24242 0.0
H777 H 0.90216 1.03638 0.28558 0.0
C778 C 0.95155 0.21135 0.36243 0.0
C779 C 0.97927 0.22193 0.35126 0.0
C780 C 0.92879 0.17357 0.3616 0.0
C781 C 0.93326 0.14545 0.34976 0.0
C782 C 0.96078 0.15585 0.33836 0.0
C783 C 0.98366 0.19375 0.33922 0.0
C784 C 0.90896 0.1053 0.34928 0.0
C785 C 0.89817 0.0871 0.32532 0.0
C786 C 0.8949 0.08612 0.37222 0.0
C787 C 0.90639 0.10297 0.39817 0.0
C788 C 0.93619 0.11575 0.40498 0.0
C789 C 0.94699 0.13202 0.42932 0.0
C790 C 0.92815 0.13544 0.4471 0.0
C791 C 0.89844 0.12251 0.4406 0.0
C792 C 0.88754 0.10625 0.41627 0.0
C793 C 0.80492 0.92718 0.33385 0.0
C794 C 0.77946 0.92186 0.34708 0.0
C795 C 0.83055 0.96294 0.33358 0.0
C796 C 0.83105 0.99413 0.34627 0.0
C797 C 0.80555 0.98886 0.3593 0.0
C798 C 0.78006 0.95313 0.35974 0.0
C799 C 0.85821 1.03216 0.34657 0.0
C800 C 0.86964 0.04994 0.37054 0.0
C801 C 0.87282 0.05091 0.32364 0.0
C802 C 0.86135 1.03438 0.29767 0.0
C803 C 0.83227 1.02444 0.29013 0.0
C804 C 0.82157 1.00861 0.26567 0.0
C805 C 0.83982 1.00286 0.24851 0.0
C806 C 0.86885 1.01303 0.25575 0.0
C807 C 0.87966 1.02884 0.28019 0.0
H808 H 0.83149 0.9906 0.22959 0.0
H809 H 0.93655 0.14806 0.46593 0.0
H810 H 0.32884 0.76025 0.35026 0.0
H811 H 0.33694 0.70912 0.33701 0.0
H812 H 0.33572 0.73785 0.25707 0.0
H813 H 0.32681 0.78929 0.27054 0.0
H814 H 0.2841 0.68748 0.26736 0.0
H815 H 0.36884 0.6792 0.27764 0.0
H816 H 0.4174 0.68942 0.29286 0.0
H817 H 0.37968 0.64107 0.36619 0.0
H818 H 0.33109 0.63118 0.35178 0.0
H819 H 0.16668 0.5089 0.31565 0.0
H820 H 0.20784 0.55273 0.28866 0.0
H821 H 0.25858 0.6098 0.35709 0.0
H822 H 0.21804 0.56532 0.38408 0.0
H823 H 0.2917 0.59412 0.32359 0.0
H824 H 0.22108 0.64325 0.31855 0.0
H825 H 0.17347 0.63863 0.30567 0.0
H826 H 0.18827 0.61881 0.22686 0.0
H827 H 0.23597 0.62334 0.23931 0.0
C828 C 0.33212 0.75737 0.32989 0.0
C829 C 0.32496 0.77672 0.31132 0.0
C830 C 0.33717 0.72794 0.32212 0.0
C831 C 0.33414 0.71729 0.29583 0.0
C832 C 0.33638 0.74416 0.27752 0.0
C833 C 0.33085 0.77334 0.28521 0.0
C834 C 0.31412 0.67612 0.29006 0.0
C835 C 0.28638 0.66682 0.27899 0.0
C836 C 0.31661 0.6479 0.30416 0.0
C837 C 0.34601 0.6541 0.31339 0.0
C838 C 0.37085 0.67088 0.29706 0.0
C839 C 0.39845 0.67664 0.30558 0.0
C840 C 0.40161 0.66583 0.33045 0.0
C841 C 0.37718 0.64933 0.34689 0.0
C842 C 0.34953 0.64346 0.33848 0.0
C843 C 0.18647 0.53104 0.32492 0.0
C844 C 0.18938 0.53311 0.35202 0.0
C845 C 0.2101 0.55589 0.30944 0.0
C846 C 0.23665 0.5838 0.32086 0.0
C847 C 0.23861 0.58772 0.34786 0.0
C848 C 0.21521 0.56272 0.36328 0.0
C849 C 0.26238 0.61047 0.30529 0.0
C850 C 0.29044 0.61501 0.31141 0.0
C851 C 0.26031 0.63528 0.28743 0.0
C852 C 0.23161 0.63244 0.27999 0.0
C853 C 0.21398 0.63742 0.29854 0.0
C854 C 0.18706 0.63501 0.29129 0.0
C855 C 0.17772 0.62809 0.2655 0.0
C856 C 0.19541 0.62387 0.24686 0.0
C857 C 0.22237 0.62633 0.25401 0.0
H858 H 0.15687 0.62624 0.25993 0.0
H859 H 0.42297 0.67024 0.33699 0.0
H860 H 0.39047 0.52857 0.41035 0.0
H861 H 0.4439 0.55779 0.40455 0.0
H862 H 0.43733 0.60819 0.33361 0.0
H863 H 0.38372 0.58013 0.33961 0.0
H864 H 0.47625 0.57897 0.32891 0.0
H865 H 0.46357 0.66255 0.38657 0.0
H866 H 0.44484 0.68006 0.42507 0.0
H867 H 0.49003 0.63947 0.47425 0.0
H868 H 0.5087 0.62119 0.436 0.0
H869 H 0.63106 0.71451 0.31674 0.0
H870 H 0.5774 0.6751 0.31854 0.0
H871 H 0.5842 0.6479 0.39779 0.0
H872 H 0.63814 0.69012 0.39634 0.0
H873 H 0.54402 0.66387 0.39746 0.0
H874 H 0.5573 0.58027 0.3386 0.0
H875 H 0.57642 0.56478 0.29941 0.0
H876 H 0.53056 0.60628 0.25187 0.0
H877 H 0.51128 0.62215 0.29077 0.0
C878 C 0.40007 0.54629 0.39363 0.0
C879 C 0.38196 0.55212 0.37579 0.0
C880 C 0.43099 0.56289 0.39024 0.0
C881 C 0.44519 0.58576 0.36875 0.0
C882 C 0.42725 0.59075 0.3504 0.0
C883 C 0.39626 0.5744 0.3539 0.0
C884 C 0.47864 0.60489 0.3659 0.0
C885 C 0.49107 0.59778 0.34382 0.0
C886 C 0.49839 0.6291 0.38538 0.0
C887 C 0.48728 0.64013 0.40842 0.0
C888 C 0.46931 0.65706 0.40559 0.0
C889 C 0.45874 0.66718 0.42737 0.0
C890 C 0.46617 0.66079 0.4521 0.0
C891 C 0.48426 0.64435 0.45509 0.0
C892 C 0.49486 0.63412 0.43337 0.0
C893 C 0.62135 0.69844 0.33414 0.0
C894 C 0.63941 0.70446 0.35606 0.0
C895 C 0.59021 0.67589 0.33528 0.0
C896 C 0.57582 0.65748 0.35824 0.0
C897 C 0.59412 0.66142 0.3797 0.0
C898 C 0.62531 0.68488 0.37872 0.0
C899 C 0.54208 0.63744 0.36062 0.0
C900 C 0.52944 0.64463 0.3826 0.0
C901 C 0.52219 0.61328 0.34101 0.0
C902 C 0.53304 0.60266 0.31761 0.0
C903 C 0.55134 0.58614 0.31979 0.0
C904 C 0.56219 0.57727 0.29762 0.0
C905 C 0.55475 0.5846 0.27317 0.0
C906 C 0.53628 0.60057 0.27082 0.0
C907 C 0.52531 0.6094 0.29291 0.0
H908 H 0.56327 0.57785 0.25604 0.0
H909 H 0.45798 0.66865 0.46894 0.0
H910 H 0.36916 0.97906 0.3143 0.0
H911 H 0.41384 0.97196 0.31493 0.0
H912 H 0.37478 0.8876 0.37445 0.0
H913 H 0.33147 0.89602 0.37477 0.0
H914 H 0.42833 0.92436 0.38604 0.0
H915 H 0.38112 0.8682 0.30436 0.0
H916 H 0.36002 0.86834 0.2616 0.0
H917 H 0.44384 0.96143 0.23818 0.0
H918 H 0.46543 0.9619 0.28089 0.0
H919 H 0.51627 0.83352 0.37715 0.0
H920 H 0.47601 0.84833 0.37394 0.0
H921 H 0.52832 0.94034 0.32241 0.0
H922 H 0.56913 0.92628 0.32589 0.0
H923 H 0.47092 0.90432 0.3057 0.0
H924 H 0.51832 0.95591 0.3874 0.0
H925 H 0.53816 0.95465 0.43053 0.0
H926 H 0.45165 0.86812 0.45425 0.0
H927 H 0.43137 0.86849 0.41113 0.0
C928 C 0.37032 0.95951 0.32784 0.0
C929 C 0.34624 0.93819 0.34446 0.0
C930 C 0.39588 0.9549 0.32793 0.0
C931 C 0.39811 0.92849 0.34443 0.0
C932 C 0.37431 0.90814 0.3614 0.0
C933 C 0.34913 0.91293 0.36145 0.0
C934 C 0.42474 0.92165 0.34453 0.0
C935 C 0.4372 0.91952 0.36834 0.0
C936 C 0.43751 0.91608 0.3217 0.0
C937 C 0.42482 0.91528 0.29586 0.0
C938 C 0.39503 0.88875 0.2901 0.0
C939 C 0.38299 0.88871 0.26588 0.0
C940 C 0.40058 0.91493 0.24719 0.0
C941 C 0.43027 0.94114 0.25267 0.0
C942 C 0.44244 0.94124 0.27685 0.0
C943 C 0.51969 0.85728 0.3653 0.0
C944 C 0.5468 0.87869 0.35204 0.0
C945 C 0.49625 0.86571 0.36338 0.0
C946 C 0.4987 0.89599 0.34816 0.0
C947 C 0.52534 0.91681 0.33433 0.0
C948 C 0.5489 0.90849 0.33631 0.0
C949 C 0.47392 0.90627 0.34724 0.0
C950 C 0.46193 0.90912 0.32333 0.0
C951 C 0.46129 0.91216 0.37 0.0
C952 C 0.4734 0.91199 0.39596 0.0
C953 C 0.50358 0.93643 0.40176 0.0
C954 C 0.51489 0.9359 0.42621 0.0
C955 C 0.49619 0.91126 0.4451 0.0
C956 C 0.46612 0.88716 0.43959 0.0
C957 C 0.4547 0.88754 0.41516 0.0
H958 H 0.505 0.91089 0.46402 0.0
H959 H 0.39126 0.91489 0.22845 0.0
H960 H 0.71696 0.29482 0.67155 0.0
H961 H 0.67328 0.27093 0.69867 0.0
H962 H 0.7256 0.27619 0.76507 0.0
H963 H 0.7693 0.29891 0.73785 0.0
H964 H 0.68517 0.20163 0.73272 0.0
H965 H 0.64002 0.2636 0.80454 0.0
H966 H 0.64416 0.32442 0.81888 0.0
H967 H 0.66205 0.3655 0.74107 0.0
H968 H 0.65767 0.30505 0.7263 0.0
H969 H 0.51966 0.07984 0.77449 0.0
H970 H 0.5699 0.13098 0.78575 0.0
H971 H 0.592 0.14745 0.70487 0.0
H972 H 0.54237 0.09812 0.69342 0.0
H973 H 0.59952 0.21171 0.76601 0.0
H974 H 0.65669 0.15164 0.69871 0.0
H975 H 0.65097 0.08927 0.68654 0.0
H976 H 0.60939 1.04334 0.75923 0.0
H977 H 0.61525 0.1056 0.77204 0.0
C978 C 0.71953 0.29297 0.69218 0.0
C979 C 0.74623 0.29757 0.70243 0.0
C980 C 0.6946 0.27993 0.70783 0.0
C981 C 0.69622 0.27202 0.73398 0.0
C982 C 0.724 0.28274 0.74507 0.0
C983 C 0.74898 0.29557 0.72936 0.0
C984 C 0.66965 0.23982 0.74508 0.0
C985 C 0.66658 0.20379 0.74049 0.0
C986 C 0.64596 0.24287 0.75608 0.0
C987 C 0.64911 0.27988 0.76439 0.0
C988 C 0.64496 0.28569 0.79051 0.0
C989 C 0.64729 0.32011 0.79872 0.0
C990 C 0.65358 0.34892 0.78094 0.0
C991 C 0.65747 0.34331 0.75489 0.0
C992 C 0.65522 0.30896 0.74661 0.0
C993 C 0.53535 0.09421 0.75915 0.0
C994 C 0.52701 0.08446 0.73303 0.0
C995 C 0.5639 0.12342 0.76565 0.0
C996 C 0.58447 0.14272 0.74611 0.0
C997 C 0.57642 0.1325 0.72021 0.0
C998 C 0.54808 0.10378 0.71372 0.0
C999 C 0.61467 0.17392 0.75179 0.0
C1000 C 0.61853 0.20953 0.75945 0.0
C1001 C 0.63936 0.17073 0.74367 0.0
C1002 C 0.63647 0.13338 0.73636 0.0
C1003 C 0.64661 0.12837 0.71223 0.0
C1004 C 0.64326 0.09299 0.70518 0.0
C1005 C 0.62983 0.06236 0.7221 0.0
C1006 C 0.61976 0.06708 0.74613 0.0
C1007 C 0.62307 0.10241 0.75329 0.0
H1008 H 0.62722 1.03498 0.71659 0.0
H1009 H 0.6553 0.37552 0.78731 0.0
H1010 H 0.92905 0.41793 0.72168 0.0
H1011 H 0.91571 0.46857 0.72602 0.0
H1012 H 0.86882 0.43406 0.65332 0.0
H1013 H 0.88161 0.38386 0.64918 0.0
H1014 H 0.83657 0.45015 0.6809 0.0
H1015 H 0.93435 0.5613 0.74188 0.0
H1016 H 0.98738 0.58301 0.74997 0.0
H1017 H 0.99468 0.54348 0.67456 0.0
H1018 H 0.94179 0.52192 0.66594 0.0
H1019 H 0.80053 0.59919 0.71246 0.0
H1020 H 0.81275 0.54742 0.71338 0.0
H1021 H 0.89485 0.61894 0.67416 0.0
H1022 H 0.88327 0.67049 0.67409 0.0
H1023 H 0.90885 0.58342 0.70442 0.0
H1024 H 0.82426 0.53405 0.64678 0.0
H1025 H 0.77249 0.51378 0.63427 0.0
H1026 H 0.74078 0.43179 0.69524 0.0
H1027 H 0.79238 0.45191 0.7083 0.0
C1028 C 0.91629 0.4214 0.70639 0.0
C1029 C 0.90699 0.39623 0.68487 0.0
C1030 C 0.90849 0.45073 0.70887 0.0
C1031 C 0.89109 0.45644 0.68992 0.0
C1032 C 0.88199 0.43124 0.66853 0.0
C1033 C 0.88972 0.4022 0.66607 0.0
C1034 C 0.88207 0.48782 0.69195 0.0
C1035 C 0.85258 0.47919 0.68621 0.0
C1036 C 0.90225 0.52654 0.69853 0.0
C1037 C 0.93406 0.53963 0.70342 0.0
C1038 C 0.94731 0.55733 0.72702 0.0
C1039 C 0.97732 0.56959 0.73169 0.0
C1040 C 0.99436 0.5645 0.71282 0.0
C1041 C 0.98143 0.54727 0.6892 0.0
C1042 C 0.95143 0.53499 0.68442 0.0
C1043 C 0.82113 0.60394 0.70388 0.0
C1044 C 0.84063 0.63985 0.69311 0.0
C1045 C 0.82821 0.57385 0.70427 0.0
C1046 C 0.85493 0.57792 0.69354 0.0
C1047 C 0.87419 0.61385 0.68281 0.0
C1048 C 0.8673 0.6438 0.68264 0.0
C1049 C 0.86329 0.54581 0.69338 0.0
C1050 C 0.89271 0.55433 0.69935 0.0
C1051 C 0.84314 0.50708 0.68663 0.0
C1052 C 0.81216 0.49479 0.67869 0.0
C1053 C 0.80624 0.51185 0.6576 0.0
C1054 C 0.77693 0.50038 0.65041 0.0
C1055 C 0.75336 0.47162 0.66401 0.0
C1056 C 0.75906 0.45414 0.68476 0.0
C1057 C 0.78832 0.46556 0.69207 0.0
H1058 H 0.73069 0.46281 0.65843 0.0
H1059 H 1.01758 0.57398 0.71649 0.0
H1060 H 0.63643 0.50571 0.64308 0.0
H1061 H 0.59929 0.43818 0.64298 0.0
H1062 H 0.64068 0.42126 0.71014 0.0
H1063 H 0.6785 0.48878 0.70997 0.0
H1064 H 0.62088 0.35998 0.67658 0.0
H1065 H 0.58019 0.43076 0.7172 0.0
H1066 H 0.56698 0.48147 0.72126 0.0
H1067 H 0.51161 0.43884 0.65361 0.0
H1068 H 0.52485 0.38818 0.64893 0.0
H1069 H 0.48925 0.18244 0.70891 0.0
H1070 H 0.5341 0.24539 0.70833 0.0
H1071 H 0.49679 0.27865 0.64572 0.0
H1072 H 0.45191 0.21668 0.64687 0.0
H1073 H 0.5161 0.33136 0.6805 0.0
H1074 H 0.56076 0.26447 0.63748 0.0
H1075 H 0.57203 0.21188 0.63435 0.0
H1076 H 0.61691 0.24438 0.70765 0.0
H1077 H 0.60608 0.29748 0.71115 0.0
C1078 C 0.63807 0.48763 0.65759 0.0
C1079 C 0.66049 0.5031 0.67667 0.0
C1080 C 0.61658 0.4489 0.65763 0.0
C1081 C 0.61677 0.42446 0.67679 0.0
C1082 C 0.63985 0.43938 0.69521 0.0
C1083 C 0.66134 0.47819 0.69522 0.0
C1084 C 0.59189 0.38413 0.67839 0.0
C1085 C 0.598 0.35378 0.67768 0.0
C1086 C 0.56187 0.37558 0.67976 0.0
C1087 C 0.55373 0.40589 0.68258 0.0
C1088 C 0.56537 0.43237 0.70308 0.0
C1089 C 0.55785 0.46108 0.70551 0.0
C1090 C 0.53852 0.46343 0.68767 0.0
C1091 C 0.52661 0.43701 0.6674 0.0
C1092 C 0.5341 0.40828 0.66486 0.0
C1093 C 0.49098 0.20292 0.69464 0.0
C1094 C 0.46699 0.19449 0.67792 0.0
C1095 C 0.51667 0.23903 0.69431 0.0
C1096 C 0.5191 0.26718 0.67693 0.0
C1097 C 0.4956 0.25787 0.65949 0.0
C1098 C 0.46993 0.2222 0.66005 0.0
C1099 C 0.54489 0.30706 0.67774 0.0
C1100 C 0.53896 0.33745 0.67922 0.0
C1101 C 0.57492 0.31549 0.67708 0.0
C1102 C 0.58266 0.28487 0.67456 0.0
C1103 C 0.57317 0.2605 0.65287 0.0
C1104 C 0.57949 0.23066 0.65103 0.0
C1105 C 0.59528 0.22492 0.67079 0.0
C1106 C 0.60491 0.24913 0.69234 0.0
C1107 C 0.59882 0.2792 0.69419 0.0
H1108 H 0.60001 0.20168 0.66942 0.0
H1109 H 0.53272 0.48568 0.68958 0.0
H1110 H 0.88223 0.87676 0.69354 0.0
H1111 H 0.89231 0.94178 0.69087 0.0
H1112 H 0.79929 0.90245 0.67893 0.0
H1113 H 0.78888 0.83568 0.681 0.0
H1114 H 0.82885 0.96465 0.65071 0.0
H1115 H 0.84145 0.94505 0.73988 0.0
H1116 H 0.86101 0.9265 0.77724 0.0
H1117 H 0.95004 1.00919 0.75658 0.0
H1118 H 0.93105 1.02788 0.71889 0.0
H1119 H 0.84605 0.15016 0.67387 0.0
H1120 H 0.83373 0.08371 0.67493 0.0
H1121 H 0.92569 0.11804 0.68854 0.0
H1122 H 0.93815 0.18541 0.68798 0.0
H1123 H 0.89548 0.05788 0.71631 0.0
H1124 H 0.88372 0.07709 0.62715 0.0
H1125 H 0.86498 0.09589 0.58935 0.0
H1126 H 0.7754 1.01459 0.60949 0.0
H1127 H 0.79359 0.99564 0.64762 0.0
C1128 C 0.86345 0.88119 0.69045 0.0
C1129 C 0.83439 0.84946 0.6879 0.0
C1130 C 0.86945 0.91933 0.68909 0.0
C1131 C 0.84678 0.92869 0.68549 0.0
C1132 C 0.81764 0.89719 0.68206 0.0
C1133 C 0.81155 0.85847 0.68326 0.0
C1134 C 0.85402 0.97092 0.68527 0.0
C1135 C 0.84302 0.98462 0.66543 0.0
C1136 C 0.87334 0.99872 0.70375 0.0
C1137 C 0.88482 0.98761 0.72643 0.0
C1138 C 0.86521 0.9591 0.74321 0.0
C1139 C 0.8762 0.94858 0.76446 0.0
C1140 C 0.90675 0.96659 0.76925 0.0
C1141 C 0.92638 0.99522 0.75283 0.0
C1142 C 0.91551 1.00581 0.73154 0.0
C1143 C 0.86399 0.14408 0.67697 0.0
C1144 C 0.89339 0.17448 0.68066 0.0
C1145 C 0.85677 0.10528 0.67739 0.0
C1146 C 0.87853 0.09424 0.68131 0.0
C1147 C 0.90799 0.12454 0.6853 0.0
C1148 C 0.91527 0.16364 0.68488 0.0
C1149 C 0.87037 0.05167 0.68172 0.0
C1150 C 0.88125 1.03791 0.70161 0.0
C1151 C 0.85103 1.0239 0.66325 0.0
C1152 C 0.84001 1.03524 0.64039 0.0
C1153 C 0.86001 0.06343 0.62363 0.0
C1154 C 0.84949 0.07407 0.60213 0.0
C1155 C 0.81902 0.05652 0.59707 0.0
C1156 C 0.799 1.02821 0.61346 0.0
C1157 C 0.8094 1.01748 0.63501 0.0
H1158 H 0.81092 0.0648 0.5804 0.0
H1159 H 0.91521 0.9584 0.78571 0.0
H1160 H 0.05258 0.93311 0.73079 0.0
H1161 H 0.10647 0.96199 0.7275 0.0
H1162 H 0.09591 0.88814 0.66296 0.0
H1163 H 1.042 0.85809 0.66679 0.0
H1164 H 0.13433 0.88774 0.6953 0.0
H1165 H 0.12238 0.98562 0.656 0.0
H1166 H 0.10666 1.03375 0.65079 0.0
H1167 H 0.15688 0.09329 0.71829 0.0
H1168 H 0.17271 0.04536 0.72408 0.0
H1169 H 0.29247 0.99013 0.66858 0.0
H1170 H 0.23802 0.95873 0.66578 0.0
H1171 H 0.23656 1.01966 0.73401 0.0
H1172 H 0.29046 0.05084 0.73694 0.0
H1173 H 0.2046 1.02655 0.69522 0.0
H1174 H 0.21319 0.92487 0.73566 0.0
H1175 H 0.23041 0.87795 0.73904 0.0
H1176 H 0.18717 0.82676 0.66711 0.0
H1177 H 0.17001 0.87372 0.66314 0.0
C1178 C 0.06167 0.92304 0.71583 0.0
C1179 C 1.04277 0.89313 0.69909 0.0
C1180 C 0.09259 0.9399 0.71379 0.0
C1181 C 0.10544 0.92753 0.69484 0.0
C1182 C 0.08664 0.89831 0.67773 0.0
C1183 C 0.05573 0.88138 0.67978 0.0
C1184 C 0.13831 0.94343 0.69389 0.0
C1185 C 0.14964 0.91812 0.69483 0.0
C1186 C 0.1585 0.9831 0.69369 0.0
C1187 C 0.14846 1.01157 0.69063 0.0
C1188 C 0.12983 1.00874 0.6699 0.0
C1189 C 0.12099 1.03609 0.66679 0.0
C1190 C 0.13077 0.06657 0.6842 0.0
C1191 C 0.14938 0.06974 0.70478 0.0
C1192 C 0.1583 1.04247 0.70799 0.0
C1193 C 0.28046 0.99605 0.68334 0.0
C1194 C 0.29586 1.02295 0.70301 0.0
C1195 C 0.24934 0.97827 0.68164 0.0
C1196 C 0.23315 0.98698 0.69963 0.0
C1197 C 0.2485 1.01268 0.71979 0.0
C1198 C 0.2794 1.03033 0.7215 0.0
C1199 C 0.20041 0.97089 0.69714 0.0
C1200 C 0.18917 0.99619 0.69552 0.0
C1201 C 0.18033 0.9313 0.69657 0.0
C1202 C 0.19061 0.90306 0.69896 0.0
C1203 C 0.20757 0.90381 0.72045 0.0
C1204 C 0.21728 0.87717 0.7225 0.0
C1205 C 0.20997 0.84947 0.70326 0.0
C1206 C 0.19286 0.84828 0.68197 0.0
C1207 C 0.18312 0.87488 0.67982 0.0
H1208 H 0.2175 0.82886 0.70488 0.0
H1209 H 0.12395 0.08775 0.68169 0.0
H1210 H 0.23683 0.16678 0.65955 0.0
H1211 H 0.19405 0.17706 0.65625 0.0
H1212 H 0.18949 0.17991 0.73934 0.0
H1213 H 0.23225 0.16961 0.74279 0.0
H1214 H 0.132 0.14224 0.7121 0.0
H1215 H 0.22714 0.25906 0.7137 0.0
H1216 H 0.27794 0.30144 0.69821 0.0
H1217 H 0.24366 0.30232 0.62273 0.0
H1218 H 0.19265 0.25936 0.6377 0.0
H1219 H 0.06801 0.25647 0.7419 0.0
H1220 H 0.0991 0.22685 0.73798 0.0
H1221 H 0.11012 0.25256 0.65665 0.0
H1222 H 0.07982 0.28348 0.66063 0.0
H1223 H 0.16156 0.27071 0.67833 0.0
H1224 H 0.0658 0.1616 0.67744 0.0
H1225 H 1.01472 0.1181 0.69174 0.0
H1226 H 0.04819 0.10038 0.76323 0.0
H1227 H 0.0995 0.14428 0.74955 0.0
C1228 C 0.22618 0.16855 0.6771 0.0
C1229 C 0.238 0.1679 0.70143 0.0
C1230 C 0.20185 0.1745 0.67518 0.0
C1231 C 0.18891 0.17958 0.69756 0.0
C1232 C 0.19926 0.17608 0.72188 0.0
C1233 C 0.22375 0.17049 0.72381 0.0
C1234 C 0.16726 0.19328 0.69574 0.0
C1235 C 0.13832 0.17029 0.70478 0.0
C1236 C 0.17555 0.22959 0.68567 0.0
C1237 C 0.20616 0.25562 0.67672 0.0
C1238 C 0.23047 0.26799 0.69373 0.0
C1239 C 0.25929 0.29217 0.68507 0.0
C1240 C 0.26404 0.30447 0.65948 0.0
C1241 C 0.23996 0.29269 0.64253 0.0
C1242 C 0.21109 0.26843 0.65109 0.0
C1243 C 0.07727 0.25617 0.72321 0.0
C1244 C 0.07158 0.27255 0.70159 0.0
C1245 C 0.09468 0.2387 0.72092 0.0
C1246 C 0.10654 0.23694 0.69693 0.0
C1247 C 0.101 0.25336 0.67531 0.0
C1248 C 0.08361 0.27089 0.67759 0.0
C1249 C 0.12603 0.21978 0.69482 0.0
C1250 C 0.15479 0.24227 0.68517 0.0
C1251 C 0.11738 0.18285 0.70411 0.0
C1252 C 0.08653 0.15655 0.71254 0.0
C1253 C 0.06228 0.14873 0.69631 0.0
C1254 C 1.03328 0.12393 0.70429 0.0
C1255 C 1.02821 0.10654 0.7284 0.0
C1256 C 0.05215 0.11389 0.74457 0.0
C1257 C 0.08121 0.13871 0.7367 0.0
H1258 H 1.00573 0.08732 0.73453 0.0
H1259 H 0.28636 0.32321 0.6528 0.0
H1260 H 0.21047 0.44091 0.28832 0.0
H1261 H 0.20128 0.4458 0.242 0.0
H1262 H 0.11858 0.44155 0.26137 0.0
H1263 H 0.12671 0.43394 0.3065 0.0
H1264 H 0.10728 0.39828 0.22435 0.0
H1265 H 0.19141 0.525 0.24173 0.0
H1266 H 0.24363 0.56931 0.25366 0.0
H1267 H 0.27341 0.53007 0.18921 0.0
H1268 H 0.22155 0.48431 0.17747 0.0
H1269 H 0.11078 0.50765 0.10117 0.0
H1270 H 0.1314 0.50758 0.14396 0.0
H1271 H 0.11123 0.39165 0.13147 0.0
H1272 H 0.09036 0.39129 0.08911 0.0
H1273 H 0.1766 0.49453 0.16299 0.0
H1274 H 0.08454 0.34319 0.18711 0.0
H1275 H 1.0324 0.29845 0.17529 0.0
H1276 H 1.01834 0.39219 0.15782 0.0
H1277 H 0.07024 0.43745 0.16988 0.0
C1278 C 0.19044 0.44111 0.2825 0.0
C1279 C 0.16915 0.43659 0.30105 0.0
C1280 C 0.18521 0.44415 0.25601 0.0
C1281 C 0.1591 0.44415 0.24777 0.0
C1282 C 0.13865 0.44106 0.26671 0.0
C1283 C 0.14336 0.43676 0.29272 0.0
C1284 C 0.15161 0.44557 0.21976 0.0
C1285 C 0.12268 0.41949 0.21112 0.0
C1286 C 0.17142 0.47281 0.2019 0.0
C1287 C 0.20254 0.50084 0.20892 0.0
C1288 C 0.20908 0.52554 0.23024 0.0
C1289 C 0.2386 0.5509 0.23698 0.0
C1290 C 0.26175 0.55257 0.22221 0.0
C1291 C 0.25546 0.52873 0.20068 0.0
C1292 C 0.22601 0.50294 0.19404 0.0
C1293 C 0.1108 0.48216 0.10749 0.0
C1294 C 0.09854 0.44934 0.09163 0.0
C1295 C 0.12284 0.48227 0.13193 0.0
C1296 C 0.12271 0.44951 0.14118 0.0
C1297 C 0.11138 0.4172 0.12501 0.0
C1298 C 0.09941 0.41707 0.10066 0.0
C1299 C 0.13234 0.44797 0.1683 0.0
C1300 C 0.16148 0.4736 0.17652 0.0
C1301 C 0.11276 0.42061 0.186 0.0
C1302 C 0.08135 0.39365 0.17913 0.0
C1303 C 0.07027 0.35423 0.18084 0.0
C1304 C 1.04077 0.32879 0.17409 0.0
C1305 C 1.0221 0.34247 0.16572 0.0
C1306 C 1.03285 0.38163 0.16421 0.0
C1307 C 0.06231 0.40718 0.17098 0.0
H1308 H 0.99928 0.32273 0.16046 0.0
H1309 H 0.28456 0.57236 0.22745 0.0
H1310 H 0.65826 0.8158 0.27539 0.0
H1311 H 0.63251 0.78712 0.23447 0.0
H1312 H 0.66493 0.70713 0.23751 0.0
H1313 H 0.69171 0.73679 0.27721 0.0
H1314 H 0.66977 0.72651 0.19237 0.0
H1315 H 0.58824 0.68638 0.25055 0.0
H1316 H 0.55632 0.69384 0.28271 0.0
H1317 H 0.53707 0.75925 0.22889 0.0
H1318 H 0.56927 0.75278 0.19651 0.0
H1319 H 0.57879 0.58843 0.10283 0.0
H1320 H 0.59396 0.61951 0.14507 0.0
H1321 H 0.58045 0.71072 0.11841 0.0
H1322 H 0.56486 0.67923 0.07573 0.0
H1323 H 0.56497 0.68986 0.17357 0.0
H1324 H 0.64966 0.72575 0.11576 0.0
H1325 H 0.68007 0.7113 0.08606 0.0
H1326 H 0.68896 0.64159 0.14377 0.0
H1327 H 0.65889 0.65605 0.1739 0.0
C1328 C 0.66007 0.79229 0.26718 0.0
C1329 C 0.67756 0.77914 0.27957 0.0
C1330 C 0.64499 0.77551 0.24383 0.0
C1331 C 0.64626 0.74438 0.23262 0.0
C1332 C 0.66354 0.73118 0.24526 0.0
C1333 C 0.67904 0.74838 0.26814 0.0
C1334 C 0.63079 0.72607 0.20742 0.0
C1335 C 0.64673 0.71829 0.18865 0.0
C1336 C 0.60075 0.7155 0.20175 0.0
C1337 C 0.58146 0.71951 0.22121 0.0
C1338 C 0.57742 0.70265 0.24564 0.0
C1339 C 0.55924 0.70663 0.2639 0.0
C1340 C 0.54475 0.72705 0.25787 0.0
C1341 C 0.54836 0.74349 0.23355 0.0
C1342 C 0.56657 0.73969 0.21523 0.0
C1343 C 0.57808 0.6145 0.10613 0.0
C1344 C 0.57046 0.63116 0.08581 0.0
C1345 C 0.58701 0.63245 0.13033 0.0
C1346 C 0.58895 0.66792 0.13499 0.0
C1347 C 0.57922 0.68342 0.1154 0.0
C1348 C 0.57007 0.66523 0.09101 0.0
C1349 C 0.60396 0.68995 0.15921 0.0
C1350 C 0.58802 0.69844 0.17757 0.0
C1351 C 0.63375 0.70017 0.16504 0.0
C1352 C 0.65194 0.69179 0.14696 0.0
C1353 C 0.65804 0.70725 0.12204 0.0
C1354 C 0.67524 0.69909 0.10516 0.0
C1355 C 0.68625 0.6753 0.11297 0.0
C1356 C 0.68036 0.65994 0.13775 0.0
C1357 C 0.66339 0.66827 0.15477 0.0
H1358 H 0.6994 0.66874 0.09993 0.0
H1359 H 0.53067 0.73005 0.27204 0.0
H1360 H 0.48531 0.09229 0.11473 0.0
H1361 H 0.4512 0.06964 0.15157 0.0
H1362 H 0.42551 0.9537 0.13104 0.0
H1363 H 0.45819 0.97619 0.09376 0.0
H1364 H 0.37876 0.9514 0.14183 0.0
H1365 H 0.46933 1.0058 0.1891 0.0
H1366 H 0.51963 0.05418 0.20314 0.0
H1367 H 0.48632 0.12791 0.2275 0.0
H1368 H 0.43586 0.08012 0.21332 0.0
H1369 H 0.29944 0.88008 0.26436 0.0
H1370 H 0.33631 0.89778 0.22959 0.0
H1371 H 0.34388 1.00868 0.22586 0.0
H1372 H 0.30652 0.99094 0.25942 0.0
H1373 H 0.40041 1.00974 0.22933 0.0
H1374 H 0.30781 0.94842 0.17988 0.0
H1375 H 0.25894 0.89454 0.16765 0.0
H1376 H 0.29935 0.8262 0.15051 0.0
H1377 H 0.34843 0.87956 0.16294 0.0
C1378 C 0.47285 0.06204 0.11843 0.0
C1379 C 0.47478 1.03619 0.10124 0.0
C1380 C 0.4532 0.04892 0.13964 0.0
C1381 C 0.43543 1.00959 0.14465 0.0
C1382 C 0.4384 0.98406 0.1279 0.0
C1383 C 0.45747 0.99707 0.10655 0.0
C1384 C 0.41266 0.9947 0.16619 0.0
C1385 C 0.38395 0.96401 0.16103 0.0
C1386 C 0.41859 1.01057 0.19156 0.0
C1387 C 0.4489 1.03957 0.19986 0.0
C1388 C 0.47279 1.03248 0.19723 0.0
C1389 C 0.50131 0.05976 0.20527 0.0
C1390 C 0.50619 0.09415 0.21612 0.0
C1391 C 0.48253 0.10129 0.21903 0.0
C1392 C 0.45395 0.0741 0.21103 0.0
C1393 C 0.30858 0.90801 0.25584 0.0
C1394 C 0.29949 0.93378 0.2647 0.0
C1395 C 0.32989 0.91824 0.23603 0.0
C1396 C 0.34328 0.95484 0.22509 0.0
C1397 C 0.33416 0.9804 0.23391 0.0
C1398 C 0.31245 0.96995 0.25311 0.0
C1399 C 0.36689 0.9671 0.20466 0.0
C1400 C 0.39562 0.99721 0.2101 0.0
C1401 C 0.36128 0.94994 0.17982 0.0
C1402 C 0.33173 0.91783 0.17261 0.0
C1403 C 0.30623 0.92178 0.17376 0.0
C1404 C 0.2785 0.89137 0.16671 0.0
C1405 C 0.27603 0.85694 0.15835 0.0
C1406 C 0.30129 0.85287 0.157 0.0
C1407 C 0.32906 0.88318 0.16403 0.0
H1408 H 0.25456 0.83345 0.15286 0.0
H1409 H 0.52829 0.11523 0.22234 0.0
H1410 H 0.52136 0.0516 0.93569 0.0
H1411 H 0.51049 0.06636 0.89273 0.0
H1412 H 0.53657 0.18045 0.9184 0.0
H1413 H 0.54697 0.16517 0.96164 0.0
H1414 H 0.48518 0.15295 0.89831 0.0
H1415 H 0.57282 0.15939 0.8671 0.0
H1416 H 0.61196 0.14315 0.85776 0.0
H1417 H 0.54869 1.04191 0.81756 0.0
H1418 H 0.50902 0.05711 0.82705 0.0
H1419 H 0.44442 0.18196 0.76682 0.0
H1420 H 0.47451 0.18914 0.80572 0.0
H1421 H 0.43522 0.06735 0.81008 0.0
H1422 H 0.40432 0.05988 0.77256 0.0
H1423 H 0.5009 0.11099 0.81244 0.0
H1424 H 0.41261 0.10517 0.85043 0.0
H1425 H 0.37681 0.12808 0.85676 0.0
H1426 H 0.44746 0.23697 0.88174 0.0
H1427 H 0.48375 0.21484 0.87517 0.0
C1428 C 0.52648 0.0805 0.93174 0.0
C1429 C 0.53605 0.10756 0.95192 0.0
C1430 C 0.51993 0.08892 0.9071 0.0
C1431 C 0.52261 0.12467 0.90192 0.0
C1432 C 0.53423 0.15264 0.92162 0.0
C1433 C 0.54082 0.14417 0.9463 0.0
C1434 C 0.50957 0.13079 0.87749 0.0
C1435 C 0.48931 0.14453 0.87952 0.0
C1436 C 0.51439 0.11966 0.85266 0.0
C1437 C 0.53782 0.10923 0.84807 0.0
C1438 C 0.56712 0.13335 0.85662 0.0
C1439 C 0.58944 0.12439 0.8512 0.0
C1440 C 0.5828 0.09147 0.83714 0.0
C1441 C 0.55379 0.06735 0.82853 0.0
C1442 C 0.53137 0.07612 0.83393 0.0
C1443 C 0.44186 0.15673 0.77632 0.0
C1444 C 0.42209 0.12034 0.76619 0.0
C1445 C 0.45923 0.16087 0.79847 0.0
C1446 C 0.45746 0.12875 0.8107 0.0
C1447 C 0.43735 0.09258 0.80089 0.0
C1448 C 0.41965 0.08842 0.77928 0.0
C1449 C 0.47631 0.13205 0.83368 0.0
C1450 C 0.49742 0.11993 0.83131 0.0
C1451 C 0.47274 0.14529 0.85805 0.0
C1452 C 0.45093 0.15853 0.86196 0.0
C1453 C 0.42055 0.13413 0.85699 0.0
C1454 C 0.40016 0.14694 0.86069 0.0
C1455 C 0.40987 0.18401 0.86955 0.0
C1456 C 0.43998 0.2083 0.87481 0.0
C1457 C 0.46046 0.19564 0.87111 0.0
H1458 H 0.39404 0.19386 0.87242 0.0
H1459 H 0.60015 0.0847 0.83284 0.0
H1460 H 0.04994 0.43349 0.92407 0.0
H1461 H 1.01958 0.4124 0.88461 0.0
H1462 H 0.94223 0.39079 0.92846 0.0
H1463 H 0.97268 0.41277 0.96802 0.0
H1464 H 0.93383 0.32926 0.89313 0.0
H1465 H 0.96763 0.46282 0.89231 0.0
H1466 H 1.00464 0.53106 0.89492 0.0
H1467 H 0.0498 0.51919 0.82904 0.0
H1468 H 1.0133 0.45072 0.82627 0.0
H1469 H 0.85385 0.27853 0.77175 0.0
H1470 H 0.87096 0.3076 0.81501 0.0
H1471 H 0.96058 0.37087 0.78649 0.0
H1472 H 0.94346 0.34377 0.74392 0.0
H1473 H 0.95539 0.41389 0.81783 0.0
H1474 H 0.92809 0.28027 0.82254 0.0
H1475 H 0.89358 0.2111 0.82026 0.0
H1476 H 0.83893 0.22177 0.87836 0.0
H1477 H 0.87297 0.29108 0.88074 0.0
C1478 C 1.02653 0.42461 0.92533 0.0
C1479 C 1.01388 0.42518 0.94927 0.0
C1480 C 1.00915 0.4125 0.90271 0.0
C1481 C 0.97852 0.39997 0.90343 0.0
C1482 C 0.96575 0.40031 0.92732 0.0
C1483 C 0.98328 0.41318 0.94991 0.0
C1484 C 0.96011 0.38634 0.87919 0.0
C1485 C 0.93817 0.34789 0.87678 0.0
C1486 C 0.96589 0.41036 0.85767 0.0
C1487 C 0.98785 0.45155 0.85922 0.0
C1488 C 0.98559 0.47468 0.87851 0.0
C1489 C 1.00646 0.51343 0.87999 0.0
C1490 C 1.0296 0.52944 0.86219 0.0
C1491 C 1.03188 0.50674 0.84283 0.0
C1492 C 1.01109 0.46797 0.84128 0.0
C1493 C 0.87699 0.29948 0.77469 0.0
C1494 C 0.89723 0.30887 0.75427 0.0
C1495 C 0.88694 0.31572 0.79955 0.0
C1496 C 0.9174 0.34113 0.80452 0.0
C1497 C 0.93706 0.35157 0.78363 0.0
C1498 C 0.92716 0.33584 0.75906 0.0
C1499 C 0.92975 0.35618 0.83116 0.0
C1500 C 0.95065 0.39511 0.83416 0.0
C1501 C 0.9233 0.33241 0.85307 0.0
C1502 C 0.90282 0.29086 0.85156 0.0
C1503 C 0.90858 0.26787 0.83468 0.0
C1504 C 0.88913 0.22865 0.83339 0.0
C1505 C 0.86401 0.21207 0.84908 0.0
C1506 C 0.85834 0.23466 0.86615 0.0
C1507 C 0.87769 0.27391 0.86748 0.0
H1508 H 0.84899 0.1817 0.84807 0.0
H1509 H 0.04572 0.55944 0.86337 0.0
H1510 H 0.81356 0.69121 0.78422 0.0
H1511 H 0.78012 0.66889 0.82182 0.0
H1512 H 0.74006 0.73506 0.79687 0.0
H1513 H 0.77371 0.75824 0.76061 0.0
H1514 H 0.74162 0.73984 0.84478 0.0
H1515 H 0.70863 0.63151 0.78749 0.0
H1516 H 0.71322 0.58259 0.7623 0.0
H1517 H 0.73405 0.54244 0.83154 0.0
H1518 H 0.72988 0.59136 0.85715 0.0
H1519 H 0.60539 0.64944 0.91505 0.0
H1520 H 0.63961 0.66644 0.87818 0.0
H1521 H 0.68617 0.6167 0.91645 0.0
H1522 H 0.65251 0.60037 0.95322 0.0
H1523 H 0.68205 0.60215 0.86341 0.0
H1524 H 0.71292 0.71012 0.92024 0.0
H1525 H 0.70627 0.75785 0.94487 0.0
H1526 H 0.68739 0.79792 0.87456 0.0
H1527 H 0.6935 0.75 0.84955 0.0
C1528 C 0.7981 0.70164 0.78715 0.0
C1529 C 0.79657 0.72666 0.76916 0.0
C1530 C 0.7785 0.68835 0.80851 0.0
C1531 C 0.75669 0.69944 0.8123 0.0
C1532 C 0.75626 0.72564 0.79483 0.0
C1533 C 0.77573 0.73895 0.77384 0.0
C1534 C 0.73395 0.68406 0.83387 0.0
C1535 C 0.72846 0.7096 0.84845 0.0
C1536 C 0.71668 0.64466 0.83955 0.0
C1537 C 0.71929 0.61537 0.82419 0.0
C1538 C 0.71441 0.61243 0.79732 0.0
C1539 C 0.71689 0.58468 0.78297 0.0
C1540 C 0.72402 0.55953 0.79529 0.0
C1541 C 0.7286 0.56199 0.82201 0.0
C1542 C 0.72615 0.5897 0.83646 0.0
C1543 C 0.6223 0.64104 0.9152 0.0
C1544 C 0.6258 0.62295 0.93701 0.0
C1545 C 0.64218 0.6512 0.89421 0.0
C1546 C 0.66592 0.64324 0.89439 0.0
C1547 C 0.66824 0.62322 0.91555 0.0
C1548 C 0.64878 0.6137 0.9366 0.0
C1549 C 0.6895 0.6579 0.87366 0.0
C1550 C 0.69521 0.63231 0.85948 0.0
C1551 C 0.70679 0.6972 0.8681 0.0
C1552 C 0.70336 0.72622 0.88306 0.0
C1553 C 0.70713 0.72892 0.91006 0.0
C1554 C 0.70349 0.75603 0.92408 0.0
C1555 C 0.69634 0.78084 0.9113 0.0
C1556 C 0.69289 0.77865 0.88445 0.0
C1557 C 0.69644 0.75153 0.87033 0.0
H1558 H 0.69353 0.80181 0.92219 0.0
H1559 H 0.72593 0.53807 0.78414 0.0
H1560 H 0.72201 0.75048 0.42814 0.0
H1561 H 0.74245 0.74751 0.46988 0.0
H1562 H 0.75988 0.86099 0.48813 0.0
H1563 H 0.73932 0.86419 0.44565 0.0
H1564 H 0.80831 0.85211 0.50019 0.0
H1565 H 0.70521 0.78476 0.51959 0.0
H1566 H 0.65233 0.73766 0.51308 0.0
H1567 H 0.67292 0.64695 0.51622 0.0
H1568 H 0.726 0.69353 0.52238 0.0
H1569 H 0.84929 0.82565 0.63047 0.0
H1570 H 0.83024 0.84132 0.59159 0.0
H1571 H 0.79708 0.72691 0.56281 0.0
H1572 H 0.81532 0.71112 0.60169 0.0
H1573 H 0.75497 0.74303 0.55907 0.0
H1574 H 0.85861 0.81086 0.53561 0.0
H1575 H 0.91158 0.85797 0.54174 0.0
H1576 H 0.88995 0.94773 0.54658 0.0
H1577 H 0.83679 0.90106 0.54078 0.0
C1578 C 0.72965 0.77469 0.44114 0.0
C1579 C 0.72867 0.80747 0.43346 0.0
C1580 C 0.74142 0.77292 0.46517 0.0
C1581 C 0.75274 0.80389 0.48253 0.0
C1582 C 0.75132 0.83658 0.47523 0.0
C1583 C 0.73918 0.83825 0.45105 0.0
C1584 C 0.76664 0.80174 0.5077 0.0
C1585 C 0.79642 0.82863 0.51332 0.0
C1586 C 0.75159 0.77086 0.52486 0.0
C1587 C 0.71964 0.74269 0.52128 0.0
C1588 C 0.6985 0.75478 0.51871 0.0
C1589 C 0.66848 0.72817 0.51511 0.0
C1590 C 0.65928 0.68934 0.51419 0.0
C1591 C 0.68008 0.67704 0.51693 0.0
C1592 C 0.71013 0.70353 0.52051 0.0
C1593 C 0.83884 0.80425 0.61544 0.0
C1594 C 0.83419 0.76718 0.6192 0.0
C1595 C 0.82769 0.81316 0.59317 0.0
C1596 C 0.81194 0.78535 0.57393 0.0
C1597 C 0.80879 0.74898 0.5772 0.0
C1598 C 0.81959 0.74004 0.59944 0.0
C1599 C 0.79701 0.7927 0.55124 0.0
C1600 C 0.76689 0.76673 0.54611 0.0
C1601 C 0.8118 0.82439 0.53462 0.0
C1602 C 0.84371 0.85243 0.53805 0.0
C1603 C 0.86513 0.84061 0.53818 0.0
C1604 C 0.89519 0.86724 0.54156 0.0
C1605 C 0.90411 0.9058 0.54463 0.0
C1606 C 0.883 0.91784 0.54424 0.0
C1607 C 0.85291 0.89132 0.54089 0.0
H1608 H 0.92739 0.92637 0.54723 0.0
H1609 H 0.63603 0.66879 0.5114 0.0
H1610 H 0.31272 0.98689 0.41131 0.0
H1611 H 0.32262 1.00571 0.45646 0.0
H1612 H 0.23229 0.92407 0.47543 0.0
H1613 H 0.22205 0.90459 0.42938 0.0
H1614 H 0.25531 1.00134 0.4985 0.0
H1615 H 0.28173 0.90323 0.49363 0.0
H1616 H 0.30571 0.86932 0.47428 0.0
H1617 H 0.39121 0.96902 0.48358 0.0
H1618 H 0.36771 1.00373 0.50265 0.0
H1619 H 0.30207 0.05182 0.63209 0.0
H1620 H 0.27883 1.01971 0.59115 0.0
H1621 H 0.36565 0.06174 0.55765 0.0
H1622 H 0.38861 0.09172 0.59881 0.0
H1623 H 0.33631 0.99365 0.54456 0.0
H1624 H 0.31159 0.09467 0.54298 0.0
H1625 H 0.28952 0.1324 0.55982 0.0
H1626 H 0.20355 1.03222 0.56077 0.0
H1627 H 0.22519 0.99383 0.54419 0.0
C1628 C 0.2948 0.97261 0.42495 0.0
C1629 C 0.2665 0.94413 0.41656 0.0
C1630 C 0.30059 0.98348 0.45091 0.0
C1631 C 0.27831 0.96643 0.46952 0.0
C1632 C 0.24989 0.93774 0.46144 0.0
C1633 C 0.24411 0.92636 0.43518 0.0
C1634 C 0.28558 0.97927 0.49715 0.0
C1635 C 0.27255 0.99895 0.50887 0.0
C1636 C 0.30864 0.97715 0.51051 0.0
C1637 C 0.32292 0.95613 0.49948 0.0
C1638 C 0.30563 0.91799 0.49143 0.0
C1639 C 0.31914 0.89862 0.48052 0.0
C1640 C 0.34996 0.91702 0.47767 0.0
C1641 C 0.36734 0.9548 0.48581 0.0
C1642 C 0.35394 0.97431 0.49671 0.0
C1643 C 0.31612 0.05477 0.61578 0.0
C1644 C 0.34722 0.07461 0.61866 0.0
C1645 C 0.3028 1.03634 0.59227 0.0
C1646 C 0.32029 1.03819 0.57085 0.0
C1647 C 0.35139 0.05929 0.57366 0.0
C1648 C 0.36461 0.07683 0.59723 0.0
C1649 C 0.30683 1.01711 0.54586 0.0
C1650 C 0.31876 0.99578 0.53455 0.0
C1651 C 0.28308 1.01825 0.5328 0.0
C1652 C 0.27006 1.04133 0.54263 0.0
C1653 C 0.28801 0.08066 0.54694 0.0
C1654 C 0.27558 0.10217 0.55641 0.0
C1655 C 0.24517 0.0847 0.56144 0.0
C1656 C 0.22711 0.0457 0.55692 0.0
C1657 C 0.23944 1.02407 0.54746 0.0
H1658 H 0.23558 0.10139 0.56879 0.0
H1659 H 0.36038 0.90198 0.46919 0.0
H1660 H 0.97084 0.26835 0.62337 0.0
H1661 H 1.0068 0.28743 0.58826 0.0
H1662 H 0.97033 0.35333 0.55503 0.0
H1663 H 0.93337 0.33273 0.58983 0.0
H1664 H 0.98803 0.32503 0.51717 0.0
H1665 H 1.03414 0.39104 0.59686 0.0
H1666 H 0.04702 0.39368 0.64304 0.0
H1667 H 0.09488 0.33431 0.62667 0.0
H1668 H 0.08167 0.33046 0.5805 0.0
H1669 H 0.10899 0.45817 0.44626 0.0
H1670 H 0.07338 0.42978 0.48109 0.0
H1671 H 0.11108 0.3588 0.50037 0.0
H1672 H 0.14712 0.38727 0.46488 0.0
H1673 H 0.09358 0.38533 0.54495 0.0
H1674 H 0.04983 0.3208 0.46595 0.0
H1675 H 1.03569 0.31452 0.41991 0.0
H1676 H 0.98354 0.36858 0.43484 0.0
H1677 H 0.99775 0.37574 0.48092 0.0
C1678 C 0.96978 0.28581 0.60805 0.0
C1679 C 0.94878 0.29836 0.60918 0.0
C1680 C 0.99078 0.29733 0.58813 0.0
C1681 C 0.9922 0.32294 0.56911 0.0
C1682 C 0.97009 0.3338 0.56938 0.0
C1683 C 0.94867 0.32171 0.58919 0.0
C1684 C 1.01745 0.33975 0.54994 0.0
C1685 C 1.01105 0.33856 0.52339 0.0
C1686 C 0.04783 0.35661 0.55761 0.0
C1687 C 0.05667 0.36015 0.58524 0.0
C1688 C 0.04731 0.3784 0.60313 0.0
C1689 C 0.0546 0.38003 0.62932 0.0
C1690 C 0.07164 0.36401 0.63781 0.0
C1691 C 0.08156 0.34653 0.6201 0.0
C1692 C 0.07417 0.34462 0.59391 0.0
C1693 C 0.11028 0.43707 0.45817 0.0
C1694 C 0.13116 0.42518 0.45258 0.0
C1695 C 0.08961 0.42059 0.47809 0.0
C1696 C 0.08888 0.39145 0.49325 0.0
C1697 C 0.11093 0.38108 0.48896 0.0
C1698 C 0.13178 0.39764 0.46876 0.0
C1699 C 0.06404 0.37101 0.51234 0.0
C1700 C 0.07053 0.37162 0.53879 0.0
C1701 C 1.03373 0.3534 0.50461 0.0
C1702 C 1.02507 0.3491 0.47689 0.0
C1703 C 1.03555 0.33165 0.45939 0.0
C1704 C 1.02749 0.32788 0.43328 0.0
C1705 C 1.00878 0.34121 0.42446 0.0
C1706 C 0.99806 0.3583 0.44171 0.0
C1707 C 1.00609 0.36219 0.46784 0.0
H1708 H 1.00249 0.3382 0.40427 0.0
H1709 H 0.07721 0.36522 0.65809 0.0
loop_
_geom_bond_atom_site_label_1
_geom_bond_atom_site_label_2
_geom_bond_distance
_geom_bond_site_symmetry_2
_ccdc_geom_bond_type
Tb0 C9 2.764 . S
Tb0 O10 2.325 1_554 S
Tb0 O13 2.300 . S
Tb0 O17 2.322 1_455 S
Tb0 O18 2.353 1_554 S
Tb0 O21 2.414 . S
Tb0 O22 2.401 1_554 S
Tb1 O11 2.322 1_655 S
Tb1 O12 2.349 . S
Tb1 O14 2.415 1_554 S
Tb1 O15 2.399 . S
Tb1 O16 2.325 . S
Tb1 O19 2.303 1_554 S
Tb1 C30 2.764 . S
C2 O18 1.261 1_655 S
C2 O19 1.257 . S
C3 C6 1.326 1_554 S
C3 C7 1.363 . S
C3 C9 1.504 . S
C4 C5 1.373 1_554 S
C4 C8 1.308 . S
C5 C4 1.373 1_556 S
C5 C6 1.429 . S
C5 H32 0.932 . S
C6 C3 1.326 1_556 S
C6 C5 1.429 . S
C6 H33 0.930 . S
C7 C3 1.363 . S
C7 C8 1.394 . S
C7 H34 0.932 . S
C8 C4 1.308 . S
C8 C7 1.394 . S
C8 H35 0.929 . S
C9 Tb0 2.764 . S
C9 C3 1.504 . S
C9 O21 1.246 . S
C9 O22 1.256 1_554 S
O10 Tb0 2.325 1_556 S
O10 C20 1.236 1_556 S
O11 Tb1 2.322 1_455 S
O11 C20 1.257 . S
O12 Tb1 2.349 . S
O12 C23 1.261 1_655 S
O13 Tb0 2.300 . S
O13 C23 1.257 . S
O14 Tb1 2.415 1_556 S
O14 C30 1.239 1_556 S
O15 Tb1 2.399 . S
O15 C30 1.263 . S
O16 Tb1 2.325 . S
O16 C31 1.236 . S
O17 Tb0 2.322 1_655 S
O17 C31 1.257 . S
O18 Tb0 2.353 1_556 S
O18 C2 1.261 1_455 S
O19 Tb1 2.303 1_556 S
O19 C2 1.257 . S
C20 O10 1.236 1_554 S
C20 O11 1.257 . S
O21 Tb0 2.414 . S
O21 C9 1.246 . S
O22 Tb0 2.401 1_556 S
O22 C9 1.256 1_556 S
C23 O12 1.261 1_455 S
C23 O13 1.257 . S
C24 C27 1.358 . S
C24 C28 1.332 1_554 S
C24 C30 1.504 . S
C25 C26 1.373 . S
C25 C29 1.308 1_554 S
C26 C25 1.373 . S
C26 C27 1.429 . S
C26 H36 0.932 . S
C27 C24 1.358 . S
C27 C26 1.429 . S
C27 H37 0.930 . S
C28 C24 1.332 1_556 S
C28 C29 1.394 . S
C28 H38 0.932 . S
C29 C25 1.308 1_556 S
C29 C28 1.394 . S
C29 H39 0.929 . S
C30 Tb1 2.764 . S
C30 O14 1.239 1_554 S
C30 O15 1.263 . S
C30 C24 1.504 . S
C31 O16 1.236 . S
C31 O17 1.257 . S
H32 C5 0.932 . S
H33 C6 0.930 . S
H34 C7 0.932 . S
H35 C8 0.929 . S
H36 C26 0.932 . S
H37 C27 0.930 . S
H38 C28 0.932 . S
H39 C29 0.929 . S
Tb40 C49 2.764 . S
Tb40 O50 2.325 . S
Tb40 O53 2.303 1_554 S
Tb40 O57 2.322 . S
Tb40 O58 2.349 . S
Tb40 O61 2.415 1_554 S
Tb40 O62 2.399 . S
Tb41 O51 2.322 . S
Tb41 O52 2.349 . S
Tb41 O54 2.415 1_556 S
Tb41 O55 2.399 . S
Tb41 O56 2.325 . S
Tb41 O59 2.303 1_556 S
Tb41 C70 2.764 . S
C42 O58 1.261 . S
C42 O59 1.257 . S
C43 C46 1.358 . S
C43 C47 1.332 1_554 S
C43 C49 1.504 . S
C44 C45 1.373 . S
C44 C48 1.308 1_554 S
C45 C44 1.373 . S
C45 C46 1.429 . S
C45 H72 0.932 . S
C46 C43 1.358 . S
C46 C45 1.429 . S
C46 H73 0.930 . S
C47 C43 1.332 1_556 S
C47 C48 1.394 . S
C47 H74 0.932 . S
C48 C44 1.308 1_556 S
C48 C47 1.394 . S
C48 H75 0.929 . S
C49 Tb40 2.764 . S
C49 C43 1.504 . S
C49 O61 1.239 1_554 S
C49 O62 1.263 . S
O50 Tb40 2.325 . S
O50 C60 1.236 . S
O51 Tb41 2.322 . S
O51 C60 1.257 1_556 S
O52 Tb41 2.349 . S
O52 C63 1.261 . S
O53 Tb40 2.303 1_556 S
O53 C63 1.257 . S
O54 Tb41 2.415 1_554 S
O54 C70 1.239 1_554 S
O55 Tb41 2.399 . S
O55 C70 1.263 . S
O56 Tb41 2.325 . S
O56 C71 1.236 . S
O57 Tb40 2.322 . S
O57 C71 1.257 1_554 S
O58 Tb40 2.349 . S
O58 C42 1.261 . S
O59 Tb41 2.303 1_554 S
O59 C42 1.257 . S
C60 O50 1.236 . S
C60 O51 1.257 1_554 S
O61 Tb40 2.415 1_556 S
O61 C49 1.239 1_556 S
O62 Tb40 2.399 . S
O62 C49 1.263 . S
C63 O52 1.261 . S
C63 O53 1.257 . S
C64 C67 1.358 . S
C64 C68 1.332 1_556 S
C64 C70 1.504 . S
C65 C66 1.373 . S
C65 C69 1.308 1_556 S
C66 C65 1.373 . S
C66 C67 1.429 . S
C66 H76 0.932 . S
C67 C64 1.358 . S
C67 C66 1.429 . S
C67 H77 0.930 . S
C68 C64 1.332 1_554 S
C68 C69 1.394 . S
C68 H78 0.932 . S
C69 C65 1.308 1_554 S
C69 C68 1.394 . S
C69 H79 0.929 . S
C70 Tb41 2.764 . S
C70 O54 1.239 1_556 S
C70 O55 1.263 . S
C70 C64 1.504 . S
C71 O56 1.236 . S
C71 O57 1.257 1_556 S
H72 C45 0.932 . S
H73 C46 0.930 . S
H74 C47 0.932 . S
H75 C48 0.929 . S
H76 C66 0.932 . S
H77 C67 0.930 . S
H78 C68 0.932 . S
H79 C69 0.929 . S
Tb80 C89 2.763 . S
Tb80 O90 2.328 . S
Tb80 O93 2.283 1_556 S
Tb80 O97 2.321 1_566 S
Tb80 O98 2.374 . S
Tb80 O101 2.403 1_556 S
Tb80 O102 2.410 . S
Tb81 O91 2.322 1_545 S
Tb81 O92 2.349 . S
Tb81 O94 2.415 1_554 S
Tb81 O95 2.399 . S
Tb81 O96 2.325 . S
Tb81 O99 2.303 1_554 S
Tb81 C110 2.764 . S
C82 O98 1.261 1_545 S
C82 O99 1.257 . S
C83 C86 1.342 1_554 S
C83 C87 1.348 . S
C83 C89 1.502 1_554 S
C84 C85 1.373 1_554 S
C84 C88 1.308 . S
C85 C84 1.373 1_556 S
C85 C86 1.429 . S
C85 H112 0.932 . S
C86 C83 1.342 1_556 S
C86 C85 1.429 . S
C86 H113 0.930 . S
C87 C83 1.348 . S
C87 C88 1.394 . S
C87 H114 0.932 . S
C88 C84 1.308 . S
C88 C87 1.394 . S
C88 H115 0.929 . S
C89 Tb80 2.763 . S
C89 C83 1.502 1_556 S
C89 O101 1.234 1_556 S
C89 O102 1.267 . S
O90 Tb80 2.328 . S
O90 C100 1.236 1_556 S
O91 Tb81 2.322 1_565 S
O91 C100 1.257 . S
O92 Tb81 2.349 . S
O92 C103 1.261 1_545 S
O93 Tb80 2.283 1_554 S
O93 C103 1.257 . S
O94 Tb81 2.415 1_556 S
O94 C110 1.239 1_556 S
O95 Tb81 2.399 . S
O95 C110 1.263 . S
O96 Tb81 2.325 . S
O96 C111 1.236 . S
O97 Tb80 2.321 1_544 S
O97 C111 1.257 . S
O98 Tb80 2.374 . S
O98 C82 1.261 1_565 S
O99 Tb81 2.303 1_556 S
O99 C82 1.257 . S
C100 O90 1.236 1_554 S
C100 O91 1.257 . S
O101 Tb80 2.403 1_554 S
O101 C89 1.234 1_554 S
O102 Tb80 2.410 . S
O102 C89 1.267 . S
C103 O92 1.261 1_565 S
C103 O93 1.257 . S
C104 C107 1.358 . S
C104 C108 1.332 1_554 S
C104 C110 1.504 . S
C105 C106 1.373 . S
C105 C109 1.308 1_554 S
C106 C105 1.373 . S
C106 C107 1.429 . S
C106 H116 0.932 . S
C107 C104 1.358 . S
C107 C106 1.429 . S
C107 H117 0.930 . S
C108 C104 1.332 1_556 S
C108 C109 1.394 . S
C108 H118 0.932 . S
C109 C105 1.308 1_556 S
C109 C108 1.394 . S
C109 H119 0.929 . S
C110 Tb81 2.764 . S
C110 O94 1.239 1_554 S
C110 O95 1.263 . S
C110 C104 1.504 . S
C111 O96 1.236 . S
C111 O97 1.257 . S
H112 C85 0.932 . S
H113 C86 0.930 . S
H114 C87 0.932 . S
H115 C88 0.929 . S
H116 C106 0.932 . S
H117 C107 0.930 . S
H118 C108 0.932 . S
H119 C109 0.929 . S
Tb120 C129 2.764 . S
Tb120 O130 2.325 . S
Tb120 O133 2.303 . S
Tb120 O137 2.322 . S
Tb120 O138 2.349 . S
Tb120 O141 2.415 . S
Tb120 O142 2.399 . S
Tb121 O131 2.322 . S
Tb121 O132 2.349 . S
Tb121 O134 2.415 . S
Tb121 O135 2.399 . S
Tb121 O136 2.325 . S
Tb121 O139 2.303 . S
Tb121 C150 2.764 . S
C122 O138 1.261 . S
C122 O139 1.257 . S
C123 C126 1.358 . S
C123 C127 1.332 . S
C123 C129 1.504 . S
C124 C125 1.373 . S
C124 C128 1.308 . S
C125 C124 1.373 . S
C125 C126 1.429 . S
C125 H152 0.932 . S
C126 C123 1.358 . S
C126 C125 1.429 . S
C126 H153 0.930 . S
C127 C123 1.332 . S
C127 C128 1.394 . S
C127 H154 0.932 . S
C128 C124 1.308 . S
C128 C127 1.394 . S
C128 H155 0.929 . S
C129 Tb120 2.764 . S
C129 C123 1.504 . S
C129 O141 1.239 . S
C129 O142 1.263 . S
O130 Tb120 2.325 . S
O130 C140 1.236 . S
O131 Tb121 2.322 . S
O131 C140 1.257 . S
O132 Tb121 2.349 . S
O132 C143 1.261 . S
O133 Tb120 2.303 . S
O133 C143 1.257 . S
O134 Tb121 2.415 . S
O134 C150 1.239 . S
O135 Tb121 2.399 . S
O135 C150 1.263 . S
O136 Tb121 2.325 . S
O136 C151 1.236 . S
O137 Tb120 2.322 . S
O137 C151 1.257 . S
O138 Tb120 2.349 . S
O138 C122 1.261 . S
O139 Tb121 2.303 . S
O139 C122 1.257 . S
C140 O130 1.236 . S
C140 O131 1.257 . S
O141 Tb120 2.415 . S
O141 C129 1.239 . S
O142 Tb120 2.399 . S
O142 C129 1.263 . S
C143 O132 1.261 . S
C143 O133 1.257 . S
C144 C147 1.358 . S
C144 C148 1.332 . S
C144 C150 1.504 . S
C145 C146 1.373 . S
C145 C149 1.308 . S
C146 C145 1.373 . S
C146 C147 1.429 . S
C146 H156 0.932 . S
C147 C144 1.358 . S
C147 C146 1.429 . S
C147 H157 0.930 . S
C148 C144 1.332 . S
C148 C149 1.394 . S
C148 H158 0.932 . S
C149 C145 1.308 . S
C149 C148 1.394 . S
C149 H159 0.929 . S
C150 Tb121 2.764 . S
C150 O134 1.239 . S
C150 O135 1.263 . S
C150 C144 1.504 . S
C151 O136 1.236 . S
C151 O137 1.257 . S
H152 C125 0.932 . S
H153 C126 0.930 . S
H154 C127 0.932 . S
H155 C128 0.929 . S
H156 C146 0.932 . S
H157 C147 0.930 . S
H158 C148 0.932 . S
H159 C149 0.929 . S
Tb160 C169 2.764 . S
Tb160 O170 2.325 . S
Tb160 O173 2.303 . S
Tb160 O177 2.322 . S
Tb160 O178 2.349 . S
Tb160 O181 2.415 . S
Tb160 O182 2.399 . S
Tb161 O171 2.322 . S
Tb161 O172 2.349 . S
Tb161 O174 2.415 . S
Tb161 O175 2.399 . S
Tb161 O176 2.325 . S
Tb161 O179 2.303 . S
Tb161 C190 2.764 . S
C162 O178 1.261 . S
C162 O179 1.257 . S
C163 C166 1.358 . S
C163 C167 1.332 . S
C163 C169 1.504 1_545 S
C164 C165 1.373 . S
C164 C168 1.308 . S
C165 C164 1.373 . S
C165 C166 1.429 . S
C165 H192 0.932 . S
C166 C163 1.358 . S
C166 C165 1.429 . S
C166 H193 0.930 . S
C167 C163 1.332 . S
C167 C168 1.394 . S
C167 H194 0.932 . S
C168 C164 1.308 . S
C168 C167 1.394 . S
C168 H195 0.929 . S
C169 Tb160 2.764 . S
C169 C163 1.504 1_565 S
C169 O181 1.239 . S
C169 O182 1.263 . S
O170 Tb160 2.325 . S
O170 C180 1.236 . S
O171 Tb161 2.322 . S
O171 C180 1.257 . S
O172 Tb161 2.349 . S
O172 C183 1.261 . S
O173 Tb160 2.303 . S
O173 C183 1.257 . S
O174 Tb161 2.415 . S
O174 C190 1.239 . S
O175 Tb161 2.399 . S
O175 C190 1.263 . S
O176 Tb161 2.325 . S
O176 C191 1.236 . S
O177 Tb160 2.322 . S
O177 C191 1.257 . S
O178 Tb160 2.349 . S
O178 C162 1.261 . S
O179 Tb161 2.303 . S
O179 C162 1.257 . S
C180 O170 1.236 . S
C180 O171 1.257 . S
O181 Tb160 2.415 . S
O181 C169 1.239 . S
O182 Tb160 2.399 . S
O182 C169 1.263 . S
C183 O172 1.261 . S
C183 O173 1.257 . S
C184 C187 1.358 . S
C184 C188 1.332 . S
C184 C190 1.504 . S
C185 C186 1.373 . S
C185 C189 1.308 . S
C186 C185 1.373 . S
C186 C187 1.429 . S
C186 H196 0.932 . S
C187 C184 1.358 . S
C187 C186 1.429 . S
C187 H197 0.930 . S
C188 C184 1.332 . S
C188 C189 1.394 . S
C188 H198 0.932 . S
C189 C185 1.308 . S
C189 C188 1.394 . S
C189 H199 0.929 . S
C190 Tb161 2.764 . S
C190 O174 1.239 . S
C190 O175 1.263 . S
C190 C184 1.504 . S
C191 O176 1.236 . S
C191 O177 1.257 . S
H192 C165 0.932 . S
H193 C166 0.930 . S
H194 C167 0.932 . S
H195 C168 0.929 . S
H196 C186 0.932 . S
H197 C187 0.930 . S
H198 C188 0.932 . S
H199 C189 0.929 . S
Tb200 C209 2.764 . S
Tb200 O210 2.325 . S
Tb200 O213 2.303 . S
Tb200 O217 2.322 . S
Tb200 O218 2.349 . S
Tb200 O221 2.415 . S
Tb200 O222 2.399 . S
Tb201 O211 2.322 . S
Tb201 O212 2.349 . S
Tb201 O214 2.415 . S
Tb201 O215 2.399 . S
Tb201 O216 2.325 . S
Tb201 O219 2.303 . S
Tb201 C230 2.764 . S
C202 O218 1.261 . S
C202 O219 1.257 . S
C203 C206 1.358 1_455 S
C203 C207 1.332 . S
C203 C209 1.504 . S
C204 C205 1.373 . S
C204 C208 1.308 . S
C205 C204 1.373 . S
C205 C206 1.429 . S
C205 H232 0.932 . S
C206 C203 1.358 1_655 S
C206 C205 1.429 . S
C206 H233 0.930 . S
C207 C203 1.332 . S
C207 C208 1.394 1_455 S
C207 H234 0.932 . S
C208 C204 1.308 . S
C208 C207 1.394 1_655 S
C208 H235 0.929 . S
C209 Tb200 2.764 . S
C209 C203 1.504 . S
C209 O221 1.239 . S
C209 O222 1.263 . S
O210 Tb200 2.325 . S
O210 C220 1.236 . S
O211 Tb201 2.322 . S
O211 C220 1.257 . S
O212 Tb201 2.349 . S
O212 C223 1.261 . S
O213 Tb200 2.303 . S
O213 C223 1.257 . S
O214 Tb201 2.415 . S
O214 C230 1.239 . S
O215 Tb201 2.399 . S
O215 C230 1.263 . S
O216 Tb201 2.325 . S
O216 C231 1.236 . S
O217 Tb200 2.322 . S
O217 C231 1.257 . S
O218 Tb200 2.349 . S
O218 C202 1.261 . S
O219 Tb201 2.303 . S
O219 C202 1.257 . S
C220 O210 1.236 . S
C220 O211 1.257 . S
O221 Tb200 2.415 . S
O221 C209 1.239 . S
O222 Tb200 2.399 . S
O222 C209 1.263 . S
C223 O212 1.261 . S
C223 O213 1.257 . S
C224 C227 1.358 . S
C224 C228 1.332 . S
C224 C230 1.504 . S
C225 C226 1.373 . S
C225 C229 1.308 . S
C226 C225 1.373 . S
C226 C227 1.429 . S
C226 H236 0.932 . S
C227 C224 1.358 . S
C227 C226 1.429 . S
C227 H237 0.930 . S
C228 C224 1.332 . S
C228 C229 1.394 . S
C228 H238 0.932 . S
C229 C225 1.308 . S
C229 C228 1.394 . S
C229 H239 0.929 . S
C230 Tb201 2.764 . S
C230 O214 1.239 . S
C230 O215 1.263 . S
C230 C224 1.504 . S
C231 O216 1.236 . S
C231 O217 1.257 . S
H232 C205 0.932 . S
H233 C206 0.930 . S
H234 C207 0.932 . S
H235 C208 0.929 . S
H236 C226 0.932 . S
H237 C227 0.930 . S
H238 C228 0.932 . S
H239 C229 0.929 . S
Tb240 C249 2.764 . S
Tb240 O250 2.325 . S
Tb240 O253 2.303 . S
Tb240 O257 2.322 . S
Tb240 O258 2.349 . S
Tb240 O261 2.415 . S
Tb240 O262 2.399 . S
Tb241 O251 2.322 . S
Tb241 O252 2.349 . S
Tb241 O254 2.415 . S
Tb241 O255 2.399 . S
Tb241 O256 2.325 . S
Tb241 O259 2.303 . S
Tb241 C270 2.764 . S
C242 O258 1.261 . S
C242 O259 1.257 . S
C243 C246 1.358 . S
C243 C247 1.332 . S
C243 C249 1.504 . S
C244 C245 1.373 . S
C244 C248 1.308 . S
C245 C244 1.373 . S
C245 C246 1.429 . S
C245 H272 0.932 . S
C246 C243 1.358 . S
C246 C245 1.429 . S
C246 H273 0.930 . S
C247 C243 1.332 . S
C247 C248 1.394 . S
C247 H274 0.932 . S
C248 C244 1.308 . S
C248 C247 1.394 . S
C248 H275 0.929 . S
C249 Tb240 2.764 . S
C249 C243 1.504 . S
C249 O261 1.239 . S
C249 O262 1.263 . S
O250 Tb240 2.325 . S
O250 C260 1.236 . S
O251 Tb241 2.322 . S
O251 C260 1.257 . S
O252 Tb241 2.349 . S
O252 C263 1.261 . S
O253 Tb240 2.303 . S
O253 C263 1.257 . S
O254 Tb241 2.415 . S
O254 C270 1.239 . S
O255 Tb241 2.399 . S
O255 C270 1.263 . S
O256 Tb241 2.325 . S
O256 C271 1.236 . S
O257 Tb240 2.322 . S
O257 C271 1.257 . S
O258 Tb240 2.349 . S
O258 C242 1.261 . S
O259 Tb241 2.303 . S
O259 C242 1.257 . S
C260 O250 1.236 . S
C260 O251 1.257 . S
O261 Tb240 2.415 . S
O261 C249 1.239 . S
O262 Tb240 2.399 . S
O262 C249 1.263 . S
C263 O252 1.261 . S
C263 O253 1.257 . S
C264 C267 1.358 . S
C264 C268 1.332 . S
C264 C270 1.504 . S
C265 C266 1.373 . S
C265 C269 1.308 . S
C266 C265 1.373 . S
C266 C267 1.429 . S
C266 H276 0.932 . S
C267 C264 1.358 . S
C267 C266 1.429 . S
C267 H277 0.930 . S
C268 C264 1.332 . S
C268 C269 1.394 . S
C268 H278 0.932 . S
C269 C265 1.308 . S
C269 C268 1.394 . S
C269 H279 0.929 . S
C270 Tb241 2.764 . S
C270 O254 1.239 . S
C270 O255 1.263 . S
C270 C264 1.504 . S
C271 O256 1.236 . S
C271 O257 1.257 . S
H272 C245 0.932 . S
H273 C246 0.930 . S
H274 C247 0.932 . S
H275 C248 0.929 . S
H276 C266 0.932 . S
H277 C267 0.930 . S
H278 C268 0.932 . S
H279 C269 0.929 . S
Tb280 C289 2.764 . S
Tb280 O290 2.325 . S
Tb280 O293 2.303 . S
Tb280 O297 2.322 . S
Tb280 O298 2.349 . S
Tb280 O301 2.415 . S
Tb280 O302 2.399 . S
Tb281 O291 2.322 . S
Tb281 O292 2.349 . S
Tb281 O294 2.415 . S
Tb281 O295 2.399 . S
Tb281 O296 2.325 . S
Tb281 O299 2.303 . S
Tb281 C310 2.764 . S
C282 O298 1.261 . S
C282 O299 1.257 . S
C283 C286 1.358 1_655 S
C283 C287 1.332 1_655 S
C283 C289 1.504 . S
C284 C285 1.373 . S
C284 C288 1.308 . S
C285 C284 1.373 . S
C285 C286 1.429 . S
C285 H312 0.932 . S
C286 C283 1.358 1_455 S
C286 C285 1.429 . S
C286 H313 0.930 . S
C287 C283 1.332 1_455 S
C287 C288 1.394 . S
C287 H314 0.932 1_455 S
C288 C284 1.308 . S
C288 C287 1.394 . S
C288 H315 0.929 . S
C289 Tb280 2.764 . S
C289 C283 1.504 . S
C289 O301 1.239 . S
C289 O302 1.263 . S
O290 Tb280 2.325 . S
O290 C300 1.236 . S
O291 Tb281 2.322 . S
O291 C300 1.257 . S
O292 Tb281 2.349 . S
O292 C303 1.261 . S
O293 Tb280 2.303 . S
O293 C303 1.257 . S
O294 Tb281 2.415 . S
O294 C310 1.239 . S
O295 Tb281 2.399 . S
O295 C310 1.263 . S
O296 Tb281 2.325 . S
O296 C311 1.236 . S
O297 Tb280 2.322 . S
O297 C311 1.257 . S
O298 Tb280 2.349 . S
O298 C282 1.261 . S
O299 Tb281 2.303 . S
O299 C282 1.257 . S
C300 O290 1.236 . S
C300 O291 1.257 . S
O301 Tb280 2.415 . S
O301 C289 1.239 . S
O302 Tb280 2.399 . S
O302 C289 1.263 . S
C303 O292 1.261 . S
C303 O293 1.257 . S
C304 C307 1.358 . S
C304 C308 1.332 . S
C304 C310 1.504 . S
C305 C306 1.373 . S
C305 C309 1.308 . S
C306 C305 1.373 . S
C306 C307 1.429 . S
C306 H316 0.932 . S
C307 C304 1.358 . S
C307 C306 1.429 . S
C307 H317 0.930 . S
C308 C304 1.332 . S
C308 C309 1.394 . S
C308 H318 0.932 . S
C309 C305 1.308 . S
C309 C308 1.394 . S
C309 H319 0.929 . S
C310 Tb281 2.764 . S
C310 O294 1.239 . S
C310 O295 1.263 . S
C310 C304 1.504 . S
C311 O296 1.236 . S
C311 O297 1.257 . S
H312 C285 0.932 . S
H313 C286 0.930 . S
H314 C287 0.932 1_655 S
H315 C288 0.929 . S
H316 C306 0.932 . S
H317 C307 0.930 . S
H318 C308 0.932 . S
H319 C309 0.929 . S
Tb320 C329 2.764 . S
Tb320 O330 2.325 . S
Tb320 O333 2.303 . S
Tb320 O337 2.322 . S
Tb320 O338 2.349 . S
Tb320 O341 2.415 . S
Tb320 O342 2.399 . S
Tb321 O331 2.322 . S
Tb321 O332 2.349 . S
Tb321 O334 2.415 . S
Tb321 O335 2.399 . S
Tb321 O336 2.325 . S
Tb321 O339 2.303 . S
Tb321 C350 2.764 . S
C322 O338 1.261 . S
C322 O339 1.257 . S
C323 C326 1.358 . S
C323 C327 1.332 . S
C323 C329 1.504 . S
C324 C325 1.373 . S
C324 C328 1.308 . S
C325 C324 1.373 . S
C325 C326 1.429 . S
C325 H352 0.932 . S
C326 C323 1.358 . S
C326 C325 1.429 . S
C326 H353 0.930 . S
C327 C323 1.332 . S
C327 C328 1.394 . S
C327 H354 0.932 . S
C328 C324 1.308 . S
C328 C327 1.394 . S
C328 H355 0.929 . S
C329 Tb320 2.764 . S
C329 C323 1.504 . S
C329 O341 1.239 . S
C329 O342 1.263 . S
O330 Tb320 2.325 . S
O330 C340 1.236 . S
O331 Tb321 2.322 . S
O331 C340 1.257 . S
O332 Tb321 2.349 . S
O332 C343 1.261 . S
O333 Tb320 2.303 . S
O333 C343 1.257 . S
O334 Tb321 2.415 . S
O334 C350 1.239 . S
O335 Tb321 2.399 . S
O335 C350 1.263 . S
O336 Tb321 2.325 . S
O336 C351 1.236 . S
O337 Tb320 2.322 . S
O337 C351 1.257 . S
O338 Tb320 2.349 . S
O338 C322 1.261 . S
O339 Tb321 2.303 . S
O339 C322 1.257 . S
C340 O330 1.236 . S
C340 O331 1.257 . S
O341 Tb320 2.415 . S
O341 C329 1.239 . S
O342 Tb320 2.399 . S
O342 C329 1.263 . S
C343 O332 1.261 . S
C343 O333 1.257 . S
C344 C347 1.358 . S
C344 C348 1.332 . S
C344 C350 1.504 . S
C345 C346 1.373 . S
C345 C349 1.308 . S
C346 C345 1.373 . S
C346 C347 1.429 . S
C346 H356 0.932 . S
C347 C344 1.358 . S
C347 C346 1.429 . S
C347 H357 0.930 . S
C348 C344 1.332 . S
C348 C349 1.394 . S
C348 H358 0.932 . S
C349 C345 1.308 . S
C349 C348 1.394 . S
C349 H359 0.929 . S
C350 Tb321 2.764 . S
C350 O334 1.239 . S
C350 O335 1.263 . S
C350 C344 1.504 . S
C351 O336 1.236 . S
C351 O337 1.257 . S
H352 C325 0.932 . S
H353 C326 0.930 . S
H354 C327 0.932 . S
H355 C328 0.929 . S
H356 C346 0.932 . S
H357 C347 0.930 . S
H358 C348 0.932 . S
H359 C349 0.929 . S
H360 C378 0.951 . S
H361 C380 0.951 . S
H362 C382 0.950 . S
H363 C383 0.950 . S
H364 C385 0.950 . S
H365 C388 0.950 . S
H366 C389 0.950 . S
H367 C391 0.950 . S
H368 C392 0.950 . S
H369 C393 0.951 . S
H370 C395 0.951 . S
H371 C397 0.950 . S
H372 C398 0.950 . S
H373 C400 0.950 . S
H374 C403 0.950 . S
H375 C404 0.950 . S
H376 C406 0.950 . S
H377 C407 0.950 . S
C378 H360 0.951 . S
C378 C379 1.366 1_554 S
C378 C380 1.388 . S
C379 C378 1.366 1_556 S
C379 C383 1.385 . S
C380 H361 0.951 . S
C380 C378 1.388 . S
C380 C381 1.366 1_554 S
C381 C380 1.366 1_556 S
C381 C382 1.414 . S
C381 C384 1.499 . S
C382 H362 0.950 . S
C382 C381 1.414 . S
C382 C383 1.374 . S
C383 H363 0.950 . S
C383 C379 1.385 . S
C383 C382 1.374 . S
C384 C381 1.499 . S
C384 C385 1.373 1_556 S
C384 C386 1.389 . S
C385 H364 0.950 . S
C385 C384 1.373 1_554 S
C385 C401 1.377 . S
C386 C384 1.389 . S
C386 C387 1.524 . S
C386 C400 1.377 . S
C387 C386 1.524 . S
C387 C388 1.397 . S
C387 C392 1.363 . S
C388 H365 0.950 . S
C388 C387 1.397 . S
C388 C389 1.334 . S
C389 H366 0.950 . S
C389 C388 1.334 . S
C389 C390 1.287 . S
C390 C389 1.287 . S
C390 C391 1.524 . S
C390 H409 0.913 . S
C391 H367 0.950 . S
C391 C390 1.524 . S
C391 C392 1.415 . S
C392 H368 0.950 . S
C392 C387 1.363 . S
C392 C391 1.415 . S
C393 H369 0.951 . S
C393 C394 1.366 1_556 S
C393 C395 1.388 . S
C394 C393 1.366 1_554 S
C394 C398 1.385 . S
C395 H370 0.951 . S
C395 C393 1.388 . S
C395 C396 1.366 1_556 S
C396 C395 1.366 1_554 S
C396 C397 1.414 . S
C396 C399 1.499 . S
C397 H371 0.950 . S
C397 C396 1.414 . S
C397 C398 1.374 . S
C398 H372 0.950 . S
C398 C394 1.385 . S
C398 C397 1.374 . S
C399 C396 1.499 . S
C399 C400 1.367 1_554 S
C399 C401 1.394 . S
C400 H373 0.950 . S
C400 C386 1.377 . S
C400 C399 1.367 1_556 S
C401 C385 1.377 . S
C401 C399 1.394 . S
C401 C402 1.524 . S
C402 C401 1.524 . S
C402 C403 1.397 . S
C402 C407 1.363 . S
C403 H374 0.950 . S
C403 C402 1.397 . S
C403 C404 1.334 . S
C404 H375 0.950 . S
C404 C403 1.334 . S
C404 C405 1.287 . S
C405 C404 1.287 . S
C405 C406 1.524 . S
C405 H408 0.999 . S
C406 H376 0.950 . S
C406 C405 1.524 . S
C406 C407 1.415 . S
C407 H377 0.950 . S
C407 C402 1.363 . S
C407 C406 1.415 . S
H408 C405 0.999 . S
H409 C390 0.913 . S
H410 C428 0.951 . S
H411 C430 0.951 . S
H412 C432 0.950 . S
H413 C433 0.950 . S
H414 C435 0.950 . S
H415 C438 0.950 . S
H416 C439 0.950 . S
H417 C441 0.950 . S
H418 C442 0.950 . S
H419 C443 0.951 . S
H420 C445 0.951 . S
H421 C447 0.950 . S
H422 C448 0.950 . S
H423 C450 0.950 . S
H424 C453 0.950 . S
H425 C454 0.950 . S
H426 C456 0.950 . S
H427 C457 0.950 . S
C428 H410 0.951 . S
C428 C429 1.366 1_556 S
C428 C430 1.388 . S
C429 C428 1.366 1_554 S
C429 C433 1.385 . S
C430 H411 0.951 . S
C430 C428 1.388 . S
C430 C431 1.366 1_556 S
C431 C430 1.366 1_554 S
C431 C432 1.414 . S
C431 C434 1.499 . S
C432 H412 0.950 . S
C432 C431 1.414 . S
C432 C433 1.374 . S
C433 H413 0.950 . S
C433 C429 1.385 . S
C433 C432 1.374 . S
C434 C431 1.499 . S
C434 C435 1.410 . S
C434 C436 1.354 1_554 S
C435 H414 0.950 . S
C435 C434 1.410 . S
C435 C451 1.377 . S
C436 C434 1.354 1_556 S
C436 C437 1.524 . S
C436 C450 1.377 . S
C437 C436 1.524 . S
C437 C438 1.397 . S
C437 C442 1.363 . S
C438 H415 0.950 . S
C438 C437 1.397 . S
C438 C439 1.334 . S
C439 H416 0.950 . S
C439 C438 1.334 . S
C439 C440 1.287 . S
C440 C439 1.287 . S
C440 C441 1.524 . S
C440 H459 0.913 . S
C441 H417 0.950 . S
C441 C440 1.524 . S
C441 C442 1.415 . S
C442 H418 0.950 . S
C442 C437 1.363 . S
C442 C441 1.415 . S
C443 H419 0.951 . S
C443 C444 1.357 1_554 S
C443 C445 1.388 . S
C444 C443 1.357 1_556 S
C444 C448 1.393 . S
C445 H420 0.951 . S
C445 C443 1.388 . S
C445 C446 1.366 . S
C446 C445 1.366 . S
C446 C447 1.414 1_554 S
C446 C449 1.499 . S
C447 H421 0.950 . S
C447 C446 1.414 1_556 S
C447 C448 1.374 . S
C448 H422 0.950 . S
C448 C444 1.393 . S
C448 C447 1.374 . S
C449 C446 1.499 . S
C449 C450 1.373 1_554 S
C449 C451 1.389 . S
C450 H423 0.950 . S
C450 C436 1.377 . S
C450 C449 1.373 1_556 S
C451 C435 1.377 . S
C451 C449 1.389 . S
C451 C452 1.524 . S
C452 C451 1.524 . S
C452 C453 1.397 . S
C452 C457 1.363 . S
C453 H424 0.950 . S
C453 C452 1.397 . S
C453 C454 1.334 . S
C454 H425 0.950 . S
C454 C453 1.334 . S
C454 C455 1.287 . S
C455 C454 1.287 . S
C455 C456 1.524 . S
C455 H458 0.999 . S
C456 H426 0.950 . S
C456 C455 1.524 . S
C456 C457 1.415 . S
C457 H427 0.950 . S
C457 C452 1.363 . S
C457 C456 1.415 . S
H458 C455 0.999 . S
H459 C440 0.913 . S
H460 C478 0.951 . S
H461 C480 0.951 . S
H462 C482 0.950 . S
H463 C483 0.950 . S
H464 C485 0.950 . S
H465 C488 0.950 . S
H466 C489 0.950 . S
H467 C491 0.950 . S
H468 C492 0.952 1_556 S
H469 C493 0.951 . S
H470 C495 0.951 . S
H471 C497 0.950 . S
H472 C498 0.950 . S
H473 C500 0.950 . S
H474 C503 0.950 . S
H475 C504 0.950 . S
H476 C506 0.950 . S
H477 C507 0.950 1_554 S
C478 H460 0.951 . S
C478 C479 1.366 1_556 S
C478 C480 1.388 . S
C479 C478 1.366 1_554 S
C479 C483 1.385 . S
C480 H461 0.951 . S
C480 C478 1.388 . S
C480 C481 1.366 1_556 S
C481 C480 1.366 1_554 S
C481 C482 1.414 . S
C481 C484 1.499 . S
C482 H462 0.950 . S
C482 C481 1.414 . S
C482 C483 1.374 . S
C483 H463 0.950 . S
C483 C479 1.385 . S
C483 C482 1.374 . S
C484 C481 1.499 . S
C484 C485 1.373 1_554 S
C484 C486 1.389 . S
C485 H464 0.950 . S
C485 C484 1.373 1_556 S
C485 C501 1.377 . S
C486 C484 1.389 . S
C486 C487 1.524 . S
C486 C500 1.377 . S
C487 C486 1.524 . S
C487 C488 1.397 . S
C487 C492 1.363 . S
C488 H465 0.950 . S
C488 C487 1.397 . S
C488 C489 1.334 . S
C489 H466 0.950 . S
C489 C488 1.334 . S
C489 C490 1.287 . S
C490 C489 1.287 . S
C490 C491 1.524 . S
C490 H509 0.913 . S
C491 H467 0.950 . S
C491 C490 1.524 . S
C491 C492 1.415 . S
C492 H468 0.952 1_554 S
C492 C487 1.363 . S
C492 C491 1.415 . S
C493 H469 0.951 . S
C493 C494 1.366 . S
C493 C495 1.388 . S
C494 C493 1.366 . S
C494 C498 1.385 1_554 S
C495 H470 0.951 . S
C495 C493 1.388 . S
C495 C496 1.366 . S
C496 C495 1.366 . S
C496 C497 1.414 1_554 S
C496 C499 1.499 . S
C497 H471 0.950 . S
C497 C496 1.414 1_556 S
C497 C498 1.374 . S
C498 H472 0.950 . S
C498 C494 1.385 1_556 S
C498 C497 1.374 . S
C499 C496 1.499 . S
C499 C500 1.373 . S
C499 C501 1.389 1_554 S
C500 H473 0.950 . S
C500 C486 1.377 . S
C500 C499 1.373 . S
C501 C485 1.377 . S
C501 C499 1.389 1_556 S
C501 C502 1.524 . S
C502 C501 1.524 . S
C502 C503 1.397 . S
C502 C507 1.363 . S
C503 H474 0.950 . S
C503 C502 1.397 . S
C503 C504 1.334 . S
C504 H475 0.950 . S
C504 C503 1.334 . S
C504 C505 1.287 . S
C505 C504 1.287 . S
C505 C506 1.524 . S
C505 H508 0.999 . S
C506 H476 0.950 . S
C506 C505 1.524 . S
C506 C507 1.415 . S
C507 H477 0.950 1_556 S
C507 C502 1.363 . S
C507 C506 1.415 . S
H508 C505 0.999 . S
H509 C490 0.913 . S
H510 C528 0.951 . S
H511 C530 0.951 . S
H512 C532 0.950 . S
H513 C533 0.950 . S
H514 C535 0.949 1_556 S
H515 C538 0.950 . S
H516 C539 0.950 . S
H517 C541 0.950 . S
H518 C542 0.950 1_556 S
H519 C543 0.951 . S
H520 C545 0.951 . S
H521 C547 0.950 . S
H522 C548 0.950 . S
H523 C550 0.950 . S
H524 C553 0.950 . S
H525 C554 0.950 . S
H526 C556 0.934 1_554 S
H527 C557 0.950 . S
C528 H510 0.951 . S
C528 C529 1.366 1_556 S
C528 C530 1.388 . S
C529 C528 1.366 1_554 S
C529 C533 1.385 . S
C530 H511 0.951 . S
C530 C528 1.388 . S
C530 C531 1.366 1_556 S
C531 C530 1.366 1_554 S
C531 C532 1.414 . S
C531 C534 1.499 . S
C532 H512 0.950 . S
C532 C531 1.414 . S
C532 C533 1.374 . S
C533 H513 0.950 . S
C533 C529 1.385 . S
C533 C532 1.374 . S
C534 C531 1.499 . S
C534 C535 1.373 . S
C534 C536 1.389 . S
C535 H514 0.949 1_554 S
C535 C534 1.373 . S
C535 C551 1.377 1_554 S
C536 C534 1.389 . S
C536 C537 1.524 . S
C536 C550 1.377 . S
C537 C536 1.524 . S
C537 C538 1.397 . S
C537 C542 1.363 . S
C538 H515 0.950 . S
C538 C537 1.397 . S
C538 C539 1.334 . S
C539 H516 0.950 . S
C539 C538 1.334 . S
C539 C540 1.287 . S
C540 C539 1.287 . S
C540 C541 1.524 . S
C540 H559 0.913 . S
C541 H517 0.950 . S
C541 C540 1.524 . S
C541 C542 1.415 . S
C542 H518 0.950 1_554 S
C542 C537 1.363 . S
C542 C541 1.415 . S
C543 H519 0.951 . S
C543 C544 1.366 . S
C543 C545 1.388 . S
C544 C543 1.366 . S
C544 C548 1.385 1_554 S
C545 H520 0.951 . S
C545 C543 1.388 . S
C545 C546 1.366 . S
C546 C545 1.366 . S
C546 C547 1.414 1_554 S
C546 C549 1.499 . S
C547 H521 0.950 . S
C547 C546 1.414 1_556 S
C547 C548 1.374 . S
C548 H522 0.950 . S
C548 C544 1.385 1_556 S
C548 C547 1.374 . S
C549 C546 1.499 . S
C549 C550 1.373 . S
C549 C551 1.390 1_554 S
C550 H523 0.950 . S
C550 C536 1.377 . S
C550 C549 1.373 . S
C551 C535 1.377 1_556 S
C551 C549 1.390 1_556 S
C551 C552 1.523 . S
C552 C551 1.523 . S
C552 C553 1.397 . S
C552 C557 1.363 1_556 S
C553 H524 0.950 . S
C553 C552 1.397 . S
C553 C554 1.334 . S
C554 H525 0.950 . S
C554 C553 1.334 . S
C554 C555 1.287 . S
C555 C554 1.287 . S
C555 C556 1.524 . S
C555 H558 0.999 . S
C556 H526 0.934 1_556 S
C556 C555 1.524 . S
C556 C557 1.415 1_556 S
C557 H527 0.950 . S
C557 C552 1.363 1_554 S
C557 C556 1.415 1_554 S
H558 C555 0.999 . S
H559 C540 0.913 . S
H560 C578 0.951 1_556 S
H561 C580 0.951 1_556 S
H562 C582 0.950 . S
H563 C583 0.950 . S
H564 C585 0.950 . S
H565 C588 0.950 . S
H566 C589 0.950 . S
H567 C591 0.950 . S
H568 C592 0.950 . S
H569 C593 0.951 . S
H570 C595 0.951 . S
H571 C597 0.950 1_556 S
H572 C598 0.950 1_556 S
H573 C600 0.950 . S
H574 C603 0.950 . S
H575 C604 0.950 . S
H576 C606 0.950 . S
H577 C607 0.950 . S
C578 H560 0.951 1_554 S
C578 C579 1.366 . S
C578 C580 1.388 . S
C579 C578 1.366 . S
C579 C583 1.385 . S
C580 H561 0.951 1_554 S
C580 C578 1.388 . S
C580 C581 1.366 . S
C581 C580 1.366 . S
C581 C582 1.414 . S
C581 C584 1.499 . S
C582 H562 0.950 . S
C582 C581 1.414 . S
C582 C583 1.374 . S
C583 H563 0.950 . S
C583 C579 1.385 . S
C583 C582 1.374 . S
C584 C581 1.499 . S
C584 C585 1.373 . S
C584 C586 1.389 1_554 S
C585 H564 0.950 . S
C585 C584 1.373 . S
C585 C601 1.377 . S
C586 C584 1.389 1_556 S
C586 C587 1.524 . S
C586 C600 1.377 . S
C587 C586 1.524 . S
C587 C588 1.397 . S
C587 C592 1.363 . S
C588 H565 0.950 . S
C588 C587 1.397 . S
C588 C589 1.334 . S
C589 H566 0.950 . S
C589 C588 1.334 . S
C589 C590 1.287 . S
C590 C589 1.287 . S
C590 C591 1.524 . S
C590 H609 0.913 . S
C591 H567 0.950 . S
C591 C590 1.524 . S
C591 C592 1.415 . S
C592 H568 0.950 . S
C592 C587 1.363 . S
C592 C591 1.415 . S
C593 H569 0.951 . S
C593 C594 1.366 . S
C593 C595 1.388 . S
C594 C593 1.366 . S
C594 C598 1.385 . S
C595 H570 0.951 . S
C595 C593 1.388 . S
C595 C596 1.366 . S
C596 C595 1.366 . S
C596 C597 1.414 . S
C596 C599 1.499 . S
C597 H571 0.950 1_554 S
C597 C596 1.414 . S
C597 C598 1.374 . S
C598 H572 0.950 1_554 S
C598 C594 1.385 . S
C598 C597 1.374 . S
C599 C596 1.499 . S
C599 C600 1.373 1_554 S
C599 C601 1.389 . S
C600 H573 0.950 . S
C600 C586 1.377 . S
C600 C599 1.373 1_556 S
C601 C585 1.377 . S
C601 C599 1.389 . S
C601 C602 1.524 . S
C602 C601 1.524 . S
C602 C603 1.397 . S
C602 C607 1.363 . S
C603 H574 0.950 . S
C603 C602 1.397 . S
C603 C604 1.334 . S
C604 H575 0.950 . S
C604 C603 1.334 . S
C604 C605 1.287 . S
C605 C604 1.287 . S
C605 C606 1.524 . S
C605 H608 0.999 . S
C606 H576 0.950 . S
C606 C605 1.524 . S
C606 C607 1.415 . S
C607 H577 0.950 . S
C607 C602 1.363 . S
C607 C606 1.415 . S
H608 C605 0.999 . S
H609 C590 0.913 . S
H610 C628 0.951 . S
H611 C630 0.951 . S
H612 C632 0.950 . S
H613 C633 0.950 . S
H614 C635 0.950 . S
H615 C638 0.950 . S
H616 C639 0.929 1_554 S
H617 C641 0.950 . S
H618 C642 0.950 . S
H619 C643 0.951 . S
H620 C645 0.951 . S
H621 C647 0.950 . S
H622 C648 0.950 . S
H623 C650 0.950 . S
H624 C653 0.950 1_556 S
H625 C654 0.950 . S
H626 C656 0.950 . S
H627 C657 0.950 . S
C628 H610 0.951 . S
C628 C629 1.366 1_556 S
C628 C630 1.388 . S
C629 C628 1.366 1_554 S
C629 C633 1.385 . S
C630 H611 0.951 . S
C630 C628 1.388 . S
C630 C631 1.366 1_556 S
C631 C630 1.366 1_554 S
C631 C632 1.414 . S
C631 C634 1.499 . S
C632 H612 0.950 . S
C632 C631 1.414 . S
C632 C633 1.374 . S
C633 H613 0.950 . S
C633 C629 1.385 . S
C633 C632 1.374 . S
C634 C631 1.499 . S
C634 C635 1.373 . S
C634 C636 1.394 . S
C635 H614 0.950 . S
C635 C634 1.373 . S
C635 C651 1.377 . S
C636 C634 1.394 . S
C636 C637 1.520 1_554 S
C636 C650 1.376 1_554 S
C637 C636 1.520 1_556 S
C637 C638 1.397 1_556 S
C637 C642 1.363 . S
C638 H615 0.950 . S
C638 C637 1.397 1_554 S
C638 C639 1.323 1_554 S
C639 H616 0.929 1_556 S
C639 C638 1.323 1_556 S
C639 C640 1.321 . S
C640 C639 1.321 . S
C640 C641 1.524 . S
C640 H659 0.913 . S
C641 H617 0.950 . S
C641 C640 1.524 . S
C641 C642 1.415 . S
C642 H618 0.950 . S
C642 C637 1.363 . S
C642 C641 1.415 . S
C643 H619 0.951 . S
C643 C644 1.366 . S
C643 C645 1.388 . S
C644 C643 1.366 . S
C644 C648 1.385 1_554 S
C645 H620 0.951 . S
C645 C643 1.388 . S
C645 C646 1.366 . S
C646 C645 1.366 . S
C646 C647 1.414 1_554 S
C646 C649 1.499 . S
C647 H621 0.950 . S
C647 C646 1.414 1_556 S
C647 C648 1.374 . S
C648 H622 0.950 . S
C648 C644 1.385 1_556 S
C648 C647 1.374 . S
C649 C646 1.499 . S
C649 C650 1.373 1_554 S
C649 C651 1.389 . S
C650 H623 0.950 . S
C650 C636 1.376 1_556 S
C650 C649 1.373 1_556 S
C651 C635 1.377 . S
C651 C649 1.389 . S
C651 C652 1.524 . S
C652 C651 1.524 . S
C652 C653 1.397 . S
C652 C657 1.363 . S
C653 H624 0.950 1_554 S
C653 C652 1.397 . S
C653 C654 1.334 . S
C654 H625 0.950 . S
C654 C653 1.334 . S
C654 C655 1.287 . S
C655 C654 1.287 . S
C655 C656 1.524 . S
C655 H658 0.999 . S
C656 H626 0.950 . S
C656 C655 1.524 . S
C656 C657 1.415 . S
C657 H627 0.950 . S
C657 C652 1.363 . S
C657 C656 1.415 . S
H658 C655 0.999 . S
H659 C640 0.913 . S
H660 C678 0.951 . S
H661 C680 0.951 . S
H662 C682 0.950 . S
H663 C683 0.950 . S
H664 C685 0.950 . S
H665 C688 0.950 . S
H666 C689 0.950 . S
H667 C691 0.948 . S
H668 C692 0.950 1_455 S
H669 C693 0.951 . S
H670 C695 0.951 . S
H671 C697 0.950 . S
H672 C698 0.950 . S
H673 C700 0.950 . S
H674 C703 0.950 . S
H675 C704 0.950 . S
H676 C706 0.954 1_655 S
H677 C707 0.950 . S
C678 H660 0.951 . S
C678 C679 1.366 . S
C678 C680 1.388 . S
C679 C678 1.366 . S
C679 C683 1.385 . S
C680 H661 0.951 . S
C680 C678 1.388 . S
C680 C681 1.366 . S
C681 C680 1.366 . S
C681 C682 1.414 . S
C681 C684 1.499 . S
C682 H662 0.950 . S
C682 C681 1.414 . S
C682 C683 1.374 . S
C683 H663 0.950 . S
C683 C679 1.385 . S
C683 C682 1.374 . S
C684 C681 1.499 . S
C684 C685 1.373 . S
C684 C686 1.389 . S
C685 H664 0.950 . S
C685 C684 1.373 . S
C685 C701 1.377 1_655 S
C686 C684 1.389 . S
C686 C687 1.524 . S
C686 C700 1.377 1_655 S
C687 C686 1.524 . S
C687 C688 1.397 . S
C687 C692 1.363 . S
C688 H665 0.950 . S
C688 C687 1.397 . S
C688 C689 1.334 . S
C689 H666 0.950 . S
C689 C688 1.334 . S
C689 C690 1.287 . S
C690 C689 1.287 . S
C690 C691 1.524 . S
C690 H709 0.913 . S
C691 H667 0.948 . S
C691 C690 1.524 . S
C691 C692 1.415 . S
C692 H668 0.950 1_655 S
C692 C687 1.363 . S
C692 C691 1.415 . S
C693 H669 0.951 . S
C693 C694 1.366 . S
C693 C695 1.388 . S
C694 C693 1.366 . S
C694 C698 1.385 . S
C695 H670 0.951 . S
C695 C693 1.388 . S
C695 C696 1.366 . S
C696 C695 1.366 . S
C696 C697 1.414 . S
C696 C699 1.499 . S
C697 H671 0.950 . S
C697 C696 1.414 . S
C697 C698 1.374 . S
C698 H672 0.950 . S
C698 C694 1.385 . S
C698 C697 1.374 . S
C699 C696 1.499 . S
C699 C700 1.373 . S
C699 C701 1.389 . S
C700 H673 0.950 . S
C700 C686 1.377 1_455 S
C700 C699 1.373 . S
C701 C685 1.377 1_455 S
C701 C699 1.389 . S
C701 C702 1.524 . S
C702 C701 1.524 . S
C702 C703 1.397 . S
C702 C707 1.363 1_455 S
C703 H674 0.950 . S
C703 C702 1.397 . S
C703 C704 1.334 . S
C704 H675 0.950 . S
C704 C703 1.334 . S
C704 C705 1.287 . S
C705 C704 1.287 . S
C705 C706 1.544 . S
C705 H708 0.999 . S
C706 H676 0.954 1_455 S
C706 C705 1.544 . S
C706 C707 1.391 1_455 S
C707 H677 0.950 . S
C707 C702 1.363 1_655 S
C707 C706 1.391 1_655 S
H708 C705 0.999 . S
H709 C690 0.913 . S
H710 C728 0.951 . S
H711 C730 0.951 . S
H712 C732 0.950 . S
H713 C733 0.950 . S
H714 C735 0.950 . S
H715 C738 0.950 . S
H716 C739 0.950 . S
H717 C741 0.950 . S
H718 C742 0.950 . S
H719 C743 0.951 . S
H720 C745 0.951 . S
H721 C747 0.950 . S
H722 C748 0.950 . S
H723 C750 0.950 . S
H724 C753 0.950 . S
H725 C754 0.950 . S
H726 C756 0.950 . S
H727 C757 0.950 . S
C728 H710 0.951 . S
C728 C729 1.366 . S
C728 C730 1.388 . S
C729 C728 1.366 . S
C729 C733 1.385 . S
C730 H711 0.951 . S
C730 C728 1.388 . S
C730 C731 1.366 . S
C731 C730 1.366 . S
C731 C732 1.414 . S
C731 C734 1.499 . S
C732 H712 0.950 . S
C732 C731 1.414 . S
C732 C733 1.374 . S
C733 H713 0.950 . S
C733 C729 1.385 . S
C733 C732 1.374 . S
C734 C731 1.499 . S
C734 C735 1.373 . S
C734 C736 1.389 . S
C735 H714 0.950 . S
C735 C734 1.373 . S
C735 C751 1.377 . S
C736 C734 1.389 . S
C736 C737 1.524 . S
C736 C750 1.377 . S
C737 C736 1.524 . S
C737 C738 1.397 . S
C737 C742 1.363 . S
C738 H715 0.950 . S
C738 C737 1.397 . S
C738 C739 1.334 . S
C739 H716 0.950 . S
C739 C738 1.334 . S
C739 C740 1.287 . S
C740 C739 1.287 . S
C740 C741 1.524 . S
C740 H759 0.913 . S
C741 H717 0.950 . S
C741 C740 1.524 . S
C741 C742 1.415 . S
C742 H718 0.950 . S
C742 C737 1.363 . S
C742 C741 1.415 . S
C743 H719 0.951 . S
C743 C744 1.366 . S
C743 C745 1.388 . S
C744 C743 1.366 . S
C744 C748 1.385 . S
C745 H720 0.951 . S
C745 C743 1.388 . S
C745 C746 1.366 . S
C746 C745 1.366 . S
C746 C747 1.414 . S
C746 C749 1.499 . S
C747 H721 0.950 . S
C747 C746 1.414 . S
C747 C748 1.374 . S
C748 H722 0.950 . S
C748 C744 1.385 . S
C748 C747 1.374 . S
C749 C746 1.499 . S
C749 C750 1.373 . S
C749 C751 1.389 . S
C750 H723 0.950 . S
C750 C736 1.377 . S
C750 C749 1.373 . S
C751 C735 1.377 . S
C751 C749 1.389 . S
C751 C752 1.524 . S
C752 C751 1.524 . S
C752 C753 1.397 . S
C752 C757 1.363 . S
C753 H724 0.950 . S
C753 C752 1.397 . S
C753 C754 1.334 . S
C754 H725 0.950 . S
C754 C753 1.334 . S
C754 C755 1.287 . S
C755 C754 1.287 . S
C755 C756 1.524 . S
C755 H758 0.999 . S
C756 H726 0.950 . S
C756 C755 1.524 . S
C756 C757 1.415 . S
C757 H727 0.950 . S
C757 C752 1.363 . S
C757 C756 1.415 . S
H758 C755 0.999 . S
H759 C740 0.913 . S
H760 C778 0.951 . S
H761 C780 0.951 . S
H762 C782 0.950 . S
H763 C783 0.950 . S
H764 C785 0.950 . S
H765 C788 0.950 . S
H766 C789 0.950 . S
H767 C791 0.950 . S
H768 C792 0.950 . S
H769 C793 0.951 . S
H770 C795 0.951 . S
H771 C797 0.950 . S
H772 C798 0.950 . S
H773 C800 0.950 . S
H774 C803 0.950 . S
H775 C804 0.950 . S
H776 C806 0.950 . S
H777 C807 0.950 . S
C778 H760 0.951 . S
C778 C779 1.366 . S
C778 C780 1.388 . S
C779 C778 1.366 . S
C779 C783 1.385 . S
C780 H761 0.951 . S
C780 C778 1.388 . S
C780 C781 1.366 . S
C781 C780 1.366 . S
C781 C782 1.414 . S
C781 C784 1.499 . S
C782 H762 0.950 . S
C782 C781 1.414 . S
C782 C783 1.374 . S
C783 H763 0.950 . S
C783 C779 1.385 . S
C783 C782 1.374 . S
C784 C781 1.499 . S
C784 C785 1.373 . S
C784 C786 1.389 . S
C785 H764 0.950 . S
C785 C784 1.373 . S
C785 C801 1.377 1_545 S
C786 C784 1.389 . S
C786 C787 1.524 . S
C786 C800 1.377 1_545 S
C787 C786 1.524 . S
C787 C788 1.397 . S
C787 C792 1.363 . S
C788 H765 0.950 . S
C788 C787 1.397 . S
C788 C789 1.334 . S
C789 H766 0.950 . S
C789 C788 1.334 . S
C789 C790 1.287 . S
C790 C789 1.287 . S
C790 C791 1.524 . S
C790 H809 0.913 . S
C791 H767 0.950 . S
C791 C790 1.524 . S
C791 C792 1.415 . S
C792 H768 0.950 . S
C792 C787 1.363 . S
C792 C791 1.415 . S
C793 H769 0.951 . S
C793 C794 1.366 . S
C793 C795 1.388 . S
C794 C793 1.366 . S
C794 C798 1.385 . S
C795 H770 0.951 . S
C795 C793 1.388 . S
C795 C796 1.366 . S
C796 C795 1.366 . S
C796 C797 1.414 . S
C796 C799 1.499 . S
C797 H771 0.950 . S
C797 C796 1.414 . S
C797 C798 1.374 . S
C798 H772 0.950 . S
C798 C794 1.385 . S
C798 C797 1.374 . S
C799 C796 1.499 . S
C799 C800 1.373 . S
C799 C801 1.389 . S
C800 H773 0.950 . S
C800 C786 1.377 1_565 S
C800 C799 1.373 . S
C801 C785 1.377 1_565 S
C801 C799 1.389 . S
C801 C802 1.524 . S
C802 C801 1.524 . S
C802 C803 1.397 . S
C802 C807 1.363 . S
C803 H774 0.950 . S
C803 C802 1.397 . S
C803 C804 1.334 . S
C804 H775 0.950 . S
C804 C803 1.334 . S
C804 C805 1.287 . S
C805 C804 1.287 . S
C805 C806 1.524 . S
C805 H808 0.999 . S
C806 H776 0.950 . S
C806 C805 1.524 . S
C806 C807 1.415 . S
C807 H777 0.950 . S
C807 C802 1.363 . S
C807 C806 1.415 . S
H808 C805 0.999 . S
H809 C790 0.913 . S
H810 C828 0.951 . S
H811 C830 0.951 . S
H812 C832 0.950 . S
H813 C833 0.950 . S
H814 C835 0.950 . S
H815 C838 0.950 . S
H816 C839 0.950 . S
H817 C841 0.950 . S
H818 C842 0.950 . S
H819 C843 0.951 . S
H820 C845 0.951 . S
H821 C847 0.950 . S
H822 C848 0.950 . S
H823 C850 0.950 . S
H824 C853 0.950 . S
H825 C854 0.950 . S
H826 C856 0.950 . S
H827 C857 0.950 . S
C828 H810 0.951 . S
C828 C829 1.366 . S
C828 C830 1.388 . S
C829 C828 1.366 . S
C829 C833 1.385 . S
C830 H811 0.951 . S
C830 C828 1.388 . S
C830 C831 1.366 . S
C831 C830 1.366 . S
C831 C832 1.414 . S
C831 C834 1.499 . S
C832 H812 0.950 . S
C832 C831 1.414 . S
C832 C833 1.374 . S
C833 H813 0.950 . S
C833 C829 1.385 . S
C833 C832 1.374 . S
C834 C831 1.499 . S
C834 C835 1.373 . S
C834 C836 1.389 . S
C835 H814 0.950 . S
C835 C834 1.373 . S
C835 C851 1.377 . S
C836 C834 1.389 . S
C836 C837 1.524 . S
C836 C850 1.377 . S
C837 C836 1.524 . S
C837 C838 1.397 . S
C837 C842 1.363 . S
C838 H815 0.950 . S
C838 C837 1.397 . S
C838 C839 1.334 . S
C839 H816 0.950 . S
C839 C838 1.334 . S
C839 C840 1.287 . S
C840 C839 1.287 . S
C840 C841 1.524 . S
C840 H859 0.913 . S
C841 H817 0.950 . S
C841 C840 1.524 . S
C841 C842 1.415 . S
C842 H818 0.950 . S
C842 C837 1.363 . S
C842 C841 1.415 . S
C843 H819 0.951 . S
C843 C844 1.366 . S
C843 C845 1.388 . S
C844 C843 1.366 . S
C844 C848 1.385 . S
C845 H820 0.951 . S
C845 C843 1.388 . S
C845 C846 1.366 . S
C846 C845 1.366 . S
C846 C847 1.414 . S
C846 C849 1.499 . S
C847 H821 0.950 . S
C847 C846 1.414 . S
C847 C848 1.374 . S
C848 H822 0.950 . S
C848 C844 1.385 . S
C848 C847 1.374 . S
C849 C846 1.499 . S
C849 C850 1.373 . S
C849 C851 1.389 . S
C850 H823 0.950 . S
C850 C836 1.377 . S
C850 C849 1.373 . S
C851 C835 1.377 . S
C851 C849 1.389 . S
C851 C852 1.524 . S
C852 C851 1.524 . S
C852 C853 1.397 . S
C852 C857 1.363 . S
C853 H824 0.950 . S
C853 C852 1.397 . S
C853 C854 1.334 . S
C854 H825 0.950 . S
C854 C853 1.334 . S
C854 C855 1.287 . S
C855 C854 1.287 . S
C855 C856 1.524 . S
C855 H858 0.999 . S
C856 H826 0.950 . S
C856 C855 1.524 . S
C856 C857 1.415 . S
C857 H827 0.950 . S
C857 C852 1.363 . S
C857 C856 1.415 . S
H858 C855 0.999 . S
H859 C840 0.913 . S
H860 C878 0.951 . S
H861 C880 0.951 . S
H862 C882 0.950 . S
H863 C883 0.950 . S
H864 C885 0.950 . S
H865 C888 0.950 . S
H866 C889 0.950 . S
H867 C891 0.950 . S
H868 C892 0.950 . S
H869 C893 0.951 . S
H870 C895 0.951 . S
H871 C897 0.950 . S
H872 C898 0.950 . S
H873 C900 0.950 . S
H874 C903 0.950 . S
H875 C904 0.950 . S
H876 C906 0.950 . S
H877 C907 0.950 . S
C878 H860 0.951 . S
C878 C879 1.366 . S
C878 C880 1.388 . S
C879 C878 1.366 . S
C879 C883 1.385 . S
C880 H861 0.951 . S
C880 C878 1.388 . S
C880 C881 1.366 . S
C881 C880 1.366 . S
C881 C882 1.414 . S
C881 C884 1.499 . S
C882 H862 0.950 . S
C882 C881 1.414 . S
C882 C883 1.374 . S
C883 H863 0.950 . S
C883 C879 1.385 . S
C883 C882 1.374 . S
C884 C881 1.499 . S
C884 C885 1.373 . S
C884 C886 1.389 . S
C885 H864 0.950 . S
C885 C884 1.373 . S
C885 C901 1.377 . S
C886 C884 1.389 . S
C886 C887 1.524 . S
C886 C900 1.377 . S
C887 C886 1.524 . S
C887 C888 1.397 . S
C887 C892 1.363 . S
C888 H865 0.950 . S
C888 C887 1.397 . S
C888 C889 1.334 . S
C889 H866 0.950 . S
C889 C888 1.334 . S
C889 C890 1.287 . S
C890 C889 1.287 . S
C890 C891 1.524 . S
C890 H909 0.913 . S
C891 H867 0.950 . S
C891 C890 1.524 . S
C891 C892 1.415 . S
C892 H868 0.950 . S
C892 C887 1.363 . S
C892 C891 1.415 . S
C893 H869 0.951 . S
C893 C894 1.366 . S
C893 C895 1.388 . S
C894 C893 1.366 . S
C894 C898 1.385 . S
C895 H870 0.951 . S
C895 C893 1.388 . S
C895 C896 1.366 . S
C896 C895 1.366 . S
C896 C897 1.414 . S
C896 C899 1.499 . S
C897 H871 0.950 . S
C897 C896 1.414 . S
C897 C898 1.374 . S
C898 H872 0.950 . S
C898 C894 1.385 . S
C898 C897 1.374 . S
C899 C896 1.499 . S
C899 C900 1.373 . S
C899 C901 1.389 . S
C900 H873 0.950 . S
C900 C886 1.377 . S
C900 C899 1.373 . S
C901 C885 1.377 . S
C901 C899 1.389 . S
C901 C902 1.524 . S
C902 C901 1.524 . S
C902 C903 1.397 . S
C902 C907 1.363 . S
C903 H874 0.950 . S
C903 C902 1.397 . S
C903 C904 1.334 . S
C904 H875 0.950 . S
C904 C903 1.334 . S
C904 C905 1.287 . S
C905 C904 1.287 . S
C905 C906 1.524 . S
C905 H908 0.999 . S
C906 H876 0.950 . S
C906 C905 1.524 . S
C906 C907 1.415 . S
C907 H877 0.950 . S
C907 C902 1.363 . S
C907 C906 1.415 . S
H908 C905 0.999 . S
H909 C890 0.913 . S
H910 C928 0.951 . S
H911 C930 0.951 . S
H912 C932 0.950 . S
H913 C933 0.950 . S
H914 C935 0.950 . S
H915 C938 0.950 . S
H916 C939 0.950 . S
H917 C941 0.950 . S
H918 C942 0.950 . S
H919 C943 0.951 . S
H920 C945 0.951 . S
H921 C947 0.950 . S
H922 C948 0.950 . S
H923 C950 0.950 . S
H924 C953 0.950 . S
H925 C954 0.950 . S
H926 C956 0.950 . S
H927 C957 0.950 . S
C928 H910 0.951 . S
C928 C929 1.366 . S
C928 C930 1.388 . S
C929 C928 1.366 . S
C929 C933 1.385 . S
C930 H911 0.951 . S
C930 C928 1.388 . S
C930 C931 1.366 . S
C931 C930 1.366 . S
C931 C932 1.414 . S
C931 C934 1.499 . S
C932 H912 0.950 . S
C932 C931 1.414 . S
C932 C933 1.374 . S
C933 H913 0.950 . S
C933 C929 1.385 . S
C933 C932 1.374 . S
C934 C931 1.499 . S
C934 C935 1.373 . S
C934 C936 1.389 . S
C935 H914 0.950 . S
C935 C934 1.373 . S
C935 C951 1.377 . S
C936 C934 1.389 . S
C936 C937 1.524 . S
C936 C950 1.377 . S
C937 C936 1.524 . S
C937 C938 1.397 . S
C937 C942 1.363 . S
C938 H915 0.950 . S
C938 C937 1.397 . S
C938 C939 1.334 . S
C939 H916 0.950 . S
C939 C938 1.334 . S
C939 C940 1.287 . S
C940 C939 1.287 . S
C940 C941 1.524 . S
C940 H959 0.913 . S
C941 H917 0.950 . S
C941 C940 1.524 . S
C941 C942 1.415 . S
C942 H918 0.950 . S
C942 C937 1.363 . S
C942 C941 1.415 . S
C943 H919 0.951 . S
C943 C944 1.366 . S
C943 C945 1.388 . S
C944 C943 1.366 . S
C944 C948 1.385 . S
C945 H920 0.951 . S
C945 C943 1.388 . S
C945 C946 1.366 . S
C946 C945 1.366 . S
C946 C947 1.414 . S
C946 C949 1.499 . S
C947 H921 0.950 . S
C947 C946 1.414 . S
C947 C948 1.374 . S
C948 H922 0.950 . S
C948 C944 1.385 . S
C948 C947 1.374 . S
C949 C946 1.499 . S
C949 C950 1.373 . S
C949 C951 1.389 . S
C950 H923 0.950 . S
C950 C936 1.377 . S
C950 C949 1.373 . S
C951 C935 1.377 . S
C951 C949 1.389 . S
C951 C952 1.524 . S
C952 C951 1.524 . S
C952 C953 1.397 . S
C952 C957 1.363 . S
C953 H924 0.950 . S
C953 C952 1.397 . S
C953 C954 1.334 . S
C954 H925 0.950 . S
C954 C953 1.334 . S
C954 C955 1.287 . S
C955 C954 1.287 . S
C955 C956 1.524 . S
C955 H958 0.999 . S
C956 H926 0.950 . S
C956 C955 1.524 . S
C956 C957 1.415 . S
C957 H927 0.950 . S
C957 C952 1.363 . S
C957 C956 1.415 . S
H958 C955 0.999 . S
H959 C940 0.913 . S
H960 C978 0.951 . S
H961 C980 0.951 . S
H962 C982 0.950 . S
H963 C983 0.950 . S
H964 C985 0.950 . S
H965 C988 0.950 . S
H966 C989 0.950 . S
H967 C991 0.950 . S
H968 C992 0.950 . S
H969 C993 0.951 . S
H970 C995 0.951 . S
H971 C997 0.950 . S
H972 C998 0.950 . S
H973 C1000 0.950 . S
H974 C1003 0.950 . S
H975 C1004 0.950 . S
H976 C1006 0.950 . S
H977 C1007 0.950 . S
C978 H960 0.951 . S
C978 C979 1.366 . S
C978 C980 1.388 . S
C979 C978 1.366 . S
C979 C983 1.385 . S
C980 H961 0.951 . S
C980 C978 1.388 . S
C980 C981 1.366 . S
C981 C980 1.366 . S
C981 C982 1.414 . S
C981 C984 1.499 . S
C982 H962 0.950 . S
C982 C981 1.414 . S
C982 C983 1.374 . S
C983 H963 0.950 . S
C983 C979 1.385 . S
C983 C982 1.374 . S
C984 C981 1.499 . S
C984 C985 1.373 . S
C984 C986 1.389 . S
C985 H964 0.950 . S
C985 C984 1.373 . S
C985 C1001 1.377 . S
C986 C984 1.389 . S
C986 C987 1.524 . S
C986 C1000 1.377 . S
C987 C986 1.524 . S
C987 C988 1.397 . S
C987 C992 1.363 . S
C988 H965 0.950 . S
C988 C987 1.397 . S
C988 C989 1.334 . S
C989 H966 0.950 . S
C989 C988 1.334 . S
C989 C990 1.287 . S
C990 C989 1.287 . S
C990 C991 1.524 . S
C990 H1009 0.913 . S
C991 H967 0.950 . S
C991 C990 1.524 . S
C991 C992 1.415 . S
C992 H968 0.950 . S
C992 C987 1.363 . S
C992 C991 1.415 . S
C993 H969 0.951 . S
C993 C994 1.366 . S
C993 C995 1.388 . S
C994 C993 1.366 . S
C994 C998 1.385 . S
C995 H970 0.951 . S
C995 C993 1.388 . S
C995 C996 1.366 . S
C996 C995 1.366 . S
C996 C997 1.414 . S
C996 C999 1.499 . S
C997 H971 0.950 . S
C997 C996 1.414 . S
C997 C998 1.374 . S
C998 H972 0.950 . S
C998 C994 1.385 . S
C998 C997 1.374 . S
C999 C996 1.499 . S
C999 C1000 1.373 . S
C999 C1001 1.389 . S
C1000 H973 0.950 . S
C1000 C986 1.377 . S
C1000 C999 1.373 . S
C1001 C985 1.377 . S
C1001 C999 1.389 . S
C1001 C1002 1.524 . S
C1002 C1001 1.524 . S
C1002 C1003 1.397 . S
C1002 C1007 1.363 . S
C1003 H974 0.950 . S
C1003 C1002 1.397 . S
C1003 C1004 1.334 . S
C1004 H975 0.950 . S
C1004 C1003 1.334 . S
C1004 C1005 1.287 . S
C1005 C1004 1.287 . S
C1005 C1006 1.524 . S
C1005 H1008 0.999 . S
C1006 H976 0.950 . S
C1006 C1005 1.524 . S
C1006 C1007 1.415 . S
C1007 H977 0.950 . S
C1007 C1002 1.363 . S
C1007 C1006 1.415 . S
H1008 C1005 0.999 . S
H1009 C990 0.913 . S
H1010 C1028 0.951 . S
H1011 C1030 0.951 . S
H1012 C1032 0.950 . S
H1013 C1033 0.950 . S
H1014 C1035 0.950 . S
H1015 C1038 0.950 . S
H1016 C1039 0.950 . S
H1017 C1041 0.950 . S
H1018 C1042 0.950 . S
H1019 C1043 0.951 . S
H1020 C1045 0.951 . S
H1021 C1047 0.950 . S
H1022 C1048 0.950 . S
H1023 C1050 0.950 . S
H1024 C1053 0.950 . S
H1025 C1054 0.950 . S
H1026 C1056 0.950 . S
H1027 C1057 0.950 . S
C1028 H1010 0.951 . S
C1028 C1029 1.366 . S
C1028 C1030 1.388 . S
C1029 C1028 1.366 . S
C1029 C1033 1.385 . S
C1030 H1011 0.951 . S
C1030 C1028 1.388 . S
C1030 C1031 1.366 . S
C1031 C1030 1.366 . S
C1031 C1032 1.414 . S
C1031 C1034 1.499 . S
C1032 H1012 0.950 . S
C1032 C1031 1.414 . S
C1032 C1033 1.374 . S
C1033 H1013 0.950 . S
C1033 C1029 1.385 . S
C1033 C1032 1.374 . S
C1034 C1031 1.499 . S
C1034 C1035 1.373 . S
C1034 C1036 1.389 . S
C1035 H1014 0.950 . S
C1035 C1034 1.373 . S
C1035 C1051 1.377 . S
C1036 C1034 1.389 . S
C1036 C1037 1.524 . S
C1036 C1050 1.377 . S
C1037 C1036 1.524 . S
C1037 C1038 1.397 . S
C1037 C1042 1.363 . S
C1038 H1015 0.950 . S
C1038 C1037 1.397 . S
C1038 C1039 1.334 . S
C1039 H1016 0.950 . S
C1039 C1038 1.334 . S
C1039 C1040 1.287 . S
C1040 C1039 1.287 . S
C1040 C1041 1.524 . S
C1040 H1059 0.913 . S
C1041 H1017 0.950 . S
C1041 C1040 1.524 . S
C1041 C1042 1.415 . S
C1042 H1018 0.950 . S
C1042 C1037 1.363 . S
C1042 C1041 1.415 . S
C1043 H1019 0.951 . S
C1043 C1044 1.366 . S
C1043 C1045 1.388 . S
C1044 C1043 1.366 . S
C1044 C1048 1.385 . S
C1045 H1020 0.951 . S
C1045 C1043 1.388 . S
C1045 C1046 1.366 . S
C1046 C1045 1.366 . S
C1046 C1047 1.414 . S
C1046 C1049 1.499 . S
C1047 H1021 0.950 . S
C1047 C1046 1.414 . S
C1047 C1048 1.374 . S
C1048 H1022 0.950 . S
C1048 C1044 1.385 . S
C1048 C1047 1.374 . S
C1049 C1046 1.499 . S
C1049 C1050 1.373 . S
C1049 C1051 1.389 . S
C1050 H1023 0.950 . S
C1050 C1036 1.377 . S
C1050 C1049 1.373 . S
C1051 C1035 1.377 . S
C1051 C1049 1.389 . S
C1051 C1052 1.524 . S
C1052 C1051 1.524 . S
C1052 C1053 1.397 . S
C1052 C1057 1.363 . S
C1053 H1024 0.950 . S
C1053 C1052 1.397 . S
C1053 C1054 1.334 . S
C1054 H1025 0.950 . S
C1054 C1053 1.334 . S
C1054 C1055 1.287 . S
C1055 C1054 1.287 . S
C1055 C1056 1.524 . S
C1055 H1058 0.999 . S
C1056 H1026 0.950 . S
C1056 C1055 1.524 . S
C1056 C1057 1.415 . S
C1057 H1027 0.950 . S
C1057 C1052 1.363 . S
C1057 C1056 1.415 . S
H1058 C1055 0.999 . S
H1059 C1040 0.913 . S
H1060 C1078 0.951 . S
H1061 C1080 0.951 . S
H1062 C1082 0.950 . S
H1063 C1083 0.950 . S
H1064 C1085 0.950 . S
H1065 C1088 0.950 . S
H1066 C1089 0.950 . S
H1067 C1091 0.950 . S
H1068 C1092 0.950 . S
H1069 C1093 0.951 . S
H1070 C1095 0.951 . S
H1071 C1097 0.950 . S
H1072 C1098 0.950 . S
H1073 C1100 0.950 . S
H1074 C1103 0.950 . S
H1075 C1104 0.950 . S
H1076 C1106 0.950 . S
H1077 C1107 0.950 . S
C1078 H1060 0.951 . S
C1078 C1079 1.366 . S
C1078 C1080 1.388 . S
C1079 C1078 1.366 . S
C1079 C1083 1.385 . S
C1080 H1061 0.951 . S
C1080 C1078 1.388 . S
C1080 C1081 1.366 . S
C1081 C1080 1.366 . S
C1081 C1082 1.414 . S
C1081 C1084 1.499 . S
C1082 H1062 0.950 . S
C1082 C1081 1.414 . S
C1082 C1083 1.374 . S
C1083 H1063 0.950 . S
C1083 C1079 1.385 . S
C1083 C1082 1.374 . S
C1084 C1081 1.499 . S
C1084 C1085 1.373 . S
C1084 C1086 1.389 . S
C1085 H1064 0.950 . S
C1085 C1084 1.373 . S
C1085 C1101 1.377 . S
C1086 C1084 1.389 . S
C1086 C1087 1.524 . S
C1086 C1100 1.377 . S
C1087 C1086 1.524 . S
C1087 C1088 1.397 . S
C1087 C1092 1.363 . S
C1088 H1065 0.950 . S
C1088 C1087 1.397 . S
C1088 C1089 1.334 . S
C1089 H1066 0.950 . S
C1089 C1088 1.334 . S
C1089 C1090 1.287 . S
C1090 C1089 1.287 . S
C1090 C1091 1.524 . S
C1090 H1109 0.913 . S
C1091 H1067 0.950 . S
C1091 C1090 1.524 . S
C1091 C1092 1.415 . S
C1092 H1068 0.950 . S
C1092 C1087 1.363 . S
C1092 C1091 1.415 . S
C1093 H1069 0.951 . S
C1093 C1094 1.366 . S
C1093 C1095 1.388 . S
C1094 C1093 1.366 . S
C1094 C1098 1.385 . S
C1095 H1070 0.951 . S
C1095 C1093 1.388 . S
C1095 C1096 1.366 . S
C1096 C1095 1.366 . S
C1096 C1097 1.414 . S
C1096 C1099 1.499 . S
C1097 H1071 0.950 . S
C1097 C1096 1.414 . S
C1097 C1098 1.374 . S
C1098 H1072 0.950 . S
C1098 C1094 1.385 . S
C1098 C1097 1.374 . S
C1099 C1096 1.499 . S
C1099 C1100 1.373 . S
C1099 C1101 1.389 . S
C1100 H1073 0.950 . S
C1100 C1086 1.377 . S
C1100 C1099 1.373 . S
C1101 C1085 1.377 . S
C1101 C1099 1.389 . S
C1101 C1102 1.524 . S
C1102 C1101 1.524 . S
C1102 C1103 1.397 . S
C1102 C1107 1.363 . S
C1103 H1074 0.950 . S
C1103 C1102 1.397 . S
C1103 C1104 1.334 . S
C1104 H1075 0.950 . S
C1104 C1103 1.334 . S
C1104 C1105 1.287 . S
C1105 C1104 1.287 . S
C1105 C1106 1.524 . S
C1105 H1108 0.999 . S
C1106 H1076 0.950 . S
C1106 C1105 1.524 . S
C1106 C1107 1.415 . S
C1107 H1077 0.950 . S
C1107 C1102 1.363 . S
C1107 C1106 1.415 . S
H1108 C1105 0.999 . S
H1109 C1090 0.913 . S
H1110 C1128 0.951 . S
H1111 C1130 0.951 . S
H1112 C1132 0.950 . S
H1113 C1133 0.950 . S
H1114 C1135 0.950 . S
H1115 C1138 0.950 . S
H1116 C1139 0.950 . S
H1117 C1141 0.950 . S
H1118 C1142 0.950 . S
H1119 C1143 0.951 . S
H1120 C1145 0.951 . S
H1121 C1147 0.950 . S
H1122 C1148 0.950 . S
H1123 C1150 0.950 . S
H1124 C1153 0.950 1_545 S
H1125 C1154 0.950 . S
H1126 C1156 0.950 . S
H1127 C1157 0.950 . S
C1128 H1110 0.951 . S
C1128 C1129 1.366 . S
C1128 C1130 1.388 . S
C1129 C1128 1.366 . S
C1129 C1133 1.385 . S
C1130 H1111 0.951 . S
C1130 C1128 1.388 . S
C1130 C1131 1.366 . S
C1131 C1130 1.366 . S
C1131 C1132 1.414 . S
C1131 C1134 1.499 . S
C1132 H1112 0.950 . S
C1132 C1131 1.414 . S
C1132 C1133 1.374 . S
C1133 H1113 0.950 . S
C1133 C1129 1.385 . S
C1133 C1132 1.374 . S
C1134 C1131 1.499 . S
C1134 C1135 1.373 . S
C1134 C1136 1.389 . S
C1135 H1114 0.950 . S
C1135 C1134 1.373 . S
C1135 C1151 1.377 . S
C1136 C1134 1.389 . S
C1136 C1137 1.524 . S
C1136 C1150 1.377 . S
C1137 C1136 1.524 . S
C1137 C1138 1.397 . S
C1137 C1142 1.363 . S
C1138 H1115 0.950 . S
C1138 C1137 1.397 . S
C1138 C1139 1.334 . S
C1139 H1116 0.950 . S
C1139 C1138 1.334 . S
C1139 C1140 1.287 . S
C1140 C1139 1.287 . S
C1140 C1141 1.524 . S
C1140 H1159 0.913 . S
C1141 H1117 0.950 . S
C1141 C1140 1.524 . S
C1141 C1142 1.415 . S
C1142 H1118 0.950 . S
C1142 C1137 1.363 . S
C1142 C1141 1.415 . S
C1143 H1119 0.951 . S
C1143 C1144 1.366 . S
C1143 C1145 1.388 . S
C1144 C1143 1.366 . S
C1144 C1148 1.385 . S
C1145 H1120 0.951 . S
C1145 C1143 1.388 . S
C1145 C1146 1.366 . S
C1146 C1145 1.366 . S
C1146 C1147 1.414 . S
C1146 C1149 1.499 1_545 S
C1147 H1121 0.950 . S
C1147 C1146 1.414 . S
C1147 C1148 1.374 . S
C1148 H1122 0.950 . S
C1148 C1144 1.385 . S
C1148 C1147 1.374 . S
C1149 C1146 1.499 1_565 S
C1149 C1150 1.373 . S
C1149 C1151 1.389 . S
C1150 H1123 0.950 . S
C1150 C1136 1.377 . S
C1150 C1149 1.373 . S
C1151 C1135 1.377 . S
C1151 C1149 1.389 . S
C1151 C1152 1.524 . S
C1152 C1151 1.524 . S
C1152 C1153 1.397 . S
C1152 C1157 1.363 . S
C1153 H1124 0.950 1_565 S
C1153 C1152 1.397 . S
C1153 C1154 1.334 1_565 S
C1154 H1125 0.950 . S
C1154 C1153 1.334 1_545 S
C1154 C1155 1.287 1_545 S
C1155 C1154 1.287 1_565 S
C1155 C1156 1.524 . S
C1155 H1158 0.999 . S
C1156 H1126 0.950 . S
C1156 C1155 1.524 . S
C1156 C1157 1.415 . S
C1157 H1127 0.950 . S
C1157 C1152 1.363 . S
C1157 C1156 1.415 . S
H1158 C1155 0.999 . S
H1159 C1140 0.913 . S
H1160 C1178 0.951 . S
H1161 C1180 0.951 . S
H1162 C1182 0.950 . S
H1163 C1183 0.950 . S
H1164 C1185 0.950 . S
H1165 C1188 0.950 . S
H1166 C1189 0.950 1_565 S
H1167 C1191 0.950 . S
H1168 C1192 0.950 . S
H1169 C1193 0.951 . S
H1170 C1195 0.951 . S
H1171 C1197 0.950 . S
H1172 C1198 0.950 . S
H1173 C1200 0.950 1_545 S
H1174 C1203 0.950 . S
H1175 C1204 0.950 . S
H1176 C1206 0.950 . S
H1177 C1207 0.950 . S
C1178 H1160 0.951 . S
C1178 C1179 1.366 . S
C1178 C1180 1.388 . S
C1179 C1178 1.366 . S
C1179 C1183 1.385 . S
C1180 H1161 0.951 . S
C1180 C1178 1.388 . S
C1180 C1181 1.366 . S
C1181 C1180 1.366 . S
C1181 C1182 1.414 . S
C1181 C1184 1.499 . S
C1182 H1162 0.950 . S
C1182 C1181 1.414 . S
C1182 C1183 1.374 . S
C1183 H1163 0.950 . S
C1183 C1179 1.385 . S
C1183 C1182 1.374 . S
C1184 C1181 1.499 . S
C1184 C1185 1.373 . S
C1184 C1186 1.389 . S
C1185 H1164 0.950 . S
C1185 C1184 1.373 . S
C1185 C1201 1.377 . S
C1186 C1184 1.389 . S
C1186 C1187 1.522 1_565 S
C1186 C1200 1.377 . S
C1187 C1186 1.522 1_545 S
C1187 C1188 1.397 1_545 S
C1187 C1192 1.365 . S
C1188 H1165 0.950 . S
C1188 C1187 1.397 1_565 S
C1188 C1189 1.334 1_565 S
C1189 H1166 0.950 1_545 S
C1189 C1188 1.334 1_545 S
C1189 C1190 1.287 . S
C1190 C1189 1.287 . S
C1190 C1191 1.524 . S
C1190 H1209 0.913 . S
C1191 H1167 0.950 . S
C1191 C1190 1.524 . S
C1191 C1192 1.415 . S
C1192 H1168 0.950 . S
C1192 C1187 1.365 . S
C1192 C1191 1.415 . S
C1193 H1169 0.951 . S
C1193 C1194 1.366 1_565 S
C1193 C1195 1.388 . S
C1194 C1193 1.366 1_545 S
C1194 C1198 1.385 . S
C1195 H1170 0.951 . S
C1195 C1193 1.388 . S
C1195 C1196 1.366 . S
C1196 C1195 1.366 . S
C1196 C1197 1.414 1_565 S
C1196 C1199 1.499 . S
C1197 H1171 0.950 . S
C1197 C1196 1.414 1_545 S
C1197 C1198 1.374 . S
C1198 H1172 0.950 . S
C1198 C1194 1.385 . S
C1198 C1197 1.374 . S
C1199 C1196 1.499 . S
C1199 C1200 1.373 . S
C1199 C1201 1.389 . S
C1200 H1173 0.950 1_565 S
C1200 C1186 1.377 . S
C1200 C1199 1.373 . S
C1201 C1185 1.377 . S
C1201 C1199 1.389 . S
C1201 C1202 1.524 . S
C1202 C1201 1.524 . S
C1202 C1203 1.397 . S
C1202 C1207 1.363 . S
C1203 H1174 0.950 . S
C1203 C1202 1.397 . S
C1203 C1204 1.334 . S
C1204 H1175 0.950 . S
C1204 C1203 1.334 . S
C1204 C1205 1.287 . S
C1205 C1204 1.287 . S
C1205 C1206 1.524 . S
C1205 H1208 0.999 . S
C1206 H1176 0.950 . S
C1206 C1205 1.524 . S
C1206 C1207 1.415 . S
C1207 H1177 0.950 . S
C1207 C1202 1.363 . S
C1207 C1206 1.415 . S
H1208 C1205 0.999 . S
H1209 C1190 0.913 . S
H1210 C1228 0.951 . S
H1211 C1230 0.951 . S
H1212 C1232 0.950 . S
H1213 C1233 0.950 . S
H1214 C1235 0.950 . S
H1215 C1238 0.950 . S
H1216 C1239 0.950 . S
H1217 C1241 0.950 . S
H1218 C1242 0.950 . S
H1219 C1243 0.951 . S
H1220 C1245 0.951 . S
H1221 C1247 0.950 . S
H1222 C1248 0.950 . S
H1223 C1250 0.950 . S
H1224 C1253 0.950 . S
H1225 C1254 0.950 . S
H1226 C1256 0.950 . S
H1227 C1257 0.950 . S
C1228 H1210 0.951 . S
C1228 C1229 1.366 . S
C1228 C1230 1.388 . S
C1229 C1228 1.366 . S
C1229 C1233 1.385 . S
C1230 H1211 0.951 . S
C1230 C1228 1.388 . S
C1230 C1231 1.366 . S
C1231 C1230 1.366 . S
C1231 C1232 1.414 . S
C1231 C1234 1.499 . S
C1232 H1212 0.950 . S
C1232 C1231 1.414 . S
C1232 C1233 1.374 . S
C1233 H1213 0.950 . S
C1233 C1229 1.385 . S
C1233 C1232 1.374 . S
C1234 C1231 1.499 . S
C1234 C1235 1.373 . S
C1234 C1236 1.389 . S
C1235 H1214 0.950 . S
C1235 C1234 1.373 . S
C1235 C1251 1.377 . S
C1236 C1234 1.389 . S
C1236 C1237 1.524 . S
C1236 C1250 1.377 . S
C1237 C1236 1.524 . S
C1237 C1238 1.397 . S
C1237 C1242 1.363 . S
C1238 H1215 0.950 . S
C1238 C1237 1.397 . S
C1238 C1239 1.334 . S
C1239 H1216 0.950 . S
C1239 C1238 1.334 . S
C1239 C1240 1.287 . S
C1240 C1239 1.287 . S
C1240 C1241 1.524 . S
C1240 H1259 0.913 . S
C1241 H1217 0.950 . S
C1241 C1240 1.524 . S
C1241 C1242 1.415 . S
C1242 H1218 0.950 . S
C1242 C1237 1.363 . S
C1242 C1241 1.415 . S
C1243 H1219 0.951 . S
C1243 C1244 1.366 . S
C1243 C1245 1.388 . S
C1244 C1243 1.366 . S
C1244 C1248 1.385 . S
C1245 H1220 0.951 . S
C1245 C1243 1.388 . S
C1245 C1246 1.366 . S
C1246 C1245 1.366 . S
C1246 C1247 1.414 . S
C1246 C1249 1.499 . S
C1247 H1221 0.950 . S
C1247 C1246 1.414 . S
C1247 C1248 1.374 . S
C1248 H1222 0.950 . S
C1248 C1244 1.385 . S
C1248 C1247 1.374 . S
C1249 C1246 1.499 . S
C1249 C1250 1.373 . S
C1249 C1251 1.389 . S
C1250 H1223 0.950 . S
C1250 C1236 1.377 . S
C1250 C1249 1.373 . S
C1251 C1235 1.377 . S
C1251 C1249 1.389 . S
C1251 C1252 1.524 . S
C1252 C1251 1.524 . S
C1252 C1253 1.397 . S
C1252 C1257 1.363 . S
C1253 H1224 0.950 . S
C1253 C1252 1.397 . S
C1253 C1254 1.334 . S
C1254 H1225 0.950 . S
C1254 C1253 1.334 . S
C1254 C1255 1.287 . S
C1255 C1254 1.287 . S
C1255 C1256 1.524 . S
C1255 H1258 0.999 1_455 S
C1256 H1226 0.950 . S
C1256 C1255 1.524 . S
C1256 C1257 1.415 . S
C1257 H1227 0.950 . S
C1257 C1252 1.363 . S
C1257 C1256 1.415 . S
H1258 C1255 0.999 1_655 S
H1259 C1240 0.913 . S
H1260 C1278 0.951 . S
H1261 C1280 0.951 . S
H1262 C1282 0.950 . S
H1263 C1283 0.950 . S
H1264 C1285 0.950 . S
H1265 C1288 0.950 . S
H1266 C1289 0.950 . S
H1267 C1291 0.950 . S
H1268 C1292 0.950 . S
H1269 C1293 0.951 . S
H1270 C1295 0.951 . S
H1271 C1297 0.950 . S
H1272 C1298 0.950 . S
H1273 C1300 0.950 . S
H1274 C1303 0.950 . S
H1275 C1304 0.950 . S
H1276 C1306 0.950 . S
H1277 C1307 0.950 1_455 S
C1278 H1260 0.951 . S
C1278 C1279 1.366 . S
C1278 C1280 1.388 . S
C1279 C1278 1.366 . S
C1279 C1283 1.385 . S
C1280 H1261 0.951 . S
C1280 C1278 1.388 . S
C1280 C1281 1.366 . S
C1281 C1280 1.366 . S
C1281 C1282 1.414 . S
C1281 C1284 1.499 . S
C1282 H1262 0.950 . S
C1282 C1281 1.414 . S
C1282 C1283 1.374 . S
C1283 H1263 0.950 . S
C1283 C1279 1.385 . S
C1283 C1282 1.374 . S
C1284 C1281 1.499 . S
C1284 C1285 1.373 . S
C1284 C1286 1.389 . S
C1285 H1264 0.950 . S
C1285 C1284 1.373 . S
C1285 C1301 1.377 . S
C1286 C1284 1.389 . S
C1286 C1287 1.524 . S
C1286 C1300 1.377 . S
C1287 C1286 1.524 . S
C1287 C1288 1.397 . S
C1287 C1292 1.363 . S
C1288 H1265 0.950 . S
C1288 C1287 1.397 . S
C1288 C1289 1.334 . S
C1289 H1266 0.950 . S
C1289 C1288 1.334 . S
C1289 C1290 1.287 . S
C1290 C1289 1.287 . S
C1290 C1291 1.524 . S
C1290 H1309 0.913 . S
C1291 H1267 0.950 . S
C1291 C1290 1.524 . S
C1291 C1292 1.415 . S
C1292 H1268 0.950 . S
C1292 C1287 1.363 . S
C1292 C1291 1.415 . S
C1293 H1269 0.951 . S
C1293 C1294 1.366 . S
C1293 C1295 1.388 . S
C1294 C1293 1.366 . S
C1294 C1298 1.385 . S
C1295 H1270 0.951 . S
C1295 C1293 1.388 . S
C1295 C1296 1.366 . S
C1296 C1295 1.366 . S
C1296 C1297 1.414 . S
C1296 C1299 1.499 . S
C1297 H1271 0.950 . S
C1297 C1296 1.414 . S
C1297 C1298 1.374 . S
C1298 H1272 0.950 . S
C1298 C1294 1.385 . S
C1298 C1297 1.374 . S
C1299 C1296 1.499 . S
C1299 C1300 1.373 . S
C1299 C1301 1.389 . S
C1300 H1273 0.950 . S
C1300 C1286 1.377 . S
C1300 C1299 1.373 . S
C1301 C1285 1.377 . S
C1301 C1299 1.389 . S
C1301 C1302 1.524 . S
C1302 C1301 1.524 . S
C1302 C1303 1.397 . S
C1302 C1307 1.363 1_455 S
C1303 H1274 0.950 . S
C1303 C1302 1.397 . S
C1303 C1304 1.334 1_455 S
C1304 H1275 0.950 . S
C1304 C1303 1.334 1_655 S
C1304 C1305 1.287 . S
C1305 C1304 1.287 . S
C1305 C1306 1.524 . S
C1305 H1308 0.999 . S
C1306 H1276 0.950 . S
C1306 C1305 1.524 . S
C1306 C1307 1.415 . S
C1307 H1277 0.950 1_655 S
C1307 C1302 1.363 1_655 S
C1307 C1306 1.415 . S
H1308 C1305 0.999 . S
H1309 C1290 0.913 . S
H1310 C1328 0.951 . S
H1311 C1330 0.951 . S
H1312 C1332 0.950 . S
H1313 C1333 0.950 . S
H1314 C1335 0.950 . S
H1315 C1338 0.950 . S
H1316 C1339 0.950 . S
H1317 C1341 0.950 . S
H1318 C1342 0.950 . S
H1319 C1343 0.951 . S
H1320 C1345 0.951 . S
H1321 C1347 0.950 . S
H1322 C1348 0.950 . S
H1323 C1350 0.950 . S
H1324 C1353 0.950 . S
H1325 C1354 0.950 . S
H1326 C1356 0.950 . S
H1327 C1357 0.950 . S
C1328 H1310 0.951 . S
C1328 C1329 1.366 . S
C1328 C1330 1.388 . S
C1329 C1328 1.366 . S
C1329 C1333 1.385 . S
C1330 H1311 0.951 . S
C1330 C1328 1.388 . S
C1330 C1331 1.366 . S
C1331 C1330 1.366 . S
C1331 C1332 1.414 . S
C1331 C1334 1.499 . S
C1332 H1312 0.950 . S
C1332 C1331 1.414 . S
C1332 C1333 1.374 . S
C1333 H1313 0.950 . S
C1333 C1329 1.385 . S
C1333 C1332 1.374 . S
C1334 C1331 1.499 . S
C1334 C1335 1.373 . S
C1334 C1336 1.389 . S
C1335 H1314 0.950 . S
C1335 C1334 1.373 . S
C1335 C1351 1.377 . S
C1336 C1334 1.389 . S
C1336 C1337 1.524 . S
C1336 C1350 1.377 . S
C1337 C1336 1.524 . S
C1337 C1338 1.397 . S
C1337 C1342 1.363 . S
C1338 H1315 0.950 . S
C1338 C1337 1.397 . S
C1338 C1339 1.334 . S
C1339 H1316 0.950 . S
C1339 C1338 1.334 . S
C1339 C1340 1.287 . S
C1340 C1339 1.287 . S
C1340 C1341 1.524 . S
C1340 H1359 0.913 . S
C1341 H1317 0.950 . S
C1341 C1340 1.524 . S
C1341 C1342 1.415 . S
C1342 H1318 0.950 . S
C1342 C1337 1.363 . S
C1342 C1341 1.415 . S
C1343 H1319 0.951 . S
C1343 C1344 1.366 . S
C1343 C1345 1.388 . S
C1344 C1343 1.366 . S
C1344 C1348 1.385 . S
C1345 H1320 0.951 . S
C1345 C1343 1.388 . S
C1345 C1346 1.366 . S
C1346 C1345 1.366 . S
C1346 C1347 1.414 . S
C1346 C1349 1.499 . S
C1347 H1321 0.950 . S
C1347 C1346 1.414 . S
C1347 C1348 1.374 . S
C1348 H1322 0.950 . S
C1348 C1344 1.385 . S
C1348 C1347 1.374 . S
C1349 C1346 1.499 . S
C1349 C1350 1.373 . S
C1349 C1351 1.389 . S
C1350 H1323 0.950 . S
C1350 C1336 1.377 . S
C1350 C1349 1.373 . S
C1351 C1335 1.377 . S
C1351 C1349 1.389 . S
C1351 C1352 1.524 . S
C1352 C1351 1.524 . S
C1352 C1353 1.397 . S
C1352 C1357 1.363 . S
C1353 H1324 0.950 . S
C1353 C1352 1.397 . S
C1353 C1354 1.334 . S
C1354 H1325 0.950 . S
C1354 C1353 1.334 . S
C1354 C1355 1.287 . S
C1355 C1354 1.287 . S
C1355 C1356 1.524 . S
C1355 H1358 0.999 . S
C1356 H1326 0.950 . S
C1356 C1355 1.524 . S
C1356 C1357 1.415 . S
C1357 H1327 0.950 . S
C1357 C1352 1.363 . S
C1357 C1356 1.415 . S
H1358 C1355 0.999 . S
H1359 C1340 0.913 . S
H1360 C1378 0.951 1_545 S
H1361 C1380 0.951 . S
H1362 C1382 0.950 . S
H1363 C1383 0.950 . S
H1364 C1385 0.950 . S
H1365 C1388 0.950 1_565 S
H1366 C1389 0.950 . S
H1367 C1391 0.950 . S
H1368 C1392 0.950 . S
H1369 C1393 0.951 . S
H1370 C1395 0.951 . S
H1371 C1397 0.950 . S
H1372 C1398 0.950 . S
H1373 C1400 0.950 . S
H1374 C1403 0.950 . S
H1375 C1404 0.950 . S
H1376 C1406 0.950 . S
H1377 C1407 0.950 . S
C1378 H1360 0.951 1_565 S
C1378 C1379 1.366 . S
C1378 C1380 1.388 . S
C1379 C1378 1.366 . S
C1379 C1383 1.385 . S
C1380 H1361 0.951 . S
C1380 C1378 1.388 . S
C1380 C1381 1.366 . S
C1381 C1380 1.366 . S
C1381 C1382 1.414 . S
C1381 C1384 1.499 . S
C1382 H1362 0.950 . S
C1382 C1381 1.414 . S
C1382 C1383 1.374 . S
C1383 H1363 0.950 . S
C1383 C1379 1.385 . S
C1383 C1382 1.374 . S
C1384 C1381 1.499 . S
C1384 C1385 1.373 . S
C1384 C1386 1.389 . S
C1385 H1364 0.950 . S
C1385 C1384 1.373 . S
C1385 C1401 1.377 . S
C1386 C1384 1.389 . S
C1386 C1387 1.524 1_565 S
C1386 C1400 1.377 . S
C1387 C1386 1.524 1_545 S
C1387 C1388 1.397 . S
C1387 C1392 1.363 . S
C1388 H1365 0.950 1_545 S
C1388 C1387 1.397 . S
C1388 C1389 1.334 . S
C1389 H1366 0.950 . S
C1389 C1388 1.334 . S
C1389 C1390 1.287 . S
C1390 C1389 1.287 . S
C1390 C1391 1.524 . S
C1390 H1409 0.913 . S
C1391 H1367 0.950 . S
C1391 C1390 1.524 . S
C1391 C1392 1.415 . S
C1392 H1368 0.950 . S
C1392 C1387 1.363 . S
C1392 C1391 1.415 . S
C1393 H1369 0.951 . S
C1393 C1394 1.366 . S
C1393 C1395 1.388 . S
C1394 C1393 1.366 . S
C1394 C1398 1.385 . S
C1395 H1370 0.951 . S
C1395 C1393 1.388 . S
C1395 C1396 1.366 . S
C1396 C1395 1.366 . S
C1396 C1397 1.414 . S
C1396 C1399 1.499 . S
C1397 H1371 0.950 . S
C1397 C1396 1.414 . S
C1397 C1398 1.374 . S
C1398 H1372 0.950 . S
C1398 C1394 1.385 . S
C1398 C1397 1.374 . S
C1399 C1396 1.499 . S
C1399 C1400 1.373 . S
C1399 C1401 1.389 . S
C1400 H1373 0.950 . S
C1400 C1386 1.377 . S
C1400 C1399 1.373 . S
C1401 C1385 1.377 . S
C1401 C1399 1.389 . S
C1401 C1402 1.524 . S
C1402 C1401 1.524 . S
C1402 C1403 1.397 . S
C1402 C1407 1.363 . S
C1403 H1374 0.950 . S
C1403 C1402 1.397 . S
C1403 C1404 1.334 . S
C1404 H1375 0.950 . S
C1404 C1403 1.334 . S
C1404 C1405 1.287 . S
C1405 C1404 1.287 . S
C1405 C1406 1.524 . S
C1405 H1408 0.999 . S
C1406 H1376 0.950 . S
C1406 C1405 1.524 . S
C1406 C1407 1.415 . S
C1407 H1377 0.950 . S
C1407 C1402 1.363 . S
C1407 C1406 1.415 . S
H1408 C1405 0.999 . S
H1409 C1390 0.913 . S
H1410 C1428 0.951 . S
H1411 C1430 0.951 . S
H1412 C1432 0.950 . S
H1413 C1433 0.950 . S
H1414 C1435 0.950 . S
H1415 C1438 0.950 1_545 S
H1416 C1439 0.950 . S
H1417 C1441 0.950 . S
H1418 C1442 0.950 . S
H1419 C1443 0.951 . S
H1420 C1445 0.951 . S
H1421 C1447 0.950 . S
H1422 C1448 0.950 . S
H1423 C1450 0.950 . S
H1424 C1453 0.950 . S
H1425 C1454 0.950 . S
H1426 C1456 0.950 . S
H1427 C1457 0.950 . S
C1428 H1410 0.951 . S
C1428 C1429 1.366 . S
C1428 C1430 1.388 . S
C1429 C1428 1.366 . S
C1429 C1433 1.385 . S
C1430 H1411 0.951 . S
C1430 C1428 1.388 . S
C1430 C1431 1.366 . S
C1431 C1430 1.366 . S
C1431 C1432 1.414 . S
C1431 C1434 1.499 . S
C1432 H1412 0.950 . S
C1432 C1431 1.414 . S
C1432 C1433 1.374 . S
C1433 H1413 0.950 . S
C1433 C1429 1.385 . S
C1433 C1432 1.374 . S
C1434 C1431 1.499 . S
C1434 C1435 1.373 . S
C1434 C1436 1.389 . S
C1435 H1414 0.950 . S
C1435 C1434 1.373 . S
C1435 C1451 1.377 . S
C1436 C1434 1.389 . S
C1436 C1437 1.524 1_545 S
C1436 C1450 1.377 . S
C1437 C1436 1.524 1_565 S
C1437 C1438 1.397 . S
C1437 C1442 1.363 . S
C1438 H1415 0.950 1_565 S
C1438 C1437 1.397 . S
C1438 C1439 1.334 . S
C1439 H1416 0.950 . S
C1439 C1438 1.334 . S
C1439 C1440 1.287 . S
C1440 C1439 1.287 . S
C1440 C1441 1.524 . S
C1440 H1459 0.913 . S
C1441 H1417 0.950 . S
C1441 C1440 1.524 . S
C1441 C1442 1.415 . S
C1442 H1418 0.950 . S
C1442 C1437 1.363 . S
C1442 C1441 1.415 . S
C1443 H1419 0.951 . S
C1443 C1444 1.366 . S
C1443 C1445 1.388 . S
C1444 C1443 1.366 . S
C1444 C1448 1.385 . S
C1445 H1420 0.951 . S
C1445 C1443 1.388 . S
C1445 C1446 1.366 . S
C1446 C1445 1.366 . S
C1446 C1447 1.414 . S
C1446 C1449 1.499 . S
C1447 H1421 0.950 . S
C1447 C1446 1.414 . S
C1447 C1448 1.374 . S
C1448 H1422 0.950 . S
C1448 C1444 1.385 . S
C1448 C1447 1.374 . S
C1449 C1446 1.499 . S
C1449 C1450 1.373 . S
C1449 C1451 1.389 . S
C1450 H1423 0.950 . S
C1450 C1436 1.377 . S
C1450 C1449 1.373 . S
C1451 C1435 1.377 . S
C1451 C1449 1.389 . S
C1451 C1452 1.524 . S
C1452 C1451 1.524 . S
C1452 C1453 1.397 . S
C1452 C1457 1.363 . S
C1453 H1424 0.950 . S
C1453 C1452 1.397 . S
C1453 C1454 1.334 . S
C1454 H1425 0.950 . S
C1454 C1453 1.334 . S
C1454 C1455 1.287 . S
C1455 C1454 1.287 . S
C1455 C1456 1.524 . S
C1455 H1458 0.999 . S
C1456 H1426 0.950 . S
C1456 C1455 1.524 . S
C1456 C1457 1.415 . S
C1457 H1427 0.950 . S
C1457 C1452 1.363 . S
C1457 C1456 1.415 . S
H1458 C1455 0.999 . S
H1459 C1440 0.913 . S
H1460 C1478 0.951 1_455 S
H1461 C1480 0.951 . S
H1462 C1482 0.950 . S
H1463 C1483 0.950 . S
H1464 C1485 0.950 . S
H1465 C1488 0.950 . S
H1466 C1489 0.950 . S
H1467 C1491 0.950 . S
H1468 C1492 0.950 . S
H1469 C1493 0.951 . S
H1470 C1495 0.951 . S
H1471 C1497 0.950 . S
H1472 C1498 0.950 . S
H1473 C1500 0.950 . S
H1474 C1503 0.950 . S
H1475 C1504 0.950 . S
H1476 C1506 0.950 . S
H1477 C1507 0.950 . S
C1478 H1460 0.951 1_655 S
C1478 C1479 1.366 . S
C1478 C1480 1.388 . S
C1479 C1478 1.366 . S
C1479 C1483 1.385 . S
C1480 H1461 0.951 . S
C1480 C1478 1.388 . S
C1480 C1481 1.366 . S
C1481 C1480 1.366 . S
C1481 C1482 1.414 . S
C1481 C1484 1.499 . S
C1482 H1462 0.950 . S
C1482 C1481 1.414 . S
C1482 C1483 1.374 . S
C1483 H1463 0.950 . S
C1483 C1479 1.385 . S
C1483 C1482 1.374 . S
C1484 C1481 1.499 . S
C1484 C1485 1.373 . S
C1484 C1486 1.389 . S
C1485 H1464 0.950 . S
C1485 C1484 1.373 . S
C1485 C1501 1.377 . S
C1486 C1484 1.389 . S
C1486 C1487 1.524 . S
C1486 C1500 1.377 . S
C1487 C1486 1.524 . S
C1487 C1488 1.397 . S
C1487 C1492 1.363 . S
C1488 H1465 0.950 . S
C1488 C1487 1.397 . S
C1488 C1489 1.334 . S
C1489 H1466 0.950 . S
C1489 C1488 1.334 . S
C1489 C1490 1.287 . S
C1490 C1489 1.287 . S
C1490 C1491 1.524 1_655 S
C1490 H1509 0.913 . S
C1491 H1467 0.950 . S
C1491 C1490 1.524 1_455 S
C1491 C1492 1.415 1_455 S
C1492 H1468 0.950 . S
C1492 C1487 1.363 . S
C1492 C1491 1.415 1_655 S
C1493 H1469 0.951 . S
C1493 C1494 1.366 . S
C1493 C1495 1.388 . S
C1494 C1493 1.366 . S
C1494 C1498 1.385 . S
C1495 H1470 0.951 . S
C1495 C1493 1.388 . S
C1495 C1496 1.366 . S
C1496 C1495 1.366 . S
C1496 C1497 1.414 . S
C1496 C1499 1.499 . S
C1497 H1471 0.950 . S
C1497 C1496 1.414 . S
C1497 C1498 1.374 . S
C1498 H1472 0.950 . S
C1498 C1494 1.385 . S
C1498 C1497 1.374 . S
C1499 C1496 1.499 . S
C1499 C1500 1.373 . S
C1499 C1501 1.389 . S
C1500 H1473 0.950 . S
C1500 C1486 1.377 . S
C1500 C1499 1.373 . S
C1501 C1485 1.377 . S
C1501 C1499 1.389 . S
C1501 C1502 1.524 . S
C1502 C1501 1.524 . S
C1502 C1503 1.397 . S
C1502 C1507 1.363 . S
C1503 H1474 0.950 . S
C1503 C1502 1.397 . S
C1503 C1504 1.334 . S
C1504 H1475 0.950 . S
C1504 C1503 1.334 . S
C1504 C1505 1.287 . S
C1505 C1504 1.287 . S
C1505 C1506 1.524 . S
C1505 H1508 0.999 . S
C1506 H1476 0.950 . S
C1506 C1505 1.524 . S
C1506 C1507 1.415 . S
C1507 H1477 0.950 . S
C1507 C1502 1.363 . S
C1507 C1506 1.415 . S
H1508 C1505 0.999 . S
H1509 C1490 0.913 . S
H1510 C1528 0.951 . S
H1511 C1530 0.951 . S
H1512 C1532 0.950 . S
H1513 C1533 0.950 . S
H1514 C1535 0.950 . S
H1515 C1538 0.950 . S
H1516 C1539 0.950 . S
H1517 C1541 0.950 . S
H1518 C1542 0.950 . S
H1519 C1543 0.951 . S
H1520 C1545 0.951 . S
H1521 C1547 0.950 . S
H1522 C1548 0.950 . S
H1523 C1550 0.950 . S
H1524 C1553 0.950 . S
H1525 C1554 0.950 . S
H1526 C1556 0.950 . S
H1527 C1557 0.950 . S
C1528 H1510 0.951 . S
C1528 C1529 1.366 . S
C1528 C1530 1.388 . S
C1529 C1528 1.366 . S
C1529 C1533 1.385 . S
C1530 H1511 0.951 . S
C1530 C1528 1.388 . S
C1530 C1531 1.366 . S
C1531 C1530 1.366 . S
C1531 C1532 1.414 . S
C1531 C1534 1.499 . S
C1532 H1512 0.950 . S
C1532 C1531 1.414 . S
C1532 C1533 1.374 . S
C1533 H1513 0.950 . S
C1533 C1529 1.385 . S
C1533 C1532 1.374 . S
C1534 C1531 1.499 . S
C1534 C1535 1.373 . S
C1534 C1536 1.389 . S
C1535 H1514 0.950 . S
C1535 C1534 1.373 . S
C1535 C1551 1.377 . S
C1536 C1534 1.389 . S
C1536 C1537 1.524 . S
C1536 C1550 1.377 . S
C1537 C1536 1.524 . S
C1537 C1538 1.397 . S
C1537 C1542 1.363 . S
C1538 H1515 0.950 . S
C1538 C1537 1.397 . S
C1538 C1539 1.334 . S
C1539 H1516 0.950 . S
C1539 C1538 1.334 . S
C1539 C1540 1.287 . S
C1540 C1539 1.287 . S
C1540 C1541 1.524 . S
C1540 H1559 0.913 . S
C1541 H1517 0.950 . S
C1541 C1540 1.524 . S
C1541 C1542 1.415 . S
C1542 H1518 0.950 . S
C1542 C1537 1.363 . S
C1542 C1541 1.415 . S
C1543 H1519 0.951 . S
C1543 C1544 1.366 . S
C1543 C1545 1.388 . S
C1544 C1543 1.366 . S
C1544 C1548 1.385 . S
C1545 H1520 0.951 . S
C1545 C1543 1.388 . S
C1545 C1546 1.366 . S
C1546 C1545 1.366 . S
C1546 C1547 1.414 . S
C1546 C1549 1.499 . S
C1547 H1521 0.950 . S
C1547 C1546 1.414 . S
C1547 C1548 1.374 . S
C1548 H1522 0.950 . S
C1548 C1544 1.385 . S
C1548 C1547 1.374 . S
C1549 C1546 1.499 . S
C1549 C1550 1.373 . S
C1549 C1551 1.389 . S
C1550 H1523 0.950 . S
C1550 C1536 1.377 . S
C1550 C1549 1.373 . S
C1551 C1535 1.377 . S
C1551 C1549 1.389 . S
C1551 C1552 1.524 . S
C1552 C1551 1.524 . S
C1552 C1553 1.397 . S
C1552 C1557 1.363 . S
C1553 H1524 0.950 . S
C1553 C1552 1.397 . S
C1553 C1554 1.334 . S
C1554 H1525 0.950 . S
C1554 C1553 1.334 . S
C1554 C1555 1.287 . S
C1555 C1554 1.287 . S
C1555 C1556 1.524 . S
C1555 H1558 0.999 . S
C1556 H1526 0.950 . S
C1556 C1555 1.524 . S
C1556 C1557 1.415 . S
C1557 H1527 0.950 . S
C1557 C1552 1.363 . S
C1557 C1556 1.415 . S
H1558 C1555 0.999 . S
H1559 C1540 0.913 . S
H1560 C1578 0.951 . S
H1561 C1580 0.951 . S
H1562 C1582 0.950 . S
H1563 C1583 0.950 . S
H1564 C1585 0.950 . S
H1565 C1588 0.950 . S
H1566 C1589 0.950 . S
H1567 C1591 0.950 . S
H1568 C1592 0.950 . S
H1569 C1593 0.951 . S
H1570 C1595 0.951 . S
H1571 C1597 0.950 . S
H1572 C1598 0.950 . S
H1573 C1600 0.950 . S
H1574 C1603 0.950 . S
H1575 C1604 0.950 . S
H1576 C1606 0.950 . S
H1577 C1607 0.950 . S
C1578 H1560 0.951 . S
C1578 C1579 1.366 . S
C1578 C1580 1.388 . S
C1579 C1578 1.366 . S
C1579 C1583 1.385 . S
C1580 H1561 0.951 . S
C1580 C1578 1.388 . S
C1580 C1581 1.366 . S
C1581 C1580 1.366 . S
C1581 C1582 1.414 . S
C1581 C1584 1.499 . S
C1582 H1562 0.950 . S
C1582 C1581 1.414 . S
C1582 C1583 1.374 . S
C1583 H1563 0.950 . S
C1583 C1579 1.385 . S
C1583 C1582 1.374 . S
C1584 C1581 1.499 . S
C1584 C1585 1.373 . S
C1584 C1586 1.389 . S
C1585 H1564 0.950 . S
C1585 C1584 1.373 . S
C1585 C1601 1.377 . S
C1586 C1584 1.389 . S
C1586 C1587 1.524 . S
C1586 C1600 1.377 . S
C1587 C1586 1.524 . S
C1587 C1588 1.397 . S
C1587 C1592 1.363 . S
C1588 H1565 0.950 . S
C1588 C1587 1.397 . S
C1588 C1589 1.334 . S
C1589 H1566 0.950 . S
C1589 C1588 1.334 . S
C1589 C1590 1.287 . S
C1590 C1589 1.287 . S
C1590 C1591 1.524 . S
C1590 H1609 0.913 . S
C1591 H1567 0.950 . S
C1591 C1590 1.524 . S
C1591 C1592 1.415 . S
C1592 H1568 0.950 . S
C1592 C1587 1.363 . S
C1592 C1591 1.415 . S
C1593 H1569 0.951 . S
C1593 C1594 1.366 . S
C1593 C1595 1.388 . S
C1594 C1593 1.366 . S
C1594 C1598 1.385 . S
C1595 H1570 0.951 . S
C1595 C1593 1.388 . S
C1595 C1596 1.366 . S
C1596 C1595 1.366 . S
C1596 C1597 1.414 . S
C1596 C1599 1.499 . S
C1597 H1571 0.950 . S
C1597 C1596 1.414 . S
C1597 C1598 1.374 . S
C1598 H1572 0.950 . S
C1598 C1594 1.385 . S
C1598 C1597 1.374 . S
C1599 C1596 1.499 . S
C1599 C1600 1.373 . S
C1599 C1601 1.389 . S
C1600 H1573 0.950 . S
C1600 C1586 1.377 . S
C1600 C1599 1.373 . S
C1601 C1585 1.377 . S
C1601 C1599 1.389 . S
C1601 C1602 1.524 . S
C1602 C1601 1.524 . S
C1602 C1603 1.397 . S
C1602 C1607 1.363 . S
C1603 H1574 0.950 . S
C1603 C1602 1.397 . S
C1603 C1604 1.334 . S
C1604 H1575 0.950 . S
C1604 C1603 1.334 . S
C1604 C1605 1.287 . S
C1605 C1604 1.287 . S
C1605 C1606 1.524 . S
C1605 H1608 0.999 . S
C1606 H1576 0.950 . S
C1606 C1605 1.524 . S
C1606 C1607 1.415 . S
C1607 H1577 0.950 . S
C1607 C1602 1.363 . S
C1607 C1606 1.415 . S
H1608 C1605 0.999 . S
H1609 C1590 0.913 . S
H1610 C1628 0.951 . S
H1611 C1630 0.951 . S
H1612 C1632 0.950 . S
H1613 C1633 0.950 . S
H1614 C1635 0.950 . S
H1615 C1638 0.950 . S
H1616 C1639 0.950 . S
H1617 C1641 0.950 . S
H1618 C1642 0.950 . S
H1619 C1643 0.951 . S
H1620 C1645 0.951 . S
H1621 C1647 0.950 . S
H1622 C1648 0.950 . S
H1623 C1650 0.950 . S
H1624 C1653 0.950 . S
H1625 C1654 0.950 . S
H1626 C1656 0.950 . S
H1627 C1657 0.950 . S
C1628 H1610 0.951 . S
C1628 C1629 1.366 . S
C1628 C1630 1.388 . S
C1629 C1628 1.366 . S
C1629 C1633 1.385 . S
C1630 H1611 0.951 . S
C1630 C1628 1.388 . S
C1630 C1631 1.366 . S
C1631 C1630 1.366 . S
C1631 C1632 1.414 . S
C1631 C1634 1.499 . S
C1632 H1612 0.950 . S
C1632 C1631 1.414 . S
C1632 C1633 1.374 . S
C1633 H1613 0.950 . S
C1633 C1629 1.385 . S
C1633 C1632 1.374 . S
C1634 C1631 1.499 . S
C1634 C1635 1.373 . S
C1634 C1636 1.389 1_565 S
C1635 H1614 0.950 . S
C1635 C1634 1.373 . S
C1635 C1651 1.377 . S
C1636 C1634 1.389 1_545 S
C1636 C1637 1.524 . S
C1636 C1650 1.377 . S
C1637 C1636 1.524 . S
C1637 C1638 1.397 1_545 S
C1637 C1642 1.363 . S
C1638 H1615 0.950 . S
C1638 C1637 1.397 1_565 S
C1638 C1639 1.334 . S
C1639 H1616 0.950 . S
C1639 C1638 1.334 . S
C1639 C1640 1.287 1_565 S
C1640 C1639 1.287 1_545 S
C1640 C1641 1.524 . S
C1640 H1659 0.913 . S
C1641 H1617 0.950 . S
C1641 C1640 1.524 . S
C1641 C1642 1.415 . S
C1642 H1618 0.950 . S
C1642 C1637 1.363 . S
C1642 C1641 1.415 . S
C1643 H1619 0.951 . S
C1643 C1644 1.366 . S
C1643 C1645 1.388 . S
C1644 C1643 1.366 . S
C1644 C1648 1.385 . S
C1645 H1620 0.951 . S
C1645 C1643 1.388 . S
C1645 C1646 1.366 . S
C1646 C1645 1.366 . S
C1646 C1647 1.414 . S
C1646 C1649 1.499 . S
C1647 H1621 0.950 . S
C1647 C1646 1.414 . S
C1647 C1648 1.374 . S
C1648 H1622 0.950 . S
C1648 C1644 1.385 . S
C1648 C1647 1.374 . S
C1649 C1646 1.499 . S
C1649 C1650 1.373 . S
C1649 C1651 1.389 1_545 S
C1650 H1623 0.950 . S
C1650 C1636 1.377 . S
C1650 C1649 1.373 . S
C1651 C1635 1.377 . S
C1651 C1649 1.389 1_565 S
C1651 C1652 1.524 . S
C1652 C1651 1.524 . S
C1652 C1653 1.397 1_565 S
C1652 C1657 1.363 . S
C1653 H1624 0.950 . S
C1653 C1652 1.397 1_545 S
C1653 C1654 1.334 . S
C1654 H1625 0.950 . S
C1654 C1653 1.334 . S
C1654 C1655 1.287 1_545 S
C1655 C1654 1.287 1_565 S
C1655 C1656 1.524 . S
C1655 H1658 0.999 . S
C1656 H1626 0.950 . S
C1656 C1655 1.524 . S
C1656 C1657 1.415 . S
C1657 H1627 0.950 . S
C1657 C1652 1.363 . S
C1657 C1656 1.415 . S
H1658 C1655 0.999 . S
H1659 C1640 0.913 . S
H1660 C1678 0.951 . S
H1661 C1680 0.951 . S
H1662 C1682 0.950 . S
H1663 C1683 0.950 . S
H1664 C1685 0.950 . S
H1665 C1688 0.950 . S
H1666 C1689 0.950 . S
H1667 C1691 0.950 . S
H1668 C1692 0.950 . S
H1669 C1693 0.951 . S
H1670 C1695 0.951 . S
H1671 C1697 0.950 . S
H1672 C1698 0.950 . S
H1673 C1700 0.950 . S
H1674 C1703 0.950 . S
H1675 C1704 0.950 . S
H1676 C1706 0.950 . S
H1677 C1707 0.950 . S
C1678 H1660 0.951 . S
C1678 C1679 1.366 . S
C1678 C1680 1.388 . S
C1679 C1678 1.366 . S
C1679 C1683 1.385 . S
C1680 H1661 0.951 . S
C1680 C1678 1.388 . S
C1680 C1681 1.366 . S
C1681 C1680 1.366 . S
C1681 C1682 1.414 . S
C1681 C1684 1.499 . S
C1682 H1662 0.950 . S
C1682 C1681 1.414 . S
C1682 C1683 1.374 . S
C1683 H1663 0.950 . S
C1683 C1679 1.385 . S
C1683 C1682 1.374 . S
C1684 C1681 1.499 . S
C1684 C1685 1.373 . S
C1684 C1686 1.389 1_655 S
C1685 H1664 0.950 . S
C1685 C1684 1.373 . S
C1685 C1701 1.377 . S
C1686 C1684 1.389 1_455 S
C1686 C1687 1.524 . S
C1686 C1700 1.377 . S
C1687 C1686 1.524 . S
C1687 C1688 1.397 . S
C1687 C1692 1.363 . S
C1688 H1665 0.950 . S
C1688 C1687 1.397 . S
C1688 C1689 1.334 . S
C1689 H1666 0.950 . S
C1689 C1688 1.334 . S
C1689 C1690 1.287 . S
C1690 C1689 1.287 . S
C1690 C1691 1.524 . S
C1690 H1709 0.913 . S
C1691 H1667 0.950 . S
C1691 C1690 1.524 . S
C1691 C1692 1.415 . S
C1692 H1668 0.950 . S
C1692 C1687 1.363 . S
C1692 C1691 1.415 . S
C1693 H1669 0.951 . S
C1693 C1694 1.366 . S
C1693 C1695 1.388 . S
C1694 C1693 1.366 . S
C1694 C1698 1.385 . S
C1695 H1670 0.951 . S
C1695 C1693 1.388 . S
C1695 C1696 1.366 . S
C1696 C1695 1.366 . S
C1696 C1697 1.414 . S
C1696 C1699 1.499 . S
C1697 H1671 0.950 . S
C1697 C1696 1.414 . S
C1697 C1698 1.374 . S
C1698 H1672 0.950 . S
C1698 C1694 1.385 . S
C1698 C1697 1.374 . S
C1699 C1696 1.499 . S
C1699 C1700 1.373 . S
C1699 C1701 1.389 1_455 S
C1700 H1673 0.950 . S
C1700 C1686 1.377 . S
C1700 C1699 1.373 . S
C1701 C1685 1.377 . S
C1701 C1699 1.389 1_655 S
C1701 C1702 1.524 . S
C1702 C1701 1.524 . S
C1702 C1703 1.397 . S
C1702 C1707 1.363 . S
C1703 H1674 0.950 . S
C1703 C1702 1.397 . S
C1703 C1704 1.334 . S
C1704 H1675 0.950 . S
C1704 C1703 1.334 . S
C1704 C1705 1.287 . S
C1705 C1704 1.287 . S
C1705 C1706 1.524 . S
C1705 H1708 0.999 . S
C1706 H1676 0.950 . S
C1706 C1705 1.524 . S
C1706 C1707 1.415 . S
C1707 H1677 0.950 . S
C1707 C1702 1.363 . S
C1707 C1706 1.415 . S
H1708 C1705 0.999 . S
H1709 C1690 0.913 . S
C379 C65 0.341 . S
C394 C4 0.458 . S
C429 C100 3.244 . S
C444 C71 3.270 . S
C479 C84 0.908 . S
C494 C20 0.908 . S
C529 C111 2.936 . S
C544 C60 2.920 . S
C579 C105 1.808 . S
C594 C31 1.806 . S
C629 C25 0.614 . S
C644 C44 0.697 . S
C679 C124 2.721 . S
C694 C180 2.742 . S
C729 C220 0.622 . S
C744 C164 0.616 . S
C779 C204 0.774 . S
C794 C140 0.774 . S
C829 C185 0.266 . S
C844 C231 0.224 . S
C879 C225 1.908 . S
C894 C151 1.905 . S
C929 C191 2.237 . S
C944 C145 2.243 . S
C979 C305 0.352 . S
C994 C244 0.472 . S
C1029 C311 3.309 . S
C1044 C340 3.284 . S
C1079 C324 0.923 . S
C1094 C260 0.923 . S
C1129 C351 2.873 . S
C1144 C300 2.858 . S
C1179 C345 1.820 1_455 S
C1194 C271 1.817 . S
C1229 C265 0.586 . S
C1244 C284 0.669 . S
C1279 C202 2.351 . S
C1294 C23 2.583 . S
C1329 C122 2.073 . S
C1344 C42 2.046 . S
C1379 C103 2.935 . S
C1394 C162 2.749 . S
C1429 C82 2.361 . S
C1444 C263 2.591 . S
C1479 C2 2.033 . S
C1494 C282 2.005 . S
C1529 C343 2.931 . S
C1544 C63 2.944 . S
C1579 C143 2.630 . S
C1594 C322 2.397 . S
C1629 C183 2.189 . S
C1644 C242 2.046 . S
C1679 C303 2.901 . S
C1694 C223 2.887 . S
