# Generated by pormake.
# Topology svf, (7)-cn, num edge types: 1
# Building blocks:
#     Node 0, Type 0, BuildingBlock: HICVOG_clean_sbu_0, # of connection points: 7
#     Node 1, Type 0, BuildingBlock: HICVOG_clean_sbu_0, # of connection points: 7
#     Node 2, Type 0, BuildingBlock: HICVOG_clean_sbu_0, # of connection points: 7
#     Node 3, Type 0, BuildingBlock: HICVOG_clean_sbu_0, # of connection points: 7
#     Node 4, Type 0, BuildingBlock: HICVOG_clean_sbu_0, # of connection points: 7
#     Node 5, Type 0, BuildingBlock: HICVOG_clean_sbu_0, # of connection points: 7
#     Node 6, Type 0, BuildingBlock: HICVOG_clean_sbu_0, # of connection points: 7
#     Node 7, Type 0, BuildingBlock: HICVOG_clean_sbu_0, # of connection points: 7
#     Edge 8, Type (0, 0), BuildingBlock: XIVTED_clean_linker_0, # of connection points: 2
#     Edge 9, Type (0, 0), BuildingBlock: XIVTED_clean_linker_0, # of connection points: 2
#     Edge 10, Type (0, 0), BuildingBlock: XIVTED_clean_linker_0, # of connection points: 2
#     Edge 11, Type (0, 0), BuildingBlock: XIVTED_clean_linker_0, # of connection points: 2
#     Edge 12, Type (0, 0), BuildingBlock: XIVTED_clean_linker_0, # of connection points: 2
#     Edge 13, Type (0, 0), BuildingBlock: XIVTED_clean_linker_0, # of connection points: 2
#     Edge 14, Type (0, 0), BuildingBlock: XIVTED_clean_linker_0, # of connection points: 2
#     Edge 15, Type (0, 0), BuildingBlock: XIVTED_clean_linker_0, # of connection points: 2
#     Edge 16, Type (0, 0), BuildingBlock: XIVTED_clean_linker_0, # of connection points: 2
#     Edge 17, Type (0, 0), BuildingBlock: XIVTED_clean_linker_0, # of connection points: 2
#     Edge 18, Type (0, 0), BuildingBlock: XIVTED_clean_linker_0, # of connection points: 2
#     Edge 19, Type (0, 0), BuildingBlock: XIVTED_clean_linker_0, # of connection points: 2
#     Edge 20, Type (0, 0), BuildingBlock: XIVTED_clean_linker_0, # of connection points: 2
#     Edge 21, Type (0, 0), BuildingBlock: XIVTED_clean_linker_0, # of connection points: 2
#     Edge 22, Type (0, 0), BuildingBlock: XIVTED_clean_linker_0, # of connection points: 2
#     Edge 23, Type (0, 0), BuildingBlock: XIVTED_clean_linker_0, # of connection points: 2
#     Edge 24, Type (0, 0), BuildingBlock: XIVTED_clean_linker_0, # of connection points: 2
#     Edge 25, Type (0, 0), BuildingBlock: XIVTED_clean_linker_0, # of connection points: 2
#     Edge 26, Type (0, 0), BuildingBlock: XIVTED_clean_linker_0, # of connection points: 2
#     Edge 27, Type (0, 0), BuildingBlock: XIVTED_clean_linker_0, # of connection points: 2
#     Edge 28, Type (0, 0), BuildingBlock: XIVTED_clean_linker_0, # of connection points: 2
#     Edge 29, Type (0, 0), BuildingBlock: XIVTED_clean_linker_0, # of connection points: 2
#     Edge 30, Type (0, 0), BuildingBlock: XIVTED_clean_linker_0, # of connection points: 2
#     Edge 31, Type (0, 0), BuildingBlock: XIVTED_clean_linker_0, # of connection points: 2
#     Edge 32, Type (0, 0), BuildingBlock: XIVTED_clean_linker_0, # of connection points: 2
#     Edge 33, Type (0, 0), BuildingBlock: XIVTED_clean_linker_0, # of connection points: 2
#     Edge 34, Type (0, 0), BuildingBlock: XIVTED_clean_linker_0, # of connection points: 2
#     Edge 35, Type (0, 0), BuildingBlock: XIVTED_clean_linker_0, # of connection points: 2
# Relax obj value: 0.350
# Max RMSD: 0.192
# Mean RMSD: 0.192
data_MOF--net-svf--node1-HICVOG_clean_sbu_0--edge1-XIVTED_clean_linker_0
_symmetry_space_group_name_H-M    P1
_symmetry_Int_Tables_number       1
_symmetry_cell_setting            triclinic
loop_
_symmetry_equiv_pos_as_xyz
'x, y, z'
_cell_length_a     33.643559
_cell_length_b     33.636465
_cell_length_c     23.835292
_cell_angle_alpha  88.864428
_cell_angle_beta   90.731366
_cell_angle_gamma 89.968023
loop_
_atom_site_label
_atom_site_type_symbol
_atom_site_fract_x
_atom_site_fract_y
_atom_site_fract_z
_atom_type_partial_charge
Zn0 Zn 0.17262 0.35527 1.01475 0.0
C1 C 0.22925 0.2957 0.14319 0.0
N2 N 0.24752 0.27751 0.10014 0.0
C3 C 0.22872 0.29308 1.05396 0.0
N4 N 0.20027 0.31956 1.06831 0.0
N5 N 0.2007 0.32137 0.1238 0.0
C6 C 0.20743 0.41677 0.19459 0.0
O7 O 0.20641 0.41856 0.13948 0.0
O8 O 0.13209 0.32592 0.96831 0.0
Zn9 Zn 0.1631 0.35109 0.16814 0.0
N10 N 0.21496 0.37405 0.96817 0.0
C11 C 0.28231 0.39495 0.96677 0.0
C12 C 0.24756 0.38754 0.99603 0.0
C13 C 0.21529 0.36816 0.91192 0.0
N14 N 0.28275 0.38922 0.91066 0.0
C15 C 0.25023 0.37608 0.88181 0.0
O16 O 0.12444 0.3911 0.13015 0.0
C17 C 0.11946 0.41126 0.08478 0.0
O18 O 0.13957 0.40333 1.04134 0.0
H19 H 0.24692 0.39086 1.04104 0.0
H20 H 0.18905 0.35621 0.89187 0.0
C21 C 0.09614 0.30344 0.18415 0.0
C22 C 0.07294 0.27298 0.20755 0.0
C23 C 0.12278 0.26219 0.27782 0.0
C24 C 0.14525 0.29313 0.25487 0.0
N25 N 0.13173 0.31257 0.20795 0.0
N26 N 0.08722 0.25294 0.25383 0.0
H27 H 0.08631 0.31988 0.14731 0.0
C28 C 0.09898 0.3189 0.99156 0.0
O29 O 0.09488 0.32756 1.04454 0.0
O30 O 0.19227 0.38685 0.21973 0.0
H31 H 0.17327 0.30125 0.27387 0.0
H32 H 0.30877 0.40512 0.98838 0.0
H33 H 0.13329 0.24592 0.31471 0.0
Zn34 Zn 0.67413 0.13618 0.14763 0.0
C35 C 0.7301 0.21268 1.04294 0.0
N36 N 0.74434 0.23011 0.08986 0.0
C37 C 0.72705 0.20901 0.13231 0.0
N38 N 0.70275 0.18014 0.1115 0.0
N39 N 0.70432 0.18306 1.05601 0.0
C40 C 0.72567 0.08856 0.98607 0.0
O41 O 0.7482 0.10164 1.02709 0.0
O42 O 0.6514 0.15198 0.22192 0.0
Zn43 Zn 0.67009 0.15642 1.00075 0.0
N44 N 0.70795 0.08932 0.14556 0.0
C45 C 0.71648 0.02388 0.11143 0.0
C46 C 0.69252 0.05679 0.12015 0.0
C47 C 0.74678 0.09019 0.1621 0.0
N48 N 0.75454 0.02406 0.13056 0.0
C49 C 0.7707 0.05609 0.15654 0.0
O50 O 0.6161 0.13239 1.02222 0.0
C51 C 0.60241 0.11653 1.06681 0.0
O52 O 0.6224 0.11752 0.11216 0.0
H53 H 0.66212 0.05655 0.10526 0.0
H54 H 0.75859 0.11713 0.17904 0.0
C55 C 0.66627 0.19292 0.88966 0.0
C56 C 0.66183 0.22616 0.85344 0.0
C57 C 0.64121 0.26467 0.93045 0.0
C58 C 0.6454 0.23166 0.96596 0.0
N59 N 0.65852 0.1968 0.9451 0.0
N60 N 0.64947 0.26114 0.8753 0.0
H61 H 0.67703 0.16477 0.87478 0.0
C62 C 0.62488 0.17834 0.21198 0.0
O63 O 0.62235 0.19426 0.16124 0.0
O64 O 0.69606 0.1088 0.96824 0.0
H65 H 0.63976 0.23404 1.01035 0.0
H66 H 0.70474 0.99806 0.09055 0.0
H67 H 0.63157 0.2929 0.94649 0.0
Zn68 Zn 0.84951 0.67924 1.00185 0.0
C69 C 0.7948 0.74268 0.12028 0.0
N70 N 0.77945 0.76235 1.07465 0.0
C71 C 0.79667 0.74346 1.0315 0.0
N72 N 0.82153 0.71433 1.05007 0.0
N73 N 0.82009 0.71338 0.10532 0.0
C74 C 0.80413 0.6155 0.18448 0.0
O75 O 0.80721 0.60746 0.13101 0.0
O76 O 0.88254 0.71292 0.9516 0.0
Zn77 Zn 0.85407 0.68241 0.15569 0.0
N78 N 0.80829 0.6557 0.95824 0.0
C79 C 0.74266 0.62988 0.95568 0.0
C80 C 0.77639 0.64086 0.98597 0.0
C81 C 0.80817 0.65999 0.9015 0.0
N82 N 0.74252 0.63385 0.89893 0.0
C83 C 0.77444 0.64856 0.87066 0.0
O84 O 0.89772 0.64567 0.12513 0.0
C85 C 0.90664 0.62819 0.07991 0.0
O86 O 0.88844 0.63681 1.03394 0.0
H87 H 0.77666 0.63915 1.03131 0.0
H88 H 0.8336 0.67325 0.88114 0.0
C89 C 0.86842 0.7203 0.25863 0.0
C90 C 0.87747 0.75312 0.29177 0.0
C91 C 0.90306 0.78676 0.21137 0.0
C92 C 0.89392 0.75406 0.17874 0.0
N93 N 0.87671 0.72166 0.20308 0.0
N94 N 0.89464 0.78554 0.26691 0.0
H95 H 0.85326 0.69462 0.27587 0.0
C96 C 0.91108 0.73261 0.97248 0.0
O97 O 0.91756 0.73085 1.02694 0.0
O98 O 0.82117 0.64616 0.20346 0.0
H99 H 0.89879 0.75506 0.13399 0.0
H100 H 0.71675 0.61845 0.97699 0.0
H101 H 0.91632 0.81306 0.19269 0.0
Zn102 Zn 0.36864 0.82292 1.01407 0.0
C103 C 0.28956 0.78242 0.12477 0.0
N104 N 0.27144 0.76519 0.08011 0.0
C105 C 0.29251 0.77949 1.03564 0.0
N106 N 0.32167 0.8045 1.05296 0.0
N107 N 0.31924 0.80689 0.108 0.0
C108 C 0.40088 0.83436 0.20177 0.0
O109 O 0.40668 0.8288 0.14827 0.0
O110 O 0.35367 0.84901 0.93914 0.0
Zn111 Zn 0.33196 0.85494 0.14782 0.0
N112 N 0.40249 0.77617 1.01664 0.0
C113 C 0.42423 0.72081 1.07322 0.0
C114 C 0.40305 0.75616 1.0669 0.0
C115 C 0.42166 0.76151 0.97183 0.0
N116 N 0.44334 0.70609 1.02853 0.0
C117 C 0.44213 0.72514 0.9777 0.0
O118 O 0.36462 0.89944 0.1093 0.0
C119 C 0.39378 0.89971 1.07561 0.0
O120 O 0.40071 0.86988 1.04504 0.0
H121 H 0.38648 0.767 0.10179 0.0
H122 H 0.42054 0.77778 0.9322 0.0
C123 C 0.26581 0.88668 0.2106 0.0
C124 C 0.22591 0.89869 0.21498 0.0
C125 C 0.21538 0.88583 0.11864 0.0
C126 C 0.25499 0.87476 0.1142 0.0
N127 N 0.27945 0.87542 0.16011 0.0
N128 N 0.20186 0.89801 0.16869 0.0
H129 H 0.28615 0.88734 0.2461 0.0
C130 C 0.33236 0.87894 0.95137 0.0
O131 O 0.3182 0.8806 1.00229 0.0
O132 O 0.36608 0.84377 0.21739 0.0
H133 H 0.26593 0.86488 1.07454 0.0
H134 H 0.42504 0.70491 0.11311 0.0
H135 H 0.19564 0.88522 0.08248 0.0
Zn136 Zn 0.16662 0.66197 0.66216 0.0
C137 C 0.22462 0.72074 0.5365 0.0
N138 N 0.2482 0.73272 0.57973 0.0
C139 C 0.22939 0.71808 0.62576 0.0
N140 N 0.19652 0.69716 0.61126 0.0
N141 N 0.19288 0.69964 0.55599 0.0
C142 C 0.18541 0.63623 0.45184 0.0
O143 O 0.19424 0.62733 0.50448 0.0
O144 O 0.13867 0.69442 0.71819 0.0
Zn145 Zn 0.14423 0.68498 0.51636 0.0
N146 N 0.20639 0.62976 0.69852 0.0
C147 C 0.25594 0.61772 0.76856 0.0
C148 C 0.22461 0.64065 0.74697 0.0
C149 C 0.21706 0.59625 0.67169 0.0
N150 N 0.26623 0.58384 0.74227 0.0
C151 C 0.24728 0.57205 0.69454 0.0
O152 O 0.11083 0.63738 0.54414 0.0
C153 C 0.10509 0.61551 0.58743 0.0
O154 O 0.12445 0.62205 0.63263 0.0
H155 H 0.21526 0.66709 0.76811 0.0
H156 H 0.2017 0.58852 0.63326 0.0
C157 C 0.07082 0.72767 0.52466 0.0
C158 C 0.04732 0.75985 0.54202 0.0
C159 C 0.10537 0.79964 0.54819 0.0
C160 C 0.12842 0.76756 0.53228 0.0
N161 N 0.11082 0.73217 0.52047 0.0
N162 N 0.06555 0.79506 0.55273 0.0
H163 H 0.05799 0.69903 0.51565 0.0
C164 C 0.11106 0.71676 0.69912 0.0
O165 O 0.10308 0.71707 0.6451 0.0
O166 O 0.16085 0.66435 0.44135 0.0
H167 H 0.16028 0.77072 0.53169 0.0
H168 H 0.27139 0.62627 0.80653 0.0
H169 H 0.11907 0.82782 0.55782 0.0
Zn170 Zn 0.33981 0.16069 0.53776 0.0
C171 C 0.30416 0.24102 0.64672 0.0
N172 N 0.2836 0.25625 0.6016 0.0
C173 C 0.29886 0.23658 0.55744 0.0
N174 N 0.32697 0.21001 0.57537 0.0
N175 N 0.33164 0.21409 0.6302 0.0
C176 C 0.34607 0.13269 0.72465 0.0
O177 O 0.33679 0.13139 0.67114 0.0
O178 O 0.36372 0.17489 0.46252 0.0
Zn179 Zn 0.37895 0.19439 0.67125 0.0
N180 N 0.29058 0.13024 0.54342 0.0
C181 C 0.23378 0.11598 0.59951 0.0
C182 C 0.26819 0.13766 0.58939 0.0
C183 C 0.27886 0.10256 0.50606 0.0
N184 N 0.22238 0.08796 0.56273 0.0
C185 C 0.24378 0.08101 0.51602 0.0
O186 O 0.41342 0.15019 0.63871 0.0
C187 C 0.41272 0.12367 0.60158 0.0
O188 O 0.3848 0.12323 0.56519 0.0
H189 H 0.27697 0.15993 0.61883 0.0
H190 H 0.29682 0.09709 0.46964 0.0
C191 C 0.45368 0.23153 0.66134 0.0
C192 C 0.47927 0.26216 0.6431 0.0
C193 C 0.4267 0.30848 0.65323 0.0
C194 C 0.40115 0.27771 0.66863 0.0
N195 N 0.41509 0.23972 0.67272 0.0
N196 N 0.46489 0.30001 0.64045 0.0
H197 H 0.46367 0.20116 0.66514 0.0
C198 C 0.39598 0.19311 0.47417 0.0
O199 O 0.40231 0.20409 0.52613 0.0
O200 O 0.36357 0.16371 0.74255 0.0
H201 H 0.37016 0.2842 0.67439 0.0
H202 H 0.21624 0.12136 0.63633 0.0
H203 H 0.41595 0.33876 0.64974 0.0
Zn204 Zn 0.84094 0.33999 0.50261 0.0
C205 C 0.78833 0.27963 0.63134 0.0
N206 N 0.77505 0.2565 0.58883 0.0
C207 C 0.78716 0.2765 0.54206 0.0
N208 N 0.80786 0.30967 0.55552 0.0
N209 N 0.80819 0.31198 0.61088 0.0
C210 C 0.87603 0.3187 0.71956 0.0
O211 O 0.88318 0.30584 0.66896 0.0
O212 O 0.80788 0.37488 0.45168 0.0
Zn213 Zn 0.82546 0.35951 0.64936 0.0
N214 N 0.86359 0.29855 0.45927 0.0
C215 C 0.89031 0.23321 0.46171 0.0
C216 C 0.87999 0.26774 0.4891 0.0
C217 C 0.85762 0.29672 0.40289 0.0
N218 N 0.88475 0.23139 0.40539 0.0
C219 C 0.86884 0.26224 0.37466 0.0
O220 O 0.87237 0.39141 0.61781 0.0
C221 C 0.89399 0.39651 0.57484 0.0
O222 O 0.88654 0.3773 0.53022 0.0
H223 H 0.88333 0.26946 0.53419 0.0
H224 H 0.84339 0.32144 0.38102 0.0
C225 C 0.78536 0.43445 0.64533 0.0
C226 C 0.75351 0.46001 0.63064 0.0
C227 C 0.71145 0.40382 0.62126 0.0
C228 C 0.74324 0.37876 0.63451 0.0
N229 N 0.77958 0.39449 0.64651 0.0
N230 N 0.7173 0.44368 0.61954 0.0
H231 H 0.81472 0.44569 0.65477 0.0
C232 C 0.79398 0.40729 0.46949 0.0
O233 O 0.79997 0.41631 0.52223 0.0
O234 O 0.8481 0.34378 0.72552 0.0
H235 H 0.73905 0.34699 0.63341 0.0
H236 H 0.90274 0.20807 0.48488 0.0
H237 H 0.68244 0.3917 0.61157 0.0
Zn238 Zn 0.70224 0.88789 0.51094 0.0
C239 C 0.74734 0.80414 0.61693 0.0
N240 N 0.76564 0.78969 0.57141 0.0
C241 C 0.75003 0.81214 0.52849 0.0
N242 N 0.72398 0.83962 0.54767 0.0
N243 N 0.72149 0.8335 0.60249 0.0
C244 C 0.71908 0.87069 0.73505 0.0
O245 O 0.73888 0.88449 0.69174 0.0
O246 O 0.67317 0.87494 0.43781 0.0
Zn247 Zn 0.67364 0.8414 0.64513 0.0
N248 N 0.74635 0.92509 0.51173 0.0
C249 C 0.78705 0.96224 0.57434 0.0
C250 C 0.75417 0.93811 0.56437 0.0
C251 C 0.77018 0.93557 0.46827 0.0
N252 N 0.8112 0.97225 0.53121 0.0
C253 C 0.80402 0.95913 0.47843 0.0
O254 O 0.63676 0.88956 0.62766 0.0
C255 C 0.63415 0.9174 0.59073 0.0
O256 O 0.65778 0.9185 0.5495 0.0
H257 H 0.73503 0.92939 0.59852 0.0
H258 H 0.76273 0.92624 0.4263 0.0
C259 C 0.62578 0.77292 0.67424 0.0
C260 C 0.60871 0.73558 0.66414 0.0
C261 C 0.63007 0.73925 0.5702 0.0
C262 C 0.64801 0.77567 0.58073 0.0
N263 N 0.64495 0.79229 0.6322 0.0
N264 N 0.61068 0.72001 0.61209 0.0
H265 H 0.62436 0.78627 0.71513 0.0
C266 C 0.64091 0.85779 0.45208 0.0
O267 O 0.63554 0.84954 0.50542 0.0
O268 O 0.6891 0.84848 0.72648 0.0
H269 H 0.665 0.78991 0.54817 0.0
H270 H 0.79343 0.97277 0.61608 0.0
H271 H 0.63204 0.7261 0.52928 0.0
H272 H 0.09003 0.45413 0.99266 0.0
H273 H 0.94561 0.59374 0.1715 0.0
H274 H 0.07867 0.44417 0.17238 0.0
H275 H 0.9415 0.5902 0.99076 0.0
H276 H 0.99715 0.54219 0.17241 0.0
H277 H 0.03914 0.50662 0.99095 0.0
C278 C 0.07708 0.46299 1.03185 0.0
C279 C 0.08905 0.44432 0.08276 0.0
C280 C 0.98504 0.55264 0.13248 0.0
C281 C 0.03024 0.50507 0.08105 0.0
C282 C 0.9555 0.58231 0.13188 0.0
C283 C 0.93874 0.59673 0.08096 0.0
C284 C 0.99863 0.53706 0.08177 0.0
C285 C 0.95317 0.58024 1.03117 0.0
C286 C 0.0478 0.493 1.03079 0.0
C287 C 0.07066 0.45734 0.132 0.0
N288 N 0.98212 0.55159 1.03285 0.0
N289 N 0.04252 0.48672 0.12989 0.0
H290 H 0.40513 0.9582 0.15383 0.0
H291 H 0.56747 0.08076 0.97535 0.0
H292 H 0.44532 0.92189 0.99159 0.0
H293 H 0.5553 0.09148 0.15428 0.0
H294 H 0.51475 0.03025 0.97595 0.0
H295 H 0.45221 0.01396 0.15021 0.0
C296 C 0.42359 0.96204 0.11722 0.0
C297 C 0.42117 0.93495 1.07307 0.0
C298 C 0.52332 0.04396 1.01499 0.0
C299 C 0.47521 0.99939 1.06844 0.0
C300 C 0.55322 0.07318 1.01462 0.0
C301 C 0.56601 0.09073 1.06483 0.0
C302 C 0.50546 0.03231 1.06582 0.0
C303 C 0.54659 0.07894 0.11449 0.0
C304 C 0.45062 0.99389 0.11529 0.0
C305 C 0.44619 0.94166 1.02688 0.0
N306 N 0.51748 0.05065 0.11371 0.0
N307 N 0.47192 0.9731 1.02571 0.0
H308 H 0.06596 0.58551 0.49463 0.0
H309 H 0.92657 0.43313 0.66727 0.0
H310 H 0.07484 0.56854 0.6741 0.0
H311 H 0.93731 0.43042 0.48736 0.0
H312 H 0.97796 0.48467 0.67037 0.0
H313 H 0.0167 0.5318 0.49104 0.0
C314 C 0.05767 0.5706 0.53343 0.0
C315 C 0.07503 0.58204 0.58483 0.0
C316 C 0.96929 0.47276 0.63015 0.0
C317 C 0.01762 0.51988 0.58087 0.0
C318 C 0.93975 0.44315 0.62826 0.0
C319 C 0.92723 0.42684 0.57691 0.0
C320 C 0.98661 0.48713 0.58028 0.0
C321 C 0.94584 0.44159 0.52804 0.0
C322 C 0.02943 0.5397 0.53124 0.0
C323 C 0.06266 0.56108 0.6334 0.0
N324 N 0.97417 0.47084 0.53092 0.0
N325 N 0.0348 0.53145 0.63024 0.0
H326 H 0.60181 0.96198 0.50383 0.0
H327 H 0.46175 0.0985 0.68882 0.0
H328 H 0.59117 0.94246 0.68232 0.0
H329 H 0.43785 0.078 0.51367 0.0
H330 H 0.51471 0.04814 0.6874 0.0
H331 H 0.5479 0.01092 0.50669 0.0
C332 C 0.58836 0.96809 0.54381 0.0
C333 C 0.60142 0.94786 0.59297 0.0
C334 C 0.49783 0.05459 0.64932 0.0
C335 C 0.53933 1.00473 0.59649 0.0
C336 C 0.46761 0.08351 0.64998 0.0
C337 C 0.44496 0.09266 0.60129 0.0
C338 C 0.50641 0.03503 0.59927 0.0
C339 C 0.45415 0.07194 0.55235 0.0
C340 C 0.55733 0.99599 0.54528 0.0
C341 C 0.58225 0.95709 0.6433 0.0
N342 N 0.48422 0.04454 0.55248 0.0
N343 N 0.55257 0.98499 0.64384 0.0
H344 H 0.23972 0.57698 0.46458 0.0
H345 H 0.20724 0.49385 0.15711 0.0
H346 H 0.16671 0.63701 0.33884 0.0
H347 H 0.23052 0.42043 0.30448 0.0
H348 H 0.2124 0.5531 0.21487 0.0
H349 H 0.25681 0.52709 0.39647 0.0
C350 C 0.22764 0.58002 0.42236 0.0
C351 C 0.20087 0.61064 0.40767 0.0
C352 C 0.2171 0.52402 0.23417 0.0
C353 C 0.22064 0.55361 0.32965 0.0
C354 C 0.21442 0.49025 0.20136 0.0
C355 C 0.21803 0.45227 0.22641 0.0
C356 C 0.2241 0.5196 0.29202 0.0
C357 C 0.2271 0.44921 0.28381 0.0
C358 C 0.23749 0.55148 0.3836 0.0
C359 C 0.18691 0.61347 0.35207 0.0
N360 N 0.22959 0.48252 0.31483 0.0
N361 N 0.19656 0.58486 0.31504 0.0
H362 H 0.47397 0.20375 0.5001 0.0
H363 H 0.55144 0.20818 0.1877 0.0
H364 H 0.39457 0.18621 0.35893 0.0
H365 H 0.62358 0.16294 0.32585 0.0
H366 H 0.49524 0.21381 0.25079 0.0
H367 H 0.53034 0.20232 0.43706 0.0
C368 C 0.46827 0.20006 0.45566 0.0
C369 C 0.42938 0.19515 0.43462 0.0
C370 C 0.52342 0.20284 0.26726 0.0
C371 C 0.49408 0.19368 0.36244 0.0
C372 C 0.55567 0.19991 0.23152 0.0
C373 C 0.59234 0.1851 0.25166 0.0
C374 C 0.528 0.19164 0.32382 0.0
C375 C 0.59584 0.17446 0.30867 0.0
C376 C 0.50059 0.19896 0.41989 0.0
C377 C 0.42403 0.19007 0.37679 0.0
N378 N 0.56404 0.17813 0.34295 0.0
N379 N 0.45611 0.18968 0.34251 0.0
H380 H 0.77382 0.48461 0.48932 0.0
H381 H 0.7784 0.53988 0.16346 0.0
H382 H 0.7785 0.3985 0.35753 0.0
H383 H 0.78925 0.62518 0.2958 0.0
H384 H 0.76056 0.48899 0.23326 0.0
H385 H 0.76138 0.53682 0.41856 0.0
C386 C 0.7715 0.47655 0.44561 0.0
C387 C 0.77824 0.43733 0.4291 0.0
C388 C 0.76624 0.519 0.2469 0.0
C389 C 0.76428 0.4969 0.34806 0.0
C390 C 0.77637 0.54809 0.20704 0.0
C391 C 0.78628 0.58654 0.22405 0.0
C392 C 0.76612 0.5285 0.30404 0.0
C393 C 0.78268 0.59564 0.28099 0.0
C394 C 0.76448 0.5064 0.40521 0.0
C395 C 0.77432 0.42852 0.37199 0.0
N396 N 0.77348 0.56666 0.31907 0.0
N397 N 0.76825 0.45819 0.33342 0.0
H398 H 0.638 0.86911 0.33678 0.0
H399 H 0.4027 0.83746 0.31736 0.0
H400 H 0.5669 0.83194 0.47803 0.0
H401 H 0.47871 0.83251 0.17301 0.0
H402 H 0.46225 0.8414 0.37773 0.0
H403 H 0.57919 0.86152 0.27548 0.0
C404 C 0.61023 0.85919 0.35479 0.0
C405 C 0.60742 0.85123 0.41255 0.0
C406 C 0.46574 0.83922 0.3328 0.0
C407 C 0.54024 0.84307 0.3433 0.0
C408 C 0.4318 0.837 0.29846 0.0
C409 C 0.43571 0.83454 0.24019 0.0
C410 C 0.50368 0.83958 0.30848 0.0
C411 C 0.4742 0.83416 0.2178 0.0
C412 C 0.57673 0.85487 0.31993 0.0
C413 C 0.57061 0.83848 0.43376 0.0
N414 N 0.50663 0.83695 0.25188 0.0
N415 N 0.5385 0.8351 0.3993 0.0
H416 H 0.82113 0.50706 0.61789 0.0
H417 H 0.71048 0.65729 0.79994 0.0
H418 H 0.69424 0.51451 0.64144 0.0
H419 H 0.8373 0.63766 0.79946 0.0
H420 H 0.70599 0.63045 0.70579 0.0
H421 H 0.82735 0.57592 0.64642 0.0
C422 C 0.79449 0.52303 0.62877 0.0
C423 C 0.7574 0.50392 0.63158 0.0
C424 C 0.73501 0.63323 0.72556 0.0
C425 C 0.76437 0.58307 0.66263 0.0
C426 C 0.73756 0.64846 0.77941 0.0
C427 C 0.77398 0.64781 0.8087 0.0
C428 C 0.76892 0.6162 0.70202 0.0
C429 C 0.8083 0.63759 0.77936 0.0
C430 C 0.79804 0.56269 0.64408 0.0
C431 C 0.72374 0.52733 0.64136 0.0
N432 N 0.80476 0.62089 0.72823 0.0
N433 N 0.72814 0.56535 0.65816 0.0
H434 H 0.63309 0.72108 0.77199 0.0
H435 H 0.41819 0.72152 0.86785 0.0
H436 H 0.53622 0.70111 0.65575 0.0
H437 H 0.5142 0.68912 0.98153 0.0
H438 H 0.45949 0.70333 0.78899 0.0
H439 H 0.5912 0.69798 0.84884 0.0
C440 C 0.6031 0.71118 0.7628 0.0
C441 C 0.58728 0.71419 0.70831 0.0
C442 C 0.47127 0.69931 0.83122 0.0
C443 C 0.53935 0.6883 0.79524 0.0
C444 C 0.4479 0.71021 0.87607 0.0
C445 C 0.46362 0.70824 0.93072 0.0
C446 C 0.51076 0.68736 0.84136 0.0
C447 C 0.50152 0.69191 0.93965 0.0
C448 C 0.57932 0.69765 0.80641 0.0
C449 C 0.54893 0.69993 0.69772 0.0
N450 N 0.52434 0.68306 0.89517 0.0
N451 N 0.52569 0.6886 0.74122 0.0
H452 H 0.18801 0.37776 0.80315 0.0
H453 H 0.31755 0.53145 0.69413 0.0
H454 H 0.31608 0.37257 0.81576 0.0
H455 H 0.19367 0.51972 0.6486 0.0
H456 H 0.32337 0.45935 0.69772 0.0
H457 H 0.1935 0.40719 0.71053 0.0
C458 C 0.21745 0.38156 0.78624 0.0
C459 C 0.25179 0.37569 0.81955 0.0
C460 C 0.29514 0.47236 0.68499 0.0
C461 C 0.25802 0.41146 0.71399 0.0
C462 C 0.29187 0.51369 0.68306 0.0
C463 C 0.25469 0.53158 0.67387 0.0
C464 C 0.2605 0.44911 0.68064 0.0
C465 C 0.22274 0.50727 0.65783 0.0
C466 C 0.22058 0.39864 0.73269 0.0
C467 C 0.28873 0.37951 0.79319 0.0
N468 N 0.226 0.46719 0.66375 0.0
N469 N 0.29102 0.39877 0.74279 0.0
H470 H 0.53909 0.31698 0.63426 0.0
H471 H 0.6506 0.1613 0.78516 0.0
H472 H 0.5181 0.19102 0.61816 0.0
H473 H 0.68191 0.28569 0.77977 0.0
H474 H 0.62754 0.16688 0.6887 0.0
H475 H 0.60959 0.30362 0.64458 0.0
C476 C 0.54912 0.28644 0.63235 0.0
C477 C 0.52192 0.25482 0.63115 0.0
C478 C 0.64077 0.19277 0.70774 0.0
C479 C 0.60278 0.23927 0.64472 0.0
C480 C 0.65418 0.18953 0.76326 0.0
C481 C 0.66565 0.22384 0.79183 0.0
C482 C 0.63738 0.23072 0.68223 0.0
C483 C 0.67084 0.25903 0.76023 0.0
C484 C 0.58969 0.2788 0.63795 0.0
C485 C 0.53728 0.21625 0.62503 0.0
N486 N 0.65536 0.262 0.70756 0.0
N487 N 0.57659 0.20938 0.63427 0.0
H488 H 0.66988 0.87227 0.82563 0.0
H489 H 0.79442 0.04745 0.96498 0.0
H490 H 0.7866 0.90768 0.77081 0.0
H491 H 0.66667 0.03704 0.9629 0.0
H492 H 0.79875 0.98191 0.92068 0.0
H493 H 0.67678 0.91666 0.90523 0.0
C494 C 0.69741 0.88849 0.83122 0.0
C495 C 0.7272 0.88738 0.79073 0.0
C496 C 0.7699 0.99383 0.93095 0.0
C497 C 0.73511 0.93819 0.88105 0.0
C498 C 0.76746 0.03107 0.95594 0.0
C499 C 0.73015 0.04785 0.96583 0.0
C500 C 0.73478 0.97328 0.91732 0.0
C501 C 0.69598 0.02548 0.95428 0.0
C502 C 0.70125 0.91395 0.87645 0.0
C503 C 0.76246 0.90864 0.80037 0.0
N504 N 0.6991 0.98947 0.93031 0.0
N505 N 0.76518 0.93386 0.84403 0.0
H506 H 0.04078 0.75457 0.67503 0.0
H507 H 0.98706 0.75577 0.99769 0.0
H508 H 0.1233 0.72846 0.81108 0.0
H509 H 0.90147 0.75166 0.86144 0.0
H510 H 0.03912 0.77085 0.9299 0.0
H511 H 0.99289 0.7782 0.74296 0.0
C512 C 0.04913 0.75451 0.71909 0.0
C513 C 0.08547 0.73833 0.73779 0.0
C514 C 1.00876 0.76755 0.91504 0.0
C515 C 0.031 0.76526 0.81536 0.0
C516 C 0.97903 0.75904 0.95368 0.0
C517 C 0.94023 0.75125 0.9348 0.0
C518 C 0.99941 0.76826 0.85744 0.0
C519 C 0.93131 0.75639 0.87749 0.0
C520 C 0.02179 0.76803 0.75779 0.0
C521 C 0.09507 0.73965 0.79514 0.0
N522 N 0.96087 0.76387 0.84063 0.0
N523 N 0.06766 0.75218 0.8321 0.0
H524 H 0.33569 0.05816 0.68603 0.0
H525 H 0.30999 0.95271 0.98295 0.0
H526 H 0.34873 0.12244 0.84022 0.0
H527 H 0.35305 0.88931 0.84005 0.0
H528 H 0.31347 0.01466 0.9289 0.0
H529 H 0.33178 0.99615 0.73987 0.0
C530 C 0.33743 0.05935 0.73138 0.0
C531 C 0.34235 0.09572 0.75877 0.0
C532 C 0.32204 0.98722 0.90933 0.0
C533 C 0.33774 0.02436 0.82053 0.0
C534 C 0.31975 0.95163 0.93988 0.0
C535 C 0.33112 0.91553 0.91587 0.0
C536 C 0.33511 0.98688 0.85389 0.0
C537 C 0.3439 0.91636 0.86011 0.0
C538 C 0.33548 0.02377 0.76194 0.0
C539 C 0.34487 0.09512 0.81751 0.0
N540 N 0.34535 0.95153 0.83081 0.0
N541 N 0.34223 0.05993 0.84658 0.0
H542 H 0.94085 0.27045 0.71527 0.0
H543 H 0.02095 0.32201 1.02174 0.0
H544 H 0.87528 0.34329 0.82918 0.0
H545 H 0.09668 0.29166 0.88403 0.0
H546 H 0.96276 0.31363 0.96051 0.0
H547 H 0.99277 0.26157 0.78652 0.0
C548 C 0.93705 0.2842 0.75556 0.0
C549 C 0.90396 0.30832 0.76592 0.0
C550 C 0.99211 0.30835 0.94403 0.0
C551 C 0.96347 0.29807 0.84768 0.0
C552 C 0.02535 0.31294 0.9789 0.0
C553 C 0.06377 0.30801 0.95764 0.0
C554 C 0.99734 0.29822 0.88783 0.0
C555 C 0.06764 0.29617 0.90192 0.0
C556 C 0.96683 0.27914 0.79613 0.0
C557 C 0.90053 0.32489 0.81921 0.0
N558 N 0.03481 0.29188 0.86882 0.0
N559 N 0.9302 0.31976 0.85806 0.0
H560 H 0.17582 0.96131 0.22016 0.0
H561 H 0.22626 1.00391 0.53964 0.0
H562 H 0.24287 0.87876 0.32532 0.0
H563 H 0.2283 0.09141 0.40502 0.0
H564 H 0.20593 0.95323 0.47183 0.0
H565 H 0.16586 1.00313 0.30124 0.0
C566 C 0.18748 0.9514 0.26065 0.0
C567 C 0.2115 0.91745 0.26591 0.0
C568 C 0.21021 0.98371 0.45765 0.0
C569 C 0.20007 0.96481 0.35797 0.0
C570 C 0.22193 0.01234 0.49587 0.0
C571 C 0.2297 0.05121 0.47698 0.0
C572 C 0.2053 0.99474 0.40101 0.0
C573 C 0.22337 0.06134 0.42047 0.0
C574 C 0.18186 0.97532 0.30666 0.0
C575 C 0.22549 0.90564 0.31934 0.0
N576 N 0.21159 0.0331 0.3842 0.0
N577 N 0.22019 0.92982 0.36347 0.0
H578 H 0.01926 0.32494 0.15623 0.0
H579 H 0.8687 0.19587 0.31007 0.0
H580 H 0.03251 0.20272 0.21234 0.0
H581 H 0.87102 0.32398 0.29547 0.0
H582 H 0.90421 0.19228 0.22189 0.0
H583 H 0.94769 0.31614 0.15331 0.0
C584 C 1.00747 0.29572 0.16592 0.0
C585 C 0.03198 0.26491 0.18718 0.0
C586 C 0.89548 0.22117 0.23686 0.0
C587 C 0.94975 0.25526 0.18508 0.0
C588 C 0.87531 0.22329 0.28745 0.0
C589 C 0.86975 0.26028 0.31257 0.0
C590 C 0.91058 0.25626 0.21246 0.0
C591 C 0.87672 0.29464 0.27975 0.0
C592 C 0.96632 0.29077 0.16414 0.0
C593 C 0.01456 0.22779 0.19821 0.0
N594 N 0.8982 0.29185 0.23221 0.0
N595 N 0.9744 0.22427 0.19854 0.0
H596 H 0.81156 0.10783 0.2291 0.0
H597 H 0.83029 0.91606 0.38961 0.0
H598 H 0.82179 0.99267 0.15304 0.0
H599 H 0.83747 0.03205 0.46287 0.0
H600 H 0.857 0.94372 0.30268 0.0
H601 H 0.85253 0.0843 0.30636 0.0
C602 C 0.8227 0.07778 0.22748 0.0
C603 C 0.8095 0.05088 0.18674 0.0
C604 C 0.85375 0.96309 0.33809 0.0
C605 C 0.85634 0.02378 0.27644 0.0
C606 C 0.8381 0.9473 0.38754 0.0
C607 C 0.82967 0.9724 0.43207 0.0
C608 C 0.85944 1.00443 0.33271 0.0
C609 C 0.84218 0.01207 0.42851 0.0
C610 C 0.84664 0.06435 0.27211 0.0
C611 C 0.82842 0.01361 0.18576 0.0
N612 N 0.85522 0.02724 0.3789 0.0
N613 N 0.84948 1.00047 0.23132 0.0
H614 H 0.99804 0.69367 0.55504 0.0
H615 H 0.86528 0.816 0.36035 0.0
H616 H 0.99476 0.82167 0.53744 0.0
H617 H 0.87697 0.68813 0.36474 0.0
H618 H 0.88211 0.8168 0.46007 0.0
H619 H 0.92857 0.69129 0.52562 0.0
C620 C 0.98282 0.72135 0.54536 0.0
C621 C 1.00331 0.75773 0.5436 0.0
C622 C 0.87974 0.78842 0.4396 0.0
C623 C 0.92372 0.75511 0.51087 0.0
C624 C 0.87043 0.78799 0.3825 0.0
C625 C 0.87225 0.75225 0.35331 0.0
C626 C 0.89263 0.75308 0.46657 0.0
C627 C 0.87686 0.71672 0.38465 0.0
C628 C 0.9428 0.72 0.52957 0.0
C629 C 0.9809 0.79268 0.53594 0.0
N630 N 0.88827 0.71814 0.43931 0.0
N631 N 0.94261 0.79046 0.51796 0.0
H632 H 0.28824 0.18357 0.46979 0.0
H633 H 0.25547 0.34815 0.2237 0.0
H634 H 0.28093 0.30828 0.50406 0.0
H635 H 0.23034 0.22415 0.20194 0.0
H636 H 0.26946 0.33478 0.32401 0.0
H637 H 0.27211 0.19776 0.37137 0.0
C638 C 0.2836 0.214 0.45704 0.0
C639 C 0.28671 0.24451 0.49644 0.0
C640 C 0.26046 0.31047 0.29761 0.0
C641 C 0.26765 0.26158 0.38118 0.0
C642 C 0.25177 0.31829 0.24027 0.0
C643 C 0.23965 0.2877 0.2044 0.0
C644 C 0.25821 0.27136 0.31974 0.0
C645 C 0.23875 0.24891 0.22785 0.0
C646 C 0.27402 0.22218 0.40019 0.0
C647 C 0.27904 0.28349 0.47589 0.0
N648 N 0.24768 0.24195 0.28354 0.0
N649 N 0.27034 0.29087 0.42013 0.0
H650 H 0.74955 0.27989 0.17811 0.0
H651 H 0.79033 0.20187 0.49436 0.0
H652 H 0.72396 0.15912 0.2282 0.0
H653 H 0.75794 0.32284 0.45485 0.0
H654 H 0.77558 0.18438 0.39595 0.0
H655 H 0.76362 0.29532 0.27661 0.0
C656 C 0.74673 0.25643 0.20958 0.0
C657 C 0.73484 0.21799 0.19377 0.0
C658 C 0.77208 0.21489 0.40869 0.0
C659 C 0.75187 0.23563 0.30819 0.0
C660 C 0.78047 0.2249 0.46499 0.0
C661 C 0.77713 0.26445 0.48273 0.0
C662 C 0.76023 0.24459 0.36933 0.0
C663 C 0.76354 0.2927 0.44256 0.0
C664 C 0.75474 0.2654 0.26612 0.0
C665 C 0.73229 0.18916 0.23739 0.0
N666 N 0.7561 0.28245 0.38813 0.0
N667 N 0.74089 0.1984 0.29206 0.0
H668 H 0.7462 0.86261 0.43585 0.0
H669 H 0.76719 0.69474 0.2058 0.0
H670 H 0.77102 0.74111 0.48175 0.0
H671 H 0.8 0.81593 0.16973 0.0
H672 H 0.75881 0.71124 0.30498 0.0
H673 H 0.75652 0.84713 0.33683 0.0
C674 C 0.75377 0.8328 0.4252 0.0
C675 C 0.75762 0.80357 0.46768 0.0
C676 C 0.76811 0.73423 0.27555 0.0
C677 C 0.76869 0.78464 0.35346 0.0
C678 C 0.77358 0.72459 0.21903 0.0
C679 C 0.78623 0.7534 0.17978 0.0
C680 C 0.77404 0.77349 0.29307 0.0
C681 C 0.79081 0.79256 0.1986 0.0
C682 C 0.75974 0.8238 0.36852 0.0
C683 C 0.76775 0.76494 0.45086 0.0
N684 N 0.78479 0.80143 0.25369 0.0
N685 N 0.77242 0.75655 0.39538 0.0
H686 H 0.34045 0.77246 0.21433 0.0
H687 H 0.17168 0.73713 0.44727 0.0
H688 H 0.21554 0.77177 0.17398 0.0
H689 H 0.29695 0.73035 0.48483 0.0
H690 H 0.18662 0.75183 0.34911 0.0
H691 H 0.32499 0.76002 0.31342 0.0
C692 C 0.30964 0.77066 0.2265 0.0
C693 C 0.27935 0.77449 0.18552 0.0
C694 C 0.21097 0.74699 0.37861 0.0
C695 C 0.26105 0.75845 0.30007 0.0
C696 C 0.20239 0.73824 0.43528 0.0
C697 C 0.23287 0.73119 0.47536 0.0
C698 C 0.25063 0.74953 0.36092 0.0
C699 C 0.27218 0.73493 0.456 0.0
C700 C 0.30079 0.76287 0.28324 0.0
C701 C 0.23999 0.7694 0.20382 0.0
N702 N 0.27983 0.74357 0.40069 0.0
N703 N 0.23203 0.76188 0.2594 0.0
H704 H 0.70485 0.75241 0.68512 0.0
H705 H 0.84381 0.78578 0.95889 0.0
H706 H 0.81005 0.82491 0.68407 0.0
H707 H 0.73199 0.72408 0.96559 0.0
H708 H 0.83333 0.79786 0.85774 0.0
H709 H 0.71554 0.73856 0.78598 0.0
C710 C 0.73006 0.76559 0.70616 0.0
C711 C 0.75595 0.79072 0.67625 0.0
C712 C 0.81099 0.78162 0.8811 0.0
C713 C 0.76925 0.77415 0.79202 0.0
C714 C 0.81708 0.77463 0.93895 0.0
C715 C 0.78908 0.75335 0.97069 0.0
C716 C 0.77644 0.76736 0.85422 0.0
C717 C 0.75447 0.74047 0.94275 0.0
C718 C 0.73637 0.75747 0.76381 0.0
C719 C 0.78919 0.80555 0.70541 0.0
N720 N 0.74924 0.74744 0.88632 0.0
N721 N 0.79472 0.7973 0.76139 0.0
H722 H 0.30181 0.70845 0.68134 0.0
H723 H 0.21984 0.76446 0.9856 0.0
H724 H 0.18395 0.75392 0.70476 0.0
H725 H 0.34395 0.77131 0.94651 0.0
H726 H 0.20511 0.7507 0.88634 0.0
H727 H 0.31772 0.72305 0.78037 0.0
C728 C 0.27912 0.72115 0.70738 0.0
C729 C 0.24072 0.7281 0.68521 0.0
C730 C 0.23567 0.75524 0.89949 0.0
C731 C 0.2587 0.74489 0.79912 0.0
C732 C 0.24417 0.76292 0.9564 0.0
C733 C 0.28345 0.76955 0.9751 0.0
C734 C 0.26671 0.75308 0.86049 0.0
C735 C 0.31343 0.76707 0.93461 0.0
C736 C 0.28819 0.72944 0.76402 0.0
C737 C 0.21293 0.7455 0.72091 0.0
N738 N 0.30461 0.75886 0.87979 0.0
N739 N 0.22217 0.75277 0.77583 0.0
H740 H 0.18009 0.27183 0.9655 0.0
H741 H 0.35231 0.23599 0.7432 0.0
H742 H 0.30328 0.29049 1.00658 0.0
H743 H 0.23343 0.26762 0.69049 0.0
H744 H 0.3345 0.2479 0.84038 0.0
H745 H 0.19793 0.2623 0.86684 0.0
C746 C 0.21078 0.27486 0.95358 0.0
C747 C 0.23983 0.28384 0.99434 0.0
C748 C 0.31222 0.25226 0.80764 0.0
C749 C 0.2612 0.27047 0.8811 0.0
C750 C 0.32236 0.2451 0.75156 0.0
C751 C 0.29454 0.25029 0.70732 0.0
C752 C 0.2734 0.26398 0.8209 0.0
C753 C 0.25624 0.26318 0.72244 0.0
C754 C 0.22111 0.26877 0.89723 0.0
C755 C 0.27967 0.28421 0.97679 0.0
N756 N 0.24677 0.2691 0.7775 0.0
N757 N 0.28911 0.27775 0.92188 0.0
H758 H 0.78313 0.20627 0.68381 0.0
H759 H 0.73593 0.28755 0.99321 0.0
H760 H 0.77436 0.33071 0.72008 0.0
H761 H 0.75357 0.16406 0.95784 0.0
H762 H 0.75127 0.30444 0.89464 0.0
H763 H 0.77199 0.19043 0.78346 0.0
C764 C 0.77914 0.23042 0.71259 0.0
C765 C 0.78086 0.27011 0.69281 0.0
C766 C 0.75193 0.27358 0.90839 0.0
C767 C 0.76785 0.25201 0.80851 0.0
C768 C 0.74325 0.26392 0.9649 0.0
C769 C 0.74234 0.22406 0.98396 0.0
C770 C 0.76043 0.24325 0.87025 0.0
C771 C 0.75259 0.19494 0.94505 0.0
C772 C 0.77296 0.2213 0.76984 0.0
C773 C 0.7747 0.2998 0.73275 0.0
N774 N 0.76092 0.20498 0.89051 0.0
N775 N 0.76868 0.29026 0.78816 0.0
loop_
_geom_bond_atom_site_label_1
_geom_bond_atom_site_label_2
_geom_bond_distance
_geom_bond_site_symmetry_2
_ccdc_geom_bond_type
Zn0 N4 2.020 . S
Zn0 O8 2.019 . S
Zn0 N10 2.119 . S
Zn0 O18 1.975 . S
C1 N2 1.334 . S
C1 N5 1.336 . S
N2 C1 1.334 . S
N2 C3 1.334 1_554 S
C3 N2 1.334 1_556 S
C3 N4 1.336 . S
N4 Zn0 2.020 . S
N4 C3 1.336 . S
N4 N5 1.354 1_556 S
N5 C1 1.336 . S
N5 N4 1.354 1_554 S
N5 Zn9 2.020 . S
C6 O7 1.244 . S
C6 O30 1.257 . S
O7 C6 1.244 . S
O8 Zn0 2.019 . S
O8 C28 1.257 . S
Zn9 N5 2.020 . S
Zn9 O16 1.975 . S
Zn9 N25 2.119 . S
Zn9 O30 2.019 . S
N10 Zn0 2.119 . S
N10 C12 1.334 . S
N10 C13 1.328 . S
C11 C12 1.391 . S
C11 N14 1.329 . S
C11 H32 0.930 . S
C12 N10 1.334 . S
C12 C11 1.391 . S
C12 H19 0.930 . S
C13 N10 1.328 . S
C13 C15 1.392 . S
C13 H20 0.930 . S
N14 C11 1.329 . S
N14 C15 1.331 . S
C15 C13 1.392 . S
C15 N14 1.331 . S
O16 Zn9 1.975 . S
O16 C17 1.252 . S
C17 O16 1.252 . S
C17 O18 1.252 1_554 S
O18 Zn0 1.975 . S
O18 C17 1.252 1_556 S
H19 C12 0.930 . S
H20 C13 0.930 . S
C21 C22 1.392 . S
C21 N25 1.328 . S
C21 H27 0.930 . S
C22 C21 1.392 . S
C22 N26 1.331 . S
C23 C24 1.391 . S
C23 N26 1.329 . S
C23 H33 0.930 . S
C24 C23 1.391 . S
C24 N25 1.334 . S
C24 H31 0.930 . S
N25 Zn9 2.119 . S
N25 C21 1.328 . S
N25 C24 1.334 . S
N26 C22 1.331 . S
N26 C23 1.329 . S
H27 C21 0.930 . S
C28 O8 1.257 . S
C28 O29 1.244 . S
O29 C28 1.244 . S
O30 C6 1.257 . S
O30 Zn9 2.019 . S
H31 C24 0.930 . S
H32 C11 0.930 . S
H33 C23 0.930 . S
Zn34 N38 2.020 . S
Zn34 O42 2.019 . S
Zn34 N44 2.119 . S
Zn34 O52 1.975 . S
C35 N36 1.334 1_556 S
C35 N39 1.336 . S
N36 C35 1.334 1_554 S
N36 C37 1.334 . S
C37 N36 1.334 . S
C37 N38 1.336 . S
N38 Zn34 2.020 . S
N38 C37 1.336 . S
N38 N39 1.354 1_554 S
N39 C35 1.336 . S
N39 N38 1.354 1_556 S
N39 Zn43 2.020 . S
C40 O41 1.244 . S
C40 O64 1.257 . S
O41 C40 1.244 . S
O42 Zn34 2.019 . S
O42 C62 1.257 . S
Zn43 N39 2.020 . S
Zn43 O50 1.975 . S
Zn43 N59 2.119 . S
Zn43 O64 2.019 . S
N44 Zn34 2.119 . S
N44 C46 1.334 . S
N44 C47 1.328 . S
C45 C46 1.391 . S
C45 N48 1.329 . S
C45 H66 0.930 . S
C46 N44 1.334 . S
C46 C45 1.391 . S
C46 H53 0.930 . S
C47 N44 1.328 . S
C47 C49 1.392 . S
C47 H54 0.930 . S
N48 C45 1.329 . S
N48 C49 1.331 . S
C49 C47 1.392 . S
C49 N48 1.331 . S
O50 Zn43 1.975 . S
O50 C51 1.252 1_556 S
C51 O50 1.252 1_554 S
C51 O52 1.252 . S
O52 Zn34 1.975 . S
O52 C51 1.252 . S
H53 C46 0.930 . S
H54 C47 0.930 . S
C55 C56 1.392 . S
C55 N59 1.328 . S
C55 H61 0.930 . S
C56 C55 1.392 . S
C56 N60 1.331 . S
C57 C58 1.391 . S
C57 N60 1.329 . S
C57 H67 0.930 . S
C58 C57 1.391 . S
C58 N59 1.334 . S
C58 H65 0.930 . S
N59 Zn43 2.119 . S
N59 C55 1.328 . S
N59 C58 1.334 . S
N60 C56 1.331 . S
N60 C57 1.329 . S
H61 C55 0.930 . S
C62 O42 1.257 . S
C62 O63 1.244 . S
O63 C62 1.244 . S
O64 C40 1.257 . S
O64 Zn43 2.019 . S
H65 C58 0.930 . S
H66 C45 0.930 . S
H67 C57 0.930 . S
Zn68 N72 2.020 . S
Zn68 O76 2.019 . S
Zn68 N78 2.119 . S
Zn68 O86 1.975 . S
C69 N70 1.334 . S
C69 N73 1.336 . S
N70 C69 1.334 . S
N70 C71 1.334 1_554 S
C71 N70 1.334 1_556 S
C71 N72 1.336 . S
N72 Zn68 2.020 . S
N72 C71 1.336 . S
N72 N73 1.354 1_556 S
N73 C69 1.336 . S
N73 N72 1.354 1_554 S
N73 Zn77 2.020 . S
C74 O75 1.244 . S
C74 O98 1.257 . S
O75 C74 1.244 . S
O76 Zn68 2.019 . S
O76 C96 1.257 . S
Zn77 N73 2.020 . S
Zn77 O84 1.975 . S
Zn77 N93 2.119 . S
Zn77 O98 2.019 . S
N78 Zn68 2.119 . S
N78 C80 1.334 . S
N78 C81 1.328 . S
C79 C80 1.391 . S
C79 N82 1.329 . S
C79 H100 0.930 . S
C80 N78 1.334 . S
C80 C79 1.391 . S
C80 H87 0.930 . S
C81 N78 1.328 . S
C81 C83 1.392 . S
C81 H88 0.930 . S
N82 C79 1.329 . S
N82 C83 1.331 . S
C83 C81 1.392 . S
C83 N82 1.331 . S
O84 Zn77 1.975 . S
O84 C85 1.252 . S
C85 O84 1.252 . S
C85 O86 1.252 1_554 S
O86 Zn68 1.975 . S
O86 C85 1.252 1_556 S
H87 C80 0.930 . S
H88 C81 0.930 . S
C89 C90 1.392 . S
C89 N93 1.328 . S
C89 H95 0.930 . S
C90 C89 1.392 . S
C90 N94 1.331 . S
C91 C92 1.391 . S
C91 N94 1.329 . S
C91 H101 0.930 . S
C92 C91 1.391 . S
C92 N93 1.334 . S
C92 H99 0.930 . S
N93 Zn77 2.119 . S
N93 C89 1.328 . S
N93 C92 1.334 . S
N94 C90 1.331 . S
N94 C91 1.329 . S
H95 C89 0.930 . S
C96 O76 1.257 . S
C96 O97 1.244 . S
O97 C96 1.244 . S
O98 C74 1.257 . S
O98 Zn77 2.019 . S
H99 C92 0.930 . S
H100 C79 0.930 . S
H101 C91 0.930 . S
Zn102 N106 2.020 . S
Zn102 O110 2.019 . S
Zn102 N112 2.119 . S
Zn102 O120 1.975 . S
C103 N104 1.334 . S
C103 N107 1.336 . S
N104 C103 1.334 . S
N104 C105 1.334 1_554 S
C105 N104 1.334 1_556 S
C105 N106 1.336 . S
N106 Zn102 2.020 . S
N106 C105 1.336 . S
N106 N107 1.354 1_556 S
N107 C103 1.336 . S
N107 N106 1.354 1_554 S
N107 Zn111 2.020 . S
C108 O109 1.244 . S
C108 O132 1.257 . S
O109 C108 1.244 . S
O110 Zn102 2.019 . S
O110 C130 1.257 . S
Zn111 N107 2.020 . S
Zn111 O118 1.975 . S
Zn111 N127 2.119 . S
Zn111 O132 2.019 . S
N112 Zn102 2.119 . S
N112 C114 1.334 . S
N112 C115 1.328 . S
C113 C114 1.391 . S
C113 N116 1.329 . S
C113 H134 0.930 . S
C114 N112 1.334 . S
C114 C113 1.391 . S
C114 H121 0.930 . S
C115 N112 1.328 . S
C115 C117 1.392 . S
C115 H122 0.930 . S
N116 C113 1.329 . S
N116 C117 1.331 . S
C117 C115 1.392 . S
C117 N116 1.331 . S
O118 Zn111 1.975 . S
O118 C119 1.252 . S
C119 O118 1.252 . S
C119 O120 1.252 1_554 S
O120 Zn102 1.975 . S
O120 C119 1.252 1_556 S
H121 C114 0.930 . S
H122 C115 0.930 . S
C123 C124 1.392 . S
C123 N127 1.328 . S
C123 H129 0.930 . S
C124 C123 1.392 . S
C124 N128 1.331 . S
C125 C126 1.391 . S
C125 N128 1.329 . S
C125 H135 0.930 . S
C126 C125 1.391 . S
C126 N127 1.334 . S
C126 H133 0.930 . S
N127 Zn111 2.119 . S
N127 C123 1.328 . S
N127 C126 1.334 . S
N128 C124 1.331 . S
N128 C125 1.329 . S
H129 C123 0.930 . S
C130 O110 1.257 . S
C130 O131 1.244 . S
O131 C130 1.244 . S
O132 C108 1.257 . S
O132 Zn111 2.019 . S
H133 C126 0.930 . S
H134 C113 0.930 . S
H135 C125 0.930 . S
Zn136 N140 2.020 . S
Zn136 O144 2.019 . S
Zn136 N146 2.119 . S
Zn136 O154 1.975 . S
C137 N138 1.334 . S
C137 N141 1.336 . S
N138 C137 1.334 . S
N138 C139 1.334 . S
C139 N138 1.334 . S
C139 N140 1.336 . S
N140 Zn136 2.020 . S
N140 C139 1.336 . S
N140 N141 1.354 . S
N141 C137 1.336 . S
N141 N140 1.354 . S
N141 Zn145 2.020 . S
C142 O143 1.244 . S
C142 O166 1.257 . S
O143 C142 1.244 . S
O144 Zn136 2.019 . S
O144 C164 1.257 . S
Zn145 N141 2.020 . S
Zn145 O152 1.975 . S
Zn145 N161 2.119 . S
Zn145 O166 2.019 . S
N146 Zn136 2.119 . S
N146 C148 1.334 . S
N146 C149 1.328 . S
C147 C148 1.391 . S
C147 N150 1.329 . S
C147 H168 0.930 . S
C148 N146 1.334 . S
C148 C147 1.391 . S
C148 H155 0.930 . S
C149 N146 1.328 . S
C149 C151 1.392 . S
C149 H156 0.930 . S
N150 C147 1.329 . S
N150 C151 1.331 . S
C151 C149 1.392 . S
C151 N150 1.331 . S
O152 Zn145 1.975 . S
O152 C153 1.252 . S
C153 O152 1.252 . S
C153 O154 1.252 . S
O154 Zn136 1.975 . S
O154 C153 1.252 . S
H155 C148 0.930 . S
H156 C149 0.930 . S
C157 C158 1.392 . S
C157 N161 1.328 . S
C157 H163 0.930 . S
C158 C157 1.392 . S
C158 N162 1.331 . S
C159 C160 1.391 . S
C159 N162 1.329 . S
C159 H169 0.930 . S
C160 C159 1.391 . S
C160 N161 1.334 . S
C160 H167 0.930 . S
N161 Zn145 2.119 . S
N161 C157 1.328 . S
N161 C160 1.334 . S
N162 C158 1.331 . S
N162 C159 1.329 . S
H163 C157 0.930 . S
C164 O144 1.257 . S
C164 O165 1.244 . S
O165 C164 1.244 . S
O166 C142 1.257 . S
O166 Zn145 2.019 . S
H167 C160 0.930 . S
H168 C147 0.930 . S
H169 C159 0.930 . S
Zn170 N174 2.020 . S
Zn170 O178 2.019 . S
Zn170 N180 2.119 . S
Zn170 O188 1.975 . S
C171 N172 1.334 . S
C171 N175 1.336 . S
N172 C171 1.334 . S
N172 C173 1.334 . S
C173 N172 1.334 . S
C173 N174 1.336 . S
N174 Zn170 2.020 . S
N174 C173 1.336 . S
N174 N175 1.354 . S
N175 C171 1.336 . S
N175 N174 1.354 . S
N175 Zn179 2.020 . S
C176 O177 1.244 . S
C176 O200 1.257 . S
O177 C176 1.244 . S
O178 Zn170 2.019 . S
O178 C198 1.257 . S
Zn179 N175 2.020 . S
Zn179 O186 1.975 . S
Zn179 N195 2.119 . S
Zn179 O200 2.019 . S
N180 Zn170 2.119 . S
N180 C182 1.334 . S
N180 C183 1.328 . S
C181 C182 1.391 . S
C181 N184 1.329 . S
C181 H202 0.930 . S
C182 N180 1.334 . S
C182 C181 1.391 . S
C182 H189 0.930 . S
C183 N180 1.328 . S
C183 C185 1.392 . S
C183 H190 0.930 . S
N184 C181 1.329 . S
N184 C185 1.331 . S
C185 C183 1.392 . S
C185 N184 1.331 . S
O186 Zn179 1.975 . S
O186 C187 1.252 . S
C187 O186 1.252 . S
C187 O188 1.252 . S
O188 Zn170 1.975 . S
O188 C187 1.252 . S
H189 C182 0.930 . S
H190 C183 0.930 . S
C191 C192 1.392 . S
C191 N195 1.328 . S
C191 H197 0.930 . S
C192 C191 1.392 . S
C192 N196 1.331 . S
C193 C194 1.391 . S
C193 N196 1.329 . S
C193 H203 0.930 . S
C194 C193 1.391 . S
C194 N195 1.334 . S
C194 H201 0.930 . S
N195 Zn179 2.119 . S
N195 C191 1.328 . S
N195 C194 1.334 . S
N196 C192 1.331 . S
N196 C193 1.329 . S
H197 C191 0.930 . S
C198 O178 1.257 . S
C198 O199 1.244 . S
O199 C198 1.244 . S
O200 C176 1.257 . S
O200 Zn179 2.019 . S
H201 C194 0.930 . S
H202 C181 0.930 . S
H203 C193 0.930 . S
Zn204 N208 2.020 . S
Zn204 O212 2.019 . S
Zn204 N214 2.119 . S
Zn204 O222 1.975 . S
C205 N206 1.334 . S
C205 N209 1.336 . S
N206 C205 1.334 . S
N206 C207 1.334 . S
C207 N206 1.334 . S
C207 N208 1.336 . S
N208 Zn204 2.020 . S
N208 C207 1.336 . S
N208 N209 1.354 . S
N209 C205 1.336 . S
N209 N208 1.354 . S
N209 Zn213 2.020 . S
C210 O211 1.244 . S
C210 O234 1.257 . S
O211 C210 1.244 . S
O212 Zn204 2.019 . S
O212 C232 1.257 . S
Zn213 N209 2.020 . S
Zn213 O220 1.975 . S
Zn213 N229 2.119 . S
Zn213 O234 2.019 . S
N214 Zn204 2.119 . S
N214 C216 1.334 . S
N214 C217 1.328 . S
C215 C216 1.391 . S
C215 N218 1.329 . S
C215 H236 0.930 . S
C216 N214 1.334 . S
C216 C215 1.391 . S
C216 H223 0.930 . S
C217 N214 1.328 . S
C217 C219 1.392 . S
C217 H224 0.930 . S
N218 C215 1.329 . S
N218 C219 1.331 . S
C219 C217 1.392 . S
C219 N218 1.331 . S
O220 Zn213 1.975 . S
O220 C221 1.252 . S
C221 O220 1.252 . S
C221 O222 1.252 . S
O222 Zn204 1.975 . S
O222 C221 1.252 . S
H223 C216 0.930 . S
H224 C217 0.930 . S
C225 C226 1.392 . S
C225 N229 1.328 . S
C225 H231 0.930 . S
C226 C225 1.392 . S
C226 N230 1.331 . S
C227 C228 1.391 . S
C227 N230 1.329 . S
C227 H237 0.930 . S
C228 C227 1.391 . S
C228 N229 1.334 . S
C228 H235 0.930 . S
N229 Zn213 2.119 . S
N229 C225 1.328 . S
N229 C228 1.334 . S
N230 C226 1.331 . S
N230 C227 1.329 . S
H231 C225 0.930 . S
C232 O212 1.257 . S
C232 O233 1.244 . S
O233 C232 1.244 . S
O234 C210 1.257 . S
O234 Zn213 2.019 . S
H235 C228 0.930 . S
H236 C215 0.930 . S
H237 C227 0.930 . S
Zn238 N242 2.020 . S
Zn238 O246 2.019 . S
Zn238 N248 2.119 . S
Zn238 O256 1.975 . S
C239 N240 1.334 . S
C239 N243 1.336 . S
N240 C239 1.334 . S
N240 C241 1.334 . S
C241 N240 1.334 . S
C241 N242 1.336 . S
N242 Zn238 2.020 . S
N242 C241 1.336 . S
N242 N243 1.354 . S
N243 C239 1.336 . S
N243 N242 1.354 . S
N243 Zn247 2.020 . S
C244 O245 1.244 . S
C244 O268 1.257 . S
O245 C244 1.244 . S
O246 Zn238 2.019 . S
O246 C266 1.257 . S
Zn247 N243 2.020 . S
Zn247 O254 1.975 . S
Zn247 N263 2.119 . S
Zn247 O268 2.019 . S
N248 Zn238 2.119 . S
N248 C250 1.334 . S
N248 C251 1.328 . S
C249 C250 1.391 . S
C249 N252 1.329 . S
C249 H270 0.930 . S
C250 N248 1.334 . S
C250 C249 1.391 . S
C250 H257 0.930 . S
C251 N248 1.328 . S
C251 C253 1.392 . S
C251 H258 0.930 . S
N252 C249 1.329 . S
N252 C253 1.331 . S
C253 C251 1.392 . S
C253 N252 1.331 . S
O254 Zn247 1.975 . S
O254 C255 1.252 . S
C255 O254 1.252 . S
C255 O256 1.252 . S
O256 Zn238 1.975 . S
O256 C255 1.252 . S
H257 C250 0.930 . S
H258 C251 0.930 . S
C259 C260 1.392 . S
C259 N263 1.328 . S
C259 H265 0.930 . S
C260 C259 1.392 . S
C260 N264 1.331 . S
C261 C262 1.391 . S
C261 N264 1.329 . S
C261 H271 0.930 . S
C262 C261 1.391 . S
C262 N263 1.334 . S
C262 H269 0.930 . S
N263 Zn247 2.119 . S
N263 C259 1.328 . S
N263 C262 1.334 . S
N264 C260 1.331 . S
N264 C261 1.329 . S
H265 C259 0.930 . S
C266 O246 1.257 . S
C266 O267 1.244 . S
O267 C266 1.244 . S
O268 C244 1.257 . S
O268 Zn247 2.019 . S
H269 C262 0.930 . S
H270 C249 0.930 . S
H271 C261 0.930 . S
H272 C278 0.930 . S
H273 C282 0.930 . S
H274 C287 0.929 . S
H275 C285 0.929 . S
H276 C280 0.929 . S
H277 C286 0.929 . S
C278 H272 0.930 . S
C278 C279 1.386 . S
C278 C286 1.378 . S
C279 C278 1.386 . S
C279 C287 1.414 1_556 S
C280 H276 0.929 . S
C280 C282 1.378 . S
C280 C284 1.350 . S
C281 C284 1.463 1_456 S
C281 C286 1.350 . S
C281 N289 1.427 1_556 S
C282 H273 0.930 . S
C282 C280 1.378 . S
C282 C283 1.367 . S
C283 C282 1.367 . S
C283 C285 1.433 1_554 S
C284 C280 1.350 . S
C284 C281 1.463 1_654 S
C284 N288 1.427 1_554 S
C285 H275 0.929 . S
C285 C283 1.433 1_556 S
C285 N288 1.384 . S
C286 H277 0.929 . S
C286 C278 1.378 . S
C286 C281 1.350 . S
C287 H274 0.929 . S
C287 C279 1.414 1_554 S
C287 N289 1.384 . S
N288 C284 1.427 1_556 S
N288 C285 1.384 . S
N289 C281 1.427 1_554 S
N289 C287 1.384 . S
H290 C296 0.930 . S
H291 C300 0.930 . S
H292 C305 0.929 . S
H293 C303 0.929 . S
H294 C298 0.929 1_565 S
H295 C304 0.929 1_545 S
C296 H290 0.930 . S
C296 C297 1.372 . S
C296 C304 1.378 . S
C297 C296 1.372 . S
C297 C305 1.428 1_554 S
C298 H294 0.929 1_545 S
C298 C300 1.378 . S
C298 C302 1.356 . S
C299 C302 1.462 1_564 S
C299 C304 1.358 . S
C299 N307 1.419 1_554 S
C300 H291 0.930 . S
C300 C298 1.378 . S
C300 C301 1.370 . S
C301 C300 1.370 . S
C301 C303 1.430 1_556 S
C302 C298 1.356 . S
C302 C299 1.462 1_546 S
C302 N306 1.421 1_556 S
C303 H293 0.929 . S
C303 C301 1.430 1_554 S
C303 N306 1.384 . S
C304 H295 0.929 1_565 S
C304 C296 1.378 . S
C304 C299 1.358 . S
C305 H292 0.929 . S
C305 C297 1.428 1_556 S
C305 N307 1.384 . S
N306 C302 1.421 1_554 S
N306 C303 1.384 . S
N307 C299 1.419 1_556 S
N307 C305 1.384 . S
H308 C314 0.930 . S
H309 C318 0.930 . S
H310 C323 0.929 . S
H311 C321 0.929 . S
H312 C316 0.929 . S
H313 C322 0.929 . S
C314 H308 0.930 . S
C314 C315 1.367 . S
C314 C322 1.378 . S
C315 C314 1.367 . S
C315 C323 1.433 . S
C316 H312 0.929 . S
C316 C318 1.378 . S
C316 C320 1.350 . S
C317 C320 1.463 1_455 S
C317 C322 1.350 . S
C317 N325 1.427 . S
C318 H309 0.930 . S
C318 C316 1.378 . S
C318 C319 1.367 . S
C319 C318 1.367 . S
C319 C321 1.433 . S
C320 C316 1.350 . S
C320 C317 1.463 1_655 S
C320 N324 1.427 . S
C321 H311 0.929 . S
C321 C319 1.433 . S
C321 N324 1.384 . S
C322 H313 0.929 . S
C322 C314 1.378 . S
C322 C317 1.350 . S
C323 H310 0.929 . S
C323 C315 1.433 . S
C323 N325 1.384 . S
N324 C320 1.427 . S
N324 C321 1.384 . S
N325 C317 1.427 . S
N325 C323 1.384 . S
H326 C332 0.930 . S
H327 C336 0.930 . S
H328 C341 0.929 . S
H329 C339 0.929 . S
H330 C334 0.929 . S
H331 C340 0.929 . S
C332 H326 0.930 . S
C332 C333 1.367 . S
C332 C340 1.378 . S
C333 C332 1.367 . S
C333 C341 1.433 . S
C334 H330 0.929 . S
C334 C336 1.378 . S
C334 C338 1.350 . S
C335 C338 1.463 1_565 S
C335 C340 1.350 . S
C335 N343 1.427 . S
C336 H327 0.930 . S
C336 C334 1.378 . S
C336 C337 1.367 . S
C337 C336 1.367 . S
C337 C339 1.433 . S
C338 C334 1.350 . S
C338 C335 1.463 1_545 S
C338 N342 1.427 . S
C339 H329 0.929 . S
C339 C337 1.433 . S
C339 N342 1.384 . S
C340 H331 0.929 . S
C340 C332 1.378 . S
C340 C335 1.350 . S
C341 H328 0.929 . S
C341 C333 1.433 . S
C341 N343 1.384 . S
N342 C338 1.427 . S
N342 C339 1.384 . S
N343 C335 1.427 . S
N343 C341 1.384 . S
H344 C350 0.930 . S
H345 C354 0.930 . S
H346 C359 0.929 . S
H347 C357 0.929 . S
H348 C352 0.929 . S
H349 C358 0.929 . S
C350 H344 0.930 . S
C350 C351 1.367 . S
C350 C358 1.378 . S
C351 C350 1.367 . S
C351 C359 1.433 . S
C352 H348 0.929 . S
C352 C354 1.378 . S
C352 C356 1.350 . S
C353 C356 1.463 . S
C353 C358 1.350 . S
C353 N361 1.427 . S
C354 H345 0.930 . S
C354 C352 1.378 . S
C354 C355 1.367 . S
C355 C354 1.367 . S
C355 C357 1.433 . S
C356 C352 1.350 . S
C356 C353 1.463 . S
C356 N360 1.427 . S
C357 H347 0.929 . S
C357 C355 1.433 . S
C357 N360 1.384 . S
C358 H349 0.929 . S
C358 C350 1.378 . S
C358 C353 1.350 . S
C359 H346 0.929 . S
C359 C351 1.433 . S
C359 N361 1.384 . S
N360 C356 1.427 . S
N360 C357 1.384 . S
N361 C353 1.427 . S
N361 C359 1.384 . S
H362 C368 0.930 . S
H363 C372 0.930 . S
H364 C377 0.929 . S
H365 C375 0.929 . S
H366 C370 0.929 . S
H367 C376 0.929 . S
C368 H362 0.930 . S
C368 C369 1.367 . S
C368 C376 1.378 . S
C369 C368 1.367 . S
C369 C377 1.433 . S
C370 H366 0.929 . S
C370 C372 1.378 . S
C370 C374 1.350 . S
C371 C374 1.463 . S
C371 C376 1.350 . S
C371 N379 1.427 . S
C372 H363 0.930 . S
C372 C370 1.378 . S
C372 C373 1.367 . S
C373 C372 1.367 . S
C373 C375 1.433 . S
C374 C370 1.350 . S
C374 C371 1.463 . S
C374 N378 1.427 . S
C375 H365 0.929 . S
C375 C373 1.433 . S
C375 N378 1.384 . S
C376 H367 0.929 . S
C376 C368 1.378 . S
C376 C371 1.350 . S
C377 H364 0.929 . S
C377 C369 1.433 . S
C377 N379 1.384 . S
N378 C374 1.427 . S
N378 C375 1.384 . S
N379 C371 1.427 . S
N379 C377 1.384 . S
H380 C386 0.930 . S
H381 C390 0.930 . S
H382 C395 0.929 . S
H383 C393 0.929 . S
H384 C388 0.929 . S
H385 C394 0.929 . S
C386 H380 0.930 . S
C386 C387 1.367 . S
C386 C394 1.378 . S
C387 C386 1.367 . S
C387 C395 1.433 . S
C388 H384 0.929 . S
C388 C390 1.378 . S
C388 C392 1.350 . S
C389 C392 1.463 . S
C389 C394 1.350 . S
C389 N397 1.427 . S
C390 H381 0.930 . S
C390 C388 1.378 . S
C390 C391 1.367 . S
C391 C390 1.367 . S
C391 C393 1.433 . S
C392 C388 1.350 . S
C392 C389 1.463 . S
C392 N396 1.427 . S
C393 H383 0.929 . S
C393 C391 1.433 . S
C393 N396 1.384 . S
C394 H385 0.929 . S
C394 C386 1.378 . S
C394 C389 1.350 . S
C395 H382 0.929 . S
C395 C387 1.433 . S
C395 N397 1.384 . S
N396 C392 1.427 . S
N396 C393 1.384 . S
N397 C389 1.427 . S
N397 C395 1.384 . S
H398 C404 0.930 . S
H399 C408 0.930 . S
H400 C413 0.929 . S
H401 C411 0.929 . S
H402 C406 0.929 . S
H403 C412 0.929 . S
C404 H398 0.930 . S
C404 C405 1.367 . S
C404 C412 1.378 . S
C405 C404 1.367 . S
C405 C413 1.433 . S
C406 H402 0.929 . S
C406 C408 1.378 . S
C406 C410 1.350 . S
C407 C410 1.463 . S
C407 C412 1.350 . S
C407 N415 1.427 . S
C408 H399 0.930 . S
C408 C406 1.378 . S
C408 C409 1.367 . S
C409 C408 1.367 . S
C409 C411 1.433 . S
C410 C406 1.350 . S
C410 C407 1.463 . S
C410 N414 1.427 . S
C411 H401 0.929 . S
C411 C409 1.433 . S
C411 N414 1.384 . S
C412 H403 0.929 . S
C412 C404 1.378 . S
C412 C407 1.350 . S
C413 H400 0.929 . S
C413 C405 1.433 . S
C413 N415 1.384 . S
N414 C410 1.427 . S
N414 C411 1.384 . S
N415 C407 1.427 . S
N415 C413 1.384 . S
H416 C422 0.930 . S
H417 C426 0.930 . S
H418 C431 0.929 . S
H419 C429 0.929 . S
H420 C424 0.929 . S
H421 C430 0.929 . S
C422 H416 0.930 . S
C422 C423 1.367 . S
C422 C430 1.378 . S
C423 C422 1.367 . S
C423 C431 1.433 . S
C424 H420 0.929 . S
C424 C426 1.378 . S
C424 C428 1.350 . S
C425 C428 1.463 . S
C425 C430 1.350 . S
C425 N433 1.427 . S
C426 H417 0.930 . S
C426 C424 1.378 . S
C426 C427 1.367 . S
C427 C426 1.367 . S
C427 C429 1.433 . S
C428 C424 1.350 . S
C428 C425 1.463 . S
C428 N432 1.427 . S
C429 H419 0.929 . S
C429 C427 1.433 . S
C429 N432 1.384 . S
C430 H421 0.929 . S
C430 C422 1.378 . S
C430 C425 1.350 . S
C431 H418 0.929 . S
C431 C423 1.433 . S
C431 N433 1.384 . S
N432 C428 1.427 . S
N432 C429 1.384 . S
N433 C425 1.427 . S
N433 C431 1.384 . S
H434 C440 0.930 . S
H435 C444 0.930 . S
H436 C449 0.929 . S
H437 C447 0.929 . S
H438 C442 0.929 . S
H439 C448 0.929 . S
C440 H434 0.930 . S
C440 C441 1.367 . S
C440 C448 1.378 . S
C441 C440 1.367 . S
C441 C449 1.433 . S
C442 H438 0.929 . S
C442 C444 1.378 . S
C442 C446 1.350 . S
C443 C446 1.463 . S
C443 C448 1.350 . S
C443 N451 1.427 . S
C444 H435 0.930 . S
C444 C442 1.378 . S
C444 C445 1.367 . S
C445 C444 1.367 . S
C445 C447 1.433 . S
C446 C442 1.350 . S
C446 C443 1.463 . S
C446 N450 1.427 . S
C447 H437 0.929 . S
C447 C445 1.433 . S
C447 N450 1.384 . S
C448 H439 0.929 . S
C448 C440 1.378 . S
C448 C443 1.350 . S
C449 H436 0.929 . S
C449 C441 1.433 . S
C449 N451 1.384 . S
N450 C446 1.427 . S
N450 C447 1.384 . S
N451 C443 1.427 . S
N451 C449 1.384 . S
H452 C458 0.930 . S
H453 C462 0.930 . S
H454 C467 0.929 . S
H455 C465 0.929 . S
H456 C460 0.929 . S
H457 C466 0.929 . S
C458 H452 0.930 . S
C458 C459 1.367 . S
C458 C466 1.378 . S
C459 C458 1.367 . S
C459 C467 1.433 . S
C460 H456 0.929 . S
C460 C462 1.378 . S
C460 C464 1.350 . S
C461 C464 1.463 . S
C461 C466 1.350 . S
C461 N469 1.427 . S
C462 H453 0.930 . S
C462 C460 1.378 . S
C462 C463 1.367 . S
C463 C462 1.367 . S
C463 C465 1.433 . S
C464 C460 1.350 . S
C464 C461 1.463 . S
C464 N468 1.427 . S
C465 H455 0.929 . S
C465 C463 1.433 . S
C465 N468 1.384 . S
C466 H457 0.929 . S
C466 C458 1.378 . S
C466 C461 1.350 . S
C467 H454 0.929 . S
C467 C459 1.433 . S
C467 N469 1.384 . S
N468 C464 1.427 . S
N468 C465 1.384 . S
N469 C461 1.427 . S
N469 C467 1.384 . S
H470 C476 0.930 . S
H471 C480 0.930 . S
H472 C485 0.929 . S
H473 C483 0.929 . S
H474 C478 0.929 . S
H475 C484 0.929 . S
C476 H470 0.930 . S
C476 C477 1.367 . S
C476 C484 1.378 . S
C477 C476 1.367 . S
C477 C485 1.433 . S
C478 H474 0.929 . S
C478 C480 1.378 . S
C478 C482 1.350 . S
C479 C482 1.463 . S
C479 C484 1.350 . S
C479 N487 1.427 . S
C480 H471 0.930 . S
C480 C478 1.378 . S
C480 C481 1.367 . S
C481 C480 1.367 . S
C481 C483 1.433 . S
C482 C478 1.350 . S
C482 C479 1.463 . S
C482 N486 1.427 . S
C483 H473 0.929 . S
C483 C481 1.433 . S
C483 N486 1.384 . S
C484 H475 0.929 . S
C484 C476 1.378 . S
C484 C479 1.350 . S
C485 H472 0.929 . S
C485 C477 1.433 . S
C485 N487 1.384 . S
N486 C482 1.427 . S
N486 C483 1.384 . S
N487 C479 1.427 . S
N487 C485 1.384 . S
H488 C494 0.930 . S
H489 C498 0.930 . S
H490 C503 0.929 . S
H491 C501 0.929 . S
H492 C496 0.929 . S
H493 C502 0.929 . S
C494 H488 0.930 . S
C494 C495 1.367 . S
C494 C502 1.378 . S
C495 C494 1.367 . S
C495 C503 1.433 . S
C496 H492 0.929 . S
C496 C498 1.378 . S
C496 C500 1.350 . S
C497 C500 1.463 1_565 S
C497 C502 1.350 . S
C497 N505 1.427 . S
C498 H489 0.930 . S
C498 C496 1.378 . S
C498 C499 1.367 . S
C499 C498 1.367 . S
C499 C501 1.433 . S
C500 C496 1.350 . S
C500 C497 1.463 1_545 S
C500 N504 1.427 . S
C501 H491 0.929 . S
C501 C499 1.433 . S
C501 N504 1.384 . S
C502 H493 0.929 . S
C502 C494 1.378 . S
C502 C497 1.350 . S
C503 H490 0.929 . S
C503 C495 1.433 . S
C503 N505 1.384 . S
N504 C500 1.427 . S
N504 C501 1.384 . S
N505 C497 1.427 . S
N505 C503 1.384 . S
H506 C512 0.930 . S
H507 C516 0.930 . S
H508 C521 0.929 . S
H509 C519 0.929 . S
H510 C514 0.929 1_455 S
H511 C520 0.929 1_655 S
C512 H506 0.930 . S
C512 C513 1.367 . S
C512 C520 1.378 . S
C513 C512 1.367 . S
C513 C521 1.433 . S
C514 H510 0.929 1_655 S
C514 C516 1.378 . S
C514 C518 1.350 . S
C515 C518 1.463 1_455 S
C515 C520 1.350 . S
C515 N523 1.427 . S
C516 H507 0.930 . S
C516 C514 1.378 . S
C516 C517 1.367 . S
C517 C516 1.367 . S
C517 C519 1.433 . S
C518 C514 1.350 . S
C518 C515 1.463 1_655 S
C518 N522 1.427 . S
C519 H509 0.929 . S
C519 C517 1.433 . S
C519 N522 1.384 . S
C520 H511 0.929 1_455 S
C520 C512 1.378 . S
C520 C515 1.350 . S
C521 H508 0.929 . S
C521 C513 1.433 . S
C521 N523 1.384 . S
N522 C518 1.427 . S
N522 C519 1.384 . S
N523 C515 1.427 . S
N523 C521 1.384 . S
H524 C530 0.930 . S
H525 C534 0.930 . S
H526 C539 0.929 . S
H527 C537 0.929 . S
H528 C532 0.929 1_545 S
H529 C538 0.929 1_565 S
C530 H524 0.930 . S
C530 C531 1.367 . S
C530 C538 1.378 . S
C531 C530 1.367 . S
C531 C539 1.433 . S
C532 H528 0.929 1_565 S
C532 C534 1.378 . S
C532 C536 1.350 . S
C533 C536 1.463 1_545 S
C533 C538 1.350 . S
C533 N541 1.427 . S
C534 H525 0.930 . S
C534 C532 1.378 . S
C534 C535 1.367 . S
C535 C534 1.367 . S
C535 C537 1.433 . S
C536 C532 1.350 . S
C536 C533 1.463 1_565 S
C536 N540 1.427 . S
C537 H527 0.929 . S
C537 C535 1.433 . S
C537 N540 1.384 . S
C538 H529 0.929 1_545 S
C538 C530 1.378 . S
C538 C533 1.350 . S
C539 H526 0.929 . S
C539 C531 1.433 . S
C539 N541 1.384 . S
N540 C536 1.427 . S
N540 C537 1.384 . S
N541 C533 1.427 . S
N541 C539 1.384 . S
H542 C548 0.930 . S
H543 C552 0.930 . S
H544 C557 0.929 . S
H545 C555 0.929 . S
H546 C550 0.929 1_655 S
H547 C556 0.929 1_455 S
C548 H542 0.930 . S
C548 C549 1.367 . S
C548 C556 1.378 . S
C549 C548 1.367 . S
C549 C557 1.433 . S
C550 H546 0.929 1_455 S
C550 C552 1.378 . S
C550 C554 1.350 . S
C551 C554 1.463 1_655 S
C551 C556 1.350 . S
C551 N559 1.427 . S
C552 H543 0.930 . S
C552 C550 1.378 . S
C552 C553 1.367 . S
C553 C552 1.367 . S
C553 C555 1.433 . S
C554 C550 1.350 . S
C554 C551 1.463 1_455 S
C554 N558 1.427 . S
C555 H545 0.929 . S
C555 C553 1.433 . S
C555 N558 1.384 . S
C556 H547 0.929 1_655 S
C556 C548 1.378 . S
C556 C551 1.350 . S
C557 H544 0.929 . S
C557 C549 1.433 . S
C557 N559 1.384 . S
N558 C554 1.427 . S
N558 C555 1.384 . S
N559 C551 1.427 . S
N559 C557 1.384 . S
H560 C566 0.930 . S
H561 C570 0.930 . S
H562 C575 0.929 . S
H563 C573 0.929 . S
H564 C568 0.929 1_565 S
H565 C574 0.929 1_545 S
C566 H560 0.930 . S
C566 C567 1.367 . S
C566 C574 1.378 . S
C567 C566 1.367 . S
C567 C575 1.433 . S
C568 H564 0.929 1_545 S
C568 C570 1.378 . S
C568 C572 1.350 . S
C569 C572 1.463 1_565 S
C569 C574 1.350 . S
C569 N577 1.427 . S
C570 H561 0.930 . S
C570 C568 1.378 . S
C570 C571 1.367 . S
C571 C570 1.367 . S
C571 C573 1.433 . S
C572 C568 1.350 . S
C572 C569 1.463 1_545 S
C572 N576 1.427 . S
C573 H563 0.929 . S
C573 C571 1.433 . S
C573 N576 1.384 . S
C574 H565 0.929 1_565 S
C574 C566 1.378 . S
C574 C569 1.350 . S
C575 H562 0.929 . S
C575 C567 1.433 . S
C575 N577 1.384 . S
N576 C572 1.427 . S
N576 C573 1.384 . S
N577 C569 1.427 . S
N577 C575 1.384 . S
H578 C584 0.930 . S
H579 C588 0.930 . S
H580 C593 0.929 . S
H581 C591 0.929 . S
H582 C586 0.929 . S
H583 C592 0.929 . S
C584 H578 0.930 . S
C584 C585 1.367 . S
C584 C592 1.378 . S
C585 C584 1.367 . S
C585 C593 1.433 . S
C586 H582 0.929 . S
C586 C588 1.378 . S
C586 C590 1.350 . S
C587 C590 1.463 1_455 S
C587 C592 1.350 . S
C587 N595 1.427 . S
C588 H579 0.930 . S
C588 C586 1.378 . S
C588 C589 1.367 . S
C589 C588 1.367 . S
C589 C591 1.433 . S
C590 C586 1.350 . S
C590 C587 1.463 1_655 S
C590 N594 1.427 . S
C591 H581 0.929 . S
C591 C589 1.433 . S
C591 N594 1.384 . S
C592 H583 0.929 . S
C592 C584 1.378 . S
C592 C587 1.350 . S
C593 H580 0.929 . S
C593 C585 1.433 . S
C593 N595 1.384 . S
N594 C590 1.427 . S
N594 C591 1.384 . S
N595 C587 1.427 . S
N595 C593 1.384 . S
H596 C602 0.930 . S
H597 C606 0.930 . S
H598 C611 0.929 . S
H599 C609 0.929 . S
H600 C604 0.929 . S
H601 C610 0.929 . S
C602 H596 0.930 . S
C602 C603 1.367 . S
C602 C610 1.378 . S
C603 C602 1.367 . S
C603 C611 1.433 . S
C604 H600 0.929 . S
C604 C606 1.378 . S
C604 C608 1.350 . S
C605 C608 1.463 1_545 S
C605 C610 1.350 . S
C605 N613 1.427 . S
C606 H597 0.930 . S
C606 C604 1.378 . S
C606 C607 1.367 . S
C607 C606 1.367 . S
C607 C609 1.433 . S
C608 C604 1.350 . S
C608 C605 1.463 1_565 S
C608 N612 1.427 . S
C609 H599 0.929 . S
C609 C607 1.433 . S
C609 N612 1.384 . S
C610 H601 0.929 . S
C610 C602 1.378 . S
C610 C605 1.350 . S
C611 H598 0.929 . S
C611 C603 1.433 . S
C611 N613 1.384 . S
N612 C608 1.427 . S
N612 C609 1.384 . S
N613 C605 1.427 . S
N613 C611 1.384 . S
H614 C620 0.930 . S
H615 C624 0.930 . S
H616 C629 0.929 . S
H617 C627 0.929 . S
H618 C622 0.929 1_455 S
H619 C628 0.929 1_655 S
C620 H614 0.930 . S
C620 C621 1.367 . S
C620 C628 1.378 . S
C621 C620 1.367 . S
C621 C629 1.433 . S
C622 H618 0.929 1_655 S
C622 C624 1.378 . S
C622 C626 1.350 . S
C623 C626 1.463 1_455 S
C623 C628 1.350 . S
C623 N631 1.427 . S
C624 H615 0.930 . S
C624 C622 1.378 . S
C624 C625 1.367 . S
C625 C624 1.367 . S
C625 C627 1.433 . S
C626 C622 1.350 . S
C626 C623 1.463 1_655 S
C626 N630 1.427 . S
C627 H617 0.929 . S
C627 C625 1.433 . S
C627 N630 1.384 . S
C628 H619 0.929 1_455 S
C628 C620 1.378 . S
C628 C623 1.350 . S
C629 H616 0.929 . S
C629 C621 1.433 . S
C629 N631 1.384 . S
N630 C626 1.427 . S
N630 C627 1.384 . S
N631 C623 1.427 . S
N631 C629 1.384 . S
H632 C638 0.930 . S
H633 C642 0.930 . S
H634 C647 0.929 . S
H635 C645 0.929 . S
H636 C640 0.929 . S
H637 C646 0.929 . S
C638 H632 0.930 . S
C638 C639 1.367 . S
C638 C646 1.378 . S
C639 C638 1.367 . S
C639 C647 1.433 . S
C640 H636 0.929 . S
C640 C642 1.378 . S
C640 C644 1.350 . S
C641 C644 1.463 . S
C641 C646 1.350 . S
C641 N649 1.427 . S
C642 H633 0.930 . S
C642 C640 1.378 . S
C642 C643 1.367 . S
C643 C642 1.367 . S
C643 C645 1.433 . S
C644 C640 1.350 . S
C644 C641 1.463 . S
C644 N648 1.427 . S
C645 H635 0.929 . S
C645 C643 1.433 . S
C645 N648 1.384 . S
C646 H637 0.929 . S
C646 C638 1.378 . S
C646 C641 1.350 . S
C647 H634 0.929 . S
C647 C639 1.433 . S
C647 N649 1.384 . S
N648 C644 1.427 . S
N648 C645 1.384 . S
N649 C641 1.427 . S
N649 C647 1.384 . S
H650 C656 0.930 . S
H651 C660 0.930 . S
H652 C665 0.929 . S
H653 C663 0.929 . S
H654 C658 0.929 . S
H655 C664 0.929 . S
C656 H650 0.930 . S
C656 C657 1.367 . S
C656 C664 1.378 . S
C657 C656 1.367 . S
C657 C665 1.433 . S
C658 H654 0.929 . S
C658 C660 1.378 . S
C658 C662 1.350 . S
C659 C662 1.463 . S
C659 C664 1.350 . S
C659 N667 1.427 . S
C660 H651 0.930 . S
C660 C658 1.378 . S
C660 C661 1.367 . S
C661 C660 1.367 . S
C661 C663 1.433 . S
C662 C658 1.350 . S
C662 C659 1.463 . S
C662 N666 1.427 . S
C663 H653 0.929 . S
C663 C661 1.433 . S
C663 N666 1.384 . S
C664 H655 0.929 . S
C664 C656 1.378 . S
C664 C659 1.350 . S
C665 H652 0.929 . S
C665 C657 1.433 . S
C665 N667 1.384 . S
N666 C662 1.427 . S
N666 C663 1.384 . S
N667 C659 1.427 . S
N667 C665 1.384 . S
H668 C674 0.930 . S
H669 C678 0.930 . S
H670 C683 0.929 . S
H671 C681 0.929 . S
H672 C676 0.929 . S
H673 C682 0.929 . S
C674 H668 0.930 . S
C674 C675 1.367 . S
C674 C682 1.378 . S
C675 C674 1.367 . S
C675 C683 1.433 . S
C676 H672 0.929 . S
C676 C678 1.378 . S
C676 C680 1.350 . S
C677 C680 1.463 . S
C677 C682 1.350 . S
C677 N685 1.427 . S
C678 H669 0.930 . S
C678 C676 1.378 . S
C678 C679 1.367 . S
C679 C678 1.367 . S
C679 C681 1.433 . S
C680 C676 1.350 . S
C680 C677 1.463 . S
C680 N684 1.427 . S
C681 H671 0.929 . S
C681 C679 1.433 . S
C681 N684 1.384 . S
C682 H673 0.929 . S
C682 C674 1.378 . S
C682 C677 1.350 . S
C683 H670 0.929 . S
C683 C675 1.433 . S
C683 N685 1.384 . S
N684 C680 1.427 . S
N684 C681 1.384 . S
N685 C677 1.427 . S
N685 C683 1.384 . S
H686 C692 0.930 . S
H687 C696 0.930 . S
H688 C701 0.929 . S
H689 C699 0.929 . S
H690 C694 0.929 . S
H691 C700 0.929 . S
C692 H686 0.930 . S
C692 C693 1.367 . S
C692 C700 1.378 . S
C693 C692 1.367 . S
C693 C701 1.433 . S
C694 H690 0.929 . S
C694 C696 1.378 . S
C694 C698 1.350 . S
C695 C698 1.463 . S
C695 C700 1.350 . S
C695 N703 1.427 . S
C696 H687 0.930 . S
C696 C694 1.378 . S
C696 C697 1.367 . S
C697 C696 1.367 . S
C697 C699 1.433 . S
C698 C694 1.350 . S
C698 C695 1.463 . S
C698 N702 1.427 . S
C699 H689 0.929 . S
C699 C697 1.433 . S
C699 N702 1.384 . S
C700 H691 0.929 . S
C700 C692 1.378 . S
C700 C695 1.350 . S
C701 H688 0.929 . S
C701 C693 1.433 . S
C701 N703 1.384 . S
N702 C698 1.427 . S
N702 C699 1.384 . S
N703 C695 1.427 . S
N703 C701 1.384 . S
H704 C710 0.930 . S
H705 C714 0.930 . S
H706 C719 0.929 . S
H707 C717 0.929 . S
H708 C712 0.929 . S
H709 C718 0.929 . S
C710 H704 0.930 . S
C710 C711 1.367 . S
C710 C718 1.378 . S
C711 C710 1.367 . S
C711 C719 1.433 . S
C712 H708 0.929 . S
C712 C714 1.378 . S
C712 C716 1.350 . S
C713 C716 1.463 . S
C713 C718 1.350 . S
C713 N721 1.427 . S
C714 H705 0.930 . S
C714 C712 1.378 . S
C714 C715 1.367 . S
C715 C714 1.367 . S
C715 C717 1.433 . S
C716 C712 1.350 . S
C716 C713 1.463 . S
C716 N720 1.427 . S
C717 H707 0.929 . S
C717 C715 1.433 . S
C717 N720 1.384 . S
C718 H709 0.929 . S
C718 C710 1.378 . S
C718 C713 1.350 . S
C719 H706 0.929 . S
C719 C711 1.433 . S
C719 N721 1.384 . S
N720 C716 1.427 . S
N720 C717 1.384 . S
N721 C713 1.427 . S
N721 C719 1.384 . S
H722 C728 0.930 . S
H723 C732 0.930 . S
H724 C737 0.929 . S
H725 C735 0.929 . S
H726 C730 0.929 . S
H727 C736 0.929 . S
C728 H722 0.930 . S
C728 C729 1.367 . S
C728 C736 1.378 . S
C729 C728 1.367 . S
C729 C737 1.433 . S
C730 H726 0.929 . S
C730 C732 1.378 . S
C730 C734 1.350 . S
C731 C734 1.463 . S
C731 C736 1.350 . S
C731 N739 1.427 . S
C732 H723 0.930 . S
C732 C730 1.378 . S
C732 C733 1.367 . S
C733 C732 1.367 . S
C733 C735 1.433 . S
C734 C730 1.350 . S
C734 C731 1.463 . S
C734 N738 1.427 . S
C735 H725 0.929 . S
C735 C733 1.433 . S
C735 N738 1.384 . S
C736 H727 0.929 . S
C736 C728 1.378 . S
C736 C731 1.350 . S
C737 H724 0.929 . S
C737 C729 1.433 . S
C737 N739 1.384 . S
N738 C734 1.427 . S
N738 C735 1.384 . S
N739 C731 1.427 . S
N739 C737 1.384 . S
H740 C746 0.930 . S
H741 C750 0.930 . S
H742 C755 0.929 . S
H743 C753 0.929 . S
H744 C748 0.929 . S
H745 C754 0.929 . S
C746 H740 0.930 . S
C746 C747 1.367 . S
C746 C754 1.378 . S
C747 C746 1.367 . S
C747 C755 1.433 . S
C748 H744 0.929 . S
C748 C750 1.378 . S
C748 C752 1.350 . S
C749 C752 1.463 . S
C749 C754 1.350 . S
C749 N757 1.427 . S
C750 H741 0.930 . S
C750 C748 1.378 . S
C750 C751 1.367 . S
C751 C750 1.367 . S
C751 C753 1.433 . S
C752 C748 1.350 . S
C752 C749 1.463 . S
C752 N756 1.427 . S
C753 H743 0.929 . S
C753 C751 1.433 . S
C753 N756 1.384 . S
C754 H745 0.929 . S
C754 C746 1.378 . S
C754 C749 1.350 . S
C755 H742 0.929 . S
C755 C747 1.433 . S
C755 N757 1.384 . S
N756 C752 1.427 . S
N756 C753 1.384 . S
N757 C749 1.427 . S
N757 C755 1.384 . S
H758 C764 0.930 . S
H759 C768 0.930 . S
H760 C773 0.929 . S
H761 C771 0.929 . S
H762 C766 0.929 . S
H763 C772 0.929 . S
C764 H758 0.930 . S
C764 C765 1.367 . S
C764 C772 1.378 . S
C765 C764 1.367 . S
C765 C773 1.433 . S
C766 H762 0.929 . S
C766 C768 1.378 . S
C766 C770 1.350 . S
C767 C770 1.463 . S
C767 C772 1.350 . S
C767 N775 1.427 . S
C768 H759 0.930 . S
C768 C766 1.378 . S
C768 C769 1.367 . S
C769 C768 1.367 . S
C769 C771 1.433 . S
C770 C766 1.350 . S
C770 C767 1.463 . S
C770 N774 1.427 . S
C771 H761 0.929 . S
C771 C769 1.433 . S
C771 N774 1.384 . S
C772 H763 0.929 . S
C772 C764 1.378 . S
C772 C767 1.350 . S
C773 H760 0.929 . S
C773 C765 1.433 . S
C773 N775 1.384 . S
N774 C770 1.427 . S
N774 C771 1.384 . S
N775 C767 1.427 . S
N775 C773 1.384 . S
C279 C17 1.150 1_556 S
C283 C85 1.150 . S
C297 C119 1.150 . S
C301 C51 1.150 1_556 S
C315 C153 1.150 . S
C319 C221 1.150 . S
C333 C255 1.150 . S
C337 C187 1.150 . S
C351 C142 1.057 . S
C355 C6 1.042 . S
C369 C198 1.054 . S
C373 C62 1.042 . S
C387 C232 1.044 . S
C391 C74 1.052 . S
C405 C266 1.059 . S
C409 C108 1.053 . S
C423 C226 0.516 . S
C427 C83 0.525 . S
C441 C260 0.532 . S
C445 C117 0.533 . S
C459 C15 0.528 . S
C463 C151 0.533 . S
C477 C192 0.510 . S
C481 C56 0.502 . S
C495 C244 1.045 . S
C499 C40 1.061 . S
C513 C164 1.051 . S
C517 C96 1.047 . S
C531 C176 1.046 . S
C535 C130 1.052 . S
C549 C210 1.048 . S
C553 C28 1.050 . S
C567 C124 0.482 . S
C571 C185 0.479 . S
C585 C22 0.504 . S
C589 C219 0.512 . S
C603 C49 0.524 . S
C607 C253 0.528 . S
C621 C158 0.486 . S
C625 C90 0.492 . S
C639 C173 2.914 . S
C643 C1 2.914 . S
C657 C37 2.915 . S
C661 C207 2.911 . S
C675 C241 2.915 . S
C679 C69 2.914 . S
C693 C103 2.916 . S
C697 C137 2.912 . S
C711 C239 2.915 . S
C715 C71 2.919 . S
C729 C139 2.914 . S
C733 C105 2.918 . S
C747 C3 2.916 . S
C751 C171 2.917 . S
C765 C205 2.916 . S
C769 C35 2.916 . S
