# Generated by pormake.
# Topology ske, (6)-cn, num edge types: 1
# Building blocks:
#     Node 0, Type 0, BuildingBlock: FUNLAD_clean_sbu_0, # of connection points: 6
#     Node 1, Type 0, BuildingBlock: FUNLAD_clean_sbu_0, # of connection points: 6
#     Node 2, Type 0, BuildingBlock: FUNLAD_clean_sbu_0, # of connection points: 6
#     Node 3, Type 0, BuildingBlock: FUNLAD_clean_sbu_0, # of connection points: 6
#     Node 4, Type 0, BuildingBlock: FUNLAD_clean_sbu_0, # of connection points: 6
#     Node 5, Type 0, BuildingBlock: FUNLAD_clean_sbu_0, # of connection points: 6
#     Node 6, Type 0, BuildingBlock: FUNLAD_clean_sbu_0, # of connection points: 6
#     Node 7, Type 0, BuildingBlock: FUNLAD_clean_sbu_0, # of connection points: 6
#     Edge 8, Type (0, 0), BuildingBlock: ZUJKAS_clean_linker_0, # of connection points: 2
#     Edge 9, Type (0, 0), BuildingBlock: ZUJKAS_clean_linker_0, # of connection points: 2
#     Edge 10, Type (0, 0), BuildingBlock: ZUJKAS_clean_linker_0, # of connection points: 2
#     Edge 11, Type (0, 0), BuildingBlock: ZUJKAS_clean_linker_0, # of connection points: 2
#     Edge 12, Type (0, 0), BuildingBlock: ZUJKAS_clean_linker_0, # of connection points: 2
#     Edge 13, Type (0, 0), BuildingBlock: ZUJKAS_clean_linker_0, # of connection points: 2
#     Edge 14, Type (0, 0), BuildingBlock: ZUJKAS_clean_linker_0, # of connection points: 2
#     Edge 15, Type (0, 0), BuildingBlock: ZUJKAS_clean_linker_0, # of connection points: 2
#     Edge 16, Type (0, 0), BuildingBlock: ZUJKAS_clean_linker_0, # of connection points: 2
#     Edge 17, Type (0, 0), BuildingBlock: ZUJKAS_clean_linker_0, # of connection points: 2
#     Edge 18, Type (0, 0), BuildingBlock: ZUJKAS_clean_linker_0, # of connection points: 2
#     Edge 19, Type (0, 0), BuildingBlock: ZUJKAS_clean_linker_0, # of connection points: 2
#     Edge 20, Type (0, 0), BuildingBlock: ZUJKAS_clean_linker_0, # of connection points: 2
#     Edge 21, Type (0, 0), BuildingBlock: ZUJKAS_clean_linker_0, # of connection points: 2
#     Edge 22, Type (0, 0), BuildingBlock: ZUJKAS_clean_linker_0, # of connection points: 2
#     Edge 23, Type (0, 0), BuildingBlock: ZUJKAS_clean_linker_0, # of connection points: 2
#     Edge 24, Type (0, 0), BuildingBlock: ZUJKAS_clean_linker_0, # of connection points: 2
#     Edge 25, Type (0, 0), BuildingBlock: ZUJKAS_clean_linker_0, # of connection points: 2
#     Edge 26, Type (0, 0), BuildingBlock: ZUJKAS_clean_linker_0, # of connection points: 2
#     Edge 27, Type (0, 0), BuildingBlock: ZUJKAS_clean_linker_0, # of connection points: 2
#     Edge 28, Type (0, 0), BuildingBlock: ZUJKAS_clean_linker_0, # of connection points: 2
#     Edge 29, Type (0, 0), BuildingBlock: ZUJKAS_clean_linker_0, # of connection points: 2
#     Edge 30, Type (0, 0), BuildingBlock: ZUJKAS_clean_linker_0, # of connection points: 2
#     Edge 31, Type (0, 0), BuildingBlock: ZUJKAS_clean_linker_0, # of connection points: 2
# Relax obj value: 0.060
# Max RMSD: 0.121
# Mean RMSD: 0.117
data_MOF--net-ske--node1-FUNLAD_clean_sbu_0--edge1-ZUJKAS_clean_linker_0
_symmetry_space_group_name_H-M    P1
_symmetry_Int_Tables_number       1
_symmetry_cell_setting            triclinic
loop_
_symmetry_equiv_pos_as_xyz
'x, y, z'
_cell_length_a     75.376955
_cell_length_b     52.420729
_cell_length_c     19.289844
_cell_angle_alpha  89.885449
_cell_angle_beta   89.95242
_cell_angle_gamma 91.768245
loop_
_atom_site_label
_atom_site_type_symbol
_atom_site_fract_x
_atom_site_fract_y
_atom_site_fract_z
_atom_type_partial_charge
C0 C 0.1715 0.26162 0.56446 0.0
N1 N 0.13585 0.20065 0.52276 0.0
C2 C 0.14925 0.18882 0.48972 0.0
C3 C 0.1493 0.16226 0.48571 0.0
C4 C 0.13548 0.14759 0.5164 0.0
C5 C 0.1219 0.16033 0.55085 0.0
C6 C 0.12233 0.18698 0.55329 0.0
Zn7 Zn 0.13608 0.23966 0.52397 0.0
C8 C 0.12693 0.26043 0.66065 0.0
N9 N 0.13694 0.32118 0.524 0.0
C10 C 0.15073 0.33415 0.49316 0.0
C11 C 0.12315 0.33369 0.55233 0.0
C12 C 0.12275 0.36029 0.5493 0.0
C13 C 0.13667 0.37416 0.51673 0.0
C14 C 0.15087 0.36074 0.48897 0.0
Zn15 Zn 0.13664 0.28217 0.52429 0.0
O16 O 0.16307 0.2406 0.55406 0.0
C17 C 0.14576 0.26146 0.38749 0.0
O18 O 0.16369 0.28247 0.55468 0.0
H19 H 0.1123 0.323 0.57645 0.0
H20 H 0.15987 0.20003 0.4657 0.0
H21 H 0.16157 0.32384 0.47107 0.0
O22 O 0.14333 0.24045 0.41936 0.0
O23 O 0.14394 0.28231 0.41964 0.0
H24 H 0.11181 0.19677 0.57933 0.0
O25 O 0.10955 0.28117 0.49507 0.0
O26 O 0.10901 0.2393 0.49489 0.0
O27 O 0.12931 0.28146 0.62874 0.0
O28 O 0.12881 0.23954 0.62864 0.0
C29 C 0.10105 0.2601 0.48649 0.0
H30 H 0.1599 0.15337 0.45766 0.0
H31 H 0.1111 0.14983 0.57607 0.0
H32 H 0.11146 0.36983 0.57076 0.0
H33 H 0.162 0.37067 0.46433 0.0
C34 C 0.91195 0.26176 0.48778 0.0
N35 N 0.87758 0.32178 0.52423 0.0
C36 C 0.89109 0.33536 0.55488 0.0
C37 C 0.89155 0.36203 0.55251 0.0
C38 C 0.87802 0.37485 0.51798 0.0
C39 C 0.86423 0.36027 0.48708 0.0
C40 C 0.86424 0.3337 0.49104 0.0
Zn41 Zn 0.87718 0.28275 0.52567 0.0
C42 C 0.86727 0.26117 0.38929 0.0
N43 N 0.87568 0.20121 0.52597 0.0
C44 C 0.88945 0.18862 0.55419 0.0
C45 C 0.86188 0.18832 0.49521 0.0
C46 C 0.86172 0.16173 0.49091 0.0
C47 C 0.87591 0.14823 0.51849 0.0
C48 C 0.88983 0.16202 0.55106 0.0
Zn49 Zn 0.87614 0.24023 0.52606 0.0
O50 O 0.90432 0.28279 0.49675 0.0
C51 C 0.88611 0.26175 0.66231 0.0
O52 O 0.90314 0.24092 0.49613 0.0
H53 H 0.85105 0.19869 0.4732 0.0
H54 H 0.90156 0.3255 0.58106 0.0
H55 H 0.90032 0.19924 0.57821 0.0
O56 O 0.88436 0.28271 0.63031 0.0
O57 O 0.88358 0.24078 0.63043 0.0
H58 H 0.85363 0.32256 0.46694 0.0
O59 O 0.84918 0.24021 0.55688 0.0
O60 O 0.8501 0.28209 0.55564 0.0
O61 O 0.86876 0.24025 0.42163 0.0
O62 O 0.87002 0.28211 0.42095 0.0
C63 C 0.84152 0.26119 0.56634 0.0
H64 H 0.90233 0.37245 0.57789 0.0
H65 H 0.85366 0.36923 0.45894 0.0
H66 H 0.85059 0.15186 0.46626 0.0
H67 H 0.90113 0.15243 0.57237 0.0
C68 C 0.10096 0.76011 0.47866 0.0
N69 N 0.13687 0.82116 0.44091 0.0
C70 C 0.12347 0.83363 0.40971 0.0
C71 C 0.12301 0.86023 0.41212 0.0
C72 C 0.13643 0.87418 0.44736 0.0
C73 C 0.15021 0.86075 0.47836 0.0
C74 C 0.1502 0.83417 0.47433 0.0
Zn75 Zn 0.13659 0.78214 0.44079 0.0
C76 C 0.14562 0.76122 0.57769 0.0
N77 N 0.13571 0.70062 0.44264 0.0
C78 C 0.12179 0.68712 0.41461 0.0
C79 C 0.14943 0.68863 0.47319 0.0
C80 C 0.14944 0.66205 0.47683 0.0
C81 C 0.13519 0.64759 0.44883 0.0
C82 C 0.12125 0.66046 0.41721 0.0
Zn83 Zn 0.13601 0.73963 0.44138 0.0
O84 O 0.10944 0.78118 0.46947 0.0
C85 C 0.12693 0.76049 0.30458 0.0
O86 O 0.10896 0.73932 0.47088 0.0
H87 H 0.16033 0.69972 0.49545 0.0
H88 H 0.113 0.82293 0.38341 0.0
H89 H 0.11104 0.69703 0.39046 0.0
O90 O 0.12943 0.78151 0.33621 0.0
O91 O 0.12869 0.73959 0.33686 0.0
H92 H 0.16071 0.82388 0.49888 0.0
O93 O 0.16301 0.74061 0.41096 0.0
O94 O 0.16369 0.78249 0.411 0.0
O95 O 0.14332 0.74023 0.54583 0.0
O96 O 0.1437 0.78209 0.54557 0.0
C97 C 0.17148 0.76164 0.40099 0.0
H98 H 0.11228 0.86974 0.38651 0.0
H99 H 0.16071 0.8706 0.50691 0.0
H100 H 0.16035 0.65295 0.50252 0.0
H101 H 0.1101 0.65006 0.39427 0.0
C102 C 0.91184 0.76168 0.48003 0.0
N103 N 0.87549 0.70136 0.44183 0.0
C104 C 0.88888 0.68887 0.41065 0.0
C105 C 0.88928 0.66226 0.41311 0.0
C106 C 0.87582 0.64832 0.44839 0.0
C107 C 0.86204 0.66176 0.47928 0.0
C108 C 0.86211 0.68836 0.47519 0.0
Zn109 Zn 0.87598 0.74039 0.44199 0.0
C110 C 0.86716 0.76115 0.57893 0.0
N111 N 0.87759 0.82193 0.44412 0.0
C112 C 0.89155 0.83543 0.41604 0.0
C113 C 0.86389 0.83392 0.47466 0.0
C114 C 0.86389 0.8605 0.47812 0.0
C115 C 0.87815 0.87496 0.44994 0.0
C116 C 0.89211 0.86209 0.41848 0.0
Zn117 Zn 0.87709 0.78291 0.44258 0.0
O118 O 0.90303 0.74089 0.47111 0.0
C119 C 0.88597 0.76223 0.30574 0.0
O120 O 0.90419 0.78275 0.47181 0.0
H121 H 0.85296 0.82284 0.49696 0.0
H122 H 0.89939 0.69956 0.38441 0.0
H123 H 0.90229 0.82551 0.39189 0.0
O124 O 0.88326 0.74119 0.33735 0.0
O125 O 0.8844 0.78311 0.33807 0.0
H126 H 0.8516 0.69865 0.49974 0.0
O127 O 0.85004 0.78235 0.41227 0.0
O128 O 0.84898 0.74047 0.41197 0.0
O129 O 0.86979 0.78214 0.54717 0.0
O130 O 0.86875 0.74028 0.54667 0.0
C131 C 0.84138 0.76149 0.4021 0.0
H132 H 0.90002 0.65275 0.38757 0.0
H133 H 0.85151 0.65191 0.50783 0.0
H134 H 0.85298 0.86959 0.50374 0.0
H135 H 0.90326 0.8725 0.39544 0.0
C136 C 0.67148 0.76249 0.06652 0.0
N137 N 0.63597 0.7013 0.02467 0.0
C138 C 0.64937 0.68947 -0.00839 0.0
C139 C 0.64936 0.66291 -0.01273 0.0
C140 C 0.63548 0.64825 0.01763 0.0
C141 C 0.62193 0.66098 0.05224 0.0
C142 C 0.62241 0.68763 0.05499 0.0
Zn143 Zn 0.63613 0.74031 0.02584 0.0
C144 C 0.62682 0.76109 0.16214 0.0
N145 N 0.63674 0.82183 0.02556 0.0
C146 C 0.65047 0.83497 -0.00518 0.0
C147 C 0.62288 0.83417 0.05394 0.0
C148 C 0.62235 0.86076 0.05108 0.0
C149 C 0.6362 0.87481 0.01864 0.0
C150 C 0.65047 0.86157 -0.00922 0.0
Zn151 Zn 0.63658 0.78283 0.02588 0.0
O152 O 0.66312 0.74141 0.05617 0.0
C153 C 0.64584 0.76211 0.88946 0.0
O154 O 0.6636 0.78329 0.05659 0.0
H155 H 0.61207 0.82335 0.07796 0.0
H156 H 0.66 0.70068 0.96774 0.0
H157 H 0.66137 0.8248 0.9727 0.0
O158 O 0.64344 0.74111 0.92142 0.0
O159 O 0.64395 0.78297 0.92144 0.0
H160 H 0.61189 0.69742 0.08104 0.0
O161 O 0.6095 0.78166 -0.00371 0.0
O162 O 0.60908 0.7398 -0.00355 0.0
O163 O 0.62916 0.78211 0.13011 0.0
O164 O 0.6288 0.74019 0.13033 0.0
C165 C 0.60107 0.76054 -0.01225 0.0
H166 H 0.65995 0.65401 0.95915 0.0
H167 H 0.6111 0.6505 0.07726 0.0
H168 H 0.61099 0.87015 0.07258 0.0
H169 H 0.66156 0.87164 0.96621 0.0
C170 C 0.41198 0.76125 -0.01358 0.0
N171 N 0.37755 0.82117 0.02294 0.0
C172 C 0.3911 0.83481 0.05313 0.0
C173 C 0.39157 0.86147 0.05031 0.0
C174 C 0.37801 0.87423 0.0158 0.0
C175 C 0.36416 0.85959 -0.01456 0.0
C176 C 0.36417 0.83302 -0.01017 0.0
Zn177 Zn 0.37721 0.78215 0.02477 0.0
C178 C 0.36721 0.76042 0.88862 0.0
N179 N 0.37587 0.70061 0.02554 0.0
C180 C 0.38967 0.68828 0.05447 0.0
C181 C 0.36218 0.68745 -0.00517 0.0
C182 C 0.36215 0.66084 -0.00854 0.0
C183 C 0.37635 0.64761 0.01998 0.0
C184 C 0.39017 0.66169 0.05228 0.0
Zn185 Zn 0.37621 0.73962 0.0251 0.0
O186 O 0.40432 0.78226 -0.00454 0.0
C187 C 0.38625 0.76131 0.16115 0.0
O188 O 0.4032 0.74039 -0.00511 0.0
H189 H 0.35138 0.69763 0.97193 0.0
H190 H 0.40161 0.825 0.07924 0.0
H191 H 0.40041 0.6991 0.07873 0.0
O192 O 0.38448 0.78227 0.12919 0.0
O193 O 0.38371 0.74035 0.12929 0.0
H194 H 0.35353 0.82184 0.96609 0.0
O195 O 0.34925 0.73952 0.05623 0.0
O196 O 0.35016 0.7814 0.05514 0.0
O197 O 0.36876 0.73949 0.92086 0.0
O198 O 0.36995 0.78135 0.92028 0.0
C199 C 0.3416 0.76049 0.06589 0.0
H200 H 0.40239 0.87194 0.0753 0.0
H201 H 0.35357 0.8685 0.95735 0.0
H202 H 0.35132 0.6508 0.96534 0.0
H203 H 0.40126 0.65227 0.0758 0.0
C204 C 0.60104 0.26065 0.9804 0.0
N205 N 0.63683 0.32181 0.94208 0.0
C206 C 0.6234 0.33427 0.91101 0.0
C207 C 0.62299 0.36088 0.91309 0.0
C208 C 0.63648 0.37484 0.94784 0.0
C209 C 0.65027 0.36143 0.97881 0.0
C210 C 0.65021 0.33484 0.97511 0.0
Zn211 Zn 0.63658 0.28279 0.94214 0.0
C212 C 0.64572 0.26196 0.079 0.0
N213 N 0.63587 0.20127 0.94417 0.0
C214 C 0.62196 0.18771 0.9162 0.0
C215 C 0.64957 0.18934 0.97503 0.0
C216 C 0.64955 0.16277 0.97927 0.0
C217 C 0.63528 0.14825 0.95154 0.0
C218 C 0.62139 0.16106 0.91938 0.0
Zn219 Zn 0.63611 0.24028 0.94269 0.0
O220 O 0.60947 0.28176 0.97129 0.0
C221 C 0.62691 0.26105 0.80596 0.0
O222 O 0.60907 0.2399 0.97227 0.0
H223 H 0.66046 0.20048 -0.0028 0.0
H224 H 0.61289 0.32354 0.88501 0.0
H225 H 0.61123 0.19757 0.89179 0.0
O226 O 0.62934 0.28208 0.83762 0.0
O227 O 0.62877 0.24016 0.83819 0.0
H228 H 0.66075 0.32457 -0.00043 0.0
O229 O 0.6631 0.24133 0.91218 0.0
O230 O 0.66365 0.2832 0.91197 0.0
O231 O 0.64344 0.24097 0.04717 0.0
O232 O 0.64378 0.28282 0.04683 0.0
C233 C 0.6715 0.2624 0.902 0.0
H234 H 0.61223 0.37037 0.88756 0.0
H235 H 0.66082 0.3713 0.00702 0.0
H236 H 0.66042 0.15373 0.00536 0.0
H237 H 0.61024 0.15062 0.89658 0.0
C238 C 0.41196 0.26105 0.9779 0.0
N239 N 0.3757 0.2007 0.93875 0.0
C240 C 0.38912 0.18828 0.90755 0.0
C241 C 0.38953 0.16167 0.90962 0.0
C242 C 0.37605 0.14765 0.94453 0.0
C243 C 0.36224 0.16102 0.97546 0.0
C244 C 0.3623 0.18762 0.97176 0.0
Zn245 Zn 0.37614 0.23972 0.93955 0.0
C246 C 0.36723 0.26019 0.07655 0.0
N247 N 0.37763 0.32126 0.94277 0.0
C248 C 0.39161 0.33499 0.91572 0.0
C249 C 0.36384 0.333 0.9735 0.0
C250 C 0.36384 0.35953 0.97864 0.0
C251 C 0.37819 0.37423 0.95208 0.0
C252 C 0.39216 0.36163 0.91981 0.0
Zn253 Zn 0.37721 0.28225 0.94033 0.0
O254 O 0.40317 0.24024 0.96895 0.0
C255 C 0.38616 0.26186 0.80343 0.0
O256 O 0.40431 0.28211 0.96965 0.0
H257 H 0.35284 0.32174 -0.00542 0.0
H258 H 0.39965 0.19904 0.88159 0.0
H259 H 0.40245 0.32527 0.89163 0.0
O260 O 0.38349 0.2408 0.83494 0.0
O261 O 0.38456 0.28272 0.83586 0.0
H262 H 0.35177 0.19786 -0.00367 0.0
O263 O 0.3502 0.28166 0.90977 0.0
O264 O 0.34916 0.23978 0.90921 0.0
O265 O 0.36987 0.28121 0.04493 0.0
O266 O 0.36885 0.23935 0.04417 0.0
C267 C 0.34157 0.26081 0.89932 0.0
H268 H 0.4003 0.15221 0.88409 0.0
H269 H 0.35169 0.15111 0.00375 0.0
H270 H 0.35265 0.36843 0.00293 0.0
H271 H 0.40357 0.37218 0.89921 0.0
H272 H 0.1914 0.22042 0.59566 0.0
H273 H 0.22037 0.22051 0.65247 0.0
H274 H 0.22175 0.30279 0.65571 0.0
H275 H 0.19281 0.30297 0.59828 0.0
H276 H 0.25415 0.28064 0.61428 0.0
H277 H 0.22764 0.23837 0.85909 0.0
H278 H 0.22208 0.2206 0.78216 0.0
H279 H 0.21353 0.25192 0.79394 0.0
C280 C 0.1979 0.23857 0.60795 0.0
C281 C 0.18973 0.2617 0.59285 0.0
C282 C 0.2144 0.23856 0.64082 0.0
C283 C 0.223 0.26164 0.65945 0.0
C284 C 0.21523 0.28477 0.64218 0.0
H285 H 0.32207 0.30239 0.86781 0.0
H286 H 0.2931 0.30281 0.811 0.0
C287 C 0.19871 0.28482 0.60932 0.0
C288 C 0.24003 0.26163 0.69756 0.0
H289 H 0.25893 0.24297 0.84953 0.0
C290 C 0.25521 0.27252 0.66582 0.0
C291 C 0.24131 0.25101 0.76479 0.0
C292 C 0.22526 0.23999 0.80243 0.0
C293 C 0.27177 0.27262 0.69905 0.0
C294 C 0.27306 0.26196 0.76624 0.0
C295 C 0.25787 0.25111 0.79802 0.0
C296 C 0.29011 0.26171 0.80415 0.0
C297 C 0.28782 0.28359 0.66135 0.0
C298 C 0.29768 0.23844 0.82149 0.0
C299 C 0.31419 0.2381 0.85438 0.0
C300 C 0.32336 0.26107 0.87079 0.0
C301 C 0.31541 0.28436 0.85557 0.0
C302 C 0.29891 0.28465 0.82267 0.0
H303 H 0.28543 0.28528 0.60472 0.0
H304 H 0.29106 0.30297 0.68171 0.0
H305 H 0.29953 0.27161 0.66969 0.0
H306 H 0.29101 0.22052 0.80805 0.0
H307 H 0.31992 0.21984 0.8655 0.0
H308 H 0.69166 0.22137 0.87212 0.0
H309 H 0.72081 0.22167 0.81649 0.0
H310 H 0.72164 0.30393 0.81052 0.0
H311 H 0.69257 0.30389 0.86686 0.0
H312 H 0.72891 0.24239 0.68574 0.0
H313 H 0.77039 0.28809 0.89137 0.0
H314 H 0.74843 0.27471 0.90806 0.0
H315 H 0.75115 0.3055 0.86763 0.0
C316 C 0.69813 0.23956 0.85987 0.0
C317 C 0.68979 0.26262 0.87405 0.0
C318 C 0.71477 0.23967 0.82792 0.0
C319 C 0.72344 0.26281 0.80998 0.0
C320 C 0.71531 0.28588 0.82507 0.0
H321 H 0.82173 0.30265 0.59597 0.0
H322 H 0.79253 0.3029 0.65126 0.0
C323 C 0.69866 0.2858 0.85705 0.0
C324 C 0.74054 0.26273 0.77219 0.0
H325 H 0.78403 0.28251 0.78178 0.0
C326 C 0.74099 0.25105 0.7068 0.0
C327 C 0.75623 0.27415 0.79976 0.0
C328 C 0.75665 0.28614 0.87081 0.0
C329 C 0.7567 0.25079 0.66772 0.0
C330 C 0.7724 0.26216 0.69536 0.0
C331 C 0.77194 0.27388 0.76068 0.0
C332 C 0.78954 0.2618 0.65789 0.0
C333 C 0.75627 0.2388 0.59666 0.0
C334 C 0.79749 0.23857 0.64304 0.0
C335 C 0.81415 0.23833 0.61126 0.0
C336 C 0.82323 0.26135 0.59423 0.0
C337 C 0.81509 0.28458 0.60823 0.0
C338 C 0.79843 0.28478 0.63999 0.0
H339 H 0.74254 0.23711 0.57586 0.0
H340 H 0.76463 0.25007 0.55954 0.0
H341 H 0.76157 0.21933 0.59998 0.0
H342 H 0.791 0.22063 0.6576 0.0
H343 H 0.82009 0.22012 0.6016 0.0
H344 H 0.32019 0.71941 0.10146 0.0
H345 H 0.29103 0.71993 0.15716 0.0
H346 H 0.29281 0.80222 0.15228 0.0
H347 H 0.32185 0.80194 0.09592 0.0
H348 H 0.2835 0.7427 0.28506 0.0
H349 H 0.24361 0.78401 0.07313 0.0
H350 H 0.26513 0.77083 0.05849 0.0
H351 H 0.26341 0.80226 0.09444 0.0
C352 C 0.31428 0.73763 0.11133 0.0
C353 C 0.32333 0.76064 0.09407 0.0
C354 C 0.29765 0.73787 0.14334 0.0
C355 C 0.2897 0.7611 0.15819 0.0
C356 C 0.29857 0.78408 0.14012 0.0
H357 H 0.19272 0.80304 0.36637 0.0
H358 H 0.22199 0.80293 0.31141 0.0
C359 C 0.3152 0.78387 0.10814 0.0
C360 C 0.27258 0.76131 0.19583 0.0
H361 H 0.22981 0.78042 0.18355 0.0
C362 C 0.27172 0.75082 0.2628 0.0
C363 C 0.2573 0.77205 0.1667 0.0
C364 C 0.25728 0.78273 0.09401 0.0
C365 C 0.25602 0.7511 0.30193 0.0
C366 C 0.24073 0.7618 0.27276 0.0
C367 C 0.2416 0.77233 0.20583 0.0
C368 C 0.22356 0.7618 0.31014 0.0
C369 C 0.25603 0.74039 0.3746 0.0
C370 C 0.2148 0.7387 0.32784 0.0
C371 C 0.19811 0.73867 0.35937 0.0
C372 C 0.18981 0.76178 0.37336 0.0
C373 C 0.19876 0.78491 0.35654 0.0
C374 C 0.21546 0.7849 0.32496 0.0
H375 H 0.26971 0.73927 0.39562 0.0
H376 H 0.24809 0.75219 0.41006 0.0
H377 H 0.25003 0.7208 0.37405 0.0
H378 H 0.22068 0.72065 0.31568 0.0
H379 H 0.19155 0.72051 0.37128 0.0
H380 H 0.69252 0.80399 0.10128 0.0
H381 H 0.72172 0.80403 0.15668 0.0
H382 H 0.72066 0.72175 0.15307 0.0
H383 H 0.69161 0.72147 0.09702 0.0
H384 H 0.72959 0.78166 0.28461 0.0
H385 H 0.76965 0.74058 0.07317 0.0
H386 H 0.74798 0.75333 0.05857 0.0
H387 H 0.75003 0.72197 0.09499 0.0
C388 C 0.69861 0.7859 0.11137 0.0
C389 C 0.68975 0.76272 0.09455 0.0
C390 C 0.71526 0.78597 0.1432 0.0
C391 C 0.72342 0.76291 0.1583 0.0
C392 C 0.71474 0.73977 0.14069 0.0
H393 H 0.81983 0.72051 0.36775 0.0
H394 H 0.79067 0.72115 0.31231 0.0
C395 C 0.6981 0.73966 0.10888 0.0
C396 C 0.74057 0.763 0.19571 0.0
H397 H 0.78335 0.74394 0.18382 0.0
C398 C 0.74139 0.77357 0.26248 0.0
C399 C 0.75589 0.75232 0.16673 0.0
C400 C 0.75596 0.74161 0.09418 0.0
C401 C 0.75707 0.77333 0.30166 0.0
C402 C 0.77237 0.76258 0.27275 0.0
C403 C 0.77156 0.75207 0.20592 0.0
C404 C 0.78946 0.76232 0.31049 0.0
C405 C 0.75702 0.78408 0.37417 0.0
C406 C 0.79838 0.78528 0.32811 0.0
C407 C 0.81502 0.785 0.35992 0.0
C408 C 0.8231 0.76173 0.37429 0.0
C409 C 0.81397 0.73875 0.35761 0.0
C410 C 0.79733 0.73907 0.32576 0.0
H411 H 0.74333 0.78547 0.39491 0.0
H412 H 0.76479 0.77213 0.40994 0.0
H413 H 0.76321 0.80355 0.37348 0.0
H414 H 0.79268 0.80343 0.31564 0.0
H415 H 0.82173 0.80304 0.37172 0.0
H416 H 0.16432 0.90901 0.44131 0.0
H417 H 0.16348 0.95525 0.45555 0.0
H418 H 0.10652 0.94988 0.47659 0.0
H419 H 0.1073 0.90352 0.466 0.0
H420 H 0.14718 0.99083 0.37788 0.0
H421 H 0.12035 0.99119 0.64581 0.0
H422 H 0.12866 0.96282 0.60596 0.0
H423 H 0.10671 0.97323 0.58607 0.0
C424 C 0.15162 0.91758 0.44999 0.0
C425 C 0.13589 0.90245 0.45307 0.0
C426 C 0.15116 0.94406 0.45758 0.0
C427 C 0.13497 0.95597 0.4684 0.0
C428 C 0.1192 0.94104 0.46989 0.0
H429 H 0.10664 0.11513 0.49686 0.0
H430 H 0.10638 0.06861 0.48585 0.0
C431 C 0.11966 0.91454 0.46277 0.0
C432 C 0.13462 0.98406 0.47685 0.0
H433 H 0.12201 0.03113 0.58713 0.0
C434 C 0.14175 0.99963 0.42376 0.0
C435 C 0.12753 0.99551 0.53684 0.0
C436 C 0.12053 0.97985 0.59723 0.0
C437 C 0.1418 0.02633 0.42871 0.0
C438 C 0.13463 0.0377 0.4884 0.0
C439 C 0.12742 0.02224 0.54135 0.0
C440 C 0.13477 0.06571 0.49713 0.0
C441 C 0.14935 0.04227 0.36987 0.0
C442 C 0.15081 0.0793 0.50834 0.0
C443 C 0.15101 0.10581 0.51556 0.0
C444 C 0.13516 0.11925 0.51145 0.0
C445 C 0.11907 0.10542 0.50117 0.0
C446 C 0.11888 0.07886 0.4944 0.0
H447 H 0.15144 0.03075 0.32244 0.0
H448 H 0.1404 0.05805 0.35714 0.0
H449 H 0.16234 0.05092 0.38582 0.0
H450 H 0.16318 0.06936 0.51158 0.0
H451 H 0.16359 0.11575 0.52479 0.0
H452 H 0.84989 0.40665 0.52624 0.0
H453 H 0.85024 0.45297 0.51264 0.0
H454 H 0.90717 0.4539 0.48953 0.0
H455 H 0.90687 0.40743 0.49946 0.0
H456 H 0.86622 0.4902 0.58959 0.0
H457 H 0.89252 0.49393 0.32086 0.0
H458 H 0.88465 0.46459 0.36098 0.0
H459 H 0.90648 0.47749 0.38033 0.0
C460 C 0.86248 0.41662 0.51724 0.0
C461 C 0.87834 0.40321 0.51322 0.0
C462 C 0.86266 0.44315 0.51005 0.0
C463 C 0.87868 0.45685 0.49876 0.0
C464 C 0.8946 0.44366 0.49657 0.0
H465 H 0.90494 0.61898 0.46755 0.0
H466 H 0.90568 0.57255 0.47926 0.0
C467 C 0.89442 0.41709 0.50329 0.0
C468 C 0.87869 0.48498 0.4903 0.0
H469 H 0.89031 0.53358 0.37928 0.0
C470 C 0.87143 0.49966 0.5435 0.0
C471 C 0.88546 0.4973 0.43 0.0
C472 C 0.89256 0.48252 0.36948 0.0
C473 C 0.87093 0.52633 0.53834 0.0
C474 C 0.87779 0.53858 0.47834 0.0
C475 C 0.88513 0.52402 0.42528 0.0
C476 C 0.87729 0.56657 0.46955 0.0
C477 C 0.86327 0.54132 0.59732 0.0
C478 C 0.86109 0.57842 0.45911 0.0
C479 C 0.86061 0.60491 0.45146 0.0
C480 C 0.87636 0.62004 0.45431 0.0
C481 C 0.89259 0.60795 0.46408 0.0
C482 C 0.89305 0.58144 0.47127 0.0
H483 H 0.86144 0.52954 0.64488 0.0
H484 H 0.872 0.55815 0.60968 0.0
H485 H 0.85013 0.54842 0.58172 0.0
H486 H 0.84882 0.56715 0.45669 0.0
H487 H 0.84792 0.61348 0.44277 0.0
H488 H 0.85056 0.90687 0.42973 0.0
H489 H 0.85088 0.95336 0.44047 0.0
H490 H 0.90663 0.95364 0.4905 0.0
H491 H 0.90642 0.9071 0.4803 0.0
H492 H 0.85981 0.9826 0.55698 0.0
H493 H 0.904 1.00668 0.33417 0.0
H494 H 0.89357 0.97548 0.3454 0.0
H495 H 0.91292 0.98449 0.39504 0.0
C496 C 0.86289 0.9168 0.4432 0.0
C497 C 0.87848 0.90328 0.45409 0.0
C498 C 0.86305 0.94336 0.44903 0.0
C499 C 0.87881 0.95694 0.46549 0.0
C500 C 0.89441 0.94356 0.47636 0.0
H501 H 0.88641 0.11358 0.61573 0.0
H502 H 0.88746 0.06718 0.60372 0.0
C503 C 0.89426 0.91697 0.47046 0.0
C504 C 0.87873 0.98504 0.47335 0.0
H505 H 0.89635 0.04082 0.4078 0.0
C506 C 0.86778 0.99536 0.52437 0.0
C507 C 0.88902 1.00159 0.43025 0.0
C508 C 0.90044 0.99159 0.37268 0.0
C509 C 0.86694 0.02183 0.53383 0.0
C510 C 0.87753 0.03836 0.49175 0.0
C511 C 0.88837 0.02806 0.44035 0.0
C512 C 0.87718 0.06646 0.49901 0.0
C513 C 0.85447 0.0319 0.58779 0.0
C514 C 0.87145 0.08145 0.44356 0.0
C515 C 0.87099 0.10796 0.45001 0.0
C516 C 0.87635 0.12001 0.51198 0.0
C517 C 0.88228 0.10492 0.56721 0.0
C518 C 0.88273 0.07839 0.56069 0.0
H519 H 0.84431 0.01723 0.6038 0.0
H520 H 0.86218 0.03768 0.63446 0.0
H521 H 0.8476 0.0489 0.56815 0.0
H522 H 0.86723 0.07261 0.39535 0.0
H523 H 0.86665 0.11904 0.40608 0.0
H524 H 0.16274 0.61557 0.42923 0.0
H525 H 0.16231 0.56907 0.44026 0.0
H526 H 0.10653 0.56903 0.49009 0.0
H527 H 0.10685 0.61558 0.47961 0.0
H528 H 0.15316 0.53961 0.55673 0.0
H529 H 0.10914 0.51634 0.33337 0.0
H530 H 0.11968 0.54744 0.34484 0.0
H531 H 0.10024 0.53848 0.39424 0.0
C532 C 0.15039 0.60569 0.44273 0.0
C533 C 0.13482 0.61928 0.45342 0.0
C534 C 0.15015 0.57912 0.44874 0.0
C535 C 0.13435 0.56561 0.46518 0.0
C536 C 0.11878 0.57906 0.47596 0.0
H537 H 0.12616 0.40858 0.61428 0.0
H538 H 0.12524 0.45504 0.60275 0.0
C539 C 0.11899 0.60565 0.46989 0.0
C540 C 0.13433 0.5375 0.47291 0.0
H541 H 0.11658 0.48199 0.40691 0.0
C542 C 0.14518 0.52698 0.52399 0.0
C543 C 0.12403 0.52112 0.42963 0.0
C544 C 0.11272 0.53133 0.37199 0.0
C545 C 0.14591 0.50048 0.53332 0.0
C546 C 0.13532 0.48412 0.49105 0.0
C547 C 0.12457 0.49462 0.43961 0.0
C548 C 0.13558 0.456 0.49805 0.0
C549 C 0.15829 0.4902 0.58735 0.0
C550 C 0.14128 0.44113 0.44244 0.0
C551 C 0.14167 0.4146 0.4486 0.0
C552 C 0.13625 0.4024 0.51046 0.0
C553 C 0.13033 0.41736 0.56584 0.0
C554 C 0.12996 0.44392 0.5596 0.0
H555 H 0.16848 0.50476 0.60353 0.0
H556 H 0.15051 0.48437 0.6339 0.0
H557 H 0.16512 0.47319 0.56767 0.0
H558 H 0.14555 0.45009 0.39432 0.0
H559 H 0.146 0.40363 0.40454 0.0
H560 H 0.66347 0.61617 0.02547 0.0
H561 H 0.66292 0.56988 0.01115 0.0
H562 H 0.60604 0.56959 -0.0129 0.0
H563 H 0.60653 0.61603 -0.00223 0.0
H564 H 0.64661 0.53267 0.08773 0.0
H565 H 0.62073 0.52973 0.81854 0.0
H566 H 0.62869 0.55892 0.85888 0.0
H567 H 0.60676 0.54622 0.87779 0.0
C568 C 0.65085 0.60634 0.0161 0.0
C569 C 0.63506 0.61992 0.01213 0.0
C570 C 0.65055 0.57984 0.00848 0.0
C571 C 0.63448 0.56633 -0.00323 0.0
C572 C 0.61864 0.57968 -0.00552 0.0
H573 H 0.60745 0.4044 0.96677 0.0
H574 H 0.60687 0.45085 0.97782 0.0
C575 C 0.61893 0.60623 0.00164 0.0
C576 C 0.63434 0.53821 -0.01178 0.0
H577 H 0.62257 0.48993 0.87699 0.0
C578 C 0.64142 0.52335 0.04153 0.0
C579 C 0.62758 0.52607 0.9278 0.0
C580 C 0.62067 0.54105 0.86718 0.0
C581 C 0.64175 0.49667 0.03637 0.0
C582 C 0.6349 0.48461 0.97626 0.0
C583 C 0.62774 0.49935 0.92308 0.0
C584 C 0.63527 0.45663 0.96748 0.0
C585 C 0.64923 0.48148 0.09546 0.0
C586 C 0.65142 0.44467 0.95685 0.0
C587 C 0.6518 0.41818 0.94958 0.0
C588 C 0.63602 0.40314 0.95305 0.0
C589 C 0.61982 0.41535 0.96288 0.0
C590 C 0.61946 0.44187 0.96968 0.0
H591 H 0.65111 0.49319 0.14299 0.0
H592 H 0.64034 0.46479 0.10781 0.0
H593 H 0.6623 0.47416 0.07995 0.0
H594 H 0.66372 0.45585 0.95408 0.0
H595 H 0.66446 0.40951 0.94079 0.0
H596 H 0.34992 0.90612 0.02399 0.0
H597 H 0.35032 0.95241 0.0097 0.0
H598 H 0.40721 0.95314 -0.01454 0.0
H599 H 0.40687 0.90668 -0.00391 0.0
H600 H 0.36645 0.98968 0.08598 0.0
H601 H 0.39242 0.99301 0.81673 0.0
H602 H 0.38456 0.96374 0.85726 0.0
H603 H 0.40642 0.9766 0.87608 0.0
C604 C 0.36251 0.91604 0.01459 0.0
C605 C 0.37835 0.90258 0.01049 0.0
C606 C 0.36272 0.94255 0.007 0.0
C607 C 0.37875 0.95619 -0.00479 0.0
C608 C 0.39464 0.94295 -0.00711 0.0
H609 H 0.40516 0.11828 0.96365 0.0
H610 H 0.40588 0.07184 0.9752 0.0
C611 C 0.39444 0.91639 1e-05 0.0
C612 C 0.37878 0.98431 -0.0135 0.0
H613 H 0.39036 0.03274 0.87488 0.0
C614 C 0.37162 0.99908 0.03971 0.0
C615 C 0.3855 0.99654 0.92597 0.0
C616 C 0.3925 0.98166 0.86544 0.0
C617 C 0.37116 0.02575 0.03434 0.0
C618 C 0.37796 0.0379 0.97412 0.0
C619 C 0.38521 0.02325 0.92105 0.0
C620 C 0.3775 0.06588 0.96515 0.0
C621 C 0.36359 0.04084 0.09332 0.0
C622 C 0.36131 0.07774 0.95454 0.0
C623 C 0.36084 0.10423 0.94697 0.0
C624 C 0.37658 0.11936 0.9501 0.0
C625 C 0.39281 0.10725 0.95997 0.0
C626 C 0.39326 0.08074 0.96706 0.0
H627 H 0.36174 0.02909 0.14094 0.0
H628 H 0.3724 0.0576 0.10554 0.0
H629 H 0.35048 0.04804 0.07778 0.0
H630 H 0.34903 0.06648 0.95199 0.0
H631 H 0.34816 0.11282 0.93819 0.0
H632 H 0.36828 0.40246 0.06395 0.0
H633 H 0.36814 0.4489 0.07417 0.0
H634 H 0.38958 0.45649 0.86757 0.0
H635 H 0.38921 0.40998 0.85591 0.0
H636 H 0.39634 0.48429 0.06476 0.0
H637 H 0.34578 0.50095 0.86165 0.0
H638 H 0.34946 0.46975 0.89766 0.0
H639 H 0.36435 0.48299 0.83327 0.0
C640 C 0.37276 0.41398 0.02029 0.0
C641 C 0.3786 0.40249 0.95883 0.0
C642 C 0.3728 0.44052 0.02646 0.0
C643 C 0.37861 0.45612 0.9713 0.0
C644 C 0.38475 0.44478 0.91032 0.0
H645 H 0.40504 0.61862 -0.00884 0.0
H646 H 0.40582 0.57218 0.98103 0.0
C647 C 0.38471 0.4182 0.90404 0.0
C648 C 0.37835 0.48425 0.97813 0.0
H649 H 0.36019 0.53761 0.90989 0.0
C650 C 0.38845 0.49598 0.03095 0.0
C651 C 0.36785 0.49936 0.93446 0.0
C652 C 0.3561 0.48767 0.87893 0.0
C653 C 0.38846 0.5225 0.04086 0.0
C654 C 0.3783 0.53767 -0.00387 0.0
C655 C 0.36806 0.52592 0.94375 0.0
C656 C 0.37791 0.56576 0.00333 0.0
C657 C 0.39908 0.53401 0.09992 0.0
C658 C 0.36189 0.57756 0.01808 0.0
C659 C 0.36139 0.6041 0.02401 0.0
C660 C 0.3769 0.61935 0.0149 0.0
C661 C 0.39292 0.60742 -0.00021 0.0
C662 C 0.3934 0.58089 -0.00612 0.0
H663 H 0.40253 0.51943 0.13915 0.0
H664 H 0.41163 0.54266 0.07932 0.0
H665 H 0.39165 0.54925 0.12594 0.0
H666 H 0.34978 0.5662 0.02544 0.0
H667 H 0.34888 0.61264 0.03637 0.0
H668 H 0.60675 0.1166 0.98231 0.0
H669 H 0.60625 0.07013 -0.00482 0.0
H670 H 0.66212 0.06945 0.94734 0.0
H671 H 0.66273 0.11586 0.93379 0.0
H672 H 0.61524 0.03243 0.89931 0.0
H673 H 0.65836 0.03051 0.13225 0.0
H674 H 0.64817 0.05922 0.10214 0.0
H675 H 0.66781 0.04809 0.06049 0.0
C676 C 0.6189 0.10655 0.9739 0.0
C677 C 0.63481 0.11996 0.95738 0.0
C678 C 0.6186 0.08002 0.98165 0.0
C679 C 0.6342 0.06644 0.97336 0.0
C680 C 0.65002 0.07966 0.95553 0.0
H681 H 0.64548 0.9046 0.90692 0.0
H682 H 0.64453 0.95103 0.89703 0.0
C683 C 0.65034 0.10618 0.9478 0.0
C684 C 0.6339 0.03837 0.98258 0.0
H685 H 0.65182 0.99065 0.07788 0.0
C686 C 0.62317 0.02327 0.93851 0.0
C687 C 0.64408 0.02654 0.03443 0.0
C688 C 0.65514 0.0419 0.08552 0.0
C689 C 0.62266 0.99654 0.94383 0.0
C690 C 0.63336 0.98468 -0.00607 0.0
C691 C 0.64377 0.99981 0.03908 0.0
C692 C 0.63402 0.95656 0.00015 0.0
C693 C 0.61053 0.98126 0.89631 0.0
C694 C 0.62887 0.94434 0.06208 0.0
C695 C 0.62959 0.91782 0.06822 0.0
C696 C 0.63561 0.90304 0.01264 0.0
C697 C 0.64093 0.91542 0.95092 0.0
C698 C 0.6402 0.94193 0.94485 0.0
H699 H 0.59993 0.99311 0.87433 0.0
H700 H 0.6184 0.97382 0.85254 0.0
H701 H 0.60423 0.96475 0.92404 0.0
H702 H 0.6242 0.95535 0.10557 0.0
H703 H 0.62562 0.90892 0.11675 0.0
H704 H 0.14896 0.2203 0.30288 0.0
H705 H 0.14698 0.22016 0.17656 0.0
H706 H 0.14577 0.30239 0.17561 0.0
H707 H 0.14794 0.30282 0.30174 0.0
H708 H 0.11673 0.24096 0.11371 0.0
H709 H 0.17949 0.28602 0.01474 0.0
H710 H 0.17754 0.27239 0.10061 0.0
H711 H 0.16899 0.30334 0.08291 0.0
C712 C 0.14875 0.23839 0.2757 0.0
C713 C 0.14837 0.26157 0.31208 0.0
C714 C 0.14761 0.23825 0.20371 0.0
C715 C 0.14624 0.26125 0.16734 0.0
C716 C 0.14706 0.28449 0.20305 0.0
H717 H 0.12359 0.30161 0.74511 0.0
H718 H 0.12547 0.3018 0.87145 0.0
C719 C 0.14822 0.28467 0.27506 0.0
C720 C 0.14167 0.26083 0.09344 0.0
H721 H 0.15575 0.28105 0.93444 0.0
C722 C 0.12528 0.24954 0.07426 0.0
C723 C 0.15284 0.27231 0.04289 0.0
C724 C 0.17077 0.28403 0.06103 0.0
C725 C 0.11963 0.2497 0.00525 0.0
C726 C 0.1308 0.26118 0.95471 0.0
C727 C 0.14719 0.27247 0.97389 0.0
C728 C 0.12626 0.26072 0.8808 0.0
C729 C 0.10171 0.23797 -0.01291 0.0
C730 C 0.1255 0.23747 0.84516 0.0
C731 C 0.1244 0.23725 0.77313 0.0
C732 C 0.12426 0.26034 0.73604 0.0
C733 C 0.1238 0.28353 0.77234 0.0
C734 C 0.12488 0.2837 0.84435 0.0
H735 H 0.09299 0.23596 0.03338 0.0
H736 H 0.09494 0.24961 0.94753 0.0
H737 H 0.1035 0.21866 0.96518 0.0
H738 H 0.12679 0.21958 0.87267 0.0
H739 H 0.12472 0.21909 0.74652 0.0
H740 H 0.86482 0.30246 0.30416 0.0
H741 H 0.86688 0.3025 0.17785 0.0
H742 H 0.86672 0.22019 0.17792 0.0
H743 H 0.86445 0.21985 0.30403 0.0
H744 H 0.89676 0.28068 0.11513 0.0
H745 H 0.83336 0.23764 0.01698 0.0
H746 H 0.83552 0.25121 0.10269 0.0
H747 H 0.84357 0.21996 0.08527 0.0
C748 C 0.86474 0.28434 0.27721 0.0
C749 C 0.86471 0.26115 0.31387 0.0
C750 C 0.86594 0.28443 0.20521 0.0
C751 C 0.86695 0.26137 0.16914 0.0
C752 C 0.86571 0.23815 0.20513 0.0
H753 H 0.88891 0.22038 0.74696 0.0
H754 H 0.88711 0.22017 0.87334 0.0
C755 C 0.8645 0.23802 0.27713 0.0
C756 C 0.87153 0.26161 0.09522 0.0
H757 H 0.85716 0.24183 0.93652 0.0
C758 C 0.88809 0.27236 0.07582 0.0
C759 C 0.8602 0.25048 0.04486 0.0
C760 C 0.8421 0.23934 0.06321 0.0
C761 C 0.89373 0.27203 0.00679 0.0
C762 C 0.88239 0.26091 0.95642 0.0
C763 C 0.86585 0.25013 0.97583 0.0
C764 C 0.88692 0.26127 0.88246 0.0
C765 C 0.91182 0.28319 -0.01162 0.0
C766 C 0.88799 0.28454 0.84667 0.0
C767 C 0.88904 0.28477 0.77463 0.0
C768 C 0.88882 0.2617 0.73767 0.0
C769 C 0.88897 0.23846 0.77409 0.0
C770 C 0.88794 0.23827 0.84612 0.0
H771 H 0.92056 0.28491 0.03459 0.0
H772 H 0.9184 0.27133 0.94888 0.0
H773 H 0.91033 0.30257 0.9663 0.0
H774 H 0.88698 0.30245 0.87411 0.0
H775 H 0.88896 0.30297 0.74792 0.0
H776 H 0.12384 0.80171 0.21963 0.0
H777 H 0.12565 0.80182 0.09327 0.0
H778 H 0.1264 0.71956 0.09314 0.0
H779 H 0.1244 0.71915 0.21932 0.0
H780 H 0.15578 0.78059 0.03038 0.0
H781 H 0.09271 0.73639 0.93246 0.0
H782 H 0.09476 0.75006 0.0181 0.0
H783 H 0.10309 0.71897 0.00085 0.0
C784 C 0.12392 0.78361 0.19264 0.0
C785 C 0.12423 0.76042 0.22924 0.0
C786 C 0.12496 0.78374 0.12062 0.0
C787 C 0.12616 0.76072 0.08447 0.0
C788 C 0.12525 0.73748 0.12043 0.0
H789 H 0.14859 0.71997 0.66262 0.0
H790 H 0.14662 0.71982 0.78896 0.0
C791 C 0.12419 0.73731 0.19247 0.0
C792 C 0.13069 0.76109 0.01053 0.0
H793 H 0.11647 0.74103 0.85189 0.0
C794 C 0.14716 0.77212 -0.0089 0.0
C795 C 0.11944 0.74975 0.96022 0.0
C796 C 0.10144 0.73829 0.97866 0.0
C797 C 0.1528 0.77187 0.92207 0.0
C798 C 0.14155 0.76054 0.87174 0.0
C799 C 0.12508 0.74949 0.89118 0.0
C800 C 0.1461 0.76092 0.79782 0.0
C801 C 0.17081 0.78332 0.90364 0.0
C802 C 0.14704 0.78417 0.76192 0.0
C803 C 0.14819 0.78436 0.68991 0.0
C804 C 0.14821 0.76126 0.65309 0.0
C805 C 0.14848 0.73806 0.68965 0.0
C806 C 0.14734 0.73791 0.76165 0.0
H807 H 0.17954 0.7852 0.94984 0.0
H808 H 0.17749 0.77156 0.86418 0.0
H809 H 0.16916 0.80265 0.8815 0.0
H810 H 0.14585 0.80207 0.78922 0.0
H811 H 0.14801 0.80253 0.66308 0.0
H812 H 0.86392 0.7197 0.66412 0.0
H813 H 0.86594 0.71979 0.79047 0.0
H814 H 0.86729 0.80213 0.79025 0.0
H815 H 0.86508 0.80232 0.66417 0.0
H816 H 0.89626 0.74331 0.85308 0.0
H817 H 0.83351 0.78294 0.95128 0.0
H818 H 0.83546 0.76937 0.86569 0.0
H819 H 0.844 0.80112 0.88272 0.0
C820 C 0.86416 0.73782 0.69105 0.0
C821 C 0.86458 0.76102 0.65437 0.0
C822 C 0.86533 0.73781 0.76306 0.0
C823 C 0.86675 0.76095 0.7991 0.0
C824 C 0.86597 0.7841 0.76307 0.0
H825 H 0.88942 0.80372 0.22081 0.0
H826 H 0.88761 0.80372 0.09442 0.0
C827 C 0.86479 0.78416 0.69108 0.0
C828 C 0.87131 0.76099 0.873 0.0
H829 H 0.85729 0.78028 0.03157 0.0
C830 C 0.88771 0.7512 0.89236 0.0
C831 C 0.86016 0.77159 0.92333 0.0
C832 C 0.84222 0.78167 0.905 0.0
C833 C 0.89338 0.752 0.96133 0.0
C834 C 0.88223 0.7626 0.01166 0.0
C835 C 0.86584 0.77239 -0.00772 0.0
C836 C 0.88676 0.76257 0.08558 0.0
C837 C 0.91131 0.7419 0.97969 0.0
C838 C 0.88745 0.73939 0.12152 0.0
C839 C 0.88849 0.73928 0.19354 0.0
C840 C 0.88867 0.76239 0.23037 0.0
C841 C 0.8892 0.78562 0.1938 0.0
C842 C 0.88815 0.78568 0.12176 0.0
H843 H 0.92003 0.74062 0.93343 0.0
H844 H 0.91808 0.7542 0.01901 0.0
H845 H 0.90953 0.72246 0.00198 0.0
H846 H 0.88614 0.72139 0.09423 0.0
H847 H 0.88813 0.7211 0.22036 0.0
H848 H 0.62335 0.80236 0.24621 0.0
H849 H 0.62574 0.80274 0.37246 0.0
H850 H 0.62726 0.72057 0.37455 0.0
H851 H 0.62474 0.71984 0.24837 0.0
H852 H 0.60685 0.74454 0.48562 0.0
H853 H 0.67574 0.78401 0.45093 0.0
H854 H 0.65852 0.80119 0.40856 0.0
H855 H 0.66321 0.7694 0.38102 0.0
C856 C 0.62379 0.78432 0.27359 0.0
C857 C 0.62424 0.76108 0.23752 0.0
C858 C 0.62521 0.78462 0.34549 0.0
C859 C 0.62709 0.76172 0.3818 0.0
C860 C 0.62598 0.73839 0.34672 0.0
H861 H 0.64905 0.72087 0.80509 0.0
H862 H 0.64647 0.7206 0.67889 0.0
C863 C 0.62455 0.73804 0.27481 0.0
C864 C 0.63183 0.76218 0.45538 0.0
H865 H 0.66544 0.77891 0.56602 0.0
C866 C 0.61963 0.75201 0.50345 0.0
C867 C 0.6486 0.77183 0.47752 0.0
C868 C 0.66237 0.78206 0.42692 0.0
C869 C 0.62368 0.75164 0.57413 0.0
C870 C 0.64046 0.76127 0.59627 0.0
C871 C 0.65265 0.77146 0.54819 0.0
C872 C 0.64524 0.76164 0.66981 0.0
C873 C 0.60991 0.7414 0.62472 0.0
C874 C 0.64647 0.78494 0.70502 0.0
C875 C 0.64802 0.78522 0.7769 0.0
C876 C 0.64832 0.76215 0.81404 0.0
C877 C 0.64862 0.73893 0.77782 0.0
C878 C 0.64709 0.7387 0.70596 0.0
H879 H 0.59654 0.73954 0.60077 0.0
H880 H 0.61373 0.72223 0.64284 0.0
H881 H 0.60913 0.754 0.67076 0.0
H882 H 0.64522 0.8028 0.67731 0.0
H883 H 0.64792 0.80341 0.80345 0.0
H884 H 0.36467 0.71916 0.80301 0.0
H885 H 0.3674 0.71973 0.67686 0.0
H886 H 0.36708 0.80198 0.67765 0.0
H887 H 0.36449 0.80175 0.80386 0.0
H888 H 0.34749 0.74409 0.56543 0.0
H889 H 0.41677 0.78192 0.59945 0.0
H890 H 0.40402 0.76773 0.66964 0.0
H891 H 0.39978 0.79963 0.64144 0.0
C892 C 0.36478 0.73736 0.77628 0.0
C893 C 0.36474 0.76044 0.8132 0.0
C894 C 0.36634 0.73762 0.70439 0.0
C895 C 0.36785 0.76091 0.66896 0.0
C896 C 0.36625 0.78389 0.70489 0.0
H897 H 0.38872 0.80249 0.24708 0.0
H898 H 0.3862 0.80174 0.3733 0.0
C899 C 0.36471 0.78368 0.77676 0.0
C900 C 0.37264 0.76118 0.59538 0.0
H901 H 0.4064 0.77724 0.48439 0.0
C902 C 0.36034 0.75128 0.54746 0.0
C903 C 0.38951 0.77045 0.57307 0.0
C904 C 0.40338 0.78037 0.62349 0.0
C905 C 0.36439 0.75086 0.47677 0.0
C906 C 0.38125 0.76016 0.45444 0.0
C907 C 0.39355 0.77004 0.50236 0.0
C908 C 0.38599 0.76056 0.38082 0.0
C909 C 0.35051 0.74095 0.42633 0.0
C910 C 0.38764 0.73765 0.34465 0.0
C911 C 0.38906 0.73795 0.27274 0.0
C912 C 0.38884 0.76123 0.23651 0.0
C913 C 0.38875 0.78426 0.27364 0.0
C914 C 0.38731 0.7839 0.34557 0.0
H915 H 0.33714 0.73925 0.45046 0.0
H916 H 0.3498 0.75367 0.38039 0.0
H917 H 0.35417 0.72175 0.40802 0.0
H918 H 0.38694 0.71952 0.37175 0.0
H919 H 0.38933 0.71992 0.24548 0.0
H920 H 0.64797 0.30329 0.16438 0.0
H921 H 0.64575 0.30283 0.2905 0.0
H922 H 0.64675 0.22059 0.29031 0.0
H923 H 0.64878 0.22074 0.16399 0.0
H924 H 0.61654 0.24156 0.3532 0.0
H925 H 0.67943 0.28625 0.45125 0.0
H926 H 0.66898 0.30364 0.38296 0.0
H927 H 0.67743 0.27263 0.36554 0.0
C928 C 0.64819 0.28512 0.19122 0.0
C929 C 0.6483 0.26203 0.15441 0.0
C930 C 0.647 0.28493 0.26322 0.0
C931 C 0.6461 0.26168 0.29915 0.0
C932 C 0.64743 0.23868 0.263 0.0
H933 H 0.62453 0.21971 0.72061 0.0
H934 H 0.62653 0.22017 0.59443 0.0
C935 C 0.6486 0.23883 0.191 0.0
C936 C 0.64154 0.26128 0.37307 0.0
H937 H 0.65566 0.28146 0.53174 0.0
C938 C 0.62512 0.2501 0.39249 0.0
C939 C 0.65274 0.27271 0.42342 0.0
C940 C 0.6707 0.28432 0.40503 0.0
C941 C 0.61947 0.25031 0.46153 0.0
C942 C 0.63067 0.26174 0.51187 0.0
C943 C 0.64708 0.27292 0.49244 0.0
C944 C 0.62612 0.26132 0.58582 0.0
C945 C 0.60151 0.23869 0.47995 0.0
C946 C 0.62484 0.28431 0.62201 0.0
C947 C 0.6238 0.28416 0.69404 0.0
C948 C 0.6242 0.26097 0.73061 0.0
C949 C 0.62425 0.23787 0.69379 0.0
C950 C 0.62531 0.23807 0.62174 0.0
H951 H 0.59278 0.23673 0.43374 0.0
H952 H 0.60324 0.21937 0.50209 0.0
H953 H 0.59477 0.25039 0.51941 0.0
H954 H 0.62546 0.3024 0.59469 0.0
H955 H 0.62365 0.30225 0.72105 0.0
H956 H 0.36434 0.21871 0.16177 0.0
H957 H 0.36631 0.21885 0.28814 0.0
H958 H 0.3669 0.30116 0.28786 0.0
H959 H 0.36474 0.30131 0.16176 0.0
H960 H 0.39643 0.24298 0.35075 0.0
H961 H 0.33328 0.28134 0.44897 0.0
H962 H 0.33535 0.26777 0.36342 0.0
H963 H 0.34358 0.29968 0.38031 0.0
C964 C 0.3644 0.23683 0.18869 0.0
C965 C 0.36462 0.26002 0.15199 0.0
C966 C 0.36555 0.23685 0.26072 0.0
C967 C 0.36674 0.26 0.29675 0.0
C968 C 0.36575 0.28312 0.26069 0.0
H969 H 0.38912 0.30338 0.71835 0.0
H970 H 0.38721 0.30329 0.59197 0.0
C971 C 0.36461 0.28315 0.18869 0.0
C972 C 0.3713 0.26014 0.37067 0.0
H973 H 0.3571 0.27919 0.52923 0.0
C974 C 0.38781 0.25071 0.39003 0.0
C975 C 0.36005 0.27052 0.421 0.0
C976 C 0.342 0.28022 0.40267 0.0
C977 C 0.39348 0.25166 0.45898 0.0
C978 C 0.38223 0.26203 0.50931 0.0
C979 C 0.36572 0.27147 0.48995 0.0
C980 C 0.38678 0.26214 0.58324 0.0
C981 C 0.41153 0.24195 0.47732 0.0
C982 C 0.38774 0.23901 0.61923 0.0
C983 C 0.38885 0.23895 0.69124 0.0
C984 C 0.38882 0.26207 0.72802 0.0
C985 C 0.38907 0.28527 0.69138 0.0
C986 C 0.38796 0.28528 0.61934 0.0
H987 H 0.42025 0.24084 0.43103 0.0
H988 H 0.41818 0.2544 0.5166 0.0
H989 H 0.40995 0.22249 0.49965 0.0
H990 H 0.38661 0.22097 0.592 0.0
H991 H 0.3887 0.22078 0.71811 0.0
H992 H 0.07944 0.3009 0.47675 0.0
H993 H 0.0472 0.29996 0.46237 0.0
H994 H 0.04696 0.21794 0.44558 0.0
H995 H 0.07917 0.21859 0.46101 0.0
H996 H 0.02432 0.27991 0.35741 0.0
H997 H 0.014 0.23088 0.61074 0.0
H998 H 0.03507 0.24534 0.58567 0.0
H999 H 0.02816 0.21478 0.55129 0.0
C1000 C 0.07256 0.28266 0.46942 0.0
C1001 C 0.08184 0.25979 0.47086 0.0
C1002 C 0.05415 0.28218 0.46107 0.0
C1003 C 0.0447 0.25886 0.45411 0.0
C1004 C 0.054 0.2361 0.45221 0.0
H1005 H 0.932 0.22009 0.4648 0.0
H1006 H 0.96409 0.21923 0.4476 0.0
C1007 C 0.0724 0.23653 0.4608 0.0
C1008 C 0.02507 0.25832 0.4524 0.0
H1009 H 0.9885 0.23788 0.54351 0.0
C1010 C 0.01645 0.2707 0.39795 0.0
C1011 C 0.0149 0.24636 0.50558 0.0
C1012 C 0.02345 0.23377 0.56701 0.0
C1013 C 0.99785 0.27121 0.39496 0.0
C1014 C 0.9877 0.25936 0.44838 0.0
C1015 C 0.99634 0.24683 0.50245 0.0
C1016 C 0.96811 0.26025 0.45089 0.0
C1017 C 0.9892 0.28415 0.33439 0.0
C1018 C 0.95973 0.28364 0.45794 0.0
C1019 C 0.94137 0.28423 0.46778 0.0
C1020 C 0.93111 0.26139 0.47127 0.0
C1021 C 0.93951 0.23803 0.46245 0.0
C1022 C 0.95784 0.23748 0.45256 0.0
H1023 H 0.99837 0.28608 0.2894 0.0
H1024 H 0.97701 0.27342 0.3178 0.0
H1025 H 0.9854 0.30359 0.35008 0.0
H1026 H 0.96746 0.30141 0.45825 0.0
H1027 H 0.93531 0.30253 0.47464 0.0
H1028 H 0.9319 0.71992 0.50197 0.0
H1029 H 0.964 0.719 0.51869 0.0
H1030 H 0.96734 0.80122 0.50947 0.0
H1031 H 0.9352 0.80239 0.4936 0.0
H1032 H 0.98837 0.73789 0.42302 0.0
H1033 H 0.99835 0.78542 0.67736 0.0
H1034 H 0.97697 0.77291 0.64907 0.0
H1035 H 0.9854 0.80316 0.61708 0.0
C1036 C 0.93941 0.73785 0.50454 0.0
C1037 C 0.931 0.76124 0.49628 0.0
C1038 C 0.95775 0.73727 0.51415 0.0
C1039 C 0.96801 0.76004 0.51609 0.0
C1040 C 0.95962 0.78345 0.50959 0.0
H1041 H 0.07932 0.80089 0.48821 0.0
H1042 H 0.04707 0.79989 0.50298 0.0
C1043 C 0.94126 0.78407 0.50004 0.0
C1044 C 0.98761 0.75915 0.51829 0.0
H1045 H 0.02428 0.77958 0.60872 0.0
C1046 C 0.99623 0.74676 0.464 0.0
C1047 C 0.99778 0.77089 0.57162 0.0
C1048 C 0.98918 0.78366 0.63246 0.0
C1049 C 0.01478 0.74633 0.46055 0.0
C1050 C 0.02498 0.75821 0.5136 0.0
C1051 C 0.01639 0.77044 0.56828 0.0
C1052 C 0.04461 0.75878 0.51155 0.0
C1053 C 0.02332 0.73388 0.39894 0.0
C1054 C 0.05392 0.73603 0.51346 0.0
C1055 C 0.07232 0.73649 0.50468 0.0
C1056 C 0.08175 0.75977 0.49437 0.0
C1057 C 0.07245 0.78263 0.49572 0.0
C1058 C 0.05404 0.78212 0.5043 0.0
H1059 H 0.01383 0.73101 0.35539 0.0
H1060 H 0.03489 0.74553 0.38006 0.0
H1061 H 0.02809 0.7149 0.41455 0.0
H1062 H 0.04689 0.71786 0.52028 0.0
H1063 H 0.0791 0.71857 0.50452 0.0
H1064 H 0.57934 0.8012 0.97731 0.0
H1065 H 0.54711 0.80004 0.96225 0.0
H1066 H 0.54715 0.71801 0.94602 0.0
H1067 H 0.57934 0.71888 0.96212 0.0
H1068 H 0.52442 0.77973 0.85694 0.0
H1069 H 0.51393 0.7309 0.11046 0.0
H1070 H 0.535 0.74547 0.08569 0.0
H1071 H 0.52823 0.71485 0.0514 0.0
C1072 C 0.57253 0.78291 0.96996 0.0
C1073 C 0.58187 0.7601 0.97175 0.0
C1074 C 0.55412 0.78231 0.96122 0.0
C1075 C 0.54476 0.75892 0.95421 0.0
C1076 C 0.55412 0.73622 0.95267 0.0
H1077 H 0.4321 0.71963 0.96373 0.0
H1078 H 0.4642 0.71886 0.94672 0.0
C1079 C 0.57252 0.73677 0.96165 0.0
C1080 C 0.52513 0.75826 0.95212 0.0
H1081 H 0.4885 0.7377 0.04274 0.0
C1082 C 0.51653 0.77052 0.8974 0.0
C1083 C 0.51492 0.74629 0.0052 0.0
C1084 C 0.52344 0.73381 0.06689 0.0
C1085 C 0.49792 0.77092 0.89408 0.0
C1086 C 0.48775 0.75907 0.94743 0.0
C1087 C 0.49636 0.74665 0.00174 0.0
C1088 C 0.46814 0.7599 0.94965 0.0
C1089 C 0.48931 0.78374 0.83325 0.0
C1090 C 0.45972 0.78327 0.9564 0.0
C1091 C 0.44136 0.7838 0.96614 0.0
C1092 C 0.43113 0.76093 0.96983 0.0
C1093 C 0.43958 0.73759 0.96123 0.0
C1094 C 0.45792 0.7371 0.95145 0.0
H1095 H 0.49852 0.78564 0.78838 0.0
H1096 H 0.47715 0.77294 0.81659 0.0
H1097 H 0.48546 0.80319 0.84868 0.0
H1098 H 0.46742 0.80106 0.95661 0.0
H1099 H 0.43527 0.80208 0.97282 0.0
H1100 H 0.43549 0.30171 -0.01235 0.0
H1101 H 0.46769 0.30041 0.00281 0.0
H1102 H 0.46394 0.21841 0.02036 0.0
H1103 H 0.43182 0.21941 0.0043 0.0
H1104 H 0.48946 0.27955 0.1092 0.0
H1105 H 0.49769 0.23138 0.85517 0.0
H1106 H 0.47736 0.24624 0.87985 0.0
H1107 H 0.48253 0.21541 0.9139 0.0
C1108 C 0.44149 0.28341 -0.00466 0.0
C1109 C 0.43113 0.26064 -0.00607 0.0
C1110 C 0.45988 0.28272 0.00412 0.0
C1111 C 0.46818 0.25929 0.01152 0.0
C1112 C 0.45779 0.23664 0.01344 0.0
H1113 H 0.57904 0.2189 0.00142 0.0
H1114 H 0.54688 0.21818 0.01829 0.0
C1115 C 0.43943 0.23728 0.00445 0.0
C1116 C 0.48777 0.25845 0.01365 0.0
H1117 H 0.52341 0.23759 0.92324 0.0
C1118 C 0.49692 0.27036 0.06869 0.0
C1119 C 0.49741 0.24648 0.96057 0.0
C1120 C 0.4883 0.23432 0.89866 0.0
C1121 C 0.51553 0.27041 0.07232 0.0
C1122 C 0.52516 0.25858 0.01892 0.0
C1123 C 0.51597 0.2465 0.96429 0.0
C1124 C 0.5448 0.25925 0.01674 0.0
C1125 C 0.52472 0.28284 0.13354 0.0
C1126 C 0.55428 0.2826 0.01073 0.0
C1127 C 0.57266 0.2831 0.00109 0.0
C1128 C 0.58186 0.26021 -0.00326 0.0
C1129 C 0.57236 0.23687 0.0045 0.0
C1130 C 0.55399 0.2364 0.01419 0.0
H1131 H 0.5156 0.28451 0.17846 0.0
H1132 H 0.5364 0.2719 0.14986 0.0
H1133 H 0.52944 0.30236 0.11873 0.0
H1134 H 0.54739 0.30043 0.01104 0.0
H1135 H 0.57956 0.3014 -0.00493 0.0
loop_
_geom_bond_atom_site_label_1
_geom_bond_atom_site_label_2
_geom_bond_distance
_geom_bond_site_symmetry_2
_ccdc_geom_bond_type
C0 O16 1.251 . S
C0 O18 1.254 . S
N1 C2 1.333 . S
N1 C6 1.307 . S
N1 Zn7 2.020 . S
C2 N1 1.333 . S
C2 C3 1.379 . S
C2 H20 0.952 . S
C3 C2 1.379 . S
C3 C4 1.390 . S
C3 H30 0.949 . S
C4 C3 1.390 . S
C4 C5 1.357 . S
C5 C4 1.357 . S
C5 C6 1.370 . S
C5 H31 0.950 . S
C6 N1 1.307 . S
C6 C5 1.370 . S
C6 H24 0.948 . S
Zn7 N1 2.020 . S
Zn7 O16 2.039 . S
Zn7 O22 2.034 . S
Zn7 O26 2.025 . S
Zn7 O28 2.024 . S
C8 O27 1.246 . S
C8 O28 1.249 . S
N9 C10 1.307 . S
N9 C11 1.333 . S
N9 Zn15 2.020 . S
C10 N9 1.307 . S
C10 C14 1.370 . S
C10 H21 0.948 . S
C11 N9 1.333 . S
C11 C12 1.379 . S
C11 H19 0.952 . S
C12 C11 1.379 . S
C12 C13 1.390 . S
C12 H32 0.949 . S
C13 C12 1.390 . S
C13 C14 1.357 . S
C14 C10 1.370 . S
C14 C13 1.357 . S
C14 H33 0.950 . S
Zn15 N9 2.020 . S
Zn15 O18 2.025 . S
Zn15 O23 2.024 . S
Zn15 O25 2.039 . S
Zn15 O27 2.034 . S
O16 C0 1.251 . S
O16 Zn7 2.039 . S
C17 O22 1.246 . S
C17 O23 1.249 . S
O18 C0 1.254 . S
O18 Zn15 2.025 . S
H19 C11 0.952 . S
H20 C2 0.952 . S
H21 C10 0.948 . S
O22 Zn7 2.034 . S
O22 C17 1.246 . S
O23 Zn15 2.024 . S
O23 C17 1.249 . S
H24 C6 0.948 . S
O25 Zn15 2.039 . S
O25 C29 1.251 . S
O26 Zn7 2.025 . S
O26 C29 1.254 . S
O27 C8 1.246 . S
O27 Zn15 2.034 . S
O28 Zn7 2.024 . S
O28 C8 1.249 . S
C29 O25 1.251 . S
C29 O26 1.254 . S
H30 C3 0.949 . S
H31 C5 0.950 . S
H32 C12 0.949 . S
H33 C14 0.950 . S
C34 O50 1.251 . S
C34 O52 1.254 . S
N35 C36 1.333 . S
N35 C40 1.307 . S
N35 Zn41 2.020 . S
C36 N35 1.333 . S
C36 C37 1.379 . S
C36 H54 0.952 . S
C37 C36 1.379 . S
C37 C38 1.390 . S
C37 H64 0.949 . S
C38 C37 1.390 . S
C38 C39 1.357 . S
C39 C38 1.357 . S
C39 C40 1.370 . S
C39 H65 0.950 . S
C40 N35 1.307 . S
C40 C39 1.370 . S
C40 H58 0.948 . S
Zn41 N35 2.020 . S
Zn41 O50 2.039 . S
Zn41 O56 2.034 . S
Zn41 O60 2.025 . S
Zn41 O62 2.024 . S
C42 O61 1.246 . S
C42 O62 1.249 . S
N43 C44 1.307 . S
N43 C45 1.333 . S
N43 Zn49 2.020 . S
C44 N43 1.307 . S
C44 C48 1.370 . S
C44 H55 0.948 . S
C45 N43 1.333 . S
C45 C46 1.379 . S
C45 H53 0.952 . S
C46 C45 1.379 . S
C46 C47 1.390 . S
C46 H66 0.949 . S
C47 C46 1.390 . S
C47 C48 1.357 . S
C48 C44 1.370 . S
C48 C47 1.357 . S
C48 H67 0.950 . S
Zn49 N43 2.020 . S
Zn49 O52 2.025 . S
Zn49 O57 2.024 . S
Zn49 O59 2.039 . S
Zn49 O61 2.034 . S
O50 C34 1.251 . S
O50 Zn41 2.039 . S
C51 O56 1.246 . S
C51 O57 1.249 . S
O52 C34 1.254 . S
O52 Zn49 2.025 . S
H53 C45 0.952 . S
H54 C36 0.952 . S
H55 C44 0.948 . S
O56 Zn41 2.034 . S
O56 C51 1.246 . S
O57 Zn49 2.024 . S
O57 C51 1.249 . S
H58 C40 0.948 . S
O59 Zn49 2.039 . S
O59 C63 1.251 . S
O60 Zn41 2.025 . S
O60 C63 1.254 . S
O61 C42 1.246 . S
O61 Zn49 2.034 . S
O62 Zn41 2.024 . S
O62 C42 1.249 . S
C63 O59 1.251 . S
C63 O60 1.254 . S
H64 C37 0.949 . S
H65 C39 0.950 . S
H66 C46 0.949 . S
H67 C48 0.950 . S
C68 O84 1.251 . S
C68 O86 1.254 . S
N69 C70 1.333 . S
N69 C74 1.307 . S
N69 Zn75 2.020 . S
C70 N69 1.333 . S
C70 C71 1.379 . S
C70 H88 0.952 . S
C71 C70 1.379 . S
C71 C72 1.390 . S
C71 H98 0.949 . S
C72 C71 1.390 . S
C72 C73 1.357 . S
C73 C72 1.357 . S
C73 C74 1.370 . S
C73 H99 0.950 . S
C74 N69 1.307 . S
C74 C73 1.370 . S
C74 H92 0.948 . S
Zn75 N69 2.020 . S
Zn75 O84 2.039 . S
Zn75 O90 2.034 . S
Zn75 O94 2.025 . S
Zn75 O96 2.024 . S
C76 O95 1.246 . S
C76 O96 1.249 . S
N77 C78 1.307 . S
N77 C79 1.333 . S
N77 Zn83 2.020 . S
C78 N77 1.307 . S
C78 C82 1.370 . S
C78 H89 0.948 . S
C79 N77 1.333 . S
C79 C80 1.379 . S
C79 H87 0.952 . S
C80 C79 1.379 . S
C80 C81 1.390 . S
C80 H100 0.949 . S
C81 C80 1.390 . S
C81 C82 1.357 . S
C82 C78 1.370 . S
C82 C81 1.357 . S
C82 H101 0.950 . S
Zn83 N77 2.020 . S
Zn83 O86 2.025 . S
Zn83 O91 2.024 . S
Zn83 O93 2.039 . S
Zn83 O95 2.034 . S
O84 C68 1.251 . S
O84 Zn75 2.039 . S
C85 O90 1.246 . S
C85 O91 1.249 . S
O86 C68 1.254 . S
O86 Zn83 2.025 . S
H87 C79 0.952 . S
H88 C70 0.952 . S
H89 C78 0.948 . S
O90 Zn75 2.034 . S
O90 C85 1.246 . S
O91 Zn83 2.024 . S
O91 C85 1.249 . S
H92 C74 0.948 . S
O93 Zn83 2.039 . S
O93 C97 1.251 . S
O94 Zn75 2.025 . S
O94 C97 1.254 . S
O95 C76 1.246 . S
O95 Zn83 2.034 . S
O96 Zn75 2.024 . S
O96 C76 1.249 . S
C97 O93 1.251 . S
C97 O94 1.254 . S
H98 C71 0.949 . S
H99 C73 0.950 . S
H100 C80 0.949 . S
H101 C82 0.950 . S
C102 O118 1.251 . S
C102 O120 1.254 . S
N103 C104 1.333 . S
N103 C108 1.307 . S
N103 Zn109 2.020 . S
C104 N103 1.333 . S
C104 C105 1.379 . S
C104 H122 0.952 . S
C105 C104 1.379 . S
C105 C106 1.390 . S
C105 H132 0.949 . S
C106 C105 1.390 . S
C106 C107 1.357 . S
C107 C106 1.357 . S
C107 C108 1.370 . S
C107 H133 0.950 . S
C108 N103 1.307 . S
C108 C107 1.370 . S
C108 H126 0.948 . S
Zn109 N103 2.020 . S
Zn109 O118 2.039 . S
Zn109 O124 2.034 . S
Zn109 O128 2.025 . S
Zn109 O130 2.024 . S
C110 O129 1.246 . S
C110 O130 1.249 . S
N111 C112 1.307 . S
N111 C113 1.333 . S
N111 Zn117 2.020 . S
C112 N111 1.307 . S
C112 C116 1.370 . S
C112 H123 0.948 . S
C113 N111 1.333 . S
C113 C114 1.379 . S
C113 H121 0.952 . S
C114 C113 1.379 . S
C114 C115 1.390 . S
C114 H134 0.949 . S
C115 C114 1.390 . S
C115 C116 1.357 . S
C116 C112 1.370 . S
C116 C115 1.357 . S
C116 H135 0.950 . S
Zn117 N111 2.020 . S
Zn117 O120 2.025 . S
Zn117 O125 2.024 . S
Zn117 O127 2.039 . S
Zn117 O129 2.034 . S
O118 C102 1.251 . S
O118 Zn109 2.039 . S
C119 O124 1.246 . S
C119 O125 1.249 . S
O120 C102 1.254 . S
O120 Zn117 2.025 . S
H121 C113 0.952 . S
H122 C104 0.952 . S
H123 C112 0.948 . S
O124 Zn109 2.034 . S
O124 C119 1.246 . S
O125 Zn117 2.024 . S
O125 C119 1.249 . S
H126 C108 0.948 . S
O127 Zn117 2.039 . S
O127 C131 1.251 . S
O128 Zn109 2.025 . S
O128 C131 1.254 . S
O129 C110 1.246 . S
O129 Zn117 2.034 . S
O130 Zn109 2.024 . S
O130 C110 1.249 . S
C131 O127 1.251 . S
C131 O128 1.254 . S
H132 C105 0.949 . S
H133 C107 0.950 . S
H134 C114 0.949 . S
H135 C116 0.950 . S
C136 O152 1.251 . S
C136 O154 1.254 . S
N137 C138 1.333 . S
N137 C142 1.307 . S
N137 Zn143 2.020 . S
C138 N137 1.333 . S
C138 C139 1.379 . S
C138 H156 0.952 . S
C139 C138 1.379 . S
C139 C140 1.390 . S
C139 H166 0.949 . S
C140 C139 1.390 . S
C140 C141 1.357 . S
C141 C140 1.357 . S
C141 C142 1.370 . S
C141 H167 0.950 . S
C142 N137 1.307 . S
C142 C141 1.370 . S
C142 H160 0.948 . S
Zn143 N137 2.020 . S
Zn143 O152 2.039 . S
Zn143 O158 2.034 1_554 S
Zn143 O162 2.025 . S
Zn143 O164 2.024 . S
C144 O163 1.246 . S
C144 O164 1.249 . S
N145 C146 1.307 . S
N145 C147 1.333 . S
N145 Zn151 2.020 . S
C146 N145 1.307 . S
C146 C150 1.370 . S
C146 H157 0.948 . S
C147 N145 1.333 . S
C147 C148 1.379 . S
C147 H155 0.952 . S
C148 C147 1.379 . S
C148 C149 1.390 . S
C148 H168 0.949 . S
C149 C148 1.390 . S
C149 C150 1.357 . S
C150 C146 1.370 . S
C150 C149 1.357 . S
C150 H169 0.950 . S
Zn151 N145 2.020 . S
Zn151 O154 2.025 . S
Zn151 O159 2.024 1_554 S
Zn151 O161 2.039 . S
Zn151 O163 2.034 . S
O152 C136 1.251 . S
O152 Zn143 2.039 . S
C153 O158 1.246 . S
C153 O159 1.249 . S
O154 C136 1.254 . S
O154 Zn151 2.025 . S
H155 C147 0.952 . S
H156 C138 0.952 . S
H157 C146 0.948 . S
O158 Zn143 2.034 1_556 S
O158 C153 1.246 . S
O159 Zn151 2.024 1_556 S
O159 C153 1.249 . S
H160 C142 0.948 . S
O161 Zn151 2.039 . S
O161 C165 1.251 . S
O162 Zn143 2.025 . S
O162 C165 1.254 . S
O163 C144 1.246 . S
O163 Zn151 2.034 . S
O164 Zn143 2.024 . S
O164 C144 1.249 . S
C165 O161 1.251 . S
C165 O162 1.254 . S
H166 C139 0.949 . S
H167 C141 0.950 . S
H168 C148 0.949 . S
H169 C150 0.950 . S
C170 O186 1.251 . S
C170 O188 1.254 . S
N171 C172 1.333 . S
N171 C176 1.307 . S
N171 Zn177 2.020 . S
C172 N171 1.333 . S
C172 C173 1.379 . S
C172 H190 0.952 . S
C173 C172 1.379 . S
C173 C174 1.390 . S
C173 H200 0.949 . S
C174 C173 1.390 . S
C174 C175 1.357 . S
C175 C174 1.357 . S
C175 C176 1.370 . S
C175 H201 0.950 . S
C176 N171 1.307 . S
C176 C175 1.370 . S
C176 H194 0.948 . S
Zn177 N171 2.020 . S
Zn177 O186 2.039 . S
Zn177 O192 2.034 . S
Zn177 O196 2.025 . S
Zn177 O198 2.024 1_554 S
C178 O197 1.246 . S
C178 O198 1.249 . S
N179 C180 1.307 . S
N179 C181 1.333 . S
N179 Zn185 2.020 . S
C180 N179 1.307 . S
C180 C184 1.370 . S
C180 H191 0.948 . S
C181 N179 1.333 . S
C181 C182 1.379 . S
C181 H189 0.952 . S
C182 C181 1.379 . S
C182 C183 1.390 . S
C182 H202 0.949 . S
C183 C182 1.390 . S
C183 C184 1.357 . S
C184 C180 1.370 . S
C184 C183 1.357 . S
C184 H203 0.950 . S
Zn185 N179 2.020 . S
Zn185 O188 2.025 . S
Zn185 O193 2.024 . S
Zn185 O195 2.039 . S
Zn185 O197 2.034 1_554 S
O186 C170 1.251 . S
O186 Zn177 2.039 . S
C187 O192 1.246 . S
C187 O193 1.249 . S
O188 C170 1.254 . S
O188 Zn185 2.025 . S
H189 C181 0.952 . S
H190 C172 0.952 . S
H191 C180 0.948 . S
O192 Zn177 2.034 . S
O192 C187 1.246 . S
O193 Zn185 2.024 . S
O193 C187 1.249 . S
H194 C176 0.948 . S
O195 Zn185 2.039 . S
O195 C199 1.251 . S
O196 Zn177 2.025 . S
O196 C199 1.254 . S
O197 C178 1.246 . S
O197 Zn185 2.034 1_556 S
O198 Zn177 2.024 1_556 S
O198 C178 1.249 . S
C199 O195 1.251 . S
C199 O196 1.254 . S
H200 C173 0.949 . S
H201 C175 0.950 . S
H202 C182 0.949 . S
H203 C184 0.950 . S
C204 O220 1.251 . S
C204 O222 1.254 . S
N205 C206 1.333 . S
N205 C210 1.307 . S
N205 Zn211 2.020 . S
C206 N205 1.333 . S
C206 C207 1.379 . S
C206 H224 0.952 . S
C207 C206 1.379 . S
C207 C208 1.390 . S
C207 H234 0.949 . S
C208 C207 1.390 . S
C208 C209 1.357 . S
C209 C208 1.357 . S
C209 C210 1.370 . S
C209 H235 0.950 . S
C210 N205 1.307 . S
C210 C209 1.370 . S
C210 H228 0.948 . S
Zn211 N205 2.020 . S
Zn211 O220 2.039 . S
Zn211 O226 2.034 . S
Zn211 O230 2.025 . S
Zn211 O232 2.024 1_556 S
C212 O231 1.246 . S
C212 O232 1.249 . S
N213 C214 1.307 . S
N213 C215 1.333 . S
N213 Zn219 2.020 . S
C214 N213 1.307 . S
C214 C218 1.370 . S
C214 H225 0.948 . S
C215 N213 1.333 . S
C215 C216 1.379 . S
C215 H223 0.952 . S
C216 C215 1.379 . S
C216 C217 1.390 . S
C216 H236 0.949 . S
C217 C216 1.390 . S
C217 C218 1.357 . S
C218 C214 1.370 . S
C218 C217 1.357 . S
C218 H237 0.950 . S
Zn219 N213 2.020 . S
Zn219 O222 2.025 . S
Zn219 O227 2.024 . S
Zn219 O229 2.039 . S
Zn219 O231 2.034 1_556 S
O220 C204 1.251 . S
O220 Zn211 2.039 . S
C221 O226 1.246 . S
C221 O227 1.249 . S
O222 C204 1.254 . S
O222 Zn219 2.025 . S
H223 C215 0.952 . S
H224 C206 0.952 . S
H225 C214 0.948 . S
O226 Zn211 2.034 . S
O226 C221 1.246 . S
O227 Zn219 2.024 . S
O227 C221 1.249 . S
H228 C210 0.948 . S
O229 Zn219 2.039 . S
O229 C233 1.251 . S
O230 Zn211 2.025 . S
O230 C233 1.254 . S
O231 C212 1.246 . S
O231 Zn219 2.034 1_554 S
O232 Zn211 2.024 1_554 S
O232 C212 1.249 . S
C233 O229 1.251 . S
C233 O230 1.254 . S
H234 C207 0.949 . S
H235 C209 0.950 . S
H236 C216 0.949 . S
H237 C218 0.950 . S
C238 O254 1.251 . S
C238 O256 1.254 . S
N239 C240 1.333 . S
N239 C244 1.307 . S
N239 Zn245 2.020 . S
C240 N239 1.333 . S
C240 C241 1.379 . S
C240 H258 0.952 . S
C241 C240 1.379 . S
C241 C242 1.390 . S
C241 H268 0.949 . S
C242 C241 1.390 . S
C242 C243 1.357 . S
C243 C242 1.357 . S
C243 C244 1.370 . S
C243 H269 0.950 . S
C244 N239 1.307 . S
C244 C243 1.370 . S
C244 H262 0.948 . S
Zn245 N239 2.020 . S
Zn245 O254 2.039 . S
Zn245 O260 2.034 . S
Zn245 O264 2.025 . S
Zn245 O266 2.024 1_556 S
C246 O265 1.246 . S
C246 O266 1.249 . S
N247 C248 1.307 . S
N247 C249 1.333 . S
N247 Zn253 2.020 . S
C248 N247 1.307 . S
C248 C252 1.370 . S
C248 H259 0.948 . S
C249 N247 1.333 . S
C249 C250 1.379 . S
C249 H257 0.952 . S
C250 C249 1.379 . S
C250 C251 1.390 . S
C250 H270 0.949 . S
C251 C250 1.390 . S
C251 C252 1.357 . S
C252 C248 1.370 . S
C252 C251 1.357 . S
C252 H271 0.950 . S
Zn253 N247 2.020 . S
Zn253 O256 2.025 . S
Zn253 O261 2.024 . S
Zn253 O263 2.039 . S
Zn253 O265 2.034 1_556 S
O254 C238 1.251 . S
O254 Zn245 2.039 . S
C255 O260 1.246 . S
C255 O261 1.249 . S
O256 C238 1.254 . S
O256 Zn253 2.025 . S
H257 C249 0.952 . S
H258 C240 0.952 . S
H259 C248 0.948 . S
O260 Zn245 2.034 . S
O260 C255 1.246 . S
O261 Zn253 2.024 . S
O261 C255 1.249 . S
H262 C244 0.948 . S
O263 Zn253 2.039 . S
O263 C267 1.251 . S
O264 Zn245 2.025 . S
O264 C267 1.254 . S
O265 C246 1.246 . S
O265 Zn253 2.034 1_554 S
O266 Zn245 2.024 1_554 S
O266 C246 1.249 . S
C267 O263 1.251 . S
C267 O264 1.254 . S
H268 C241 0.949 . S
H269 C243 0.950 . S
H270 C250 0.949 . S
H271 C252 0.950 . S
H272 C280 0.929 . S
H273 C282 0.930 . S
H274 C284 0.930 . S
H275 C287 0.929 . S
H276 C290 0.930 . S
H277 C292 0.960 . S
H278 C292 0.960 . S
H279 C292 0.960 . S
C280 H272 0.929 . S
C280 C281 1.377 . S
C280 C282 1.384 . S
C281 C280 1.377 . S
C281 C287 1.390 . S
C282 H273 0.930 . S
C282 C280 1.384 . S
C282 C283 1.372 . S
C283 C282 1.372 . S
C283 C284 1.400 . S
C283 C288 1.490 . S
C284 H274 0.930 . S
C284 C283 1.400 . S
C284 C287 1.386 . S
H285 C301 0.930 . S
H286 C302 0.931 . S
C287 H275 0.929 . S
C287 C281 1.390 . S
C287 C284 1.386 . S
C288 C283 1.490 . S
C288 C290 1.395 . S
C288 C291 1.403 . S
H289 C295 0.930 . S
C290 H276 0.930 . S
C290 C288 1.395 . S
C290 C293 1.403 . S
C291 C288 1.403 . S
C291 C292 1.524 . S
C291 C295 1.400 . S
C292 H277 0.960 . S
C292 H278 0.960 . S
C292 H279 0.960 . S
C292 C291 1.524 . S
C293 C290 1.403 . S
C293 C294 1.392 . S
C293 C297 1.495 . S
C294 C293 1.392 . S
C294 C295 1.385 . S
C294 C296 1.478 . S
C295 H289 0.930 . S
C295 C291 1.400 . S
C295 C294 1.385 . S
C296 C294 1.478 . S
C296 C298 1.381 . S
C296 C302 1.383 . S
C297 C293 1.495 . S
C297 H303 0.959 . S
C297 H304 0.961 . S
C297 H305 0.960 . S
C298 C296 1.381 . S
C298 C299 1.394 . S
C298 H306 0.930 . S
C299 C298 1.394 . S
C299 C300 1.383 . S
C299 H307 0.929 . S
C300 C299 1.383 . S
C300 C301 1.377 . S
C301 H285 0.930 . S
C301 C300 1.377 . S
C301 C302 1.379 . S
C302 H286 0.931 . S
C302 C296 1.383 . S
C302 C301 1.379 . S
H303 C297 0.959 . S
H304 C297 0.961 . S
H305 C297 0.960 . S
H306 C298 0.930 . S
H307 C299 0.929 . S
H308 C316 0.929 . S
H309 C318 0.930 . S
H310 C320 0.930 . S
H311 C323 0.929 . S
H312 C326 0.930 . S
H313 C328 0.960 . S
H314 C328 0.960 . S
H315 C328 0.960 . S
C316 H308 0.929 . S
C316 C317 1.377 . S
C316 C318 1.384 . S
C317 C316 1.377 . S
C317 C323 1.390 . S
C318 H309 0.930 . S
C318 C316 1.384 . S
C318 C319 1.372 . S
C319 C318 1.372 . S
C319 C320 1.400 . S
C319 C324 1.490 . S
C320 H310 0.930 . S
C320 C319 1.400 . S
C320 C323 1.386 . S
H321 C337 0.930 . S
H322 C338 0.931 . S
C323 H311 0.929 . S
C323 C317 1.390 . S
C323 C320 1.386 . S
C324 C319 1.490 . S
C324 C326 1.395 . S
C324 C327 1.403 . S
H325 C331 0.930 . S
C326 H312 0.930 . S
C326 C324 1.395 . S
C326 C329 1.403 . S
C327 C324 1.403 . S
C327 C328 1.524 . S
C327 C331 1.400 . S
C328 H313 0.960 . S
C328 H314 0.960 . S
C328 H315 0.960 . S
C328 C327 1.524 . S
C329 C326 1.403 . S
C329 C330 1.392 . S
C329 C333 1.495 . S
C330 C329 1.392 . S
C330 C331 1.385 . S
C330 C332 1.478 . S
C331 H325 0.930 . S
C331 C327 1.400 . S
C331 C330 1.385 . S
C332 C330 1.478 . S
C332 C334 1.381 . S
C332 C338 1.383 . S
C333 C329 1.495 . S
C333 H339 0.959 . S
C333 H340 0.961 . S
C333 H341 0.960 . S
C334 C332 1.381 . S
C334 C335 1.394 . S
C334 H342 0.930 . S
C335 C334 1.394 . S
C335 C336 1.383 . S
C335 H343 0.929 . S
C336 C335 1.383 . S
C336 C337 1.377 . S
C337 H321 0.930 . S
C337 C336 1.377 . S
C337 C338 1.379 . S
C338 H322 0.931 . S
C338 C332 1.383 . S
C338 C337 1.379 . S
H339 C333 0.959 . S
H340 C333 0.961 . S
H341 C333 0.960 . S
H342 C334 0.930 . S
H343 C335 0.929 . S
H344 C352 0.929 . S
H345 C354 0.930 . S
H346 C356 0.930 . S
H347 C359 0.929 . S
H348 C362 0.930 . S
H349 C364 0.960 . S
H350 C364 0.960 . S
H351 C364 0.960 . S
C352 H344 0.929 . S
C352 C353 1.377 . S
C352 C354 1.384 . S
C353 C352 1.377 . S
C353 C359 1.390 . S
C354 H345 0.930 . S
C354 C352 1.384 . S
C354 C355 1.372 . S
C355 C354 1.372 . S
C355 C356 1.400 . S
C355 C360 1.490 . S
C356 H346 0.930 . S
C356 C355 1.400 . S
C356 C359 1.386 . S
H357 C373 0.930 . S
H358 C374 0.931 . S
C359 H347 0.929 . S
C359 C353 1.390 . S
C359 C356 1.386 . S
C360 C355 1.490 . S
C360 C362 1.395 . S
C360 C363 1.403 . S
H361 C367 0.930 . S
C362 H348 0.930 . S
C362 C360 1.395 . S
C362 C365 1.403 . S
C363 C360 1.403 . S
C363 C364 1.524 . S
C363 C367 1.400 . S
C364 H349 0.960 . S
C364 H350 0.960 . S
C364 H351 0.960 . S
C364 C363 1.524 . S
C365 C362 1.403 . S
C365 C366 1.392 . S
C365 C369 1.495 . S
C366 C365 1.392 . S
C366 C367 1.385 . S
C366 C368 1.478 . S
C367 H361 0.930 . S
C367 C363 1.400 . S
C367 C366 1.385 . S
C368 C366 1.478 . S
C368 C370 1.381 . S
C368 C374 1.383 . S
C369 C365 1.495 . S
C369 H375 0.959 . S
C369 H376 0.961 . S
C369 H377 0.960 . S
C370 C368 1.381 . S
C370 C371 1.394 . S
C370 H378 0.930 . S
C371 C370 1.394 . S
C371 C372 1.383 . S
C371 H379 0.929 . S
C372 C371 1.383 . S
C372 C373 1.377 . S
C373 H357 0.930 . S
C373 C372 1.377 . S
C373 C374 1.379 . S
C374 H358 0.931 . S
C374 C368 1.383 . S
C374 C373 1.379 . S
H375 C369 0.959 . S
H376 C369 0.961 . S
H377 C369 0.960 . S
H378 C370 0.930 . S
H379 C371 0.929 . S
H380 C388 0.929 . S
H381 C390 0.930 . S
H382 C392 0.930 . S
H383 C395 0.929 . S
H384 C398 0.930 . S
H385 C400 0.960 . S
H386 C400 0.960 . S
H387 C400 0.960 . S
C388 H380 0.929 . S
C388 C389 1.377 . S
C388 C390 1.384 . S
C389 C388 1.377 . S
C389 C395 1.390 . S
C390 H381 0.930 . S
C390 C388 1.384 . S
C390 C391 1.372 . S
C391 C390 1.372 . S
C391 C392 1.400 . S
C391 C396 1.490 . S
C392 H382 0.930 . S
C392 C391 1.400 . S
C392 C395 1.386 . S
H393 C409 0.930 . S
H394 C410 0.931 . S
C395 H383 0.929 . S
C395 C389 1.390 . S
C395 C392 1.386 . S
C396 C391 1.490 . S
C396 C398 1.395 . S
C396 C399 1.403 . S
H397 C403 0.930 . S
C398 H384 0.930 . S
C398 C396 1.395 . S
C398 C401 1.403 . S
C399 C396 1.403 . S
C399 C400 1.524 . S
C399 C403 1.400 . S
C400 H385 0.960 . S
C400 H386 0.960 . S
C400 H387 0.960 . S
C400 C399 1.524 . S
C401 C398 1.403 . S
C401 C402 1.392 . S
C401 C405 1.495 . S
C402 C401 1.392 . S
C402 C403 1.385 . S
C402 C404 1.478 . S
C403 H397 0.930 . S
C403 C399 1.400 . S
C403 C402 1.385 . S
C404 C402 1.478 . S
C404 C406 1.381 . S
C404 C410 1.383 . S
C405 C401 1.495 . S
C405 H411 0.959 . S
C405 H412 0.961 . S
C405 H413 0.960 . S
C406 C404 1.381 . S
C406 C407 1.394 . S
C406 H414 0.930 . S
C407 C406 1.394 . S
C407 C408 1.383 . S
C407 H415 0.929 . S
C408 C407 1.383 . S
C408 C409 1.377 . S
C409 H393 0.930 . S
C409 C408 1.377 . S
C409 C410 1.379 . S
C410 H394 0.931 . S
C410 C404 1.383 . S
C410 C409 1.379 . S
H411 C405 0.959 . S
H412 C405 0.961 . S
H413 C405 0.960 . S
H414 C406 0.930 . S
H415 C407 0.929 . S
H416 C424 0.929 . S
H417 C426 0.930 . S
H418 C428 0.930 . S
H419 C431 0.929 . S
H420 C434 0.930 . S
H421 C436 0.960 . S
H422 C436 0.960 . S
H423 C436 0.960 . S
C424 H416 0.929 . S
C424 C425 1.377 . S
C424 C426 1.384 . S
C425 C424 1.377 . S
C425 C431 1.390 . S
C426 H417 0.930 . S
C426 C424 1.384 . S
C426 C427 1.372 . S
C427 C426 1.372 . S
C427 C428 1.400 . S
C427 C432 1.490 . S
C428 H418 0.930 . S
C428 C427 1.400 . S
C428 C431 1.386 . S
H429 C445 0.930 . S
H430 C446 0.931 . S
C431 H419 0.929 . S
C431 C425 1.390 . S
C431 C428 1.386 . S
C432 C427 1.490 . S
C432 C434 1.395 . S
C432 C435 1.403 . S
H433 C439 0.930 . S
C434 H420 0.930 . S
C434 C432 1.395 . S
C434 C437 1.403 1_565 S
C435 C432 1.403 . S
C435 C436 1.524 . S
C435 C439 1.400 1_565 S
C436 H421 0.960 . S
C436 H422 0.960 . S
C436 H423 0.960 . S
C436 C435 1.524 . S
C437 C434 1.403 1_545 S
C437 C438 1.392 . S
C437 C441 1.495 . S
C438 C437 1.392 . S
C438 C439 1.385 . S
C438 C440 1.478 . S
C439 H433 0.930 . S
C439 C435 1.400 1_545 S
C439 C438 1.385 . S
C440 C438 1.478 . S
C440 C442 1.381 . S
C440 C446 1.383 . S
C441 C437 1.495 . S
C441 H447 0.959 . S
C441 H448 0.961 . S
C441 H449 0.960 . S
C442 C440 1.381 . S
C442 C443 1.394 . S
C442 H450 0.930 . S
C443 C442 1.394 . S
C443 C444 1.383 . S
C443 H451 0.929 . S
C444 C443 1.383 . S
C444 C445 1.377 . S
C445 H429 0.930 . S
C445 C444 1.377 . S
C445 C446 1.379 . S
C446 H430 0.931 . S
C446 C440 1.383 . S
C446 C445 1.379 . S
H447 C441 0.959 . S
H448 C441 0.961 . S
H449 C441 0.960 . S
H450 C442 0.930 . S
H451 C443 0.929 . S
H452 C460 0.929 . S
H453 C462 0.930 . S
H454 C464 0.930 . S
H455 C467 0.929 . S
H456 C470 0.930 . S
H457 C472 0.960 . S
H458 C472 0.960 . S
H459 C472 0.960 . S
C460 H452 0.929 . S
C460 C461 1.377 . S
C460 C462 1.384 . S
C461 C460 1.377 . S
C461 C467 1.390 . S
C462 H453 0.930 . S
C462 C460 1.384 . S
C462 C463 1.372 . S
C463 C462 1.372 . S
C463 C464 1.400 . S
C463 C468 1.490 . S
C464 H454 0.930 . S
C464 C463 1.400 . S
C464 C467 1.386 . S
H465 C481 0.930 . S
H466 C482 0.931 . S
C467 H455 0.929 . S
C467 C461 1.390 . S
C467 C464 1.386 . S
C468 C463 1.490 . S
C468 C470 1.395 . S
C468 C471 1.403 . S
H469 C475 0.930 . S
C470 H456 0.930 . S
C470 C468 1.395 . S
C470 C473 1.403 . S
C471 C468 1.403 . S
C471 C472 1.524 . S
C471 C475 1.400 . S
C472 H457 0.960 . S
C472 H458 0.960 . S
C472 H459 0.960 . S
C472 C471 1.524 . S
C473 C470 1.403 . S
C473 C474 1.392 . S
C473 C477 1.495 . S
C474 C473 1.392 . S
C474 C475 1.385 . S
C474 C476 1.478 . S
C475 H469 0.930 . S
C475 C471 1.400 . S
C475 C474 1.385 . S
C476 C474 1.478 . S
C476 C478 1.381 . S
C476 C482 1.383 . S
C477 C473 1.495 . S
C477 H483 0.959 . S
C477 H484 0.961 . S
C477 H485 0.960 . S
C478 C476 1.381 . S
C478 C479 1.394 . S
C478 H486 0.930 . S
C479 C478 1.394 . S
C479 C480 1.383 . S
C479 H487 0.929 . S
C480 C479 1.383 . S
C480 C481 1.377 . S
C481 H465 0.930 . S
C481 C480 1.377 . S
C481 C482 1.379 . S
C482 H466 0.931 . S
C482 C476 1.383 . S
C482 C481 1.379 . S
H483 C477 0.959 . S
H484 C477 0.961 . S
H485 C477 0.960 . S
H486 C478 0.930 . S
H487 C479 0.929 . S
H488 C496 0.929 . S
H489 C498 0.930 . S
H490 C500 0.930 . S
H491 C503 0.929 . S
H492 C506 0.930 . S
H493 C508 0.960 . S
H494 C508 0.960 . S
H495 C508 0.960 . S
C496 H488 0.929 . S
C496 C497 1.377 . S
C496 C498 1.384 . S
C497 C496 1.377 . S
C497 C503 1.390 . S
C498 H489 0.930 . S
C498 C496 1.384 . S
C498 C499 1.372 . S
C499 C498 1.372 . S
C499 C500 1.400 . S
C499 C504 1.490 . S
C500 H490 0.930 . S
C500 C499 1.400 . S
C500 C503 1.386 . S
H501 C517 0.930 . S
H502 C518 0.931 . S
C503 H491 0.929 . S
C503 C497 1.390 . S
C503 C500 1.386 . S
C504 C499 1.490 . S
C504 C506 1.395 . S
C504 C507 1.403 . S
H505 C511 0.930 . S
C506 H492 0.930 . S
C506 C504 1.395 . S
C506 C509 1.403 1_565 S
C507 C504 1.403 . S
C507 C508 1.524 . S
C507 C511 1.400 1_565 S
C508 H493 0.960 . S
C508 H494 0.960 . S
C508 H495 0.960 . S
C508 C507 1.524 . S
C509 C506 1.403 1_545 S
C509 C510 1.392 . S
C509 C513 1.495 . S
C510 C509 1.392 . S
C510 C511 1.385 . S
C510 C512 1.478 . S
C511 H505 0.930 . S
C511 C507 1.400 1_545 S
C511 C510 1.385 . S
C512 C510 1.478 . S
C512 C514 1.381 . S
C512 C518 1.383 . S
C513 C509 1.495 . S
C513 H519 0.959 . S
C513 H520 0.961 . S
C513 H521 0.960 . S
C514 C512 1.381 . S
C514 C515 1.394 . S
C514 H522 0.930 . S
C515 C514 1.394 . S
C515 C516 1.383 . S
C515 H523 0.929 . S
C516 C515 1.383 . S
C516 C517 1.377 . S
C517 H501 0.930 . S
C517 C516 1.377 . S
C517 C518 1.379 . S
C518 H502 0.931 . S
C518 C512 1.383 . S
C518 C517 1.379 . S
H519 C513 0.959 . S
H520 C513 0.961 . S
H521 C513 0.960 . S
H522 C514 0.930 . S
H523 C515 0.929 . S
H524 C532 0.929 . S
H525 C534 0.930 . S
H526 C536 0.930 . S
H527 C539 0.929 . S
H528 C542 0.930 . S
H529 C544 0.960 . S
H530 C544 0.960 . S
H531 C544 0.960 . S
C532 H524 0.929 . S
C532 C533 1.377 . S
C532 C534 1.384 . S
C533 C532 1.377 . S
C533 C539 1.390 . S
C534 H525 0.930 . S
C534 C532 1.384 . S
C534 C535 1.372 . S
C535 C534 1.372 . S
C535 C536 1.400 . S
C535 C540 1.490 . S
C536 H526 0.930 . S
C536 C535 1.400 . S
C536 C539 1.386 . S
H537 C553 0.930 . S
H538 C554 0.931 . S
C539 H527 0.929 . S
C539 C533 1.390 . S
C539 C536 1.386 . S
C540 C535 1.490 . S
C540 C542 1.395 . S
C540 C543 1.403 . S
H541 C547 0.930 . S
C542 H528 0.930 . S
C542 C540 1.395 . S
C542 C545 1.403 . S
C543 C540 1.403 . S
C543 C544 1.524 . S
C543 C547 1.400 . S
C544 H529 0.960 . S
C544 H530 0.960 . S
C544 H531 0.960 . S
C544 C543 1.524 . S
C545 C542 1.403 . S
C545 C546 1.392 . S
C545 C549 1.495 . S
C546 C545 1.392 . S
C546 C547 1.385 . S
C546 C548 1.478 . S
C547 H541 0.930 . S
C547 C543 1.400 . S
C547 C546 1.385 . S
C548 C546 1.478 . S
C548 C550 1.381 . S
C548 C554 1.383 . S
C549 C545 1.495 . S
C549 H555 0.959 . S
C549 H556 0.961 . S
C549 H557 0.960 . S
C550 C548 1.381 . S
C550 C551 1.394 . S
C550 H558 0.930 . S
C551 C550 1.394 . S
C551 C552 1.383 . S
C551 H559 0.929 . S
C552 C551 1.383 . S
C552 C553 1.377 . S
C553 H537 0.930 . S
C553 C552 1.377 . S
C553 C554 1.379 . S
C554 H538 0.931 . S
C554 C548 1.383 . S
C554 C553 1.379 . S
H555 C549 0.959 . S
H556 C549 0.961 . S
H557 C549 0.960 . S
H558 C550 0.930 . S
H559 C551 0.929 . S
H560 C568 0.929 . S
H561 C570 0.930 . S
H562 C572 0.930 1_556 S
H563 C575 0.929 . S
H564 C578 0.930 . S
H565 C580 0.960 . S
H566 C580 0.960 . S
H567 C580 0.960 . S
C568 H560 0.929 . S
C568 C569 1.377 . S
C568 C570 1.384 . S
C569 C568 1.377 . S
C569 C575 1.390 . S
C570 H561 0.930 . S
C570 C568 1.384 . S
C570 C571 1.372 . S
C571 C570 1.372 . S
C571 C572 1.400 . S
C571 C576 1.490 . S
C572 H562 0.930 1_554 S
C572 C571 1.400 . S
C572 C575 1.386 . S
H573 C589 0.930 . S
H574 C590 0.931 . S
C575 H563 0.929 . S
C575 C569 1.390 . S
C575 C572 1.386 . S
C576 C571 1.490 . S
C576 C578 1.395 . S
C576 C579 1.403 1_554 S
H577 C583 0.930 . S
C578 H564 0.930 . S
C578 C576 1.395 . S
C578 C581 1.403 . S
C579 C576 1.403 1_556 S
C579 C580 1.524 . S
C579 C583 1.400 . S
C580 H565 0.960 . S
C580 H566 0.960 . S
C580 H567 0.960 . S
C580 C579 1.524 . S
C581 C578 1.403 . S
C581 C582 1.392 1_554 S
C581 C585 1.495 . S
C582 C581 1.392 1_556 S
C582 C583 1.385 . S
C582 C584 1.478 . S
C583 H577 0.930 . S
C583 C579 1.400 . S
C583 C582 1.385 . S
C584 C582 1.478 . S
C584 C586 1.381 . S
C584 C590 1.383 . S
C585 C581 1.495 . S
C585 H591 0.959 . S
C585 H592 0.961 . S
C585 H593 0.960 . S
C586 C584 1.381 . S
C586 C587 1.394 . S
C586 H594 0.930 . S
C587 C586 1.394 . S
C587 C588 1.383 . S
C587 H595 0.929 . S
C588 C587 1.383 . S
C588 C589 1.377 . S
C589 H573 0.930 . S
C589 C588 1.377 . S
C589 C590 1.379 . S
C590 H574 0.931 . S
C590 C584 1.383 . S
C590 C589 1.379 . S
H591 C585 0.959 . S
H592 C585 0.961 . S
H593 C585 0.960 . S
H594 C586 0.930 . S
H595 C587 0.929 . S
H596 C604 0.929 . S
H597 C606 0.930 . S
H598 C608 0.930 . S
H599 C611 0.929 . S
H600 C614 0.930 . S
H601 C616 0.960 . S
H602 C616 0.960 . S
H603 C616 0.960 . S
C604 H596 0.929 . S
C604 C605 1.377 . S
C604 C606 1.384 . S
C605 C604 1.377 . S
C605 C611 1.390 . S
C606 H597 0.930 . S
C606 C604 1.384 . S
C606 C607 1.372 . S
C607 C606 1.372 . S
C607 C608 1.400 . S
C607 C612 1.490 . S
C608 H598 0.930 . S
C608 C607 1.400 . S
C608 C611 1.386 . S
H609 C625 0.930 . S
H610 C626 0.931 1_554 S
C611 H599 0.929 . S
C611 C605 1.390 . S
C611 C608 1.386 . S
C612 C607 1.490 . S
C612 C614 1.395 . S
C612 C615 1.403 1_554 S
H613 C619 0.930 . S
C614 H600 0.930 . S
C614 C612 1.395 . S
C614 C617 1.403 1_565 S
C615 C612 1.403 1_556 S
C615 C616 1.524 . S
C615 C619 1.400 1_565 S
C616 H601 0.960 . S
C616 H602 0.960 . S
C616 H603 0.960 . S
C616 C615 1.524 . S
C617 C614 1.403 1_545 S
C617 C618 1.392 1_554 S
C617 C621 1.495 . S
C618 C617 1.392 1_556 S
C618 C619 1.385 . S
C618 C620 1.478 . S
C619 H613 0.930 . S
C619 C615 1.400 1_545 S
C619 C618 1.385 . S
C620 C618 1.478 . S
C620 C622 1.381 . S
C620 C626 1.383 . S
C621 C617 1.495 . S
C621 H627 0.959 . S
C621 H628 0.961 . S
C621 H629 0.960 . S
C622 C620 1.381 . S
C622 C623 1.394 . S
C622 H630 0.930 . S
C623 C622 1.394 . S
C623 C624 1.383 . S
C623 H631 0.929 . S
C624 C623 1.383 . S
C624 C625 1.377 . S
C625 H609 0.930 . S
C625 C624 1.377 . S
C625 C626 1.379 . S
C626 H610 0.931 1_556 S
C626 C620 1.383 . S
C626 C625 1.379 . S
H627 C621 0.959 . S
H628 C621 0.961 . S
H629 C621 0.960 . S
H630 C622 0.930 . S
H631 C623 0.929 . S
H632 C640 0.929 . S
H633 C642 0.930 1_554 S
H634 C644 0.930 . S
H635 C647 0.929 . S
H636 C650 0.930 . S
H637 C652 0.960 . S
H638 C652 0.960 . S
H639 C652 0.960 . S
C640 H632 0.929 . S
C640 C641 1.377 . S
C640 C642 1.384 . S
C641 C640 1.377 . S
C641 C647 1.390 . S
C642 H633 0.930 1_556 S
C642 C640 1.384 . S
C642 C643 1.372 . S
C643 C642 1.372 . S
C643 C644 1.400 . S
C643 C648 1.490 . S
C644 H634 0.930 . S
C644 C643 1.400 . S
C644 C647 1.386 . S
H645 C661 0.930 . S
H646 C662 0.931 . S
C647 H635 0.929 . S
C647 C641 1.390 . S
C647 C644 1.386 . S
C648 C643 1.490 . S
C648 C650 1.395 1_556 S
C648 C651 1.403 . S
H649 C655 0.930 . S
C650 H636 0.930 . S
C650 C648 1.395 1_554 S
C650 C653 1.403 . S
C651 C648 1.403 . S
C651 C652 1.524 . S
C651 C655 1.400 . S
C652 H637 0.960 . S
C652 H638 0.960 . S
C652 H639 0.960 . S
C652 C651 1.524 . S
C653 C650 1.403 . S
C653 C654 1.392 . S
C653 C657 1.495 . S
C654 C653 1.392 . S
C654 C655 1.385 1_554 S
C654 C656 1.478 . S
C655 H649 0.930 . S
C655 C651 1.400 . S
C655 C654 1.385 1_556 S
C656 C654 1.478 . S
C656 C658 1.381 . S
C656 C662 1.383 . S
C657 C653 1.495 . S
C657 H663 0.959 . S
C657 H664 0.961 . S
C657 H665 0.960 . S
C658 C656 1.381 . S
C658 C659 1.394 . S
C658 H666 0.930 . S
C659 C658 1.394 . S
C659 C660 1.383 . S
C659 H667 0.929 . S
C660 C659 1.383 . S
C660 C661 1.377 . S
C661 H645 0.930 . S
C661 C660 1.377 . S
C661 C662 1.379 . S
C662 H646 0.931 . S
C662 C656 1.383 . S
C662 C661 1.379 . S
H663 C657 0.959 . S
H664 C657 0.961 . S
H665 C657 0.960 . S
H666 C658 0.930 . S
H667 C659 0.929 . S
H668 C676 0.929 . S
H669 C678 0.930 1_554 S
H670 C680 0.930 . S
H671 C683 0.929 . S
H672 C686 0.930 . S
H673 C688 0.960 . S
H674 C688 0.960 . S
H675 C688 0.960 . S
C676 H668 0.929 . S
C676 C677 1.377 . S
C676 C678 1.384 . S
C677 C676 1.377 . S
C677 C683 1.390 . S
C678 H669 0.930 1_556 S
C678 C676 1.384 . S
C678 C679 1.372 . S
C679 C678 1.372 . S
C679 C680 1.400 . S
C679 C684 1.490 . S
C680 H670 0.930 . S
C680 C679 1.400 . S
C680 C683 1.386 . S
H681 C697 0.930 . S
H682 C698 0.931 1_556 S
C683 H671 0.929 . S
C683 C677 1.390 . S
C683 C680 1.386 . S
C684 C679 1.490 . S
C684 C686 1.395 . S
C684 C687 1.403 1_556 S
H685 C691 0.930 . S
C686 H672 0.930 . S
C686 C684 1.395 . S
C686 C689 1.403 1_545 S
C687 C684 1.403 1_554 S
C687 C688 1.524 . S
C687 C691 1.400 1_545 S
C688 H673 0.960 . S
C688 H674 0.960 . S
C688 H675 0.960 . S
C688 C687 1.524 . S
C689 C686 1.403 1_565 S
C689 C690 1.392 1_556 S
C689 C693 1.495 . S
C690 C689 1.392 1_554 S
C690 C691 1.385 . S
C690 C692 1.478 . S
C691 H685 0.930 . S
C691 C687 1.400 1_565 S
C691 C690 1.385 . S
C692 C690 1.478 . S
C692 C694 1.381 . S
C692 C698 1.383 . S
C693 C689 1.495 . S
C693 H699 0.959 . S
C693 H700 0.961 . S
C693 H701 0.960 . S
C694 C692 1.381 . S
C694 C695 1.394 . S
C694 H702 0.930 . S
C695 C694 1.394 . S
C695 C696 1.383 . S
C695 H703 0.929 . S
C696 C695 1.383 . S
C696 C697 1.377 . S
C697 H681 0.930 . S
C697 C696 1.377 . S
C697 C698 1.379 . S
C698 H682 0.931 1_554 S
C698 C692 1.383 . S
C698 C697 1.379 . S
H699 C693 0.959 . S
H700 C693 0.961 . S
H701 C693 0.960 . S
H702 C694 0.930 . S
H703 C695 0.929 . S
H704 C712 0.929 . S
H705 C714 0.930 . S
H706 C716 0.930 . S
H707 C719 0.929 . S
H708 C722 0.930 . S
H709 C724 0.960 . S
H710 C724 0.960 . S
H711 C724 0.960 . S
C712 H704 0.929 . S
C712 C713 1.377 . S
C712 C714 1.384 . S
C713 C712 1.377 . S
C713 C719 1.390 . S
C714 H705 0.930 . S
C714 C712 1.384 . S
C714 C715 1.372 . S
C715 C714 1.372 . S
C715 C716 1.400 . S
C715 C720 1.490 . S
C716 H706 0.930 . S
C716 C715 1.400 . S
C716 C719 1.386 . S
H717 C733 0.930 . S
H718 C734 0.931 . S
C719 H707 0.929 . S
C719 C713 1.390 . S
C719 C716 1.386 . S
C720 C715 1.490 . S
C720 C722 1.395 . S
C720 C723 1.403 . S
H721 C727 0.930 1_556 S
C722 H708 0.930 . S
C722 C720 1.395 . S
C722 C725 1.403 . S
C723 C720 1.403 . S
C723 C724 1.524 . S
C723 C727 1.400 . S
C724 H709 0.960 . S
C724 H710 0.960 . S
C724 H711 0.960 . S
C724 C723 1.524 . S
C725 C722 1.403 . S
C725 C726 1.392 1_554 S
C725 C729 1.495 1_554 S
C726 C725 1.392 1_556 S
C726 C727 1.385 1_556 S
C726 C728 1.478 . S
C727 H721 0.930 1_554 S
C727 C723 1.400 . S
C727 C726 1.385 1_554 S
C728 C726 1.478 . S
C728 C730 1.381 . S
C728 C734 1.383 . S
C729 C725 1.495 1_556 S
C729 H735 0.959 1_556 S
C729 H736 0.961 . S
C729 H737 0.960 . S
C730 C728 1.381 . S
C730 C731 1.394 . S
C730 H738 0.930 . S
C731 C730 1.394 . S
C731 C732 1.383 . S
C731 H739 0.929 . S
C732 C731 1.383 . S
C732 C733 1.377 . S
C733 H717 0.930 . S
C733 C732 1.377 . S
C733 C734 1.379 . S
C734 H718 0.931 . S
C734 C728 1.383 . S
C734 C733 1.379 . S
H735 C729 0.959 1_554 S
H736 C729 0.961 . S
H737 C729 0.960 . S
H738 C730 0.930 . S
H739 C731 0.929 . S
H740 C748 0.929 . S
H741 C750 0.930 . S
H742 C752 0.930 . S
H743 C755 0.929 . S
H744 C758 0.930 . S
H745 C760 0.960 . S
H746 C760 0.960 . S
H747 C760 0.960 . S
C748 H740 0.929 . S
C748 C749 1.377 . S
C748 C750 1.384 . S
C749 C748 1.377 . S
C749 C755 1.390 . S
C750 H741 0.930 . S
C750 C748 1.384 . S
C750 C751 1.372 . S
C751 C750 1.372 . S
C751 C752 1.400 . S
C751 C756 1.490 . S
C752 H742 0.930 . S
C752 C751 1.400 . S
C752 C755 1.386 . S
H753 C769 0.930 . S
H754 C770 0.931 . S
C755 H743 0.929 . S
C755 C749 1.390 . S
C755 C752 1.386 . S
C756 C751 1.490 . S
C756 C758 1.395 . S
C756 C759 1.403 . S
H757 C763 0.930 1_556 S
C758 H744 0.930 . S
C758 C756 1.395 . S
C758 C761 1.403 . S
C759 C756 1.403 . S
C759 C760 1.524 . S
C759 C763 1.400 . S
C760 H745 0.960 . S
C760 H746 0.960 . S
C760 H747 0.960 . S
C760 C759 1.524 . S
C761 C758 1.403 . S
C761 C762 1.392 1_554 S
C761 C765 1.495 1_554 S
C762 C761 1.392 1_556 S
C762 C763 1.385 1_556 S
C762 C764 1.478 . S
C763 H757 0.930 1_554 S
C763 C759 1.400 . S
C763 C762 1.385 1_554 S
C764 C762 1.478 . S
C764 C766 1.381 . S
C764 C770 1.383 . S
C765 C761 1.495 1_556 S
C765 H771 0.959 1_556 S
C765 H772 0.961 . S
C765 H773 0.960 . S
C766 C764 1.381 . S
C766 C767 1.394 . S
C766 H774 0.930 . S
C767 C766 1.394 . S
C767 C768 1.383 . S
C767 H775 0.929 . S
C768 C767 1.383 . S
C768 C769 1.377 . S
C769 H753 0.930 . S
C769 C768 1.377 . S
C769 C770 1.379 . S
C770 H754 0.931 . S
C770 C764 1.383 . S
C770 C769 1.379 . S
H771 C765 0.959 1_554 S
H772 C765 0.961 . S
H773 C765 0.960 . S
H774 C766 0.930 . S
H775 C767 0.929 . S
H776 C784 0.929 . S
H777 C786 0.930 . S
H778 C788 0.930 . S
H779 C791 0.929 . S
H780 C794 0.930 1_554 S
H781 C796 0.960 . S
H782 C796 0.960 1_554 S
H783 C796 0.960 1_554 S
C784 H776 0.929 . S
C784 C785 1.377 . S
C784 C786 1.384 . S
C785 C784 1.377 . S
C785 C791 1.390 . S
C786 H777 0.930 . S
C786 C784 1.384 . S
C786 C787 1.372 . S
C787 C786 1.372 . S
C787 C788 1.400 . S
C787 C792 1.490 . S
C788 H778 0.930 . S
C788 C787 1.400 . S
C788 C791 1.386 . S
H789 C805 0.930 . S
H790 C806 0.931 . S
C791 H779 0.929 . S
C791 C785 1.390 . S
C791 C788 1.386 . S
C792 C787 1.490 . S
C792 C794 1.395 1_554 S
C792 C795 1.403 1_554 S
H793 C799 0.930 . S
C794 H780 0.930 1_556 S
C794 C792 1.395 1_556 S
C794 C797 1.403 . S
C795 C792 1.403 1_556 S
C795 C796 1.524 . S
C795 C799 1.400 . S
C796 H781 0.960 . S
C796 H782 0.960 1_556 S
C796 H783 0.960 1_556 S
C796 C795 1.524 . S
C797 C794 1.403 . S
C797 C798 1.392 . S
C797 C801 1.495 . S
C798 C797 1.392 . S
C798 C799 1.385 . S
C798 C800 1.478 . S
C799 H793 0.930 . S
C799 C795 1.400 . S
C799 C798 1.385 . S
C800 C798 1.478 . S
C800 C802 1.381 . S
C800 C806 1.383 . S
C801 C797 1.495 . S
C801 H807 0.959 . S
C801 H808 0.961 . S
C801 H809 0.960 . S
C802 C800 1.381 . S
C802 C803 1.394 . S
C802 H810 0.930 . S
C803 C802 1.394 . S
C803 C804 1.383 . S
C803 H811 0.929 . S
C804 C803 1.383 . S
C804 C805 1.377 . S
C805 H789 0.930 . S
C805 C804 1.377 . S
C805 C806 1.379 . S
C806 H790 0.931 . S
C806 C800 1.383 . S
C806 C805 1.379 . S
H807 C801 0.959 . S
H808 C801 0.961 . S
H809 C801 0.960 . S
H810 C802 0.930 . S
H811 C803 0.929 . S
H812 C820 0.929 . S
H813 C822 0.930 . S
H814 C824 0.930 . S
H815 C827 0.929 . S
H816 C830 0.930 . S
H817 C832 0.960 . S
H818 C832 0.960 . S
H819 C832 0.960 . S
C820 H812 0.929 . S
C820 C821 1.377 . S
C820 C822 1.384 . S
C821 C820 1.377 . S
C821 C827 1.390 . S
C822 H813 0.930 . S
C822 C820 1.384 . S
C822 C823 1.372 . S
C823 C822 1.372 . S
C823 C824 1.400 . S
C823 C828 1.490 . S
C824 H814 0.930 . S
C824 C823 1.400 . S
C824 C827 1.386 . S
H825 C841 0.930 . S
H826 C842 0.931 . S
C827 H815 0.929 . S
C827 C821 1.390 . S
C827 C824 1.386 . S
C828 C823 1.490 . S
C828 C830 1.395 . S
C828 C831 1.403 . S
H829 C835 0.930 1_554 S
C830 H816 0.930 . S
C830 C828 1.395 . S
C830 C833 1.403 . S
C831 C828 1.403 . S
C831 C832 1.524 . S
C831 C835 1.400 . S
C832 H817 0.960 . S
C832 H818 0.960 . S
C832 H819 0.960 . S
C832 C831 1.524 . S
C833 C830 1.403 . S
C833 C834 1.392 1_556 S
C833 C837 1.495 1_556 S
C834 C833 1.392 1_554 S
C834 C835 1.385 1_554 S
C834 C836 1.478 . S
C835 H829 0.930 1_556 S
C835 C831 1.400 . S
C835 C834 1.385 1_556 S
C836 C834 1.478 . S
C836 C838 1.381 . S
C836 C842 1.383 . S
C837 C833 1.495 1_554 S
C837 H843 0.959 1_554 S
C837 H844 0.961 . S
C837 H845 0.960 . S
C838 C836 1.381 . S
C838 C839 1.394 . S
C838 H846 0.930 . S
C839 C838 1.394 . S
C839 C840 1.383 . S
C839 H847 0.929 . S
C840 C839 1.383 . S
C840 C841 1.377 . S
C841 H825 0.930 . S
C841 C840 1.377 . S
C841 C842 1.379 . S
C842 H826 0.931 . S
C842 C836 1.383 . S
C842 C841 1.379 . S
H843 C837 0.959 1_556 S
H844 C837 0.961 . S
H845 C837 0.960 . S
H846 C838 0.930 . S
H847 C839 0.929 . S
H848 C856 0.929 . S
H849 C858 0.930 . S
H850 C860 0.930 . S
H851 C863 0.929 . S
H852 C866 0.930 . S
H853 C868 0.960 . S
H854 C868 0.960 . S
H855 C868 0.960 . S
C856 H848 0.929 . S
C856 C857 1.377 . S
C856 C858 1.384 . S
C857 C856 1.377 . S
C857 C863 1.390 . S
C858 H849 0.930 . S
C858 C856 1.384 . S
C858 C859 1.372 . S
C859 C858 1.372 . S
C859 C860 1.400 . S
C859 C864 1.490 . S
C860 H850 0.930 . S
C860 C859 1.400 . S
C860 C863 1.386 . S
H861 C877 0.930 . S
H862 C878 0.931 . S
C863 H851 0.929 . S
C863 C857 1.390 . S
C863 C860 1.386 . S
C864 C859 1.490 . S
C864 C866 1.395 . S
C864 C867 1.403 . S
H865 C871 0.930 . S
C866 H852 0.930 . S
C866 C864 1.395 . S
C866 C869 1.403 . S
C867 C864 1.403 . S
C867 C868 1.524 . S
C867 C871 1.400 . S
C868 H853 0.960 . S
C868 H854 0.960 . S
C868 H855 0.960 . S
C868 C867 1.524 . S
C869 C866 1.403 . S
C869 C870 1.392 . S
C869 C873 1.495 . S
C870 C869 1.392 . S
C870 C871 1.385 . S
C870 C872 1.478 . S
C871 H865 0.930 . S
C871 C867 1.400 . S
C871 C870 1.385 . S
C872 C870 1.478 . S
C872 C874 1.381 . S
C872 C878 1.383 . S
C873 C869 1.495 . S
C873 H879 0.959 . S
C873 H880 0.961 . S
C873 H881 0.960 . S
C874 C872 1.381 . S
C874 C875 1.394 . S
C874 H882 0.930 . S
C875 C874 1.394 . S
C875 C876 1.383 . S
C875 H883 0.929 . S
C876 C875 1.383 . S
C876 C877 1.377 . S
C877 H861 0.930 . S
C877 C876 1.377 . S
C877 C878 1.379 . S
C878 H862 0.931 . S
C878 C872 1.383 . S
C878 C877 1.379 . S
H879 C873 0.959 . S
H880 C873 0.961 . S
H881 C873 0.960 . S
H882 C874 0.930 . S
H883 C875 0.929 . S
H884 C892 0.929 . S
H885 C894 0.930 . S
H886 C896 0.930 . S
H887 C899 0.929 . S
H888 C902 0.930 . S
H889 C904 0.960 . S
H890 C904 0.960 . S
H891 C904 0.960 . S
C892 H884 0.929 . S
C892 C893 1.377 . S
C892 C894 1.384 . S
C893 C892 1.377 . S
C893 C899 1.390 . S
C894 H885 0.930 . S
C894 C892 1.384 . S
C894 C895 1.372 . S
C895 C894 1.372 . S
C895 C896 1.400 . S
C895 C900 1.490 . S
C896 H886 0.930 . S
C896 C895 1.400 . S
C896 C899 1.386 . S
H897 C913 0.930 . S
H898 C914 0.931 . S
C899 H887 0.929 . S
C899 C893 1.390 . S
C899 C896 1.386 . S
C900 C895 1.490 . S
C900 C902 1.395 . S
C900 C903 1.403 . S
H901 C907 0.930 . S
C902 H888 0.930 . S
C902 C900 1.395 . S
C902 C905 1.403 . S
C903 C900 1.403 . S
C903 C904 1.524 . S
C903 C907 1.400 . S
C904 H889 0.960 . S
C904 H890 0.960 . S
C904 H891 0.960 . S
C904 C903 1.524 . S
C905 C902 1.403 . S
C905 C906 1.392 . S
C905 C909 1.495 . S
C906 C905 1.392 . S
C906 C907 1.385 . S
C906 C908 1.478 . S
C907 H901 0.930 . S
C907 C903 1.400 . S
C907 C906 1.385 . S
C908 C906 1.478 . S
C908 C910 1.381 . S
C908 C914 1.383 . S
C909 C905 1.495 . S
C909 H915 0.959 . S
C909 H916 0.961 . S
C909 H917 0.960 . S
C910 C908 1.381 . S
C910 C911 1.394 . S
C910 H918 0.930 . S
C911 C910 1.394 . S
C911 C912 1.383 . S
C911 H919 0.929 . S
C912 C911 1.383 . S
C912 C913 1.377 . S
C913 H897 0.930 . S
C913 C912 1.377 . S
C913 C914 1.379 . S
C914 H898 0.931 . S
C914 C908 1.383 . S
C914 C913 1.379 . S
H915 C909 0.959 . S
H916 C909 0.961 . S
H917 C909 0.960 . S
H918 C910 0.930 . S
H919 C911 0.929 . S
H920 C928 0.929 . S
H921 C930 0.930 . S
H922 C932 0.930 . S
H923 C935 0.929 . S
H924 C938 0.930 . S
H925 C940 0.960 . S
H926 C940 0.960 . S
H927 C940 0.960 . S
C928 H920 0.929 . S
C928 C929 1.377 . S
C928 C930 1.384 . S
C929 C928 1.377 . S
C929 C935 1.390 . S
C930 H921 0.930 . S
C930 C928 1.384 . S
C930 C931 1.372 . S
C931 C930 1.372 . S
C931 C932 1.400 . S
C931 C936 1.490 . S
C932 H922 0.930 . S
C932 C931 1.400 . S
C932 C935 1.386 . S
H933 C949 0.930 . S
H934 C950 0.931 . S
C935 H923 0.929 . S
C935 C929 1.390 . S
C935 C932 1.386 . S
C936 C931 1.490 . S
C936 C938 1.395 . S
C936 C939 1.403 . S
H937 C943 0.930 . S
C938 H924 0.930 . S
C938 C936 1.395 . S
C938 C941 1.403 . S
C939 C936 1.403 . S
C939 C940 1.524 . S
C939 C943 1.400 . S
C940 H925 0.960 . S
C940 H926 0.960 . S
C940 H927 0.960 . S
C940 C939 1.524 . S
C941 C938 1.403 . S
C941 C942 1.392 . S
C941 C945 1.495 . S
C942 C941 1.392 . S
C942 C943 1.385 . S
C942 C944 1.478 . S
C943 H937 0.930 . S
C943 C939 1.400 . S
C943 C942 1.385 . S
C944 C942 1.478 . S
C944 C946 1.381 . S
C944 C950 1.383 . S
C945 C941 1.495 . S
C945 H951 0.959 . S
C945 H952 0.961 . S
C945 H953 0.960 . S
C946 C944 1.381 . S
C946 C947 1.394 . S
C946 H954 0.930 . S
C947 C946 1.394 . S
C947 C948 1.383 . S
C947 H955 0.929 . S
C948 C947 1.383 . S
C948 C949 1.377 . S
C949 H933 0.930 . S
C949 C948 1.377 . S
C949 C950 1.379 . S
C950 H934 0.931 . S
C950 C944 1.383 . S
C950 C949 1.379 . S
H951 C945 0.959 . S
H952 C945 0.961 . S
H953 C945 0.960 . S
H954 C946 0.930 . S
H955 C947 0.929 . S
H956 C964 0.929 . S
H957 C966 0.930 . S
H958 C968 0.930 . S
H959 C971 0.929 . S
H960 C974 0.930 . S
H961 C976 0.960 . S
H962 C976 0.960 . S
H963 C976 0.960 . S
C964 H956 0.929 . S
C964 C965 1.377 . S
C964 C966 1.384 . S
C965 C964 1.377 . S
C965 C971 1.390 . S
C966 H957 0.930 . S
C966 C964 1.384 . S
C966 C967 1.372 . S
C967 C966 1.372 . S
C967 C968 1.400 . S
C967 C972 1.490 . S
C968 H958 0.930 . S
C968 C967 1.400 . S
C968 C971 1.386 . S
H969 C985 0.930 . S
H970 C986 0.931 . S
C971 H959 0.929 . S
C971 C965 1.390 . S
C971 C968 1.386 . S
C972 C967 1.490 . S
C972 C974 1.395 . S
C972 C975 1.403 . S
H973 C979 0.930 . S
C974 H960 0.930 . S
C974 C972 1.395 . S
C974 C977 1.403 . S
C975 C972 1.403 . S
C975 C976 1.524 . S
C975 C979 1.400 . S
C976 H961 0.960 . S
C976 H962 0.960 . S
C976 H963 0.960 . S
C976 C975 1.524 . S
C977 C974 1.403 . S
C977 C978 1.392 . S
C977 C981 1.495 . S
C978 C977 1.392 . S
C978 C979 1.385 . S
C978 C980 1.478 . S
C979 H973 0.930 . S
C979 C975 1.400 . S
C979 C978 1.385 . S
C980 C978 1.478 . S
C980 C982 1.381 . S
C980 C986 1.383 . S
C981 C977 1.495 . S
C981 H987 0.959 . S
C981 H988 0.961 . S
C981 H989 0.960 . S
C982 C980 1.381 . S
C982 C983 1.394 . S
C982 H990 0.930 . S
C983 C982 1.394 . S
C983 C984 1.383 . S
C983 H991 0.929 . S
C984 C983 1.383 . S
C984 C985 1.377 . S
C985 H969 0.930 . S
C985 C984 1.377 . S
C985 C986 1.379 . S
C986 H970 0.931 . S
C986 C980 1.383 . S
C986 C985 1.379 . S
H987 C981 0.959 . S
H988 C981 0.961 . S
H989 C981 0.960 . S
H990 C982 0.930 . S
H991 C983 0.929 . S
H992 C1000 0.929 . S
H993 C1002 0.930 . S
H994 C1004 0.930 . S
H995 C1007 0.929 . S
H996 C1010 0.930 . S
H997 C1012 0.960 . S
H998 C1012 0.960 . S
H999 C1012 0.960 . S
C1000 H992 0.929 . S
C1000 C1001 1.377 . S
C1000 C1002 1.384 . S
C1001 C1000 1.377 . S
C1001 C1007 1.390 . S
C1002 H993 0.930 . S
C1002 C1000 1.384 . S
C1002 C1003 1.372 . S
C1003 C1002 1.372 . S
C1003 C1004 1.400 . S
C1003 C1008 1.490 . S
C1004 H994 0.930 . S
C1004 C1003 1.400 . S
C1004 C1007 1.386 . S
H1005 C1021 0.930 . S
H1006 C1022 0.931 . S
C1007 H995 0.929 . S
C1007 C1001 1.390 . S
C1007 C1004 1.386 . S
C1008 C1003 1.490 . S
C1008 C1010 1.395 . S
C1008 C1011 1.403 . S
H1009 C1015 0.930 . S
C1010 H996 0.930 . S
C1010 C1008 1.395 . S
C1010 C1013 1.403 1_455 S
C1011 C1008 1.403 . S
C1011 C1012 1.524 . S
C1011 C1015 1.400 1_455 S
C1012 H997 0.960 . S
C1012 H998 0.960 . S
C1012 H999 0.960 . S
C1012 C1011 1.524 . S
C1013 C1010 1.403 1_655 S
C1013 C1014 1.392 . S
C1013 C1017 1.495 . S
C1014 C1013 1.392 . S
C1014 C1015 1.385 . S
C1014 C1016 1.478 . S
C1015 H1009 0.930 . S
C1015 C1011 1.400 1_655 S
C1015 C1014 1.385 . S
C1016 C1014 1.478 . S
C1016 C1018 1.381 . S
C1016 C1022 1.383 . S
C1017 C1013 1.495 . S
C1017 H1023 0.959 . S
C1017 H1024 0.961 . S
C1017 H1025 0.960 . S
C1018 C1016 1.381 . S
C1018 C1019 1.394 . S
C1018 H1026 0.930 . S
C1019 C1018 1.394 . S
C1019 C1020 1.383 . S
C1019 H1027 0.929 . S
C1020 C1019 1.383 . S
C1020 C1021 1.377 . S
C1021 H1005 0.930 . S
C1021 C1020 1.377 . S
C1021 C1022 1.379 . S
C1022 H1006 0.931 . S
C1022 C1016 1.383 . S
C1022 C1021 1.379 . S
H1023 C1017 0.959 . S
H1024 C1017 0.961 . S
H1025 C1017 0.960 . S
H1026 C1018 0.930 . S
H1027 C1019 0.929 . S
H1028 C1036 0.929 . S
H1029 C1038 0.930 . S
H1030 C1040 0.930 . S
H1031 C1043 0.929 . S
H1032 C1046 0.930 . S
H1033 C1048 0.960 . S
H1034 C1048 0.960 . S
H1035 C1048 0.960 . S
C1036 H1028 0.929 . S
C1036 C1037 1.377 . S
C1036 C1038 1.384 . S
C1037 C1036 1.377 . S
C1037 C1043 1.390 . S
C1038 H1029 0.930 . S
C1038 C1036 1.384 . S
C1038 C1039 1.372 . S
C1039 C1038 1.372 . S
C1039 C1040 1.400 . S
C1039 C1044 1.490 . S
C1040 H1030 0.930 . S
C1040 C1039 1.400 . S
C1040 C1043 1.386 . S
H1041 C1057 0.930 . S
H1042 C1058 0.931 . S
C1043 H1031 0.929 . S
C1043 C1037 1.390 . S
C1043 C1040 1.386 . S
C1044 C1039 1.490 . S
C1044 C1046 1.395 . S
C1044 C1047 1.403 . S
H1045 C1051 0.930 . S
C1046 H1032 0.930 . S
C1046 C1044 1.395 . S
C1046 C1049 1.403 1_655 S
C1047 C1044 1.403 . S
C1047 C1048 1.524 . S
C1047 C1051 1.400 1_655 S
C1048 H1033 0.960 . S
C1048 H1034 0.960 . S
C1048 H1035 0.960 . S
C1048 C1047 1.524 . S
C1049 C1046 1.403 1_455 S
C1049 C1050 1.392 . S
C1049 C1053 1.495 . S
C1050 C1049 1.392 . S
C1050 C1051 1.385 . S
C1050 C1052 1.478 . S
C1051 H1045 0.930 . S
C1051 C1047 1.400 1_455 S
C1051 C1050 1.385 . S
C1052 C1050 1.478 . S
C1052 C1054 1.381 . S
C1052 C1058 1.383 . S
C1053 C1049 1.495 . S
C1053 H1059 0.959 . S
C1053 H1060 0.961 . S
C1053 H1061 0.960 . S
C1054 C1052 1.381 . S
C1054 C1055 1.394 . S
C1054 H1062 0.930 . S
C1055 C1054 1.394 . S
C1055 C1056 1.383 . S
C1055 H1063 0.929 . S
C1056 C1055 1.383 . S
C1056 C1057 1.377 . S
C1057 H1041 0.930 . S
C1057 C1056 1.377 . S
C1057 C1058 1.379 . S
C1058 H1042 0.931 . S
C1058 C1052 1.383 . S
C1058 C1057 1.379 . S
H1059 C1053 0.959 . S
H1060 C1053 0.961 . S
H1061 C1053 0.960 . S
H1062 C1054 0.930 . S
H1063 C1055 0.929 . S
H1064 C1072 0.929 . S
H1065 C1074 0.930 . S
H1066 C1076 0.930 . S
H1067 C1079 0.929 . S
H1068 C1082 0.930 . S
H1069 C1084 0.960 . S
H1070 C1084 0.960 . S
H1071 C1084 0.960 . S
C1072 H1064 0.929 . S
C1072 C1073 1.377 . S
C1072 C1074 1.384 . S
C1073 C1072 1.377 . S
C1073 C1079 1.390 . S
C1074 H1065 0.930 . S
C1074 C1072 1.384 . S
C1074 C1075 1.372 . S
C1075 C1074 1.372 . S
C1075 C1076 1.400 . S
C1075 C1080 1.490 . S
C1076 H1066 0.930 . S
C1076 C1075 1.400 . S
C1076 C1079 1.386 . S
H1077 C1093 0.930 . S
H1078 C1094 0.931 . S
C1079 H1067 0.929 . S
C1079 C1073 1.390 . S
C1079 C1076 1.386 . S
C1080 C1075 1.490 . S
C1080 C1082 1.395 1_554 S
C1080 C1083 1.403 . S
H1081 C1087 0.930 . S
C1082 H1068 0.930 . S
C1082 C1080 1.395 1_556 S
C1082 C1085 1.403 . S
C1083 C1080 1.403 . S
C1083 C1084 1.524 . S
C1083 C1087 1.400 . S
C1084 H1069 0.960 . S
C1084 H1070 0.960 . S
C1084 H1071 0.960 . S
C1084 C1083 1.524 . S
C1085 C1082 1.403 . S
C1085 C1086 1.392 1_556 S
C1085 C1089 1.495 . S
C1086 C1085 1.392 1_554 S
C1086 C1087 1.385 . S
C1086 C1088 1.478 . S
C1087 H1081 0.930 . S
C1087 C1083 1.400 . S
C1087 C1086 1.385 . S
C1088 C1086 1.478 . S
C1088 C1090 1.381 . S
C1088 C1094 1.383 . S
C1089 C1085 1.495 . S
C1089 H1095 0.959 . S
C1089 H1096 0.961 . S
C1089 H1097 0.960 . S
C1090 C1088 1.381 . S
C1090 C1091 1.394 . S
C1090 H1098 0.930 . S
C1091 C1090 1.394 . S
C1091 C1092 1.383 . S
C1091 H1099 0.929 . S
C1092 C1091 1.383 . S
C1092 C1093 1.377 . S
C1093 H1077 0.930 . S
C1093 C1092 1.377 . S
C1093 C1094 1.379 . S
C1094 H1078 0.931 . S
C1094 C1088 1.383 . S
C1094 C1093 1.379 . S
H1095 C1089 0.959 . S
H1096 C1089 0.961 . S
H1097 C1089 0.960 . S
H1098 C1090 0.930 . S
H1099 C1091 0.929 . S
H1100 C1108 0.929 . S
H1101 C1110 0.930 . S
H1102 C1112 0.930 . S
H1103 C1115 0.929 . S
H1104 C1118 0.930 . S
H1105 C1120 0.960 . S
H1106 C1120 0.960 . S
H1107 C1120 0.960 . S
C1108 H1100 0.929 . S
C1108 C1109 1.377 . S
C1108 C1110 1.384 . S
C1109 C1108 1.377 . S
C1109 C1115 1.390 . S
C1110 H1101 0.930 . S
C1110 C1108 1.384 . S
C1110 C1111 1.372 . S
C1111 C1110 1.372 . S
C1111 C1112 1.400 . S
C1111 C1116 1.490 . S
C1112 H1102 0.930 . S
C1112 C1111 1.400 . S
C1112 C1115 1.386 . S
H1113 C1129 0.930 1_554 S
H1114 C1130 0.931 1_554 S
C1115 H1103 0.929 . S
C1115 C1109 1.390 . S
C1115 C1112 1.386 . S
C1116 C1111 1.490 . S
C1116 C1118 1.395 1_556 S
C1116 C1119 1.403 . S
H1117 C1123 0.930 . S
C1118 H1104 0.930 . S
C1118 C1116 1.395 1_554 S
C1118 C1121 1.403 . S
C1119 C1116 1.403 . S
C1119 C1120 1.524 . S
C1119 C1123 1.400 . S
C1120 H1105 0.960 . S
C1120 H1106 0.960 . S
C1120 H1107 0.960 . S
C1120 C1119 1.524 . S
C1121 C1118 1.403 . S
C1121 C1122 1.392 1_554 S
C1121 C1125 1.495 . S
C1122 C1121 1.392 1_556 S
C1122 C1123 1.385 . S
C1122 C1124 1.478 . S
C1123 H1117 0.930 . S
C1123 C1119 1.400 . S
C1123 C1122 1.385 . S
C1124 C1122 1.478 . S
C1124 C1126 1.381 . S
C1124 C1130 1.383 . S
C1125 C1121 1.495 . S
C1125 H1131 0.959 . S
C1125 H1132 0.961 . S
C1125 H1133 0.960 . S
C1126 C1124 1.381 . S
C1126 C1127 1.394 . S
C1126 H1134 0.930 . S
C1127 C1126 1.394 . S
C1127 C1128 1.383 . S
C1127 H1135 0.929 . S
C1128 C1127 1.383 . S
C1128 C1129 1.377 . S
C1129 H1113 0.930 1_556 S
C1129 C1128 1.377 . S
C1129 C1130 1.379 . S
C1130 H1114 0.931 1_556 S
C1130 C1124 1.383 . S
C1130 C1129 1.379 . S
H1131 C1125 0.959 . S
H1132 C1125 0.961 . S
H1133 C1125 0.960 . S
H1134 C1126 0.930 . S
H1135 C1127 0.929 . S
C281 C0 1.713 . S
C300 C267 1.697 . S
C317 C233 1.716 . S
C336 C63 1.708 . S
C353 C199 1.716 . S
C372 C97 1.724 . S
C389 C136 1.714 . S
C408 C131 1.722 . S
C425 C72 1.716 . S
C444 C4 1.704 . S
C461 C38 1.590 . S
C480 C106 1.583 . S
C497 C115 1.590 . S
C516 C47 1.591 . S
C533 C81 1.458 . S
C552 C13 1.454 . S
C569 C140 1.716 . S
C588 C208 1.706 . S
C605 C174 1.590 . S
C624 C242 1.582 . S
C641 C251 1.590 . S
C660 C183 1.590 . S
C677 C217 1.453 . S
C696 C149 1.453 . S
C713 C17 1.085 . S
C732 C8 1.079 . S
C749 C42 1.086 . S
C768 C51 1.086 . S
C785 C85 1.087 . S
C804 C76 1.080 . S
C821 C110 1.086 . S
C840 C119 1.088 . S
C857 C144 1.087 . S
C876 C153 1.089 . S
C893 C178 1.086 . S
C912 C187 1.080 . S
C929 C212 1.086 . S
C948 C221 1.079 . S
C965 C246 1.085 . S
C984 C255 1.083 . S
C1001 C29 1.623 . S
C1020 C34 1.621 . S
C1037 C102 1.623 . S
C1056 C68 1.616 . S
C1073 C165 1.623 . S
C1092 C170 1.628 . S
C1109 C238 1.620 . S
C1128 C204 1.625 . S
