# Generated by pormake.
# Topology tfs, (6)-cn, num edge types: 1
# Building blocks:
#     Node 0, Type 0, BuildingBlock: BETDAH_clean_sbu_0, # of connection points: 6
#     Node 1, Type 0, BuildingBlock: BETDAH_clean_sbu_0, # of connection points: 6
#     Node 2, Type 0, BuildingBlock: BETDAH_clean_sbu_0, # of connection points: 6
#     Node 3, Type 0, BuildingBlock: BETDAH_clean_sbu_0, # of connection points: 6
#     Node 4, Type 0, BuildingBlock: BETDAH_clean_sbu_0, # of connection points: 6
#     Node 5, Type 0, BuildingBlock: BETDAH_clean_sbu_0, # of connection points: 6
#     Edge 6, Type (0, 0), BuildingBlock: MIFKUJ_clean_linker_0, # of connection points: 2
#     Edge 7, Type (0, 0), BuildingBlock: MIFKUJ_clean_linker_0, # of connection points: 2
#     Edge 8, Type (0, 0), BuildingBlock: MIFKUJ_clean_linker_0, # of connection points: 2
#     Edge 9, Type (0, 0), BuildingBlock: MIFKUJ_clean_linker_0, # of connection points: 2
#     Edge 10, Type (0, 0), BuildingBlock: MIFKUJ_clean_linker_0, # of connection points: 2
#     Edge 11, Type (0, 0), BuildingBlock: MIFKUJ_clean_linker_0, # of connection points: 2
#     Edge 12, Type (0, 0), BuildingBlock: MIFKUJ_clean_linker_0, # of connection points: 2
#     Edge 13, Type (0, 0), BuildingBlock: MIFKUJ_clean_linker_0, # of connection points: 2
#     Edge 14, Type (0, 0), BuildingBlock: MIFKUJ_clean_linker_0, # of connection points: 2
#     Edge 15, Type (0, 0), BuildingBlock: MIFKUJ_clean_linker_0, # of connection points: 2
#     Edge 16, Type (0, 0), BuildingBlock: MIFKUJ_clean_linker_0, # of connection points: 2
#     Edge 17, Type (0, 0), BuildingBlock: MIFKUJ_clean_linker_0, # of connection points: 2
#     Edge 18, Type (0, 0), BuildingBlock: MIFKUJ_clean_linker_0, # of connection points: 2
#     Edge 19, Type (0, 0), BuildingBlock: MIFKUJ_clean_linker_0, # of connection points: 2
#     Edge 20, Type (0, 0), BuildingBlock: MIFKUJ_clean_linker_0, # of connection points: 2
#     Edge 21, Type (0, 0), BuildingBlock: MIFKUJ_clean_linker_0, # of connection points: 2
#     Edge 22, Type (0, 0), BuildingBlock: MIFKUJ_clean_linker_0, # of connection points: 2
#     Edge 23, Type (0, 0), BuildingBlock: MIFKUJ_clean_linker_0, # of connection points: 2
# Relax obj value: 0.532
# Max RMSD: 0.431
# Mean RMSD: 0.344
data_MOF--net-tfs--node1-BETDAH_clean_sbu_0--edge1-MIFKUJ_clean_linker_0
_symmetry_space_group_name_H-M    P1
_symmetry_Int_Tables_number       1
_symmetry_cell_setting            triclinic
loop_
_symmetry_equiv_pos_as_xyz
'x, y, z'
_cell_length_a     64.835651
_cell_length_b     61.573801
_cell_length_c     16.88158
_cell_angle_alpha  97.855892
_cell_angle_beta   92.390761
_cell_angle_gamma 125.75902
loop_
_atom_site_label
_atom_site_type_symbol
_atom_site_fract_x
_atom_site_fract_y
_atom_site_fract_z
_atom_type_partial_charge
Ho0 Ho 0.33285 0.45547 0.64943 0.0
Ho1 Ho 0.31865 0.49294 0.73086 0.0
C2 C 0.27235 0.42865 0.64059 0.0
C3 C 0.3511 0.42746 0.61663 0.0
C4 C 0.34795 0.40151 0.58331 0.0
C5 C 0.35729 0.39142 0.63256 0.0
C6 C 0.35882 0.37012 0.60022 0.0
C7 C 0.35115 0.35808 0.51701 0.0
C8 C 0.34091 0.36757 0.46827 0.0
C9 C 0.33942 0.38895 0.50072 0.0
C10 C 0.32016 0.47844 0.5545 0.0
C11 C 0.37821 0.52251 0.72113 0.0
C12 C 0.29971 0.51976 0.76846 0.0
C13 C 0.30371 0.54651 0.78728 0.0
C14 C 0.30792 0.56205 0.7277 0.0
C15 C 0.30738 0.58472 0.74325 0.0
C16 C 0.30249 0.59246 0.81865 0.0
C17 C 0.2991 0.57734 0.87885 0.0
C18 C 0.29963 0.55471 0.86327 0.0
C19 C 0.32958 0.46809 0.82728 0.0
O20 O 0.28949 0.42338 0.63347 0.0
O21 O 0.27958 0.45364 0.67147 0.0
O22 O 0.3485 0.44044 0.56647 0.0
O23 O 0.34387 0.43037 0.68631 0.0
O24 O 0.31522 0.45464 0.53078 0.0
O25 O 0.33386 0.48978 0.62218 0.0
O26 O 0.35988 0.52598 0.72402 0.0
O27 O 0.37229 0.49733 0.70372 0.0
O28 O 0.30957 0.5135 0.82218 0.0
O29 O 0.29976 0.51037 0.69404 0.0
O30 O 0.33634 0.49278 0.84727 0.0
O31 O 0.31645 0.45758 0.75815 0.0
H32 H 0.36431 0.4007 0.69615 0.0
H33 H 0.36637 0.36333 0.64078 0.0
H34 H 0.33496 0.35929 0.40397 0.0
H35 H 0.33239 0.39625 0.46032 0.0
H36 H 0.31077 0.55618 0.66805 0.0
H37 H 0.30979 0.59553 0.69484 0.0
H38 H 0.29571 0.58278 0.93805 0.0
H39 H 0.29599 0.54301 0.91018 0.0
Ho40 Ho 0.8653 0.15891 0.17215 0.0
Ho41 Ho 0.80409 0.1356 0.13493 0.0
C42 C 0.81997 0.10471 0.23764 0.0
C43 C 0.91433 0.18572 0.2249 0.0
C44 C 0.9426 0.20119 0.25545 0.0
C45 C 0.95192 0.21057 0.33894 0.0
C46 C 0.97853 0.22697 0.36803 0.0
C47 C 0.99681 0.2341 0.31484 0.0
C48 C 0.98743 0.22407 0.23125 0.0
C49 C 0.9608 0.20823 0.202 0.0
C50 C 0.8384 0.12208 0.02965 0.0
C51 C 0.84795 0.18842 0.07061 0.0
C52 C 0.75699 0.11563 0.0742 0.0
C53 C 0.73619 0.11977 0.07228 0.0
C54 C 0.73803 0.14021 0.03674 0.0
C55 C 0.71705 0.14157 0.02724 0.0
C56 C 0.69338 0.12246 0.05234 0.0
C57 C 0.69175 0.10223 0.08848 0.0
C58 C 0.7127 0.10092 0.09813 0.0
C59 C 0.83188 0.1739 0.27449 0.0
O60 O 0.84481 0.12599 0.2479 0.0
O61 O 0.80199 0.10226 0.18691 0.0
O62 O 0.90565 0.18866 0.15897 0.0
O63 O 0.89622 0.16713 0.26001 0.0
O64 O 0.86318 0.13722 0.049 0.0
O65 O 0.82943 0.12494 0.09189 0.0
O66 O 0.82414 0.16593 0.05566 0.0
O67 O 0.86576 0.19218 0.12521 0.0
O68 O 0.76275 0.10956 0.13901 0.0
O69 O 0.77728 0.13129 0.04065 0.0
O70 O 0.80705 0.15877 0.25683 0.0
O71 O 0.84001 0.16983 0.21204 0.0
H72 H 0.93861 0.20581 0.38197 0.0
H73 H 0.98484 0.23408 0.43268 0.0
H74 H 1.00077 0.22915 0.18817 0.0
H75 H 0.95444 0.20154 0.13731 0.0
H76 H 0.75553 0.1549 0.01466 0.0
H77 H 0.7192 0.15725 -0.00189 0.0
H78 H 0.67419 0.08727 0.10972 0.0
H79 H 0.71029 0.08465 0.1246 0.0
Ho80 Ho 0.68975 0.82029 0.70335 0.0
Ho81 Ho 0.67052 0.85031 0.79418 0.0
C82 C 0.7154 0.88391 0.69014 0.0
C83 C 0.70771 0.8014 0.60502 0.0
C84 C 0.73232 0.80586 0.59889 0.0
C85 C 0.73887 0.80356 0.52198 0.0
C86 C 0.76199 0.80739 0.51333 0.0
C87 C 0.77916 0.81379 0.5817 0.0
C88 C 0.77288 0.81702 0.65918 0.0
C89 C 0.74962 0.81313 0.66773 0.0
C90 C 0.71098 0.84273 0.86111 0.0
C91 C 0.63419 0.7829 0.76676 0.0
C92 C 0.66157 0.8732 0.91276 0.0
C93 C 0.6397 0.87265 0.93206 0.0
C94 C 0.63816 0.88 0.0126 0.0
C95 C 0.61876 0.88254 0.03019 0.0
C96 C 0.60117 0.87808 0.96702 0.0
C97 C 0.6023 0.86984 0.88672 0.0
C98 C 0.62135 0.86692 0.86934 0.0
C99 C 0.65164 0.8323 0.63507 0.0
O100 O 0.71086 0.86037 0.65743 0.0
O101 O 0.70463 0.88597 0.75272 0.0
O102 O 0.69541 0.78946 0.66297 0.0
O103 O 0.70765 0.82211 0.59711 0.0
O104 O 0.70711 0.82065 0.82347 0.0
O105 O 0.70522 0.85249 0.81195 0.0
O106 O 0.63911 0.80617 0.80574 0.0
O107 O 0.6498 0.78317 0.71716 0.0
O108 O 0.67103 0.88401 0.85008 0.0
O109 O 0.65958 0.85082 0.91366 0.0
O110 O 0.65253 0.85195 0.67964 0.0
O111 O 0.65673 0.82101 0.68113 0.0
H112 H 0.72585 0.79833 0.46833 0.0
H113 H 0.76582 0.80418 0.45269 0.0
H114 H 0.78576 0.82219 0.71306 0.0
H115 H 0.74505 0.81553 0.72782 0.0
H116 H 0.65229 0.88445 0.06136 0.0
H117 H 0.61797 0.88881 0.09248 0.0
H118 H 0.58856 0.8659 0.83742 0.0
H119 H 0.62226 0.86105 0.8068 0.0
Ho120 Ho 0.85671 0.57013 0.02074 0.0
Ho121 Ho 0.88184 0.53929 0.02727 0.0
C122 C 0.91681 0.6028 0.09234 0.0
C123 C 0.84017 0.59918 0.04971 0.0
C124 C 0.84825 0.62522 0.09854 0.0
C125 C 0.86689 0.63813 0.16801 0.0
C126 C 0.87301 0.66223 0.21542 0.0
C127 C 0.8606 0.67366 0.19385 0.0
C128 C 0.84242 0.66084 0.12307 0.0
C129 C 0.83637 0.63689 0.07589 0.0
C130 C 0.86871 0.55641 0.88312 0.0
C131 C 0.81988 0.50555 0.96958 0.0
C132 C 0.89589 0.50805 -0.00851 0.0
C133 C 0.88525 0.47893 0.98567 0.0
C134 C 0.87171 0.4598 0.91259 0.0
C135 C 0.86445 0.43315 0.90553 0.0
C136 C 0.87077 0.42525 0.9712 0.0
C137 C 0.88322 0.44401 0.04509 0.0
C138 C 0.89046 0.47051 0.05214 0.0
C139 C 0.86638 0.54952 0.16191 0.0
O140 O 0.89552 0.60101 0.09444 0.0
O141 O 0.91704 0.58253 0.05559 0.0
O142 O 0.85295 0.60069 -0.00996 0.0
O143 O 0.83499 0.58005 0.08931 0.0
O144 O 0.84942 0.55754 0.88715 0.0
O145 O 0.88217 0.56517 0.95135 0.0
O146 O 0.84029 0.50547 0.97684 0.0
O147 O 0.821 0.52775 -0.01034 0.0
O148 O 0.90097 0.52232 0.06409 0.0
O149 O 0.88607 0.51411 0.93685 0.0
O150 O 0.88564 0.54818 0.16308 0.0
O151 O 0.85513 0.54259 0.09168 0.0
H152 H 0.87636 0.62941 0.18616 0.0
H153 H 0.88724 0.67177 0.2692 0.0
H154 H 0.83212 0.66874 0.10553 0.0
H155 H 0.82192 0.6271 0.02248 0.0
H156 H 0.86745 0.46562 0.86008 0.0
H157 H 0.85494 0.41916 0.84774 0.0
H158 H 0.88795 0.43838 0.09722 0.0
H159 H 0.90085 0.48465 0.10929 0.0
Ho160 Ho 0.23264 0.824 0.83144 0.0
Ho161 Ho 0.29149 0.86506 0.83023 0.0
C162 C 0.25331 0.87626 0.75117 0.0
C163 C 0.18584 0.7959 0.8605 0.0
C164 C 0.16309 0.79123 0.81718 0.0
C165 C 0.13966 0.77773 0.84716 0.0
C166 C 0.11775 0.77178 0.80188 0.0
C167 C 0.11898 0.77907 0.72562 0.0
C168 C 0.14296 0.79389 0.69841 0.0
C169 C 0.16477 0.79997 0.74379 0.0
C170 C 0.24862 0.81817 0.69202 0.0
C171 C 0.27116 0.80853 0.88365 0.0
C172 C 0.33834 0.89818 0.8086 0.0
C173 C 0.36226 0.90502 0.84882 0.0
C174 C 0.37976 0.90625 0.80072 0.0
C175 C 0.40043 0.90766 0.83485 0.0
C176 C 0.40403 0.90817 0.91794 0.0
C177 C 0.3869 0.90781 0.96682 0.0
C178 C 0.36599 0.90613 0.93231 0.0
C179 C 0.27577 0.86966 0.97001 0.0
O180 O 0.23423 0.8576 0.78504 0.0
O181 O 0.27522 0.87941 0.75153 0.0
O182 O 0.19547 0.78508 0.81936 0.0
O183 O 0.20349 0.8211 0.89741 0.0
O184 O 0.22594 0.81227 0.69503 0.0
O185 O 0.26045 0.82495 0.76153 0.0
O186 O 0.28987 0.82967 0.85597 0.0
O187 O 0.24897 0.80481 0.89244 0.0
O188 O 0.32663 0.90604 0.85128 0.0
O189 O 0.32288 0.87302 0.76834 0.0
O190 O 0.2976 0.87378 0.96472 0.0
O191 O 0.26373 0.86442 0.90165 0.0
H192 H 0.13819 0.77129 0.90455 0.0
H193 H 0.09976 0.76092 0.82577 0.0
H194 H 0.14472 0.79972 0.64015 0.0
H195 H 0.18286 0.8108 0.72038 0.0
H196 H 0.3767 0.90472 0.73596 0.0
H197 H 0.41294 0.90713 0.79537 0.0
H198 H 0.38935 0.90818 0.03099 0.0
H199 H 0.35232 0.90467 0.97019 0.0
Ho200 Ho 0.43107 0.13671 0.12367 0.0
Ho201 Ho 0.46659 0.1904 0.06441 0.0
C202 C 0.42403 0.186 0.16108 0.0
C203 C 0.40301 0.09939 0.20536 0.0
C204 C 0.37568 0.07931 0.21239 0.0
C205 C 0.36408 0.0865 0.26788 0.0
C206 C 0.33958 0.06673 0.28382 0.0
C207 C 0.32612 0.03928 0.24477 0.0
C208 C 0.33713 0.03238 0.1858 0.0
C209 C 0.36175 0.05217 0.17014 0.0
C210 C 0.41471 0.13602 0.97325 0.0
C211 C 0.48138 0.1471 0.05024 0.0
C212 C 0.49018 0.22404 0.96989 0.0
C213 C 0.5158 0.23912 0.94788 0.0
C214 C 0.51928 0.24581 0.87128 0.0
C215 C 0.54392 0.26137 0.85097 0.0
C216 C 0.56525 0.27051 0.90753 0.0
C217 C 0.56143 0.2625 0.98281 0.0
C218 C 0.53679 0.24669 0.00261 0.0
C219 C 0.48069 0.19044 0.21782 0.0
O220 O 0.42215 0.16548 0.18713 0.0
O221 O 0.4367 0.19583 0.10047 0.0
O222 O 0.41124 0.09498 0.14004 0.0
O223 O 0.41262 0.12509 0.22884 0.0
O224 O 0.40979 0.11451 -0.00348 0.0
O225 O 0.42589 0.1557 0.03216 0.0
O226 O 0.48448 0.16844 0.02636 0.0
O227 O 0.4634 0.13305 0.09595 0.0
O228 O 0.48858 0.23159 0.04455 0.0
O229 O 0.47659 0.19755 0.9459 0.0
O230 O 0.48538 0.21216 0.19533 0.0
O231 O 0.47108 0.17178 0.15674 0.0
H232 H 0.37441 0.10716 0.30224 0.0
H233 H 0.33199 0.07273 0.33078 0.0
H234 H 0.32717 1.01145 0.15418 0.0
H235 H 0.37022 0.04598 0.12727 0.0
H236 H 0.50302 0.23946 0.82795 0.0
H237 H 0.54638 0.26692 0.79206 0.0
H238 H 0.57752 0.2695 0.02795 0.0
H239 H 0.53421 0.24108 0.06147 0.0
H240 H 0.42893 0.20649 0.32208 0.0
H241 H 0.41327 0.23201 0.3806 0.0
H242 H 0.37416 0.21754 0.14419 0.0
H243 H 0.39237 0.19499 0.08575 0.0
H244 H 0.38317 0.25852 0.19473 0.0
H245 H 0.34772 0.18817 0.32744 0.0
H246 H 0.33608 0.15295 0.40703 0.0
H247 H 0.37538 0.21458 0.62356 0.0
H248 H 0.38971 0.25034 0.54513 0.0
H249 H 0.32081 0.31356 0.38954 0.0
H250 H 0.32785 0.28038 0.32888 0.0
H251 H 0.3966 0.32007 0.50119 0.0
H252 H 0.38983 0.35336 0.56199 0.0
H253 H 0.3662 0.26275 0.47734 0.0
H254 H 0.39359 0.32879 0.28406 0.0
H255 H 0.37859 0.34647 0.19217 0.0
H256 H 0.31792 0.26453 0.07043 0.0
H257 H 0.33252 0.24646 0.16161 0.0
C258 C 0.41683 0.20867 0.28295 0.0
C259 C 0.41175 0.19844 0.19919 0.0
C260 C 0.40758 0.22321 0.3166 0.0
C261 C 0.39189 0.22694 0.26822 0.0
C262 C 0.38637 0.21586 0.18446 0.0
C263 C 0.39655 0.20243 0.15056 0.0
C264 C 0.3822 0.24314 0.30361 0.0
C265 C 0.37935 0.25881 0.25654 0.0
C266 C 0.37557 0.24339 0.38316 0.0
C267 C 0.37022 0.22218 0.42965 0.0
C268 C 0.35484 0.19439 0.39164 0.0
C269 C 0.34787 0.17424 0.43672 0.0
C270 C 0.35542 0.18148 0.52036 0.0
C271 C 0.37028 0.20892 0.55874 0.0
C272 C 0.37806 0.22921 0.51379 0.0
C273 C 0.33761 0.31552 0.41445 0.0
C274 C 0.35478 0.33667 0.48098 0.0
C275 C 0.34163 0.29634 0.37937 0.0
C276 C 0.36315 0.29777 0.40878 0.0
C277 C 0.37991 0.31835 0.47644 0.0
C278 C 0.37588 0.33747 0.5117 0.0
C279 C 0.36861 0.27828 0.36968 0.0
C280 C 0.37054 0.26209 0.41612 0.0
C281 C 0.37142 0.275 0.28704 0.0
C282 C 0.36419 0.28635 0.22938 0.0
C283 C 0.3772 0.31462 0.23727 0.0
C284 C 0.3687 0.32468 0.18548 0.0
C285 C 0.34732 0.30664 0.12551 0.0
C286 C 0.33451 0.2785 0.11671 0.0
C287 C 0.34293 0.26836 0.1682 0.0
H288 H 0.34068 0.31446 0.0859 0.0
H289 H 0.34946 0.16582 0.5555 0.0
H290 H 0.24756 0.37341 0.57914 0.0
H291 H 0.20172 0.33789 0.52875 0.0
H292 H 0.18654 0.39728 0.58392 0.0
H293 H 0.23207 0.43261 0.63598 0.0
H294 H 0.14901 0.34886 0.62578 0.0
H295 H 0.19363 0.37209 0.38269 0.0
H296 H 0.22681 0.37398 0.3105 0.0
H297 H 0.18833 0.28823 0.29978 0.0
H298 H 0.15529 0.28598 0.37351 0.0
H299 H 0.02444 0.28303 0.42325 0.0
H300 H 0.07024 0.31311 0.47584 0.0
H301 H 0.08026 0.25666 0.33569 0.0
H302 H 0.0345 0.22757 0.27806 0.0
H303 H 0.12115 0.29923 0.34065 0.0
H304 H 0.0814 0.26781 0.56199 0.0
H305 H 0.051 0.25456 0.66036 0.0
H306 H 0.08016 0.3383 0.73848 0.0
H307 H 0.11062 0.35204 0.63986 0.0
C308 C 0.23453 0.37899 0.58087 0.0
C309 C 0.24398 0.40623 0.61165 0.0
C310 C 0.20811 0.35853 0.5514 0.0
C311 C 0.19023 0.36465 0.55042 0.0
C312 C 0.19959 0.39169 0.58301 0.0
C313 C 0.22589 0.41206 0.61286 0.0
C314 C 0.16199 0.34339 0.51491 0.0
C315 C 0.14297 0.3384 0.56298 0.0
C316 C 0.15354 0.32778 0.43475 0.0
C317 C 0.17205 0.32889 0.3837 0.0
C318 C 0.19217 0.35362 0.36438 0.0
C319 C 0.21101 0.35477 0.3235 0.0
C320 C 0.20967 0.33124 0.30055 0.0
C321 C 0.18934 0.30643 0.31755 0.0
C322 C 0.17055 0.30521 0.35883 0.0
C323 C 0.03635 0.27694 0.4036 0.0
C324 C 0.0254 0.25253 0.34681 0.0
C325 C 0.0628 0.29416 0.43466 0.0
C326 C 0.07939 0.28723 0.41306 0.0
C327 C 0.06848 0.26296 0.35489 0.0
C328 C 0.04205 0.24609 0.32182 0.0
C329 C 0.1078 0.3054 0.45062 0.0
C330 C 0.12691 0.30977 0.40326 0.0
C331 C 0.11635 0.31885 0.5335 0.0
C332 C 0.09809 0.31091 0.59287 0.0
C333 C 0.0812 0.28338 0.59972 0.0
C334 C 0.06399 0.27579 0.6556 0.0
C335 C 0.06359 0.29557 0.70544 0.0
C336 C 0.08047 0.323 0.6997 0.0
C337 C 0.09775 0.33072 0.6439 0.0
H338 H 0.05023 0.28965 0.74866 0.0
H339 H 0.22444 0.33221 0.26995 0.0
H340 H 0.7726 0.05507 0.22232 0.0
H341 H 0.7589 0.01935 0.29991 0.0
H342 H 0.83458 0.06763 0.44001 0.0
H343 H 0.84871 0.10335 0.36053 0.0
H344 H 0.81586 0.01423 0.40969 0.0
H345 H 0.77916 0.05978 0.54002 0.0
H346 H 0.75315 0.07718 0.54043 0.0
H347 H 0.69135 1.00329 0.38227 0.0
H348 H 0.71614 0.98453 0.38576 0.0
H349 H 0.76785 0.92115 0.69037 0.0
H350 H 0.78953 0.96036 0.62246 0.0
H351 H 0.71528 0.93605 0.51731 0.0
H352 H 0.69476 0.9011 0.59805 0.0
H353 H 0.73846 0.98236 0.5402 0.0
H354 H 0.76918 0.93151 0.42679 0.0
H355 H 0.79219 0.91078 0.42413 0.0
H356 H 0.86278 0.98901 0.52686 0.0
H357 H 0.84013 1.01016 0.5302 0.0
C358 C 0.78647 0.05823 0.26943 0.0
C359 C 0.81184 0.08241 0.28468 0.0
C360 C 0.77849 0.0377 0.31463 0.0
C361 C 0.7954 0.0407 0.37787 0.0
C362 C 0.82095 0.06457 0.39217 0.0
C363 C 0.82904 0.08512 0.34643 0.0
C364 C 0.78617 0.01917 0.42922 0.0
C365 C 0.79897 1.00727 0.4387 0.0
C366 C 0.76394 1.00942 0.46641 0.0
C367 C 0.74955 0.02101 0.46216 0.0
C368 C 0.76008 0.04736 0.505 0.0
C369 C 0.74557 0.05742 0.50472 0.0
C370 C 0.72098 0.04175 0.4597 0.0
C371 C 0.7105 0.01555 0.41651 0.0
C372 C 0.72459 1.00503 0.4185 0.0
C373 C 0.75635 0.92453 0.6531 0.0
C374 C 0.72941 0.90743 0.64764 0.0
C375 C 0.76875 0.94678 0.6126 0.0
C376 C 0.75444 0.95151 0.5614 0.0
C377 C 0.7274 0.93378 0.55585 0.0
C378 C 0.71533 0.91296 0.6005 0.0
C379 C 0.76679 0.97528 0.51681 0.0
C380 C 0.75498 0.98838 0.51021 0.0
C381 C 0.78939 0.9852 0.47997 0.0
C382 C 0.80289 0.97237 0.4791 0.0
C383 C 0.78958 0.94426 0.44888 0.0
C384 C 0.80257 0.93244 0.4473 0.0
C385 C 0.82893 0.94855 0.47547 0.0
C386 C 0.84236 0.97654 0.50513 0.0
C387 C 0.82945 0.98845 0.50677 0.0
H388 H 0.83896 0.93936 0.47425 0.0
H389 H 0.70995 0.04979 0.45911 0.0
H390 H 0.86544 0.68382 0.35886 0.0
H391 H 0.86442 0.71841 0.44448 0.0
H392 H 0.86305 0.75128 0.23621 0.0
H393 H 0.86482 0.71721 0.1502 0.0
H394 H 0.89095 0.79184 0.37922 0.0
H395 H 0.80845 0.70615 0.28263 0.0
H396 H 0.77595 0.65618 0.25803 0.0
H397 H 0.78203 0.65833 0.51373 0.0
H398 H 0.81489 0.70832 0.53968 0.0
H399 H 0.81104 0.83359 0.467 0.0
H400 H 0.83842 0.82062 0.42385 0.0
H401 H 0.82729 0.78258 0.63032 0.0
H402 H 0.79839 0.79367 0.6705 0.0
H403 H 0.81005 0.74698 0.49774 0.0
H404 H 0.88869 0.83614 0.59191 0.0
H405 H 0.91925 0.88617 0.60876 0.0
H406 H 0.91851 0.87855 0.35181 0.0
H407 H 0.88765 0.82849 0.33326 0.0
C408 C 0.86579 0.69894 0.33155 0.0
C409 C 0.86482 0.69753 0.24752 0.0
C410 C 0.86509 0.71862 0.38054 0.0
C411 C 0.86333 0.73711 0.34634 0.0
C412 C 0.8644 0.73716 0.26363 0.0
C413 C 0.86511 0.71749 0.21454 0.0
C414 C 0.85677 0.75364 0.39441 0.0
C415 C 0.87329 0.7822 0.40533 0.0
C416 C 0.8338 0.74092 0.42849 0.0
C417 C 0.81439 0.71086 0.413 0.0
C418 C 0.80308 0.69591 0.33351 0.0
C419 C 0.78455 0.6676 0.31934 0.0
C420 C 0.77701 0.65407 0.38426 0.0
C421 C 0.78796 0.66883 0.46349 0.0
C422 C 0.80654 0.69713 0.47797 0.0
C423 C 0.81478 0.82287 0.50408 0.0
C424 C 0.80182 0.81387 0.57067 0.0
C425 C 0.83085 0.81588 0.48004 0.0
C426 C 0.83474 0.80039 0.52344 0.0
C427 C 0.82441 0.79441 0.59564 0.0
C428 C 0.80796 0.80093 0.61886 0.0
C429 C 0.84449 0.78557 0.4851 0.0
C430 C 0.82819 0.75701 0.47426 0.0
C431 C 0.86744 0.79842 0.45041 0.0
C432 C 0.88573 0.82855 0.46121 0.0
C433 C 0.89485 0.84514 0.53892 0.0
C434 C 0.91228 0.87351 0.54879 0.0
C435 C 0.92079 0.88554 0.4814 0.0
C436 C 0.9119 0.86921 0.40397 0.0
C437 C 0.89447 0.84083 0.39376 0.0
H438 H 0.93432 0.90751 0.48919 0.0
H439 H 0.76262 0.63216 0.37319 0.0
H440 H 0.07151 0.73001 0.70992 0.0
H441 H 0.03598 0.70893 0.60034 0.0
H442 H 0.07731 0.78195 0.50096 0.0
H443 H 0.11256 0.80409 0.61326 0.0
H444 H 1.00435 0.72346 0.52285 0.0
H445 H 0.07636 0.75941 0.31295 0.0
H446 H 0.12086 0.77547 0.30173 0.0
H447 H 0.11426 0.72237 0.4561 0.0
H448 H 0.06966 0.706 0.46787 0.0
H449 H 0.92804 0.65314 0.1341 0.0
H450 H 0.96269 0.69124 0.23691 0.0
H451 H 0.99188 0.64501 0.26991 0.0
H452 H 0.95762 0.60707 0.16557 0.0
H453 H 0.03019 0.69764 0.27539 0.0
H454 H 0.9503 0.64728 0.39757 0.0
H455 H 0.90533 0.62999 0.40529 0.0
H456 H 0.92645 0.711 0.42385 0.0
H457 H 0.9716 0.72883 0.41658 0.0
C458 C 0.07276 0.74218 0.66715 0.0
C459 C 0.09527 0.76867 0.67003 0.0
C460 C 0.05238 0.72997 0.60417 0.0
C461 C 0.05425 0.74382 0.54246 0.0
C462 C 0.07567 0.77094 0.54809 0.0
C463 C 0.0959 0.78339 0.6119 0.0
C464 C 0.03573 0.72838 0.46712 0.0
C465 C 1.00997 0.71811 0.46822 0.0
C466 C 0.04311 0.72151 0.39612 0.0
C467 C 0.06994 0.73168 0.39154 0.0
C468 C 0.0845 0.75127 0.34457 0.0
C469 C 0.10968 0.76041 0.33817 0.0
C470 C 0.12035 0.74994 0.37814 0.0
C471 C 0.10596 0.73049 0.4253 0.0
C472 C 0.08077 0.72131 0.43199 0.0
C473 C 0.94221 0.65137 0.16211 0.0
C474 C 0.94025 0.62724 0.142 0.0
C475 C 0.96182 0.67304 0.22122 0.0
C476 C 0.97948 0.67069 0.26206 0.0
C477 C 0.97836 0.64716 0.23904 0.0
C478 C 0.95891 0.62559 0.17917 0.0
C479 C 0.99854 0.69208 0.33116 0.0
C480 C 0.0245 0.70349 0.32899 0.0
C481 C 0.99124 0.70008 0.40076 0.0
C482 C 0.96421 0.68933 0.40606 0.0
C483 C 0.94532 0.66137 0.40315 0.0
C484 C 0.91982 0.65148 0.40752 0.0
C485 C 0.91303 0.66934 0.41493 0.0
C486 C 0.93175 0.69719 0.41827 0.0
C487 C 0.95729 0.70721 0.41425 0.0
H488 H 0.89326 0.6616 0.41806 0.0
H489 H 0.13967 0.75675 0.37178 0.0
H490 H 0.21627 0.8854 0.75503 0.0
H491 H 0.21192 0.91385 0.6766 0.0
H492 H 0.27997 0.93575 0.57432 0.0
H493 H 0.28488 0.90849 0.65249 0.0
H494 H 0.27055 0.98052 0.64032 0.0
H495 H 0.22789 0.89097 0.37046 0.0
H496 H 0.19418 0.84113 0.33352 0.0
H497 H 0.152 0.84686 0.51398 0.0
H498 H 0.18477 0.89679 0.54924 0.0
H499 H 0.31399 0.9905 0.2693 0.0
H500 H 0.28276 0.96102 0.35051 0.0
H501 H 0.25501 1.01003 0.37496 0.0
H502 H 0.28616 0.03969 0.29172 0.0
H503 H 0.22604 0.93169 0.35979 0.0
H504 H 0.25972 0.02519 0.53912 0.0
H505 H 0.29388 0.07484 0.55931 0.0
H506 H 0.35129 0.0606 0.55502 0.0
H507 H 0.31734 1.01082 0.53445 0.0
C508 C 0.23035 0.89648 0.71621 0.0
C509 C 0.25066 0.89429 0.70911 0.0
C510 C 0.22778 0.91259 0.67127 0.0
C511 C 0.24535 0.92639 0.61849 0.0
C512 C 0.26612 0.9251 0.61433 0.0
C513 C 0.26886 0.90942 0.6593 0.0
C514 C 0.24233 0.94132 0.56315 0.0
C515 C 0.25975 0.96994 0.58002 0.0
C516 C 0.22857 0.92757 0.48409 0.0
C517 C 0.20908 0.89752 0.46379 0.0
C518 C 0.21139 0.88158 0.40211 0.0
C519 C 0.19237 0.85336 0.38102 0.0
C520 C 0.17106 0.84086 0.42163 0.0
C521 C 0.16859 0.85656 0.48288 0.0
C522 C 0.18738 0.88481 0.50344 0.0
C523 C 0.30058 0.99445 0.28868 0.0
C524 C 0.30289 0.01776 0.27509 0.0
C525 C 0.28271 0.97754 0.33539 0.0
C526 C 0.26689 0.98363 0.36958 0.0
C527 C 0.2673 1.00523 0.34972 0.0
C528 C 0.28518 0.02219 0.30258 0.0
C529 C 0.25425 0.97058 0.43726 0.0
C530 C 0.23494 0.94239 0.42171 0.0
C531 C 0.26563 0.98472 0.51784 0.0
C532 C 0.28613 0.01449 0.5362 0.0
C533 C 0.27967 0.03275 0.54352 0.0
C534 C 0.29895 0.06085 0.55456 0.0
C535 C 0.32475 0.07088 0.55874 0.0
C536 C 0.33131 0.05281 0.5521 0.0
C537 C 0.31207 0.02467 0.54091 0.0
H538 H 0.33965 0.09263 0.56695 0.0
H539 H 0.15651 0.819 0.40581 0.0
H540 H 0.2408 0.76169 0.94782 0.0
H541 H 0.24538 0.7245 0.94445 0.0
H542 H 0.31209 0.76805 0.82552 0.0
H543 H 0.3082 0.80493 0.83004 0.0
H544 H 0.27759 0.71425 0.74867 0.0
H545 H 0.32116 0.76748 0.0116 0.0
H546 H 0.32522 0.79178 0.14673 0.0
H547 H 0.26469 0.71595 0.2067 0.0
H548 H 0.25982 0.69121 0.07088 0.0
H549 H 0.33007 0.64119 0.76529 0.0
H550 H 0.32454 0.67745 0.78414 0.0
H551 H 0.26386 0.63257 0.92442 0.0
H552 H 0.2692 0.59616 0.90574 0.0
H553 H 0.29323 0.68588 -0.00822 0.0
H554 H 0.25171 0.63332 0.71977 0.0
H555 H 0.24957 0.6123 0.5814 0.0
H556 H 0.31033 0.691 0.5381 0.0
H557 H 0.31305 0.71246 0.67654 0.0
C558 C 0.25659 0.76343 0.9219 0.0
C559 C 0.27415 0.78651 0.88974 0.0
C560 C 0.25915 0.74215 0.91977 0.0
C561 C 0.27904 0.74342 0.88424 0.0
C562 C 0.29654 0.76647 0.85281 0.0
C563 C 0.29431 0.78775 0.85617 0.0
C564 C 0.28193 0.72093 0.87865 0.0
C565 C 0.28111 0.70812 0.80187 0.0
C566 C 0.28653 0.71292 0.94795 0.0
C567 C 0.28989 0.72751 0.03062 0.0
C568 C 0.30855 0.75598 0.05331 0.0
C569 C 0.31102 0.76985 0.13004 0.0
C570 C 0.29517 0.75542 0.1852 0.0
C571 C 0.27691 0.72709 0.16379 0.0
C572 C 0.27427 0.71313 0.08689 0.0
C573 C 0.31542 0.63886 0.79982 0.0
C574 C 0.29999 0.61543 0.83333 0.0
C575 C 0.3123 0.65973 0.81073 0.0
C576 C 0.29344 0.65768 0.85462 0.0
C577 C 0.27852 0.63474 0.89019 0.0
C578 C 0.28169 0.61389 0.87954 0.0
C579 C 0.28878 0.67898 0.86138 0.0
C580 C 0.2894 0.69172 0.93845 0.0
C581 C 0.28442 0.68734 0.79221 0.0
C582 C 0.28272 0.67445 0.70879 0.0
C583 C 0.26472 0.64612 0.68091 0.0
C584 C 0.26339 0.63413 0.60244 0.0
C585 C 0.27984 0.65029 0.55107 0.0
C586 C 0.29762 0.6785 0.57798 0.0
C587 C 0.29904 0.69059 0.65641 0.0
H588 H 0.27878 0.64097 0.49036 0.0
H589 H 0.29709 0.7662 0.24457 0.0
H590 H 0.53152 0.18409 0.03007 0.0
H591 H 0.56529 0.17809 0.02102 0.0
H592 H 0.51058 0.09262 0.02694 0.0
H593 H 0.47726 0.09944 0.04389 0.0
H594 H 0.54813 0.10322 0.09928 0.0
H595 H 0.54333 0.12496 0.8456 0.0
H596 H 0.5421 0.14933 0.74321 0.0
H597 H 0.61771 0.22056 0.84832 0.0
H598 H 0.61933 0.19669 0.95183 0.0
H599 H 0.64154 0.07946 0.01157 0.0
H600 H 0.60472 0.08084 -0.00301 0.0
H601 H 0.65577 0.1688 0.05216 0.0
H602 H 0.69281 0.16755 0.06496 0.0
H603 H 0.61829 0.15323 0.93804 0.0
H604 H 0.61641 0.1217 0.19569 0.0
H605 H 0.61321 0.08835 0.27078 0.0
H606 H 0.54264 0.02355 0.11685 0.0
H607 H 0.54554 0.05647 0.04068 0.0
C608 C 0.52654 0.1639 0.02883 0.0
C609 C 0.50138 0.14222 0.03723 0.0
C610 C 0.54604 0.16033 0.02258 0.0
C611 C 0.541 0.13462 0.02085 0.0
C612 C 0.51562 0.11281 0.02811 0.0
C613 C 0.49629 0.11663 0.03726 0.0
C614 C 0.56229 0.13091 0.01604 0.0
C615 C 0.56309 0.11396 0.06257 0.0
C616 C 0.58232 0.14444 0.96829 0.0
C617 C 0.58132 0.15911 0.90709 0.0
C618 C 0.55961 0.1459 0.84734 0.0
C619 C 0.55887 0.1596 0.78898 0.0
C620 C 0.57978 0.1865 0.78943 0.0
C621 C 0.60151 0.19973 0.84814 0.0
C622 C 0.60237 0.18611 0.90661 0.0
C623 C 0.64509 0.09919 0.02139 0.0
C624 C 0.67053 0.12339 0.04086 0.0
C625 C 0.62378 0.09996 0.01315 0.0
C626 C 0.62696 0.12495 0.02577 0.0
C627 C 0.65238 0.14913 0.04267 0.0
C628 C 0.67374 0.14839 0.04996 0.0
C629 C 0.60412 0.1261 0.02226 0.0
C630 C 0.60313 0.14257 0.97424 0.0
C631 C 0.58314 0.11095 0.06492 0.0
C632 C 0.58127 0.0915 0.1124 0.0
C633 C 0.60025 0.10034 0.17796 0.0
C634 C 0.59848 0.08151 0.22062 0.0
C635 C 0.57776 0.05385 0.19853 0.0
C636 C 0.55868 0.04497 0.13394 0.0
C637 C 0.56035 0.0637 0.09114 0.0
H638 H 0.57647 0.03931 0.2315 0.0
H639 H 0.57918 0.19707 0.74417 0.0
H640 H 0.58566 0.76893 0.7339 0.0
H641 H 0.54425 0.72542 0.73209 0.0
H642 H 0.58339 0.69308 0.81334 0.0
H643 H 0.6248 0.7359 0.80586 0.0
H644 H 0.54642 0.65355 0.73486 0.0
H645 H 0.54434 0.71383 0.93478 0.0
H646 H 0.5473 0.75426 -0.00145 0.0
H647 H 0.48654 0.73328 0.81812 0.0
H648 H 0.48336 0.69284 0.75292 0.0
H649 H 0.42384 0.53272 0.78935 0.0
H650 H 0.46738 0.57585 0.81316 0.0
H651 H 0.43843 0.61315 0.69683 0.0
H652 H 0.39502 0.571 0.67925 0.0
H653 H 0.47139 0.64951 0.80959 0.0
H654 H 0.47931 0.5863 0.61423 0.0
H655 H 0.47708 0.5445 0.58319 0.0
H656 H 0.52909 0.57133 0.80133 0.0
H657 H 0.53151 0.61315 0.83358 0.0
C658 C 0.58544 0.75252 0.75145 0.0
C659 C 0.60878 0.75619 0.77033 0.0
C660 C 0.56147 0.72742 0.75176 0.0
C661 C 0.55974 0.70526 0.77525 0.0
C662 C 0.58333 0.70918 0.79467 0.0
C663 C 0.60731 0.73396 0.79097 0.0
C664 C 0.53369 0.67803 0.77655 0.0
C665 C 0.5303 0.6531 0.75234 0.0
C666 C 0.51186 0.6761 0.80002 0.0
C667 C 0.51383 0.70049 0.83851 0.0
C668 C 0.53174 0.71796 0.90842 0.0
C669 C 0.53342 0.74084 0.94488 0.0
C670 C 0.51718 0.74639 0.91225 0.0
C671 C 0.49914 0.72899 0.84325 0.0
C672 C 0.49737 0.70606 0.80659 0.0
C673 C 0.42682 0.55008 0.76836 0.0
C674 C 0.40565 0.548 0.73163 0.0
C675 C 0.45201 0.57497 0.78135 0.0
C676 C 0.45712 0.59837 0.75493 0.0
C677 C 0.43576 0.59599 0.7182 0.0
C678 C 0.41066 0.57153 0.70757 0.0
C679 C 0.4841 0.62538 0.76515 0.0
C680 C 0.48764 0.65025 0.79185 0.0
C681 C 0.50634 0.62727 0.74795 0.0
C682 C 0.50554 0.60271 0.72623 0.0
C683 C 0.49032 0.58326 0.65523 0.0
C684 C 0.48899 0.55958 0.63758 0.0
C685 C 0.50292 0.55526 0.69026 0.0
C686 C 0.51833 0.5747 0.76051 0.0
C687 C 0.51974 0.5984 0.77838 0.0
H688 H 0.50178 0.53687 0.67665 0.0
H689 H 0.51852 0.76413 0.94053 0.0
H690 H 0.9042 0.41551 0.02447 0.0
H691 H 0.89748 0.37194 0.01346 0.0
H692 H 0.82113 0.33052 0.88386 0.0
H693 H 0.8276 0.37449 0.89635 0.0
H694 H 0.82099 0.3034 -0.00277 0.0
H695 H 0.86481 0.33429 0.78049 0.0
H696 H 0.89659 0.36563 0.70087 0.0
H697 H 0.9573 0.37617 0.85564 0.0
H698 H 0.92591 0.34515 0.93703 0.0
H699 H 0.81813 0.18501 0.94367 0.0
H700 H 0.82034 0.2224 0.9005 0.0
H701 H 0.89029 0.28062 0.06808 0.0
H702 H 0.88811 0.24315 0.11307 0.0
H703 H 0.88786 0.2941 0.90693 0.0
H704 H 0.83607 0.26167 0.12816 0.0
H705 H 0.79945 0.22518 0.18363 0.0
H706 H 0.74713 0.21134 0.98439 0.0
H707 H 0.78349 0.24745 0.927 0.0
C708 C 0.88587 0.39715 -0.00591 0.0
C709 C 0.86634 0.39842 0.96191 0.0
C710 C 0.88217 0.37226 -0.013 0.0
C711 C 0.85892 0.348 0.94701 0.0
C712 C 0.83926 0.34904 0.91467 0.0
C713 C 0.84302 0.37413 0.92147 0.0
C714 C 0.85544 0.32176 0.94204 0.0
C715 C 0.83532 0.30114 0.97595 0.0
C716 C 0.87384 0.31851 0.91302 0.0
C717 C 0.893 0.33751 0.86524 0.0
C718 C 0.88497 0.34348 0.79807 0.0
C719 C 0.90291 0.36115 0.75249 0.0
C720 C 0.92895 0.37292 0.77325 0.0
C721 C 0.93711 0.36703 0.83965 0.0
C722 C 0.91924 0.34936 0.88547 0.0
C723 C 0.83428 0.20575 0.97075 0.0
C724 C 0.85276 0.21111 0.03313 0.0
C725 C 0.83546 0.22707 0.94573 0.0
C726 C 0.8552 0.25417 0.9821 0.0
C727 C 0.87482 0.25974 0.03963 0.0
C728 C 0.87359 0.23834 0.06518 0.0
C729 C 0.8542 0.27656 0.96549 0.0
C730 C 0.87343 0.29633 0.92722 0.0
C731 C 0.83431 0.27838 -0.01277 0.0
C732 C 0.81251 0.25711 0.02298 0.0
C733 C 0.81677 0.25074 0.09593 0.0
C734 C 0.79607 0.23013 0.12772 0.0
C735 C 0.77099 0.21597 0.08757 0.0
C736 C 0.76656 0.22234 0.01545 0.0
C737 C 0.78721 0.24288 0.9833 0.0
H738 H 0.755 0.20013 0.11254 0.0
H739 H 0.94282 0.38656 0.7378 0.0
H740 H 0.40114 0.87614 0.02088 0.0
H741 H 0.43332 0.86835 0.05303 0.0
H742 H 0.4845 0.92875 0.91745 0.0
H743 H 0.45308 0.9373 0.88743 0.0
H744 H 0.47013 0.87455 0.86516 0.0
H745 H 0.49866 0.94411 0.1064 0.0
H746 H 0.49306 0.96286 0.23533 0.0
H747 H 0.47643 0.89428 0.33299 0.0
H748 H 0.48143 0.87482 0.20384 0.0
H749 H 0.59229 0.90974 0.89999 0.0
H750 H 0.55612 0.91188 0.91237 0.0
H751 H 0.52979 0.85733 0.08135 0.0
H752 H 0.56649 0.85563 0.07035 0.0
H753 H 0.52428 0.89745 0.12379 0.0
H754 H 0.50379 0.83248 0.8869 0.0
H755 H 0.5103 0.81491 0.75764 0.0
H756 H 0.51175 0.87483 0.6492 0.0
H757 H 0.50585 0.89321 0.77822 0.0
C758 C 0.41961 0.88836 0.00031 0.0
C759 C 0.42465 0.9071 0.95089 0.0
C760 C 0.43777 0.88374 0.01821 0.0
C761 C 0.46088 0.8978 -0.01347 0.0
C762 C 0.46654 0.91765 0.94162 0.0
C763 C 0.44863 0.92245 0.92449 0.0
C764 C 0.47855 0.89053 -0.00668 0.0
C765 C 0.48204 0.87949 0.92151 0.0
C766 C 0.49308 0.8961 0.06764 0.0
C767 C 0.48996 0.90776 0.14498 0.0
C768 C 0.49345 0.93282 0.15492 0.0
C769 C 0.49046 0.94362 0.22814 0.0
C770 C 0.48426 0.9297 0.29219 0.0
C771 C 0.48112 0.90498 0.28321 0.0
C772 C 0.48401 0.89405 0.21 0.0
C773 C 0.57891 0.8985 0.94045 0.0
C774 C 0.58167 0.88221 0.98346 0.0
C775 C 0.55833 0.89964 0.94725 0.0
C776 C 0.54007 0.88408 -0.00412 0.0
C777 C 0.54366 0.86915 0.04286 0.0
C778 C 0.5645 0.86825 0.03674 0.0
C779 C 0.51684 0.88283 -0.00516 0.0
C780 C 0.51204 0.89189 0.0676 0.0
C781 C 0.50108 0.87549 0.92104 0.0
C782 C 0.50449 0.86434 0.84275 0.0
C783 C 0.50569 0.84207 0.83577 0.0
C784 C 0.50928 0.83196 0.76244 0.0
C785 C 0.51146 0.84376 0.69529 0.0
C786 C 0.51006 0.86571 0.70129 0.0
C787 C 0.50659 0.87598 0.77454 0.0
H788 H 0.51421 0.83588 0.63858 0.0
H789 H 0.482 0.93812 0.34888 0.0
H790 H 0.77648 0.49707 0.90205 0.0
H791 H 0.73319 0.45422 0.87583 0.0
H792 H 0.76307 0.41299 0.95886 0.0
H793 H 0.8065 0.45556 0.9828 0.0
H794 H 0.72635 0.38129 0.83442 0.0
H795 H 0.7383 0.43607 0.08513 0.0
H796 H 0.74958 0.47723 0.17844 0.0
H797 H 0.68912 0.47328 0.04611 0.0
H798 H 0.67785 0.43249 0.95074 0.0
H799 H 0.60816 0.2731 0.94451 0.0
H800 H 0.65257 0.31164 0.94197 0.0
H801 H 0.62569 0.35209 0.83376 0.0
H802 H 0.58146 0.31446 0.8397 0.0
H803 H 0.66123 0.38325 0.97278 0.0
H804 H 0.65041 0.3249 0.72257 0.0
H805 H 0.63904 0.28114 0.64721 0.0
H806 H 0.69824 0.2894 0.80335 0.0
H807 H 0.70974 0.33305 0.8802 0.0
C808 C 0.77379 0.47876 0.91368 0.0
C809 C 0.79458 0.47949 0.94522 0.0
C810 C 0.74917 0.45442 0.89883 0.0
C811 C 0.7451 0.43079 0.91714 0.0
C812 C 0.76599 0.43116 0.94469 0.0
C813 C 0.79069 0.45542 0.95836 0.0
C814 C 0.71889 0.40609 0.91206 0.0
C815 C 0.71212 0.38164 0.86501 0.0
C816 C 0.70059 0.40673 0.9529 0.0
C817 C 0.7074 0.43136 0.01017 0.0
C818 C 0.72756 0.44412 0.0754 0.0
C819 C 0.73393 0.46735 0.12876 0.0
C820 C 0.72009 0.47785 0.11817 0.0
C821 C 0.69985 0.46514 0.05417 0.0
C822 C 0.69347 0.44198 0.00039 0.0
C823 C 0.61176 0.29009 0.91942 0.0
C824 C 0.59145 0.29088 0.89248 0.0
C825 C 0.63702 0.3119 0.9175 0.0
C826 C 0.64211 0.33443 0.88743 0.0
C827 C 0.62189 0.3347 0.85697 0.0
C828 C 0.59669 0.31307 0.85954 0.0
C829 C 0.66857 0.35872 0.89337 0.0
C830 C 0.67543 0.38305 0.94151 0.0
C831 C 0.68709 0.35776 0.85568 0.0
C832 C 0.68085 0.33214 0.80724 0.0
C833 C 0.66096 0.31734 0.74085 0.0
C834 C 0.65449 0.29256 0.69793 0.0
C835 C 0.66788 0.28247 0.72055 0.0
C836 C 0.68789 0.29724 0.78586 0.0
C837 C 0.69442 0.32202 0.829 0.0
H838 H 0.66278 0.26323 0.68742 0.0
H839 H 0.72502 0.49581 0.15964 0.0
H840 H 0.35874 0.51917 0.49535 0.0
H841 H 0.35368 0.52566 0.36103 0.0
H842 H 0.27154 0.48 0.3588 0.0
H843 H 0.27671 0.47068 0.4914 0.0
H844 H 0.27838 0.44875 0.28089 0.0
H845 H 0.31301 0.5399 0.25516 0.0
H846 H 0.34301 0.59019 0.28926 0.0
H847 H 0.4055 0.58745 0.23274 0.0
H848 H 0.37609 0.53727 0.19939 0.0
H849 H 0.28276 0.42798 0.85668 0.0
H850 H 0.27392 0.42527 -0.00529 0.0
H851 H 0.35489 0.46981 0.07986 0.0
H852 H 0.36391 0.47432 0.94202 0.0
H853 H 0.33866 0.50145 0.09672 0.0
H854 H 0.30766 0.4128 0.15859 0.0
H855 H 0.27949 0.36246 0.13589 0.0
H856 H 0.21292 0.36191 0.13201 0.0
H857 H 0.24069 0.41222 0.15473 0.0
C858 C 0.33977 0.51168 0.46746 0.0
C859 C 0.31796 0.49329 0.49982 0.0
C860 C 0.33677 0.51585 0.39046 0.0
C861 C 0.31188 0.50179 0.3471 0.0
C862 C 0.29081 0.48993 0.38983 0.0
C863 C 0.29365 0.48438 0.46512 0.0
C864 C 0.30774 0.48942 0.26097 0.0
C865 C 0.29116 0.46061 0.23996 0.0
C866 C 0.32462 0.50435 0.20737 0.0
C867 C 0.3422 0.53471 0.22429 0.0
C868 C 0.33314 0.55001 0.24992 0.0
C869 C 0.35008 0.57852 0.26923 0.0
C870 C 0.37613 0.592 0.26306 0.0
C871 C 0.3853 0.57701 0.23717 0.0
C872 C 0.36847 0.54852 0.21769 0.0
C873 C 0.29848 0.43559 0.90428 0.0
C874 C 0.32406 0.45229 0.89035 0.0
C875 C 0.29337 0.43393 0.98343 0.0
C876 C 0.31392 0.44847 0.04737 0.0
C877 C 0.33888 0.45909 0.03089 0.0
C878 C 0.34407 0.46164 0.9522 0.0
C879 C 0.3112 0.46139 0.12214 0.0
C880 C 0.32589 0.49005 0.13839 0.0
C881 C 0.29287 0.44644 0.17173 0.0
C882 C 0.27622 0.41621 0.15681 0.0
C883 C 0.28701 0.40191 0.15191 0.0
C884 C 0.27111 0.3734 0.13943 0.0
C885 C 0.24443 0.35899 0.13169 0.0
C886 C 0.23358 0.37307 0.1373 0.0
C887 C 0.24938 0.40158 0.1503 0.0
H888 H 0.23216 0.33692 0.1218 0.0
H889 H 0.38922 0.61407 0.27844 0.0
H890 H 0.8475 0.09527 0.91288 0.0
H891 H 0.8432 0.0958 0.76877 0.0
H892 H 0.80122 0.12963 0.80994 0.0
H893 H 0.80248 0.12529 0.95057 0.0
H894 H 0.79047 0.10772 0.65866 0.0
H895 H 0.87719 0.16818 0.84668 0.0
H896 H 0.91246 0.17142 0.92379 0.0
H897 H 0.91825 0.1287 0.71273 0.0
H898 H 0.88289 0.12501 0.63493 0.0
H899 H 0.82009 0.19269 0.40661 0.0
H900 H 0.82546 0.18522 0.54208 0.0
H901 H 0.87378 0.16203 0.46443 0.0
H902 H 0.87097 0.17348 0.33389 0.0
H903 H 0.88126 0.1717 0.61676 0.0
H904 H 0.80679 0.11335 0.42451 0.0
H905 H 0.77282 0.10326 0.32076 0.0
H906 H 0.74347 0.12998 0.50189 0.0
H907 H 0.7775 0.14046 0.60661 0.0
C908 C 0.83616 0.10144 0.89013 0.0
C909 C 0.82629 0.11152 0.94388 0.0
C910 C 0.83413 0.10224 0.80789 0.0
C911 C 0.82365 0.11477 0.77951 0.0
C912 C 0.81029 0.12077 0.83056 0.0
C913 C 0.81119 0.11857 0.91183 0.0
C914 C 0.83001 0.12592 0.70378 0.0
C915 C 0.81033 0.12177 0.65003 0.0
C916 C 0.85579 0.14314 0.68851 0.0
C917 C 0.87742 0.14622 0.7354 0.0
C918 C 0.88609 0.15959 0.8169 0.0
C919 C 0.90602 0.16142 0.8607 0.0
C920 C 0.91757 0.15026 0.8232 0.0
C921 C 0.90928 0.13731 0.74175 0.0
C922 C 0.88932 0.13535 0.69784 0.0
C923 C 0.83311 0.18763 0.42027 0.0
C924 C 0.84423 0.18207 0.35885 0.0
C925 C 0.83592 0.18299 0.49729 0.0
C926 C 0.84846 0.17111 0.51141 0.0
C927 C 0.86325 0.1703 0.45453 0.0
C928 C 0.86156 0.17655 0.3793 0.0
C929 C 0.8419 0.15484 0.57584 0.0
C930 C 0.86142 0.15772 0.62588 0.0
C931 C 0.81595 0.1352 0.58455 0.0
C932 C 0.79457 0.12756 0.52328 0.0
C933 C 0.79299 0.11691 0.44213 0.0
C934 C 0.7738 0.11122 0.38318 0.0
C935 C 0.75599 0.11596 0.40475 0.0
C936 C 0.75728 0.1263 0.48536 0.0
C937 C 0.77648 0.13208 0.5446 0.0
H938 H 0.74119 0.11163 0.35899 0.0
H939 H 0.93296 0.15166 0.85723 0.0
H940 H 0.65192 0.86388 0.53472 0.0
H941 H 0.67242 0.8735 0.41238 0.0
H942 H 0.68573 0.81315 0.42952 0.0
H943 H 0.66222 0.80121 0.5441 0.0
H944 H 0.71897 0.89404 0.38294 0.0
H945 H 0.6892 0.78598 0.26579 0.0
H946 H 0.6535 0.73835 0.26974 0.0
H947 H 0.60148 0.76004 0.28364 0.0
H948 H 0.63686 0.80771 0.27921 0.0
H949 H 0.7331 0.82949 0.96558 0.0
H950 H 0.73881 0.84012 0.11313 0.0
H951 H 0.71427 0.89152 0.10097 0.0
H952 H 0.7106 0.8826 0.9534 0.0
H953 H 0.69363 0.81851 0.15698 0.0
H954 H 0.72183 0.92598 0.29087 0.0
H955 H 0.75471 0.97394 0.2828 0.0
H956 H 0.80716 0.95535 0.22245 0.0
H957 H 0.77447 0.90713 0.22943 0.0
C958 C 0.65863 0.8522 0.51057 0.0
C959 C 0.6569 0.83285 0.55101 0.0
C960 C 0.67075 0.85805 0.44164 0.0
C961 C 0.6811 0.84444 0.41201 0.0
C962 C 0.67783 0.82391 0.45017 0.0
C963 C 0.6647 0.81729 0.51641 0.0
C964 C 0.694 0.85043 0.33874 0.0
C965 C 0.71336 0.87761 0.33301 0.0
C966 C 0.68719 0.8291 0.27429 0.0
C967 C 0.66561 0.80029 0.2726 0.0
C968 C 0.67007 0.78045 0.26887 0.0
C969 C 0.64993 0.75351 0.27152 0.0
C970 C 0.62525 0.74618 0.2771 0.0
C971 C 0.62061 0.76574 0.27948 0.0
C972 C 0.64067 0.7927 0.27692 0.0
C973 C 0.72979 0.8438 -0.00543 0.0
C974 C 0.72011 0.85413 0.94849 0.0
C975 C 0.73333 0.85012 0.0789 0.0
C976 C 0.72637 0.86608 0.11828 0.0
C977 C 0.71977 0.87914 0.07237 0.0
C978 C 0.71706 0.8735 -0.01216 0.0
C979 C 0.71854 0.86217 0.19955 0.0
C980 C 0.69985 0.83516 0.20702 0.0
C981 C 0.72562 0.88381 0.26366 0.0
C982 C 0.74551 0.9128 0.25957 0.0
C983 C 0.74035 0.93207 0.27575 0.0
C984 C 0.75894 0.95931 0.27114 0.0
C985 C 0.78297 0.96768 0.25167 0.0
C986 C 0.78846 0.94879 0.23681 0.0
C987 C 0.76982 0.92144 0.2405 0.0
H988 H 0.79737 0.98882 0.24852 0.0
H989 H 0.6097 0.72534 0.2795 0.0
H990 H 0.90835 0.56723 0.80259 0.0
H991 H 0.90026 0.55249 0.6555 0.0
H992 H 0.82001 0.49228 0.66547 0.0
H993 H 0.82804 0.50588 0.8106 0.0
H994 H 0.83239 0.49003 0.50727 0.0
H995 H 0.84045 0.56899 0.72563 0.0
H996 H 0.86862 0.60887 0.83732 0.0
H997 H 0.93409 0.63324 0.71784 0.0
H998 H 0.90616 0.59406 0.60461 0.0
H999 H 0.81744 0.53099 0.17973 0.0
H1000 H 0.80214 0.52948 0.31067 0.0
H1001 H 0.88099 0.58196 0.43011 0.0
H1002 H 0.89594 0.58335 0.30107 0.0
H1003 H 0.84937 0.58063 0.52965 0.0
H1004 H 0.85086 0.50596 0.33072 0.0
H1005 H 0.82978 0.47352 0.19946 0.0
H1006 H 0.75584 0.44758 0.25923 0.0
H1007 H 0.77659 0.48019 0.39018 0.0
C1008 C 0.88945 0.54942 0.77379 0.0
C1009 C 0.86846 0.53865 0.81605 0.0
C1010 C 0.88477 0.54103 0.68975 0.0
C1011 C 0.85917 0.5232 0.65063 0.0
C1012 C 0.83975 0.50706 0.69489 0.0
C1013 C 0.84437 0.51506 0.77833 0.0
C1014 C 0.85121 0.53008 0.58125 0.0
C1015 C 0.83632 0.50991 0.51176 0.0
C1016 C 0.8548 0.55539 0.58913 0.0
C1017 C 0.87141 0.57836 0.65815 0.0
C1018 C 0.86087 0.58285 0.7236 0.0
C1019 C 0.87676 0.60539 0.78684 0.0
C1020 C 0.90316 0.62338 0.78515 0.0
C1021 C 0.91369 0.61919 0.7195 0.0
C1022 C 0.89784 0.59695 0.65565 0.0
C1023 C 0.83135 0.54316 0.23425 0.0
C1024 C 0.8577 0.55608 0.23256 0.0
C1025 C 0.82261 0.54246 0.30861 0.0
C1026 C 0.84038 0.55447 0.37979 0.0
C1027 C 0.86684 0.572 0.37587 0.0
C1028 C 0.87549 0.57242 0.30233 0.0
C1029 C 0.83372 0.54212 0.45171 0.0
C1030 C 0.84473 0.56043 0.52583 0.0
C1031 C 0.82771 0.51576 0.44633 0.0
C1032 C 0.81519 0.49524 0.37001 0.0
C1033 C 0.83009 0.49309 0.31598 0.0
C1034 C 0.81823 0.47485 0.24151 0.0
C1035 C 0.79148 0.4585 0.22103 0.0
C1036 C 0.77654 0.46028 0.27511 0.0
C1037 C 0.78833 0.47865 0.34935 0.0
H1038 H 0.78233 0.44446 0.16326 0.0
H1039 H 0.91543 0.64068 0.83442 0.0
H1040 H 0.30423 0.91338 0.09149 0.0
H1041 H 0.30119 0.90978 0.2336 0.0
H1042 H 0.22816 0.83054 0.16203 0.0
H1043 H 0.23142 0.83386 0.02153 0.0
H1044 H 0.23888 0.85837 0.32852 0.0
H1045 H 0.27476 0.81289 0.15168 0.0
H1046 H 0.30076 0.81706 0.04408 0.0
H1047 H 0.35705 0.90223 0.14576 0.0
H1048 H 0.33198 0.89818 0.25664 0.0
H1049 H 0.22882 0.77607 0.5643 0.0
H1050 H 0.24099 0.78088 0.4285 0.0
H1051 H 0.30444 0.86504 0.52154 0.0
H1052 H 0.29228 0.86042 0.65449 0.0
H1053 H 0.29965 0.83402 0.3408 0.0
H1054 H 0.24792 0.87001 0.50995 0.0
H1055 H 0.21211 0.85412 0.59011 0.0
H1056 H 0.17494 0.77166 0.46729 0.0
H1057 H 0.20875 0.78719 0.38031 0.0
C1058 C 0.28681 0.89603 0.10689 0.0
C1059 C 0.26811 0.87366 0.04661 0.0
C1060 C 0.28512 0.89402 0.18766 0.0
C1061 C 0.26506 0.86939 0.20647 0.0
C1062 C 0.24394 0.84953 0.1475 0.0
C1063 C 0.24561 0.85154 0.06694 0.0
C1064 C 0.26936 0.8603 0.27632 0.0
C1065 C 0.25244 0.85352 0.33234 0.0
C1066 C 0.28602 0.85245 0.27714 0.0
C1067 C 0.30136 0.85533 0.21145 0.0
C1068 C 0.2927 0.83249 0.151 0.0
C1069 C 0.30727 0.83481 0.08958 0.0
C1070 C 0.33035 0.85995 0.08737 0.0
C1071 C 0.3391 0.88279 0.14735 0.0
C1072 C 0.32482 0.88045 0.20984 0.0
C1073 C 0.24605 0.79515 0.5558 0.0
C1074 C 0.25947 0.81814 0.61863 0.0
C1075 C 0.25328 0.79772 0.479 0.0
C1076 C 0.27284 0.82364 0.46547 0.0
C1077 C 0.28911 0.84495 0.53119 0.0
C1078 C 0.28204 0.84238 0.60752 0.0
C1079 C 0.26905 0.83214 0.39308 0.0
C1080 C 0.28625 0.83914 0.33749 0.0
C1081 C 0.25152 0.83876 0.38908 0.0
C1082 C 0.23128 0.8296 0.44117 0.0
C1083 C 0.23214 0.84851 0.5006 0.0
C1084 C 0.21215 0.83964 0.54659 0.0
C1085 C 0.19166 0.81198 0.53478 0.0
C1086 C 0.19075 0.79311 0.47592 0.0
C1087 C 0.21012 0.80194 0.42767 0.0
H1088 H 0.17628 0.80518 0.57031 0.0
H1089 H 0.34152 0.86167 0.03952 0.0
H1090 H 0.43267 0.1816 0.91347 0.0
H1091 H 0.43511 0.18477 0.77279 0.0
H1092 H 0.37863 0.09702 0.70416 0.0
H1093 H 0.38216 0.09384 0.8464 0.0
H1094 H 0.40935 0.10681 0.61959 0.0
H1095 H 0.37348 0.15494 0.67803 0.0
H1096 H 0.37231 0.18914 0.7682 0.0
H1097 H 0.44562 0.2535 0.71471 0.0
H1098 H 0.44795 0.21979 0.62793 0.0
H1099 H 0.46478 0.14315 0.26001 0.0
H1100 H 0.44002 0.12515 0.36276 0.0
H1101 H 0.46596 0.2065 0.47673 0.0
H1102 H 0.48568 0.22293 0.35849 0.0
H1103 H 0.42651 0.1844 0.50419 0.0
H1104 H 0.46369 0.12471 0.53621 0.0
H1105 H 0.46433 0.08721 0.46527 0.0
H1106 H 0.38672 0.04558 0.34891 0.0
H1107 H 0.38565 0.08265 0.41991 0.0
C1108 C 0.4216 0.16301 0.86808 0.0
C1109 C 0.40901 0.13753 0.88999 0.0
C1110 C 0.42193 0.16481 0.78695 0.0
C1111 C 0.40676 0.14115 0.72598 0.0
C1112 C 0.39106 0.11566 0.74917 0.0
C1113 C 0.39283 0.11379 0.83045 0.0
C1114 C 0.41032 0.14277 0.63972 0.0
C1115 C 0.41342 0.12415 0.59536 0.0
C1116 C 0.41427 0.1643 0.60443 0.0
C1117 C 0.41091 0.18466 0.64656 0.0
C1118 C 0.38932 0.17638 0.68525 0.0
C1119 C 0.38865 0.19569 0.73686 0.0
C1120 C 0.40903 0.22345 0.74798 0.0
C1121 C 0.42992 0.23199 0.70652 0.0
C1122 C 0.43094 0.21276 0.65621 0.0
C1123 C 0.46511 0.15724 0.3072 0.0
C1124 C 0.47576 0.184 0.2987 0.0
C1125 C 0.45104 0.14681 0.36946 0.0
C1126 C 0.4493 0.16356 0.43019 0.0
C1127 C 0.46444 0.19189 0.4286 0.0
C1128 C 0.47671 0.20181 0.36209 0.0
C1129 C 0.43194 0.15264 0.49408 0.0
C1130 C 0.42409 0.16818 0.53096 0.0
C1131 C 0.42389 0.12855 0.52342 0.0
C1132 C 0.42481 0.10657 0.48181 0.0
C1133 C 0.44685 0.10753 0.49544 0.0
C1134 C 0.44725 0.08636 0.45533 0.0
C1135 C 0.42564 0.06411 0.4023 0.0
C1136 C 0.40348 0.06285 0.3897 0.0
C1137 C 0.40295 0.08389 0.42983 0.0
H1138 H 0.42603 0.04781 0.37121 0.0
H1139 H 0.40846 0.23836 0.78788 0.0
loop_
_geom_bond_atom_site_label_1
_geom_bond_atom_site_label_2
_geom_bond_distance
_geom_bond_site_symmetry_2
_ccdc_geom_bond_type
Ho0 C3 2.811 . S
Ho0 O20 2.322 . S
Ho0 O22 2.378 . S
Ho0 O23 2.524 . S
Ho0 O24 2.381 . S
Ho0 O25 2.669 . S
Ho0 O27 2.346 . S
Ho0 O31 2.305 . S
Ho1 C12 2.811 . S
Ho1 O21 2.346 . S
Ho1 O25 2.305 . S
Ho1 O26 2.322 . S
Ho1 O28 2.378 . S
Ho1 O29 2.524 . S
Ho1 O30 2.381 . S
Ho1 O31 2.669 . S
C2 O20 1.259 . S
C2 O21 1.268 . S
C3 Ho0 2.811 . S
C3 C4 1.488 . S
C3 O22 1.215 . S
C3 O23 1.289 . S
C4 C3 1.488 . S
C4 C5 1.348 . S
C4 C9 1.413 . S
C5 C4 1.348 . S
C5 C6 1.442 . S
C5 H32 0.930 . S
C6 C5 1.442 . S
C6 C7 1.381 . S
C6 H33 0.931 . S
C7 C6 1.381 . S
C7 C8 1.321 . S
C8 C7 1.321 . S
C8 C9 1.403 . S
C8 H34 0.934 . S
C9 C4 1.413 . S
C9 C8 1.403 . S
C9 H35 0.930 . S
C10 O24 1.275 . S
C10 O25 1.256 . S
C11 O26 1.259 . S
C11 O27 1.268 . S
C12 Ho1 2.811 . S
C12 C13 1.488 . S
C12 O28 1.215 . S
C12 O29 1.289 . S
C13 C12 1.488 . S
C13 C14 1.348 . S
C13 C18 1.413 . S
C14 C13 1.348 . S
C14 C15 1.442 . S
C14 H36 0.930 . S
C15 C14 1.442 . S
C15 C16 1.381 . S
C15 H37 0.931 . S
C16 C15 1.381 . S
C16 C17 1.321 . S
C17 C16 1.321 . S
C17 C18 1.403 . S
C17 H38 0.934 1_556 S
C18 C13 1.413 . S
C18 C17 1.403 . S
C18 H39 0.930 . S
C19 O30 1.275 . S
C19 O31 1.256 . S
O20 Ho0 2.322 . S
O20 C2 1.259 . S
O21 Ho1 2.346 . S
O21 C2 1.268 . S
O22 Ho0 2.378 . S
O22 C3 1.215 . S
O23 Ho0 2.524 . S
O23 C3 1.289 . S
O24 Ho0 2.381 . S
O24 C10 1.275 . S
O25 Ho0 2.669 . S
O25 Ho1 2.305 . S
O25 C10 1.256 . S
O26 Ho1 2.322 . S
O26 C11 1.259 . S
O27 Ho0 2.346 . S
O27 C11 1.268 . S
O28 Ho1 2.378 . S
O28 C12 1.215 . S
O29 Ho1 2.524 . S
O29 C12 1.289 . S
O30 Ho1 2.381 . S
O30 C19 1.275 . S
O31 Ho0 2.305 . S
O31 Ho1 2.669 . S
O31 C19 1.256 . S
H32 C5 0.930 . S
H33 C6 0.931 . S
H34 C8 0.934 . S
H35 C9 0.930 . S
H36 C14 0.930 . S
H37 C15 0.931 . S
H38 C17 0.934 1_554 S
H39 C18 0.930 . S
Ho40 C43 2.811 . S
Ho40 O60 2.322 . S
Ho40 O62 2.378 . S
Ho40 O63 2.524 . S
Ho40 O64 2.381 1_554 S
Ho40 O65 2.669 1_554 S
Ho40 O67 2.346 . S
Ho40 O71 2.305 . S
Ho41 C52 2.811 1_554 S
Ho41 O61 2.346 . S
Ho41 O65 2.305 1_554 S
Ho41 O66 2.322 . S
Ho41 O68 2.378 . S
Ho41 O69 2.524 1_554 S
Ho41 O70 2.381 . S
Ho41 O71 2.669 . S
C42 O60 1.259 . S
C42 O61 1.268 . S
C43 Ho40 2.811 . S
C43 C44 1.488 . S
C43 O62 1.215 . S
C43 O63 1.289 . S
C44 C43 1.488 . S
C44 C45 1.348 . S
C44 C49 1.413 . S
C45 C44 1.348 . S
C45 C46 1.442 . S
C45 H72 0.930 . S
C46 C45 1.442 . S
C46 C47 1.381 . S
C46 H73 0.931 . S
C47 C46 1.381 . S
C47 C48 1.321 . S
C48 C47 1.321 . S
C48 C49 1.403 . S
C48 H74 0.934 . S
C49 C44 1.413 . S
C49 C48 1.403 . S
C49 H75 0.930 . S
C50 O64 1.275 . S
C50 O65 1.256 . S
C51 O66 1.259 . S
C51 O67 1.268 . S
C52 Ho41 2.811 1_556 S
C52 C53 1.488 . S
C52 O68 1.215 1_556 S
C52 O69 1.289 . S
C53 C52 1.488 . S
C53 C54 1.348 . S
C53 C58 1.413 1_556 S
C54 C53 1.348 . S
C54 C55 1.442 . S
C54 H76 0.930 . S
C55 C54 1.442 . S
C55 C56 1.381 . S
C55 H77 0.931 . S
C56 C55 1.381 . S
C56 C57 1.321 . S
C57 C56 1.321 . S
C57 C58 1.403 1_556 S
C57 H78 0.934 1_556 S
C58 C53 1.413 1_554 S
C58 C57 1.403 1_554 S
C58 H79 0.930 . S
C59 O70 1.275 . S
C59 O71 1.256 . S
O60 Ho40 2.322 . S
O60 C42 1.259 . S
O61 Ho41 2.346 . S
O61 C42 1.268 . S
O62 Ho40 2.378 . S
O62 C43 1.215 . S
O63 Ho40 2.524 . S
O63 C43 1.289 . S
O64 Ho40 2.381 1_556 S
O64 C50 1.275 . S
O65 Ho40 2.669 1_556 S
O65 Ho41 2.305 1_556 S
O65 C50 1.256 . S
O66 Ho41 2.322 . S
O66 C51 1.259 . S
O67 Ho40 2.346 . S
O67 C51 1.268 . S
O68 Ho41 2.378 . S
O68 C52 1.215 1_554 S
O69 Ho41 2.524 1_556 S
O69 C52 1.289 . S
O70 Ho41 2.381 . S
O70 C59 1.275 . S
O71 Ho40 2.305 . S
O71 Ho41 2.669 . S
O71 C59 1.256 . S
H72 C45 0.930 . S
H73 C46 0.931 . S
H74 C48 0.934 . S
H75 C49 0.930 . S
H76 C54 0.930 . S
H77 C55 0.931 . S
H78 C57 0.934 1_554 S
H79 C58 0.930 . S
Ho80 C83 2.811 . S
Ho80 O100 2.322 . S
Ho80 O102 2.378 . S
Ho80 O103 2.524 . S
Ho80 O104 2.381 1_556 S
Ho80 O105 2.669 . S
Ho80 O107 2.346 . S
Ho80 O111 2.305 . S
Ho81 C92 2.811 . S
Ho81 O101 2.346 . S
Ho81 O105 2.305 . S
Ho81 O106 2.322 . S
Ho81 O108 2.378 . S
Ho81 O109 2.524 . S
Ho81 O110 2.381 . S
Ho81 O111 2.669 . S
C82 O100 1.259 . S
C82 O101 1.268 . S
C83 Ho80 2.811 . S
C83 C84 1.488 . S
C83 O102 1.215 . S
C83 O103 1.289 . S
C84 C83 1.488 . S
C84 C85 1.348 . S
C84 C89 1.413 . S
C85 C84 1.348 . S
C85 C86 1.442 . S
C85 H112 0.930 . S
C86 C85 1.442 . S
C86 C87 1.381 . S
C86 H113 0.931 . S
C87 C86 1.381 . S
C87 C88 1.321 . S
C88 C87 1.321 . S
C88 C89 1.403 . S
C88 H114 0.934 . S
C89 C84 1.413 . S
C89 C88 1.403 . S
C89 H115 0.930 . S
C90 O104 1.275 . S
C90 O105 1.256 1_554 S
C91 O106 1.259 . S
C91 O107 1.268 . S
C92 Ho81 2.811 . S
C92 C93 1.488 . S
C92 O108 1.215 . S
C92 O109 1.289 . S
C93 C92 1.488 . S
C93 C94 1.348 1_556 S
C93 C98 1.413 . S
C94 C93 1.348 1_554 S
C94 C95 1.442 . S
C94 H116 0.930 . S
C95 C94 1.442 . S
C95 C96 1.381 1_554 S
C95 H117 0.931 . S
C96 C95 1.381 1_556 S
C96 C97 1.321 . S
C97 C96 1.321 . S
C97 C98 1.403 . S
C97 H118 0.934 . S
C98 C93 1.413 . S
C98 C97 1.403 . S
C98 H119 0.930 . S
C99 O110 1.275 . S
C99 O111 1.256 . S
O100 Ho80 2.322 . S
O100 C82 1.259 . S
O101 Ho81 2.346 . S
O101 C82 1.268 . S
O102 Ho80 2.378 . S
O102 C83 1.215 . S
O103 Ho80 2.524 . S
O103 C83 1.289 . S
O104 Ho80 2.381 1_554 S
O104 C90 1.275 . S
O105 Ho80 2.669 . S
O105 Ho81 2.305 . S
O105 C90 1.256 1_556 S
O106 Ho81 2.322 . S
O106 C91 1.259 . S
O107 Ho80 2.346 . S
O107 C91 1.268 . S
O108 Ho81 2.378 . S
O108 C92 1.215 . S
O109 Ho81 2.524 . S
O109 C92 1.289 . S
O110 Ho81 2.381 . S
O110 C99 1.275 . S
O111 Ho80 2.305 . S
O111 Ho81 2.669 . S
O111 C99 1.256 . S
H112 C85 0.930 . S
H113 C86 0.931 . S
H114 C88 0.934 . S
H115 C89 0.930 . S
H116 C94 0.930 . S
H117 C95 0.931 . S
H118 C97 0.934 . S
H119 C98 0.930 . S
Ho120 C123 2.809 1_556 S
Ho120 O140 2.322 1_556 S
Ho120 O142 2.379 . S
Ho120 O143 2.519 1_556 S
Ho120 O144 2.388 . S
Ho120 O145 2.673 . S
Ho120 O147 2.346 . S
Ho120 O151 2.300 1_556 S
Ho121 C132 2.809 1_554 S
Ho121 O141 2.346 . S
Ho121 O145 2.298 1_554 S
Ho121 O146 2.323 1_554 S
Ho121 O148 2.380 . S
Ho121 O149 2.517 1_554 S
Ho121 O150 2.391 . S
Ho121 O151 2.675 . S
C122 O140 1.259 . S
C122 O141 1.268 . S
C123 Ho120 2.809 1_554 S
C123 C124 1.488 . S
C123 O142 1.215 1_554 S
C123 O143 1.289 . S
C124 C123 1.488 . S
C124 C125 1.348 . S
C124 C129 1.413 . S
C125 C124 1.348 . S
C125 C126 1.442 . S
C125 H152 0.930 . S
C126 C125 1.442 . S
C126 C127 1.381 . S
C126 H153 0.931 . S
C127 C126 1.381 . S
C127 C128 1.321 . S
C128 C127 1.321 . S
C128 C129 1.403 . S
C128 H154 0.934 . S
C129 C124 1.413 . S
C129 C128 1.403 . S
C129 H155 0.930 1_554 S
C130 O144 1.275 . S
C130 O145 1.256 . S
C131 O146 1.259 . S
C131 O147 1.268 . S
C132 Ho121 2.809 1_556 S
C132 C133 1.488 . S
C132 O148 1.215 1_556 S
C132 O149 1.289 . S
C133 C132 1.488 . S
C133 C134 1.348 . S
C133 C138 1.413 . S
C134 C133 1.348 . S
C134 C135 1.442 . S
C134 H156 0.930 . S
C135 C134 1.442 . S
C135 C136 1.381 . S
C135 H157 0.931 . S
C136 C135 1.381 . S
C136 C137 1.321 . S
C137 C136 1.321 . S
C137 C138 1.403 . S
C137 H158 0.934 . S
C138 C133 1.413 . S
C138 C137 1.403 . S
C138 H159 0.930 1_556 S
C139 O150 1.275 . S
C139 O151 1.256 . S
O140 Ho120 2.322 1_554 S
O140 C122 1.259 . S
O141 Ho121 2.346 . S
O141 C122 1.268 . S
O142 Ho120 2.379 . S
O142 C123 1.215 1_556 S
O143 Ho120 2.519 1_554 S
O143 C123 1.289 . S
O144 Ho120 2.388 . S
O144 C130 1.275 . S
O145 Ho120 2.673 . S
O145 Ho121 2.298 1_556 S
O145 C130 1.256 . S
O146 Ho121 2.323 1_556 S
O146 C131 1.259 . S
O147 Ho120 2.346 . S
O147 C131 1.268 . S
O148 Ho121 2.380 . S
O148 C132 1.215 1_554 S
O149 Ho121 2.517 1_556 S
O149 C132 1.289 . S
O150 Ho121 2.391 . S
O150 C139 1.275 . S
O151 Ho120 2.300 1_554 S
O151 Ho121 2.675 . S
O151 C139 1.256 . S
H152 C125 0.930 . S
H153 C126 0.931 . S
H154 C128 0.934 . S
H155 C129 0.930 1_556 S
H156 C134 0.930 . S
H157 C135 0.931 . S
H158 C137 0.934 . S
H159 C138 0.930 1_554 S
Ho160 C163 2.811 . S
Ho160 O180 2.322 . S
Ho160 O182 2.378 . S
Ho160 O183 2.524 . S
Ho160 O184 2.381 . S
Ho160 O185 2.669 . S
Ho160 O187 2.346 . S
Ho160 O191 2.305 . S
Ho161 C172 2.811 . S
Ho161 O181 2.346 . S
Ho161 O185 2.305 . S
Ho161 O186 2.322 . S
Ho161 O188 2.378 . S
Ho161 O189 2.524 . S
Ho161 O190 2.381 1_556 S
Ho161 O191 2.669 . S
C162 O180 1.259 . S
C162 O181 1.268 . S
C163 Ho160 2.811 . S
C163 C164 1.488 . S
C163 O182 1.215 . S
C163 O183 1.289 . S
C164 C163 1.488 . S
C164 C165 1.348 . S
C164 C169 1.413 . S
C165 C164 1.348 . S
C165 C166 1.442 . S
C165 H192 0.930 . S
C166 C165 1.442 . S
C166 C167 1.381 . S
C166 H193 0.931 . S
C167 C166 1.381 . S
C167 C168 1.321 . S
C168 C167 1.321 . S
C168 C169 1.403 . S
C168 H194 0.934 . S
C169 C164 1.413 . S
C169 C168 1.403 . S
C169 H195 0.930 . S
C170 O184 1.275 . S
C170 O185 1.256 . S
C171 O186 1.259 . S
C171 O187 1.268 . S
C172 Ho161 2.811 . S
C172 C173 1.488 . S
C172 O188 1.215 . S
C172 O189 1.289 . S
C173 C172 1.488 . S
C173 C174 1.348 . S
C173 C178 1.413 1_556 S
C174 C173 1.348 . S
C174 C175 1.442 . S
C174 H196 0.930 . S
C175 C174 1.442 . S
C175 C176 1.381 . S
C175 H197 0.931 . S
C176 C175 1.381 . S
C176 C177 1.321 1_556 S
C177 C176 1.321 1_554 S
C177 C178 1.403 . S
C177 H198 0.934 . S
C178 C173 1.413 1_554 S
C178 C177 1.403 . S
C178 H199 0.930 . S
C179 O190 1.275 . S
C179 O191 1.256 1_554 S
O180 Ho160 2.322 . S
O180 C162 1.259 . S
O181 Ho161 2.346 . S
O181 C162 1.268 . S
O182 Ho160 2.378 . S
O182 C163 1.215 . S
O183 Ho160 2.524 . S
O183 C163 1.289 . S
O184 Ho160 2.381 . S
O184 C170 1.275 . S
O185 Ho160 2.669 . S
O185 Ho161 2.305 . S
O185 C170 1.256 . S
O186 Ho161 2.322 . S
O186 C171 1.259 . S
O187 Ho160 2.346 . S
O187 C171 1.268 . S
O188 Ho161 2.378 . S
O188 C172 1.215 . S
O189 Ho161 2.524 . S
O189 C172 1.289 . S
O190 Ho161 2.381 1_554 S
O190 C179 1.275 . S
O191 Ho160 2.305 . S
O191 Ho161 2.669 . S
O191 C179 1.256 1_556 S
H192 C165 0.930 . S
H193 C166 0.931 . S
H194 C168 0.934 . S
H195 C169 0.930 . S
H196 C174 0.930 . S
H197 C175 0.931 . S
H198 C177 0.934 . S
H199 C178 0.930 . S
Ho200 C203 2.811 . S
Ho200 O220 2.322 . S
Ho200 O222 2.378 1_554 S
Ho200 O223 2.524 . S
Ho200 O224 2.381 1_554 S
Ho200 O225 2.669 1_554 S
Ho200 O227 2.346 1_554 S
Ho200 O231 2.305 . S
Ho201 C212 2.811 1_554 S
Ho201 O221 2.346 . S
Ho201 O225 2.305 1_554 S
Ho201 O226 2.322 . S
Ho201 O228 2.378 . S
Ho201 O229 2.524 1_554 S
Ho201 O230 2.381 . S
Ho201 O231 2.669 . S
C202 O220 1.259 . S
C202 O221 1.268 . S
C203 Ho200 2.811 . S
C203 C204 1.488 . S
C203 O222 1.215 1_554 S
C203 O223 1.289 . S
C204 C203 1.488 . S
C204 C205 1.348 . S
C204 C209 1.413 1_554 S
C205 C204 1.348 . S
C205 C206 1.442 . S
C205 H232 0.930 . S
C206 C205 1.442 . S
C206 C207 1.392 . S
C206 H233 0.931 . S
C207 C206 1.392 . S
C207 C208 1.314 1_545 S
C208 C207 1.314 1_565 S
C208 C209 1.403 1_564 S
C208 H234 0.934 1_554 S
C209 C204 1.413 1_556 S
C209 C208 1.403 1_546 S
C209 H235 0.930 . S
C210 O224 1.275 . S
C210 O225 1.256 . S
C211 O226 1.259 1_556 S
C211 O227 1.268 . S
C212 Ho201 2.811 1_556 S
C212 C213 1.488 . S
C212 O228 1.215 1_556 S
C212 O229 1.289 . S
C213 C212 1.488 . S
C213 C214 1.348 . S
C213 C218 1.413 1_556 S
C214 C213 1.348 . S
C214 C215 1.442 . S
C214 H236 0.930 . S
C215 C214 1.442 . S
C215 C216 1.381 . S
C215 H237 0.931 . S
C216 C215 1.381 . S
C216 C217 1.321 1_556 S
C217 C216 1.321 1_554 S
C217 C218 1.403 . S
C217 H238 0.934 . S
C218 C213 1.413 1_554 S
C218 C217 1.403 . S
C218 H239 0.930 . S
C219 O230 1.275 . S
C219 O231 1.256 . S
O220 Ho200 2.322 . S
O220 C202 1.259 . S
O221 Ho201 2.346 . S
O221 C202 1.268 . S
O222 Ho200 2.378 1_556 S
O222 C203 1.215 1_556 S
O223 Ho200 2.524 . S
O223 C203 1.289 . S
O224 Ho200 2.381 1_556 S
O224 C210 1.275 . S
O225 Ho200 2.669 1_556 S
O225 Ho201 2.305 1_556 S
O225 C210 1.256 . S
O226 Ho201 2.322 . S
O226 C211 1.259 1_554 S
O227 Ho200 2.346 1_556 S
O227 C211 1.268 . S
O228 Ho201 2.378 . S
O228 C212 1.215 1_554 S
O229 Ho201 2.524 1_556 S
O229 C212 1.289 . S
O230 Ho201 2.381 . S
O230 C219 1.275 . S
O231 Ho200 2.305 . S
O231 Ho201 2.669 . S
O231 C219 1.256 . S
H232 C205 0.930 . S
H233 C206 0.931 . S
H234 C208 0.934 1_556 S
H235 C209 0.930 . S
H236 C214 0.930 . S
H237 C215 0.931 . S
H238 C217 0.934 . S
H239 C218 0.930 . S
H240 C258 0.951 . S
H241 C260 0.951 . S
H242 C262 0.950 . S
H243 C263 0.950 . S
H244 C265 0.950 . S
H245 C268 0.950 . S
H246 C269 0.950 . S
H247 C271 0.950 . S
H248 C272 0.950 . S
H249 C273 0.951 . S
H250 C275 0.951 . S
H251 C277 0.950 . S
H252 C278 0.950 . S
H253 C280 0.950 . S
H254 C283 0.950 . S
H255 C284 0.950 . S
H256 C286 0.950 . S
H257 C287 0.950 . S
C258 H240 0.951 . S
C258 C259 1.366 . S
C258 C260 1.388 . S
C259 C258 1.366 . S
C259 C263 1.385 . S
C260 H241 0.951 . S
C260 C258 1.388 . S
C260 C261 1.366 . S
C261 C260 1.366 . S
C261 C262 1.414 . S
C261 C264 1.499 . S
C262 H242 0.950 . S
C262 C261 1.414 . S
C262 C263 1.374 . S
C263 H243 0.950 . S
C263 C259 1.385 . S
C263 C262 1.374 . S
C264 C261 1.499 . S
C264 C265 1.373 . S
C264 C266 1.389 . S
C265 H244 0.950 . S
C265 C264 1.373 . S
C265 C281 1.377 . S
C266 C264 1.389 . S
C266 C267 1.524 . S
C266 C280 1.377 . S
C267 C266 1.524 . S
C267 C268 1.397 . S
C267 C272 1.363 . S
C268 H245 0.950 . S
C268 C267 1.397 . S
C268 C269 1.334 . S
C269 H246 0.950 . S
C269 C268 1.334 . S
C269 C270 1.287 . S
C270 C269 1.287 . S
C270 C271 1.524 . S
C270 H289 0.913 . S
C271 H247 0.950 . S
C271 C270 1.524 . S
C271 C272 1.415 . S
C272 H248 0.950 . S
C272 C267 1.363 . S
C272 C271 1.415 . S
C273 H249 0.951 . S
C273 C274 1.366 . S
C273 C275 1.388 . S
C274 C273 1.366 . S
C274 C278 1.385 . S
C275 H250 0.951 . S
C275 C273 1.388 . S
C275 C276 1.366 . S
C276 C275 1.366 . S
C276 C277 1.414 . S
C276 C279 1.499 . S
C277 H251 0.950 . S
C277 C276 1.414 . S
C277 C278 1.374 . S
C278 H252 0.950 . S
C278 C274 1.385 . S
C278 C277 1.374 . S
C279 C276 1.499 . S
C279 C280 1.373 . S
C279 C281 1.389 . S
C280 H253 0.950 . S
C280 C266 1.377 . S
C280 C279 1.373 . S
C281 C265 1.377 . S
C281 C279 1.389 . S
C281 C282 1.524 . S
C282 C281 1.524 . S
C282 C283 1.397 . S
C282 C287 1.363 . S
C283 H254 0.950 . S
C283 C282 1.397 . S
C283 C284 1.334 . S
C284 H255 0.950 . S
C284 C283 1.334 . S
C284 C285 1.287 . S
C285 C284 1.287 . S
C285 C286 1.524 . S
C285 H288 0.999 . S
C286 H256 0.950 . S
C286 C285 1.524 . S
C286 C287 1.415 . S
C287 H257 0.950 . S
C287 C282 1.363 . S
C287 C286 1.415 . S
H288 C285 0.999 . S
H289 C270 0.913 . S
H290 C308 0.951 . S
H291 C310 0.951 . S
H292 C312 0.950 . S
H293 C313 0.950 . S
H294 C315 0.950 . S
H295 C318 0.950 . S
H296 C319 0.950 . S
H297 C321 0.950 . S
H298 C322 0.950 . S
H299 C323 0.951 1_655 S
H300 C325 0.951 . S
H301 C327 0.950 . S
H302 C328 0.950 . S
H303 C330 0.950 . S
H304 C333 0.950 . S
H305 C334 0.950 . S
H306 C336 0.950 . S
H307 C337 0.950 . S
C308 H290 0.951 . S
C308 C309 1.366 . S
C308 C310 1.388 . S
C309 C308 1.366 . S
C309 C313 1.385 . S
C310 H291 0.951 . S
C310 C308 1.388 . S
C310 C311 1.366 . S
C311 C310 1.366 . S
C311 C312 1.414 . S
C311 C314 1.499 . S
C312 H292 0.950 . S
C312 C311 1.414 . S
C312 C313 1.374 . S
C313 H293 0.950 . S
C313 C309 1.385 . S
C313 C312 1.374 . S
C314 C311 1.499 . S
C314 C315 1.373 . S
C314 C316 1.389 . S
C315 H294 0.950 . S
C315 C314 1.373 . S
C315 C331 1.377 . S
C316 C314 1.389 . S
C316 C317 1.524 . S
C316 C330 1.377 . S
C317 C316 1.524 . S
C317 C318 1.397 . S
C317 C322 1.363 . S
C318 H295 0.950 . S
C318 C317 1.397 . S
C318 C319 1.334 . S
C319 H296 0.950 . S
C319 C318 1.334 . S
C319 C320 1.287 . S
C320 C319 1.287 . S
C320 C321 1.524 . S
C320 H339 0.913 . S
C321 H297 0.950 . S
C321 C320 1.524 . S
C321 C322 1.415 . S
C322 H298 0.950 . S
C322 C317 1.363 . S
C322 C321 1.415 . S
C323 H299 0.951 1_455 S
C323 C324 1.366 . S
C323 C325 1.388 . S
C324 C323 1.366 . S
C324 C328 1.385 . S
C325 H300 0.951 . S
C325 C323 1.388 . S
C325 C326 1.366 . S
C326 C325 1.366 . S
C326 C327 1.414 . S
C326 C329 1.499 . S
C327 H301 0.950 . S
C327 C326 1.414 . S
C327 C328 1.374 . S
C328 H302 0.950 . S
C328 C324 1.385 . S
C328 C327 1.374 . S
C329 C326 1.499 . S
C329 C330 1.373 . S
C329 C331 1.389 . S
C330 H303 0.950 . S
C330 C316 1.377 . S
C330 C329 1.373 . S
C331 C315 1.377 . S
C331 C329 1.389 . S
C331 C332 1.524 . S
C332 C331 1.524 . S
C332 C333 1.397 . S
C332 C337 1.363 . S
C333 H304 0.950 . S
C333 C332 1.397 . S
C333 C334 1.334 . S
C334 H305 0.950 . S
C334 C333 1.334 . S
C334 C335 1.287 . S
C335 C334 1.287 . S
C335 C336 1.524 . S
C335 H338 0.999 1_455 S
C336 H306 0.950 . S
C336 C335 1.524 . S
C336 C337 1.415 . S
C337 H307 0.950 . S
C337 C332 1.363 . S
C337 C336 1.415 . S
H338 C335 0.999 1_655 S
H339 C320 0.913 . S
H340 C358 0.951 . S
H341 C360 0.959 . S
H342 C362 0.950 . S
H343 C363 0.950 . S
H344 C365 0.950 . S
H345 C368 0.950 . S
H346 C369 0.950 . S
H347 C371 0.950 . S
H348 C372 0.950 1_565 S
H349 C373 0.951 . S
H350 C375 0.951 . S
H351 C377 0.950 . S
H352 C378 0.950 . S
H353 C380 0.950 . S
H354 C383 0.950 . S
H355 C384 0.950 . S
H356 C386 0.950 . S
H357 C387 0.950 . S
C358 H340 0.951 . S
C358 C359 1.366 . S
C358 C360 1.388 . S
C359 C358 1.366 . S
C359 C363 1.385 . S
C360 H341 0.959 . S
C360 C358 1.388 . S
C360 C361 1.366 . S
C361 C360 1.366 . S
C361 C362 1.414 . S
C361 C364 1.499 . S
C362 H342 0.950 . S
C362 C361 1.414 . S
C362 C363 1.374 . S
C363 H343 0.950 . S
C363 C359 1.385 . S
C363 C362 1.374 . S
C364 C361 1.499 . S
C364 C365 1.373 1_545 S
C364 C366 1.389 . S
C365 H344 0.950 . S
C365 C364 1.373 1_565 S
C365 C381 1.377 . S
C366 C364 1.389 . S
C366 C367 1.524 . S
C366 C380 1.377 1_545 S
C367 C366 1.524 . S
C367 C368 1.397 . S
C367 C372 1.363 . S
C368 H345 0.950 . S
C368 C367 1.397 . S
C368 C369 1.334 . S
C369 H346 0.950 . S
C369 C368 1.334 . S
C369 C370 1.287 . S
C370 C369 1.287 . S
C370 C371 1.524 . S
C370 H389 0.913 . S
C371 H347 0.950 . S
C371 C370 1.524 . S
C371 C372 1.415 . S
C372 H348 0.950 1_545 S
C372 C367 1.363 . S
C372 C371 1.415 . S
C373 H349 0.951 . S
C373 C374 1.366 . S
C373 C375 1.388 . S
C374 C373 1.366 . S
C374 C378 1.385 . S
C375 H350 0.951 . S
C375 C373 1.388 . S
C375 C376 1.366 . S
C376 C375 1.366 . S
C376 C377 1.414 . S
C376 C379 1.499 . S
C377 H351 0.950 . S
C377 C376 1.414 . S
C377 C378 1.374 . S
C378 H352 0.950 . S
C378 C374 1.385 . S
C378 C377 1.374 . S
C379 C376 1.499 . S
C379 C380 1.373 . S
C379 C381 1.389 . S
C380 H353 0.950 . S
C380 C366 1.377 1_565 S
C380 C379 1.373 . S
C381 C365 1.377 . S
C381 C379 1.389 . S
C381 C382 1.524 . S
C382 C381 1.524 . S
C382 C383 1.397 . S
C382 C387 1.363 . S
C383 H354 0.950 . S
C383 C382 1.397 . S
C383 C384 1.334 . S
C384 H355 0.950 . S
C384 C383 1.334 . S
C384 C385 1.287 . S
C385 C384 1.287 . S
C385 C386 1.524 . S
C385 H388 0.999 . S
C386 H356 0.950 . S
C386 C385 1.524 . S
C386 C387 1.415 . S
C387 H357 0.950 . S
C387 C382 1.363 . S
C387 C386 1.415 . S
H388 C385 0.999 . S
H389 C370 0.913 . S
H390 C408 0.951 . S
H391 C410 0.951 . S
H392 C412 0.950 . S
H393 C413 0.950 . S
H394 C415 0.950 . S
H395 C418 0.950 . S
H396 C419 0.950 . S
H397 C421 0.950 . S
H398 C422 0.950 . S
H399 C423 0.951 . S
H400 C425 0.951 . S
H401 C427 0.950 . S
H402 C428 0.950 . S
H403 C430 0.950 . S
H404 C433 0.950 . S
H405 C434 0.950 . S
H406 C436 0.950 . S
H407 C437 0.950 . S
C408 H390 0.951 . S
C408 C409 1.366 . S
C408 C410 1.388 . S
C409 C408 1.366 . S
C409 C413 1.385 . S
C410 H391 0.951 . S
C410 C408 1.388 . S
C410 C411 1.366 . S
C411 C410 1.366 . S
C411 C412 1.414 . S
C411 C414 1.499 . S
C412 H392 0.950 . S
C412 C411 1.414 . S
C412 C413 1.374 . S
C413 H393 0.950 . S
C413 C409 1.385 . S
C413 C412 1.374 . S
C414 C411 1.499 . S
C414 C415 1.373 . S
C414 C416 1.389 . S
C415 H394 0.950 . S
C415 C414 1.373 . S
C415 C431 1.377 . S
C416 C414 1.389 . S
C416 C417 1.524 . S
C416 C430 1.377 . S
C417 C416 1.524 . S
C417 C418 1.397 . S
C417 C422 1.363 . S
C418 H395 0.950 . S
C418 C417 1.397 . S
C418 C419 1.334 . S
C419 H396 0.950 . S
C419 C418 1.334 . S
C419 C420 1.287 . S
C420 C419 1.287 . S
C420 C421 1.524 . S
C420 H439 0.913 . S
C421 H397 0.950 . S
C421 C420 1.524 . S
C421 C422 1.415 . S
C422 H398 0.950 . S
C422 C417 1.363 . S
C422 C421 1.415 . S
C423 H399 0.951 . S
C423 C424 1.366 . S
C423 C425 1.388 . S
C424 C423 1.366 . S
C424 C428 1.385 . S
C425 H400 0.951 . S
C425 C423 1.388 . S
C425 C426 1.366 . S
C426 C425 1.366 . S
C426 C427 1.414 . S
C426 C429 1.499 . S
C427 H401 0.950 . S
C427 C426 1.414 . S
C427 C428 1.374 . S
C428 H402 0.950 . S
C428 C424 1.385 . S
C428 C427 1.374 . S
C429 C426 1.499 . S
C429 C430 1.373 . S
C429 C431 1.389 . S
C430 H403 0.950 . S
C430 C416 1.377 . S
C430 C429 1.373 . S
C431 C415 1.377 . S
C431 C429 1.389 . S
C431 C432 1.524 . S
C432 C431 1.524 . S
C432 C433 1.397 . S
C432 C437 1.363 . S
C433 H404 0.950 . S
C433 C432 1.397 . S
C433 C434 1.334 . S
C434 H405 0.950 . S
C434 C433 1.334 . S
C434 C435 1.287 . S
C435 C434 1.287 . S
C435 C436 1.524 . S
C435 H438 0.999 . S
C436 H406 0.950 . S
C436 C435 1.524 . S
C436 C437 1.415 . S
C437 H407 0.950 . S
C437 C432 1.363 . S
C437 C436 1.415 . S
H438 C435 0.999 . S
H439 C420 0.913 . S
H440 C458 0.951 . S
H441 C460 0.951 . S
H442 C462 0.950 . S
H443 C463 0.950 . S
H444 C465 0.950 . S
H445 C468 0.950 . S
H446 C469 0.950 . S
H447 C471 0.950 . S
H448 C472 0.950 . S
H449 C473 0.951 . S
H450 C475 0.951 . S
H451 C477 0.950 . S
H452 C478 0.950 . S
H453 C480 0.950 . S
H454 C483 0.950 . S
H455 C484 0.950 . S
H456 C486 0.950 . S
H457 C487 0.950 . S
C458 H440 0.951 . S
C458 C459 1.366 . S
C458 C460 1.388 . S
C459 C458 1.366 . S
C459 C463 1.385 . S
C460 H441 0.951 . S
C460 C458 1.388 . S
C460 C461 1.366 . S
C461 C460 1.366 . S
C461 C462 1.414 . S
C461 C464 1.499 . S
C462 H442 0.950 . S
C462 C461 1.414 . S
C462 C463 1.374 . S
C463 H443 0.950 . S
C463 C459 1.385 . S
C463 C462 1.374 . S
C464 C461 1.499 . S
C464 C465 1.373 1_455 S
C464 C466 1.389 . S
C465 H444 0.950 . S
C465 C464 1.373 1_655 S
C465 C481 1.377 . S
C466 C464 1.389 . S
C466 C467 1.524 . S
C466 C480 1.377 1_455 S
C467 C466 1.524 . S
C467 C468 1.397 . S
C467 C472 1.363 . S
C468 H445 0.950 . S
C468 C467 1.397 . S
C468 C469 1.334 . S
C469 H446 0.950 . S
C469 C468 1.334 . S
C469 C470 1.287 . S
C470 C469 1.287 . S
C470 C471 1.524 . S
C470 H489 0.913 . S
C471 H447 0.950 . S
C471 C470 1.524 . S
C471 C472 1.415 . S
C472 H448 0.950 . S
C472 C467 1.363 . S
C472 C471 1.415 . S
C473 H449 0.951 . S
C473 C474 1.366 . S
C473 C475 1.388 . S
C474 C473 1.366 . S
C474 C478 1.385 . S
C475 H450 0.951 . S
C475 C473 1.388 . S
C475 C476 1.366 . S
C476 C475 1.366 . S
C476 C477 1.414 . S
C476 C479 1.499 . S
C477 H451 0.950 . S
C477 C476 1.414 . S
C477 C478 1.374 . S
C478 H452 0.950 . S
C478 C474 1.385 . S
C478 C477 1.374 . S
C479 C476 1.499 . S
C479 C480 1.373 . S
C479 C481 1.389 . S
C480 H453 0.950 . S
C480 C466 1.377 1_655 S
C480 C479 1.373 . S
C481 C465 1.377 . S
C481 C479 1.389 . S
C481 C482 1.524 . S
C482 C481 1.524 . S
C482 C483 1.397 . S
C482 C487 1.363 . S
C483 H454 0.950 . S
C483 C482 1.397 . S
C483 C484 1.334 . S
C484 H455 0.950 . S
C484 C483 1.334 . S
C484 C485 1.287 . S
C485 C484 1.287 . S
C485 C486 1.524 . S
C485 H488 0.999 . S
C486 H456 0.950 . S
C486 C485 1.524 . S
C486 C487 1.415 . S
C487 H457 0.950 . S
C487 C482 1.363 . S
C487 C486 1.415 . S
H488 C485 0.999 . S
H489 C470 0.913 . S
H490 C508 0.951 . S
H491 C510 0.951 . S
H492 C512 0.950 . S
H493 C513 0.950 . S
H494 C515 0.950 . S
H495 C518 0.950 . S
H496 C519 0.950 . S
H497 C521 0.950 . S
H498 C522 0.950 . S
H499 C523 0.951 1_545 S
H500 C525 0.951 . S
H501 C527 0.950 . S
H502 C528 0.950 . S
H503 C530 0.950 . S
H504 C533 0.950 1_565 S
H505 C534 0.950 . S
H506 C536 0.950 . S
H507 C537 0.950 . S
C508 H490 0.951 . S
C508 C509 1.366 . S
C508 C510 1.388 . S
C509 C508 1.366 . S
C509 C513 1.385 . S
C510 H491 0.951 . S
C510 C508 1.388 . S
C510 C511 1.366 . S
C511 C510 1.366 . S
C511 C512 1.414 . S
C511 C514 1.499 . S
C512 H492 0.950 . S
C512 C511 1.414 . S
C512 C513 1.374 . S
C513 H493 0.950 . S
C513 C509 1.385 . S
C513 C512 1.374 . S
C514 C511 1.499 . S
C514 C515 1.373 . S
C514 C516 1.389 . S
C515 H494 0.950 . S
C515 C514 1.373 . S
C515 C531 1.377 . S
C516 C514 1.389 . S
C516 C517 1.524 . S
C516 C530 1.377 . S
C517 C516 1.524 . S
C517 C518 1.397 . S
C517 C522 1.363 . S
C518 H495 0.950 . S
C518 C517 1.397 . S
C518 C519 1.334 . S
C519 H496 0.950 . S
C519 C518 1.334 . S
C519 C520 1.287 . S
C520 C519 1.287 . S
C520 C521 1.524 . S
C520 H539 0.913 . S
C521 H497 0.950 . S
C521 C520 1.524 . S
C521 C522 1.415 . S
C522 H498 0.950 . S
C522 C517 1.363 . S
C522 C521 1.415 . S
C523 H499 0.951 1_565 S
C523 C524 1.366 . S
C523 C525 1.388 . S
C524 C523 1.366 . S
C524 C528 1.385 . S
C525 H500 0.951 . S
C525 C523 1.388 . S
C525 C526 1.366 . S
C526 C525 1.366 . S
C526 C527 1.414 . S
C526 C529 1.499 . S
C527 H501 0.950 . S
C527 C526 1.414 . S
C527 C528 1.374 . S
C528 H502 0.950 . S
C528 C524 1.385 . S
C528 C527 1.374 . S
C529 C526 1.499 . S
C529 C530 1.373 . S
C529 C531 1.389 . S
C530 H503 0.950 . S
C530 C516 1.377 . S
C530 C529 1.373 . S
C531 C515 1.377 . S
C531 C529 1.389 . S
C531 C532 1.524 1_565 S
C532 C531 1.524 1_545 S
C532 C533 1.397 . S
C532 C537 1.363 . S
C533 H504 0.950 1_545 S
C533 C532 1.397 . S
C533 C534 1.334 . S
C534 H505 0.950 . S
C534 C533 1.334 . S
C534 C535 1.287 . S
C535 C534 1.287 . S
C535 C536 1.524 . S
C535 H538 0.999 . S
C536 H506 0.950 . S
C536 C535 1.524 . S
C536 C537 1.415 . S
C537 H507 0.950 . S
C537 C532 1.363 . S
C537 C536 1.415 . S
H538 C535 0.999 . S
H539 C520 0.913 . S
H540 C558 0.951 . S
H541 C560 0.951 . S
H542 C562 0.950 . S
H543 C563 0.950 . S
H544 C565 0.950 . S
H545 C568 0.950 . S
H546 C569 0.950 . S
H547 C571 0.950 . S
H548 C572 0.950 . S
H549 C573 0.951 . S
H550 C575 0.951 . S
H551 C577 0.950 . S
H552 C578 0.950 . S
H553 C580 0.950 1_554 S
H554 C583 0.950 . S
H555 C584 0.950 . S
H556 C586 0.950 . S
H557 C587 0.950 . S
C558 H540 0.951 . S
C558 C559 1.366 . S
C558 C560 1.388 . S
C559 C558 1.366 . S
C559 C563 1.385 . S
C560 H541 0.951 . S
C560 C558 1.388 . S
C560 C561 1.366 . S
C561 C560 1.366 . S
C561 C562 1.414 . S
C561 C564 1.499 . S
C562 H542 0.950 . S
C562 C561 1.414 . S
C562 C563 1.374 . S
C563 H543 0.950 . S
C563 C559 1.385 . S
C563 C562 1.374 . S
C564 C561 1.499 . S
C564 C565 1.373 . S
C564 C566 1.389 . S
C565 H544 0.950 . S
C565 C564 1.373 . S
C565 C581 1.377 . S
C566 C564 1.389 . S
C566 C567 1.524 1_556 S
C566 C580 1.377 . S
C567 C566 1.524 1_554 S
C567 C568 1.397 . S
C567 C572 1.363 . S
C568 H545 0.950 . S
C568 C567 1.397 . S
C568 C569 1.334 . S
C569 H546 0.950 . S
C569 C568 1.334 . S
C569 C570 1.287 . S
C570 C569 1.287 . S
C570 C571 1.524 . S
C570 H589 0.913 . S
C571 H547 0.950 . S
C571 C570 1.524 . S
C571 C572 1.415 . S
C572 H548 0.950 . S
C572 C567 1.363 . S
C572 C571 1.415 . S
C573 H549 0.951 . S
C573 C574 1.366 . S
C573 C575 1.388 . S
C574 C573 1.366 . S
C574 C578 1.385 . S
C575 H550 0.951 . S
C575 C573 1.388 . S
C575 C576 1.366 . S
C576 C575 1.366 . S
C576 C577 1.414 . S
C576 C579 1.499 . S
C577 H551 0.950 . S
C577 C576 1.414 . S
C577 C578 1.374 . S
C578 H552 0.950 . S
C578 C574 1.385 . S
C578 C577 1.374 . S
C579 C576 1.499 . S
C579 C580 1.373 . S
C579 C581 1.389 . S
C580 H553 0.950 1_556 S
C580 C566 1.377 . S
C580 C579 1.373 . S
C581 C565 1.377 . S
C581 C579 1.389 . S
C581 C582 1.524 . S
C582 C581 1.524 . S
C582 C583 1.397 . S
C582 C587 1.363 . S
C583 H554 0.950 . S
C583 C582 1.397 . S
C583 C584 1.334 . S
C584 H555 0.950 . S
C584 C583 1.334 . S
C584 C585 1.287 . S
C585 C584 1.287 . S
C585 C586 1.524 . S
C585 H588 0.999 . S
C586 H556 0.950 . S
C586 C585 1.524 . S
C586 C587 1.415 . S
C587 H557 0.950 . S
C587 C582 1.363 . S
C587 C586 1.415 . S
H588 C585 0.999 . S
H589 C570 0.913 . S
H590 C608 0.951 . S
H591 C610 0.951 . S
H592 C612 0.950 . S
H593 C613 0.950 . S
H594 C615 0.950 1_554 S
H595 C618 0.950 . S
H596 C619 0.950 . S
H597 C621 0.950 . S
H598 C622 0.950 . S
H599 C623 0.951 . S
H600 C625 0.951 . S
H601 C627 0.950 . S
H602 C628 0.950 . S
H603 C630 0.950 . S
H604 C633 0.950 . S
H605 C634 0.950 . S
H606 C636 0.950 . S
H607 C637 0.950 1_556 S
C608 H590 0.951 . S
C608 C609 1.366 . S
C608 C610 1.388 . S
C609 C608 1.366 . S
C609 C613 1.385 . S
C610 H591 0.951 . S
C610 C608 1.388 . S
C610 C611 1.366 . S
C611 C610 1.366 . S
C611 C612 1.414 . S
C611 C614 1.499 . S
C612 H592 0.950 . S
C612 C611 1.414 . S
C612 C613 1.374 . S
C613 H593 0.950 . S
C613 C609 1.385 . S
C613 C612 1.374 . S
C614 C611 1.499 . S
C614 C615 1.373 . S
C614 C616 1.389 . S
C615 H594 0.950 1_556 S
C615 C614 1.373 . S
C615 C631 1.377 . S
C616 C614 1.389 . S
C616 C617 1.524 . S
C616 C630 1.377 . S
C617 C616 1.524 . S
C617 C618 1.397 . S
C617 C622 1.363 . S
C618 H595 0.950 . S
C618 C617 1.397 . S
C618 C619 1.334 . S
C619 H596 0.950 . S
C619 C618 1.334 . S
C619 C620 1.287 . S
C620 C619 1.287 . S
C620 C621 1.524 . S
C620 H639 0.913 . S
C621 H597 0.950 . S
C621 C620 1.524 . S
C621 C622 1.415 . S
C622 H598 0.950 . S
C622 C617 1.363 . S
C622 C621 1.415 . S
C623 H599 0.951 . S
C623 C624 1.366 . S
C623 C625 1.388 . S
C624 C623 1.366 . S
C624 C628 1.385 . S
C625 H600 0.951 . S
C625 C623 1.388 . S
C625 C626 1.366 . S
C626 C625 1.366 . S
C626 C627 1.414 . S
C626 C629 1.499 . S
C627 H601 0.950 . S
C627 C626 1.414 . S
C627 C628 1.374 . S
C628 H602 0.950 . S
C628 C624 1.385 . S
C628 C627 1.374 . S
C629 C626 1.499 . S
C629 C630 1.373 . S
C629 C631 1.389 . S
C630 H603 0.950 . S
C630 C616 1.377 . S
C630 C629 1.373 . S
C631 C615 1.377 . S
C631 C629 1.389 . S
C631 C632 1.524 1_556 S
C632 C631 1.524 1_554 S
C632 C633 1.397 . S
C632 C637 1.363 . S
C633 H604 0.950 . S
C633 C632 1.397 . S
C633 C634 1.334 . S
C634 H605 0.950 . S
C634 C633 1.334 . S
C634 C635 1.287 . S
C635 C634 1.287 . S
C635 C636 1.524 . S
C635 H638 0.999 . S
C636 H606 0.950 . S
C636 C635 1.524 . S
C636 C637 1.415 . S
C637 H607 0.950 1_554 S
C637 C632 1.363 . S
C637 C636 1.415 . S
H638 C635 0.999 . S
H639 C620 0.913 . S
H640 C658 0.951 . S
H641 C660 0.951 . S
H642 C662 0.950 . S
H643 C663 0.950 . S
H644 C665 0.950 . S
H645 C668 0.950 1_554 S
H646 C669 0.950 . S
H647 C671 0.950 . S
H648 C672 0.950 . S
H649 C673 0.951 . S
H650 C675 0.951 . S
H651 C677 0.950 . S
H652 C678 0.950 . S
H653 C680 0.950 . S
H654 C683 0.950 . S
H655 C684 0.950 . S
H656 C686 0.950 . S
H657 C687 0.950 . S
C658 H640 0.951 . S
C658 C659 1.366 . S
C658 C660 1.388 . S
C659 C658 1.366 . S
C659 C663 1.385 . S
C660 H641 0.951 . S
C660 C658 1.388 . S
C660 C661 1.366 . S
C661 C660 1.366 . S
C661 C662 1.414 . S
C661 C664 1.499 . S
C662 H642 0.950 . S
C662 C661 1.414 . S
C662 C663 1.374 . S
C663 H643 0.950 . S
C663 C659 1.385 . S
C663 C662 1.374 . S
C664 C661 1.499 . S
C664 C665 1.373 . S
C664 C666 1.389 . S
C665 H644 0.950 . S
C665 C664 1.373 . S
C665 C681 1.377 . S
C666 C664 1.389 . S
C666 C667 1.524 . S
C666 C680 1.377 . S
C667 C666 1.524 . S
C667 C668 1.397 . S
C667 C672 1.363 . S
C668 H645 0.950 1_556 S
C668 C667 1.397 . S
C668 C669 1.334 1_556 S
C669 H646 0.950 . S
C669 C668 1.334 1_554 S
C669 C670 1.287 1_554 S
C670 C669 1.287 1_556 S
C670 C671 1.524 . S
C670 H689 0.913 . S
C671 H647 0.950 . S
C671 C670 1.524 . S
C671 C672 1.415 . S
C672 H648 0.950 . S
C672 C667 1.363 . S
C672 C671 1.415 . S
C673 H649 0.951 . S
C673 C674 1.366 . S
C673 C675 1.388 . S
C674 C673 1.366 . S
C674 C678 1.385 . S
C675 H650 0.951 . S
C675 C673 1.388 . S
C675 C676 1.366 . S
C676 C675 1.366 . S
C676 C677 1.414 . S
C676 C679 1.499 . S
C677 H651 0.950 . S
C677 C676 1.414 . S
C677 C678 1.374 . S
C678 H652 0.950 . S
C678 C674 1.385 . S
C678 C677 1.374 . S
C679 C676 1.499 . S
C679 C680 1.373 . S
C679 C681 1.389 . S
C680 H653 0.950 . S
C680 C666 1.377 . S
C680 C679 1.373 . S
C681 C665 1.377 . S
C681 C679 1.389 . S
C681 C682 1.524 . S
C682 C681 1.524 . S
C682 C683 1.397 . S
C682 C687 1.363 . S
C683 H654 0.950 . S
C683 C682 1.397 . S
C683 C684 1.334 . S
C684 H655 0.950 . S
C684 C683 1.334 . S
C684 C685 1.287 . S
C685 C684 1.287 . S
C685 C686 1.524 . S
C685 H688 0.999 . S
C686 H656 0.950 . S
C686 C685 1.524 . S
C686 C687 1.415 . S
C687 H657 0.950 . S
C687 C682 1.363 . S
C687 C686 1.415 . S
H688 C685 0.999 . S
H689 C670 0.913 . S
H690 C708 0.951 . S
H691 C710 0.951 . S
H692 C712 0.950 . S
H693 C713 0.950 . S
H694 C715 0.950 . S
H695 C718 0.950 . S
H696 C719 0.950 . S
H697 C721 0.950 . S
H698 C722 0.950 . S
H699 C723 0.951 . S
H700 C725 0.951 . S
H701 C727 0.950 . S
H702 C728 0.950 . S
H703 C730 0.950 . S
H704 C733 0.950 . S
H705 C734 0.950 . S
H706 C736 0.950 1_556 S
H707 C737 0.950 . S
C708 H690 0.951 . S
C708 C709 1.366 . S
C708 C710 1.388 . S
C709 C708 1.366 . S
C709 C713 1.385 . S
C710 H691 0.951 . S
C710 C708 1.388 . S
C710 C711 1.366 . S
C711 C710 1.366 . S
C711 C712 1.414 . S
C711 C714 1.499 . S
C712 H692 0.950 . S
C712 C711 1.414 . S
C712 C713 1.374 . S
C713 H693 0.950 . S
C713 C709 1.385 . S
C713 C712 1.374 . S
C714 C711 1.499 . S
C714 C715 1.373 . S
C714 C716 1.389 . S
C715 H694 0.950 . S
C715 C714 1.373 . S
C715 C731 1.377 . S
C716 C714 1.389 . S
C716 C717 1.524 . S
C716 C730 1.377 . S
C717 C716 1.524 . S
C717 C718 1.397 . S
C717 C722 1.363 . S
C718 H695 0.950 . S
C718 C717 1.397 . S
C718 C719 1.334 . S
C719 H696 0.950 . S
C719 C718 1.334 . S
C719 C720 1.287 . S
C720 C719 1.287 . S
C720 C721 1.524 . S
C720 H739 0.913 . S
C721 H697 0.950 . S
C721 C720 1.524 . S
C721 C722 1.415 . S
C722 H698 0.950 . S
C722 C717 1.363 . S
C722 C721 1.415 . S
C723 H699 0.951 . S
C723 C724 1.366 1_556 S
C723 C725 1.388 . S
C724 C723 1.366 1_554 S
C724 C728 1.385 . S
C725 H700 0.951 . S
C725 C723 1.388 . S
C725 C726 1.366 . S
C726 C725 1.366 . S
C726 C727 1.414 1_556 S
C726 C729 1.499 . S
C727 H701 0.950 . S
C727 C726 1.414 1_554 S
C727 C728 1.374 . S
C728 H702 0.950 . S
C728 C724 1.385 . S
C728 C727 1.374 . S
C729 C726 1.499 . S
C729 C730 1.373 . S
C729 C731 1.389 . S
C730 H703 0.950 . S
C730 C716 1.377 . S
C730 C729 1.373 . S
C731 C715 1.377 . S
C731 C729 1.389 . S
C731 C732 1.524 1_556 S
C732 C731 1.524 1_554 S
C732 C733 1.397 . S
C732 C737 1.363 1_554 S
C733 H704 0.950 . S
C733 C732 1.397 . S
C733 C734 1.334 . S
C734 H705 0.950 . S
C734 C733 1.334 . S
C734 C735 1.287 . S
C735 C734 1.287 . S
C735 C736 1.524 . S
C735 H738 0.999 . S
C736 H706 0.950 1_554 S
C736 C735 1.524 . S
C736 C737 1.415 1_554 S
C737 H707 0.950 . S
C737 C732 1.363 1_556 S
C737 C736 1.415 1_556 S
H738 C735 0.999 . S
H739 C720 0.913 . S
H740 C758 0.951 . S
H741 C760 0.951 . S
H742 C762 0.950 . S
H743 C763 0.950 . S
H744 C765 0.950 . S
H745 C768 0.950 . S
H746 C769 0.950 . S
H747 C771 0.950 . S
H748 C772 0.950 . S
H749 C773 0.951 . S
H750 C775 0.951 . S
H751 C777 0.950 . S
H752 C778 0.950 . S
H753 C780 0.950 . S
H754 C783 0.950 . S
H755 C784 0.950 . S
H756 C786 0.950 . S
H757 C787 0.950 . S
C758 H740 0.951 . S
C758 C759 1.366 1_554 S
C758 C760 1.388 . S
C759 C758 1.366 1_556 S
C759 C763 1.385 . S
C760 H741 0.951 . S
C760 C758 1.388 . S
C760 C761 1.366 1_554 S
C761 C760 1.366 1_556 S
C761 C762 1.414 . S
C761 C764 1.499 . S
C762 H742 0.950 . S
C762 C761 1.414 . S
C762 C763 1.374 . S
C763 H743 0.950 . S
C763 C759 1.385 . S
C763 C762 1.374 . S
C764 C761 1.499 . S
C764 C765 1.373 . S
C764 C766 1.389 1_556 S
C765 H744 0.950 . S
C765 C764 1.373 . S
C765 C781 1.377 . S
C766 C764 1.389 1_554 S
C766 C767 1.524 . S
C766 C780 1.377 . S
C767 C766 1.524 . S
C767 C768 1.397 . S
C767 C772 1.363 . S
C768 H745 0.950 . S
C768 C767 1.397 . S
C768 C769 1.334 . S
C769 H746 0.950 . S
C769 C768 1.334 . S
C769 C770 1.287 . S
C770 C769 1.287 . S
C770 C771 1.524 . S
C770 H789 0.913 . S
C771 H747 0.950 . S
C771 C770 1.524 . S
C771 C772 1.415 . S
C772 H748 0.950 . S
C772 C767 1.363 . S
C772 C771 1.415 . S
C773 H749 0.951 . S
C773 C774 1.366 . S
C773 C775 1.388 . S
C774 C773 1.366 . S
C774 C778 1.385 1_556 S
C775 H750 0.951 . S
C775 C773 1.388 . S
C775 C776 1.366 . S
C776 C775 1.366 . S
C776 C777 1.414 1_556 S
C776 C779 1.499 . S
C777 H751 0.950 . S
C777 C776 1.414 1_554 S
C777 C778 1.374 . S
C778 H752 0.950 . S
C778 C774 1.385 1_554 S
C778 C777 1.374 . S
C779 C776 1.499 . S
C779 C780 1.373 1_556 S
C779 C781 1.389 . S
C780 H753 0.950 . S
C780 C766 1.377 . S
C780 C779 1.373 1_554 S
C781 C765 1.377 . S
C781 C779 1.389 . S
C781 C782 1.524 . S
C782 C781 1.524 . S
C782 C783 1.397 . S
C782 C787 1.363 . S
C783 H754 0.950 . S
C783 C782 1.397 . S
C783 C784 1.334 . S
C784 H755 0.950 . S
C784 C783 1.334 . S
C784 C785 1.287 . S
C785 C784 1.287 . S
C785 C786 1.524 . S
C785 H788 0.999 . S
C786 H756 0.950 . S
C786 C785 1.524 . S
C786 C787 1.415 . S
C787 H757 0.950 . S
C787 C782 1.363 . S
C787 C786 1.415 . S
H788 C785 0.999 . S
H789 C770 0.913 . S
H790 C808 0.951 . S
H791 C810 0.951 . S
H792 C812 0.950 . S
H793 C813 0.950 . S
H794 C815 0.950 . S
H795 C818 0.950 . S
H796 C819 0.950 . S
H797 C821 0.950 . S
H798 C822 0.950 1_556 S
H799 C823 0.951 . S
H800 C825 0.951 . S
H801 C827 0.950 . S
H802 C828 0.950 . S
H803 C830 0.950 . S
H804 C833 0.950 . S
H805 C834 0.950 . S
H806 C836 0.950 . S
H807 C837 0.950 . S
C808 H790 0.951 . S
C808 C809 1.366 . S
C808 C810 1.388 . S
C809 C808 1.366 . S
C809 C813 1.385 . S
C810 H791 0.951 . S
C810 C808 1.388 . S
C810 C811 1.366 . S
C811 C810 1.366 . S
C811 C812 1.414 . S
C811 C814 1.499 . S
C812 H792 0.950 . S
C812 C811 1.414 . S
C812 C813 1.374 . S
C813 H793 0.950 . S
C813 C809 1.385 . S
C813 C812 1.374 . S
C814 C811 1.499 . S
C814 C815 1.373 . S
C814 C816 1.389 . S
C815 H794 0.950 . S
C815 C814 1.373 . S
C815 C831 1.377 . S
C816 C814 1.389 . S
C816 C817 1.524 1_556 S
C816 C830 1.377 . S
C817 C816 1.524 1_554 S
C817 C818 1.397 . S
C817 C822 1.363 . S
C818 H795 0.950 . S
C818 C817 1.397 . S
C818 C819 1.334 . S
C819 H796 0.950 . S
C819 C818 1.334 . S
C819 C820 1.287 . S
C820 C819 1.287 . S
C820 C821 1.524 . S
C820 H839 0.913 . S
C821 H797 0.950 . S
C821 C820 1.524 . S
C821 C822 1.415 . S
C822 H798 0.950 1_554 S
C822 C817 1.363 . S
C822 C821 1.415 . S
C823 H799 0.951 . S
C823 C824 1.366 . S
C823 C825 1.388 . S
C824 C823 1.366 . S
C824 C828 1.385 . S
C825 H800 0.951 . S
C825 C823 1.388 . S
C825 C826 1.366 . S
C826 C825 1.366 . S
C826 C827 1.414 . S
C826 C829 1.499 . S
C827 H801 0.950 . S
C827 C826 1.414 . S
C827 C828 1.374 . S
C828 H802 0.950 . S
C828 C824 1.385 . S
C828 C827 1.374 . S
C829 C826 1.499 . S
C829 C830 1.373 . S
C829 C831 1.389 . S
C830 H803 0.950 . S
C830 C816 1.377 . S
C830 C829 1.373 . S
C831 C815 1.377 . S
C831 C829 1.389 . S
C831 C832 1.524 . S
C832 C831 1.524 . S
C832 C833 1.397 . S
C832 C837 1.363 . S
C833 H804 0.950 . S
C833 C832 1.397 . S
C833 C834 1.334 . S
C834 H805 0.950 . S
C834 C833 1.334 . S
C834 C835 1.287 . S
C835 C834 1.287 . S
C835 C836 1.524 . S
C835 H838 0.999 . S
C836 H806 0.950 . S
C836 C835 1.524 . S
C836 C837 1.415 . S
C837 H807 0.950 . S
C837 C832 1.363 . S
C837 C836 1.415 . S
H838 C835 0.999 . S
H839 C820 0.913 . S
H840 C858 0.951 . S
H841 C860 0.951 . S
H842 C862 0.950 . S
H843 C863 0.950 . S
H844 C865 0.950 . S
H845 C868 0.950 . S
H846 C869 0.950 . S
H847 C871 0.950 . S
H848 C872 0.950 . S
H849 C873 0.951 1_556 S
H850 C875 0.951 . S
H851 C877 0.950 . S
H852 C878 0.950 1_556 S
H853 C880 0.950 . S
H854 C883 0.950 . S
H855 C884 0.950 . S
H856 C886 0.950 . S
H857 C887 0.950 . S
C858 H840 0.951 . S
C858 C859 1.366 . S
C858 C860 1.388 . S
C859 C858 1.366 . S
C859 C863 1.385 . S
C860 H841 0.951 . S
C860 C858 1.388 . S
C860 C861 1.366 . S
C861 C860 1.366 . S
C861 C862 1.414 . S
C861 C864 1.499 . S
C862 H842 0.950 . S
C862 C861 1.414 . S
C862 C863 1.374 . S
C863 H843 0.950 . S
C863 C859 1.385 . S
C863 C862 1.374 . S
C864 C861 1.499 . S
C864 C865 1.373 . S
C864 C866 1.389 . S
C865 H844 0.950 . S
C865 C864 1.373 . S
C865 C881 1.377 . S
C866 C864 1.389 . S
C866 C867 1.524 . S
C866 C880 1.377 . S
C867 C866 1.524 . S
C867 C868 1.397 . S
C867 C872 1.363 . S
C868 H845 0.950 . S
C868 C867 1.397 . S
C868 C869 1.334 . S
C869 H846 0.950 . S
C869 C868 1.334 . S
C869 C870 1.287 . S
C870 C869 1.287 . S
C870 C871 1.524 . S
C870 H889 0.913 . S
C871 H847 0.950 . S
C871 C870 1.524 . S
C871 C872 1.415 . S
C872 H848 0.950 . S
C872 C867 1.363 . S
C872 C871 1.415 . S
C873 H849 0.951 1_554 S
C873 C874 1.366 1_554 S
C873 C875 1.388 . S
C874 C873 1.366 1_556 S
C874 C878 1.385 1_556 S
C875 H850 0.951 . S
C875 C873 1.388 . S
C875 C876 1.366 . S
C876 C875 1.366 . S
C876 C877 1.414 . S
C876 C879 1.499 . S
C877 H851 0.950 . S
C877 C876 1.414 . S
C877 C878 1.374 . S
C878 H852 0.950 1_554 S
C878 C874 1.385 1_554 S
C878 C877 1.374 . S
C879 C876 1.499 . S
C879 C880 1.373 . S
C879 C881 1.389 . S
C880 H853 0.950 . S
C880 C866 1.377 . S
C880 C879 1.373 . S
C881 C865 1.377 . S
C881 C879 1.389 . S
C881 C882 1.524 . S
C882 C881 1.524 . S
C882 C883 1.397 . S
C882 C887 1.363 . S
C883 H854 0.950 . S
C883 C882 1.397 . S
C883 C884 1.334 . S
C884 H855 0.950 . S
C884 C883 1.334 . S
C884 C885 1.287 . S
C885 C884 1.287 . S
C885 C886 1.524 . S
C885 H888 0.999 . S
C886 H856 0.950 . S
C886 C885 1.524 . S
C886 C887 1.415 . S
C887 H857 0.950 . S
C887 C882 1.363 . S
C887 C886 1.415 . S
H888 C885 0.999 . S
H889 C870 0.913 . S
H890 C908 0.951 . S
H891 C910 0.951 . S
H892 C912 0.950 . S
H893 C913 0.950 . S
H894 C915 0.950 . S
H895 C918 0.950 . S
H896 C919 0.950 . S
H897 C921 0.950 . S
H898 C922 0.950 . S
H899 C923 0.951 . S
H900 C925 0.951 . S
H901 C927 0.950 . S
H902 C928 0.950 . S
H903 C930 0.950 . S
H904 C933 0.950 . S
H905 C934 0.950 . S
H906 C936 0.950 . S
H907 C937 0.950 . S
C908 H890 0.951 . S
C908 C909 1.366 . S
C908 C910 1.388 . S
C909 C908 1.366 . S
C909 C913 1.385 . S
C910 H891 0.951 . S
C910 C908 1.388 . S
C910 C911 1.366 . S
C911 C910 1.366 . S
C911 C912 1.414 . S
C911 C914 1.499 . S
C912 H892 0.950 . S
C912 C911 1.414 . S
C912 C913 1.374 . S
C913 H893 0.950 . S
C913 C909 1.385 . S
C913 C912 1.374 . S
C914 C911 1.499 . S
C914 C915 1.373 . S
C914 C916 1.389 . S
C915 H894 0.950 . S
C915 C914 1.373 . S
C915 C931 1.377 . S
C916 C914 1.389 . S
C916 C917 1.524 . S
C916 C930 1.377 . S
C917 C916 1.524 . S
C917 C918 1.397 . S
C917 C922 1.363 . S
C918 H895 0.950 . S
C918 C917 1.397 . S
C918 C919 1.334 . S
C919 H896 0.950 . S
C919 C918 1.334 . S
C919 C920 1.287 . S
C920 C919 1.287 . S
C920 C921 1.524 . S
C920 H939 0.913 . S
C921 H897 0.950 . S
C921 C920 1.524 . S
C921 C922 1.415 . S
C922 H898 0.950 . S
C922 C917 1.363 . S
C922 C921 1.415 . S
C923 H899 0.951 . S
C923 C924 1.366 . S
C923 C925 1.388 . S
C924 C923 1.366 . S
C924 C928 1.385 . S
C925 H900 0.951 . S
C925 C923 1.388 . S
C925 C926 1.366 . S
C926 C925 1.366 . S
C926 C927 1.414 . S
C926 C929 1.499 . S
C927 H901 0.950 . S
C927 C926 1.414 . S
C927 C928 1.374 . S
C928 H902 0.950 . S
C928 C924 1.385 . S
C928 C927 1.374 . S
C929 C926 1.499 . S
C929 C930 1.373 . S
C929 C931 1.389 . S
C930 H903 0.950 . S
C930 C916 1.377 . S
C930 C929 1.373 . S
C931 C915 1.377 . S
C931 C929 1.389 . S
C931 C932 1.524 . S
C932 C931 1.524 . S
C932 C933 1.397 . S
C932 C937 1.363 . S
C933 H904 0.950 . S
C933 C932 1.397 . S
C933 C934 1.334 . S
C934 H905 0.950 . S
C934 C933 1.334 . S
C934 C935 1.287 . S
C935 C934 1.287 . S
C935 C936 1.524 . S
C935 H938 0.999 . S
C936 H906 0.950 . S
C936 C935 1.524 . S
C936 C937 1.415 . S
C937 H907 0.950 . S
C937 C932 1.363 . S
C937 C936 1.415 . S
H938 C935 0.999 . S
H939 C920 0.913 . S
H940 C958 0.951 . S
H941 C960 0.951 . S
H942 C962 0.950 . S
H943 C963 0.950 . S
H944 C965 0.950 . S
H945 C968 0.950 . S
H946 C969 0.950 . S
H947 C971 0.950 . S
H948 C972 0.950 . S
H949 C973 0.951 . S
H950 C975 0.951 . S
H951 C977 0.950 . S
H952 C978 0.950 . S
H953 C980 0.950 . S
H954 C983 0.950 . S
H955 C984 0.950 . S
H956 C986 0.950 . S
H957 C987 0.950 . S
C958 H940 0.951 . S
C958 C959 1.366 . S
C958 C960 1.388 . S
C959 C958 1.366 . S
C959 C963 1.385 . S
C960 H941 0.951 . S
C960 C958 1.388 . S
C960 C961 1.366 . S
C961 C960 1.366 . S
C961 C962 1.414 . S
C961 C964 1.499 . S
C962 H942 0.950 . S
C962 C961 1.414 . S
C962 C963 1.374 . S
C963 H943 0.950 . S
C963 C959 1.385 . S
C963 C962 1.374 . S
C964 C961 1.499 . S
C964 C965 1.373 . S
C964 C966 1.389 . S
C965 H944 0.950 . S
C965 C964 1.373 . S
C965 C981 1.377 . S
C966 C964 1.389 . S
C966 C967 1.524 . S
C966 C980 1.377 . S
C967 C966 1.524 . S
C967 C968 1.397 . S
C967 C972 1.363 . S
C968 H945 0.950 . S
C968 C967 1.397 . S
C968 C969 1.334 . S
C969 H946 0.950 . S
C969 C968 1.334 . S
C969 C970 1.287 . S
C970 C969 1.287 . S
C970 C971 1.524 . S
C970 H989 0.913 . S
C971 H947 0.950 . S
C971 C970 1.524 . S
C971 C972 1.415 . S
C972 H948 0.950 . S
C972 C967 1.363 . S
C972 C971 1.415 . S
C973 H949 0.951 . S
C973 C974 1.366 . S
C973 C975 1.388 . S
C974 C973 1.366 . S
C974 C978 1.385 . S
C975 H950 0.951 . S
C975 C973 1.388 . S
C975 C976 1.366 . S
C976 C975 1.366 . S
C976 C977 1.414 . S
C976 C979 1.499 . S
C977 H951 0.950 . S
C977 C976 1.414 . S
C977 C978 1.374 . S
C978 H952 0.950 . S
C978 C974 1.385 . S
C978 C977 1.374 . S
C979 C976 1.499 . S
C979 C980 1.373 . S
C979 C981 1.389 . S
C980 H953 0.950 . S
C980 C966 1.377 . S
C980 C979 1.373 . S
C981 C965 1.377 . S
C981 C979 1.389 . S
C981 C982 1.524 . S
C982 C981 1.524 . S
C982 C983 1.397 . S
C982 C987 1.363 . S
C983 H954 0.950 . S
C983 C982 1.397 . S
C983 C984 1.334 . S
C984 H955 0.950 . S
C984 C983 1.334 . S
C984 C985 1.287 . S
C985 C984 1.287 . S
C985 C986 1.524 . S
C985 H988 0.999 . S
C986 H956 0.950 . S
C986 C985 1.524 . S
C986 C987 1.415 . S
C987 H957 0.950 . S
C987 C982 1.363 . S
C987 C986 1.415 . S
H988 C985 0.999 . S
H989 C970 0.913 . S
H990 C1008 0.951 . S
H991 C1010 0.951 . S
H992 C1012 0.950 . S
H993 C1013 0.950 . S
H994 C1015 0.950 . S
H995 C1018 0.950 . S
H996 C1019 0.950 . S
H997 C1021 0.950 . S
H998 C1022 0.950 . S
H999 C1023 0.951 . S
H1000 C1025 0.951 . S
H1001 C1027 0.950 . S
H1002 C1028 0.950 . S
H1003 C1030 0.950 . S
H1004 C1033 0.950 . S
H1005 C1034 0.950 . S
H1006 C1036 0.950 . S
H1007 C1037 0.950 . S
C1008 H990 0.951 . S
C1008 C1009 1.366 . S
C1008 C1010 1.388 . S
C1009 C1008 1.366 . S
C1009 C1013 1.385 . S
C1010 H991 0.951 . S
C1010 C1008 1.388 . S
C1010 C1011 1.366 . S
C1011 C1010 1.366 . S
C1011 C1012 1.414 . S
C1011 C1014 1.499 . S
C1012 H992 0.950 . S
C1012 C1011 1.414 . S
C1012 C1013 1.374 . S
C1013 H993 0.950 . S
C1013 C1009 1.385 . S
C1013 C1012 1.374 . S
C1014 C1011 1.499 . S
C1014 C1015 1.373 . S
C1014 C1016 1.389 . S
C1015 H994 0.950 . S
C1015 C1014 1.373 . S
C1015 C1031 1.377 . S
C1016 C1014 1.389 . S
C1016 C1017 1.524 . S
C1016 C1030 1.377 . S
C1017 C1016 1.524 . S
C1017 C1018 1.397 . S
C1017 C1022 1.363 . S
C1018 H995 0.950 . S
C1018 C1017 1.397 . S
C1018 C1019 1.334 . S
C1019 H996 0.950 . S
C1019 C1018 1.334 . S
C1019 C1020 1.287 . S
C1020 C1019 1.287 . S
C1020 C1021 1.524 . S
C1020 H1039 0.913 . S
C1021 H997 0.950 . S
C1021 C1020 1.524 . S
C1021 C1022 1.415 . S
C1022 H998 0.950 . S
C1022 C1017 1.363 . S
C1022 C1021 1.415 . S
C1023 H999 0.951 . S
C1023 C1024 1.366 . S
C1023 C1025 1.388 . S
C1024 C1023 1.366 . S
C1024 C1028 1.385 . S
C1025 H1000 0.951 . S
C1025 C1023 1.388 . S
C1025 C1026 1.366 . S
C1026 C1025 1.366 . S
C1026 C1027 1.414 . S
C1026 C1029 1.499 . S
C1027 H1001 0.950 . S
C1027 C1026 1.414 . S
C1027 C1028 1.374 . S
C1028 H1002 0.950 . S
C1028 C1024 1.385 . S
C1028 C1027 1.374 . S
C1029 C1026 1.499 . S
C1029 C1030 1.373 . S
C1029 C1031 1.389 . S
C1030 H1003 0.950 . S
C1030 C1016 1.377 . S
C1030 C1029 1.373 . S
C1031 C1015 1.377 . S
C1031 C1029 1.389 . S
C1031 C1032 1.524 . S
C1032 C1031 1.524 . S
C1032 C1033 1.397 . S
C1032 C1037 1.363 . S
C1033 H1004 0.950 . S
C1033 C1032 1.397 . S
C1033 C1034 1.334 . S
C1034 H1005 0.950 . S
C1034 C1033 1.334 . S
C1034 C1035 1.287 . S
C1035 C1034 1.287 . S
C1035 C1036 1.524 . S
C1035 H1038 0.999 . S
C1036 H1006 0.950 . S
C1036 C1035 1.524 . S
C1036 C1037 1.415 . S
C1037 H1007 0.950 . S
C1037 C1032 1.363 . S
C1037 C1036 1.415 . S
H1038 C1035 0.999 . S
H1039 C1020 0.913 . S
H1040 C1058 0.951 . S
H1041 C1060 0.951 . S
H1042 C1062 0.950 . S
H1043 C1063 0.950 . S
H1044 C1065 0.950 . S
H1045 C1068 0.950 . S
H1046 C1069 0.950 . S
H1047 C1071 0.950 . S
H1048 C1072 0.950 . S
H1049 C1073 0.951 . S
H1050 C1075 0.951 . S
H1051 C1077 0.950 . S
H1052 C1078 0.950 . S
H1053 C1080 0.950 . S
H1054 C1083 0.950 . S
H1055 C1084 0.950 . S
H1056 C1086 0.950 . S
H1057 C1087 0.950 . S
C1058 H1040 0.951 . S
C1058 C1059 1.366 . S
C1058 C1060 1.388 . S
C1059 C1058 1.366 . S
C1059 C1063 1.385 . S
C1060 H1041 0.951 . S
C1060 C1058 1.388 . S
C1060 C1061 1.366 . S
C1061 C1060 1.366 . S
C1061 C1062 1.414 . S
C1061 C1064 1.499 . S
C1062 H1042 0.950 . S
C1062 C1061 1.414 . S
C1062 C1063 1.374 . S
C1063 H1043 0.950 . S
C1063 C1059 1.385 . S
C1063 C1062 1.374 . S
C1064 C1061 1.499 . S
C1064 C1065 1.373 . S
C1064 C1066 1.389 . S
C1065 H1044 0.950 . S
C1065 C1064 1.373 . S
C1065 C1081 1.377 . S
C1066 C1064 1.389 . S
C1066 C1067 1.524 . S
C1066 C1080 1.377 . S
C1067 C1066 1.524 . S
C1067 C1068 1.397 . S
C1067 C1072 1.363 . S
C1068 H1045 0.950 . S
C1068 C1067 1.397 . S
C1068 C1069 1.334 . S
C1069 H1046 0.950 . S
C1069 C1068 1.334 . S
C1069 C1070 1.287 . S
C1070 C1069 1.287 . S
C1070 C1071 1.524 . S
C1070 H1089 0.913 . S
C1071 H1047 0.950 . S
C1071 C1070 1.524 . S
C1071 C1072 1.415 . S
C1072 H1048 0.950 . S
C1072 C1067 1.363 . S
C1072 C1071 1.415 . S
C1073 H1049 0.951 . S
C1073 C1074 1.366 . S
C1073 C1075 1.388 . S
C1074 C1073 1.366 . S
C1074 C1078 1.385 . S
C1075 H1050 0.951 . S
C1075 C1073 1.388 . S
C1075 C1076 1.366 . S
C1076 C1075 1.366 . S
C1076 C1077 1.414 . S
C1076 C1079 1.499 . S
C1077 H1051 0.950 . S
C1077 C1076 1.414 . S
C1077 C1078 1.374 . S
C1078 H1052 0.950 . S
C1078 C1074 1.385 . S
C1078 C1077 1.374 . S
C1079 C1076 1.499 . S
C1079 C1080 1.373 . S
C1079 C1081 1.389 . S
C1080 H1053 0.950 . S
C1080 C1066 1.377 . S
C1080 C1079 1.373 . S
C1081 C1065 1.377 . S
C1081 C1079 1.389 . S
C1081 C1082 1.524 . S
C1082 C1081 1.524 . S
C1082 C1083 1.397 . S
C1082 C1087 1.363 . S
C1083 H1054 0.950 . S
C1083 C1082 1.397 . S
C1083 C1084 1.334 . S
C1084 H1055 0.950 . S
C1084 C1083 1.334 . S
C1084 C1085 1.287 . S
C1085 C1084 1.287 . S
C1085 C1086 1.524 . S
C1085 H1088 0.999 . S
C1086 H1056 0.950 . S
C1086 C1085 1.524 . S
C1086 C1087 1.415 . S
C1087 H1057 0.950 . S
C1087 C1082 1.363 . S
C1087 C1086 1.415 . S
H1088 C1085 0.999 . S
H1089 C1070 0.913 . S
H1090 C1108 0.951 . S
H1091 C1110 0.951 . S
H1092 C1112 0.950 . S
H1093 C1113 0.950 . S
H1094 C1115 0.950 . S
H1095 C1118 0.950 . S
H1096 C1119 0.950 . S
H1097 C1121 0.950 . S
H1098 C1122 0.950 . S
H1099 C1123 0.951 . S
H1100 C1125 0.951 . S
H1101 C1127 0.950 . S
H1102 C1128 0.950 . S
H1103 C1130 0.950 . S
H1104 C1133 0.950 . S
H1105 C1134 0.950 . S
H1106 C1136 0.950 . S
H1107 C1137 0.950 . S
C1108 H1090 0.951 . S
C1108 C1109 1.366 . S
C1108 C1110 1.388 . S
C1109 C1108 1.366 . S
C1109 C1113 1.385 . S
C1110 H1091 0.951 . S
C1110 C1108 1.388 . S
C1110 C1111 1.366 . S
C1111 C1110 1.366 . S
C1111 C1112 1.414 . S
C1111 C1114 1.499 . S
C1112 H1092 0.950 . S
C1112 C1111 1.414 . S
C1112 C1113 1.374 . S
C1113 H1093 0.950 . S
C1113 C1109 1.385 . S
C1113 C1112 1.374 . S
C1114 C1111 1.499 . S
C1114 C1115 1.373 . S
C1114 C1116 1.389 . S
C1115 H1094 0.950 . S
C1115 C1114 1.373 . S
C1115 C1131 1.377 . S
C1116 C1114 1.389 . S
C1116 C1117 1.524 . S
C1116 C1130 1.377 . S
C1117 C1116 1.524 . S
C1117 C1118 1.397 . S
C1117 C1122 1.363 . S
C1118 H1095 0.950 . S
C1118 C1117 1.397 . S
C1118 C1119 1.334 . S
C1119 H1096 0.950 . S
C1119 C1118 1.334 . S
C1119 C1120 1.287 . S
C1120 C1119 1.287 . S
C1120 C1121 1.524 . S
C1120 H1139 0.913 . S
C1121 H1097 0.950 . S
C1121 C1120 1.524 . S
C1121 C1122 1.415 . S
C1122 H1098 0.950 . S
C1122 C1117 1.363 . S
C1122 C1121 1.415 . S
C1123 H1099 0.951 . S
C1123 C1124 1.366 . S
C1123 C1125 1.388 . S
C1124 C1123 1.366 . S
C1124 C1128 1.385 . S
C1125 H1100 0.951 . S
C1125 C1123 1.388 . S
C1125 C1126 1.366 . S
C1126 C1125 1.366 . S
C1126 C1127 1.414 . S
C1126 C1129 1.499 . S
C1127 H1101 0.950 . S
C1127 C1126 1.414 . S
C1127 C1128 1.374 . S
C1128 H1102 0.950 . S
C1128 C1124 1.385 . S
C1128 C1127 1.374 . S
C1129 C1126 1.499 . S
C1129 C1130 1.373 . S
C1129 C1131 1.389 . S
C1130 H1103 0.950 . S
C1130 C1116 1.377 . S
C1130 C1129 1.373 . S
C1131 C1115 1.377 . S
C1131 C1129 1.389 . S
C1131 C1132 1.524 . S
C1132 C1131 1.524 . S
C1132 C1133 1.397 . S
C1132 C1137 1.363 . S
C1133 H1104 0.950 . S
C1133 C1132 1.397 . S
C1133 C1134 1.334 . S
C1134 H1105 0.950 . S
C1134 C1133 1.334 . S
C1134 C1135 1.287 . S
C1135 C1134 1.287 . S
C1135 C1136 1.524 . S
C1135 H1138 0.999 . S
C1136 H1106 0.950 . S
C1136 C1135 1.524 . S
C1136 C1137 1.415 . S
C1137 H1107 0.950 . S
C1137 C1132 1.363 . S
C1137 C1136 1.415 . S
H1138 C1135 0.999 . S
H1139 C1120 0.913 . S
C259 C202 3.583 . S
C274 C7 3.516 . S
C309 C2 3.448 . S
C324 C47 3.301 1_455 S
C359 C42 2.595 . S
C374 C82 2.578 . S
C409 C127 2.319 . S
C424 C87 2.214 . S
C459 C167 2.694 . S
C474 C122 3.024 . S
C509 C162 1.959 . S
C524 C207 1.946 1_565 S
C559 C171 2.427 . S
C574 C16 2.387 . S
C609 C211 3.265 . S
C624 C56 3.260 . S
C659 C91 3.740 . S
C674 C11 3.771 . S
C709 C136 2.048 . S
C724 C51 2.107 . S
C759 C176 0.908 . S
C774 C96 0.905 . S
C809 C131 1.284 . S
C824 C216 1.320 . S
C859 C10 0.448 . S
C874 C19 0.448 . S
C909 C50 0.389 . S
C924 C59 0.389 . S
C959 C99 0.371 . S
C974 C90 0.371 . S
C1009 C130 0.314 . S
C1024 C139 0.314 . S
C1059 C179 0.500 . S
C1074 C170 0.500 . S
C1109 C210 0.253 . S
C1124 C219 0.253 . S
