# Generated by pormake.
# Topology sow, (4)-cn, num edge types: 1
# Building blocks:
#     Node 0, Type 0, BuildingBlock: MUDLON_clean_sbu_0, # of connection points: 4
#     Node 1, Type 0, BuildingBlock: MUDLON_clean_sbu_0, # of connection points: 4
#     Node 2, Type 0, BuildingBlock: MUDLON_clean_sbu_0, # of connection points: 4
#     Node 3, Type 0, BuildingBlock: MUDLON_clean_sbu_0, # of connection points: 4
#     Node 4, Type 0, BuildingBlock: MUDLON_clean_sbu_0, # of connection points: 4
#     Node 5, Type 0, BuildingBlock: MUDLON_clean_sbu_0, # of connection points: 4
#     Node 6, Type 0, BuildingBlock: MUDLON_clean_sbu_0, # of connection points: 4
#     Node 7, Type 0, BuildingBlock: MUDLON_clean_sbu_0, # of connection points: 4
#     Edge 8, Type (0, 0), BuildingBlock: CIFDUS_clean_linker_0, # of connection points: 2
#     Edge 9, Type (0, 0), BuildingBlock: CIFDUS_clean_linker_0, # of connection points: 2
#     Edge 10, Type (0, 0), BuildingBlock: CIFDUS_clean_linker_0, # of connection points: 2
#     Edge 11, Type (0, 0), BuildingBlock: CIFDUS_clean_linker_0, # of connection points: 2
#     Edge 12, Type (0, 0), BuildingBlock: CIFDUS_clean_linker_0, # of connection points: 2
#     Edge 13, Type (0, 0), BuildingBlock: CIFDUS_clean_linker_0, # of connection points: 2
#     Edge 14, Type (0, 0), BuildingBlock: CIFDUS_clean_linker_0, # of connection points: 2
#     Edge 15, Type (0, 0), BuildingBlock: CIFDUS_clean_linker_0, # of connection points: 2
#     Edge 16, Type (0, 0), BuildingBlock: CIFDUS_clean_linker_0, # of connection points: 2
#     Edge 17, Type (0, 0), BuildingBlock: CIFDUS_clean_linker_0, # of connection points: 2
#     Edge 18, Type (0, 0), BuildingBlock: CIFDUS_clean_linker_0, # of connection points: 2
#     Edge 19, Type (0, 0), BuildingBlock: CIFDUS_clean_linker_0, # of connection points: 2
#     Edge 20, Type (0, 0), BuildingBlock: CIFDUS_clean_linker_0, # of connection points: 2
#     Edge 21, Type (0, 0), BuildingBlock: CIFDUS_clean_linker_0, # of connection points: 2
#     Edge 22, Type (0, 0), BuildingBlock: CIFDUS_clean_linker_0, # of connection points: 2
#     Edge 23, Type (0, 0), BuildingBlock: CIFDUS_clean_linker_0, # of connection points: 2
# Relax obj value: 0.166
# Max RMSD: 0.252
# Mean RMSD: 0.252
data_MOF--net-sow--node1-MUDLON_clean_sbu_0--edge1-CIFDUS_clean_linker_0
_symmetry_space_group_name_H-M    P1
_symmetry_Int_Tables_number       1
_symmetry_cell_setting            triclinic
loop_
_symmetry_equiv_pos_as_xyz
'x, y, z'
_cell_length_a     36.705957
_cell_length_b     21.411841
_cell_length_c     21.74633
_cell_angle_alpha  89.775574
_cell_angle_beta   90.194299
_cell_angle_gamma 89.969978
loop_
_atom_site_label
_atom_site_type_symbol
_atom_site_fract_x
_atom_site_fract_y
_atom_site_fract_z
_atom_type_partial_charge
Mg0 Mg 0.15883 0.21856 0.11823 0.0
C1 C 0.1182 0.25495 0.22907 0.0
O2 O 0.14288 0.21577 0.24992 0.0
C3 C 0.20663 0.2859 0.0218 0.0
O4 O 0.2291 0.29229 0.06845 0.0
C5 C 0.09816 0.14458 0.06699 0.0
O6 O 0.08849 0.2027 0.05619 0.0
O7 O 0.12866 0.13438 0.09346 0.0
O8 O 0.11838 0.26929 0.17217 0.0
O9 O 0.20576 0.20266 0.17942 0.0
C10 C 0.21764 0.25024 0.20827 0.0
O11 O 0.20278 0.30487 0.19648 0.0
O12 O 0.17565 0.26071 0.03073 0.0
Mg13 Mg 0.38215 0.3362 0.62406 0.0
C14 C 0.44125 0.23576 0.64451 0.0
O15 O 0.45445 0.25633 0.59218 0.0
C16 C 0.345 0.27672 0.50721 0.0
O17 O 0.36027 0.22367 0.52357 0.0
C18 C 0.44367 0.40847 0.56133 0.0
O19 O 0.43889 0.36517 0.51943 0.0
O20 O 0.42331 0.4085 0.60868 0.0
O21 O 0.41038 0.25546 0.66227 0.0
O22 O 0.34719 0.3628 0.70079 0.0
C23 C 0.31695 0.33528 0.71009 0.0
O24 O 0.30518 0.29495 0.6692 0.0
O25 O 0.34991 0.32511 0.54006 0.0
Mg26 Mg 0.64322 0.29664 0.92682 0.0
C27 C 0.613 0.19113 0.85144 0.0
O28 O 0.64691 0.18987 0.8324 0.0
C29 C 0.68216 0.2304 0.03937 0.0
O30 O 0.66346 0.18002 0.02566 0.0
C31 C 0.57724 0.36971 0.96844 0.0
O32 O 0.56608 0.31256 0.97991 0.0
O33 O 0.60902 0.37773 0.94637 0.0
O34 O 0.60528 0.22413 0.89817 0.0
O35 O 0.67581 0.31506 0.84479 0.0
C36 C 0.70735 0.29156 0.83746 0.0
O37 O 0.72217 0.2598 0.88292 0.0
O38 O 0.67831 0.27949 1.00672 0.0
Mg39 Mg 0.86516 0.15594 0.43271 0.0
C40 C 0.93397 0.23275 0.40901 0.0
O41 O 0.94086 0.21848 0.4667 0.0
C42 C 0.81395 0.22226 0.5253 0.0
O43 O 0.79273 0.23061 0.47721 0.0
C44 C 0.91221 0.07167 0.50995 0.0
O45 O 0.9061 0.11836 0.54756 0.0
O46 O 0.8969 0.0724 0.45723 0.0
O47 O 0.9038 0.21606 0.3855 0.0
O48 O 0.82153 0.14065 0.36522 0.0
C49 C 0.81316 0.18831 0.33284 0.0
O50 O 0.82981 0.24134 0.34431 0.0
O51 O 0.84461 0.19549 0.51843 0.0
Mg52 Mg 0.8844 0.83076 0.90211 0.0
C53 C 0.82591 0.78767 0.81607 0.0
O54 O 0.83294 0.73749 0.84897 0.0
C55 C 0.94277 0.90743 0.95541 0.0
O56 O 0.95151 0.84977 0.97025 0.0
C57 C 0.82925 0.79127 1.00089 0.0
O58 O 0.8059 0.8104 0.95895 0.0
O59 O 0.86317 0.79254 0.98871 0.0
O60 O 0.84261 0.83804 0.82939 0.0
O61 O 0.92774 0.77521 0.86198 0.0
C62 C 0.92869 0.71632 0.8556 0.0
O63 O 0.90197 0.6821 0.87741 0.0
O64 O 0.91336 0.91671 0.92531 0.0
Mg65 Mg 0.66038 0.72267 0.41237 0.0
C66 C 0.72451 0.72972 0.31789 0.0
O67 O 0.74495 0.74388 0.36553 0.0
C68 C 0.60752 0.63896 0.47375 0.0
O69 O 0.60421 0.69159 0.50412 0.0
C70 C 0.70801 0.79922 0.50429 0.0
O71 O 0.7034 0.8451 0.46473 0.0
O72 O 0.69354 0.74635 0.49327 0.0
O73 O 0.69093 0.71738 0.32602 0.0
O74 O 0.6136 0.78333 0.39573 0.0
C75 C 0.60533 0.79839 0.34071 0.0
O76 O 0.62925 0.78839 0.29706 0.0
O77 O 0.63163 0.63552 0.43187 0.0
Mg78 Mg 0.36161 0.69986 0.09547 0.0
C79 C 0.31174 0.72796 0.20297 0.0
O80 O 0.32276 0.7849 0.19011 0.0
C81 C 0.42373 0.62225 0.04993 0.0
O82 O 0.43501 0.67905 0.03715 0.0
C83 C 0.29949 0.75078 1.01502 0.0
O84 O 0.285 0.76129 0.06912 0.0
O85 O 0.33154 0.72805 1.01239 0.0
O86 O 0.32345 0.68279 0.17063 0.0
O87 O 0.40359 0.76488 0.12655 0.0
C88 C 0.41388 0.76005 0.18237 0.0
O89 O 0.39639 0.72136 0.21881 0.0
O90 O 0.3925 0.61531 0.07444 0.0
Mg91 Mg 0.13243 0.75289 0.60645 0.0
C92 C 0.19702 0.74436 0.68913 0.0
O93 O 0.20769 0.71479 0.63951 0.0
C94 C 0.06629 0.80826 0.54606 0.0
O95 O 0.07625 0.76583 0.50598 0.0
C96 C 0.17858 0.72364 0.49388 0.0
O97 O 0.16818 0.66658 0.50758 0.0
O98 O 0.1677 0.76869 0.52716 0.0
O99 O 0.1652 0.76816 0.68956 0.0
O100 O 0.11661 0.65457 0.60572 0.0
C101 C 0.09266 0.62198 0.63353 0.0
O102 O 0.09091 0.56212 0.62069 0.0
O103 O 0.08484 0.81393 0.59533 0.0
H104 H 0.24959 0.29196 0.74102 0.0
H105 H 0.34204 0.39149 0.8148 0.0
H106 H 0.31482 0.3889 0.91706 0.0
H107 H 0.2673 0.35043 0.98724 0.0
H108 H 0.17452 0.25194 0.91324 0.0
H109 H 0.19918 0.26263 0.80962 0.0
C110 C 0.26362 0.31374 0.7793 0.0
C111 C 0.29804 0.34128 0.77015 0.0
C112 C 0.24784 0.31195 0.8382 0.0
C113 C 0.31559 0.36981 0.82032 0.0
C114 C 0.3001 0.36813 0.879 0.0
C115 C 0.25225 0.33188 0.9484 0.0
C116 C 0.21927 0.29981 0.95831 0.0
C117 C 0.26663 0.33808 0.88875 0.0
C118 C 0.19999 0.2767 0.90721 0.0
C119 C 0.21416 0.28257 0.84782 0.0
H120 H 0.24344 0.34261 0.28121 0.0
H121 H 0.25181 0.14407 0.25111 0.0
H122 H 0.2926 0.13454 0.3401 0.0
H123 H 0.3243 0.18262 0.42892 0.0
H124 H 0.31401 0.38129 0.45815 0.0
H125 H 0.27557 0.39042 0.36727 0.0
C126 C 0.2543 0.29716 0.29369 0.0
C127 C 0.24447 0.24414 0.25935 0.0
C128 C 0.2773 0.29195 0.34519 0.0
C129 C 0.2589 0.18573 0.27655 0.0
C130 C 0.28217 0.18023 0.32761 0.0
C131 C 0.31373 0.22792 0.41532 0.0
C132 C 0.32206 0.28111 0.45079 0.0
C133 C 0.29129 0.23299 0.3627 0.0
C134 C 0.30805 0.33942 0.43221 0.0
C135 C 0.28603 0.34481 0.38004 0.0
H136 H 0.79406 0.28139 0.25447 0.0
H137 H 0.77232 0.08752 0.29475 0.0
H138 H 0.72971 0.08307 0.20779 0.0
H139 H 0.69905 0.13463 0.11924 0.0
H140 H 0.72246 0.32855 0.08051 0.0
H141 H 0.76394 0.33225 0.16778 0.0
C142 C 0.77999 0.23803 0.24456 0.0
C143 C 0.78645 0.18487 0.28133 0.0
C144 C 0.75581 0.23576 0.19446 0.0
C145 C 0.76791 0.1292 0.26736 0.0
C146 C 0.74355 0.12664 0.21753 0.0
C147 C 0.71322 0.17769 0.12991 0.0
C148 C 0.70749 0.23121 0.093 0.0
C149 C 0.73735 0.17964 0.18056 0.0
C150 C 0.7262 0.28654 0.10773 0.0
C151 C 0.75 0.28882 0.15782 0.0
H152 H 0.7747 0.24848 0.80664 0.0
H153 H 0.67845 0.33413 0.72889 0.0
H154 H 0.7037 0.32332 0.62578 0.0
H155 H 0.75129 0.283 0.55693 0.0
H156 H 0.84748 0.19737 0.63509 0.0
H157 H 0.82412 0.21505 0.73839 0.0
C158 C 0.75937 0.26538 0.76725 0.0
C159 C 0.72459 0.29171 0.77571 0.0
C160 C 0.77395 0.25866 0.70789 0.0
C161 C 0.70526 0.31365 0.72396 0.0
C162 C 0.71963 0.30725 0.66481 0.0
C163 C 0.7673 0.26862 0.59653 0.0
C164 C 0.80099 0.23838 0.58797 0.0
C165 C 0.75366 0.27879 0.6561 0.0
C166 C 0.82142 0.22054 0.64004 0.0
C167 C 0.80805 0.23052 0.6993 0.0
H168 H 0.75999 0.76289 0.03531 0.0
H169 H 0.86919 0.78074 0.10708 0.0
H170 H 0.84681 0.76119 0.21118 0.0
H171 H 0.79558 0.7444 0.28271 0.0
H172 H 0.6867 0.72426 0.2097 0.0
H173 H 0.70965 0.73893 0.10562 0.0
C174 C 0.77897 0.76214 0.07365 0.0
C175 C 0.8162 0.77377 0.06329 0.0
C176 C 0.76593 0.75063 0.13341 0.0
C177 C 0.8404 0.77193 0.11356 0.0
C178 C 0.82759 0.76097 0.17324 0.0
C179 C 0.77689 0.74281 0.24403 0.0
C180 C 0.73938 0.73368 0.25438 0.0
C181 C 0.79031 0.75109 0.18386 0.0
C182 C 0.71567 0.73129 0.20343 0.0
C183 C 0.72876 0.73985 0.14371 0.0
H184 H 0.7207 0.71564 0.59679 0.0
H185 H 0.74545 0.90409 0.53974 0.0
H186 H 0.78294 0.91858 0.63176 0.0
H187 H 0.81021 0.87654 0.72785 0.0
H188 H 0.78481 0.68763 0.78316 0.0
H189 H 0.74621 0.675 0.69301 0.0
C190 C 0.73421 0.76 0.60438 0.0
C191 C 0.73026 0.80854 0.561 0.0
C192 C 0.75575 0.76807 0.65742 0.0
C193 C 0.74797 0.86573 0.57209 0.0
C194 C 0.76948 0.87411 0.62483 0.0
C195 C 0.79602 0.83281 0.7204 0.0
C196 C 0.80063 0.78316 0.76251 0.0
C197 C 0.77375 0.82548 0.66778 0.0
C198 C 0.782 0.72675 0.75177 0.0
C199 C 0.75985 0.71931 0.70001 0.0
H200 H 0.31688 0.71873 0.89726 0.0
H201 H 0.23178 0.80323 1.00528 0.0
H202 H 0.19309 0.81136 0.91408 0.0
H203 H 0.18208 0.78985 0.80413 0.0
H204 H 0.26714 0.70359 0.69723 0.0
H205 H 0.30685 0.70104 0.78708 0.0
C206 C 0.29 0.73944 0.90084 0.0
C207 C 0.27733 0.76009 0.95829 0.0
C208 C 0.26763 0.7434 0.84824 0.0
C209 C 0.24232 0.78669 0.96182 0.0
C210 C 0.22007 0.79132 0.90961 0.0
C211 C 0.20938 0.77091 0.8004 0.0
C212 C 0.2214 0.74673 0.74385 0.0
C213 C 0.23222 0.76909 0.85266 0.0
C214 C 0.25694 0.72232 0.74005 0.0
C215 C 0.2798 0.7208 0.79153 0.0
H216 H 0.28268 0.81419 0.28036 0.0
H217 H 0.28389 0.61637 0.24268 0.0
H218 H 0.24275 0.59784 0.32887 0.0
H219 H 0.20674 0.63758 0.41531 0.0
H220 H 0.20564 0.83539 0.45309 0.0
H221 H 0.24641 0.85398 0.36643 0.0
C222 C 0.27395 0.76698 0.29087 0.0
C223 C 0.28644 0.71677 0.25496 0.0
C224 C 0.2503 0.7566 0.34058 0.0
C225 C 0.27477 0.65593 0.26943 0.0
C226 C 0.25122 0.64526 0.31878 0.0
C227 C 0.21535 0.68482 0.40464 0.0
C228 C 0.20309 0.73498 0.44084 0.0
C229 C 0.23886 0.69522 0.35473 0.0
C230 C 0.21461 0.79585 0.42615 0.0
C231 C 0.23796 0.80656 0.37654 0.0
H232 H 0.04732 0.2765 0.19758 0.0
H233 H 0.12085 0.26877 0.35252 0.0
H234 H 0.06948 0.27104 0.42334 0.0
H235 H 1.00411 0.25821 0.44063 0.0
H236 H 0.93017 0.25957 0.28588 0.0
H237 H 0.981 0.27771 0.21598 0.0
C238 C 0.05203 0.27723 0.24685 0.0
C239 C 0.08774 0.27198 0.26988 0.0
C240 C 0.02223 0.2763 0.28743 0.0
C241 C 0.09353 0.27232 0.33379 0.0
C242 C 0.06417 0.27333 0.37432 0.0
C243 C 0.99896 0.26369 0.39177 0.0
C244 C 0.96343 0.25635 0.36857 0.0
C245 C 0.02841 0.27258 0.35162 0.0
C246 C 0.9573 0.26423 0.30507 0.0
C247 C 0.9864 0.27445 0.26492 0.0
H248 H 0.50884 0.1868 0.62488 0.0
H249 H 0.42936 0.21801 0.76743 0.0
H250 H 0.47512 0.19608 0.84589 0.0
H251 H 0.53991 0.18751 0.87375 0.0
H252 H 0.6194 0.15612 0.7313 0.0
H253 H 0.5714 0.1572 0.65372 0.0
C254 C 0.50128 0.18727 0.67305 0.0
C255 C 0.46593 0.20566 0.69006 0.0
C256 C 0.5279 0.17528 0.71826 0.0
C257 C 0.45647 0.20487 0.75277 0.0
C258 C 0.48272 0.19264 0.7979 0.0
C259 C 0.54664 0.17923 0.82593 0.0
C260 C 0.58334 0.17334 0.80838 0.0
C261 C 0.5189 0.18079 0.78119 0.0
C262 C 0.59147 0.16156 0.74628 0.0
C263 C 0.56401 0.16259 0.70162 0.0
H264 H 0.03306 0.56542 0.68097 0.0
H265 H 0.09383 0.73747 0.6898 0.0
H266 H 0.04869 0.78141 0.75906 0.0
H267 H 0.99119 0.77148 0.81599 0.0
H268 H 0.93217 0.59715 0.81141 0.0
H269 H 0.97798 0.55303 0.74293 0.0
C270 C 0.03662 0.61255 0.69803 0.0
C271 C 0.06641 0.64882 0.67815 0.0
C272 C 1.01097 0.63685 0.73928 0.0
C273 C 0.07062 0.70934 0.70179 0.0
C274 C 0.04494 0.73424 0.74228 0.0
C275 C 0.9884 0.7237 0.80028 0.0
C276 C 0.9581 0.68783 0.81853 0.0
C277 C 0.01484 0.69858 0.7609 0.0
C278 C 0.95516 0.62583 0.79816 0.0
C279 C 0.98128 0.60063 0.75877 0.0
H280 H 0.43709 0.77425 0.30002 0.0
H281 H 0.46944 0.80644 0.11198 0.0
H282 H 0.53131 0.83089 0.1461 0.0
H283 H 0.57791 0.82769 0.22764 0.0
H284 H 0.54551 0.79308 0.41542 0.0
H285 H 0.48194 0.78633 0.38317 0.0
C286 C 0.45751 0.78773 0.26657 0.0
C287 C 0.44879 0.78754 0.20347 0.0
C288 C 0.49314 0.80089 0.28644 0.0
C289 C 0.47541 0.80599 0.1608 0.0
C290 C 0.51089 0.81962 0.18027 0.0
C291 C 0.55689 0.82001 0.26178 0.0
C292 C 0.56666 0.80983 0.32375 0.0
C293 C 0.52036 0.81495 0.24275 0.0
C294 C 0.53894 0.8007 0.36737 0.0
C295 C 0.50252 0.79639 0.3489 0.0
H296 H 0.03234 0.15373 1.00961 0.0
H297 H 0.10781 0.01887 0.08527 0.0
H298 H 0.0662 0.93424 0.05777 0.0
H299 H 1.00852 0.89864 1.01262 0.0
H300 H 0.93311 0.0332 0.93632 0.0
H301 H 0.97468 0.11798 0.96392 0.0
C302 C 0.03979 0.10584 0.0201 0.0
C303 C 0.07327 0.0928 0.04954 0.0
C304 C 0.01572 0.0574 1.00415 0.0
C305 C 0.08233 0.03037 0.06264 0.0
C306 C 0.0585 0.98192 0.04697 0.0
C307 C 1.00104 0.94649 1.00203 0.0
C308 C 0.9676 0.95942 0.97246 0.0
C309 C 0.02513 0.99492 0.01781 0.0
C310 C 0.95858 0.0218 0.95903 0.0
C311 C 0.98237 0.07032 0.9748 0.0
H312 H 0.5556 0.63271 0.56231 0.0
H313 H 0.5996 0.52974 0.40932 0.0
H314 H 0.55289 0.44943 0.423 0.0
H315 H 0.49832 0.41015 0.47651 0.0
H316 H 0.45506 0.51329 0.63007 0.0
H317 H 0.50266 0.59187 0.6178 0.0
C318 C 0.55518 0.59257 0.53206 0.0
C319 C 0.58111 0.5875 0.48469 0.0
C320 C 0.52818 0.54674 0.54004 0.0
C321 C 0.5801 0.53491 0.4462 0.0
C322 C 0.55327 0.48905 0.45386 0.0
C323 C 0.49925 0.44984 0.50728 0.0
C324 C 0.4729 0.45589 0.55393 0.0
C325 C 0.52693 0.4948 0.50025 0.0
C326 C 0.47484 0.50739 0.59371 0.0
C327 C 0.5021 0.55242 0.58674 0.0
H328 H 0.49251 0.6242 1.00385 0.0
H329 H 0.40908 0.49791 0.06788 0.0
H330 H 0.44918 0.40898 0.04835 0.0
H331 H 0.50803 0.36714 1.01358 0.0
H332 H 0.59139 0.49387 0.95 0.0
H333 H 0.55114 0.58251 0.96902 0.0
C334 C 0.48298 0.57725 1.01348 0.0
C335 C 0.44772 0.5679 0.03729 0.0
C336 C 0.50622 0.52636 1.00233 0.0
C337 C 0.43601 0.50661 0.04954 0.0
C338 C 0.45896 0.45568 0.03841 0.0
C339 C 0.51747 0.41413 1.00388 0.0
C340 C 0.55281 0.42366 0.9804 0.0
C341 C 0.49415 0.46501 1.01492 0.0
C342 C 0.56443 0.485 0.96811 0.0
C343 C 0.54139 0.53579 0.97895 0.0
H344 H 0.03606 0.89774 0.6196 0.0
H345 H 0.02604 0.81336 0.44041 0.0
H346 H 0.97662 0.88487 0.4142 0.0
H347 H 0.93758 0.97455 0.44027 0.0
H348 H 0.94774 0.05878 0.61954 0.0
H349 H 0.99525 0.9843 0.64729 0.0
C350 C 0.023 0.89483 0.57489 0.0
C351 C 0.03505 0.85034 0.53203 0.0
C352 C 0.99446 0.93628 0.5599 0.0
C353 C 0.01753 0.84713 0.47442 0.0
C354 C 0.98919 0.88813 0.45925 0.0
C355 C 0.94996 0.9763 0.48558 0.0
C356 C 0.93906 0.02258 0.5275 0.0
C357 C 0.97761 0.93334 0.50137 0.0
C358 C 0.95553 0.02396 0.58607 0.0
C359 C 0.98285 0.98135 0.6021 0.0
loop_
_geom_bond_atom_site_label_1
_geom_bond_atom_site_label_2
_geom_bond_distance
_geom_bond_site_symmetry_2
_ccdc_geom_bond_type
Mg0 O7 2.141 . S
Mg0 O8 2.048 . S
Mg0 O9 2.048 . S
Mg0 O12 2.141 . S
C1 O2 1.313 . S
C1 O8 1.195 . S
O2 C1 1.313 . S
C3 O4 1.245 . S
C3 O12 1.289 1_556 S
O4 C3 1.245 . S
C5 O6 1.245 . S
C5 O7 1.289 . S
O6 C5 1.245 . S
O7 Mg0 2.141 . S
O7 C5 1.289 . S
O8 Mg0 2.048 . S
O8 C1 1.195 . S
O9 Mg0 2.048 . S
O9 C10 1.195 . S
C10 O9 1.195 . S
C10 O11 1.313 . S
O11 C10 1.313 . S
O12 Mg0 2.141 . S
O12 C3 1.289 1_554 S
Mg13 O20 2.141 . S
Mg13 O21 2.048 . S
Mg13 O22 2.048 . S
Mg13 O25 2.141 . S
C14 O15 1.313 . S
C14 O21 1.195 . S
O15 C14 1.313 . S
C16 O17 1.245 . S
C16 O25 1.289 . S
O17 C16 1.245 . S
C18 O19 1.245 . S
C18 O20 1.289 . S
O19 C18 1.245 . S
O20 Mg13 2.141 . S
O20 C18 1.289 . S
O21 Mg13 2.048 . S
O21 C14 1.195 . S
O22 Mg13 2.048 . S
O22 C23 1.195 . S
C23 O22 1.195 . S
C23 O24 1.313 . S
O24 C23 1.313 . S
O25 Mg13 2.141 . S
O25 C16 1.289 . S
Mg26 O33 2.141 . S
Mg26 O34 2.048 . S
Mg26 O35 2.048 . S
Mg26 O38 2.141 . S
C27 O28 1.313 . S
C27 O34 1.195 . S
O28 C27 1.313 . S
C29 O30 1.245 . S
C29 O38 1.289 1_554 S
O30 C29 1.245 . S
C31 O32 1.245 . S
C31 O33 1.289 . S
O32 C31 1.245 . S
O33 Mg26 2.141 . S
O33 C31 1.289 . S
O34 Mg26 2.048 . S
O34 C27 1.195 . S
O35 Mg26 2.048 . S
O35 C36 1.195 . S
C36 O35 1.195 . S
C36 O37 1.313 . S
O37 C36 1.313 . S
O38 Mg26 2.141 . S
O38 C29 1.289 1_556 S
Mg39 O46 2.141 . S
Mg39 O47 2.048 . S
Mg39 O48 2.048 . S
Mg39 O51 2.141 . S
C40 O41 1.313 . S
C40 O47 1.195 . S
O41 C40 1.313 . S
C42 O43 1.245 . S
C42 O51 1.289 . S
O43 C42 1.245 . S
C44 O45 1.245 . S
C44 O46 1.289 . S
O45 C44 1.245 . S
O46 Mg39 2.141 . S
O46 C44 1.289 . S
O47 Mg39 2.048 . S
O47 C40 1.195 . S
O48 Mg39 2.048 . S
O48 C49 1.195 . S
C49 O48 1.195 . S
C49 O50 1.313 . S
O50 C49 1.313 . S
O51 Mg39 2.141 . S
O51 C42 1.289 . S
Mg52 O59 2.141 . S
Mg52 O60 2.048 . S
Mg52 O61 2.048 . S
Mg52 O64 2.141 . S
C53 O54 1.313 . S
C53 O60 1.195 . S
O54 C53 1.313 . S
C55 O56 1.245 . S
C55 O64 1.289 . S
O56 C55 1.245 . S
C57 O58 1.245 . S
C57 O59 1.289 1_554 S
O58 C57 1.245 . S
O59 Mg52 2.141 . S
O59 C57 1.289 1_556 S
O60 Mg52 2.048 . S
O60 C53 1.195 . S
O61 Mg52 2.048 . S
O61 C62 1.195 . S
C62 O61 1.195 . S
C62 O63 1.313 . S
O63 C62 1.313 . S
O64 Mg52 2.141 . S
O64 C55 1.289 . S
Mg65 O72 2.141 . S
Mg65 O73 2.048 . S
Mg65 O74 2.048 . S
Mg65 O77 2.141 . S
C66 O67 1.313 . S
C66 O73 1.195 . S
O67 C66 1.313 . S
C68 O69 1.245 . S
C68 O77 1.289 . S
O69 C68 1.245 . S
C70 O71 1.245 . S
C70 O72 1.289 . S
O71 C70 1.245 . S
O72 Mg65 2.141 . S
O72 C70 1.289 . S
O73 Mg65 2.048 . S
O73 C66 1.195 . S
O74 Mg65 2.048 . S
O74 C75 1.195 . S
C75 O74 1.195 . S
C75 O76 1.313 . S
O76 C75 1.313 . S
O77 Mg65 2.141 . S
O77 C68 1.289 . S
Mg78 O85 2.141 . S
Mg78 O86 2.048 . S
Mg78 O87 2.048 . S
Mg78 O90 2.141 . S
C79 O80 1.313 . S
C79 O86 1.195 . S
O80 C79 1.313 . S
C81 O82 1.245 . S
C81 O90 1.289 . S
O82 C81 1.245 . S
C83 O84 1.245 . S
C83 O85 1.289 1_556 S
O84 C83 1.245 . S
O85 Mg78 2.141 . S
O85 C83 1.289 1_554 S
O86 Mg78 2.048 . S
O86 C79 1.195 . S
O87 Mg78 2.048 . S
O87 C88 1.195 . S
C88 O87 1.195 . S
C88 O89 1.313 . S
O89 C88 1.313 . S
O90 Mg78 2.141 . S
O90 C81 1.289 . S
Mg91 O98 2.141 . S
Mg91 O99 2.048 . S
Mg91 O100 2.048 . S
Mg91 O103 2.141 . S
C92 O93 1.313 . S
C92 O99 1.195 . S
O93 C92 1.313 . S
C94 O95 1.245 . S
C94 O103 1.289 . S
O95 C94 1.245 . S
C96 O97 1.245 . S
C96 O98 1.289 . S
O97 C96 1.245 . S
O98 Mg91 2.141 . S
O98 C96 1.289 . S
O99 Mg91 2.048 . S
O99 C92 1.195 . S
O100 Mg91 2.048 . S
O100 C101 1.195 . S
C101 O100 1.195 . S
C101 O102 1.313 . S
O102 C101 1.313 . S
O103 Mg91 2.141 . S
O103 C94 1.289 . S
H104 C110 0.930 . S
H105 C113 0.930 . S
H106 C114 0.930 . S
H107 C115 0.930 . S
H108 C118 0.930 . S
H109 C119 0.930 . S
C110 H104 0.930 . S
C110 C111 1.355 . S
C110 C112 1.415 . S
C111 C110 1.355 . S
C111 C113 1.419 . S
C112 C110 1.415 . S
C112 C117 1.425 . S
C112 C119 1.409 . S
C113 H105 0.930 . S
C113 C111 1.419 . S
C113 C114 1.362 . S
C114 H106 0.930 . S
C114 C113 1.362 . S
C114 C117 1.409 . S
C115 H107 0.930 . S
C115 C116 1.355 . S
C115 C117 1.415 . S
C116 C115 1.355 . S
C116 C118 1.419 . S
C117 C112 1.425 . S
C117 C114 1.409 . S
C117 C115 1.415 . S
C118 H108 0.930 . S
C118 C116 1.419 . S
C118 C119 1.362 . S
C119 H109 0.930 . S
C119 C112 1.409 . S
C119 C118 1.362 . S
H120 C126 0.930 . S
H121 C129 0.930 . S
H122 C130 0.930 . S
H123 C131 0.930 . S
H124 C134 0.930 . S
H125 C135 0.930 . S
C126 H120 0.930 . S
C126 C127 1.355 . S
C126 C128 1.415 . S
C127 C126 1.355 . S
C127 C129 1.419 . S
C128 C126 1.415 . S
C128 C133 1.425 . S
C128 C135 1.409 . S
C129 H121 0.930 . S
C129 C127 1.419 . S
C129 C130 1.362 . S
C130 H122 0.930 . S
C130 C129 1.362 . S
C130 C133 1.409 . S
C131 H123 0.930 . S
C131 C132 1.355 . S
C131 C133 1.415 . S
C132 C131 1.355 . S
C132 C134 1.419 . S
C133 C128 1.425 . S
C133 C130 1.409 . S
C133 C131 1.415 . S
C134 H124 0.930 . S
C134 C132 1.419 . S
C134 C135 1.362 . S
C135 H125 0.930 . S
C135 C128 1.409 . S
C135 C134 1.362 . S
H136 C142 0.930 . S
H137 C145 0.930 . S
H138 C146 0.930 . S
H139 C147 0.930 . S
H140 C150 0.930 . S
H141 C151 0.930 . S
C142 H136 0.930 . S
C142 C143 1.355 . S
C142 C144 1.415 . S
C143 C142 1.355 . S
C143 C145 1.419 . S
C144 C142 1.415 . S
C144 C149 1.425 . S
C144 C151 1.409 . S
C145 H137 0.930 . S
C145 C143 1.419 . S
C145 C146 1.362 . S
C146 H138 0.930 . S
C146 C145 1.362 . S
C146 C149 1.409 . S
C147 H139 0.930 . S
C147 C148 1.355 . S
C147 C149 1.415 . S
C148 C147 1.355 . S
C148 C150 1.419 . S
C149 C144 1.425 . S
C149 C146 1.409 . S
C149 C147 1.415 . S
C150 H140 0.930 . S
C150 C148 1.419 . S
C150 C151 1.362 . S
C151 H141 0.930 . S
C151 C144 1.409 . S
C151 C150 1.362 . S
H152 C158 0.930 . S
H153 C161 0.930 . S
H154 C162 0.930 . S
H155 C163 0.930 . S
H156 C166 0.930 . S
H157 C167 0.930 . S
C158 H152 0.930 . S
C158 C159 1.355 . S
C158 C160 1.415 . S
C159 C158 1.355 . S
C159 C161 1.419 . S
C160 C158 1.415 . S
C160 C165 1.425 . S
C160 C167 1.409 . S
C161 H153 0.930 . S
C161 C159 1.419 . S
C161 C162 1.362 . S
C162 H154 0.930 . S
C162 C161 1.362 . S
C162 C165 1.409 . S
C163 H155 0.930 . S
C163 C164 1.355 . S
C163 C165 1.415 . S
C164 C163 1.355 . S
C164 C166 1.419 . S
C165 C160 1.425 . S
C165 C162 1.409 . S
C165 C163 1.415 . S
C166 H156 0.930 . S
C166 C164 1.419 . S
C166 C167 1.362 . S
C167 H157 0.930 . S
C167 C160 1.409 . S
C167 C166 1.362 . S
H168 C174 0.930 . S
H169 C177 0.930 . S
H170 C178 0.930 . S
H171 C179 0.930 . S
H172 C182 0.930 . S
H173 C183 0.930 . S
C174 H168 0.930 . S
C174 C175 1.355 . S
C174 C176 1.415 . S
C175 C174 1.355 . S
C175 C177 1.419 . S
C176 C174 1.415 . S
C176 C181 1.425 . S
C176 C183 1.409 . S
C177 H169 0.930 . S
C177 C175 1.419 . S
C177 C178 1.362 . S
C178 H170 0.930 . S
C178 C177 1.362 . S
C178 C181 1.409 . S
C179 H171 0.930 . S
C179 C180 1.355 . S
C179 C181 1.415 . S
C180 C179 1.355 . S
C180 C182 1.419 . S
C181 C176 1.425 . S
C181 C178 1.409 . S
C181 C179 1.415 . S
C182 H172 0.930 . S
C182 C180 1.419 . S
C182 C183 1.362 . S
C183 H173 0.930 . S
C183 C176 1.409 . S
C183 C182 1.362 . S
H184 C190 0.930 . S
H185 C193 0.930 . S
H186 C194 0.930 . S
H187 C195 0.930 . S
H188 C198 0.930 . S
H189 C199 0.930 . S
C190 H184 0.930 . S
C190 C191 1.355 . S
C190 C192 1.415 . S
C191 C190 1.355 . S
C191 C193 1.419 . S
C192 C190 1.415 . S
C192 C197 1.425 . S
C192 C199 1.409 . S
C193 H185 0.930 . S
C193 C191 1.419 . S
C193 C194 1.362 . S
C194 H186 0.930 . S
C194 C193 1.362 . S
C194 C197 1.409 . S
C195 H187 0.930 . S
C195 C196 1.355 . S
C195 C197 1.415 . S
C196 C195 1.355 . S
C196 C198 1.419 . S
C197 C192 1.425 . S
C197 C194 1.409 . S
C197 C195 1.415 . S
C198 H188 0.930 . S
C198 C196 1.419 . S
C198 C199 1.362 . S
C199 H189 0.930 . S
C199 C192 1.409 . S
C199 C198 1.362 . S
H200 C206 0.930 . S
H201 C209 0.930 . S
H202 C210 0.930 . S
H203 C211 0.930 . S
H204 C214 0.930 . S
H205 C215 0.930 . S
C206 H200 0.930 . S
C206 C207 1.355 . S
C206 C208 1.415 . S
C207 C206 1.355 . S
C207 C209 1.419 . S
C208 C206 1.415 . S
C208 C213 1.425 . S
C208 C215 1.409 . S
C209 H201 0.930 . S
C209 C207 1.419 . S
C209 C210 1.362 . S
C210 H202 0.930 . S
C210 C209 1.362 . S
C210 C213 1.409 . S
C211 H203 0.930 . S
C211 C212 1.355 . S
C211 C213 1.415 . S
C212 C211 1.355 . S
C212 C214 1.419 . S
C213 C208 1.425 . S
C213 C210 1.409 . S
C213 C211 1.415 . S
C214 H204 0.930 . S
C214 C212 1.419 . S
C214 C215 1.362 . S
C215 H205 0.930 . S
C215 C208 1.409 . S
C215 C214 1.362 . S
H216 C222 0.930 . S
H217 C225 0.930 . S
H218 C226 0.930 . S
H219 C227 0.930 . S
H220 C230 0.930 . S
H221 C231 0.930 . S
C222 H216 0.930 . S
C222 C223 1.355 . S
C222 C224 1.415 . S
C223 C222 1.355 . S
C223 C225 1.419 . S
C224 C222 1.415 . S
C224 C229 1.425 . S
C224 C231 1.409 . S
C225 H217 0.930 . S
C225 C223 1.419 . S
C225 C226 1.362 . S
C226 H218 0.930 . S
C226 C225 1.362 . S
C226 C229 1.409 . S
C227 H219 0.930 . S
C227 C228 1.355 . S
C227 C229 1.415 . S
C228 C227 1.355 . S
C228 C230 1.419 . S
C229 C224 1.425 . S
C229 C226 1.409 . S
C229 C227 1.415 . S
C230 H220 0.930 . S
C230 C228 1.419 . S
C230 C231 1.362 . S
C231 H221 0.930 . S
C231 C224 1.409 . S
C231 C230 1.362 . S
H232 C238 0.930 . S
H233 C241 0.930 . S
H234 C242 0.930 . S
H235 C243 0.930 . S
H236 C246 0.930 . S
H237 C247 0.930 . S
C238 H232 0.930 . S
C238 C239 1.355 . S
C238 C240 1.413 . S
C239 C238 1.355 . S
C239 C241 1.419 . S
C240 C238 1.413 . S
C240 C245 1.425 1_455 S
C240 C247 1.411 1_455 S
C241 H233 0.930 . S
C241 C239 1.419 . S
C241 C242 1.362 . S
C242 H234 0.930 . S
C242 C241 1.362 . S
C242 C245 1.411 1_455 S
C243 H235 0.930 . S
C243 C244 1.355 . S
C243 C245 1.413 . S
C244 C243 1.355 . S
C244 C246 1.419 . S
C245 C240 1.425 1_655 S
C245 C242 1.411 1_655 S
C245 C243 1.413 . S
C246 H236 0.930 . S
C246 C244 1.419 . S
C246 C247 1.362 . S
C247 H237 0.930 . S
C247 C240 1.411 1_655 S
C247 C246 1.362 . S
H248 C254 0.930 . S
H249 C257 0.930 . S
H250 C258 0.930 . S
H251 C259 0.930 . S
H252 C262 0.930 . S
H253 C263 0.930 . S
C254 H248 0.930 . S
C254 C255 1.355 . S
C254 C256 1.415 . S
C255 C254 1.355 . S
C255 C257 1.419 . S
C256 C254 1.415 . S
C256 C261 1.425 . S
C256 C263 1.409 . S
C257 H249 0.930 . S
C257 C255 1.419 . S
C257 C258 1.362 . S
C258 H250 0.930 . S
C258 C257 1.362 . S
C258 C261 1.409 . S
C259 H251 0.930 . S
C259 C260 1.355 . S
C259 C261 1.415 . S
C260 C259 1.355 . S
C260 C262 1.419 . S
C261 C256 1.425 . S
C261 C258 1.409 . S
C261 C259 1.415 . S
C262 H252 0.930 . S
C262 C260 1.419 . S
C262 C263 1.362 . S
C263 H253 0.930 . S
C263 C256 1.409 . S
C263 C262 1.362 . S
H264 C270 0.930 . S
H265 C273 0.930 . S
H266 C274 0.930 . S
H267 C275 0.930 . S
H268 C278 0.930 . S
H269 C279 0.930 . S
C270 H264 0.930 . S
C270 C271 1.355 . S
C270 C272 1.415 . S
C271 C270 1.355 . S
C271 C273 1.419 . S
C272 C270 1.415 . S
C272 C277 1.425 1_455 S
C272 C279 1.409 1_455 S
C273 H265 0.930 . S
C273 C271 1.419 . S
C273 C274 1.362 . S
C274 H266 0.930 . S
C274 C273 1.362 . S
C274 C277 1.409 1_455 S
C275 H267 0.930 . S
C275 C276 1.355 . S
C275 C277 1.415 . S
C276 C275 1.355 . S
C276 C278 1.419 . S
C277 C272 1.425 1_655 S
C277 C274 1.409 1_655 S
C277 C275 1.415 . S
C278 H268 0.930 . S
C278 C276 1.419 . S
C278 C279 1.362 . S
C279 H269 0.930 . S
C279 C272 1.409 1_655 S
C279 C278 1.362 . S
H280 C286 0.930 . S
H281 C289 0.930 . S
H282 C290 0.930 . S
H283 C291 0.930 . S
H284 C294 0.930 . S
H285 C295 0.930 . S
C286 H280 0.930 . S
C286 C287 1.355 . S
C286 C288 1.415 . S
C287 C286 1.355 . S
C287 C289 1.419 . S
C288 C286 1.415 . S
C288 C293 1.425 . S
C288 C295 1.409 . S
C289 H281 0.930 . S
C289 C287 1.419 . S
C289 C290 1.362 . S
C290 H282 0.930 . S
C290 C289 1.362 . S
C290 C293 1.409 . S
C291 H283 0.930 . S
C291 C292 1.355 . S
C291 C293 1.415 . S
C292 C291 1.355 . S
C292 C294 1.419 . S
C293 C288 1.425 . S
C293 C290 1.409 . S
C293 C291 1.415 . S
C294 H284 0.930 . S
C294 C292 1.419 . S
C294 C295 1.362 . S
C295 H285 0.930 . S
C295 C288 1.409 . S
C295 C294 1.362 . S
H296 C302 0.930 1_655 S
H297 C305 0.930 . S
H298 C306 0.930 . S
H299 C307 0.930 1_455 S
H300 C310 0.930 . S
H301 C311 0.930 . S
C302 H296 0.930 1_455 S
C302 C303 1.355 1_554 S
C302 C304 1.415 1_455 S
C303 C302 1.355 1_556 S
C303 C305 1.419 . S
C304 C302 1.415 1_655 S
C304 C309 1.425 1_644 S
C304 C311 1.409 . S
C305 H297 0.930 . S
C305 C303 1.419 . S
C305 C306 1.362 1_545 S
C306 H298 0.930 . S
C306 C305 1.362 1_565 S
C306 C309 1.409 . S
C307 H299 0.930 1_655 S
C307 C308 1.355 1_556 S
C307 C309 1.415 1_655 S
C308 C307 1.355 1_554 S
C308 C310 1.419 . S
C309 C304 1.425 1_466 S
C309 C306 1.409 . S
C309 C307 1.415 1_455 S
C310 H300 0.930 . S
C310 C308 1.419 . S
C310 C311 1.362 1_565 S
C311 H301 0.930 . S
C311 C304 1.409 . S
C311 C310 1.362 1_545 S
H312 C318 0.930 . S
H313 C321 0.930 . S
H314 C322 0.930 . S
H315 C323 0.930 . S
H316 C326 0.930 . S
H317 C327 0.930 . S
C318 H312 0.930 . S
C318 C319 1.355 . S
C318 C320 1.415 . S
C319 C318 1.355 . S
C319 C321 1.419 . S
C320 C318 1.415 . S
C320 C325 1.425 . S
C320 C327 1.409 . S
C321 H313 0.930 . S
C321 C319 1.419 . S
C321 C322 1.362 . S
C322 H314 0.930 . S
C322 C321 1.362 . S
C322 C325 1.409 . S
C323 H315 0.930 . S
C323 C324 1.355 . S
C323 C325 1.415 . S
C324 C323 1.355 . S
C324 C326 1.419 . S
C325 C320 1.425 . S
C325 C322 1.409 . S
C325 C323 1.415 . S
C326 H316 0.930 . S
C326 C324 1.419 . S
C326 C327 1.362 . S
C327 H317 0.930 . S
C327 C320 1.409 . S
C327 C326 1.362 . S
H328 C334 0.930 . S
H329 C337 0.930 . S
H330 C338 0.930 . S
H331 C339 0.930 . S
H332 C342 0.930 . S
H333 C343 0.930 . S
C334 H328 0.930 . S
C334 C335 1.355 1_556 S
C334 C336 1.415 . S
C335 C334 1.355 1_554 S
C335 C337 1.419 . S
C336 C334 1.415 . S
C336 C341 1.425 1_556 S
C336 C343 1.409 . S
C337 H329 0.930 . S
C337 C335 1.419 . S
C337 C338 1.362 . S
C338 H330 0.930 . S
C338 C337 1.362 . S
C338 C341 1.409 . S
C339 H331 0.930 . S
C339 C340 1.355 1_554 S
C339 C341 1.415 . S
C340 C339 1.355 1_556 S
C340 C342 1.419 . S
C341 C336 1.425 1_554 S
C341 C338 1.409 . S
C341 C339 1.415 . S
C342 H332 0.930 . S
C342 C340 1.419 . S
C342 C343 1.362 . S
C343 H333 0.930 . S
C343 C336 1.409 . S
C343 C342 1.362 . S
H344 C350 0.930 . S
H345 C353 0.924 1_655 S
H346 C354 0.930 . S
H347 C355 0.930 . S
H348 C358 0.924 1_455 S
H349 C359 0.930 . S
C350 H344 0.930 . S
C350 C351 1.355 . S
C350 C352 1.415 1_565 S
C351 C350 1.355 . S
C351 C353 1.443 . S
C352 C350 1.415 1_545 S
C352 C357 1.425 1_445 S
C352 C359 1.409 . S
C353 H345 0.924 1_455 S
C353 C351 1.443 . S
C353 C354 1.344 1_455 S
C354 H346 0.930 . S
C354 C353 1.344 1_655 S
C354 C357 1.409 . S
C355 H347 0.930 . S
C355 C356 1.355 . S
C355 C357 1.415 1_545 S
C356 C355 1.355 . S
C356 C358 1.443 . S
C357 C352 1.425 1_665 S
C357 C354 1.409 . S
C357 C355 1.415 1_565 S
C358 H348 0.924 1_655 S
C358 C356 1.443 . S
C358 C359 1.344 1_655 S
C359 H349 0.930 . S
C359 C352 1.409 . S
C359 C358 1.344 1_455 S
C111 C23 2.017 . S
C116 C3 2.029 . S
C127 C10 2.040 . S
C132 C16 2.058 . S
C143 C49 2.040 . S
C148 C29 2.058 . S
C159 C36 2.036 . S
C164 C42 2.057 . S
C175 C57 2.037 . S
C180 C66 2.015 . S
C191 C70 2.026 . S
C196 C53 2.021 . S
C207 C83 2.025 . S
C212 C92 2.037 . S
C223 C79 2.021 . S
C228 C96 2.050 . S
C239 C1 0.717 . S
C244 C40 0.748 . S
C255 C14 0.744 . S
C260 C27 0.746 . S
C271 C101 0.716 . S
C276 C62 0.661 . S
C287 C88 0.607 . S
C292 C75 0.620 . S
C303 C5 1.967 1_556 S
C308 C55 1.967 1_554 S
C319 C68 1.953 . S
C324 C18 1.953 . S
C335 C81 1.951 . S
C340 C31 1.951 . S
C351 C94 1.971 . S
C356 C44 1.971 . S
