# Generated by pormake.
# Topology atn, (4)-cn, num edge types: 1
# Building blocks:
#     Node 0, Type 0, BuildingBlock: TATPOV_clean_sbu_0, # of connection points: 4
#     Node 1, Type 0, BuildingBlock: TATPOV_clean_sbu_0, # of connection points: 4
#     Node 2, Type 0, BuildingBlock: TATPOV_clean_sbu_0, # of connection points: 4
#     Node 3, Type 0, BuildingBlock: TATPOV_clean_sbu_0, # of connection points: 4
#     Node 4, Type 0, BuildingBlock: TATPOV_clean_sbu_0, # of connection points: 4
#     Node 5, Type 0, BuildingBlock: TATPOV_clean_sbu_0, # of connection points: 4
#     Node 6, Type 0, BuildingBlock: TATPOV_clean_sbu_0, # of connection points: 4
#     Node 7, Type 0, BuildingBlock: TATPOV_clean_sbu_0, # of connection points: 4
#     Node 8, Type 0, BuildingBlock: TATPOV_clean_sbu_0, # of connection points: 4
#     Node 9, Type 0, BuildingBlock: TATPOV_clean_sbu_0, # of connection points: 4
#     Node 10, Type 0, BuildingBlock: TATPOV_clean_sbu_0, # of connection points: 4
#     Node 11, Type 0, BuildingBlock: TATPOV_clean_sbu_0, # of connection points: 4
#     Node 12, Type 0, BuildingBlock: TATPOV_clean_sbu_0, # of connection points: 4
#     Node 13, Type 0, BuildingBlock: TATPOV_clean_sbu_0, # of connection points: 4
#     Node 14, Type 0, BuildingBlock: TATPOV_clean_sbu_0, # of connection points: 4
#     Node 15, Type 0, BuildingBlock: TATPOV_clean_sbu_0, # of connection points: 4
#     Edge 16, Type (0, 0), BuildingBlock: CIFDUS_clean_linker_0, # of connection points: 2
#     Edge 17, Type (0, 0), BuildingBlock: CIFDUS_clean_linker_0, # of connection points: 2
#     Edge 18, Type (0, 0), BuildingBlock: CIFDUS_clean_linker_0, # of connection points: 2
#     Edge 19, Type (0, 0), BuildingBlock: CIFDUS_clean_linker_0, # of connection points: 2
#     Edge 20, Type (0, 0), BuildingBlock: CIFDUS_clean_linker_0, # of connection points: 2
#     Edge 21, Type (0, 0), BuildingBlock: CIFDUS_clean_linker_0, # of connection points: 2
#     Edge 22, Type (0, 0), BuildingBlock: CIFDUS_clean_linker_0, # of connection points: 2
#     Edge 23, Type (0, 0), BuildingBlock: CIFDUS_clean_linker_0, # of connection points: 2
#     Edge 24, Type (0, 0), BuildingBlock: CIFDUS_clean_linker_0, # of connection points: 2
#     Edge 25, Type (0, 0), BuildingBlock: CIFDUS_clean_linker_0, # of connection points: 2
#     Edge 26, Type (0, 0), BuildingBlock: CIFDUS_clean_linker_0, # of connection points: 2
#     Edge 27, Type (0, 0), BuildingBlock: CIFDUS_clean_linker_0, # of connection points: 2
#     Edge 28, Type (0, 0), BuildingBlock: CIFDUS_clean_linker_0, # of connection points: 2
#     Edge 29, Type (0, 0), BuildingBlock: CIFDUS_clean_linker_0, # of connection points: 2
#     Edge 30, Type (0, 0), BuildingBlock: CIFDUS_clean_linker_0, # of connection points: 2
#     Edge 31, Type (0, 0), BuildingBlock: CIFDUS_clean_linker_0, # of connection points: 2
#     Edge 32, Type (0, 0), BuildingBlock: CIFDUS_clean_linker_0, # of connection points: 2
#     Edge 33, Type (0, 0), BuildingBlock: CIFDUS_clean_linker_0, # of connection points: 2
#     Edge 34, Type (0, 0), BuildingBlock: CIFDUS_clean_linker_0, # of connection points: 2
#     Edge 35, Type (0, 0), BuildingBlock: CIFDUS_clean_linker_0, # of connection points: 2
#     Edge 36, Type (0, 0), BuildingBlock: CIFDUS_clean_linker_0, # of connection points: 2
#     Edge 37, Type (0, 0), BuildingBlock: CIFDUS_clean_linker_0, # of connection points: 2
#     Edge 38, Type (0, 0), BuildingBlock: CIFDUS_clean_linker_0, # of connection points: 2
#     Edge 39, Type (0, 0), BuildingBlock: CIFDUS_clean_linker_0, # of connection points: 2
#     Edge 40, Type (0, 0), BuildingBlock: CIFDUS_clean_linker_0, # of connection points: 2
#     Edge 41, Type (0, 0), BuildingBlock: CIFDUS_clean_linker_0, # of connection points: 2
#     Edge 42, Type (0, 0), BuildingBlock: CIFDUS_clean_linker_0, # of connection points: 2
#     Edge 43, Type (0, 0), BuildingBlock: CIFDUS_clean_linker_0, # of connection points: 2
#     Edge 44, Type (0, 0), BuildingBlock: CIFDUS_clean_linker_0, # of connection points: 2
#     Edge 45, Type (0, 0), BuildingBlock: CIFDUS_clean_linker_0, # of connection points: 2
#     Edge 46, Type (0, 0), BuildingBlock: CIFDUS_clean_linker_0, # of connection points: 2
#     Edge 47, Type (0, 0), BuildingBlock: CIFDUS_clean_linker_0, # of connection points: 2
# Relax obj value: 0.074
# Max RMSD: 0.103
# Mean RMSD: 0.103
data_MOF--net-atn--node1-TATPOV_clean_sbu_0--edge1-CIFDUS_clean_linker_0
_symmetry_space_group_name_H-M    P1
_symmetry_Int_Tables_number       1
_symmetry_cell_setting            triclinic
loop_
_symmetry_equiv_pos_as_xyz
'x, y, z'
_cell_length_a     52.932729
_cell_length_b     52.427871
_cell_length_c     24.018697
_cell_angle_alpha  90.800967
_cell_angle_beta   90.520288
_cell_angle_gamma 90.024667
loop_
_atom_site_label
_atom_site_type_symbol
_atom_site_fract_x
_atom_site_fract_y
_atom_site_fract_z
_atom_type_partial_charge
Zn0 Zn 0.18146 0.35211 0.97116 0.0
Zn1 Zn 0.20965 0.39429 0.9699 0.0
O2 O 0.193 0.39266 0.89201 0.0
O3 O 0.16993 0.35772 0.89308 0.0
O4 O 0.22613 0.42912 0.97219 0.0
O5 O 0.15999 0.36456 0.03347 0.0
O6 O 0.18553 0.39759 0.03672 0.0
C7 C 0.17777 0.37715 0.86782 0.0
C8 C 0.23569 0.3436 -0.01192 0.0
O9 O 0.23796 0.36751 -0.01975 0.0
O10 O 0.214 0.33331 -0.01256 0.0
C11 C 0.23375 0.43853 0.01848 0.0
O12 O 0.23331 0.42418 0.06288 0.0
C13 C 0.16683 0.38536 0.05613 0.0
Zn14 Zn 0.66919 0.18762 -0.01467 0.0
Zn15 Zn 0.62712 0.21552 -0.00828 0.0
O16 O 0.62229 0.19195 0.92254 0.0
O17 O 0.65516 0.16632 0.9231 0.0
O18 O 0.59259 0.23146 0.00246 0.0
O19 O 0.66642 0.17522 0.06318 0.0
O20 O 0.63152 0.19786 0.06712 0.0
C21 C 0.63436 0.17311 0.90168 0.0
C22 C 0.67647 0.24262 0.96986 0.0
O23 O 0.65291 0.24465 -0.02007 0.0
O24 O 0.6869 0.22085 0.96887 0.0
C25 C 0.57615 0.23412 0.96403 0.0
O26 O 0.58235 0.2288 0.91232 0.0
C27 C 0.64733 0.18285 0.08989 0.0
Zn28 Zn 0.84765 0.66784 0.92189 0.0
Zn29 Zn 0.8168 0.62837 0.92051 0.0
O30 O 0.84132 0.62406 0.8542 0.0
O31 O 0.86955 0.65465 0.86141 0.0
O32 O 0.79928 0.59404 0.92076 0.0
O33 O 0.85785 0.66284 0.00066 0.0
O34 O 0.83188 0.6301 -9e-05 0.0
C35 C 0.86119 0.63497 0.83653 0.0
C36 C 0.79429 0.68012 0.89997 0.0
O37 O 0.78998 0.65645 0.90746 0.0
O38 O 0.8167 0.68864 0.90285 0.0
C39 C 0.79336 0.58211 0.87604 0.0
O40 O 0.79601 0.59365 0.82823 0.0
C41 C 0.84767 0.64449 0.02557 0.0
Zn42 Zn 0.34423 0.84244 -0.00673 0.0
Zn43 Zn 0.38633 0.81418 -0.00286 0.0
O44 O 0.39068 0.83759 0.92939 0.0
O45 O 0.35747 0.8628 0.93046 0.0
O46 O 0.4204 0.79716 0.00433 0.0
O47 O 0.34941 0.85551 0.07095 0.0
O48 O 0.38399 0.83229 0.07322 0.0
C49 C 0.37825 0.85618 0.90913 0.0
C50 C 0.33611 0.78749 -0.02239 0.0
O51 O 0.35989 0.78551 -0.01445 0.0
O52 O 0.32571 0.80928 -0.0219 0.0
C53 C 0.43431 0.79136 0.96318 0.0
O54 O 0.4255 0.79448 0.91242 0.0
C55 C 0.36887 0.84789 0.09667 0.0
Zn56 Zn 0.16872 0.67472 0.96685 0.0
Zn57 Zn 0.20075 0.63635 0.9699 0.0
O58 O 0.18358 0.63682 0.04708 0.0
O59 O 0.15677 0.66882 0.04357 0.0
O60 O 0.21947 0.60271 0.96657 0.0
O61 O 0.14874 0.66134 0.90251 0.0
O62 O 0.17835 0.63208 0.89951 0.0
C63 C 0.16673 0.6507 0.07008 0.0
C64 C 0.22212 0.68892 0.95441 0.0
O65 O 0.22687 0.66536 0.96215 0.0
O66 O 0.19944 0.69673 0.95364 0.0
C67 C 0.22634 0.58954 0.00811 0.0
O68 O 0.22362 0.59904 0.05859 0.0
C69 C 0.15863 0.64226 0.87858 0.0
Zn70 Zn 0.33873 0.17054 -0.0044 0.0
Zn71 Zn 0.37845 0.20064 -0.01945 0.0
O72 O 0.38715 0.1794 0.05002 0.0
O73 O 0.35613 0.15172 0.05589 0.0
O74 O 0.41144 0.21835 0.96348 0.0
O75 O 0.33913 0.15594 0.91894 0.0
O76 O 0.37208 0.18081 0.90725 0.0
C77 C 0.37706 0.16032 0.07356 0.0
C78 C 0.32859 0.22539 0.00895 0.0
O79 O 0.35161 0.22853 -0.00473 0.0
O80 O 0.31957 0.20307 0.01275 0.0
C81 C 0.42742 0.22559 0.00028 0.0
O82 O 0.42164 0.22367 0.05314 0.0
C83 C 0.35653 0.16418 0.88836 0.0
Zn84 Zn 0.84701 0.34459 -0.0255 0.0
Zn85 Zn 0.81896 0.3867 0.9728 0.0
O86 O 0.83378 0.38532 0.0521 0.0
O87 O 0.85638 0.35011 0.05389 0.0
O88 O 0.80263 0.42161 0.97208 0.0
O89 O 0.87059 0.35683 0.91694 0.0
O90 O 0.84476 0.38942 0.90913 0.0
C91 C 0.84813 0.36993 0.0781 0.0
C92 C 0.79331 0.33599 0.94971 0.0
O93 O 0.79077 0.35993 0.95833 0.0
O94 O 0.81499 0.32579 0.95253 0.0
C95 C 0.79675 0.43278 0.9271 0.0
O96 O 0.79918 0.42036 0.87955 0.0
C97 C 0.86429 0.37721 0.89311 0.0
Zn98 Zn 0.67617 0.83576 0.93035 0.0
Zn99 Zn 0.63312 0.80908 0.93017 0.0
O100 O 0.63409 0.8269 0.00736 0.0
O101 O 0.66958 0.84881 0.0073 0.0
O102 O 0.59821 0.7935 0.92457 0.0
O103 O 0.66568 0.85695 0.86596 0.0
O104 O 0.63186 0.83264 0.86203 0.0
C105 C 0.64963 0.84206 0.03164 0.0
C106 C 0.68246 0.78048 0.91646 0.0
O107 O 0.65858 0.77936 0.92271 0.0
O108 O 0.69363 0.80189 0.91708 0.0
C109 C 0.58419 0.78817 0.96551 0.0
O110 O 0.59322 0.79078 0.0164 0.0
C111 C 0.64509 0.85069 0.84245 0.0
Zn112 Zn 0.68028 0.85316 0.44896 0.0
Zn113 Zn 0.70709 0.89548 0.44573 0.0
O114 O 0.68899 0.89255 0.36912 0.0
O115 O 0.66644 0.85737 0.37248 0.0
O116 O 0.72188 0.93107 0.44411 0.0
O117 O 0.65988 0.8643 0.51381 0.0
O118 O 0.68524 0.89746 0.51682 0.0
C119 C 0.67369 0.87671 0.34617 0.0
C120 C 0.73513 0.84602 0.46039 0.0
O121 O 0.73669 0.87001 0.45291 0.0
O122 O 0.71368 0.83524 0.46142 0.0
C123 C 0.72957 0.94243 0.48826 0.0
O124 O 0.73024 0.92979 0.53511 0.0
C125 C 0.66728 0.88462 0.53769 0.0
Zn126 Zn 0.17317 0.69014 0.48804 0.0
Zn127 Zn 0.13043 0.7177 0.48644 0.0
O128 O 0.13094 0.70026 0.40898 0.0
O129 O 0.1662 0.67796 0.41033 0.0
O130 O 0.09597 0.73411 0.49268 0.0
O131 O 0.16186 0.66865 0.5509 0.0
O132 O 0.12838 0.69339 0.55279 0.0
C133 C 0.14634 0.68499 0.38522 0.0
C134 C 0.1805 0.74512 0.50396 0.0
O135 O 0.15667 0.7467 0.49628 0.0
O136 O 0.19126 0.72352 0.50345 0.0
C137 C 0.08046 0.73796 0.45296 0.0
O138 O 0.0875 0.73325 0.40153 0.0
C139 C 0.1411 0.67495 0.57269 0.0
Zn140 Zn 0.33765 0.18212 0.45487 0.0
Zn141 Zn 0.31291 0.1382 0.46962 0.0
O142 O 0.33547 0.13195 0.40104 0.0
O143 O 0.35833 0.16679 0.39442 0.0
O144 O 0.29837 0.10314 0.48351 0.0
O145 O 0.35172 0.18221 0.53196 0.0
O146 O 0.33202 0.14566 0.54279 0.0
C147 C 0.35298 0.14447 0.37762 0.0
C148 C 0.28277 0.18589 0.44287 0.0
O149 O 0.28262 0.16243 0.4564 0.0
O150 O 0.30354 0.19768 0.43822 0.0
C151 C 0.29181 0.08809 0.44397 0.0
O152 O 0.2926 0.09626 0.39254 0.0
C153 C 0.34639 0.16331 0.56176 0.0
Zn154 Zn 0.83817 0.34437 0.49596 0.0
Zn155 Zn 0.88251 0.32024 0.50509 0.0
O156 O 0.88267 0.33386 0.42526 0.0
O157 O 0.84589 0.35322 0.41786 0.0
O158 O 0.91791 0.30645 0.51685 0.0
O159 O 0.8462 0.36993 0.55507 0.0
O160 O 0.88113 0.34793 0.56711 0.0
C161 C 0.86679 0.3467 0.397 0.0
C162 C 0.83398 0.29015 0.51993 0.0
O163 O 0.85798 0.28988 0.51542 0.0
O164 O 0.82187 0.31086 0.51499 0.0
C165 C 0.93237 0.29851 0.47829 0.0
O166 O 0.92367 0.29721 0.42692 0.0
C167 C 0.8667 0.36639 0.58112 0.0
Zn168 Zn 0.67008 0.17648 0.51338 0.0
Zn169 Zn 0.70121 0.1374 0.51051 0.0
O170 O 0.6773 0.13226 0.57742 0.0
O171 O 0.64869 0.1625 0.57318 0.0
O172 O 0.71931 0.10346 0.50625 0.0
O173 O 0.65944 0.17206 0.43431 0.0
O174 O 0.6856 0.13951 0.43163 0.0
C175 C 0.6574 0.14286 0.5964 0.0
C176 C 0.72339 0.18917 0.5355 0.0
O177 O 0.72782 0.16562 0.52563 0.0
O178 O 0.70091 0.19752 0.53382 0.0
C179 C 0.72666 0.09169 0.54939 0.0
O180 O 0.72476 0.10303 0.5983 0.0
C181 C 0.66961 0.15392 0.40756 0.0
Zn182 Zn 0.84388 0.67638 0.45032 0.0
Zn183 Zn 0.88326 0.70811 0.44534 0.0
O184 O 0.89067 0.68518 0.51281 0.0
O185 O 0.8602 0.65666 0.51117 0.0
O186 O 0.916 0.72724 0.43511 0.0
O187 O 0.84763 0.66424 0.37179 0.0
O188 O 0.8804 0.68996 0.36927 0.0
C189 C 0.88042 0.66529 0.53261 0.0
C190 C 0.83183 0.7305 0.46939 0.0
O191 O 0.85509 0.73469 0.45949 0.0
O192 O 0.82336 0.70786 0.46877 0.0
C193 C 0.93124 0.73325 0.47436 0.0
O194 O 0.92458 0.72928 0.52609 0.0
C195 C 0.86601 0.67353 0.34564 0.0
Zn196 Zn 0.34725 0.85689 0.51696 0.0
Zn197 Zn 0.31623 0.89605 0.51413 0.0
O198 O 0.33892 0.90079 0.58452 0.0
O199 O 0.36752 0.8705 0.5805 0.0
O200 O 0.29847 0.93015 0.50772 0.0
O201 O 0.35952 0.86137 0.43995 0.0
O202 O 0.33328 0.89379 0.43735 0.0
C203 C 0.35848 0.88995 0.60468 0.0
C204 C 0.29355 0.84422 0.53149 0.0
O205 O 0.28929 0.86788 0.5237 0.0
O206 O 0.31603 0.83585 0.53143 0.0
C207 C 0.2942 0.945 0.54888 0.0
O208 O 0.29884 0.93697 0.59952 0.0
C209 C 0.34966 0.87961 0.41374 0.0
Zn210 Zn 0.17048 0.35114 0.44538 0.0
Zn211 Zn 0.13099 0.32023 0.44773 0.0
O212 O 0.13298 0.33709 0.52614 0.0
O213 O 0.16615 0.36234 0.52399 0.0
O214 O 0.09694 0.30231 0.44484 0.0
O215 O 0.15691 0.37266 0.38468 0.0
O216 O 0.12685 0.34383 0.37995 0.0
C217 C 0.14777 0.35309 0.55018 0.0
C218 C 0.18205 0.29697 0.42569 0.0
O219 O 0.15875 0.29293 0.43556 0.0
O220 O 0.19067 0.31954 0.4262 0.0
C221 C 0.08251 0.29936 0.48636 0.0
O222 O 0.09078 0.30572 0.53637 0.0
C223 C 0.13742 0.3637 0.36082 0.0
H224 H 0.23849 0.5547 0.08731 0.0
H225 H 0.22889 0.56284 0.90972 0.0
H226 H 0.23299 0.51685 0.89664 0.0
H227 H 0.23456 0.47397 0.93639 0.0
H228 H 0.24357 0.46574 0.11406 0.0
H229 H 0.24475 0.512 0.12602 0.0
C230 C 0.23768 0.54648 0.04564 0.0
C231 C 0.23302 0.56226 -0.00027 0.0
C232 C 0.23975 0.5199 0.03836 0.0
C233 C 0.23225 0.55122 0.94598 0.0
C234 C 0.23451 0.52485 0.93839 0.0
C235 C 0.23716 0.48226 -0.02233 0.0
C236 C 0.23863 0.46633 0.02428 0.0
C237 C 0.23752 0.50894 -0.01558 0.0
C238 C 0.24222 0.47747 0.07739 0.0
C239 C 0.24281 0.50398 0.08436 0.0
H240 H 0.46745 0.23742 0.06813 0.0
H241 H 0.44632 0.22836 0.89493 0.0
H242 H 0.49038 0.23298 0.86799 0.0
H243 H 0.53531 0.23504 0.89409 0.0
H244 H 0.55652 0.24306 0.06746 0.0
H245 H 0.5121 0.24372 0.09353 0.0
C246 C 0.4724 0.23681 0.02442 0.0
C247 C 0.45356 0.23222 -0.01625 0.0
C248 C 0.49788 0.23913 0.00915 0.0
C249 C 0.46039 0.23167 0.92725 0.0
C250 C 0.48564 0.23425 0.91174 0.0
C251 C 0.53025 0.23733 0.93753 0.0
C252 C 0.54932 0.23868 -0.02127 0.0
C253 C 0.50462 0.23729 0.95242 0.0
C254 C 0.54231 0.24178 0.0348 0.0
C255 C 0.51687 0.24209 0.04984 0.0
H256 H 0.787 0.4632 0.83832 0.0
H257 H 0.79412 0.46493 0.01756 0.0
H258 H 0.79099 0.51135 0.01794 0.0
H259 H 0.79066 0.5516 0.96689 0.0
H260 H 0.7845 0.54991 0.78751 0.0
H261 H 0.7825 0.50342 0.78793 0.0
C262 C 0.78752 0.47367 0.87758 0.0
C263 C 0.7911 0.46052 0.92776 0.0
C264 C 0.78604 0.50046 0.87751 0.0
C265 C 0.79155 0.47448 -0.02178 0.0
C266 C 0.78983 0.50109 -0.02149 0.0
C267 C 0.7885 0.54112 0.92789 0.0
C268 C 0.78804 0.55431 0.87721 0.0
C269 C 0.78774 0.51431 0.92831 0.0
C270 C 0.78506 0.54033 0.82716 0.0
C271 C 0.78401 0.51369 0.82731 0.0
H272 H 0.54748 0.78265 0.04329 0.0
H273 H 0.55942 0.78272 0.8657 0.0
H274 H 0.51392 0.78097 0.84928 0.0
H275 H 0.47075 0.78404 0.8852 0.0
H276 H 0.45881 0.78518 0.0628 0.0
H277 H 0.5042 0.78153 0.07913 0.0
C278 C 0.54017 0.78189 0.00097 0.0
C279 C 0.5569 0.78314 0.95587 0.0
C280 C 0.51391 0.7813 -0.00827 0.0
C281 C 0.54703 0.782 0.90129 0.0
C282 C 0.52097 0.78106 0.8918 0.0
C283 C 0.47801 0.78311 0.92749 0.0
C284 C 0.46135 0.78521 0.97265 0.0
C285 C 0.50422 0.78143 0.93669 0.0
C286 C 0.47116 0.78382 0.02718 0.0
C287 C 0.49716 0.7818 0.03662 0.0
H288 H 0.72776 0.06141 0.45617 0.0
H289 H 0.73996 0.05994 0.63408 0.0
H290 H 0.74453 0.01364 0.62992 0.0
H291 H 0.74071 0.97329 0.57736 0.0
H292 H 0.72731 0.97472 0.39984 0.0
H293 H 0.72785 0.02126 0.40234 0.0
C294 C 0.73178 0.05104 0.49398 0.0
C295 C 0.73322 0.06419 0.54546 0.0
C296 C 0.73399 0.02433 0.49147 0.0
C297 C 0.73858 0.05037 0.59391 0.0
C298 C 0.74113 0.02383 0.59162 0.0
C299 C 0.73827 0.98374 0.53904 0.0
C300 C 0.73369 0.97044 0.4886 0.0
C301 C 0.7382 1.01056 0.54086 0.0
C302 C 0.7307 0.98438 0.43936 0.0
C303 C 0.73093 1.01105 0.44074 0.0
H304 H 0.97007 0.74251 0.54717 0.0
H305 H 0.95206 0.73906 0.37153 0.0
H306 H 0.99672 0.74309 0.34925 0.0
H307 H 0.04116 0.74255 0.37955 0.0
H308 H 0.05916 0.74509 0.55525 0.0
H309 H 0.01433 0.74678 0.5773 0.0
C310 C 0.97584 0.74305 0.50399 0.0
C311 C 0.9577 0.74011 0.46119 0.0
C312 C 1.00164 0.74499 0.49136 0.0
C313 C 0.96558 0.74107 0.40544 0.0
C314 C 0.99117 0.74329 0.39258 0.0
C315 C 0.03532 0.74388 0.42266 0.0
C316 C 0.05357 0.74331 0.46561 0.0
C317 C 0.00943 0.74448 0.43519 0.0
C318 C 0.04558 0.74526 0.52125 0.0
C319 C 0.01989 0.74615 0.53398 0.0
H320 H 0.28883 0.06494 0.54476 0.0
H321 H 0.28398 0.04961 0.3679 0.0
H322 H 0.28171 1.00393 0.38511 0.0
H323 H 0.28533 0.9682 0.44968 0.0
H324 H 0.29072 0.98347 0.6265 0.0
H325 H 0.28819 0.0292 0.60989 0.0
C326 C 0.28696 0.05165 0.50996 0.0
C327 C 0.2869 0.06076 0.45507 0.0
C328 C 0.28588 0.02532 0.52009 0.0
C329 C 0.28423 0.04321 0.41058 0.0
C330 C 0.28299 0.01702 0.42035 0.0
C331 C 0.28559 0.98148 0.4847 0.0
C332 C 0.28853 0.97233 0.53923 0.0
C333 C 0.28445 1.00783 0.47485 0.0
C334 C 0.28862 0.98989 0.58405 0.0
C335 C 0.28727 0.01611 0.5746 0.0
H336 H 0.04523 0.29816 0.56371 0.0
H337 H 0.05865 0.28705 0.388 0.0
H338 H 0.01328 0.28335 0.37073 0.0
H339 H 0.9697 0.28761 0.40411 0.0
H340 H 0.95641 0.30008 0.5795 0.0
H341 H 1.00175 0.29868 0.59813 0.0
C342 C 0.0383 0.29455 0.52171 0.0
C343 C 0.0554 0.29316 0.4772 0.0
C344 C 0.01213 0.29291 0.51186 0.0
C345 C 0.04598 0.28837 0.42308 0.0
C346 C 0.01999 0.28633 0.41309 0.0
C347 C 0.97667 0.28968 0.44653 0.0
C348 C 0.9596 0.29423 0.4902 0.0
C349 C 1.00286 0.28925 0.45695 0.0
C350 C 0.96905 0.29675 0.54494 0.0
C351 C 0.99503 0.296 0.55569 0.0
H352 H 0.23691 0.29937 0.04295 0.0
H353 H 0.28439 0.35045 0.95146 0.0
H354 H 0.31889 0.31912 0.95418 0.0
H355 H 0.33368 0.27504 -0.02552 0.0
H356 H 0.2846 0.22488 0.06519 0.0
H357 H 0.25277 0.25807 0.07112 0.0
C358 C 0.2549 0.3038 0.024 0.0
C359 C 0.25799 0.32699 -0.00367 0.0
C360 C 0.27434 0.28573 0.02528 0.0
C361 C 0.28154 0.33266 0.97292 0.0
C362 C 0.3012 0.31468 -0.02579 0.0
C363 C 0.31619 0.27158 -0.00372 0.0
C364 C 0.31142 0.24732 0.01856 0.0
C365 C 0.29758 0.29083 -0.00093 0.0
C366 C 0.28866 0.24318 0.04685 0.0
C367 C 0.27039 0.26217 0.05036 0.0
H368 H 0.74418 0.3418 -0.01583 0.0
H369 H 0.79338 0.29212 0.8899 0.0
H370 H 0.76025 0.26012 0.88265 0.0
H371 H 0.71954 0.24408 0.91188 0.0
H372 H 0.6697 0.29193 0.00835 0.0
H373 H 0.70056 0.32692 0.00527 0.0
C374 C 0.74738 0.32418 0.96113 0.0
C375 C 0.77133 0.3192 0.93822 0.0
C376 C 0.72824 0.30542 0.95802 0.0
C377 C 0.77526 0.29627 0.90857 0.0
C378 C 0.75632 0.27792 0.90439 0.0
C379 C 0.71526 0.26226 0.93179 0.0
C380 C 0.69258 0.2653 0.96104 0.0
C381 C 0.73311 0.28194 0.93048 0.0
C382 C 0.6871 0.28911 -0.01431 0.0
C383 C 0.70481 0.30904 -0.01581 0.0
H384 H 0.74434 0.67751 0.93085 0.0
H385 H 0.7982 0.72443 0.84519 0.0
H386 H 0.7674 0.75856 0.83861 0.0
H387 H 0.72715 0.7769 0.86505 0.0
H388 H 0.67243 0.73171 0.95171 0.0
H389 H 0.70136 0.69505 0.94947 0.0
C390 C 0.74909 0.69504 0.90991 0.0
C391 C 0.77367 0.69853 0.88925 0.0
C392 C 0.73125 0.71501 0.90695 0.0
C393 C 0.77957 0.72136 0.8622 0.0
C394 C 0.76197 0.74095 0.85838 0.0
C395 C 0.72141 0.75897 0.88313 0.0
C396 C 0.69788 0.75712 0.90927 0.0
C397 C 0.73809 0.73827 0.88202 0.0
C398 C 0.69053 0.73362 0.93149 0.0
C399 C 0.70711 0.71272 0.93043 0.0
H400 H 0.27247 0.68528 -0.0164 0.0
H401 H 0.2175 0.73552 0.90886 0.0
H402 H 0.24862 0.76942 0.90552 0.0
H403 H 0.2899 0.78618 0.93035 0.0
H404 H 0.34578 0.73765 0.00632 0.0
H405 H 0.31604 0.70167 0.00192 0.0
C406 C 0.26748 0.70354 0.96595 0.0
C407 C 0.24255 0.70791 0.94726 0.0
C408 C 0.28555 0.72334 0.96466 0.0
C409 C 0.23639 0.73169 0.92436 0.0
C410 C 0.25419 0.75115 0.92232 0.0
C411 C 0.29572 0.7677 0.94571 0.0
C412 C 0.31988 0.76469 0.96935 0.0
C413 C 0.27857 0.74739 0.94354 0.0
C414 C 0.32723 0.74048 -0.01194 0.0
C415 C 0.31018 0.71996 -0.01422 0.0
H416 H 0.83529 0.78094 0.43967 0.0
H417 H 0.78777 0.72722 0.52451 0.0
H418 H 0.75488 0.7592 0.5337 0.0
H419 H 0.73782 0.80059 0.51024 0.0
H420 H 0.78354 0.85512 0.42389 0.0
H421 H 0.81901 0.82489 0.42344 0.0
C422 C 0.81789 0.77644 0.46088 0.0
C423 C 0.81388 0.75158 0.48063 0.0
C424 C 0.79865 0.79498 0.46541 0.0
C425 C 0.79123 0.74604 0.50812 0.0
C426 C 0.77236 0.76433 0.5135 0.0
C427 C 0.75561 0.80601 0.49164 0.0
C428 C 0.75793 0.82988 0.46638 0.0
C429 C 0.77559 0.78856 0.49098 0.0
C430 C 0.78126 0.83679 0.44346 0.0
C431 C 0.80148 0.81945 0.44296 0.0
H432 H 0.24372 0.84754 0.49794 0.0
H433 H 0.29702 0.7989 0.58274 0.0
H434 H 0.26589 0.76497 0.58556 0.0
H435 H 0.22539 0.74747 0.55669 0.0
H436 H 0.17116 0.79443 0.47097 0.0
H437 H 0.20058 0.83069 0.47635 0.0
C438 C 0.2483 0.82966 0.51779 0.0
C439 C 0.27281 0.82567 0.53936 0.0
C440 C 0.23025 0.80983 0.51868 0.0
C441 C 0.27846 0.80238 0.56503 0.0
C442 C 0.26066 0.78291 0.56673 0.0
C443 C 0.21987 0.76569 0.53945 0.0
C444 C 0.19632 0.76816 0.51272 0.0
C445 C 0.23682 0.78616 0.54236 0.0
C446 C 0.18927 0.79203 0.49161 0.0
C447 C 0.20613 0.81271 0.49448 0.0
H448 H 0.27666 0.22831 0.38279 0.0
H449 H 0.2357 0.1763 0.48614 0.0
H450 H 0.19902 0.20499 0.48503 0.0
H451 H 0.18075 0.24763 0.46338 0.0
H452 H 0.22369 0.29919 0.36235 0.0
H453 H 0.25726 0.26786 0.35351 0.0
C454 C 0.25961 0.22306 0.40463 0.0
C455 C 0.25903 0.20043 0.4352 0.0
C456 C 0.23897 0.23973 0.40452 0.0
C457 C 0.23664 0.19368 0.46239 0.0
C458 C 0.21574 0.21017 0.46203 0.0
C459 C 0.19725 0.25171 0.43862 0.0
C460 C 0.19988 0.27584 0.4142 0.0
C461 C 0.21696 0.23365 0.43454 0.0
C462 C 0.22138 0.28093 0.38226 0.0
C463 C 0.24062 0.26302 0.37712 0.0
H464 H 0.79009 0.28645 0.57393 0.0
H465 H 0.84499 0.24103 0.4859 0.0
H466 H 0.81644 0.20405 0.48802 0.0
H467 H 0.77345 0.1865 0.50549 0.0
H468 H 0.7193 0.23369 0.59232 0.0
H469 H 0.75003 0.26794 0.60051 0.0
C470 C 0.79597 0.26836 0.55577 0.0
C471 C 0.81938 0.26653 0.52908 0.0
C472 C 0.77946 0.24752 0.55659 0.0
C473 C 0.82698 0.24288 0.50663 0.0
C474 C 0.81059 0.22182 0.50753 0.0
C475 C 0.76862 0.20411 0.52707 0.0
C476 C 0.74396 0.20767 0.54742 0.0
C477 C 0.78642 0.22414 0.53099 0.0
C478 C 0.73798 0.23058 0.57541 0.0
C479 C 0.75555 0.25023 0.5802 0.0
H480 H 0.15661 0.40483 0.30853 0.0
H481 H 0.10281 0.34345 0.28721 0.0
H482 H 0.10281 0.3495 0.18676 0.0
H483 H 0.12613 0.36457 0.1061 0.0
H484 H 0.1829 0.42313 0.12788 0.0
H485 H 0.1733 0.4262 0.22684 0.0
C486 C 0.14433 0.39323 0.28209 0.0
C487 C 0.13048 0.37308 0.30503 0.0
C488 C 0.14534 0.39599 0.22427 0.0
C489 C 0.11409 0.35873 0.27048 0.0
C490 C 0.11423 0.36205 0.21293 0.0
C491 C 0.13597 0.37848 0.13219 0.0
C492 C 0.15584 0.39291 0.11017 0.0
C493 C 0.13109 0.3794 0.18937 0.0
C494 C 0.1679 0.41138 0.14406 0.0
C495 C 0.16251 0.41306 0.20077 0.0
H496 H 0.63295 0.17735 0.348 0.0
H497 H 0.69559 0.12512 0.3314 0.0
H498 H 0.69227 0.12741 0.23008 0.0
H499 H 0.67508 0.14839 0.14744 0.0
H500 H 0.61326 0.2016 0.1647 0.0
H501 H 0.61267 0.19456 0.26484 0.0
C502 C 0.64568 0.16618 0.32226 0.0
C503 C 0.66478 0.15146 0.34714 0.0
C504 C 0.64399 0.16796 0.26428 0.0
C505 C 0.68083 0.13675 0.31325 0.0
C506 C 0.67904 0.13815 0.25534 0.0
C507 C 0.66128 0.15825 0.17298 0.0
C508 C 0.64455 0.17585 0.14881 0.0
C509 C 0.66125 0.15437 0.23056 0.0
C510 C 0.62651 0.18813 0.18233 0.0
C511 C 0.62619 0.18417 0.23961 0.0
H512 H 0.83998 0.63814 0.28469 0.0
H513 H 0.90022 0.69344 0.27377 0.0
H514 H 0.90212 0.68639 0.17336 0.0
H515 H 0.88326 0.6686 0.08828 0.0
H516 H 0.82193 0.61456 0.09835 0.0
H517 H 0.82427 0.61668 0.19993 0.0
C518 C 0.85373 0.64845 0.26047 0.0
C519 C 0.86959 0.66665 0.2865 0.0
C520 C 0.85448 0.6446 0.20271 0.0
C521 C 0.88758 0.67954 0.25468 0.0
C522 C 0.88867 0.67555 0.19725 0.0
C523 C 0.87061 0.65699 0.11263 0.0
C524 C 0.85213 0.64182 0.08589 0.0
C525 C 0.87167 0.65875 0.17074 0.0
C526 C 0.8362 0.62655 0.11797 0.0
C527 C 0.83743 0.62787 0.17603 0.0
H528 H 0.38579 0.85519 0.35442 0.0
H529 H 0.32503 0.90964 0.33852 0.0
H530 H 0.32795 0.90687 0.23725 0.0
H531 H 0.34354 0.88441 0.15439 0.0
H532 H 0.40319 0.82873 0.17072 0.0
H533 H 0.40504 0.83678 0.27096 0.0
C534 C 0.37343 0.86677 0.32886 0.0
C535 C 0.35487 0.88218 0.35388 0.0
C536 C 0.37481 0.86464 0.27085 0.0
C537 C 0.33933 0.89743 0.32026 0.0
C538 C 0.34089 0.89575 0.26236 0.0
C539 C 0.35717 0.87425 0.17975 0.0
C540 C 0.37282 0.85561 0.15537 0.0
C541 C 0.35787 0.87866 0.23735 0.0
C542 C 0.39072 0.84298 0.18858 0.0
C543 C 0.39176 0.84752 0.24591 0.0
H544 H 0.16293 0.63455 0.62347 0.0
H545 H 0.10245 0.68925 0.64117 0.0
H546 H 0.0981 0.67819 0.73886 0.0
H547 H 0.11823 0.66085 0.82209 0.0
H548 H 0.1812 0.60905 0.80548 0.0
H549 H 0.17719 0.61042 0.70438 0.0
C550 C 0.14839 0.64364 0.64833 0.0
C551 C 0.13367 0.66335 0.62572 0.0
C552 C 0.1466 0.63786 0.70488 0.0
C553 C 0.11442 0.67441 0.65793 0.0
C554 C 0.11197 0.66816 0.71389 0.0
C555 C 0.13064 0.64928 0.79643 0.0
C556 C 0.1506 0.63567 0.82114 0.0
C557 C 0.12902 0.65111 0.73843 0.0
C558 C 0.16602 0.62016 0.78746 0.0
C559 C 0.16388 0.62109 0.72957 0.0
H560 H 0.33158 0.13124 0.64284 0.0
H561 H 0.38158 0.19441 0.61106 0.0
H562 H 0.39206 0.19774 0.70989 0.0
H563 H 0.38284 0.18636 0.80587 0.0
H564 H 0.3309 0.12489 0.83813 0.0
H565 H 0.32572 0.11698 0.73838 0.0
C566 C 0.34507 0.14548 0.6574 0.0
C567 C 0.35544 0.16282 0.6199 0.0
C568 C 0.35055 0.14771 0.71438 0.0
C569 C 0.37303 0.18106 0.63929 0.0
C570 C 0.37905 0.18299 0.69578 0.0
C571 C 0.37075 0.17092 0.79113 0.0
C572 C 0.35697 0.15651 0.82919 0.0
C573 C 0.36728 0.16697 0.73383 0.0
C574 C 0.34146 0.13649 0.80952 0.0
C575 C 0.33844 0.13198 0.75253 0.0
H576 H 0.84765 0.41018 0.81483 0.0
H577 H 0.9085 0.35821 0.85225 0.0
H578 H 0.91928 0.35549 0.75401 0.0
H579 H 0.90359 0.35824 0.65817 0.0
H580 H 0.84042 0.40744 0.6211 0.0
H581 H 0.83884 0.42134 0.71811 0.0
C582 C 0.86383 0.39898 0.80177 0.0
C583 C 0.87655 0.38355 0.84021 0.0
C584 C 0.86917 0.39655 0.74495 0.0
C585 C 0.8979 0.36966 0.823 0.0
C586 C 0.90401 0.36798 0.76677 0.0
C587 C 0.88999 0.3726 0.67093 0.0
C588 C 0.87146 0.38093 0.63317 0.0
C589 C 0.88852 0.37976 0.72719 0.0
C590 C 0.85442 0.40009 0.64988 0.0
C591 C 0.85343 0.40803 0.70543 0.0
H592 H 0.66698 0.89148 0.79405 0.0
H593 H 0.6086 0.83486 0.76839 0.0
H594 H 0.60612 0.8455 0.66997 0.0
H595 H 0.62719 0.86368 0.58946 0.0
H596 H 0.68779 0.91791 0.6144 0.0
H597 H 0.68217 0.91601 0.71495 0.0
C598 C 0.6533 0.88186 0.7672 0.0
C599 C 0.6386 0.86182 0.78804 0.0
C600 C 0.65255 0.88748 0.71038 0.0
C601 C 0.62048 0.85003 0.75317 0.0
C602 C 0.61912 0.85602 0.69679 0.0
C603 C 0.63874 0.87561 0.61681 0.0
C604 C 0.65844 0.89023 0.59468 0.0
C605 C 0.63611 0.87362 0.67453 0.0
C606 C 0.67277 0.90614 0.63043 0.0
C607 C 0.66971 0.90489 0.68801 0.0
H608 H 0.86386 0.62239 0.58226 0.0
H609 H 0.91664 0.68466 0.60363 0.0
H610 H 0.92054 0.67536 0.70257 0.0
H611 H 0.90065 0.65706 0.78435 0.0
H612 H 0.84424 0.59808 0.76341 0.0
H613 H 0.85065 0.59803 0.66301 0.0
C614 C 0.87673 0.63354 0.60824 0.0
C615 C 0.8892 0.65479 0.58614 0.0
C616 C 0.87794 0.62887 0.66543 0.0
C617 C 0.90639 0.66854 0.61988 0.0
C618 C 0.90851 0.66332 0.67657 0.0
C619 C 0.89024 0.64366 0.75805 0.0
C620 C 0.87127 0.62831 0.78104 0.0
C621 C 0.89306 0.64469 0.70022 0.0
C622 C 0.85852 0.61054 0.74663 0.0
C623 C 0.86206 0.61063 0.68912 0.0
H624 H 0.39889 0.86994 0.65871 0.0
H625 H 0.33794 0.92387 0.67938 0.0
H626 H 0.34324 0.9223 0.78023 0.0
H627 H 0.35774 0.89766 0.86014 0.0
H628 H 0.41567 0.8405 0.8385 0.0
H629 H 0.41931 0.85162 0.74059 0.0
C630 C 0.3872 0.88191 0.68517 0.0
C631 C 0.36741 0.89626 0.6617 0.0
C632 C 0.38948 0.87991 0.74305 0.0
C633 C 0.35296 0.91223 0.6964 0.0
C634 C 0.35584 0.91118 0.75416 0.0
C635 C 0.37159 0.88802 0.83436 0.0
C636 C 0.38578 0.86766 0.85599 0.0
C637 C 0.37284 0.89378 0.77772 0.0
C638 C 0.40416 0.85588 0.82257 0.0
C639 C 0.40616 0.86215 0.76648 0.0
H640 H 0.17281 0.38966 0.60921 0.0
H641 H 0.11756 0.32968 0.62598 0.0
H642 H 0.11977 0.33435 0.72718 0.0
H643 H 0.14154 0.35137 0.80996 0.0
H644 H 0.19808 0.41011 0.79307 0.0
H645 H 0.19096 0.41019 0.69245 0.0
C646 C 0.16097 0.37782 0.63492 0.0
C647 C 0.1454 0.359 0.61015 0.0
C648 C 0.16275 0.38022 0.69293 0.0
C649 C 0.12985 0.34416 0.64399 0.0
C650 C 0.1312 0.34673 0.70187 0.0
C651 C 0.15212 0.36443 0.7844 0.0
C652 C 0.17068 0.38035 0.80878 0.0
C653 C 0.14826 0.36404 0.72667 0.0
C654 C 0.18385 0.3975 0.77526 0.0
C655 C 0.17986 0.39748 0.71772 0.0
H656 H 0.65438 0.13149 0.8505 0.0
H657 H 0.59748 0.18968 0.83008 0.0
H658 H 0.59493 0.17987 0.7306 0.0
H659 H 0.61646 0.16265 0.64863 0.0
H660 H 0.6765 0.10771 0.66884 0.0
H661 H 0.66968 0.10779 0.76912 0.0
C662 C 0.64094 0.14161 0.82457 0.0
C663 C 0.62681 0.16192 0.84722 0.0
C664 C 0.6404 0.13666 0.76713 0.0
C665 C 0.60895 0.17431 0.81348 0.0
C666 C 0.6076 0.16881 0.75648 0.0
C667 C 0.62761 0.15014 0.67473 0.0
C668 C 0.6476 0.13593 0.65159 0.0
C669 C 0.62444 0.15124 0.73253 0.0
C670 C 0.66135 0.11926 0.68571 0.0
C671 C 0.65758 0.11944 0.74318 0.0
H672 H 0.84379 0.38293 0.33637 0.0
H673 H 0.90045 0.32388 0.32643 0.0
H674 H 0.90219 0.32869 0.22542 0.0
H675 H 0.88308 0.34523 0.14003 0.0
H676 H 0.82521 0.40314 0.15026 0.0
H677 H 0.82877 0.40348 0.25166 0.0
C678 C 0.85677 0.37133 0.31217 0.0
C679 C 0.87154 0.35267 0.3384 0.0
C680 C 0.85729 0.37386 0.25438 0.0
C681 C 0.88872 0.3382 0.30695 0.0
C682 C 0.88962 0.34086 0.24926 0.0
C683 C 0.87147 0.35819 0.16439 0.0
C684 C 0.85349 0.37371 0.13788 0.0
C685 C 0.87327 0.35792 0.22249 0.0
C686 C 0.839 0.3908 0.16979 0.0
C687 C 0.84095 0.39093 0.22772 0.0
H688 H 0.67323 0.88081 0.08656 0.0
H689 H 0.61755 0.82162 0.10776 0.0
H690 H 0.61734 0.83014 0.20803 0.0
H691 H 0.63757 0.84995 0.28996 0.0
H692 H 0.6944 0.90806 0.26876 0.0
H693 H 0.68917 0.90473 0.16782 0.0
C694 C 0.66077 0.87 0.11301 0.0
C695 C 0.64584 0.85023 0.09001 0.0
C696 C 0.66108 0.8747 0.17053 0.0
C697 C 0.6294 0.83677 0.12454 0.0
C698 C 0.62936 0.84156 0.18189 0.0
C699 C 0.64853 0.86221 0.26332 0.0
C700 C 0.66674 0.87883 0.28675 0.0
C701 C 0.64583 0.85979 0.20543 0.0
C702 C 0.68042 0.89494 0.25177 0.0
C703 C 0.67755 0.89294 0.19404 0.0
H704 H 0.1715 0.64778 0.32954 0.0
H705 H 0.11202 0.70339 0.30993 0.0
H706 H 0.11037 0.69424 0.20996 0.0
H707 H 0.12995 0.67505 0.12763 0.0
H708 H 0.19091 0.62106 0.14691 0.0
H709 H 0.18743 0.62459 0.24803 0.0
C710 C 0.15795 0.65771 0.30355 0.0
C711 C 0.14229 0.67666 0.32688 0.0
C712 C 0.15744 0.65271 0.24616 0.0
C713 C 0.12447 0.68893 0.29288 0.0
C714 C 0.12357 0.68376 0.23572 0.0
C715 C 0.14223 0.66371 0.15388 0.0
C716 C 0.16104 0.64824 0.12981 0.0
C717 C 0.1406 0.66638 0.21178 0.0
C718 C 0.17644 0.6333 0.16437 0.0
C719 C 0.17457 0.63543 0.22219 0.0
H720 H 0.39343 0.16411 0.32501 0.0
H721 H 0.33804 0.10377 0.3126 0.0
H722 H 0.34725 0.09816 0.21385 0.0
H723 H 0.3619 0.11853 0.12912 0.0
H724 H 0.4132 0.18246 0.14082 0.0
H725 H 0.4155 0.17792 0.24165 0.0
C726 C 0.38384 0.14925 0.30104 0.0
C727 C 0.36433 0.1351 0.32534 0.0
C728 C 0.38831 0.14703 0.24387 0.0
C729 C 0.35271 0.11533 0.29447 0.0
C730 C 0.35787 0.11222 0.2379 0.0
C731 C 0.3742 0.131 0.15356 0.0
C732 C 0.38647 0.1515 0.128 0.0
C733 C 0.37422 0.12924 0.21161 0.0
C734 C 0.40306 0.1669 0.15971 0.0
C735 C 0.40419 0.16446 0.21748 0.0
loop_
_geom_bond_atom_site_label_1
_geom_bond_atom_site_label_2
_geom_bond_distance
_geom_bond_site_symmetry_2
_ccdc_geom_bond_type
Zn0 O3 2.031 1_554 S
Zn0 O5 2.049 . S
Zn0 O10 2.067 . S
Zn1 O2 1.962 . S
Zn1 O4 1.986 1_556 S
Zn1 O6 1.996 1_556 S
Zn1 O9 1.943 1_556 S
O2 Zn1 1.962 . S
O2 C7 1.254 . S
O3 Zn0 2.031 1_556 S
O3 C7 1.269 . S
O4 Zn1 1.986 1_554 S
O4 C11 1.262 1_554 S
O5 Zn0 2.049 . S
O5 C13 1.260 . S
O6 Zn1 1.996 1_554 S
O6 C13 1.257 . S
C7 O2 1.254 . S
C7 O3 1.269 . S
C8 O9 1.249 . S
C8 O10 1.270 . S
O9 Zn1 1.943 1_554 S
O9 C8 1.249 . S
O10 Zn0 2.067 . S
O10 C8 1.270 . S
C11 O4 1.262 1_556 S
C11 O12 1.232 . S
O12 C11 1.232 . S
C13 O5 1.260 . S
C13 O6 1.257 . S
Zn14 O17 2.031 1_554 S
Zn14 O19 2.049 . S
Zn14 O24 2.067 . S
Zn15 O16 1.962 . S
Zn15 O18 1.986 1_556 S
Zn15 O20 1.996 1_556 S
Zn15 O23 1.943 1_556 S
O16 Zn15 1.962 . S
O16 C21 1.254 . S
O17 Zn14 2.031 1_556 S
O17 C21 1.269 . S
O18 Zn15 1.986 1_554 S
O18 C25 1.262 1_554 S
O19 Zn14 2.049 . S
O19 C27 1.260 . S
O20 Zn15 1.996 1_554 S
O20 C27 1.257 . S
C21 O16 1.254 . S
C21 O17 1.269 . S
C22 O23 1.249 . S
C22 O24 1.270 . S
O23 Zn15 1.943 1_554 S
O23 C22 1.249 . S
O24 Zn14 2.067 . S
O24 C22 1.270 . S
C25 O18 1.262 1_556 S
C25 O26 1.232 . S
O26 C25 1.232 . S
C27 O19 1.260 . S
C27 O20 1.257 . S
Zn28 O31 2.031 1_554 S
Zn28 O33 2.049 . S
Zn28 O38 2.067 . S
Zn29 O30 1.962 . S
Zn29 O32 1.986 1_556 S
Zn29 O34 1.996 1_556 S
Zn29 O37 1.943 1_556 S
O30 Zn29 1.962 . S
O30 C35 1.254 . S
O31 Zn28 2.031 1_556 S
O31 C35 1.269 . S
O32 Zn29 1.986 1_554 S
O32 C39 1.262 1_554 S
O33 Zn28 2.049 . S
O33 C41 1.260 . S
O34 Zn29 1.996 1_554 S
O34 C41 1.257 . S
C35 O30 1.254 . S
C35 O31 1.269 . S
C36 O37 1.249 . S
C36 O38 1.270 . S
O37 Zn29 1.943 1_554 S
O37 C36 1.249 . S
O38 Zn28 2.067 . S
O38 C36 1.270 . S
C39 O32 1.262 1_556 S
C39 O40 1.232 . S
O40 C39 1.232 . S
C41 O33 1.260 . S
C41 O34 1.257 . S
Zn42 O45 2.031 1_554 S
Zn42 O47 2.049 . S
Zn42 O52 2.067 . S
Zn43 O44 1.962 . S
Zn43 O46 1.986 1_556 S
Zn43 O48 1.996 1_556 S
Zn43 O51 1.943 1_556 S
O44 Zn43 1.962 . S
O44 C49 1.254 . S
O45 Zn42 2.031 1_556 S
O45 C49 1.269 . S
O46 Zn43 1.986 1_554 S
O46 C53 1.262 1_554 S
O47 Zn42 2.049 . S
O47 C55 1.260 . S
O48 Zn43 1.996 1_554 S
O48 C55 1.257 . S
C49 O44 1.254 . S
C49 O45 1.269 . S
C50 O51 1.249 . S
C50 O52 1.270 . S
O51 Zn43 1.943 1_554 S
O51 C50 1.249 . S
O52 Zn42 2.067 . S
O52 C50 1.270 . S
C53 O46 1.262 1_556 S
C53 O54 1.232 . S
O54 C53 1.232 . S
C55 O47 1.260 . S
C55 O48 1.257 . S
Zn56 O59 2.031 1_556 S
Zn56 O61 2.049 . S
Zn56 O66 2.067 . S
Zn57 O58 1.962 . S
Zn57 O60 1.986 1_554 S
Zn57 O62 1.996 1_554 S
Zn57 O65 1.943 . S
O58 Zn57 1.962 . S
O58 C63 1.254 . S
O59 Zn56 2.031 1_554 S
O59 C63 1.269 . S
O60 Zn57 1.986 1_556 S
O60 C67 1.262 1_556 S
O61 Zn56 2.049 . S
O61 C69 1.260 . S
O62 Zn57 1.996 1_556 S
O62 C69 1.257 . S
C63 O58 1.254 . S
C63 O59 1.269 . S
C64 O65 1.249 1_556 S
C64 O66 1.270 . S
O65 Zn57 1.943 . S
O65 C64 1.249 1_554 S
O66 Zn56 2.067 . S
O66 C64 1.270 . S
C67 O60 1.262 1_554 S
C67 O68 1.232 . S
O68 C67 1.232 . S
C69 O61 1.260 . S
C69 O62 1.257 . S
Zn70 O73 2.031 1_556 S
Zn70 O75 2.049 . S
Zn70 O80 2.067 . S
Zn71 O72 1.962 . S
Zn71 O74 1.986 1_554 S
Zn71 O76 1.996 1_554 S
Zn71 O79 1.943 . S
O72 Zn71 1.962 . S
O72 C77 1.254 . S
O73 Zn70 2.031 1_554 S
O73 C77 1.269 . S
O74 Zn71 1.986 1_556 S
O74 C81 1.262 1_556 S
O75 Zn70 2.049 . S
O75 C83 1.260 . S
O76 Zn71 1.996 1_556 S
O76 C83 1.257 . S
C77 O72 1.254 . S
C77 O73 1.269 . S
C78 O79 1.249 1_556 S
C78 O80 1.270 . S
O79 Zn71 1.943 . S
O79 C78 1.249 1_554 S
O80 Zn70 2.067 . S
O80 C78 1.270 . S
C81 O74 1.262 1_554 S
C81 O82 1.232 . S
O82 C81 1.232 . S
C83 O75 1.260 . S
C83 O76 1.257 . S
Zn84 O87 2.031 1_556 S
Zn84 O89 2.049 . S
Zn84 O94 2.067 . S
Zn85 O86 1.962 . S
Zn85 O88 1.986 1_554 S
Zn85 O90 1.996 1_554 S
Zn85 O93 1.943 . S
O86 Zn85 1.962 . S
O86 C91 1.254 . S
O87 Zn84 2.031 1_554 S
O87 C91 1.269 . S
O88 Zn85 1.986 1_556 S
O88 C95 1.262 1_556 S
O89 Zn84 2.049 . S
O89 C97 1.260 . S
O90 Zn85 1.996 1_556 S
O90 C97 1.257 . S
C91 O86 1.254 . S
C91 O87 1.269 . S
C92 O93 1.249 1_556 S
C92 O94 1.270 . S
O93 Zn85 1.943 . S
O93 C92 1.249 1_554 S
O94 Zn84 2.067 . S
O94 C92 1.270 . S
C95 O88 1.262 1_554 S
C95 O96 1.232 . S
O96 C95 1.232 . S
C97 O89 1.260 . S
C97 O90 1.257 . S
Zn98 O101 2.031 1_556 S
Zn98 O103 2.049 . S
Zn98 O108 2.067 . S
Zn99 O100 1.962 . S
Zn99 O102 1.986 1_554 S
Zn99 O104 1.996 1_554 S
Zn99 O107 1.943 . S
O100 Zn99 1.962 . S
O100 C105 1.254 . S
O101 Zn98 2.031 1_554 S
O101 C105 1.269 . S
O102 Zn99 1.986 1_556 S
O102 C109 1.262 1_556 S
O103 Zn98 2.049 . S
O103 C111 1.260 . S
O104 Zn99 1.996 1_556 S
O104 C111 1.257 . S
C105 O100 1.254 . S
C105 O101 1.269 . S
C106 O107 1.249 1_556 S
C106 O108 1.270 . S
O107 Zn99 1.943 . S
O107 C106 1.249 1_554 S
O108 Zn98 2.067 . S
O108 C106 1.270 . S
C109 O102 1.262 1_554 S
C109 O110 1.232 . S
O110 C109 1.232 . S
C111 O103 1.260 . S
C111 O104 1.257 . S
Zn112 O115 2.031 . S
Zn112 O117 2.049 . S
Zn112 O122 2.067 . S
Zn113 O114 1.962 . S
Zn113 O116 1.986 . S
Zn113 O118 1.996 . S
Zn113 O121 1.943 . S
O114 Zn113 1.962 . S
O114 C119 1.254 . S
O115 Zn112 2.031 . S
O115 C119 1.269 . S
O116 Zn113 1.986 . S
O116 C123 1.262 . S
O117 Zn112 2.049 . S
O117 C125 1.260 . S
O118 Zn113 1.996 . S
O118 C125 1.257 . S
C119 O114 1.254 . S
C119 O115 1.269 . S
C120 O121 1.249 . S
C120 O122 1.270 . S
O121 Zn113 1.943 . S
O121 C120 1.249 . S
O122 Zn112 2.067 . S
O122 C120 1.270 . S
C123 O116 1.262 . S
C123 O124 1.232 . S
O124 C123 1.232 . S
C125 O117 1.260 . S
C125 O118 1.257 . S
Zn126 O129 2.031 . S
Zn126 O131 2.049 . S
Zn126 O136 2.067 . S
Zn127 O128 1.962 . S
Zn127 O130 1.986 . S
Zn127 O132 1.996 . S
Zn127 O135 1.943 . S
O128 Zn127 1.962 . S
O128 C133 1.254 . S
O129 Zn126 2.031 . S
O129 C133 1.269 . S
O130 Zn127 1.986 . S
O130 C137 1.262 . S
O131 Zn126 2.049 . S
O131 C139 1.260 . S
O132 Zn127 1.996 . S
O132 C139 1.257 . S
C133 O128 1.254 . S
C133 O129 1.269 . S
C134 O135 1.249 . S
C134 O136 1.270 . S
O135 Zn127 1.943 . S
O135 C134 1.249 . S
O136 Zn126 2.067 . S
O136 C134 1.270 . S
C137 O130 1.262 . S
C137 O138 1.232 . S
O138 C137 1.232 . S
C139 O131 1.260 . S
C139 O132 1.257 . S
Zn140 O143 2.031 . S
Zn140 O145 2.049 . S
Zn140 O150 2.067 . S
Zn141 O142 1.962 . S
Zn141 O144 1.986 . S
Zn141 O146 1.996 . S
Zn141 O149 1.943 . S
O142 Zn141 1.962 . S
O142 C147 1.254 . S
O143 Zn140 2.031 . S
O143 C147 1.269 . S
O144 Zn141 1.986 . S
O144 C151 1.262 . S
O145 Zn140 2.049 . S
O145 C153 1.260 . S
O146 Zn141 1.996 . S
O146 C153 1.257 . S
C147 O142 1.254 . S
C147 O143 1.269 . S
C148 O149 1.249 . S
C148 O150 1.270 . S
O149 Zn141 1.943 . S
O149 C148 1.249 . S
O150 Zn140 2.067 . S
O150 C148 1.270 . S
C151 O144 1.262 . S
C151 O152 1.232 . S
O152 C151 1.232 . S
C153 O145 1.260 . S
C153 O146 1.257 . S
Zn154 O157 2.031 . S
Zn154 O159 2.049 . S
Zn154 O164 2.067 . S
Zn155 O156 1.962 . S
Zn155 O158 1.986 . S
Zn155 O160 1.996 . S
Zn155 O163 1.943 . S
O156 Zn155 1.962 . S
O156 C161 1.254 . S
O157 Zn154 2.031 . S
O157 C161 1.269 . S
O158 Zn155 1.986 . S
O158 C165 1.262 . S
O159 Zn154 2.049 . S
O159 C167 1.260 . S
O160 Zn155 1.996 . S
O160 C167 1.257 . S
C161 O156 1.254 . S
C161 O157 1.269 . S
C162 O163 1.249 . S
C162 O164 1.270 . S
O163 Zn155 1.943 . S
O163 C162 1.249 . S
O164 Zn154 2.067 . S
O164 C162 1.270 . S
C165 O158 1.262 . S
C165 O166 1.232 . S
O166 C165 1.232 . S
C167 O159 1.260 . S
C167 O160 1.257 . S
Zn168 O171 2.031 . S
Zn168 O173 2.049 . S
Zn168 O178 2.067 . S
Zn169 O170 1.962 . S
Zn169 O172 1.986 . S
Zn169 O174 1.996 . S
Zn169 O177 1.943 . S
O170 Zn169 1.962 . S
O170 C175 1.254 . S
O171 Zn168 2.031 . S
O171 C175 1.269 . S
O172 Zn169 1.986 . S
O172 C179 1.262 . S
O173 Zn168 2.049 . S
O173 C181 1.260 . S
O174 Zn169 1.996 . S
O174 C181 1.257 . S
C175 O170 1.254 . S
C175 O171 1.269 . S
C176 O177 1.249 . S
C176 O178 1.270 . S
O177 Zn169 1.943 . S
O177 C176 1.249 . S
O178 Zn168 2.067 . S
O178 C176 1.270 . S
C179 O172 1.262 . S
C179 O180 1.232 . S
O180 C179 1.232 . S
C181 O173 1.260 . S
C181 O174 1.257 . S
Zn182 O185 2.031 . S
Zn182 O187 2.049 . S
Zn182 O192 2.067 . S
Zn183 O184 1.962 . S
Zn183 O186 1.986 . S
Zn183 O188 1.996 . S
Zn183 O191 1.943 . S
O184 Zn183 1.962 . S
O184 C189 1.254 . S
O185 Zn182 2.031 . S
O185 C189 1.269 . S
O186 Zn183 1.986 . S
O186 C193 1.262 . S
O187 Zn182 2.049 . S
O187 C195 1.260 . S
O188 Zn183 1.996 . S
O188 C195 1.257 . S
C189 O184 1.254 . S
C189 O185 1.269 . S
C190 O191 1.249 . S
C190 O192 1.270 . S
O191 Zn183 1.943 . S
O191 C190 1.249 . S
O192 Zn182 2.067 . S
O192 C190 1.270 . S
C193 O186 1.262 . S
C193 O194 1.232 . S
O194 C193 1.232 . S
C195 O187 1.260 . S
C195 O188 1.257 . S
Zn196 O199 2.031 . S
Zn196 O201 2.049 . S
Zn196 O206 2.067 . S
Zn197 O198 1.962 . S
Zn197 O200 1.986 . S
Zn197 O202 1.996 . S
Zn197 O205 1.943 . S
O198 Zn197 1.962 . S
O198 C203 1.254 . S
O199 Zn196 2.031 . S
O199 C203 1.269 . S
O200 Zn197 1.986 . S
O200 C207 1.262 . S
O201 Zn196 2.049 . S
O201 C209 1.260 . S
O202 Zn197 1.996 . S
O202 C209 1.257 . S
C203 O198 1.254 . S
C203 O199 1.269 . S
C204 O205 1.249 . S
C204 O206 1.270 . S
O205 Zn197 1.943 . S
O205 C204 1.249 . S
O206 Zn196 2.067 . S
O206 C204 1.270 . S
C207 O200 1.262 . S
C207 O208 1.232 . S
O208 C207 1.232 . S
C209 O201 1.260 . S
C209 O202 1.257 . S
Zn210 O213 2.031 . S
Zn210 O215 2.049 . S
Zn210 O220 2.067 . S
Zn211 O212 1.962 . S
Zn211 O214 1.986 . S
Zn211 O216 1.996 . S
Zn211 O219 1.943 . S
O212 Zn211 1.962 . S
O212 C217 1.254 . S
O213 Zn210 2.031 . S
O213 C217 1.269 . S
O214 Zn211 1.986 . S
O214 C221 1.262 . S
O215 Zn210 2.049 . S
O215 C223 1.260 . S
O216 Zn211 1.996 . S
O216 C223 1.257 . S
C217 O212 1.254 . S
C217 O213 1.269 . S
C218 O219 1.249 . S
C218 O220 1.270 . S
O219 Zn211 1.943 . S
O219 C218 1.249 . S
O220 Zn210 2.067 . S
O220 C218 1.270 . S
C221 O214 1.262 . S
C221 O222 1.232 . S
O222 C221 1.232 . S
C223 O215 1.260 . S
C223 O216 1.257 . S
H224 C230 0.930 . S
H225 C233 0.930 . S
H226 C234 0.930 . S
H227 C235 0.930 . S
H228 C238 0.930 . S
H229 C239 0.930 . S
C230 H224 0.930 . S
C230 C231 1.355 1_554 S
C230 C232 1.415 . S
C231 C230 1.355 1_556 S
C231 C233 1.419 . S
C232 C230 1.415 . S
C232 C237 1.425 1_554 S
C232 C239 1.409 . S
C233 H225 0.930 . S
C233 C231 1.419 . S
C233 C234 1.362 . S
C234 H226 0.930 . S
C234 C233 1.362 . S
C234 C237 1.409 . S
C235 H227 0.930 . S
C235 C236 1.355 1_556 S
C235 C237 1.415 . S
C236 C235 1.355 1_554 S
C236 C238 1.419 . S
C237 C232 1.425 1_556 S
C237 C234 1.409 . S
C237 C235 1.415 . S
C238 H228 0.930 . S
C238 C236 1.419 . S
C238 C239 1.362 . S
C239 H229 0.930 . S
C239 C232 1.409 . S
C239 C238 1.362 . S
H240 C246 0.930 . S
H241 C249 0.930 . S
H242 C250 0.930 . S
H243 C251 0.930 . S
H244 C254 0.930 . S
H245 C255 0.930 . S
C246 H240 0.930 . S
C246 C247 1.355 1_554 S
C246 C248 1.415 . S
C247 C246 1.355 1_556 S
C247 C249 1.419 . S
C248 C246 1.415 . S
C248 C253 1.425 1_554 S
C248 C255 1.409 . S
C249 H241 0.930 . S
C249 C247 1.419 . S
C249 C250 1.362 . S
C250 H242 0.930 . S
C250 C249 1.362 . S
C250 C253 1.409 . S
C251 H243 0.930 . S
C251 C252 1.355 1_556 S
C251 C253 1.415 . S
C252 C251 1.355 1_554 S
C252 C254 1.419 . S
C253 C248 1.425 1_556 S
C253 C250 1.409 . S
C253 C251 1.415 . S
C254 H244 0.930 . S
C254 C252 1.419 . S
C254 C255 1.362 . S
C255 H245 0.930 . S
C255 C248 1.409 . S
C255 C254 1.362 . S
H256 C262 0.930 . S
H257 C265 0.930 . S
H258 C266 0.930 . S
H259 C267 0.930 . S
H260 C270 0.930 . S
H261 C271 0.930 . S
C262 H256 0.930 . S
C262 C263 1.355 . S
C262 C264 1.415 . S
C263 C262 1.355 . S
C263 C265 1.419 1_556 S
C264 C262 1.415 . S
C264 C269 1.425 1_556 S
C264 C271 1.409 . S
C265 H257 0.930 . S
C265 C263 1.419 1_554 S
C265 C266 1.362 . S
C266 H258 0.930 . S
C266 C265 1.362 . S
C266 C269 1.409 . S
C267 H259 0.930 . S
C267 C268 1.355 . S
C267 C269 1.415 . S
C268 C267 1.355 . S
C268 C270 1.419 1_554 S
C269 C264 1.425 1_554 S
C269 C266 1.409 . S
C269 C267 1.415 . S
C270 H260 0.930 . S
C270 C268 1.419 1_556 S
C270 C271 1.362 . S
C271 H261 0.930 . S
C271 C264 1.409 . S
C271 C270 1.362 . S
H272 C278 0.930 . S
H273 C281 0.930 . S
H274 C282 0.930 . S
H275 C283 0.930 . S
H276 C286 0.930 . S
H277 C287 0.930 . S
C278 H272 0.930 . S
C278 C279 1.355 1_554 S
C278 C280 1.415 . S
C279 C278 1.355 1_556 S
C279 C281 1.419 . S
C280 C278 1.415 . S
C280 C285 1.425 1_554 S
C280 C287 1.409 . S
C281 H273 0.930 . S
C281 C279 1.419 . S
C281 C282 1.362 . S
C282 H274 0.930 . S
C282 C281 1.362 . S
C282 C285 1.409 . S
C283 H275 0.930 . S
C283 C284 1.355 1_556 S
C283 C285 1.415 . S
C284 C283 1.355 1_554 S
C284 C286 1.419 . S
C285 C280 1.425 1_556 S
C285 C282 1.409 . S
C285 C283 1.415 . S
C286 H276 0.930 . S
C286 C284 1.419 . S
C286 C287 1.362 . S
C287 H277 0.930 . S
C287 C280 1.409 . S
C287 C286 1.362 . S
H288 C294 0.930 . S
H289 C297 0.930 . S
H290 C298 0.930 . S
H291 C299 0.930 . S
H292 C302 0.930 . S
H293 C303 0.930 . S
C294 H288 0.930 . S
C294 C295 1.355 . S
C294 C296 1.415 . S
C295 C294 1.355 . S
C295 C297 1.419 . S
C296 C294 1.415 . S
C296 C301 1.425 1_545 S
C296 C303 1.409 1_545 S
C297 H289 0.930 . S
C297 C295 1.419 . S
C297 C298 1.362 . S
C298 H290 0.930 . S
C298 C297 1.362 . S
C298 C301 1.409 1_545 S
C299 H291 0.930 . S
C299 C300 1.355 . S
C299 C301 1.415 . S
C300 C299 1.355 . S
C300 C302 1.419 . S
C301 C296 1.425 1_565 S
C301 C298 1.409 1_565 S
C301 C299 1.415 . S
C302 H292 0.930 . S
C302 C300 1.419 . S
C302 C303 1.362 . S
C303 H293 0.930 . S
C303 C296 1.409 1_565 S
C303 C302 1.362 . S
H304 C310 0.930 . S
H305 C313 0.930 . S
H306 C314 0.930 . S
H307 C315 0.930 . S
H308 C318 0.930 . S
H309 C319 0.930 . S
C310 H304 0.930 . S
C310 C311 1.355 . S
C310 C312 1.415 . S
C311 C310 1.355 . S
C311 C313 1.419 . S
C312 C310 1.415 . S
C312 C317 1.425 1_655 S
C312 C319 1.409 1_655 S
C313 H305 0.930 . S
C313 C311 1.419 . S
C313 C314 1.362 . S
C314 H306 0.930 . S
C314 C313 1.362 . S
C314 C317 1.409 1_655 S
C315 H307 0.930 . S
C315 C316 1.355 . S
C315 C317 1.415 . S
C316 C315 1.355 . S
C316 C318 1.419 . S
C317 C312 1.425 1_455 S
C317 C314 1.409 1_455 S
C317 C315 1.415 . S
C318 H308 0.930 . S
C318 C316 1.419 . S
C318 C319 1.362 . S
C319 H309 0.930 . S
C319 C312 1.409 1_455 S
C319 C318 1.362 . S
H320 C326 0.930 . S
H321 C329 0.930 . S
H322 C330 0.930 . S
H323 C331 0.930 . S
H324 C334 0.930 . S
H325 C335 0.930 . S
C326 H320 0.930 . S
C326 C327 1.355 . S
C326 C328 1.415 . S
C327 C326 1.355 . S
C327 C329 1.419 . S
C328 C326 1.415 . S
C328 C333 1.425 1_545 S
C328 C335 1.409 1_545 S
C329 H321 0.930 . S
C329 C327 1.419 . S
C329 C330 1.362 . S
C330 H322 0.930 . S
C330 C329 1.362 . S
C330 C333 1.409 1_545 S
C331 H323 0.930 . S
C331 C332 1.355 . S
C331 C333 1.415 . S
C332 C331 1.355 . S
C332 C334 1.419 . S
C333 C328 1.425 1_565 S
C333 C330 1.409 1_565 S
C333 C331 1.415 . S
C334 H324 0.930 . S
C334 C332 1.419 . S
C334 C335 1.362 . S
C335 H325 0.930 . S
C335 C328 1.409 1_565 S
C335 C334 1.362 . S
H336 C342 0.930 . S
H337 C345 0.930 . S
H338 C346 0.930 . S
H339 C347 0.930 . S
H340 C350 0.930 . S
H341 C351 0.930 . S
C342 H336 0.930 . S
C342 C343 1.355 . S
C342 C344 1.415 . S
C343 C342 1.355 . S
C343 C345 1.419 . S
C344 C342 1.415 . S
C344 C349 1.425 1_455 S
C344 C351 1.409 1_455 S
C345 H337 0.930 . S
C345 C343 1.419 . S
C345 C346 1.362 . S
C346 H338 0.930 . S
C346 C345 1.362 . S
C346 C349 1.409 1_455 S
C347 H339 0.930 . S
C347 C348 1.355 . S
C347 C349 1.415 . S
C348 C347 1.355 . S
C348 C350 1.419 . S
C349 C344 1.425 1_655 S
C349 C346 1.409 1_655 S
C349 C347 1.415 . S
C350 H340 0.930 . S
C350 C348 1.419 . S
C350 C351 1.362 . S
C351 H341 0.930 . S
C351 C344 1.409 1_655 S
C351 C350 1.362 . S
H352 C358 0.930 . S
H353 C361 0.930 . S
H354 C362 0.930 . S
H355 C363 0.930 . S
H356 C366 0.930 . S
H357 C367 0.930 . S
C358 H352 0.930 . S
C358 C359 1.355 1_554 S
C358 C360 1.415 . S
C359 C358 1.355 1_556 S
C359 C361 1.419 . S
C360 C358 1.415 . S
C360 C365 1.425 1_554 S
C360 C367 1.409 . S
C361 H353 0.930 . S
C361 C359 1.419 . S
C361 C362 1.362 . S
C362 H354 0.930 . S
C362 C361 1.362 . S
C362 C365 1.409 . S
C363 H355 0.930 . S
C363 C364 1.355 1_556 S
C363 C365 1.415 . S
C364 C363 1.355 1_554 S
C364 C366 1.419 . S
C365 C360 1.425 1_556 S
C365 C362 1.409 . S
C365 C363 1.415 . S
C366 H356 0.930 . S
C366 C364 1.419 . S
C366 C367 1.362 . S
C367 H357 0.930 . S
C367 C360 1.409 . S
C367 C366 1.362 . S
H368 C374 0.930 . S
H369 C377 0.930 . S
H370 C378 0.930 . S
H371 C379 0.930 . S
H372 C382 0.930 . S
H373 C383 0.930 . S
C374 H368 0.930 . S
C374 C375 1.355 . S
C374 C376 1.415 . S
C375 C374 1.355 . S
C375 C377 1.419 1_554 S
C376 C374 1.415 . S
C376 C381 1.425 1_554 S
C376 C383 1.409 . S
C377 H369 0.930 . S
C377 C375 1.419 1_556 S
C377 C378 1.362 . S
C378 H370 0.930 . S
C378 C377 1.362 . S
C378 C381 1.409 . S
C379 H371 0.930 . S
C379 C380 1.355 . S
C379 C381 1.415 . S
C380 C379 1.355 . S
C380 C382 1.419 1_556 S
C381 C376 1.425 1_556 S
C381 C378 1.409 . S
C381 C379 1.415 . S
C382 H372 0.930 . S
C382 C380 1.419 1_554 S
C382 C383 1.362 . S
C383 H373 0.930 . S
C383 C376 1.409 . S
C383 C382 1.362 . S
H384 C390 0.930 . S
H385 C393 0.930 . S
H386 C394 0.930 . S
H387 C395 0.930 . S
H388 C398 0.930 . S
H389 C399 0.930 . S
C390 H384 0.930 . S
C390 C391 1.355 1_554 S
C390 C392 1.415 . S
C391 C390 1.355 1_556 S
C391 C393 1.419 . S
C392 C390 1.415 . S
C392 C397 1.425 1_554 S
C392 C399 1.409 . S
C393 H385 0.930 . S
C393 C391 1.419 . S
C393 C394 1.362 . S
C394 H386 0.930 . S
C394 C393 1.362 . S
C394 C397 1.409 . S
C395 H387 0.930 . S
C395 C396 1.355 1_556 S
C395 C397 1.415 . S
C396 C395 1.355 1_554 S
C396 C398 1.419 . S
C397 C392 1.425 1_556 S
C397 C394 1.409 . S
C397 C395 1.415 . S
C398 H388 0.930 . S
C398 C396 1.419 . S
C398 C399 1.362 . S
C399 H389 0.930 . S
C399 C392 1.409 . S
C399 C398 1.362 . S
H400 C406 0.930 . S
H401 C409 0.930 . S
H402 C410 0.930 . S
H403 C411 0.930 . S
H404 C414 0.930 . S
H405 C415 0.930 . S
C406 H400 0.930 . S
C406 C407 1.354 1_554 S
C406 C408 1.415 . S
C407 C406 1.354 1_556 S
C407 C409 1.420 . S
C408 C406 1.415 . S
C408 C413 1.425 1_554 S
C408 C415 1.409 . S
C409 H401 0.930 . S
C409 C407 1.420 . S
C409 C410 1.362 . S
C410 H402 0.930 . S
C410 C409 1.362 . S
C410 C413 1.409 . S
C411 H403 0.930 . S
C411 C412 1.351 1_556 S
C411 C413 1.415 . S
C412 C411 1.351 1_554 S
C412 C414 1.424 . S
C413 C408 1.425 1_556 S
C413 C410 1.409 . S
C413 C411 1.415 . S
C414 H404 0.930 . S
C414 C412 1.424 . S
C414 C415 1.362 . S
C415 H405 0.930 . S
C415 C408 1.409 . S
C415 C414 1.362 . S
H416 C422 0.930 . S
H417 C425 0.930 . S
H418 C426 0.930 . S
H419 C427 0.930 . S
H420 C430 0.930 . S
H421 C431 0.930 . S
C422 H416 0.930 . S
C422 C423 1.355 . S
C422 C424 1.415 . S
C423 C422 1.355 . S
C423 C425 1.419 . S
C424 C422 1.415 . S
C424 C429 1.425 . S
C424 C431 1.409 . S
C425 H417 0.930 . S
C425 C423 1.419 . S
C425 C426 1.362 . S
C426 H418 0.930 . S
C426 C425 1.362 . S
C426 C429 1.409 . S
C427 H419 0.930 . S
C427 C428 1.355 . S
C427 C429 1.415 . S
C428 C427 1.355 . S
C428 C430 1.419 . S
C429 C424 1.425 . S
C429 C426 1.409 . S
C429 C427 1.415 . S
C430 H420 0.930 . S
C430 C428 1.419 . S
C430 C431 1.362 . S
C431 H421 0.930 . S
C431 C424 1.409 . S
C431 C430 1.362 . S
H432 C438 0.930 . S
H433 C441 0.930 . S
H434 C442 0.930 . S
H435 C443 0.930 . S
H436 C446 0.930 . S
H437 C447 0.930 . S
C438 H432 0.930 . S
C438 C439 1.355 . S
C438 C440 1.415 . S
C439 C438 1.355 . S
C439 C441 1.419 . S
C440 C438 1.415 . S
C440 C445 1.425 . S
C440 C447 1.409 . S
C441 H433 0.930 . S
C441 C439 1.419 . S
C441 C442 1.362 . S
C442 H434 0.930 . S
C442 C441 1.362 . S
C442 C445 1.409 . S
C443 H435 0.930 . S
C443 C444 1.355 . S
C443 C445 1.415 . S
C444 C443 1.355 . S
C444 C446 1.419 . S
C445 C440 1.425 . S
C445 C442 1.409 . S
C445 C443 1.415 . S
C446 H436 0.930 . S
C446 C444 1.419 . S
C446 C447 1.362 . S
C447 H437 0.930 . S
C447 C440 1.409 . S
C447 C446 1.362 . S
H448 C454 0.930 . S
H449 C457 0.930 . S
H450 C458 0.930 . S
H451 C459 0.930 . S
H452 C462 0.930 . S
H453 C463 0.930 . S
C454 H448 0.930 . S
C454 C455 1.355 . S
C454 C456 1.415 . S
C455 C454 1.355 . S
C455 C457 1.419 . S
C456 C454 1.415 . S
C456 C461 1.425 . S
C456 C463 1.409 . S
C457 H449 0.930 . S
C457 C455 1.419 . S
C457 C458 1.362 . S
C458 H450 0.930 . S
C458 C457 1.362 . S
C458 C461 1.409 . S
C459 H451 0.930 . S
C459 C460 1.355 . S
C459 C461 1.415 . S
C460 C459 1.355 . S
C460 C462 1.419 . S
C461 C456 1.425 . S
C461 C458 1.409 . S
C461 C459 1.415 . S
C462 H452 0.930 . S
C462 C460 1.419 . S
C462 C463 1.362 . S
C463 H453 0.930 . S
C463 C456 1.409 . S
C463 C462 1.362 . S
H464 C470 0.930 . S
H465 C473 0.930 . S
H466 C474 0.930 . S
H467 C475 0.930 . S
H468 C478 0.930 . S
H469 C479 0.930 . S
C470 H464 0.930 . S
C470 C471 1.355 . S
C470 C472 1.415 . S
C471 C470 1.355 . S
C471 C473 1.419 . S
C472 C470 1.415 . S
C472 C477 1.425 . S
C472 C479 1.409 . S
C473 H465 0.930 . S
C473 C471 1.419 . S
C473 C474 1.362 . S
C474 H466 0.930 . S
C474 C473 1.362 . S
C474 C477 1.409 . S
C475 H467 0.930 . S
C475 C476 1.355 . S
C475 C477 1.415 . S
C476 C475 1.355 . S
C476 C478 1.419 . S
C477 C472 1.425 . S
C477 C474 1.409 . S
C477 C475 1.415 . S
C478 H468 0.930 . S
C478 C476 1.419 . S
C478 C479 1.362 . S
C479 H469 0.930 . S
C479 C472 1.409 . S
C479 C478 1.362 . S
H480 C486 0.930 . S
H481 C489 0.930 . S
H482 C490 0.930 . S
H483 C491 0.930 . S
H484 C494 0.930 . S
H485 C495 0.930 . S
C486 H480 0.930 . S
C486 C487 1.355 . S
C486 C488 1.415 . S
C487 C486 1.355 . S
C487 C489 1.419 . S
C488 C486 1.415 . S
C488 C493 1.425 . S
C488 C495 1.409 . S
C489 H481 0.930 . S
C489 C487 1.419 . S
C489 C490 1.362 . S
C490 H482 0.930 . S
C490 C489 1.362 . S
C490 C493 1.409 . S
C491 H483 0.930 . S
C491 C492 1.355 . S
C491 C493 1.415 . S
C492 C491 1.355 . S
C492 C494 1.419 . S
C493 C488 1.425 . S
C493 C490 1.409 . S
C493 C491 1.415 . S
C494 H484 0.930 . S
C494 C492 1.419 . S
C494 C495 1.362 . S
C495 H485 0.930 . S
C495 C488 1.409 . S
C495 C494 1.362 . S
H496 C502 0.930 . S
H497 C505 0.930 . S
H498 C506 0.930 . S
H499 C507 0.930 . S
H500 C510 0.930 . S
H501 C511 0.930 . S
C502 H496 0.930 . S
C502 C503 1.355 . S
C502 C504 1.415 . S
C503 C502 1.355 . S
C503 C505 1.419 . S
C504 C502 1.415 . S
C504 C509 1.425 . S
C504 C511 1.409 . S
C505 H497 0.930 . S
C505 C503 1.419 . S
C505 C506 1.362 . S
C506 H498 0.930 . S
C506 C505 1.362 . S
C506 C509 1.409 . S
C507 H499 0.930 . S
C507 C508 1.355 . S
C507 C509 1.415 . S
C508 C507 1.355 . S
C508 C510 1.419 . S
C509 C504 1.425 . S
C509 C506 1.409 . S
C509 C507 1.415 . S
C510 H500 0.930 . S
C510 C508 1.419 . S
C510 C511 1.362 . S
C511 H501 0.930 . S
C511 C504 1.409 . S
C511 C510 1.362 . S
H512 C518 0.930 . S
H513 C521 0.930 . S
H514 C522 0.930 . S
H515 C523 0.930 . S
H516 C526 0.930 . S
H517 C527 0.930 . S
C518 H512 0.930 . S
C518 C519 1.355 . S
C518 C520 1.415 . S
C519 C518 1.355 . S
C519 C521 1.419 . S
C520 C518 1.415 . S
C520 C525 1.425 . S
C520 C527 1.409 . S
C521 H513 0.930 . S
C521 C519 1.419 . S
C521 C522 1.362 . S
C522 H514 0.930 . S
C522 C521 1.362 . S
C522 C525 1.409 . S
C523 H515 0.930 . S
C523 C524 1.355 . S
C523 C525 1.415 . S
C524 C523 1.355 . S
C524 C526 1.419 . S
C525 C520 1.425 . S
C525 C522 1.409 . S
C525 C523 1.415 . S
C526 H516 0.930 . S
C526 C524 1.419 . S
C526 C527 1.362 . S
C527 H517 0.930 . S
C527 C520 1.409 . S
C527 C526 1.362 . S
H528 C534 0.930 . S
H529 C537 0.930 . S
H530 C538 0.930 . S
H531 C539 0.930 . S
H532 C542 0.930 . S
H533 C543 0.930 . S
C534 H528 0.930 . S
C534 C535 1.355 . S
C534 C536 1.415 . S
C535 C534 1.355 . S
C535 C537 1.419 . S
C536 C534 1.415 . S
C536 C541 1.425 . S
C536 C543 1.409 . S
C537 H529 0.930 . S
C537 C535 1.419 . S
C537 C538 1.362 . S
C538 H530 0.930 . S
C538 C537 1.362 . S
C538 C541 1.409 . S
C539 H531 0.930 . S
C539 C540 1.355 . S
C539 C541 1.415 . S
C540 C539 1.355 . S
C540 C542 1.419 . S
C541 C536 1.425 . S
C541 C538 1.409 . S
C541 C539 1.415 . S
C542 H532 0.930 . S
C542 C540 1.419 . S
C542 C543 1.362 . S
C543 H533 0.930 . S
C543 C536 1.409 . S
C543 C542 1.362 . S
H544 C550 0.930 . S
H545 C553 0.930 . S
H546 C554 0.930 . S
H547 C555 0.930 . S
H548 C558 0.930 . S
H549 C559 0.930 . S
C550 H544 0.930 . S
C550 C551 1.355 . S
C550 C552 1.415 . S
C551 C550 1.355 . S
C551 C553 1.419 . S
C552 C550 1.415 . S
C552 C557 1.425 . S
C552 C559 1.409 . S
C553 H545 0.930 . S
C553 C551 1.419 . S
C553 C554 1.362 . S
C554 H546 0.930 . S
C554 C553 1.362 . S
C554 C557 1.409 . S
C555 H547 0.930 . S
C555 C556 1.355 . S
C555 C557 1.415 . S
C556 C555 1.355 . S
C556 C558 1.419 . S
C557 C552 1.425 . S
C557 C554 1.409 . S
C557 C555 1.415 . S
C558 H548 0.930 . S
C558 C556 1.419 . S
C558 C559 1.362 . S
C559 H549 0.930 . S
C559 C552 1.409 . S
C559 C558 1.362 . S
H560 C566 0.930 . S
H561 C569 0.930 . S
H562 C570 0.930 . S
H563 C571 0.930 . S
H564 C574 0.930 . S
H565 C575 0.930 . S
C566 H560 0.930 . S
C566 C567 1.355 . S
C566 C568 1.415 . S
C567 C566 1.355 . S
C567 C569 1.419 . S
C568 C566 1.415 . S
C568 C573 1.425 . S
C568 C575 1.409 . S
C569 H561 0.930 . S
C569 C567 1.419 . S
C569 C570 1.362 . S
C570 H562 0.930 . S
C570 C569 1.362 . S
C570 C573 1.409 . S
C571 H563 0.930 . S
C571 C572 1.355 . S
C571 C573 1.415 . S
C572 C571 1.355 . S
C572 C574 1.419 . S
C573 C568 1.425 . S
C573 C570 1.409 . S
C573 C571 1.415 . S
C574 H564 0.930 . S
C574 C572 1.419 . S
C574 C575 1.362 . S
C575 H565 0.930 . S
C575 C568 1.409 . S
C575 C574 1.362 . S
H576 C582 0.930 . S
H577 C585 0.930 . S
H578 C586 0.930 . S
H579 C587 0.930 . S
H580 C590 0.930 . S
H581 C591 0.930 . S
C582 H576 0.930 . S
C582 C583 1.355 . S
C582 C584 1.415 . S
C583 C582 1.355 . S
C583 C585 1.419 . S
C584 C582 1.415 . S
C584 C589 1.425 . S
C584 C591 1.409 . S
C585 H577 0.930 . S
C585 C583 1.419 . S
C585 C586 1.362 . S
C586 H578 0.930 . S
C586 C585 1.362 . S
C586 C589 1.409 . S
C587 H579 0.930 . S
C587 C588 1.355 . S
C587 C589 1.415 . S
C588 C587 1.355 . S
C588 C590 1.419 . S
C589 C584 1.425 . S
C589 C586 1.409 . S
C589 C587 1.415 . S
C590 H580 0.930 . S
C590 C588 1.419 . S
C590 C591 1.362 . S
C591 H581 0.930 . S
C591 C584 1.409 . S
C591 C590 1.362 . S
H592 C598 0.930 . S
H593 C601 0.930 . S
H594 C602 0.930 . S
H595 C603 0.930 . S
H596 C606 0.930 . S
H597 C607 0.930 . S
C598 H592 0.930 . S
C598 C599 1.355 . S
C598 C600 1.415 . S
C599 C598 1.355 . S
C599 C601 1.419 . S
C600 C598 1.415 . S
C600 C605 1.425 . S
C600 C607 1.409 . S
C601 H593 0.930 . S
C601 C599 1.419 . S
C601 C602 1.362 . S
C602 H594 0.930 . S
C602 C601 1.362 . S
C602 C605 1.409 . S
C603 H595 0.930 . S
C603 C604 1.355 . S
C603 C605 1.415 . S
C604 C603 1.355 . S
C604 C606 1.419 . S
C605 C600 1.425 . S
C605 C602 1.409 . S
C605 C603 1.415 . S
C606 H596 0.930 . S
C606 C604 1.419 . S
C606 C607 1.362 . S
C607 H597 0.930 . S
C607 C600 1.409 . S
C607 C606 1.362 . S
H608 C614 0.930 . S
H609 C617 0.930 . S
H610 C618 0.930 . S
H611 C619 0.930 . S
H612 C622 0.930 . S
H613 C623 0.930 . S
C614 H608 0.930 . S
C614 C615 1.355 . S
C614 C616 1.415 . S
C615 C614 1.355 . S
C615 C617 1.419 . S
C616 C614 1.415 . S
C616 C621 1.425 . S
C616 C623 1.409 . S
C617 H609 0.930 . S
C617 C615 1.419 . S
C617 C618 1.362 . S
C618 H610 0.930 . S
C618 C617 1.362 . S
C618 C621 1.409 . S
C619 H611 0.930 . S
C619 C620 1.355 . S
C619 C621 1.415 . S
C620 C619 1.355 . S
C620 C622 1.419 . S
C621 C616 1.425 . S
C621 C618 1.409 . S
C621 C619 1.415 . S
C622 H612 0.930 . S
C622 C620 1.419 . S
C622 C623 1.362 . S
C623 H613 0.930 . S
C623 C616 1.409 . S
C623 C622 1.362 . S
H624 C630 0.930 . S
H625 C633 0.930 . S
H626 C634 0.930 . S
H627 C635 0.930 . S
H628 C638 0.930 . S
H629 C639 0.930 . S
C630 H624 0.930 . S
C630 C631 1.355 . S
C630 C632 1.415 . S
C631 C630 1.355 . S
C631 C633 1.419 . S
C632 C630 1.415 . S
C632 C637 1.425 . S
C632 C639 1.409 . S
C633 H625 0.930 . S
C633 C631 1.419 . S
C633 C634 1.362 . S
C634 H626 0.930 . S
C634 C633 1.362 . S
C634 C637 1.409 . S
C635 H627 0.930 . S
C635 C636 1.355 . S
C635 C637 1.415 . S
C636 C635 1.355 . S
C636 C638 1.419 . S
C637 C632 1.425 . S
C637 C634 1.409 . S
C637 C635 1.415 . S
C638 H628 0.930 . S
C638 C636 1.419 . S
C638 C639 1.362 . S
C639 H629 0.930 . S
C639 C632 1.409 . S
C639 C638 1.362 . S
H640 C646 0.930 . S
H641 C649 0.930 . S
H642 C650 0.930 . S
H643 C651 0.930 . S
H644 C654 0.930 . S
H645 C655 0.930 . S
C646 H640 0.930 . S
C646 C647 1.355 . S
C646 C648 1.415 . S
C647 C646 1.355 . S
C647 C649 1.419 . S
C648 C646 1.415 . S
C648 C653 1.425 . S
C648 C655 1.409 . S
C649 H641 0.930 . S
C649 C647 1.419 . S
C649 C650 1.362 . S
C650 H642 0.930 . S
C650 C649 1.362 . S
C650 C653 1.409 . S
C651 H643 0.930 . S
C651 C652 1.355 . S
C651 C653 1.415 . S
C652 C651 1.355 . S
C652 C654 1.419 . S
C653 C648 1.425 . S
C653 C650 1.409 . S
C653 C651 1.415 . S
C654 H644 0.930 . S
C654 C652 1.419 . S
C654 C655 1.362 . S
C655 H645 0.930 . S
C655 C648 1.409 . S
C655 C654 1.362 . S
H656 C662 0.930 . S
H657 C665 0.930 . S
H658 C666 0.930 . S
H659 C667 0.930 . S
H660 C670 0.930 . S
H661 C671 0.930 . S
C662 H656 0.930 . S
C662 C663 1.355 . S
C662 C664 1.415 . S
C663 C662 1.355 . S
C663 C665 1.419 . S
C664 C662 1.415 . S
C664 C669 1.425 . S
C664 C671 1.409 . S
C665 H657 0.930 . S
C665 C663 1.419 . S
C665 C666 1.362 . S
C666 H658 0.930 . S
C666 C665 1.362 . S
C666 C669 1.409 . S
C667 H659 0.930 . S
C667 C668 1.355 . S
C667 C669 1.415 . S
C668 C667 1.355 . S
C668 C670 1.419 . S
C669 C664 1.425 . S
C669 C666 1.409 . S
C669 C667 1.415 . S
C670 H660 0.930 . S
C670 C668 1.419 . S
C670 C671 1.362 . S
C671 H661 0.930 . S
C671 C664 1.409 . S
C671 C670 1.362 . S
H672 C678 0.930 . S
H673 C681 0.930 . S
H674 C682 0.930 . S
H675 C683 0.930 . S
H676 C686 0.930 . S
H677 C687 0.930 . S
C678 H672 0.930 . S
C678 C679 1.355 . S
C678 C680 1.415 . S
C679 C678 1.355 . S
C679 C681 1.419 . S
C680 C678 1.415 . S
C680 C685 1.425 . S
C680 C687 1.409 . S
C681 H673 0.930 . S
C681 C679 1.419 . S
C681 C682 1.362 . S
C682 H674 0.930 . S
C682 C681 1.362 . S
C682 C685 1.409 . S
C683 H675 0.930 . S
C683 C684 1.355 . S
C683 C685 1.415 . S
C684 C683 1.355 . S
C684 C686 1.419 . S
C685 C680 1.425 . S
C685 C682 1.409 . S
C685 C683 1.415 . S
C686 H676 0.930 . S
C686 C684 1.419 . S
C686 C687 1.362 . S
C687 H677 0.930 . S
C687 C680 1.409 . S
C687 C686 1.362 . S
H688 C694 0.930 . S
H689 C697 0.930 . S
H690 C698 0.930 . S
H691 C699 0.930 . S
H692 C702 0.930 . S
H693 C703 0.930 . S
C694 H688 0.930 . S
C694 C695 1.355 . S
C694 C696 1.415 . S
C695 C694 1.355 . S
C695 C697 1.419 . S
C696 C694 1.415 . S
C696 C701 1.425 . S
C696 C703 1.409 . S
C697 H689 0.930 . S
C697 C695 1.419 . S
C697 C698 1.362 . S
C698 H690 0.930 . S
C698 C697 1.362 . S
C698 C701 1.409 . S
C699 H691 0.930 . S
C699 C700 1.355 . S
C699 C701 1.415 . S
C700 C699 1.355 . S
C700 C702 1.419 . S
C701 C696 1.425 . S
C701 C698 1.409 . S
C701 C699 1.415 . S
C702 H692 0.930 . S
C702 C700 1.419 . S
C702 C703 1.362 . S
C703 H693 0.930 . S
C703 C696 1.409 . S
C703 C702 1.362 . S
H704 C710 0.930 . S
H705 C713 0.930 . S
H706 C714 0.930 . S
H707 C715 0.930 . S
H708 C718 0.930 . S
H709 C719 0.930 . S
C710 H704 0.930 . S
C710 C711 1.355 . S
C710 C712 1.415 . S
C711 C710 1.355 . S
C711 C713 1.419 . S
C712 C710 1.415 . S
C712 C717 1.425 . S
C712 C719 1.409 . S
C713 H705 0.930 . S
C713 C711 1.419 . S
C713 C714 1.362 . S
C714 H706 0.930 . S
C714 C713 1.362 . S
C714 C717 1.409 . S
C715 H707 0.930 . S
C715 C716 1.355 . S
C715 C717 1.415 . S
C716 C715 1.355 . S
C716 C718 1.419 . S
C717 C712 1.425 . S
C717 C714 1.409 . S
C717 C715 1.415 . S
C718 H708 0.930 . S
C718 C716 1.419 . S
C718 C719 1.362 . S
C719 H709 0.930 . S
C719 C712 1.409 . S
C719 C718 1.362 . S
H720 C726 0.930 . S
H721 C729 0.930 . S
H722 C730 0.930 . S
H723 C731 0.930 . S
H724 C734 0.930 . S
H725 C735 0.930 . S
C726 H720 0.930 . S
C726 C727 1.355 . S
C726 C728 1.415 . S
C727 C726 1.355 . S
C727 C729 1.419 . S
C728 C726 1.415 . S
C728 C733 1.425 . S
C728 C735 1.409 . S
C729 H721 0.930 . S
C729 C727 1.419 . S
C729 C730 1.362 . S
C730 H722 0.930 . S
C730 C729 1.362 . S
C730 C733 1.409 . S
C731 H723 0.930 . S
C731 C732 1.355 . S
C731 C733 1.415 . S
C732 C731 1.355 . S
C732 C734 1.419 . S
C733 C728 1.425 . S
C733 C730 1.409 . S
C733 C731 1.415 . S
C734 H724 0.930 . S
C734 C732 1.419 . S
C734 C735 1.362 . S
C735 H725 0.930 . S
C735 C728 1.409 . S
C735 C734 1.362 . S
C231 C67 1.286 1_556 S
C236 C11 1.295 1_554 S
C247 C81 1.297 1_556 S
C252 C25 1.279 1_554 S
C263 C95 1.268 1_556 S
C268 C39 1.293 1_554 S
C279 C109 1.294 1_556 S
C284 C53 1.288 1_554 S
C295 C179 1.270 . S
C300 C123 1.256 . S
C311 C193 1.295 . S
C316 C137 1.288 . S
C327 C151 1.259 . S
C332 C207 1.284 . S
C343 C221 1.296 . S
C348 C165 1.285 . S
C359 C8 1.240 1_556 S
C364 C78 1.155 1_554 S
C375 C92 1.152 1_554 S
C380 C22 1.221 1_556 S
C391 C36 1.252 1_556 S
C396 C106 1.166 1_554 S
C407 C64 1.159 . S
C412 C50 1.198 . S
C423 C190 1.256 . S
C428 C120 1.195 . S
C439 C204 1.175 . S
C444 C134 1.256 . S
C455 C148 1.216 . S
C460 C218 1.152 . S
C471 C162 1.179 . S
C476 C176 1.256 . S
C487 C223 1.359 . S
C492 C13 1.290 . S
C503 C181 1.364 . S
C508 C27 1.390 . S
C519 C195 1.386 . S
C524 C41 1.373 . S
C535 C209 1.391 . S
C540 C55 1.333 . S
C551 C139 1.390 . S
C556 C69 1.333 . S
C567 C153 1.292 . S
C572 C83 1.359 . S
C583 C97 1.303 . S
C588 C167 1.292 . S
C599 C111 1.392 . S
C604 C125 1.342 . S
C615 C189 1.521 . S
C620 C35 1.542 . S
C631 C203 1.543 . S
C636 C49 1.544 . S
C647 C217 1.523 . S
C652 C7 1.543 . S
C663 C21 1.531 . S
C668 C175 1.547 . S
C679 C161 1.519 . S
C684 C91 1.537 . S
C695 C105 1.514 . S
C700 C119 1.530 . S
C711 C133 1.545 . S
C716 C63 1.531 . S
C727 C147 1.544 . S
C732 C77 1.539 . S
