# Generated by pormake.
# Topology gme, (4)-cn, num edge types: 1
# Building blocks:
#     Node 0, Type 0, BuildingBlock: CEKHIL_clean_sbu_0, # of connection points: 4
#     Node 1, Type 0, BuildingBlock: CEKHIL_clean_sbu_0, # of connection points: 4
#     Node 2, Type 0, BuildingBlock: CEKHIL_clean_sbu_0, # of connection points: 4
#     Node 3, Type 0, BuildingBlock: CEKHIL_clean_sbu_0, # of connection points: 4
#     Node 4, Type 0, BuildingBlock: CEKHIL_clean_sbu_0, # of connection points: 4
#     Node 5, Type 0, BuildingBlock: CEKHIL_clean_sbu_0, # of connection points: 4
#     Node 6, Type 0, BuildingBlock: CEKHIL_clean_sbu_0, # of connection points: 4
#     Node 7, Type 0, BuildingBlock: CEKHIL_clean_sbu_0, # of connection points: 4
#     Node 8, Type 0, BuildingBlock: CEKHIL_clean_sbu_0, # of connection points: 4
#     Node 9, Type 0, BuildingBlock: CEKHIL_clean_sbu_0, # of connection points: 4
#     Node 10, Type 0, BuildingBlock: CEKHIL_clean_sbu_0, # of connection points: 4
#     Node 11, Type 0, BuildingBlock: CEKHIL_clean_sbu_0, # of connection points: 4
#     Node 12, Type 0, BuildingBlock: CEKHIL_clean_sbu_0, # of connection points: 4
#     Node 13, Type 0, BuildingBlock: CEKHIL_clean_sbu_0, # of connection points: 4
#     Node 14, Type 0, BuildingBlock: CEKHIL_clean_sbu_0, # of connection points: 4
#     Node 15, Type 0, BuildingBlock: CEKHIL_clean_sbu_0, # of connection points: 4
#     Node 16, Type 0, BuildingBlock: CEKHIL_clean_sbu_0, # of connection points: 4
#     Node 17, Type 0, BuildingBlock: CEKHIL_clean_sbu_0, # of connection points: 4
#     Node 18, Type 0, BuildingBlock: CEKHIL_clean_sbu_0, # of connection points: 4
#     Node 19, Type 0, BuildingBlock: CEKHIL_clean_sbu_0, # of connection points: 4
#     Node 20, Type 0, BuildingBlock: CEKHIL_clean_sbu_0, # of connection points: 4
#     Node 21, Type 0, BuildingBlock: CEKHIL_clean_sbu_0, # of connection points: 4
#     Node 22, Type 0, BuildingBlock: CEKHIL_clean_sbu_0, # of connection points: 4
#     Node 23, Type 0, BuildingBlock: CEKHIL_clean_sbu_0, # of connection points: 4
#     Edge 24, Type (0, 0), BuildingBlock: TEMPAE_clean_linker_10, # of connection points: 2
#     Edge 25, Type (0, 0), BuildingBlock: TEMPAE_clean_linker_10, # of connection points: 2
#     Edge 26, Type (0, 0), BuildingBlock: TEMPAE_clean_linker_10, # of connection points: 2
#     Edge 27, Type (0, 0), BuildingBlock: TEMPAE_clean_linker_10, # of connection points: 2
#     Edge 28, Type (0, 0), BuildingBlock: TEMPAE_clean_linker_10, # of connection points: 2
#     Edge 29, Type (0, 0), BuildingBlock: TEMPAE_clean_linker_10, # of connection points: 2
#     Edge 30, Type (0, 0), BuildingBlock: TEMPAE_clean_linker_10, # of connection points: 2
#     Edge 31, Type (0, 0), BuildingBlock: TEMPAE_clean_linker_10, # of connection points: 2
#     Edge 32, Type (0, 0), BuildingBlock: TEMPAE_clean_linker_10, # of connection points: 2
#     Edge 33, Type (0, 0), BuildingBlock: TEMPAE_clean_linker_10, # of connection points: 2
#     Edge 34, Type (0, 0), BuildingBlock: TEMPAE_clean_linker_10, # of connection points: 2
#     Edge 35, Type (0, 0), BuildingBlock: TEMPAE_clean_linker_10, # of connection points: 2
#     Edge 36, Type (0, 0), BuildingBlock: TEMPAE_clean_linker_10, # of connection points: 2
#     Edge 37, Type (0, 0), BuildingBlock: TEMPAE_clean_linker_10, # of connection points: 2
#     Edge 38, Type (0, 0), BuildingBlock: TEMPAE_clean_linker_10, # of connection points: 2
#     Edge 39, Type (0, 0), BuildingBlock: TEMPAE_clean_linker_10, # of connection points: 2
#     Edge 40, Type (0, 0), BuildingBlock: TEMPAE_clean_linker_10, # of connection points: 2
#     Edge 41, Type (0, 0), BuildingBlock: TEMPAE_clean_linker_10, # of connection points: 2
#     Edge 42, Type (0, 0), BuildingBlock: TEMPAE_clean_linker_10, # of connection points: 2
#     Edge 43, Type (0, 0), BuildingBlock: TEMPAE_clean_linker_10, # of connection points: 2
#     Edge 44, Type (0, 0), BuildingBlock: TEMPAE_clean_linker_10, # of connection points: 2
#     Edge 45, Type (0, 0), BuildingBlock: TEMPAE_clean_linker_10, # of connection points: 2
#     Edge 46, Type (0, 0), BuildingBlock: TEMPAE_clean_linker_10, # of connection points: 2
#     Edge 47, Type (0, 0), BuildingBlock: TEMPAE_clean_linker_10, # of connection points: 2
#     Edge 48, Type (0, 0), BuildingBlock: TEMPAE_clean_linker_10, # of connection points: 2
#     Edge 49, Type (0, 0), BuildingBlock: TEMPAE_clean_linker_10, # of connection points: 2
#     Edge 50, Type (0, 0), BuildingBlock: TEMPAE_clean_linker_10, # of connection points: 2
#     Edge 51, Type (0, 0), BuildingBlock: TEMPAE_clean_linker_10, # of connection points: 2
#     Edge 52, Type (0, 0), BuildingBlock: TEMPAE_clean_linker_10, # of connection points: 2
#     Edge 53, Type (0, 0), BuildingBlock: TEMPAE_clean_linker_10, # of connection points: 2
#     Edge 54, Type (0, 0), BuildingBlock: TEMPAE_clean_linker_10, # of connection points: 2
#     Edge 55, Type (0, 0), BuildingBlock: TEMPAE_clean_linker_10, # of connection points: 2
#     Edge 56, Type (0, 0), BuildingBlock: TEMPAE_clean_linker_10, # of connection points: 2
#     Edge 57, Type (0, 0), BuildingBlock: TEMPAE_clean_linker_10, # of connection points: 2
#     Edge 58, Type (0, 0), BuildingBlock: TEMPAE_clean_linker_10, # of connection points: 2
#     Edge 59, Type (0, 0), BuildingBlock: TEMPAE_clean_linker_10, # of connection points: 2
#     Edge 60, Type (0, 0), BuildingBlock: TEMPAE_clean_linker_10, # of connection points: 2
#     Edge 61, Type (0, 0), BuildingBlock: TEMPAE_clean_linker_10, # of connection points: 2
#     Edge 62, Type (0, 0), BuildingBlock: TEMPAE_clean_linker_10, # of connection points: 2
#     Edge 63, Type (0, 0), BuildingBlock: TEMPAE_clean_linker_10, # of connection points: 2
#     Edge 64, Type (0, 0), BuildingBlock: TEMPAE_clean_linker_10, # of connection points: 2
#     Edge 65, Type (0, 0), BuildingBlock: TEMPAE_clean_linker_10, # of connection points: 2
#     Edge 66, Type (0, 0), BuildingBlock: TEMPAE_clean_linker_10, # of connection points: 2
#     Edge 67, Type (0, 0), BuildingBlock: TEMPAE_clean_linker_10, # of connection points: 2
#     Edge 68, Type (0, 0), BuildingBlock: TEMPAE_clean_linker_10, # of connection points: 2
#     Edge 69, Type (0, 0), BuildingBlock: TEMPAE_clean_linker_10, # of connection points: 2
#     Edge 70, Type (0, 0), BuildingBlock: TEMPAE_clean_linker_10, # of connection points: 2
#     Edge 71, Type (0, 0), BuildingBlock: TEMPAE_clean_linker_10, # of connection points: 2
# Relax obj value: 0.071
# Max RMSD: 0.095
# Mean RMSD: 0.095
data_MOF--net-gme--node1-CEKHIL_clean_sbu_0--edge1-TEMPAE_clean_linker_10
_symmetry_space_group_name_H-M    P1
_symmetry_Int_Tables_number       1
_symmetry_cell_setting            triclinic
loop_
_symmetry_equiv_pos_as_xyz
'x, y, z'
_cell_length_a     54.405789
_cell_length_b     54.414319
_cell_length_c     57.39537
_cell_angle_alpha  90.05208
_cell_angle_beta   89.981601
_cell_angle_gamma 120.0082
loop_
_atom_site_label
_atom_site_type_symbol
_atom_site_fract_x
_atom_site_fract_y
_atom_site_fract_z
_atom_type_partial_charge
Co0 Co 0.38604 0.06017 0.11777 0.0
O1 O 0.39172 0.06834 0.08505 0.0
O2 O 0.3716 0.02514 0.10013 0.0
C3 C 0.36913 0.08962 0.12518 0.0
O4 O 0.3758 0.04409 0.15091 0.0
Co5 Co 0.42035 0.10934 0.15323 0.0
O6 O 0.39356 0.0813 0.17573 0.0
C7 C 0.44794 0.08079 0.13028 0.0
C8 C 0.37958 0.04122 0.08167 0.0
C9 C 0.37864 0.05484 0.17145 0.0
O10 O 0.42448 0.06311 0.12025 0.0
O11 O 0.45095 0.10152 0.14293 0.0
O12 O 0.35232 0.06443 0.11689 0.0
O13 O 0.39554 0.0969 0.12655 0.0
Co14 Co 0.32116 0.38448 0.61853 0.0
O15 O 0.32287 0.39239 0.58581 0.0
O16 O 0.34039 0.36758 0.60225 0.0
C17 C 0.27505 0.37113 0.62279 0.0
O18 O 0.32249 0.37194 0.65207 0.0
Co19 Co 0.30745 0.42006 0.65319 0.0
O20 O 0.2996 0.38826 0.67432 0.0
C21 C 0.36464 0.44505 0.6324 0.0
C22 C 0.33596 0.37817 0.58342 0.0
C23 C 0.31063 0.37265 0.67136 0.0
O24 O 0.35813 0.42108 0.62298 0.0
O25 O 0.34706 0.44935 0.64406 0.0
O26 O 0.28219 0.35309 0.61518 0.0
O27 O 0.29555 0.39684 0.6255 0.0
Co28 Co 0.93502 0.32782 0.11913 0.0
O29 O 0.93505 0.32984 0.08585 0.0
O30 O 0.97382 0.34602 0.10758 0.0
C31 C 0.90034 0.28218 0.12101 0.0
O32 O 0.94213 0.32834 0.15434 0.0
Co33 Co 0.88003 0.31563 0.14532 0.0
O34 O 0.89966 0.31021 0.17205 0.0
C35 C 0.91819 0.37289 0.12669 0.0
C36 C 0.9624 0.34221 0.08697 0.0
C37 C 0.92628 0.31939 0.17269 0.0
O38 O 0.93645 0.36559 0.12077 0.0
O39 O 0.89389 0.35572 0.13544 0.0
O40 O 0.92646 0.28837 0.11791 0.0
O41 O 0.8959 0.30333 0.12102 0.0
Co42 Co 0.60311 0.92893 0.61999 0.0
O43 O 0.60203 0.92475 0.58686 0.0
O44 O 0.62316 0.96612 0.60516 0.0
C45 C 0.61468 0.89513 0.62644 0.0
O46 O 0.60909 0.94032 0.65455 0.0
Co47 Co 0.56036 0.87656 0.6492 0.0
O48 O 0.58348 0.90029 0.67545 0.0
C49 C 0.5412 0.91285 0.62671 0.0
C50 C 0.61678 0.95209 0.58557 0.0
C51 C 0.60106 0.92683 0.6741 0.0
O52 O 0.56647 0.92994 0.6193 0.0
O53 O 0.53431 0.88983 0.63768 0.0
O54 O 0.63442 0.92093 0.62183 0.0
O55 O 0.58901 0.89034 0.62532 0.0
Co56 Co 0.67372 0.61146 0.1168 0.0
O57 O 0.67611 0.60682 0.08399 0.0
O58 O 0.65517 0.62869 0.10004 0.0
C59 C 0.71951 0.6259 0.12461 0.0
O60 O 0.66824 0.62021 0.15045 0.0
Co61 Co 0.68462 0.57166 0.14901 0.0
O62 O 0.68167 0.59548 0.17373 0.0
C63 C 0.63196 0.54854 0.12187 0.0
C64 C 0.66219 0.62015 0.08126 0.0
C65 C 0.6732 0.61327 0.17065 0.0
O66 O 0.63709 0.57391 0.11776 0.0
O67 O 0.6498 0.54315 0.1318 0.0
O68 O 0.71239 0.644 0.11715 0.0
O69 O 0.69946 0.59975 0.12465 0.0
Co70 Co 0.05609 0.67172 0.61703 0.0
O71 O 0.05859 0.66813 0.58408 0.0
O72 O 0.01828 0.65335 0.60333 0.0
C73 C 0.09089 0.71717 0.61853 0.0
O74 O 0.04645 0.67295 0.6515 0.0
Co75 Co 0.10817 0.68471 0.64761 0.0
O76 O 0.08842 0.69654 0.67002 0.0
C77 C 0.07139 0.62667 0.62966 0.0
C78 C 0.03123 0.65606 0.58357 0.0
C79 C 0.06162 0.68623 0.66945 0.0
O80 O 0.05404 0.63395 0.62127 0.0
O81 O 0.0947 0.64401 0.63979 0.0
O82 O 0.06517 0.7111 0.61362 0.0
O83 O 0.09511 0.69596 0.62059 0.0
Co84 Co 0.931 0.60348 0.38557 0.0
O85 O 0.92481 0.59855 0.41849 0.0
O86 O 0.96722 0.62108 0.4019 0.0
C87 C 0.89904 0.61744 0.37899 0.0
O88 O 0.9443 0.61248 0.35163 0.0
Co89 Co 0.87942 0.56341 0.35409 0.0
O90 O 0.90569 0.58675 0.32896 0.0
C91 C 0.91066 0.54078 0.3794 0.0
C92 C 0.95211 0.61233 0.4209 0.0
C93 C 0.93194 0.6049 0.33159 0.0
O94 O 0.9306 0.56623 0.3838 0.0
O95 O 0.887 0.53508 0.3701 0.0
O96 O 0.92439 0.63571 0.38611 0.0
O97 O 0.89324 0.5914 0.37854 0.0
Co98 Co 0.32731 0.9388 0.88419 0.0
O99 O 0.32456 0.93434 0.91739 0.0
O100 O 0.3485 0.97566 0.8992 0.0
C101 C 0.28088 0.90925 0.87717 0.0
O102 O 0.33327 0.95087 0.84986 0.0
Co103 Co 0.31187 0.88498 0.854 0.0
O104 O 0.31666 0.91098 0.8282 0.0
C105 C 0.36789 0.91587 0.87668 0.0
C106 C 0.34008 0.96167 0.91872 0.0
C107 C 0.32736 0.93775 0.83012 0.0
O108 O 0.3625 0.93509 0.8839 0.0
O109 O 0.34982 0.8934 0.86593 0.0
O110 O 0.2896 0.93529 0.88339 0.0
O111 O 0.29964 0.90145 0.87783 0.0
Co112 Co 0.38123 0.32532 0.38487 0.0
O113 O 0.3894 0.32814 0.41758 0.0
O114 O 0.36379 0.34441 0.40062 0.0
C115 C 0.36879 0.27934 0.38148 0.0
O116 O 0.36831 0.32511 0.3512 0.0
Co117 Co 0.41831 0.31161 0.35164 0.0
O118 O 0.38743 0.30427 0.32953 0.0
C119 C 0.44249 0.36803 0.37361 0.0
C120 C 0.3747 0.34077 0.41961 0.0
C121 C 0.37043 0.31381 0.33205 0.0
O122 O 0.4175 0.36253 0.37982 0.0
O123 O 0.44743 0.34962 0.3641 0.0
O124 O 0.35035 0.28606 0.38886 0.0
O125 O 0.39424 0.3002 0.37871 0.0
Co126 Co 0.06304 0.38623 0.88922 0.0
O127 O 0.07018 0.39203 0.92197 0.0
O128 O 0.02732 0.36998 0.90624 0.0
C129 C 0.09405 0.37113 0.88249 0.0
O130 O 0.04884 0.37633 0.85552 0.0
Co131 Co 0.11383 0.42416 0.85629 0.0
O132 O 0.08801 0.39667 0.83276 0.0
C133 C 0.08476 0.44894 0.8821 0.0
C134 C 0.04298 0.37896 0.92496 0.0
C135 C 0.06142 0.3802 0.83565 0.0
O136 O 0.06439 0.42389 0.88697 0.0
O137 O 0.1078 0.45367 0.87215 0.0
O138 O 0.06882 0.35345 0.8902 0.0
O139 O 0.10037 0.3973 0.88156 0.0
Co140 Co 0.67279 0.06421 0.39291 0.0
O141 O 0.67594 0.06455 0.42607 0.0
O142 O 0.65448 0.02543 0.40467 0.0
C143 C 0.71841 0.0977 0.38707 0.0
O144 O 0.66726 0.05711 0.35774 0.0
Co145 Co 0.6829 0.1203 0.36984 0.0
O146 O 0.68046 0.09936 0.34084 0.0
C147 C 0.62939 0.08395 0.39425 0.0
C148 C 0.66234 0.03716 0.42518 0.0
C149 C 0.67207 0.0729 0.33959 0.0
O150 O 0.63572 0.06415 0.39546 0.0
O151 O 0.64673 0.10904 0.38704 0.0
O152 O 0.71172 0.07136 0.38965 0.0
O153 O 0.69803 0.10293 0.39015 0.0
Co154 Co 0.60989 0.67422 0.88656 0.0
O155 O 0.60499 0.6709 0.91959 0.0
O156 O 0.63009 0.65629 0.8994 0.0
C157 C 0.6201 0.71961 0.88516 0.0
O158 O 0.61967 0.67515 0.85193 0.0
Co159 Co 0.56934 0.68638 0.8572 0.0
O160 O 0.59924 0.69675 0.8334 0.0
C161 C 0.54913 0.62873 0.87557 0.0
C162 C 0.6205 0.65906 0.91947 0.0
C163 C 0.61629 0.68709 0.83374 0.0
O164 O 0.57424 0.63623 0.88296 0.0
O165 O 0.54255 0.64591 0.86599 0.0
O166 O 0.64005 0.71377 0.88947 0.0
O167 O 0.59473 0.69817 0.88356 0.0
Co168 Co 0.61387 0.93801 0.88975 0.0
O169 O 0.6071 0.93319 0.92261 0.0
O170 O 0.63158 0.97485 0.90506 0.0
C171 C 0.62669 0.90483 0.8858 0.0
O172 O 0.62506 0.94991 0.85573 0.0
Co173 Co 0.57483 0.88594 0.85826 0.0
O174 O 0.60375 0.90943 0.83465 0.0
C175 C 0.55189 0.91821 0.88166 0.0
C176 C 0.62149 0.96055 0.9243 0.0
C177 C 0.62123 0.93597 0.83658 0.0
O178 O 0.57726 0.93851 0.88574 0.0
O179 O 0.54633 0.89419 0.87319 0.0
O180 O 0.64523 0.93017 0.89274 0.0
O181 O 0.60102 0.89989 0.88396 0.0
Co182 Co 0.67273 0.60972 0.3878 0.0
O183 O 0.6704 0.60838 0.42109 0.0
O184 O 0.65621 0.63213 0.39862 0.0
C185 C 0.7175 0.61801 0.38631 0.0
O186 O 0.67325 0.61631 0.35258 0.0
Co187 Co 0.68209 0.56487 0.36191 0.0
O188 O 0.69231 0.59222 0.33601 0.0
C189 C 0.62487 0.54931 0.37869 0.0
C190 C 0.65949 0.62464 0.41942 0.0
C191 C 0.68387 0.61023 0.33487 0.0
O192 O 0.63381 0.57482 0.38578 0.0
O193 O 0.64084 0.54083 0.36967 0.0
O194 O 0.7128 0.63897 0.38921 0.0
O195 O 0.69542 0.59296 0.38635 0.0
Co196 Co 0.07293 0.67875 0.88682 0.0
O197 O 0.07778 0.68187 0.91991 0.0
O198 O 0.03603 0.66082 0.90223 0.0
C199 C 0.10577 0.7245 0.88023 0.0
O200 O 0.06074 0.67313 0.85243 0.0
Co201 Co 0.125 0.6897 0.85659 0.0
O202 O 0.10035 0.68819 0.83077 0.0
C203 C 0.09032 0.63398 0.87915 0.0
C204 C 0.05045 0.66876 0.92162 0.0
C205 C 0.07376 0.67873 0.83264 0.0
O206 O 0.073 0.6416 0.88709 0.0
O207 O 0.11289 0.65048 0.86778 0.0
O208 O 0.07987 0.7177 0.8853 0.0
O209 O 0.11126 0.70406 0.88095 0.0
Co210 Co 0.38683 0.06617 0.38608 0.0
O211 O 0.39124 0.0686 0.41917 0.0
O212 O 0.3664 0.02837 0.39958 0.0
C213 C 0.37671 0.10134 0.38338 0.0
O214 O 0.37752 0.05651 0.35146 0.0
Co215 Co 0.4282 0.11821 0.35645 0.0
O216 O 0.39906 0.09806 0.33224 0.0
C217 C 0.44777 0.08101 0.37633 0.0
C218 C 0.37573 0.04125 0.41951 0.0
C219 C 0.38165 0.07144 0.33287 0.0
O220 O 0.42249 0.06364 0.38349 0.0
O221 O 0.4547 0.10459 0.36628 0.0
O222 O 0.35668 0.07566 0.38795 0.0
O223 O 0.4021 0.10521 0.38236 0.0
Co224 Co 0.3231 0.38638 0.88884 0.0
O225 O 0.32134 0.38416 0.92211 0.0
O226 O 0.3406 0.36491 0.89985 0.0
C227 C 0.27775 0.37592 0.88433 0.0
O228 O 0.32703 0.38389 0.85355 0.0
Co229 Co 0.31403 0.43301 0.86572 0.0
O230 O 0.31375 0.4129 0.8368 0.0
C231 C 0.36766 0.44895 0.88954 0.0
C232 C 0.33406 0.36954 0.92061 0.0
C233 C 0.32151 0.39435 0.83543 0.0
O234 O 0.36093 0.4227 0.89048 0.0
O235 O 0.35055 0.45719 0.88275 0.0
O236 O 0.28351 0.35557 0.88668 0.0
O237 O 0.29896 0.40122 0.88676 0.0
Co238 Co 0.93569 0.31875 0.38679 0.0
O239 O 0.92572 0.31698 0.41906 0.0
O240 O 0.96978 0.33746 0.40587 0.0
C241 C 0.90438 0.27283 0.37945 0.0
O242 O 0.95341 0.3234 0.35428 0.0
Co243 Co 0.89032 0.30658 0.34866 0.0
O244 O 0.91677 0.30006 0.32954 0.0
C245 C 0.91936 0.36252 0.37201 0.0
C246 C 0.95263 0.33037 0.42363 0.0
C247 C 0.94313 0.31204 0.33428 0.0
O248 O 0.93536 0.35549 0.38329 0.0
O249 O 0.89948 0.3457 0.35825 0.0
O250 O 0.9289 0.27993 0.38856 0.0
O251 O 0.89887 0.29313 0.37688 0.0
Co252 Co 0.06069 0.38689 0.61657 0.0
O253 O 0.05775 0.38425 0.58333 0.0
O254 O 0.02093 0.36561 0.60742 0.0
C255 C 0.09543 0.37592 0.61879 0.0
O256 O 0.05678 0.38506 0.65214 0.0
Co257 Co 0.11819 0.43316 0.63757 0.0
O258 O 0.10038 0.41329 0.66708 0.0
C259 C 0.07936 0.44967 0.61648 0.0
C260 C 0.03056 0.36996 0.58614 0.0
C261 C 0.07403 0.39529 0.66956 0.0
O262 O 0.05964 0.42346 0.61569 0.0
O263 O 0.10499 0.45766 0.62229 0.0
O264 O 0.06909 0.35577 0.6176 0.0
O265 O 0.0997 0.40131 0.61667 0.0
Co266 Co 0.67525 0.06487 0.12062 0.0
O267 O 0.67365 0.06885 0.0876 0.0
O268 O 0.65585 0.02763 0.106 0.0
C269 C 0.72139 0.0977 0.1245 0.0
O270 O 0.67399 0.05378 0.15494 0.0
Co271 Co 0.68884 0.11777 0.15114 0.0
O272 O 0.69397 0.09476 0.17538 0.0
C273 C 0.63335 0.0853 0.12804 0.0
C274 C 0.66039 0.04143 0.08646 0.0
C275 C 0.68422 0.06806 0.17393 0.0
O276 O 0.63839 0.06499 0.12394 0.0
O277 O 0.65186 0.1093 0.13653 0.0
O278 O 0.71427 0.07207 0.11817 0.0
O279 O 0.7009 0.10306 0.12584 0.0
Co280 Co 0.60725 0.67262 0.61737 0.0
O281 O 0.60385 0.67663 0.58464 0.0
O282 O 0.62477 0.65456 0.60004 0.0
C283 C 0.62167 0.71809 0.62645 0.0
O284 O 0.61481 0.66588 0.65104 0.0
Co285 Co 0.56583 0.6825 0.64867 0.0
O286 O 0.5877 0.67701 0.6737 0.0
C287 C 0.54406 0.63015 0.62152 0.0
C288 C 0.61736 0.66299 0.58141 0.0
C289 C 0.606 0.66907 0.67108 0.0
O290 O 0.56965 0.63591 0.61741 0.0
O291 O 0.53798 0.64761 0.63126 0.0
O292 O 0.63994 0.71126 0.61885 0.0
O293 O 0.59552 0.69816 0.62567 0.0
Co294 Co 0.93449 0.61493 0.11256 0.0
O295 O 0.93583 0.61738 0.07935 0.0
O296 O 0.97385 0.63562 0.10209 0.0
C297 C 0.90047 0.62657 0.11625 0.0
O298 O 0.93974 0.61698 0.14802 0.0
Co299 Co 0.87764 0.56927 0.13476 0.0
O300 O 0.89583 0.5918 0.16324 0.0
C301 C 0.91521 0.55195 0.11243 0.0
C302 C 0.96314 0.63141 0.08116 0.0
C303 C 0.92243 0.60894 0.16547 0.0
O304 O 0.93497 0.57809 0.11112 0.0
O305 O 0.88992 0.54418 0.11915 0.0
O306 O 0.92684 0.64648 0.11445 0.0
O307 O 0.89561 0.60101 0.11376 0.0
Co308 Co 0.31764 0.93371 0.61445 0.0
O309 O 0.31842 0.929 0.5815 0.0
O310 O 0.3356 0.97058 0.59931 0.0
C311 C 0.27203 0.89984 0.61933 0.0
O312 O 0.31941 0.94542 0.64861 0.0
Co313 Co 0.30687 0.88207 0.64536 0.0
O314 O 0.30096 0.90484 0.66939 0.0
C315 C 0.36124 0.9154 0.62094 0.0
C316 C 0.33099 0.95636 0.57996 0.0
C317 C 0.30981 0.93138 0.66776 0.0
O318 O 0.35531 0.93514 0.61711 0.0
O319 O 0.34355 0.89132 0.62977 0.0
O320 O 0.27812 0.92511 0.61277 0.0
O321 O 0.29318 0.89544 0.62028 0.0
Co322 Co 0.3896 0.31976 0.11667 0.0
O323 O 0.39177 0.3165 0.08367 0.0
O324 O 0.36996 0.33671 0.10081 0.0
C325 C 0.37776 0.27434 0.12366 0.0
O326 O 0.38264 0.3255 0.15094 0.0
Co327 Co 0.43153 0.31044 0.14729 0.0
O328 O 0.40768 0.31126 0.17282 0.0
C329 C 0.4513 0.36573 0.12437 0.0
C330 C 0.37704 0.32904 0.08157 0.0
C331 C 0.3902 0.32029 0.17082 0.0
O332 O 0.42628 0.35743 0.1163 0.0
O333 O 0.4579 0.34982 0.136 0.0
O334 O 0.35825 0.28046 0.11832 0.0
O335 O 0.40347 0.29524 0.12293 0.0
C336 C 0.36966 0.07491 0.29169 0.0
C337 C 0.36837 0.05768 0.31036 0.0
C338 C 0.36371 0.06451 0.26889 0.0
C339 C 0.35528 0.03571 0.26454 0.0
C340 C 0.35073 0.01733 0.28359 0.0
C341 C 0.35768 0.02861 0.30635 0.0
C342 C 0.36892 0.08518 0.24931 0.0
C343 C 0.34023 0.98617 0.28006 0.0
C344 C 0.34042 0.02788 0.20038 0.0
C345 C 0.36778 0.03659 0.19211 0.0
C346 C 0.33417 0.02237 0.22427 0.0
C347 C 0.35619 0.0271 0.24001 0.0
C348 C 0.38251 0.03186 0.2311 0.0
C349 C 0.38788 0.03636 0.20716 0.0
C350 C 0.3051 0.01491 0.23292 0.0
C351 C 0.40656 0.03659 0.24706 0.0
H352 H 0.37707 0.09722 0.29467 0.0
H353 H 0.35611 0.01495 0.32069 0.0
H354 H 0.38592 0.08668 0.23768 0.0
H355 H 0.34947 0.07768 0.23867 0.0
H356 H 0.37536 0.10682 0.25578 0.0
H357 H 0.32639 0.9736 0.29478 0.0
H358 H 0.32824 0.97811 0.26352 0.0
H359 H 0.3586 0.98261 0.27971 0.0
H360 H 0.32484 0.02804 0.18871 0.0
H361 H 0.40906 0.04316 0.20065 0.0
H362 H 0.30487 0.0346 0.2375 0.0
H363 H 0.29935 0.00141 0.24874 0.0
H364 H 0.28875 0.00362 0.21927 0.0
H365 H 0.41462 0.05715 0.25629 0.0
H366 H 0.42447 0.03706 0.23737 0.0
H367 H 0.39905 0.01964 0.26039 0.0
C368 C 0.28944 0.34506 0.70715 0.0
C369 C 0.3132 0.35893 0.69262 0.0
C370 C 0.29259 0.34336 0.73124 0.0
C371 C 0.32021 0.35621 0.74094 0.0
C372 C 0.34394 0.36605 0.72587 0.0
C373 C 0.34017 0.36737 0.70172 0.0
C374 C 0.26656 0.33181 0.74649 0.0
C375 C 0.37366 0.37888 0.73542 0.0
C376 C 0.32619 0.40208 0.79256 0.0
C377 C 0.32425 0.38512 0.81164 0.0
C378 C 0.32618 0.3933 0.76966 0.0
C379 C 0.32427 0.36674 0.76545 0.0
C380 C 0.3238 0.35004 0.78459 0.0
C381 C 0.32375 0.35941 0.80754 0.0
C382 C 0.32704 0.41214 0.74992 0.0
C383 C 0.32212 0.32178 0.78098 0.0
H384 H 0.26854 0.33838 0.70005 0.0
H385 H 0.35861 0.37813 0.69051 0.0
H386 H 0.26818 0.31963 0.76131 0.0
H387 H 0.26474 0.34974 0.75377 0.0
H388 H 0.24688 0.31787 0.73655 0.0
H389 H 0.38854 0.37884 0.72218 0.0
H390 H 0.38124 0.4012 0.74059 0.0
H391 H 0.37417 0.36723 0.7511 0.0
H392 H 0.32717 0.42224 0.79546 0.0
H393 H 0.32238 0.3462 0.82216 0.0
H394 H 0.30709 0.40109 0.73968 0.0
H395 H 0.34487 0.41681 0.73797 0.0
H396 H 0.32959 0.43261 0.75621 0.0
H397 H 0.29962 0.30518 0.77839 0.0
H398 H 0.33031 0.31574 0.79637 0.0
H399 H 0.33418 0.322 0.76532 0.0
C400 C 0.92218 0.31702 0.21592 0.0
C401 C 0.93884 0.3209 0.19608 0.0
C402 C 0.93254 0.31806 0.23838 0.0
C403 C 0.9605 0.32302 0.24143 0.0
C404 C 0.97778 0.32737 0.2216 0.0
C405 C 0.96674 0.32627 0.19908 0.0
C406 C 0.91318 0.31351 0.25887 0.0
C407 C 0.00757 0.33245 0.22401 0.0
C408 C 0.9756 0.34394 0.30404 0.0
C409 C 0.9617 0.31687 0.3141 0.0
C410 C 0.98001 0.3471 0.27981 0.0
C411 C 0.9703 0.32261 0.26565 0.0
C412 C 0.96129 0.29602 0.27639 0.0
C413 C 0.95672 0.2934 0.30056 0.0
C414 C 0.99059 0.37601 0.26919 0.0
C415 C 0.95187 0.26952 0.26211 0.0
H416 H 0.90073 0.31318 0.21402 0.0
H417 H 0.9798 0.32929 0.18391 0.0
H418 H 0.90925 0.29434 0.26872 0.0
H419 H 0.92332 0.33188 0.27093 0.0
H420 H 0.89234 0.31072 0.25344 0.0
H421 H 0.02041 0.34254 0.20816 0.0
H422 H 0.01851 0.34602 0.23932 0.0
H423 H 0.00666 0.31182 0.22663 0.0
H424 H 0.9794 0.36213 0.31449 0.0
H425 H 0.94601 0.27244 0.30836 0.0
H426 H 0.97214 0.37823 0.26401 0.0
H427 H 0.00342 0.37877 0.25335 0.0
H428 H 0.00357 0.39319 0.2818 0.0
H429 H 0.92993 0.26175 0.25574 0.0
H430 H 0.95191 0.25239 0.2726 0.0
H431 H 0.96579 0.27393 0.24672 0.0
C432 C 0.63924 0.96307 0.70047 0.0
C433 C 0.61097 0.94196 0.69661 0.0
C434 C 0.6491 0.97266 0.7233 0.0
C435 C 0.63025 0.96056 0.74244 0.0
C436 C 0.60115 0.9412 0.73815 0.0
C437 C 0.59197 0.93233 0.71537 0.0
C438 C 0.67999 0.99424 0.72686 0.0
C439 C 0.57996 0.92777 0.75777 0.0
C440 C 0.64404 0.93655 0.79926 0.0
C441 C 0.63532 0.95061 0.81476 0.0
C442 C 0.64683 0.94274 0.77541 0.0
C443 C 0.64069 0.9635 0.7669 0.0
C444 C 0.63657 0.98093 0.78297 0.0
C445 C 0.63364 0.9741 0.80689 0.0
C446 C 0.65214 0.9241 0.7591 0.0
C447 C 0.63183 0.00451 0.7747 0.0
H448 H 0.65397 0.97082 0.68597 0.0
H449 H 0.56992 0.91653 0.71235 0.0
H450 H 0.68353 0.00648 0.74321 0.0
H451 H 0.69246 0.98321 0.72776 0.0
H452 H 0.68828 0.00925 0.71196 0.0
H453 H 0.55794 0.9141 0.75132 0.0
H454 H 0.58572 0.91454 0.76865 0.0
H455 H 0.58025 0.94437 0.76916 0.0
H456 H 0.64586 0.9187 0.80546 0.0
H457 H 0.6272 0.98524 0.81887 0.0
H458 H 0.66761 0.93703 0.74542 0.0
H459 H 0.63199 0.90889 0.75032 0.0
H460 H 0.66033 0.91179 0.76846 0.0
H461 H 0.64481 0.01498 0.75901 0.0
H462 H 0.6371 0.02066 0.78856 0.0
H463 H 0.60917 0.99564 0.76998 0.0
C464 C 0.66873 0.63577 0.30652 0.0
C465 C 0.68421 0.62208 0.31145 0.0
C466 C 0.66557 0.64253 0.28339 0.0
C467 C 0.67766 0.63484 0.26488 0.0
C468 C 0.69493 0.62287 0.27003 0.0
C469 C 0.69825 0.61704 0.29315 0.0
C470 C 0.64803 0.65643 0.27887 0.0
C471 C 0.70836 0.61422 0.251 0.0
C472 C 0.64591 0.60526 0.20665 0.0
C473 C 0.66756 0.62449 0.19202 0.0
C474 C 0.64665 0.61036 0.23064 0.0
C475 C 0.66972 0.6353 0.24009 0.0
C476 C 0.68918 0.65668 0.22484 0.0
C477 C 0.68814 0.65084 0.20084 0.0
C478 C 0.62509 0.58713 0.24609 0.0
C479 C 0.7131 0.68422 0.23412 0.0
H480 H 0.65808 0.64013 0.32053 0.0
H481 H 0.71086 0.60712 0.29672 0.0
H482 H 0.65498 0.66959 0.26284 0.0
H483 H 0.62547 0.6398 0.27665 0.0
H484 H 0.64922 0.66997 0.29382 0.0
H485 H 0.72162 0.6057 0.25804 0.0
H486 H 0.69157 0.59765 0.23985 0.0
H487 H 0.72191 0.63263 0.23971 0.0
H488 H 0.63006 0.58484 0.19971 0.0
H489 H 0.70496 0.66568 0.18949 0.0
H490 H 0.61762 0.59611 0.25988 0.0
H491 H 0.63512 0.57611 0.25478 0.0
H492 H 0.60642 0.57117 0.23606 0.0
H493 H 0.7061 0.69158 0.24946 0.0
H494 H 0.72133 0.70103 0.22056 0.0
H495 H 0.73081 0.68101 0.23975 0.0
C496 C 0.02429 0.66226 0.70021 0.0
C497 C 0.04828 0.68666 0.69182 0.0
C498 C 0.0181 0.65902 0.72425 0.0
C499 C 0.03664 0.68043 0.73997 0.0
C500 C 0.05819 0.70669 0.73101 0.0
C501 C 0.06366 0.70949 0.70703 0.0
C502 C 0.99374 0.63146 0.73299 0.0
C503 C 0.07812 0.73049 0.74693 0.0
C504 C 0.03788 0.68135 0.80638 0.0
C505 C 0.058 0.67292 0.81043 0.0
C506 C 0.02823 0.68142 0.78354 0.0
C507 C 0.03928 0.67315 0.76458 0.0
C508 C 0.05748 0.66209 0.76912 0.0
C509 C 0.06646 0.66205 0.79192 0.0
C510 C 0.00786 0.6922 0.77972 0.0
C511 C 0.06972 0.65267 0.74969 0.0
H512 H 0.01206 0.64465 0.68848 0.0
H513 H 0.08185 0.72866 0.70046 0.0
H514 H 0.00159 0.61679 0.73762 0.0
H515 H 0.98414 0.63492 0.74883 0.0
H516 H 0.97708 0.62102 0.71943 0.0
H517 H 0.09126 0.75061 0.73728 0.0
H518 H 0.06608 0.7343 0.76065 0.0
H519 H 0.09256 0.72449 0.75568 0.0
H520 H 0.0311 0.68956 0.8207 0.0
H521 H 0.08156 0.65493 0.79512 0.0
H522 H 0.99502 0.68317 0.7637 0.0
H523 H 0.01999 0.71564 0.77799 0.0
H524 H 0.99335 0.68701 0.79486 0.0
H525 H 0.0525 0.63672 0.73851 0.0
H526 H 0.08234 0.64323 0.75636 0.0
H527 H 0.08371 0.67111 0.73856 0.0
C528 C 0.91353 0.61338 0.20742 0.0
C529 C 0.93313 0.61832 0.18958 0.0
C530 C 0.9217 0.6178 0.23084 0.0
C531 C 0.95045 0.62793 0.23684 0.0
C532 C 0.97087 0.63521 0.21889 0.0
C533 C 0.96194 0.63012 0.19541 0.0
C534 C 0.89902 0.60977 0.24924 0.0
C535 C 0.00186 0.64695 0.22439 0.0
C536 C 0.95576 0.64251 0.30142 0.0
C537 C 0.94828 0.61553 0.30987 0.0
C538 C 0.9608 0.6486 0.27745 0.0
C539 C 0.9575 0.62693 0.26183 0.0
C540 C 0.95355 0.601 0.27088 0.0
C541 C 0.94896 0.59564 0.29482 0.0
C542 C 0.96642 0.67704 0.26863 0.0
C543 C 0.95017 0.57732 0.25506 0.0
H544 H 0.89132 0.60494 0.20317 0.0
H545 H 0.97735 0.63434 0.18178 0.0
H546 H 0.89731 0.59198 0.25992 0.0
H547 H 0.90472 0.62792 0.26111 0.0
H548 H 0.87784 0.60314 0.24161 0.0
H549 H 0.01551 0.65971 0.20964 0.0
H550 H 0.00822 0.66035 0.2403 0.0
H551 H 0.00587 0.62914 0.22747 0.0
H552 H 0.9551 0.65787 0.31307 0.0
H553 H 0.94307 0.57473 0.30145 0.0
H554 H 0.94617 0.67533 0.26283 0.0
H555 H 0.98107 0.684 0.25348 0.0
H556 H 0.97563 0.69348 0.28248 0.0
H557 H 0.92924 0.56782 0.24622 0.0
H558 H 0.95133 0.56031 0.26482 0.0
H559 H 0.96678 0.58556 0.24139 0.0
C560 C 0.32241 0.97059 0.80229 0.0
C561 C 0.33402 0.95347 0.80797 0.0
C562 C 0.32121 0.97776 0.77886 0.0
C563 C 0.33135 0.967 0.76104 0.0
C564 C 0.34611 0.95265 0.76723 0.0
C565 C 0.34731 0.9462 0.79061 0.0
C566 C 0.30678 0.99452 0.77319 0.0
C567 C 0.35758 0.94091 0.74904 0.0
C568 C 0.29084 0.93068 0.70706 0.0
C569 C 0.31093 0.94603 0.68979 0.0
C570 C 0.29566 0.93938 0.73036 0.0
C571 C 0.32118 0.96428 0.73654 0.0
C572 C 0.3395 0.98203 0.71872 0.0
C573 C 0.33429 0.97256 0.69541 0.0
C574 C 0.2751 0.91989 0.74859 0.0
C575 C 0.36599 0.0096 0.72442 0.0
H576 H 0.31224 0.97638 0.81576 0.0
H577 H 0.35663 0.93327 0.79515 0.0
H578 H 0.31478 0.00641 0.75662 0.0
H579 H 0.28362 0.97982 0.77139 0.0
H580 H 0.30999 0.00969 0.78742 0.0
H581 H 0.3705 0.9324 0.75684 0.0
H582 H 0.33968 0.92348 0.73935 0.0
H583 H 0.37093 0.95755 0.73628 0.0
H584 H 0.27236 0.9105 0.70263 0.0
H585 H 0.34972 0.98474 0.68205 0.0
H586 H 0.26974 0.93207 0.76104 0.0
H587 H 0.28507 0.90973 0.75861 0.0
H588 H 0.25509 0.9029 0.74077 0.0
H589 H 0.3629 0.01972 0.74009 0.0
H590 H 0.37243 0.02463 0.70955 0.0
H591 H 0.38364 0.00547 0.72802 0.0
C592 C 0.3453 0.29048 0.29577 0.0
C593 C 0.3553 0.31391 0.31073 0.0
C594 C 0.34227 0.29329 0.27185 0.0
C595 C 0.34939 0.32024 0.26276 0.0
C596 C 0.35444 0.34249 0.27839 0.0
C597 C 0.3577 0.3392 0.30236 0.0
C598 C 0.3358 0.26858 0.25606 0.0
C599 C 0.35996 0.37086 0.26952 0.0
C600 C 0.3987 0.3354 0.21199 0.0
C601 C 0.38005 0.32607 0.19298 0.0
C602 C 0.38926 0.33577 0.23454 0.0
C603 C 0.36025 0.32689 0.23835 0.0
C604 C 0.34182 0.32021 0.21891 0.0
C605 C 0.35194 0.31972 0.19632 0.0
C606 C 0.41005 0.34341 0.25448 0.0
C607 C 0.3111 0.3119 0.22187 0.0
H608 H 0.3429 0.27071 0.30237 0.0
H609 H 0.36508 0.3573 0.31393 0.0
H610 H 0.32035 0.26624 0.24243 0.0
H611 H 0.35559 0.2725 0.24719 0.0
H612 H 0.32707 0.24831 0.26584 0.0
H613 H 0.35513 0.38241 0.28308 0.0
H614 H 0.38268 0.38405 0.26474 0.0
H615 H 0.34707 0.36829 0.25375 0.0
H616 H 0.42068 0.34111 0.20937 0.0
H617 H 0.33748 0.31283 0.18163 0.0
H618 H 0.40336 0.3247 0.26594 0.0
H619 H 0.41048 0.36058 0.26517 0.0
H620 H 0.432 0.35061 0.24837 0.0
H621 H 0.29789 0.28843 0.2222 0.0
H622 H 0.30382 0.31957 0.20691 0.0
H623 H 0.30741 0.32043 0.23825 0.0
C624 C 0.08121 0.40237 0.71249 0.0
C625 C 0.06344 0.38693 0.69385 0.0
C626 C 0.07265 0.3952 0.73565 0.0
C627 C 0.0455 0.37178 0.74064 0.0
C628 C 0.02714 0.35619 0.72203 0.0
C629 C 0.03628 0.36403 0.69879 0.0
C630 C 0.09306 0.41265 0.75483 0.0
C631 C -0.00194 0.33115 0.72667 0.0
C632 C 0.05184 0.34979 0.80113 0.0
C633 C 0.04518 0.36741 0.81421 0.0
C634 C 0.04789 0.34745 0.7769 0.0
C635 C 0.03765 0.36366 0.76553 0.0
C636 C 0.02727 0.37832 0.77911 0.0
C637 C 0.03119 0.38003 0.80342 0.0
C638 C 0.05872 0.33106 0.76329 0.0
C639 C 0.01589 0.39563 0.76785 0.0
H640 H 0.10211 0.4203 0.70905 0.0
H641 H 0.02234 0.352 0.68455 0.0
H642 H 0.08301 0.4213 0.76656 0.0
H643 H 0.09853 0.39906 0.7655 0.0
H644 H 0.11306 0.43066 0.74797 0.0
H645 H 0.98644 0.32101 0.71033 0.0
H646 H -0.00012 0.31505 0.7372 0.0
H647 H 0.98531 0.33803 0.73698 0.0
H648 H 0.0629 0.34023 0.8095 0.0
H649 H 0.02637 0.39397 0.81351 0.0
H650 H 0.08046 0.34594 0.75688 0.0
H651 H 0.04512 0.32051 0.74792 0.0
H652 H 0.05969 0.31476 0.77427 0.0
H653 H 0.03394 0.41637 0.76228 0.0
H654 H 0.00261 0.39977 0.78016 0.0
H655 H 0.00313 0.38484 0.75215 0.0
C656 C 0.67261 0.03816 0.31061 0.0
C657 C 0.6679 0.06067 0.31583 0.0
C658 C 0.67297 0.03008 0.28728 0.0
C659 C 0.66858 0.04495 0.26896 0.0
C660 C 0.66168 0.06619 0.27441 0.0
C661 C 0.66142 0.0737 0.29767 0.0
C662 C 0.67973 0.00688 0.28234 0.0
C663 C 0.65646 0.0825 0.2556 0.0
C664 C 0.70575 0.06673 0.21143 0.0
C665 C 0.68268 0.05364 0.1961 0.0
C666 C 0.70225 0.06097 0.23536 0.0
C667 C 0.67489 0.04184 0.24417 0.0
C668 C 0.65248 0.02561 0.22835 0.0
C669 C 0.65662 0.03178 0.20435 0.0
C670 C 0.72698 0.07834 0.2514 0.0
C671 C 0.62329 0.00421 0.23695 0.0
H672 H 0.67746 0.02786 0.32459 0.0
H673 H 0.65711 0.09068 0.3016 0.0
H674 H 0.66845 0.99457 0.26658 0.0
H675 H 0.70285 0.0165 0.27921 0.0
H676 H 0.67402 0.99212 0.29734 0.0
H677 H 0.64961 0.09707 0.26282 0.0
H678 H 0.67621 0.09529 0.24543 0.0
H679 H 0.6399 0.06767 0.24335 0.0
H680 H 0.726 0.08347 0.20497 0.0
H681 H 0.63873 0.02159 0.19251 0.0
H682 H 0.72797 0.06494 0.26549 0.0
H683 H 0.72418 0.09523 0.25968 0.0
H684 H 0.74752 0.0886 0.2419 0.0
H685 H 0.6246 0.99265 0.25238 0.0
H686 H 0.61072 0.98864 0.22313 0.0
H687 H 0.61181 0.01538 0.24223 0.0
C688 C 0.64524 0.67817 0.69882 0.0
C689 C 0.61643 0.6631 0.69283 0.0
C690 C 0.65366 0.68 0.72229 0.0
C691 C 0.63266 0.66699 0.73985 0.0
C692 C 0.60402 0.64878 0.73328 0.0
C693 C 0.59634 0.64702 0.70984 0.0
C694 C 0.68462 0.69811 0.7284 0.0
C695 C 0.58078 0.63405 0.75119 0.0
C696 C 0.63616 0.66576 0.80568 0.0
C697 C 0.62946 0.68687 0.81115 0.0
C698 C 0.64104 0.66107 0.78239 0.0
C699 C 0.63852 0.67748 0.76437 0.0
C700 C 0.63515 0.70092 0.77026 0.0
C701 C 0.63099 0.70546 0.79356 0.0
C702 C 0.64642 0.63704 0.77706 0.0
C703 C 0.63261 0.71934 0.7518 0.0
H704 H 0.66086 0.69051 0.68563 0.0
H705 H 0.57407 0.63507 0.70505 0.0
H706 H 0.68967 0.72032 0.73125 0.0
H707 H 0.68992 0.69056 0.74457 0.0
H708 H 0.69829 0.69818 0.71398 0.0
H709 H 0.56014 0.61871 0.74312 0.0
H710 H 0.58656 0.6225 0.76393 0.0
H711 H 0.57794 0.65008 0.76095 0.0
H712 H 0.63556 0.65159 0.81922 0.0
H713 H 0.62671 0.72239 0.79777 0.0
H714 H 0.6588 0.64093 0.76075 0.0
H715 H 0.62585 0.61709 0.77493 0.0
H716 H 0.65801 0.63385 0.7916 0.0
H717 H 0.65071 0.72736 0.73952 0.0
H718 H 0.632 0.73782 0.75938 0.0
H719 H 0.61285 0.70658 0.74162 0.0
C720 C 0.34517 0.11589 0.11252 0.0
C721 C 0.35997 0.11036 0.1297 0.0
C722 C 0.34297 0.14049 0.11362 0.0
C723 C 0.35507 0.15925 0.13277 0.0
C724 C 0.36711 0.15185 0.15143 0.0
C725 C 0.37005 0.12778 0.1494 0.0
C726 C 0.33061 0.1479 0.09307 0.0
C727 C 0.37923 0.17065 0.17257 0.0
C728 C 0.39209 0.23796 0.12028 0.0
C729 C 0.37168 0.24503 0.12702 0.0
C730 C 0.38661 0.21003 0.12178 0.0
C731 C 0.36041 0.18876 0.13108 0.0
C732 C 0.33994 0.1959 0.13855 0.0
C733 C 0.34563 0.22399 0.136 0.0
C734 C 0.40881 0.20327 0.11308 0.0
C735 C 0.31227 0.17399 0.14933 0.0
H736 H 0.33762 0.10242 0.0972 0.0
H737 H 0.38135 0.12329 0.16274 0.0
H738 H 0.31669 0.15617 0.0989 0.0
H739 H 0.34813 0.16487 0.08275 0.0
H740 H 0.31822 0.12934 0.08148 0.0
H741 H 0.38201 0.15913 0.18739 0.0
H742 H 0.40029 0.18904 0.16819 0.0
H743 H 0.36532 0.17905 0.17819 0.0
H744 H 0.41214 0.2542 0.11311 0.0
H745 H 0.32992 0.22958 0.1413 0.0
H746 H 0.39941 0.18602 0.09993 0.0
H747 H 0.4166 0.1957 0.12771 0.0
H748 H 0.4273 0.22197 0.10509 0.0
H749 H 0.2998 0.15689 0.13658 0.0
H750 H 0.29919 0.18327 0.15521 0.0
H751 H 0.31649 0.16398 0.16448 0.0
C752 C 0.11585 0.34564 0.6311 0.0
C753 C 0.11933 0.3706 0.62096 0.0
C754 C 0.13908 0.34119 0.63342 0.0
C755 C 0.16598 0.36183 0.62475 0.0
C756 C 0.16929 0.38674 0.61405 0.0
C757 C 0.14603 0.39098 0.61261 0.0
C758 C 0.13503 0.31481 0.64552 0.0
C759 C 0.19745 0.40903 0.60411 0.0
C760 C 0.23782 0.37546 0.64431 0.0
C761 C 0.24535 0.36374 0.62586 0.0
C762 C 0.21064 0.37225 0.6455 0.0
C763 C 0.19118 0.35825 0.62714 0.0
C764 C 0.19823 0.34508 0.60909 0.0
C765 C 0.22518 0.34755 0.60892 0.0
C766 C 0.20355 0.38564 0.66552 0.0
C767 C 0.17847 0.33073 0.58882 0.0
H768 H 0.09518 0.32995 0.63766 0.0
H769 H 0.14867 0.41019 0.60458 0.0
H770 H 0.14146 0.30275 0.63387 0.0
H771 H 0.14886 0.32085 0.66115 0.0
H772 H 0.11268 0.30066 0.65101 0.0
H773 H 0.1959 0.42618 0.59495 0.0
H774 H 0.2133 0.41876 0.6183 0.0
H775 H 0.20559 0.39917 0.59167 0.0
H776 H 0.25342 0.38782 0.6575 0.0
H777 H 0.2312 0.33868 0.59457 0.0
H778 H 0.1816 0.37136 0.67177 0.0
H779 H 0.2048 0.40563 0.65959 0.0
H780 H 0.21846 0.3907 0.68035 0.0
H781 H 0.15649 0.31644 0.59497 0.0
H782 H 0.18531 0.31826 0.57803 0.0
H783 H 0.17801 0.3471 0.5776 0.0
C784 C 0.87986 0.23203 0.13443 0.0
C785 C 0.87673 0.25287 0.12275 0.0
C786 C 0.85671 0.20433 0.13676 0.0
C787 C 0.83038 0.19738 0.1264 0.0
C788 C 0.82759 0.21829 0.11391 0.0
C789 C 0.85067 0.24591 0.11264 0.0
C790 C 0.86012 0.18283 0.15087 0.0
C791 C 0.80012 0.2116 0.10205 0.0
C792 C 0.77196 0.12287 0.11232 0.0
C793 C 0.75098 0.12007 0.12796 0.0
C794 C 0.79892 0.14733 0.11249 0.0
C795 C 0.80507 0.16879 0.12925 0.0
C796 C 0.78473 0.16458 0.1465 0.0
C797 C 0.75764 0.14053 0.14529 0.0
C798 C 0.81972 0.15133 0.09342 0.0
C799 C 0.79081 0.18644 0.16519 0.0
H800 H 0.90009 0.23762 0.14236 0.0
H801 H 0.84844 0.26207 0.10339 0.0
H802 H 0.84605 0.1766 0.16636 0.0
H803 H 0.85357 0.16332 0.1405 0.0
H804 H 0.88232 0.19121 0.15687 0.0
H805 H 0.80231 0.2296 0.09137 0.0
H806 H 0.79276 0.19275 0.09061 0.0
H807 H 0.7834 0.20644 0.11531 0.0
H808 H 0.76662 0.10701 0.09884 0.0
H809 H 0.74142 0.13818 0.15751 0.0
H810 H 0.8414 0.15976 0.10057 0.0
H811 H 0.82059 0.1671 0.0807 0.0
H812 H 0.81353 0.13122 0.08399 0.0
H813 H 0.81239 0.19456 0.1725 0.0
H814 H 0.77511 0.17768 0.17961 0.0
H815 H 0.78997 0.20472 0.15753 0.0
C816 C 0.6483 0.76957 0.61774 0.0
C817 C 0.6294 0.74737 0.63212 0.0
C818 C 0.65077 0.79644 0.61936 0.0
C819 C 0.63465 0.8012 0.63631 0.0
C820 C 0.61808 0.77962 0.65257 0.0
C821 C 0.6151 0.75266 0.64992 0.0
C822 C 0.66808 0.81856 0.60129 0.0
C823 C 0.60149 0.78419 0.67148 0.0
C824 C 0.64409 0.87519 0.64187 0.0
C825 C 0.62048 0.87173 0.62935 0.0
C826 C 0.64895 0.85229 0.64472 0.0
C827 C 0.63035 0.82594 0.63397 0.0
C828 C 0.60689 0.82277 0.62084 0.0
C829 C 0.60197 0.84554 0.6191 0.0
C830 C 0.6735 0.85604 0.65954 0.0
C831 C 0.58697 0.79532 0.60849 0.0
H832 H 0.65924 0.7653 0.60392 0.0
H833 H 0.60075 0.73544 0.6612 0.0
H834 H 0.65355 0.81966 0.58831 0.0
H835 H 0.68051 0.83986 0.60931 0.0
H836 H 0.68286 0.81345 0.59195 0.0
H837 H 0.59489 0.76796 0.68543 0.0
H838 H 0.6142 0.80558 0.67936 0.0
H839 H 0.58209 0.78282 0.66386 0.0
H840 H 0.65826 0.89552 0.64988 0.0
H841 H 0.58389 0.84307 0.6092 0.0
H842 H 0.68768 0.85096 0.64931 0.0
H843 H 0.66538 0.84103 0.67442 0.0
H844 H 0.68617 0.87798 0.66646 0.0
H845 H 0.59917 0.78876 0.5971 0.0
H846 H 0.57104 0.79712 0.59764 0.0
H847 H 0.57549 0.7782 0.62144 0.0
C848 C 0.77129 0.65637 0.11745 0.0
C849 C 0.74909 0.63376 0.12944 0.0
C850 C 0.79877 0.66017 0.11786 0.0
C851 C 0.80405 0.64129 0.13102 0.0
C852 C 0.7823 0.6204 0.14514 0.0
C853 C 0.75489 0.61658 0.14388 0.0
C854 C 0.82125 0.68246 0.10234 0.0
C855 C 0.7873 0.60043 0.15999 0.0
C856 C 0.85229 0.61649 0.10638 0.0
C857 C 0.87706 0.63229 0.11935 0.0
C858 C 0.82889 0.62023 0.10942 0.0
C859 C 0.82998 0.63953 0.12653 0.0
C860 C 0.85512 0.65573 0.13965 0.0
C861 C 0.87869 0.65223 0.13561 0.0
C862 C 0.8028 0.60307 0.09458 0.0
C863 C 0.85669 0.67581 0.15851 0.0
H864 H 0.76677 0.6697 0.1063 0.0
H865 H 0.73775 0.59937 0.15345 0.0
H866 H 0.84203 0.69365 0.11138 0.0
H867 H 0.82395 0.67203 0.08669 0.0
H868 H 0.81545 0.69836 0.09649 0.0
H869 H 0.77021 0.58932 0.1731 0.0
H870 H 0.78797 0.58421 0.1487 0.0
H871 H 0.80798 0.61206 0.16916 0.0
H872 H 0.85128 0.60122 0.09369 0.0
H873 H 0.89791 0.66418 0.14577 0.0
H874 H 0.79625 0.61724 0.08614 0.0
H875 H 0.78493 0.58792 0.10569 0.0
H876 H 0.80636 0.59084 0.08079 0.0
H877 H 0.84956 0.69032 0.15179 0.0
H878 H 0.87849 0.68867 0.16566 0.0
H879 H 0.84218 0.66346 0.17295 0.0
C880 C 0.21995 0.87662 0.61239 0.0
C881 C 0.24284 0.87695 0.62383 0.0
C882 C 0.19277 0.85251 0.61331 0.0
C883 C 0.1885 0.82865 0.62643 0.0
C884 C 0.21109 0.83 0.63966 0.0
C885 C 0.23813 0.85402 0.63791 0.0
C886 C 0.16932 0.85171 0.5987 0.0
C887 C 0.20723 0.80531 0.65436 0.0
C888 C 0.11451 0.76559 0.63591 0.0
C889 C 0.11452 0.74634 0.61975 0.0
C890 C 0.13839 0.79283 0.63822 0.0
C891 C 0.16211 0.80092 0.62347 0.0
C892 C 0.16148 0.78172 0.60648 0.0
C893 C 0.13786 0.75443 0.60516 0.0
C894 C 0.13872 0.81242 0.65699 0.0
C895 C 0.18604 0.78973 0.59002 0.0
H896 H 0.22364 0.89441 0.60149 0.0
H897 H 0.25578 0.85444 0.64703 0.0
H898 H 0.16539 0.83773 0.58341 0.0
H899 H 0.14925 0.84272 0.60874 0.0
H900 H 0.17479 0.87312 0.59231 0.0
H901 H 0.22535 0.81144 0.66644 0.0
H902 H 0.18739 0.79658 0.6647 0.0
H903 H 0.20546 0.7881 0.64285 0.0
H904 H 0.09637 0.75893 0.64731 0.0
H905 H 0.13755 0.73933 0.59263 0.0
H906 H 0.14443 0.8334 0.64953 0.0
H907 H 0.15515 0.81601 0.67013 0.0
H908 H 0.11791 0.80364 0.66597 0.0
H909 H 0.19192 0.81007 0.58119 0.0
H910 H 0.18106 0.77325 0.57652 0.0
H911 H 0.20486 0.79283 0.59997 0.0
C912 C 0.85586 0.61056 0.35854 0.0
C913 C 0.87688 0.6249 0.37537 0.0
C914 C 0.83193 0.61385 0.35754 0.0
C915 C 0.8285 0.63087 0.37445 0.0
C916 C 0.85053 0.64667 0.39063 0.0
C917 C 0.87478 0.64385 0.39061 0.0
C918 C 0.80943 0.59755 0.33943 0.0
C919 C 0.84738 0.66441 0.40936 0.0
C920 C 0.76685 0.64502 0.37064 0.0
C921 C 0.74612 0.62212 0.38344 0.0
C922 C 0.79384 0.6481 0.36721 0.0
C923 C 0.80028 0.6284 0.37761 0.0
C924 C 0.77947 0.60567 0.39105 0.0
C925 C 0.75246 0.60252 0.3934 0.0
C926 C 0.81515 0.67193 0.35207 0.0
C927 C 0.78571 0.58465 0.40301 0.0
H928 H 0.85774 0.59612 0.34661 0.0
H929 H 0.89106 0.65478 0.40371 0.0
H930 H 0.79122 0.57891 0.34768 0.0
H931 H 0.80138 0.61096 0.3319 0.0
H932 H 0.81758 0.58985 0.32509 0.0
H933 H 0.86771 0.67815 0.41858 0.0
H934 H 0.83951 0.67799 0.40192 0.0
H935 H 0.83149 0.65018 0.42233 0.0
H936 H 0.76167 0.65997 0.36276 0.0
H937 H 0.73636 0.58493 0.40342 0.0
H938 H 0.82092 0.66299 0.33703 0.0
H939 H 0.83492 0.68538 0.36199 0.0
H940 H 0.80686 0.68554 0.34538 0.0
H941 H 0.79005 0.57241 0.38981 0.0
H942 H 0.76781 0.56944 0.41412 0.0
H943 H 0.80495 0.59602 0.41405 0.0
C944 C 0.12341 0.77434 0.86676 0.0
C945 C 0.12855 0.75404 0.87712 0.0
C946 C 0.14554 0.80252 0.86397 0.0
C947 C 0.17295 0.8105 0.87256 0.0
C948 C 0.17789 0.79004 0.8835 0.0
C949 C 0.15575 0.76199 0.88524 0.0
C950 C 0.13981 0.82353 0.85149 0.0
C951 C 0.20658 0.79774 0.89348 0.0
C952 C 0.24405 0.86997 0.85363 0.0
C953 C 0.25102 0.88861 0.87247 0.0
C954 C 0.21697 0.84596 0.85184 0.0
C955 C 0.19706 0.8399 0.86994 0.0
C956 C 0.20335 0.85994 0.88804 0.0
C957 C 0.23028 0.88441 0.88887 0.0
C958 C 0.21073 0.82572 0.83177 0.0
C959 C 0.18303 0.85404 0.90797 0.0
H960 H 0.10229 0.76803 0.86041 0.0
H961 H 0.1596 0.74631 0.89352 0.0
H962 H 0.14565 0.84225 0.86273 0.0
H963 H 0.1532 0.83133 0.83562 0.0
H964 H 0.1172 0.81411 0.84631 0.0
H965 H 0.20623 0.77975 0.90293 0.0
H966 H 0.22247 0.80439 0.87928 0.0
H967 H 0.21386 0.81589 0.9057 0.0
H968 H 0.26017 0.87346 0.84087 0.0
H969 H 0.23592 0.89885 0.90352 0.0
H970 H 0.18859 0.81704 0.82557 0.0
H971 H 0.21314 0.80762 0.83764 0.0
H972 H 0.22546 0.83618 0.81695 0.0
H973 H 0.16094 0.84493 0.9016 0.0
H974 H 0.18872 0.87352 0.9182 0.0
H975 H 0.18362 0.83822 0.91981 0.0
C976 C 0.39158 0.15171 0.39015 0.0
C977 C 0.3714 0.12517 0.38144 0.0
C978 C 0.38696 0.17477 0.38924 0.0
C979 C 0.36202 0.17141 0.37851 0.0
C980 C 0.3417 0.14467 0.36934 0.0
C981 C 0.3464 0.12161 0.37133 0.0
C982 C 0.40882 0.20272 0.3998 0.0
C983 C 0.31545 0.14065 0.357 0.0
C984 C 0.34592 0.22929 0.39481 0.0
C985 C 0.36207 0.24988 0.37817 0.0
C986 C 0.34419 0.20267 0.39444 0.0
C987 C 0.35809 0.19641 0.37648 0.0
C988 C 0.37213 0.21629 0.35842 0.0
C989 C 0.37455 0.2431 0.35981 0.0
C990 C 0.32974 0.1824 0.41437 0.0
C991 C 0.3863 0.21003 0.33849 0.0
H992 H 0.41077 0.15429 0.39819 0.0
H993 H 0.33093 0.101 0.36448 0.0
H994 H 0.41874 0.21898 0.38595 0.0
H995 H 0.39852 0.21035 0.41229 0.0
H996 H 0.42587 0.2011 0.40908 0.0
H997 H 0.30161 0.11843 0.35105 0.0
H998 H 0.30299 0.14657 0.36868 0.0
H999 H 0.32167 0.1549 0.34164 0.0
H1000 H 0.33647 0.23474 0.4091 0.0
H1001 H 0.38691 0.25902 0.34687 0.0
H1002 H 0.34608 0.18195 0.42565 0.0
H1003 H 0.31579 0.16052 0.40786 0.0
H1004 H 0.31689 0.18874 0.4252 0.0
H1005 H 0.40632 0.21153 0.34468 0.0
H1006 H 0.39148 0.22522 0.32388 0.0
H1007 H 0.37249 0.18816 0.33184 0.0
C1008 C 0.22724 0.34552 0.87154 0.0
C1009 C 0.24873 0.37086 0.88121 0.0
C1010 C 0.19955 0.34095 0.86894 0.0
C1011 C 0.19328 0.36185 0.87693 0.0
C1012 C 0.21499 0.38734 0.88686 0.0
C1013 C 0.24251 0.39169 0.88852 0.0
C1014 C 0.17711 0.31398 0.85756 0.0
C1015 C 0.20914 0.40997 0.89605 0.0
C1016 C 0.1335 0.37373 0.85894 0.0
C1017 C 0.11557 0.36295 0.87826 0.0
C1018 C 0.15742 0.37052 0.85692 0.0
C1019 C 0.16417 0.35755 0.87528 0.0
C1020 C 0.14507 0.3451 0.89416 0.0
C1021 C 0.12061 0.34752 0.89518 0.0
C1022 C 0.1766 0.38302 0.83604 0.0
C1023 C 0.15188 0.33188 0.91445 0.0
H1024 H 0.23216 0.3295 0.86574 0.0
H1025 H 0.25909 0.41123 0.89615 0.0
H1026 H 0.15972 0.30153 0.87008 0.0
H1027 H 0.16764 0.31917 0.84258 0.0
H1028 H 0.18576 0.30049 0.8513 0.0
H1029 H 0.2281 0.42787 0.90435 0.0
H1030 H 0.20213 0.41858 0.88162 0.0
H1031 H 0.19174 0.40069 0.90906 0.0
H1032 H 0.12937 0.38548 0.84578 0.0
H1033 H 0.10671 0.33942 0.91021 0.0
H1034 H 0.18451 0.36884 0.83001 0.0
H1035 H 0.1953 0.40365 0.84092 0.0
H1036 H 0.16556 0.38673 0.82135 0.0
H1037 H 0.15934 0.31742 0.90829 0.0
H1038 H 0.13327 0.31986 0.92605 0.0
H1039 H 0.1693 0.34888 0.92485 0.0
C1040 C 0.7674 0.11606 0.3712 0.0
C1041 C 0.74771 0.12072 0.38326 0.0
C1042 C 0.79532 0.13838 0.36764 0.0
C1043 C 0.80371 0.1655 0.37711 0.0
C1044 C 0.78389 0.17 0.38968 0.0
C1045 C 0.75603 0.14768 0.39224 0.0
C1046 C 0.81563 0.13313 0.35349 0.0
C1047 C 0.79209 0.19841 0.40054 0.0
C1048 C 0.87883 0.22211 0.39114 0.0
C1049 C 0.88242 0.2432 0.37531 0.0
C1050 C 0.85401 0.19544 0.39083 0.0
C1051 C 0.83292 0.1897 0.37383 0.0
C1052 C 0.83808 0.20994 0.35624 0.0
C1053 C 0.86256 0.23673 0.35748 0.0
C1054 C 0.84912 0.17472 0.41019 0.0
C1055 C 0.8166 0.20429 0.33733 0.0
H1056 H 0.7608 0.09517 0.36416 0.0
H1057 H 0.74084 0.15118 0.40177 0.0
H1058 H 0.82292 0.14736 0.33809 0.0
H1059 H 0.83473 0.13821 0.36395 0.0
H1060 H 0.8058 0.11081 0.34739 0.0
H1061 H 0.7746 0.19779 0.411 0.0
H1062 H 0.81085 0.20538 0.41201 0.0
H1063 H 0.79804 0.21466 0.38673 0.0
H1064 H 0.89422 0.22724 0.40498 0.0
H1065 H 0.86554 0.25302 0.34509 0.0
H1066 H 0.83977 0.15279 0.40335 0.0
H1067 H 0.83382 0.17494 0.42287 0.0
H1068 H 0.86907 0.18022 0.4196 0.0
H1069 H 0.8074 0.1823 0.3306 0.0
H1070 H 0.82614 0.21936 0.32257 0.0
H1071 H 0.79897 0.20662 0.34458 0.0
C1072 C 0.6053 0.75496 0.89293 0.0
C1073 C 0.62545 0.74881 0.88382 0.0
C1074 C 0.60978 0.78259 0.89235 0.0
C1075 C 0.63453 0.80435 0.88154 0.0
C1076 C 0.65486 0.79816 0.87203 0.0
C1077 C 0.65031 0.77042 0.87369 0.0
C1078 C 0.58792 0.78842 0.90328 0.0
C1079 C 0.68091 0.8206 0.85961 0.0
C1080 C 0.62105 0.86315 0.8637 0.0
C1081 C 0.63362 0.8823 0.88211 0.0
C1082 C 0.62378 0.83896 0.86197 0.0
C1083 C 0.63819 0.83319 0.87975 0.0
C1084 C 0.65218 0.85328 0.89775 0.0
C1085 C 0.65015 0.87799 0.89845 0.0
C1086 C 0.60953 0.81863 0.84199 0.0
C1087 C 0.66701 0.84752 0.91742 0.0
H1088 H 0.58621 0.73819 0.90096 0.0
H1089 H 0.66574 0.76544 0.86651 0.0
H1090 H 0.59828 0.80633 0.91578 0.0
H1091 H 0.57769 0.79468 0.88962 0.0
H1092 H 0.5711 0.76965 0.91262 0.0
H1093 H 0.69494 0.81247 0.85361 0.0
H1094 H 0.67442 0.82841 0.84427 0.0
H1095 H 0.69325 0.83906 0.87123 0.0
H1096 H 0.60842 0.86665 0.85098 0.0
H1097 H 0.65966 0.89282 0.91278 0.0
H1098 H 0.58965 0.79997 0.84822 0.0
H1099 H 0.62341 0.81079 0.83508 0.0
H1100 H 0.60409 0.82866 0.82755 0.0
H1101 H 0.6509 0.83064 0.92878 0.0
H1102 H 0.67993 0.8667 0.92824 0.0
H1103 H 0.68098 0.83974 0.91064 0.0
C1104 C 0.37463 0.99546 0.94785 0.0
C1105 C 0.34674 0.9756 0.94167 0.0
C1106 C 0.38117 0.00622 0.97072 0.0
C1107 C 0.35907 0.99759 0.98736 0.0
C1108 C 0.33073 0.97821 0.98081 0.0
C1109 C 0.32502 0.96703 0.95817 0.0
C1110 C 0.41172 0.0262 0.97724 0.0
C1111 C 0.30641 0.96926 0.99769 0.0
C1112 C 0.37341 0.00402 0.05269 0.0
C1113 C 0.37447 0.02971 0.05774 0.0
C1114 C 0.36935 0.99373 0.02969 0.0
C1115 C 0.36533 0.00907 0.01155 0.0
C1116 C 0.36604 0.03485 0.0167 0.0
C1117 C 0.37104 0.04505 0.03966 0.0
C1118 C 0.36941 0.96651 0.02477 0.0
C1119 C 0.36088 0.05135 0.99808 0.0
H1120 H 0.39143 0.00166 0.93511 0.0
H1121 H 0.30343 0.95162 0.95327 0.0
H1122 H 0.41435 0.04674 0.98327 0.0
H1123 H 0.41791 0.01715 0.99192 0.0
H1124 H 0.42645 0.03029 0.96244 0.0
H1125 H 0.28549 0.95514 0.98947 0.0
H1126 H 0.30904 0.95792 0.01267 0.0
H1127 H 0.30637 0.98824 0.00473 0.0
H1128 H 0.3763 0.99228 0.06664 0.0
H1129 H 0.37164 0.06485 0.04356 0.0
H1130 H 0.38504 0.97004 0.01088 0.0
H1131 H 0.34826 0.95012 0.01832 0.0
H1132 H 0.37469 0.95814 0.04048 0.0
H1133 H 0.37679 0.0574 0.98396 0.0
H1134 H 0.36195 0.07093 0.00502 0.0
H1135 H 0.33965 0.03786 0.99015 0.0
C1136 C 0.39201 0.35844 0.45956 0.0
C1137 C 0.37047 0.3497 0.44283 0.0
C1138 C 0.38781 0.36443 0.48251 0.0
C1139 C 0.36107 0.36066 0.48908 0.0
C1140 C 0.3393 0.35212 0.47214 0.0
C1141 C 0.34443 0.34716 0.44906 0.0
C1142 C 0.41189 0.37444 0.49978 0.0
C1143 C 0.31031 0.34729 0.47859 0.0
C1144 C 0.34165 0.34803 0.55345 0.0
C1145 C 0.3447 0.37417 0.56007 0.0
C1146 C 0.34668 0.34323 0.5303 0.0
C1147 C 0.35587 0.36543 0.51371 0.0
C1148 C 0.36009 0.39223 0.52068 0.0
C1149 C 0.35396 0.3961 0.54368 0.0
C1150 C 0.34134 0.31418 0.52342 0.0
C1151 C 0.37088 0.41675 0.50381 0.0
H1152 H 0.41222 0.36051 0.45469 0.0
H1153 H 0.32768 0.34005 0.43616 0.0
H1154 H 0.41574 0.39442 0.50822 0.0
H1155 H 0.40619 0.3584 0.51374 0.0
H1156 H 0.43192 0.37818 0.49148 0.0
H1157 H 0.29568 0.34058 0.46342 0.0
H1158 H 0.30079 0.33068 0.49225 0.0
H1159 H 0.31213 0.36697 0.48598 0.0
H1160 H 0.33415 0.331 0.5661 0.0
H1161 H 0.35643 0.41637 0.54889 0.0
H1162 H 0.36104 0.3157 0.51637 0.0
H1163 H 0.32514 0.30535 0.50939 0.0
H1164 H 0.33387 0.29912 0.5383 0.0
H1165 H 0.39096 0.42047 0.49568 0.0
H1166 H 0.37473 0.43668 0.51239 0.0
H1167 H 0.35525 0.41162 0.48959 0.0
C1168 C 0.04904 0.3912 0.96711 0.0
C1169 C 0.03122 0.37483 0.94881 0.0
C1170 C 0.03928 0.3872 0.99015 0.0
C1171 C 0.01108 0.36601 0.99515 0.0
C1172 C 0.99286 0.34946 0.97676 0.0
C1173 C 0.0031 0.35424 0.95371 0.0
C1174 C 0.05919 0.40569 0.00915 0.0
C1175 C 0.96271 0.32646 0.98148 0.0
C1176 C 0.9935 0.33812 0.05732 0.0
C1177 C 0.97895 0.35157 0.06536 0.0
C1178 C 0.00419 0.34266 0.03445 0.0
C1179 C 0.00062 0.3615 0.01962 0.0
C1180 C 0.98698 0.37605 0.02818 0.0
C1181 C 0.97589 0.37052 0.05084 0.0
C1182 C 0.01821 0.32644 0.02584 0.0
C1183 C 0.98344 0.39688 0.01321 0.0
H1184 H 0.07078 0.40732 0.96343 0.0
H1185 H 0.98933 0.34146 0.93964 0.0
H1186 H 0.04987 0.41699 0.01844 0.0
H1187 H 0.06219 0.39235 0.02216 0.0
H1188 H 0.08033 0.42165 1.00226 0.0
H1189 H 0.95142 0.31517 0.96535 0.0
H1190 H 0.96259 0.31077 0.99389 0.0
H1191 H 0.95075 0.33573 0.98974 0.0
H1192 H 0.99515 0.32293 0.06847 0.0
H1193 H 0.96421 0.38055 0.05711 0.0
H1194 H 0.03984 0.34134 0.01928 0.0
H1195 H 0.00588 0.3126 0.01104 0.0
H1196 H 0.01979 0.31301 0.03966 0.0
H1197 H 0.00426 0.4131 0.00607 0.0
H1198 H 0.97409 0.40783 0.02304 0.0
H1199 H 0.96945 0.38562 0.9982 0.0
C1200 C 0.62898 -0.00024 0.45271 0.0
C1201 C 0.65649 0.02106 0.44702 0.0
C1202 C 0.62257 0.98845 0.4754 0.0
C1203 C 0.64441 0.99826 0.49241 0.0
C1204 C 0.6725 0.01879 0.48625 0.0
C1205 C 0.67807 0.03026 0.46375 0.0
C1206 C 0.59229 0.96692 0.48145 0.0
C1207 C 0.69657 0.02912 0.50356 0.0
C1208 C 0.62623 0.99083 0.55714 0.0
C1209 C 0.62595 0.96562 0.56253 0.0
C1210 C 0.63182 0.00155 0.53425 0.0
C1211 C 0.63804 0.98709 0.51667 0.0
C1212 C 0.63874 0.96217 0.52236 0.0
C1213 C 0.63228 0.95155 0.54511 0.0
C1214 C 0.63043 0.02794 0.52872 0.0
C1215 C 0.64623 0.94667 0.5044 0.0
H1216 H 0.61224 0.99312 0.43986 0.0
H1217 H 0.69934 0.04689 0.45927 0.0
H1218 H 0.59108 0.94728 0.48827 0.0
H1219 H 0.58457 0.97548 0.49543 0.0
H1220 H 0.57786 0.9613 0.46621 0.0
H1221 H 0.71747 0.04374 0.49551 0.0
H1222 H 0.69296 0.0404 0.51809 0.0
H1223 H 0.69744 0.01084 0.5112 0.0
H1224 H 0.621 0.00149 0.57057 0.0
H1225 H 0.6322 0.93208 0.54934 0.0
H1226 H 0.6145 0.02325 0.51482 0.0
H1227 H 0.65122 0.04475 0.52201 0.0
H1228 H 0.62469 0.0363 0.54419 0.0
H1229 H 0.63048 0.93904 0.49004 0.0
H1230 H 0.64687 0.92818 0.5119 0.0
H1231 H 0.66726 0.96132 0.49663 0.0
C1232 C 0.6534 0.649 0.05203 0.0
C1233 C 0.65468 0.62465 0.05761 0.0
C1234 C 0.64854 0.65413 0.02894 0.0
C1235 C 0.64404 0.63396 0.01135 0.0
C1236 C 0.64455 0.60898 0.01714 0.0
C1237 C 0.65028 0.60484 0.04014 0.0
C1238 C 0.64866 0.68127 0.0233 0.0
C1239 C 0.6389 0.58653 0.99908 0.0
C1240 C 0.6044 0.63582 0.95776 0.0
C1241 C 0.62641 0.64943 0.94156 0.0
C1242 C 0.60974 0.62983 0.98029 0.0
C1243 C 0.63796 0.63856 0.98699 0.0
C1244 C 0.66025 0.65186 0.9705 0.0
C1245 C 0.65411 0.65679 0.94776 0.0
C1246 C 0.58526 0.61473 0.99707 0.0
C1247 C 0.69067 0.66191 0.97716 0.0
H1248 H 0.65709 0.66443 0.06553 0.0
H1249 H 0.65108 0.58587 0.04452 0.0
H1250 H 0.66462 0.6931 0.00955 0.0
H1251 H 0.62767 0.67635 0.01634 0.0
H1252 H 0.65356 0.69524 0.03878 0.0
H1253 H 0.63939 0.56798 0.0066 0.0
H1254 H 0.61781 0.57902 0.99096 0.0
H1255 H 0.65495 0.59563 0.98499 0.0
H1256 H 0.58296 0.63016 0.95282 0.0
H1257 H 0.67112 0.66774 0.93525 0.0
H1258 H 0.58755 0.62915 0.01163 0.0
H1259 H 0.58534 0.59606 0.00474 0.0
H1260 H 0.5644 0.60746 0.98854 0.0
H1261 H 0.69731 0.67801 0.99123 0.0
H1262 H 0.70543 0.67142 0.96221 0.0
H1263 H 0.69271 0.644 0.9841 0.0
C1264 C 0.02567 0.63265 0.54546 0.0
C1265 C 0.01639 0.64603 0.56115 0.0
C1266 C 0.0149 0.62611 0.52274 0.0
C1267 C 0.99505 0.63404 0.51528 0.0
C1268 C 0.98526 0.64721 0.53122 0.0
C1269 C 0.99579 0.6527 0.55417 0.0
C1270 C 0.02516 0.61118 0.5066 0.0
C1271 C 0.9645 0.65643 0.52377 0.0
C1272 C 0.9899 0.6423 0.44982 0.0
C1273 C 0.96456 0.61745 0.44447 0.0
C1274 C -9e-05 0.64823 0.47291 0.0
C1275 C 0.98457 0.62843 0.49081 0.0
C1276 C 0.95945 0.6029 0.48525 0.0
C1277 C 0.94957 0.59793 0.46222 0.0
C1278 C 0.02653 0.67591 0.47826 0.0
C1279 C 0.94298 0.58083 0.50362 0.0
H1280 H 0.04165 0.62752 0.55097 0.0
H1281 H 0.98904 0.66349 0.56626 0.0
H1282 H 0.00681 0.59195 0.49911 0.0
H1283 H 0.03709 0.62533 0.49187 0.0
H1284 H 0.03917 0.60479 0.51561 0.0
H1285 H 0.95889 0.66626 0.53827 0.0
H1286 H 0.97376 0.672 0.50934 0.0
H1287 H 0.94476 0.63799 0.51706 0.0
H1288 H 0.00131 0.65752 0.43613 0.0
H1289 H 0.93001 0.5786 0.45806 0.0
H1290 H 0.04283 0.67173 0.48587 0.0
H1291 H 0.02186 0.68797 0.49142 0.0
H1292 H 0.03557 0.68934 0.46252 0.0
H1293 H 0.95699 0.57426 0.51233 0.0
H1294 H 0.92438 0.56167 0.49625 0.0
H1295 H 0.93537 0.58993 0.51721 0.0
C1296 C 0.60481 0.96091 0.96442 0.0
C1297 C 0.62592 0.97401 0.94739 0.0
C1298 C 0.60912 0.97147 0.98723 0.0
C1299 C 0.63554 0.99521 0.99335 0.0
C1300 C 0.6569 0.0087 0.97613 0.0
C1301 C 0.65166 0.99816 0.95318 0.0
C1302 C 0.58545 0.95707 0.00481 0.0
C1303 C 0.68555 0.03374 0.98212 0.0
C1304 C 0.64114 0.0387 0.04686 0.0
C1305 C 0.6514 0.02738 0.06362 0.0
C1306 C 0.63521 0.02794 0.02409 0.0
C1307 C 0.64065 0.00598 0.01774 0.0
C1308 C 0.65081 0.99428 0.03471 0.0
C1309 C 0.65565 0.00485 0.05764 0.0
C1310 C 0.6234 0.04028 0.0068 0.0
C1311 C 0.65745 0.97126 0.02845 0.0
H1312 H 0.58482 0.94227 0.95987 0.0
H1313 H 0.66808 0.00805 0.94005 0.0
H1314 H 0.59212 0.94794 0.01907 0.0
H1315 H 0.58068 0.97281 0.01279 0.0
H1316 H 0.56568 0.9398 0.99691 0.0
H1317 H 0.69997 0.04159 0.96682 0.0
H1318 H 0.68302 0.05138 0.98905 0.0
H1319 H 0.6957 0.02767 0.99599 0.0
H1320 H 0.63784 0.05614 0.05158 0.0
H1321 H 0.66399 0.99644 0.07058 0.0
H1322 H 0.60356 0.02311 0.99895 0.0
H1323 H 0.63877 0.05078 0.99242 0.0
H1324 H 0.61877 0.05606 0.01493 0.0
H1325 H 0.63818 0.95241 0.0216 0.0
H1326 H 0.66547 0.96463 0.04359 0.0
H1327 H 0.67367 0.97889 0.01443 0.0
C1328 C 0.67224 0.65696 0.45319 0.0
C1329 C 0.65149 0.63376 0.44071 0.0
C1330 C 0.667 0.66243 0.47602 0.0
C1331 C 0.64047 0.64398 0.48657 0.0
C1332 C 0.6192 0.62089 0.47369 0.0
C1333 C 0.62505 0.61598 0.45087 0.0
C1334 C 0.69015 0.68734 0.48911 0.0
C1335 C 0.59064 0.60083 0.48427 0.0
C1336 C 0.63593 0.641 0.55288 0.0
C1337 C 0.62382 0.65796 0.55739 0.0
C1338 C 0.64152 0.63623 0.52986 0.0
C1339 C 0.63495 0.64886 0.51105 0.0
C1340 C 0.62294 0.66616 0.51558 0.0
C1341 C 0.61748 0.67043 0.53863 0.0
C1342 C 0.6543 0.61758 0.52563 0.0
C1343 C 0.61579 0.68016 0.49607 0.0
H1344 H 0.69294 0.67016 0.44539 0.0
H1345 H 0.60939 0.59759 0.44129 0.0
H1346 H 0.68211 0.70116 0.49576 0.0
H1347 H 0.69676 0.67962 0.50443 0.0
H1348 H 0.70909 0.7003 0.47808 0.0
H1349 H 0.57612 0.5845 0.47166 0.0
H1350 H 0.59345 0.58995 0.49952 0.0
H1351 H 0.58044 0.61283 0.49066 0.0
H1352 H 0.64086 0.63131 0.56728 0.0
H1353 H 0.60822 0.68371 0.54191 0.0
H1354 H 0.6747 0.62967 0.51615 0.0
H1355 H 0.63993 0.5993 0.51449 0.0
H1356 H 0.65821 0.60937 0.5421 0.0
H1357 H 0.63512 0.69397 0.48576 0.0
H1358 H 0.60676 0.69322 0.50257 0.0
H1359 H 0.60024 0.66378 0.48406 0.0
C1360 C 0.97244 0.65484 0.04282 0.0
C1361 C 0.98025 0.64157 0.0598 0.0
C1362 C 0.98443 0.66028 0.02049 0.0
C1363 C 0.00406 0.65136 0.01479 0.0
C1364 C 0.01252 0.63847 0.03209 0.0
C1365 C 0.00071 0.63401 0.05459 0.0
C1366 C 0.97551 0.6749 0.00286 0.0
C1367 C 0.03305 0.62826 0.02654 0.0
C1368 C 0.01151 0.64002 0.95017 0.0
C1369 C 0.03729 0.66437 0.94487 0.0
C1370 C 0.00067 0.63517 0.97303 0.0
C1371 C 0.01563 0.65558 0.99068 0.0
C1372 C 0.04127 0.68055 0.98513 0.0
C1373 C 0.05196 0.68442 0.96241 0.0
C1374 C 0.97349 0.60805 0.97841 0.0
C1375 C 0.05736 0.70327 0.00317 0.0
H1376 H 0.95638 0.66044 0.04691 0.0
H1377 H 0.0062 0.62316 0.06763 0.0
H1378 H 0.99447 0.69347 0.99529 0.0
H1379 H 0.96392 0.66015 0.98833 0.0
H1380 H 0.96157 0.68225 0.01059 0.0
H1381 H 0.03788 0.61916 0.04202 0.0
H1382 H 0.02398 0.6118 0.01272 0.0
H1383 H 0.0532 0.646 0.0197 0.0
H1384 H 0.00034 0.6244 0.93666 0.0
H1385 H 0.07185 0.7034 0.95827 0.0
H1386 H 0.95714 0.61299 0.98464 0.0
H1387 H 0.97718 0.59644 0.99261 0.0
H1388 H 0.965 0.59388 0.96298 0.0
H1389 H 0.04346 0.71087 0.01051 0.0
H1390 H 0.07668 0.72174 0.99587 0.0
H1391 H 0.06378 0.69441 0.01781 0.0
C1392 C 0.34754 0.95705 0.53967 0.0
C1393 C 0.33955 0.96992 0.55693 0.0
C1394 C 0.35379 0.96792 0.51699 0.0
C1395 C 0.35117 0.99177 0.51127 0.0
C1396 C 0.34316 0.00495 0.52869 0.0
C1397 C 0.33784 0.99407 0.5515 0.0
C1398 C 0.36322 0.95389 0.49917 0.0
C1399 C 0.33966 0.03013 0.52309 0.0
C1400 C 0.39084 0.03672 0.4591 0.0
C1401 C 0.36971 0.02627 0.44192 0.0
C1402 C 0.38523 0.02524 0.48158 0.0
C1403 C 0.35754 0.00332 0.48719 0.0
C1404 C 0.33615 0.99238 0.46979 0.0
C1405 C 0.34263 0.00377 0.44715 0.0
C1406 C 0.40886 0.03683 0.49937 0.0
C1407 C 0.30626 0.96932 0.47528 0.0
H1408 H 0.34901 0.93841 0.54396 0.0
H1409 H 0.33133 0.00377 0.56483 0.0
H1410 H 0.34786 0.94557 0.48454 0.0
H1411 H 0.38409 0.96968 0.49178 0.0
H1412 H 0.36511 0.93609 0.50668 0.0
H1413 H 0.33256 0.03742 0.53842 0.0
H1414 H 0.36005 0.04802 0.51677 0.0
H1415 H 0.32391 0.02453 0.50888 0.0
H1416 H 0.41185 0.0541 0.45493 0.0
H1417 H 0.32626 0.99601 0.43389 0.0
H1418 H 0.41115 0.01931 0.50692 0.0
H1419 H 0.40367 0.04693 0.51389 0.0
H1420 H 0.42957 0.05279 0.49178 0.0
H1421 H 0.30633 0.95021 0.48191 0.0
H1422 H 0.2921 0.96319 0.45983 0.0
H1423 H 0.2973 0.97663 0.48925 0.0
C1424 C 0.36216 0.35483 0.05367 0.0
C1425 C 0.36892 0.3336 0.05807 0.0
C1426 C 0.35653 0.36006 0.0308 0.0
C1427 C 0.35718 0.34327 0.01212 0.0
C1428 C 0.36322 0.32132 0.01668 0.0
C1429 C 0.36923 0.31693 0.03951 0.0
C1430 C 0.35042 0.38385 0.02654 0.0
C1431 C 0.36346 0.30251 0.9974 0.0
C1432 C 0.31816 0.34091 0.95657 0.0
C1433 C 0.34053 0.35927 0.94206 0.0
C1434 C 0.32332 0.33495 0.97923 0.0
C1435 C 0.3515 0.34849 0.98778 0.0
C1436 C 0.37425 0.3668 0.97298 0.0
C1437 C 0.36847 0.37178 0.95013 0.0
C1438 C 0.29857 0.31471 0.99418 0.0
C1439 C 0.40453 0.38196 0.98158 0.0
H1440 H 0.36203 0.36781 0.06795 0.0
H1441 H 0.37418 0.30026 0.04283 0.0
H1442 H 0.36633 0.39947 0.01429 0.0
H1443 H 0.32928 0.37542 0.01828 0.0
H1444 H 0.35083 0.39503 0.04288 0.0
H1445 H 0.36764 0.28575 0.004 0.0
H1446 H 0.34277 0.29216 0.98817 0.0
H1447 H 0.38002 0.31547 0.9844 0.0
H1448 H 0.29651 0.33171 0.95032 0.0
H1449 H 0.38562 0.38662 0.93902 0.0
H1450 H 0.29658 0.32619 0.00938 0.0
H1451 H 0.30221 0.29774 1.00105 0.0
H1452 H 0.2782 0.30467 0.98443 0.0
H1453 H 0.40657 0.39569 0.99662 0.0
H1454 H 0.41977 0.39533 0.96786 0.0
H1455 H 0.41051 0.36636 0.98777 0.0
C1456 C 0.01115 0.33771 0.55237 0.0
C1457 C 0.01226 0.35991 0.56549 0.0
C1458 C -0.00012 0.33204 0.52973 0.0
C1459 C 0.99017 0.34951 0.51986 0.0
C1460 C 0.99046 0.37145 0.53342 0.0
C1461 C 0.00151 0.37637 0.55616 0.0
C1462 C -0.00044 0.30818 0.51603 0.0
C1463 C 0.98055 0.39069 0.52347 0.0
C1464 C 0.99124 0.35419 0.45357 0.0
C1465 C 0.9626 0.33606 0.44812 0.0
C1466 C 0.00046 0.35917 0.4769 0.0
C1467 C 0.9806 0.34535 0.49511 0.0
C1468 C 0.95168 0.32704 0.48965 0.0
C1469 C 0.94302 0.32278 0.46627 0.0
C1470 C 0.03145 0.3791 0.48207 0.0
C1471 C 0.92993 0.3116 0.50849 0.0
H1472 H 0.02018 0.32551 0.5595 0.0
H1473 H 0.00325 0.39409 0.56617 0.0
H1474 H 0.9781 0.29409 0.50872 0.0
H1475 H 0.0145 0.31703 0.50115 0.0
H1476 H 0.00575 0.29522 0.52684 0.0
H1477 H 0.98058 0.40563 0.53669 0.0
H1478 H 0.99464 0.40319 0.50887 0.0
H1479 H 0.95879 0.37796 0.51629 0.0
H1480 H 0.00643 0.36456 0.43964 0.0
H1481 H 0.92084 0.3086 0.46222 0.0
H1482 H 0.04059 0.36744 0.49106 0.0
H1483 H 0.03379 0.39621 0.49399 0.0
H1484 H 0.04399 0.38894 0.46604 0.0
H1485 H 0.93572 0.29778 0.51848 0.0
H1486 H 0.9082 0.29828 0.50134 0.0
H1487 H 0.92967 0.32705 0.52096 0.0
C1488 C 0.47799 0.06661 0.10716 0.0
C1489 C 0.4727 0.07675 0.12792 0.0
C1490 C 0.50279 0.06487 0.10454 0.0
C1491 C 0.52219 0.0728 0.12334 0.0
C1492 C 0.51608 0.08166 0.14469 0.0
C1493 C 0.49162 0.08385 0.14661 0.0
C1494 C 0.50883 0.05578 0.0814 0.0
C1495 C 0.53584 0.08966 0.16536 0.0
C1496 C 0.58055 0.05414 0.12766 0.0
C1497 C 0.60463 0.08069 0.12362 0.0
C1498 C 0.5532 0.0507 0.12642 0.0
C1499 C 0.55002 0.07422 0.12047 0.0
C1500 C 0.57423 0.10048 0.11471 0.0
C1501 C 0.60126 0.1035 0.11667 0.0
C1502 C 0.52797 0.0225 0.13304 0.0
C1503 C 0.57172 0.12589 0.1077 0.0
H1504 H 0.46333 0.0611 0.0927 0.0
H1505 H 0.48729 0.09123 0.16282 0.0
H1506 H 0.52725 0.07414 0.07305 0.0
H1507 H 0.51457 0.03907 0.0839 0.0
H1508 H 0.49041 0.04766 0.06935 0.0
H1509 H 0.5267 0.09356 0.1813 0.0
H1510 H 0.54079 0.0726 0.1691 0.0
H1511 H 0.55617 0.1092 0.16134 0.0
H1512 H 0.58315 0.03648 0.13303 0.0
H1513 H 0.61988 0.12393 0.11317 0.0
H1514 H 0.51047 0.01609 0.12031 0.0
H1515 H 0.51987 0.02446 0.15029 0.0
H1516 H 0.53348 0.00543 0.13411 0.0
H1517 H 0.55497 0.11982 0.09429 0.0
H1518 H 0.59199 0.14342 0.10075 0.0
H1519 H 0.56548 0.13393 0.12307 0.0
C1520 C 0.52348 0.57765 0.62252 0.0
C1521 C 0.52048 0.60115 0.61716 0.0
C1522 C 0.49975 0.55015 0.62287 0.0
C1523 C 0.47267 0.54616 0.61714 0.0
C1524 C 0.47007 0.56961 0.60982 0.0
C1525 C 0.49395 0.5969 0.61028 0.0
C1526 C 0.50335 0.52581 0.63114 0.0
C1527 C 0.44173 0.56615 0.60292 0.0
C1528 C 0.40836 0.47275 0.60829 0.0
C1529 C 0.39365 0.46923 0.62922 0.0
C1530 C 0.43461 0.49739 0.60422 0.0
C1531 C 0.44658 0.51852 0.62173 0.0
C1532 C 0.43246 0.51423 0.64336 0.0
C1533 C 0.40599 0.48983 0.64671 0.0
C1534 C 0.44878 0.50142 0.58081 0.0
C1535 C 0.44483 0.5359 0.66273 0.0
H1536 H 0.54399 0.58097 0.628 0.0
H1537 H 0.49171 0.61507 0.60593 0.0
H1538 H 0.49434 0.51953 0.64893 0.0
H1539 H 0.49164 0.50703 0.6197 0.0
H1540 H 0.52602 0.53158 0.63173 0.0
H1541 H 0.44397 0.58558 0.59455 0.0
H1542 H 0.43051 0.54805 0.59071 0.0
H1543 H 0.4282 0.56146 0.61862 0.0
H1544 H 0.39873 0.45688 0.59469 0.0
H1545 H 0.39478 0.48696 0.66301 0.0
H1546 H 0.47144 0.50773 0.583 0.0
H1547 H 0.44814 0.51882 0.57128 0.0
H1548 H 0.43823 0.4819 0.56996 0.0
H1549 H 0.46713 0.54157 0.66618 0.0
H1550 H 0.43255 0.52811 0.67917 0.0
H1551 H 0.44501 0.55559 0.65742 0.0
C1552 C 0.91545 0.41499 0.13944 0.0
C1553 C 0.92515 0.40252 0.12326 0.0
C1554 C 0.91896 0.44193 0.13554 0.0
C1555 C 0.93186 0.45648 0.11462 0.0
C1556 C 0.94284 0.44453 0.09864 0.0
C1557 C 0.93962 0.41769 0.1033 0.0
C1558 C 0.90758 0.45419 0.15334 0.0
C1559 C 0.95645 0.45924 0.07607 0.0
C1560 C 0.90164 0.50331 0.0991 0.0
C1561 C 0.92228 0.52947 0.10819 0.0
C1562 C 0.90581 0.47992 0.09899 0.0
C1563 C 0.93092 0.4826 0.10881 0.0
C1564 C 0.95273 0.50951 0.11645 0.0
C1565 C 0.94825 0.53279 0.11582 0.0
C1566 C 0.88233 0.45178 0.09008 0.0
C1567 C 0.97968 0.51321 0.12722 0.0
H1568 H 0.90462 0.4034 0.15505 0.0
H1569 H 0.94708 0.40797 0.09076 0.0
H1570 H 0.9239 0.47633 0.15767 0.0
H1571 H 0.88898 0.45472 0.14602 0.0
H1572 H 0.9009 0.44159 0.16969 0.0
H1573 H 0.96743 0.44927 0.0672 0.0
H1574 H 0.93986 0.45819 0.06419 0.0
H1575 H 0.97192 0.482 0.07912 0.0
H1576 H 0.8817 0.50085 0.0929 0.0
H1577 H 0.96423 0.55303 0.12291 0.0
H1578 H 0.87134 0.43757 0.10504 0.0
H1579 H 0.89111 0.44124 0.07906 0.0
H1580 H 0.86638 0.4542 0.07977 0.0
H1581 H 0.97507 0.50437 0.14514 0.0
H1582 H 0.99642 0.53592 0.12827 0.0
H1583 H 0.98798 0.50149 0.11718 0.0
C1584 C 0.41394 0.94731 0.62052 0.0
C1585 C 0.39009 0.92078 0.61588 0.0
C1586 C 0.44141 0.95103 0.61935 0.0
C1587 C 0.44489 0.92781 0.61293 0.0
C1588 C 0.42096 0.90181 0.60617 0.0
C1589 C 0.39381 0.89849 0.60805 0.0
C1590 C 0.46634 0.97902 0.62684 0.0
C1591 C 0.42378 0.87673 0.59864 0.0
C1592 C 0.51619 0.93236 0.6029 0.0
C1593 C 0.51888 0.92036 0.62365 0.0
C1594 C 0.4928 0.93633 0.59937 0.0
C1595 C 0.47221 0.92861 0.61722 0.0
C1596 C 0.47609 0.91837 0.63876 0.0
C1597 C 0.49917 0.91407 0.64159 0.0
C1598 C 0.48928 0.94714 0.57613 0.0
C1599 C 0.45506 0.91053 0.65849 0.0
H1600 H 0.41104 0.9646 0.62651 0.0
H1601 H 0.37536 0.87812 0.60404 0.0
H1602 H 0.47288 0.97683 0.64468 0.0
H1603 H 0.4848 0.98529 0.61518 0.0
H1604 H 0.46101 0.99624 0.62704 0.0
H1605 H 0.40394 0.85971 0.59062 0.0
H1606 H 0.44137 0.88342 0.58595 0.0
H1607 H 0.42888 0.86773 0.61401 0.0
H1608 H 0.53154 0.93732 0.58907 0.0
H1609 H 0.5016 0.90532 0.65783 0.0
H1610 H 0.48255 0.96315 0.57846 0.0
H1611 H 0.47242 0.92924 0.56604 0.0
H1612 H 0.50919 0.95669 0.56575 0.0
H1613 H 0.45059 0.92798 0.6619 0.0
H1614 H 0.46281 0.90585 0.67487 0.0
H1615 H 0.43472 0.89145 0.65361 0.0
C1616 C 0.57942 0.52719 0.11709 0.0
C1617 C 0.60364 0.52433 0.11624 0.0
C1618 C 0.55212 0.50328 0.11528 0.0
C1619 C 0.54917 0.4761 0.11217 0.0
C1620 C 0.57365 0.47355 0.10938 0.0
C1621 C 0.60057 0.49764 0.11171 0.0
C1622 C 0.52657 0.50688 0.11848 0.0
C1623 C 0.57146 0.44505 0.10553 0.0
C1624 C 0.49065 0.41018 0.14042 0.0
C1625 C 0.47363 0.39551 0.12131 0.0
C1626 C 0.51411 0.43741 0.13787 0.0
C1627 C 0.5212 0.44997 0.11548 0.0
C1628 C 0.50326 0.4358 0.09626 0.0
C1629 C 0.47934 0.40871 0.09948 0.0
C1630 C 0.53218 0.45206 0.15897 0.0
C1631 C 0.51026 0.44839 0.07212 0.0
H1632 H 0.58171 0.54783 0.12053 0.0
H1633 H 0.61928 0.49544 0.11062 0.0
H1634 H 0.50964 0.49371 0.10581 0.0
H1635 H 0.51774 0.49966 0.13621 0.0
H1636 H 0.53207 0.52937 0.11651 0.0
H1637 H 0.59216 0.44715 0.10054 0.0
H1638 H 0.56406 0.43238 0.12179 0.0
H1639 H 0.55571 0.43303 0.09171 0.0
H1640 H 0.48587 0.40004 0.15738 0.0
H1641 H 0.46607 0.39726 0.08473 0.0
H1642 H 0.53652 0.47424 0.16012 0.0
H1643 H 0.55291 0.45289 0.15737 0.0
H1644 H 0.52193 0.44093 0.17544 0.0
H1645 H 0.51662 0.47119 0.07253 0.0
H1646 H 0.49208 0.43711 0.05996 0.0
H1647 H 0.52851 0.44691 0.06516 0.0
C1648 C 0.09276 0.49879 0.60469 0.0
C1649 C 0.07197 0.47202 0.61264 0.0
C1650 C 0.08803 0.52182 0.60485 0.0
C1651 C 0.06206 0.51811 0.61363 0.0
C1652 C 0.04022 0.49069 0.62016 0.0
C1653 C 0.04537 0.46784 0.6194 0.0
C1654 C 0.11165 0.55057 0.5972 0.0
C1655 C 0.01231 0.48589 0.6297 0.0
C1656 C 0.07366 0.58474 0.64387 0.0
C1657 C 0.06487 0.59707 0.62682 0.0
C1658 C 0.07091 0.55801 0.64037 0.0
C1659 C 0.05976 0.5436 0.61903 0.0
C1660 C 0.04957 0.55533 0.60218 0.0
C1661 C 0.05199 0.58191 0.6064 0.0
C1662 C 0.08138 0.54593 0.65905 0.0
C1663 C 0.03782 0.54075 0.57915 0.0
H1664 H 0.11321 0.50198 0.59913 0.0
H1665 H 0.02923 0.44715 0.62558 0.0
H1666 H 0.1033 0.56096 0.58555 0.0
H1667 H 0.12097 0.56442 0.61268 0.0
H1668 H 0.12883 0.54914 0.58795 0.0
H1669 H 0.99598 0.463 0.63007 0.0
H1670 H 0.01552 0.49426 0.64775 0.0
H1671 H 0.00417 0.49743 0.61923 0.0
H1672 H 0.08327 0.59631 0.65981 0.0
H1673 H 0.04525 0.5915 0.59316 0.0
H1674 H 0.10083 0.54615 0.65291 0.0
H1675 H 0.06521 0.52354 0.66272 0.0
H1676 H 0.08645 0.5582 0.67556 0.0
H1677 H 0.05542 0.54243 0.56822 0.0
H1678 H 0.02705 0.5504 0.56948 0.0
H1679 H 0.02257 0.51784 0.58174 0.0
C1680 C 0.89281 0.48986 0.3884 0.0
C1681 C 0.91573 0.51693 0.38367 0.0
C1682 C 0.89649 0.46618 0.38949 0.0
C1683 C 0.92364 0.46957 0.38518 0.0
C1684 C 0.94718 0.49708 0.38161 0.0
C1685 C 0.94299 0.52054 0.38114 0.0
C1686 C 0.87095 0.4373 0.39393 0.0
C1687 C 0.97639 0.50153 0.37668 0.0
C1688 C 0.93148 0.40502 0.39676 0.0
C1689 C 0.92373 0.39137 0.37506 0.0
C1690 C 0.93254 0.43111 0.40026 0.0
C1691 C 0.92633 0.44398 0.38146 0.0
C1692 C 0.92015 0.43099 0.3592 0.0
C1693 C 0.91857 0.40468 0.35636 0.0
C1694 C 0.9388 0.4441 0.42431 0.0
C1695 C 0.91411 0.44435 0.33854 0.0
H1696 H 0.87178 0.48708 0.39071 0.0
H1697 H 0.96076 0.54147 0.37744 0.0
H1698 H 0.86509 0.42459 0.37765 0.0
H1699 H 0.87596 0.42568 0.40724 0.0
H1700 H 0.85229 0.43873 0.39991 0.0
H1701 H 0.99301 0.52429 0.37758 0.0
H1702 H 0.98181 0.48941 0.38915 0.0
H1703 H 0.97669 0.49352 0.35895 0.0
H1704 H 0.9354 0.39467 0.41125 0.0
H1705 H 0.91298 0.39433 0.33949 0.0
H1706 H 0.91924 0.44259 0.4317 0.0
H1707 H 0.95505 0.46695 0.42349 0.0
H1708 H 0.94633 0.43326 0.43633 0.0
H1709 H 0.89383 0.44415 0.34134 0.0
H1710 H 0.91249 0.43299 0.32201 0.0
H1711 H 0.93108 0.46683 0.33664 0.0
C1712 C 0.52859 0.94758 0.87839 0.0
C1713 C 0.52783 0.92279 0.88605 0.0
C1714 C 0.50409 0.95004 0.8792 0.0
C1715 C 0.47865 0.92746 0.8885 0.0
C1716 C 0.47861 0.90344 0.89801 0.0
C1717 C 0.50308 0.90118 0.89628 0.0
C1718 C 0.50486 0.97571 0.86844 0.0
C1719 C 0.45219 0.87928 0.90868 0.0
C1720 C 0.4136 0.93506 0.89892 0.0
C1721 C 0.3968 0.92033 0.87966 0.0
C1722 C 0.44065 0.93808 0.90198 0.0
C1723 C 0.4512 0.92671 0.88507 0.0
C1724 C 0.43468 0.91284 0.86517 0.0
C1725 C 0.4076 0.90954 0.86287 0.0
C1726 C 0.45745 0.9525 0.92363 0.0
C1727 C 0.44537 0.90096 0.84644 0.0
H1728 H 0.54779 0.96425 0.87042 0.0
H1729 H 0.50269 0.88216 0.90248 0.0
H1730 H 0.49313 0.96953 0.85167 0.0
H1731 H 0.49423 0.98401 0.87988 0.0
H1732 H 0.52691 0.99299 0.865 0.0
H1733 H 0.45683 0.86446 0.91847 0.0
H1734 H 0.44195 0.8875 0.92066 0.0
H1735 H 0.4367 0.86715 0.89472 0.0
H1736 H 0.40526 0.94343 0.91191 0.0
H1737 H 0.39487 0.89858 0.84774 0.0
H1738 H 0.4792 0.9694 0.91895 0.0
H1739 H 0.45958 0.93683 0.93452 0.0
H1740 H 0.44721 0.96201 0.93422 0.0
H1741 H 0.46664 0.91751 0.84034 0.0
H1742 H 0.43087 0.89287 0.8312 0.0
H1743 H 0.4476 0.88327 0.85365 0.0
C1744 C 0.49455 0.40115 0.37712 0.0
C1745 C 0.46692 0.39692 0.37739 0.0
C1746 C 0.51823 0.42829 0.37954 0.0
C1747 C 0.51431 0.45198 0.38205 0.0
C1748 C 0.4865 0.44789 0.38303 0.0
C1749 C 0.46305 0.42032 0.38082 0.0
C1750 C 0.54753 0.43164 0.37871 0.0
C1751 C 0.48154 0.47269 0.38552 0.0
C1752 C 0.58172 0.51752 0.40167 0.0
C1753 C 0.59449 0.52856 0.38013 0.0
C1754 C 0.55437 0.49358 0.40277 0.0
C1755 C 0.53964 0.48093 0.38181 0.0
C1756 C 0.55168 0.49373 0.36014 0.0
C1757 C 0.57921 0.51718 0.35956 0.0
C1758 C 0.54239 0.48046 0.42618 0.0
C1759 C 0.53647 0.48134 0.33743 0.0
H1760 H 0.49776 0.38317 0.37485 0.0
H1761 H 0.44176 0.4172 0.3811 0.0
H1762 H 0.55887 0.44374 0.36291 0.0
H1763 H 0.56013 0.44385 0.39406 0.0
H1764 H 0.54685 0.4109 0.37837 0.0
H1765 H 0.45881 0.46575 0.38847 0.0
H1766 H 0.49419 0.48652 0.4002 0.0
H1767 H 0.48869 0.48576 0.36946 0.0
H1768 H 0.5938 0.52643 0.41753 0.0
H1769 H 0.58927 0.52597 0.34294 0.0
H1770 H 0.54413 0.46113 0.42839 0.0
H1771 H 0.51957 0.4739 0.42737 0.0
H1772 H 0.55395 0.49526 0.44074 0.0
H1773 H 0.53675 0.46148 0.33363 0.0
H1774 H 0.54659 0.49619 0.32262 0.0
H1775 H 0.51394 0.47586 0.33861 0.0
C1776 C 0.05476 0.47179 0.88417 0.0
C1777 C 0.08117 0.47355 0.88715 0.0
C1778 C 0.0522 0.4962 0.88565 0.0
C1779 C 0.0765 0.5227 0.89075 0.0
C1780 C 0.10266 0.52404 0.89564 0.0
C1781 C 0.10477 0.49953 0.89343 0.0
C1782 C 0.02405 0.49393 0.87998 0.0
C1783 C 0.12891 0.55174 0.90175 0.0
C1784 C 0.08845 0.59081 0.86327 0.0
C1785 C 0.0835 0.60432 0.88195 0.0
C1786 C 0.08446 0.56348 0.86561 0.0
C1787 C 0.07605 0.54957 0.88742 0.0
C1788 C 0.06997 0.56267 0.90617 0.0
C1789 C 0.07344 0.5899 0.90311 0.0
C1790 C 0.09042 0.55001 0.84495 0.0
C1791 C 0.06133 0.54865 0.92974 0.0
H1792 H 0.03648 0.45167 0.87932 0.0
H1793 H 0.1251 0.5008 0.89612 0.0
H1794 H 0.0191 0.50637 0.89252 0.0
H1795 H 0.02518 0.50289 0.86239 0.0
H1796 H 0.0064 0.47157 0.88011 0.0
H1797 H 0.14628 0.5485 0.90835 0.0
H1798 H 0.13668 0.56541 0.88604 0.0
H1799 H 0.12396 0.56333 0.91516 0.0
H1800 H 0.09576 0.60183 0.84677 0.0
H1801 H 0.0696 0.60041 0.91754 0.0
H1802 H 0.07255 0.52812 0.84216 0.0
H1803 H 0.10972 0.54854 0.84838 0.0
H1804 H 0.09382 0.56233 0.82867 0.0
H1805 H 0.0444 0.52615 0.92799 0.0
H1806 H 0.0537 0.55971 0.94146 0.0
H1807 H 0.07983 0.54884 0.93807 0.0
C1808 C 0.57719 0.05077 0.39129 0.0
C1809 C 0.59986 0.07694 0.39857 0.0
C1810 C 0.54948 0.0464 0.39013 0.0
C1811 C 0.54445 0.06855 0.39684 0.0
C1812 C 0.56684 0.09389 0.40642 0.0
C1813 C 0.59436 0.09792 0.40688 0.0
C1814 C 0.52626 0.01915 0.37971 0.0
C1815 C 0.56223 0.11773 0.41438 0.0
C1816 C 0.4927 0.08315 0.3644 0.0
C1817 C 0.47039 0.07406 0.38038 0.0
C1818 C 0.51607 0.07972 0.369 0.0
C1819 C 0.51749 0.06752 0.39039 0.0
C1820 C 0.49443 0.05714 0.40618 0.0
C1821 C 0.47092 0.06029 0.40086 0.0
C1822 C 0.53986 0.0904 0.35139 0.0
C1823 C 0.49528 0.04429 0.42924 0.0
H1824 H 0.58141 0.03453 0.38478 0.0
H1825 H 0.61184 0.11804 0.41278 0.0
H1826 H 0.50611 0.01131 0.38946 0.0
H1827 H 0.52234 0.02314 0.3615 0.0
H1828 H 0.53209 0.00227 0.37948 0.0
H1829 H 0.58052 0.13397 0.4246 0.0
H1830 H 0.55924 0.12825 0.39896 0.0
H1831 H 0.54279 0.1094 0.42521 0.0
H1832 H 0.4921 0.09344 0.34842 0.0
H1833 H 0.45367 0.05333 0.41327 0.0
H1834 H 0.54561 0.07388 0.34775 0.0
H1835 H 0.55899 0.10918 0.35854 0.0
H1836 H 0.53415 0.09659 0.33468 0.0
H1837 H 0.50268 0.0288 0.42693 0.0
H1838 H 0.4742 0.03352 0.43791 0.0
H1839 H 0.51062 0.06129 0.44096 0.0
C1840 C 0.50356 0.58702 0.86309 0.0
C1841 C 0.52633 0.59902 0.87876 0.0
C1842 C 0.48022 0.55997 0.86693 0.0
C1843 C 0.47934 0.54475 0.88722 0.0
C1844 C 0.5028 0.55623 0.90264 0.0
C1845 C 0.52622 0.58323 0.8981 0.0
C1846 C 0.45593 0.54825 0.84974 0.0
C1847 C 0.50252 0.54078 0.92455 0.0
C1848 C 0.4029 0.49683 0.90413 0.0
C1849 C 0.39727 0.47113 0.89399 0.0
C1850 C 0.4304 0.52036 0.90411 0.0
C1851 C 0.45257 0.51829 0.89305 0.0
C1852 C 0.44741 0.49175 0.88437 0.0
C1853 C 0.41974 0.46829 0.88517 0.0
C1854 C 0.43517 0.54805 0.91418 0.0
C1855 C 0.47039 0.48869 0.8723 0.0
H1856 H 0.50379 0.59904 0.84795 0.0
H1857 H 0.54381 0.59252 0.91029 0.0
H1858 H 0.45008 0.52634 0.84457 0.0
H1859 H 0.43701 0.54725 0.85801 0.0
H1860 H 0.46114 0.56147 0.83378 0.0
H1861 H 0.52377 0.55056 0.93291 0.0
H1862 H 0.48731 0.54126 0.93717 0.0
H1863 H 0.49526 0.51817 0.92076 0.0
H1864 H 0.38553 0.49889 0.9112 0.0
H1865 H 0.41535 0.44841 0.87723 0.0
H1866 H 0.43771 0.56276 0.8998 0.0
H1867 H 0.45489 0.55834 0.92474 0.0
H1868 H 0.41713 0.54506 0.92528 0.0
H1869 H 0.47396 0.49821 0.85466 0.0
H1870 H 0.46454 0.46609 0.87041 0.0
H1871 H 0.49073 0.50016 0.88195 0.0
loop_
_geom_bond_atom_site_label_1
_geom_bond_atom_site_label_2
_geom_bond_distance
_geom_bond_site_symmetry_2
_ccdc_geom_bond_type
Co0 O1 2.216 . S
Co0 O2 2.091 . S
Co0 O4 2.004 . S
Co0 O10 2.021 . S
Co0 O12 2.137 . S
Co0 O13 2.244 . S
O1 Co0 2.216 . S
O1 C8 1.247 . S
O2 Co0 2.091 . S
O2 C8 1.261 . S
C3 O12 1.247 . S
C3 O13 1.272 . S
O4 Co0 2.004 . S
O4 C9 1.259 . S
Co5 O6 2.061 . S
Co5 O11 2.052 . S
Co5 O13 2.135 . S
O6 Co5 2.061 . S
O6 C9 1.235 . S
C7 O10 1.238 . S
C7 O11 1.241 . S
C8 O1 1.247 . S
C8 O2 1.261 . S
C9 O4 1.259 . S
C9 O6 1.235 . S
O10 Co0 2.021 . S
O10 C7 1.238 . S
O11 Co5 2.052 . S
O11 C7 1.241 . S
O12 Co0 2.137 . S
O12 C3 1.247 . S
O13 Co0 2.244 . S
O13 C3 1.272 . S
O13 Co5 2.135 . S
Co14 O15 2.216 . S
Co14 O16 2.091 . S
Co14 O18 2.004 . S
Co14 O24 2.021 . S
Co14 O26 2.137 . S
Co14 O27 2.244 . S
O15 Co14 2.216 . S
O15 C22 1.247 . S
O16 Co14 2.091 . S
O16 C22 1.261 . S
C17 O26 1.247 . S
C17 O27 1.272 . S
O18 Co14 2.004 . S
O18 C23 1.259 . S
Co19 O20 2.061 . S
Co19 O25 2.052 . S
Co19 O27 2.135 . S
O20 Co19 2.061 . S
O20 C23 1.235 . S
C21 O24 1.238 . S
C21 O25 1.241 . S
C22 O15 1.247 . S
C22 O16 1.261 . S
C23 O18 1.259 . S
C23 O20 1.235 . S
O24 Co14 2.021 . S
O24 C21 1.238 . S
O25 Co19 2.052 . S
O25 C21 1.241 . S
O26 Co14 2.137 . S
O26 C17 1.247 . S
O27 Co14 2.244 . S
O27 C17 1.272 . S
O27 Co19 2.135 . S
Co28 O29 2.216 . S
Co28 O30 2.091 . S
Co28 O32 2.004 . S
Co28 O38 2.021 . S
Co28 O40 2.137 . S
Co28 O41 2.244 . S
O29 Co28 2.216 . S
O29 C36 1.247 . S
O30 Co28 2.091 . S
O30 C36 1.261 . S
C31 O40 1.247 . S
C31 O41 1.272 . S
O32 Co28 2.004 . S
O32 C37 1.259 . S
Co33 O34 2.061 . S
Co33 O39 2.052 . S
Co33 O41 2.135 . S
O34 Co33 2.061 . S
O34 C37 1.235 . S
C35 O38 1.238 . S
C35 O39 1.241 . S
C36 O29 1.247 . S
C36 O30 1.261 . S
C37 O32 1.259 . S
C37 O34 1.235 . S
O38 Co28 2.021 . S
O38 C35 1.238 . S
O39 Co33 2.052 . S
O39 C35 1.241 . S
O40 Co28 2.137 . S
O40 C31 1.247 . S
O41 Co28 2.244 . S
O41 C31 1.272 . S
O41 Co33 2.135 . S
Co42 O43 2.216 . S
Co42 O44 2.091 . S
Co42 O46 2.004 . S
Co42 O52 2.021 . S
Co42 O54 2.137 . S
Co42 O55 2.244 . S
O43 Co42 2.216 . S
O43 C50 1.247 . S
O44 Co42 2.091 . S
O44 C50 1.261 . S
C45 O54 1.247 . S
C45 O55 1.272 . S
O46 Co42 2.004 . S
O46 C51 1.259 . S
Co47 O48 2.061 . S
Co47 O53 2.052 . S
Co47 O55 2.135 . S
O48 Co47 2.061 . S
O48 C51 1.235 . S
C49 O52 1.238 . S
C49 O53 1.241 . S
C50 O43 1.247 . S
C50 O44 1.261 . S
C51 O46 1.259 . S
C51 O48 1.235 . S
O52 Co42 2.021 . S
O52 C49 1.238 . S
O53 Co47 2.052 . S
O53 C49 1.241 . S
O54 Co42 2.137 . S
O54 C45 1.247 . S
O55 Co42 2.244 . S
O55 C45 1.272 . S
O55 Co47 2.135 . S
Co56 O57 2.216 . S
Co56 O58 2.091 . S
Co56 O60 2.004 . S
Co56 O66 2.021 . S
Co56 O68 2.137 . S
Co56 O69 2.244 . S
O57 Co56 2.216 . S
O57 C64 1.247 . S
O58 Co56 2.091 . S
O58 C64 1.261 . S
C59 O68 1.247 . S
C59 O69 1.272 . S
O60 Co56 2.004 . S
O60 C65 1.259 . S
Co61 O62 2.061 . S
Co61 O67 2.052 . S
Co61 O69 2.135 . S
O62 Co61 2.061 . S
O62 C65 1.235 . S
C63 O66 1.238 . S
C63 O67 1.241 . S
C64 O57 1.247 . S
C64 O58 1.261 . S
C65 O60 1.259 . S
C65 O62 1.235 . S
O66 Co56 2.021 . S
O66 C63 1.238 . S
O67 Co61 2.052 . S
O67 C63 1.241 . S
O68 Co56 2.137 . S
O68 C59 1.247 . S
O69 Co56 2.244 . S
O69 C59 1.272 . S
O69 Co61 2.135 . S
Co70 O71 2.216 . S
Co70 O72 2.091 . S
Co70 O74 2.004 . S
Co70 O80 2.021 . S
Co70 O82 2.137 . S
Co70 O83 2.244 . S
O71 Co70 2.216 . S
O71 C78 1.247 . S
O72 Co70 2.091 . S
O72 C78 1.261 . S
C73 O82 1.247 . S
C73 O83 1.272 . S
O74 Co70 2.004 . S
O74 C79 1.259 . S
Co75 O76 2.061 . S
Co75 O81 2.052 . S
Co75 O83 2.135 . S
O76 Co75 2.061 . S
O76 C79 1.235 . S
C77 O80 1.238 . S
C77 O81 1.241 . S
C78 O71 1.247 . S
C78 O72 1.261 . S
C79 O74 1.259 . S
C79 O76 1.235 . S
O80 Co70 2.021 . S
O80 C77 1.238 . S
O81 Co75 2.052 . S
O81 C77 1.241 . S
O82 Co70 2.137 . S
O82 C73 1.247 . S
O83 Co70 2.244 . S
O83 C73 1.272 . S
O83 Co75 2.135 . S
Co84 O85 2.216 . S
Co84 O86 2.091 . S
Co84 O88 2.004 . S
Co84 O94 2.021 . S
Co84 O96 2.137 . S
Co84 O97 2.244 . S
O85 Co84 2.216 . S
O85 C92 1.247 . S
O86 Co84 2.091 . S
O86 C92 1.261 . S
C87 O96 1.247 . S
C87 O97 1.272 . S
O88 Co84 2.004 . S
O88 C93 1.259 . S
Co89 O90 2.061 . S
Co89 O95 2.052 . S
Co89 O97 2.135 . S
O90 Co89 2.061 . S
O90 C93 1.235 . S
C91 O94 1.238 . S
C91 O95 1.241 . S
C92 O85 1.247 . S
C92 O86 1.261 . S
C93 O88 1.259 . S
C93 O90 1.235 . S
O94 Co84 2.021 . S
O94 C91 1.238 . S
O95 Co89 2.052 . S
O95 C91 1.241 . S
O96 Co84 2.137 . S
O96 C87 1.247 . S
O97 Co84 2.244 . S
O97 C87 1.272 . S
O97 Co89 2.135 . S
Co98 O99 2.216 . S
Co98 O100 2.091 . S
Co98 O102 2.004 . S
Co98 O108 2.021 . S
Co98 O110 2.137 . S
Co98 O111 2.244 . S
O99 Co98 2.216 . S
O99 C106 1.247 . S
O100 Co98 2.091 . S
O100 C106 1.261 . S
C101 O110 1.247 . S
C101 O111 1.272 . S
O102 Co98 2.004 . S
O102 C107 1.259 . S
Co103 O104 2.061 . S
Co103 O109 2.052 . S
Co103 O111 2.135 . S
O104 Co103 2.061 . S
O104 C107 1.235 . S
C105 O108 1.238 . S
C105 O109 1.241 . S
C106 O99 1.247 . S
C106 O100 1.261 . S
C107 O102 1.259 . S
C107 O104 1.235 . S
O108 Co98 2.021 . S
O108 C105 1.238 . S
O109 Co103 2.052 . S
O109 C105 1.241 . S
O110 Co98 2.137 . S
O110 C101 1.247 . S
O111 Co98 2.244 . S
O111 C101 1.272 . S
O111 Co103 2.135 . S
Co112 O113 2.216 . S
Co112 O114 2.091 . S
Co112 O116 2.004 . S
Co112 O122 2.021 . S
Co112 O124 2.137 . S
Co112 O125 2.244 . S
O113 Co112 2.216 . S
O113 C120 1.247 . S
O114 Co112 2.091 . S
O114 C120 1.261 . S
C115 O124 1.247 . S
C115 O125 1.272 . S
O116 Co112 2.004 . S
O116 C121 1.259 . S
Co117 O118 2.061 . S
Co117 O123 2.052 . S
Co117 O125 2.135 . S
O118 Co117 2.061 . S
O118 C121 1.235 . S
C119 O122 1.238 . S
C119 O123 1.241 . S
C120 O113 1.247 . S
C120 O114 1.261 . S
C121 O116 1.259 . S
C121 O118 1.235 . S
O122 Co112 2.021 . S
O122 C119 1.238 . S
O123 Co117 2.052 . S
O123 C119 1.241 . S
O124 Co112 2.137 . S
O124 C115 1.247 . S
O125 Co112 2.244 . S
O125 C115 1.272 . S
O125 Co117 2.135 . S
Co126 O127 2.216 . S
Co126 O128 2.091 . S
Co126 O130 2.004 . S
Co126 O136 2.021 . S
Co126 O138 2.137 . S
Co126 O139 2.244 . S
O127 Co126 2.216 . S
O127 C134 1.247 . S
O128 Co126 2.091 . S
O128 C134 1.261 . S
C129 O138 1.247 . S
C129 O139 1.272 . S
O130 Co126 2.004 . S
O130 C135 1.259 . S
Co131 O132 2.061 . S
Co131 O137 2.052 . S
Co131 O139 2.135 . S
O132 Co131 2.061 . S
O132 C135 1.235 . S
C133 O136 1.238 . S
C133 O137 1.241 . S
C134 O127 1.247 . S
C134 O128 1.261 . S
C135 O130 1.259 . S
C135 O132 1.235 . S
O136 Co126 2.021 . S
O136 C133 1.238 . S
O137 Co131 2.052 . S
O137 C133 1.241 . S
O138 Co126 2.137 . S
O138 C129 1.247 . S
O139 Co126 2.244 . S
O139 C129 1.272 . S
O139 Co131 2.135 . S
Co140 O141 2.216 . S
Co140 O142 2.091 . S
Co140 O144 2.004 . S
Co140 O150 2.021 . S
Co140 O152 2.137 . S
Co140 O153 2.244 . S
O141 Co140 2.216 . S
O141 C148 1.247 . S
O142 Co140 2.091 . S
O142 C148 1.261 . S
C143 O152 1.247 . S
C143 O153 1.272 . S
O144 Co140 2.004 . S
O144 C149 1.259 . S
Co145 O146 2.061 . S
Co145 O151 2.052 . S
Co145 O153 2.135 . S
O146 Co145 2.061 . S
O146 C149 1.235 . S
C147 O150 1.238 . S
C147 O151 1.241 . S
C148 O141 1.247 . S
C148 O142 1.261 . S
C149 O144 1.259 . S
C149 O146 1.235 . S
O150 Co140 2.021 . S
O150 C147 1.238 . S
O151 Co145 2.052 . S
O151 C147 1.241 . S
O152 Co140 2.137 . S
O152 C143 1.247 . S
O153 Co140 2.244 . S
O153 C143 1.272 . S
O153 Co145 2.135 . S
Co154 O155 2.216 . S
Co154 O156 2.091 . S
Co154 O158 2.004 . S
Co154 O164 2.021 . S
Co154 O166 2.137 . S
Co154 O167 2.244 . S
O155 Co154 2.216 . S
O155 C162 1.247 . S
O156 Co154 2.091 . S
O156 C162 1.261 . S
C157 O166 1.247 . S
C157 O167 1.272 . S
O158 Co154 2.004 . S
O158 C163 1.259 . S
Co159 O160 2.061 . S
Co159 O165 2.052 . S
Co159 O167 2.135 . S
O160 Co159 2.061 . S
O160 C163 1.235 . S
C161 O164 1.238 . S
C161 O165 1.241 . S
C162 O155 1.247 . S
C162 O156 1.261 . S
C163 O158 1.259 . S
C163 O160 1.235 . S
O164 Co154 2.021 . S
O164 C161 1.238 . S
O165 Co159 2.052 . S
O165 C161 1.241 . S
O166 Co154 2.137 . S
O166 C157 1.247 . S
O167 Co154 2.244 . S
O167 C157 1.272 . S
O167 Co159 2.135 . S
Co168 O169 2.216 . S
Co168 O170 2.091 . S
Co168 O172 2.004 . S
Co168 O178 2.021 . S
Co168 O180 2.137 . S
Co168 O181 2.244 . S
O169 Co168 2.216 . S
O169 C176 1.247 . S
O170 Co168 2.091 . S
O170 C176 1.261 . S
C171 O180 1.247 . S
C171 O181 1.272 . S
O172 Co168 2.004 . S
O172 C177 1.259 . S
Co173 O174 2.061 . S
Co173 O179 2.052 . S
Co173 O181 2.135 . S
O174 Co173 2.061 . S
O174 C177 1.235 . S
C175 O178 1.238 . S
C175 O179 1.241 . S
C176 O169 1.247 . S
C176 O170 1.261 . S
C177 O172 1.259 . S
C177 O174 1.235 . S
O178 Co168 2.021 . S
O178 C175 1.238 . S
O179 Co173 2.052 . S
O179 C175 1.241 . S
O180 Co168 2.137 . S
O180 C171 1.247 . S
O181 Co168 2.244 . S
O181 C171 1.272 . S
O181 Co173 2.135 . S
Co182 O183 2.216 . S
Co182 O184 2.091 . S
Co182 O186 2.004 . S
Co182 O192 2.021 . S
Co182 O194 2.137 . S
Co182 O195 2.244 . S
O183 Co182 2.216 . S
O183 C190 1.247 . S
O184 Co182 2.091 . S
O184 C190 1.261 . S
C185 O194 1.247 . S
C185 O195 1.272 . S
O186 Co182 2.004 . S
O186 C191 1.259 . S
Co187 O188 2.061 . S
Co187 O193 2.052 . S
Co187 O195 2.135 . S
O188 Co187 2.061 . S
O188 C191 1.235 . S
C189 O192 1.238 . S
C189 O193 1.241 . S
C190 O183 1.247 . S
C190 O184 1.261 . S
C191 O186 1.259 . S
C191 O188 1.235 . S
O192 Co182 2.021 . S
O192 C189 1.238 . S
O193 Co187 2.052 . S
O193 C189 1.241 . S
O194 Co182 2.137 . S
O194 C185 1.247 . S
O195 Co182 2.244 . S
O195 C185 1.272 . S
O195 Co187 2.135 . S
Co196 O197 2.216 . S
Co196 O198 2.091 . S
Co196 O200 2.004 . S
Co196 O206 2.021 . S
Co196 O208 2.137 . S
Co196 O209 2.244 . S
O197 Co196 2.216 . S
O197 C204 1.247 . S
O198 Co196 2.091 . S
O198 C204 1.261 . S
C199 O208 1.247 . S
C199 O209 1.272 . S
O200 Co196 2.004 . S
O200 C205 1.259 . S
Co201 O202 2.061 . S
Co201 O207 2.052 . S
Co201 O209 2.135 . S
O202 Co201 2.061 . S
O202 C205 1.235 . S
C203 O206 1.238 . S
C203 O207 1.241 . S
C204 O197 1.247 . S
C204 O198 1.261 . S
C205 O200 1.259 . S
C205 O202 1.235 . S
O206 Co196 2.021 . S
O206 C203 1.238 . S
O207 Co201 2.052 . S
O207 C203 1.241 . S
O208 Co196 2.137 . S
O208 C199 1.247 . S
O209 Co196 2.244 . S
O209 C199 1.272 . S
O209 Co201 2.135 . S
Co210 O211 2.216 . S
Co210 O212 2.091 . S
Co210 O214 2.004 . S
Co210 O220 2.021 . S
Co210 O222 2.137 . S
Co210 O223 2.244 . S
O211 Co210 2.216 . S
O211 C218 1.247 . S
O212 Co210 2.091 . S
O212 C218 1.261 . S
C213 O222 1.247 . S
C213 O223 1.272 . S
O214 Co210 2.004 . S
O214 C219 1.259 . S
Co215 O216 2.061 . S
Co215 O221 2.052 . S
Co215 O223 2.135 . S
O216 Co215 2.061 . S
O216 C219 1.235 . S
C217 O220 1.238 . S
C217 O221 1.241 . S
C218 O211 1.247 . S
C218 O212 1.261 . S
C219 O214 1.259 . S
C219 O216 1.235 . S
O220 Co210 2.021 . S
O220 C217 1.238 . S
O221 Co215 2.052 . S
O221 C217 1.241 . S
O222 Co210 2.137 . S
O222 C213 1.247 . S
O223 Co210 2.244 . S
O223 C213 1.272 . S
O223 Co215 2.135 . S
Co224 O225 2.216 . S
Co224 O226 2.091 . S
Co224 O228 2.004 . S
Co224 O234 2.021 . S
Co224 O236 2.137 . S
Co224 O237 2.244 . S
O225 Co224 2.216 . S
O225 C232 1.247 . S
O226 Co224 2.091 . S
O226 C232 1.261 . S
C227 O236 1.247 . S
C227 O237 1.272 . S
O228 Co224 2.004 . S
O228 C233 1.259 . S
Co229 O230 2.061 . S
Co229 O235 2.052 . S
Co229 O237 2.135 . S
O230 Co229 2.061 . S
O230 C233 1.235 . S
C231 O234 1.238 . S
C231 O235 1.241 . S
C232 O225 1.247 . S
C232 O226 1.261 . S
C233 O228 1.259 . S
C233 O230 1.235 . S
O234 Co224 2.021 . S
O234 C231 1.238 . S
O235 Co229 2.052 . S
O235 C231 1.241 . S
O236 Co224 2.137 . S
O236 C227 1.247 . S
O237 Co224 2.244 . S
O237 C227 1.272 . S
O237 Co229 2.135 . S
Co238 O239 2.216 . S
Co238 O240 2.091 . S
Co238 O242 2.004 . S
Co238 O248 2.021 . S
Co238 O250 2.137 . S
Co238 O251 2.244 . S
O239 Co238 2.216 . S
O239 C246 1.247 . S
O240 Co238 2.091 . S
O240 C246 1.261 . S
C241 O250 1.247 . S
C241 O251 1.272 . S
O242 Co238 2.004 . S
O242 C247 1.259 . S
Co243 O244 2.061 . S
Co243 O249 2.052 . S
Co243 O251 2.135 . S
O244 Co243 2.061 . S
O244 C247 1.235 . S
C245 O248 1.238 . S
C245 O249 1.241 . S
C246 O239 1.247 . S
C246 O240 1.261 . S
C247 O242 1.259 . S
C247 O244 1.235 . S
O248 Co238 2.021 . S
O248 C245 1.238 . S
O249 Co243 2.052 . S
O249 C245 1.241 . S
O250 Co238 2.137 . S
O250 C241 1.247 . S
O251 Co238 2.244 . S
O251 C241 1.272 . S
O251 Co243 2.135 . S
Co252 O253 2.216 . S
Co252 O254 2.091 . S
Co252 O256 2.004 . S
Co252 O262 2.021 . S
Co252 O264 2.137 . S
Co252 O265 2.244 . S
O253 Co252 2.216 . S
O253 C260 1.247 . S
O254 Co252 2.091 . S
O254 C260 1.261 . S
C255 O264 1.247 . S
C255 O265 1.272 . S
O256 Co252 2.004 . S
O256 C261 1.259 . S
Co257 O258 2.061 . S
Co257 O263 2.052 . S
Co257 O265 2.135 . S
O258 Co257 2.061 . S
O258 C261 1.235 . S
C259 O262 1.238 . S
C259 O263 1.241 . S
C260 O253 1.247 . S
C260 O254 1.261 . S
C261 O256 1.259 . S
C261 O258 1.235 . S
O262 Co252 2.021 . S
O262 C259 1.238 . S
O263 Co257 2.052 . S
O263 C259 1.241 . S
O264 Co252 2.137 . S
O264 C255 1.247 . S
O265 Co252 2.244 . S
O265 C255 1.272 . S
O265 Co257 2.135 . S
Co266 O267 2.216 . S
Co266 O268 2.091 . S
Co266 O270 2.004 . S
Co266 O276 2.021 . S
Co266 O278 2.137 . S
Co266 O279 2.244 . S
O267 Co266 2.216 . S
O267 C274 1.247 . S
O268 Co266 2.091 . S
O268 C274 1.261 . S
C269 O278 1.247 . S
C269 O279 1.272 . S
O270 Co266 2.004 . S
O270 C275 1.259 . S
Co271 O272 2.061 . S
Co271 O277 2.052 . S
Co271 O279 2.135 . S
O272 Co271 2.061 . S
O272 C275 1.235 . S
C273 O276 1.238 . S
C273 O277 1.241 . S
C274 O267 1.247 . S
C274 O268 1.261 . S
C275 O270 1.259 . S
C275 O272 1.235 . S
O276 Co266 2.021 . S
O276 C273 1.238 . S
O277 Co271 2.052 . S
O277 C273 1.241 . S
O278 Co266 2.137 . S
O278 C269 1.247 . S
O279 Co266 2.244 . S
O279 C269 1.272 . S
O279 Co271 2.135 . S
Co280 O281 2.216 . S
Co280 O282 2.091 . S
Co280 O284 2.004 . S
Co280 O290 2.021 . S
Co280 O292 2.137 . S
Co280 O293 2.244 . S
O281 Co280 2.216 . S
O281 C288 1.247 . S
O282 Co280 2.091 . S
O282 C288 1.261 . S
C283 O292 1.247 . S
C283 O293 1.272 . S
O284 Co280 2.004 . S
O284 C289 1.259 . S
Co285 O286 2.061 . S
Co285 O291 2.052 . S
Co285 O293 2.135 . S
O286 Co285 2.061 . S
O286 C289 1.235 . S
C287 O290 1.238 . S
C287 O291 1.241 . S
C288 O281 1.247 . S
C288 O282 1.261 . S
C289 O284 1.259 . S
C289 O286 1.235 . S
O290 Co280 2.021 . S
O290 C287 1.238 . S
O291 Co285 2.052 . S
O291 C287 1.241 . S
O292 Co280 2.137 . S
O292 C283 1.247 . S
O293 Co280 2.244 . S
O293 C283 1.272 . S
O293 Co285 2.135 . S
Co294 O295 2.216 . S
Co294 O296 2.091 . S
Co294 O298 2.004 . S
Co294 O304 2.021 . S
Co294 O306 2.137 . S
Co294 O307 2.244 . S
O295 Co294 2.216 . S
O295 C302 1.247 . S
O296 Co294 2.091 . S
O296 C302 1.261 . S
C297 O306 1.247 . S
C297 O307 1.272 . S
O298 Co294 2.004 . S
O298 C303 1.259 . S
Co299 O300 2.061 . S
Co299 O305 2.052 . S
Co299 O307 2.135 . S
O300 Co299 2.061 . S
O300 C303 1.235 . S
C301 O304 1.238 . S
C301 O305 1.241 . S
C302 O295 1.247 . S
C302 O296 1.261 . S
C303 O298 1.259 . S
C303 O300 1.235 . S
O304 Co294 2.021 . S
O304 C301 1.238 . S
O305 Co299 2.052 . S
O305 C301 1.241 . S
O306 Co294 2.137 . S
O306 C297 1.247 . S
O307 Co294 2.244 . S
O307 C297 1.272 . S
O307 Co299 2.135 . S
Co308 O309 2.216 . S
Co308 O310 2.091 . S
Co308 O312 2.004 . S
Co308 O318 2.021 . S
Co308 O320 2.137 . S
Co308 O321 2.244 . S
O309 Co308 2.216 . S
O309 C316 1.247 . S
O310 Co308 2.091 . S
O310 C316 1.261 . S
C311 O320 1.247 . S
C311 O321 1.272 . S
O312 Co308 2.004 . S
O312 C317 1.259 . S
Co313 O314 2.061 . S
Co313 O319 2.052 . S
Co313 O321 2.135 . S
O314 Co313 2.061 . S
O314 C317 1.235 . S
C315 O318 1.238 . S
C315 O319 1.241 . S
C316 O309 1.247 . S
C316 O310 1.261 . S
C317 O312 1.259 . S
C317 O314 1.235 . S
O318 Co308 2.021 . S
O318 C315 1.238 . S
O319 Co313 2.052 . S
O319 C315 1.241 . S
O320 Co308 2.137 . S
O320 C311 1.247 . S
O321 Co308 2.244 . S
O321 C311 1.272 . S
O321 Co313 2.135 . S
Co322 O323 2.216 . S
Co322 O324 2.091 . S
Co322 O326 2.004 . S
Co322 O332 2.021 . S
Co322 O334 2.137 . S
Co322 O335 2.244 . S
O323 Co322 2.216 . S
O323 C330 1.247 . S
O324 Co322 2.091 . S
O324 C330 1.261 . S
C325 O334 1.247 . S
C325 O335 1.272 . S
O326 Co322 2.004 . S
O326 C331 1.259 . S
Co327 O328 2.061 . S
Co327 O333 2.052 . S
Co327 O335 2.135 . S
O328 Co327 2.061 . S
O328 C331 1.235 . S
C329 O332 1.238 . S
C329 O333 1.241 . S
C330 O323 1.247 . S
C330 O324 1.261 . S
C331 O326 1.259 . S
C331 O328 1.235 . S
O332 Co322 2.021 . S
O332 C329 1.238 . S
O333 Co327 2.052 . S
O333 C329 1.241 . S
O334 Co322 2.137 . S
O334 C325 1.247 . S
O335 Co322 2.244 . S
O335 C325 1.272 . S
O335 Co327 2.135 . S
C336 C337 1.391 . S
C336 C338 1.394 . S
C336 H352 0.931 . S
C337 C336 1.391 . S
C337 C341 1.376 . S
C338 C336 1.394 . S
C338 C339 1.369 . S
C338 C342 1.531 . S
C339 C338 1.369 . S
C339 C340 1.410 . S
C339 C347 1.503 . S
C340 C339 1.410 . S
C340 C341 1.392 . S
C340 C343 1.511 1_545 S
C341 C337 1.376 . S
C341 C340 1.392 . S
C341 H353 0.931 . S
C342 C338 1.531 . S
C342 H354 0.960 . S
C342 H355 0.962 . S
C342 H356 0.960 . S
C343 C340 1.511 1_565 S
C343 H357 0.961 . S
C343 H358 0.961 . S
C343 H359 0.961 . S
C344 C345 1.370 . S
C344 C346 1.363 . S
C344 H360 0.931 . S
C345 C344 1.370 . S
C345 C349 1.408 . S
C346 C344 1.363 . S
C346 C347 1.370 . S
C346 C350 1.524 . S
C347 C339 1.503 . S
C347 C346 1.370 . S
C347 C348 1.403 . S
C348 C347 1.403 . S
C348 C349 1.404 . S
C348 C351 1.539 . S
C349 C345 1.408 . S
C349 C348 1.404 . S
C349 H361 0.930 . S
C350 C346 1.524 . S
C350 H362 0.956 . S
C350 H363 0.961 . S
C350 H364 0.961 . S
C351 C348 1.539 . S
C351 H365 0.958 . S
C351 H366 0.961 . S
C351 H367 0.960 . S
H352 C336 0.931 . S
H353 C341 0.931 . S
H354 C342 0.960 . S
H355 C342 0.962 . S
H356 C342 0.960 . S
H357 C343 0.961 . S
H358 C343 0.961 . S
H359 C343 0.961 . S
H360 C344 0.931 . S
H361 C349 0.930 . S
H362 C350 0.956 . S
H363 C350 0.961 . S
H364 C350 0.961 . S
H365 C351 0.958 . S
H366 C351 0.961 . S
H367 C351 0.960 . S
C368 C369 1.391 . S
C368 C370 1.394 . S
C368 H384 0.931 . S
C369 C368 1.391 . S
C369 C373 1.376 . S
C370 C368 1.394 . S
C370 C371 1.369 . S
C370 C374 1.531 . S
C371 C370 1.369 . S
C371 C372 1.410 . S
C371 C379 1.503 . S
C372 C371 1.410 . S
C372 C373 1.392 . S
C372 C375 1.511 . S
C373 C369 1.376 . S
C373 C372 1.392 . S
C373 H385 0.929 . S
C374 C370 1.531 . S
C374 H386 0.960 . S
C374 H387 0.962 . S
C374 H388 0.960 . S
C375 C372 1.511 . S
C375 H389 0.961 . S
C375 H390 0.961 . S
C375 H391 0.961 . S
C376 C377 1.370 . S
C376 C378 1.363 . S
C376 H392 0.931 . S
C377 C376 1.370 . S
C377 C381 1.408 . S
C378 C376 1.363 . S
C378 C379 1.370 . S
C378 C382 1.524 . S
C379 C371 1.503 . S
C379 C378 1.370 . S
C379 C380 1.403 . S
C380 C379 1.403 . S
C380 C381 1.404 . S
C380 C383 1.539 . S
C381 C377 1.408 . S
C381 C380 1.404 . S
C381 H393 0.930 . S
C382 C378 1.524 . S
C382 H394 0.956 . S
C382 H395 0.961 . S
C382 H396 0.961 . S
C383 C380 1.539 . S
C383 H397 0.958 . S
C383 H398 0.961 . S
C383 H399 0.960 . S
H384 C368 0.931 . S
H385 C373 0.929 . S
H386 C374 0.960 . S
H387 C374 0.962 . S
H388 C374 0.960 . S
H389 C375 0.961 . S
H390 C375 0.961 . S
H391 C375 0.961 . S
H392 C376 0.931 . S
H393 C381 0.930 . S
H394 C382 0.956 . S
H395 C382 0.961 . S
H396 C382 0.961 . S
H397 C383 0.958 . S
H398 C383 0.961 . S
H399 C383 0.960 . S
C400 C401 1.391 . S
C400 C402 1.394 . S
C400 H416 0.931 . S
C401 C400 1.391 . S
C401 C405 1.376 . S
C402 C400 1.394 . S
C402 C403 1.369 . S
C402 C406 1.531 . S
C403 C402 1.369 . S
C403 C404 1.410 . S
C403 C411 1.503 . S
C404 C403 1.410 . S
C404 C405 1.392 . S
C404 C407 1.511 1_655 S
C405 C401 1.376 . S
C405 C404 1.392 . S
C405 H417 0.929 1_655 S
C406 C402 1.531 . S
C406 H418 0.960 . S
C406 H419 0.962 . S
C406 H420 0.960 . S
C407 C404 1.511 1_455 S
C407 H421 0.961 . S
C407 H422 0.961 . S
C407 H423 0.961 . S
C408 C409 1.370 . S
C408 C410 1.363 . S
C408 H424 0.931 . S
C409 C408 1.370 . S
C409 C413 1.408 . S
C410 C408 1.363 . S
C410 C411 1.370 . S
C410 C414 1.524 . S
C411 C403 1.503 . S
C411 C410 1.370 . S
C411 C412 1.403 . S
C412 C411 1.403 . S
C412 C413 1.404 . S
C412 C415 1.539 . S
C413 C409 1.408 . S
C413 C412 1.404 . S
C413 H425 0.930 . S
C414 C410 1.524 . S
C414 H426 0.956 . S
C414 H427 0.961 . S
C414 H428 0.961 . S
C415 C412 1.539 . S
C415 H429 0.958 . S
C415 H430 0.961 . S
C415 H431 0.960 . S
H416 C400 0.931 . S
H417 C405 0.929 1_455 S
H418 C406 0.960 . S
H419 C406 0.962 . S
H420 C406 0.960 . S
H421 C407 0.961 . S
H422 C407 0.961 . S
H423 C407 0.961 . S
H424 C408 0.931 . S
H425 C413 0.930 . S
H426 C414 0.956 . S
H427 C414 0.961 . S
H428 C414 0.961 . S
H429 C415 0.958 . S
H430 C415 0.961 . S
H431 C415 0.960 . S
C432 C433 1.391 . S
C432 C434 1.394 . S
C432 H448 0.931 . S
C433 C432 1.391 . S
C433 C437 1.376 . S
C434 C432 1.394 . S
C434 C435 1.369 . S
C434 C438 1.531 . S
C435 C434 1.369 . S
C435 C436 1.410 . S
C435 C443 1.503 . S
C436 C435 1.410 . S
C436 C437 1.392 . S
C436 C439 1.511 . S
C437 C433 1.376 . S
C437 C436 1.392 . S
C437 H449 0.929 . S
C438 C434 1.531 . S
C438 H450 0.941 1_565 S
C438 H451 0.962 . S
C438 H452 0.960 1_565 S
C439 C436 1.511 . S
C439 H453 0.961 . S
C439 H454 0.961 . S
C439 H455 0.961 . S
C440 C441 1.370 . S
C440 C442 1.363 . S
C440 H456 0.931 . S
C441 C440 1.370 . S
C441 C445 1.408 . S
C442 C440 1.363 . S
C442 C443 1.370 . S
C442 C446 1.524 . S
C443 C435 1.503 . S
C443 C442 1.370 . S
C443 C444 1.403 . S
C444 C443 1.403 . S
C444 C445 1.404 . S
C444 C447 1.539 1_565 S
C445 C441 1.408 . S
C445 C444 1.404 . S
C445 H457 0.930 1_565 S
C446 C442 1.524 . S
C446 H458 0.956 . S
C446 H459 0.961 . S
C446 H460 0.961 . S
C447 C444 1.539 1_545 S
C447 H461 0.958 . S
C447 H462 0.961 . S
C447 H463 0.960 . S
H448 C432 0.931 . S
H449 C437 0.929 . S
H450 C438 0.941 1_545 S
H451 C438 0.962 . S
H452 C438 0.960 1_545 S
H453 C439 0.961 . S
H454 C439 0.961 . S
H455 C439 0.961 . S
H456 C440 0.931 . S
H457 C445 0.930 1_545 S
H458 C446 0.956 . S
H459 C446 0.961 . S
H460 C446 0.961 . S
H461 C447 0.958 . S
H462 C447 0.961 . S
H463 C447 0.960 . S
C464 C465 1.391 . S
C464 C466 1.394 . S
C464 H480 0.931 . S
C465 C464 1.391 . S
C465 C469 1.376 . S
C466 C464 1.394 . S
C466 C467 1.369 . S
C466 C470 1.531 . S
C467 C466 1.369 . S
C467 C468 1.410 . S
C467 C475 1.503 . S
C468 C467 1.410 . S
C468 C469 1.392 . S
C468 C471 1.511 . S
C469 C465 1.376 . S
C469 C468 1.392 . S
C469 H481 0.929 . S
C470 C466 1.531 . S
C470 H482 0.960 . S
C470 H483 0.962 . S
C470 H484 0.960 . S
C471 C468 1.511 . S
C471 H485 0.961 . S
C471 H486 0.961 . S
C471 H487 0.961 . S
C472 C473 1.370 . S
C472 C474 1.363 . S
C472 H488 0.931 . S
C473 C472 1.370 . S
C473 C477 1.408 . S
C474 C472 1.363 . S
C474 C475 1.370 . S
C474 C478 1.524 . S
C475 C467 1.503 . S
C475 C474 1.370 . S
C475 C476 1.403 . S
C476 C475 1.403 . S
C476 C477 1.404 . S
C476 C479 1.539 . S
C477 C473 1.408 . S
C477 C476 1.404 . S
C477 H489 0.930 . S
C478 C474 1.524 . S
C478 H490 0.956 . S
C478 H491 0.961 . S
C478 H492 0.961 . S
C479 C476 1.539 . S
C479 H493 0.958 . S
C479 H494 0.961 . S
C479 H495 0.960 . S
H480 C464 0.931 . S
H481 C469 0.929 . S
H482 C470 0.960 . S
H483 C470 0.962 . S
H484 C470 0.960 . S
H485 C471 0.961 . S
H486 C471 0.961 . S
H487 C471 0.961 . S
H488 C472 0.931 . S
H489 C477 0.930 . S
H490 C478 0.956 . S
H491 C478 0.961 . S
H492 C478 0.961 . S
H493 C479 0.958 . S
H494 C479 0.961 . S
H495 C479 0.960 . S
C496 C497 1.391 . S
C496 C498 1.394 . S
C496 H512 0.931 1_455 S
C497 C496 1.391 . S
C497 C501 1.376 . S
C498 C496 1.394 . S
C498 C499 1.369 . S
C498 C502 1.531 1_455 S
C499 C498 1.369 . S
C499 C500 1.410 . S
C499 C507 1.503 . S
C500 C499 1.410 . S
C500 C501 1.392 . S
C500 C503 1.511 . S
C501 C497 1.376 . S
C501 C500 1.392 . S
C501 H513 0.929 . S
C502 C498 1.531 1_655 S
C502 H514 0.960 . S
C502 H515 0.962 . S
C502 H516 0.960 . S
C503 C500 1.511 . S
C503 H517 0.961 . S
C503 H518 0.961 . S
C503 H519 0.961 . S
C504 C505 1.370 . S
C504 C506 1.363 . S
C504 H520 0.931 . S
C505 C504 1.370 . S
C505 C509 1.408 . S
C506 C504 1.363 . S
C506 C507 1.370 . S
C506 C510 1.524 . S
C507 C499 1.503 . S
C507 C506 1.370 . S
C507 C508 1.403 . S
C508 C507 1.403 . S
C508 C509 1.404 . S
C508 C511 1.539 . S
C509 C505 1.408 . S
C509 C508 1.404 . S
C509 H521 0.930 . S
C510 C506 1.524 . S
C510 H522 0.956 . S
C510 H523 0.961 . S
C510 H524 0.961 . S
C511 C508 1.539 . S
C511 H525 0.958 . S
C511 H526 0.961 . S
C511 H527 0.960 . S
H512 C496 0.931 1_655 S
H513 C501 0.929 . S
H514 C502 0.960 . S
H515 C502 0.962 . S
H516 C502 0.960 . S
H517 C503 0.961 . S
H518 C503 0.961 . S
H519 C503 0.961 . S
H520 C504 0.931 . S
H521 C509 0.930 . S
H522 C510 0.956 . S
H523 C510 0.961 . S
H524 C510 0.961 . S
H525 C511 0.958 . S
H526 C511 0.961 . S
H527 C511 0.960 . S
C528 C529 1.391 . S
C528 C530 1.394 . S
C528 H544 0.931 . S
C529 C528 1.391 . S
C529 C533 1.376 . S
C530 C528 1.394 . S
C530 C531 1.369 . S
C530 C534 1.531 . S
C531 C530 1.369 . S
C531 C532 1.410 . S
C531 C539 1.503 . S
C532 C531 1.410 . S
C532 C533 1.392 . S
C532 C535 1.511 1_655 S
C533 C529 1.376 . S
C533 C532 1.392 . S
C533 H545 0.933 1_655 S
C534 C530 1.531 . S
C534 H546 0.960 . S
C534 H547 0.962 . S
C534 H548 0.960 . S
C535 C532 1.511 1_455 S
C535 H549 0.961 . S
C535 H550 0.961 . S
C535 H551 0.961 . S
C536 C537 1.370 . S
C536 C538 1.363 . S
C536 H552 0.931 . S
C537 C536 1.370 . S
C537 C541 1.408 . S
C538 C536 1.363 . S
C538 C539 1.370 . S
C538 C542 1.524 . S
C539 C531 1.503 . S
C539 C538 1.370 . S
C539 C540 1.403 . S
C540 C539 1.403 . S
C540 C541 1.404 . S
C540 C543 1.539 . S
C541 C537 1.408 . S
C541 C540 1.404 . S
C541 H553 0.930 . S
C542 C538 1.524 . S
C542 H554 0.956 . S
C542 H555 0.961 . S
C542 H556 0.961 . S
C543 C540 1.539 . S
C543 H557 0.958 . S
C543 H558 0.961 . S
C543 H559 0.960 . S
H544 C528 0.931 . S
H545 C533 0.933 1_455 S
H546 C534 0.960 . S
H547 C534 0.962 . S
H548 C534 0.960 . S
H549 C535 0.961 . S
H550 C535 0.961 . S
H551 C535 0.961 . S
H552 C536 0.931 . S
H553 C541 0.930 . S
H554 C542 0.956 . S
H555 C542 0.961 . S
H556 C542 0.961 . S
H557 C543 0.958 . S
H558 C543 0.961 . S
H559 C543 0.960 . S
C560 C561 1.391 . S
C560 C562 1.394 . S
C560 H576 0.931 . S
C561 C560 1.391 . S
C561 C565 1.376 . S
C562 C560 1.394 . S
C562 C563 1.369 . S
C562 C566 1.536 . S
C563 C562 1.369 . S
C563 C564 1.410 . S
C563 C571 1.503 . S
C564 C563 1.410 . S
C564 C565 1.392 . S
C564 C567 1.511 . S
C565 C561 1.376 . S
C565 C564 1.392 . S
C565 H577 0.929 . S
C566 C562 1.536 . S
C566 H578 0.959 1_565 S
C566 H579 0.962 . S
C566 H580 0.955 1_565 S
C567 C564 1.511 . S
C567 H581 0.961 . S
C567 H582 0.961 . S
C567 H583 0.961 . S
C568 C569 1.370 . S
C568 C570 1.363 . S
C568 H584 0.931 . S
C569 C568 1.370 . S
C569 C573 1.408 . S
C570 C568 1.363 . S
C570 C571 1.370 . S
C570 C574 1.524 . S
C571 C563 1.503 . S
C571 C570 1.370 . S
C571 C572 1.403 . S
C572 C571 1.403 . S
C572 C573 1.404 . S
C572 C575 1.539 1_565 S
C573 C569 1.408 . S
C573 C572 1.404 . S
C573 H585 0.930 . S
C574 C570 1.524 . S
C574 H586 0.956 . S
C574 H587 0.961 . S
C574 H588 0.961 . S
C575 C572 1.539 1_545 S
C575 H589 0.958 . S
C575 H590 0.961 . S
C575 H591 0.960 . S
H576 C560 0.931 . S
H577 C565 0.929 . S
H578 C566 0.959 1_545 S
H579 C566 0.962 . S
H580 C566 0.955 1_545 S
H581 C567 0.961 . S
H582 C567 0.961 . S
H583 C567 0.961 . S
H584 C568 0.931 . S
H585 C573 0.930 . S
H586 C574 0.956 . S
H587 C574 0.961 . S
H588 C574 0.961 . S
H589 C575 0.958 . S
H590 C575 0.961 . S
H591 C575 0.960 . S
C592 C593 1.391 . S
C592 C594 1.394 . S
C592 H608 0.931 . S
C593 C592 1.391 . S
C593 C597 1.376 . S
C594 C592 1.394 . S
C594 C595 1.369 . S
C594 C598 1.531 . S
C595 C594 1.369 . S
C595 C596 1.410 . S
C595 C603 1.503 . S
C596 C595 1.410 . S
C596 C597 1.392 . S
C596 C599 1.511 . S
C597 C593 1.376 . S
C597 C596 1.392 . S
C597 H609 0.929 . S
C598 C594 1.531 . S
C598 H610 0.960 . S
C598 H611 0.962 . S
C598 H612 0.960 . S
C599 C596 1.511 . S
C599 H613 0.961 . S
C599 H614 0.961 . S
C599 H615 0.961 . S
C600 C601 1.370 . S
C600 C602 1.363 . S
C600 H616 0.931 . S
C601 C600 1.370 . S
C601 C605 1.408 . S
C602 C600 1.363 . S
C602 C603 1.370 . S
C602 C606 1.524 . S
C603 C595 1.503 . S
C603 C602 1.370 . S
C603 C604 1.403 . S
C604 C603 1.403 . S
C604 C605 1.404 . S
C604 C607 1.539 . S
C605 C601 1.408 . S
C605 C604 1.404 . S
C605 H617 0.930 . S
C606 C602 1.524 . S
C606 H618 0.956 . S
C606 H619 0.961 . S
C606 H620 0.961 . S
C607 C604 1.539 . S
C607 H621 0.958 . S
C607 H622 0.961 . S
C607 H623 0.960 . S
H608 C592 0.931 . S
H609 C597 0.929 . S
H610 C598 0.960 . S
H611 C598 0.962 . S
H612 C598 0.960 . S
H613 C599 0.961 . S
H614 C599 0.961 . S
H615 C599 0.961 . S
H616 C600 0.931 . S
H617 C605 0.930 . S
H618 C606 0.956 . S
H619 C606 0.961 . S
H620 C606 0.961 . S
H621 C607 0.958 . S
H622 C607 0.961 . S
H623 C607 0.960 . S
C624 C625 1.391 . S
C624 C626 1.394 . S
C624 H640 0.931 . S
C625 C624 1.391 . S
C625 C629 1.376 . S
C626 C624 1.394 . S
C626 C627 1.369 . S
C626 C630 1.531 . S
C627 C626 1.369 . S
C627 C628 1.410 . S
C627 C635 1.503 . S
C628 C627 1.410 . S
C628 C629 1.392 . S
C628 C631 1.511 1_455 S
C629 C625 1.376 . S
C629 C628 1.392 . S
C629 H641 0.929 1_455 S
C630 C626 1.531 . S
C630 H642 0.960 . S
C630 H643 0.962 . S
C630 H644 0.960 . S
C631 C628 1.511 1_655 S
C631 H645 0.961 . S
C631 H646 0.961 . S
C631 H647 0.961 . S
C632 C633 1.370 . S
C632 C634 1.363 . S
C632 H648 0.931 . S
C633 C632 1.370 . S
C633 C637 1.408 . S
C634 C632 1.363 . S
C634 C635 1.370 . S
C634 C638 1.524 . S
C635 C627 1.503 . S
C635 C634 1.370 . S
C635 C636 1.403 . S
C636 C635 1.403 . S
C636 C637 1.404 . S
C636 C639 1.539 . S
C637 C633 1.408 . S
C637 C636 1.404 . S
C637 H649 0.930 . S
C638 C634 1.524 . S
C638 H650 0.956 . S
C638 H651 0.961 . S
C638 H652 0.961 . S
C639 C636 1.539 . S
C639 H653 0.958 . S
C639 H654 0.961 . S
C639 H655 0.960 . S
H640 C624 0.931 . S
H641 C629 0.929 1_655 S
H642 C630 0.960 . S
H643 C630 0.962 . S
H644 C630 0.960 . S
H645 C631 0.961 . S
H646 C631 0.961 . S
H647 C631 0.961 . S
H648 C632 0.931 . S
H649 C637 0.930 . S
H650 C638 0.956 . S
H651 C638 0.961 . S
H652 C638 0.961 . S
H653 C639 0.958 . S
H654 C639 0.961 . S
H655 C639 0.960 . S
C656 C657 1.391 . S
C656 C658 1.394 . S
C656 H672 0.931 . S
C657 C656 1.391 . S
C657 C661 1.376 . S
C658 C656 1.394 . S
C658 C659 1.369 . S
C658 C662 1.531 1_545 S
C659 C658 1.369 . S
C659 C660 1.410 . S
C659 C667 1.503 . S
C660 C659 1.410 . S
C660 C661 1.392 . S
C660 C663 1.511 . S
C661 C657 1.376 . S
C661 C660 1.392 . S
C661 H673 0.929 . S
C662 C658 1.531 1_565 S
C662 H674 0.960 . S
C662 H675 0.962 1_565 S
C662 H676 0.960 . S
C663 C660 1.511 . S
C663 H677 0.961 . S
C663 H678 0.961 . S
C663 H679 0.961 . S
C664 C665 1.370 . S
C664 C666 1.363 . S
C664 H680 0.931 . S
C665 C664 1.370 . S
C665 C669 1.408 . S
C666 C664 1.363 . S
C666 C667 1.370 . S
C666 C670 1.524 . S
C667 C659 1.503 . S
C667 C666 1.370 . S
C667 C668 1.403 . S
C668 C667 1.403 . S
C668 C669 1.404 . S
C668 C671 1.539 1_545 S
C669 C665 1.408 . S
C669 C668 1.404 . S
C669 H681 0.930 . S
C670 C666 1.524 . S
C670 H682 0.956 . S
C670 H683 0.961 . S
C670 H684 0.961 . S
C671 C668 1.539 1_565 S
C671 H685 0.958 . S
C671 H686 0.961 . S
C671 H687 0.960 1_565 S
H672 C656 0.931 . S
H673 C661 0.929 . S
H674 C662 0.960 . S
H675 C662 0.962 1_545 S
H676 C662 0.960 . S
H677 C663 0.961 . S
H678 C663 0.961 . S
H679 C663 0.961 . S
H680 C664 0.931 . S
H681 C669 0.930 . S
H682 C670 0.956 . S
H683 C670 0.961 . S
H684 C670 0.961 . S
H685 C671 0.958 . S
H686 C671 0.961 . S
H687 C671 0.960 1_545 S
C688 C689 1.391 . S
C688 C690 1.394 . S
C688 H704 0.931 . S
C689 C688 1.391 . S
C689 C693 1.376 . S
C690 C688 1.394 . S
C690 C691 1.369 . S
C690 C694 1.531 . S
C691 C690 1.369 . S
C691 C692 1.410 . S
C691 C699 1.503 . S
C692 C691 1.410 . S
C692 C693 1.392 . S
C692 C695 1.511 . S
C693 C689 1.376 . S
C693 C692 1.392 . S
C693 H705 0.929 . S
C694 C690 1.531 . S
C694 H706 0.960 . S
C694 H707 0.962 . S
C694 H708 0.960 . S
C695 C692 1.511 . S
C695 H709 0.961 . S
C695 H710 0.961 . S
C695 H711 0.961 . S
C696 C697 1.370 . S
C696 C698 1.363 . S
C696 H712 0.931 . S
C697 C696 1.370 . S
C697 C701 1.408 . S
C698 C696 1.363 . S
C698 C699 1.370 . S
C698 C702 1.524 . S
C699 C691 1.503 . S
C699 C698 1.370 . S
C699 C700 1.403 . S
C700 C699 1.403 . S
C700 C701 1.404 . S
C700 C703 1.539 . S
C701 C697 1.408 . S
C701 C700 1.404 . S
C701 H713 0.930 . S
C702 C698 1.524 . S
C702 H714 0.956 . S
C702 H715 0.961 . S
C702 H716 0.961 . S
C703 C700 1.539 . S
C703 H717 0.958 . S
C703 H718 0.961 . S
C703 H719 0.960 . S
H704 C688 0.931 . S
H705 C693 0.929 . S
H706 C694 0.960 . S
H707 C694 0.962 . S
H708 C694 0.960 . S
H709 C695 0.961 . S
H710 C695 0.961 . S
H711 C695 0.961 . S
H712 C696 0.931 . S
H713 C701 0.930 . S
H714 C702 0.956 . S
H715 C702 0.961 . S
H716 C702 0.961 . S
H717 C703 0.958 . S
H718 C703 0.961 . S
H719 C703 0.960 . S
C720 C721 1.391 . S
C720 C722 1.394 . S
C720 H736 0.931 . S
C721 C720 1.391 . S
C721 C725 1.376 . S
C722 C720 1.394 . S
C722 C723 1.369 . S
C722 C726 1.531 . S
C723 C722 1.369 . S
C723 C724 1.410 . S
C723 C731 1.503 . S
C724 C723 1.410 . S
C724 C725 1.392 . S
C724 C727 1.511 . S
C725 C721 1.376 . S
C725 C724 1.392 . S
C725 H737 0.929 . S
C726 C722 1.531 . S
C726 H738 0.960 . S
C726 H739 0.962 . S
C726 H740 0.960 . S
C727 C724 1.511 . S
C727 H741 0.961 . S
C727 H742 0.961 . S
C727 H743 0.961 . S
C728 C729 1.370 . S
C728 C730 1.363 . S
C728 H744 0.931 . S
C729 C728 1.370 . S
C729 C733 1.408 . S
C730 C728 1.363 . S
C730 C731 1.370 . S
C730 C734 1.524 . S
C731 C723 1.503 . S
C731 C730 1.370 . S
C731 C732 1.403 . S
C732 C731 1.403 . S
C732 C733 1.404 . S
C732 C735 1.539 . S
C733 C729 1.408 . S
C733 C732 1.404 . S
C733 H745 0.930 . S
C734 C730 1.524 . S
C734 H746 0.956 . S
C734 H747 0.961 . S
C734 H748 0.961 . S
C735 C732 1.539 . S
C735 H749 0.958 . S
C735 H750 0.961 . S
C735 H751 0.960 . S
H736 C720 0.931 . S
H737 C725 0.929 . S
H738 C726 0.960 . S
H739 C726 0.962 . S
H740 C726 0.960 . S
H741 C727 0.961 . S
H742 C727 0.961 . S
H743 C727 0.961 . S
H744 C728 0.931 . S
H745 C733 0.930 . S
H746 C734 0.956 . S
H747 C734 0.961 . S
H748 C734 0.961 . S
H749 C735 0.958 . S
H750 C735 0.961 . S
H751 C735 0.960 . S
C752 C753 1.391 . S
C752 C754 1.394 . S
C752 H768 0.931 . S
C753 C752 1.391 . S
C753 C757 1.376 . S
C754 C752 1.394 . S
C754 C755 1.369 . S
C754 C758 1.531 . S
C755 C754 1.369 . S
C755 C756 1.410 . S
C755 C763 1.503 . S
C756 C755 1.410 . S
C756 C757 1.392 . S
C756 C759 1.511 . S
C757 C753 1.376 . S
C757 C756 1.392 . S
C757 H769 0.929 . S
C758 C754 1.531 . S
C758 H770 0.960 . S
C758 H771 0.962 . S
C758 H772 0.960 . S
C759 C756 1.511 . S
C759 H773 0.961 . S
C759 H774 0.961 . S
C759 H775 0.961 . S
C760 C761 1.370 . S
C760 C762 1.363 . S
C760 H776 0.931 . S
C761 C760 1.370 . S
C761 C765 1.408 . S
C762 C760 1.363 . S
C762 C763 1.370 . S
C762 C766 1.524 . S
C763 C755 1.503 . S
C763 C762 1.370 . S
C763 C764 1.403 . S
C764 C763 1.403 . S
C764 C765 1.404 . S
C764 C767 1.539 . S
C765 C761 1.408 . S
C765 C764 1.404 . S
C765 H777 0.930 . S
C766 C762 1.524 . S
C766 H778 0.956 . S
C766 H779 0.961 . S
C766 H780 0.961 . S
C767 C764 1.539 . S
C767 H781 0.958 . S
C767 H782 0.961 . S
C767 H783 0.960 . S
H768 C752 0.931 . S
H769 C757 0.929 . S
H770 C758 0.960 . S
H771 C758 0.962 . S
H772 C758 0.960 . S
H773 C759 0.961 . S
H774 C759 0.961 . S
H775 C759 0.961 . S
H776 C760 0.931 . S
H777 C765 0.930 . S
H778 C766 0.956 . S
H779 C766 0.961 . S
H780 C766 0.961 . S
H781 C767 0.958 . S
H782 C767 0.961 . S
H783 C767 0.960 . S
C784 C785 1.391 . S
C784 C786 1.394 . S
C784 H800 0.931 . S
C785 C784 1.391 . S
C785 C789 1.376 . S
C786 C784 1.394 . S
C786 C787 1.369 . S
C786 C790 1.531 . S
C787 C786 1.369 . S
C787 C788 1.410 . S
C787 C795 1.503 . S
C788 C787 1.410 . S
C788 C789 1.392 . S
C788 C791 1.511 . S
C789 C785 1.376 . S
C789 C788 1.392 . S
C789 H801 0.929 . S
C790 C786 1.531 . S
C790 H802 0.960 . S
C790 H803 0.962 . S
C790 H804 0.960 . S
C791 C788 1.511 . S
C791 H805 0.961 . S
C791 H806 0.961 . S
C791 H807 0.961 . S
C792 C793 1.370 . S
C792 C794 1.363 . S
C792 H808 0.931 . S
C793 C792 1.370 . S
C793 C797 1.408 . S
C794 C792 1.363 . S
C794 C795 1.370 . S
C794 C798 1.524 . S
C795 C787 1.503 . S
C795 C794 1.370 . S
C795 C796 1.403 . S
C796 C795 1.403 . S
C796 C797 1.404 . S
C796 C799 1.539 . S
C797 C793 1.408 . S
C797 C796 1.404 . S
C797 H809 0.930 . S
C798 C794 1.524 . S
C798 H810 0.956 . S
C798 H811 0.961 . S
C798 H812 0.961 . S
C799 C796 1.539 . S
C799 H813 0.958 . S
C799 H814 0.961 . S
C799 H815 0.960 . S
H800 C784 0.931 . S
H801 C789 0.929 . S
H802 C790 0.960 . S
H803 C790 0.962 . S
H804 C790 0.960 . S
H805 C791 0.961 . S
H806 C791 0.961 . S
H807 C791 0.961 . S
H808 C792 0.931 . S
H809 C797 0.930 . S
H810 C798 0.956 . S
H811 C798 0.961 . S
H812 C798 0.961 . S
H813 C799 0.958 . S
H814 C799 0.961 . S
H815 C799 0.960 . S
C816 C817 1.391 . S
C816 C818 1.394 . S
C816 H832 0.931 . S
C817 C816 1.391 . S
C817 C821 1.376 . S
C818 C816 1.394 . S
C818 C819 1.369 . S
C818 C822 1.531 . S
C819 C818 1.369 . S
C819 C820 1.410 . S
C819 C827 1.503 . S
C820 C819 1.410 . S
C820 C821 1.392 . S
C820 C823 1.511 . S
C821 C817 1.376 . S
C821 C820 1.392 . S
C821 H833 0.929 . S
C822 C818 1.531 . S
C822 H834 0.960 . S
C822 H835 0.962 . S
C822 H836 0.960 . S
C823 C820 1.511 . S
C823 H837 0.961 . S
C823 H838 0.961 . S
C823 H839 0.961 . S
C824 C825 1.370 . S
C824 C826 1.363 . S
C824 H840 0.931 . S
C825 C824 1.370 . S
C825 C829 1.408 . S
C826 C824 1.363 . S
C826 C827 1.370 . S
C826 C830 1.524 . S
C827 C819 1.503 . S
C827 C826 1.370 . S
C827 C828 1.403 . S
C828 C827 1.403 . S
C828 C829 1.404 . S
C828 C831 1.539 . S
C829 C825 1.408 . S
C829 C828 1.404 . S
C829 H841 0.930 . S
C830 C826 1.524 . S
C830 H842 0.956 . S
C830 H843 0.961 . S
C830 H844 0.961 . S
C831 C828 1.539 . S
C831 H845 0.958 . S
C831 H846 0.961 . S
C831 H847 0.960 . S
H832 C816 0.931 . S
H833 C821 0.929 . S
H834 C822 0.960 . S
H835 C822 0.962 . S
H836 C822 0.960 . S
H837 C823 0.961 . S
H838 C823 0.961 . S
H839 C823 0.961 . S
H840 C824 0.931 . S
H841 C829 0.930 . S
H842 C830 0.956 . S
H843 C830 0.961 . S
H844 C830 0.961 . S
H845 C831 0.958 . S
H846 C831 0.961 . S
H847 C831 0.960 . S
C848 C849 1.391 . S
C848 C850 1.394 . S
C848 H864 0.931 . S
C849 C848 1.391 . S
C849 C853 1.376 . S
C850 C848 1.394 . S
C850 C851 1.369 . S
C850 C854 1.531 . S
C851 C850 1.369 . S
C851 C852 1.410 . S
C851 C859 1.503 . S
C852 C851 1.410 . S
C852 C853 1.392 . S
C852 C855 1.511 . S
C853 C849 1.376 . S
C853 C852 1.392 . S
C853 H865 0.929 . S
C854 C850 1.531 . S
C854 H866 0.960 . S
C854 H867 0.962 . S
C854 H868 0.960 . S
C855 C852 1.511 . S
C855 H869 0.961 . S
C855 H870 0.961 . S
C855 H871 0.961 . S
C856 C857 1.370 . S
C856 C858 1.363 . S
C856 H872 0.931 . S
C857 C856 1.370 . S
C857 C861 1.408 . S
C858 C856 1.363 . S
C858 C859 1.370 . S
C858 C862 1.524 . S
C859 C851 1.503 . S
C859 C858 1.370 . S
C859 C860 1.403 . S
C860 C859 1.403 . S
C860 C861 1.404 . S
C860 C863 1.539 . S
C861 C857 1.408 . S
C861 C860 1.404 . S
C861 H873 0.930 . S
C862 C858 1.524 . S
C862 H874 0.956 . S
C862 H875 0.961 . S
C862 H876 0.961 . S
C863 C860 1.539 . S
C863 H877 0.958 . S
C863 H878 0.961 . S
C863 H879 0.960 . S
H864 C848 0.931 . S
H865 C853 0.929 . S
H866 C854 0.960 . S
H867 C854 0.962 . S
H868 C854 0.960 . S
H869 C855 0.961 . S
H870 C855 0.961 . S
H871 C855 0.961 . S
H872 C856 0.931 . S
H873 C861 0.930 . S
H874 C862 0.956 . S
H875 C862 0.961 . S
H876 C862 0.961 . S
H877 C863 0.958 . S
H878 C863 0.961 . S
H879 C863 0.960 . S
C880 C881 1.391 . S
C880 C882 1.394 . S
C880 H896 0.931 . S
C881 C880 1.391 . S
C881 C885 1.376 . S
C882 C880 1.394 . S
C882 C883 1.369 . S
C882 C886 1.531 . S
C883 C882 1.369 . S
C883 C884 1.410 . S
C883 C891 1.503 . S
C884 C883 1.410 . S
C884 C885 1.392 . S
C884 C887 1.511 . S
C885 C881 1.376 . S
C885 C884 1.392 . S
C885 H897 0.929 . S
C886 C882 1.531 . S
C886 H898 0.960 . S
C886 H899 0.962 . S
C886 H900 0.960 . S
C887 C884 1.511 . S
C887 H901 0.961 . S
C887 H902 0.961 . S
C887 H903 0.961 . S
C888 C889 1.370 . S
C888 C890 1.363 . S
C888 H904 0.931 . S
C889 C888 1.370 . S
C889 C893 1.408 . S
C890 C888 1.363 . S
C890 C891 1.370 . S
C890 C894 1.524 . S
C891 C883 1.503 . S
C891 C890 1.370 . S
C891 C892 1.403 . S
C892 C891 1.403 . S
C892 C893 1.404 . S
C892 C895 1.539 . S
C893 C889 1.408 . S
C893 C892 1.404 . S
C893 H905 0.930 . S
C894 C890 1.524 . S
C894 H906 0.956 . S
C894 H907 0.961 . S
C894 H908 0.961 . S
C895 C892 1.539 . S
C895 H909 0.958 . S
C895 H910 0.961 . S
C895 H911 0.960 . S
H896 C880 0.931 . S
H897 C885 0.929 . S
H898 C886 0.960 . S
H899 C886 0.962 . S
H900 C886 0.960 . S
H901 C887 0.961 . S
H902 C887 0.961 . S
H903 C887 0.961 . S
H904 C888 0.931 . S
H905 C893 0.930 . S
H906 C894 0.956 . S
H907 C894 0.961 . S
H908 C894 0.961 . S
H909 C895 0.958 . S
H910 C895 0.961 . S
H911 C895 0.960 . S
C912 C913 1.391 . S
C912 C914 1.394 . S
C912 H928 0.931 . S
C913 C912 1.391 . S
C913 C917 1.376 . S
C914 C912 1.394 . S
C914 C915 1.369 . S
C914 C918 1.531 . S
C915 C914 1.369 . S
C915 C916 1.410 . S
C915 C923 1.503 . S
C916 C915 1.410 . S
C916 C917 1.392 . S
C916 C919 1.511 . S
C917 C913 1.376 . S
C917 C916 1.392 . S
C917 H929 0.929 . S
C918 C914 1.531 . S
C918 H930 0.960 . S
C918 H931 0.962 . S
C918 H932 0.960 . S
C919 C916 1.511 . S
C919 H933 0.961 . S
C919 H934 0.961 . S
C919 H935 0.961 . S
C920 C921 1.370 . S
C920 C922 1.363 . S
C920 H936 0.931 . S
C921 C920 1.370 . S
C921 C925 1.408 . S
C922 C920 1.363 . S
C922 C923 1.370 . S
C922 C926 1.524 . S
C923 C915 1.503 . S
C923 C922 1.370 . S
C923 C924 1.403 . S
C924 C923 1.403 . S
C924 C925 1.404 . S
C924 C927 1.539 . S
C925 C921 1.408 . S
C925 C924 1.404 . S
C925 H937 0.930 . S
C926 C922 1.524 . S
C926 H938 0.956 . S
C926 H939 0.961 . S
C926 H940 0.961 . S
C927 C924 1.539 . S
C927 H941 0.958 . S
C927 H942 0.961 . S
C927 H943 0.960 . S
H928 C912 0.931 . S
H929 C917 0.929 . S
H930 C918 0.960 . S
H931 C918 0.962 . S
H932 C918 0.960 . S
H933 C919 0.961 . S
H934 C919 0.961 . S
H935 C919 0.961 . S
H936 C920 0.931 . S
H937 C925 0.930 . S
H938 C926 0.956 . S
H939 C926 0.961 . S
H940 C926 0.961 . S
H941 C927 0.958 . S
H942 C927 0.961 . S
H943 C927 0.960 . S
C944 C945 1.391 . S
C944 C946 1.394 . S
C944 H960 0.931 . S
C945 C944 1.391 . S
C945 C949 1.376 . S
C946 C944 1.394 . S
C946 C947 1.369 . S
C946 C950 1.531 . S
C947 C946 1.369 . S
C947 C948 1.410 . S
C947 C955 1.503 . S
C948 C947 1.410 . S
C948 C949 1.392 . S
C948 C951 1.511 . S
C949 C945 1.376 . S
C949 C948 1.392 . S
C949 H961 0.929 . S
C950 C946 1.531 . S
C950 H962 0.960 . S
C950 H963 0.962 . S
C950 H964 0.960 . S
C951 C948 1.511 . S
C951 H965 0.961 . S
C951 H966 0.961 . S
C951 H967 0.961 . S
C952 C953 1.370 . S
C952 C954 1.363 . S
C952 H968 0.931 . S
C953 C952 1.370 . S
C953 C957 1.408 . S
C954 C952 1.363 . S
C954 C955 1.370 . S
C954 C958 1.524 . S
C955 C947 1.503 . S
C955 C954 1.370 . S
C955 C956 1.403 . S
C956 C955 1.403 . S
C956 C957 1.404 . S
C956 C959 1.539 . S
C957 C953 1.408 . S
C957 C956 1.404 . S
C957 H969 0.930 . S
C958 C954 1.524 . S
C958 H970 0.956 . S
C958 H971 0.961 . S
C958 H972 0.961 . S
C959 C956 1.539 . S
C959 H973 0.958 . S
C959 H974 0.961 . S
C959 H975 0.960 . S
H960 C944 0.931 . S
H961 C949 0.929 . S
H962 C950 0.960 . S
H963 C950 0.962 . S
H964 C950 0.960 . S
H965 C951 0.961 . S
H966 C951 0.961 . S
H967 C951 0.961 . S
H968 C952 0.931 . S
H969 C957 0.930 . S
H970 C958 0.956 . S
H971 C958 0.961 . S
H972 C958 0.961 . S
H973 C959 0.958 . S
H974 C959 0.961 . S
H975 C959 0.960 . S
C976 C977 1.391 . S
C976 C978 1.394 . S
C976 H992 0.931 . S
C977 C976 1.391 . S
C977 C981 1.376 . S
C978 C976 1.394 . S
C978 C979 1.369 . S
C978 C982 1.531 . S
C979 C978 1.369 . S
C979 C980 1.410 . S
C979 C987 1.503 . S
C980 C979 1.410 . S
C980 C981 1.392 . S
C980 C983 1.511 . S
C981 C977 1.376 . S
C981 C980 1.392 . S
C981 H993 0.929 . S
C982 C978 1.531 . S
C982 H994 0.960 . S
C982 H995 0.962 . S
C982 H996 0.960 . S
C983 C980 1.511 . S
C983 H997 0.961 . S
C983 H998 0.961 . S
C983 H999 0.961 . S
C984 C985 1.370 . S
C984 C986 1.363 . S
C984 H1000 0.931 . S
C985 C984 1.370 . S
C985 C989 1.408 . S
C986 C984 1.363 . S
C986 C987 1.370 . S
C986 C990 1.524 . S
C987 C979 1.503 . S
C987 C986 1.370 . S
C987 C988 1.403 . S
C988 C987 1.403 . S
C988 C989 1.404 . S
C988 C991 1.539 . S
C989 C985 1.408 . S
C989 C988 1.404 . S
C989 H1001 0.930 . S
C990 C986 1.524 . S
C990 H1002 0.956 . S
C990 H1003 0.961 . S
C990 H1004 0.961 . S
C991 C988 1.539 . S
C991 H1005 0.958 . S
C991 H1006 0.961 . S
C991 H1007 0.960 . S
H992 C976 0.931 . S
H993 C981 0.929 . S
H994 C982 0.960 . S
H995 C982 0.962 . S
H996 C982 0.960 . S
H997 C983 0.961 . S
H998 C983 0.961 . S
H999 C983 0.961 . S
H1000 C984 0.931 . S
H1001 C989 0.930 . S
H1002 C990 0.956 . S
H1003 C990 0.961 . S
H1004 C990 0.961 . S
H1005 C991 0.958 . S
H1006 C991 0.961 . S
H1007 C991 0.960 . S
C1008 C1009 1.391 . S
C1008 C1010 1.394 . S
C1008 H1024 0.931 . S
C1009 C1008 1.391 . S
C1009 C1013 1.376 . S
C1010 C1008 1.394 . S
C1010 C1011 1.369 . S
C1010 C1014 1.531 . S
C1011 C1010 1.369 . S
C1011 C1012 1.410 . S
C1011 C1019 1.503 . S
C1012 C1011 1.410 . S
C1012 C1013 1.392 . S
C1012 C1015 1.511 . S
C1013 C1009 1.376 . S
C1013 C1012 1.392 . S
C1013 H1025 0.929 . S
C1014 C1010 1.531 . S
C1014 H1026 0.960 . S
C1014 H1027 0.962 . S
C1014 H1028 0.960 . S
C1015 C1012 1.511 . S
C1015 H1029 0.961 . S
C1015 H1030 0.961 . S
C1015 H1031 0.961 . S
C1016 C1017 1.370 . S
C1016 C1018 1.363 . S
C1016 H1032 0.931 . S
C1017 C1016 1.370 . S
C1017 C1021 1.408 . S
C1018 C1016 1.363 . S
C1018 C1019 1.370 . S
C1018 C1022 1.524 . S
C1019 C1011 1.503 . S
C1019 C1018 1.370 . S
C1019 C1020 1.403 . S
C1020 C1019 1.403 . S
C1020 C1021 1.404 . S
C1020 C1023 1.539 . S
C1021 C1017 1.408 . S
C1021 C1020 1.404 . S
C1021 H1033 0.930 . S
C1022 C1018 1.524 . S
C1022 H1034 0.956 . S
C1022 H1035 0.961 . S
C1022 H1036 0.961 . S
C1023 C1020 1.539 . S
C1023 H1037 0.958 . S
C1023 H1038 0.961 . S
C1023 H1039 0.960 . S
H1024 C1008 0.931 . S
H1025 C1013 0.929 . S
H1026 C1014 0.960 . S
H1027 C1014 0.962 . S
H1028 C1014 0.960 . S
H1029 C1015 0.961 . S
H1030 C1015 0.961 . S
H1031 C1015 0.961 . S
H1032 C1016 0.931 . S
H1033 C1021 0.930 . S
H1034 C1022 0.956 . S
H1035 C1022 0.961 . S
H1036 C1022 0.961 . S
H1037 C1023 0.958 . S
H1038 C1023 0.961 . S
H1039 C1023 0.960 . S
C1040 C1041 1.391 . S
C1040 C1042 1.394 . S
C1040 H1056 0.931 . S
C1041 C1040 1.391 . S
C1041 C1045 1.376 . S
C1042 C1040 1.394 . S
C1042 C1043 1.369 . S
C1042 C1046 1.531 . S
C1043 C1042 1.369 . S
C1043 C1044 1.410 . S
C1043 C1051 1.503 . S
C1044 C1043 1.410 . S
C1044 C1045 1.392 . S
C1044 C1047 1.511 . S
C1045 C1041 1.376 . S
C1045 C1044 1.392 . S
C1045 H1057 0.929 . S
C1046 C1042 1.531 . S
C1046 H1058 0.960 . S
C1046 H1059 0.962 . S
C1046 H1060 0.960 . S
C1047 C1044 1.511 . S
C1047 H1061 0.961 . S
C1047 H1062 0.961 . S
C1047 H1063 0.961 . S
C1048 C1049 1.370 . S
C1048 C1050 1.363 . S
C1048 H1064 0.931 . S
C1049 C1048 1.370 . S
C1049 C1053 1.408 . S
C1050 C1048 1.363 . S
C1050 C1051 1.370 . S
C1050 C1054 1.524 . S
C1051 C1043 1.503 . S
C1051 C1050 1.370 . S
C1051 C1052 1.403 . S
C1052 C1051 1.403 . S
C1052 C1053 1.404 . S
C1052 C1055 1.539 . S
C1053 C1049 1.408 . S
C1053 C1052 1.404 . S
C1053 H1065 0.930 . S
C1054 C1050 1.524 . S
C1054 H1066 0.956 . S
C1054 H1067 0.961 . S
C1054 H1068 0.961 . S
C1055 C1052 1.539 . S
C1055 H1069 0.958 . S
C1055 H1070 0.961 . S
C1055 H1071 0.960 . S
H1056 C1040 0.931 . S
H1057 C1045 0.929 . S
H1058 C1046 0.960 . S
H1059 C1046 0.962 . S
H1060 C1046 0.960 . S
H1061 C1047 0.961 . S
H1062 C1047 0.961 . S
H1063 C1047 0.961 . S
H1064 C1048 0.931 . S
H1065 C1053 0.930 . S
H1066 C1054 0.956 . S
H1067 C1054 0.961 . S
H1068 C1054 0.961 . S
H1069 C1055 0.958 . S
H1070 C1055 0.961 . S
H1071 C1055 0.960 . S
C1072 C1073 1.391 . S
C1072 C1074 1.394 . S
C1072 H1088 0.931 . S
C1073 C1072 1.391 . S
C1073 C1077 1.376 . S
C1074 C1072 1.394 . S
C1074 C1075 1.369 . S
C1074 C1078 1.531 . S
C1075 C1074 1.369 . S
C1075 C1076 1.410 . S
C1075 C1083 1.503 . S
C1076 C1075 1.410 . S
C1076 C1077 1.392 . S
C1076 C1079 1.511 . S
C1077 C1073 1.376 . S
C1077 C1076 1.392 . S
C1077 H1089 0.929 . S
C1078 C1074 1.531 . S
C1078 H1090 0.960 . S
C1078 H1091 0.962 . S
C1078 H1092 0.960 . S
C1079 C1076 1.511 . S
C1079 H1093 0.961 . S
C1079 H1094 0.961 . S
C1079 H1095 0.961 . S
C1080 C1081 1.370 . S
C1080 C1082 1.363 . S
C1080 H1096 0.931 . S
C1081 C1080 1.370 . S
C1081 C1085 1.408 . S
C1082 C1080 1.363 . S
C1082 C1083 1.370 . S
C1082 C1086 1.524 . S
C1083 C1075 1.503 . S
C1083 C1082 1.370 . S
C1083 C1084 1.403 . S
C1084 C1083 1.403 . S
C1084 C1085 1.404 . S
C1084 C1087 1.539 . S
C1085 C1081 1.408 . S
C1085 C1084 1.404 . S
C1085 H1097 0.930 . S
C1086 C1082 1.524 . S
C1086 H1098 0.956 . S
C1086 H1099 0.961 . S
C1086 H1100 0.961 . S
C1087 C1084 1.539 . S
C1087 H1101 0.958 . S
C1087 H1102 0.961 . S
C1087 H1103 0.960 . S
H1088 C1072 0.931 . S
H1089 C1077 0.929 . S
H1090 C1078 0.960 . S
H1091 C1078 0.962 . S
H1092 C1078 0.960 . S
H1093 C1079 0.961 . S
H1094 C1079 0.961 . S
H1095 C1079 0.961 . S
H1096 C1080 0.931 . S
H1097 C1085 0.930 . S
H1098 C1086 0.956 . S
H1099 C1086 0.961 . S
H1100 C1086 0.961 . S
H1101 C1087 0.958 . S
H1102 C1087 0.961 . S
H1103 C1087 0.960 . S
C1104 C1105 1.391 1_545 S
C1104 C1106 1.396 . S
C1104 H1120 0.928 . S
C1105 C1104 1.391 1_565 S
C1105 C1109 1.376 . S
C1106 C1104 1.396 . S
C1106 C1107 1.369 . S
C1106 C1110 1.531 . S
C1107 C1106 1.369 . S
C1107 C1108 1.410 1_545 S
C1107 C1115 1.503 1_556 S
C1108 C1107 1.410 1_565 S
C1108 C1109 1.392 . S
C1108 C1111 1.511 . S
C1109 C1105 1.376 . S
C1109 C1108 1.392 . S
C1109 H1121 0.929 . S
C1110 C1106 1.531 . S
C1110 H1122 0.960 . S
C1110 H1123 0.962 . S
C1110 H1124 0.960 . S
C1111 C1108 1.511 . S
C1111 H1125 0.961 . S
C1111 H1126 0.961 1_556 S
C1111 H1127 0.961 1_565 S
C1112 C1113 1.370 1_565 S
C1112 C1114 1.363 . S
C1112 H1128 0.931 . S
C1113 C1112 1.370 1_545 S
C1113 C1117 1.408 . S
C1114 C1112 1.363 . S
C1114 C1115 1.370 1_565 S
C1114 C1118 1.524 . S
C1115 C1107 1.503 1_554 S
C1115 C1114 1.370 1_545 S
C1115 C1116 1.403 . S
C1116 C1115 1.403 . S
C1116 C1117 1.404 . S
C1116 C1119 1.539 . S
C1117 C1113 1.408 . S
C1117 C1116 1.404 . S
C1117 H1129 0.930 . S
C1118 C1114 1.524 . S
C1118 H1130 0.956 . S
C1118 H1131 0.961 . S
C1118 H1132 0.961 . S
C1119 C1116 1.539 . S
C1119 H1133 0.958 . S
C1119 H1134 0.961 . S
C1119 H1135 0.960 1_554 S
H1120 C1104 0.928 . S
H1121 C1109 0.929 . S
H1122 C1110 0.960 . S
H1123 C1110 0.962 . S
H1124 C1110 0.960 . S
H1125 C1111 0.961 . S
H1126 C1111 0.961 1_554 S
H1127 C1111 0.961 1_545 S
H1128 C1112 0.931 . S
H1129 C1117 0.930 . S
H1130 C1118 0.956 . S
H1131 C1118 0.961 . S
H1132 C1118 0.961 . S
H1133 C1119 0.958 . S
H1134 C1119 0.961 . S
H1135 C1119 0.960 1_556 S
C1136 C1137 1.391 . S
C1136 C1138 1.394 . S
C1136 H1152 0.931 . S
C1137 C1136 1.391 . S
C1137 C1141 1.376 . S
C1138 C1136 1.394 . S
C1138 C1139 1.369 . S
C1138 C1142 1.531 . S
C1139 C1138 1.369 . S
C1139 C1140 1.410 . S
C1139 C1147 1.503 . S
C1140 C1139 1.410 . S
C1140 C1141 1.392 . S
C1140 C1143 1.511 . S
C1141 C1137 1.376 . S
C1141 C1140 1.392 . S
C1141 H1153 0.929 . S
C1142 C1138 1.531 . S
C1142 H1154 0.960 . S
C1142 H1155 0.962 . S
C1142 H1156 0.960 . S
C1143 C1140 1.511 . S
C1143 H1157 0.961 . S
C1143 H1158 0.961 . S
C1143 H1159 0.961 . S
C1144 C1145 1.370 . S
C1144 C1146 1.363 . S
C1144 H1160 0.931 . S
C1145 C1144 1.370 . S
C1145 C1149 1.408 . S
C1146 C1144 1.363 . S
C1146 C1147 1.370 . S
C1146 C1150 1.524 . S
C1147 C1139 1.503 . S
C1147 C1146 1.370 . S
C1147 C1148 1.403 . S
C1148 C1147 1.403 . S
C1148 C1149 1.404 . S
C1148 C1151 1.539 . S
C1149 C1145 1.408 . S
C1149 C1148 1.404 . S
C1149 H1161 0.930 . S
C1150 C1146 1.524 . S
C1150 H1162 0.956 . S
C1150 H1163 0.961 . S
C1150 H1164 0.961 . S
C1151 C1148 1.539 . S
C1151 H1165 0.958 . S
C1151 H1166 0.961 . S
C1151 H1167 0.960 . S
H1152 C1136 0.931 . S
H1153 C1141 0.929 . S
H1154 C1142 0.960 . S
H1155 C1142 0.962 . S
H1156 C1142 0.960 . S
H1157 C1143 0.961 . S
H1158 C1143 0.961 . S
H1159 C1143 0.961 . S
H1160 C1144 0.931 . S
H1161 C1149 0.930 . S
H1162 C1150 0.956 . S
H1163 C1150 0.961 . S
H1164 C1150 0.961 . S
H1165 C1151 0.958 . S
H1166 C1151 0.961 . S
H1167 C1151 0.960 . S
C1168 C1169 1.391 . S
C1168 C1170 1.394 . S
C1168 H1184 0.931 . S
C1169 C1168 1.391 . S
C1169 C1173 1.376 1_455 S
C1170 C1168 1.394 . S
C1170 C1171 1.369 . S
C1170 C1174 1.531 . S
C1171 C1170 1.369 . S
C1171 C1172 1.410 1_455 S
C1171 C1179 1.503 1_456 S
C1172 C1171 1.410 1_655 S
C1172 C1173 1.392 . S
C1172 C1175 1.511 . S
C1173 C1169 1.376 1_655 S
C1173 C1172 1.392 . S
C1173 H1185 0.929 . S
C1174 C1170 1.531 . S
C1174 H1186 0.960 1_556 S
C1174 H1187 0.962 1_556 S
C1174 H1188 0.960 . S
C1175 C1172 1.511 . S
C1175 H1189 0.961 . S
C1175 H1190 0.961 . S
C1175 H1191 0.961 . S
C1176 C1177 1.370 . S
C1176 C1178 1.363 . S
C1176 H1192 0.931 . S
C1177 C1176 1.370 . S
C1177 C1181 1.408 . S
C1178 C1176 1.363 . S
C1178 C1179 1.370 . S
C1178 C1182 1.524 . S
C1179 C1171 1.503 1_654 S
C1179 C1178 1.370 . S
C1179 C1180 1.403 . S
C1180 C1179 1.403 . S
C1180 C1181 1.404 . S
C1180 C1183 1.539 1_655 S
C1181 C1177 1.408 . S
C1181 C1180 1.404 . S
C1181 H1193 0.930 . S
C1182 C1178 1.524 . S
C1182 H1194 0.956 1_655 S
C1182 H1195 0.961 1_554 S
C1182 H1196 0.961 . S
C1183 C1180 1.539 1_455 S
C1183 H1197 0.957 . S
C1183 H1198 0.963 1_455 S
C1183 H1199 0.931 1_454 S
H1184 C1168 0.931 . S
H1185 C1173 0.929 . S
H1186 C1174 0.960 1_554 S
H1187 C1174 0.962 1_554 S
H1188 C1174 0.960 . S
H1189 C1175 0.961 . S
H1190 C1175 0.961 . S
H1191 C1175 0.961 . S
H1192 C1176 0.931 . S
H1193 C1181 0.930 . S
H1194 C1182 0.956 1_455 S
H1195 C1182 0.961 1_556 S
H1196 C1182 0.961 . S
H1197 C1183 0.957 . S
H1198 C1183 0.963 1_655 S
H1199 C1183 0.931 1_656 S
C1200 C1201 1.391 1_565 S
C1200 C1202 1.394 . S
C1200 H1216 0.931 . S
C1201 C1200 1.391 1_545 S
C1201 C1205 1.376 . S
C1202 C1200 1.394 . S
C1202 C1203 1.369 . S
C1202 C1206 1.531 . S
C1203 C1202 1.369 . S
C1203 C1204 1.410 1_565 S
C1203 C1211 1.503 . S
C1204 C1203 1.410 1_545 S
C1204 C1205 1.392 . S
C1204 C1207 1.511 . S
C1205 C1201 1.376 . S
C1205 C1204 1.392 . S
C1205 H1217 0.929 . S
C1206 C1202 1.531 . S
C1206 H1218 0.960 . S
C1206 H1219 0.962 . S
C1206 H1220 0.960 . S
C1207 C1204 1.511 . S
C1207 H1221 0.961 . S
C1207 H1222 0.961 . S
C1207 H1223 0.961 . S
C1208 C1209 1.370 1_545 S
C1208 C1210 1.363 . S
C1208 H1224 0.931 . S
C1209 C1208 1.370 1_565 S
C1209 C1213 1.408 . S
C1210 C1208 1.363 . S
C1210 C1211 1.370 1_545 S
C1210 C1214 1.524 . S
C1211 C1203 1.503 . S
C1211 C1210 1.370 1_565 S
C1211 C1212 1.403 . S
C1212 C1211 1.403 . S
C1212 C1213 1.404 . S
C1212 C1215 1.539 . S
C1213 C1209 1.408 . S
C1213 C1212 1.404 . S
C1213 H1225 0.930 . S
C1214 C1210 1.524 . S
C1214 H1226 0.956 . S
C1214 H1227 0.961 . S
C1214 H1228 0.961 . S
C1215 C1212 1.539 . S
C1215 H1229 0.958 . S
C1215 H1230 0.961 . S
C1215 H1231 0.960 . S
H1216 C1200 0.931 . S
H1217 C1205 0.929 . S
H1218 C1206 0.960 . S
H1219 C1206 0.962 . S
H1220 C1206 0.960 . S
H1221 C1207 0.961 . S
H1222 C1207 0.961 . S
H1223 C1207 0.961 . S
H1224 C1208 0.931 . S
H1225 C1213 0.930 . S
H1226 C1214 0.956 . S
H1227 C1214 0.961 . S
H1228 C1214 0.961 . S
H1229 C1215 0.958 . S
H1230 C1215 0.961 . S
H1231 C1215 0.960 . S
C1232 C1233 1.391 . S
C1232 C1234 1.394 . S
C1232 H1248 0.931 . S
C1233 C1232 1.391 . S
C1233 C1237 1.376 . S
C1234 C1232 1.394 . S
C1234 C1235 1.369 . S
C1234 C1238 1.531 . S
C1235 C1234 1.369 . S
C1235 C1236 1.410 . S
C1235 C1243 1.503 1_554 S
C1236 C1235 1.410 . S
C1236 C1237 1.392 . S
C1236 C1239 1.511 . S
C1237 C1233 1.376 . S
C1237 C1236 1.392 . S
C1237 H1249 0.929 . S
C1238 C1234 1.531 . S
C1238 H1250 0.960 . S
C1238 H1251 0.962 . S
C1238 H1252 0.960 . S
C1239 C1236 1.511 . S
C1239 H1253 0.961 . S
C1239 H1254 0.961 1_554 S
C1239 H1255 0.954 1_554 S
C1240 C1241 1.370 . S
C1240 C1242 1.363 . S
C1240 H1256 0.931 . S
C1241 C1240 1.370 . S
C1241 C1245 1.408 . S
C1242 C1240 1.363 . S
C1242 C1243 1.370 . S
C1242 C1246 1.524 . S
C1243 C1235 1.503 1_556 S
C1243 C1242 1.370 . S
C1243 C1244 1.403 . S
C1244 C1243 1.403 . S
C1244 C1245 1.404 . S
C1244 C1247 1.539 . S
C1245 C1241 1.408 . S
C1245 C1244 1.404 . S
C1245 H1257 0.930 . S
C1246 C1242 1.524 . S
C1246 H1258 0.956 1_556 S
C1246 H1259 0.961 1_556 S
C1246 H1260 0.961 . S
C1247 C1244 1.539 . S
C1247 H1261 0.958 . S
C1247 H1262 0.961 . S
C1247 H1263 0.960 . S
H1248 C1232 0.931 . S
H1249 C1237 0.929 . S
H1250 C1238 0.960 . S
H1251 C1238 0.962 . S
H1252 C1238 0.960 . S
H1253 C1239 0.961 . S
H1254 C1239 0.961 1_556 S
H1255 C1239 0.954 1_556 S
H1256 C1240 0.931 . S
H1257 C1245 0.930 . S
H1258 C1246 0.956 1_554 S
H1259 C1246 0.961 1_554 S
H1260 C1246 0.961 . S
H1261 C1247 0.958 . S
H1262 C1247 0.961 . S
H1263 C1247 0.960 . S
C1264 C1265 1.391 . S
C1264 C1266 1.394 . S
C1264 H1280 0.931 . S
C1265 C1264 1.391 . S
C1265 C1269 1.376 1_455 S
C1266 C1264 1.394 . S
C1266 C1267 1.369 1_455 S
C1266 C1270 1.531 . S
C1267 C1266 1.369 1_655 S
C1267 C1268 1.410 . S
C1267 C1275 1.503 . S
C1268 C1267 1.410 . S
C1268 C1269 1.392 . S
C1268 C1271 1.511 . S
C1269 C1265 1.376 1_655 S
C1269 C1268 1.392 . S
C1269 H1281 0.929 . S
C1270 C1266 1.531 . S
C1270 H1282 0.960 . S
C1270 H1283 0.962 . S
C1270 H1284 0.960 . S
C1271 C1268 1.511 . S
C1271 H1285 0.961 . S
C1271 H1286 0.961 . S
C1271 H1287 0.961 . S
C1272 C1273 1.370 1_455 S
C1272 C1274 1.363 . S
C1272 H1288 0.931 . S
C1273 C1272 1.370 1_655 S
C1273 C1277 1.408 . S
C1274 C1272 1.363 . S
C1274 C1275 1.370 1_455 S
C1274 C1278 1.524 . S
C1275 C1267 1.503 . S
C1275 C1274 1.370 1_655 S
C1275 C1276 1.403 . S
C1276 C1275 1.403 . S
C1276 C1277 1.404 . S
C1276 C1279 1.539 . S
C1277 C1273 1.408 . S
C1277 C1276 1.404 . S
C1277 H1289 0.930 . S
C1278 C1274 1.524 . S
C1278 H1290 0.956 . S
C1278 H1291 0.961 . S
C1278 H1292 0.961 . S
C1279 C1276 1.539 . S
C1279 H1293 0.958 . S
C1279 H1294 0.961 . S
C1279 H1295 0.960 . S
H1280 C1264 0.931 . S
H1281 C1269 0.929 . S
H1282 C1270 0.960 . S
H1283 C1270 0.962 . S
H1284 C1270 0.960 . S
H1285 C1271 0.961 . S
H1286 C1271 0.961 . S
H1287 C1271 0.961 . S
H1288 C1272 0.931 . S
H1289 C1277 0.930 . S
H1290 C1278 0.956 . S
H1291 C1278 0.961 . S
H1292 C1278 0.961 . S
H1293 C1279 0.958 . S
H1294 C1279 0.961 . S
H1295 C1279 0.960 . S
C1296 C1297 1.391 . S
C1296 C1298 1.394 . S
C1296 H1312 0.931 . S
C1297 C1296 1.391 . S
C1297 C1301 1.376 1_565 S
C1298 C1296 1.394 . S
C1298 C1299 1.369 . S
C1298 C1302 1.531 . S
C1299 C1298 1.369 . S
C1299 C1300 1.410 1_565 S
C1299 C1307 1.503 1_566 S
C1300 C1299 1.410 1_545 S
C1300 C1301 1.392 . S
C1300 C1303 1.511 . S
C1301 C1297 1.376 1_545 S
C1301 C1300 1.392 . S
C1301 H1313 0.929 . S
C1302 C1298 1.531 . S
C1302 H1314 0.960 1_556 S
C1302 H1315 0.952 1_556 S
C1302 H1316 0.960 . S
C1303 C1300 1.511 . S
C1303 H1317 0.961 . S
C1303 H1318 0.961 . S
C1303 H1319 0.961 . S
C1304 C1305 1.370 . S
C1304 C1306 1.363 . S
C1304 H1320 0.931 . S
C1305 C1304 1.370 . S
C1305 C1309 1.408 . S
C1306 C1304 1.363 . S
C1306 C1307 1.370 . S
C1306 C1310 1.524 . S
C1307 C1299 1.503 1_544 S
C1307 C1306 1.370 . S
C1307 C1308 1.403 1_545 S
C1308 C1307 1.403 1_565 S
C1308 C1309 1.404 1_565 S
C1308 C1311 1.539 . S
C1309 C1305 1.408 . S
C1309 C1308 1.404 1_545 S
C1309 H1321 0.930 . S
C1310 C1306 1.524 . S
C1310 H1322 0.956 1_545 S
C1310 H1323 0.961 1_554 S
C1310 H1324 0.961 . S
C1311 C1308 1.539 . S
C1311 H1325 0.958 . S
C1311 H1326 0.961 . S
C1311 H1327 0.960 . S
H1312 C1296 0.931 . S
H1313 C1301 0.929 . S
H1314 C1302 0.960 1_554 S
H1315 C1302 0.952 1_554 S
H1316 C1302 0.960 . S
H1317 C1303 0.961 . S
H1318 C1303 0.961 . S
H1319 C1303 0.961 . S
H1320 C1304 0.931 . S
H1321 C1309 0.930 . S
H1322 C1310 0.956 1_565 S
H1323 C1310 0.961 1_556 S
H1324 C1310 0.961 . S
H1325 C1311 0.958 . S
H1326 C1311 0.961 . S
H1327 C1311 0.960 . S
C1328 C1329 1.391 . S
C1328 C1330 1.394 . S
C1328 H1344 0.931 . S
C1329 C1328 1.391 . S
C1329 C1333 1.376 . S
C1330 C1328 1.394 . S
C1330 C1331 1.369 . S
C1330 C1334 1.531 . S
C1331 C1330 1.369 . S
C1331 C1332 1.410 . S
C1331 C1339 1.503 . S
C1332 C1331 1.410 . S
C1332 C1333 1.392 . S
C1332 C1335 1.511 . S
C1333 C1329 1.376 . S
C1333 C1332 1.392 . S
C1333 H1345 0.929 . S
C1334 C1330 1.531 . S
C1334 H1346 0.960 . S
C1334 H1347 0.962 . S
C1334 H1348 0.960 . S
C1335 C1332 1.511 . S
C1335 H1349 0.961 . S
C1335 H1350 0.961 . S
C1335 H1351 0.961 . S
C1336 C1337 1.370 . S
C1336 C1338 1.363 . S
C1336 H1352 0.931 . S
C1337 C1336 1.370 . S
C1337 C1341 1.408 . S
C1338 C1336 1.363 . S
C1338 C1339 1.370 . S
C1338 C1342 1.524 . S
C1339 C1331 1.503 . S
C1339 C1338 1.370 . S
C1339 C1340 1.403 . S
C1340 C1339 1.403 . S
C1340 C1341 1.404 . S
C1340 C1343 1.539 . S
C1341 C1337 1.408 . S
C1341 C1340 1.404 . S
C1341 H1353 0.930 . S
C1342 C1338 1.524 . S
C1342 H1354 0.956 . S
C1342 H1355 0.961 . S
C1342 H1356 0.961 . S
C1343 C1340 1.539 . S
C1343 H1357 0.958 . S
C1343 H1358 0.961 . S
C1343 H1359 0.960 . S
H1344 C1328 0.931 . S
H1345 C1333 0.929 . S
H1346 C1334 0.960 . S
H1347 C1334 0.962 . S
H1348 C1334 0.960 . S
H1349 C1335 0.961 . S
H1350 C1335 0.961 . S
H1351 C1335 0.961 . S
H1352 C1336 0.931 . S
H1353 C1341 0.930 . S
H1354 C1342 0.956 . S
H1355 C1342 0.961 . S
H1356 C1342 0.961 . S
H1357 C1343 0.958 . S
H1358 C1343 0.961 . S
H1359 C1343 0.960 . S
C1360 C1361 1.391 . S
C1360 C1362 1.394 . S
C1360 H1376 0.931 . S
C1361 C1360 1.391 . S
C1361 C1365 1.376 1_655 S
C1362 C1360 1.394 . S
C1362 C1363 1.325 1_655 S
C1362 C1366 1.531 . S
C1363 C1362 1.325 1_455 S
C1363 C1364 1.446 . S
C1363 C1371 1.512 1_554 S
C1364 C1363 1.446 . S
C1364 C1365 1.392 . S
C1364 C1367 1.511 . S
C1365 C1361 1.376 1_455 S
C1365 C1364 1.392 . S
C1365 H1377 0.929 . S
C1366 C1362 1.531 . S
C1366 H1378 0.960 1_554 S
C1366 H1379 0.955 1_554 S
C1366 H1380 0.960 . S
C1367 C1364 1.511 . S
C1367 H1381 0.961 . S
C1367 H1382 0.961 . S
C1367 H1383 0.961 . S
C1368 C1369 1.370 1_655 S
C1368 C1370 1.363 . S
C1368 H1384 0.931 . S
C1369 C1368 1.370 1_455 S
C1369 C1373 1.408 . S
C1370 C1368 1.363 . S
C1370 C1371 1.370 1_655 S
C1370 C1374 1.524 . S
C1371 C1363 1.512 1_556 S
C1371 C1370 1.370 1_455 S
C1371 C1372 1.403 . S
C1372 C1371 1.403 . S
C1372 C1373 1.404 . S
C1372 C1375 1.539 . S
C1373 C1369 1.408 . S
C1373 C1372 1.404 . S
C1373 H1385 0.930 . S
C1374 C1370 1.524 . S
C1374 H1386 0.956 . S
C1374 H1387 0.961 . S
C1374 H1388 0.961 . S
C1375 C1372 1.539 . S
C1375 H1389 0.958 . S
C1375 H1390 0.961 . S
C1375 H1391 0.960 1_556 S
H1376 C1360 0.931 . S
H1377 C1365 0.929 . S
H1378 C1366 0.960 1_556 S
H1379 C1366 0.955 1_556 S
H1380 C1366 0.960 . S
H1381 C1367 0.961 . S
H1382 C1367 0.961 . S
H1383 C1367 0.961 . S
H1384 C1368 0.931 . S
H1385 C1373 0.930 . S
H1386 C1374 0.956 . S
H1387 C1374 0.961 . S
H1388 C1374 0.961 . S
H1389 C1375 0.958 . S
H1390 C1375 0.961 . S
H1391 C1375 0.960 1_554 S
C1392 C1393 1.391 . S
C1392 C1394 1.394 . S
C1392 H1408 0.931 . S
C1393 C1392 1.391 . S
C1393 C1397 1.376 . S
C1394 C1392 1.394 . S
C1394 C1395 1.369 . S
C1394 C1398 1.531 . S
C1395 C1394 1.369 . S
C1395 C1396 1.410 1_565 S
C1395 C1403 1.512 . S
C1396 C1395 1.410 1_545 S
C1396 C1397 1.392 1_545 S
C1396 C1399 1.511 . S
C1397 C1393 1.376 . S
C1397 C1396 1.392 1_565 S
C1397 H1409 0.929 1_565 S
C1398 C1394 1.531 . S
C1398 H1410 0.960 . S
C1398 H1411 0.962 . S
C1398 H1412 0.960 . S
C1399 C1396 1.511 . S
C1399 H1413 0.961 . S
C1399 H1414 0.961 . S
C1399 H1415 0.961 . S
C1400 C1401 1.370 . S
C1400 C1402 1.363 . S
C1400 H1416 0.931 . S
C1401 C1400 1.370 . S
C1401 C1405 1.408 1_545 S
C1402 C1400 1.363 . S
C1402 C1403 1.352 1_545 S
C1402 C1406 1.524 . S
C1403 C1395 1.512 . S
C1403 C1402 1.352 1_565 S
C1403 C1404 1.414 . S
C1404 C1403 1.414 . S
C1404 C1405 1.404 . S
C1404 C1407 1.539 . S
C1405 C1401 1.408 1_565 S
C1405 C1404 1.404 . S
C1405 H1417 0.930 . S
C1406 C1402 1.524 . S
C1406 H1418 0.956 . S
C1406 H1419 0.961 . S
C1406 H1420 0.961 . S
C1407 C1404 1.539 . S
C1407 H1421 0.958 . S
C1407 H1422 0.961 . S
C1407 H1423 0.960 . S
H1408 C1392 0.931 . S
H1409 C1397 0.929 1_545 S
H1410 C1398 0.960 . S
H1411 C1398 0.962 . S
H1412 C1398 0.960 . S
H1413 C1399 0.961 . S
H1414 C1399 0.961 . S
H1415 C1399 0.961 . S
H1416 C1400 0.931 . S
H1417 C1405 0.930 . S
H1418 C1406 0.956 . S
H1419 C1406 0.961 . S
H1420 C1406 0.961 . S
H1421 C1407 0.958 . S
H1422 C1407 0.961 . S
H1423 C1407 0.960 . S
C1424 C1425 1.391 . S
C1424 C1426 1.394 . S
C1424 H1440 0.931 . S
C1425 C1424 1.391 . S
C1425 C1429 1.376 . S
C1426 C1424 1.394 . S
C1426 C1427 1.369 . S
C1426 C1430 1.531 . S
C1427 C1426 1.369 . S
C1427 C1428 1.410 . S
C1427 C1435 1.503 1_554 S
C1428 C1427 1.410 . S
C1428 C1429 1.392 . S
C1428 C1431 1.511 . S
C1429 C1425 1.376 . S
C1429 C1428 1.392 . S
C1429 H1441 0.929 . S
C1430 C1426 1.531 . S
C1430 H1442 0.960 . S
C1430 H1443 0.962 . S
C1430 H1444 0.960 . S
C1431 C1428 1.511 . S
C1431 H1445 0.961 . S
C1431 H1446 0.961 1_554 S
C1431 H1447 0.954 1_554 S
C1432 C1433 1.370 . S
C1432 C1434 1.363 . S
C1432 H1448 0.931 . S
C1433 C1432 1.370 . S
C1433 C1437 1.408 . S
C1434 C1432 1.363 . S
C1434 C1435 1.370 . S
C1434 C1438 1.524 . S
C1435 C1427 1.503 1_556 S
C1435 C1434 1.370 . S
C1435 C1436 1.403 . S
C1436 C1435 1.403 . S
C1436 C1437 1.404 . S
C1436 C1439 1.539 . S
C1437 C1433 1.408 . S
C1437 C1436 1.404 . S
C1437 H1449 0.930 . S
C1438 C1434 1.524 . S
C1438 H1450 0.956 1_556 S
C1438 H1451 0.957 1_556 S
C1438 H1452 0.961 . S
C1439 C1436 1.539 . S
C1439 H1453 0.958 . S
C1439 H1454 0.961 . S
C1439 H1455 0.960 . S
H1440 C1424 0.931 . S
H1441 C1429 0.929 . S
H1442 C1430 0.960 . S
H1443 C1430 0.962 . S
H1444 C1430 0.960 . S
H1445 C1431 0.961 . S
H1446 C1431 0.961 1_556 S
H1447 C1431 0.954 1_556 S
H1448 C1432 0.931 . S
H1449 C1437 0.930 . S
H1450 C1438 0.956 1_554 S
H1451 C1438 0.957 1_554 S
H1452 C1438 0.961 . S
H1453 C1439 0.958 . S
H1454 C1439 0.961 . S
H1455 C1439 0.960 . S
C1456 C1457 1.391 . S
C1456 C1458 1.394 . S
C1456 H1472 0.931 . S
C1457 C1456 1.391 . S
C1457 C1461 1.403 . S
C1458 C1456 1.394 . S
C1458 C1459 1.369 1_455 S
C1458 C1462 1.531 . S
C1459 C1458 1.369 1_655 S
C1459 C1460 1.410 . S
C1459 C1467 1.503 . S
C1460 C1459 1.410 . S
C1460 C1461 1.384 1_655 S
C1460 C1463 1.511 . S
C1461 C1457 1.403 . S
C1461 C1460 1.384 1_455 S
C1461 H1473 0.910 1_455 S
C1462 C1458 1.531 . S
C1462 H1474 0.960 1_455 S
C1462 H1475 0.962 . S
C1462 H1476 0.960 . S
C1463 C1460 1.511 . S
C1463 H1477 0.961 . S
C1463 H1478 0.961 . S
C1463 H1479 0.961 . S
C1464 C1465 1.370 1_455 S
C1464 C1466 1.363 . S
C1464 H1480 0.931 . S
C1465 C1464 1.370 1_655 S
C1465 C1469 1.408 . S
C1466 C1464 1.363 . S
C1466 C1467 1.370 1_455 S
C1466 C1470 1.524 . S
C1467 C1459 1.503 . S
C1467 C1466 1.370 1_655 S
C1467 C1468 1.403 . S
C1468 C1467 1.403 . S
C1468 C1469 1.404 . S
C1468 C1471 1.539 . S
C1469 C1465 1.408 . S
C1469 C1468 1.404 . S
C1469 H1481 0.930 . S
C1470 C1466 1.524 . S
C1470 H1482 0.956 . S
C1470 H1483 0.961 . S
C1470 H1484 0.961 . S
C1471 C1468 1.539 . S
C1471 H1485 0.958 . S
C1471 H1486 0.961 . S
C1471 H1487 0.960 . S
H1472 C1456 0.931 . S
H1473 C1461 0.910 1_655 S
H1474 C1462 0.960 1_655 S
H1475 C1462 0.962 . S
H1476 C1462 0.960 . S
H1477 C1463 0.961 . S
H1478 C1463 0.961 . S
H1479 C1463 0.961 . S
H1480 C1464 0.931 . S
H1481 C1469 0.930 . S
H1482 C1470 0.956 . S
H1483 C1470 0.961 . S
H1484 C1470 0.961 . S
H1485 C1471 0.958 . S
H1486 C1471 0.961 . S
H1487 C1471 0.960 . S
C1488 C1489 1.391 . S
C1488 C1490 1.394 . S
C1488 H1504 0.931 . S
C1489 C1488 1.391 . S
C1489 C1493 1.376 . S
C1490 C1488 1.394 . S
C1490 C1491 1.369 . S
C1490 C1494 1.531 . S
C1491 C1490 1.369 . S
C1491 C1492 1.410 . S
C1491 C1499 1.503 . S
C1492 C1491 1.410 . S
C1492 C1493 1.392 . S
C1492 C1495 1.511 . S
C1493 C1489 1.376 . S
C1493 C1492 1.392 . S
C1493 H1505 0.929 . S
C1494 C1490 1.531 . S
C1494 H1506 0.960 . S
C1494 H1507 0.962 . S
C1494 H1508 0.960 . S
C1495 C1492 1.511 . S
C1495 H1509 0.961 . S
C1495 H1510 0.961 . S
C1495 H1511 0.961 . S
C1496 C1497 1.370 . S
C1496 C1498 1.363 . S
C1496 H1512 0.931 . S
C1497 C1496 1.370 . S
C1497 C1501 1.408 . S
C1498 C1496 1.363 . S
C1498 C1499 1.370 . S
C1498 C1502 1.524 . S
C1499 C1491 1.503 . S
C1499 C1498 1.370 . S
C1499 C1500 1.403 . S
C1500 C1499 1.403 . S
C1500 C1501 1.404 . S
C1500 C1503 1.539 . S
C1501 C1497 1.408 . S
C1501 C1500 1.404 . S
C1501 H1513 0.930 . S
C1502 C1498 1.524 . S
C1502 H1514 0.956 1_545 S
C1502 H1515 0.961 . S
C1502 H1516 0.961 1_545 S
C1503 C1500 1.539 . S
C1503 H1517 0.958 . S
C1503 H1518 0.961 . S
C1503 H1519 0.960 . S
H1504 C1488 0.931 . S
H1505 C1493 0.929 . S
H1506 C1494 0.960 . S
H1507 C1494 0.962 . S
H1508 C1494 0.960 . S
H1509 C1495 0.961 . S
H1510 C1495 0.961 . S
H1511 C1495 0.961 . S
H1512 C1496 0.931 . S
H1513 C1501 0.930 . S
H1514 C1502 0.956 1_565 S
H1515 C1502 0.961 . S
H1516 C1502 0.961 1_565 S
H1517 C1503 0.958 . S
H1518 C1503 0.961 . S
H1519 C1503 0.960 . S
C1520 C1521 1.391 . S
C1520 C1522 1.394 . S
C1520 H1536 0.931 . S
C1521 C1520 1.391 . S
C1521 C1525 1.376 . S
C1522 C1520 1.394 . S
C1522 C1523 1.369 . S
C1522 C1526 1.531 . S
C1523 C1522 1.369 . S
C1523 C1524 1.410 . S
C1523 C1531 1.503 . S
C1524 C1523 1.410 . S
C1524 C1525 1.392 . S
C1524 C1527 1.511 . S
C1525 C1521 1.376 . S
C1525 C1524 1.392 . S
C1525 H1537 0.929 . S
C1526 C1522 1.531 . S
C1526 H1538 0.960 . S
C1526 H1539 0.962 . S
C1526 H1540 0.960 . S
C1527 C1524 1.511 . S
C1527 H1541 0.961 . S
C1527 H1542 0.961 . S
C1527 H1543 0.961 . S
C1528 C1529 1.370 . S
C1528 C1530 1.363 . S
C1528 H1544 0.931 . S
C1529 C1528 1.370 . S
C1529 C1533 1.408 . S
C1530 C1528 1.363 . S
C1530 C1531 1.370 . S
C1530 C1534 1.524 . S
C1531 C1523 1.503 . S
C1531 C1530 1.370 . S
C1531 C1532 1.403 . S
C1532 C1531 1.403 . S
C1532 C1533 1.404 . S
C1532 C1535 1.539 . S
C1533 C1529 1.408 . S
C1533 C1532 1.404 . S
C1533 H1545 0.930 . S
C1534 C1530 1.524 . S
C1534 H1546 0.956 . S
C1534 H1547 0.961 . S
C1534 H1548 0.961 . S
C1535 C1532 1.539 . S
C1535 H1549 0.958 . S
C1535 H1550 0.961 . S
C1535 H1551 0.960 . S
H1536 C1520 0.931 . S
H1537 C1525 0.929 . S
H1538 C1526 0.960 . S
H1539 C1526 0.962 . S
H1540 C1526 0.960 . S
H1541 C1527 0.961 . S
H1542 C1527 0.961 . S
H1543 C1527 0.961 . S
H1544 C1528 0.931 . S
H1545 C1533 0.930 . S
H1546 C1534 0.956 . S
H1547 C1534 0.961 . S
H1548 C1534 0.961 . S
H1549 C1535 0.958 . S
H1550 C1535 0.961 . S
H1551 C1535 0.960 . S
C1552 C1553 1.391 . S
C1552 C1554 1.394 . S
C1552 H1568 0.931 . S
C1553 C1552 1.391 . S
C1553 C1557 1.376 . S
C1554 C1552 1.394 . S
C1554 C1555 1.369 . S
C1554 C1558 1.531 . S
C1555 C1554 1.369 . S
C1555 C1556 1.410 . S
C1555 C1563 1.503 . S
C1556 C1555 1.410 . S
C1556 C1557 1.392 . S
C1556 C1559 1.511 . S
C1557 C1553 1.376 . S
C1557 C1556 1.392 . S
C1557 H1569 0.929 . S
C1558 C1554 1.531 . S
C1558 H1570 0.960 . S
C1558 H1571 0.962 . S
C1558 H1572 0.960 . S
C1559 C1556 1.511 . S
C1559 H1573 0.961 1_655 S
C1559 H1574 0.961 . S
C1559 H1575 0.961 1_655 S
C1560 C1561 1.370 . S
C1560 C1562 1.363 . S
C1560 H1576 0.931 . S
C1561 C1560 1.370 . S
C1561 C1565 1.408 . S
C1562 C1560 1.363 . S
C1562 C1563 1.370 . S
C1562 C1566 1.524 . S
C1563 C1555 1.503 . S
C1563 C1562 1.370 . S
C1563 C1564 1.403 . S
C1564 C1563 1.403 . S
C1564 C1565 1.404 . S
C1564 C1567 1.539 . S
C1565 C1561 1.408 . S
C1565 C1564 1.404 . S
C1565 H1577 0.930 . S
C1566 C1562 1.524 . S
C1566 H1578 0.956 . S
C1566 H1579 0.961 . S
C1566 H1580 0.961 . S
C1567 C1564 1.539 . S
C1567 H1581 0.958 . S
C1567 H1582 0.961 1_655 S
C1567 H1583 0.960 . S
H1568 C1552 0.931 . S
H1569 C1557 0.929 . S
H1570 C1558 0.960 . S
H1571 C1558 0.962 . S
H1572 C1558 0.960 . S
H1573 C1559 0.961 1_455 S
H1574 C1559 0.961 . S
H1575 C1559 0.961 1_455 S
H1576 C1560 0.931 . S
H1577 C1565 0.930 . S
H1578 C1566 0.956 . S
H1579 C1566 0.961 . S
H1580 C1566 0.961 . S
H1581 C1567 0.958 . S
H1582 C1567 0.961 1_455 S
H1583 C1567 0.960 . S
C1584 C1585 1.391 . S
C1584 C1586 1.394 . S
C1584 H1600 0.931 . S
C1585 C1584 1.391 . S
C1585 C1589 1.376 . S
C1586 C1584 1.394 . S
C1586 C1587 1.369 . S
C1586 C1590 1.531 . S
C1587 C1586 1.369 . S
C1587 C1588 1.410 . S
C1587 C1595 1.503 . S
C1588 C1587 1.410 . S
C1588 C1589 1.392 . S
C1588 C1591 1.511 . S
C1589 C1585 1.376 . S
C1589 C1588 1.392 . S
C1589 H1601 0.929 . S
C1590 C1586 1.531 . S
C1590 H1602 0.960 . S
C1590 H1603 0.962 1_565 S
C1590 H1604 0.960 . S
C1591 C1588 1.511 . S
C1591 H1605 0.961 . S
C1591 H1606 0.961 . S
C1591 H1607 0.961 . S
C1592 C1593 1.370 . S
C1592 C1594 1.363 . S
C1592 H1608 0.931 . S
C1593 C1592 1.370 . S
C1593 C1597 1.408 . S
C1594 C1592 1.363 . S
C1594 C1595 1.370 . S
C1594 C1598 1.524 . S
C1595 C1587 1.503 . S
C1595 C1594 1.370 . S
C1595 C1596 1.403 . S
C1596 C1595 1.403 . S
C1596 C1597 1.404 . S
C1596 C1599 1.539 . S
C1597 C1593 1.408 . S
C1597 C1596 1.404 . S
C1597 H1609 0.930 . S
C1598 C1594 1.524 . S
C1598 H1610 0.956 . S
C1598 H1611 0.961 . S
C1598 H1612 0.961 . S
C1599 C1596 1.539 . S
C1599 H1613 0.958 . S
C1599 H1614 0.961 . S
C1599 H1615 0.960 . S
H1600 C1584 0.931 . S
H1601 C1589 0.929 . S
H1602 C1590 0.960 . S
H1603 C1590 0.962 1_545 S
H1604 C1590 0.960 . S
H1605 C1591 0.961 . S
H1606 C1591 0.961 . S
H1607 C1591 0.961 . S
H1608 C1592 0.931 . S
H1609 C1597 0.930 . S
H1610 C1598 0.956 . S
H1611 C1598 0.961 . S
H1612 C1598 0.961 . S
H1613 C1599 0.958 . S
H1614 C1599 0.961 . S
H1615 C1599 0.960 . S
C1616 C1617 1.391 . S
C1616 C1618 1.394 . S
C1616 H1632 0.931 . S
C1617 C1616 1.391 . S
C1617 C1621 1.376 . S
C1618 C1616 1.394 . S
C1618 C1619 1.369 . S
C1618 C1622 1.531 . S
C1619 C1618 1.369 . S
C1619 C1620 1.410 . S
C1619 C1627 1.503 . S
C1620 C1619 1.410 . S
C1620 C1621 1.392 . S
C1620 C1623 1.511 . S
C1621 C1617 1.376 . S
C1621 C1620 1.392 . S
C1621 H1633 0.929 . S
C1622 C1618 1.531 . S
C1622 H1634 0.960 . S
C1622 H1635 0.962 . S
C1622 H1636 0.960 . S
C1623 C1620 1.511 . S
C1623 H1637 0.961 . S
C1623 H1638 0.961 . S
C1623 H1639 0.961 . S
C1624 C1625 1.370 . S
C1624 C1626 1.363 . S
C1624 H1640 0.931 . S
C1625 C1624 1.370 . S
C1625 C1629 1.408 . S
C1626 C1624 1.363 . S
C1626 C1627 1.370 . S
C1626 C1630 1.524 . S
C1627 C1619 1.503 . S
C1627 C1626 1.370 . S
C1627 C1628 1.403 . S
C1628 C1627 1.403 . S
C1628 C1629 1.404 . S
C1628 C1631 1.539 . S
C1629 C1625 1.408 . S
C1629 C1628 1.404 . S
C1629 H1641 0.930 . S
C1630 C1626 1.524 . S
C1630 H1642 0.956 . S
C1630 H1643 0.961 . S
C1630 H1644 0.961 . S
C1631 C1628 1.539 . S
C1631 H1645 0.958 . S
C1631 H1646 0.961 . S
C1631 H1647 0.960 . S
H1632 C1616 0.931 . S
H1633 C1621 0.929 . S
H1634 C1622 0.960 . S
H1635 C1622 0.962 . S
H1636 C1622 0.960 . S
H1637 C1623 0.961 . S
H1638 C1623 0.961 . S
H1639 C1623 0.961 . S
H1640 C1624 0.931 . S
H1641 C1629 0.930 . S
H1642 C1630 0.956 . S
H1643 C1630 0.961 . S
H1644 C1630 0.961 . S
H1645 C1631 0.958 . S
H1646 C1631 0.961 . S
H1647 C1631 0.960 . S
C1648 C1649 1.391 . S
C1648 C1650 1.394 . S
C1648 H1664 0.931 . S
C1649 C1648 1.391 . S
C1649 C1653 1.376 . S
C1650 C1648 1.394 . S
C1650 C1651 1.369 . S
C1650 C1654 1.531 . S
C1651 C1650 1.369 . S
C1651 C1652 1.410 . S
C1651 C1659 1.503 . S
C1652 C1651 1.410 . S
C1652 C1653 1.392 . S
C1652 C1655 1.511 . S
C1653 C1649 1.376 . S
C1653 C1652 1.392 . S
C1653 H1665 0.929 . S
C1654 C1650 1.531 . S
C1654 H1666 0.960 . S
C1654 H1667 0.962 . S
C1654 H1668 0.960 . S
C1655 C1652 1.511 . S
C1655 H1669 0.961 1_455 S
C1655 H1670 0.960 . S
C1655 H1671 0.961 . S
C1656 C1657 1.370 . S
C1656 C1658 1.363 . S
C1656 H1672 0.931 . S
C1657 C1656 1.370 . S
C1657 C1661 1.408 . S
C1658 C1656 1.363 . S
C1658 C1659 1.370 . S
C1658 C1662 1.524 . S
C1659 C1651 1.503 . S
C1659 C1658 1.370 . S
C1659 C1660 1.403 . S
C1660 C1659 1.403 . S
C1660 C1661 1.404 . S
C1660 C1663 1.539 . S
C1661 C1657 1.408 . S
C1661 C1660 1.404 . S
C1661 H1673 0.930 . S
C1662 C1658 1.524 . S
C1662 H1674 0.956 . S
C1662 H1675 0.961 . S
C1662 H1676 0.961 . S
C1663 C1660 1.539 . S
C1663 H1677 0.958 . S
C1663 H1678 0.961 . S
C1663 H1679 0.960 . S
H1664 C1648 0.931 . S
H1665 C1653 0.929 . S
H1666 C1654 0.960 . S
H1667 C1654 0.962 . S
H1668 C1654 0.960 . S
H1669 C1655 0.961 1_655 S
H1670 C1655 0.960 . S
H1671 C1655 0.961 . S
H1672 C1656 0.931 . S
H1673 C1661 0.930 . S
H1674 C1662 0.956 . S
H1675 C1662 0.961 . S
H1676 C1662 0.961 . S
H1677 C1663 0.958 . S
H1678 C1663 0.961 . S
H1679 C1663 0.960 . S
C1680 C1681 1.391 . S
C1680 C1682 1.394 . S
C1680 H1696 0.931 . S
C1681 C1680 1.391 . S
C1681 C1685 1.376 . S
C1682 C1680 1.394 . S
C1682 C1683 1.369 . S
C1682 C1686 1.531 . S
C1683 C1682 1.369 . S
C1683 C1684 1.410 . S
C1683 C1691 1.503 . S
C1684 C1683 1.410 . S
C1684 C1685 1.392 . S
C1684 C1687 1.511 1_655 S
C1685 C1681 1.376 . S
C1685 C1684 1.392 . S
C1685 H1697 0.929 . S
C1686 C1682 1.531 . S
C1686 H1698 0.960 . S
C1686 H1699 0.962 . S
C1686 H1700 0.960 . S
C1687 C1684 1.511 1_455 S
C1687 H1701 0.961 . S
C1687 H1702 0.961 . S
C1687 H1703 0.961 . S
C1688 C1689 1.370 . S
C1688 C1690 1.363 . S
C1688 H1704 0.931 . S
C1689 C1688 1.370 . S
C1689 C1693 1.408 . S
C1690 C1688 1.363 . S
C1690 C1691 1.370 . S
C1690 C1694 1.524 . S
C1691 C1683 1.503 . S
C1691 C1690 1.370 . S
C1691 C1692 1.403 . S
C1692 C1691 1.403 . S
C1692 C1693 1.404 . S
C1692 C1695 1.539 . S
C1693 C1689 1.408 . S
C1693 C1692 1.404 . S
C1693 H1705 0.930 . S
C1694 C1690 1.524 . S
C1694 H1706 0.956 . S
C1694 H1707 0.961 . S
C1694 H1708 0.961 . S
C1695 C1692 1.539 . S
C1695 H1709 0.958 . S
C1695 H1710 0.961 . S
C1695 H1711 0.960 . S
H1696 C1680 0.931 . S
H1697 C1685 0.929 . S
H1698 C1686 0.960 . S
H1699 C1686 0.962 . S
H1700 C1686 0.960 . S
H1701 C1687 0.961 . S
H1702 C1687 0.961 . S
H1703 C1687 0.961 . S
H1704 C1688 0.931 . S
H1705 C1693 0.930 . S
H1706 C1694 0.956 . S
H1707 C1694 0.961 . S
H1708 C1694 0.961 . S
H1709 C1695 0.958 . S
H1710 C1695 0.961 . S
H1711 C1695 0.960 . S
C1712 C1713 1.391 . S
C1712 C1714 1.394 . S
C1712 H1728 0.931 . S
C1713 C1712 1.391 . S
C1713 C1717 1.376 . S
C1714 C1712 1.394 . S
C1714 C1715 1.369 . S
C1714 C1718 1.531 . S
C1715 C1714 1.369 . S
C1715 C1716 1.410 . S
C1715 C1723 1.503 . S
C1716 C1715 1.410 . S
C1716 C1717 1.392 . S
C1716 C1719 1.511 . S
C1717 C1713 1.376 . S
C1717 C1716 1.392 . S
C1717 H1729 0.929 . S
C1718 C1714 1.531 . S
C1718 H1730 0.960 . S
C1718 H1731 0.962 . S
C1718 H1732 0.960 . S
C1719 C1716 1.511 . S
C1719 H1733 0.961 . S
C1719 H1734 0.961 . S
C1719 H1735 0.961 . S
C1720 C1721 1.370 . S
C1720 C1722 1.363 . S
C1720 H1736 0.931 . S
C1721 C1720 1.370 . S
C1721 C1725 1.408 . S
C1722 C1720 1.363 . S
C1722 C1723 1.370 . S
C1722 C1726 1.524 . S
C1723 C1715 1.503 . S
C1723 C1722 1.370 . S
C1723 C1724 1.403 . S
C1724 C1723 1.403 . S
C1724 C1725 1.404 . S
C1724 C1727 1.539 . S
C1725 C1721 1.408 . S
C1725 C1724 1.404 . S
C1725 H1737 0.930 . S
C1726 C1722 1.524 . S
C1726 H1738 0.956 . S
C1726 H1739 0.961 . S
C1726 H1740 0.961 . S
C1727 C1724 1.539 . S
C1727 H1741 0.958 . S
C1727 H1742 0.961 . S
C1727 H1743 0.960 . S
H1728 C1712 0.931 . S
H1729 C1717 0.929 . S
H1730 C1718 0.960 . S
H1731 C1718 0.962 . S
H1732 C1718 0.960 . S
H1733 C1719 0.961 . S
H1734 C1719 0.961 . S
H1735 C1719 0.961 . S
H1736 C1720 0.931 . S
H1737 C1725 0.930 . S
H1738 C1726 0.956 . S
H1739 C1726 0.961 . S
H1740 C1726 0.961 . S
H1741 C1727 0.958 . S
H1742 C1727 0.961 . S
H1743 C1727 0.960 . S
C1744 C1745 1.391 . S
C1744 C1746 1.394 . S
C1744 H1760 0.931 . S
C1745 C1744 1.391 . S
C1745 C1749 1.376 . S
C1746 C1744 1.394 . S
C1746 C1747 1.369 . S
C1746 C1750 1.531 . S
C1747 C1746 1.369 . S
C1747 C1748 1.410 . S
C1747 C1755 1.503 . S
C1748 C1747 1.410 . S
C1748 C1749 1.392 . S
C1748 C1751 1.511 . S
C1749 C1745 1.376 . S
C1749 C1748 1.392 . S
C1749 H1761 0.929 . S
C1750 C1746 1.531 . S
C1750 H1762 0.960 . S
C1750 H1763 0.962 . S
C1750 H1764 0.960 . S
C1751 C1748 1.511 . S
C1751 H1765 0.961 . S
C1751 H1766 0.961 . S
C1751 H1767 0.961 . S
C1752 C1753 1.370 . S
C1752 C1754 1.363 . S
C1752 H1768 0.931 . S
C1753 C1752 1.370 . S
C1753 C1757 1.408 . S
C1754 C1752 1.363 . S
C1754 C1755 1.370 . S
C1754 C1758 1.524 . S
C1755 C1747 1.503 . S
C1755 C1754 1.370 . S
C1755 C1756 1.403 . S
C1756 C1755 1.403 . S
C1756 C1757 1.404 . S
C1756 C1759 1.539 . S
C1757 C1753 1.408 . S
C1757 C1756 1.404 . S
C1757 H1769 0.930 . S
C1758 C1754 1.524 . S
C1758 H1770 0.956 . S
C1758 H1771 0.961 . S
C1758 H1772 0.961 . S
C1759 C1756 1.539 . S
C1759 H1773 0.958 . S
C1759 H1774 0.961 . S
C1759 H1775 0.960 . S
H1760 C1744 0.931 . S
H1761 C1749 0.929 . S
H1762 C1750 0.960 . S
H1763 C1750 0.962 . S
H1764 C1750 0.960 . S
H1765 C1751 0.961 . S
H1766 C1751 0.961 . S
H1767 C1751 0.961 . S
H1768 C1752 0.931 . S
H1769 C1757 0.930 . S
H1770 C1758 0.956 . S
H1771 C1758 0.961 . S
H1772 C1758 0.961 . S
H1773 C1759 0.958 . S
H1774 C1759 0.961 . S
H1775 C1759 0.960 . S
C1776 C1777 1.391 . S
C1776 C1778 1.394 . S
C1776 H1792 0.931 . S
C1777 C1776 1.391 . S
C1777 C1781 1.376 . S
C1778 C1776 1.394 . S
C1778 C1779 1.369 . S
C1778 C1782 1.531 . S
C1779 C1778 1.369 . S
C1779 C1780 1.410 . S
C1779 C1787 1.503 . S
C1780 C1779 1.410 . S
C1780 C1781 1.392 . S
C1780 C1783 1.511 . S
C1781 C1777 1.376 . S
C1781 C1780 1.392 . S
C1781 H1793 0.929 . S
C1782 C1778 1.531 . S
C1782 H1794 0.960 1_455 S
C1782 H1795 0.962 . S
C1782 H1796 0.960 1_455 S
C1783 C1780 1.511 . S
C1783 H1797 0.961 . S
C1783 H1798 0.961 . S
C1783 H1799 0.961 . S
C1784 C1785 1.370 . S
C1784 C1786 1.363 . S
C1784 H1800 0.931 . S
C1785 C1784 1.370 . S
C1785 C1789 1.408 . S
C1786 C1784 1.363 . S
C1786 C1787 1.370 . S
C1786 C1790 1.524 . S
C1787 C1779 1.503 . S
C1787 C1786 1.370 . S
C1787 C1788 1.403 . S
C1788 C1787 1.403 . S
C1788 C1789 1.404 . S
C1788 C1791 1.539 . S
C1789 C1785 1.408 . S
C1789 C1788 1.404 . S
C1789 H1801 0.930 . S
C1790 C1786 1.524 . S
C1790 H1802 0.956 . S
C1790 H1803 0.961 . S
C1790 H1804 0.961 . S
C1791 C1788 1.539 . S
C1791 H1805 0.958 1_455 S
C1791 H1806 0.961 . S
C1791 H1807 0.960 . S
H1792 C1776 0.931 . S
H1793 C1781 0.929 . S
H1794 C1782 0.960 1_655 S
H1795 C1782 0.962 . S
H1796 C1782 0.960 1_655 S
H1797 C1783 0.961 . S
H1798 C1783 0.961 . S
H1799 C1783 0.961 . S
H1800 C1784 0.931 . S
H1801 C1789 0.930 . S
H1802 C1790 0.956 . S
H1803 C1790 0.961 . S
H1804 C1790 0.961 . S
H1805 C1791 0.958 1_655 S
H1806 C1791 0.961 . S
H1807 C1791 0.960 . S
C1808 C1809 1.391 . S
C1808 C1810 1.394 . S
C1808 H1824 0.931 . S
C1809 C1808 1.391 . S
C1809 C1813 1.376 . S
C1810 C1808 1.394 . S
C1810 C1811 1.369 . S
C1810 C1814 1.531 . S
C1811 C1810 1.369 . S
C1811 C1812 1.410 . S
C1811 C1819 1.503 . S
C1812 C1811 1.410 . S
C1812 C1813 1.392 . S
C1812 C1815 1.511 . S
C1813 C1809 1.376 . S
C1813 C1812 1.392 . S
C1813 H1825 0.929 . S
C1814 C1810 1.531 . S
C1814 H1826 0.960 1_545 S
C1814 H1827 0.962 . S
C1814 H1828 0.960 1_545 S
C1815 C1812 1.511 . S
C1815 H1829 0.961 . S
C1815 H1830 0.961 . S
C1815 H1831 0.961 . S
C1816 C1817 1.370 . S
C1816 C1818 1.363 . S
C1816 H1832 0.931 . S
C1817 C1816 1.370 . S
C1817 C1821 1.408 . S
C1818 C1816 1.363 . S
C1818 C1819 1.370 . S
C1818 C1822 1.524 . S
C1819 C1811 1.503 . S
C1819 C1818 1.370 . S
C1819 C1820 1.403 . S
C1820 C1819 1.403 . S
C1820 C1821 1.404 . S
C1820 C1823 1.539 . S
C1821 C1817 1.408 . S
C1821 C1820 1.404 . S
C1821 H1833 0.930 . S
C1822 C1818 1.524 . S
C1822 H1834 0.956 . S
C1822 H1835 0.961 . S
C1822 H1836 0.961 . S
C1823 C1820 1.539 . S
C1823 H1837 0.958 1_545 S
C1823 H1838 0.961 . S
C1823 H1839 0.960 . S
H1824 C1808 0.931 . S
H1825 C1813 0.929 . S
H1826 C1814 0.960 1_565 S
H1827 C1814 0.962 . S
H1828 C1814 0.960 1_565 S
H1829 C1815 0.961 . S
H1830 C1815 0.961 . S
H1831 C1815 0.961 . S
H1832 C1816 0.931 . S
H1833 C1821 0.930 . S
H1834 C1822 0.956 . S
H1835 C1822 0.961 . S
H1836 C1822 0.961 . S
H1837 C1823 0.958 1_565 S
H1838 C1823 0.961 . S
H1839 C1823 0.960 . S
C1840 C1841 1.391 . S
C1840 C1842 1.394 . S
C1840 H1856 0.931 . S
C1841 C1840 1.391 . S
C1841 C1845 1.376 . S
C1842 C1840 1.394 . S
C1842 C1843 1.369 . S
C1842 C1846 1.531 . S
C1843 C1842 1.369 . S
C1843 C1844 1.410 . S
C1843 C1851 1.503 . S
C1844 C1843 1.410 . S
C1844 C1845 1.392 . S
C1844 C1847 1.511 . S
C1845 C1841 1.376 . S
C1845 C1844 1.392 . S
C1845 H1857 0.929 . S
C1846 C1842 1.531 . S
C1846 H1858 0.960 . S
C1846 H1859 0.962 . S
C1846 H1860 0.960 . S
C1847 C1844 1.511 . S
C1847 H1861 0.961 . S
C1847 H1862 0.961 . S
C1847 H1863 0.961 . S
C1848 C1849 1.370 . S
C1848 C1850 1.363 . S
C1848 H1864 0.931 . S
C1849 C1848 1.370 . S
C1849 C1853 1.408 . S
C1850 C1848 1.363 . S
C1850 C1851 1.370 . S
C1850 C1854 1.524 . S
C1851 C1843 1.503 . S
C1851 C1850 1.370 . S
C1851 C1852 1.403 . S
C1852 C1851 1.403 . S
C1852 C1853 1.404 . S
C1852 C1855 1.539 . S
C1853 C1849 1.408 . S
C1853 C1852 1.404 . S
C1853 H1865 0.930 . S
C1854 C1850 1.524 . S
C1854 H1866 0.956 . S
C1854 H1867 0.961 . S
C1854 H1868 0.961 . S
C1855 C1852 1.539 . S
C1855 H1869 0.958 . S
C1855 H1870 0.961 . S
C1855 H1871 0.960 . S
H1856 C1840 0.931 . S
H1857 C1845 0.929 . S
H1858 C1846 0.960 . S
H1859 C1846 0.962 . S
H1860 C1846 0.960 . S
H1861 C1847 0.961 . S
H1862 C1847 0.961 . S
H1863 C1847 0.961 . S
H1864 C1848 0.931 . S
H1865 C1853 0.930 . S
H1866 C1854 0.956 . S
H1867 C1854 0.961 . S
H1868 C1854 0.961 . S
H1869 C1855 0.958 . S
H1870 C1855 0.961 . S
H1871 C1855 0.960 . S
C337 C219 1.224 . S
C345 C9 1.245 . S
C369 C23 1.289 . S
C377 C233 1.271 . S
C401 C37 1.262 . S
C409 C247 1.262 . S
C433 C51 1.274 . S
C441 C177 1.262 . S
C465 C191 1.265 . S
C473 C65 1.258 . S
C497 C79 1.226 . S
C505 C205 1.243 . S
C529 C303 1.224 . S
C537 C93 1.245 . S
C561 C107 1.268 . S
C569 C317 1.260 . S
C593 C121 1.285 . S
C601 C331 1.270 . S
C625 C261 1.247 . S
C633 C135 1.256 . S
C657 C149 1.263 . S
C665 C275 1.257 . S
C689 C289 1.223 . S
C697 C163 1.242 . S
C721 C3 1.586 . S
C729 C325 1.591 . S
C753 C255 1.590 . S
C761 C17 1.592 . S
C785 C31 1.585 . S
C793 C269 1.590 . S
C817 C283 1.589 . S
C825 C45 1.592 . S
C849 C59 1.585 . S
C857 C297 1.590 . S
C881 C311 1.589 . S
C889 C73 1.592 . S
C913 C87 1.588 . S
C921 C185 1.592 . S
C945 C199 1.589 . S
C953 C101 1.592 . S
C977 C213 1.585 . S
C985 C115 1.590 . S
C1009 C227 1.590 . S
C1017 C129 1.592 . S
C1041 C143 1.585 . S
C1049 C241 1.591 . S
C1073 C157 1.589 . S
C1081 C171 1.592 . S
C1105 C106 1.298 . S
C1113 C8 1.276 . S
C1137 C120 1.276 . S
C1145 C22 1.274 . S
C1169 C134 1.268 . S
C1177 C36 1.277 . S
C1201 C148 1.298 . S
C1209 C50 1.278 . S
C1233 C64 1.271 . S
C1241 C162 1.289 . S
C1265 C78 1.290 . S
C1273 C92 1.272 . S
C1297 C176 1.281 . S
C1305 C274 1.285 . S
C1329 C190 1.298 . S
C1337 C288 1.273 . S
C1361 C302 1.297 . S
C1369 C204 1.276 . S
C1393 C316 1.266 . S
C1401 C218 1.289 . S
C1425 C330 1.266 . S
C1433 C232 1.280 . S
C1457 C260 1.298 . S
C1465 C246 1.273 . S
C1489 C7 1.560 . S
C1497 C273 1.568 . S
C1521 C287 1.546 . S
C1529 C21 1.564 . S
C1553 C35 1.569 . S
C1561 C301 1.575 . S
C1585 C315 1.546 . S
C1593 C49 1.564 . S
C1617 C63 1.583 . S
C1625 C329 1.578 . S
C1649 C259 1.581 . S
C1657 C77 1.580 . S
C1681 C91 1.555 . S
C1689 C245 1.569 . S
C1713 C175 1.546 . S
C1721 C105 1.564 . S
C1745 C119 1.557 . S
C1753 C189 1.570 . S
C1777 C133 1.593 . S
C1785 C203 1.583 . S
C1809 C147 1.593 . S
C1817 C217 1.583 . S
C1841 C161 1.562 . S
C1849 C231 1.572 . S
