# Generated by pormake.
# Topology sxb, (6)-cn, num edge types: 1
# Building blocks:
#     Node 0, Type 0, BuildingBlock: MIDCAF_clean_sbu_0, # of connection points: 6
#     Node 1, Type 0, BuildingBlock: MIDCAF_clean_sbu_0, # of connection points: 6
#     Node 2, Type 0, BuildingBlock: MIDCAF_clean_sbu_0, # of connection points: 6
#     Node 3, Type 0, BuildingBlock: MIDCAF_clean_sbu_0, # of connection points: 6
#     Edge 4, Type (0, 0), BuildingBlock: CIFDUS_clean_linker_0, # of connection points: 2
#     Edge 5, Type (0, 0), BuildingBlock: CIFDUS_clean_linker_0, # of connection points: 2
#     Edge 6, Type (0, 0), BuildingBlock: CIFDUS_clean_linker_0, # of connection points: 2
#     Edge 7, Type (0, 0), BuildingBlock: CIFDUS_clean_linker_0, # of connection points: 2
#     Edge 8, Type (0, 0), BuildingBlock: CIFDUS_clean_linker_0, # of connection points: 2
#     Edge 9, Type (0, 0), BuildingBlock: CIFDUS_clean_linker_0, # of connection points: 2
#     Edge 10, Type (0, 0), BuildingBlock: CIFDUS_clean_linker_0, # of connection points: 2
#     Edge 11, Type (0, 0), BuildingBlock: CIFDUS_clean_linker_0, # of connection points: 2
#     Edge 12, Type (0, 0), BuildingBlock: CIFDUS_clean_linker_0, # of connection points: 2
#     Edge 13, Type (0, 0), BuildingBlock: CIFDUS_clean_linker_0, # of connection points: 2
#     Edge 14, Type (0, 0), BuildingBlock: CIFDUS_clean_linker_0, # of connection points: 2
#     Edge 15, Type (0, 0), BuildingBlock: CIFDUS_clean_linker_0, # of connection points: 2
# Relax obj value: 0.308
# Max RMSD: 0.251
# Mean RMSD: 0.251
data_MOF--net-sxb--node1-MIDCAF_clean_sbu_0--edge1-CIFDUS_clean_linker_0
_symmetry_space_group_name_H-M    P1
_symmetry_Int_Tables_number       1
_symmetry_cell_setting            triclinic
loop_
_symmetry_equiv_pos_as_xyz
'x, y, z'
_cell_length_a     12.739074
_cell_length_b     23.951552
_cell_length_c     26.925567
_cell_angle_alpha  93.636021
_cell_angle_beta   90.356706
_cell_angle_gamma 88.837794
loop_
_atom_site_label
_atom_site_type_symbol
_atom_site_fract_x
_atom_site_fract_y
_atom_site_fract_z
_atom_type_partial_charge
Zn0 Zn 0.08879 0.27845 0.056 0.0
Zn1 Zn 0.86247 0.05986 0.95099 0.0
Zn2 Zn -0.0089 0.20631 0.01139 0.0
C3 C -0.03086 0.06432 0.03334 0.0
C4 C 0.02029 0.15128 0.90519 0.0
O5 O 0.89681 0.28331 0.01395 0.0
O6 O -0.02202 0.33574 0.07161 0.0
C7 C 0.07467 0.19052 0.11754 0.0
O8 O -0.00831 0.11539 0.02601 0.0
O9 O 0.87525 0.04972 0.02553 0.0
O10 O 0.95999 0.1164 0.92278 0.0
O11 O 0.05207 0.1922 0.93413 0.0
O12 O 0.13644 0.22879 0.10777 0.0
O13 O 0.00978 0.1726 0.0842 0.0
O14 O 0.13115 0.21433 0.97109 0.0
O15 O 0.19027 0.29404 0.00459 0.0
C16 C 0.2012 0.25211 0.97414 0.0
O17 O 0.85316 0.16148 0.01503 0.0
O18 O 0.7992 0.1351 0.93992 0.0
C19 C 0.90258 0.32873 0.0415 0.0
C20 C 0.7871 0.16514 0.98 0.0
Zn21 Zn 0.12168 0.99103 0.43566 0.0
Zn22 Zn 0.86184 0.20925 0.56692 0.0
Zn23 Zn -0.01338 0.09702 0.50986 0.0
C24 C 0.00282 0.22416 0.48123 0.0
C25 C 0.037 0.13872 0.61627 0.0
O26 O 0.90355 0.01378 0.49381 0.0
O27 O -0.02077 0.96495 0.42986 0.0
C28 C 0.07599 0.10107 0.39563 0.0
O29 O 0.02988 0.17203 0.47421 0.0
O30 O 0.93569 0.24191 0.51319 0.0
O31 O 0.96244 0.17352 0.61128 0.0
O32 O 0.06803 0.10541 0.58009 0.0
O33 O 0.14084 0.06023 0.39791 0.0
O34 O 0.02054 0.11975 0.43338 0.0
O35 O 0.08265 0.02714 0.51648 0.0
O36 O 0.20177 0.96508 0.49715 0.0
C37 C 0.17724 0.00994 0.52171 0.0
O38 O 0.82597 0.10507 0.52127 0.0
O39 O 0.7275 0.17618 0.55357 0.0
C40 C 0.90767 0.97065 0.46211 0.0
C41 C 0.73742 0.12752 0.53296 0.0
Zn42 Zn 0.57676 0.81474 0.0889 0.0
Zn43 Zn 0.36919 0.57653 0.91825 0.0
Zn44 Zn 0.48472 0.70014 0.00274 0.0
C45 C 0.46601 0.55625 0.00231 0.0
C46 C 0.54916 0.66435 0.89639 0.0
O47 O 0.39075 0.77575 0.99578 0.0
O48 O 0.42383 0.80338 0.07342 0.0
C49 C 0.57942 0.70596 0.12352 0.0
O50 O 0.46313 0.60962 0.99843 0.0
O51 O 0.41274 0.52641 0.97148 0.0
O52 O 0.48132 0.62685 0.89772 0.0
O53 O 0.56378 0.69951 0.93329 0.0
O54 O 0.60844 0.7552 0.13646 0.0
O55 O 0.54133 0.69471 0.07979 0.0
O56 O 0.63053 0.72235 0.03244 0.0
O57 O 0.6723 0.81039 0.02951 0.0
C58 C 0.68363 0.75995 0.01277 0.0
O59 O 0.34124 0.65335 0.0081 0.0
O60 O 0.25702 0.62934 0.93805 0.0
C61 C 0.38711 0.81387 0.03133 0.0
C62 C 0.26217 0.65862 0.97874 0.0
Zn63 Zn 0.60313 0.47387 0.41921 0.0
Zn64 Zn 0.38883 0.68073 0.55194 0.0
Zn65 Zn 0.49696 0.59273 0.50317 0.0
C66 C 0.49456 0.72607 0.48255 0.0
C67 C 0.55136 0.63574 0.61163 0.0
O68 O 0.38499 0.52305 0.49208 0.0
O69 O 0.47006 0.45124 0.45017 0.0
C70 C 0.56743 0.60138 0.39277 0.0
O71 O 0.53631 0.67642 0.47774 0.0
O72 O 0.40533 0.73357 0.50179 0.0
O73 O 0.4864 0.67568 0.60738 0.0
O74 O 0.56455 0.59823 0.5763 0.0
O75 O 0.58599 0.54895 0.38863 0.0
O76 O 0.5423 0.6274 0.43458 0.0
O77 O 0.60586 0.53129 0.49124 0.0
O78 O 0.72321 0.46872 0.46805 0.0
C79 C 0.69423 0.50824 0.49863 0.0
O80 O 0.32953 0.578 0.501 0.0
O81 O 0.25909 0.64529 0.55219 0.0
C82 C 0.39259 0.47122 0.47532 0.0
C83 C 0.25011 0.60345 0.52205 0.0
H84 H 0.21965 0.84069 0.97329 0.0
H85 H 0.43992 0.91213 0.08 0.0
H86 H 0.33834 0.99998 0.08601 0.0
H87 H 0.17147 0.05211 0.06973 0.0
H88 H 0.94848 0.97513 0.9665 0.0
H89 H 0.06576 0.89592 0.95016 0.0
C90 C 0.24596 0.87568 0.99728 0.0
C91 C 0.3353 0.86932 0.02693 0.0
C92 C 0.18515 0.92545 0.00203 0.0
C93 C 0.36953 0.91554 0.05749 0.0
C94 C 0.31142 0.96587 0.06109 0.0
C95 C 0.14921 0.01815 0.04348 0.0
C96 C 0.04966 0.01955 0.02065 0.0
C97 C 0.21633 0.97063 0.0351 0.0
C98 C 0.02311 0.97529 0.98589 0.0
C99 C 0.09027 0.9294 0.97631 0.0
H100 H 0.67736 0.55533 0.99183 0.0
H101 H 0.42632 0.48252 0.0705 0.0
H102 H 0.53976 0.40302 0.08883 0.0
H103 H 0.70574 0.34993 0.07628 0.0
H104 H 0.95242 0.41813 0.99168 0.0
H105 H 0.84737 0.50383 0.9824 0.0
C106 C 0.64953 0.52345 0.01516 0.0
C107 C 0.54452 0.52578 0.03129 0.0
C108 C 0.7137 0.4761 0.02309 0.0
C109 C 0.50794 0.48276 0.05944 0.0
C110 C 0.57207 0.43661 0.06891 0.0
C111 C 0.73488 0.38307 0.05483 0.0
C112 C 0.83423 0.37731 0.03304 0.0
C113 C 0.67375 0.43189 0.04949 0.0
C114 C 0.87435 0.42149 0.00753 0.0
C115 C 0.8148 0.47056 0.00264 0.0
H116 H 0.2004 0.24058 0.50874 0.0
H117 H 0.94314 0.31047 0.42732 0.0
H118 H 0.03357 0.39968 0.42576 0.0
H119 H 0.18931 0.45712 0.44637 0.0
H120 H 0.43941 0.38796 0.53327 0.0
H121 H 0.34762 0.29973 0.5354 0.0
C122 C 0.16686 0.27464 0.48861 0.0
C123 C 0.06919 0.26814 0.46489 0.0
C124 C 0.21615 0.32653 0.49075 0.0
C125 C 0.02178 0.31377 0.44267 0.0
C126 C 0.07209 0.36507 0.44304 0.0
C127 C 0.22129 0.42333 0.46718 0.0
C128 C 0.31958 0.42901 0.49027 0.0
C129 C 0.16915 0.3721 0.4672 0.0
C130 C 0.36229 0.38461 0.51618 0.0
C131 C 0.31102 0.33384 0.51657 0.0
H132 H 0.73367 0.95328 0.5206 0.0
H133 H 0.93736 0.8704 0.41033 0.0
H134 H 0.83347 0.78781 0.40864 0.0
H135 H 0.67654 0.73951 0.43257 0.0
H136 H 0.46601 0.82243 0.53972 0.0
H137 H 0.5791 0.9024 0.5482 0.0
C138 C 0.75382 0.91785 0.49565 0.0
C139 C 0.84062 0.92036 0.46424 0.0
C140 C 0.69149 0.86968 0.49351 0.0
C141 C 0.86877 0.87178 0.43395 0.0
C142 C 0.80957 0.82369 0.43282 0.0
C143 C 0.65468 0.77563 0.45696 0.0
C144 C 0.56096 0.77576 0.48347 0.0
C145 C 0.71897 0.82264 0.46118 0.0
C146 C 0.53555 0.82205 0.51671 0.0
C147 C 0.60069 0.86803 0.52211 0.0
H148 H 0.37866 0.3076 0.99644 0.0
H149 H 0.25948 0.15983 0.91602 0.0
H150 H 0.43104 0.11451 0.92021 0.0
H151 H 0.61033 0.11516 0.95027 0.0
H152 H 0.72513 0.25752 0.038 0.0
H153 H 0.55602 0.30644 0.0296 0.0
C154 C 0.39079 0.26615 0.97843 0.0
C155 C 0.30636 0.23677 0.95662 0.0
C156 C 0.48721 0.23905 0.98368 0.0
C157 C 0.32341 0.18333 0.93307 0.0
C158 C 0.42065 0.15685 0.93643 0.0
C159 C 0.59805 0.15696 0.96757 0.0
C160 C 0.68126 0.18545 0.99089 0.0
C161 C 0.5017 0.18383 0.96284 0.0
C162 C 0.66368 0.2373 0.01656 0.0
C163 C 0.56744 0.26491 0.01186 0.0
H164 H 0.35099 0.98861 0.57141 0.0
H165 H 0.20324 0.11129 0.48257 0.0
H166 H 0.37391 0.15143 0.46655 0.0
H167 H 0.56554 0.15208 0.48054 0.0
H168 H 0.70811 0.03303 0.5749 0.0
H169 H 0.53922 0.98957 0.58563 0.0
C170 C 0.35598 0.02544 0.55008 0.0
C171 C 0.26521 0.0477 0.52873 0.0
C172 C 0.45363 0.04704 0.54048 0.0
C173 C 0.27214 0.09434 0.5 0.0
C174 C 0.36975 0.1164 0.49004 0.0
C175 C 0.55863 0.11557 0.50217 0.0
C176 C 0.64614 0.09452 0.52677 0.0
C177 C 0.46094 0.09266 0.50982 0.0
C178 C 0.64004 0.04792 0.55485 0.0
C179 C 0.5439 0.02385 0.56148 0.0
H180 H 0.78725 0.6626 0.02049 0.0
H181 H 0.80691 0.82165 0.95446 0.0
H182 H -0.0048 0.8048 0.94 0.0
H183 H 0.15649 0.7502 0.95682 0.0
H184 H 0.13614 0.59821 0.03298 0.0
H185 H 0.94482 0.60855 0.03594 0.0
C186 C 0.83236 0.69358 0.00265 0.0
C187 C 0.78498 0.74407 0.99026 0.0
C188 C 0.9407 0.68648 0.99922 0.0
C189 C 0.84315 0.78297 0.96544 0.0
C190 C 0.95063 0.77394 0.95807 0.0
C191 C 0.11006 0.72127 0.9764 0.0
C192 C 0.15934 0.67551 0.99737 0.0
C193 C 0.00089 0.72749 0.97765 0.0
C194 C 0.09921 0.63551 0.01944 0.0
C195 C -0.00975 0.64058 0.0198 0.0
H196 H 0.14558 0.51954 0.55567 0.0
H197 H 0.12115 0.66219 0.46653 0.0
H198 H 0.92934 0.65895 0.46815 0.0
H199 H 0.77122 0.60902 0.48892 0.0
H200 H 0.79807 0.46315 0.57399 0.0
H201 H -0.01352 0.47672 0.58426 0.0
C202 C 0.09745 0.54842 0.53538 0.0
C203 C 0.1446 0.58907 0.5091 0.0
C204 C -0.01142 0.54747 0.53813 0.0
C205 C 0.08398 0.62869 0.48474 0.0
C206 C -0.02482 0.62788 0.4869 0.0
C207 C 0.818 0.58211 0.51182 0.0
C208 C 0.77348 0.53467 0.53 0.0
C209 C 0.92674 0.58714 0.51334 0.0
C210 C 0.83262 0.4999 0.55983 0.0
C211 C 0.9403 0.50658 0.56428 0.0
H212 H 0.09429 0.19916 0.35096 0.0
H213 H -0.0143 0.0307 0.32694 0.0
H214 H 0.96258 0.04291 0.23784 0.0
H215 H -0.00161 0.09844 0.16426 0.0
H216 H 0.11125 0.26659 0.19206 0.0
H217 H 0.10657 0.25763 0.28043 0.0
C218 C 0.06365 0.16573 0.32627 0.0
C219 C 0.04342 0.11413 0.34495 0.0
C220 C 0.0535 0.17244 0.27494 0.0
C221 C 0.00323 0.07083 0.3128 0.0
C222 C -0.00963 0.07763 0.26183 0.0
C223 C 0.02165 0.13289 0.1898 0.0
C224 C 0.06049 0.18195 0.17114 0.0
C225 C 0.01973 0.12762 0.24192 0.0
C226 C 0.08628 0.22705 0.20496 0.0
C227 C 0.08266 0.22246 0.25593 0.0
H228 H 0.06586 0.22704 0.83486 0.0
H229 H 0.04997 0.05073 0.85731 0.0
H230 H 0.07589 0.02801 0.76894 0.0
H231 H 0.0744 0.05855 0.68304 0.0
H232 H 0.10233 0.23397 0.66047 0.0
H233 H 0.09999 0.25647 0.74973 0.0
C234 C 0.07099 0.18371 0.82055 0.0
C235 C 0.05495 0.14064 0.85275 0.0
C236 C 0.08662 0.17055 0.76909 0.0
C237 C 0.0606 0.08475 0.83327 0.0
C238 C 0.07562 0.07155 0.7826 0.0
C239 C 0.08638 0.10116 0.69783 0.0
C240 C 0.08861 0.14448 0.66527 0.0
C241 C 0.08546 0.11401 0.74976 0.0
C242 C 0.10175 0.19979 0.68505 0.0
C243 C 0.09855 0.2129 0.73621 0.0
H244 H 0.66428 0.56839 0.30682 0.0
H245 H 0.44478 0.6919 0.37131 0.0
H246 H 0.40927 0.72538 0.28869 0.0
H247 H 0.45252 0.72455 0.20019 0.0
H248 H 0.67661 0.60405 0.13607 0.0
H249 H 0.69322 0.56104 0.21647 0.0
C250 C 0.60935 0.60307 0.30294 0.0
C251 C 0.55927 0.62876 0.34536 0.0
C252 C 0.58826 0.62123 0.25548 0.0
C253 C 0.48718 0.67293 0.33961 0.0
C254 C 0.46538 0.69124 0.29233 0.0
C255 C 0.50339 0.68809 0.20381 0.0
C256 C 0.56541 0.66805 0.16337 0.0
C257 C 0.51667 0.66622 0.25031 0.0
C258 C 0.62923 0.62023 0.16724 0.0
C259 C 0.63978 0.59644 0.21324 0.0
H260 H 0.59165 0.7203 0.67707 0.0
H261 H 0.60295 0.54005 0.65821 0.0
H262 H 0.62305 0.53463 0.74853 0.0
H263 H 0.61135 0.58143 0.83219 0.0
H264 H 0.5687 0.76067 0.84961 0.0
H265 H 0.58463 0.76662 0.7596 0.0
C266 C 0.60152 0.67979 0.69263 0.0
C267 C 0.59678 0.63069 0.66133 0.0
C268 C 0.60601 0.67717 0.74408 0.0
C269 C 0.6088 0.57839 0.68161 0.0
C270 C 0.61852 0.57538 0.73317 0.0
C271 C 0.6104 0.62198 0.81627 0.0
C272 C 0.59317 0.67087 0.84725 0.0
C273 C 0.61424 0.62455 0.76466 0.0
C274 C 0.58714 0.72303 0.82659 0.0
C275 C 0.59435 0.72619 0.7752 0.0
loop_
_geom_bond_atom_site_label_1
_geom_bond_atom_site_label_2
_geom_bond_distance
_geom_bond_site_symmetry_2
_ccdc_geom_bond_type
Zn0 O6 1.920 . S
Zn0 O12 1.898 . S
Zn0 O15 1.905 . S
Zn1 O9 1.905 . S
Zn1 O10 1.893 1_655 S
Zn1 O18 1.920 . S
Zn2 O5 2.080 1_455 S
Zn2 O8 2.114 . S
Zn2 O11 2.120 1_554 S
Zn2 O13 2.120 . S
Zn2 O14 2.114 . S
Zn2 O17 2.080 1_455 S
C3 O8 1.166 . S
C3 O9 1.182 1_454 S
C4 O10 1.171 . S
C4 O11 1.299 . S
O5 Zn2 2.080 1_655 S
O5 C19 1.305 . S
O6 Zn0 1.920 . S
O6 C19 1.234 1_455 S
C7 O12 1.167 . S
C7 O13 1.299 . S
O8 Zn2 2.114 . S
O8 C3 1.166 . S
O9 Zn1 1.905 . S
O9 C3 1.182 1_656 S
O10 Zn1 1.893 1_455 S
O10 C4 1.171 . S
O11 Zn2 2.120 1_556 S
O11 C4 1.299 . S
O12 Zn0 1.898 . S
O12 C7 1.167 . S
O13 Zn2 2.120 . S
O13 C7 1.299 . S
O14 Zn2 2.114 . S
O14 C16 1.166 . S
O15 Zn0 1.905 . S
O15 C16 1.182 . S
C16 O14 1.166 . S
C16 O15 1.182 . S
O17 Zn2 2.080 1_655 S
O17 C20 1.305 1_554 S
O18 Zn1 1.920 . S
O18 C20 1.234 . S
C19 O5 1.305 . S
C19 O6 1.234 1_655 S
C20 O17 1.305 1_556 S
C20 O18 1.234 . S
Zn21 O27 1.920 . S
Zn21 O33 1.898 1_565 S
Zn21 O36 1.905 . S
Zn22 O30 1.905 . S
Zn22 O31 1.894 1_655 S
Zn22 O39 1.920 . S
Zn23 O26 2.080 1_455 S
Zn23 O29 2.114 . S
Zn23 O32 2.120 . S
Zn23 O34 2.120 . S
Zn23 O35 2.114 . S
Zn23 O38 2.080 1_455 S
C24 O29 1.166 . S
C24 O30 1.182 1_455 S
C25 O31 1.171 . S
C25 O32 1.299 . S
O26 Zn23 2.080 1_655 S
O26 C40 1.305 1_545 S
O27 Zn21 1.920 . S
O27 C40 1.234 1_455 S
C28 O33 1.167 . S
C28 O34 1.299 . S
O29 Zn23 2.114 . S
O29 C24 1.166 . S
O30 Zn22 1.905 . S
O30 C24 1.182 1_655 S
O31 Zn22 1.894 1_455 S
O31 C25 1.171 . S
O32 Zn23 2.120 . S
O32 C25 1.299 . S
O33 Zn21 1.898 1_545 S
O33 C28 1.167 . S
O34 Zn23 2.120 . S
O34 C28 1.299 . S
O35 Zn23 2.114 . S
O35 C37 1.166 . S
O36 Zn21 1.905 . S
O36 C37 1.182 1_565 S
C37 O35 1.166 . S
C37 O36 1.182 1_545 S
O38 Zn23 2.080 1_655 S
O38 C41 1.305 . S
O39 Zn22 1.920 . S
O39 C41 1.234 . S
C40 O26 1.305 1_565 S
C40 O27 1.234 1_655 S
C41 O38 1.305 . S
C41 O39 1.234 . S
Zn42 O48 1.920 . S
Zn42 O54 1.898 . S
Zn42 O57 1.905 . S
Zn43 O51 1.905 . S
Zn43 O52 1.898 . S
Zn43 O60 1.920 . S
Zn44 O47 2.080 . S
Zn44 O50 2.114 . S
Zn44 O53 2.120 1_554 S
Zn44 O55 2.120 . S
Zn44 O56 2.114 . S
Zn44 O59 2.080 . S
C45 O50 1.166 . S
C45 O51 1.182 1_554 S
C46 O52 1.167 . S
C46 O53 1.299 . S
O47 Zn44 2.080 . S
O47 C61 1.305 . S
O48 Zn42 1.920 . S
O48 C61 1.234 . S
C49 O54 1.167 . S
C49 O55 1.299 . S
O50 Zn44 2.114 . S
O50 C45 1.166 . S
O51 Zn43 1.905 . S
O51 C45 1.182 1_556 S
O52 Zn43 1.898 . S
O52 C46 1.167 . S
O53 Zn44 2.120 1_556 S
O53 C46 1.299 . S
O54 Zn42 1.898 . S
O54 C49 1.167 . S
O55 Zn44 2.120 . S
O55 C49 1.299 . S
O56 Zn44 2.114 . S
O56 C58 1.166 . S
O57 Zn42 1.905 . S
O57 C58 1.182 . S
C58 O56 1.166 . S
C58 O57 1.182 . S
O59 Zn44 2.080 . S
O59 C62 1.305 1_554 S
O60 Zn43 1.920 . S
O60 C62 1.234 . S
C61 O47 1.305 . S
C61 O48 1.234 . S
C62 O59 1.305 1_556 S
C62 O60 1.234 . S
Zn63 O69 1.920 . S
Zn63 O75 1.898 . S
Zn63 O78 1.905 . S
Zn64 O72 1.905 . S
Zn64 O73 1.898 . S
Zn64 O81 1.920 . S
Zn65 O68 2.080 . S
Zn65 O71 2.114 . S
Zn65 O74 2.120 . S
Zn65 O76 2.120 . S
Zn65 O77 2.114 . S
Zn65 O80 2.080 . S
C66 O71 1.166 . S
C66 O72 1.182 . S
C67 O73 1.167 . S
C67 O74 1.299 . S
O68 Zn65 2.080 . S
O68 C82 1.305 . S
O69 Zn63 1.920 . S
O69 C82 1.234 . S
C70 O75 1.167 . S
C70 O76 1.299 . S
O71 Zn65 2.114 . S
O71 C66 1.166 . S
O72 Zn64 1.905 . S
O72 C66 1.182 . S
O73 Zn64 1.898 . S
O73 C67 1.167 . S
O74 Zn65 2.120 . S
O74 C67 1.299 . S
O75 Zn63 1.898 . S
O75 C70 1.167 . S
O76 Zn65 2.120 . S
O76 C70 1.299 . S
O77 Zn65 2.114 . S
O77 C79 1.166 . S
O78 Zn63 1.905 . S
O78 C79 1.182 . S
C79 O77 1.166 . S
C79 O78 1.182 . S
O80 Zn65 2.080 . S
O80 C83 1.305 . S
O81 Zn64 1.920 . S
O81 C83 1.234 . S
C82 O68 1.305 . S
C82 O69 1.234 . S
C83 O80 1.305 . S
C83 O81 1.234 . S
H84 C90 0.930 . S
H85 C93 0.930 . S
H86 C94 0.930 . S
H87 C95 0.930 . S
H88 C98 0.930 1_655 S
H89 C99 0.930 . S
C90 H84 0.930 . S
C90 C91 1.354 1_556 S
C90 C92 1.415 1_556 S
C91 C90 1.354 1_554 S
C91 C93 1.419 . S
C92 C90 1.415 1_554 S
C92 C97 1.425 . S
C92 C99 1.409 1_554 S
C93 H85 0.930 . S
C93 C91 1.419 . S
C93 C94 1.362 . S
C94 H86 0.930 . S
C94 C93 1.362 . S
C94 C97 1.409 . S
C95 H87 0.930 . S
C95 C96 1.355 . S
C95 C97 1.415 1_545 S
C96 C95 1.355 . S
C96 C98 1.419 1_544 S
C97 C92 1.425 . S
C97 C94 1.409 . S
C97 C95 1.415 1_565 S
C98 H88 0.930 1_455 S
C98 C96 1.419 1_566 S
C98 C99 1.362 . S
C99 H89 0.930 . S
C99 C92 1.409 1_556 S
C99 C98 1.362 . S
H100 C106 0.930 1_556 S
H101 C109 0.930 . S
H102 C110 0.930 . S
H103 C111 0.930 . S
H104 C114 0.930 1_456 S
H105 C115 0.935 . S
C106 H100 0.930 1_554 S
C106 C107 1.355 . S
C106 C108 1.415 . S
C107 C106 1.355 . S
C107 C109 1.419 . S
C108 C106 1.415 . S
C108 C113 1.425 . S
C108 C115 1.406 1_554 S
C109 H101 0.930 . S
C109 C107 1.419 . S
C109 C110 1.362 . S
C110 H102 0.930 . S
C110 C109 1.362 . S
C110 C113 1.409 . S
C111 H103 0.930 . S
C111 C112 1.355 . S
C111 C113 1.415 . S
C112 C111 1.355 . S
C112 C114 1.419 . S
C113 C108 1.425 . S
C113 C110 1.409 . S
C113 C111 1.415 . S
C114 H104 0.930 1_654 S
C114 C112 1.419 . S
C114 C115 1.361 1_554 S
C115 H105 0.935 . S
C115 C108 1.406 1_556 S
C115 C114 1.361 1_556 S
H116 C122 0.930 . S
H117 C125 0.930 1_655 S
H118 C126 0.930 . S
H119 C127 0.930 . S
H120 C130 0.930 . S
H121 C131 0.930 . S
C122 H116 0.930 . S
C122 C123 1.355 . S
C122 C124 1.415 . S
C123 C122 1.355 . S
C123 C125 1.419 . S
C124 C122 1.415 . S
C124 C129 1.425 . S
C124 C131 1.409 . S
C125 H117 0.930 1_455 S
C125 C123 1.419 . S
C125 C126 1.362 . S
C126 H118 0.930 . S
C126 C125 1.362 . S
C126 C129 1.409 . S
C127 H119 0.930 . S
C127 C128 1.355 . S
C127 C129 1.415 . S
C128 C127 1.355 . S
C128 C130 1.419 . S
C129 C124 1.425 . S
C129 C126 1.409 . S
C129 C127 1.415 . S
C130 H120 0.930 . S
C130 C128 1.419 . S
C130 C131 1.362 . S
C131 H121 0.930 . S
C131 C124 1.409 . S
C131 C130 1.362 . S
H132 C138 0.930 . S
H133 C141 0.930 . S
H134 C142 0.930 . S
H135 C143 0.930 . S
H136 C146 0.930 . S
H137 C147 0.930 . S
C138 H132 0.930 . S
C138 C139 1.355 . S
C138 C140 1.415 . S
C139 C138 1.355 . S
C139 C141 1.419 . S
C140 C138 1.415 . S
C140 C145 1.425 . S
C140 C147 1.409 . S
C141 H133 0.930 . S
C141 C139 1.419 . S
C141 C142 1.362 . S
C142 H134 0.930 . S
C142 C141 1.362 . S
C142 C145 1.409 . S
C143 H135 0.930 . S
C143 C144 1.355 . S
C143 C145 1.415 . S
C144 C143 1.355 . S
C144 C146 1.419 . S
C145 C140 1.425 . S
C145 C142 1.409 . S
C145 C143 1.415 . S
C146 H136 0.930 . S
C146 C144 1.419 . S
C146 C147 1.362 . S
C147 H137 0.930 . S
C147 C140 1.409 . S
C147 C146 1.362 . S
H148 C154 0.930 1_554 S
H149 C157 0.930 . S
H150 C158 0.930 . S
H151 C159 0.930 . S
H152 C162 0.930 . S
H153 C163 0.930 . S
C154 H148 0.930 1_556 S
C154 C155 1.355 . S
C154 C156 1.415 . S
C155 C154 1.355 . S
C155 C157 1.419 . S
C156 C154 1.415 . S
C156 C161 1.425 . S
C156 C163 1.409 1_556 S
C157 H149 0.930 . S
C157 C155 1.419 . S
C157 C158 1.362 . S
C158 H150 0.930 . S
C158 C157 1.362 . S
C158 C161 1.409 . S
C159 H151 0.930 . S
C159 C160 1.355 . S
C159 C161 1.415 . S
C160 C159 1.355 . S
C160 C162 1.419 1_556 S
C161 C156 1.425 . S
C161 C158 1.409 . S
C161 C159 1.415 . S
C162 H152 0.930 . S
C162 C160 1.419 1_554 S
C162 C163 1.362 . S
C163 H153 0.930 . S
C163 C156 1.409 1_554 S
C163 C162 1.362 . S
H164 C170 0.930 1_565 S
H165 C173 0.930 . S
H166 C174 0.930 . S
H167 C175 0.930 . S
H168 C178 0.930 . S
H169 C179 0.930 1_565 S
C170 H164 0.930 1_545 S
C170 C171 1.355 . S
C170 C172 1.415 . S
C171 C170 1.355 . S
C171 C173 1.419 . S
C172 C170 1.415 . S
C172 C177 1.425 . S
C172 C179 1.409 . S
C173 H165 0.930 . S
C173 C171 1.419 . S
C173 C174 1.362 . S
C174 H166 0.930 . S
C174 C173 1.362 . S
C174 C177 1.409 . S
C175 H167 0.930 . S
C175 C176 1.355 . S
C175 C177 1.415 . S
C176 C175 1.355 . S
C176 C178 1.419 . S
C177 C172 1.425 . S
C177 C174 1.409 . S
C177 C175 1.415 . S
C178 H168 0.930 . S
C178 C176 1.419 . S
C178 C179 1.362 . S
C179 H169 0.930 1_545 S
C179 C172 1.409 . S
C179 C178 1.362 . S
H180 C186 0.930 1_554 S
H181 C189 0.930 . S
H182 C190 0.930 1_455 S
H183 C191 0.930 . S
H184 C194 0.930 . S
H185 C195 0.930 1_655 S
C186 H180 0.930 1_556 S
C186 C187 1.355 . S
C186 C188 1.415 . S
C187 C186 1.355 . S
C187 C189 1.419 . S
C188 C186 1.415 . S
C188 C193 1.425 1_655 S
C188 C195 1.409 1_656 S
C189 H181 0.930 . S
C189 C187 1.419 . S
C189 C190 1.362 . S
C190 H182 0.930 1_655 S
C190 C189 1.362 . S
C190 C193 1.409 1_655 S
C191 H183 0.930 . S
C191 C192 1.355 . S
C191 C193 1.415 . S
C192 C191 1.355 . S
C192 C194 1.419 1_556 S
C193 C188 1.425 1_455 S
C193 C190 1.409 1_455 S
C193 C191 1.415 . S
C194 H184 0.930 . S
C194 C192 1.419 1_554 S
C194 C195 1.362 . S
C195 H185 0.930 1_455 S
C195 C188 1.409 1_454 S
C195 C194 1.362 . S
H196 C202 0.930 . S
H197 C205 0.930 . S
H198 C206 0.930 1_655 S
H199 C207 0.930 . S
H200 C210 0.930 . S
H201 C211 0.930 1_455 S
C202 H196 0.930 . S
C202 C203 1.355 . S
C202 C204 1.415 . S
C203 C202 1.355 . S
C203 C205 1.419 . S
C204 C202 1.415 . S
C204 C209 1.425 1_455 S
C204 C211 1.409 1_455 S
C205 H197 0.930 . S
C205 C203 1.419 . S
C205 C206 1.362 . S
C206 H198 0.930 1_455 S
C206 C205 1.362 . S
C206 C209 1.409 1_455 S
C207 H199 0.930 . S
C207 C208 1.355 . S
C207 C209 1.415 . S
C208 C207 1.355 . S
C208 C210 1.419 . S
C209 C204 1.425 1_655 S
C209 C206 1.409 1_655 S
C209 C207 1.415 . S
C210 H200 0.930 . S
C210 C208 1.419 . S
C210 C211 1.362 . S
C211 H201 0.930 1_655 S
C211 C204 1.409 1_655 S
C211 C210 1.362 . S
H212 C218 0.930 . S
H213 C221 0.930 . S
H214 C222 0.930 1_655 S
H215 C223 0.930 . S
H216 C226 0.930 . S
H217 C227 0.930 . S
C218 H212 0.930 . S
C218 C219 1.355 . S
C218 C220 1.415 . S
C219 C218 1.355 . S
C219 C221 1.419 . S
C220 C218 1.415 . S
C220 C225 1.425 . S
C220 C227 1.409 . S
C221 H213 0.930 . S
C221 C219 1.419 . S
C221 C222 1.362 . S
C222 H214 0.930 1_455 S
C222 C221 1.362 . S
C222 C225 1.409 . S
C223 H215 0.930 . S
C223 C224 1.355 . S
C223 C225 1.415 . S
C224 C223 1.355 . S
C224 C226 1.419 . S
C225 C220 1.425 . S
C225 C222 1.409 . S
C225 C223 1.415 . S
C226 H216 0.930 . S
C226 C224 1.419 . S
C226 C227 1.362 . S
C227 H217 0.930 . S
C227 C220 1.409 . S
C227 C226 1.362 . S
H228 C234 0.930 . S
H229 C237 0.930 . S
H230 C238 0.930 . S
H231 C239 0.930 . S
H232 C242 0.930 . S
H233 C243 0.930 . S
C234 H228 0.930 . S
C234 C235 1.355 . S
C234 C236 1.415 . S
C235 C234 1.355 . S
C235 C237 1.419 . S
C236 C234 1.415 . S
C236 C241 1.425 . S
C236 C243 1.409 . S
C237 H229 0.930 . S
C237 C235 1.419 . S
C237 C238 1.362 . S
C238 H230 0.930 . S
C238 C237 1.362 . S
C238 C241 1.409 . S
C239 H231 0.930 . S
C239 C240 1.355 . S
C239 C241 1.415 . S
C240 C239 1.355 . S
C240 C242 1.419 . S
C241 C236 1.425 . S
C241 C238 1.409 . S
C241 C239 1.415 . S
C242 H232 0.930 . S
C242 C240 1.419 . S
C242 C243 1.362 . S
C243 H233 0.930 . S
C243 C236 1.409 . S
C243 C242 1.362 . S
H244 C250 0.930 . S
H245 C253 0.930 . S
H246 C254 0.930 . S
H247 C255 0.930 . S
H248 C258 0.930 . S
H249 C259 0.930 . S
C250 H244 0.930 . S
C250 C251 1.355 . S
C250 C252 1.415 . S
C251 C250 1.355 . S
C251 C253 1.419 . S
C252 C250 1.415 . S
C252 C257 1.425 . S
C252 C259 1.409 . S
C253 H245 0.930 . S
C253 C251 1.419 . S
C253 C254 1.362 . S
C254 H246 0.930 . S
C254 C253 1.362 . S
C254 C257 1.409 . S
C255 H247 0.930 . S
C255 C256 1.355 . S
C255 C257 1.415 . S
C256 C255 1.355 . S
C256 C258 1.419 . S
C257 C252 1.425 . S
C257 C254 1.409 . S
C257 C255 1.415 . S
C258 H248 0.930 . S
C258 C256 1.419 . S
C258 C259 1.362 . S
C259 H249 0.930 . S
C259 C252 1.409 . S
C259 C258 1.362 . S
H260 C266 0.930 . S
H261 C269 0.930 . S
H262 C270 0.930 . S
H263 C271 0.930 . S
H264 C274 0.930 . S
H265 C275 0.930 . S
C266 H260 0.930 . S
C266 C267 1.355 . S
C266 C268 1.415 . S
C267 C266 1.355 . S
C267 C269 1.419 . S
C268 C266 1.415 . S
C268 C273 1.425 . S
C268 C275 1.409 . S
C269 H261 0.930 . S
C269 C267 1.419 . S
C269 C270 1.362 . S
C270 H262 0.930 . S
C270 C269 1.362 . S
C270 C273 1.409 . S
C271 H263 0.930 . S
C271 C272 1.355 . S
C271 C273 1.415 . S
C272 C271 1.355 . S
C272 C274 1.419 . S
C273 C268 1.425 . S
C273 C270 1.409 . S
C273 C271 1.415 . S
C274 H264 0.930 . S
C274 C272 1.419 . S
C274 C275 1.362 . S
C275 H265 0.930 . S
C275 C268 1.409 . S
C275 C274 1.362 . S
C91 C61 1.567 . S
C96 C3 1.511 . S
C107 C45 1.528 . S
C112 C19 1.574 . S
C123 C24 1.536 . S
C128 C82 1.578 . S
C139 C40 1.566 . S
C144 C66 1.505 . S
C155 C16 0.849 1_556 S
C160 C20 0.857 . S
C171 C37 0.756 . S
C176 C41 0.823 . S
C187 C58 0.790 1_556 S
C192 C62 0.752 . S
C203 C83 0.802 . S
C208 C79 0.859 . S
C219 C28 1.407 . S
C224 C7 1.392 . S
C235 C4 1.263 . S
C240 C25 1.291 . S
C251 C70 1.478 . S
C256 C49 1.470 . S
C267 C67 1.385 . S
C272 C46 1.340 . S
