# Generated by pormake.
# Topology vbm, (6)-cn, num edge types: 1
# Building blocks:
#     Node 0, Type 0, BuildingBlock: CUWYAW_clean_sbu_0, # of connection points: 6
#     Node 1, Type 0, BuildingBlock: CUWYAW_clean_sbu_0, # of connection points: 6
#     Node 2, Type 0, BuildingBlock: CUWYAW_clean_sbu_0, # of connection points: 6
#     Node 3, Type 0, BuildingBlock: CUWYAW_clean_sbu_0, # of connection points: 6
#     Node 4, Type 0, BuildingBlock: CUWYAW_clean_sbu_0, # of connection points: 6
#     Node 5, Type 0, BuildingBlock: CUWYAW_clean_sbu_0, # of connection points: 6
#     Node 6, Type 0, BuildingBlock: CUWYAW_clean_sbu_0, # of connection points: 6
#     Node 7, Type 0, BuildingBlock: CUWYAW_clean_sbu_0, # of connection points: 6
#     Node 8, Type 0, BuildingBlock: CUWYAW_clean_sbu_0, # of connection points: 6
#     Node 9, Type 0, BuildingBlock: CUWYAW_clean_sbu_0, # of connection points: 6
#     Node 10, Type 0, BuildingBlock: CUWYAW_clean_sbu_0, # of connection points: 6
#     Node 11, Type 0, BuildingBlock: CUWYAW_clean_sbu_0, # of connection points: 6
#     Node 12, Type 0, BuildingBlock: CUWYAW_clean_sbu_0, # of connection points: 6
#     Node 13, Type 0, BuildingBlock: CUWYAW_clean_sbu_0, # of connection points: 6
#     Node 14, Type 0, BuildingBlock: CUWYAW_clean_sbu_0, # of connection points: 6
#     Node 15, Type 0, BuildingBlock: CUWYAW_clean_sbu_0, # of connection points: 6
#     Edge 16, Type (0, 0), BuildingBlock: AJUNOK_clean_linker_0, # of connection points: 2
#     Edge 17, Type (0, 0), BuildingBlock: AJUNOK_clean_linker_0, # of connection points: 2
#     Edge 18, Type (0, 0), BuildingBlock: AJUNOK_clean_linker_0, # of connection points: 2
#     Edge 19, Type (0, 0), BuildingBlock: AJUNOK_clean_linker_0, # of connection points: 2
#     Edge 20, Type (0, 0), BuildingBlock: AJUNOK_clean_linker_0, # of connection points: 2
#     Edge 21, Type (0, 0), BuildingBlock: AJUNOK_clean_linker_0, # of connection points: 2
#     Edge 22, Type (0, 0), BuildingBlock: AJUNOK_clean_linker_0, # of connection points: 2
#     Edge 23, Type (0, 0), BuildingBlock: AJUNOK_clean_linker_0, # of connection points: 2
#     Edge 24, Type (0, 0), BuildingBlock: AJUNOK_clean_linker_0, # of connection points: 2
#     Edge 25, Type (0, 0), BuildingBlock: AJUNOK_clean_linker_0, # of connection points: 2
#     Edge 26, Type (0, 0), BuildingBlock: AJUNOK_clean_linker_0, # of connection points: 2
#     Edge 27, Type (0, 0), BuildingBlock: AJUNOK_clean_linker_0, # of connection points: 2
#     Edge 28, Type (0, 0), BuildingBlock: AJUNOK_clean_linker_0, # of connection points: 2
#     Edge 29, Type (0, 0), BuildingBlock: AJUNOK_clean_linker_0, # of connection points: 2
#     Edge 30, Type (0, 0), BuildingBlock: AJUNOK_clean_linker_0, # of connection points: 2
#     Edge 31, Type (0, 0), BuildingBlock: AJUNOK_clean_linker_0, # of connection points: 2
#     Edge 32, Type (0, 0), BuildingBlock: AJUNOK_clean_linker_0, # of connection points: 2
#     Edge 33, Type (0, 0), BuildingBlock: AJUNOK_clean_linker_0, # of connection points: 2
#     Edge 34, Type (0, 0), BuildingBlock: AJUNOK_clean_linker_0, # of connection points: 2
#     Edge 35, Type (0, 0), BuildingBlock: AJUNOK_clean_linker_0, # of connection points: 2
#     Edge 36, Type (0, 0), BuildingBlock: AJUNOK_clean_linker_0, # of connection points: 2
#     Edge 37, Type (0, 0), BuildingBlock: AJUNOK_clean_linker_0, # of connection points: 2
#     Edge 38, Type (0, 0), BuildingBlock: AJUNOK_clean_linker_0, # of connection points: 2
#     Edge 39, Type (0, 0), BuildingBlock: AJUNOK_clean_linker_0, # of connection points: 2
#     Edge 40, Type (0, 0), BuildingBlock: AJUNOK_clean_linker_0, # of connection points: 2
#     Edge 41, Type (0, 0), BuildingBlock: AJUNOK_clean_linker_0, # of connection points: 2
#     Edge 42, Type (0, 0), BuildingBlock: AJUNOK_clean_linker_0, # of connection points: 2
#     Edge 43, Type (0, 0), BuildingBlock: AJUNOK_clean_linker_0, # of connection points: 2
#     Edge 44, Type (0, 0), BuildingBlock: AJUNOK_clean_linker_0, # of connection points: 2
#     Edge 45, Type (0, 0), BuildingBlock: AJUNOK_clean_linker_0, # of connection points: 2
#     Edge 46, Type (0, 0), BuildingBlock: AJUNOK_clean_linker_0, # of connection points: 2
#     Edge 47, Type (0, 0), BuildingBlock: AJUNOK_clean_linker_0, # of connection points: 2
#     Edge 48, Type (0, 0), BuildingBlock: AJUNOK_clean_linker_0, # of connection points: 2
#     Edge 49, Type (0, 0), BuildingBlock: AJUNOK_clean_linker_0, # of connection points: 2
#     Edge 50, Type (0, 0), BuildingBlock: AJUNOK_clean_linker_0, # of connection points: 2
#     Edge 51, Type (0, 0), BuildingBlock: AJUNOK_clean_linker_0, # of connection points: 2
#     Edge 52, Type (0, 0), BuildingBlock: AJUNOK_clean_linker_0, # of connection points: 2
#     Edge 53, Type (0, 0), BuildingBlock: AJUNOK_clean_linker_0, # of connection points: 2
#     Edge 54, Type (0, 0), BuildingBlock: AJUNOK_clean_linker_0, # of connection points: 2
#     Edge 55, Type (0, 0), BuildingBlock: AJUNOK_clean_linker_0, # of connection points: 2
#     Edge 56, Type (0, 0), BuildingBlock: AJUNOK_clean_linker_0, # of connection points: 2
#     Edge 57, Type (0, 0), BuildingBlock: AJUNOK_clean_linker_0, # of connection points: 2
#     Edge 58, Type (0, 0), BuildingBlock: AJUNOK_clean_linker_0, # of connection points: 2
#     Edge 59, Type (0, 0), BuildingBlock: AJUNOK_clean_linker_0, # of connection points: 2
#     Edge 60, Type (0, 0), BuildingBlock: AJUNOK_clean_linker_0, # of connection points: 2
#     Edge 61, Type (0, 0), BuildingBlock: AJUNOK_clean_linker_0, # of connection points: 2
#     Edge 62, Type (0, 0), BuildingBlock: AJUNOK_clean_linker_0, # of connection points: 2
#     Edge 63, Type (0, 0), BuildingBlock: AJUNOK_clean_linker_0, # of connection points: 2
# Relax obj value: 0.061
# Max RMSD: 0.150
# Mean RMSD: 0.150
data_MOF--net-vbm--node1-CUWYAW_clean_sbu_0--edge1-AJUNOK_clean_linker_0
_symmetry_space_group_name_H-M    P1
_symmetry_Int_Tables_number       1
_symmetry_cell_setting            triclinic
loop_
_symmetry_equiv_pos_as_xyz
'x, y, z'
_cell_length_a     39.463288
_cell_length_b     21.681868
_cell_length_c     40.727509
_cell_angle_alpha  89.961159
_cell_angle_beta   89.924031
_cell_angle_gamma 90.039371
loop_
_atom_site_label
_atom_site_type_symbol
_atom_site_fract_x
_atom_site_fract_y
_atom_site_fract_z
_atom_type_partial_charge
C0 C 0.0907 0.30325 0.16228 0.0
Eu1 Eu 0.11001 0.18902 0.15588 0.0
C2 C 0.10283 0.36745 0.15953 0.0
C3 C 0.09367 0.40912 0.18425 0.0
C4 C 0.10256 0.47124 0.18191 0.0
C5 C 0.12085 0.49331 0.15469 0.0
C6 C 0.13078 0.45122 0.13017 0.0
C7 C 0.12195 0.38864 0.13261 0.0
C8 C 0.11699 0.11196 0.20849 0.0
C9 C 0.19139 0.18941 0.14806 0.0
C10 C 0.16694 0.95371 0.15815 0.0
Eu11 Eu 0.1466 0.06496 0.14378 0.0
C12 C 0.15793 0.88771 0.15373 0.0
C13 C 0.17123 0.85272 0.12766 0.0
C14 C 0.16503 0.78911 0.12576 0.0
C15 C 0.14594 0.75894 0.1502 0.0
C16 C 0.13223 0.7943 0.1759 0.0
C17 C 0.13809 0.85771 0.17762 0.0
C18 C 0.13305 0.11283 0.08388 0.0
C19 C 0.0628 0.07858 0.1383 0.0
O20 O 0.08652 0.27136 0.13525 0.0
O21 O 0.10315 0.27051 0.18638 0.0
O22 O 0.08941 0.14162 0.20157 0.0
O23 O 0.13936 0.12374 0.1872 0.0
O24 O 0.16276 0.21988 0.14648 0.0
O25 O 0.19276 0.12817 0.14958 0.0
O26 O 0.14654 0.98637 0.17657 0.0
O27 O 0.17883 0.98503 0.13306 0.0
O28 O 0.14879 0.06117 0.08866 0.0
O29 O 0.1254 0.13782 0.11111 0.0
O30 O 0.08949 0.04222 0.14325 0.0
O31 O 0.06493 0.13899 0.13791 0.0
H32 H 0.07906 0.3937 0.20526 0.0
H33 H 0.09484 0.50223 0.20138 0.0
H34 H 0.14448 0.4669 0.10867 0.0
H35 H 0.12948 0.35725 0.11325 0.0
H36 H 0.18681 0.87425 0.10898 0.0
H37 H 0.17525 0.76364 0.10515 0.0
H38 H 0.11762 0.77269 0.19529 0.0
H39 H 0.12773 0.88294 0.19828 0.0
C40 C 0.89016 0.76374 0.16614 0.0
Eu41 Eu 0.87483 0.87909 0.15461 0.0
C42 C 0.87875 0.69927 0.16072 0.0
C43 C 0.86969 0.66335 0.18807 0.0
C44 C 0.86235 0.60061 0.18467 0.0
C45 C 0.86392 0.57194 0.15377 0.0
C46 C 0.87214 0.60819 0.12615 0.0
C47 C 0.8794 0.67128 0.12956 0.0
C48 C 0.86448 0.95474 0.20781 0.0
C49 C 0.79691 0.87403 0.14041 0.0
C50 C 0.81976 0.11032 0.14252 0.0
Eu51 Eu 0.84132 0.9959 0.14064 0.0
C52 C 0.83102 0.17577 0.14405 0.0
C53 C 0.83917 0.20862 0.11528 0.0
C54 C 0.8456 0.27215 0.11642 0.0
C55 C 0.84366 0.3046 0.14626 0.0
C56 C 0.83654 0.27142 0.17516 0.0
C57 C 0.83015 0.20789 0.17404 0.0
C58 C 0.84994 0.93036 0.08484 0.0
C59 C 0.92581 0.98291 0.14136 0.0
O60 O 0.90248 0.7952 0.14139 0.0
O61 O 0.87168 0.79756 0.18571 0.0
O62 O 0.89294 0.9278 0.20122 0.0
O63 O 0.84322 0.9422 0.18583 0.0
O64 O 0.82596 0.84902 0.133 0.0
O65 O 0.79564 0.93248 0.14993 0.0
O66 O 0.82397 0.07602 0.16858 0.0
O67 O 0.82489 0.07966 0.11538 0.0
O68 O 0.8231 0.96227 0.09192 0.0
O69 O 0.87174 0.93471 0.10773 0.0
O70 O 0.89873 1.01911 0.14511 0.0
O71 O 0.92304 0.92281 0.14012 0.0
H72 H 0.86911 0.68353 0.2124 0.0
H73 H 0.85581 0.57427 0.20639 0.0
H74 H 0.8741 0.58742 0.10205 0.0
H75 H 0.88639 0.69758 0.10797 0.0
H76 H 0.83988 0.18559 0.0917 0.0
H77 H 0.85186 0.29594 0.09383 0.0
H78 H 0.83484 0.29493 0.19856 0.0
H79 H 0.8236 0.18423 0.19661 0.0
C80 C 0.0898 0.7609 0.37461 0.0
Eu81 Eu 0.11024 0.87552 0.37746 0.0
C82 C 0.10193 0.69628 0.37615 0.0
C83 C 0.09337 0.65596 0.35054 0.0
C84 C 0.10124 0.5932 0.35245 0.0
C85 C 0.11794 0.56905 0.38009 0.0
C86 C 0.12775 0.60997 0.40523 0.0
C87 C 0.11971 0.67293 0.40337 0.0
C88 C 0.11647 0.94655 0.32222 0.0
C89 C 0.19118 0.87264 0.38185 0.0
C90 C 0.16653 0.10858 0.38577 0.0
Eu91 Eu 0.14577 0.99358 0.38787 0.0
C92 C 0.15493 0.17381 0.38675 0.0
C93 C 0.16504 0.21166 0.41296 0.0
C94 C 0.15805 0.27494 0.41276 0.0
C95 C 0.14056 0.30209 0.38638 0.0
C96 C 0.1299 0.26404 0.36036 0.0
C97 C 0.13698 0.20063 0.36052 0.0
C98 C 0.13835 0.92838 0.44434 0.0
C99 C 0.06163 0.98534 0.38946 0.0
O100 O 0.08986 0.79359 0.40161 0.0
O101 O 0.09842 0.79316 0.34882 0.0
O102 O 0.08957 0.91592 0.33045 0.0
O103 O 0.13957 0.93775 0.34324 0.0
O104 O 0.16274 0.84349 0.38737 0.0
O105 O 0.19206 0.93324 0.37751 0.0
O106 O 0.15941 0.07573 0.35983 0.0
O107 O 0.16466 0.07633 0.41279 0.0
O108 O 0.16556 0.95801 0.43593 0.0
O109 O 0.11584 0.93466 0.42238 0.0
O110 O 0.08922 1.01956 0.38486 0.0
O111 O 0.06367 0.92516 0.39193 0.0
H112 H 0.07967 0.67279 0.3293 0.0
H113 H 0.09326 0.56318 0.33266 0.0
H114 H 0.14149 0.59331 0.42645 0.0
H115 H 0.12694 0.70297 0.42341 0.0
H116 H 0.17935 0.19258 0.43324 0.0
H117 H 0.16736 0.30294 0.43282 0.0
H118 H 0.11627 0.28343 0.33973 0.0
H119 H 0.12901 0.17301 0.33976 0.0
C120 C 0.88254 0.30624 0.36328 0.0
Eu121 Eu 0.87232 0.19029 0.37589 0.0
C122 C 0.87261 0.3701 0.37033 0.0
C123 C 0.86718 0.40922 0.3435 0.0
C124 C 0.85973 0.47122 0.34831 0.0
C125 C 0.85735 0.49552 0.38017 0.0
C126 C 0.86189 0.45592 0.40724 0.0
C127 C 0.86956 0.39345 0.40236 0.0
C128 C 0.86384 0.11619 0.32206 0.0
C129 C 0.7959 0.18667 0.39401 0.0
C130 C 0.8228 0.95528 0.37403 0.0
Eu131 Eu 0.84147 0.06671 0.38883 0.0
C132 C 0.82696 0.88869 0.37915 0.0
C133 C 0.82836 0.8611 0.41032 0.0
C134 C 0.83286 0.79708 0.41307 0.0
C135 C 0.83616 0.76039 0.38471 0.0
C136 C 0.83509 0.78871 0.35375 0.0
C137 C 0.83049 0.85206 0.35105 0.0
C138 C 0.85616 0.11061 0.44896 0.0
C139 C 0.92514 0.0888 0.38952 0.0
O140 O 0.90024 0.2755 0.38507 0.0
O141 O 0.86011 0.27246 0.348 0.0
O142 O 0.89097 0.14739 0.32836 0.0
O143 O 0.84251 0.12441 0.34471 0.0
O144 O 0.82476 0.2108 0.40289 0.0
O145 O 0.79526 0.12983 0.38197 0.0
O146 O 0.84901 0.98328 0.36118 0.0
O147 O 0.80635 0.98901 0.3956 0.0
O148 O 0.8412 0.05846 0.44358 0.0
O149 O 0.862 0.13942 0.42239 0.0
O150 O 0.89913 0.05028 0.38573 0.0
O151 O 0.92077 0.14867 0.39088 0.0
H152 H 0.86935 0.39192 0.31862 0.0
H153 H 0.85658 0.50052 0.32697 0.0
H154 H 0.85948 0.47317 0.43208 0.0
H155 H 0.87333 0.36378 0.42345 0.0
H156 H 0.82596 0.88876 0.43234 0.0
H157 H 0.83327 0.77621 0.43723 0.0
H158 H 0.838 0.7618 0.33151 0.0
H159 H 0.82981 0.87268 0.32679 0.0
C160 C 0.82062 0.10466 0.88173 0.0
Eu161 Eu 0.84164 0.99025 0.88702 0.0
C162 C 0.8318 0.17019 0.88297 0.0
C163 C 0.82071 0.20838 0.90873 0.0
C164 C 0.82709 0.27197 0.90818 0.0
C165 C 0.8445 0.29904 0.8817 0.0
C166 C 0.85674 0.26053 0.85653 0.0
C167 C 0.85035 0.19693 0.85706 0.0
C168 C 0.84983 0.9294 0.9447 0.0
C169 C 0.92595 0.98075 0.88909 0.0
C170 C 0.89452 0.75767 0.86944 0.0
Eu171 Eu 0.87652 0.87262 0.87746 0.0
C172 C 0.88373 0.69262 0.87234 0.0
C173 C 0.89311 0.65213 0.84713 0.0
C174 C 0.885 0.58958 0.84888 0.0
C175 C 0.86678 0.56587 0.87574 0.0
C176 C 0.85705 0.60662 0.90104 0.0
C177 C 0.86536 0.66965 0.89932 0.0
C178 C 0.87077 0.94406 0.82226 0.0
C179 C 0.7974 0.8688 0.88721 0.0
O180 O 0.83055 0.071 0.85693 0.0
O181 O 0.81972 0.0734 0.90914 0.0
O182 O 0.82296 0.96025 0.93658 0.0
O183 O 0.87192 0.93292 0.92211 0.0
O184 O 0.89844 1.01536 0.88472 0.0
O185 O 0.92378 0.92049 0.89148 0.0
O186 O 0.90109 0.78918 0.89611 0.0
O187 O 0.87946 0.79052 0.84691 0.0
O188 O 0.89785 0.91508 0.83121 0.0
O189 O 0.84736 0.93383 0.84279 0.0
O190 O 0.82607 0.84407 0.89613 0.0
O191 O 0.79657 0.92657 0.87657 0.0
H192 H 0.8061 0.18934 0.92888 0.0
H193 H 0.81732 0.3003 0.92793 0.0
H194 H 0.87095 0.27968 0.83616 0.0
H195 H 0.85929 0.16908 0.83676 0.0
H196 H 0.90731 0.66883 0.82613 0.0
H197 H 0.89368 0.55951 0.82939 0.0
H198 H 0.84294 0.58977 0.92204 0.0
H199 H 0.85764 0.70013 0.91902 0.0
C200 C 0.16641 0.95584 0.87058 0.0
Eu201 Eu 0.1456 0.06619 0.88569 0.0
C202 C 0.15894 0.88958 0.87481 0.0
C203 C 0.15963 0.85992 0.90552 0.0
C204 C 0.15347 0.79629 0.90773 0.0
C205 C 0.1468 0.76146 0.87927 0.0
C206 C 0.14585 0.79167 0.84878 0.0
C207 C 0.15182 0.85485 0.84662 0.0
C208 C 0.13239 0.11208 0.94624 0.0
C209 C 0.06202 0.08441 0.88958 0.0
C210 C 0.09716 0.30615 0.86373 0.0
Eu211 Eu 0.11212 0.19121 0.8744 0.0
C212 C 0.10856 0.37012 0.86885 0.0
C213 C 0.11243 0.40782 0.84112 0.0
C214 C 0.12021 0.47012 0.84454 0.0
C215 C 0.12432 0.49617 0.87581 0.0
C216 C 0.12152 0.45809 0.90368 0.0
C217 C 0.11371 0.39534 0.90024 0.0
C218 C 0.11747 0.11512 0.82118 0.0
C219 C 0.19139 0.18767 0.88716 0.0
O220 O 0.14432 0.98703 0.85336 0.0
O221 O 0.17892 0.9874 0.89525 0.0
O222 O 0.14708 0.05964 0.94083 0.0
O223 O 0.12549 0.13894 0.91937 0.0
O224 O 0.0882 0.04664 0.88479 0.0
O225 O 0.06568 0.14452 0.89166 0.0
O226 O 0.08513 0.27482 0.88876 0.0
O227 O 0.11563 0.27282 0.84383 0.0
O228 O 0.09047 0.14566 0.82887 0.0
O229 O 0.14025 0.12545 0.84223 0.0
O230 O 0.16309 0.21698 0.89316 0.0
O231 O 0.19186 0.12845 0.87912 0.0
H232 H 0.16492 0.88566 0.92771 0.0
H233 H 0.15367 0.77452 0.93166 0.0
H234 H 0.14102 0.76623 0.82638 0.0
H235 H 0.15125 0.87664 0.82266 0.0
H236 H 0.10865 0.38929 0.81668 0.0
H237 H 0.12255 0.49824 0.82264 0.0
H238 H 0.12425 0.47722 0.9281 0.0
H239 H 0.11095 0.36711 0.92203 0.0
C240 C 0.81962 0.95796 0.66262 0.0
Eu241 Eu 0.84018 0.06843 0.64718 0.0
C242 C 0.82699 0.89169 0.65787 0.0
C243 C 0.82505 0.86239 0.62711 0.0
C244 C 0.83049 0.79856 0.62455 0.0
C245 C 0.83799 0.76327 0.65266 0.0
C246 C 0.84051 0.79313 0.68313 0.0
C247 C 0.83503 0.85643 0.68568 0.0
C248 C 0.85426 0.11182 0.58647 0.0
C249 C 0.92402 0.08633 0.64145 0.0
C250 C 0.88692 0.30792 0.66986 0.0
Eu251 Eu 0.87468 0.19254 0.65769 0.0
C252 C 0.87629 0.37195 0.66397 0.0
C253 C 0.87407 0.41109 0.69122 0.0
C254 C 0.86605 0.47314 0.68728 0.0
C255 C 0.85983 0.49758 0.65592 0.0
C256 C 0.861 0.45784 0.62856 0.0
C257 C 0.86926 0.39533 0.63254 0.0
C258 C 0.86958 0.11669 0.71108 0.0
C259 C 0.79685 0.19111 0.64181 0.0
O260 O 0.84223 0.98895 0.67934 0.0
O261 O 0.80627 0.98998 0.63852 0.0
O262 O 0.83861 0.06038 0.59216 0.0
O263 O 0.86121 0.1394 0.61307 0.0
O264 O 0.89758 0.04929 0.6469 0.0
O265 O 0.92117 0.14672 0.64038 0.0
O266 O 0.90219 0.27732 0.64628 0.0
O267 O 0.8661 0.27407 0.68725 0.0
O268 O 0.89655 0.1469 0.70291 0.0
O269 O 0.84646 0.12744 0.69044 0.0
O270 O 0.82597 0.21483 0.63313 0.0
O271 O 0.79524 0.13409 0.65356 0.0
H272 H 0.81888 0.88843 0.60522 0.0
H273 H 0.82799 0.77662 0.6008 0.0
H274 H 0.84658 0.76737 0.70516 0.0
H275 H 0.83668 0.87788 0.70966 0.0
H276 H 0.87919 0.39377 0.71569 0.0
H277 H 0.8655 0.50237 0.70884 0.0
H278 H 0.8555 0.47498 0.60416 0.0
H279 H 0.87037 0.36564 0.61118 0.0
C280 C 0.165 0.10751 0.64911 0.0
Eu281 Eu 0.14408 0.99316 0.64297 0.0
C282 C 0.15397 0.17313 0.6479 0.0
C283 C 0.16402 0.21105 0.62159 0.0
C284 C 0.15781 0.2747 0.62222 0.0
C285 C 0.14164 0.30208 0.64932 0.0
C286 C 0.13048 0.26384 0.67509 0.0
C287 C 0.13671 0.20025 0.67449 0.0
C288 C 0.1373 0.9324 0.58525 0.0
C289 C 0.05973 0.98216 0.63944 0.0
C290 C 0.09257 0.76098 0.66233 0.0
Eu291 Eu 0.10982 0.87609 0.65289 0.0
C292 C 0.10311 0.69583 0.65925 0.0
C293 C 0.09479 0.65562 0.68498 0.0
C294 C 0.10267 0.59299 0.68312 0.0
C295 C 0.1196 0.56891 0.65559 0.0
C296 C 0.12822 0.60936 0.62975 0.0
C297 C 0.12014 0.67245 0.63159 0.0
C298 C 0.11625 0.94792 0.70794 0.0
C299 C 0.18829 0.87144 0.6438 0.0
O300 O 0.15422 0.07358 0.67349 0.0
O301 O 0.16673 0.07657 0.62164 0.0
O302 O 0.1639 0.9637 0.59381 0.0
O303 O 0.11466 0.93515 0.60746 0.0
O304 O 0.08689 1.01777 0.64405 0.0
O305 O 0.06249 0.92198 0.63813 0.0
O306 O 0.08456 0.79204 0.63588 0.0
O307 O 0.10879 0.79426 0.68388 0.0
O308 O 0.08855 0.92093 0.6989 0.0
O309 O 0.1393 0.93683 0.68728 0.0
O310 O 0.15988 0.84797 0.63335 0.0
O311 O 0.1889 0.92918 0.65453 0.0
H312 H 0.17768 0.19179 0.60091 0.0
H313 H 0.16674 0.30284 0.60199 0.0
H314 H 0.11723 0.28321 0.69598 0.0
H315 H 0.12869 0.1727 0.6953 0.0
H316 H 0.08159 0.67261 0.7065 0.0
H317 H 0.09482 0.56316 0.70306 0.0
H318 H 0.14131 0.59223 0.60822 0.0
H319 H 0.127 0.70268 0.61146 0.0
C320 C 0.58827 0.80574 0.1605 0.0
Eu321 Eu 0.60831 0.69151 0.15624 0.0
C322 C 0.60118 0.86987 0.15891 0.0
C323 C 0.60054 0.90604 0.18748 0.0
C324 C 0.60947 0.96833 0.18642 0.0
C325 C 0.61964 0.99604 0.15678 0.0
C326 C 0.62077 0.95965 0.12819 0.0
C327 C 0.61165 0.89715 0.12922 0.0
C328 C 0.61342 0.61512 0.20934 0.0
C329 C 0.69015 0.6924 0.14997 0.0
C330 C 0.666 0.45637 0.16043 0.0
Eu331 Eu 0.64571 0.56747 0.14546 0.0
C332 C 0.65647 0.39039 0.157 0.0
C333 C 0.66157 0.35718 0.12771 0.0
C334 C 0.65519 0.29346 0.12658 0.0
C335 C 0.64395 0.26184 0.15475 0.0
C336 C 0.63773 0.29556 0.18354 0.0
C337 C 0.64406 0.35886 0.18469 0.0
C338 C 0.63162 0.61336 0.085 0.0
C339 C 0.56191 0.57954 0.13953 0.0
O340 O 0.58676 0.77357 0.13329 0.0
O341 O 0.59772 0.77277 0.18579 0.0
O342 O 0.58641 0.64591 0.20165 0.0
O343 O 0.63667 0.62635 0.1887 0.0
O344 O 0.66148 0.72291 0.14984 0.0
O345 O 0.69173 0.63113 0.15023 0.0
O346 O 0.64627 0.48989 0.17906 0.0
O347 O 0.67737 0.48669 0.1348 0.0
O348 O 0.64721 0.56169 0.0902 0.0
O349 O 0.62406 0.63881 0.11213 0.0
O350 O 0.5889 0.54455 0.1456 0.0
O351 O 0.56403 0.63991 0.13747 0.0
H352 H 0.59221 0.88647 0.21061 0.0
H353 H 0.60738 0.9952 0.20873 0.0
H354 H 0.62855 0.9796 0.10498 0.0
H355 H 0.6123 0.87062 0.10671 0.0
H356 H 0.67113 0.38001 0.10593 0.0
H357 H 0.66007 0.26857 0.10401 0.0
H358 H 0.6283 0.27279 0.20541 0.0
H359 H 0.63988 0.38302 0.20762 0.0
C360 C 0.38432 0.25551 0.16987 0.0
Eu361 Eu 0.3747 0.37182 0.15756 0.0
C362 C 0.37262 0.1927 0.16133 0.0
C363 C 0.34624 0.16513 0.17939 0.0
C364 C 0.3386 0.10278 0.17536 0.0
C365 C 0.35669 0.06662 0.15272 0.0
C366 C 0.38232 0.09474 0.13385 0.0
C367 C 0.39033 0.15702 0.13824 0.0
C368 C 0.36939 0.44678 0.21122 0.0
C369 C 0.29798 0.37253 0.14004 0.0
C370 C 0.32075 0.60467 0.16168 0.0
Eu371 Eu 0.34153 0.4942 0.14665 0.0
C372 C 0.32807 0.67074 0.15555 0.0
C373 C 0.30738 0.70583 0.13462 0.0
C374 C 0.31205 0.76966 0.13188 0.0
C375 C 0.33703 0.79987 0.15058 0.0
C376 C 0.3582 0.76443 0.17086 0.0
C377 C 0.35386 0.70075 0.17326 0.0
C378 C 0.35483 0.45197 0.08562 0.0
C379 C 0.42543 0.47546 0.14124 0.0
O380 O 0.40263 0.28641 0.14851 0.0
O381 O 0.36288 0.29033 0.18592 0.0
O382 O 0.39661 0.41772 0.20275 0.0
O383 O 0.34636 0.43631 0.19047 0.0
O384 O 0.32725 0.35081 0.13071 0.0
O385 O 0.29629 0.42868 0.15279 0.0
O386 O 0.34359 0.574 0.17826 0.0
O387 O 0.30681 0.57173 0.13827 0.0
O388 O 0.33965 0.50356 0.09184 0.0
O389 O 0.36197 0.42317 0.11189 0.0
O390 O 0.39927 0.51317 0.14676 0.0
O391 O 0.42151 0.41539 0.13966 0.0
H392 H 0.33242 0.19095 0.1978 0.0
H393 H 0.31954 0.08246 0.19116 0.0
H394 H 0.39673 0.06821 0.11616 0.0
H395 H 0.41108 0.17666 0.12428 0.0
H396 H 0.28718 0.68417 0.12081 0.0
H397 H 0.29594 0.7953 0.11528 0.0
H398 H 0.37757 0.78614 0.18573 0.0
H399 H 0.37015 0.67543 0.18987 0.0
C400 C 0.58733 0.2557 0.3738 0.0
Eu401 Eu 0.60773 0.36998 0.37608 0.0
C402 C 0.6003 0.19161 0.37454 0.0
C403 C 0.59648 0.15467 0.3465 0.0
C404 C 0.60544 0.0924 0.3471 0.0
C405 C 0.61883 0.06551 0.3757 0.0
C406 C 0.62315 0.10269 0.4037 0.0
C407 C 0.61401 0.16517 0.40315 0.0
C408 C 0.6122 0.44507 0.3223 0.0
C409 C 0.68989 0.3692 0.38044 0.0
C410 C 0.66548 0.60551 0.37074 0.0
Eu411 Eu 0.64556 0.4942 0.38592 0.0
C412 C 0.65592 0.6714 0.37462 0.0
C413 C 0.66403 0.70546 0.40296 0.0
C414 C 0.65763 0.76914 0.40427 0.0
C415 C 0.64335 0.79989 0.37719 0.0
C416 C 0.63416 0.76534 0.34946 0.0
C417 C 0.64052 0.70209 0.34812 0.0
C418 C 0.63203 0.44849 0.4466 0.0
C419 C 0.5619 0.48293 0.39318 0.0
O420 O 0.58819 0.28815 0.40093 0.0
O421 O 0.5946 0.28839 0.34772 0.0
O422 O 0.58562 0.41326 0.33041 0.0
O423 O 0.63572 0.43497 0.34284 0.0
O424 O 0.6612 0.33861 0.38012 0.0
O425 O 0.69149 0.43049 0.38091 0.0
O426 O 0.64526 0.57205 0.35264 0.0
O427 O 0.67755 0.57499 0.39596 0.0
O428 O 0.64817 0.49957 0.44119 0.0
O429 O 0.62411 0.42334 0.41954 0.0
O430 O 0.58897 0.51758 0.38691 0.0
O431 O 0.56372 0.42249 0.39513 0.0
H432 H 0.58563 0.17362 0.32425 0.0
H433 H 0.60089 0.0649 0.32536 0.0
H434 H 0.63346 0.08337 0.42609 0.0
H435 H 0.61718 0.19234 0.42524 0.0
H436 H 0.67598 0.68334 0.42379 0.0
H437 H 0.66485 0.79469 0.42602 0.0
H438 H 0.6224 0.78745 0.32851 0.0
H439 H 0.63402 0.67737 0.32588 0.0
C440 C 0.38725 0.80771 0.36456 0.0
Eu441 Eu 0.37561 0.69209 0.37714 0.0
C442 C 0.3769 0.87212 0.36972 0.0
C443 C 0.37616 0.91063 0.34213 0.0
C444 C 0.36779 0.97268 0.34518 0.0
C445 C 0.35941 0.99766 0.37593 0.0
C446 C 0.35999 0.959 0.40376 0.0
C447 C 0.36858 0.8964 0.40067 0.0
C448 C 0.37094 0.61763 0.32313 0.0
C449 C 0.29808 0.69084 0.39227 0.0
C450 C 0.32181 0.45854 0.37144 0.0
Eu451 Eu 0.34209 0.56886 0.38743 0.0
C452 C 0.32867 0.39197 0.37563 0.0
C453 C 0.32461 0.36097 0.40575 0.0
C454 C 0.32936 0.29685 0.40754 0.0
C455 C 0.33792 0.26303 0.37924 0.0
C456 C 0.34301 0.29461 0.34956 0.0
C457 C 0.33826 0.35816 0.34776 0.0
C458 C 0.35464 0.61139 0.4486 0.0
C459 C 0.42586 0.58738 0.39312 0.0
O460 O 0.40262 0.77766 0.38824 0.0
O461 O 0.36635 0.77347 0.3476 0.0
O462 O 0.39785 0.64734 0.33185 0.0
O463 O 0.34768 0.62739 0.34385 0.0
O464 O 0.32703 0.71351 0.40191 0.0
O465 O 0.29682 0.63404 0.38023 0.0
O466 O 0.34495 0.48957 0.35541 0.0
O467 O 0.30803 0.49015 0.39548 0.0
O468 O 0.33922 0.56005 0.44225 0.0
O469 O 0.36208 0.63997 0.42232 0.0
O470 O 0.3997 0.54968 0.38777 0.0
O471 O 0.42218 0.64749 0.39486 0.0
H472 H 0.38259 0.89275 0.31806 0.0
H473 H 0.36852 1.00142 0.32342 0.0
H474 H 0.35365 0.97711 0.42777 0.0
H475 H 0.36885 0.86731 0.4223 0.0
H476 H 0.31732 0.38591 0.42768 0.0
H477 H 0.32546 0.27347 0.43075 0.0
H478 H 0.35038 0.26997 0.32754 0.0
H479 H 0.34162 0.38092 0.32427 0.0
C480 C 0.32001 0.60418 0.86985 0.0
Eu481 Eu 0.34048 0.49436 0.88637 0.0
C482 C 0.32629 0.6708 0.87385 0.0
C483 C 0.32857 0.69973 0.90467 0.0
C484 C 0.33338 0.7638 0.9066 0.0
C485 C 0.33571 0.79948 0.87781 0.0
C486 C 0.33438 0.76994 0.8472 0.0
C487 C 0.32961 0.7064 0.84528 0.0
C488 C 0.35269 0.45121 0.94748 0.0
C489 C 0.42407 0.47494 0.89324 0.0
C490 C 0.38628 0.25455 0.86439 0.0
Eu491 Eu 0.37382 0.37001 0.87652 0.0
C492 C 0.37477 0.19058 0.86956 0.0
C493 C 0.36622 0.1557 0.8418 0.0
C494 C 0.35782 0.09357 0.84475 0.0
C495 C 0.35726 0.06487 0.87567 0.0
C496 C 0.36552 0.09992 0.90364 0.0
C497 C 0.3742 0.16241 0.90064 0.0
C498 C 0.36929 0.44506 0.82274 0.0
C499 C 0.29561 0.37296 0.89077 0.0
O500 O 0.34343 0.57354 0.85401 0.0
O501 O 0.30637 0.57274 0.89406 0.0
O502 O 0.33774 0.5031 0.94131 0.0
O503 O 0.36003 0.42302 0.92113 0.0
O504 O 0.39818 0.5128 0.88696 0.0
O505 O 0.41999 0.4149 0.89517 0.0
O506 O 0.4006 0.28473 0.88863 0.0
O507 O 0.36664 0.28911 0.84623 0.0
O508 O 0.3965 0.41623 0.83148 0.0
O509 O 0.34611 0.43453 0.84337 0.0
O510 O 0.3242 0.34754 0.89965 0.0
O511 O 0.29497 0.43013 0.8792 0.0
H512 H 0.32636 0.67313 0.92709 0.0
H513 H 0.33455 0.78564 0.93049 0.0
H514 H 0.33691 0.79611 0.82466 0.0
H515 H 0.32824 0.68496 0.82128 0.0
H516 H 0.36688 0.17623 0.81753 0.0
H517 H 0.3527 0.06763 0.82259 0.0
H518 H 0.36538 0.07894 0.92778 0.0
H519 H 0.38084 0.18824 0.92246 0.0
C520 C 0.66404 0.45443 0.8712 0.0
Eu521 Eu 0.64423 0.56569 0.88629 0.0
C522 C 0.6549 0.38849 0.87578 0.0
C523 C 0.66395 0.35529 0.90414 0.0
C524 C 0.65767 0.29165 0.90621 0.0
C525 C 0.64222 0.26009 0.87999 0.0
C526 C 0.63265 0.29365 0.85201 0.0
C527 C 0.63897 0.35688 0.84991 0.0
C528 C 0.63111 0.61223 0.94686 0.0
C529 C 0.56061 0.5783 0.89365 0.0
C530 C 0.58691 0.80423 0.87194 0.0
Eu531 Eu 0.60696 0.69005 0.87586 0.0
C532 C 0.59961 0.86827 0.87402 0.0
C533 C 0.59425 0.90778 0.84726 0.0
C534 C 0.60308 0.97003 0.84912 0.0
C535 C 0.61757 0.99436 0.87785 0.0
C536 C 0.6241 0.95424 0.90431 0.0
C537 C 0.6151 0.89176 0.90248 0.0
C538 C 0.61169 0.61353 0.82272 0.0
C539 C 0.68888 0.69013 0.88055 0.0
O540 O 0.64313 0.48722 0.85344 0.0
O541 O 0.67675 0.48559 0.89591 0.0
O542 O 0.64651 0.56039 0.9416 0.0
O543 O 0.62328 0.6374 0.91975 0.0
O544 O 0.58743 0.54308 0.88726 0.0
O545 O 0.56283 0.63869 0.89531 0.0
O546 O 0.58517 0.77157 0.89899 0.0
O547 O 0.5968 0.77195 0.84656 0.0
O548 O 0.58471 0.64442 0.83052 0.0
O549 O 0.63494 0.62492 0.84323 0.0
O550 O 0.66034 0.72102 0.88162 0.0
O551 O 0.69021 0.62886 0.88009 0.0
H552 H 0.67655 0.37805 0.9244 0.0
H553 H 0.66582 0.26687 0.9279 0.0
H554 H 0.62049 0.27082 0.83151 0.0
H555 H 0.63194 0.38087 0.82759 0.0
H556 H 0.58241 0.89075 0.82505 0.0
H557 H 0.59764 0.99954 0.82832 0.0
H558 H 0.63607 0.97114 0.92645 0.0
H559 H 0.61985 0.86223 0.92343 0.0
C560 C 0.31942 0.45545 0.66369 0.0
Eu561 Eu 0.33925 0.56613 0.64748 0.0
C562 C 0.32759 0.38919 0.66005 0.0
C563 C 0.32771 0.35859 0.62959 0.0
C564 C 0.33481 0.29514 0.62801 0.0
C565 C 0.34198 0.26147 0.65678 0.0
C566 C 0.34143 0.29239 0.68707 0.0
C567 C 0.33456 0.35538 0.68862 0.0
C568 C 0.35141 0.61179 0.5867 0.0
C569 C 0.42302 0.58 0.63885 0.0
C570 C 0.39428 0.80524 0.66429 0.0
Eu571 Eu 0.37662 0.69034 0.65707 0.0
C572 C 0.38121 0.86898 0.6613 0.0
C573 C 0.37592 0.90341 0.69005 0.0
C574 C 0.36775 0.96589 0.68837 0.0
C575 C 0.36499 0.99566 0.65787 0.0
C576 C 0.3685 0.96074 0.62899 0.0
C577 C 0.37666 0.89786 0.63067 0.0
C578 C 0.37116 0.61482 0.71053 0.0
C579 C 0.29556 0.69042 0.65089 0.0
O580 O 0.34125 0.48793 0.68053 0.0
O581 O 0.30649 0.48596 0.63884 0.0
O582 O 0.33511 0.56097 0.59244 0.0
O583 O 0.35981 0.63745 0.61348 0.0
O584 O 0.39625 0.5447 0.64564 0.0
O585 O 0.42086 0.64041 0.63725 0.0
O586 O 0.40055 0.7736 0.63752 0.0
O587 O 0.38122 0.7716 0.68778 0.0
O588 O 0.39854 0.64418 0.70242 0.0
O589 O 0.34815 0.62641 0.68993 0.0
O590 O 0.32411 0.7195 0.64529 0.0
O591 O 0.29399 0.62986 0.6555 0.0
H592 H 0.32232 0.38346 0.60713 0.0
H593 H 0.33495 0.27252 0.60431 0.0
H594 H 0.34576 0.2677 0.7098 0.0
H595 H 0.33429 0.37773 0.71243 0.0
H596 H 0.37914 0.88241 0.714 0.0
H597 H 0.36441 0.99138 0.71101 0.0
H598 H 0.36632 0.98261 0.60517 0.0
H599 H 0.38044 0.87252 0.60805 0.0
C600 C 0.66275 0.60498 0.66079 0.0
Eu601 Eu 0.64294 0.49392 0.64535 0.0
C602 C 0.65384 0.67105 0.65701 0.0
C603 C 0.6625 0.70511 0.62877 0.0
C604 C 0.65672 0.76895 0.6276 0.0
C605 C 0.6425 0.79974 0.6547 0.0
C606 C 0.63281 0.76523 0.68233 0.0
C607 C 0.63861 0.70185 0.68355 0.0
C608 C 0.63106 0.44752 0.58471 0.0
C609 C 0.55961 0.47762 0.63778 0.0
C610 C 0.58794 0.25492 0.66156 0.0
Eu611 Eu 0.60761 0.36913 0.65601 0.0
C612 C 0.60043 0.19083 0.65983 0.0
C613 C 0.59584 0.15268 0.68728 0.0
C614 C 0.60471 0.09049 0.68607 0.0
C615 C 0.61881 0.06501 0.65742 0.0
C616 C 0.62383 0.10338 0.62995 0.0
C617 C 0.61478 0.16587 0.63114 0.0
C618 C 0.61181 0.44582 0.70914 0.0
C619 C 0.68902 0.37084 0.64985 0.0
O620 O 0.64197 0.57179 0.67856 0.0
O621 O 0.67509 0.57456 0.63564 0.0
O622 O 0.6461 0.49961 0.59027 0.0
O623 O 0.62313 0.42137 0.61158 0.0
O624 O 0.5856 0.51495 0.64426 0.0
O625 O 0.56343 0.41772 0.63548 0.0
O626 O 0.58545 0.28658 0.63425 0.0
O627 O 0.59864 0.28805 0.68628 0.0
O628 O 0.58478 0.41548 0.70098 0.0
O629 O 0.63512 0.43472 0.68865 0.0
O630 O 0.66077 0.33916 0.64849 0.0
O631 O 0.68967 0.43212 0.65114 0.0
H632 H 0.6744 0.68285 0.60795 0.0
H633 H 0.66433 0.79454 0.60596 0.0
H634 H 0.6211 0.78745 0.70328 0.0
H635 H 0.63179 0.67709 0.70572 0.0
H636 H 0.58456 0.17074 0.70957 0.0
H637 H 0.59966 0.06198 0.70736 0.0
H638 H 0.63468 0.08502 0.60756 0.0
H639 H 0.61861 0.19424 0.60955 0.0
C640 C 0.22087 0.28256 0.16856 0.0
C641 C 0.22173 0.22932 0.14857 0.0
C642 C 0.24439 0.33066 0.1647 0.0
C643 C 0.26964 0.32749 0.14052 0.0
H644 H 0.20118 0.2877 0.18693 0.0
H645 H 0.24312 0.36986 0.18114 0.0
S646 S 0.28221 0.1992 0.08101 0.0
N647 N 0.2496 0.17681 0.10354 0.0
N648 N 0.2936 0.26708 0.09564 0.0
C649 C 0.27071 0.2744 0.1203 0.0
C650 C 0.24698 0.22519 0.12458 0.0
C651 C 0.7447 0.83152 0.16713 0.0
C652 C 0.76765 0.83131 0.14084 0.0
C653 C 0.72146 0.78299 0.17126 0.0
C654 C 0.72047 0.73229 0.1495 0.0
H655 H 0.7453 0.86834 0.18508 0.0
H656 H 0.70352 0.78567 0.19139 0.0
S657 S 0.77407 0.71188 0.07567 0.0
N658 N 0.78711 0.77751 0.09187 0.0
N659 N 0.74364 0.68637 0.10007 0.0
C660 C 0.74321 0.73165 0.12312 0.0
C661 C 0.7666 0.78129 0.11864 0.0
C662 C 0.24414 0.73065 0.36708 0.0
C663 C 0.2695 0.73544 0.39106 0.0
C664 C 0.22047 0.77835 0.36258 0.0
C665 C 0.22152 0.83293 0.38146 0.0
H666 H 0.24285 0.69043 0.35137 0.0
H667 H 0.20056 0.77193 0.34459 0.0
S668 S 0.28164 0.86695 0.44867 0.0
N669 N 0.29313 0.79837 0.43511 0.0
N670 N 0.24917 0.88795 0.42569 0.0
C671 C 0.2467 0.83846 0.40538 0.0
C672 C 0.27042 0.78962 0.41047 0.0
C673 C 0.7449 0.22977 0.36532 0.0
C674 C 0.76703 0.23033 0.39227 0.0
C675 C 0.72187 0.27829 0.36024 0.0
C676 C 0.72025 0.32942 0.38166 0.0
H677 H 0.74591 0.19251 0.34764 0.0
H678 H 0.70454 0.27518 0.33968 0.0
S679 S 0.77152 0.3513 0.4568 0.0
N680 N 0.78511 0.28549 0.44127 0.0
N681 N 0.74187 0.37622 0.43145 0.0
C682 C 0.74221 0.33056 0.40861 0.0
C683 C 0.76543 0.28103 0.41401 0.0
C684 C 0.72054 0.77952 0.8581 0.0
C685 C 0.71944 0.72931 0.88021 0.0
C686 C 0.74446 0.82716 0.8614 0.0
C687 C 0.76792 0.82656 0.88722 0.0
H688 H 0.70223 0.78247 0.83835 0.0
H689 H 0.7451 0.86366 0.84323 0.0
S690 S 0.77388 0.70854 0.95328 0.0
N691 N 0.74287 0.68359 0.92952 0.0
N692 N 0.7874 0.77327 0.93638 0.0
C693 C 0.76662 0.77714 0.90985 0.0
C694 C 0.74262 0.72833 0.90614 0.0
C695 C 0.26194 0.28957 0.91683 0.0
C696 C 0.26618 0.33091 0.89037 0.0
C697 C 0.2397 0.23915 0.91481 0.0
C698 C 0.22156 0.22729 0.88592 0.0
H699 H 0.2763 0.29594 0.93924 0.0
H700 H 0.23606 0.21026 0.93622 0.0
S701 S 0.22383 0.31999 0.80945 0.0
N702 N 0.25048 0.35578 0.83427 0.0
N703 N 0.20884 0.26067 0.83042 0.0
C704 C 0.22566 0.26786 0.85926 0.0
C705 C 0.24786 0.31981 0.86147 0.0
C706 C 0.72059 0.2812 0.67165 0.0
C707 C 0.71985 0.33234 0.65016 0.0
C708 C 0.74422 0.23334 0.66783 0.0
C709 C 0.76797 0.23472 0.64221 0.0
H710 H 0.70202 0.27745 0.69118 0.0
H711 H 0.74434 0.19588 0.68545 0.0
S712 S 0.77567 0.35634 0.57818 0.0
N713 N 0.74426 0.38029 0.60181 0.0
N714 N 0.78873 0.2907 0.59434 0.0
C715 C 0.76741 0.28555 0.62044 0.0
C716 C 0.74348 0.33441 0.62454 0.0
C717 C 0.21556 0.77293 0.62668 0.0
C718 C 0.21718 0.82776 0.64558 0.0
C719 C 0.23933 0.72539 0.63033 0.0
C720 C 0.26576 0.73097 0.65293 0.0
H721 H 0.19566 0.76649 0.6087 0.0
H722 H 0.23787 0.68548 0.61438 0.0
S723 S 0.28165 0.86285 0.70893 0.0
N724 N 0.24743 0.8833 0.68827 0.0
N725 N 0.29233 0.79409 0.69492 0.0
C726 C 0.26763 0.78486 0.67221 0.0
C727 C 0.24346 0.83338 0.66849 0.0
C728 C 0.14583 1.02655 0.28603 0.0
C729 C 0.11902 0.98459 0.29155 0.0
C730 C 0.14599 0.06632 0.25842 0.0
C731 C 0.11957 0.06494 0.23517 0.0
H732 H 0.16649 1.02956 0.30335 0.0
H733 H 0.1663 0.09961 0.25582 0.0
S734 S 0.04799 0.95418 0.23405 0.0
N735 N 0.06808 0.93875 0.26858 0.0
N736 N 0.06929 1.01117 0.2168 0.0
C737 C 0.09421 1.02017 0.2392 0.0
C738 C 0.09376 0.98051 0.26727 0.0
C739 C 0.83922 1.02529 0.29023 0.0
C740 C 0.85891 0.07961 0.29129 0.0
C741 C 0.84038 0.98532 0.26283 0.0
C742 C 0.8595 1.00039 0.23474 0.0
H743 H 0.82335 1.01275 0.3107 0.0
H744 H 0.82676 0.94195 0.26388 0.0
S745 S 0.90231 0.15015 0.21991 0.0
N746 N 0.89078 0.1532 0.25881 0.0
N747 N 0.88966 0.0821 0.2064 0.0
C748 C 0.87503 0.05867 0.23385 0.0
C749 C 0.87533 0.09753 0.26222 0.0
C750 C 0.8387 0.05433 0.7549 0.0
C751 C 0.86882 0.07014 0.73817 0.0
C752 C 0.8391 1.01375 0.7822 0.0
C753 C 0.86957 0.98684 0.79338 0.0
H754 H 0.81485 0.07451 0.74734 0.0
H755 H 0.81548 1.00354 0.79465 0.0
S756 S 0.95489 1.01036 0.75655 0.0
N757 N 0.92948 0.05327 0.73397 0.0
N758 N 0.93035 0.97806 0.7845 0.0
C759 C 0.89956 1.00148 0.77622 0.0
C760 C 0.89915 0.04272 0.74885 0.0
C761 C 0.08865 0.05066 0.77879 0.0
C762 C 0.11915 0.07111 0.79298 0.0
C763 C 0.08835 1.01096 0.75158 0.0
C764 C 0.11854 0.99028 0.73683 0.0
H765 H 0.06454 0.06529 0.78887 0.0
H766 H 0.06402 0.99686 0.74183 0.0
S767 S 0.20556 1.03001 0.76429 0.0
N768 N 0.18067 0.0669 0.79039 0.0
N769 N 0.18013 0.99347 0.73857 0.0
C770 C 0.14941 1.0104 0.7506 0.0
C771 C 0.1497 0.0503 0.77885 0.0
C772 C 0.64345 0.51804 0.28307 0.0
C773 C 0.61361 0.4867 0.29269 0.0
C774 C 0.64391 0.5581 0.25548 0.0
C775 C 0.6145 0.56862 0.2366 0.0
H776 H 0.66653 0.51202 0.29706 0.0
H777 H 0.66716 0.58215 0.24943 0.0
S778 S 0.53127 0.4923 0.24858 0.0
N779 N 0.55478 0.46583 0.27891 0.0
N780 N 0.55582 0.54001 0.22782 0.0
C781 C 0.58506 0.53594 0.24529 0.0
C782 C 0.58458 0.49533 0.27305 0.0
C783 C 0.33955 0.54439 0.28456 0.0
C784 C 0.36942 0.57588 0.29378 0.0
C785 C 0.339 0.50409 0.25715 0.0
C786 C 0.3684 0.49336 0.23825 0.0
H787 H 0.31657 0.5504 0.29876 0.0
H788 H 0.31574 0.47997 0.25129 0.0
S789 S 0.45182 0.56917 0.2497 0.0
N790 N 0.4283 0.59629 0.27988 0.0
N791 N 0.42718 0.5214 0.22918 0.0
C792 C 0.39791 0.52598 0.24666 0.0
C793 C 0.39844 0.56692 0.27417 0.0
C794 C 0.39842 0.51259 0.78176 0.0
C795 C 0.36788 0.4892 0.7946 0.0
C796 C 0.39888 0.55296 0.7548 0.0
C797 C 0.36884 0.5714 0.73901 0.0
H798 H 0.42239 0.49986 0.79277 0.0
H799 H 0.4232 0.5695 0.74611 0.0
S800 S 0.28187 0.52255 0.76243 0.0
N801 N 0.30654 0.48747 0.78938 0.0
N802 N 0.30739 0.56242 0.73816 0.0
C803 C 0.33796 0.5482 0.75142 0.0
C804 C 0.33748 0.5075 0.77934 0.0
C805 C 0.58322 0.55098 0.77895 0.0
C806 C 0.61353 0.57013 0.79409 0.0
C807 C 0.58323 0.51123 0.75167 0.0
C808 C 0.61357 0.48921 0.73775 0.0
H809 H 0.55902 0.56654 0.78841 0.0
H810 H 0.55907 0.49795 0.74125 0.0
S811 S 0.70018 0.52517 0.76774 0.0
N812 N 0.67502 0.56327 0.79308 0.0
N813 N 0.67506 0.48981 0.74129 0.0
C814 C 0.64422 0.50823 0.75238 0.0
C815 C 0.64419 0.54816 0.78066 0.0
C816 C 0.09882 0.11905 0.99801 0.0
C817 C 0.12779 0.13617 0.97996 0.0
C818 C 0.09888 0.11968 0.03266 0.0
C819 C 0.12791 0.13743 0.05037 0.0
H820 H 0.07714 0.09961 0.98541 0.0
H821 H 0.07728 0.1005 0.04559 0.0
S822 S 0.20962 0.18853 1.01463 0.0
N823 N 0.18555 0.1739 0.98239 0.0
N824 N 0.18569 0.17501 0.04717 0.0
C825 C 0.15614 0.15839 0.03252 0.0
C826 C 0.15608 0.15776 0.99739 0.0
C827 C 0.84567 0.87245 0.9977 0.0
C828 C 0.85829 0.92293 0.9798 0.0
C829 C 0.84593 0.87246 0.03225 0.0
C830 C 0.85886 0.92291 0.0499 0.0
H831 H 0.83373 0.83436 0.98497 0.0
H832 H 0.83407 0.83449 0.0452 0.0
S833 S 0.8938 0.06709 1.0145 0.0
N834 N 0.88384 1.02474 0.98219 0.0
N835 N 0.8843 1.02477 0.04699 0.0
C836 C 0.8726 0.97273 0.03225 0.0
C837 C 0.87232 0.97273 0.99717 0.0
C838 C 0.14781 0.87622 0.49805 0.0
C839 C 0.13068 0.92139 0.47971 0.0
C840 C 0.14752 0.87718 0.53259 0.0
C841 C 0.13013 0.92339 0.54996 0.0
H842 H 0.16299 0.84177 0.4856 0.0
H843 H 0.16248 0.84343 0.5458 0.0
S844 S 0.08324 0.05465 0.51348 0.0
N845 N 0.09671 1.01473 0.48147 0.0
N846 N 0.09622 1.01652 0.54629 0.0
C847 C 0.11226 0.96807 0.53193 0.0
C848 C 0.11253 0.96708 0.49679 0.0
C849 C 0.88864 0.1167 0.53535 0.0
C850 C 0.85949 0.13482 0.55276 0.0
C851 C 0.88911 0.11647 0.50077 0.0
C852 C 0.86046 0.13433 0.48261 0.0
H853 H 0.91 0.09721 0.54844 0.0
H854 H 0.91083 0.09683 0.48827 0.0
S855 S 0.77846 0.1875 0.51663 0.0
N856 N 0.80195 0.17332 0.54931 0.0
N857 N 0.80281 0.17275 0.48456 0.0
C858 C 0.83205 0.15618 0.49977 0.0
C859 C 0.83157 0.15643 0.53484 0.0
C860 C 0.5983 0.60555 0.03343 0.0
C861 C 0.6242 0.63511 0.05122 0.0
C862 C 0.5982 0.60519 0.99881 0.0
C863 C 0.624 0.63436 0.98063 0.0
H864 H 0.5797 0.57777 0.04631 0.0
H865 H 0.57951 0.57717 0.98627 0.0
S866 S 0.69715 0.71923 1.01534 0.0
N867 N 0.67569 0.69587 0.04794 0.0
N868 N 0.67549 0.69521 0.98308 0.0
C869 C 0.64888 0.66711 0.9981 0.0
C870 C 0.64898 0.66748 0.03333 0.0
C871 C 0.38689 0.44569 0.99872 0.0
C872 C 0.35746 0.42889 0.98142 0.0
C873 C 0.38745 0.44584 0.03333 0.0
C874 C 0.3586 0.42915 0.05165 0.0
H875 H 0.40854 0.46403 0.98553 0.0
H876 H 0.4095 0.46432 0.04574 0.0
S877 S 0.27596 0.37879 0.01793 0.0
N878 N 0.29948 0.39248 0.98513 0.0
N879 N 0.30054 0.39263 0.04991 0.0
C880 C 0.32986 0.40857 0.03456 0.0
C881 C 0.32929 0.40848 0.99948 0.0
C882 C 0.6563 0.40869 0.49846 0.0
C883 C 0.6272 0.42431 0.48035 0.0
C884 C 0.65607 0.40843 0.53299 0.0
C885 C 0.62674 0.42379 0.55085 0.0
H886 H 0.68024 0.40197 0.48589 0.0
H887 H 0.67985 0.40154 0.54577 0.0
S888 S 0.5436 0.46644 0.51527 0.0
N889 N 0.56789 0.45332 0.48291 0.0
N890 N 0.56747 0.45285 0.54781 0.0
C891 C 0.5969 0.43571 0.5331 0.0
C892 C 0.59713 0.43596 0.49784 0.0
C893 C 0.32655 0.64676 0.53434 0.0
C894 C 0.3559 0.63541 0.5529 0.0
C895 C 0.32732 0.64649 0.49988 0.0
C896 C 0.35748 0.63472 0.4826 0.0
H897 H 0.3022 0.65059 0.54652 0.0
H898 H 0.30357 0.65025 0.48669 0.0
S899 S 0.44161 0.60459 0.51949 0.0
N900 N 0.41633 0.61477 0.55144 0.0
N901 N 0.41777 0.6142 0.48653 0.0
C902 C 0.38747 0.62733 0.50075 0.0
C903 C 0.38669 0.62769 0.53598 0.0
C904 C 0.98143 0.99811 0.11296 0.0
C905 C 0.9603 1.00894 0.14027 0.0
C906 C 0.01511 1.0196 0.11239 0.0
C907 C 0.02837 0.0526 0.1391 0.0
H908 H 0.97183 0.97295 0.09196 0.0
H909 H 0.03062 1.01125 0.09088 0.0
S910 S 0.98508 0.08526 0.2179 0.0
N911 N 0.9569 0.04666 0.19614 0.0
N912 N 0.01839 0.09332 0.19375 0.0
C913 C 0.00757 0.06309 0.16649 0.0
C914 C 0.97395 0.03942 0.16749 0.0
C915 C 0.96589 1.00145 0.39667 0.0
C916 C 0.96032 0.06438 0.39055 0.0
C917 C -0.00129 0.97678 0.39686 0.0
C918 C 0.02743 1.01392 0.39076 0.0
H919 H 0.94474 0.97078 0.40135 0.0
H920 H 0.0014 0.92787 0.40158 0.0
S921 S 0.0269 0.18162 0.37275 0.0
N922 N 0.98659 0.16361 0.37795 0.0
N923 N 0.04804 0.11687 0.37823 0.0
C924 C 0.0223 0.07701 0.38477 0.0
C925 C 0.98885 0.10231 0.38469 0.0
C926 C 0.02088 0.99951 0.90163 0.0
C927 C 0.02708 0.05946 0.8901 0.0
C928 C 0.98799 0.97491 0.90177 0.0
C929 C 0.96008 1.0092 0.89016 0.0
H930 H 0.04153 0.97149 0.91079 0.0
H931 H 0.98453 0.92846 0.911 0.0
S932 S 0.96323 0.16654 0.85459 0.0
N933 N 0.00277 0.15163 0.86516 0.0
N934 N 0.94124 0.10491 0.86514 0.0
C935 C 0.96603 0.06894 0.87818 0.0
C936 C -0.00056 0.09418 0.8782 0.0
C937 C 0.98683 0.09525 0.64811 0.0
C938 C 0.95842 0.0599 0.63885 0.0
C939 C 0.01961 0.07036 0.64742 0.0
C940 C 0.02525 1.00927 0.63732 0.0
H941 H 0.98371 0.14211 0.6568 0.0
H942 H 0.04052 0.0988 0.65565 0.0
S943 S 0.95939 0.89974 0.60743 0.0
N944 N 0.93812 0.96256 0.6172 0.0
N945 N -0.00053 0.91531 0.61559 0.0
C946 C -0.00298 0.9741 0.62696 0.0
C947 C 0.96369 0.99951 0.62784 0.0
C948 C 0.4658 0.56437 0.1365 0.0
C949 C 0.46049 0.50049 0.13911 0.0
C950 C 0.49861 0.58923 0.13578 0.0
C951 C 0.5276 0.5513 0.13786 0.0
H952 H 0.44445 0.59567 0.13521 0.0
H953 H 0.50108 0.63889 0.13415 0.0
S954 S 0.52796 0.38076 0.14511 0.0
N955 N 0.48746 0.39943 0.1437 0.0
N956 N 0.54877 0.4465 0.1424 0.0
C957 C 0.52272 0.48731 0.14017 0.0
C958 C 0.48933 0.46184 0.14079 0.0
C959 C 0.46659 0.50133 0.4045 0.0
C960 C 0.46082 0.56243 0.39456 0.0
C961 C 0.49946 0.4766 0.40497 0.0
C962 C 0.52784 0.51189 0.39524 0.0
H963 H 0.44558 0.47233 0.41196 0.0
H964 H 0.50249 0.42909 0.41265 0.0
S965 S 0.52617 0.67375 0.36554 0.0
N966 N 0.48624 0.65746 0.37397 0.0
N967 N 0.54764 0.61085 0.37465 0.0
C968 C 0.52236 0.57317 0.38533 0.0
C969 C 0.48898 0.59845 0.38501 0.0
C970 C 0.46456 0.56361 0.89793 0.0
C971 C 0.45916 0.49971 0.89567 0.0
C972 C 0.4974 0.58833 0.89828 0.0
C973 C 0.52632 0.55023 0.89619 0.0
H974 H 0.44326 0.59505 0.89906 0.0
H975 H 0.49995 0.63802 0.8995 0.0
S976 S 0.52644 0.37945 0.89077 0.0
N977 N 0.48596 0.39837 0.89208 0.0
N978 N 0.54734 0.44517 0.89275 0.0
C979 C 0.52136 0.48617 0.89463 0.0
C980 C 0.48792 0.46085 0.89437 0.0
C981 C 0.4859 0.58965 0.63037 0.0
C982 C 0.45724 0.55191 0.63587 0.0
C983 C 0.51884 0.56529 0.63046 0.0
C984 C 0.5245 0.50217 0.63576 0.0
H985 H 0.48307 0.63882 0.6266 0.0
H986 H 0.54 0.59633 0.62663 0.0
S987 S 0.45807 0.38314 0.65095 0.0
N988 N 0.43684 0.44797 0.64628 0.0
N989 N 0.49832 0.40195 0.64641 0.0
C990 C 0.49598 0.46359 0.64058 0.0
C991 C 0.46251 0.48851 0.64062 0.0
C992 C 0.10798 0.66698 0.15725 0.0
C993 C 0.14018 0.69089 0.14942 0.0
C994 C 0.10204 0.60334 0.15842 0.0
C995 C 0.12798 0.56059 0.15172 0.0
H996 H 0.08705 0.69773 0.16251 0.0
H997 H 0.07678 0.58748 0.16457 0.0
S998 S 0.21719 0.59862 0.13104 0.0
N999 N 0.19868 0.66635 0.13565 0.0
N1000 N 0.18731 0.54661 0.13745 0.0
C1001 C 0.16025 0.58362 0.14353 0.0
C1002 C 0.16639 0.64868 0.14249 0.0
C1003 C 0.8691 0.39953 0.17181 0.0
C1004 C 0.8486 0.37291 0.14735 0.0
C1005 C 0.87393 0.4636 0.17356 0.0
C1006 C 0.85842 0.50396 0.15097 0.0
H1007 H 0.88187 0.37054 0.18958 0.0
H1008 H 0.8903 0.48161 0.19261 0.0
S1009 S 0.79997 0.45838 0.08394 0.0
N1010 N 0.81109 0.39247 0.10116 0.0
N1011 N 0.82026 0.51269 0.10443 0.0
C1012 C 0.83754 0.47808 0.12662 0.0
C1013 C 0.8326 0.41276 0.12484 0.0
C1014 C 0.14125 0.40392 0.3566 0.0
C1015 C 0.13455 0.37015 0.38546 0.0
C1016 C 0.13624 0.46802 0.35523 0.0
C1017 C 0.12429 0.50122 0.38264 0.0
H1018 H 0.15087 0.38075 0.33496 0.0
H1019 H 0.14204 0.49184 0.33252 0.0
S1020 S 0.10049 0.43403 0.46333 0.0
N1021 N 0.11383 0.37451 0.44164 0.0
N1022 N 0.10425 0.4946 0.43902 0.0
C1023 C 0.11719 0.46792 0.41155 0.0
C1024 C 0.12234 0.40264 0.41296 0.0
C1025 C 0.82534 0.59078 0.36526 0.0
C1026 C 0.85049 0.56231 0.38445 0.0
C1027 C 0.82032 0.65454 0.36631 0.0
C1028 C 0.84017 0.69249 0.38665 0.0
H1029 H 0.80964 0.56362 0.34893 0.0
H1030 H 0.80094 0.67442 0.35074 0.0
S1031 S 0.90972 0.64112 0.44133 0.0
N1032 N 0.89568 0.57699 0.42423 0.0
N1033 N 0.88601 0.69721 0.42636 0.0
C1034 C 0.86495 0.66465 0.40649 0.0
C1035 C 0.87015 0.5995 0.40535 0.0
C1036 C 0.86047 0.40057 0.90763 0.0
C1037 C 0.84909 0.36738 0.88001 0.0
C1038 C 0.86537 0.4648 0.90636 0.0
C1039 C 0.859 0.49848 0.87743 0.0
H1040 H 0.8663 0.37652 0.93025 0.0
H1041 H 0.87505 0.48798 0.92795 0.0
S1042 S 0.82485 0.43475 0.79957 0.0
N1043 N 0.8289 0.37407 0.82375 0.0
N1044 N 0.83794 0.49431 0.82138 0.0
C1045 C 0.84654 0.46611 0.85 0.0
C1046 C 0.84165 0.40081 0.85127 0.0
C1047 C 0.10871 0.60429 0.86138 0.0
C1048 C 0.12976 0.56361 0.87888 0.0
C1049 C 0.11395 0.66805 0.86237 0.0
C1050 C 0.14059 0.69385 0.88078 0.0
H1051 H 0.08796 0.58665 0.84672 0.0
H1052 H 0.09703 0.6974 0.84844 0.0
S1053 S 0.20369 0.60695 0.92997 0.0
N1054 N 0.1785 0.55322 0.91481 0.0
N1055 N 0.18878 0.67336 0.91635 0.0
C1056 C 0.16171 0.65369 0.89862 0.0
C1057 C 0.15621 0.58855 0.89774 0.0
C1058 C 0.82544 0.65752 0.67403 0.0
C1059 C 0.84221 0.69517 0.651 0.0
C1060 C 0.83048 0.59365 0.67469 0.0
C1061 C 0.85261 0.56462 0.65241 0.0
H1062 H 0.80837 0.67768 0.6919 0.0
H1063 H 0.81713 0.56682 0.69306 0.0
S1064 S 0.90327 0.64249 0.58767 0.0
N1065 N 0.88196 0.6989 0.60542 0.0
N1066 N 0.89178 0.57868 0.60685 0.0
C1067 C 0.86919 0.60155 0.6289 0.0
C1068 C 0.86392 0.66679 0.62816 0.0
C1069 C 0.1246 0.40343 0.62383 0.0
C1070 C 0.13718 0.37043 0.65103 0.0
C1071 C 0.11968 0.46763 0.6252 0.0
C1072 C 0.12722 0.50148 0.65379 0.0
H1073 H 0.11784 0.37927 0.60151 0.0
H1074 H 0.10908 0.49067 0.60396 0.0
S1075 S 0.16467 0.43819 0.73037 0.0
N1076 N 0.15969 0.37742 0.70645 0.0
N1077 N 0.1506 0.49759 0.70899 0.0
C1078 C 0.14085 0.46926 0.68077 0.0
C1079 C 0.14576 0.404 0.6794 0.0
C1080 C 0.6144 0.10076 0.1305 0.0
C1081 C 0.62778 0.06322 0.15561 0.0
C1082 C 0.6202 0.16473 0.12997 0.0
C1083 C 0.63942 0.19364 0.15463 0.0
H1084 H 0.59861 0.08083 0.11153 0.0
H1085 H 0.60884 0.19195 0.11058 0.0
S1086 S 0.68321 0.11558 0.22373 0.0
N1087 N 0.66348 0.05937 0.20421 0.0
N1088 N 0.67397 0.17929 0.20341 0.0
C1089 C 0.65373 0.15646 0.17932 0.0
C1090 C 0.648 0.09143 0.17977 0.0
C1091 C 0.37365 0.8943 0.14854 0.0
C1092 C 0.34101 0.86814 0.14958 0.0
C1093 C 0.37835 0.95828 0.14913 0.0
C1094 C 0.35061 0.99898 0.15046 0.0
H1095 H 0.39588 0.86508 0.14739 0.0
H1096 H 0.40405 0.97586 0.14921 0.0
S1097 S 0.25981 0.95427 0.15332 0.0
N1098 N 0.28042 0.88808 0.15271 0.0
N1099 N 0.28918 1.00843 0.15183 0.0
C1100 C 0.31777 0.97355 0.151 0.0
C1101 C 0.31299 0.90823 0.15092 0.0
C1102 C 0.61644 0.96151 0.40314 0.0
C1103 C 0.62705 0.99839 0.37652 0.0
C1104 C 0.62228 0.89757 0.40354 0.0
C1105 C 0.63877 0.86805 0.37724 0.0
H1106 H 0.60276 0.98193 0.42348 0.0
H1107 H 0.61308 0.87084 0.42419 0.0
S1108 S 0.67488 0.94435 0.30344 0.0
N1109 N 0.65733 1.00103 0.32448 0.0
N1110 N 0.6679 0.88117 0.32507 0.0
C1111 C 0.65034 0.9046 0.35095 0.0
C1112 C 0.64457 0.96959 0.35061 0.0
C1113 C 0.36699 0.10142 0.40244 0.0
C1114 C 0.3511 0.06435 0.3786 0.0
C1115 C 0.36193 0.16556 0.40319 0.0
C1116 C 0.34091 0.19478 0.38005 0.0
H1117 H 0.38437 0.08103 0.41991 0.0
H1118 H 0.37541 0.19268 0.42129 0.0
S1119 S 0.29022 0.11779 0.31526 0.0
N1120 N 0.31103 0.06111 0.33328 0.0
N1121 N 0.30186 0.18132 0.33452 0.0
C1122 C 0.32388 0.15795 0.35695 0.0
C1123 C 0.32888 0.09287 0.35627 0.0
C1124 C 0.36512 0.89492 0.8978 0.0
C1125 C 0.33917 0.86754 0.87922 0.0
C1126 C 0.37028 0.95898 0.89724 0.0
C1127 C 0.34951 0.9979 0.87823 0.0
H1128 H 0.38224 0.86644 0.91202 0.0
H1129 H 0.39136 0.9779 0.91095 0.0
S1130 S 0.27542 0.94924 0.82839 0.0
N1131 N 0.29087 0.88432 0.84335 0.0
N1132 N 0.30009 1.00455 0.84269 0.0
C1133 C 0.3226 0.97112 0.8606 0.0
C1134 C 0.31754 0.90603 0.86101 0.0
C1135 C 0.64617 0.15583 0.85363 0.0
C1136 C 0.63699 0.19203 0.88092 0.0
C1137 C 0.64043 0.09203 0.85316 0.0
C1138 C 0.62519 0.06162 0.87994 0.0
H1139 H 0.65799 0.17699 0.8324 0.0
H1140 H 0.64802 0.0663 0.83158 0.0
S1141 S 0.59483 0.13575 0.95669 0.0
N1142 N 0.61111 0.19303 0.93507 0.0
N1143 N 0.59999 0.07319 0.93413 0.0
C1144 C 0.61594 0.09723 0.90744 0.0
C1145 C 0.62191 0.16231 0.90794 0.0
C1146 C 0.33436 0.08982 0.63737 0.0
C1147 C 0.36028 0.0636 0.65651 0.0
C1148 C 0.32897 0.15392 0.63702 0.0
C1149 C 0.34944 0.19408 0.65563 0.0
H1150 H 0.31765 0.06047 0.62321 0.0
H1151 H 0.30807 0.17197 0.62273 0.0
S1152 S 0.42334 0.14865 0.70658 0.0
N1153 N 0.40825 0.08285 0.69241 0.0
N1154 N 0.39852 0.2029 0.69144 0.0
C1155 C 0.37621 0.16835 0.6739 0.0
C1156 C 0.38153 0.10329 0.6744 0.0
C1157 C 0.62234 0.89806 0.62851 0.0
C1158 C 0.63844 0.86789 0.65479 0.0
C1159 C 0.6167 0.96201 0.62918 0.0
C1160 C 0.62712 0.99812 0.65609 0.0
H1161 H 0.61321 0.87181 0.60769 0.0
H1162 H 0.60327 0.98303 0.60888 0.0
S1163 S 0.67409 0.94224 0.72919 0.0
N1164 N 0.66718 0.87959 0.70719 0.0
N1165 N 0.65691 0.99951 0.70834 0.0
C1166 C 0.64435 0.9687 0.68195 0.0
C1167 C 0.64994 0.90373 0.68132 0.0
loop_
_geom_bond_atom_site_label_1
_geom_bond_atom_site_label_2
_geom_bond_distance
_geom_bond_site_symmetry_2
_ccdc_geom_bond_type
C0 Eu1 2.835 . S
C0 C2 1.500 . S
C0 O20 1.257 . S
C0 O21 1.260 . S
Eu1 C0 2.835 . S
Eu1 O20 2.473 . S
Eu1 O21 2.480 . S
Eu1 O22 2.430 . S
Eu1 O23 2.670 . S
Eu1 O24 2.394 . S
Eu1 O29 2.355 . S
Eu1 O31 2.374 . S
C2 C0 1.500 . S
C2 C3 1.377 . S
C2 C7 1.377 . S
C3 C2 1.377 . S
C3 C4 1.395 . S
C3 H32 0.931 . S
C4 C3 1.395 . S
C4 C5 1.383 . S
C4 H33 0.931 . S
C5 C4 1.383 . S
C5 C6 1.394 . S
C6 C5 1.394 . S
C6 C7 1.378 . S
C6 H34 0.931 . S
C7 C2 1.377 . S
C7 C6 1.378 . S
C7 H35 0.931 . S
C8 O22 1.259 . S
C8 O23 1.270 . S
C9 O24 1.251 . S
C9 O25 1.251 . S
C10 Eu11 2.835 1_565 S
C10 C12 1.500 . S
C10 O26 1.257 . S
C10 O27 1.260 . S
Eu11 C10 2.835 1_545 S
Eu11 O23 2.355 . S
Eu11 O25 2.374 . S
Eu11 O26 2.473 1_545 S
Eu11 O27 2.480 1_545 S
Eu11 O28 2.430 . S
Eu11 O29 2.670 . S
Eu11 O30 2.394 . S
C12 C10 1.500 . S
C12 C13 1.377 . S
C12 C17 1.377 . S
C13 C12 1.377 . S
C13 C14 1.395 . S
C13 H36 0.931 . S
C14 C13 1.395 . S
C14 C15 1.383 . S
C14 H37 0.931 . S
C15 C14 1.383 . S
C15 C16 1.394 . S
C16 C15 1.394 . S
C16 C17 1.378 . S
C16 H38 0.931 . S
C17 C12 1.377 . S
C17 C16 1.378 . S
C17 H39 0.931 . S
C18 O28 1.259 . S
C18 O29 1.270 . S
C19 O30 1.251 . S
C19 O31 1.251 . S
O20 C0 1.257 . S
O20 Eu1 2.473 . S
O21 C0 1.260 . S
O21 Eu1 2.480 . S
O22 Eu1 2.430 . S
O22 C8 1.259 . S
O23 Eu1 2.670 . S
O23 C8 1.270 . S
O23 Eu11 2.355 . S
O24 Eu1 2.394 . S
O24 C9 1.251 . S
O25 C9 1.251 . S
O25 Eu11 2.374 . S
O26 C10 1.257 . S
O26 Eu11 2.473 1_565 S
O27 C10 1.260 . S
O27 Eu11 2.480 1_565 S
O28 Eu11 2.430 . S
O28 C18 1.259 . S
O29 Eu1 2.355 . S
O29 Eu11 2.670 . S
O29 C18 1.270 . S
O30 Eu11 2.394 . S
O30 C19 1.251 . S
O31 Eu1 2.374 . S
O31 C19 1.251 . S
H32 C3 0.931 . S
H33 C4 0.931 . S
H34 C6 0.931 . S
H35 C7 0.931 . S
H36 C13 0.931 . S
H37 C14 0.931 . S
H38 C16 0.931 . S
H39 C17 0.931 . S
C40 Eu41 2.835 . S
C40 C42 1.500 . S
C40 O60 1.257 . S
C40 O61 1.260 . S
Eu41 C40 2.835 . S
Eu41 O60 2.473 . S
Eu41 O61 2.480 . S
Eu41 O62 2.430 . S
Eu41 O63 2.670 . S
Eu41 O64 2.394 . S
Eu41 O69 2.355 . S
Eu41 O71 2.374 . S
C42 C40 1.500 . S
C42 C43 1.377 . S
C42 C47 1.377 . S
C43 C42 1.377 . S
C43 C44 1.395 . S
C43 H72 0.931 . S
C44 C43 1.395 . S
C44 C45 1.383 . S
C44 H73 0.931 . S
C45 C44 1.383 . S
C45 C46 1.394 . S
C46 C45 1.394 . S
C46 C47 1.378 . S
C46 H74 0.931 . S
C47 C42 1.377 . S
C47 C46 1.378 . S
C47 H75 0.931 . S
C48 O62 1.259 . S
C48 O63 1.270 . S
C49 O64 1.251 . S
C49 O65 1.251 . S
C50 Eu51 2.835 1_545 S
C50 C52 1.500 . S
C50 O66 1.257 . S
C50 O67 1.260 . S
Eu51 C50 2.835 1_565 S
Eu51 O63 2.355 . S
Eu51 O65 2.374 . S
Eu51 O66 2.473 1_565 S
Eu51 O67 2.480 1_565 S
Eu51 O68 2.430 . S
Eu51 O69 2.670 . S
Eu51 O70 2.394 . S
C52 C50 1.500 . S
C52 C53 1.377 . S
C52 C57 1.377 . S
C53 C52 1.377 . S
C53 C54 1.395 . S
C53 H76 0.931 . S
C54 C53 1.395 . S
C54 C55 1.383 . S
C54 H77 0.931 . S
C55 C54 1.383 . S
C55 C56 1.394 . S
C56 C55 1.394 . S
C56 C57 1.378 . S
C56 H78 0.931 . S
C57 C52 1.377 . S
C57 C56 1.378 . S
C57 H79 0.931 . S
C58 O68 1.259 . S
C58 O69 1.270 . S
C59 O70 1.251 . S
C59 O71 1.251 . S
O60 C40 1.257 . S
O60 Eu41 2.473 . S
O61 C40 1.260 . S
O61 Eu41 2.480 . S
O62 Eu41 2.430 . S
O62 C48 1.259 . S
O63 Eu41 2.670 . S
O63 C48 1.270 . S
O63 Eu51 2.355 . S
O64 Eu41 2.394 . S
O64 C49 1.251 . S
O65 C49 1.251 . S
O65 Eu51 2.374 . S
O66 C50 1.257 . S
O66 Eu51 2.473 1_545 S
O67 C50 1.260 . S
O67 Eu51 2.480 1_545 S
O68 Eu51 2.430 . S
O68 C58 1.259 . S
O69 Eu41 2.355 . S
O69 Eu51 2.670 . S
O69 C58 1.270 . S
O70 Eu51 2.394 . S
O70 C59 1.251 . S
O71 Eu41 2.374 . S
O71 C59 1.251 . S
H72 C43 0.931 . S
H73 C44 0.931 . S
H74 C46 0.931 . S
H75 C47 0.931 . S
H76 C53 0.931 . S
H77 C54 0.931 . S
H78 C56 0.931 . S
H79 C57 0.931 . S
C80 Eu81 2.835 . S
C80 C82 1.500 . S
C80 O100 1.257 . S
C80 O101 1.260 . S
Eu81 C80 2.835 . S
Eu81 O100 2.473 . S
Eu81 O101 2.480 . S
Eu81 O102 2.430 . S
Eu81 O103 2.670 . S
Eu81 O104 2.394 . S
Eu81 O109 2.355 . S
Eu81 O111 2.374 . S
C82 C80 1.500 . S
C82 C83 1.377 . S
C82 C87 1.377 . S
C83 C82 1.377 . S
C83 C84 1.395 . S
C83 H112 0.931 . S
C84 C83 1.395 . S
C84 C85 1.383 . S
C84 H113 0.931 . S
C85 C84 1.383 . S
C85 C86 1.394 . S
C86 C85 1.394 . S
C86 C87 1.378 . S
C86 H114 0.931 . S
C87 C82 1.377 . S
C87 C86 1.378 . S
C87 H115 0.931 . S
C88 O102 1.259 . S
C88 O103 1.270 . S
C89 O104 1.251 . S
C89 O105 1.251 . S
C90 Eu91 2.835 1_545 S
C90 C92 1.500 . S
C90 O106 1.257 . S
C90 O107 1.260 . S
Eu91 C90 2.835 1_565 S
Eu91 O103 2.355 . S
Eu91 O105 2.374 . S
Eu91 O106 2.473 1_565 S
Eu91 O107 2.480 1_565 S
Eu91 O108 2.430 . S
Eu91 O109 2.670 . S
Eu91 O110 2.394 . S
C92 C90 1.500 . S
C92 C93 1.377 . S
C92 C97 1.377 . S
C93 C92 1.377 . S
C93 C94 1.395 . S
C93 H116 0.931 . S
C94 C93 1.395 . S
C94 C95 1.383 . S
C94 H117 0.931 . S
C95 C94 1.383 . S
C95 C96 1.394 . S
C96 C95 1.394 . S
C96 C97 1.378 . S
C96 H118 0.931 . S
C97 C92 1.377 . S
C97 C96 1.378 . S
C97 H119 0.931 . S
C98 O108 1.259 . S
C98 O109 1.270 . S
C99 O110 1.251 . S
C99 O111 1.251 . S
O100 C80 1.257 . S
O100 Eu81 2.473 . S
O101 C80 1.260 . S
O101 Eu81 2.480 . S
O102 Eu81 2.430 . S
O102 C88 1.259 . S
O103 Eu81 2.670 . S
O103 C88 1.270 . S
O103 Eu91 2.355 . S
O104 Eu81 2.394 . S
O104 C89 1.251 . S
O105 C89 1.251 . S
O105 Eu91 2.374 . S
O106 C90 1.257 . S
O106 Eu91 2.473 1_545 S
O107 C90 1.260 . S
O107 Eu91 2.480 1_545 S
O108 Eu91 2.430 . S
O108 C98 1.259 . S
O109 Eu81 2.355 . S
O109 Eu91 2.670 . S
O109 C98 1.270 . S
O110 Eu91 2.394 . S
O110 C99 1.251 . S
O111 Eu81 2.374 . S
O111 C99 1.251 . S
H112 C83 0.931 . S
H113 C84 0.931 . S
H114 C86 0.931 . S
H115 C87 0.931 . S
H116 C93 0.931 . S
H117 C94 0.931 . S
H118 C96 0.931 . S
H119 C97 0.931 . S
C120 Eu121 2.835 . S
C120 C122 1.500 . S
C120 O140 1.257 . S
C120 O141 1.260 . S
Eu121 C120 2.835 . S
Eu121 O140 2.473 . S
Eu121 O141 2.480 . S
Eu121 O142 2.430 . S
Eu121 O143 2.670 . S
Eu121 O144 2.394 . S
Eu121 O149 2.355 . S
Eu121 O151 2.374 . S
C122 C120 1.500 . S
C122 C123 1.377 . S
C122 C127 1.377 . S
C123 C122 1.377 . S
C123 C124 1.395 . S
C123 H152 0.931 . S
C124 C123 1.395 . S
C124 C125 1.383 . S
C124 H153 0.931 . S
C125 C124 1.383 . S
C125 C126 1.394 . S
C126 C125 1.394 . S
C126 C127 1.378 . S
C126 H154 0.931 . S
C127 C122 1.377 . S
C127 C126 1.378 . S
C127 H155 0.931 . S
C128 O142 1.259 . S
C128 O143 1.270 . S
C129 O144 1.251 . S
C129 O145 1.251 . S
C130 Eu131 2.835 1_565 S
C130 C132 1.500 . S
C130 O146 1.257 . S
C130 O147 1.260 . S
Eu131 C130 2.835 1_545 S
Eu131 O143 2.355 . S
Eu131 O145 2.374 . S
Eu131 O146 2.473 1_545 S
Eu131 O147 2.480 1_545 S
Eu131 O148 2.430 . S
Eu131 O149 2.670 . S
Eu131 O150 2.394 . S
C132 C130 1.500 . S
C132 C133 1.377 . S
C132 C137 1.377 . S
C133 C132 1.377 . S
C133 C134 1.395 . S
C133 H156 0.931 . S
C134 C133 1.395 . S
C134 C135 1.383 . S
C134 H157 0.931 . S
C135 C134 1.383 . S
C135 C136 1.394 . S
C136 C135 1.394 . S
C136 C137 1.378 . S
C136 H158 0.931 . S
C137 C132 1.377 . S
C137 C136 1.378 . S
C137 H159 0.931 . S
C138 O148 1.259 . S
C138 O149 1.270 . S
C139 O150 1.251 . S
C139 O151 1.251 . S
O140 C120 1.257 . S
O140 Eu121 2.473 . S
O141 C120 1.260 . S
O141 Eu121 2.480 . S
O142 Eu121 2.430 . S
O142 C128 1.259 . S
O143 Eu121 2.670 . S
O143 C128 1.270 . S
O143 Eu131 2.355 . S
O144 Eu121 2.394 . S
O144 C129 1.251 . S
O145 C129 1.251 . S
O145 Eu131 2.374 . S
O146 C130 1.257 . S
O146 Eu131 2.473 1_565 S
O147 C130 1.260 . S
O147 Eu131 2.480 1_565 S
O148 Eu131 2.430 . S
O148 C138 1.259 . S
O149 Eu121 2.355 . S
O149 Eu131 2.670 . S
O149 C138 1.270 . S
O150 Eu131 2.394 . S
O150 C139 1.251 . S
O151 Eu121 2.374 . S
O151 C139 1.251 . S
H152 C123 0.931 . S
H153 C124 0.931 . S
H154 C126 0.931 . S
H155 C127 0.931 . S
H156 C133 0.931 . S
H157 C134 0.931 . S
H158 C136 0.931 . S
H159 C137 0.931 . S
C160 Eu161 2.835 1_545 S
C160 C162 1.500 . S
C160 O180 1.257 . S
C160 O181 1.260 . S
Eu161 C160 2.835 1_565 S
Eu161 O180 2.473 1_565 S
Eu161 O181 2.480 1_565 S
Eu161 O182 2.430 . S
Eu161 O183 2.670 . S
Eu161 O184 2.394 . S
Eu161 O189 2.355 . S
Eu161 O191 2.374 . S
C162 C160 1.500 . S
C162 C163 1.377 . S
C162 C167 1.377 . S
C163 C162 1.377 . S
C163 C164 1.395 . S
C163 H192 0.931 . S
C164 C163 1.395 . S
C164 C165 1.383 . S
C164 H193 0.931 . S
C165 C164 1.383 . S
C165 C166 1.394 . S
C166 C165 1.394 . S
C166 C167 1.378 . S
C166 H194 0.931 . S
C167 C162 1.377 . S
C167 C166 1.378 . S
C167 H195 0.931 . S
C168 O182 1.259 . S
C168 O183 1.270 . S
C169 O184 1.251 . S
C169 O185 1.251 . S
C170 Eu171 2.835 . S
C170 C172 1.500 . S
C170 O186 1.257 . S
C170 O187 1.260 . S
Eu171 C170 2.835 . S
Eu171 O183 2.355 . S
Eu171 O185 2.374 . S
Eu171 O186 2.473 . S
Eu171 O187 2.480 . S
Eu171 O188 2.430 . S
Eu171 O189 2.670 . S
Eu171 O190 2.394 . S
C172 C170 1.500 . S
C172 C173 1.377 . S
C172 C177 1.377 . S
C173 C172 1.377 . S
C173 C174 1.395 . S
C173 H196 0.931 . S
C174 C173 1.395 . S
C174 C175 1.383 . S
C174 H197 0.931 . S
C175 C174 1.383 . S
C175 C176 1.394 . S
C176 C175 1.394 . S
C176 C177 1.378 . S
C176 H198 0.931 . S
C177 C172 1.377 . S
C177 C176 1.378 . S
C177 H199 0.931 . S
C178 O188 1.259 . S
C178 O189 1.270 . S
C179 O190 1.251 . S
C179 O191 1.251 . S
O180 C160 1.257 . S
O180 Eu161 2.473 1_545 S
O181 C160 1.260 . S
O181 Eu161 2.480 1_545 S
O182 Eu161 2.430 . S
O182 C168 1.259 . S
O183 Eu161 2.670 . S
O183 C168 1.270 . S
O183 Eu171 2.355 . S
O184 Eu161 2.394 . S
O184 C169 1.251 . S
O185 C169 1.251 . S
O185 Eu171 2.374 . S
O186 C170 1.257 . S
O186 Eu171 2.473 . S
O187 C170 1.260 . S
O187 Eu171 2.480 . S
O188 Eu171 2.430 . S
O188 C178 1.259 . S
O189 Eu161 2.355 . S
O189 Eu171 2.670 . S
O189 C178 1.270 . S
O190 Eu171 2.394 . S
O190 C179 1.251 . S
O191 Eu161 2.374 . S
O191 C179 1.251 . S
H192 C163 0.931 . S
H193 C164 0.931 . S
H194 C166 0.931 . S
H195 C167 0.931 . S
H196 C173 0.931 . S
H197 C174 0.931 . S
H198 C176 0.931 . S
H199 C177 0.931 . S
C200 Eu201 2.835 1_565 S
C200 C202 1.500 . S
C200 O220 1.257 . S
C200 O221 1.260 . S
Eu201 C200 2.835 1_545 S
Eu201 O220 2.473 1_545 S
Eu201 O221 2.480 1_545 S
Eu201 O222 2.430 . S
Eu201 O223 2.670 . S
Eu201 O224 2.394 . S
Eu201 O229 2.355 . S
Eu201 O231 2.374 . S
C202 C200 1.500 . S
C202 C203 1.377 . S
C202 C207 1.377 . S
C203 C202 1.377 . S
C203 C204 1.395 . S
C203 H232 0.931 . S
C204 C203 1.395 . S
C204 C205 1.383 . S
C204 H233 0.931 . S
C205 C204 1.383 . S
C205 C206 1.394 . S
C206 C205 1.394 . S
C206 C207 1.378 . S
C206 H234 0.931 . S
C207 C202 1.377 . S
C207 C206 1.378 . S
C207 H235 0.931 . S
C208 O222 1.259 . S
C208 O223 1.270 . S
C209 O224 1.251 . S
C209 O225 1.251 . S
C210 Eu211 2.835 . S
C210 C212 1.500 . S
C210 O226 1.257 . S
C210 O227 1.260 . S
Eu211 C210 2.835 . S
Eu211 O223 2.355 . S
Eu211 O225 2.374 . S
Eu211 O226 2.473 . S
Eu211 O227 2.480 . S
Eu211 O228 2.430 . S
Eu211 O229 2.670 . S
Eu211 O230 2.394 . S
C212 C210 1.500 . S
C212 C213 1.377 . S
C212 C217 1.377 . S
C213 C212 1.377 . S
C213 C214 1.395 . S
C213 H236 0.931 . S
C214 C213 1.395 . S
C214 C215 1.383 . S
C214 H237 0.931 . S
C215 C214 1.383 . S
C215 C216 1.394 . S
C216 C215 1.394 . S
C216 C217 1.378 . S
C216 H238 0.931 . S
C217 C212 1.377 . S
C217 C216 1.378 . S
C217 H239 0.931 . S
C218 O228 1.259 . S
C218 O229 1.270 . S
C219 O230 1.251 . S
C219 O231 1.251 . S
O220 C200 1.257 . S
O220 Eu201 2.473 1_565 S
O221 C200 1.260 . S
O221 Eu201 2.480 1_565 S
O222 Eu201 2.430 . S
O222 C208 1.259 . S
O223 Eu201 2.670 . S
O223 C208 1.270 . S
O223 Eu211 2.355 . S
O224 Eu201 2.394 . S
O224 C209 1.251 . S
O225 C209 1.251 . S
O225 Eu211 2.374 . S
O226 C210 1.257 . S
O226 Eu211 2.473 . S
O227 C210 1.260 . S
O227 Eu211 2.480 . S
O228 Eu211 2.430 . S
O228 C218 1.259 . S
O229 Eu201 2.355 . S
O229 Eu211 2.670 . S
O229 C218 1.270 . S
O230 Eu211 2.394 . S
O230 C219 1.251 . S
O231 Eu201 2.374 . S
O231 C219 1.251 . S
H232 C203 0.931 . S
H233 C204 0.931 . S
H234 C206 0.931 . S
H235 C207 0.931 . S
H236 C213 0.931 . S
H237 C214 0.931 . S
H238 C216 0.931 . S
H239 C217 0.931 . S
C240 Eu241 2.835 1_565 S
C240 C242 1.500 . S
C240 O260 1.257 . S
C240 O261 1.260 . S
Eu241 C240 2.835 1_545 S
Eu241 O260 2.473 1_545 S
Eu241 O261 2.480 1_545 S
Eu241 O262 2.430 . S
Eu241 O263 2.670 . S
Eu241 O264 2.394 . S
Eu241 O269 2.355 . S
Eu241 O271 2.374 . S
C242 C240 1.500 . S
C242 C243 1.377 . S
C242 C247 1.377 . S
C243 C242 1.377 . S
C243 C244 1.395 . S
C243 H272 0.931 . S
C244 C243 1.395 . S
C244 C245 1.383 . S
C244 H273 0.931 . S
C245 C244 1.383 . S
C245 C246 1.394 . S
C246 C245 1.394 . S
C246 C247 1.378 . S
C246 H274 0.931 . S
C247 C242 1.377 . S
C247 C246 1.378 . S
C247 H275 0.931 . S
C248 O262 1.259 . S
C248 O263 1.270 . S
C249 O264 1.251 . S
C249 O265 1.251 . S
C250 Eu251 2.835 . S
C250 C252 1.500 . S
C250 O266 1.257 . S
C250 O267 1.260 . S
Eu251 C250 2.835 . S
Eu251 O263 2.355 . S
Eu251 O265 2.374 . S
Eu251 O266 2.473 . S
Eu251 O267 2.480 . S
Eu251 O268 2.430 . S
Eu251 O269 2.670 . S
Eu251 O270 2.394 . S
C252 C250 1.500 . S
C252 C253 1.377 . S
C252 C257 1.377 . S
C253 C252 1.377 . S
C253 C254 1.395 . S
C253 H276 0.931 . S
C254 C253 1.395 . S
C254 C255 1.383 . S
C254 H277 0.931 . S
C255 C254 1.383 . S
C255 C256 1.394 . S
C256 C255 1.394 . S
C256 C257 1.378 . S
C256 H278 0.931 . S
C257 C252 1.377 . S
C257 C256 1.378 . S
C257 H279 0.931 . S
C258 O268 1.259 . S
C258 O269 1.270 . S
C259 O270 1.251 . S
C259 O271 1.251 . S
O260 C240 1.257 . S
O260 Eu241 2.473 1_565 S
O261 C240 1.260 . S
O261 Eu241 2.480 1_565 S
O262 Eu241 2.430 . S
O262 C248 1.259 . S
O263 Eu241 2.670 . S
O263 C248 1.270 . S
O263 Eu251 2.355 . S
O264 Eu241 2.394 . S
O264 C249 1.251 . S
O265 C249 1.251 . S
O265 Eu251 2.374 . S
O266 C250 1.257 . S
O266 Eu251 2.473 . S
O267 C250 1.260 . S
O267 Eu251 2.480 . S
O268 Eu251 2.430 . S
O268 C258 1.259 . S
O269 Eu241 2.355 . S
O269 Eu251 2.670 . S
O269 C258 1.270 . S
O270 Eu251 2.394 . S
O270 C259 1.251 . S
O271 Eu241 2.374 . S
O271 C259 1.251 . S
H272 C243 0.931 . S
H273 C244 0.931 . S
H274 C246 0.931 . S
H275 C247 0.931 . S
H276 C253 0.931 . S
H277 C254 0.931 . S
H278 C256 0.931 . S
H279 C257 0.931 . S
C280 Eu281 2.835 1_545 S
C280 C282 1.500 . S
C280 O300 1.257 . S
C280 O301 1.260 . S
Eu281 C280 2.835 1_565 S
Eu281 O300 2.473 1_565 S
Eu281 O301 2.480 1_565 S
Eu281 O302 2.430 . S
Eu281 O303 2.670 . S
Eu281 O304 2.394 . S
Eu281 O309 2.355 . S
Eu281 O311 2.374 . S
C282 C280 1.500 . S
C282 C283 1.377 . S
C282 C287 1.377 . S
C283 C282 1.377 . S
C283 C284 1.395 . S
C283 H312 0.931 . S
C284 C283 1.395 . S
C284 C285 1.383 . S
C284 H313 0.931 . S
C285 C284 1.383 . S
C285 C286 1.394 . S
C286 C285 1.394 . S
C286 C287 1.378 . S
C286 H314 0.931 . S
C287 C282 1.377 . S
C287 C286 1.378 . S
C287 H315 0.931 . S
C288 O302 1.259 . S
C288 O303 1.270 . S
C289 O304 1.251 . S
C289 O305 1.251 . S
C290 Eu291 2.835 . S
C290 C292 1.500 . S
C290 O306 1.257 . S
C290 O307 1.260 . S
Eu291 C290 2.835 . S
Eu291 O303 2.355 . S
Eu291 O305 2.374 . S
Eu291 O306 2.473 . S
Eu291 O307 2.480 . S
Eu291 O308 2.430 . S
Eu291 O309 2.670 . S
Eu291 O310 2.394 . S
C292 C290 1.500 . S
C292 C293 1.377 . S
C292 C297 1.377 . S
C293 C292 1.377 . S
C293 C294 1.395 . S
C293 H316 0.931 . S
C294 C293 1.395 . S
C294 C295 1.383 . S
C294 H317 0.931 . S
C295 C294 1.383 . S
C295 C296 1.394 . S
C296 C295 1.394 . S
C296 C297 1.378 . S
C296 H318 0.931 . S
C297 C292 1.377 . S
C297 C296 1.378 . S
C297 H319 0.931 . S
C298 O308 1.259 . S
C298 O309 1.270 . S
C299 O310 1.251 . S
C299 O311 1.251 . S
O300 C280 1.257 . S
O300 Eu281 2.473 1_545 S
O301 C280 1.260 . S
O301 Eu281 2.480 1_545 S
O302 Eu281 2.430 . S
O302 C288 1.259 . S
O303 Eu281 2.670 . S
O303 C288 1.270 . S
O303 Eu291 2.355 . S
O304 Eu281 2.394 . S
O304 C289 1.251 . S
O305 C289 1.251 . S
O305 Eu291 2.374 . S
O306 C290 1.257 . S
O306 Eu291 2.473 . S
O307 C290 1.260 . S
O307 Eu291 2.480 . S
O308 Eu291 2.430 . S
O308 C298 1.259 . S
O309 Eu281 2.355 . S
O309 Eu291 2.670 . S
O309 C298 1.270 . S
O310 Eu291 2.394 . S
O310 C299 1.251 . S
O311 Eu281 2.374 . S
O311 C299 1.251 . S
H312 C283 0.931 . S
H313 C284 0.931 . S
H314 C286 0.931 . S
H315 C287 0.931 . S
H316 C293 0.931 . S
H317 C294 0.931 . S
H318 C296 0.931 . S
H319 C297 0.931 . S
C320 Eu321 2.835 . S
C320 C322 1.500 . S
C320 O340 1.257 . S
C320 O341 1.260 . S
Eu321 C320 2.835 . S
Eu321 O340 2.473 . S
Eu321 O341 2.480 . S
Eu321 O342 2.430 . S
Eu321 O343 2.670 . S
Eu321 O344 2.394 . S
Eu321 O349 2.355 . S
Eu321 O351 2.374 . S
C322 C320 1.500 . S
C322 C323 1.377 . S
C322 C327 1.377 . S
C323 C322 1.377 . S
C323 C324 1.395 . S
C323 H352 0.931 . S
C324 C323 1.395 . S
C324 C325 1.383 . S
C324 H353 0.931 . S
C325 C324 1.383 . S
C325 C326 1.394 . S
C326 C325 1.394 . S
C326 C327 1.378 . S
C326 H354 0.931 . S
C327 C322 1.377 . S
C327 C326 1.378 . S
C327 H355 0.931 . S
C328 O342 1.259 . S
C328 O343 1.270 . S
C329 O344 1.251 . S
C329 O345 1.251 . S
C330 Eu331 2.835 . S
C330 C332 1.500 . S
C330 O346 1.257 . S
C330 O347 1.260 . S
Eu331 C330 2.835 . S
Eu331 O343 2.355 . S
Eu331 O345 2.374 . S
Eu331 O346 2.473 . S
Eu331 O347 2.480 . S
Eu331 O348 2.430 . S
Eu331 O349 2.670 . S
Eu331 O350 2.394 . S
C332 C330 1.500 . S
C332 C333 1.377 . S
C332 C337 1.377 . S
C333 C332 1.377 . S
C333 C334 1.395 . S
C333 H356 0.931 . S
C334 C333 1.395 . S
C334 C335 1.383 . S
C334 H357 0.931 . S
C335 C334 1.383 . S
C335 C336 1.394 . S
C336 C335 1.394 . S
C336 C337 1.378 . S
C336 H358 0.931 . S
C337 C332 1.377 . S
C337 C336 1.378 . S
C337 H359 0.931 . S
C338 O348 1.259 . S
C338 O349 1.270 . S
C339 O350 1.251 . S
C339 O351 1.251 . S
O340 C320 1.257 . S
O340 Eu321 2.473 . S
O341 C320 1.260 . S
O341 Eu321 2.480 . S
O342 Eu321 2.430 . S
O342 C328 1.259 . S
O343 Eu321 2.670 . S
O343 C328 1.270 . S
O343 Eu331 2.355 . S
O344 Eu321 2.394 . S
O344 C329 1.251 . S
O345 C329 1.251 . S
O345 Eu331 2.374 . S
O346 C330 1.257 . S
O346 Eu331 2.473 . S
O347 C330 1.260 . S
O347 Eu331 2.480 . S
O348 Eu331 2.430 . S
O348 C338 1.259 . S
O349 Eu321 2.355 . S
O349 Eu331 2.670 . S
O349 C338 1.270 . S
O350 Eu331 2.394 . S
O350 C339 1.251 . S
O351 Eu321 2.374 . S
O351 C339 1.251 . S
H352 C323 0.931 . S
H353 C324 0.931 . S
H354 C326 0.931 . S
H355 C327 0.931 . S
H356 C333 0.931 . S
H357 C334 0.931 . S
H358 C336 0.931 . S
H359 C337 0.931 . S
C360 Eu361 2.835 . S
C360 C362 1.500 . S
C360 O380 1.257 . S
C360 O381 1.260 . S
Eu361 C360 2.835 . S
Eu361 O380 2.473 . S
Eu361 O381 2.480 . S
Eu361 O382 2.430 . S
Eu361 O383 2.670 . S
Eu361 O384 2.394 . S
Eu361 O389 2.355 . S
Eu361 O391 2.374 . S
C362 C360 1.500 . S
C362 C363 1.377 . S
C362 C367 1.377 . S
C363 C362 1.377 . S
C363 C364 1.395 . S
C363 H392 0.931 . S
C364 C363 1.395 . S
C364 C365 1.383 . S
C364 H393 0.931 . S
C365 C364 1.383 . S
C365 C366 1.394 . S
C366 C365 1.394 . S
C366 C367 1.378 . S
C366 H394 0.931 . S
C367 C362 1.377 . S
C367 C366 1.378 . S
C367 H395 0.931 . S
C368 O382 1.259 . S
C368 O383 1.270 . S
C369 O384 1.251 . S
C369 O385 1.251 . S
C370 Eu371 2.835 . S
C370 C372 1.500 . S
C370 O386 1.257 . S
C370 O387 1.260 . S
Eu371 C370 2.835 . S
Eu371 O383 2.355 . S
Eu371 O385 2.374 . S
Eu371 O386 2.473 . S
Eu371 O387 2.480 . S
Eu371 O388 2.430 . S
Eu371 O389 2.670 . S
Eu371 O390 2.394 . S
C372 C370 1.500 . S
C372 C373 1.377 . S
C372 C377 1.377 . S
C373 C372 1.377 . S
C373 C374 1.395 . S
C373 H396 0.931 . S
C374 C373 1.395 . S
C374 C375 1.383 . S
C374 H397 0.931 . S
C375 C374 1.383 . S
C375 C376 1.394 . S
C376 C375 1.394 . S
C376 C377 1.378 . S
C376 H398 0.931 . S
C377 C372 1.377 . S
C377 C376 1.378 . S
C377 H399 0.931 . S
C378 O388 1.259 . S
C378 O389 1.270 . S
C379 O390 1.251 . S
C379 O391 1.251 . S
O380 C360 1.257 . S
O380 Eu361 2.473 . S
O381 C360 1.260 . S
O381 Eu361 2.480 . S
O382 Eu361 2.430 . S
O382 C368 1.259 . S
O383 Eu361 2.670 . S
O383 C368 1.270 . S
O383 Eu371 2.355 . S
O384 Eu361 2.394 . S
O384 C369 1.251 . S
O385 C369 1.251 . S
O385 Eu371 2.374 . S
O386 C370 1.257 . S
O386 Eu371 2.473 . S
O387 C370 1.260 . S
O387 Eu371 2.480 . S
O388 Eu371 2.430 . S
O388 C378 1.259 . S
O389 Eu361 2.355 . S
O389 Eu371 2.670 . S
O389 C378 1.270 . S
O390 Eu371 2.394 . S
O390 C379 1.251 . S
O391 Eu361 2.374 . S
O391 C379 1.251 . S
H392 C363 0.931 . S
H393 C364 0.931 . S
H394 C366 0.931 . S
H395 C367 0.931 . S
H396 C373 0.931 . S
H397 C374 0.931 . S
H398 C376 0.931 . S
H399 C377 0.931 . S
C400 Eu401 2.835 . S
C400 C402 1.500 . S
C400 O420 1.257 . S
C400 O421 1.260 . S
Eu401 C400 2.835 . S
Eu401 O420 2.473 . S
Eu401 O421 2.480 . S
Eu401 O422 2.430 . S
Eu401 O423 2.670 . S
Eu401 O424 2.394 . S
Eu401 O429 2.355 . S
Eu401 O431 2.374 . S
C402 C400 1.500 . S
C402 C403 1.377 . S
C402 C407 1.377 . S
C403 C402 1.377 . S
C403 C404 1.395 . S
C403 H432 0.931 . S
C404 C403 1.395 . S
C404 C405 1.383 . S
C404 H433 0.931 . S
C405 C404 1.383 . S
C405 C406 1.394 . S
C406 C405 1.394 . S
C406 C407 1.378 . S
C406 H434 0.931 . S
C407 C402 1.377 . S
C407 C406 1.378 . S
C407 H435 0.931 . S
C408 O422 1.259 . S
C408 O423 1.270 . S
C409 O424 1.251 . S
C409 O425 1.251 . S
C410 Eu411 2.835 . S
C410 C412 1.500 . S
C410 O426 1.257 . S
C410 O427 1.260 . S
Eu411 C410 2.835 . S
Eu411 O423 2.355 . S
Eu411 O425 2.374 . S
Eu411 O426 2.473 . S
Eu411 O427 2.480 . S
Eu411 O428 2.430 . S
Eu411 O429 2.670 . S
Eu411 O430 2.394 . S
C412 C410 1.500 . S
C412 C413 1.377 . S
C412 C417 1.377 . S
C413 C412 1.377 . S
C413 C414 1.395 . S
C413 H436 0.931 . S
C414 C413 1.395 . S
C414 C415 1.383 . S
C414 H437 0.931 . S
C415 C414 1.383 . S
C415 C416 1.394 . S
C416 C415 1.394 . S
C416 C417 1.378 . S
C416 H438 0.931 . S
C417 C412 1.377 . S
C417 C416 1.378 . S
C417 H439 0.931 . S
C418 O428 1.259 . S
C418 O429 1.270 . S
C419 O430 1.251 . S
C419 O431 1.251 . S
O420 C400 1.257 . S
O420 Eu401 2.473 . S
O421 C400 1.260 . S
O421 Eu401 2.480 . S
O422 Eu401 2.430 . S
O422 C408 1.259 . S
O423 Eu401 2.670 . S
O423 C408 1.270 . S
O423 Eu411 2.355 . S
O424 Eu401 2.394 . S
O424 C409 1.251 . S
O425 C409 1.251 . S
O425 Eu411 2.374 . S
O426 C410 1.257 . S
O426 Eu411 2.473 . S
O427 C410 1.260 . S
O427 Eu411 2.480 . S
O428 Eu411 2.430 . S
O428 C418 1.259 . S
O429 Eu401 2.355 . S
O429 Eu411 2.670 . S
O429 C418 1.270 . S
O430 Eu411 2.394 . S
O430 C419 1.251 . S
O431 Eu401 2.374 . S
O431 C419 1.251 . S
H432 C403 0.931 . S
H433 C404 0.931 . S
H434 C406 0.931 . S
H435 C407 0.931 . S
H436 C413 0.931 . S
H437 C414 0.931 . S
H438 C416 0.931 . S
H439 C417 0.931 . S
C440 Eu441 2.835 . S
C440 C442 1.500 . S
C440 O460 1.257 . S
C440 O461 1.260 . S
Eu441 C440 2.835 . S
Eu441 O460 2.473 . S
Eu441 O461 2.480 . S
Eu441 O462 2.430 . S
Eu441 O463 2.670 . S
Eu441 O464 2.394 . S
Eu441 O469 2.355 . S
Eu441 O471 2.374 . S
C442 C440 1.500 . S
C442 C443 1.377 . S
C442 C447 1.377 . S
C443 C442 1.377 . S
C443 C444 1.395 . S
C443 H472 0.931 . S
C444 C443 1.395 . S
C444 C445 1.383 . S
C444 H473 0.931 . S
C445 C444 1.383 . S
C445 C446 1.394 . S
C446 C445 1.394 . S
C446 C447 1.378 . S
C446 H474 0.931 . S
C447 C442 1.377 . S
C447 C446 1.378 . S
C447 H475 0.931 . S
C448 O462 1.259 . S
C448 O463 1.270 . S
C449 O464 1.251 . S
C449 O465 1.251 . S
C450 Eu451 2.835 . S
C450 C452 1.500 . S
C450 O466 1.257 . S
C450 O467 1.260 . S
Eu451 C450 2.835 . S
Eu451 O463 2.355 . S
Eu451 O465 2.374 . S
Eu451 O466 2.473 . S
Eu451 O467 2.480 . S
Eu451 O468 2.430 . S
Eu451 O469 2.670 . S
Eu451 O470 2.394 . S
C452 C450 1.500 . S
C452 C453 1.377 . S
C452 C457 1.377 . S
C453 C452 1.377 . S
C453 C454 1.395 . S
C453 H476 0.931 . S
C454 C453 1.395 . S
C454 C455 1.383 . S
C454 H477 0.931 . S
C455 C454 1.383 . S
C455 C456 1.394 . S
C456 C455 1.394 . S
C456 C457 1.378 . S
C456 H478 0.931 . S
C457 C452 1.377 . S
C457 C456 1.378 . S
C457 H479 0.931 . S
C458 O468 1.259 . S
C458 O469 1.270 . S
C459 O470 1.251 . S
C459 O471 1.251 . S
O460 C440 1.257 . S
O460 Eu441 2.473 . S
O461 C440 1.260 . S
O461 Eu441 2.480 . S
O462 Eu441 2.430 . S
O462 C448 1.259 . S
O463 Eu441 2.670 . S
O463 C448 1.270 . S
O463 Eu451 2.355 . S
O464 Eu441 2.394 . S
O464 C449 1.251 . S
O465 C449 1.251 . S
O465 Eu451 2.374 . S
O466 C450 1.257 . S
O466 Eu451 2.473 . S
O467 C450 1.260 . S
O467 Eu451 2.480 . S
O468 Eu451 2.430 . S
O468 C458 1.259 . S
O469 Eu441 2.355 . S
O469 Eu451 2.670 . S
O469 C458 1.270 . S
O470 Eu451 2.394 . S
O470 C459 1.251 . S
O471 Eu441 2.374 . S
O471 C459 1.251 . S
H472 C443 0.931 . S
H473 C444 0.931 . S
H474 C446 0.931 . S
H475 C447 0.931 . S
H476 C453 0.931 . S
H477 C454 0.931 . S
H478 C456 0.931 . S
H479 C457 0.931 . S
C480 Eu481 2.835 . S
C480 C482 1.500 . S
C480 O500 1.257 . S
C480 O501 1.260 . S
Eu481 C480 2.835 . S
Eu481 O500 2.473 . S
Eu481 O501 2.480 . S
Eu481 O502 2.430 . S
Eu481 O503 2.670 . S
Eu481 O504 2.394 . S
Eu481 O509 2.355 . S
Eu481 O511 2.374 . S
C482 C480 1.500 . S
C482 C483 1.377 . S
C482 C487 1.377 . S
C483 C482 1.377 . S
C483 C484 1.395 . S
C483 H512 0.931 . S
C484 C483 1.395 . S
C484 C485 1.383 . S
C484 H513 0.931 . S
C485 C484 1.383 . S
C485 C486 1.394 . S
C486 C485 1.394 . S
C486 C487 1.378 . S
C486 H514 0.931 . S
C487 C482 1.377 . S
C487 C486 1.378 . S
C487 H515 0.931 . S
C488 O502 1.259 . S
C488 O503 1.270 . S
C489 O504 1.251 . S
C489 O505 1.251 . S
C490 Eu491 2.835 . S
C490 C492 1.500 . S
C490 O506 1.257 . S
C490 O507 1.260 . S
Eu491 C490 2.835 . S
Eu491 O503 2.355 . S
Eu491 O505 2.374 . S
Eu491 O506 2.473 . S
Eu491 O507 2.480 . S
Eu491 O508 2.430 . S
Eu491 O509 2.670 . S
Eu491 O510 2.394 . S
C492 C490 1.500 . S
C492 C493 1.377 . S
C492 C497 1.377 . S
C493 C492 1.377 . S
C493 C494 1.395 . S
C493 H516 0.931 . S
C494 C493 1.395 . S
C494 C495 1.383 . S
C494 H517 0.931 . S
C495 C494 1.383 . S
C495 C496 1.394 . S
C496 C495 1.394 . S
C496 C497 1.378 . S
C496 H518 0.931 . S
C497 C492 1.377 . S
C497 C496 1.378 . S
C497 H519 0.931 . S
C498 O508 1.259 . S
C498 O509 1.270 . S
C499 O510 1.251 . S
C499 O511 1.251 . S
O500 C480 1.257 . S
O500 Eu481 2.473 . S
O501 C480 1.260 . S
O501 Eu481 2.480 . S
O502 Eu481 2.430 . S
O502 C488 1.259 . S
O503 Eu481 2.670 . S
O503 C488 1.270 . S
O503 Eu491 2.355 . S
O504 Eu481 2.394 . S
O504 C489 1.251 . S
O505 C489 1.251 . S
O505 Eu491 2.374 . S
O506 C490 1.257 . S
O506 Eu491 2.473 . S
O507 C490 1.260 . S
O507 Eu491 2.480 . S
O508 Eu491 2.430 . S
O508 C498 1.259 . S
O509 Eu481 2.355 . S
O509 Eu491 2.670 . S
O509 C498 1.270 . S
O510 Eu491 2.394 . S
O510 C499 1.251 . S
O511 Eu481 2.374 . S
O511 C499 1.251 . S
H512 C483 0.931 . S
H513 C484 0.931 . S
H514 C486 0.931 . S
H515 C487 0.931 . S
H516 C493 0.931 . S
H517 C494 0.931 . S
H518 C496 0.931 . S
H519 C497 0.931 . S
C520 Eu521 2.835 . S
C520 C522 1.500 . S
C520 O540 1.257 . S
C520 O541 1.260 . S
Eu521 C520 2.835 . S
Eu521 O540 2.473 . S
Eu521 O541 2.480 . S
Eu521 O542 2.430 . S
Eu521 O543 2.670 . S
Eu521 O544 2.394 . S
Eu521 O549 2.355 . S
Eu521 O551 2.374 . S
C522 C520 1.500 . S
C522 C523 1.377 . S
C522 C527 1.377 . S
C523 C522 1.377 . S
C523 C524 1.395 . S
C523 H552 0.931 . S
C524 C523 1.395 . S
C524 C525 1.383 . S
C524 H553 0.931 . S
C525 C524 1.383 . S
C525 C526 1.394 . S
C526 C525 1.394 . S
C526 C527 1.378 . S
C526 H554 0.931 . S
C527 C522 1.377 . S
C527 C526 1.378 . S
C527 H555 0.931 . S
C528 O542 1.259 . S
C528 O543 1.270 . S
C529 O544 1.251 . S
C529 O545 1.251 . S
C530 Eu531 2.835 . S
C530 C532 1.500 . S
C530 O546 1.257 . S
C530 O547 1.260 . S
Eu531 C530 2.835 . S
Eu531 O543 2.355 . S
Eu531 O545 2.374 . S
Eu531 O546 2.473 . S
Eu531 O547 2.480 . S
Eu531 O548 2.430 . S
Eu531 O549 2.670 . S
Eu531 O550 2.394 . S
C532 C530 1.500 . S
C532 C533 1.377 . S
C532 C537 1.377 . S
C533 C532 1.377 . S
C533 C534 1.395 . S
C533 H556 0.931 . S
C534 C533 1.395 . S
C534 C535 1.383 . S
C534 H557 0.931 . S
C535 C534 1.383 . S
C535 C536 1.394 . S
C536 C535 1.394 . S
C536 C537 1.378 . S
C536 H558 0.931 . S
C537 C532 1.377 . S
C537 C536 1.378 . S
C537 H559 0.931 . S
C538 O548 1.259 . S
C538 O549 1.270 . S
C539 O550 1.251 . S
C539 O551 1.251 . S
O540 C520 1.257 . S
O540 Eu521 2.473 . S
O541 C520 1.260 . S
O541 Eu521 2.480 . S
O542 Eu521 2.430 . S
O542 C528 1.259 . S
O543 Eu521 2.670 . S
O543 C528 1.270 . S
O543 Eu531 2.355 . S
O544 Eu521 2.394 . S
O544 C529 1.251 . S
O545 C529 1.251 . S
O545 Eu531 2.374 . S
O546 C530 1.257 . S
O546 Eu531 2.473 . S
O547 C530 1.260 . S
O547 Eu531 2.480 . S
O548 Eu531 2.430 . S
O548 C538 1.259 . S
O549 Eu521 2.355 . S
O549 Eu531 2.670 . S
O549 C538 1.270 . S
O550 Eu531 2.394 . S
O550 C539 1.251 . S
O551 Eu521 2.374 . S
O551 C539 1.251 . S
H552 C523 0.931 . S
H553 C524 0.931 . S
H554 C526 0.931 . S
H555 C527 0.931 . S
H556 C533 0.931 . S
H557 C534 0.931 . S
H558 C536 0.931 . S
H559 C537 0.931 . S
C560 Eu561 2.835 . S
C560 C562 1.500 . S
C560 O580 1.257 . S
C560 O581 1.260 . S
Eu561 C560 2.835 . S
Eu561 O580 2.473 . S
Eu561 O581 2.480 . S
Eu561 O582 2.430 . S
Eu561 O583 2.670 . S
Eu561 O584 2.394 . S
Eu561 O589 2.355 . S
Eu561 O591 2.374 . S
C562 C560 1.500 . S
C562 C563 1.377 . S
C562 C567 1.377 . S
C563 C562 1.377 . S
C563 C564 1.395 . S
C563 H592 0.931 . S
C564 C563 1.395 . S
C564 C565 1.383 . S
C564 H593 0.931 . S
C565 C564 1.383 . S
C565 C566 1.394 . S
C566 C565 1.394 . S
C566 C567 1.378 . S
C566 H594 0.931 . S
C567 C562 1.377 . S
C567 C566 1.378 . S
C567 H595 0.931 . S
C568 O582 1.259 . S
C568 O583 1.270 . S
C569 O584 1.251 . S
C569 O585 1.251 . S
C570 Eu571 2.835 . S
C570 C572 1.500 . S
C570 O586 1.257 . S
C570 O587 1.260 . S
Eu571 C570 2.835 . S
Eu571 O583 2.355 . S
Eu571 O585 2.374 . S
Eu571 O586 2.473 . S
Eu571 O587 2.480 . S
Eu571 O588 2.430 . S
Eu571 O589 2.670 . S
Eu571 O590 2.394 . S
C572 C570 1.500 . S
C572 C573 1.377 . S
C572 C577 1.377 . S
C573 C572 1.377 . S
C573 C574 1.395 . S
C573 H596 0.931 . S
C574 C573 1.395 . S
C574 C575 1.383 . S
C574 H597 0.931 . S
C575 C574 1.383 . S
C575 C576 1.394 . S
C576 C575 1.394 . S
C576 C577 1.378 . S
C576 H598 0.931 . S
C577 C572 1.377 . S
C577 C576 1.378 . S
C577 H599 0.931 . S
C578 O588 1.259 . S
C578 O589 1.270 . S
C579 O590 1.251 . S
C579 O591 1.251 . S
O580 C560 1.257 . S
O580 Eu561 2.473 . S
O581 C560 1.260 . S
O581 Eu561 2.480 . S
O582 Eu561 2.430 . S
O582 C568 1.259 . S
O583 Eu561 2.670 . S
O583 C568 1.270 . S
O583 Eu571 2.355 . S
O584 Eu561 2.394 . S
O584 C569 1.251 . S
O585 C569 1.251 . S
O585 Eu571 2.374 . S
O586 C570 1.257 . S
O586 Eu571 2.473 . S
O587 C570 1.260 . S
O587 Eu571 2.480 . S
O588 Eu571 2.430 . S
O588 C578 1.259 . S
O589 Eu561 2.355 . S
O589 Eu571 2.670 . S
O589 C578 1.270 . S
O590 Eu571 2.394 . S
O590 C579 1.251 . S
O591 Eu561 2.374 . S
O591 C579 1.251 . S
H592 C563 0.931 . S
H593 C564 0.931 . S
H594 C566 0.931 . S
H595 C567 0.931 . S
H596 C573 0.931 . S
H597 C574 0.931 . S
H598 C576 0.931 . S
H599 C577 0.931 . S
C600 Eu601 2.835 . S
C600 C602 1.500 . S
C600 O620 1.257 . S
C600 O621 1.260 . S
Eu601 C600 2.835 . S
Eu601 O620 2.473 . S
Eu601 O621 2.480 . S
Eu601 O622 2.430 . S
Eu601 O623 2.670 . S
Eu601 O624 2.394 . S
Eu601 O629 2.355 . S
Eu601 O631 2.374 . S
C602 C600 1.500 . S
C602 C603 1.377 . S
C602 C607 1.377 . S
C603 C602 1.377 . S
C603 C604 1.395 . S
C603 H632 0.931 . S
C604 C603 1.395 . S
C604 C605 1.383 . S
C604 H633 0.931 . S
C605 C604 1.383 . S
C605 C606 1.394 . S
C606 C605 1.394 . S
C606 C607 1.378 . S
C606 H634 0.931 . S
C607 C602 1.377 . S
C607 C606 1.378 . S
C607 H635 0.931 . S
C608 O622 1.259 . S
C608 O623 1.270 . S
C609 O624 1.251 . S
C609 O625 1.251 . S
C610 Eu611 2.835 . S
C610 C612 1.500 . S
C610 O626 1.257 . S
C610 O627 1.260 . S
Eu611 C610 2.835 . S
Eu611 O623 2.355 . S
Eu611 O625 2.374 . S
Eu611 O626 2.473 . S
Eu611 O627 2.480 . S
Eu611 O628 2.430 . S
Eu611 O629 2.670 . S
Eu611 O630 2.394 . S
C612 C610 1.500 . S
C612 C613 1.377 . S
C612 C617 1.377 . S
C613 C612 1.377 . S
C613 C614 1.395 . S
C613 H636 0.931 . S
C614 C613 1.395 . S
C614 C615 1.383 . S
C614 H637 0.931 . S
C615 C614 1.383 . S
C615 C616 1.394 . S
C616 C615 1.394 . S
C616 C617 1.378 . S
C616 H638 0.931 . S
C617 C612 1.377 . S
C617 C616 1.378 . S
C617 H639 0.931 . S
C618 O628 1.259 . S
C618 O629 1.270 . S
C619 O630 1.251 . S
C619 O631 1.251 . S
O620 C600 1.257 . S
O620 Eu601 2.473 . S
O621 C600 1.260 . S
O621 Eu601 2.480 . S
O622 Eu601 2.430 . S
O622 C608 1.259 . S
O623 Eu601 2.670 . S
O623 C608 1.270 . S
O623 Eu611 2.355 . S
O624 Eu601 2.394 . S
O624 C609 1.251 . S
O625 C609 1.251 . S
O625 Eu611 2.374 . S
O626 C610 1.257 . S
O626 Eu611 2.473 . S
O627 C610 1.260 . S
O627 Eu611 2.480 . S
O628 Eu611 2.430 . S
O628 C618 1.259 . S
O629 Eu601 2.355 . S
O629 Eu611 2.670 . S
O629 C618 1.270 . S
O630 Eu611 2.394 . S
O630 C619 1.251 . S
O631 Eu601 2.374 . S
O631 C619 1.251 . S
H632 C603 0.931 . S
H633 C604 0.931 . S
H634 C606 0.931 . S
H635 C607 0.931 . S
H636 C613 0.931 . S
H637 C614 0.931 . S
H638 C616 0.931 . S
H639 C617 0.931 . S
C640 C641 1.369 . S
C640 C642 1.419 . S
C640 H644 0.930 . S
C641 C640 1.369 . S
C641 C650 1.429 . S
C642 C640 1.419 . S
C642 C643 1.363 . S
C642 H645 0.929 . S
C643 C642 1.363 . S
C643 C649 1.428 . S
H644 C640 0.930 . S
H645 C642 0.929 . S
S646 N647 1.613 . S
S646 N648 1.610 . S
N647 S646 1.613 . S
N647 C650 1.350 . S
N648 S646 1.610 . S
N648 C649 1.351 . S
C649 C643 1.428 . S
C649 N648 1.351 . S
C649 C650 1.434 . S
C650 C641 1.429 . S
C650 N647 1.350 . S
C650 C649 1.434 . S
C651 C652 1.369 . S
C651 C653 1.419 . S
C651 H655 0.930 . S
C652 C651 1.369 . S
C652 C661 1.429 . S
C653 C651 1.419 . S
C653 C654 1.363 . S
C653 H656 0.929 . S
C654 C653 1.363 . S
C654 C660 1.428 . S
H655 C651 0.930 . S
H656 C653 0.929 . S
S657 N658 1.613 . S
S657 N659 1.610 . S
N658 S657 1.613 . S
N658 C661 1.350 . S
N659 S657 1.610 . S
N659 C660 1.351 . S
C660 C654 1.428 . S
C660 N659 1.351 . S
C660 C661 1.434 . S
C661 C652 1.429 . S
C661 N658 1.350 . S
C661 C660 1.434 . S
C662 C663 1.369 . S
C662 C664 1.419 . S
C662 H666 0.930 . S
C663 C662 1.369 . S
C663 C672 1.429 . S
C664 C662 1.419 . S
C664 C665 1.363 . S
C664 H667 0.929 . S
C665 C664 1.363 . S
C665 C671 1.428 . S
H666 C662 0.930 . S
H667 C664 0.929 . S
S668 N669 1.613 . S
S668 N670 1.610 . S
N669 S668 1.613 . S
N669 C672 1.350 . S
N670 S668 1.610 . S
N670 C671 1.351 . S
C671 C665 1.428 . S
C671 N670 1.351 . S
C671 C672 1.434 . S
C672 C663 1.429 . S
C672 N669 1.350 . S
C672 C671 1.434 . S
C673 C674 1.369 . S
C673 C675 1.419 . S
C673 H677 0.930 . S
C674 C673 1.369 . S
C674 C683 1.429 . S
C675 C673 1.419 . S
C675 C676 1.363 . S
C675 H678 0.929 . S
C676 C675 1.363 . S
C676 C682 1.428 . S
H677 C673 0.930 . S
H678 C675 0.929 . S
S679 N680 1.613 . S
S679 N681 1.610 . S
N680 S679 1.613 . S
N680 C683 1.350 . S
N681 S679 1.610 . S
N681 C682 1.351 . S
C682 C676 1.428 . S
C682 N681 1.351 . S
C682 C683 1.434 . S
C683 C674 1.429 . S
C683 N680 1.350 . S
C683 C682 1.434 . S
C684 C685 1.369 . S
C684 C686 1.419 . S
C684 H688 0.930 . S
C685 C684 1.369 . S
C685 C694 1.429 . S
C686 C684 1.419 . S
C686 C687 1.363 . S
C686 H689 0.929 . S
C687 C686 1.363 . S
C687 C693 1.428 . S
H688 C684 0.930 . S
H689 C686 0.929 . S
S690 N691 1.613 . S
S690 N692 1.610 . S
N691 S690 1.613 . S
N691 C694 1.350 . S
N692 S690 1.610 . S
N692 C693 1.351 . S
C693 C687 1.428 . S
C693 N692 1.351 . S
C693 C694 1.434 . S
C694 C685 1.429 . S
C694 N691 1.350 . S
C694 C693 1.434 . S
C695 C696 1.369 . S
C695 C697 1.419 . S
C695 H699 0.930 . S
C696 C695 1.369 . S
C696 C705 1.429 . S
C697 C695 1.419 . S
C697 C698 1.363 . S
C697 H700 0.929 . S
C698 C697 1.363 . S
C698 C704 1.428 . S
H699 C695 0.930 . S
H700 C697 0.929 . S
S701 N702 1.613 . S
S701 N703 1.610 . S
N702 S701 1.613 . S
N702 C705 1.350 . S
N703 S701 1.610 . S
N703 C704 1.351 . S
C704 C698 1.428 . S
C704 N703 1.351 . S
C704 C705 1.434 . S
C705 C696 1.429 . S
C705 N702 1.350 . S
C705 C704 1.434 . S
C706 C707 1.369 . S
C706 C708 1.419 . S
C706 H710 0.930 . S
C707 C706 1.369 . S
C707 C716 1.429 . S
C708 C706 1.419 . S
C708 C709 1.363 . S
C708 H711 0.929 . S
C709 C708 1.363 . S
C709 C715 1.428 . S
H710 C706 0.930 . S
H711 C708 0.929 . S
S712 N713 1.613 . S
S712 N714 1.610 . S
N713 S712 1.613 . S
N713 C716 1.350 . S
N714 S712 1.610 . S
N714 C715 1.351 . S
C715 C709 1.428 . S
C715 N714 1.351 . S
C715 C716 1.434 . S
C716 C707 1.429 . S
C716 N713 1.350 . S
C716 C715 1.434 . S
C717 C718 1.369 . S
C717 C719 1.419 . S
C717 H721 0.930 . S
C718 C717 1.369 . S
C718 C727 1.429 . S
C719 C717 1.419 . S
C719 C720 1.363 . S
C719 H722 0.929 . S
C720 C719 1.363 . S
C720 C726 1.428 . S
H721 C717 0.930 . S
H722 C719 0.929 . S
S723 N724 1.613 . S
S723 N725 1.610 . S
N724 S723 1.613 . S
N724 C727 1.350 . S
N725 S723 1.610 . S
N725 C726 1.351 . S
C726 C720 1.428 . S
C726 N725 1.351 . S
C726 C727 1.434 . S
C727 C718 1.429 . S
C727 N724 1.350 . S
C727 C726 1.434 . S
C728 C729 1.369 1_545 S
C728 C730 1.419 . S
C728 H732 0.930 . S
C729 C728 1.369 1_565 S
C729 C738 1.429 . S
C730 C728 1.419 . S
C730 C731 1.363 . S
C730 H733 0.929 . S
C731 C730 1.363 . S
C731 C737 1.428 1_545 S
H732 C728 0.930 . S
H733 C730 0.929 . S
S734 N735 1.613 . S
S734 N736 1.610 . S
N735 S734 1.613 . S
N735 C738 1.350 . S
N736 S734 1.610 . S
N736 C737 1.351 . S
C737 C731 1.428 1_565 S
C737 N736 1.351 . S
C737 C738 1.434 . S
C738 C729 1.429 . S
C738 N735 1.350 . S
C738 C737 1.434 . S
C739 C740 1.369 1_565 S
C739 C741 1.419 . S
C739 H743 0.930 . S
C740 C739 1.369 1_545 S
C740 C749 1.429 . S
C741 C739 1.419 . S
C741 C742 1.363 . S
C741 H744 0.929 . S
C742 C741 1.363 . S
C742 C748 1.428 1_565 S
H743 C739 0.930 . S
H744 C741 0.929 . S
S745 N746 1.613 . S
S745 N747 1.610 . S
N746 S745 1.613 . S
N746 C749 1.350 . S
N747 S745 1.610 . S
N747 C748 1.351 . S
C748 C742 1.428 1_545 S
C748 N747 1.351 . S
C748 C749 1.434 . S
C749 C740 1.429 . S
C749 N746 1.350 . S
C749 C748 1.434 . S
C750 C751 1.369 . S
C750 C752 1.419 . S
C750 H754 0.930 . S
C751 C750 1.369 . S
C751 C760 1.429 1_545 S
C752 C750 1.419 . S
C752 C753 1.363 1_545 S
C752 H755 0.929 . S
C753 C752 1.363 1_565 S
C753 C759 1.428 . S
H754 C750 0.930 . S
H755 C752 0.929 . S
S756 N757 1.613 . S
S756 N758 1.610 . S
N757 S756 1.613 . S
N757 C760 1.350 . S
N758 S756 1.610 . S
N758 C759 1.351 . S
C759 C753 1.428 . S
C759 N758 1.351 . S
C759 C760 1.434 . S
C760 C751 1.429 1_565 S
C760 N757 1.350 . S
C760 C759 1.434 . S
C761 C762 1.369 1_565 S
C761 C763 1.419 . S
C761 H765 0.930 . S
C762 C761 1.369 1_545 S
C762 C771 1.429 . S
C763 C761 1.419 . S
C763 C764 1.363 . S
C763 H766 0.929 . S
C764 C763 1.363 . S
C764 C770 1.428 1_565 S
H765 C761 0.930 . S
H766 C763 0.929 . S
S767 N768 1.613 . S
S767 N769 1.610 . S
N768 S767 1.613 . S
N768 C771 1.350 . S
N769 S767 1.610 . S
N769 C770 1.351 . S
C770 C764 1.428 1_545 S
C770 N769 1.351 . S
C770 C771 1.434 . S
C771 C762 1.429 . S
C771 N768 1.350 . S
C771 C770 1.434 . S
C772 C773 1.369 . S
C772 C774 1.419 . S
C772 H776 0.930 . S
C773 C772 1.369 . S
C773 C782 1.429 . S
C774 C772 1.419 . S
C774 C775 1.363 . S
C774 H777 0.929 . S
C775 C774 1.363 . S
C775 C781 1.428 . S
H776 C772 0.930 . S
H777 C774 0.929 . S
S778 N779 1.613 . S
S778 N780 1.610 . S
N779 S778 1.613 . S
N779 C782 1.350 . S
N780 S778 1.610 . S
N780 C781 1.351 . S
C781 C775 1.428 . S
C781 N780 1.351 . S
C781 C782 1.434 . S
C782 C773 1.429 . S
C782 N779 1.350 . S
C782 C781 1.434 . S
C783 C784 1.369 . S
C783 C785 1.419 . S
C783 H787 0.930 . S
C784 C783 1.369 . S
C784 C793 1.429 . S
C785 C783 1.419 . S
C785 C786 1.363 . S
C785 H788 0.929 . S
C786 C785 1.363 . S
C786 C792 1.428 . S
H787 C783 0.930 . S
H788 C785 0.929 . S
S789 N790 1.613 . S
S789 N791 1.610 . S
N790 S789 1.613 . S
N790 C793 1.350 . S
N791 S789 1.610 . S
N791 C792 1.351 . S
C792 C786 1.428 . S
C792 N791 1.351 . S
C792 C793 1.434 . S
C793 C784 1.429 . S
C793 N790 1.350 . S
C793 C792 1.434 . S
C794 C795 1.369 . S
C794 C796 1.419 . S
C794 H798 0.930 . S
C795 C794 1.369 . S
C795 C804 1.429 . S
C796 C794 1.419 . S
C796 C797 1.363 . S
C796 H799 0.929 . S
C797 C796 1.363 . S
C797 C803 1.428 . S
H798 C794 0.930 . S
H799 C796 0.929 . S
S800 N801 1.613 . S
S800 N802 1.610 . S
N801 S800 1.613 . S
N801 C804 1.350 . S
N802 S800 1.610 . S
N802 C803 1.351 . S
C803 C797 1.428 . S
C803 N802 1.351 . S
C803 C804 1.434 . S
C804 C795 1.429 . S
C804 N801 1.350 . S
C804 C803 1.434 . S
C805 C806 1.369 . S
C805 C807 1.419 . S
C805 H809 0.930 . S
C806 C805 1.369 . S
C806 C815 1.429 . S
C807 C805 1.419 . S
C807 C808 1.363 . S
C807 H810 0.929 . S
C808 C807 1.363 . S
C808 C814 1.428 . S
H809 C805 0.930 . S
H810 C807 0.929 . S
S811 N812 1.613 . S
S811 N813 1.610 . S
N812 S811 1.613 . S
N812 C815 1.350 . S
N813 S811 1.610 . S
N813 C814 1.351 . S
C814 C808 1.428 . S
C814 N813 1.351 . S
C814 C815 1.434 . S
C815 C806 1.429 . S
C815 N812 1.350 . S
C815 C814 1.434 . S
C816 C817 1.369 . S
C816 C818 1.419 1_556 S
C816 H820 0.930 . S
C817 C816 1.369 . S
C817 C826 1.429 . S
C818 C816 1.419 1_554 S
C818 C819 1.363 . S
C818 H821 0.929 . S
C819 C818 1.363 . S
C819 C825 1.428 . S
H820 C816 0.930 . S
H821 C818 0.929 . S
S822 N823 1.616 1_554 S
S822 N824 1.608 . S
N823 S822 1.616 1_556 S
N823 C826 1.350 . S
N824 S822 1.608 . S
N824 C825 1.351 . S
C825 C819 1.428 . S
C825 N824 1.351 . S
C825 C826 1.434 1_554 S
C826 C817 1.429 . S
C826 N823 1.350 . S
C826 C825 1.434 1_556 S
C827 C828 1.369 . S
C827 C829 1.419 1_556 S
C827 H831 0.930 . S
C828 C827 1.369 . S
C828 C837 1.429 . S
C829 C827 1.419 1_554 S
C829 C830 1.363 . S
C829 H832 0.929 . S
C830 C829 1.363 . S
C830 C836 1.428 . S
H831 C827 0.930 . S
H832 C829 0.929 . S
S833 N834 1.616 1_544 S
S833 N835 1.608 1_545 S
N834 S833 1.616 1_566 S
N834 C837 1.350 . S
N835 S833 1.608 1_565 S
N835 C836 1.351 . S
C836 C830 1.428 . S
C836 N835 1.351 . S
C836 C837 1.434 1_554 S
C837 C828 1.429 . S
C837 N834 1.350 . S
C837 C836 1.434 1_556 S
C838 C839 1.369 . S
C838 C840 1.419 . S
C838 H842 0.930 . S
C839 C838 1.369 . S
C839 C848 1.429 . S
C840 C838 1.419 . S
C840 C841 1.363 . S
C840 H843 0.929 . S
C841 C840 1.363 . S
C841 C847 1.428 . S
H842 C838 0.930 . S
H843 C840 0.929 . S
S844 N845 1.613 1_545 S
S844 N846 1.610 1_545 S
N845 S844 1.613 1_565 S
N845 C848 1.350 . S
N846 S844 1.610 1_565 S
N846 C847 1.351 . S
C847 C841 1.428 . S
C847 N846 1.351 . S
C847 C848 1.434 . S
C848 C839 1.429 . S
C848 N845 1.350 . S
C848 C847 1.434 . S
C849 C850 1.369 . S
C849 C851 1.419 . S
C849 H853 0.930 . S
C850 C849 1.369 . S
C850 C859 1.429 . S
C851 C849 1.419 . S
C851 C852 1.363 . S
C851 H854 0.929 . S
C852 C851 1.363 . S
C852 C858 1.428 . S
H853 C849 0.930 . S
H854 C851 0.929 . S
S855 N856 1.613 . S
S855 N857 1.610 . S
N856 S855 1.613 . S
N856 C859 1.350 . S
N857 S855 1.610 . S
N857 C858 1.351 . S
C858 C852 1.428 . S
C858 N857 1.351 . S
C858 C859 1.434 . S
C859 C850 1.429 . S
C859 N856 1.350 . S
C859 C858 1.434 . S
C860 C861 1.369 . S
C860 C862 1.419 1_554 S
C860 H864 0.930 . S
C861 C860 1.369 . S
C861 C870 1.429 . S
C862 C860 1.419 1_556 S
C862 C863 1.363 . S
C862 H865 0.929 . S
C863 C862 1.363 . S
C863 C869 1.428 . S
H864 C860 0.930 . S
H865 C862 0.929 . S
S866 N867 1.616 1_556 S
S866 N868 1.608 . S
N867 S866 1.616 1_554 S
N867 C870 1.350 . S
N868 S866 1.608 . S
N868 C869 1.351 . S
C869 C863 1.428 . S
C869 N868 1.351 . S
C869 C870 1.434 1_556 S
C870 C861 1.429 . S
C870 N867 1.350 . S
C870 C869 1.434 1_554 S
C871 C872 1.369 . S
C871 C873 1.419 1_556 S
C871 H875 0.930 . S
C872 C871 1.369 . S
C872 C881 1.429 . S
C873 C871 1.419 1_554 S
C873 C874 1.363 . S
C873 H876 0.929 . S
C874 C873 1.363 . S
C874 C880 1.428 . S
H875 C871 0.930 . S
H876 C873 0.929 . S
S877 N878 1.616 1_554 S
S877 N879 1.608 . S
N878 S877 1.616 1_556 S
N878 C881 1.350 . S
N879 S877 1.608 . S
N879 C880 1.351 . S
C880 C874 1.428 . S
C880 N879 1.351 . S
C880 C881 1.434 1_554 S
C881 C872 1.429 . S
C881 N878 1.350 . S
C881 C880 1.434 1_556 S
C882 C883 1.369 . S
C882 C884 1.419 . S
C882 H886 0.930 . S
C883 C882 1.369 . S
C883 C892 1.429 . S
C884 C882 1.419 . S
C884 C885 1.363 . S
C884 H887 0.929 . S
C885 C884 1.363 . S
C885 C891 1.428 . S
H886 C882 0.930 . S
H887 C884 0.929 . S
S888 N889 1.613 . S
S888 N890 1.610 . S
N889 S888 1.613 . S
N889 C892 1.350 . S
N890 S888 1.610 . S
N890 C891 1.351 . S
C891 C885 1.428 . S
C891 N890 1.351 . S
C891 C892 1.434 . S
C892 C883 1.429 . S
C892 N889 1.350 . S
C892 C891 1.434 . S
C893 C894 1.369 . S
C893 C895 1.419 . S
C893 H897 0.930 . S
C894 C893 1.369 . S
C894 C903 1.429 . S
C895 C893 1.419 . S
C895 C896 1.363 . S
C895 H898 0.929 . S
C896 C895 1.363 . S
C896 C902 1.428 . S
H897 C893 0.930 . S
H898 C895 0.929 . S
S899 N900 1.613 . S
S899 N901 1.610 . S
N900 S899 1.613 . S
N900 C903 1.350 . S
N901 S899 1.610 . S
N901 C902 1.351 . S
C902 C896 1.428 . S
C902 N901 1.351 . S
C902 C903 1.434 . S
C903 C894 1.429 . S
C903 N900 1.350 . S
C903 C902 1.434 . S
C904 C905 1.369 . S
C904 C906 1.419 1_655 S
C904 H908 0.930 . S
C905 C904 1.369 . S
C905 C914 1.429 1_565 S
C906 C904 1.419 1_455 S
C906 C907 1.363 1_565 S
C906 H909 0.929 . S
C907 C906 1.363 1_545 S
C907 C913 1.428 . S
H908 C904 0.930 . S
H909 C906 0.929 . S
S910 N911 1.613 . S
S910 N912 1.610 1_655 S
N911 S910 1.613 . S
N911 C914 1.350 . S
N912 S910 1.610 1_455 S
N912 C913 1.351 . S
C913 C907 1.428 . S
C913 N912 1.351 . S
C913 C914 1.434 1_455 S
C914 C905 1.429 1_545 S
C914 N911 1.350 . S
C914 C913 1.434 1_655 S
C915 C916 1.369 1_565 S
C915 C917 1.419 1_655 S
C915 H919 0.930 . S
C916 C915 1.369 1_545 S
C916 C925 1.429 . S
C917 C915 1.419 1_455 S
C917 C918 1.363 . S
C917 H920 0.929 . S
C918 C917 1.363 . S
C918 C924 1.428 1_565 S
H919 C915 0.930 . S
H920 C917 0.929 . S
S921 N922 1.613 1_455 S
S921 N923 1.610 . S
N922 S921 1.613 1_655 S
N922 C925 1.350 . S
N923 S921 1.610 . S
N923 C924 1.351 . S
C924 C918 1.428 1_545 S
C924 N923 1.351 . S
C924 C925 1.434 1_455 S
C925 C916 1.429 . S
C925 N922 1.350 . S
C925 C924 1.434 1_655 S
C926 C927 1.369 1_565 S
C926 C928 1.419 1_455 S
C926 H930 0.930 . S
C927 C926 1.369 1_545 S
C927 C936 1.429 . S
C928 C926 1.419 1_655 S
C928 C929 1.363 . S
C928 H931 0.929 . S
C929 C928 1.363 . S
C929 C935 1.428 1_565 S
H930 C926 0.930 . S
H931 C928 0.929 . S
S932 N933 1.613 1_655 S
S932 N934 1.610 . S
N933 S932 1.613 1_455 S
N933 C936 1.350 . S
N934 S932 1.610 . S
N934 C935 1.351 . S
C935 C929 1.428 1_545 S
C935 N934 1.351 . S
C935 C936 1.434 1_655 S
C936 C927 1.429 . S
C936 N933 1.350 . S
C936 C935 1.434 1_455 S
C937 C938 1.369 . S
C937 C939 1.419 1_655 S
C937 H941 0.930 . S
C938 C937 1.369 . S
C938 C947 1.429 1_545 S
C939 C937 1.419 1_455 S
C939 C940 1.363 1_545 S
C939 H942 0.929 . S
C940 C939 1.363 1_565 S
C940 C946 1.428 . S
H941 C937 0.930 . S
H942 C939 0.929 . S
S943 N944 1.613 . S
S943 N945 1.610 1_655 S
N944 S943 1.613 . S
N944 C947 1.350 . S
N945 S943 1.610 1_455 S
N945 C946 1.351 . S
C946 C940 1.428 . S
C946 N945 1.351 . S
C946 C947 1.434 1_455 S
C947 C938 1.429 1_565 S
C947 N944 1.350 . S
C947 C946 1.434 1_655 S
C948 C949 1.369 . S
C948 C950 1.419 . S
C948 H952 0.930 . S
C949 C948 1.369 . S
C949 C958 1.429 . S
C950 C948 1.419 . S
C950 C951 1.363 . S
C950 H953 0.929 . S
C951 C950 1.363 . S
C951 C957 1.428 . S
H952 C948 0.930 . S
H953 C950 0.929 . S
S954 N955 1.613 . S
S954 N956 1.610 . S
N955 S954 1.613 . S
N955 C958 1.350 . S
N956 S954 1.610 . S
N956 C957 1.351 . S
C957 C951 1.428 . S
C957 N956 1.351 . S
C957 C958 1.434 . S
C958 C949 1.429 . S
C958 N955 1.350 . S
C958 C957 1.434 . S
C959 C960 1.369 . S
C959 C961 1.419 . S
C959 H963 0.930 . S
C960 C959 1.369 . S
C960 C969 1.429 . S
C961 C959 1.419 . S
C961 C962 1.363 . S
C961 H964 0.929 . S
C962 C961 1.363 . S
C962 C968 1.428 . S
H963 C959 0.930 . S
H964 C961 0.929 . S
S965 N966 1.613 . S
S965 N967 1.610 . S
N966 S965 1.613 . S
N966 C969 1.350 . S
N967 S965 1.610 . S
N967 C968 1.351 . S
C968 C962 1.428 . S
C968 N967 1.351 . S
C968 C969 1.434 . S
C969 C960 1.429 . S
C969 N966 1.350 . S
C969 C968 1.434 . S
C970 C971 1.369 . S
C970 C972 1.419 . S
C970 H974 0.930 . S
C971 C970 1.369 . S
C971 C980 1.429 . S
C972 C970 1.419 . S
C972 C973 1.363 . S
C972 H975 0.929 . S
C973 C972 1.363 . S
C973 C979 1.428 . S
H974 C970 0.930 . S
H975 C972 0.929 . S
S976 N977 1.613 . S
S976 N978 1.610 . S
N977 S976 1.613 . S
N977 C980 1.350 . S
N978 S976 1.610 . S
N978 C979 1.351 . S
C979 C973 1.428 . S
C979 N978 1.351 . S
C979 C980 1.434 . S
C980 C971 1.429 . S
C980 N977 1.350 . S
C980 C979 1.434 . S
C981 C982 1.369 . S
C981 C983 1.419 . S
C981 H985 0.930 . S
C982 C981 1.369 . S
C982 C991 1.429 . S
C983 C981 1.419 . S
C983 C984 1.363 . S
C983 H986 0.929 . S
C984 C983 1.363 . S
C984 C990 1.428 . S
H985 C981 0.930 . S
H986 C983 0.929 . S
S987 N988 1.613 . S
S987 N989 1.610 . S
N988 S987 1.613 . S
N988 C991 1.350 . S
N989 S987 1.610 . S
N989 C990 1.351 . S
C990 C984 1.428 . S
C990 N989 1.351 . S
C990 C991 1.434 . S
C991 C982 1.429 . S
C991 N988 1.350 . S
C991 C990 1.434 . S
C992 C993 1.369 . S
C992 C994 1.419 . S
C992 H996 0.930 . S
C993 C992 1.369 . S
C993 C1002 1.429 . S
C994 C992 1.419 . S
C994 C995 1.363 . S
C994 H997 0.929 . S
C995 C994 1.363 . S
C995 C1001 1.428 . S
H996 C992 0.930 . S
H997 C994 0.929 . S
S998 N999 1.613 . S
S998 N1000 1.610 . S
N999 S998 1.613 . S
N999 C1002 1.350 . S
N1000 S998 1.610 . S
N1000 C1001 1.351 . S
C1001 C995 1.428 . S
C1001 N1000 1.351 . S
C1001 C1002 1.434 . S
C1002 C993 1.429 . S
C1002 N999 1.350 . S
C1002 C1001 1.434 . S
C1003 C1004 1.369 . S
C1003 C1005 1.419 . S
C1003 H1007 0.930 . S
C1004 C1003 1.369 . S
C1004 C1013 1.429 . S
C1005 C1003 1.419 . S
C1005 C1006 1.363 . S
C1005 H1008 0.929 . S
C1006 C1005 1.363 . S
C1006 C1012 1.428 . S
H1007 C1003 0.930 . S
H1008 C1005 0.929 . S
S1009 N1010 1.613 . S
S1009 N1011 1.610 . S
N1010 S1009 1.613 . S
N1010 C1013 1.350 . S
N1011 S1009 1.610 . S
N1011 C1012 1.351 . S
C1012 C1006 1.428 . S
C1012 N1011 1.351 . S
C1012 C1013 1.434 . S
C1013 C1004 1.429 . S
C1013 N1010 1.350 . S
C1013 C1012 1.434 . S
C1014 C1015 1.369 . S
C1014 C1016 1.419 . S
C1014 H1018 0.930 . S
C1015 C1014 1.369 . S
C1015 C1024 1.429 . S
C1016 C1014 1.419 . S
C1016 C1017 1.363 . S
C1016 H1019 0.929 . S
C1017 C1016 1.363 . S
C1017 C1023 1.428 . S
H1018 C1014 0.930 . S
H1019 C1016 0.929 . S
S1020 N1021 1.613 . S
S1020 N1022 1.610 . S
N1021 S1020 1.613 . S
N1021 C1024 1.350 . S
N1022 S1020 1.610 . S
N1022 C1023 1.351 . S
C1023 C1017 1.428 . S
C1023 N1022 1.351 . S
C1023 C1024 1.434 . S
C1024 C1015 1.429 . S
C1024 N1021 1.350 . S
C1024 C1023 1.434 . S
C1025 C1026 1.369 . S
C1025 C1027 1.419 . S
C1025 H1029 0.930 . S
C1026 C1025 1.369 . S
C1026 C1035 1.429 . S
C1027 C1025 1.419 . S
C1027 C1028 1.363 . S
C1027 H1030 0.929 . S
C1028 C1027 1.363 . S
C1028 C1034 1.428 . S
H1029 C1025 0.930 . S
H1030 C1027 0.929 . S
S1031 N1032 1.613 . S
S1031 N1033 1.610 . S
N1032 S1031 1.613 . S
N1032 C1035 1.350 . S
N1033 S1031 1.610 . S
N1033 C1034 1.351 . S
C1034 C1028 1.428 . S
C1034 N1033 1.351 . S
C1034 C1035 1.434 . S
C1035 C1026 1.429 . S
C1035 N1032 1.350 . S
C1035 C1034 1.434 . S
C1036 C1037 1.369 . S
C1036 C1038 1.419 . S
C1036 H1040 0.930 . S
C1037 C1036 1.369 . S
C1037 C1046 1.429 . S
C1038 C1036 1.419 . S
C1038 C1039 1.363 . S
C1038 H1041 0.929 . S
C1039 C1038 1.363 . S
C1039 C1045 1.428 . S
H1040 C1036 0.930 . S
H1041 C1038 0.929 . S
S1042 N1043 1.613 . S
S1042 N1044 1.610 . S
N1043 S1042 1.613 . S
N1043 C1046 1.350 . S
N1044 S1042 1.610 . S
N1044 C1045 1.351 . S
C1045 C1039 1.428 . S
C1045 N1044 1.351 . S
C1045 C1046 1.434 . S
C1046 C1037 1.429 . S
C1046 N1043 1.350 . S
C1046 C1045 1.434 . S
C1047 C1048 1.369 . S
C1047 C1049 1.419 . S
C1047 H1051 0.930 . S
C1048 C1047 1.369 . S
C1048 C1057 1.429 . S
C1049 C1047 1.419 . S
C1049 C1050 1.363 . S
C1049 H1052 0.929 . S
C1050 C1049 1.363 . S
C1050 C1056 1.428 . S
H1051 C1047 0.930 . S
H1052 C1049 0.929 . S
S1053 N1054 1.613 . S
S1053 N1055 1.610 . S
N1054 S1053 1.613 . S
N1054 C1057 1.350 . S
N1055 S1053 1.610 . S
N1055 C1056 1.351 . S
C1056 C1050 1.428 . S
C1056 N1055 1.351 . S
C1056 C1057 1.434 . S
C1057 C1048 1.429 . S
C1057 N1054 1.350 . S
C1057 C1056 1.434 . S
C1058 C1059 1.369 . S
C1058 C1060 1.419 . S
C1058 H1062 0.930 . S
C1059 C1058 1.369 . S
C1059 C1068 1.429 . S
C1060 C1058 1.419 . S
C1060 C1061 1.363 . S
C1060 H1063 0.929 . S
C1061 C1060 1.363 . S
C1061 C1067 1.428 . S
H1062 C1058 0.930 . S
H1063 C1060 0.929 . S
S1064 N1065 1.613 . S
S1064 N1066 1.610 . S
N1065 S1064 1.613 . S
N1065 C1068 1.350 . S
N1066 S1064 1.610 . S
N1066 C1067 1.351 . S
C1067 C1061 1.428 . S
C1067 N1066 1.351 . S
C1067 C1068 1.434 . S
C1068 C1059 1.429 . S
C1068 N1065 1.350 . S
C1068 C1067 1.434 . S
C1069 C1070 1.369 . S
C1069 C1071 1.419 . S
C1069 H1073 0.930 . S
C1070 C1069 1.369 . S
C1070 C1079 1.429 . S
C1071 C1069 1.419 . S
C1071 C1072 1.363 . S
C1071 H1074 0.929 . S
C1072 C1071 1.363 . S
C1072 C1078 1.428 . S
H1073 C1069 0.930 . S
H1074 C1071 0.929 . S
S1075 N1076 1.613 . S
S1075 N1077 1.610 . S
N1076 S1075 1.613 . S
N1076 C1079 1.350 . S
N1077 S1075 1.610 . S
N1077 C1078 1.351 . S
C1078 C1072 1.428 . S
C1078 N1077 1.351 . S
C1078 C1079 1.434 . S
C1079 C1070 1.429 . S
C1079 N1076 1.350 . S
C1079 C1078 1.434 . S
C1080 C1081 1.369 . S
C1080 C1082 1.419 . S
C1080 H1084 0.930 . S
C1081 C1080 1.369 . S
C1081 C1090 1.429 . S
C1082 C1080 1.419 . S
C1082 C1083 1.363 . S
C1082 H1085 0.929 . S
C1083 C1082 1.363 . S
C1083 C1089 1.428 . S
H1084 C1080 0.930 . S
H1085 C1082 0.929 . S
S1086 N1087 1.613 . S
S1086 N1088 1.610 . S
N1087 S1086 1.613 . S
N1087 C1090 1.350 . S
N1088 S1086 1.610 . S
N1088 C1089 1.351 . S
C1089 C1083 1.428 . S
C1089 N1088 1.351 . S
C1089 C1090 1.434 . S
C1090 C1081 1.429 . S
C1090 N1087 1.350 . S
C1090 C1089 1.434 . S
C1091 C1092 1.369 . S
C1091 C1093 1.419 . S
C1091 H1095 0.930 . S
C1092 C1091 1.369 . S
C1092 C1101 1.429 . S
C1093 C1091 1.419 . S
C1093 C1094 1.363 . S
C1093 H1096 0.929 . S
C1094 C1093 1.363 . S
C1094 C1100 1.428 . S
H1095 C1091 0.930 . S
H1096 C1093 0.929 . S
S1097 N1098 1.613 . S
S1097 N1099 1.610 . S
N1098 S1097 1.613 . S
N1098 C1101 1.350 . S
N1099 S1097 1.610 . S
N1099 C1100 1.351 . S
C1100 C1094 1.428 . S
C1100 N1099 1.351 . S
C1100 C1101 1.434 . S
C1101 C1092 1.429 . S
C1101 N1098 1.350 . S
C1101 C1100 1.434 . S
C1102 C1103 1.369 . S
C1102 C1104 1.419 . S
C1102 H1106 0.930 . S
C1103 C1102 1.369 . S
C1103 C1112 1.429 . S
C1104 C1102 1.419 . S
C1104 C1105 1.363 . S
C1104 H1107 0.929 . S
C1105 C1104 1.363 . S
C1105 C1111 1.428 . S
H1106 C1102 0.930 . S
H1107 C1104 0.929 . S
S1108 N1109 1.613 . S
S1108 N1110 1.610 . S
N1109 S1108 1.613 . S
N1109 C1112 1.350 . S
N1110 S1108 1.610 . S
N1110 C1111 1.351 . S
C1111 C1105 1.428 . S
C1111 N1110 1.351 . S
C1111 C1112 1.434 . S
C1112 C1103 1.429 . S
C1112 N1109 1.350 . S
C1112 C1111 1.434 . S
C1113 C1114 1.369 . S
C1113 C1115 1.419 . S
C1113 H1117 0.930 . S
C1114 C1113 1.369 . S
C1114 C1123 1.429 . S
C1115 C1113 1.419 . S
C1115 C1116 1.363 . S
C1115 H1118 0.929 . S
C1116 C1115 1.363 . S
C1116 C1122 1.428 . S
H1117 C1113 0.930 . S
H1118 C1115 0.929 . S
S1119 N1120 1.613 . S
S1119 N1121 1.610 . S
N1120 S1119 1.613 . S
N1120 C1123 1.350 . S
N1121 S1119 1.610 . S
N1121 C1122 1.351 . S
C1122 C1116 1.428 . S
C1122 N1121 1.351 . S
C1122 C1123 1.434 . S
C1123 C1114 1.429 . S
C1123 N1120 1.350 . S
C1123 C1122 1.434 . S
C1124 C1125 1.369 . S
C1124 C1126 1.419 . S
C1124 H1128 0.930 . S
C1125 C1124 1.369 . S
C1125 C1134 1.429 . S
C1126 C1124 1.419 . S
C1126 C1127 1.363 . S
C1126 H1129 0.929 . S
C1127 C1126 1.363 . S
C1127 C1133 1.428 . S
H1128 C1124 0.930 . S
H1129 C1126 0.929 . S
S1130 N1131 1.613 . S
S1130 N1132 1.610 . S
N1131 S1130 1.613 . S
N1131 C1134 1.350 . S
N1132 S1130 1.610 . S
N1132 C1133 1.351 . S
C1133 C1127 1.428 . S
C1133 N1132 1.351 . S
C1133 C1134 1.434 . S
C1134 C1125 1.429 . S
C1134 N1131 1.350 . S
C1134 C1133 1.434 . S
C1135 C1136 1.369 . S
C1135 C1137 1.419 . S
C1135 H1139 0.930 . S
C1136 C1135 1.369 . S
C1136 C1145 1.429 . S
C1137 C1135 1.419 . S
C1137 C1138 1.363 . S
C1137 H1140 0.929 . S
C1138 C1137 1.363 . S
C1138 C1144 1.428 . S
H1139 C1135 0.930 . S
H1140 C1137 0.929 . S
S1141 N1142 1.613 . S
S1141 N1143 1.610 . S
N1142 S1141 1.613 . S
N1142 C1145 1.350 . S
N1143 S1141 1.610 . S
N1143 C1144 1.351 . S
C1144 C1138 1.428 . S
C1144 N1143 1.351 . S
C1144 C1145 1.434 . S
C1145 C1136 1.429 . S
C1145 N1142 1.350 . S
C1145 C1144 1.434 . S
C1146 C1147 1.369 . S
C1146 C1148 1.419 . S
C1146 H1150 0.930 . S
C1147 C1146 1.369 . S
C1147 C1156 1.429 . S
C1148 C1146 1.419 . S
C1148 C1149 1.363 . S
C1148 H1151 0.929 . S
C1149 C1148 1.363 . S
C1149 C1155 1.428 . S
H1150 C1146 0.930 . S
H1151 C1148 0.929 . S
S1152 N1153 1.613 . S
S1152 N1154 1.610 . S
N1153 S1152 1.613 . S
N1153 C1156 1.350 . S
N1154 S1152 1.610 . S
N1154 C1155 1.351 . S
C1155 C1149 1.428 . S
C1155 N1154 1.351 . S
C1155 C1156 1.434 . S
C1156 C1147 1.429 . S
C1156 N1153 1.350 . S
C1156 C1155 1.434 . S
C1157 C1158 1.369 . S
C1157 C1159 1.419 . S
C1157 H1161 0.930 . S
C1158 C1157 1.369 . S
C1158 C1167 1.429 . S
C1159 C1157 1.419 . S
C1159 C1160 1.363 . S
C1159 H1162 0.929 . S
C1160 C1159 1.363 . S
C1160 C1166 1.428 . S
H1161 C1157 0.930 . S
H1162 C1159 0.929 . S
S1163 N1164 1.613 . S
S1163 N1165 1.610 . S
N1164 S1163 1.613 . S
N1164 C1167 1.350 . S
N1165 S1163 1.610 . S
N1165 C1166 1.351 . S
C1166 C1160 1.428 . S
C1166 N1165 1.351 . S
C1166 C1167 1.434 . S
C1167 C1158 1.429 . S
C1167 N1164 1.350 . S
C1167 C1166 1.434 . S
C641 C9 1.623 . S
C643 C369 1.620 . S
C652 C49 1.622 . S
C654 C329 1.623 . S
C663 C449 1.621 . S
C665 C89 1.623 . S
C674 C129 1.623 . S
C676 C409 1.623 . S
C685 C539 1.624 . S
C687 C179 1.622 . S
C696 C499 1.622 . S
C698 C219 1.620 . S
C707 C619 1.624 . S
C709 C259 1.622 . S
C718 C299 1.623 . S
C720 C579 1.620 . S
C729 C88 1.765 . S
C731 C8 1.763 . S
C740 C128 1.765 . S
C742 C48 1.763 . S
C751 C258 1.764 . S
C753 C178 1.765 . S
C762 C218 1.766 . S
C764 C298 1.765 . S
C773 C408 1.766 . S
C775 C328 1.764 . S
C784 C448 1.766 . S
C786 C368 1.764 . S
C795 C498 1.766 . S
C797 C578 1.764 . S
C806 C538 1.767 . S
C808 C618 1.767 . S
C817 C208 1.517 . S
C819 C18 1.518 . S
C828 C168 1.518 . S
C830 C58 1.519 . S
C839 C98 1.517 . S
C841 C288 1.518 . S
C850 C248 1.519 . S
C852 C138 1.520 . S
C861 C338 1.525 . S
C863 C528 1.524 . S
C872 C488 1.517 . S
C874 C378 1.518 . S
C883 C418 1.523 . S
C885 C608 1.524 . S
C894 C568 1.528 . S
C896 C458 1.526 . S
C905 C59 1.609 . S
C907 C19 1.605 . S
C916 C139 1.604 . S
C918 C99 1.608 . S
C927 C209 1.604 . S
C929 C169 1.608 . S
C938 C249 1.607 . S
C940 C289 1.603 . S
C949 C379 1.603 . S
C951 C339 1.609 . S
C960 C459 1.605 . S
C962 C419 1.608 . S
C971 C489 1.601 . S
C973 C529 1.608 . S
C982 C569 1.609 . S
C984 C609 1.604 . S
C993 C15 1.446 . S
C995 C5 1.448 . S
C1004 C55 1.447 . S
C1006 C45 1.447 . S
C1015 C95 1.448 . S
C1017 C85 1.447 . S
C1026 C125 1.446 . S
C1028 C135 1.448 . S
C1037 C165 1.448 . S
C1039 C175 1.447 . S
C1048 C215 1.447 . S
C1050 C205 1.447 . S
C1059 C245 1.448 . S
C1061 C255 1.446 . S
C1070 C285 1.447 . S
C1072 C295 1.447 . S
C1081 C325 1.448 1_545 S
C1083 C335 1.446 . S
C1092 C375 1.446 . S
C1094 C365 1.448 1_565 S
C1103 C405 1.448 1_565 S
C1105 C415 1.447 . S
C1114 C445 1.448 1_545 S
C1116 C455 1.446 . S
C1125 C485 1.446 . S
C1127 C495 1.448 1_565 S
C1136 C525 1.448 . S
C1138 C535 1.447 1_545 S
C1147 C575 1.447 1_545 S
C1149 C565 1.447 . S
C1158 C605 1.447 . S
C1160 C615 1.448 1_565 S
