# Generated by pormake.
# Topology wji, (4)-cn, num edge types: 1
# Building blocks:
#     Node 0, Type 0, BuildingBlock: GALJAG_clean_sbu_0, # of connection points: 4
#     Node 1, Type 0, BuildingBlock: GALJAG_clean_sbu_0, # of connection points: 4
#     Node 2, Type 0, BuildingBlock: GALJAG_clean_sbu_0, # of connection points: 4
#     Node 3, Type 0, BuildingBlock: GALJAG_clean_sbu_0, # of connection points: 4
#     Node 4, Type 0, BuildingBlock: GALJAG_clean_sbu_0, # of connection points: 4
#     Node 5, Type 0, BuildingBlock: GALJAG_clean_sbu_0, # of connection points: 4
#     Node 6, Type 0, BuildingBlock: GALJAG_clean_sbu_0, # of connection points: 4
#     Node 7, Type 0, BuildingBlock: GALJAG_clean_sbu_0, # of connection points: 4
#     Node 8, Type 0, BuildingBlock: GALJAG_clean_sbu_0, # of connection points: 4
#     Node 9, Type 0, BuildingBlock: GALJAG_clean_sbu_0, # of connection points: 4
#     Node 10, Type 0, BuildingBlock: GALJAG_clean_sbu_0, # of connection points: 4
#     Node 11, Type 0, BuildingBlock: GALJAG_clean_sbu_0, # of connection points: 4
#     Edge 12, Type (0, 0), BuildingBlock: AJUNOK_clean_linker_0, # of connection points: 2
#     Edge 13, Type (0, 0), BuildingBlock: AJUNOK_clean_linker_0, # of connection points: 2
#     Edge 14, Type (0, 0), BuildingBlock: AJUNOK_clean_linker_0, # of connection points: 2
#     Edge 15, Type (0, 0), BuildingBlock: AJUNOK_clean_linker_0, # of connection points: 2
#     Edge 16, Type (0, 0), BuildingBlock: AJUNOK_clean_linker_0, # of connection points: 2
#     Edge 17, Type (0, 0), BuildingBlock: AJUNOK_clean_linker_0, # of connection points: 2
#     Edge 18, Type (0, 0), BuildingBlock: AJUNOK_clean_linker_0, # of connection points: 2
#     Edge 19, Type (0, 0), BuildingBlock: AJUNOK_clean_linker_0, # of connection points: 2
#     Edge 20, Type (0, 0), BuildingBlock: AJUNOK_clean_linker_0, # of connection points: 2
#     Edge 21, Type (0, 0), BuildingBlock: AJUNOK_clean_linker_0, # of connection points: 2
#     Edge 22, Type (0, 0), BuildingBlock: AJUNOK_clean_linker_0, # of connection points: 2
#     Edge 23, Type (0, 0), BuildingBlock: AJUNOK_clean_linker_0, # of connection points: 2
#     Edge 24, Type (0, 0), BuildingBlock: AJUNOK_clean_linker_0, # of connection points: 2
#     Edge 25, Type (0, 0), BuildingBlock: AJUNOK_clean_linker_0, # of connection points: 2
#     Edge 26, Type (0, 0), BuildingBlock: AJUNOK_clean_linker_0, # of connection points: 2
#     Edge 27, Type (0, 0), BuildingBlock: AJUNOK_clean_linker_0, # of connection points: 2
#     Edge 28, Type (0, 0), BuildingBlock: AJUNOK_clean_linker_0, # of connection points: 2
#     Edge 29, Type (0, 0), BuildingBlock: AJUNOK_clean_linker_0, # of connection points: 2
#     Edge 30, Type (0, 0), BuildingBlock: AJUNOK_clean_linker_0, # of connection points: 2
#     Edge 31, Type (0, 0), BuildingBlock: AJUNOK_clean_linker_0, # of connection points: 2
#     Edge 32, Type (0, 0), BuildingBlock: AJUNOK_clean_linker_0, # of connection points: 2
#     Edge 33, Type (0, 0), BuildingBlock: AJUNOK_clean_linker_0, # of connection points: 2
#     Edge 34, Type (0, 0), BuildingBlock: AJUNOK_clean_linker_0, # of connection points: 2
#     Edge 35, Type (0, 0), BuildingBlock: AJUNOK_clean_linker_0, # of connection points: 2
# Relax obj value: 0.240
# Max RMSD: 0.173
# Mean RMSD: 0.173
data_MOF--net-wji--node1-GALJAG_clean_sbu_0--edge1-AJUNOK_clean_linker_0
_symmetry_space_group_name_H-M    P1
_symmetry_Int_Tables_number       1
_symmetry_cell_setting            triclinic
loop_
_symmetry_equiv_pos_as_xyz
'x, y, z'
_cell_length_a     40.232627
_cell_length_b     40.230644
_cell_length_c     18.365967
_cell_angle_alpha  89.924515
_cell_angle_beta   90.047573
_cell_angle_gamma 119.96569
loop_
_atom_site_label
_atom_site_type_symbol
_atom_site_fract_x
_atom_site_fract_y
_atom_site_fract_z
_atom_type_partial_charge
In0 In 0.40897 0.31967 0.41041 0.0
O1 O 0.39744 0.25687 0.41644 0.0
O2 O 0.42437 0.29413 0.50559 0.0
C3 C 0.36898 0.31573 0.28771 0.0
C4 C 0.37949 0.33847 0.52211 0.0
C5 C 0.47962 0.3804 0.38705 0.0
O6 O 0.39805 0.31139 0.28627 0.0
O7 O 0.35856 0.31848 0.35095 0.0
O8 O 0.44962 0.38266 0.39206 0.0
O9 O 0.47412 0.34662 0.39035 0.0
C10 C 0.41088 0.26087 0.48036 0.0
O11 O 0.4125 0.36042 0.49676 0.0
O12 O 0.36015 0.30707 0.48862 0.0
In13 In 0.08822 0.40686 0.58109 0.0
O14 O 0.12161 0.37646 0.61291 0.0
O15 O 0.15012 0.43679 0.62338 0.0
C16 C 0.04945 0.36762 0.46025 0.0
C17 C 0.05076 0.3819 0.70689 0.0
C18 C 0.08916 0.47352 0.55866 0.0
O19 O 0.08501 0.39202 0.4583 0.0
O20 O 0.03495 0.36221 0.52273 0.0
O21 O 0.05993 0.44315 0.57969 0.0
O22 O 0.11855 0.47046 0.54714 0.0
C23 C 0.15059 0.40627 0.63666 0.0
O24 O 0.07 0.41696 0.69065 0.0
O25 O 0.04983 0.35918 0.65868 0.0
In26 In 0.68314 0.08992 0.74599 0.0
O27 O 0.74572 0.12178 0.78533 0.0
O28 O 0.71683 0.15339 0.77743 0.0
C29 C 0.68368 0.05021 0.62656 0.0
C30 C 0.66909 0.05498 0.87496 0.0
C31 C 0.61709 0.09017 0.7234 0.0
O32 O 0.69513 0.0858 0.62372 0.0
O33 O 0.6746 0.03615 0.68941 0.0
O34 O 0.61868 0.06119 0.74464 0.0
O35 O 0.64934 0.11973 0.71156 0.0
C36 C 0.74609 0.15262 0.79969 0.0
O37 O 0.65521 0.07565 0.85622 0.0
O38 O 0.68975 0.0513 0.82763 0.0
In39 In 0.59766 0.67936 0.93639 0.0
O40 O 0.59065 0.66117 0.05323 0.0
O41 O 0.6473 0.68827 0.01015 0.0
C42 C 0.52494 0.62036 0.92957 0.0
C43 C 0.60215 0.74613 0.97838 0.0
C44 C 0.63261 0.66846 0.81855 0.0
O45 O 0.54958 0.62194 0.97393 0.0
O46 O 0.53718 0.64824 0.88539 0.0
O47 O 0.62341 0.6943 0.82003 0.0
O48 O 0.62433 0.64874 0.87596 0.0
C49 C 0.62581 0.67417 0.06511 0.0
O50 O 0.63138 0.74295 0.96765 0.0
O51 O 0.5712 0.7174 0.95784 0.0
In52 In 0.92369 0.59898 0.10394 0.0
O53 O 0.87001 0.60604 0.10626 0.0
O54 O 0.87931 0.57692 0.19364 0.0
C55 C 0.96526 0.63221 0.98143 0.0
C56 C 0.96855 0.64999 0.20276 0.0
C57 C 0.90837 0.52567 0.09772 0.0
O58 O 0.92971 0.62103 0.98515 0.0
O59 O 0.97896 0.62666 0.03877 0.0
O60 O 0.92972 0.54918 0.14542 0.0
O61 O 0.89482 0.53923 0.05187 0.0
C62 C 0.85904 0.58992 0.168 0.0
O63 O 0.97089 0.6207 0.18689 0.0
O64 O 0.94435 0.6545 0.16682 0.0
In65 In 0.31876 0.91109 0.25571 0.0
O66 O 0.33653 0.9232 0.37255 0.0
O67 O 0.30794 0.95103 0.32764 0.0
C68 C 0.37973 0.90045 0.2483 0.0
C69 C 0.25392 0.84701 0.29902 0.0
C70 C 0.32801 0.95632 0.13753 0.0
O71 O 0.37702 0.92258 0.29335 0.0
O72 O 0.35175 0.88389 0.20465 0.0
O73 O 0.30264 0.92113 0.13965 0.0
O74 O 0.34794 0.96819 0.19455 0.0
C75 C 0.32233 0.94446 0.38321 0.0
O76 O 0.25572 0.87898 0.29081 0.0
O77 O 0.28286 0.84613 0.27522 0.0
In78 In 0.68471 0.5955 0.42528 0.0
O79 O 0.646 0.61305 0.37041 0.0
O80 O 0.70608 0.64682 0.34952 0.0
C81 C 0.62254 0.52463 0.41368 0.0
C82 C 0.7407 0.59164 0.34938 0.0
C83 C 0.68752 0.62564 0.56018 0.0
O84 O 0.6226 0.55514 0.39816 0.0
O85 O 0.65412 0.52957 0.43793 0.0
O86 O 0.67853 0.59106 0.5508 0.0
O87 O 0.69886 0.6455 0.50304 0.0
C88 C 0.67267 0.64067 0.33597 0.0
O89 O 0.74379 0.59799 0.4174 0.0
O90 O 0.70968 0.58617 0.3225 0.0
In91 In 0.08352 0.68198 0.57716 0.0
O92 O 0.03186 0.65532 0.50337 0.0
O93 O 0.06735 0.71628 0.50118 0.0
C94 C 0.08592 0.61615 0.56987 0.0
C95 C 0.14853 0.73597 0.51067 0.0
C96 C 0.05287 0.68102 0.71045 0.0
O97 O 0.06057 0.62083 0.5389 0.0
O98 O 0.11034 0.64483 0.60581 0.0
O99 O 0.08787 0.69087 0.70275 0.0
O100 O 0.0348 0.674 0.65147 0.0
C101 C 0.03852 0.68688 0.47611 0.0
O102 O 0.13157 0.74457 0.55889 0.0
O103 O 0.13459 0.70042 0.5015 0.0
In104 In 0.40089 0.0803 0.7435 0.0
O105 O 0.38186 0.02412 0.68764 0.0
O106 O 0.34994 0.05243 0.66645 0.0
C107 C 0.47046 0.08538 0.73693 0.0
C108 C 0.40693 0.14084 0.66618 0.0
C109 C 0.36971 0.05324 0.87786 0.0
O110 O 0.43944 0.05588 0.72013 0.0
O111 O 0.46673 0.1131 0.75909 0.0
O112 O 0.40383 0.08016 0.86959 0.0
O113 O 0.35068 0.04331 0.8197 0.0
C114 C 0.35492 0.02444 0.65294 0.0
O115 O 0.39754 0.13632 0.73294 0.0
O116 O 0.41475 0.11644 0.64158 0.0
In117 In 0.32038 0.40746 0.90995 0.0
O118 O 0.36231 0.40729 0.82939 0.0
O119 O 0.30422 0.3624 0.82173 0.0
C120 C 0.37689 0.48132 0.92172 0.0
C121 C 0.25692 0.4057 0.85353 0.0
C122 C 0.32479 0.36935 0.02957 0.0
O123 O 0.36812 0.46287 0.86278 0.0
O124 O 0.35609 0.4629 0.97548 0.0
O125 O 0.30432 0.38515 0.02892 0.0
O126 O 0.34171 0.37225 0.97035 0.0
C127 C 0.33763 0.37805 0.79556 0.0
O128 O 0.25716 0.37595 0.87443 0.0
O129 O 0.28695 0.43647 0.86988 0.0
In130 In 0.91281 0.31893 0.08031 0.0
O131 O 0.95844 0.36147 0.00552 0.0
O132 O 0.94235 0.30263 0.99418 0.0
C133 C 0.8973 0.37668 0.08895 0.0
C134 C 0.8504 0.25761 0.02065 0.0
C135 C 0.95313 0.32131 0.20129 0.0
O136 O 0.90611 0.36661 0.0305 0.0
O137 O 0.89539 0.35693 0.14421 0.0
O138 O 0.91677 0.30228 0.20005 0.0
O139 O 0.96807 0.33751 0.14206 0.0
C140 C 0.96277 0.33661 0.97182 0.0
O141 O 0.87965 0.25619 0.04085 0.0
O142 O 0.85083 0.28793 0.03925 0.0
In143 In 0.59566 0.91436 0.24537 0.0
O144 O 0.59788 0.96186 0.17701 0.0
O145 O 0.63936 0.94495 0.15612 0.0
C146 C 0.52124 0.89568 0.24919 0.0
C147 C 0.59966 0.85418 0.18765 0.0
C148 C 0.63268 0.95373 0.36783 0.0
O149 O 0.54059 0.90371 0.19141 0.0
O150 O 0.53916 0.89604 0.30617 0.0
O151 O 0.61387 0.91737 0.36662 0.0
O152 O 0.63326 0.9691 0.30795 0.0
C153 C 0.62607 0.96646 0.13946 0.0
O154 O 0.62895 0.88465 0.20816 0.0
O155 O 0.56845 0.8524 0.2044 0.0
C156 C 0.3575 0.33755 0.09055 0.0
C157 C 0.33143 0.35131 0.09495 0.0
C158 C 0.3679 0.32415 0.15231 0.0
C159 C 0.35258 0.32368 0.22134 0.0
H160 H 0.37109 0.33826 0.03923 0.0
H161 H 0.3892 0.31539 0.14619 0.0
S162 S 0.28047 0.35327 0.26168 0.0
N163 N 0.28861 0.36119 0.17351 0.0
N164 N 0.30775 0.3358 0.2894 0.0
C165 C 0.32499 0.33555 0.22595 0.0
C166 C 0.31455 0.34941 0.16295 0.0
C167 C 0.04083 0.36297 0.32458 0.0
C168 C 0.0252 0.35051 0.39433 0.0
C169 C 0.01734 0.35186 0.26247 0.0
C170 C 0.97716 0.32786 0.26734 0.0
H171 H 0.07127 0.38271 0.318 0.0
H172 H 0.03081 0.3634 0.21036 0.0
S173 S 0.92228 0.28382 0.4364 0.0
N174 N 0.96716 0.30998 0.46396 0.0
N175 N 0.92325 0.28952 0.34723 0.0
C176 C 0.96137 0.31353 0.33625 0.0
C177 C 0.98531 0.32474 0.39964 0.0
C178 C 0.66832 0.01781 0.42896 0.0
C179 C 0.65006 0.97745 0.43422 0.0
C180 C 0.68095 0.04131 0.491 0.0
C181 C 0.67601 0.02551 0.5611 0.0
H182 H 0.67177 0.03151 0.3765 0.0
H183 H 0.69336 0.07199 0.48399 0.0
S184 S 0.63353 0.92177 0.60456 0.0
N185 N 0.63032 0.92297 0.51508 0.0
N186 N 0.65423 0.96687 0.63169 0.0
C187 C 0.65966 0.9853 0.56694 0.0
C188 C 0.64666 0.96136 0.50361 0.0
C189 C 0.66607 0.61624 0.69088 0.0
C190 C 0.6788 0.63982 0.62866 0.0
C191 C 0.65229 0.62636 0.75243 0.0
C192 C 0.65012 0.66028 0.75426 0.0
H193 H 0.66576 0.58916 0.69144 0.0
H194 H 0.64217 0.60674 0.79819 0.0
S195 S 0.68186 0.73324 0.60733 0.0
N196 N 0.69013 0.69987 0.57444 0.0
N197 N 0.66377 0.71843 0.68945 0.0
C198 C 0.66383 0.68473 0.69337 0.0
C199 C 0.67831 0.67465 0.63091 0.0
C200 C 0.99317 0.66139 0.78344 0.0
C201 C 0.03271 0.67355 0.78188 0.0
C202 C 0.97182 0.64927 0.84831 0.0
C203 C 0.98904 0.64866 0.91454 0.0
H204 H 0.97816 0.66015 0.73362 0.0
H205 H 0.94135 0.63926 0.84601 0.0
S206 S 0.09235 0.68051 0.94156 0.0
N207 N 0.08862 0.68633 0.85353 0.0
N208 N 0.04883 0.66373 0.97529 0.0
C209 C 0.02891 0.66222 0.91436 0.0
C210 C 0.05064 0.67462 0.84821 0.0
C211 C 0.37818 0.04242 0.00989 0.0
C212 C 0.35549 0.03042 0.94653 0.0
C213 C 0.36834 0.01871 0.07178 0.0
C214 C 0.33561 0.98172 0.07289 0.0
H215 H 0.40441 0.06995 0.01111 0.0
H216 H 0.38731 0.02914 0.11845 0.0
S217 S 0.26526 0.93723 0.92265 0.0
N218 N 0.29749 0.97954 0.89029 0.0
N219 N 0.27948 0.93506 0.00599 0.0
C220 C 0.31198 0.96982 0.01081 0.0
C221 C 0.32176 0.99412 0.94796 0.0
C222 C 0.55419 0.48535 0.37708 0.0
C223 C 0.58773 0.48665 0.40303 0.0
C224 C 0.52003 0.45058 0.36884 0.0
C225 C 0.51784 0.41547 0.38577 0.0
H226 H 0.55394 0.51151 0.36423 0.0
H227 H 0.49482 0.45139 0.35061 0.0
S228 S 0.59795 0.40259 0.45118 0.0
N229 N 0.6172 0.44952 0.4422 0.0
N230 N 0.55257 0.38378 0.42653 0.0
C231 C 0.55143 0.41601 0.40905 0.0
C232 C 0.58645 0.45169 0.41788 0.0
C233 C 0.12212 0.54497 0.5723 0.0
C234 C 0.08907 0.51017 0.55434 0.0
C235 C 0.12093 0.57922 0.5776 0.0
C236 C 0.08686 0.57991 0.56365 0.0
H237 H 0.14869 0.5455 0.5849 0.0
H238 H 0.14686 0.6053 0.59282 0.0
S239 S 0.99311 0.49667 0.51027 0.0
N240 N 0.02177 0.47864 0.52022 0.0
N241 N 0.01968 0.54288 0.52835 0.0
C242 C 0.05398 0.54544 0.54335 0.0
C243 C 0.05506 0.5106 0.53919 0.0
C244 C 0.54265 0.12163 0.73835 0.0
C245 C 0.5079 0.08681 0.7301 0.0
C246 C 0.5782 0.12305 0.73265 0.0
C247 C 0.58012 0.08961 0.71945 0.0
H248 H 0.54241 0.14791 0.74978 0.0
H249 H 0.60425 0.15023 0.74114 0.0
S250 S 0.49778 0.99168 0.68943 0.0
N251 N 0.478 0.0184 0.70447 0.0
N252 N 0.54449 0.02116 0.69475 0.0
C253 C 0.54568 0.05487 0.70941 0.0
C254 C 0.50965 0.05344 0.7145 0.0
C255 C 0.46391 0.57523 0.86522 0.0
C256 C 0.48509 0.58783 0.93009 0.0
C257 C 0.42799 0.54152 0.86373 0.0
C258 C 0.41161 0.51973 0.92734 0.0
H259 H 0.47593 0.59046 0.8147 0.0
H260 H 0.41341 0.53186 0.81189 0.0
S261 S 0.45378 0.54322 0.11267 0.0
N262 N 0.48598 0.57776 0.06054 0.0
N263 N 0.41818 0.51498 0.05794 0.0
C264 C 0.43152 0.53339 0.99332 0.0
C265 C 0.46837 0.56728 0.99459 0.0
C266 C 0.90403 0.43329 0.15725 0.0
C267 C 0.89421 0.41172 0.09273 0.0
C268 C 0.90764 0.4698 0.1586 0.0
C269 C 0.90088 0.48574 0.09588 0.0
H270 H 0.9108 0.42276 0.2061 0.0
H271 H 0.91656 0.48597 0.20895 0.0
S272 S 0.8706 0.43905 0.91516 0.0
N273 N 0.87526 0.40767 0.96581 0.0
N274 N 0.88123 0.47594 0.96887 0.0
C275 C 0.88898 0.46356 0.03208 0.0
C276 C 0.88589 0.42664 0.0304 0.0
C277 C 0.43549 0.90271 0.31219 0.0
C278 C 0.41332 0.89476 0.24842 0.0
C279 C 0.46923 0.90062 0.31325 0.0
C280 C 0.48244 0.89122 0.25015 0.0
H281 H 0.42705 0.91127 0.36159 0.0
H282 H 0.48594 0.90817 0.36295 0.0
S283 S 0.43367 0.86538 0.07043 0.0
N284 N 0.40569 0.87474 0.12188 0.0
N285 N 0.46964 0.87168 0.12314 0.0
C286 C 0.45986 0.88187 0.18666 0.0
C287 C 0.42513 0.88338 0.18597 0.0
C288 C 0.38448 0.38697 0.69981 0.0
C289 C 0.34698 0.36571 0.72708 0.0
C290 C 0.39421 0.37821 0.63273 0.0
C291 C 0.36691 0.34764 0.59045 0.0
H292 H 0.40661 0.41094 0.73007 0.0
H293 H 0.42361 0.39543 0.6144 0.0
S294 S 0.26455 0.28312 0.63698 0.0
N295 N 0.28209 0.31287 0.70667 0.0
N296 N 0.30073 0.29598 0.58005 0.0
C297 C 0.32927 0.3259 0.61695 0.0
C298 C 0.31921 0.33502 0.68549 0.0
C299 C 0.01164 0.38559 0.89059 0.0
C300 C 0.98775 0.34669 0.90785 0.0
C301 C 0.0326 0.39654 0.82611 0.0
C302 C 0.03033 0.36896 0.77645 0.0
H303 H 0.01358 0.40791 0.92635 0.0
H304 H 0.05004 0.42691 0.81455 0.0
S305 S 0.97386 0.26321 0.7985 0.0
N306 N 0.9644 0.28036 0.87234 0.0
N307 N 0.00404 0.30105 0.75034 0.0
C308 C 0.00768 0.3299 0.79415 0.0
C309 C 0.98632 0.3187 0.86018 0.0
C310 C 0.6646 0.98946 0.02621 0.0
C311 C 0.64015 0.99256 0.07686 0.0
C312 C 0.67465 0.01058 0.96162 0.0
C313 C 0.66066 0.03554 0.94581 0.0
H314 H 0.67499 0.96961 0.03519 0.0
H315 H 0.6927 0.00653 0.92306 0.0
S316 S 0.59921 0.05707 0.06475 0.0
N317 N 0.60469 0.02469 0.11008 0.0
N318 N 0.62368 0.06459 0.98856 0.0
C319 C 0.63769 0.04031 0.99767 0.0
C320 C 0.6274 0.01873 0.06334 0.0
C321 C 0.6772 0.67769 0.14634 0.0
C322 C 0.64007 0.67218 0.13781 0.0
C323 C 0.68916 0.67079 0.21347 0.0
C324 C 0.66427 0.65818 0.27374 0.0
H325 H 0.69638 0.68538 0.10013 0.0
H326 H 0.71697 0.67273 0.21661 0.0
S327 S 0.56717 0.64688 0.28321 0.0
N328 N 0.58072 0.65902 0.1979 0.0
N329 N 0.60325 0.6458 0.32373 0.0
C330 C 0.62844 0.65583 0.26748 0.0
C331 C 0.61627 0.66286 0.19943 0.0
C332 C 0.04152 0.70364 0.34645 0.0
C333 C 0.01932 0.68791 0.40956 0.0
C334 C 0.02438 0.69417 0.27756 0.0
C335 C 0.98465 0.67005 0.27086 0.0
H336 H 0.07255 0.72009 0.34995 0.0
H337 H 0.04245 0.70344 0.22955 0.0
S338 S 0.91388 0.62644 0.42001 0.0
N339 N 0.95576 0.6502 0.4617 0.0
N340 N 0.92319 0.63412 0.33205 0.0
C341 C 0.9619 0.65745 0.33374 0.0
C342 C 0.9794 0.66602 0.40351 0.0
C343 C 0.31979 0.99348 0.46222 0.0
C344 C 0.32331 0.9606 0.45537 0.0
C345 C 0.32653 0.01239 0.52916 0.0
C346 C 0.33692 0.99884 0.59077 0.0
H347 H 0.31406 0.00593 0.41491 0.0
H348 H 0.32642 0.03927 0.5312 0.0
S349 S 0.34167 0.90943 0.60445 0.0
N350 N 0.33162 0.91185 0.51812 0.0
N351 N 0.34456 0.94769 0.64367 0.0
C352 C 0.33695 0.96409 0.58604 0.0
C353 C 0.33011 0.94488 0.5182 0.0
C354 C 0.41397 0.23422 0.60196 0.0
C355 C 0.40935 0.22943 0.52571 0.0
C356 C 0.41252 0.20536 0.64736 0.0
C357 C 0.40718 0.1708 0.61822 0.0
H358 H 0.41846 0.26049 0.62716 0.0
H359 H 0.41623 0.21043 0.70547 0.0
S360 S 0.39253 0.14326 0.42262 0.0
N361 N 0.39808 0.1868 0.42368 0.0
N362 N 0.39618 0.13289 0.50823 0.0
C363 C 0.40235 0.16551 0.5421 0.0
C364 C 0.40318 0.19467 0.49607 0.0
C365 C 0.23178 0.43924 0.77458 0.0
C366 C 0.22791 0.40469 0.80155 0.0
C367 C 0.20765 0.43946 0.71942 0.0
C368 C 0.17864 0.40515 0.68836 0.0
H369 H 0.25394 0.46653 0.7957 0.0
H370 H 0.21158 0.46688 0.70159 0.0
S371 S 0.15651 0.30673 0.73891 0.0
N372 N 0.19271 0.33506 0.79234 0.0
N373 N 0.14748 0.33547 0.68903 0.0
C374 C 0.17449 0.37034 0.71461 0.0
C375 C 0.19898 0.3701 0.77109 0.0
C376 C 0.82659 0.19986 0.93941 0.0
C377 C 0.82216 0.23004 0.96722 0.0
C378 C 0.80297 0.17602 0.8832 0.0
C379 C 0.77401 0.18143 0.85193 0.0
H380 H 0.84877 0.19476 0.9607 0.0
H381 H 0.80718 0.15281 0.86481 0.0
S382 S 0.75065 0.2566 0.90443 0.0
N383 N 0.78647 0.26405 0.95861 0.0
N384 N 0.74244 0.21958 0.85319 0.0
C385 C 0.76943 0.21168 0.8789 0.0
C386 C 0.7933 0.23578 0.93646 0.0
C387 C 0.56738 0.7971 0.10511 0.0
C388 C 0.60143 0.82636 0.13651 0.0
C389 C 0.56808 0.77265 0.05137 0.0
C390 C 0.60285 0.77625 0.02661 0.0
H391 H 0.5398 0.79314 0.12166 0.0
H392 H 0.54095 0.75017 0.03025 0.0
S393 S 0.70028 0.84862 0.09005 0.0
N394 N 0.6711 0.85792 0.13773 0.0
N395 N 0.67241 0.81187 0.03736 0.0
C396 C 0.63719 0.80561 0.05704 0.0
C397 C 0.63648 0.83059 0.11181 0.0
C398 C 0.79709 0.58176 0.33146 0.0
C399 C 0.77087 0.59165 0.30275 0.0
C400 C 0.82465 0.58026 0.28674 0.0
C401 C 0.82774 0.58952 0.21188 0.0
H402 H 0.79595 0.57451 0.38859 0.0
H403 H 0.84403 0.57219 0.31152 0.0
S404 S 0.76652 0.61853 0.11064 0.0
N405 N 0.74983 0.61123 0.19473 0.0
N406 N 0.80227 0.60945 0.11165 0.0
C407 C 0.80191 0.59985 0.18273 0.0
C408 C 0.77337 0.60068 0.2279 0.0
C409 C 0.17912 0.80003 0.44846 0.0
C410 C 0.17707 0.76441 0.459 0.0
C411 C 0.20254 0.82561 0.39406 0.0
C412 C 0.22525 0.81687 0.34826 0.0
H413 H 0.16193 0.80799 0.4816 0.0
H414 H 0.20345 0.85288 0.38908 0.0
S415 S 0.23059 0.72742 0.35393 0.0
N416 N 0.19977 0.72164 0.41884 0.0
N417 N 0.24423 0.76992 0.31774 0.0
C418 C 0.22352 0.78135 0.35834 0.0
C419 C 0.19939 0.75514 0.41334 0.0
loop_
_geom_bond_atom_site_label_1
_geom_bond_atom_site_label_2
_geom_bond_distance
_geom_bond_site_symmetry_2
_ccdc_geom_bond_type
In0 O1 2.294 . S
In0 O2 2.326 . S
In0 O6 2.266 . S
In0 O7 2.326 . S
In0 O8 2.266 . S
In0 O9 2.326 . S
In0 O11 2.294 . S
In0 O12 2.326 . S
O1 In0 2.294 . S
O1 C10 1.240 . S
O2 In0 2.326 . S
O2 C10 1.252 . S
C3 O6 1.252 . S
C3 O7 1.260 . S
C4 O11 1.240 . S
C4 O12 1.252 . S
C5 O8 1.252 . S
C5 O9 1.260 . S
O6 In0 2.266 . S
O6 C3 1.252 . S
O7 In0 2.326 . S
O7 C3 1.260 . S
O8 In0 2.266 . S
O8 C5 1.252 . S
O9 In0 2.326 . S
O9 C5 1.260 . S
C10 O1 1.240 . S
C10 O2 1.252 . S
O11 In0 2.294 . S
O11 C4 1.240 . S
O12 In0 2.326 . S
O12 C4 1.252 . S
In13 O14 2.294 . S
In13 O15 2.326 . S
In13 O19 2.266 . S
In13 O20 2.326 . S
In13 O21 2.266 . S
In13 O22 2.326 . S
In13 O24 2.294 . S
In13 O25 2.326 . S
O14 In13 2.294 . S
O14 C23 1.240 . S
O15 In13 2.326 . S
O15 C23 1.252 . S
C16 O19 1.252 . S
C16 O20 1.260 . S
C17 O24 1.240 . S
C17 O25 1.252 . S
C18 O21 1.252 . S
C18 O22 1.260 . S
O19 In13 2.266 . S
O19 C16 1.252 . S
O20 In13 2.326 . S
O20 C16 1.260 . S
O21 In13 2.266 . S
O21 C18 1.252 . S
O22 In13 2.326 . S
O22 C18 1.260 . S
C23 O14 1.240 . S
C23 O15 1.252 . S
O24 In13 2.294 . S
O24 C17 1.240 . S
O25 In13 2.326 . S
O25 C17 1.252 . S
In26 O27 2.294 . S
In26 O28 2.326 . S
In26 O32 2.266 . S
In26 O33 2.326 . S
In26 O34 2.266 . S
In26 O35 2.326 . S
In26 O37 2.294 . S
In26 O38 2.326 . S
O27 In26 2.294 . S
O27 C36 1.240 . S
O28 In26 2.326 . S
O28 C36 1.252 . S
C29 O32 1.252 . S
C29 O33 1.260 . S
C30 O37 1.240 . S
C30 O38 1.252 . S
C31 O34 1.252 . S
C31 O35 1.260 . S
O32 In26 2.266 . S
O32 C29 1.252 . S
O33 In26 2.326 . S
O33 C29 1.260 . S
O34 In26 2.266 . S
O34 C31 1.252 . S
O35 In26 2.326 . S
O35 C31 1.260 . S
C36 O27 1.240 . S
C36 O28 1.252 . S
O37 In26 2.294 . S
O37 C30 1.240 . S
O38 In26 2.326 . S
O38 C30 1.252 . S
In39 O40 2.294 1_556 S
In39 O41 2.326 . S
In39 O45 2.266 . S
In39 O46 2.326 . S
In39 O47 2.266 . S
In39 O48 2.326 . S
In39 O50 2.294 . S
In39 O51 2.326 1_556 S
O40 In39 2.294 1_554 S
O40 C49 1.240 . S
O41 In39 2.326 . S
O41 C49 1.252 1_556 S
C42 O45 1.252 . S
C42 O46 1.260 . S
C43 O50 1.240 . S
C43 O51 1.252 1_556 S
C44 O47 1.252 . S
C44 O48 1.260 . S
O45 In39 2.266 . S
O45 C42 1.252 . S
O46 In39 2.326 . S
O46 C42 1.260 . S
O47 In39 2.266 . S
O47 C44 1.252 . S
O48 In39 2.326 . S
O48 C44 1.260 . S
C49 O40 1.240 . S
C49 O41 1.252 1_554 S
O50 In39 2.294 . S
O50 C43 1.240 . S
O51 In39 2.326 1_554 S
O51 C43 1.252 1_554 S
In52 O53 2.294 . S
In52 O54 2.326 . S
In52 O58 2.266 1_554 S
In52 O59 2.326 . S
In52 O60 2.266 . S
In52 O61 2.326 . S
In52 O63 2.294 . S
In52 O64 2.326 . S
O53 In52 2.294 . S
O53 C62 1.240 . S
O54 In52 2.326 . S
O54 C62 1.252 . S
C55 O58 1.252 . S
C55 O59 1.260 1_556 S
C56 O63 1.240 . S
C56 O64 1.252 . S
C57 O60 1.252 . S
C57 O61 1.260 . S
O58 In52 2.266 1_556 S
O58 C55 1.252 . S
O59 In52 2.326 . S
O59 C55 1.260 1_554 S
O60 In52 2.266 . S
O60 C57 1.252 . S
O61 In52 2.326 . S
O61 C57 1.260 . S
C62 O53 1.240 . S
C62 O54 1.252 . S
O63 In52 2.294 . S
O63 C56 1.240 . S
O64 In52 2.326 . S
O64 C56 1.252 . S
In65 O66 2.294 . S
In65 O67 2.326 . S
In65 O71 2.266 . S
In65 O72 2.326 . S
In65 O73 2.266 . S
In65 O74 2.326 . S
In65 O76 2.294 . S
In65 O77 2.326 . S
O66 In65 2.294 . S
O66 C75 1.240 . S
O67 In65 2.326 . S
O67 C75 1.252 . S
C68 O71 1.252 . S
C68 O72 1.260 . S
C69 O76 1.240 . S
C69 O77 1.252 . S
C70 O73 1.252 . S
C70 O74 1.260 . S
O71 In65 2.266 . S
O71 C68 1.252 . S
O72 In65 2.326 . S
O72 C68 1.260 . S
O73 In65 2.266 . S
O73 C70 1.252 . S
O74 In65 2.326 . S
O74 C70 1.260 . S
C75 O66 1.240 . S
C75 O67 1.252 . S
O76 In65 2.294 . S
O76 C69 1.240 . S
O77 In65 2.326 . S
O77 C69 1.252 . S
In78 O79 2.294 . S
In78 O80 2.326 . S
In78 O84 2.266 . S
In78 O85 2.326 . S
In78 O86 2.266 . S
In78 O87 2.326 . S
In78 O89 2.294 . S
In78 O90 2.326 . S
O79 In78 2.294 . S
O79 C88 1.240 . S
O80 In78 2.326 . S
O80 C88 1.252 . S
C81 O84 1.252 . S
C81 O85 1.260 . S
C82 O89 1.240 . S
C82 O90 1.252 . S
C83 O86 1.252 . S
C83 O87 1.260 . S
O84 In78 2.266 . S
O84 C81 1.252 . S
O85 In78 2.326 . S
O85 C81 1.260 . S
O86 In78 2.266 . S
O86 C83 1.252 . S
O87 In78 2.326 . S
O87 C83 1.260 . S
C88 O79 1.240 . S
C88 O80 1.252 . S
O89 In78 2.294 . S
O89 C82 1.240 . S
O90 In78 2.326 . S
O90 C82 1.252 . S
In91 O92 2.294 . S
In91 O93 2.326 . S
In91 O97 2.266 . S
In91 O98 2.326 . S
In91 O99 2.266 . S
In91 O100 2.326 . S
In91 O102 2.294 . S
In91 O103 2.326 . S
O92 In91 2.294 . S
O92 C101 1.240 . S
O93 In91 2.326 . S
O93 C101 1.252 . S
C94 O97 1.252 . S
C94 O98 1.260 . S
C95 O102 1.240 . S
C95 O103 1.252 . S
C96 O99 1.252 . S
C96 O100 1.260 . S
O97 In91 2.266 . S
O97 C94 1.252 . S
O98 In91 2.326 . S
O98 C94 1.260 . S
O99 In91 2.266 . S
O99 C96 1.252 . S
O100 In91 2.326 . S
O100 C96 1.260 . S
C101 O92 1.240 . S
C101 O93 1.252 . S
O102 In91 2.294 . S
O102 C95 1.240 . S
O103 In91 2.326 . S
O103 C95 1.252 . S
In104 O105 2.294 . S
In104 O106 2.326 . S
In104 O110 2.266 . S
In104 O111 2.326 . S
In104 O112 2.266 . S
In104 O113 2.326 . S
In104 O115 2.294 . S
In104 O116 2.326 . S
O105 In104 2.294 . S
O105 C114 1.240 . S
O106 In104 2.326 . S
O106 C114 1.252 . S
C107 O110 1.252 . S
C107 O111 1.260 . S
C108 O115 1.240 . S
C108 O116 1.252 . S
C109 O112 1.252 . S
C109 O113 1.260 . S
O110 In104 2.266 . S
O110 C107 1.252 . S
O111 In104 2.326 . S
O111 C107 1.260 . S
O112 In104 2.266 . S
O112 C109 1.252 . S
O113 In104 2.326 . S
O113 C109 1.260 . S
C114 O105 1.240 . S
C114 O106 1.252 . S
O115 In104 2.294 . S
O115 C108 1.240 . S
O116 In104 2.326 . S
O116 C108 1.252 . S
In117 O118 2.294 . S
In117 O119 2.326 . S
In117 O123 2.266 . S
In117 O124 2.326 . S
In117 O125 2.266 1_556 S
In117 O126 2.326 . S
In117 O128 2.294 . S
In117 O129 2.326 . S
O118 In117 2.294 . S
O118 C127 1.240 . S
O119 In117 2.326 . S
O119 C127 1.252 . S
C120 O123 1.252 . S
C120 O124 1.260 . S
C121 O128 1.240 . S
C121 O129 1.252 . S
C122 O125 1.252 . S
C122 O126 1.260 1_554 S
O123 In117 2.266 . S
O123 C120 1.252 . S
O124 In117 2.326 . S
O124 C120 1.260 . S
O125 In117 2.266 1_554 S
O125 C122 1.252 . S
O126 In117 2.326 . S
O126 C122 1.260 1_556 S
C127 O118 1.240 . S
C127 O119 1.252 . S
O128 In117 2.294 . S
O128 C121 1.240 . S
O129 In117 2.326 . S
O129 C121 1.252 . S
In130 O131 2.294 1_554 S
In130 O132 2.326 . S
In130 O136 2.266 . S
In130 O137 2.326 . S
In130 O138 2.266 . S
In130 O139 2.326 . S
In130 O141 2.294 . S
In130 O142 2.326 1_554 S
O131 In130 2.294 1_556 S
O131 C140 1.240 . S
O132 In130 2.326 . S
O132 C140 1.252 1_554 S
C133 O136 1.252 . S
C133 O137 1.260 . S
C134 O141 1.240 . S
C134 O142 1.252 1_554 S
C135 O138 1.252 . S
C135 O139 1.260 . S
O136 In130 2.266 . S
O136 C133 1.252 . S
O137 In130 2.326 . S
O137 C133 1.260 . S
O138 In130 2.266 . S
O138 C135 1.252 . S
O139 In130 2.326 . S
O139 C135 1.260 . S
C140 O131 1.240 . S
C140 O132 1.252 1_556 S
O141 In130 2.294 . S
O141 C134 1.240 . S
O142 In130 2.326 1_556 S
O142 C134 1.252 1_556 S
In143 O144 2.294 . S
In143 O145 2.326 . S
In143 O149 2.266 . S
In143 O150 2.326 . S
In143 O151 2.266 . S
In143 O152 2.326 . S
In143 O154 2.294 . S
In143 O155 2.326 . S
O144 In143 2.294 . S
O144 C153 1.240 . S
O145 In143 2.326 . S
O145 C153 1.252 . S
C146 O149 1.252 . S
C146 O150 1.260 . S
C147 O154 1.240 . S
C147 O155 1.252 . S
C148 O151 1.252 . S
C148 O152 1.260 . S
O149 In143 2.266 . S
O149 C146 1.252 . S
O150 In143 2.326 . S
O150 C146 1.260 . S
O151 In143 2.266 . S
O151 C148 1.252 . S
O152 In143 2.326 . S
O152 C148 1.260 . S
C153 O144 1.240 . S
C153 O145 1.252 . S
O154 In143 2.294 . S
O154 C147 1.240 . S
O155 In143 2.326 . S
O155 C147 1.252 . S
C156 C157 1.369 . S
C156 C158 1.419 . S
C156 H160 0.930 . S
C157 C156 1.369 . S
C157 C166 1.429 . S
C158 C156 1.419 . S
C158 C159 1.363 . S
C158 H161 0.929 . S
C159 C158 1.363 . S
C159 C165 1.428 . S
H160 C156 0.930 . S
H161 C158 0.929 . S
S162 N163 1.613 . S
S162 N164 1.610 . S
N163 S162 1.613 . S
N163 C166 1.350 . S
N164 S162 1.610 . S
N164 C165 1.351 . S
C165 C159 1.428 . S
C165 N164 1.351 . S
C165 C166 1.434 . S
C166 C157 1.429 . S
C166 N163 1.350 . S
C166 C165 1.434 . S
C167 C168 1.369 . S
C167 C169 1.419 . S
C167 H171 0.930 . S
C168 C167 1.369 . S
C168 C177 1.429 1_455 S
C169 C167 1.419 . S
C169 C170 1.363 1_455 S
C169 H172 0.929 . S
C170 C169 1.363 1_655 S
C170 C176 1.428 . S
H171 C167 0.930 . S
H172 C169 0.929 . S
S173 N174 1.613 . S
S173 N175 1.610 . S
N174 S173 1.613 . S
N174 C177 1.350 . S
N175 S173 1.610 . S
N175 C176 1.351 . S
C176 C170 1.428 . S
C176 N175 1.351 . S
C176 C177 1.434 . S
C177 C168 1.429 1_655 S
C177 N174 1.350 . S
C177 C176 1.434 . S
C178 C179 1.369 1_545 S
C178 C180 1.419 . S
C178 H182 0.930 . S
C179 C178 1.369 1_565 S
C179 C188 1.429 . S
C180 C178 1.419 . S
C180 C181 1.363 . S
C180 H183 0.929 . S
C181 C180 1.363 . S
C181 C187 1.428 1_545 S
H182 C178 0.930 . S
H183 C180 0.929 . S
S184 N185 1.613 . S
S184 N186 1.610 . S
N185 S184 1.613 . S
N185 C188 1.350 . S
N186 S184 1.610 . S
N186 C187 1.351 . S
C187 C181 1.428 1_565 S
C187 N186 1.351 . S
C187 C188 1.434 . S
C188 C179 1.429 . S
C188 N185 1.350 . S
C188 C187 1.434 . S
C189 C190 1.369 . S
C189 C191 1.419 . S
C189 H193 0.930 . S
C190 C189 1.369 . S
C190 C199 1.429 . S
C191 C189 1.419 . S
C191 C192 1.363 . S
C191 H194 0.929 . S
C192 C191 1.363 . S
C192 C198 1.428 . S
H193 C189 0.930 . S
H194 C191 0.929 . S
S195 N196 1.613 . S
S195 N197 1.610 . S
N196 S195 1.613 . S
N196 C199 1.350 . S
N197 S195 1.610 . S
N197 C198 1.351 . S
C198 C192 1.428 . S
C198 N197 1.351 . S
C198 C199 1.434 . S
C199 C190 1.429 . S
C199 N196 1.350 . S
C199 C198 1.434 . S
C200 C201 1.369 1_655 S
C200 C202 1.419 . S
C200 H204 0.930 . S
C201 C200 1.369 1_455 S
C201 C210 1.429 . S
C202 C200 1.419 . S
C202 C203 1.363 . S
C202 H205 0.929 . S
C203 C202 1.363 . S
C203 C209 1.428 1_655 S
H204 C200 0.930 . S
H205 C202 0.929 . S
S206 N207 1.613 . S
S206 N208 1.610 . S
N207 S206 1.613 . S
N207 C210 1.350 . S
N208 S206 1.610 . S
N208 C209 1.351 . S
C209 C203 1.428 1_455 S
C209 N208 1.351 . S
C209 C210 1.434 . S
C210 C201 1.429 . S
C210 N207 1.350 . S
C210 C209 1.434 . S
C211 C212 1.369 . S
C211 C213 1.419 1_556 S
C211 H215 0.930 . S
C212 C211 1.369 . S
C212 C221 1.429 1_545 S
C213 C211 1.419 1_554 S
C213 C214 1.363 1_545 S
C213 H216 0.929 . S
C214 C213 1.363 1_565 S
C214 C220 1.428 . S
H215 C211 0.930 . S
H216 C213 0.929 . S
S217 N218 1.613 . S
S217 N219 1.610 . S
N218 S217 1.613 . S
N218 C221 1.350 . S
N219 S217 1.610 . S
N219 C220 1.351 1_556 S
C220 C214 1.428 . S
C220 N219 1.351 1_554 S
C220 C221 1.434 1_554 S
C221 C212 1.429 1_565 S
C221 N218 1.350 . S
C221 C220 1.434 1_556 S
C222 C223 1.369 . S
C222 C224 1.419 . S
C222 H226 0.930 . S
C223 C222 1.369 . S
C223 C232 1.429 . S
C224 C222 1.419 . S
C224 C225 1.363 . S
C224 H227 0.929 . S
C225 C224 1.363 . S
C225 C231 1.428 . S
H226 C222 0.930 . S
H227 C224 0.929 . S
S228 N229 1.613 . S
S228 N230 1.610 . S
N229 S228 1.613 . S
N229 C232 1.350 . S
N230 S228 1.610 . S
N230 C231 1.351 . S
C231 C225 1.428 . S
C231 N230 1.351 . S
C231 C232 1.434 . S
C232 C223 1.429 . S
C232 N229 1.350 . S
C232 C231 1.434 . S
C233 C234 1.369 . S
C233 C235 1.419 . S
C233 H237 0.930 . S
C234 C233 1.369 . S
C234 C243 1.429 . S
C235 C233 1.419 . S
C235 C236 1.363 . S
C235 H238 0.929 . S
C236 C235 1.363 . S
C236 C242 1.428 . S
H237 C233 0.930 . S
H238 C235 0.929 . S
S239 N240 1.613 . S
S239 N241 1.610 . S
N240 S239 1.613 . S
N240 C243 1.350 . S
N241 S239 1.610 . S
N241 C242 1.351 . S
C242 C236 1.428 . S
C242 N241 1.351 . S
C242 C243 1.434 . S
C243 C234 1.429 . S
C243 N240 1.350 . S
C243 C242 1.434 . S
C244 C245 1.369 . S
C244 C246 1.419 . S
C244 H248 0.930 . S
C245 C244 1.369 . S
C245 C254 1.429 . S
C246 C244 1.419 . S
C246 C247 1.363 . S
C246 H249 0.929 . S
C247 C246 1.363 . S
C247 C253 1.428 . S
H248 C244 0.930 . S
H249 C246 0.929 . S
S250 N251 1.613 . S
S250 N252 1.610 . S
N251 S250 1.613 . S
N251 C254 1.350 . S
N252 S250 1.610 . S
N252 C253 1.351 . S
C253 C247 1.428 . S
C253 N252 1.351 . S
C253 C254 1.434 . S
C254 C245 1.429 . S
C254 N251 1.350 . S
C254 C253 1.434 . S
C255 C256 1.369 . S
C255 C257 1.419 . S
C255 H259 0.930 . S
C256 C255 1.369 . S
C256 C265 1.429 . S
C257 C255 1.419 . S
C257 C258 1.363 . S
C257 H260 0.929 . S
C258 C257 1.363 . S
C258 C264 1.428 . S
H259 C255 0.930 . S
H260 C257 0.929 . S
S261 N262 1.613 . S
S261 N263 1.610 . S
N262 S261 1.613 . S
N262 C265 1.350 1_554 S
N263 S261 1.610 . S
N263 C264 1.351 1_554 S
C264 C258 1.428 . S
C264 N263 1.351 1_556 S
C264 C265 1.434 . S
C265 C256 1.429 . S
C265 N262 1.350 1_556 S
C265 C264 1.434 . S
C266 C267 1.369 . S
C266 C268 1.419 . S
C266 H270 0.930 . S
C267 C266 1.369 . S
C267 C276 1.429 . S
C268 C266 1.419 . S
C268 C269 1.363 . S
C268 H271 0.929 . S
C269 C268 1.363 . S
C269 C275 1.428 . S
H270 C266 0.930 . S
H271 C268 0.929 . S
S272 N273 1.613 . S
S272 N274 1.610 . S
N273 S272 1.613 . S
N273 C276 1.350 1_556 S
N274 S272 1.610 . S
N274 C275 1.351 1_556 S
C275 C269 1.428 . S
C275 N274 1.351 1_554 S
C275 C276 1.434 . S
C276 C267 1.429 . S
C276 N273 1.350 1_554 S
C276 C275 1.434 . S
C277 C278 1.369 . S
C277 C279 1.419 . S
C277 H281 0.930 . S
C278 C277 1.369 . S
C278 C287 1.429 . S
C279 C277 1.419 . S
C279 C280 1.363 . S
C279 H282 0.929 . S
C280 C279 1.363 . S
C280 C286 1.428 . S
H281 C277 0.930 . S
H282 C279 0.929 . S
S283 N284 1.613 . S
S283 N285 1.610 . S
N284 S283 1.613 . S
N284 C287 1.350 . S
N285 S283 1.610 . S
N285 C286 1.351 . S
C286 C280 1.428 . S
C286 N285 1.351 . S
C286 C287 1.434 . S
C287 C278 1.429 . S
C287 N284 1.350 . S
C287 C286 1.434 . S
C288 C289 1.369 . S
C288 C290 1.419 . S
C288 H292 0.930 . S
C289 C288 1.369 . S
C289 C298 1.429 . S
C290 C288 1.419 . S
C290 C291 1.363 . S
C290 H293 0.929 . S
C291 C290 1.363 . S
C291 C297 1.428 . S
H292 C288 0.930 . S
H293 C290 0.929 . S
S294 N295 1.613 . S
S294 N296 1.610 . S
N295 S294 1.613 . S
N295 C298 1.350 . S
N296 S294 1.610 . S
N296 C297 1.351 . S
C297 C291 1.428 . S
C297 N296 1.351 . S
C297 C298 1.434 . S
C298 C289 1.429 . S
C298 N295 1.350 . S
C298 C297 1.434 . S
C299 C300 1.369 1_455 S
C299 C301 1.419 . S
C299 H303 0.930 . S
C300 C299 1.369 1_655 S
C300 C309 1.429 . S
C301 C299 1.419 . S
C301 C302 1.363 . S
C301 H304 0.929 . S
C302 C301 1.363 . S
C302 C308 1.428 1_455 S
H303 C299 0.930 . S
H304 C301 0.929 . S
S305 N306 1.613 . S
S305 N307 1.610 . S
N306 S305 1.613 . S
N306 C309 1.350 . S
N307 S305 1.610 . S
N307 C308 1.351 . S
C308 C302 1.428 1_655 S
C308 N307 1.351 . S
C308 C309 1.434 . S
C309 C300 1.429 . S
C309 N306 1.350 . S
C309 C308 1.434 . S
C310 C311 1.369 . S
C310 C312 1.419 1_564 S
C310 H314 0.930 . S
C311 C310 1.369 . S
C311 C320 1.429 . S
C312 C310 1.419 1_546 S
C312 C313 1.363 . S
C312 H315 0.929 . S
C313 C312 1.363 . S
C313 C319 1.428 . S
H314 C310 0.930 . S
H315 C312 0.929 . S
S316 N317 1.613 1_545 S
S316 N318 1.610 1_554 S
N317 S316 1.613 1_565 S
N317 C320 1.350 . S
N318 S316 1.610 1_556 S
N318 C319 1.351 . S
C319 C313 1.428 . S
C319 N318 1.351 . S
C319 C320 1.434 1_546 S
C320 C311 1.429 . S
C320 N317 1.350 . S
C320 C319 1.434 1_564 S
C321 C322 1.369 . S
C321 C323 1.419 . S
C321 H325 0.930 . S
C322 C321 1.369 . S
C322 C331 1.429 . S
C323 C321 1.419 . S
C323 C324 1.363 . S
C323 H326 0.929 . S
C324 C323 1.363 . S
C324 C330 1.428 . S
H325 C321 0.930 . S
H326 C323 0.929 . S
S327 N328 1.613 . S
S327 N329 1.610 . S
N328 S327 1.613 . S
N328 C331 1.350 . S
N329 S327 1.610 . S
N329 C330 1.351 . S
C330 C324 1.428 . S
C330 N329 1.351 . S
C330 C331 1.434 . S
C331 C322 1.429 . S
C331 N328 1.350 . S
C331 C330 1.434 . S
C332 C333 1.369 . S
C332 C334 1.419 . S
C332 H336 0.930 . S
C333 C332 1.369 . S
C333 C342 1.429 1_455 S
C334 C332 1.419 . S
C334 C335 1.363 1_455 S
C334 H337 0.929 . S
C335 C334 1.363 1_655 S
C335 C341 1.428 . S
H336 C332 0.930 . S
H337 C334 0.929 . S
S338 N339 1.613 . S
S338 N340 1.610 . S
N339 S338 1.613 . S
N339 C342 1.350 . S
N340 S338 1.610 . S
N340 C341 1.351 . S
C341 C335 1.428 . S
C341 N340 1.351 . S
C341 C342 1.434 . S
C342 C333 1.429 1_655 S
C342 N339 1.350 . S
C342 C341 1.434 . S
C343 C344 1.369 1_545 S
C343 C345 1.419 . S
C343 H347 0.930 . S
C344 C343 1.369 1_565 S
C344 C353 1.429 . S
C345 C343 1.419 . S
C345 C346 1.363 . S
C345 H348 0.929 . S
C346 C345 1.363 . S
C346 C352 1.428 1_545 S
H347 C343 0.930 . S
H348 C345 0.929 . S
S349 N350 1.613 . S
S349 N351 1.610 . S
N350 S349 1.613 . S
N350 C353 1.350 . S
N351 S349 1.610 . S
N351 C352 1.351 . S
C352 C346 1.428 1_565 S
C352 N351 1.351 . S
C352 C353 1.434 . S
C353 C344 1.429 . S
C353 N350 1.350 . S
C353 C352 1.434 . S
C354 C355 1.369 . S
C354 C356 1.419 . S
C354 H358 0.930 . S
C355 C354 1.369 . S
C355 C364 1.429 . S
C356 C354 1.419 . S
C356 C357 1.363 . S
C356 H359 0.929 . S
C357 C356 1.363 . S
C357 C363 1.428 . S
H358 C354 0.930 . S
H359 C356 0.929 . S
S360 N361 1.613 . S
S360 N362 1.610 . S
N361 S360 1.613 . S
N361 C364 1.350 . S
N362 S360 1.610 . S
N362 C363 1.351 . S
C363 C357 1.428 . S
C363 N362 1.351 . S
C363 C364 1.434 . S
C364 C355 1.429 . S
C364 N361 1.350 . S
C364 C363 1.434 . S
C365 C366 1.369 . S
C365 C367 1.419 . S
C365 H369 0.930 . S
C366 C365 1.369 . S
C366 C375 1.429 . S
C367 C365 1.419 . S
C367 C368 1.363 . S
C367 H370 0.929 . S
C368 C367 1.363 . S
C368 C374 1.428 . S
H369 C365 0.930 . S
H370 C367 0.929 . S
S371 N372 1.613 . S
S371 N373 1.610 . S
N372 S371 1.613 . S
N372 C375 1.350 . S
N373 S371 1.610 . S
N373 C374 1.351 . S
C374 C368 1.428 . S
C374 N373 1.351 . S
C374 C375 1.434 . S
C375 C366 1.429 . S
C375 N372 1.350 . S
C375 C374 1.434 . S
C376 C377 1.369 . S
C376 C378 1.419 . S
C376 H380 0.930 . S
C377 C376 1.369 . S
C377 C386 1.429 . S
C378 C376 1.419 . S
C378 C379 1.363 . S
C378 H381 0.929 . S
C379 C378 1.363 . S
C379 C385 1.428 . S
H380 C376 0.930 . S
H381 C378 0.929 . S
S382 N383 1.613 . S
S382 N384 1.610 . S
N383 S382 1.613 . S
N383 C386 1.350 . S
N384 S382 1.610 . S
N384 C385 1.351 . S
C385 C379 1.428 . S
C385 N384 1.351 . S
C385 C386 1.434 . S
C386 C377 1.429 . S
C386 N383 1.350 . S
C386 C385 1.434 . S
C387 C388 1.369 . S
C387 C389 1.419 . S
C387 H391 0.930 . S
C388 C387 1.369 . S
C388 C397 1.429 . S
C389 C387 1.419 . S
C389 C390 1.363 . S
C389 H392 0.929 . S
C390 C389 1.363 . S
C390 C396 1.428 . S
H391 C387 0.930 . S
H392 C389 0.929 . S
S393 N394 1.613 . S
S393 N395 1.610 . S
N394 S393 1.613 . S
N394 C397 1.350 . S
N395 S393 1.610 . S
N395 C396 1.351 . S
C396 C390 1.428 . S
C396 N395 1.351 . S
C396 C397 1.434 . S
C397 C388 1.429 . S
C397 N394 1.350 . S
C397 C396 1.434 . S
C398 C399 1.369 . S
C398 C400 1.419 . S
C398 H402 0.930 . S
C399 C398 1.369 . S
C399 C408 1.429 . S
C400 C398 1.419 . S
C400 C401 1.363 . S
C400 H403 0.929 . S
C401 C400 1.363 . S
C401 C407 1.428 . S
H402 C398 0.930 . S
H403 C400 0.929 . S
S404 N405 1.613 . S
S404 N406 1.610 . S
N405 S404 1.613 . S
N405 C408 1.350 . S
N406 S404 1.610 . S
N406 C407 1.351 . S
C407 C401 1.428 . S
C407 N406 1.351 . S
C407 C408 1.434 . S
C408 C399 1.429 . S
C408 N405 1.350 . S
C408 C407 1.434 . S
C409 C410 1.369 . S
C409 C411 1.419 . S
C409 H413 0.930 . S
C410 C409 1.369 . S
C410 C419 1.429 . S
C411 C409 1.419 . S
C411 C412 1.363 . S
C411 H414 0.929 . S
C412 C411 1.363 . S
C412 C418 1.428 . S
H413 C409 0.930 . S
H414 C411 0.929 . S
S415 N416 1.613 . S
S415 N417 1.610 . S
N416 S415 1.613 . S
N416 C419 1.350 . S
N417 S415 1.610 . S
N417 C418 1.351 . S
C418 C412 1.428 . S
C418 N417 1.351 . S
C418 C419 1.434 . S
C419 C410 1.429 . S
C419 N416 1.350 . S
C419 C418 1.434 . S
C157 C122 1.721 . S
C159 C3 1.721 . S
C168 C16 1.721 . S
C170 C135 1.722 . S
C179 C148 1.721 . S
C181 C29 1.721 . S
C190 C83 1.722 . S
C192 C44 1.722 . S
C201 C96 1.721 . S
C203 C55 1.721 . S
C212 C109 1.721 . S
C214 C70 1.722 . S
C223 C81 1.739 . S
C225 C5 1.737 . S
C234 C18 1.738 . S
C236 C94 1.733 . S
C245 C107 1.735 . S
C247 C31 1.734 . S
C256 C42 1.732 . S
C258 C120 1.739 . S
C267 C133 1.733 . S
C269 C57 1.740 . S
C278 C68 1.740 . S
C280 C146 1.733 . S
C289 C127 1.373 . S
C291 C4 1.372 . S
C300 C140 1.372 . S
C302 C17 1.372 . S
C311 C153 1.366 . S
C313 C30 1.367 . S
C322 C49 1.368 . S
C324 C88 1.370 . S
C333 C101 1.369 . S
C335 C56 1.368 . S
C344 C75 1.369 . S
C346 C114 1.371 . S
C355 C10 1.302 . S
C357 C108 1.297 . S
C366 C121 1.299 . S
C368 C23 1.299 . S
C377 C134 1.301 1_556 S
C379 C36 1.299 . S
C388 C147 1.297 . S
C390 C43 1.300 1_554 S
C399 C82 1.296 . S
C401 C62 1.302 . S
C410 C95 1.301 . S
C412 C69 1.299 . S
