# Generated by pormake.
# Topology umk, (4)-cn, num edge types: 1
# Building blocks:
#     Node 0, Type 0, BuildingBlock: GALJAG_clean_sbu_0, # of connection points: 4
#     Node 1, Type 0, BuildingBlock: GALJAG_clean_sbu_0, # of connection points: 4
#     Node 2, Type 0, BuildingBlock: GALJAG_clean_sbu_0, # of connection points: 4
#     Node 3, Type 0, BuildingBlock: GALJAG_clean_sbu_0, # of connection points: 4
#     Node 4, Type 0, BuildingBlock: GALJAG_clean_sbu_0, # of connection points: 4
#     Node 5, Type 0, BuildingBlock: GALJAG_clean_sbu_0, # of connection points: 4
#     Node 6, Type 0, BuildingBlock: GALJAG_clean_sbu_0, # of connection points: 4
#     Node 7, Type 0, BuildingBlock: GALJAG_clean_sbu_0, # of connection points: 4
#     Node 8, Type 0, BuildingBlock: GALJAG_clean_sbu_0, # of connection points: 4
#     Node 9, Type 0, BuildingBlock: GALJAG_clean_sbu_0, # of connection points: 4
#     Node 10, Type 0, BuildingBlock: GALJAG_clean_sbu_0, # of connection points: 4
#     Node 11, Type 0, BuildingBlock: GALJAG_clean_sbu_0, # of connection points: 4
#     Node 12, Type 0, BuildingBlock: GALJAG_clean_sbu_0, # of connection points: 4
#     Node 13, Type 0, BuildingBlock: GALJAG_clean_sbu_0, # of connection points: 4
#     Node 14, Type 0, BuildingBlock: GALJAG_clean_sbu_0, # of connection points: 4
#     Node 15, Type 0, BuildingBlock: GALJAG_clean_sbu_0, # of connection points: 4
#     Node 16, Type 0, BuildingBlock: GALJAG_clean_sbu_0, # of connection points: 4
#     Node 17, Type 0, BuildingBlock: GALJAG_clean_sbu_0, # of connection points: 4
#     Node 18, Type 0, BuildingBlock: GALJAG_clean_sbu_0, # of connection points: 4
#     Node 19, Type 0, BuildingBlock: GALJAG_clean_sbu_0, # of connection points: 4
#     Node 20, Type 0, BuildingBlock: GALJAG_clean_sbu_0, # of connection points: 4
#     Node 21, Type 0, BuildingBlock: GALJAG_clean_sbu_0, # of connection points: 4
#     Node 22, Type 0, BuildingBlock: GALJAG_clean_sbu_0, # of connection points: 4
#     Node 23, Type 0, BuildingBlock: GALJAG_clean_sbu_0, # of connection points: 4
#     Edge 24, Type (0, 0), BuildingBlock: CIFDUS_clean_linker_0, # of connection points: 2
#     Edge 25, Type (0, 0), BuildingBlock: CIFDUS_clean_linker_0, # of connection points: 2
#     Edge 26, Type (0, 0), BuildingBlock: CIFDUS_clean_linker_0, # of connection points: 2
#     Edge 27, Type (0, 0), BuildingBlock: CIFDUS_clean_linker_0, # of connection points: 2
#     Edge 28, Type (0, 0), BuildingBlock: CIFDUS_clean_linker_0, # of connection points: 2
#     Edge 29, Type (0, 0), BuildingBlock: CIFDUS_clean_linker_0, # of connection points: 2
#     Edge 30, Type (0, 0), BuildingBlock: CIFDUS_clean_linker_0, # of connection points: 2
#     Edge 31, Type (0, 0), BuildingBlock: CIFDUS_clean_linker_0, # of connection points: 2
#     Edge 32, Type (0, 0), BuildingBlock: CIFDUS_clean_linker_0, # of connection points: 2
#     Edge 33, Type (0, 0), BuildingBlock: CIFDUS_clean_linker_0, # of connection points: 2
#     Edge 34, Type (0, 0), BuildingBlock: CIFDUS_clean_linker_0, # of connection points: 2
#     Edge 35, Type (0, 0), BuildingBlock: CIFDUS_clean_linker_0, # of connection points: 2
#     Edge 36, Type (0, 0), BuildingBlock: CIFDUS_clean_linker_0, # of connection points: 2
#     Edge 37, Type (0, 0), BuildingBlock: CIFDUS_clean_linker_0, # of connection points: 2
#     Edge 38, Type (0, 0), BuildingBlock: CIFDUS_clean_linker_0, # of connection points: 2
#     Edge 39, Type (0, 0), BuildingBlock: CIFDUS_clean_linker_0, # of connection points: 2
#     Edge 40, Type (0, 0), BuildingBlock: CIFDUS_clean_linker_0, # of connection points: 2
#     Edge 41, Type (0, 0), BuildingBlock: CIFDUS_clean_linker_0, # of connection points: 2
#     Edge 42, Type (0, 0), BuildingBlock: CIFDUS_clean_linker_0, # of connection points: 2
#     Edge 43, Type (0, 0), BuildingBlock: CIFDUS_clean_linker_0, # of connection points: 2
#     Edge 44, Type (0, 0), BuildingBlock: CIFDUS_clean_linker_0, # of connection points: 2
#     Edge 45, Type (0, 0), BuildingBlock: CIFDUS_clean_linker_0, # of connection points: 2
#     Edge 46, Type (0, 0), BuildingBlock: CIFDUS_clean_linker_0, # of connection points: 2
#     Edge 47, Type (0, 0), BuildingBlock: CIFDUS_clean_linker_0, # of connection points: 2
#     Edge 48, Type (0, 0), BuildingBlock: CIFDUS_clean_linker_0, # of connection points: 2
#     Edge 49, Type (0, 0), BuildingBlock: CIFDUS_clean_linker_0, # of connection points: 2
#     Edge 50, Type (0, 0), BuildingBlock: CIFDUS_clean_linker_0, # of connection points: 2
#     Edge 51, Type (0, 0), BuildingBlock: CIFDUS_clean_linker_0, # of connection points: 2
#     Edge 52, Type (0, 0), BuildingBlock: CIFDUS_clean_linker_0, # of connection points: 2
#     Edge 53, Type (0, 0), BuildingBlock: CIFDUS_clean_linker_0, # of connection points: 2
#     Edge 54, Type (0, 0), BuildingBlock: CIFDUS_clean_linker_0, # of connection points: 2
#     Edge 55, Type (0, 0), BuildingBlock: CIFDUS_clean_linker_0, # of connection points: 2
#     Edge 56, Type (0, 0), BuildingBlock: CIFDUS_clean_linker_0, # of connection points: 2
#     Edge 57, Type (0, 0), BuildingBlock: CIFDUS_clean_linker_0, # of connection points: 2
#     Edge 58, Type (0, 0), BuildingBlock: CIFDUS_clean_linker_0, # of connection points: 2
#     Edge 59, Type (0, 0), BuildingBlock: CIFDUS_clean_linker_0, # of connection points: 2
#     Edge 60, Type (0, 0), BuildingBlock: CIFDUS_clean_linker_0, # of connection points: 2
#     Edge 61, Type (0, 0), BuildingBlock: CIFDUS_clean_linker_0, # of connection points: 2
#     Edge 62, Type (0, 0), BuildingBlock: CIFDUS_clean_linker_0, # of connection points: 2
#     Edge 63, Type (0, 0), BuildingBlock: CIFDUS_clean_linker_0, # of connection points: 2
#     Edge 64, Type (0, 0), BuildingBlock: CIFDUS_clean_linker_0, # of connection points: 2
#     Edge 65, Type (0, 0), BuildingBlock: CIFDUS_clean_linker_0, # of connection points: 2
#     Edge 66, Type (0, 0), BuildingBlock: CIFDUS_clean_linker_0, # of connection points: 2
#     Edge 67, Type (0, 0), BuildingBlock: CIFDUS_clean_linker_0, # of connection points: 2
#     Edge 68, Type (0, 0), BuildingBlock: CIFDUS_clean_linker_0, # of connection points: 2
#     Edge 69, Type (0, 0), BuildingBlock: CIFDUS_clean_linker_0, # of connection points: 2
#     Edge 70, Type (0, 0), BuildingBlock: CIFDUS_clean_linker_0, # of connection points: 2
#     Edge 71, Type (0, 0), BuildingBlock: CIFDUS_clean_linker_0, # of connection points: 2
# Relax obj value: 0.088
# Max RMSD: 0.064
# Mean RMSD: 0.064
data_MOF--net-umk--node1-GALJAG_clean_sbu_0--edge1-CIFDUS_clean_linker_0
_symmetry_space_group_name_H-M    P1
_symmetry_Int_Tables_number       1
_symmetry_cell_setting            triclinic
loop_
_symmetry_equiv_pos_as_xyz
'x, y, z'
_cell_length_a     55.867638
_cell_length_b     55.917927
_cell_length_c     40.943844
_cell_angle_alpha  89.982711
_cell_angle_beta   89.971925
_cell_angle_gamma 120.01152
loop_
_atom_site_label
_atom_site_type_symbol
_atom_site_fract_x
_atom_site_fract_y
_atom_site_fract_z
_atom_type_partial_charge
In0 In 0.33911 0.47588 0.10275 0.0
O1 O 0.32178 0.46504 0.05121 0.0
O2 O 0.29384 0.45959 0.08963 0.0
C3 C 0.35988 0.44158 0.10893 0.0
C4 C 0.38038 0.52363 0.07776 0.0
C5 C 0.32301 0.48166 0.16307 0.0
O6 O 0.34113 0.43695 0.08851 0.0
O7 O 0.36736 0.46279 0.12609 0.0
O8 O 0.33823 0.50211 0.14515 0.0
O9 O 0.31499 0.45847 0.14995 0.0
C10 C 0.29744 0.45842 0.05934 0.0
O11 O 0.35528 0.51647 0.07399 0.0
O12 O 0.38448 0.50736 0.09495 0.0
In13 In 0.85937 0.32248 0.59469 0.0
O14 O 0.84857 0.2883 0.55749 0.0
O15 O 0.81693 0.28361 0.59028 0.0
C16 C 0.91513 0.34694 0.59388 0.0
C17 C 0.84984 0.35688 0.55735 0.0
C18 C 0.85024 0.31346 0.65956 0.0
O19 O 0.89978 0.32192 0.58616 0.0
O20 O 0.90235 0.35937 0.60154 0.0
O21 O 0.8421 0.3274 0.64353 0.0
O22 O 0.86213 0.30355 0.64266 0.0
C23 C 0.82369 0.27394 0.56639 0.0
O24 O 0.84958 0.35763 0.58818 0.0
O25 O 0.85452 0.33877 0.54574 0.0
In26 In 0.53557 0.8687 0.08538 0.0
O27 O 0.55868 0.86144 0.04461 0.0
O28 O 0.53417 0.82761 0.0762 0.0
C29 C 0.56707 0.92439 0.08579 0.0
C30 C 0.49032 0.85831 0.05004 0.0
C31 C 0.53616 0.85648 0.14931 0.0
O32 O 0.57687 0.90886 0.0799 0.0
O33 O 0.54149 0.91186 0.09159 0.0
O34 O 0.51399 0.85037 0.13442 0.0
O35 O 0.55759 0.86805 0.13178 0.0
C36 C 0.54979 0.83641 0.05148 0.0
O37 O 0.48998 0.85777 0.08091 0.0
O38 O 0.51308 0.86378 0.03752 0.0
In39 In 0.66314 0.52577 0.58641 0.0
O40 O 0.68961 0.54584 0.54106 0.0
O41 O 0.7055 0.52995 0.57671 0.0
C42 C 0.63637 0.55461 0.59356 0.0
C43 C 0.62545 0.47956 0.55505 0.0
C44 C 0.67598 0.52181 0.64891 0.0
O45 O 0.6614 0.56626 0.5848 0.0
O46 O 0.62543 0.52905 0.5984 0.0
O47 O 0.66407 0.50116 0.63017 0.0
O48 O 0.68249 0.54472 0.63568 0.0
C49 C 0.70874 0.54133 0.54921 0.0
O50 O 0.6297 0.48002 0.58535 0.0
O51 O 0.64061 0.50209 0.54061 0.0
In52 In 0.13822 0.66269 0.10042 0.0
O53 O 0.14356 0.67986 0.04859 0.0
O54 O 0.16924 0.70699 0.08583 0.0
C55 C 0.08287 0.63934 0.1065 0.0
C56 C 0.14955 0.62468 0.07519 0.0
C57 C 0.15362 0.6798 0.16264 0.0
O58 O 0.09667 0.66002 0.08822 0.0
O59 O 0.09702 0.63092 0.12131 0.0
O60 O 0.15817 0.66206 0.1493 0.0
O61 O 0.14243 0.68945 0.14422 0.0
C62 C 0.16301 0.7036 0.05592 0.0
O63 O 0.12552 0.61987 0.08171 0.0
O64 O 0.16852 0.64864 0.08277 0.0
In65 In 0.47607 0.13906 0.58552 0.0
O66 O 0.51855 0.14304 0.58349 0.0
O67 O 0.49766 0.13794 0.53844 0.0
C68 C 0.47819 0.15221 0.64936 0.0
C69 C 0.4718 0.17972 0.5554 0.0
C70 C 0.44118 0.08382 0.58536 0.0
O71 O 0.49936 0.15814 0.6326 0.0
O72 O 0.45573 0.14016 0.63373 0.0
O73 O 0.43498 0.10019 0.57145 0.0
O74 O 0.4646 0.09538 0.59875 0.0
C75 C 0.51909 0.14126 0.55283 0.0
O76 O 0.45206 0.15505 0.55543 0.0
O77 O 0.49281 0.18361 0.57115 0.0
In78 In 0.53529 0.66835 0.91959 0.0
O79 O 0.55908 0.69706 0.96193 0.0
O80 O 0.53717 0.70928 0.92996 0.0
C81 C 0.5611 0.63886 0.91273 0.0
C82 C 0.48997 0.63465 0.95507 0.0
C83 C 0.53714 0.68182 0.85609 0.0
O84 O 0.57332 0.66311 0.92416 0.0
O85 O 0.53621 0.62983 0.90488 0.0
O86 O 0.51471 0.66582 0.8706 0.0
O87 O 0.55844 0.69156 0.87391 0.0
C88 C 0.55176 0.71449 0.9553 0.0
O89 O 0.48811 0.64417 0.92777 0.0
O90 O 0.51429 0.64197 0.96377 0.0
In91 In 0.86526 0.52645 0.42197 0.0
O92 O 0.8494 0.48053 0.43271 0.0
O93 O 0.86745 0.50921 0.47152 0.0
C94 C 0.85152 0.52018 0.35788 0.0
C95 C 0.83308 0.5425 0.45359 0.0
C96 C 0.92101 0.55598 0.41621 0.0
O97 O 0.84722 0.50017 0.37611 0.0
O98 O 0.86198 0.54325 0.37222 0.0
O99 O 0.90688 0.56732 0.42255 0.0
O100 O 0.90704 0.53016 0.41283 0.0
C101 C 0.85627 0.48441 0.46247 0.0
O102 O 0.85839 0.55235 0.45986 0.0
O103 O 0.82414 0.52537 0.43038 0.0
In104 In 0.32665 0.86346 0.92319 0.0
O105 O 0.36029 0.85169 0.93089 0.0
O106 O 0.34603 0.86387 0.97221 0.0
C107 C 0.31814 0.85315 0.85827 0.0
C108 C 0.2791 0.82866 0.95427 0.0
C109 C 0.34953 0.91897 0.92244 0.0
O110 O 0.33412 0.8478 0.87452 0.0
O111 O 0.30592 0.86279 0.87496 0.0
O112 O 0.3242 0.90296 0.92809 0.0
O113 O 0.36316 0.90696 0.91714 0.0
C114 C 0.3621 0.85607 0.96131 0.0
O115 O 0.29244 0.85429 0.95961 0.0
O116 O 0.28924 0.82048 0.93234 0.0
In117 In 0.46174 0.33044 0.4084 0.0
O118 O 0.43446 0.2909 0.43802 0.0
O119 O 0.47632 0.30238 0.4286 0.0
C120 C 0.43275 0.35724 0.40722 0.0
C121 C 0.50713 0.36977 0.43897 0.0
C122 C 0.45859 0.31438 0.34556 0.0
O123 O 0.42517 0.33593 0.42459 0.0
O124 O 0.45451 0.36459 0.39105 0.0
O125 O 0.48121 0.33043 0.35941 0.0
O126 O 0.43762 0.30568 0.36374 0.0
C127 C 0.4538 0.28567 0.44217 0.0
O128 O 0.5067 0.36509 0.40873 0.0
O129 O 0.48462 0.35475 0.45372 0.0
In130 In 0.13794 0.46229 0.92694 0.0
O131 O 0.15624 0.50768 0.94381 0.0
O132 O 0.12315 0.4758 0.9707 0.0
C133 C 0.15037 0.46617 0.8627 0.0
C134 C 0.17168 0.4491 0.95958 0.0
C135 C 0.08309 0.42959 0.91928 0.0
O136 O 0.15203 0.48631 0.87868 0.0
O137 O 0.14334 0.44468 0.8794 0.0
O138 O 0.09814 0.42038 0.93007 0.0
O139 O 0.09587 0.45493 0.91201 0.0
C140 C 0.13981 0.50126 0.96774 0.0
O141 O 0.14581 0.43612 0.96345 0.0
O142 O 0.18044 0.46827 0.93875 0.0
In143 In 0.67115 0.13457 0.40484 0.0
O144 O 0.70043 0.14317 0.44794 0.0
O145 O 0.71267 0.17409 0.41136 0.0
C146 C 0.6425 0.0788 0.40371 0.0
C147 C 0.635 0.14578 0.43536 0.0
C148 C 0.68451 0.14495 0.34116 0.0
O149 O 0.66757 0.09204 0.41233 0.0
O150 O 0.63238 0.09368 0.3959 0.0
O151 O 0.67286 0.1559 0.35666 0.0
O152 O 0.69001 0.12939 0.35806 0.0
C153 C 0.71822 0.16695 0.43822 0.0
O154 O 0.63876 0.14841 0.40484 0.0
O155 O 0.65 0.13841 0.45019 0.0
In156 In 0.6684 0.52655 0.9068 0.0
O157 O 0.70569 0.54834 0.94094 0.0
O158 O 0.69612 0.50939 0.92128 0.0
C159 C 0.64839 0.56148 0.9107 0.0
C160 C 0.62679 0.48276 0.93758 0.0
C161 C 0.68244 0.53068 0.84283 0.0
O162 O 0.67171 0.56751 0.92222 0.0
O163 O 0.63547 0.53808 0.89731 0.0
O164 O 0.66578 0.50799 0.85617 0.0
O165 O 0.6926 0.55109 0.86194 0.0
C166 C 0.71134 0.52913 0.93999 0.0
O167 O 0.63045 0.48311 0.90708 0.0
O168 O 0.64395 0.50445 0.95228 0.0
In169 In 0.14053 0.67438 0.42032 0.0
O170 O 0.15604 0.71751 0.44271 0.0
O171 O 0.18308 0.70109 0.44205 0.0
C172 C 0.08512 0.65314 0.4174 0.0
C173 C 0.13994 0.63709 0.46248 0.0
C174 C 0.15644 0.68002 0.35683 0.0
O175 O 0.10114 0.67732 0.42768 0.0
O176 O 0.09713 0.6403 0.40834 0.0
O177 O 0.15918 0.66421 0.37648 0.0
O178 O 0.14643 0.69372 0.36939 0.0
C179 C 0.17922 0.72052 0.45077 0.0
O180 O 0.14548 0.63729 0.43252 0.0
O181 O 0.13455 0.65556 0.47108 0.0
In182 In 0.46732 0.13864 0.90723 0.0
O183 O 0.446 0.14871 0.9481 0.0
O184 O 0.4648 0.17799 0.90979 0.0
C185 C 0.44159 0.08304 0.91142 0.0
C186 C 0.51574 0.15476 0.93806 0.0
C187 C 0.46322 0.14514 0.84272 0.0
O188 O 0.42918 0.09624 0.9173 0.0
O189 O 0.46663 0.09787 0.90362 0.0
O190 O 0.48615 0.15616 0.85749 0.0
O191 O 0.44235 0.1312 0.86064 0.0
C192 C 0.45187 0.17194 0.93653 0.0
O193 O 0.51395 0.15488 0.90732 0.0
O194 O 0.4933 0.14698 0.95299 0.0
In195 In 0.32491 0.4686 0.41858 0.0
O196 O 0.28634 0.44822 0.45156 0.0
O197 O 0.3014 0.48948 0.43559 0.0
C198 C 0.34336 0.43225 0.41897 0.0
C199 C 0.36876 0.51016 0.44891 0.0
C200 C 0.31026 0.46742 0.35544 0.0
O201 O 0.32202 0.42772 0.43473 0.0
O202 O 0.35468 0.45456 0.4031 0.0
O203 O 0.32852 0.48905 0.36928 0.0
O204 O 0.29877 0.44644 0.37372 0.0
C205 C 0.28396 0.46953 0.45256 0.0
O206 O 0.36414 0.51089 0.41884 0.0
O207 O 0.35133 0.4885 0.4635 0.0
In208 In 0.86411 0.33966 0.91643 0.0
O209 O 0.85869 0.30774 0.95452 0.0
O210 O 0.8237 0.29944 0.92559 0.0
C211 C 0.91982 0.36569 0.91235 0.0
C212 C 0.85515 0.37333 0.95589 0.0
C213 C 0.84892 0.32906 0.85297 0.0
O214 O 0.90548 0.3403 0.91895 0.0
O215 O 0.90608 0.37767 0.90797 0.0
O216 O 0.84133 0.3423 0.87119 0.0
O217 O 0.86337 0.32057 0.86705 0.0
C218 C 0.83337 0.29179 0.94865 0.0
O219 O 0.856 0.37571 0.92517 0.0
O220 O 0.85834 0.35395 0.96632 0.0
In221 In 0.53399 0.85926 0.40813 0.0
O222 O 0.49176 0.85374 0.42146 0.0
O223 O 0.52156 0.86469 0.45929 0.0
C224 C 0.52566 0.84652 0.34361 0.0
C225 C 0.541 0.81977 0.43689 0.0
C226 C 0.56904 0.91436 0.40744 0.0
O227 O 0.50649 0.84326 0.36265 0.0
O228 O 0.54877 0.85526 0.35733 0.0
O229 O 0.57668 0.89762 0.41648 0.0
O230 O 0.54415 0.90323 0.3986 0.0
C231 C 0.49749 0.85912 0.45139 0.0
O232 O 0.56116 0.84338 0.43035 0.0
O233 O 0.51783 0.81578 0.42731 0.0
In234 In 0.46786 0.33114 0.08873 0.0
O235 O 0.51182 0.36835 0.08732 0.0
O236 O 0.49192 0.35208 0.04213 0.0
C237 C 0.4716 0.32108 0.15229 0.0
C238 C 0.45543 0.28337 0.05859 0.0
C239 C 0.43275 0.35118 0.09047 0.0
O240 O 0.49253 0.33346 0.13399 0.0
O241 O 0.44867 0.31312 0.13826 0.0
O242 O 0.42567 0.32767 0.07892 0.0
O243 O 0.45722 0.36429 0.10083 0.0
C244 C 0.51318 0.37015 0.05663 0.0
O245 O 0.44899 0.30026 0.04695 0.0
O246 O 0.46787 0.29037 0.0856 0.0
In247 In 0.13425 0.47545 0.60591 0.0
O248 O 0.14321 0.5191 0.59405 0.0
O249 O 0.12933 0.48956 0.55558 0.0
C250 C 0.14952 0.48219 0.66955 0.0
C251 C 0.17085 0.46495 0.57551 0.0
C252 C 0.07857 0.44445 0.60889 0.0
O253 O 0.15234 0.50186 0.65175 0.0
O254 O 0.13972 0.45929 0.65502 0.0
O255 O 0.09317 0.43521 0.59688 0.0
O256 O 0.09209 0.46876 0.61963 0.0
C257 C 0.13691 0.51399 0.56422 0.0
O258 O 0.14666 0.44594 0.5824 0.0
O259 O 0.17668 0.48867 0.58519 0.0
In260 In 0.66445 0.14417 0.08531 0.0
O261 O 0.69008 0.14862 0.0401 0.0
O262 O 0.70759 0.18088 0.07522 0.0
C263 C 0.63555 0.08835 0.0869 0.0
C264 C 0.62976 0.15805 0.05598 0.0
C265 C 0.67839 0.1578 0.14847 0.0
O266 O 0.66125 0.1017 0.08163 0.0
O267 O 0.62469 0.10312 0.09123 0.0
O268 O 0.66816 0.16912 0.13109 0.0
O269 O 0.68251 0.14039 0.13361 0.0
C270 C 0.71005 0.1719 0.04787 0.0
O271 O 0.63092 0.1564 0.08663 0.0
O272 O 0.64637 0.15326 0.04046 0.0
In273 In 0.52617 0.66378 0.59877 0.0
O274 O 0.48462 0.62397 0.5973 0.0
O275 O 0.50547 0.63994 0.55221 0.0
C276 C 0.5228 0.67457 0.6626 0.0
C277 C 0.5285 0.70632 0.56469 0.0
C278 C 0.56265 0.64538 0.59796 0.0
O279 O 0.50208 0.65887 0.6455 0.0
O280 O 0.54546 0.6857 0.64729 0.0
O281 O 0.56918 0.66927 0.58798 0.0
O282 O 0.53826 0.63143 0.60845 0.0
C283 C 0.48447 0.62126 0.5667 0.0
O284 O 0.54845 0.70173 0.56519 0.0
O285 O 0.50829 0.69035 0.5824 0.0
In286 In 0.86369 0.53668 0.09925 0.0
O287 O 0.85355 0.49237 0.08777 0.0
O288 O 0.87144 0.52277 0.05037 0.0
C289 C 0.8518 0.53421 0.16384 0.0
C290 C 0.82465 0.54316 0.06865 0.0
C291 C 0.91893 0.57069 0.09956 0.0
O292 O 0.85039 0.51394 0.14851 0.0
O293 O 0.85821 0.55516 0.14637 0.0
O294 O 0.90282 0.57718 0.08561 0.0
O295 O 0.90711 0.5474 0.11337 0.0
C296 C 0.86193 0.49788 0.05852 0.0
O297 O 0.84826 0.56341 0.07501 0.0
O298 O 0.82044 0.52018 0.07922 0.0
In299 In 0.34374 0.86442 0.6005 0.0
O300 O 0.3793 0.85668 0.58809 0.0
O301 O 0.3617 0.86858 0.54974 0.0
C302 C 0.33544 0.85186 0.66484 0.0
C303 C 0.29754 0.82387 0.57245 0.0
C304 C 0.36794 0.91994 0.60337 0.0
O305 O 0.35236 0.84844 0.6478 0.0
O306 O 0.32219 0.86101 0.64921 0.0
O307 O 0.34399 0.90535 0.59142 0.0
O308 O 0.37888 0.90644 0.61378 0.0
C309 C 0.37937 0.86198 0.55805 0.0
O310 O 0.30285 0.84871 0.57233 0.0
O311 O 0.31467 0.81978 0.58796 0.0
H312 H 0.29102 0.44064 0.20548 0.0
H313 H 0.34476 0.52892 0.19925 0.0
H314 H 0.34337 0.53263 0.25861 0.0
H315 H 0.33109 0.51015 0.31246 0.0
H316 H 0.27793 0.42178 0.31865 0.0
H317 H 0.27468 0.41878 0.25914 0.0
C318 C 0.30205 0.46075 0.21707 0.0
C319 C 0.3182 0.48444 0.19803 0.0
C320 C 0.30147 0.46268 0.25123 0.0
C321 C 0.33224 0.51036 0.21337 0.0
C322 C 0.33157 0.51248 0.24733 0.0
C323 C 0.31847 0.49029 0.30079 0.0
C324 C 0.30502 0.46619 0.31991 0.0
C325 C 0.31691 0.48868 0.26655 0.0
C326 C 0.28858 0.44063 0.30447 0.0
C327 C 0.28679 0.43888 0.27043 0.0
H328 H 0.829 0.33569 0.70214 0.0
H329 H 0.86724 0.28513 0.69797 0.0
H330 H 0.86848 0.284 0.75745 0.0
H331 H 0.86173 0.29992 0.81056 0.0
H332 H 0.82395 0.35082 0.81543 0.0
H333 H 0.81929 0.34907 0.75591 0.0
C334 C 0.83731 0.32418 0.71428 0.0
C335 C 0.84816 0.31066 0.6956 0.0
C336 C 0.83817 0.32378 0.74864 0.0
C337 C 0.85884 0.2958 0.71171 0.0
C338 C 0.85961 0.29518 0.74577 0.0
C339 C 0.85222 0.31041 0.79865 0.0
C340 C 0.84336 0.32562 0.81739 0.0
C341 C 0.84981 0.30949 0.76446 0.0
C342 C 0.83097 0.33899 0.80156 0.0
C343 C 0.82838 0.33807 0.76751 0.0
H344 H 0.5648 0.85584 0.29815 0.0
H345 H 0.4783 0.82974 0.30849 0.0
H346 H 0.47332 0.82868 0.24908 0.0
H347 H 0.49438 0.83832 0.19412 0.0
H348 H 0.58122 0.86552 0.18441 0.0
H349 H 0.58515 0.86284 0.24345 0.0
C350 C 0.54478 0.8496 0.28741 0.0
C351 C 0.52199 0.84298 0.30774 0.0
C352 C 0.54215 0.8494 0.25325 0.0
C353 C 0.4962 0.83497 0.29341 0.0
C354 C 0.49335 0.83443 0.25941 0.0
C355 C 0.51407 0.84336 0.20492 0.0
C356 C 0.53749 0.85224 0.18486 0.0
C357 C 0.5163 0.84208 0.23907 0.0
C358 C 0.56288 0.85874 0.19926 0.0
C359 C 0.56517 0.85724 0.23306 0.0
H360 H 0.66574 0.48966 0.79778 0.0
H361 H 0.71051 0.57835 0.80786 0.0
H362 H 0.71439 0.58353 0.74854 0.0
H363 H 0.70169 0.56288 0.69373 0.0
H364 H 0.65708 0.47418 0.68371 0.0
H365 H 0.65679 0.46901 0.74294 0.0
C366 C 0.67662 0.51011 0.78699 0.0
C367 C 0.6876 0.53357 0.80719 0.0
C368 C 0.67871 0.51295 0.75283 0.0
C369 C 0.70181 0.55994 0.79286 0.0
C370 C 0.70397 0.56293 0.75892 0.0
C371 C 0.69224 0.54243 0.7045 0.0
C372 C 0.67924 0.51896 0.68434 0.0
C373 C 0.692 0.53959 0.73864 0.0
C374 C 0.66719 0.4926 0.69866 0.0
C375 C 0.66691 0.48961 0.73257 0.0
H376 H 0.15039 0.7109 0.30973 0.0
H377 H 0.1745 0.64945 0.32431 0.0
H378 H 0.17826 0.64567 0.26531 0.0
H379 H 0.17072 0.65688 0.20939 0.0
H380 H 0.14577 0.71775 0.19512 0.0
H381 H 0.14661 0.72488 0.25397 0.0
C382 C 0.15681 0.69695 0.30001 0.0
C383 C 0.16195 0.68035 0.32139 0.0
C384 C 0.15865 0.69465 0.26602 0.0
C385 C 0.17033 0.66241 0.30839 0.0
C386 C 0.17242 0.66017 0.27462 0.0
C387 C 0.16589 0.672 0.21915 0.0
C388 C 0.15802 0.68661 0.19788 0.0
C389 C 0.16605 0.67576 0.25316 0.0
C390 C 0.15179 0.70613 0.21093 0.0
C391 C 0.15218 0.71018 0.24463 0.0
H392 H 0.50523 0.17141 0.79944 0.0
H393 H 0.41632 0.1229 0.80579 0.0
H394 H 0.41291 0.12272 0.74627 0.0
H395 H 0.43541 0.13361 0.69234 0.0
H396 H 0.52441 0.18092 0.68632 0.0
H397 H 0.52754 0.18452 0.74573 0.0
C398 C 0.4851 0.16102 0.78781 0.0
C399 C 0.46109 0.14706 0.80696 0.0
C400 C 0.4833 0.16071 0.75361 0.0
C401 C 0.43514 0.13372 0.79155 0.0
C402 C 0.43316 0.13357 0.75752 0.0
C403 C 0.45545 0.145 0.70404 0.0
C404 C 0.47963 0.15687 0.68499 0.0
C405 C 0.45713 0.14661 0.73828 0.0
C406 C 0.50548 0.17151 0.70046 0.0
C407 C 0.5073 0.17353 0.73444 0.0
H408 H 0.56472 0.70291 0.70587 0.0
H409 H 0.47602 0.65191 0.69949 0.0
H410 H 0.4724 0.65138 0.75889 0.0
H411 H 0.49465 0.6622 0.81275 0.0
H412 H 0.58338 0.71256 0.8194 0.0
H413 H 0.58673 0.71672 0.75996 0.0
C414 C 0.54459 0.692 0.71749 0.0
C415 C 0.52071 0.67732 0.69829 0.0
C416 C 0.54265 0.6915 0.75176 0.0
C417 C 0.49476 0.6633 0.7137 0.0
C418 C 0.49265 0.66291 0.7477 0.0
C419 C 0.51469 0.67435 0.80121 0.0
C420 C 0.53873 0.68687 0.82046 0.0
C421 C 0.5165 0.67644 0.76699 0.0
C422 C 0.56454 0.70263 0.80514 0.0
C423 C 0.56649 0.70497 0.77112 0.0
H424 H 0.85607 0.55923 0.31468 0.0
H425 H 0.83666 0.47437 0.32065 0.0
H426 H 0.83335 0.47055 0.26116 0.0
H427 H 0.83903 0.49231 0.20711 0.0
H428 H 0.85823 0.57715 0.20147 0.0
H429 H 0.85832 0.57988 0.26094 0.0
C430 C 0.85085 0.53982 0.30297 0.0
C431 C 0.8468 0.51719 0.32209 0.0
C432 C 0.84905 0.53779 0.26871 0.0
C433 C 0.83991 0.49214 0.30654 0.0
C434 C 0.8381 0.48995 0.27247 0.0
C435 C 0.84293 0.51129 0.21891 0.0
C436 C 0.84878 0.53453 0.19982 0.0
C437 C 0.84307 0.51278 0.25326 0.0
C438 C 0.85372 0.55895 0.21552 0.0
C439 C 0.85386 0.56057 0.24959 0.0
H440 H 0.30207 0.85972 0.70659 0.0
H441 H 0.36323 0.83417 0.70363 0.0
H442 H 0.36201 0.83052 0.76316 0.0
H443 H 0.34569 0.83739 0.81637 0.0
H444 H 0.28506 0.86366 0.81913 0.0
H445 H 0.28382 0.86401 0.75955 0.0
C446 C 0.31495 0.8531 0.71895 0.0
C447 C 0.33281 0.84736 0.70067 0.0
C448 C 0.31432 0.85127 0.75324 0.0
C449 C 0.34933 0.83878 0.71709 0.0
C450 C 0.34869 0.83673 0.75117 0.0
C451 C 0.33199 0.8429 0.80392 0.0
C452 C 0.31558 0.85059 0.82222 0.0
C453 C 0.33158 0.84334 0.76955 0.0
C454 C 0.29796 0.8577 0.80569 0.0
C455 C 0.29727 0.85797 0.77157 0.0
H456 H 0.50069 0.33158 0.30199 0.0
H457 H 0.41175 0.28495 0.30949 0.0
H458 H 0.40795 0.28105 0.25006 0.0
H459 H 0.42978 0.29445 0.19593 0.0
H460 H 0.51871 0.34152 0.18849 0.0
H461 H 0.52263 0.3415 0.24789 0.0
C462 C 0.48049 0.32024 0.29063 0.0
C463 C 0.45654 0.30878 0.31009 0.0
C464 C 0.47845 0.31833 0.25644 0.0
C465 C 0.43051 0.29404 0.29504 0.0
C466 C 0.42832 0.29189 0.26105 0.0
C467 C 0.45002 0.30442 0.2073 0.0
C468 C 0.4739 0.31818 0.18787 0.0
C469 C 0.45212 0.30451 0.24149 0.0
C470 C 0.49999 0.33087 0.20292 0.0
C471 C 0.50226 0.33093 0.2369 0.0
H472 H 0.14691 0.44344 0.71163 0.0
H473 H 0.16386 0.52758 0.7074 0.0
H474 H 0.16762 0.53087 0.76692 0.0
H475 H 0.16254 0.50857 0.82049 0.0
H476 H 0.14537 0.4243 0.82421 0.0
H477 H 0.14548 0.42244 0.76473 0.0
C478 C 0.15172 0.46259 0.72371 0.0
C479 C 0.15488 0.48514 0.70514 0.0
C480 C 0.15368 0.46429 0.75793 0.0
C481 C 0.16126 0.50988 0.72114 0.0
C482 C 0.16333 0.51176 0.7552 0.0
C483 C 0.15917 0.48994 0.80826 0.0
C484 C 0.15375 0.46656 0.82679 0.0
C485 C 0.15906 0.48891 0.7739 0.0
C486 C 0.14949 0.44257 0.81057 0.0
C487 C 0.14948 0.44145 0.77651 0.0
H488 H 0.67354 0.17622 0.29954 0.0
H489 H 0.70602 0.12061 0.3027 0.0
H490 H 0.70924 0.1216 0.24322 0.0
H491 H 0.69924 0.13514 0.19022 0.0
H492 H 0.66614 0.19021 0.18676 0.0
H493 H 0.66706 0.1928 0.24638 0.0
C494 C 0.68162 0.16459 0.28721 0.0
C495 C 0.68931 0.14819 0.3055 0.0
C496 C 0.6832 0.16505 0.25293 0.0
C497 C 0.69986 0.13332 0.28919 0.0
C498 C 0.70166 0.13381 0.25516 0.0
C499 C 0.69257 0.148 0.2025 0.0
C500 C 0.68245 0.16229 0.18411 0.0
C501 C 0.69285 0.14914 0.23676 0.0
C502 C 0.67397 0.17894 0.20036 0.0
C503 C 0.67439 0.18036 0.23447 0.0
H504 H 0.22427 0.46245 0.94552 0.0
H505 H 0.16114 0.42481 0.01947 0.0
H506 H 0.19418 0.42239 0.05654 0.0
H507 H 0.24216 0.43505 0.06955 0.0
H508 H 0.30473 0.47102 0.99469 0.0
H509 H 0.27073 0.46969 0.95621 0.0
C510 C 0.21772 0.45341 0.96962 0.0
C511 C 0.1905 0.44413 0.97996 0.0
C512 C 0.23673 0.45188 0.99065 0.0
C513 C 0.18206 0.43212 0.01102 0.0
C514 C 0.20095 0.43084 0.03227 0.0
C515 C 0.2482 0.44219 0.04466 0.0
C516 C 0.27592 0.45338 0.03505 0.0
C517 C 0.22851 0.44126 0.0226 0.0
C518 C 0.28349 0.46232 1.00267 0.0
C519 C 0.2641 0.46172 0.98069 0.0
H520 H 0.72147 0.17001 0.50412 0.0
H521 H 0.76825 0.20723 0.4165 0.0
H522 H 0.80662 0.24196 0.44914 0.0
H523 H 0.82523 0.26383 0.50223 0.0
H524 H 0.77618 0.23001 0.58924 0.0
H525 H 0.74034 0.19172 0.55744 0.0
C526 C 0.74029 0.18548 0.49231 0.0
C527 C 0.74226 0.18604 0.45807 0.0
C528 C 0.7617 0.20605 0.51116 0.0
C529 C 0.76641 0.20646 0.44287 0.0
C530 C 0.78828 0.2263 0.46151 0.0
C531 C 0.80688 0.24781 0.51425 0.0
C532 C 0.80335 0.24951 0.54799 0.0
C533 C 0.78594 0.2266 0.49561 0.0
C534 C 0.77928 0.22901 0.56327 0.0
C535 C 0.75882 0.20719 0.54509 0.0
H536 H 0.55261 0.79087 0.0684 0.0
H537 H 0.55756 0.84131 0.98612 0.0
H538 H 0.5602 0.80868 0.94872 0.0
H539 H 0.55738 0.76392 0.93921 0.0
H540 H 0.55606 0.71508 0.02137 0.0
H541 H 0.55613 0.74906 0.05911 0.0
C542 C 0.55459 0.79477 0.0423 0.0
C543 C 0.55461 0.81819 0.0299 0.0
C544 C 0.55672 0.77623 0.02099 0.0
C545 C 0.55753 0.82336 0.99615 0.0
C546 C 0.55893 0.80468 0.97476 0.0
C547 C 0.55756 0.76103 0.96539 0.0
C548 C 0.55651 0.73708 0.9776 0.0
C549 C 0.55803 0.78081 0.98686 0.0
C550 C 0.557 0.73351 0.0115 0.0
C551 C 0.55683 0.7528 0.03306 0.0
H552 H 0.76036 0.55183 0.5648 0.0
H553 H 0.70698 0.53992 0.48299 0.0
H554 H 0.74127 0.54033 0.44549 0.0
H555 H 0.78499 0.54034 0.43656 0.0
H556 H 0.83987 0.55585 0.51788 0.0
H557 H 0.8067 0.55807 0.55491 0.0
C558 C 0.75648 0.54972 0.53871 0.0
C559 C 0.73117 0.54562 0.52664 0.0
C560 C 0.77651 0.55049 0.51724 0.0
C561 C 0.7264 0.54318 0.4928 0.0
C562 C 0.74592 0.54326 0.47137 0.0
C563 C 0.78978 0.54458 0.46232 0.0
C564 C 0.81466 0.54769 0.47457 0.0
C565 C 0.77082 0.54634 0.48338 0.0
C566 C 0.82083 0.55346 0.5079 0.0
C567 C 0.80182 0.55458 0.52911 0.0
H568 H 0.23997 0.77554 0.94076 0.0
H569 H 0.26549 0.83909 0.01407 0.0
H570 H 0.23039 0.80634 0.05151 0.0
H571 H 0.19521 0.75869 0.06514 0.0
H572 H 0.16796 0.69544 0.99132 0.0
H573 H 0.20064 0.72901 0.95223 0.0
C574 C 0.23756 0.78223 0.96478 0.0
C575 C 0.25545 0.80956 0.97479 0.0
C576 C 0.2171 0.76334 0.98613 0.0
C577 C 0.25197 0.81812 0.00582 0.0
C578 C 0.23198 0.79939 0.02731 0.0
C579 C 0.19619 0.7524 0.04034 0.0
C580 C 0.17947 0.72466 0.03116 0.0
C581 C 0.21485 0.77182 0.01799 0.0
C582 C 0.18065 0.71674 0.9989 0.0
C583 C 0.19944 0.73588 0.97662 0.0
H584 H 0.42792 0.18023 0.52605 0.0
H585 H 0.51593 0.22968 0.542 0.0
H586 H 0.51787 0.26629 0.5081 0.0
H587 H 0.49522 0.28405 0.473 0.0
H588 H 0.40705 0.2371 0.45862 0.0
H589 H 0.40443 0.1997 0.4928 0.0
C590 C 0.44743 0.1991 0.52217 0.0
C591 C 0.47175 0.20216 0.5364 0.0
C592 C 0.44841 0.22042 0.50284 0.0
C593 C 0.49689 0.22678 0.53139 0.0
C594 C 0.49808 0.24774 0.5119 0.0
C595 C 0.47541 0.26558 0.47725 0.0
C596 C 0.45142 0.26307 0.46305 0.0
C597 C 0.47406 0.24468 0.49732 0.0
C598 C 0.42581 0.23935 0.46926 0.0
C599 C 0.42435 0.21802 0.48875 0.0
H600 H 0.78581 0.50289 0.03141 0.0
H601 H 0.81966 0.58865 0.05673 0.0
H602 H 0.78767 0.59219 0.01862 0.0
H603 H 0.75002 0.57057 0.97792 0.0
H604 H 0.71884 0.48546 0.95072 0.0
H605 H 0.75011 0.48208 0.98946 0.0
C606 C 0.786 0.52229 0.02882 0.0
C607 C 0.80469 0.54537 0.04713 0.0
C608 C 0.76826 0.52434 0.00625 0.0
C609 C 0.80523 0.57056 0.04301 0.0
C610 C 0.78704 0.57259 0.02118 0.0
C611 C 0.75025 0.55137 0.98037 0.0
C612 C 0.73212 0.52829 0.96151 0.0
C613 C 0.76851 0.54961 1.00257 0.0
C614 C 0.73266 0.50356 0.96483 0.0
C615 C 0.75043 0.50154 0.98711 0.0
H616 H 0.21774 0.71966 0.48906 0.0
H617 H 0.18498 0.77182 0.46039 0.0
H618 H 0.21825 0.80861 0.49642 0.0
H619 H 0.25749 0.826 0.53561 0.0
H620 H 0.28746 0.77156 0.56542 0.0
H621 H 0.25424 0.73556 0.52974 0.0
C622 C 0.21796 0.73915 0.49051 0.0
C623 C 0.19928 0.74324 0.47176 0.0
C624 C 0.23653 0.75972 0.51174 0.0
C625 C 0.19937 0.76833 0.47445 0.0
C626 C 0.21833 0.7893 0.49509 0.0
C627 C 0.25651 0.80615 0.53449 0.0
C628 C 0.27505 0.80157 0.55312 0.0
C629 C 0.23708 0.78523 0.51386 0.0
C630 C 0.27349 0.77571 0.55142 0.0
C631 C 0.25456 0.75508 0.53088 0.0
H632 H 0.44801 0.17529 1.00191 0.0
H633 H 0.4463 0.21392 0.91147 0.0
H634 H 0.44427 0.2506 0.94173 0.0
H635 H 0.44707 0.27369 0.99377 0.0
H636 H 0.45367 0.23753 0.08394 0.0
H637 H 0.44959 0.19777 0.05406 0.0
C638 C 0.44667 0.19149 0.98891 0.0
C639 C 0.44713 0.19194 0.95461 0.0
C640 C 0.44668 0.21305 0.00644 0.0
C641 C 0.44593 0.21323 0.93792 0.0
C642 C 0.44485 0.23421 0.95519 0.0
C643 C 0.44723 0.25689 0.00686 0.0
C644 C 0.45062 0.25841 0.04093 0.0
C645 C 0.44583 0.23464 0.98943 0.0
C646 C 0.45115 0.23676 0.05766 0.0
C647 C 0.44883 0.21407 0.0406 0.0
H648 H 0.21411 0.50366 0.54152 0.0
H649 H 0.16996 0.41639 0.56235 0.0
H650 H 0.20108 0.40974 0.52593 0.0
H651 H 0.24094 0.42914 0.48772 0.0
H652 H 0.28261 0.51629 0.46544 0.0
H653 H 0.25221 0.52252 0.50263 0.0
C654 C 0.21141 0.4832 0.53832 0.0
C655 C 0.19002 0.4606 0.55485 0.0
C656 C 0.22881 0.47949 0.51683 0.0
C657 C 0.18643 0.43413 0.54999 0.0
C658 C 0.20416 0.43033 0.52913 0.0
C659 C 0.24322 0.44942 0.49095 0.0
C660 C 0.26403 0.4722 0.47384 0.0
C661 C 0.22539 0.45289 0.51228 0.0
C662 C 0.26672 0.49837 0.47819 0.0
C663 C 0.24942 0.50202 0.49957 0.0
H664 H 0.78542 0.24547 0.93291 0.0
H665 H 0.84145 0.28628 0.01286 0.0
H666 H 0.80876 0.25171 0.05098 0.0
H667 H 0.76225 0.21236 0.06221 0.0
H668 H 0.70759 0.1697 0.98177 0.0
H669 H 0.74175 0.20222 0.94318 0.0
C670 C 0.79058 0.24646 0.95861 0.0
C671 C 0.81558 0.26844 0.97019 0.0
C672 C 0.77187 0.22629 0.9803 0.0
C673 C 0.82228 0.26946 1.00342 0.0
C674 C 0.80354 0.24981 0.02525 0.0
C675 C 0.75808 0.21001 0.03618 0.0
C676 C 0.73244 0.18894 0.0248 0.0
C677 C 0.77799 0.22852 0.01408 0.0
C678 C 0.72727 0.1858 0.99105 0.0
C679 C 0.74671 0.20447 0.96899 0.0
H680 H 0.50071 0.77936 0.47271 0.0
H681 H 0.58722 0.81594 0.44909 0.0
H682 H 0.59132 0.78408 0.48688 0.0
H683 H 0.57003 0.74596 0.52725 0.0
H684 H 0.48402 0.71213 0.55256 0.0
H685 H 0.4801 0.743 0.5138 0.0
C686 C 0.52042 0.78018 0.47556 0.0
C687 C 0.54354 0.79965 0.45786 0.0
C688 C 0.52276 0.7625 0.49795 0.0
C689 C 0.56908 0.80092 0.46232 0.0
C690 C 0.57143 0.7828 0.48399 0.0
C691 C 0.55052 0.74551 0.52437 0.0
C692 C 0.52736 0.72676 0.54278 0.0
C693 C 0.54841 0.76359 0.50211 0.0
C694 C 0.5022 0.72642 0.53884 0.0
C695 C 0.49987 0.74398 0.51653 0.0
H696 H 0.34879 0.39503 0.07479 0.0
H697 H 0.40261 0.45154 0.14854 0.0
H698 H 0.42916 0.42793 0.14991 0.0
H699 H 0.43886 0.3931 0.12833 0.0
H700 H 0.38521 0.33533 0.05573 0.0
H701 H 0.35673 0.35742 0.05583 0.0
C702 C 0.36617 0.40195 0.09133 0.0
C703 C 0.37384 0.42514 0.11132 0.0
C704 C 0.38148 0.38819 0.09208 0.0
C705 C 0.39632 0.43383 0.13278 0.0
C706 C 0.41159 0.42038 0.13357 0.0
C707 C 0.42087 0.38527 0.1126 0.0
C708 C 0.41427 0.36289 0.0918 0.0
C709 C 0.40464 0.39787 0.11299 0.0
C710 C 0.3907 0.35265 0.0719 0.0
C711 C 0.37448 0.3653 0.07191 0.0
H712 H 0.0439 0.3919 0.58716 0.0
H713 H 0.04467 0.46234 0.63148 0.0
H714 H 0.9944 0.43837 0.63059 0.0
H715 H 0.95029 0.398 0.61659 0.0
H716 H 0.94832 0.32683 0.57301 0.0
H717 H 0.99896 0.35045 0.57422 0.0
C718 C 0.03301 0.40189 0.59673 0.0
C719 C 0.04802 0.42888 0.60932 0.0
C720 C 0.00392 0.38793 0.59617 0.0
C721 C 0.03365 0.44159 0.62165 0.0
C722 C 0.00487 0.42792 0.62112 0.0
C723 C 0.9609 0.38762 0.60731 0.0
C724 C 0.94562 0.36078 0.59459 0.0
C725 C 0.98983 0.4012 0.60829 0.0
C726 C 0.95967 0.34754 0.58288 0.0
C727 C 0.9886 0.36104 0.58358 0.0
H728 H 0.54956 0.96102 0.09569 0.0
H729 H 0.62264 0.95594 0.07517 0.0
H730 H 0.65051 0.00636 0.07389 0.0
H731 H 0.65393 0.05194 0.07814 0.0
H732 H 0.58048 0.0565 0.09836 0.0
H733 H 0.55296 0.00625 0.10021 0.0
C734 C 0.5716 0.97095 0.09099 0.0
C735 C 0.58403 0.95482 0.08551 0.0
C736 C 0.58742 0.99985 0.09019 0.0
C737 C 0.61259 0.96794 0.07944 0.0
C738 C 0.62853 0.99675 0.0787 0.0
C739 C 0.63191 0.0419 0.08296 0.0
C740 C 0.61926 0.0579 0.08806 0.0
C741 C 0.61615 0.01292 0.08395 0.0
C742 C 0.59071 0.04464 0.09431 0.0
C743 C 0.57494 0.0159 0.09539 0.0
H744 H 0.65179 0.60817 0.57787 0.0
H745 H 0.58509 0.53323 0.61902 0.0
H746 H 0.55721 0.55516 0.62502 0.0
H747 H 0.55086 0.59466 0.61728 0.0
H748 H 0.61613 0.66988 0.57526 0.0
H749 H 0.64551 0.6489 0.57105 0.0
C750 C 0.63121 0.59677 0.58827 0.0
C751 C 0.62052 0.56908 0.59787 0.0
C752 C 0.615 0.6095 0.59146 0.0
C753 C 0.5938 0.55451 0.61128 0.0
C754 C 0.57779 0.56702 0.61477 0.0
C755 C 0.57157 0.60658 0.60731 0.0
C756 C 0.58129 0.63375 0.59655 0.0
C757 C 0.58807 0.59436 0.60472 0.0
C758 C 0.60817 0.64889 0.58372 0.0
C759 C 0.62494 0.63688 0.58126 0.0
H760 H 0.95573 0.56193 0.1322 0.0
H761 H 0.95029 0.61861 0.0653 0.0
H762 H 0.00086 0.64567 0.06207 0.0
H763 H 0.04668 0.65199 0.07685 0.0
H764 H 0.05088 0.59461 0.14396 0.0
H765 H 0.00076 0.56913 0.14851 0.0
C766 C 0.96558 0.58028 0.117 0.0
C767 C 0.94934 0.5882 0.09889 0.0
C768 C 0.99447 0.59557 0.11522 0.0
C769 C 0.9624 0.6121 0.07947 0.0
C770 C 0.99128 0.62753 0.07756 0.0
C771 C 0.03657 0.634 0.09256 0.0
C772 C 0.05249 0.62514 0.10989 0.0
C773 C 0.00755 0.61929 0.09509 0.0
C774 C 0.03914 0.60183 0.13025 0.0
C775 C 0.01045 0.5872 0.13289 0.0
H776 H 0.45089 0.04728 0.61676 0.0
H777 H 0.39044 0.05225 0.55612 0.0
H778 H 0.36141 0.00172 0.55728 0.0
H779 H 0.35417 0.95584 0.57448 0.0
H780 H 0.41591 0.95265 0.63481 0.0
H781 H 0.44332 0.00272 0.63492 0.0
C782 C 0.43134 0.03738 0.6038 0.0
C783 C 0.4229 0.05347 0.58625 0.0
C784 C 0.41495 0.00856 0.60455 0.0
C785 C 0.39743 0.04028 0.56975 0.0
C786 C 0.38085 0.01141 0.57042 0.0
C787 C 0.37351 0.96619 0.58782 0.0
C788 C 0.38299 0.95048 0.60452 0.0
C789 C 0.3895 0.99528 0.5876 0.0
C790 C 0.40814 0.96416 0.62163 0.0
C791 C 0.42391 0.99285 0.62172 0.0
H792 H 0.61272 0.65127 0.93247 0.0
H793 H 0.53918 0.58827 0.88474 0.0
H794 H 0.55999 0.55919 0.87943 0.0
H795 H 0.59847 0.55114 0.88909 0.0
H796 H 0.67206 0.61328 0.93739 0.0
H797 H 0.65186 0.64323 0.94171 0.0
C798 C 0.60134 0.63122 0.92083 0.0
C799 C 0.57445 0.62193 0.90906 0.0
C800 C 0.61338 0.61443 0.91801 0.0
C801 C 0.55989 0.59589 0.89407 0.0
C802 C 0.57176 0.57922 0.89101 0.0
C803 C 0.61015 0.57127 0.90051 0.0
C804 C 0.63668 0.57998 0.91293 0.0
C805 C 0.59839 0.58822 0.90303 0.0
C806 C 0.65155 0.6061 0.92766 0.0
C807 C 0.64001 0.62322 0.93014 0.0
H808 H 0.95694 0.61056 0.42916 0.0
H809 H 0.95351 0.53544 0.39672 0.0
H810 H 0.00371 0.55924 0.39312 0.0
H811 H 0.04854 0.60068 0.4005 0.0
H812 H 0.05327 0.67599 0.4342 0.0
H813 H 0.00264 0.65289 0.43585 0.0
C814 C 0.96723 0.59949 0.42117 0.0
C815 C 0.9515 0.57125 0.41327 0.0
C816 C 0.99631 0.6133 0.41941 0.0
C817 C 0.9651 0.55715 0.40304 0.0
C818 C 0.99384 0.57073 0.40095 0.0
C819 C 0.03855 0.61214 0.40806 0.0
C820 C 0.05463 0.64 0.41721 0.0
C821 C 0.00962 0.5987 0.40927 0.0
C822 C 0.04132 0.6545 0.42703 0.0
C823 C 0.01239 0.64129 0.42801 0.0
H824 H 0.38748 0.04607 0.92439 0.0
H825 H 0.46572 0.05185 0.90195 0.0
H826 H 0.44414 0.00172 0.90358 0.0
H827 H 0.40318 0.95627 0.91087 0.0
H828 H 0.32462 0.94973 0.93303 0.0
H829 H 0.34616 0.0001 0.93201 0.0
C830 C 0.39976 0.03631 0.91993 0.0
C831 C 0.42813 0.05264 0.91305 0.0
C832 C 0.38718 0.00737 0.9208 0.0
C833 C 0.44382 0.03975 0.90727 0.0
C834 C 0.43151 0.01108 0.90819 0.0
C835 C 0.39076 0.96585 0.9155 0.0
C836 C 0.36238 0.94934 0.92198 0.0
C837 C 0.40323 0.9947 0.91483 0.0
C838 C 0.34654 0.96204 0.92795 0.0
C839 C 0.35884 0.99082 0.92737 0.0
H840 H 0.38754 0.43879 0.38518 0.0
H841 H 0.326 0.38451 0.45434 0.0
H842 H 0.34787 0.35586 0.45666 0.0
H843 H 0.38562 0.34718 0.43979 0.0
H844 H 0.4467 0.40265 0.37073 0.0
H845 H 0.42386 0.42986 0.3677 0.0
C846 C 0.37878 0.42063 0.40071 0.0
C847 C 0.35523 0.41381 0.41961 0.0
C848 C 0.39148 0.40451 0.40203 0.0
C849 C 0.34414 0.39018 0.43953 0.0
C850 C 0.35668 0.37385 0.4409 0.0
C851 C 0.39382 0.36519 0.42407 0.0
C852 C 0.41789 0.3729 0.40561 0.0
C853 C 0.38053 0.38095 0.42241 0.0
C854 C 0.42827 0.39625 0.38528 0.0
C855 C 0.41522 0.41187 0.38348 0.0
H856 H 0.04792 0.44691 0.90085 0.0
H857 H 0.05008 0.37462 0.93335 0.0
H858 H 0.99946 0.34793 0.93303 0.0
H859 H 0.95457 0.34586 0.92551 0.0
H860 H 0.95335 0.419 0.8943 0.0
H861 H 0.00367 0.44464 0.89212 0.0
C862 C 0.03735 0.42526 0.90766 0.0
C863 C 0.05269 0.41276 0.91716 0.0
C864 C 0.00841 0.41025 0.90781 0.0
C865 C 0.0387 0.38471 0.92596 0.0
C866 C 0.00978 0.36947 0.92584 0.0
C867 C 0.96536 0.36737 0.9181 0.0
C868 C 0.95027 0.38054 0.91019 0.0
C869 C 0.99441 0.38213 0.91714 0.0
C870 C 0.96449 0.40841 0.90064 0.0
C871 C 0.99327 0.42311 0.89936 0.0
H872 H 0.55502 0.95243 0.39126 0.0
H873 H 0.62375 0.94427 0.42489 0.0
H874 H 0.65297 0.99469 0.42661 0.0
H875 H 0.65858 0.04123 0.41901 0.0
H876 H 0.58889 0.04804 0.38572 0.0
H877 H 0.56048 0.99802 0.3835 0.0
C878 C 0.57642 0.96163 0.39889 0.0
C879 C 0.58722 0.94468 0.4079 0.0
C880 C 0.59292 0.99043 0.39997 0.0
C881 C 0.61497 0.95693 0.4178 0.0
C882 C 0.63165 0.98574 0.41882 0.0
C883 C 0.63719 0.0317 0.41126 0.0
C884 C 0.62588 0.04835 0.40256 0.0
C885 C 0.62081 0.00272 0.41005 0.0
C886 C 0.59813 0.03574 0.39256 0.0
C887 C 0.58183 0.00711 0.39126 0.0
H888 H 0.49127 0.61316 0.01347 0.0
H889 H 0.43482 0.61436 0.94252 0.0
H890 H 0.39548 0.58182 0.97603 0.0
H891 H 0.37736 0.5509 0.02414 0.0
H892 H 0.43473 0.549 0.09317 0.0
H893 H 0.47355 0.58427 0.06194 0.0
C894 C 0.47037 0.60644 0.00534 0.0
C895 C 0.46594 0.616 0.97547 0.0
C896 C 0.44804 0.58766 0.02447 0.0
C897 C 0.43874 0.60717 0.96537 0.0
C898 C 0.41628 0.5886 0.98453 0.0
C899 C 0.39836 0.5586 0.03255 0.0
C900 C 0.40323 0.54743 0.06091 0.0
C901 C 0.42069 0.57845 0.01397 0.0
C902 C 0.43051 0.55728 0.0714 0.0
C903 C 0.4527 0.57737 0.05351 0.0
H904 H 0.85396 0.40579 0.57463 0.0
H905 H 0.83919 0.35214 0.49221 0.0
H906 H 0.83792 0.38604 0.45573 0.0
H907 H 0.84382 0.43218 0.44665 0.0
H908 H 0.86113 0.48687 0.52864 0.0
H909 H 0.85847 0.45142 0.56577 0.0
C910 C 0.85013 0.40143 0.54875 0.0
C911 C 0.84669 0.37653 0.53614 0.0
C912 C 0.85006 0.42131 0.52775 0.0
C913 C 0.84199 0.37122 0.5025 0.0
C914 C 0.84129 0.3906 0.4816 0.0
C915 C 0.84674 0.4362 0.47268 0.0
C916 C 0.85272 0.4621 0.48486 0.0
C917 C 0.84573 0.41591 0.49385 0.0
C918 C 0.85663 0.46711 0.51863 0.0
C919 C 0.85511 0.44686 0.5399 0.0
H920 H 0.40531 0.84962 0.94269 0.0
H921 H 0.36426 0.85762 0.02774 0.0
H922 H 0.3992 0.85711 0.06309 0.0
H923 H 0.44302 0.85704 0.06973 0.0
H924 H 0.48494 0.85098 0.98434 0.0
H925 H 0.44816 0.84795 0.94943 0.0
C926 C 0.40389 0.85099 0.96897 0.0
C927 C 0.38228 0.85372 0.98253 0.0
C928 C 0.42433 0.85116 0.98917 0.0
C929 C 0.38077 0.85561 0.01665 0.0
C930 C 0.40076 0.85533 0.03692 0.0
C931 C 0.44391 0.85477 0.04353 0.0
C932 C 0.4667 0.85431 0.02968 0.0
C933 C 0.42287 0.85351 0.02344 0.0
C934 C 0.46767 0.8515 0.99564 0.0
C935 C 0.44664 0.84978 0.97561 0.0
H936 H 0.51729 0.37498 0.5041 0.0
H937 H 0.55276 0.41262 0.4113 0.0
H938 H 0.59319 0.44938 0.43904 0.0
H939 H 0.61752 0.47179 0.48977 0.0
H940 H 0.58285 0.43344 0.58254 0.0
H941 H 0.54316 0.39579 0.55472 0.0
C942 C 0.53391 0.39123 0.48999 0.0
C943 C 0.53197 0.39129 0.45576 0.0
C944 C 0.55723 0.41209 0.50608 0.0
C945 C 0.55378 0.4122 0.4377 0.0
C946 C 0.57688 0.43322 0.45353 0.0
C947 C 0.60137 0.45507 0.50386 0.0
C948 C 0.603 0.45545 0.53814 0.0
C949 C 0.5787 0.4335 0.48771 0.0
C950 C 0.58206 0.43357 0.55611 0.0
C951 C 0.55931 0.41212 0.54023 0.0
H952 H 0.17986 0.55506 0.97932 0.0
H953 H 0.09735 0.4924 0.00694 0.0
H954 H 0.09392 0.52453 0.04396 0.0
H955 H 0.1133 0.57058 0.06718 0.0
H956 H 0.19599 0.6338 0.04176 0.0
H957 H 0.20065 0.60127 0.00576 0.0
C958 C 0.16121 0.54855 0.9935 0.0
C959 C 0.13884 0.52145 0.99022 0.0
C960 C 0.15945 0.56713 0.01532 0.0
C961 C 0.11487 0.51313 0.00899 0.0
C962 C 0.11285 0.53149 0.03021 0.0
C963 C 0.13247 0.5772 0.05403 0.0
C964 C 0.15422 0.60453 0.05701 0.0
C965 C 0.1349 0.55852 0.03343 0.0
C966 C 0.17899 0.61277 0.03998 0.0
C967 C 0.18157 0.59424 0.01921 0.0
H968 H 0.52927 0.14703 0.4874 0.0
H969 H 0.56295 0.13996 0.57938 0.0
H970 H 0.60254 0.14231 0.55118 0.0
H971 H 0.62677 0.14474 0.50046 0.0
H972 H 0.59392 0.15239 0.40821 0.0
H973 H 0.555 0.15184 0.43646 0.0
C974 C 0.5453 0.14601 0.50121 0.0
C975 C 0.54309 0.14309 0.53538 0.0
C976 C 0.56819 0.14761 0.48483 0.0
C977 C 0.56413 0.1421 0.55304 0.0
C978 C 0.58679 0.14347 0.53695 0.0
C979 C 0.61122 0.14652 0.48653 0.0
C980 C 0.61313 0.14848 0.45232 0.0
C981 C 0.58893 0.14603 0.50287 0.0
C982 C 0.59291 0.15091 0.43461 0.0
C983 C 0.5706 0.15045 0.45073 0.0
H984 H 0.52165 0.37588 0.99105 0.0
H985 H 0.55842 0.41435 0.08303 0.0
H986 H 0.59693 0.45245 0.05424 0.0
H987 H 0.61952 0.47542 1.00299 0.0
H988 H 0.58332 0.43677 0.91091 0.0
H989 H 0.54521 0.39811 0.93968 0.0
C990 C 0.53816 0.39255 1.00477 0.0
C991 C 0.53715 0.39235 0.03911 0.0
C992 C 0.56027 0.41438 0.98805 0.0
C993 C 0.55873 0.41402 0.05658 0.0
C994 C 0.58072 0.43584 0.04014 0.0
C995 C 0.6033 0.45852 0.98921 0.0
C996 C 0.60413 0.45901 0.95488 0.0
C997 C 0.58159 0.43634 0.0059 0.0
C998 C 0.5831 0.43688 0.93736 0.0
C999 C 0.56131 0.41479 0.95379 0.0
H1000 H 0.1395 0.58952 0.44828 0.0
H1001 H 0.1402 0.63951 0.5289 0.0
H1002 H 0.14029 0.60628 0.56765 0.0
H1003 H 0.13967 0.5627 0.5786 0.0
H1004 H 0.13659 0.51165 0.4979 0.0
H1005 H 0.13798 0.54559 0.45921 0.0
C1006 C 0.13974 0.59314 0.47434 0.0
C1007 C 0.1399 0.61691 0.48575 0.0
C1008 C 0.13935 0.57376 0.49645 0.0
C1009 C 0.13999 0.62128 0.51955 0.0
C1010 C 0.14009 0.60233 0.54171 0.0
C1011 C 0.13941 0.5591 0.55254 0.0
C1012 C 0.13811 0.5348 0.54109 0.0
C1013 C 0.13971 0.57847 0.53044 0.0
C1014 C 0.13752 0.53021 0.50729 0.0
C1015 C 0.13835 0.54961 0.48515 0.0
H1016 H 0.62622 0.16544 0.99118 0.0
H1017 H 0.58621 0.16005 0.08327 0.0
H1018 H 0.54822 0.16092 0.05472 0.0
H1019 H 0.52449 0.15886 1.00342 0.0
H1020 H 0.5643 0.16374 0.91133 0.0
H1021 H 0.60445 0.16768 0.94009 0.0
C1022 C 0.60934 0.16479 0.00502 0.0
C1023 C 0.60885 0.1624 0.03924 0.0
C1024 C 0.5875 0.16503 0.98844 0.0
C1025 C 0.587 0.16182 0.0569 0.0
C1026 C 0.56524 0.1622 0.04058 0.0
C1027 C 0.54209 0.16111 0.98965 0.0
C1028 C 0.54134 0.16072 0.95531 0.0
C1029 C 0.56496 0.16313 0.00634 0.0
C1030 C 0.56436 0.16389 0.93778 0.0
C1031 C 0.58727 0.16604 0.95421 0.0
H1032 H 0.47592 0.61534 0.50122 0.0
H1033 H 0.44117 0.57544 0.59333 0.0
H1034 H 0.40256 0.53729 0.56487 0.0
H1035 H 0.37846 0.51551 0.51397 0.0
H1036 H 0.41224 0.55588 0.42183 0.0
H1037 H 0.45149 0.59365 0.45014 0.0
C1038 C 0.45992 0.59824 0.51501 0.0
C1039 C 0.46139 0.59815 0.54928 0.0
C1040 C 0.43763 0.57652 0.49852 0.0
C1041 C 0.44046 0.57598 0.56691 0.0
C1042 C 0.4184 0.55416 0.55067 0.0
C1043 C 0.39445 0.53255 0.50008 0.0
C1044 C 0.39252 0.53291 0.46589 0.0
C1045 C 0.41674 0.55425 0.51651 0.0
C1046 C 0.41328 0.55517 0.4482 0.0
C1047 C 0.43572 0.57675 0.46436 0.0
H1048 H 0.86359 0.42455 0.94218 0.0
H1049 H 0.8414 0.36534 0.02023 0.0
H1050 H 0.84056 0.3982 0.05886 0.0
H1051 H 0.84806 0.44458 0.071 0.0
H1052 H 0.87236 0.50446 0.9933 0.0
H1053 H 0.87052 0.47069 0.95417 0.0
C1054 C 0.85827 0.41879 0.96757 0.0
C1055 C 0.8525 0.39258 0.97833 0.0
C1056 C 0.85846 0.43802 0.98983 0.0
C1057 C 0.84595 0.38544 0.01137 0.0
C1058 C 0.84552 0.40423 0.0335 0.0
C1059 C 0.85287 0.45017 0.04549 0.0
C1060 C 0.86041 0.477 0.03513 0.0
C1061 C 0.85208 0.43072 0.02311 0.0
C1062 C 0.86663 0.48397 1.00198 0.0
C1063 C 0.86553 0.46466 0.97953 0.0
H1064 H 0.44946 0.85855 0.43914 0.0
H1065 H 0.50135 0.85945 0.51767 0.0
H1066 H 0.46896 0.85949 0.55778 0.0
H1067 H 0.42611 0.85992 0.57058 0.0
H1068 H 0.37546 0.86124 0.49188 0.0
H1069 H 0.40704 0.85963 0.45188 0.0
C1070 C 0.45361 0.85867 0.46504 0.0
C1071 C 0.4777 0.85895 0.47544 0.0
C1072 C 0.43512 0.85912 0.48796 0.0
C1073 C 0.48295 0.85931 0.50906 0.0
C1074 C 0.46443 0.85929 0.53202 0.0
C1075 C 0.42198 0.85976 0.54467 0.0
C1076 C 0.3985 0.86064 0.53419 0.0
C1077 C 0.44049 0.85929 0.52176 0.0
C1078 C 0.39347 0.86064 0.50056 0.0
C1079 C 0.41149 0.85969 0.47765 0.0
loop_
_geom_bond_atom_site_label_1
_geom_bond_atom_site_label_2
_geom_bond_distance
_geom_bond_site_symmetry_2
_ccdc_geom_bond_type
In0 O1 2.294 . S
In0 O2 2.326 . S
In0 O6 2.266 . S
In0 O7 2.326 . S
In0 O8 2.266 . S
In0 O9 2.326 . S
In0 O11 2.294 . S
In0 O12 2.326 . S
O1 In0 2.294 . S
O1 C10 1.240 . S
O2 In0 2.326 . S
O2 C10 1.252 . S
C3 O6 1.252 . S
C3 O7 1.260 . S
C4 O11 1.240 . S
C4 O12 1.252 . S
C5 O8 1.252 . S
C5 O9 1.260 . S
O6 In0 2.266 . S
O6 C3 1.252 . S
O7 In0 2.326 . S
O7 C3 1.260 . S
O8 In0 2.266 . S
O8 C5 1.252 . S
O9 In0 2.326 . S
O9 C5 1.260 . S
C10 O1 1.240 . S
C10 O2 1.252 . S
O11 In0 2.294 . S
O11 C4 1.240 . S
O12 In0 2.326 . S
O12 C4 1.252 . S
In13 O14 2.294 . S
In13 O15 2.326 . S
In13 O19 2.266 . S
In13 O20 2.326 . S
In13 O21 2.266 . S
In13 O22 2.326 . S
In13 O24 2.294 . S
In13 O25 2.326 . S
O14 In13 2.294 . S
O14 C23 1.240 . S
O15 In13 2.326 . S
O15 C23 1.252 . S
C16 O19 1.252 . S
C16 O20 1.260 . S
C17 O24 1.240 . S
C17 O25 1.252 . S
C18 O21 1.252 . S
C18 O22 1.260 . S
O19 In13 2.266 . S
O19 C16 1.252 . S
O20 In13 2.326 . S
O20 C16 1.260 . S
O21 In13 2.266 . S
O21 C18 1.252 . S
O22 In13 2.326 . S
O22 C18 1.260 . S
C23 O14 1.240 . S
C23 O15 1.252 . S
O24 In13 2.294 . S
O24 C17 1.240 . S
O25 In13 2.326 . S
O25 C17 1.252 . S
In26 O27 2.294 . S
In26 O28 2.326 . S
In26 O32 2.266 . S
In26 O33 2.326 . S
In26 O34 2.266 . S
In26 O35 2.326 . S
In26 O37 2.294 . S
In26 O38 2.326 . S
O27 In26 2.294 . S
O27 C36 1.240 . S
O28 In26 2.326 . S
O28 C36 1.252 . S
C29 O32 1.252 . S
C29 O33 1.260 . S
C30 O37 1.240 . S
C30 O38 1.252 . S
C31 O34 1.252 . S
C31 O35 1.260 . S
O32 In26 2.266 . S
O32 C29 1.252 . S
O33 In26 2.326 . S
O33 C29 1.260 . S
O34 In26 2.266 . S
O34 C31 1.252 . S
O35 In26 2.326 . S
O35 C31 1.260 . S
C36 O27 1.240 . S
C36 O28 1.252 . S
O37 In26 2.294 . S
O37 C30 1.240 . S
O38 In26 2.326 . S
O38 C30 1.252 . S
In39 O40 2.294 . S
In39 O41 2.326 . S
In39 O45 2.266 . S
In39 O46 2.326 . S
In39 O47 2.266 . S
In39 O48 2.326 . S
In39 O50 2.294 . S
In39 O51 2.326 . S
O40 In39 2.294 . S
O40 C49 1.240 . S
O41 In39 2.326 . S
O41 C49 1.252 . S
C42 O45 1.252 . S
C42 O46 1.260 . S
C43 O50 1.240 . S
C43 O51 1.252 . S
C44 O47 1.252 . S
C44 O48 1.260 . S
O45 In39 2.266 . S
O45 C42 1.252 . S
O46 In39 2.326 . S
O46 C42 1.260 . S
O47 In39 2.266 . S
O47 C44 1.252 . S
O48 In39 2.326 . S
O48 C44 1.260 . S
C49 O40 1.240 . S
C49 O41 1.252 . S
O50 In39 2.294 . S
O50 C43 1.240 . S
O51 In39 2.326 . S
O51 C43 1.252 . S
In52 O53 2.294 . S
In52 O54 2.326 . S
In52 O58 2.266 . S
In52 O59 2.326 . S
In52 O60 2.266 . S
In52 O61 2.326 . S
In52 O63 2.294 . S
In52 O64 2.326 . S
O53 In52 2.294 . S
O53 C62 1.240 . S
O54 In52 2.326 . S
O54 C62 1.252 . S
C55 O58 1.252 . S
C55 O59 1.260 . S
C56 O63 1.240 . S
C56 O64 1.252 . S
C57 O60 1.252 . S
C57 O61 1.260 . S
O58 In52 2.266 . S
O58 C55 1.252 . S
O59 In52 2.326 . S
O59 C55 1.260 . S
O60 In52 2.266 . S
O60 C57 1.252 . S
O61 In52 2.326 . S
O61 C57 1.260 . S
C62 O53 1.240 . S
C62 O54 1.252 . S
O63 In52 2.294 . S
O63 C56 1.240 . S
O64 In52 2.326 . S
O64 C56 1.252 . S
In65 O66 2.294 . S
In65 O67 2.326 . S
In65 O71 2.266 . S
In65 O72 2.326 . S
In65 O73 2.266 . S
In65 O74 2.326 . S
In65 O76 2.294 . S
In65 O77 2.326 . S
O66 In65 2.294 . S
O66 C75 1.240 . S
O67 In65 2.326 . S
O67 C75 1.252 . S
C68 O71 1.252 . S
C68 O72 1.260 . S
C69 O76 1.240 . S
C69 O77 1.252 . S
C70 O73 1.252 . S
C70 O74 1.260 . S
O71 In65 2.266 . S
O71 C68 1.252 . S
O72 In65 2.326 . S
O72 C68 1.260 . S
O73 In65 2.266 . S
O73 C70 1.252 . S
O74 In65 2.326 . S
O74 C70 1.260 . S
C75 O66 1.240 . S
C75 O67 1.252 . S
O76 In65 2.294 . S
O76 C69 1.240 . S
O77 In65 2.326 . S
O77 C69 1.252 . S
In78 O79 2.294 . S
In78 O80 2.326 . S
In78 O84 2.266 . S
In78 O85 2.326 . S
In78 O86 2.266 . S
In78 O87 2.326 . S
In78 O89 2.294 . S
In78 O90 2.326 . S
O79 In78 2.294 . S
O79 C88 1.240 . S
O80 In78 2.326 . S
O80 C88 1.252 . S
C81 O84 1.252 . S
C81 O85 1.260 . S
C82 O89 1.240 . S
C82 O90 1.252 . S
C83 O86 1.252 . S
C83 O87 1.260 . S
O84 In78 2.266 . S
O84 C81 1.252 . S
O85 In78 2.326 . S
O85 C81 1.260 . S
O86 In78 2.266 . S
O86 C83 1.252 . S
O87 In78 2.326 . S
O87 C83 1.260 . S
C88 O79 1.240 . S
C88 O80 1.252 . S
O89 In78 2.294 . S
O89 C82 1.240 . S
O90 In78 2.326 . S
O90 C82 1.252 . S
In91 O92 2.294 . S
In91 O93 2.326 . S
In91 O97 2.266 . S
In91 O98 2.326 . S
In91 O99 2.266 . S
In91 O100 2.326 . S
In91 O102 2.294 . S
In91 O103 2.326 . S
O92 In91 2.294 . S
O92 C101 1.240 . S
O93 In91 2.326 . S
O93 C101 1.252 . S
C94 O97 1.252 . S
C94 O98 1.260 . S
C95 O102 1.240 . S
C95 O103 1.252 . S
C96 O99 1.252 . S
C96 O100 1.260 . S
O97 In91 2.266 . S
O97 C94 1.252 . S
O98 In91 2.326 . S
O98 C94 1.260 . S
O99 In91 2.266 . S
O99 C96 1.252 . S
O100 In91 2.326 . S
O100 C96 1.260 . S
C101 O92 1.240 . S
C101 O93 1.252 . S
O102 In91 2.294 . S
O102 C95 1.240 . S
O103 In91 2.326 . S
O103 C95 1.252 . S
In104 O105 2.294 . S
In104 O106 2.326 . S
In104 O110 2.266 . S
In104 O111 2.326 . S
In104 O112 2.266 . S
In104 O113 2.326 . S
In104 O115 2.294 . S
In104 O116 2.326 . S
O105 In104 2.294 . S
O105 C114 1.240 . S
O106 In104 2.326 . S
O106 C114 1.252 . S
C107 O110 1.252 . S
C107 O111 1.260 . S
C108 O115 1.240 . S
C108 O116 1.252 . S
C109 O112 1.252 . S
C109 O113 1.260 . S
O110 In104 2.266 . S
O110 C107 1.252 . S
O111 In104 2.326 . S
O111 C107 1.260 . S
O112 In104 2.266 . S
O112 C109 1.252 . S
O113 In104 2.326 . S
O113 C109 1.260 . S
C114 O105 1.240 . S
C114 O106 1.252 . S
O115 In104 2.294 . S
O115 C108 1.240 . S
O116 In104 2.326 . S
O116 C108 1.252 . S
In117 O118 2.294 . S
In117 O119 2.326 . S
In117 O123 2.266 . S
In117 O124 2.326 . S
In117 O125 2.266 . S
In117 O126 2.326 . S
In117 O128 2.294 . S
In117 O129 2.326 . S
O118 In117 2.294 . S
O118 C127 1.240 . S
O119 In117 2.326 . S
O119 C127 1.252 . S
C120 O123 1.252 . S
C120 O124 1.260 . S
C121 O128 1.240 . S
C121 O129 1.252 . S
C122 O125 1.252 . S
C122 O126 1.260 . S
O123 In117 2.266 . S
O123 C120 1.252 . S
O124 In117 2.326 . S
O124 C120 1.260 . S
O125 In117 2.266 . S
O125 C122 1.252 . S
O126 In117 2.326 . S
O126 C122 1.260 . S
C127 O118 1.240 . S
C127 O119 1.252 . S
O128 In117 2.294 . S
O128 C121 1.240 . S
O129 In117 2.326 . S
O129 C121 1.252 . S
In130 O131 2.294 . S
In130 O132 2.326 . S
In130 O136 2.266 . S
In130 O137 2.326 . S
In130 O138 2.266 . S
In130 O139 2.326 . S
In130 O141 2.294 . S
In130 O142 2.326 . S
O131 In130 2.294 . S
O131 C140 1.240 . S
O132 In130 2.326 . S
O132 C140 1.252 . S
C133 O136 1.252 . S
C133 O137 1.260 . S
C134 O141 1.240 . S
C134 O142 1.252 . S
C135 O138 1.252 . S
C135 O139 1.260 . S
O136 In130 2.266 . S
O136 C133 1.252 . S
O137 In130 2.326 . S
O137 C133 1.260 . S
O138 In130 2.266 . S
O138 C135 1.252 . S
O139 In130 2.326 . S
O139 C135 1.260 . S
C140 O131 1.240 . S
C140 O132 1.252 . S
O141 In130 2.294 . S
O141 C134 1.240 . S
O142 In130 2.326 . S
O142 C134 1.252 . S
In143 O144 2.294 . S
In143 O145 2.326 . S
In143 O149 2.266 . S
In143 O150 2.326 . S
In143 O151 2.266 . S
In143 O152 2.326 . S
In143 O154 2.294 . S
In143 O155 2.326 . S
O144 In143 2.294 . S
O144 C153 1.240 . S
O145 In143 2.326 . S
O145 C153 1.252 . S
C146 O149 1.252 . S
C146 O150 1.260 . S
C147 O154 1.240 . S
C147 O155 1.252 . S
C148 O151 1.252 . S
C148 O152 1.260 . S
O149 In143 2.266 . S
O149 C146 1.252 . S
O150 In143 2.326 . S
O150 C146 1.260 . S
O151 In143 2.266 . S
O151 C148 1.252 . S
O152 In143 2.326 . S
O152 C148 1.260 . S
C153 O144 1.240 . S
C153 O145 1.252 . S
O154 In143 2.294 . S
O154 C147 1.240 . S
O155 In143 2.326 . S
O155 C147 1.252 . S
In156 O157 2.294 . S
In156 O158 2.326 . S
In156 O162 2.266 . S
In156 O163 2.326 . S
In156 O164 2.266 . S
In156 O165 2.326 . S
In156 O167 2.294 . S
In156 O168 2.326 . S
O157 In156 2.294 . S
O157 C166 1.240 . S
O158 In156 2.326 . S
O158 C166 1.252 . S
C159 O162 1.252 . S
C159 O163 1.260 . S
C160 O167 1.240 . S
C160 O168 1.252 . S
C161 O164 1.252 . S
C161 O165 1.260 . S
O162 In156 2.266 . S
O162 C159 1.252 . S
O163 In156 2.326 . S
O163 C159 1.260 . S
O164 In156 2.266 . S
O164 C161 1.252 . S
O165 In156 2.326 . S
O165 C161 1.260 . S
C166 O157 1.240 . S
C166 O158 1.252 . S
O167 In156 2.294 . S
O167 C160 1.240 . S
O168 In156 2.326 . S
O168 C160 1.252 . S
In169 O170 2.294 . S
In169 O171 2.326 . S
In169 O175 2.266 . S
In169 O176 2.326 . S
In169 O177 2.266 . S
In169 O178 2.326 . S
In169 O180 2.294 . S
In169 O181 2.326 . S
O170 In169 2.294 . S
O170 C179 1.240 . S
O171 In169 2.326 . S
O171 C179 1.252 . S
C172 O175 1.252 . S
C172 O176 1.260 . S
C173 O180 1.240 . S
C173 O181 1.252 . S
C174 O177 1.252 . S
C174 O178 1.260 . S
O175 In169 2.266 . S
O175 C172 1.252 . S
O176 In169 2.326 . S
O176 C172 1.260 . S
O177 In169 2.266 . S
O177 C174 1.252 . S
O178 In169 2.326 . S
O178 C174 1.260 . S
C179 O170 1.240 . S
C179 O171 1.252 . S
O180 In169 2.294 . S
O180 C173 1.240 . S
O181 In169 2.326 . S
O181 C173 1.252 . S
In182 O183 2.294 . S
In182 O184 2.326 . S
In182 O188 2.266 . S
In182 O189 2.326 . S
In182 O190 2.266 . S
In182 O191 2.326 . S
In182 O193 2.294 . S
In182 O194 2.326 . S
O183 In182 2.294 . S
O183 C192 1.240 . S
O184 In182 2.326 . S
O184 C192 1.252 . S
C185 O188 1.252 . S
C185 O189 1.260 . S
C186 O193 1.240 . S
C186 O194 1.252 . S
C187 O190 1.252 . S
C187 O191 1.260 . S
O188 In182 2.266 . S
O188 C185 1.252 . S
O189 In182 2.326 . S
O189 C185 1.260 . S
O190 In182 2.266 . S
O190 C187 1.252 . S
O191 In182 2.326 . S
O191 C187 1.260 . S
C192 O183 1.240 . S
C192 O184 1.252 . S
O193 In182 2.294 . S
O193 C186 1.240 . S
O194 In182 2.326 . S
O194 C186 1.252 . S
In195 O196 2.294 . S
In195 O197 2.326 . S
In195 O201 2.266 . S
In195 O202 2.326 . S
In195 O203 2.266 . S
In195 O204 2.326 . S
In195 O206 2.294 . S
In195 O207 2.326 . S
O196 In195 2.294 . S
O196 C205 1.240 . S
O197 In195 2.326 . S
O197 C205 1.252 . S
C198 O201 1.252 . S
C198 O202 1.260 . S
C199 O206 1.240 . S
C199 O207 1.252 . S
C200 O203 1.252 . S
C200 O204 1.260 . S
O201 In195 2.266 . S
O201 C198 1.252 . S
O202 In195 2.326 . S
O202 C198 1.260 . S
O203 In195 2.266 . S
O203 C200 1.252 . S
O204 In195 2.326 . S
O204 C200 1.260 . S
C205 O196 1.240 . S
C205 O197 1.252 . S
O206 In195 2.294 . S
O206 C199 1.240 . S
O207 In195 2.326 . S
O207 C199 1.252 . S
In208 O209 2.294 . S
In208 O210 2.326 . S
In208 O214 2.266 . S
In208 O215 2.326 . S
In208 O216 2.266 . S
In208 O217 2.326 . S
In208 O219 2.294 . S
In208 O220 2.326 . S
O209 In208 2.294 . S
O209 C218 1.240 . S
O210 In208 2.326 . S
O210 C218 1.252 . S
C211 O214 1.252 . S
C211 O215 1.260 . S
C212 O219 1.240 . S
C212 O220 1.252 . S
C213 O216 1.252 . S
C213 O217 1.260 . S
O214 In208 2.266 . S
O214 C211 1.252 . S
O215 In208 2.326 . S
O215 C211 1.260 . S
O216 In208 2.266 . S
O216 C213 1.252 . S
O217 In208 2.326 . S
O217 C213 1.260 . S
C218 O209 1.240 . S
C218 O210 1.252 . S
O219 In208 2.294 . S
O219 C212 1.240 . S
O220 In208 2.326 . S
O220 C212 1.252 . S
In221 O222 2.294 . S
In221 O223 2.326 . S
In221 O227 2.266 . S
In221 O228 2.326 . S
In221 O229 2.266 . S
In221 O230 2.326 . S
In221 O232 2.294 . S
In221 O233 2.326 . S
O222 In221 2.294 . S
O222 C231 1.240 . S
O223 In221 2.326 . S
O223 C231 1.252 . S
C224 O227 1.252 . S
C224 O228 1.260 . S
C225 O232 1.240 . S
C225 O233 1.252 . S
C226 O229 1.252 . S
C226 O230 1.260 . S
O227 In221 2.266 . S
O227 C224 1.252 . S
O228 In221 2.326 . S
O228 C224 1.260 . S
O229 In221 2.266 . S
O229 C226 1.252 . S
O230 In221 2.326 . S
O230 C226 1.260 . S
C231 O222 1.240 . S
C231 O223 1.252 . S
O232 In221 2.294 . S
O232 C225 1.240 . S
O233 In221 2.326 . S
O233 C225 1.252 . S
In234 O235 2.294 . S
In234 O236 2.326 . S
In234 O240 2.266 . S
In234 O241 2.326 . S
In234 O242 2.266 . S
In234 O243 2.326 . S
In234 O245 2.294 . S
In234 O246 2.326 . S
O235 In234 2.294 . S
O235 C244 1.240 . S
O236 In234 2.326 . S
O236 C244 1.252 . S
C237 O240 1.252 . S
C237 O241 1.260 . S
C238 O245 1.240 . S
C238 O246 1.252 . S
C239 O242 1.252 . S
C239 O243 1.260 . S
O240 In234 2.266 . S
O240 C237 1.252 . S
O241 In234 2.326 . S
O241 C237 1.260 . S
O242 In234 2.266 . S
O242 C239 1.252 . S
O243 In234 2.326 . S
O243 C239 1.260 . S
C244 O235 1.240 . S
C244 O236 1.252 . S
O245 In234 2.294 . S
O245 C238 1.240 . S
O246 In234 2.326 . S
O246 C238 1.252 . S
In247 O248 2.294 . S
In247 O249 2.326 . S
In247 O253 2.266 . S
In247 O254 2.326 . S
In247 O255 2.266 . S
In247 O256 2.326 . S
In247 O258 2.294 . S
In247 O259 2.326 . S
O248 In247 2.294 . S
O248 C257 1.240 . S
O249 In247 2.326 . S
O249 C257 1.252 . S
C250 O253 1.252 . S
C250 O254 1.260 . S
C251 O258 1.240 . S
C251 O259 1.252 . S
C252 O255 1.252 . S
C252 O256 1.260 . S
O253 In247 2.266 . S
O253 C250 1.252 . S
O254 In247 2.326 . S
O254 C250 1.260 . S
O255 In247 2.266 . S
O255 C252 1.252 . S
O256 In247 2.326 . S
O256 C252 1.260 . S
C257 O248 1.240 . S
C257 O249 1.252 . S
O258 In247 2.294 . S
O258 C251 1.240 . S
O259 In247 2.326 . S
O259 C251 1.252 . S
In260 O261 2.294 . S
In260 O262 2.326 . S
In260 O266 2.266 . S
In260 O267 2.326 . S
In260 O268 2.266 . S
In260 O269 2.326 . S
In260 O271 2.294 . S
In260 O272 2.326 . S
O261 In260 2.294 . S
O261 C270 1.240 . S
O262 In260 2.326 . S
O262 C270 1.252 . S
C263 O266 1.252 . S
C263 O267 1.260 . S
C264 O271 1.240 . S
C264 O272 1.252 . S
C265 O268 1.252 . S
C265 O269 1.260 . S
O266 In260 2.266 . S
O266 C263 1.252 . S
O267 In260 2.326 . S
O267 C263 1.260 . S
O268 In260 2.266 . S
O268 C265 1.252 . S
O269 In260 2.326 . S
O269 C265 1.260 . S
C270 O261 1.240 . S
C270 O262 1.252 . S
O271 In260 2.294 . S
O271 C264 1.240 . S
O272 In260 2.326 . S
O272 C264 1.252 . S
In273 O274 2.294 . S
In273 O275 2.326 . S
In273 O279 2.266 . S
In273 O280 2.326 . S
In273 O281 2.266 . S
In273 O282 2.326 . S
In273 O284 2.294 . S
In273 O285 2.326 . S
O274 In273 2.294 . S
O274 C283 1.240 . S
O275 In273 2.326 . S
O275 C283 1.252 . S
C276 O279 1.252 . S
C276 O280 1.260 . S
C277 O284 1.240 . S
C277 O285 1.252 . S
C278 O281 1.252 . S
C278 O282 1.260 . S
O279 In273 2.266 . S
O279 C276 1.252 . S
O280 In273 2.326 . S
O280 C276 1.260 . S
O281 In273 2.266 . S
O281 C278 1.252 . S
O282 In273 2.326 . S
O282 C278 1.260 . S
C283 O274 1.240 . S
C283 O275 1.252 . S
O284 In273 2.294 . S
O284 C277 1.240 . S
O285 In273 2.326 . S
O285 C277 1.252 . S
In286 O287 2.294 . S
In286 O288 2.326 . S
In286 O292 2.266 . S
In286 O293 2.326 . S
In286 O294 2.266 . S
In286 O295 2.326 . S
In286 O297 2.294 . S
In286 O298 2.326 . S
O287 In286 2.294 . S
O287 C296 1.240 . S
O288 In286 2.326 . S
O288 C296 1.252 . S
C289 O292 1.252 . S
C289 O293 1.260 . S
C290 O297 1.240 . S
C290 O298 1.252 . S
C291 O294 1.252 . S
C291 O295 1.260 . S
O292 In286 2.266 . S
O292 C289 1.252 . S
O293 In286 2.326 . S
O293 C289 1.260 . S
O294 In286 2.266 . S
O294 C291 1.252 . S
O295 In286 2.326 . S
O295 C291 1.260 . S
C296 O287 1.240 . S
C296 O288 1.252 . S
O297 In286 2.294 . S
O297 C290 1.240 . S
O298 In286 2.326 . S
O298 C290 1.252 . S
In299 O300 2.294 . S
In299 O301 2.326 . S
In299 O305 2.266 . S
In299 O306 2.326 . S
In299 O307 2.266 . S
In299 O308 2.326 . S
In299 O310 2.294 . S
In299 O311 2.326 . S
O300 In299 2.294 . S
O300 C309 1.240 . S
O301 In299 2.326 . S
O301 C309 1.252 . S
C302 O305 1.252 . S
C302 O306 1.260 . S
C303 O310 1.240 . S
C303 O311 1.252 . S
C304 O307 1.252 . S
C304 O308 1.260 . S
O305 In299 2.266 . S
O305 C302 1.252 . S
O306 In299 2.326 . S
O306 C302 1.260 . S
O307 In299 2.266 . S
O307 C304 1.252 . S
O308 In299 2.326 . S
O308 C304 1.260 . S
C309 O300 1.240 . S
C309 O301 1.252 . S
O310 In299 2.294 . S
O310 C303 1.240 . S
O311 In299 2.326 . S
O311 C303 1.252 . S
H312 C318 0.930 . S
H313 C321 0.930 . S
H314 C322 0.930 . S
H315 C323 0.930 . S
H316 C326 0.930 . S
H317 C327 0.930 . S
C318 H312 0.930 . S
C318 C319 1.355 . S
C318 C320 1.415 . S
C319 C318 1.355 . S
C319 C321 1.419 . S
C320 C318 1.415 . S
C320 C325 1.425 . S
C320 C327 1.409 . S
C321 H313 0.930 . S
C321 C319 1.419 . S
C321 C322 1.362 . S
C322 H314 0.930 . S
C322 C321 1.362 . S
C322 C325 1.409 . S
C323 H315 0.930 . S
C323 C324 1.355 . S
C323 C325 1.415 . S
C324 C323 1.355 . S
C324 C326 1.419 . S
C325 C320 1.425 . S
C325 C322 1.409 . S
C325 C323 1.415 . S
C326 H316 0.930 . S
C326 C324 1.419 . S
C326 C327 1.362 . S
C327 H317 0.930 . S
C327 C320 1.409 . S
C327 C326 1.362 . S
H328 C334 0.930 . S
H329 C337 0.930 . S
H330 C338 0.930 . S
H331 C339 0.930 . S
H332 C342 0.930 . S
H333 C343 0.930 . S
C334 H328 0.930 . S
C334 C335 1.355 . S
C334 C336 1.415 . S
C335 C334 1.355 . S
C335 C337 1.419 . S
C336 C334 1.415 . S
C336 C341 1.425 . S
C336 C343 1.409 . S
C337 H329 0.930 . S
C337 C335 1.419 . S
C337 C338 1.362 . S
C338 H330 0.930 . S
C338 C337 1.362 . S
C338 C341 1.409 . S
C339 H331 0.930 . S
C339 C340 1.355 . S
C339 C341 1.415 . S
C340 C339 1.355 . S
C340 C342 1.419 . S
C341 C336 1.425 . S
C341 C338 1.409 . S
C341 C339 1.415 . S
C342 H332 0.930 . S
C342 C340 1.419 . S
C342 C343 1.362 . S
C343 H333 0.930 . S
C343 C336 1.409 . S
C343 C342 1.362 . S
H344 C350 0.930 . S
H345 C353 0.930 . S
H346 C354 0.930 . S
H347 C355 0.930 . S
H348 C358 0.930 . S
H349 C359 0.930 . S
C350 H344 0.930 . S
C350 C351 1.355 . S
C350 C352 1.415 . S
C351 C350 1.355 . S
C351 C353 1.419 . S
C352 C350 1.415 . S
C352 C357 1.425 . S
C352 C359 1.409 . S
C353 H345 0.930 . S
C353 C351 1.419 . S
C353 C354 1.362 . S
C354 H346 0.930 . S
C354 C353 1.362 . S
C354 C357 1.409 . S
C355 H347 0.930 . S
C355 C356 1.355 . S
C355 C357 1.415 . S
C356 C355 1.355 . S
C356 C358 1.419 . S
C357 C352 1.425 . S
C357 C354 1.409 . S
C357 C355 1.415 . S
C358 H348 0.930 . S
C358 C356 1.419 . S
C358 C359 1.362 . S
C359 H349 0.930 . S
C359 C352 1.409 . S
C359 C358 1.362 . S
H360 C366 0.930 . S
H361 C369 0.930 . S
H362 C370 0.930 . S
H363 C371 0.930 . S
H364 C374 0.930 . S
H365 C375 0.930 . S
C366 H360 0.930 . S
C366 C367 1.355 . S
C366 C368 1.415 . S
C367 C366 1.355 . S
C367 C369 1.419 . S
C368 C366 1.415 . S
C368 C373 1.425 . S
C368 C375 1.409 . S
C369 H361 0.930 . S
C369 C367 1.419 . S
C369 C370 1.362 . S
C370 H362 0.930 . S
C370 C369 1.362 . S
C370 C373 1.409 . S
C371 H363 0.930 . S
C371 C372 1.355 . S
C371 C373 1.415 . S
C372 C371 1.355 . S
C372 C374 1.419 . S
C373 C368 1.425 . S
C373 C370 1.409 . S
C373 C371 1.415 . S
C374 H364 0.930 . S
C374 C372 1.419 . S
C374 C375 1.362 . S
C375 H365 0.930 . S
C375 C368 1.409 . S
C375 C374 1.362 . S
H376 C382 0.930 . S
H377 C385 0.930 . S
H378 C386 0.930 . S
H379 C387 0.930 . S
H380 C390 0.930 . S
H381 C391 0.930 . S
C382 H376 0.930 . S
C382 C383 1.355 . S
C382 C384 1.415 . S
C383 C382 1.355 . S
C383 C385 1.419 . S
C384 C382 1.415 . S
C384 C389 1.425 . S
C384 C391 1.409 . S
C385 H377 0.930 . S
C385 C383 1.419 . S
C385 C386 1.362 . S
C386 H378 0.930 . S
C386 C385 1.362 . S
C386 C389 1.409 . S
C387 H379 0.930 . S
C387 C388 1.355 . S
C387 C389 1.415 . S
C388 C387 1.355 . S
C388 C390 1.419 . S
C389 C384 1.425 . S
C389 C386 1.409 . S
C389 C387 1.415 . S
C390 H380 0.930 . S
C390 C388 1.419 . S
C390 C391 1.362 . S
C391 H381 0.930 . S
C391 C384 1.409 . S
C391 C390 1.362 . S
H392 C398 0.930 . S
H393 C401 0.930 . S
H394 C402 0.930 . S
H395 C403 0.930 . S
H396 C406 0.930 . S
H397 C407 0.930 . S
C398 H392 0.930 . S
C398 C399 1.355 . S
C398 C400 1.415 . S
C399 C398 1.355 . S
C399 C401 1.419 . S
C400 C398 1.415 . S
C400 C405 1.425 . S
C400 C407 1.409 . S
C401 H393 0.930 . S
C401 C399 1.419 . S
C401 C402 1.362 . S
C402 H394 0.930 . S
C402 C401 1.362 . S
C402 C405 1.409 . S
C403 H395 0.930 . S
C403 C404 1.355 . S
C403 C405 1.415 . S
C404 C403 1.355 . S
C404 C406 1.419 . S
C405 C400 1.425 . S
C405 C402 1.409 . S
C405 C403 1.415 . S
C406 H396 0.930 . S
C406 C404 1.419 . S
C406 C407 1.362 . S
C407 H397 0.930 . S
C407 C400 1.409 . S
C407 C406 1.362 . S
H408 C414 0.930 . S
H409 C417 0.930 . S
H410 C418 0.930 . S
H411 C419 0.930 . S
H412 C422 0.930 . S
H413 C423 0.930 . S
C414 H408 0.930 . S
C414 C415 1.355 . S
C414 C416 1.415 . S
C415 C414 1.355 . S
C415 C417 1.419 . S
C416 C414 1.415 . S
C416 C421 1.425 . S
C416 C423 1.409 . S
C417 H409 0.930 . S
C417 C415 1.419 . S
C417 C418 1.362 . S
C418 H410 0.930 . S
C418 C417 1.362 . S
C418 C421 1.409 . S
C419 H411 0.930 . S
C419 C420 1.355 . S
C419 C421 1.415 . S
C420 C419 1.355 . S
C420 C422 1.419 . S
C421 C416 1.425 . S
C421 C418 1.409 . S
C421 C419 1.415 . S
C422 H412 0.930 . S
C422 C420 1.419 . S
C422 C423 1.362 . S
C423 H413 0.930 . S
C423 C416 1.409 . S
C423 C422 1.362 . S
H424 C430 0.930 . S
H425 C433 0.930 . S
H426 C434 0.930 . S
H427 C435 0.930 . S
H428 C438 0.930 . S
H429 C439 0.930 . S
C430 H424 0.930 . S
C430 C431 1.355 . S
C430 C432 1.415 . S
C431 C430 1.355 . S
C431 C433 1.419 . S
C432 C430 1.415 . S
C432 C437 1.425 . S
C432 C439 1.409 . S
C433 H425 0.930 . S
C433 C431 1.419 . S
C433 C434 1.362 . S
C434 H426 0.930 . S
C434 C433 1.362 . S
C434 C437 1.409 . S
C435 H427 0.930 . S
C435 C436 1.355 . S
C435 C437 1.415 . S
C436 C435 1.355 . S
C436 C438 1.419 . S
C437 C432 1.425 . S
C437 C434 1.409 . S
C437 C435 1.415 . S
C438 H428 0.930 . S
C438 C436 1.419 . S
C438 C439 1.362 . S
C439 H429 0.930 . S
C439 C432 1.409 . S
C439 C438 1.362 . S
H440 C446 0.930 . S
H441 C449 0.930 . S
H442 C450 0.930 . S
H443 C451 0.930 . S
H444 C454 0.930 . S
H445 C455 0.930 . S
C446 H440 0.930 . S
C446 C447 1.355 . S
C446 C448 1.415 . S
C447 C446 1.355 . S
C447 C449 1.419 . S
C448 C446 1.415 . S
C448 C453 1.425 . S
C448 C455 1.409 . S
C449 H441 0.930 . S
C449 C447 1.419 . S
C449 C450 1.362 . S
C450 H442 0.930 . S
C450 C449 1.362 . S
C450 C453 1.409 . S
C451 H443 0.930 . S
C451 C452 1.355 . S
C451 C453 1.415 . S
C452 C451 1.355 . S
C452 C454 1.419 . S
C453 C448 1.425 . S
C453 C450 1.409 . S
C453 C451 1.415 . S
C454 H444 0.930 . S
C454 C452 1.419 . S
C454 C455 1.362 . S
C455 H445 0.930 . S
C455 C448 1.409 . S
C455 C454 1.362 . S
H456 C462 0.930 . S
H457 C465 0.930 . S
H458 C466 0.930 . S
H459 C467 0.930 . S
H460 C470 0.930 . S
H461 C471 0.930 . S
C462 H456 0.930 . S
C462 C463 1.355 . S
C462 C464 1.415 . S
C463 C462 1.355 . S
C463 C465 1.419 . S
C464 C462 1.415 . S
C464 C469 1.425 . S
C464 C471 1.409 . S
C465 H457 0.930 . S
C465 C463 1.419 . S
C465 C466 1.362 . S
C466 H458 0.930 . S
C466 C465 1.362 . S
C466 C469 1.409 . S
C467 H459 0.930 . S
C467 C468 1.355 . S
C467 C469 1.415 . S
C468 C467 1.355 . S
C468 C470 1.419 . S
C469 C464 1.425 . S
C469 C466 1.409 . S
C469 C467 1.415 . S
C470 H460 0.930 . S
C470 C468 1.419 . S
C470 C471 1.362 . S
C471 H461 0.930 . S
C471 C464 1.409 . S
C471 C470 1.362 . S
H472 C478 0.930 . S
H473 C481 0.930 . S
H474 C482 0.930 . S
H475 C483 0.930 . S
H476 C486 0.930 . S
H477 C487 0.930 . S
C478 H472 0.930 . S
C478 C479 1.355 . S
C478 C480 1.415 . S
C479 C478 1.355 . S
C479 C481 1.419 . S
C480 C478 1.415 . S
C480 C485 1.425 . S
C480 C487 1.409 . S
C481 H473 0.930 . S
C481 C479 1.419 . S
C481 C482 1.362 . S
C482 H474 0.930 . S
C482 C481 1.362 . S
C482 C485 1.409 . S
C483 H475 0.930 . S
C483 C484 1.355 . S
C483 C485 1.415 . S
C484 C483 1.355 . S
C484 C486 1.419 . S
C485 C480 1.425 . S
C485 C482 1.409 . S
C485 C483 1.415 . S
C486 H476 0.930 . S
C486 C484 1.419 . S
C486 C487 1.362 . S
C487 H477 0.930 . S
C487 C480 1.409 . S
C487 C486 1.362 . S
H488 C494 0.930 . S
H489 C497 0.930 . S
H490 C498 0.930 . S
H491 C499 0.930 . S
H492 C502 0.930 . S
H493 C503 0.930 . S
C494 H488 0.930 . S
C494 C495 1.355 . S
C494 C496 1.415 . S
C495 C494 1.355 . S
C495 C497 1.419 . S
C496 C494 1.415 . S
C496 C501 1.425 . S
C496 C503 1.409 . S
C497 H489 0.930 . S
C497 C495 1.419 . S
C497 C498 1.362 . S
C498 H490 0.930 . S
C498 C497 1.362 . S
C498 C501 1.409 . S
C499 H491 0.930 . S
C499 C500 1.355 . S
C499 C501 1.415 . S
C500 C499 1.355 . S
C500 C502 1.419 . S
C501 C496 1.425 . S
C501 C498 1.409 . S
C501 C499 1.415 . S
C502 H492 0.930 . S
C502 C500 1.419 . S
C502 C503 1.362 . S
C503 H493 0.930 . S
C503 C496 1.409 . S
C503 C502 1.362 . S
H504 C510 0.930 . S
H505 C513 0.930 . S
H506 C514 0.930 . S
H507 C515 0.930 . S
H508 C518 0.930 . S
H509 C519 0.930 . S
C510 H504 0.930 . S
C510 C511 1.355 . S
C510 C512 1.415 . S
C511 C510 1.355 . S
C511 C513 1.419 . S
C512 C510 1.415 . S
C512 C517 1.425 1_556 S
C512 C519 1.409 . S
C513 H505 0.930 . S
C513 C511 1.419 . S
C513 C514 1.362 1_556 S
C514 H506 0.930 . S
C514 C513 1.362 1_554 S
C514 C517 1.409 . S
C515 H507 0.930 . S
C515 C516 1.355 . S
C515 C517 1.415 . S
C516 C515 1.355 . S
C516 C518 1.419 . S
C517 C512 1.425 1_554 S
C517 C514 1.409 . S
C517 C515 1.415 . S
C518 H508 0.930 . S
C518 C516 1.419 . S
C518 C519 1.362 1_554 S
C519 H509 0.930 . S
C519 C512 1.409 . S
C519 C518 1.362 1_556 S
H520 C526 0.930 . S
H521 C529 0.930 . S
H522 C530 0.930 . S
H523 C531 0.930 . S
H524 C534 0.930 . S
H525 C535 0.930 . S
C526 H520 0.930 . S
C526 C527 1.355 . S
C526 C528 1.415 . S
C527 C526 1.355 . S
C527 C529 1.419 . S
C528 C526 1.415 . S
C528 C533 1.425 . S
C528 C535 1.409 . S
C529 H521 0.930 . S
C529 C527 1.419 . S
C529 C530 1.362 . S
C530 H522 0.930 . S
C530 C529 1.362 . S
C530 C533 1.409 . S
C531 H523 0.930 . S
C531 C532 1.355 . S
C531 C533 1.415 . S
C532 C531 1.355 . S
C532 C534 1.419 . S
C533 C528 1.425 . S
C533 C530 1.409 . S
C533 C531 1.415 . S
C534 H524 0.930 . S
C534 C532 1.419 . S
C534 C535 1.362 . S
C535 H525 0.930 . S
C535 C528 1.409 . S
C535 C534 1.362 . S
H536 C542 0.930 . S
H537 C545 0.930 . S
H538 C546 0.930 . S
H539 C547 0.930 . S
H540 C550 0.930 . S
H541 C551 0.930 . S
C542 H536 0.930 . S
C542 C543 1.355 . S
C542 C544 1.415 . S
C543 C542 1.355 . S
C543 C545 1.419 . S
C544 C542 1.415 . S
C544 C549 1.425 1_554 S
C544 C551 1.409 . S
C545 H537 0.930 . S
C545 C543 1.419 . S
C545 C546 1.362 1_554 S
C546 H538 0.930 . S
C546 C545 1.362 1_556 S
C546 C549 1.409 . S
C547 H539 0.930 . S
C547 C548 1.355 . S
C547 C549 1.415 . S
C548 C547 1.355 . S
C548 C550 1.419 . S
C549 C544 1.425 1_556 S
C549 C546 1.409 . S
C549 C547 1.415 . S
C550 H540 0.930 . S
C550 C548 1.419 . S
C550 C551 1.362 1_556 S
C551 H541 0.930 . S
C551 C544 1.409 . S
C551 C550 1.362 1_554 S
H552 C558 0.930 . S
H553 C561 0.930 . S
H554 C562 0.930 . S
H555 C563 0.930 . S
H556 C566 0.930 . S
H557 C567 0.930 . S
C558 H552 0.930 . S
C558 C559 1.355 . S
C558 C560 1.415 . S
C559 C558 1.355 . S
C559 C561 1.419 . S
C560 C558 1.415 . S
C560 C565 1.425 . S
C560 C567 1.409 . S
C561 H553 0.930 . S
C561 C559 1.419 . S
C561 C562 1.362 . S
C562 H554 0.930 . S
C562 C561 1.362 . S
C562 C565 1.409 . S
C563 H555 0.930 . S
C563 C564 1.355 . S
C563 C565 1.415 . S
C564 C563 1.355 . S
C564 C566 1.419 . S
C565 C560 1.425 . S
C565 C562 1.409 . S
C565 C563 1.415 . S
C566 H556 0.930 . S
C566 C564 1.419 . S
C566 C567 1.362 . S
C567 H557 0.930 . S
C567 C560 1.409 . S
C567 C566 1.362 . S
H568 C574 0.930 . S
H569 C577 0.930 . S
H570 C578 0.930 . S
H571 C579 0.930 . S
H572 C582 0.930 . S
H573 C583 0.930 . S
C574 H568 0.930 . S
C574 C575 1.355 . S
C574 C576 1.415 . S
C575 C574 1.355 . S
C575 C577 1.419 . S
C576 C574 1.415 . S
C576 C581 1.425 1_556 S
C576 C583 1.409 . S
C577 H569 0.930 . S
C577 C575 1.419 . S
C577 C578 1.362 1_556 S
C578 H570 0.930 . S
C578 C577 1.362 1_554 S
C578 C581 1.409 . S
C579 H571 0.930 . S
C579 C580 1.355 . S
C579 C581 1.415 . S
C580 C579 1.355 . S
C580 C582 1.419 . S
C581 C576 1.425 1_554 S
C581 C578 1.409 . S
C581 C579 1.415 . S
C582 H572 0.930 . S
C582 C580 1.419 . S
C582 C583 1.362 1_554 S
C583 H573 0.930 . S
C583 C576 1.409 . S
C583 C582 1.362 1_556 S
H584 C590 0.930 . S
H585 C593 0.930 . S
H586 C594 0.930 . S
H587 C595 0.930 . S
H588 C598 0.930 . S
H589 C599 0.930 . S
C590 H584 0.930 . S
C590 C591 1.355 . S
C590 C592 1.415 . S
C591 C590 1.355 . S
C591 C593 1.419 . S
C592 C590 1.415 . S
C592 C597 1.425 . S
C592 C599 1.409 . S
C593 H585 0.930 . S
C593 C591 1.419 . S
C593 C594 1.362 . S
C594 H586 0.930 . S
C594 C593 1.362 . S
C594 C597 1.409 . S
C595 H587 0.930 . S
C595 C596 1.355 . S
C595 C597 1.415 . S
C596 C595 1.355 . S
C596 C598 1.419 . S
C597 C592 1.425 . S
C597 C594 1.409 . S
C597 C595 1.415 . S
C598 H588 0.930 . S
C598 C596 1.419 . S
C598 C599 1.362 . S
C599 H589 0.930 . S
C599 C592 1.409 . S
C599 C598 1.362 . S
H600 C606 0.943 . S
H601 C609 0.930 . S
H602 C610 0.930 . S
H603 C611 0.943 . S
H604 C614 0.930 . S
H605 C615 0.930 . S
C606 H600 0.943 . S
C606 C607 1.355 . S
C606 C608 1.415 1_554 S
C607 C606 1.355 . S
C607 C609 1.419 . S
C608 C606 1.415 1_556 S
C608 C613 1.425 1_556 S
C608 C615 1.409 . S
C609 H601 0.930 . S
C609 C607 1.419 . S
C609 C610 1.362 . S
C610 H602 0.930 . S
C610 C609 1.362 . S
C610 C613 1.409 . S
C611 H603 0.943 . S
C611 C612 1.355 . S
C611 C613 1.415 1_556 S
C612 C611 1.355 . S
C612 C614 1.419 . S
C613 C608 1.425 1_554 S
C613 C610 1.409 . S
C613 C611 1.415 1_554 S
C614 H604 0.930 . S
C614 C612 1.419 . S
C614 C615 1.362 . S
C615 H605 0.930 . S
C615 C608 1.409 . S
C615 C614 1.362 . S
H616 C622 0.930 . S
H617 C625 0.930 . S
H618 C626 0.930 . S
H619 C627 0.930 . S
H620 C630 0.930 . S
H621 C631 0.930 . S
C622 H616 0.930 . S
C622 C623 1.355 . S
C622 C624 1.415 . S
C623 C622 1.355 . S
C623 C625 1.419 . S
C624 C622 1.415 . S
C624 C629 1.425 . S
C624 C631 1.409 . S
C625 H617 0.930 . S
C625 C623 1.419 . S
C625 C626 1.362 . S
C626 H618 0.930 . S
C626 C625 1.362 . S
C626 C629 1.409 . S
C627 H619 0.930 . S
C627 C628 1.355 . S
C627 C629 1.415 . S
C628 C627 1.355 . S
C628 C630 1.419 . S
C629 C624 1.425 . S
C629 C626 1.409 . S
C629 C627 1.415 . S
C630 H620 0.930 . S
C630 C628 1.419 . S
C630 C631 1.362 . S
C631 H621 0.930 . S
C631 C624 1.409 . S
C631 C630 1.362 . S
H632 C638 0.941 . S
H633 C641 0.930 . S
H634 C642 0.930 . S
H635 C643 0.941 . S
H636 C646 0.930 . S
H637 C647 0.930 . S
C638 H632 0.941 . S
C638 C639 1.355 . S
C638 C640 1.415 1_556 S
C639 C638 1.355 . S
C639 C641 1.419 . S
C640 C638 1.415 1_554 S
C640 C645 1.425 1_554 S
C640 C647 1.409 . S
C641 H633 0.930 . S
C641 C639 1.419 . S
C641 C642 1.362 . S
C642 H634 0.930 . S
C642 C641 1.362 . S
C642 C645 1.409 . S
C643 H635 0.941 . S
C643 C644 1.355 . S
C643 C645 1.415 1_554 S
C644 C643 1.355 . S
C644 C646 1.419 . S
C645 C640 1.425 1_556 S
C645 C642 1.409 . S
C645 C643 1.415 1_556 S
C646 H636 0.930 . S
C646 C644 1.419 . S
C646 C647 1.362 . S
C647 H637 0.930 . S
C647 C640 1.409 . S
C647 C646 1.362 . S
H648 C654 0.930 . S
H649 C657 0.930 . S
H650 C658 0.930 . S
H651 C659 0.930 . S
H652 C662 0.930 . S
H653 C663 0.930 . S
C654 H648 0.930 . S
C654 C655 1.355 . S
C654 C656 1.415 . S
C655 C654 1.355 . S
C655 C657 1.419 . S
C656 C654 1.415 . S
C656 C661 1.425 . S
C656 C663 1.409 . S
C657 H649 0.930 . S
C657 C655 1.419 . S
C657 C658 1.362 . S
C658 H650 0.930 . S
C658 C657 1.362 . S
C658 C661 1.409 . S
C659 H651 0.930 . S
C659 C660 1.355 . S
C659 C661 1.415 . S
C660 C659 1.355 . S
C660 C662 1.419 . S
C661 C656 1.425 . S
C661 C658 1.409 . S
C661 C659 1.415 . S
C662 H652 0.930 . S
C662 C660 1.419 . S
C662 C663 1.362 . S
C663 H653 0.930 . S
C663 C656 1.409 . S
C663 C662 1.362 . S
H664 C670 0.930 . S
H665 C673 0.930 . S
H666 C674 0.930 . S
H667 C675 0.930 . S
H668 C678 0.930 . S
H669 C679 0.930 . S
C670 H664 0.930 . S
C670 C671 1.355 . S
C670 C672 1.415 . S
C671 C670 1.355 . S
C671 C673 1.419 . S
C672 C670 1.415 . S
C672 C677 1.425 1_556 S
C672 C679 1.409 . S
C673 H665 0.930 . S
C673 C671 1.419 . S
C673 C674 1.362 1_556 S
C674 H666 0.930 . S
C674 C673 1.362 1_554 S
C674 C677 1.409 . S
C675 H667 0.930 . S
C675 C676 1.355 . S
C675 C677 1.415 . S
C676 C675 1.355 . S
C676 C678 1.419 . S
C677 C672 1.425 1_554 S
C677 C674 1.409 . S
C677 C675 1.415 . S
C678 H668 0.930 . S
C678 C676 1.419 . S
C678 C679 1.362 1_554 S
C679 H669 0.930 . S
C679 C672 1.409 . S
C679 C678 1.362 1_556 S
H680 C686 0.930 . S
H681 C689 0.930 . S
H682 C690 0.930 . S
H683 C691 0.930 . S
H684 C694 0.930 . S
H685 C695 0.930 . S
C686 H680 0.930 . S
C686 C687 1.355 . S
C686 C688 1.415 . S
C687 C686 1.355 . S
C687 C689 1.419 . S
C688 C686 1.415 . S
C688 C693 1.425 . S
C688 C695 1.409 . S
C689 H681 0.930 . S
C689 C687 1.419 . S
C689 C690 1.362 . S
C690 H682 0.930 . S
C690 C689 1.362 . S
C690 C693 1.409 . S
C691 H683 0.930 . S
C691 C692 1.355 . S
C691 C693 1.415 . S
C692 C691 1.355 . S
C692 C694 1.419 . S
C693 C688 1.425 . S
C693 C690 1.409 . S
C693 C691 1.415 . S
C694 H684 0.930 . S
C694 C692 1.419 . S
C694 C695 1.362 . S
C695 H685 0.930 . S
C695 C688 1.409 . S
C695 C694 1.362 . S
H696 C702 0.930 . S
H697 C705 0.930 . S
H698 C706 0.930 . S
H699 C707 0.930 . S
H700 C710 0.930 . S
H701 C711 0.930 . S
C702 H696 0.930 . S
C702 C703 1.355 . S
C702 C704 1.415 . S
C703 C702 1.355 . S
C703 C705 1.419 . S
C704 C702 1.415 . S
C704 C709 1.425 . S
C704 C711 1.409 . S
C705 H697 0.930 . S
C705 C703 1.419 . S
C705 C706 1.362 . S
C706 H698 0.930 . S
C706 C705 1.362 . S
C706 C709 1.409 . S
C707 H699 0.930 . S
C707 C708 1.355 . S
C707 C709 1.415 . S
C708 C707 1.355 . S
C708 C710 1.419 . S
C709 C704 1.425 . S
C709 C706 1.409 . S
C709 C707 1.415 . S
C710 H700 0.930 . S
C710 C708 1.419 . S
C710 C711 1.362 . S
C711 H701 0.930 . S
C711 C704 1.409 . S
C711 C710 1.362 . S
H712 C718 0.930 . S
H713 C721 0.930 . S
H714 C722 0.930 . S
H715 C723 0.930 . S
H716 C726 0.930 . S
H717 C727 0.930 . S
C718 H712 0.930 . S
C718 C719 1.355 . S
C718 C720 1.415 . S
C719 C718 1.355 . S
C719 C721 1.419 . S
C720 C718 1.415 . S
C720 C725 1.425 1_455 S
C720 C727 1.409 1_455 S
C721 H713 0.930 . S
C721 C719 1.419 . S
C721 C722 1.362 . S
C722 H714 0.930 . S
C722 C721 1.362 . S
C722 C725 1.409 1_455 S
C723 H715 0.930 . S
C723 C724 1.355 . S
C723 C725 1.415 . S
C724 C723 1.355 . S
C724 C726 1.419 . S
C725 C720 1.425 1_655 S
C725 C722 1.409 1_655 S
C725 C723 1.415 . S
C726 H716 0.930 . S
C726 C724 1.419 . S
C726 C727 1.362 . S
C727 H717 0.930 . S
C727 C720 1.409 1_655 S
C727 C726 1.362 . S
H728 C734 0.930 . S
H729 C737 0.930 . S
H730 C738 0.930 . S
H731 C739 0.930 . S
H732 C742 0.930 . S
H733 C743 0.930 . S
C734 H728 0.930 . S
C734 C735 1.355 . S
C734 C736 1.415 . S
C735 C734 1.355 . S
C735 C737 1.419 . S
C736 C734 1.415 . S
C736 C741 1.425 1_565 S
C736 C743 1.409 1_565 S
C737 H729 0.930 . S
C737 C735 1.419 . S
C737 C738 1.362 . S
C738 H730 0.930 . S
C738 C737 1.362 . S
C738 C741 1.409 1_565 S
C739 H731 0.930 . S
C739 C740 1.355 . S
C739 C741 1.415 . S
C740 C739 1.355 . S
C740 C742 1.419 . S
C741 C736 1.425 1_545 S
C741 C738 1.409 1_545 S
C741 C739 1.415 . S
C742 H732 0.930 . S
C742 C740 1.419 . S
C742 C743 1.362 . S
C743 H733 0.930 . S
C743 C736 1.409 1_545 S
C743 C742 1.362 . S
H744 C750 0.930 . S
H745 C753 0.930 . S
H746 C754 0.930 . S
H747 C755 0.930 . S
H748 C758 0.930 . S
H749 C759 0.930 . S
C750 H744 0.930 . S
C750 C751 1.355 . S
C750 C752 1.415 . S
C751 C750 1.355 . S
C751 C753 1.419 . S
C752 C750 1.415 . S
C752 C757 1.425 . S
C752 C759 1.409 . S
C753 H745 0.930 . S
C753 C751 1.419 . S
C753 C754 1.362 . S
C754 H746 0.930 . S
C754 C753 1.362 . S
C754 C757 1.409 . S
C755 H747 0.930 . S
C755 C756 1.355 . S
C755 C757 1.415 . S
C756 C755 1.355 . S
C756 C758 1.419 . S
C757 C752 1.425 . S
C757 C754 1.409 . S
C757 C755 1.415 . S
C758 H748 0.930 . S
C758 C756 1.419 . S
C758 C759 1.362 . S
C759 H749 0.930 . S
C759 C752 1.409 . S
C759 C758 1.362 . S
H760 C766 0.930 . S
H761 C769 0.930 . S
H762 C770 0.930 . S
H763 C771 0.930 . S
H764 C774 0.930 . S
H765 C775 0.930 . S
C766 H760 0.930 . S
C766 C767 1.355 . S
C766 C768 1.415 . S
C767 C766 1.355 . S
C767 C769 1.419 . S
C768 C766 1.415 . S
C768 C773 1.425 1_655 S
C768 C775 1.409 1_655 S
C769 H761 0.930 . S
C769 C767 1.419 . S
C769 C770 1.362 . S
C770 H762 0.930 . S
C770 C769 1.362 . S
C770 C773 1.409 1_655 S
C771 H763 0.930 . S
C771 C772 1.355 . S
C771 C773 1.415 . S
C772 C771 1.355 . S
C772 C774 1.419 . S
C773 C768 1.425 1_455 S
C773 C770 1.409 1_455 S
C773 C771 1.415 . S
C774 H764 0.930 . S
C774 C772 1.419 . S
C774 C775 1.362 . S
C775 H765 0.930 . S
C775 C768 1.409 1_455 S
C775 C774 1.362 . S
H776 C782 0.930 . S
H777 C785 0.930 . S
H778 C786 0.930 . S
H779 C787 0.930 . S
H780 C790 0.930 . S
H781 C791 0.930 . S
C782 H776 0.930 . S
C782 C783 1.355 . S
C782 C784 1.415 . S
C783 C782 1.355 . S
C783 C785 1.419 . S
C784 C782 1.415 . S
C784 C789 1.425 1_545 S
C784 C791 1.409 1_545 S
C785 H777 0.930 . S
C785 C783 1.419 . S
C785 C786 1.362 . S
C786 H778 0.930 . S
C786 C785 1.362 . S
C786 C789 1.409 1_545 S
C787 H779 0.930 . S
C787 C788 1.355 . S
C787 C789 1.415 . S
C788 C787 1.355 . S
C788 C790 1.419 . S
C789 C784 1.425 1_565 S
C789 C786 1.409 1_565 S
C789 C787 1.415 . S
C790 H780 0.930 . S
C790 C788 1.419 . S
C790 C791 1.362 . S
C791 H781 0.930 . S
C791 C784 1.409 1_565 S
C791 C790 1.362 . S
H792 C798 0.930 . S
H793 C801 0.930 . S
H794 C802 0.930 . S
H795 C803 0.930 . S
H796 C806 0.930 . S
H797 C807 0.930 . S
C798 H792 0.930 . S
C798 C799 1.355 . S
C798 C800 1.415 . S
C799 C798 1.355 . S
C799 C801 1.419 . S
C800 C798 1.415 . S
C800 C805 1.425 . S
C800 C807 1.409 . S
C801 H793 0.930 . S
C801 C799 1.419 . S
C801 C802 1.362 . S
C802 H794 0.930 . S
C802 C801 1.362 . S
C802 C805 1.409 . S
C803 H795 0.930 . S
C803 C804 1.355 . S
C803 C805 1.415 . S
C804 C803 1.355 . S
C804 C806 1.419 . S
C805 C800 1.425 . S
C805 C802 1.409 . S
C805 C803 1.415 . S
C806 H796 0.930 . S
C806 C804 1.419 . S
C806 C807 1.362 . S
C807 H797 0.930 . S
C807 C800 1.409 . S
C807 C806 1.362 . S
H808 C814 0.930 . S
H809 C817 0.930 . S
H810 C818 0.930 . S
H811 C819 0.930 . S
H812 C822 0.930 . S
H813 C823 0.930 . S
C814 H808 0.930 . S
C814 C815 1.355 . S
C814 C816 1.415 . S
C815 C814 1.355 . S
C815 C817 1.419 . S
C816 C814 1.415 . S
C816 C821 1.425 1_655 S
C816 C823 1.409 1_655 S
C817 H809 0.930 . S
C817 C815 1.419 . S
C817 C818 1.362 . S
C818 H810 0.930 . S
C818 C817 1.362 . S
C818 C821 1.409 1_655 S
C819 H811 0.930 . S
C819 C820 1.355 . S
C819 C821 1.415 . S
C820 C819 1.355 . S
C820 C822 1.419 . S
C821 C816 1.425 1_455 S
C821 C818 1.409 1_455 S
C821 C819 1.415 . S
C822 H812 0.930 . S
C822 C820 1.419 . S
C822 C823 1.362 . S
C823 H813 0.930 . S
C823 C816 1.409 1_455 S
C823 C822 1.362 . S
H824 C830 0.930 . S
H825 C833 0.930 . S
H826 C834 0.930 . S
H827 C835 0.930 . S
H828 C838 0.930 . S
H829 C839 0.930 . S
C830 H824 0.930 . S
C830 C831 1.355 . S
C830 C832 1.415 . S
C831 C830 1.355 . S
C831 C833 1.419 . S
C832 C830 1.415 . S
C832 C837 1.425 1_545 S
C832 C839 1.409 1_545 S
C833 H825 0.930 . S
C833 C831 1.419 . S
C833 C834 1.362 . S
C834 H826 0.930 . S
C834 C833 1.362 . S
C834 C837 1.409 1_545 S
C835 H827 0.930 . S
C835 C836 1.355 . S
C835 C837 1.415 . S
C836 C835 1.355 . S
C836 C838 1.419 . S
C837 C832 1.425 1_565 S
C837 C834 1.409 1_565 S
C837 C835 1.415 . S
C838 H828 0.930 . S
C838 C836 1.419 . S
C838 C839 1.362 . S
C839 H829 0.930 . S
C839 C832 1.409 1_565 S
C839 C838 1.362 . S
H840 C846 0.930 . S
H841 C849 0.930 . S
H842 C850 0.930 . S
H843 C851 0.930 . S
H844 C854 0.930 . S
H845 C855 0.930 . S
C846 H840 0.930 . S
C846 C847 1.355 . S
C846 C848 1.415 . S
C847 C846 1.355 . S
C847 C849 1.419 . S
C848 C846 1.415 . S
C848 C853 1.425 . S
C848 C855 1.409 . S
C849 H841 0.930 . S
C849 C847 1.419 . S
C849 C850 1.362 . S
C850 H842 0.930 . S
C850 C849 1.362 . S
C850 C853 1.409 . S
C851 H843 0.930 . S
C851 C852 1.355 . S
C851 C853 1.415 . S
C852 C851 1.355 . S
C852 C854 1.419 . S
C853 C848 1.425 . S
C853 C850 1.409 . S
C853 C851 1.415 . S
C854 H844 0.930 . S
C854 C852 1.419 . S
C854 C855 1.362 . S
C855 H845 0.930 . S
C855 C848 1.409 . S
C855 C854 1.362 . S
H856 C862 0.930 . S
H857 C865 0.930 . S
H858 C866 0.930 . S
H859 C867 0.930 . S
H860 C870 0.930 . S
H861 C871 0.930 . S
C862 H856 0.930 . S
C862 C863 1.355 . S
C862 C864 1.415 . S
C863 C862 1.355 . S
C863 C865 1.419 . S
C864 C862 1.415 . S
C864 C869 1.425 1_455 S
C864 C871 1.409 1_455 S
C865 H857 0.930 . S
C865 C863 1.419 . S
C865 C866 1.362 . S
C866 H858 0.930 . S
C866 C865 1.362 . S
C866 C869 1.409 1_455 S
C867 H859 0.930 . S
C867 C868 1.355 . S
C867 C869 1.415 . S
C868 C867 1.355 . S
C868 C870 1.419 . S
C869 C864 1.425 1_655 S
C869 C866 1.409 1_655 S
C869 C867 1.415 . S
C870 H860 0.930 . S
C870 C868 1.419 . S
C870 C871 1.362 . S
C871 H861 0.930 . S
C871 C864 1.409 1_655 S
C871 C870 1.362 . S
H872 C878 0.930 . S
H873 C881 0.930 . S
H874 C882 0.930 . S
H875 C883 0.930 . S
H876 C886 0.930 . S
H877 C887 0.930 . S
C878 H872 0.930 . S
C878 C879 1.355 . S
C878 C880 1.415 . S
C879 C878 1.355 . S
C879 C881 1.419 . S
C880 C878 1.415 . S
C880 C885 1.425 1_565 S
C880 C887 1.409 1_565 S
C881 H873 0.930 . S
C881 C879 1.419 . S
C881 C882 1.362 . S
C882 H874 0.930 . S
C882 C881 1.362 . S
C882 C885 1.409 1_565 S
C883 H875 0.930 . S
C883 C884 1.355 . S
C883 C885 1.415 . S
C884 C883 1.355 . S
C884 C886 1.419 . S
C885 C880 1.425 1_545 S
C885 C882 1.409 1_545 S
C885 C883 1.415 . S
C886 H876 0.930 . S
C886 C884 1.419 . S
C886 C887 1.362 . S
C887 H877 0.930 . S
C887 C880 1.409 1_545 S
C887 C886 1.362 . S
H888 C894 0.930 . S
H889 C897 0.930 . S
H890 C898 0.930 . S
H891 C899 0.930 . S
H892 C902 0.930 . S
H893 C903 0.930 . S
C894 H888 0.930 . S
C894 C895 1.355 . S
C894 C896 1.415 . S
C895 C894 1.355 . S
C895 C897 1.419 . S
C896 C894 1.415 . S
C896 C901 1.425 1_556 S
C896 C903 1.409 1_556 S
C897 H889 0.930 . S
C897 C895 1.419 . S
C897 C898 1.362 . S
C898 H890 0.930 . S
C898 C897 1.362 . S
C898 C901 1.409 1_556 S
C899 H891 0.930 . S
C899 C900 1.355 . S
C899 C901 1.415 . S
C900 C899 1.355 . S
C900 C902 1.419 . S
C901 C896 1.425 1_554 S
C901 C898 1.409 1_554 S
C901 C899 1.415 . S
C902 H892 0.930 . S
C902 C900 1.419 . S
C902 C903 1.362 . S
C903 H893 0.930 . S
C903 C896 1.409 1_554 S
C903 C902 1.362 . S
H904 C910 0.930 . S
H905 C913 0.930 . S
H906 C914 0.930 . S
H907 C915 0.930 . S
H908 C918 0.930 . S
H909 C919 0.930 . S
C910 H904 0.930 . S
C910 C911 1.355 . S
C910 C912 1.415 . S
C911 C910 1.355 . S
C911 C913 1.419 . S
C912 C910 1.415 . S
C912 C917 1.425 . S
C912 C919 1.409 . S
C913 H905 0.930 . S
C913 C911 1.419 . S
C913 C914 1.362 . S
C914 H906 0.930 . S
C914 C913 1.362 . S
C914 C917 1.409 . S
C915 H907 0.930 . S
C915 C916 1.355 . S
C915 C917 1.415 . S
C916 C915 1.355 . S
C916 C918 1.419 . S
C917 C912 1.425 . S
C917 C914 1.409 . S
C917 C915 1.415 . S
C918 H908 0.930 . S
C918 C916 1.419 . S
C918 C919 1.362 . S
C919 H909 0.930 . S
C919 C912 1.409 . S
C919 C918 1.362 . S
H920 C926 0.930 . S
H921 C929 0.930 . S
H922 C930 0.930 . S
H923 C931 0.930 . S
H924 C934 0.930 . S
H925 C935 0.930 . S
C926 H920 0.930 . S
C926 C927 1.355 . S
C926 C928 1.415 . S
C927 C926 1.355 . S
C927 C929 1.419 1_556 S
C928 C926 1.415 . S
C928 C933 1.425 1_556 S
C928 C935 1.409 . S
C929 H921 0.930 . S
C929 C927 1.419 1_554 S
C929 C930 1.362 . S
C930 H922 0.930 . S
C930 C929 1.362 . S
C930 C933 1.409 . S
C931 H923 0.930 . S
C931 C932 1.355 . S
C931 C933 1.415 . S
C932 C931 1.355 . S
C932 C934 1.419 1_554 S
C933 C928 1.425 1_554 S
C933 C930 1.409 . S
C933 C931 1.415 . S
C934 H924 0.930 . S
C934 C932 1.419 1_556 S
C934 C935 1.362 . S
C935 H925 0.930 . S
C935 C928 1.409 . S
C935 C934 1.362 . S
H936 C942 0.930 . S
H937 C945 0.930 . S
H938 C946 0.930 . S
H939 C947 0.930 . S
H940 C950 0.930 . S
H941 C951 0.930 . S
C942 H936 0.930 . S
C942 C943 1.355 . S
C942 C944 1.415 . S
C943 C942 1.355 . S
C943 C945 1.419 . S
C944 C942 1.415 . S
C944 C949 1.425 . S
C944 C951 1.409 . S
C945 H937 0.930 . S
C945 C943 1.419 . S
C945 C946 1.362 . S
C946 H938 0.930 . S
C946 C945 1.362 . S
C946 C949 1.409 . S
C947 H939 0.930 . S
C947 C948 1.355 . S
C947 C949 1.415 . S
C948 C947 1.355 . S
C948 C950 1.419 . S
C949 C944 1.425 . S
C949 C946 1.409 . S
C949 C947 1.415 . S
C950 H940 0.930 . S
C950 C948 1.419 . S
C950 C951 1.362 . S
C951 H941 0.930 . S
C951 C944 1.409 . S
C951 C950 1.362 . S
H952 C958 0.930 . S
H953 C961 0.930 . S
H954 C962 0.930 . S
H955 C963 0.930 . S
H956 C966 0.930 . S
H957 C967 0.930 . S
C958 H952 0.930 . S
C958 C959 1.355 . S
C958 C960 1.415 . S
C959 C958 1.355 . S
C959 C961 1.419 . S
C960 C958 1.415 . S
C960 C965 1.425 1_556 S
C960 C967 1.409 . S
C961 H953 0.930 . S
C961 C959 1.419 . S
C961 C962 1.362 1_556 S
C962 H954 0.930 . S
C962 C961 1.362 1_554 S
C962 C965 1.409 . S
C963 H955 0.930 . S
C963 C964 1.355 . S
C963 C965 1.415 . S
C964 C963 1.355 . S
C964 C966 1.419 . S
C965 C960 1.425 1_554 S
C965 C962 1.409 . S
C965 C963 1.415 . S
C966 H956 0.930 . S
C966 C964 1.419 . S
C966 C967 1.362 1_554 S
C967 H957 0.930 . S
C967 C960 1.409 . S
C967 C966 1.362 1_556 S
H968 C974 0.930 . S
H969 C977 0.930 . S
H970 C978 0.930 . S
H971 C979 0.930 . S
H972 C982 0.930 . S
H973 C983 0.930 . S
C974 H968 0.930 . S
C974 C975 1.355 . S
C974 C976 1.415 . S
C975 C974 1.355 . S
C975 C977 1.419 . S
C976 C974 1.415 . S
C976 C981 1.425 . S
C976 C983 1.409 . S
C977 H969 0.930 . S
C977 C975 1.419 . S
C977 C978 1.362 . S
C978 H970 0.930 . S
C978 C977 1.362 . S
C978 C981 1.409 . S
C979 H971 0.930 . S
C979 C980 1.355 . S
C979 C981 1.415 . S
C980 C979 1.355 . S
C980 C982 1.419 . S
C981 C976 1.425 . S
C981 C978 1.409 . S
C981 C979 1.415 . S
C982 H972 0.930 . S
C982 C980 1.419 . S
C982 C983 1.362 . S
C983 H973 0.930 . S
C983 C976 1.409 . S
C983 C982 1.362 . S
H984 C990 0.930 1_556 S
H985 C993 0.930 . S
H986 C994 0.930 . S
H987 C995 0.930 1_554 S
H988 C998 0.930 . S
H989 C999 0.930 . S
C990 H984 0.930 1_554 S
C990 C991 1.355 . S
C990 C992 1.415 1_554 S
C991 C990 1.355 . S
C991 C993 1.419 . S
C992 C990 1.415 1_556 S
C992 C997 1.425 1_556 S
C992 C999 1.409 . S
C993 H985 0.930 . S
C993 C991 1.419 . S
C993 C994 1.362 . S
C994 H986 0.930 . S
C994 C993 1.362 . S
C994 C997 1.409 . S
C995 H987 0.930 1_556 S
C995 C996 1.355 . S
C995 C997 1.415 1_556 S
C996 C995 1.355 . S
C996 C998 1.419 . S
C997 C992 1.425 1_554 S
C997 C994 1.409 . S
C997 C995 1.415 1_554 S
C998 H988 0.930 . S
C998 C996 1.419 . S
C998 C999 1.362 . S
C999 H989 0.930 . S
C999 C992 1.409 . S
C999 C998 1.362 . S
H1000 C1006 0.930 . S
H1001 C1009 0.930 . S
H1002 C1010 0.930 . S
H1003 C1011 0.930 . S
H1004 C1014 0.930 . S
H1005 C1015 0.930 . S
C1006 H1000 0.930 . S
C1006 C1007 1.355 . S
C1006 C1008 1.415 . S
C1007 C1006 1.355 . S
C1007 C1009 1.419 . S
C1008 C1006 1.415 . S
C1008 C1013 1.425 . S
C1008 C1015 1.409 . S
C1009 H1001 0.930 . S
C1009 C1007 1.419 . S
C1009 C1010 1.362 . S
C1010 H1002 0.930 . S
C1010 C1009 1.362 . S
C1010 C1013 1.409 . S
C1011 H1003 0.930 . S
C1011 C1012 1.355 . S
C1011 C1013 1.415 . S
C1012 C1011 1.355 . S
C1012 C1014 1.419 . S
C1013 C1008 1.425 . S
C1013 C1010 1.409 . S
C1013 C1011 1.415 . S
C1014 H1004 0.930 . S
C1014 C1012 1.419 . S
C1014 C1015 1.362 . S
C1015 H1005 0.930 . S
C1015 C1008 1.409 . S
C1015 C1014 1.362 . S
H1016 C1022 0.930 1_556 S
H1017 C1025 0.930 . S
H1018 C1026 0.930 . S
H1019 C1027 0.930 1_554 S
H1020 C1030 0.930 . S
H1021 C1031 0.930 . S
C1022 H1016 0.930 1_554 S
C1022 C1023 1.355 . S
C1022 C1024 1.415 1_554 S
C1023 C1022 1.355 . S
C1023 C1025 1.419 . S
C1024 C1022 1.415 1_556 S
C1024 C1029 1.425 1_556 S
C1024 C1031 1.409 . S
C1025 H1017 0.930 . S
C1025 C1023 1.419 . S
C1025 C1026 1.362 . S
C1026 H1018 0.930 . S
C1026 C1025 1.362 . S
C1026 C1029 1.409 . S
C1027 H1019 0.930 1_556 S
C1027 C1028 1.355 . S
C1027 C1029 1.415 1_556 S
C1028 C1027 1.355 . S
C1028 C1030 1.419 . S
C1029 C1024 1.425 1_554 S
C1029 C1026 1.409 . S
C1029 C1027 1.415 1_554 S
C1030 H1020 0.930 . S
C1030 C1028 1.419 . S
C1030 C1031 1.362 . S
C1031 H1021 0.930 . S
C1031 C1024 1.409 . S
C1031 C1030 1.362 . S
H1032 C1038 0.930 . S
H1033 C1041 0.930 . S
H1034 C1042 0.930 . S
H1035 C1043 0.930 . S
H1036 C1046 0.930 . S
H1037 C1047 0.930 . S
C1038 H1032 0.930 . S
C1038 C1039 1.355 . S
C1038 C1040 1.415 . S
C1039 C1038 1.355 . S
C1039 C1041 1.419 . S
C1040 C1038 1.415 . S
C1040 C1045 1.425 . S
C1040 C1047 1.409 . S
C1041 H1033 0.930 . S
C1041 C1039 1.419 . S
C1041 C1042 1.362 . S
C1042 H1034 0.930 . S
C1042 C1041 1.362 . S
C1042 C1045 1.409 . S
C1043 H1035 0.930 . S
C1043 C1044 1.355 . S
C1043 C1045 1.415 . S
C1044 C1043 1.355 . S
C1044 C1046 1.419 . S
C1045 C1040 1.425 . S
C1045 C1042 1.409 . S
C1045 C1043 1.415 . S
C1046 H1036 0.930 . S
C1046 C1044 1.419 . S
C1046 C1047 1.362 . S
C1047 H1037 0.930 . S
C1047 C1040 1.409 . S
C1047 C1046 1.362 . S
H1048 C1054 0.930 . S
H1049 C1057 0.930 . S
H1050 C1058 0.930 . S
H1051 C1059 0.930 . S
H1052 C1062 0.930 . S
H1053 C1063 0.930 . S
C1054 H1048 0.930 . S
C1054 C1055 1.355 . S
C1054 C1056 1.415 . S
C1055 C1054 1.355 . S
C1055 C1057 1.419 . S
C1056 C1054 1.415 . S
C1056 C1061 1.425 1_556 S
C1056 C1063 1.409 . S
C1057 H1049 0.930 . S
C1057 C1055 1.419 . S
C1057 C1058 1.362 1_556 S
C1058 H1050 0.930 . S
C1058 C1057 1.362 1_554 S
C1058 C1061 1.409 . S
C1059 H1051 0.930 . S
C1059 C1060 1.355 . S
C1059 C1061 1.415 . S
C1060 C1059 1.355 . S
C1060 C1062 1.419 . S
C1061 C1056 1.425 1_554 S
C1061 C1058 1.409 . S
C1061 C1059 1.415 . S
C1062 H1052 0.930 . S
C1062 C1060 1.419 . S
C1062 C1063 1.362 1_554 S
C1063 H1053 0.930 . S
C1063 C1056 1.409 . S
C1063 C1062 1.362 1_556 S
H1064 C1070 0.930 . S
H1065 C1073 0.930 . S
H1066 C1074 0.930 . S
H1067 C1075 0.930 . S
H1068 C1078 0.930 . S
H1069 C1079 0.930 . S
C1070 H1064 0.930 . S
C1070 C1071 1.355 . S
C1070 C1072 1.415 . S
C1071 C1070 1.355 . S
C1071 C1073 1.419 . S
C1072 C1070 1.415 . S
C1072 C1077 1.425 . S
C1072 C1079 1.409 . S
C1073 H1065 0.930 . S
C1073 C1071 1.419 . S
C1073 C1074 1.362 . S
C1074 H1066 0.930 . S
C1074 C1073 1.362 . S
C1074 C1077 1.409 . S
C1075 H1067 0.930 . S
C1075 C1076 1.355 . S
C1075 C1077 1.415 . S
C1076 C1075 1.355 . S
C1076 C1078 1.419 . S
C1077 C1072 1.425 . S
C1077 C1074 1.409 . S
C1077 C1075 1.415 . S
C1078 H1068 0.930 . S
C1078 C1076 1.419 . S
C1078 C1079 1.362 . S
C1079 H1069 0.930 . S
C1079 C1072 1.409 . S
C1079 C1078 1.362 . S
C319 C5 1.476 . S
C324 C200 1.460 . S
C335 C18 1.470 . S
C340 C213 1.465 . S
C351 C224 1.461 . S
C356 C31 1.475 . S
C367 C161 1.478 . S
C372 C44 1.457 . S
C383 C174 1.468 . S
C388 C57 1.467 . S
C399 C187 1.464 . S
C404 C68 1.472 . S
C415 C276 1.457 . S
C420 C83 1.478 . S
C431 C94 1.457 . S
C436 C289 1.479 . S
C447 C302 1.468 . S
C452 C107 1.467 . S
C463 C122 1.474 . S
C468 C237 1.461 . S
C479 C250 1.457 . S
C484 C133 1.478 . S
C495 C148 1.461 . S
C500 C265 1.474 . S
C511 C134 1.495 . S
C516 C10 1.489 . S
C527 C153 1.527 . S
C532 C23 1.524 . S
C543 C36 1.487 . S
C548 C88 1.487 . S
C559 C49 1.493 . S
C564 C95 1.488 . S
C575 C108 1.488 . S
C580 C62 1.486 . S
C591 C69 1.506 . S
C596 C127 1.515 . S
C607 C290 1.526 . S
C612 C166 1.520 . S
C623 C179 1.498 . S
C628 C303 1.491 . S
C639 C192 1.527 . S
C644 C238 1.526 . S
C655 C251 1.519 . S
C660 C205 1.511 . S
C671 C218 1.488 . S
C676 C270 1.487 . S
C687 C225 1.493 . S
C692 C277 1.488 . S
C703 C3 1.552 . S
C708 C239 1.549 . S
C719 C252 1.539 . S
C724 C16 1.563 . S
C735 C29 1.562 . S
C740 C263 1.539 . S
C751 C42 1.543 . S
C756 C278 1.558 . S
C767 C291 1.548 . S
C772 C55 1.553 . S
C783 C70 1.558 . S
C788 C304 1.544 . S
C799 C81 1.554 . S
C804 C159 1.548 . S
C815 C96 1.543 . S
C820 C172 1.559 . S
C831 C185 1.539 . S
C836 C109 1.562 . S
C847 C198 1.546 . S
C852 C120 1.555 . S
C863 C135 1.545 . S
C868 C211 1.557 . S
C879 C226 1.559 . S
C884 C146 1.543 . S
C895 C82 1.507 . S
C900 C4 1.495 . S
C911 C17 1.509 . S
C916 C101 1.512 . S
C927 C114 1.512 . S
C932 C30 1.509 . S
C943 C121 1.493 . S
C948 C43 1.501 . S
C959 C140 1.505 . S
C964 C56 1.513 . S
C975 C75 1.494 . S
C980 C147 1.496 . S
C991 C244 1.495 . S
C996 C160 1.496 . S
C1007 C173 1.502 . S
C1012 C257 1.513 . S
C1023 C264 1.493 . S
C1028 C186 1.499 . S
C1039 C283 1.493 . S
C1044 C199 1.502 . S
C1055 C212 1.513 . S
C1060 C296 1.507 . S
C1071 C231 1.513 . S
C1076 C309 1.508 . S
