# Generated by pormake.
# Topology wig, (6)-cn, num edge types: 1
# Building blocks:
#     Node 0, Type 0, BuildingBlock: OJICUG_clean_sbu_0, # of connection points: 6
#     Node 1, Type 0, BuildingBlock: OJICUG_clean_sbu_0, # of connection points: 6
#     Node 2, Type 0, BuildingBlock: OJICUG_clean_sbu_0, # of connection points: 6
#     Node 3, Type 0, BuildingBlock: OJICUG_clean_sbu_0, # of connection points: 6
#     Node 4, Type 0, BuildingBlock: OJICUG_clean_sbu_0, # of connection points: 6
#     Node 5, Type 0, BuildingBlock: OJICUG_clean_sbu_0, # of connection points: 6
#     Node 6, Type 0, BuildingBlock: OJICUG_clean_sbu_0, # of connection points: 6
#     Node 7, Type 0, BuildingBlock: OJICUG_clean_sbu_0, # of connection points: 6
#     Node 8, Type 0, BuildingBlock: OJICUG_clean_sbu_0, # of connection points: 6
#     Node 9, Type 0, BuildingBlock: OJICUG_clean_sbu_0, # of connection points: 6
#     Node 10, Type 0, BuildingBlock: OJICUG_clean_sbu_0, # of connection points: 6
#     Node 11, Type 0, BuildingBlock: OJICUG_clean_sbu_0, # of connection points: 6
#     Node 12, Type 0, BuildingBlock: OJICUG_clean_sbu_0, # of connection points: 6
#     Node 13, Type 0, BuildingBlock: OJICUG_clean_sbu_0, # of connection points: 6
#     Node 14, Type 0, BuildingBlock: OJICUG_clean_sbu_0, # of connection points: 6
#     Node 15, Type 0, BuildingBlock: OJICUG_clean_sbu_0, # of connection points: 6
#     Edge 16, Type (0, 0), BuildingBlock: CIFDUS_clean_linker_0, # of connection points: 2
#     Edge 17, Type (0, 0), BuildingBlock: CIFDUS_clean_linker_0, # of connection points: 2
#     Edge 18, Type (0, 0), BuildingBlock: CIFDUS_clean_linker_0, # of connection points: 2
#     Edge 19, Type (0, 0), BuildingBlock: CIFDUS_clean_linker_0, # of connection points: 2
#     Edge 20, Type (0, 0), BuildingBlock: CIFDUS_clean_linker_0, # of connection points: 2
#     Edge 21, Type (0, 0), BuildingBlock: CIFDUS_clean_linker_0, # of connection points: 2
#     Edge 22, Type (0, 0), BuildingBlock: CIFDUS_clean_linker_0, # of connection points: 2
#     Edge 23, Type (0, 0), BuildingBlock: CIFDUS_clean_linker_0, # of connection points: 2
#     Edge 24, Type (0, 0), BuildingBlock: CIFDUS_clean_linker_0, # of connection points: 2
#     Edge 25, Type (0, 0), BuildingBlock: CIFDUS_clean_linker_0, # of connection points: 2
#     Edge 26, Type (0, 0), BuildingBlock: CIFDUS_clean_linker_0, # of connection points: 2
#     Edge 27, Type (0, 0), BuildingBlock: CIFDUS_clean_linker_0, # of connection points: 2
#     Edge 28, Type (0, 0), BuildingBlock: CIFDUS_clean_linker_0, # of connection points: 2
#     Edge 29, Type (0, 0), BuildingBlock: CIFDUS_clean_linker_0, # of connection points: 2
#     Edge 30, Type (0, 0), BuildingBlock: CIFDUS_clean_linker_0, # of connection points: 2
#     Edge 31, Type (0, 0), BuildingBlock: CIFDUS_clean_linker_0, # of connection points: 2
#     Edge 32, Type (0, 0), BuildingBlock: CIFDUS_clean_linker_0, # of connection points: 2
#     Edge 33, Type (0, 0), BuildingBlock: CIFDUS_clean_linker_0, # of connection points: 2
#     Edge 34, Type (0, 0), BuildingBlock: CIFDUS_clean_linker_0, # of connection points: 2
#     Edge 35, Type (0, 0), BuildingBlock: CIFDUS_clean_linker_0, # of connection points: 2
#     Edge 36, Type (0, 0), BuildingBlock: CIFDUS_clean_linker_0, # of connection points: 2
#     Edge 37, Type (0, 0), BuildingBlock: CIFDUS_clean_linker_0, # of connection points: 2
#     Edge 38, Type (0, 0), BuildingBlock: CIFDUS_clean_linker_0, # of connection points: 2
#     Edge 39, Type (0, 0), BuildingBlock: CIFDUS_clean_linker_0, # of connection points: 2
#     Edge 40, Type (0, 0), BuildingBlock: CIFDUS_clean_linker_0, # of connection points: 2
#     Edge 41, Type (0, 0), BuildingBlock: CIFDUS_clean_linker_0, # of connection points: 2
#     Edge 42, Type (0, 0), BuildingBlock: CIFDUS_clean_linker_0, # of connection points: 2
#     Edge 43, Type (0, 0), BuildingBlock: CIFDUS_clean_linker_0, # of connection points: 2
#     Edge 44, Type (0, 0), BuildingBlock: CIFDUS_clean_linker_0, # of connection points: 2
#     Edge 45, Type (0, 0), BuildingBlock: CIFDUS_clean_linker_0, # of connection points: 2
#     Edge 46, Type (0, 0), BuildingBlock: CIFDUS_clean_linker_0, # of connection points: 2
#     Edge 47, Type (0, 0), BuildingBlock: CIFDUS_clean_linker_0, # of connection points: 2
#     Edge 48, Type (0, 0), BuildingBlock: CIFDUS_clean_linker_0, # of connection points: 2
#     Edge 49, Type (0, 0), BuildingBlock: CIFDUS_clean_linker_0, # of connection points: 2
#     Edge 50, Type (0, 0), BuildingBlock: CIFDUS_clean_linker_0, # of connection points: 2
#     Edge 51, Type (0, 0), BuildingBlock: CIFDUS_clean_linker_0, # of connection points: 2
#     Edge 52, Type (0, 0), BuildingBlock: CIFDUS_clean_linker_0, # of connection points: 2
#     Edge 53, Type (0, 0), BuildingBlock: CIFDUS_clean_linker_0, # of connection points: 2
#     Edge 54, Type (0, 0), BuildingBlock: CIFDUS_clean_linker_0, # of connection points: 2
#     Edge 55, Type (0, 0), BuildingBlock: CIFDUS_clean_linker_0, # of connection points: 2
#     Edge 56, Type (0, 0), BuildingBlock: CIFDUS_clean_linker_0, # of connection points: 2
#     Edge 57, Type (0, 0), BuildingBlock: CIFDUS_clean_linker_0, # of connection points: 2
#     Edge 58, Type (0, 0), BuildingBlock: CIFDUS_clean_linker_0, # of connection points: 2
#     Edge 59, Type (0, 0), BuildingBlock: CIFDUS_clean_linker_0, # of connection points: 2
#     Edge 60, Type (0, 0), BuildingBlock: CIFDUS_clean_linker_0, # of connection points: 2
#     Edge 61, Type (0, 0), BuildingBlock: CIFDUS_clean_linker_0, # of connection points: 2
#     Edge 62, Type (0, 0), BuildingBlock: CIFDUS_clean_linker_0, # of connection points: 2
#     Edge 63, Type (0, 0), BuildingBlock: CIFDUS_clean_linker_0, # of connection points: 2
# Relax obj value: 0.258
# Max RMSD: 0.298
# Mean RMSD: 0.298
data_MOF--net-wig--node1-OJICUG_clean_sbu_0--edge1-CIFDUS_clean_linker_0
_symmetry_space_group_name_H-M    P1
_symmetry_Int_Tables_number       1
_symmetry_cell_setting            triclinic
loop_
_symmetry_equiv_pos_as_xyz
'x, y, z'
_cell_length_a     25.729899
_cell_length_b     25.685638
_cell_length_c     77.242784
_cell_angle_alpha  90.14646
_cell_angle_beta   90.093904
_cell_angle_gamma 90.09363
loop_
_atom_site_label
_atom_site_type_symbol
_atom_site_fract_x
_atom_site_fract_y
_atom_site_fract_z
_atom_type_partial_charge
Sc0 Sc 0.13054 0.22243 0.28657 0.0
Sc1 Sc 0.19166 0.18012 0.2494 0.0
Sc2 Sc 0.23271 0.1337 0.28974 0.0
O3 O 0.18506 0.17772 0.27536 0.0
C4 C 0.21373 0.22414 0.31688 0.0
C5 C 0.1734 0.29779 0.25966 0.0
C6 C 0.30691 0.1963 0.26363 0.0
C7 C 0.07515 0.18603 0.2513 0.0
C8 C 0.11507 0.11036 0.30281 0.0
C9 C 0.22879 0.06422 0.25568 0.0
O10 O 0.17065 0.23779 0.31047 0.0
O11 O 0.17134 0.26143 0.2485 0.0
O12 O 0.30102 0.17004 0.27762 0.0
O13 O 0.07948 0.21576 0.26442 0.0
O14 O 0.16341 0.09767 0.30171 0.0
O15 O 0.21352 0.10035 0.24582 0.0
O16 O 0.09713 0.15388 0.29753 0.0
O17 O 0.11233 0.15876 0.24562 0.0
O18 O 0.23451 0.07043 0.27182 0.0
O19 O 0.16615 0.2903 0.27572 0.0
O20 O 0.24175 0.18927 0.31015 0.0
O21 O 0.27089 0.20232 0.25248 0.0
Sc22 Sc 0.22219 0.84384 0.70343 0.0
Sc23 Sc 0.17767 0.79323 0.74287 0.0
Sc24 Sc 0.10887 0.76873 0.70439 0.0
O25 O 0.16912 0.80223 0.71692 0.0
C26 C 0.11292 0.88697 0.69073 0.0
C27 C 0.22313 0.90521 0.73968 0.0
C28 C 0.05606 0.80066 0.74043 0.0
C29 C 0.29047 0.7722 0.72707 0.0
C30 C 0.19174 0.76123 0.67448 0.0
C31 C 0.14585 0.67957 0.72969 0.0
O32 O 0.16066 0.89497 0.69463 0.0
O33 O 0.19356 0.87432 0.74785 0.0
O34 O 0.05498 0.78735 0.72461 0.0
O35 O 0.28337 0.79244 0.71218 0.0
O36 O 0.15311 0.74323 0.68257 0.0
O37 O 0.16392 0.71113 0.74087 0.0
O38 O 0.21775 0.79978 0.67987 0.0
O39 O 0.25821 0.7764 0.73945 0.0
O40 O 0.12528 0.6935 0.71546 0.0
O41 O 0.23803 0.89624 0.72434 0.0
O42 O 0.09048 0.84282 0.69254 0.0
O43 O 0.09766 0.80622 0.74903 0.0
Sc44 Sc 0.80054 0.86115 0.29194 0.0
Sc45 Sc 0.84028 0.79823 0.25498 0.0
Sc46 Sc 0.88801 0.75922 0.29557 0.0
O47 O 0.84438 0.80615 0.28087 0.0
C48 C 0.91371 0.8777 0.30672 0.0
C49 C 0.82965 0.91586 0.2564 0.0
C50 C 0.95773 0.76974 0.26181 0.0
C51 C 0.72685 0.80429 0.26711 0.0
C52 C 0.80361 0.78169 0.32333 0.0
C53 C 0.83003 0.68177 0.26923 0.0
O54 O 0.87186 0.89777 0.3006 0.0
O55 O 0.85792 0.87926 0.25064 0.0
O56 O 0.9514 0.76307 0.2779 0.0
O57 O 0.73286 0.81785 0.2829 0.0
O58 O 0.8315 0.74804 0.31585 0.0
O59 O 0.82083 0.71713 0.25805 0.0
O60 O 0.79384 0.82541 0.31668 0.0
O61 O 0.75943 0.81762 0.25564 0.0
O62 O 0.85603 0.69005 0.28311 0.0
O63 O 0.79981 0.91016 0.26932 0.0
O64 O 0.92151 0.8284 0.30776 0.0
O65 O 0.92085 0.77985 0.25147 0.0
Sc66 Sc 0.86306 0.20725 0.69466 0.0
Sc67 Sc 0.79276 0.17564 0.73224 0.0
Sc68 Sc 0.76457 0.11217 0.69298 0.0
O69 O 0.80709 0.16481 0.70661 0.0
C70 C 0.78357 0.19523 0.66323 0.0
C71 C 0.806 0.29153 0.71761 0.0
C72 C 0.68012 0.17237 0.71488 0.0
C73 C 0.91359 0.18946 0.73231 0.0
C74 C 0.88265 0.08932 0.68255 0.0
C75 C 0.77385 0.05535 0.72971 0.0
O76 O 0.82054 0.21854 0.67087 0.0
O77 O 0.79402 0.2579 0.72895 0.0
O78 O 0.69227 0.14861 0.70095 0.0
O79 O 0.91471 0.20313 0.71653 0.0
O80 O 0.83543 0.075 0.68452 0.0
O81 O 0.78843 0.09447 0.73845 0.0
O82 O 0.89831 0.13593 0.68524 0.0
O83 O 0.87253 0.1752 0.73996 0.0
O84 O 0.76229 0.05742 0.71378 0.0
O85 O 0.83045 0.28022 0.70376 0.0
O86 O 0.76046 0.15641 0.66967 0.0
O87 O 0.71165 0.17962 0.72731 0.0
Sc88 Sc 0.22479 0.38226 0.94617 0.0
Sc89 Sc 0.18911 0.31603 0.98409 0.0
Sc90 Sc 0.13188 0.28274 0.94433 0.0
O91 O 0.18176 0.32739 0.95826 0.0
C92 C 0.10834 0.39799 0.9321 0.0
C93 C 0.19856 0.43909 0.98195 0.0
C94 C 0.07161 0.28802 0.98082 0.0
C95 C 0.3067 0.33074 0.97161 0.0
C96 C 0.22107 0.29883 0.91625 0.0
C97 C 0.18981 0.20118 0.96738 0.0
O98 O 0.15593 0.41172 0.93344 0.0
O99 O 0.18923 0.39806 0.99059 0.0
O100 O 0.07762 0.27349 0.96524 0.0
O101 O 0.29633 0.35665 0.95803 0.0
O102 O 0.17727 0.28117 0.9209 0.0
O103 O 0.19236 0.23321 0.98 0.0
O104 O 0.24524 0.33307 0.92488 0.0
O105 O 0.27199 0.31538 0.9821 0.0
O106 O 0.17139 0.21295 0.95256 0.0
O107 O 0.21111 0.43864 0.96608 0.0
O108 O 0.09198 0.35261 0.93619 0.0
O109 O 0.10653 0.31285 0.98906 0.0
Sc110 Sc 0.27019 0.88705 0.04587 0.0
Sc111 Sc 0.29806 0.82076 0.00717 0.0
Sc112 Sc 0.35873 0.7842 0.04595 0.0
O113 O 0.30931 0.83075 0.03295 0.0
C114 C 0.38665 0.9007 0.0585 0.0
C115 C 0.28892 0.94141 0.00912 0.0
C116 C 0.419 0.80062 0.01054 0.0
C117 C 0.18382 0.83431 0.02279 0.0
C118 C 0.27658 0.80084 0.07529 0.0
C119 C 0.29936 0.70403 0.02128 0.0
O120 O 0.34351 0.9211 0.0539 0.0
O121 O 0.30638 0.90189 0.00121 0.0
O122 O 0.41705 0.7911 0.02659 0.0
O123 O 0.19663 0.85285 0.03758 0.0
O124 O 0.30641 0.77116 0.06687 0.0
O125 O 0.28671 0.73878 0.01039 0.0
O126 O 0.26424 0.84594 0.07014 0.0
O127 O 0.2159 0.82875 0.0104 0.0
O128 O 0.32709 0.71367 0.03458 0.0
O129 O 0.27063 0.93964 0.02434 0.0
O130 O 0.39473 0.85159 0.05813 0.0
O131 O 0.37931 0.81044 0.00134 0.0
Sc132 Sc 0.86087 0.71895 0.94669 0.0
Sc133 Sc 0.8024 0.70695 0.98795 0.0
Sc134 Sc 0.76336 0.62553 0.95365 0.0
O135 O 0.80935 0.6835 0.96282 0.0
C136 C 0.76667 0.6985 0.92064 0.0
C137 C 0.80764 0.81293 0.96653 0.0
C138 C 0.6843 0.69021 0.97636 0.0
C139 C 0.92354 0.72045 0.98271 0.0
C140 C 0.87545 0.59807 0.9382 0.0
C141 C 0.78982 0.58568 0.99194 0.0
O142 O 0.80958 0.71979 0.92462 0.0
O143 O 0.79868 0.78595 0.97994 0.0
O144 O 0.69374 0.65988 0.96377 0.0
O145 O 0.91993 0.72404 0.96636 0.0
O146 O 0.82912 0.58636 0.94249 0.0
O147 O 0.8026 0.62932 -0.00157 0.0
O148 O 0.89342 0.64438 0.93914 0.0
O149 O 0.88479 0.71234 0.99248 0.0
O150 O 0.77491 0.57981 0.97639 0.0
O151 O 0.83059 0.79536 0.95314 0.0
O152 O 0.74514 0.66441 0.93001 0.0
O153 O 0.7194 0.70742 0.98643 0.0
Sc154 Sc 0.64515 0.23037 0.04082 0.0
Sc155 Sc 0.69226 0.18844 0.00054 0.0
Sc156 Sc 0.72295 0.11972 0.03812 0.0
O157 O 0.68614 0.17945 0.02648 0.0
C158 C 0.73043 0.20349 0.06841 0.0
C159 C 0.71058 0.30259 0.01542 0.0
C160 C 0.80777 0.1613 0.01294 0.0
C161 C 0.57581 0.22444 0.00682 0.0
C162 C 0.60859 0.11591 0.05315 0.0
C163 C 0.69103 0.06928 0.00152 0.0
O164 O 0.70211 0.2364 0.06081 0.0
O165 O 0.71551 0.26711 0.00408 0.0
O166 O 0.79666 0.14867 0.02848 0.0
O167 O 0.58245 0.2321 0.02285 0.0
O168 O 0.64889 0.09203 0.04759 0.0
O169 O 0.67139 0.10971 -0.00512 0.0
O170 O 0.6043 0.16564 0.05305 0.0
O171 O 0.6119 0.21017 -0.00331 0.0
O172 O 0.71515 0.06941 0.01587 0.0
O173 O 0.68381 0.29693 0.02918 0.0
O174 O 0.73738 0.15789 0.0626 0.0
O175 O 0.77367 0.16836 0.0012 0.0
Sc176 Sc 0.61354 0.70809 0.79142 0.0
Sc177 Sc 0.68925 0.6765 0.75494 0.0
Sc178 Sc 0.7135 0.61579 0.79481 0.0
O179 O 0.67175 0.66633 0.78036 0.0
C180 C 0.69369 0.70374 0.82274 0.0
C181 C 0.67075 0.79234 0.76892 0.0
C182 C 0.79993 0.6758 0.77329 0.0
C183 C 0.569 0.68554 0.7531 0.0
C184 C 0.59431 0.59331 0.80523 0.0
C185 C 0.70784 0.55522 0.75881 0.0
O186 O 0.6517 0.71991 0.81606 0.0
O187 O 0.6821 0.75899 0.75736 0.0
O188 O 0.78717 0.64762 0.78615 0.0
O189 O 0.56613 0.70264 0.76853 0.0
O190 O 0.64248 0.58122 0.80476 0.0
O191 O 0.70027 0.59506 0.74949 0.0
O192 O 0.57721 0.63758 0.80045 0.0
O193 O 0.61073 0.66957 0.74626 0.0
O194 O 0.71235 0.55709 0.77515 0.0
O195 O 0.6475 0.78068 0.78292 0.0
O196 O 0.72085 0.66794 0.81613 0.0
O197 O 0.76885 0.68718 0.76114 0.0
Sc198 Sc 0.7289 0.35374 0.19425 0.0
Sc199 Sc 0.7139 0.29426 0.2352 0.0
Sc200 Sc 0.6378 0.25303 0.19976 0.0
O201 O 0.6932 0.30069 0.20979 0.0
C202 C 0.60902 0.36525 0.18451 0.0
C203 C 0.72147 0.4167 0.23014 0.0
C204 C 0.59277 0.27383 0.23786 0.0
C205 C 0.82217 0.30642 0.2154 0.0
C206 C 0.71409 0.26046 0.16747 0.0
C207 C 0.70533 0.17558 0.22267 0.0
O208 O 0.65514 0.38301 0.18566 0.0
O209 O 0.71349 0.37757 0.23987 0.0
O210 O 0.58916 0.26025 0.2221 0.0
O211 O 0.80508 0.32761 0.2017 0.0
O212 O 0.67882 0.23812 0.17614 0.0
O213 O 0.71992 0.21103 0.23313 0.0
O214 O 0.73493 0.30289 0.17222 0.0
O215 O 0.79419 0.2956 0.22842 0.0
O216 O 0.67513 0.18418 0.20992 0.0
O217 O 0.72842 0.41281 0.21393 0.0
O218 O 0.59678 0.31887 0.18881 0.0
O219 O 0.63506 0.28877 0.24481 0.0
Sc220 Sc 0.25834 0.3418 0.78789 0.0
Sc221 Sc 0.31233 0.29219 0.74961 0.0
Sc222 Sc 0.37239 0.26853 0.78941 0.0
O223 O 0.31434 0.30146 0.77564 0.0
C224 C 0.36836 0.38544 0.80228 0.0
C225 C 0.26398 0.40524 0.75248 0.0
C226 C 0.43046 0.29779 0.75387 0.0
C227 C 0.19564 0.27004 0.76148 0.0
C228 C 0.28382 0.26323 0.81801 0.0
C229 C 0.34114 0.1793 0.76446 0.0
O230 O 0.31903 0.38977 0.80006 0.0
O231 O 0.28836 0.37118 0.74375 0.0
O232 O 0.42773 0.27615 0.7686 0.0
O233 O 0.19725 0.29571 0.77568 0.0
O234 O 0.32975 0.25465 0.81295 0.0
O235 O 0.33481 0.21142 0.75207 0.0
O236 O 0.25236 0.29081 0.80952 0.0
O237 O 0.23371 0.26737 0.75108 0.0
O238 O 0.34951 0.19302 0.78006 0.0
O239 O 0.25234 0.39891 0.76823 0.0
O240 O 0.39379 0.34414 0.7987 0.0
O241 O 0.39116 0.31488 0.74586 0.0
Sc242 Sc 0.40665 0.7198 0.20229 0.0
Sc243 Sc 0.33836 0.67407 0.23854 0.0
Sc244 Sc 0.30663 0.62828 0.19692 0.0
O245 O 0.35082 0.67396 0.21259 0.0
C246 C 0.32459 0.72423 0.17167 0.0
C247 C 0.35501 0.79421 0.22995 0.0
C248 C 0.22424 0.67827 0.22164 0.0
C249 C 0.45963 0.68619 0.23833 0.0
C250 C 0.42257 0.60763 0.18459 0.0
C251 C 0.31322 0.55752 0.23097 0.0
O252 O 0.36155 0.7438 0.18034 0.0
O253 O 0.34099 0.75687 0.23959 0.0
O254 O 0.23622 0.66266 0.20651 0.0
O255 O 0.45998 0.70451 0.22306 0.0
O256 O 0.37588 0.5924 0.18693 0.0
O257 O 0.33409 0.59122 0.24074 0.0
O258 O 0.43864 0.6532 0.18868 0.0
O259 O 0.41867 0.67053 0.24577 0.0
O260 O 0.30017 0.56709 0.21548 0.0
O261 O 0.37745 0.78817 0.21542 0.0
O262 O 0.30323 0.68163 0.17573 0.0
O263 O 0.25636 0.6799 0.23418 0.0
Sc264 Sc 0.69017 0.88951 0.45328 0.0
Sc265 Sc 0.66623 0.80171 0.48719 0.0
Sc266 Sc 0.61907 0.775 0.44517 0.0
O267 O 0.65848 0.8222 0.46189 0.0
C268 C 0.57497 0.88961 0.43741 0.0
C269 C 0.65945 0.92366 0.49172 0.0
C270 C 0.55092 0.76807 0.47973 0.0
C271 C 0.77969 0.83923 0.47633 0.0
C272 C 0.70541 0.8183 0.41971 0.0
C273 C 0.6829 0.69372 0.4671 0.0
O274 O 0.6157 0.91354 0.44265 0.0
O275 O 0.65436 0.87827 0.49784 0.0
O276 O 0.56006 0.75941 0.46385 0.0
O277 O 0.76579 0.86825 0.46375 0.0
O278 O 0.67225 0.78406 0.42388 0.0
O279 O 0.68235 0.72289 0.48037 0.0
O280 O 0.71456 0.85786 0.42904 0.0
O281 O 0.74821 0.81464 0.48598 0.0
O282 O 0.663 0.70667 0.45265 0.0
O283 O 0.67195 0.93257 0.47617 0.0
O284 O 0.57136 0.84003 0.43699 0.0
O285 O 0.58455 0.78621 0.49019 0.0
Sc286 Sc 0.73565 0.37456 0.5352 0.0
Sc287 Sc 0.75231 0.29147 0.50015 0.0
Sc288 Sc 0.83589 0.28278 0.53566 0.0
O289 O 0.77566 0.31674 0.52365 0.0
C290 C 0.85186 0.4062 0.54201 0.0
C291 C 0.73989 0.40875 0.49507 0.0
C292 C 0.87407 0.27257 0.49708 0.0
C293 C 0.64695 0.30928 0.51961 0.0
C294 C 0.76551 0.30652 0.56811 0.0
C295 C 0.76683 0.18798 0.52127 0.0
O296 O 0.80527 0.41842 0.53827 0.0
O297 O 0.76031 0.36739 0.48915 0.0
O298 O 0.88336 0.2837 0.51281 0.0
O299 O 0.6648 0.3307 0.53317 0.0
O300 O 0.79612 0.27693 0.55987 0.0
O301 O 0.74162 0.21584 0.5106 0.0
O302 O 0.74377 0.34581 0.56133 0.0
O303 O 0.67233 0.30701 0.50557 0.0
O304 O 0.80612 0.20469 0.52983 0.0
O305 O 0.72345 0.41337 0.51058 0.0
O306 O 0.86808 0.35905 0.54256 0.0
O307 O 0.82845 0.27001 0.49093 0.0
Sc308 Sc 0.33894 0.22474 0.44632 0.0
Sc309 Sc 0.26728 0.19597 0.48405 0.0
Sc310 Sc 0.2393 0.13086 0.44502 0.0
O311 O 0.28191 0.18389 0.45846 0.0
C312 C 0.25542 0.21861 0.41626 0.0
C313 C 0.28542 0.31106 0.4697 0.0
C314 C 0.1542 0.19052 0.46734 0.0
C315 C 0.38941 0.20251 0.48334 0.0
C316 C 0.35645 0.10803 0.43293 0.0
C317 C 0.25128 0.07472 0.48171 0.0
O318 O 0.29371 0.24086 0.42353 0.0
O319 O 0.26685 0.27867 0.48044 0.0
O320 O 0.16629 0.16683 0.45336 0.0
O321 O 0.39188 0.21291 0.46732 0.0
O322 O 0.31028 0.09208 0.43608 0.0
O323 O 0.26464 0.11459 0.49034 0.0
O324 O 0.37031 0.15517 0.43509 0.0
O325 O 0.34726 0.19633 0.4915 0.0
O326 O 0.23905 0.07604 0.46581 0.0
O327 O 0.31331 0.29824 0.45682 0.0
O328 O 0.23367 0.17827 0.42231 0.0
O329 O 0.18613 0.19844 0.47957 0.0
Sc330 Sc 0.1037 0.7259 0.54539 0.0
Sc331 Sc 0.1636 0.69455 0.50615 0.0
Sc332 Sc 0.19943 0.628 0.54367 0.0
O333 O 0.15527 0.68291 0.5318 0.0
C334 C 0.1879 0.70748 0.57482 0.0
C335 C 0.16214 0.8094 0.52262 0.0
C336 C 0.28079 0.68241 0.52033 0.0
C337 C 0.04399 0.72013 0.50908 0.0
C338 C 0.08334 0.60601 0.55546 0.0
C339 C 0.1804 0.57557 0.50649 0.0
O340 O 0.15161 0.733 0.56786 0.0
O341 O 0.1717 0.77642 0.5107 0.0
O342 O 0.26994 0.66471 0.53526 0.0
O343 O 0.04683 0.7301 0.52512 0.0
O344 O 0.12947 0.59067 0.55219 0.0
O345 O 0.15676 0.61356 0.49967 0.0
O346 O 0.06855 0.65355 0.55423 0.0
O347 O 0.08208 0.703 0.50041 0.0
O348 O 0.20129 0.57772 0.52135 0.0
O349 O 0.13774 0.79805 0.53647 0.0
O350 O 0.20739 0.6672 0.56806 0.0
O351 O 0.24673 0.68889 0.50853 0.0
H352 H 0.30631 0.87074 0.21216 0.0
H353 H 0.37204 0.83205 0.26187 0.0
H354 H 0.33664 0.91171 0.27438 0.0
H355 H 0.28414 0.98922 0.27158 0.0
H356 H 0.21631 0.02949 0.22222 0.0
H357 H 0.25449 0.95146 0.2092 0.0
C358 C 0.31373 0.88068 0.2256 0.0
C359 C 0.34201 0.8464 0.23611 0.0
C360 C 0.29188 0.9258 0.23283 0.0
C361 C 0.3506 0.85848 0.2536 0.0
C362 C 0.33005 0.90361 0.26077 0.0
C363 C 0.27716 0.98093 0.25799 0.0
C364 C 0.24703 0.01495 0.24794 0.0
C365 C 0.2998 0.93689 0.25059 0.0
C366 C 0.23909 0.00371 0.23029 0.0
C367 C 0.2612 0.95935 0.22281 0.0
H368 H 0.0349 0.73969 0.76754 0.0
H369 H 0.96715 0.85224 0.73294 0.0
H370 H 0.88001 0.82699 0.74241 0.0
H371 H 0.82465 0.76357 0.75649 0.0
H372 H 0.89104 0.6439 0.78879 0.0
H373 H 0.97786 0.68133 0.78434 0.0
C374 C 0.00095 0.7599 0.76262 0.0
C375 C 0.0068 0.79802 0.74975 0.0
C376 C 0.95119 0.7428 0.76731 0.0
C377 C 0.96303 0.82324 0.74301 0.0
C378 C 0.91345 0.80835 0.74826 0.0
C379 C 0.85803 0.74556 0.76262 0.0
C380 C 0.85183 0.70005 0.77251 0.0
C381 C 0.90725 0.76649 0.75971 0.0
C382 C 0.89511 0.6784 0.78088 0.0
C383 C 0.94459 0.69982 0.77833 0.0
H384 H 0.76005 0.93778 0.23168 0.0
H385 H 0.88449 0.0041 0.26188 0.0
H386 H 0.85757 0.09184 0.25341 0.0
H387 H 0.79283 0.14913 0.24014 0.0
H388 H 0.66641 0.08308 0.21048 0.0
H389 H 0.70001 -0.00446 0.21588 0.0
C390 C 0.78239 0.97154 0.23576 0.0
C391 C 0.82483 0.96498 0.24699 0.0
C392 C 0.76561 0.0217 0.23126 0.0
C393 C 0.85264 0.00859 0.25281 0.0
C394 C 0.83677 0.05863 0.24816 0.0
C395 C 0.77261 0.11563 0.2348 0.0
C396 C 0.72654 0.12257 0.2252 0.0
C397 C 0.79227 0.06561 0.23788 0.0
C398 C 0.70159 0.07879 0.21807 0.0
C399 C 0.72085 0.02876 0.22111 0.0
H400 H 0.09984 0.26993 0.77723 0.0
H401 H 0.18377 0.20724 0.73341 0.0
H402 H 0.10434 0.17128 0.72167 0.0
H403 H 0.00998 0.16659 0.72174 0.0
H404 H 0.92401 0.22645 0.76525 0.0
H405 H 0.00518 0.25351 0.77933 0.0
C406 C 0.10079 0.2479 0.76524 0.0
C407 C 0.1476 0.24284 0.75603 0.0
C408 C 0.05458 0.22682 0.75842 0.0
C409 C 0.14823 0.21313 0.74065 0.0
C410 C 0.10278 0.19223 0.73387 0.0
C411 C 0.00924 0.18469 0.73446 0.0
C412 C 0.9616 0.19525 0.74239 0.0
C413 C 0.05562 0.20031 0.74233 0.0
C414 C 0.96065 0.21798 0.75895 0.0
C415 C 0.00692 0.23384 0.76692 0.0
H416 H 0.25263 0.4644 0.01082 0.0
H417 H 0.15112 0.52747 0.97173 0.0
H418 H 0.1702 0.61584 0.98172 0.0
H419 H 0.22362 0.67461 -0.00105 0.0
H420 H 0.33037 0.61302 0.03689 0.0
H421 H 0.30145 0.52449 0.02999 0.0
C422 C 0.23361 0.49757 0.0049 0.0
C423 C 0.20023 0.48986 0.99071 0.0
C424 C 0.2467 0.54835 0.0102 0.0
C425 C 0.17662 0.53285 0.98278 0.0
C426 C 0.1879 0.58324 0.98837 0.0
C427 C 0.24065 0.64194 0.00578 0.0
C428 C 0.27994 0.65044 0.01818 0.0
C429 C 0.22434 0.59142 0.00162 0.0
C430 C 0.30052 0.60759 0.02715 0.0
C431 C 0.28395 0.55696 0.02322 0.0
H432 H 0.44511 0.7376 0.98408 0.0
H433 H 0.50632 0.85113 0.01991 0.0
H434 H 0.59503 0.82892 0.01141 0.0
H435 H 0.65419 0.77074 -0.00354 0.0
H436 H 0.59424 0.65246 0.96191 0.0
H437 H 0.50564 0.68279 0.96729 0.0
C438 C 0.47803 0.75836 0.98956 0.0
C439 C 0.4699 0.7961 0.00241 0.0
C440 C 0.5288 0.74365 0.9852 0.0
C441 C 0.5123 0.82222 0.00986 0.0
C442 C 0.56279 0.80921 0.00514 0.0
C443 C 0.62186 0.75141 0.99008 0.0
C444 C 0.6307 0.70871 0.97908 0.0
C445 C 0.5714 0.76872 0.9933 0.0
C446 C 0.58838 0.68501 0.97062 0.0
C447 C 0.53777 0.70242 0.97364 0.0
H448 H 0.69945 0.39723 0.03171 0.0
H449 H 0.78793 0.31743 0.9922 0.0
H450 H 0.82912 0.39832 0.98394 0.0
H451 H 0.82983 0.49279 0.98462 0.0
H452 H 0.74106 0.5753 0.02305 0.0
H453 H 0.71163 0.49245 0.03545 0.0
C454 C 0.72818 0.39756 0.02146 0.0
C455 C 0.73903 0.35162 0.0122 0.0
C456 C 0.75194 0.44467 0.01661 0.0
C457 C 0.7773 0.35245 -0.00082 0.0
C458 C 0.80137 0.39867 0.99449 0.0
C459 C 0.80547 0.4924 -0.00391 0.0
C460 C 0.78722 0.53939 0.00291 0.0
C461 C 0.7875 0.44514 0.00265 0.0
C462 C 0.75577 0.53914 0.01773 0.0
C463 C 0.73836 0.49187 0.02463 0.0
H464 H 0.33891 0.26213 -0.00427 0.0
H465 H 0.39619 0.36145 0.95493 0.0
H466 H 0.48511 0.33258 0.96093 0.0
H467 H 0.54693 0.28218 0.97899 0.0
H468 H 0.48746 0.18671 0.02034 0.0
H469 H 0.39858 0.21022 0.01263 0.0
C470 C 0.37068 0.27784 0.98814 0.0
C471 C 0.36088 0.31453 0.97506 0.0
C472 C 0.42124 0.26123 0.99164 0.0
C473 C 0.40267 0.33354 0.96519 0.0
C474 C 0.45348 0.31692 0.96857 0.0
C475 C 0.51426 0.26592 0.98602 0.0
C476 C 0.52319 0.23271 0.00012 0.0
C477 C 0.46326 0.28105 0.98187 0.0
C478 C 0.48105 0.21233 0.00942 0.0
C479 C 0.43042 0.22596 0.00509 0.0
H480 H 0.76373 0.53111 0.73007 0.0
H481 H 0.66536 0.46525 0.76958 0.0
H482 H 0.68397 0.37779 0.75898 0.0
H483 H 0.73357 0.32073 0.74061 0.0
H484 H 0.83761 0.38315 0.70205 0.0
H485 H 0.81096 0.47184 0.71004 0.0
C486 C 0.7457 0.49748 0.73605 0.0
C487 C 0.71333 0.50412 0.75055 0.0
C488 C 0.75804 0.4471 0.73024 0.0
C489 C 0.69053 0.46066 0.75844 0.0
C490 C 0.70122 0.41081 0.75242 0.0
C491 C 0.75067 0.35352 0.73386 0.0
C492 C 0.78836 0.34536 0.72098 0.0
C493 C 0.73598 0.40366 0.73869 0.0
C494 C 0.8089 0.38845 0.71214 0.0
C495 C 0.79371 0.43905 0.71672 0.0
H496 H 0.49802 0.30845 0.22983 0.0
H497 H 0.58193 0.22354 0.26883 0.0
H498 H 0.4996 0.19397 0.2816 0.0
H499 H 0.40351 0.18321 0.27894 0.0
H500 H 0.32269 0.27081 0.23945 0.0
H501 H 0.40364 0.30827 0.22979 0.0
C502 C 0.49813 0.28461 0.24142 0.0
C503 C 0.54551 0.268 0.24839 0.0
C504 C 0.45109 0.26729 0.24842 0.0
C505 C 0.5456 0.23717 0.26338 0.0
C506 C 0.49858 0.21976 0.27053 0.0
C507 C 0.40365 0.2109 0.26837 0.0
C508 C 0.35697 0.22258 0.25964 0.0
C509 C 0.45099 0.23302 0.26274 0.0
C510 C 0.35792 0.25949 0.24615 0.0
C511 C 0.4043 0.28145 0.2406 0.0
H512 H 0.20782 0.61246 0.71253 0.0
H513 H 0.10264 0.62548 0.75568 0.0
H514 H 0.12839 0.53923 0.76584 0.0
H515 H 0.18608 0.46531 0.76402 0.0
H516 H 0.29588 0.4518 0.72205 0.0
H517 H 0.26306 0.53353 0.70971 0.0
C518 C 0.18968 0.59542 0.72385 0.0
C519 C 0.15291 0.62424 0.73328 0.0
C520 C 0.20627 0.5467 0.72996 0.0
C521 C 0.13043 0.60317 0.7482 0.0
C522 C 0.1455 0.55428 0.75405 0.0
C523 C 0.20317 0.48006 0.75217 0.0
C524 C 0.24417 0.45306 0.74415 0.0
C525 C 0.18442 0.52658 0.74532 0.0
C526 C 0.26468 0.47218 0.72857 0.0
C527 C 0.24587 0.51879 0.72152 0.0
H528 H 0.55724 0.67896 0.22655 0.0
H529 H 0.46873 0.70906 0.27279 0.0
H530 H 0.546 0.74541 0.28694 0.0
H531 H 0.63549 0.78125 0.2842 0.0
H532 H 0.72038 0.75197 0.2369 0.0
H533 H 0.64814 0.70303 0.22528 0.0
C534 C 0.55526 0.69227 0.23989 0.0
C535 C 0.50757 0.69211 0.24853 0.0
C536 C 0.59899 0.71462 0.24764 0.0
C537 C 0.50533 0.70875 0.26588 0.0
C538 C 0.54929 0.73023 0.27389 0.0
C539 C 0.63807 0.76391 0.27142 0.0
C540 C 0.68259 0.77205 0.26125 0.0
C541 C 0.59578 0.73562 0.26458 0.0
C542 C 0.68592 0.74813 0.24484 0.0
C543 C 0.64477 0.71956 0.23816 0.0
H544 H 0.73804 0.94808 0.51275 0.0
H545 H 0.58802 0.00033 0.4952 0.0
H546 H 0.6058 0.08763 0.5066 0.0
H547 H 0.67024 0.1513 0.51595 0.0
H548 H 0.82479 0.10207 0.53005 0.0
H549 H 0.79904 0.01086 0.52602 0.0
C550 C 0.70856 0.97821 0.51216 0.0
C551 C 0.66154 0.96824 0.50348 0.0
C552 C 0.72053 0.02884 0.51774 0.0
C553 C 0.62397 0.00739 0.50216 0.0
C554 C 0.63448 0.05727 0.50846 0.0
C555 C 0.69816 0.12059 0.51838 0.0
C556 C 0.74974 0.13329 0.52281 0.0
C557 C 0.68365 0.0689 0.51539 0.0
C558 C 0.78505 0.09319 0.52645 0.0
C559 C 0.77038 0.04114 0.52404 0.0
H560 H 0.05521 0.15696 0.45826 0.0
H561 H 0.14029 0.28409 0.48155 0.0
H562 H 0.06031 0.32477 0.49075 0.0
H563 H 0.96775 0.31816 0.4962 0.0
H564 H 0.87924 0.19271 0.47368 0.0
H565 H 0.95814 0.15773 0.46014 0.0
C566 C 0.05586 0.19406 0.46498 0.0
C567 C 0.10368 0.21704 0.46944 0.0
C568 C 0.00907 0.2172 0.47067 0.0
C569 C 0.10403 0.26531 0.47812 0.0
C570 C 0.05827 0.28864 0.48348 0.0
C571 C 0.96567 0.28375 0.48804 0.0
C572 C 0.91832 0.25767 0.48608 0.0
C573 C 0.01084 0.26395 0.48046 0.0
C574 C 0.91562 0.21345 0.47533 0.0
C575 C 0.96075 0.19324 0.4677 0.0
H576 H 0.23474 0.83978 0.49977 0.0
H577 H 0.1319 0.89954 0.53918 0.0
H578 H 0.15689 0.98877 0.53156 0.0
H579 H 0.2004 0.04937 0.5112 0.0
H580 H 0.29675 0.98687 0.47055 0.0
H581 H 0.28233 0.89872 0.48127 0.0
C582 C 0.21773 0.8722 0.50678 0.0
C583 C 0.18063 0.86313 0.51976 0.0
C584 C 0.23124 0.92281 0.50208 0.0
C585 C 0.16017 0.90557 0.529 0.0
C586 C 0.17435 0.95652 0.52462 0.0
C587 C 0.21901 0.01633 0.50503 0.0
C588 C 0.24949 0.02395 0.49018 0.0
C589 C 0.20878 0.96559 0.51085 0.0
C590 C 0.27306 0.98135 0.482 0.0
C591 C 0.26468 0.93115 0.48807 0.0
H592 H 0.99356 0.81052 0.5129 0.0
H593 H 0.98979 0.66633 0.48427 0.0
H594 H 0.90926 0.69374 0.46979 0.0
H595 H 0.83681 0.7565 0.46712 0.0
H596 H 0.84295 0.90155 0.49514 0.0
H597 H 0.92674 0.87685 0.50783 0.0
C598 C 0.97498 0.78516 0.50348 0.0
C599 C -0.0035 0.73606 0.49988 0.0
C600 C 0.92986 0.80178 0.49498 0.0
C601 C 0.97327 0.704 0.48734 0.0
C602 C 0.92749 0.71975 0.47906 0.0
C603 C 0.8576 0.78323 0.47556 0.0
C604 C 0.83486 0.8311 0.48001 0.0
C605 C 0.90517 0.76832 0.48294 0.0
C606 C 0.8608 0.86514 0.49129 0.0
C607 C 0.90816 0.85067 0.49869 0.0
H608 H 0.15012 0.23985 0.34399 0.0
H609 H 0.31081 0.24761 0.32852 0.0
H610 H 0.3375 0.25765 0.35877 0.0
H611 H 0.31597 0.24805 0.38956 0.0
H612 H 0.15619 0.22733 0.40477 0.0
H613 H 0.12792 0.2393 0.3748 0.0
C614 C 0.19079 0.24545 0.34725 0.0
C615 C 0.22854 0.24301 0.33418 0.0
C616 C 0.20592 0.24805 0.36467 0.0
C617 C 0.28123 0.24931 0.33848 0.0
C618 C 0.29645 0.25474 0.35574 0.0
C619 C 0.27492 0.24772 0.38632 0.0
C620 C 0.2381 0.23677 0.39919 0.0
C621 C 0.25932 0.25176 0.36897 0.0
C622 C 0.18506 0.23551 0.39494 0.0
C623 C 0.16897 0.24217 0.37784 0.0
H624 H 0.22124 0.81546 0.64643 0.0
H625 H 0.18495 0.66031 0.66388 0.0
H626 H 0.18996 0.62787 0.6341 0.0
H627 H 0.19293 0.6463 0.6029 0.0
H628 H 0.21655 0.80379 0.58549 0.0
H629 H 0.22912 0.83295 0.61542 0.0
C630 C 0.21566 0.77435 0.64371 0.0
C631 C 0.20281 0.74018 0.65719 0.0
C632 C 0.21597 0.75669 0.62656 0.0
C633 C 0.19471 0.68718 0.65359 0.0
C634 C 0.19747 0.66873 0.63661 0.0
C635 C 0.20214 0.68669 0.60573 0.0
C636 C 0.20424 0.72299 0.59223 0.0
C637 C 0.20638 0.70347 0.62295 0.0
C638 C 0.21498 0.77544 0.59585 0.0
C639 C 0.22193 0.79203 0.61289 0.0
H640 H 0.8197 0.84888 0.34882 0.0
H641 H 0.75276 0.69845 0.33808 0.0
H642 H 0.71804 0.6947 0.36777 0.0
H643 H 0.70151 0.73858 0.39593 0.0
H644 H 0.77156 0.88909 0.4057 0.0
H645 H 0.81064 0.88818 0.37721 0.0
C646 C 0.79781 0.81506 0.35306 0.0
C647 C 0.78795 0.77435 0.34141 0.0
C648 C 0.77841 0.81339 0.36989 0.0
C649 C 0.76054 0.73023 0.34696 0.0
C650 C 0.74058 0.72831 0.36385 0.0
C651 C 0.72565 0.77095 0.39187 0.0
C652 C 0.7328 0.81417 0.40293 0.0
C653 C 0.74838 0.77031 0.37531 0.0
C654 C 0.76482 0.85548 0.3975 0.0
C655 C 0.78728 0.85512 0.38116 0.0
H656 H 0.78381 0.29228 0.64897 0.0
H657 H 0.75393 0.13052 0.63739 0.0
H658 H 0.74142 0.15136 0.60691 0.0
H659 H 0.74691 0.21417 0.58316 0.0
H660 H 0.77118 0.37673 0.59445 0.0
H661 H 0.77714 0.35734 0.62546 0.0
C662 C 0.77401 0.26185 0.63976 0.0
C663 C 0.77039 0.20994 0.64533 0.0
C664 C 0.76588 0.27423 0.62224 0.0
C665 C 0.7569 0.17081 0.63338 0.0
C666 C 0.74993 0.18261 0.61594 0.0
C667 C 0.75251 0.24534 0.5925 0.0
C668 C 0.75895 0.29658 0.58669 0.0
C669 C 0.75539 0.23395 0.61019 0.0
C670 C 0.76582 0.33697 0.59876 0.0
C671 C 0.76967 0.32584 0.61643 0.0
H672 H 0.17051 0.25464 0.88902 0.0
H673 H 0.32248 0.30419 0.90622 0.0
H674 H 0.35801 0.28645 0.87755 0.0
H675 H 0.34307 0.26945 0.8467 0.0
H676 H 0.18935 0.22908 0.82888 0.0
H677 H 0.15754 0.22908 0.85871 0.0
C678 C 0.21158 0.26065 0.88658 0.0
C679 C 0.24362 0.28141 0.89964 0.0
C680 C 0.23142 0.25194 0.86991 0.0
C681 C 0.2968 0.28901 0.89629 0.0
C682 C 0.3172 0.27876 0.87991 0.0
C683 C 0.30307 0.25893 0.84944 0.0
C684 C 0.26853 0.24914 0.83573 0.0
C685 C 0.28451 0.26192 0.86648 0.0
C686 C 0.21652 0.23661 0.83933 0.0
C687 C 0.19829 0.23707 0.85634 0.0
H688 H 0.29518 0.85624 0.10407 0.0
H689 H 0.23526 0.70921 0.0859 0.0
H690 H 0.23799 0.67449 0.11537 0.0
H691 H 0.27054 0.68181 0.14501 0.0
H692 H 0.34054 0.82565 0.16239 0.0
H693 H 0.32089 0.86598 0.13454 0.0
C694 C 0.28105 0.81725 0.10675 0.0
C695 C 0.26452 0.78529 0.09306 0.0
C696 C 0.28587 0.7967 0.12347 0.0
C697 C 0.24762 0.73439 0.09641 0.0
C698 C 0.2497 0.71448 0.11318 0.0
C699 C 0.28076 0.72225 0.14282 0.0
C700 C 0.30758 0.75049 0.15565 0.0
C701 C 0.27088 0.74458 0.12663 0.0
C702 C 0.32058 0.80284 0.15261 0.0
C703 C 0.30921 0.82597 0.13672 0.0
H704 H 0.81333 0.73603 0.8918 0.0
H705 H 0.66435 0.68902 0.9121 0.0
H706 H 0.62546 0.69735 0.8834 0.0
H707 H 0.63704 0.7048 0.85194 0.0
H708 H 0.78812 0.74186 0.83141 0.0
H709 H 0.82281 0.7521 0.86074 0.0
C710 C 0.77214 0.72866 0.89 0.0
C711 C 0.74193 0.71124 0.90395 0.0
C712 C 0.75047 0.73174 0.87337 0.0
C713 C 0.6886 0.70169 0.90145 0.0
C714 C 0.6663 0.70653 0.88507 0.0
C715 C 0.67703 0.71683 0.85399 0.0
C716 C 0.7101 0.72295 0.83975 0.0
C717 C 0.69727 0.71968 0.87083 0.0
C718 C 0.76217 0.73731 0.84234 0.0
C719 C 0.78202 0.74271 0.85906 0.0
H720 H 0.72648 0.14214 0.09657 0.0
H721 H 0.77035 0.29563 0.0795 0.0
H722 H 0.77744 0.32496 0.10956 0.0
H723 H 0.75678 0.3107 0.14012 0.0
H724 H 0.70314 0.15968 0.15682 0.0
H725 H 0.71446 0.12544 0.12756 0.0
C726 C 0.73928 0.18147 0.0995 0.0
C727 C 0.74802 0.21676 0.08597 0.0
C728 C 0.74034 0.19873 0.11674 0.0
C729 C 0.76354 0.26793 0.08981 0.0
C730 C 0.76718 0.28475 0.10696 0.0
C731 C 0.74859 0.27003 0.13743 0.0
C732 C 0.7285 0.23796 0.15054 0.0
C733 C 0.75339 0.25112 0.12047 0.0
C734 C 0.71792 0.18536 0.14687 0.0
C735 C 0.72445 0.16572 0.13015 0.0
H736 H 0.24089 0.36418 0.27489 0.0
H737 H 0.1431 0.34351 0.22996 0.0
H738 H 0.18095 0.42074 0.21663 0.0
H739 H 0.24317 0.4913 0.21732 0.0
H740 H 0.34195 0.51392 0.26199 0.0
H741 H 0.30322 0.43737 0.27575 0.0
C742 C 0.22719 0.37753 0.26237 0.0
C743 C 0.18908 0.34904 0.25342 0.0
C744 C 0.25016 0.42105 0.2546 0.0
C745 C 0.17225 0.36544 0.23705 0.0
C746 C 0.19414 0.40914 0.22939 0.0
C747 C 0.25688 0.47933 0.22999 0.0
C748 C 0.29566 0.50802 0.23856 0.0
C749 C 0.23371 0.43655 0.23792 0.0
C750 C 0.31231 0.49222 0.25508 0.0
C751 C 0.28992 0.44881 0.263 0.0
H752 H 0.38474 0.77451 0.71049 0.0
H753 H 0.30046 0.69841 0.75167 0.0
H754 H 0.3794 0.65678 0.7616 0.0
H755 H 0.47382 0.65368 0.7617 0.0
H756 H 0.56035 0.72854 0.72109 0.0
H757 H 0.47925 0.75788 0.70755 0.0
C758 C 0.38367 0.74811 0.72142 0.0
C759 C 0.33733 0.74122 0.73071 0.0
C760 C 0.42959 0.72419 0.72722 0.0
C761 C 0.33611 0.70599 0.74465 0.0
C762 C 0.38114 0.6818 0.75032 0.0
C763 C 0.47461 0.67512 0.7496 0.0
C764 C 0.52225 0.68962 0.74244 0.0
C765 C 0.42833 0.69245 0.74219 0.0
C766 C 0.52358 0.71698 0.72673 0.0
C767 C 0.47736 0.7342 0.71913 0.0
H768 H 0.77186 0.44354 0.25989 0.0
H769 H 0.68625 0.50746 0.21689 0.0
H770 H 0.70957 0.59559 0.22597 0.0
H771 H 0.76116 0.65349 0.24421 0.0
H772 H 0.85083 0.59067 0.28657 0.0
H773 H 0.81921 0.50319 0.27964 0.0
C774 C 0.75737 0.47691 0.2528 0.0
C775 C 0.7273 0.46916 0.23778 0.0
C776 C 0.77255 0.52754 0.25775 0.0
C777 C 0.70945 0.51258 0.22849 0.0
C778 C 0.72303 0.56291 0.23361 0.0
C779 C 0.77384 0.62082 0.25201 0.0
C780 C 0.80905 0.62878 0.26575 0.0
C781 C 0.75587 0.57071 0.24789 0.0
C782 C 0.82415 0.58581 0.27583 0.0
C783 C 0.80603 0.5357 0.27188 0.0
H784 H 0.65941 0.25697 0.73384 0.0
H785 H 0.58619 0.1443 0.70014 0.0
H786 H 0.50066 0.18138 0.70713 0.0
H787 H 0.44722 0.23781 0.72608 0.0
H788 H 0.52244 0.34297 0.76179 0.0
H789 H 0.60759 0.31739 0.75055 0.0
C790 C 0.6248 0.24042 0.72794 0.0
C791 C 0.62876 0.19701 0.71687 0.0
C792 C 0.5765 0.2609 0.73235 0.0
C793 C 0.58387 0.17725 0.70888 0.0
C794 C 0.53516 0.19838 0.71291 0.0
C795 C 0.4824 0.25615 0.73093 0.0
C796 C 0.47931 0.2926 0.74449 0.0
C797 C 0.53102 0.23913 0.72505 0.0
C798 C 0.52452 0.31537 0.75118 0.0
C799 C 0.57293 0.30042 0.74487 0.0
H800 H 0.26174 0.17504 0.99101 0.0
H801 H 0.16638 0.10973 0.95037 0.0
H802 H 0.19614 0.02203 0.95808 0.0
H803 H 0.24108 0.96387 0.97886 0.0
H804 H 0.33047 0.03125 0.02053 0.0
H805 H 0.31206 0.11866 0.00975 0.0
C806 C 0.24743 0.14168 0.98378 0.0
C807 C 0.21092 0.1486 0.97043 0.0
C808 C 0.26393 0.09191 0.98844 0.0
C809 C 0.19405 0.10521 0.96084 0.0
C810 C 0.21099 0.05517 0.96526 0.0
C811 C 0.25754 -0.00216 0.9852 0.0
C812 C 0.28716 0.99177 0.00035 0.0
C813 C 0.24484 0.04799 0.97935 0.0
C814 C 0.30772 0.03556 0.0088 0.0
C815 C 0.29691 0.08533 0.00272 0.0
H816 H 0.15731 0.76265 -0.00092 0.0
H817 H 0.09141 0.85858 0.03939 0.0
H818 H 0.00411 0.82651 0.03175 0.0
H819 H 0.94658 0.77643 0.01174 0.0
H820 H 0.01561 0.68572 0.97071 0.0
H821 H 0.10227 0.71025 0.98067 0.0
C822 C 0.12398 0.77701 0.00623 0.0
C823 C 0.13074 0.81403 0.01953 0.0
C824 C 0.07463 0.75906 0.00165 0.0
C825 C 0.08717 0.8306 0.02896 0.0
C826 C 0.03737 0.81228 0.02458 0.0
C827 C 0.98076 0.76139 0.00525 0.0
C828 C 0.97502 0.72935 0.99052 0.0
C829 C 0.03059 0.77719 0.01071 0.0
C830 C 0.0193 0.71054 0.98201 0.0
C831 C 0.06872 0.72468 0.98766 0.0
H832 H 0.76092 0.04945 0.97689 0.0
H833 H 0.631 0.98331 0.00428 0.0
H834 H 0.65193 0.89692 0.99276 0.0
H835 H 0.71542 0.83972 0.97927 0.0
H836 H 0.85048 0.9035 0.954 0.0
H837 H 0.81904 0.99211 0.95995 0.0
C838 C 0.73634 0.01619 0.97976 0.0
C839 C 0.69428 0.02197 0.99116 0.0
C840 C 0.75017 0.96662 0.97374 0.0
C841 C 0.66306 0.97917 -0.0047 0.0
C842 C 0.67535 0.93 0.98886 0.0
C843 C 0.73763 0.87312 0.97486 0.0
C844 C 0.78571 0.86565 0.96662 0.0
C845 C 0.72011 0.92312 0.97875 0.0
C846 C 0.81359 0.90872 0.96051 0.0
C847 C 0.79574 0.95914 0.964 0.0
H848 H 0.01047 0.2072 0.97172 0.0
H849 H 0.02776 0.32606 0.01089 0.0
H850 H 0.95046 0.29267 0.02584 0.0
H851 H 0.87485 0.2321 0.02666 0.0
H852 H 0.85909 0.11532 0.98681 0.0
H853 H 0.9399 0.14463 0.97344 0.0
C854 C -0.00267 0.22621 0.98348 0.0
C855 C 0.02436 0.26975 0.98999 0.0
C856 C 0.95366 0.20645 0.99204 0.0
C857 C 0.00734 0.29287 0.00549 0.0
C858 C 0.96331 0.27362 0.01407 0.0
C859 C 0.89022 0.21223 0.01537 0.0
C860 C 0.86189 0.17107 0.00784 0.0
C861 C 0.93596 0.23054 0.0074 0.0
C862 C 0.88094 0.14651 0.99292 0.0
C863 C 0.92671 0.16363 0.98518 0.0
H864 H 0.71535 0.03174 0.7577 0.0
H865 H 0.8195 0.96636 0.71979 0.0
H866 H 0.79963 0.87867 0.72996 0.0
H867 H 0.74652 0.82136 0.7472 0.0
H868 H 0.63695 0.88369 0.78407 0.0
H869 H 0.66522 0.9724 0.77683 0.0
C870 C 0.73443 -0.00187 0.75205 0.0
C871 C 0.76889 0.0048 0.73814 0.0
C872 C 0.72119 0.94774 0.75753 0.0
C873 C 0.79298 0.96154 0.73056 0.0
C874 C 0.78144 0.91163 0.7363 0.0
C875 C 0.72857 0.85421 0.75371 0.0
C876 C 0.68881 0.84609 0.76586 0.0
C877 C 0.74442 0.90435 0.74935 0.0
C878 C 0.6672 0.88906 0.7745 0.0
C879 C 0.68335 0.93966 0.77036 0.0
H880 H 0.85223 0.20953 0.22187 0.0
H881 H 0.91073 0.36307 0.21069 0.0
H882 H -0.0011 0.3352 0.21859 0.0
H883 H 0.05467 0.27138 0.2333 0.0
H884 H -0.00487 0.11889 0.2454 0.0
H885 H 0.91138 0.14144 0.23209 0.0
C886 C 0.8847 0.23638 0.22083 0.0
C887 C 0.87576 0.28826 0.21606 0.0
C888 C 0.9344 0.22029 0.22565 0.0
C889 C 0.91739 0.323 0.21442 0.0
C890 C 0.96741 0.30715 0.21904 0.0
C891 C 0.02352 0.24287 0.2326 0.0
C892 C 0.02995 0.19394 0.2403 0.0
C893 C 0.97574 0.25659 0.22536 0.0
C894 C 0.99028 0.15674 0.23946 0.0
C895 C 0.9426 0.16979 0.23202 0.0
H896 H 0.27946 0.11039 0.7811 0.0
H897 H 0.38395 0.12676 0.73786 0.0
H898 H 0.35835 0.04107 0.72702 0.0
H899 H 0.30077 0.96662 0.72827 0.0
H900 H 0.19162 0.95041 0.77034 0.0
H901 H 0.22445 0.03134 0.78327 0.0
C902 C 0.29748 0.09431 0.76958 0.0
C903 C 0.33375 0.12414 0.76029 0.0
C904 C 0.28096 0.04592 0.76306 0.0
C905 C 0.35618 0.10396 0.74518 0.0
C906 C 0.34128 0.05532 0.73895 0.0
C907 C 0.28392 0.98055 0.74028 0.0
C908 C 0.24314 0.9529 0.74817 0.0
C909 C 0.30261 0.02683 0.74749 0.0
C910 C 0.22269 0.97122 0.76391 0.0
C911 C 0.24152 0.01739 0.77131 0.0
H912 H 0.98631 0.72904 0.23082 0.0
H913 H 0.04676 0.79709 0.2779 0.0
H914 H 0.13523 0.77808 0.2687 0.0
H915 H 0.194 0.73619 0.24876 0.0
H916 H 0.13575 0.6633 0.20215 0.0
H917 H 0.04731 0.69067 0.20962 0.0
C918 C 0.01905 0.74034 0.23887 0.0
C919 C 0.01045 0.76392 0.25503 0.0
C920 C 0.06977 0.72798 0.23371 0.0
C921 C 0.05277 0.7783 0.26548 0.0
C922 C 0.10321 0.76747 0.26025 0.0
C923 C 0.16209 0.72607 0.24019 0.0
C924 C 0.17119 0.69688 0.22511 0.0
C925 C 0.11192 0.74113 0.24465 0.0
C926 C 0.12955 0.68536 0.21394 0.0
C927 C 0.07909 0.70093 0.21821 0.0
H928 H 0.65469 0.59889 0.45377 0.0
H929 H 0.77 0.67599 0.48539 0.0
H930 H 0.80355 0.59241 0.49498 0.0
H931 H 0.79041 0.49882 0.49828 0.0
H932 H 0.67526 0.41975 0.46743 0.0
H933 H 0.65151 0.50221 0.45345 0.0
C934 C 0.68801 0.5971 0.46236 0.0
C935 C 0.70914 0.64325 0.46918 0.0
C936 C 0.70661 0.54862 0.46813 0.0
C937 C 0.75245 0.64075 0.48028 0.0
C938 C 0.77167 0.59305 0.48578 0.0
C939 C 0.76121 0.49968 0.48812 0.0
C940 C 0.7344 0.45408 0.48381 0.0
C941 C 0.74755 0.54695 0.48042 0.0
C942 C 0.69645 0.45487 0.47076 0.0
C943 C 0.68268 0.50195 0.4629 0.0
H944 H 0.62051 0.22365 0.50251 0.0
H945 H 0.55853 0.3413 0.53657 0.0
H946 H 0.47002 0.30923 0.53091 0.0
H947 H 0.41123 0.25865 0.51185 0.0
H948 H 0.4759 0.14836 0.47567 0.0
H949 H 0.5631 0.16545 0.4869 0.0
C950 C 0.58762 0.24172 0.50893 0.0
C951 C 0.59526 0.28547 0.51951 0.0
C952 C 0.53768 0.22428 0.50518 0.0
C953 C 0.553 0.30792 0.52816 0.0
C954 C 0.50263 0.28974 0.52487 0.0
C955 C 0.44444 0.23732 0.5069 0.0
C956 C 0.43804 0.20266 0.49299 0.0
C957 C 0.49451 0.24952 0.51277 0.0
C958 C 0.48069 0.17535 0.48637 0.0
C959 C 0.53028 0.18532 0.4927 0.0
H960 H 0.27253 0.5412 0.4957 0.0
H961 H 0.10887 0.50567 0.49476 0.0
H962 H 0.12717 0.42068 0.48143 0.0
H963 H 0.19098 0.35404 0.47287 0.0
H964 H 0.35441 0.39033 0.47339 0.0
H965 H 0.33533 0.47866 0.48369 0.0
C966 C 0.24099 0.51498 0.49227 0.0
C967 C 0.18962 0.52868 0.49621 0.0
C968 C 0.25191 0.46683 0.48461 0.0
C969 C 0.14864 0.49532 0.49173 0.0
C970 C 0.15916 0.44693 0.48421 0.0
C971 C 0.22214 0.38164 0.4751 0.0
C972 C 0.27388 0.36611 0.47271 0.0
C973 C 0.21075 0.43186 0.48103 0.0
C974 C 0.31431 0.40196 0.47518 0.0
C975 C 0.30341 0.45211 0.48117 0.0
H976 H 0.51957 0.73555 0.51169 0.0
H977 H 0.4634 0.7781 0.46095 0.0
H978 H 0.37511 0.75632 0.46934 0.0
H979 H 0.31492 0.72247 0.49027 0.0
H980 H 0.36797 0.67664 0.54108 0.0
H981 H 0.4568 0.70231 0.53342 0.0
C982 C 0.48778 0.7404 0.50261 0.0
C983 C 0.49779 0.75801 0.48573 0.0
C984 C 0.43691 0.72683 0.50742 0.0
C985 C 0.45657 0.764 0.47396 0.0
C986 C 0.40612 0.75163 0.47873 0.0
C987 C 0.34567 0.7179 0.49977 0.0
C988 C 0.33478 0.69733 0.51619 0.0
C989 C 0.39606 0.73236 0.4953 0.0
C990 C 0.37535 0.69213 0.52829 0.0
C991 C 0.42608 0.70689 0.52394 0.0
H992 H 0.1237 0.00378 0.30541 0.0
H993 H 0.01683 0.13085 0.31378 0.0
H994 H 0.94568 0.06977 0.31752 0.0
H995 H 0.91116 0.98125 0.31457 0.0
H996 H 0.01706 0.8533 0.30677 0.0
H997 H 0.09059 0.91337 0.30696 0.0
C998 C 0.08515 0.01805 0.30849 0.0
C999 C 0.07576 0.07203 0.30894 0.0
C1000 C 0.04373 0.98249 0.31055 0.0
C1001 C 0.02534 0.08962 0.31301 0.0
C1002 C 0.98434 0.05468 0.31515 0.0
C1003 C 0.95039 0.96637 0.31325 0.0
C1004 C 0.95829 0.91288 0.31048 0.0
C1005 C 0.99267 0.00116 0.31331 0.0
C1006 C 0.00959 0.89428 0.30896 0.0
C1007 C 0.05183 0.92871 0.30895 0.0
H1008 H 0.98836 0.09684 0.68524 0.0
H1009 H 0.86531 0.98894 0.67218 0.0
H1010 H 0.92754 0.91763 0.67152 0.0
H1011 H 0.01422 0.88428 0.67806 0.0
H1012 H 0.13707 0.99107 0.69218 0.0
H1013 H 0.07765 0.06436 0.68871 0.0
C1014 C 0.97522 0.05796 0.68189 0.0
C1015 C 0.92194 0.04838 0.67897 0.0
C1016 C 0.01112 0.01671 0.68187 0.0
C1017 C 0.90588 -0.00243 0.67466 0.0
C1018 C 0.94146 0.95662 0.67431 0.0
C1019 C 0.02837 0.92359 0.68015 0.0
C1020 C 0.07999 0.93188 0.68562 0.0
C1021 C 0.9938 0.96548 0.67845 0.0
C1022 C 0.09758 0.98331 0.68803 0.0
C1023 C 0.0635 0.02532 0.68613 0.0
H1024 H 0.0025 0.39007 0.9318 0.0
H1025 H 0.12755 0.4996 0.92349 0.0
H1026 H 0.06562 0.57109 0.92294 0.0
H1027 H 0.97757 0.60379 0.9285 0.0
H1028 H 0.85296 0.49402 0.93727 0.0
H1029 H 0.9131 0.42189 0.9338 0.0
C1030 C 0.01624 0.42939 0.92951 0.0
C1031 C 0.06985 0.43922 0.92798 0.0
C1032 C 0.98051 0.47069 0.92951 0.0
C1033 C 0.08663 0.49062 0.92489 0.0
C1034 C 0.05122 0.53176 0.92465 0.0
C1035 C 0.96334 0.56412 0.92941 0.0
C1036 C 0.91083 0.5547 0.93343 0.0
C1037 C -0.00171 0.52246 0.92756 0.0
C1038 C 0.89319 0.50281 0.93436 0.0
C1039 C 0.92761 0.4613 0.9324 0.0
H1040 H 0.38941 0.00755 0.0595 0.0
H1041 H 0.48698 0.87195 0.06532 0.0
H1042 H 0.56396 0.92698 0.06576 0.0
H1043 H 0.60463 0.01242 0.06123 0.0
H1044 H 0.50756 0.14826 0.05555 0.0
H1045 H 0.42996 0.09443 0.05853 0.0
C1046 C 0.42737 0.99 0.06121 0.0
C1047 C 0.43196 0.93537 0.06218 0.0
C1048 C 0.47197 0.02195 0.06132 0.0
C1049 C 0.48179 0.91369 0.06446 0.0
C1050 C 0.52613 0.94518 0.06463 0.0
C1051 C 0.56655 0.03044 0.06091 0.0
C1052 C 0.56223 0.08438 0.058 0.0
C1053 C 0.52183 -0.00081 0.06256 0.0
C1054 C 0.51237 0.10694 0.0578 0.0
C1055 C 0.46777 0.07608 0.0594 0.0
H1056 H 0.48815 0.59824 0.80351 0.0
H1057 H 0.61424 0.49515 0.81718 0.0
H1058 H 0.5532 0.42318 0.82004 0.0
H1059 H 0.46663 0.38712 0.81501 0.0
H1060 H 0.34067 0.48846 0.80012 0.0
H1061 H 0.39895 0.56365 0.80184 0.0
C1062 C 0.5023 0.5603 0.80742 0.0
C1063 C 0.55606 0.55218 0.80986 0.0
C1064 C 0.46701 0.51861 0.80876 0.0
C1065 C 0.57333 0.50265 0.81502 0.0
C1066 C 0.53841 0.46131 0.81664 0.0
C1067 C 0.45156 0.42575 0.81242 0.0
C1068 C 0.39945 0.43194 0.80719 0.0
C1069 C 0.48552 0.46849 0.81298 0.0
C1070 C 0.38054 0.48244 0.80416 0.0
C1071 C 0.41402 0.52544 0.80499 0.0
H1072 H 0.40856 0.50302 0.18109 0.0
H1073 H 0.52461 0.6238 0.176 0.0
H1074 H 0.59213 0.55797 0.17294 0.0
H1075 H 0.61941 0.46741 0.17592 0.0
H1076 H 0.50402 0.34685 0.18286 0.0
H1077 H 0.43504 0.41154 0.18068 0.0
C1078 C 0.44843 0.51513 0.17895 0.0
C1079 C 0.46146 0.56844 0.17907 0.0
C1080 C 0.48733 0.4771 0.17771 0.0
C1081 C 0.51341 0.58314 0.17618 0.0
C1082 C 0.55214 0.54548 0.17448 0.0
C1083 C 0.57918 0.45494 0.17668 0.0
C1084 C 0.56712 0.4023 0.17986 0.0
C1085 C 0.53976 0.49248 0.1759 0.0
C1086 C 0.51463 0.38707 0.18058 0.0
C1087 C 0.47508 0.42412 0.17941 0.0
H1088 H 0.56951 0.99003 0.42611 0.0
H1089 H 0.47355 0.85924 0.44036 0.0
H1090 H 0.39589 0.91354 0.43849 0.0
H1091 H 0.35618 0.001 0.43588 0.0
H1092 H 0.45307 0.13049 0.42066 0.0
H1093 H 0.52848 0.07391 0.41958 0.0
C1094 C 0.53153 0.9732 0.42855 0.0
C1095 C 0.52761 0.92072 0.43352 0.0
C1096 C 0.48685 0.0046 0.42735 0.0
C1097 C 0.4779 0.89948 0.43646 0.0
C1098 C 0.43334 0.93063 0.43548 0.0
C1099 C 0.39348 0.0166 0.43191 0.0
C1100 C 0.39865 0.07034 0.42863 0.0
C1101 C 0.4374 0.98366 0.43135 0.0
C1102 C 0.44763 0.08957 0.42351 0.0
C1103 C 0.49111 0.05722 0.42292 0.0
H1104 H 0.95093 0.40072 0.55485 0.0
H1105 H 0.83393 0.50993 0.53784 0.0
H1106 H 0.89298 0.58196 0.54309 0.0
H1107 H 0.97966 0.61386 0.55011 0.0
H1108 H 0.09853 0.50563 0.56605 0.0
H1109 H 0.03653 0.4338 0.56402 0.0
C1110 C 0.93831 0.44025 0.55234 0.0
C1111 C 0.88816 0.44956 0.5458 0.0
C1112 C 0.97264 0.48194 0.55532 0.0
C1113 C 0.87233 0.50127 0.54281 0.0
C1114 C 0.90605 0.54273 0.54584 0.0
C1115 C 0.99177 0.5748 0.55357 0.0
C1116 C 0.04368 0.56515 0.55813 0.0
C1117 C 0.95649 0.5335 0.55184 0.0
C1118 C 0.05876 0.51411 0.56241 0.0
C1119 C 0.02345 0.47292 0.56114 0.0
loop_
_geom_bond_atom_site_label_1
_geom_bond_atom_site_label_2
_geom_bond_distance
_geom_bond_site_symmetry_2
_ccdc_geom_bond_type
Sc0 O3 2.025 . S
Sc0 O10 2.105 . S
Sc0 O13 2.105 . S
Sc0 O16 2.105 . S
Sc0 O19 2.105 . S
Sc1 O3 2.025 . S
Sc1 O11 2.105 . S
Sc1 O15 2.105 . S
Sc1 O17 2.105 . S
Sc1 O21 2.105 . S
Sc2 O3 2.025 . S
Sc2 O12 2.105 . S
Sc2 O14 2.105 . S
Sc2 O18 2.105 . S
Sc2 O20 2.105 . S
O3 Sc0 2.025 . S
O3 Sc1 2.025 . S
O3 Sc2 2.025 . S
C4 O10 1.268 . S
C4 O20 1.268 . S
C5 O11 1.268 . S
C5 O19 1.268 . S
C6 O12 1.268 . S
C6 O21 1.268 . S
C7 O13 1.268 . S
C7 O17 1.268 . S
C8 O14 1.268 . S
C8 O16 1.268 . S
C9 O15 1.268 . S
C9 O18 1.268 . S
O10 Sc0 2.105 . S
O10 C4 1.268 . S
O11 Sc1 2.105 . S
O11 C5 1.268 . S
O12 Sc2 2.105 . S
O12 C6 1.268 . S
O13 Sc0 2.105 . S
O13 C7 1.268 . S
O14 Sc2 2.105 . S
O14 C8 1.268 . S
O15 Sc1 2.105 . S
O15 C9 1.268 . S
O16 Sc0 2.105 . S
O16 C8 1.268 . S
O17 Sc1 2.105 . S
O17 C7 1.268 . S
O18 Sc2 2.105 . S
O18 C9 1.268 . S
O19 Sc0 2.105 . S
O19 C5 1.268 . S
O20 Sc2 2.105 . S
O20 C4 1.268 . S
O21 Sc1 2.105 . S
O21 C6 1.268 . S
Sc22 O25 2.025 . S
Sc22 O32 2.105 . S
Sc22 O35 2.105 . S
Sc22 O38 2.105 . S
Sc22 O41 2.105 . S
Sc23 O25 2.025 . S
Sc23 O33 2.105 . S
Sc23 O37 2.105 . S
Sc23 O39 2.105 . S
Sc23 O43 2.105 . S
Sc24 O25 2.025 . S
Sc24 O34 2.105 . S
Sc24 O36 2.105 . S
Sc24 O40 2.105 . S
Sc24 O42 2.105 . S
O25 Sc22 2.025 . S
O25 Sc23 2.025 . S
O25 Sc24 2.025 . S
C26 O32 1.268 . S
C26 O42 1.268 . S
C27 O33 1.268 . S
C27 O41 1.268 . S
C28 O34 1.268 . S
C28 O43 1.268 . S
C29 O35 1.268 . S
C29 O39 1.268 . S
C30 O36 1.268 . S
C30 O38 1.268 . S
C31 O37 1.268 . S
C31 O40 1.268 . S
O32 Sc22 2.105 . S
O32 C26 1.268 . S
O33 Sc23 2.105 . S
O33 C27 1.268 . S
O34 Sc24 2.105 . S
O34 C28 1.268 . S
O35 Sc22 2.105 . S
O35 C29 1.268 . S
O36 Sc24 2.105 . S
O36 C30 1.268 . S
O37 Sc23 2.105 . S
O37 C31 1.268 . S
O38 Sc22 2.105 . S
O38 C30 1.268 . S
O39 Sc23 2.105 . S
O39 C29 1.268 . S
O40 Sc24 2.105 . S
O40 C31 1.268 . S
O41 Sc22 2.105 . S
O41 C27 1.268 . S
O42 Sc24 2.105 . S
O42 C26 1.268 . S
O43 Sc23 2.105 . S
O43 C28 1.268 . S
Sc44 O47 2.025 . S
Sc44 O54 2.105 . S
Sc44 O57 2.105 . S
Sc44 O60 2.105 . S
Sc44 O63 2.105 . S
Sc45 O47 2.025 . S
Sc45 O55 2.105 . S
Sc45 O59 2.105 . S
Sc45 O61 2.105 . S
Sc45 O65 2.105 . S
Sc46 O47 2.025 . S
Sc46 O56 2.105 . S
Sc46 O58 2.105 . S
Sc46 O62 2.105 . S
Sc46 O64 2.105 . S
O47 Sc44 2.025 . S
O47 Sc45 2.025 . S
O47 Sc46 2.025 . S
C48 O54 1.268 . S
C48 O64 1.268 . S
C49 O55 1.268 . S
C49 O63 1.268 . S
C50 O56 1.268 . S
C50 O65 1.268 . S
C51 O57 1.268 . S
C51 O61 1.268 . S
C52 O58 1.268 . S
C52 O60 1.268 . S
C53 O59 1.268 . S
C53 O62 1.268 . S
O54 Sc44 2.105 . S
O54 C48 1.268 . S
O55 Sc45 2.105 . S
O55 C49 1.268 . S
O56 Sc46 2.105 . S
O56 C50 1.268 . S
O57 Sc44 2.105 . S
O57 C51 1.268 . S
O58 Sc46 2.105 . S
O58 C52 1.268 . S
O59 Sc45 2.105 . S
O59 C53 1.268 . S
O60 Sc44 2.105 . S
O60 C52 1.268 . S
O61 Sc45 2.105 . S
O61 C51 1.268 . S
O62 Sc46 2.105 . S
O62 C53 1.268 . S
O63 Sc44 2.105 . S
O63 C49 1.268 . S
O64 Sc46 2.105 . S
O64 C48 1.268 . S
O65 Sc45 2.105 . S
O65 C50 1.268 . S
Sc66 O69 2.025 . S
Sc66 O76 2.105 . S
Sc66 O79 2.105 . S
Sc66 O82 2.105 . S
Sc66 O85 2.105 . S
Sc67 O69 2.025 . S
Sc67 O77 2.105 . S
Sc67 O81 2.105 . S
Sc67 O83 2.105 . S
Sc67 O87 2.105 . S
Sc68 O69 2.025 . S
Sc68 O78 2.105 . S
Sc68 O80 2.105 . S
Sc68 O84 2.105 . S
Sc68 O86 2.105 . S
O69 Sc66 2.025 . S
O69 Sc67 2.025 . S
O69 Sc68 2.025 . S
C70 O76 1.268 . S
C70 O86 1.268 . S
C71 O77 1.268 . S
C71 O85 1.268 . S
C72 O78 1.268 . S
C72 O87 1.268 . S
C73 O79 1.268 . S
C73 O83 1.268 . S
C74 O80 1.268 . S
C74 O82 1.268 . S
C75 O81 1.268 . S
C75 O84 1.268 . S
O76 Sc66 2.105 . S
O76 C70 1.268 . S
O77 Sc67 2.105 . S
O77 C71 1.268 . S
O78 Sc68 2.105 . S
O78 C72 1.268 . S
O79 Sc66 2.105 . S
O79 C73 1.268 . S
O80 Sc68 2.105 . S
O80 C74 1.268 . S
O81 Sc67 2.105 . S
O81 C75 1.268 . S
O82 Sc66 2.105 . S
O82 C74 1.268 . S
O83 Sc67 2.105 . S
O83 C73 1.268 . S
O84 Sc68 2.105 . S
O84 C75 1.268 . S
O85 Sc66 2.105 . S
O85 C71 1.268 . S
O86 Sc68 2.105 . S
O86 C70 1.268 . S
O87 Sc67 2.105 . S
O87 C72 1.268 . S
Sc88 O91 2.025 . S
Sc88 O98 2.105 . S
Sc88 O101 2.105 . S
Sc88 O104 2.105 . S
Sc88 O107 2.105 . S
Sc89 O91 2.025 . S
Sc89 O99 2.105 1_556 S
Sc89 O103 2.105 . S
Sc89 O105 2.105 . S
Sc89 O109 2.111 . S
Sc90 O91 2.025 . S
Sc90 O100 2.105 . S
Sc90 O102 2.105 . S
Sc90 O106 2.105 . S
Sc90 O108 2.105 . S
O91 Sc88 2.025 . S
O91 Sc89 2.025 . S
O91 Sc90 2.025 . S
C92 O98 1.268 . S
C92 O108 1.268 . S
C93 O99 1.268 1_556 S
C93 O107 1.268 . S
C94 O100 1.268 . S
C94 O109 1.279 . S
C95 O101 1.268 . S
C95 O105 1.268 . S
C96 O102 1.268 . S
C96 O104 1.268 . S
C97 O103 1.268 . S
C97 O106 1.268 . S
O98 Sc88 2.105 . S
O98 C92 1.268 . S
O99 Sc89 2.105 1_554 S
O99 C93 1.268 1_554 S
O100 Sc90 2.105 . S
O100 C94 1.268 . S
O101 Sc88 2.105 . S
O101 C95 1.268 . S
O102 Sc90 2.105 . S
O102 C96 1.268 . S
O103 Sc89 2.105 . S
O103 C97 1.268 . S
O104 Sc88 2.105 . S
O104 C96 1.268 . S
O105 Sc89 2.105 . S
O105 C95 1.268 . S
O106 Sc90 2.105 . S
O106 C97 1.268 . S
O107 Sc88 2.105 . S
O107 C93 1.268 . S
O108 Sc90 2.105 . S
O108 C92 1.268 . S
O109 Sc89 2.111 . S
O109 C94 1.279 . S
Sc110 O113 2.025 . S
Sc110 O120 2.105 . S
Sc110 O123 2.105 . S
Sc110 O126 2.105 . S
Sc110 O129 2.105 . S
Sc111 O113 2.025 . S
Sc111 O121 2.111 . S
Sc111 O125 2.105 . S
Sc111 O127 2.105 . S
Sc111 O131 2.105 1_554 S
Sc112 O113 2.025 . S
Sc112 O122 2.105 . S
Sc112 O124 2.105 . S
Sc112 O128 2.105 . S
Sc112 O130 2.105 . S
O113 Sc110 2.025 . S
O113 Sc111 2.025 . S
O113 Sc112 2.025 . S
C114 O120 1.268 . S
C114 O130 1.268 . S
C115 O121 1.279 . S
C115 O129 1.268 . S
C116 O122 1.268 . S
C116 O131 1.268 1_554 S
C117 O123 1.268 . S
C117 O127 1.268 . S
C118 O124 1.268 . S
C118 O126 1.268 . S
C119 O125 1.268 . S
C119 O128 1.268 . S
O120 Sc110 2.105 . S
O120 C114 1.268 . S
O121 Sc111 2.111 . S
O121 C115 1.279 . S
O122 Sc112 2.105 . S
O122 C116 1.268 . S
O123 Sc110 2.105 . S
O123 C117 1.268 . S
O124 Sc112 2.105 . S
O124 C118 1.268 . S
O125 Sc111 2.105 . S
O125 C119 1.268 . S
O126 Sc110 2.105 . S
O126 C118 1.268 . S
O127 Sc111 2.105 . S
O127 C117 1.268 . S
O128 Sc112 2.105 . S
O128 C119 1.268 . S
O129 Sc110 2.105 . S
O129 C115 1.268 . S
O130 Sc112 2.105 . S
O130 C114 1.268 . S
O131 Sc111 2.105 1_556 S
O131 C116 1.268 1_556 S
Sc132 O135 2.025 . S
Sc132 O142 2.105 . S
Sc132 O145 2.105 . S
Sc132 O148 2.105 . S
Sc132 O151 2.105 . S
Sc133 O135 2.025 . S
Sc133 O143 2.105 . S
Sc133 O147 2.105 1_556 S
Sc133 O149 2.111 . S
Sc133 O153 2.105 . S
Sc134 O135 2.025 . S
Sc134 O144 2.105 . S
Sc134 O146 2.105 . S
Sc134 O150 2.105 . S
Sc134 O152 2.105 . S
O135 Sc132 2.025 . S
O135 Sc133 2.025 . S
O135 Sc134 2.025 . S
C136 O142 1.268 . S
C136 O152 1.268 . S
C137 O143 1.268 . S
C137 O151 1.268 . S
C138 O144 1.268 . S
C138 O153 1.268 . S
C139 O145 1.268 . S
C139 O149 1.279 . S
C140 O146 1.268 . S
C140 O148 1.268 . S
C141 O147 1.268 1_556 S
C141 O150 1.268 . S
O142 Sc132 2.105 . S
O142 C136 1.268 . S
O143 Sc133 2.105 . S
O143 C137 1.268 . S
O144 Sc134 2.105 . S
O144 C138 1.268 . S
O145 Sc132 2.105 . S
O145 C139 1.268 . S
O146 Sc134 2.105 . S
O146 C140 1.268 . S
O147 Sc133 2.105 1_554 S
O147 C141 1.268 1_554 S
O148 Sc132 2.105 . S
O148 C140 1.268 . S
O149 Sc133 2.111 . S
O149 C139 1.279 . S
O150 Sc134 2.105 . S
O150 C141 1.268 . S
O151 Sc132 2.105 . S
O151 C137 1.268 . S
O152 Sc134 2.105 . S
O152 C136 1.268 . S
O153 Sc133 2.105 . S
O153 C138 1.268 . S
Sc154 O157 2.025 . S
Sc154 O164 2.105 . S
Sc154 O167 2.105 . S
Sc154 O170 2.105 . S
Sc154 O173 2.105 . S
Sc155 O157 2.025 . S
Sc155 O165 2.105 . S
Sc155 O169 2.111 . S
Sc155 O171 2.105 1_554 S
Sc155 O175 2.105 . S
Sc156 O157 2.025 . S
Sc156 O166 2.105 . S
Sc156 O168 2.105 . S
Sc156 O172 2.105 . S
Sc156 O174 2.105 . S
O157 Sc154 2.025 . S
O157 Sc155 2.025 . S
O157 Sc156 2.025 . S
C158 O164 1.268 . S
C158 O174 1.268 . S
C159 O165 1.268 . S
C159 O173 1.268 . S
C160 O166 1.268 . S
C160 O175 1.268 . S
C161 O167 1.268 . S
C161 O171 1.268 1_554 S
C162 O168 1.268 . S
C162 O170 1.268 . S
C163 O169 1.279 . S
C163 O172 1.268 . S
O164 Sc154 2.105 . S
O164 C158 1.268 . S
O165 Sc155 2.105 . S
O165 C159 1.268 . S
O166 Sc156 2.105 . S
O166 C160 1.268 . S
O167 Sc154 2.105 . S
O167 C161 1.268 . S
O168 Sc156 2.105 . S
O168 C162 1.268 . S
O169 Sc155 2.111 . S
O169 C163 1.279 . S
O170 Sc154 2.105 . S
O170 C162 1.268 . S
O171 Sc155 2.105 1_556 S
O171 C161 1.268 1_556 S
O172 Sc156 2.105 . S
O172 C163 1.268 . S
O173 Sc154 2.105 . S
O173 C159 1.268 . S
O174 Sc156 2.105 . S
O174 C158 1.268 . S
O175 Sc155 2.105 . S
O175 C160 1.268 . S
Sc176 O179 2.025 . S
Sc176 O186 2.105 . S
Sc176 O189 2.105 . S
Sc176 O192 2.105 . S
Sc176 O195 2.105 . S
Sc177 O179 2.025 . S
Sc177 O187 2.105 . S
Sc177 O191 2.105 . S
Sc177 O193 2.105 . S
Sc177 O197 2.105 . S
Sc178 O179 2.025 . S
Sc178 O188 2.105 . S
Sc178 O190 2.105 . S
Sc178 O194 2.105 . S
Sc178 O196 2.105 . S
O179 Sc176 2.025 . S
O179 Sc177 2.025 . S
O179 Sc178 2.025 . S
C180 O186 1.268 . S
C180 O196 1.268 . S
C181 O187 1.268 . S
C181 O195 1.268 . S
C182 O188 1.268 . S
C182 O197 1.268 . S
C183 O189 1.268 . S
C183 O193 1.268 . S
C184 O190 1.268 . S
C184 O192 1.268 . S
C185 O191 1.268 . S
C185 O194 1.268 . S
O186 Sc176 2.105 . S
O186 C180 1.268 . S
O187 Sc177 2.105 . S
O187 C181 1.268 . S
O188 Sc178 2.105 . S
O188 C182 1.268 . S
O189 Sc176 2.105 . S
O189 C183 1.268 . S
O190 Sc178 2.105 . S
O190 C184 1.268 . S
O191 Sc177 2.105 . S
O191 C185 1.268 . S
O192 Sc176 2.105 . S
O192 C184 1.268 . S
O193 Sc177 2.105 . S
O193 C183 1.268 . S
O194 Sc178 2.105 . S
O194 C185 1.268 . S
O195 Sc176 2.105 . S
O195 C181 1.268 . S
O196 Sc178 2.105 . S
O196 C180 1.268 . S
O197 Sc177 2.105 . S
O197 C182 1.268 . S
Sc198 O201 2.025 . S
Sc198 O208 2.105 . S
Sc198 O211 2.105 . S
Sc198 O214 2.105 . S
Sc198 O217 2.105 . S
Sc199 O201 2.025 . S
Sc199 O209 2.105 . S
Sc199 O213 2.105 . S
Sc199 O215 2.105 . S
Sc199 O219 2.105 . S
Sc200 O201 2.025 . S
Sc200 O210 2.105 . S
Sc200 O212 2.105 . S
Sc200 O216 2.105 . S
Sc200 O218 2.105 . S
O201 Sc198 2.025 . S
O201 Sc199 2.025 . S
O201 Sc200 2.025 . S
C202 O208 1.268 . S
C202 O218 1.268 . S
C203 O209 1.268 . S
C203 O217 1.268 . S
C204 O210 1.268 . S
C204 O219 1.268 . S
C205 O211 1.268 . S
C205 O215 1.268 . S
C206 O212 1.268 . S
C206 O214 1.268 . S
C207 O213 1.268 . S
C207 O216 1.268 . S
O208 Sc198 2.105 . S
O208 C202 1.268 . S
O209 Sc199 2.105 . S
O209 C203 1.268 . S
O210 Sc200 2.105 . S
O210 C204 1.268 . S
O211 Sc198 2.105 . S
O211 C205 1.268 . S
O212 Sc200 2.105 . S
O212 C206 1.268 . S
O213 Sc199 2.105 . S
O213 C207 1.268 . S
O214 Sc198 2.105 . S
O214 C206 1.268 . S
O215 Sc199 2.105 . S
O215 C205 1.268 . S
O216 Sc200 2.105 . S
O216 C207 1.268 . S
O217 Sc198 2.105 . S
O217 C203 1.268 . S
O218 Sc200 2.105 . S
O218 C202 1.268 . S
O219 Sc199 2.105 . S
O219 C204 1.268 . S
Sc220 O223 2.025 . S
Sc220 O230 2.105 . S
Sc220 O233 2.105 . S
Sc220 O236 2.105 . S
Sc220 O239 2.105 . S
Sc221 O223 2.025 . S
Sc221 O231 2.105 . S
Sc221 O235 2.105 . S
Sc221 O237 2.105 . S
Sc221 O241 2.105 . S
Sc222 O223 2.025 . S
Sc222 O232 2.105 . S
Sc222 O234 2.105 . S
Sc222 O238 2.105 . S
Sc222 O240 2.105 . S
O223 Sc220 2.025 . S
O223 Sc221 2.025 . S
O223 Sc222 2.025 . S
C224 O230 1.268 . S
C224 O240 1.268 . S
C225 O231 1.268 . S
C225 O239 1.268 . S
C226 O232 1.268 . S
C226 O241 1.268 . S
C227 O233 1.268 . S
C227 O237 1.268 . S
C228 O234 1.268 . S
C228 O236 1.268 . S
C229 O235 1.268 . S
C229 O238 1.268 . S
O230 Sc220 2.105 . S
O230 C224 1.268 . S
O231 Sc221 2.105 . S
O231 C225 1.268 . S
O232 Sc222 2.105 . S
O232 C226 1.268 . S
O233 Sc220 2.105 . S
O233 C227 1.268 . S
O234 Sc222 2.105 . S
O234 C228 1.268 . S
O235 Sc221 2.105 . S
O235 C229 1.268 . S
O236 Sc220 2.105 . S
O236 C228 1.268 . S
O237 Sc221 2.105 . S
O237 C227 1.268 . S
O238 Sc222 2.105 . S
O238 C229 1.268 . S
O239 Sc220 2.105 . S
O239 C225 1.268 . S
O240 Sc222 2.105 . S
O240 C224 1.268 . S
O241 Sc221 2.105 . S
O241 C226 1.268 . S
Sc242 O245 2.025 . S
Sc242 O252 2.105 . S
Sc242 O255 2.105 . S
Sc242 O258 2.105 . S
Sc242 O261 2.105 . S
Sc243 O245 2.025 . S
Sc243 O253 2.105 . S
Sc243 O257 2.105 . S
Sc243 O259 2.105 . S
Sc243 O263 2.105 . S
Sc244 O245 2.025 . S
Sc244 O254 2.105 . S
Sc244 O256 2.105 . S
Sc244 O260 2.105 . S
Sc244 O262 2.105 . S
O245 Sc242 2.025 . S
O245 Sc243 2.025 . S
O245 Sc244 2.025 . S
C246 O252 1.268 . S
C246 O262 1.268 . S
C247 O253 1.268 . S
C247 O261 1.268 . S
C248 O254 1.268 . S
C248 O263 1.268 . S
C249 O255 1.268 . S
C249 O259 1.268 . S
C250 O256 1.268 . S
C250 O258 1.268 . S
C251 O257 1.268 . S
C251 O260 1.268 . S
O252 Sc242 2.105 . S
O252 C246 1.268 . S
O253 Sc243 2.105 . S
O253 C247 1.268 . S
O254 Sc244 2.105 . S
O254 C248 1.268 . S
O255 Sc242 2.105 . S
O255 C249 1.268 . S
O256 Sc244 2.105 . S
O256 C250 1.268 . S
O257 Sc243 2.105 . S
O257 C251 1.268 . S
O258 Sc242 2.105 . S
O258 C250 1.268 . S
O259 Sc243 2.105 . S
O259 C249 1.268 . S
O260 Sc244 2.105 . S
O260 C251 1.268 . S
O261 Sc242 2.105 . S
O261 C247 1.268 . S
O262 Sc244 2.105 . S
O262 C246 1.268 . S
O263 Sc243 2.105 . S
O263 C248 1.268 . S
Sc264 O267 2.025 . S
Sc264 O274 2.105 . S
Sc264 O277 2.105 . S
Sc264 O280 2.105 . S
Sc264 O283 2.105 . S
Sc265 O267 2.025 . S
Sc265 O275 2.105 . S
Sc265 O279 2.105 . S
Sc265 O281 2.105 . S
Sc265 O285 2.105 . S
Sc266 O267 2.025 . S
Sc266 O276 2.105 . S
Sc266 O278 2.105 . S
Sc266 O282 2.105 . S
Sc266 O284 2.105 . S
O267 Sc264 2.025 . S
O267 Sc265 2.025 . S
O267 Sc266 2.025 . S
C268 O274 1.268 . S
C268 O284 1.268 . S
C269 O275 1.268 . S
C269 O283 1.268 . S
C270 O276 1.268 . S
C270 O285 1.268 . S
C271 O277 1.268 . S
C271 O281 1.268 . S
C272 O278 1.268 . S
C272 O280 1.268 . S
C273 O279 1.268 . S
C273 O282 1.268 . S
O274 Sc264 2.105 . S
O274 C268 1.268 . S
O275 Sc265 2.105 . S
O275 C269 1.268 . S
O276 Sc266 2.105 . S
O276 C270 1.268 . S
O277 Sc264 2.105 . S
O277 C271 1.268 . S
O278 Sc266 2.105 . S
O278 C272 1.268 . S
O279 Sc265 2.105 . S
O279 C273 1.268 . S
O280 Sc264 2.105 . S
O280 C272 1.268 . S
O281 Sc265 2.105 . S
O281 C271 1.268 . S
O282 Sc266 2.105 . S
O282 C273 1.268 . S
O283 Sc264 2.105 . S
O283 C269 1.268 . S
O284 Sc266 2.105 . S
O284 C268 1.268 . S
O285 Sc265 2.105 . S
O285 C270 1.268 . S
Sc286 O289 2.025 . S
Sc286 O296 2.105 . S
Sc286 O299 2.105 . S
Sc286 O302 2.105 . S
Sc286 O305 2.105 . S
Sc287 O289 2.025 . S
Sc287 O297 2.105 . S
Sc287 O301 2.105 . S
Sc287 O303 2.105 . S
Sc287 O307 2.105 . S
Sc288 O289 2.025 . S
Sc288 O298 2.105 . S
Sc288 O300 2.105 . S
Sc288 O304 2.105 . S
Sc288 O306 2.105 . S
O289 Sc286 2.025 . S
O289 Sc287 2.025 . S
O289 Sc288 2.025 . S
C290 O296 1.268 . S
C290 O306 1.268 . S
C291 O297 1.268 . S
C291 O305 1.268 . S
C292 O298 1.268 . S
C292 O307 1.268 . S
C293 O299 1.268 . S
C293 O303 1.268 . S
C294 O300 1.268 . S
C294 O302 1.268 . S
C295 O301 1.268 . S
C295 O304 1.268 . S
O296 Sc286 2.105 . S
O296 C290 1.268 . S
O297 Sc287 2.105 . S
O297 C291 1.268 . S
O298 Sc288 2.105 . S
O298 C292 1.268 . S
O299 Sc286 2.105 . S
O299 C293 1.268 . S
O300 Sc288 2.105 . S
O300 C294 1.268 . S
O301 Sc287 2.105 . S
O301 C295 1.268 . S
O302 Sc286 2.105 . S
O302 C294 1.268 . S
O303 Sc287 2.105 . S
O303 C293 1.268 . S
O304 Sc288 2.105 . S
O304 C295 1.268 . S
O305 Sc286 2.105 . S
O305 C291 1.268 . S
O306 Sc288 2.105 . S
O306 C290 1.268 . S
O307 Sc287 2.105 . S
O307 C292 1.268 . S
Sc308 O311 2.025 . S
Sc308 O318 2.105 . S
Sc308 O321 2.105 . S
Sc308 O324 2.105 . S
Sc308 O327 2.105 . S
Sc309 O311 2.025 . S
Sc309 O319 2.105 . S
Sc309 O323 2.105 . S
Sc309 O325 2.105 . S
Sc309 O329 2.105 . S
Sc310 O311 2.025 . S
Sc310 O320 2.105 . S
Sc310 O322 2.105 . S
Sc310 O326 2.105 . S
Sc310 O328 2.105 . S
O311 Sc308 2.025 . S
O311 Sc309 2.025 . S
O311 Sc310 2.025 . S
C312 O318 1.268 . S
C312 O328 1.268 . S
C313 O319 1.268 . S
C313 O327 1.268 . S
C314 O320 1.268 . S
C314 O329 1.268 . S
C315 O321 1.268 . S
C315 O325 1.268 . S
C316 O322 1.268 . S
C316 O324 1.268 . S
C317 O323 1.268 . S
C317 O326 1.268 . S
O318 Sc308 2.105 . S
O318 C312 1.268 . S
O319 Sc309 2.105 . S
O319 C313 1.268 . S
O320 Sc310 2.105 . S
O320 C314 1.268 . S
O321 Sc308 2.105 . S
O321 C315 1.268 . S
O322 Sc310 2.105 . S
O322 C316 1.268 . S
O323 Sc309 2.105 . S
O323 C317 1.268 . S
O324 Sc308 2.105 . S
O324 C316 1.268 . S
O325 Sc309 2.105 . S
O325 C315 1.268 . S
O326 Sc310 2.105 . S
O326 C317 1.268 . S
O327 Sc308 2.105 . S
O327 C313 1.268 . S
O328 Sc310 2.105 . S
O328 C312 1.268 . S
O329 Sc309 2.105 . S
O329 C314 1.268 . S
Sc330 O333 2.025 . S
Sc330 O340 2.105 . S
Sc330 O343 2.105 . S
Sc330 O346 2.105 . S
Sc330 O349 2.105 . S
Sc331 O333 2.025 . S
Sc331 O341 2.105 . S
Sc331 O345 2.105 . S
Sc331 O347 2.105 . S
Sc331 O351 2.105 . S
Sc332 O333 2.025 . S
Sc332 O342 2.105 . S
Sc332 O344 2.105 . S
Sc332 O348 2.105 . S
Sc332 O350 2.105 . S
O333 Sc330 2.025 . S
O333 Sc331 2.025 . S
O333 Sc332 2.025 . S
C334 O340 1.268 . S
C334 O350 1.268 . S
C335 O341 1.268 . S
C335 O349 1.268 . S
C336 O342 1.268 . S
C336 O351 1.268 . S
C337 O343 1.268 . S
C337 O347 1.268 . S
C338 O344 1.268 . S
C338 O346 1.268 . S
C339 O345 1.268 . S
C339 O348 1.268 . S
O340 Sc330 2.105 . S
O340 C334 1.268 . S
O341 Sc331 2.105 . S
O341 C335 1.268 . S
O342 Sc332 2.105 . S
O342 C336 1.268 . S
O343 Sc330 2.105 . S
O343 C337 1.268 . S
O344 Sc332 2.105 . S
O344 C338 1.268 . S
O345 Sc331 2.105 . S
O345 C339 1.268 . S
O346 Sc330 2.105 . S
O346 C338 1.268 . S
O347 Sc331 2.105 . S
O347 C337 1.268 . S
O348 Sc332 2.105 . S
O348 C339 1.268 . S
O349 Sc330 2.105 . S
O349 C335 1.268 . S
O350 Sc332 2.105 . S
O350 C334 1.268 . S
O351 Sc331 2.105 . S
O351 C336 1.268 . S
H352 C358 0.930 . S
H353 C361 0.930 . S
H354 C362 0.930 . S
H355 C363 0.930 . S
H356 C366 0.930 . S
H357 C367 0.930 . S
C358 H352 0.930 . S
C358 C359 1.355 . S
C358 C360 1.415 . S
C359 C358 1.355 . S
C359 C361 1.419 . S
C360 C358 1.415 . S
C360 C365 1.425 . S
C360 C367 1.409 1_565 S
C361 H353 0.930 . S
C361 C359 1.419 . S
C361 C362 1.362 . S
C362 H354 0.930 . S
C362 C361 1.362 . S
C362 C365 1.409 . S
C363 H355 0.930 . S
C363 C364 1.355 . S
C363 C365 1.415 1_545 S
C364 C363 1.355 . S
C364 C366 1.419 . S
C365 C360 1.425 . S
C365 C362 1.409 . S
C365 C363 1.415 1_565 S
C366 H356 0.930 . S
C366 C364 1.419 . S
C366 C367 1.362 . S
C367 H357 0.930 . S
C367 C360 1.409 1_545 S
C367 C366 1.362 . S
H368 C374 0.930 . S
H369 C377 0.930 . S
H370 C378 0.930 . S
H371 C379 0.930 . S
H372 C382 0.930 . S
H373 C383 0.930 . S
C374 H368 0.930 . S
C374 C375 1.355 . S
C374 C376 1.415 1_455 S
C375 C374 1.355 . S
C375 C377 1.419 . S
C376 C374 1.415 1_655 S
C376 C381 1.425 . S
C376 C383 1.409 . S
C377 H369 0.930 . S
C377 C375 1.419 . S
C377 C378 1.362 1_455 S
C378 H370 0.930 . S
C378 C377 1.362 1_655 S
C378 C381 1.409 . S
C379 H371 0.930 . S
C379 C380 1.355 . S
C379 C381 1.415 . S
C380 C379 1.355 . S
C380 C382 1.419 . S
C381 C376 1.425 . S
C381 C378 1.409 . S
C381 C379 1.415 . S
C382 H372 0.930 . S
C382 C380 1.419 . S
C382 C383 1.362 . S
C383 H373 0.930 . S
C383 C376 1.409 . S
C383 C382 1.362 . S
H384 C390 0.930 . S
H385 C393 0.930 . S
H386 C394 0.930 . S
H387 C395 0.930 . S
H388 C398 0.930 . S
H389 C399 0.930 . S
C390 H384 0.930 . S
C390 C391 1.355 . S
C390 C392 1.415 1_565 S
C391 C390 1.355 . S
C391 C393 1.419 . S
C392 C390 1.415 1_545 S
C392 C397 1.425 . S
C392 C399 1.409 . S
C393 H385 0.930 . S
C393 C391 1.419 . S
C393 C394 1.362 1_565 S
C394 H386 0.930 . S
C394 C393 1.362 1_545 S
C394 C397 1.409 . S
C395 H387 0.930 . S
C395 C396 1.355 . S
C395 C397 1.415 . S
C396 C395 1.355 . S
C396 C398 1.419 . S
C397 C392 1.425 . S
C397 C394 1.409 . S
C397 C395 1.415 . S
C398 H388 0.930 . S
C398 C396 1.419 . S
C398 C399 1.362 . S
C399 H389 0.930 . S
C399 C392 1.409 . S
C399 C398 1.362 . S
H400 C406 0.930 . S
H401 C409 0.930 . S
H402 C410 0.930 . S
H403 C411 0.930 . S
H404 C414 0.930 . S
H405 C415 0.930 . S
C406 H400 0.930 . S
C406 C407 1.355 . S
C406 C408 1.415 . S
C407 C406 1.355 . S
C407 C409 1.419 . S
C408 C406 1.415 . S
C408 C413 1.425 . S
C408 C415 1.409 1_455 S
C409 H401 0.930 . S
C409 C407 1.419 . S
C409 C410 1.362 . S
C410 H402 0.930 . S
C410 C409 1.362 . S
C410 C413 1.409 . S
C411 H403 0.930 . S
C411 C412 1.355 . S
C411 C413 1.415 1_655 S
C412 C411 1.355 . S
C412 C414 1.419 . S
C413 C408 1.425 . S
C413 C410 1.409 . S
C413 C411 1.415 1_455 S
C414 H404 0.930 . S
C414 C412 1.419 . S
C414 C415 1.362 . S
C415 H405 0.930 . S
C415 C408 1.409 1_655 S
C415 C414 1.362 . S
H416 C422 0.931 . S
H417 C425 0.930 . S
H418 C426 0.930 . S
H419 C427 0.930 . S
H420 C430 0.930 . S
H421 C431 0.930 . S
C422 H416 0.931 . S
C422 C423 1.355 . S
C422 C424 1.415 . S
C423 C422 1.355 . S
C423 C425 1.419 . S
C424 C422 1.415 . S
C424 C429 1.425 . S
C424 C431 1.409 . S
C425 H417 0.930 . S
C425 C423 1.419 . S
C425 C426 1.362 . S
C426 H418 0.930 . S
C426 C425 1.362 . S
C426 C429 1.409 . S
C427 H419 0.930 . S
C427 C428 1.355 . S
C427 C429 1.415 . S
C428 C427 1.355 . S
C428 C430 1.419 . S
C429 C424 1.425 . S
C429 C426 1.409 . S
C429 C427 1.415 . S
C430 H420 0.930 . S
C430 C428 1.419 . S
C430 C431 1.362 . S
C431 H421 0.930 . S
C431 C424 1.409 . S
C431 C430 1.362 . S
H432 C438 0.930 . S
H433 C441 0.930 . S
H434 C442 0.930 . S
H435 C443 0.975 . S
H436 C446 0.930 . S
H437 C447 0.930 . S
C438 H432 0.930 . S
C438 C439 1.355 . S
C438 C440 1.415 . S
C439 C438 1.355 . S
C439 C441 1.419 1_556 S
C440 C438 1.415 . S
C440 C445 1.425 . S
C440 C447 1.409 . S
C441 H433 0.930 . S
C441 C439 1.419 1_554 S
C441 C442 1.362 . S
C442 H434 0.930 . S
C442 C441 1.362 . S
C442 C445 1.409 1_554 S
C443 H435 0.975 . S
C443 C444 1.355 . S
C443 C445 1.415 . S
C444 C443 1.355 . S
C444 C446 1.419 . S
C445 C440 1.425 . S
C445 C442 1.409 1_556 S
C445 C443 1.415 . S
C446 H436 0.930 . S
C446 C444 1.419 . S
C446 C447 1.362 . S
C447 H437 0.930 . S
C447 C440 1.409 . S
C447 C446 1.362 . S
H448 C454 0.930 . S
H449 C457 0.930 1_556 S
H450 C458 0.930 . S
H451 C459 0.930 . S
H452 C462 0.930 . S
H453 C463 0.930 . S
C454 H448 0.930 . S
C454 C455 1.355 . S
C454 C456 1.415 . S
C455 C454 1.355 . S
C455 C457 1.419 . S
C456 C454 1.415 . S
C456 C461 1.425 . S
C456 C463 1.409 . S
C457 H449 0.930 1_554 S
C457 C455 1.419 . S
C457 C458 1.362 1_554 S
C458 H450 0.930 . S
C458 C457 1.362 1_556 S
C458 C461 1.409 1_556 S
C459 H451 0.930 . S
C459 C460 1.355 1_556 S
C459 C461 1.415 1_556 S
C460 C459 1.355 1_554 S
C460 C462 1.419 . S
C461 C456 1.425 . S
C461 C458 1.409 1_554 S
C461 C459 1.415 1_554 S
C462 H452 0.930 . S
C462 C460 1.419 . S
C462 C463 1.362 . S
C463 H453 0.930 . S
C463 C456 1.409 . S
C463 C462 1.362 . S
H464 C470 0.930 . S
H465 C473 0.930 . S
H466 C474 0.930 . S
H467 C475 0.930 . S
H468 C478 0.930 . S
H469 C479 0.930 1_554 S
C470 H464 0.930 . S
C470 C471 1.355 . S
C470 C472 1.415 . S
C471 C470 1.355 . S
C471 C473 1.419 . S
C472 C470 1.415 . S
C472 C477 1.425 . S
C472 C479 1.409 . S
C473 H465 0.930 . S
C473 C471 1.419 . S
C473 C474 1.362 . S
C474 H466 0.930 . S
C474 C473 1.362 . S
C474 C477 1.409 . S
C475 H467 0.930 . S
C475 C476 1.355 . S
C475 C477 1.415 . S
C476 C475 1.355 . S
C476 C478 1.419 1_556 S
C477 C472 1.425 . S
C477 C474 1.409 . S
C477 C475 1.415 . S
C478 H468 0.930 . S
C478 C476 1.419 1_554 S
C478 C479 1.362 1_554 S
C479 H469 0.930 1_556 S
C479 C472 1.409 . S
C479 C478 1.362 1_556 S
H480 C486 0.930 . S
H481 C489 0.930 . S
H482 C490 0.930 . S
H483 C491 0.930 . S
H484 C494 0.930 . S
H485 C495 0.930 . S
C486 H480 0.930 . S
C486 C487 1.355 . S
C486 C488 1.415 . S
C487 C486 1.355 . S
C487 C489 1.419 . S
C488 C486 1.415 . S
C488 C493 1.425 . S
C488 C495 1.409 . S
C489 H481 0.930 . S
C489 C487 1.419 . S
C489 C490 1.362 . S
C490 H482 0.930 . S
C490 C489 1.362 . S
C490 C493 1.409 . S
C491 H483 0.930 . S
C491 C492 1.355 . S
C491 C493 1.415 . S
C492 C491 1.355 . S
C492 C494 1.419 . S
C493 C488 1.425 . S
C493 C490 1.409 . S
C493 C491 1.415 . S
C494 H484 0.930 . S
C494 C492 1.419 . S
C494 C495 1.362 . S
C495 H485 0.930 . S
C495 C488 1.409 . S
C495 C494 1.362 . S
H496 C502 0.930 . S
H497 C505 0.930 . S
H498 C506 0.930 . S
H499 C507 0.930 . S
H500 C510 0.930 . S
H501 C511 0.930 . S
C502 H496 0.930 . S
C502 C503 1.355 . S
C502 C504 1.415 . S
C503 C502 1.355 . S
C503 C505 1.419 . S
C504 C502 1.415 . S
C504 C509 1.425 . S
C504 C511 1.409 . S
C505 H497 0.930 . S
C505 C503 1.419 . S
C505 C506 1.362 . S
C506 H498 0.930 . S
C506 C505 1.362 . S
C506 C509 1.409 . S
C507 H499 0.930 . S
C507 C508 1.355 . S
C507 C509 1.415 . S
C508 C507 1.355 . S
C508 C510 1.419 . S
C509 C504 1.425 . S
C509 C506 1.409 . S
C509 C507 1.415 . S
C510 H500 0.930 . S
C510 C508 1.419 . S
C510 C511 1.362 . S
C511 H501 0.930 . S
C511 C504 1.409 . S
C511 C510 1.362 . S
H512 C518 0.930 . S
H513 C521 0.930 . S
H514 C522 0.930 . S
H515 C523 0.930 . S
H516 C526 0.930 . S
H517 C527 0.930 . S
C518 H512 0.930 . S
C518 C519 1.355 . S
C518 C520 1.415 . S
C519 C518 1.355 . S
C519 C521 1.419 . S
C520 C518 1.415 . S
C520 C525 1.425 . S
C520 C527 1.409 . S
C521 H513 0.930 . S
C521 C519 1.419 . S
C521 C522 1.362 . S
C522 H514 0.930 . S
C522 C521 1.362 . S
C522 C525 1.409 . S
C523 H515 0.930 . S
C523 C524 1.355 . S
C523 C525 1.415 . S
C524 C523 1.355 . S
C524 C526 1.419 . S
C525 C520 1.425 . S
C525 C522 1.409 . S
C525 C523 1.415 . S
C526 H516 0.930 . S
C526 C524 1.419 . S
C526 C527 1.362 . S
C527 H517 0.930 . S
C527 C520 1.409 . S
C527 C526 1.362 . S
H528 C534 0.930 . S
H529 C537 0.930 . S
H530 C538 0.930 . S
H531 C539 0.930 . S
H532 C542 0.930 . S
H533 C543 0.930 . S
C534 H528 0.930 . S
C534 C535 1.355 . S
C534 C536 1.415 . S
C535 C534 1.355 . S
C535 C537 1.419 . S
C536 C534 1.415 . S
C536 C541 1.425 . S
C536 C543 1.409 . S
C537 H529 0.930 . S
C537 C535 1.419 . S
C537 C538 1.362 . S
C538 H530 0.930 . S
C538 C537 1.362 . S
C538 C541 1.409 . S
C539 H531 0.930 . S
C539 C540 1.355 . S
C539 C541 1.415 . S
C540 C539 1.355 . S
C540 C542 1.419 . S
C541 C536 1.425 . S
C541 C538 1.409 . S
C541 C539 1.415 . S
C542 H532 0.930 . S
C542 C540 1.419 . S
C542 C543 1.362 . S
C543 H533 0.930 . S
C543 C536 1.409 . S
C543 C542 1.362 . S
H544 C550 0.930 . S
H545 C553 0.930 . S
H546 C554 0.930 . S
H547 C555 0.930 . S
H548 C558 0.930 . S
H549 C559 0.930 . S
C550 H544 0.930 . S
C550 C551 1.355 . S
C550 C552 1.415 1_565 S
C551 C550 1.355 . S
C551 C553 1.419 . S
C552 C550 1.415 1_545 S
C552 C557 1.425 . S
C552 C559 1.409 . S
C553 H545 0.930 . S
C553 C551 1.419 . S
C553 C554 1.362 1_565 S
C554 H546 0.930 . S
C554 C553 1.362 1_545 S
C554 C557 1.409 . S
C555 H547 0.930 . S
C555 C556 1.355 . S
C555 C557 1.415 . S
C556 C555 1.355 . S
C556 C558 1.419 . S
C557 C552 1.425 . S
C557 C554 1.409 . S
C557 C555 1.415 . S
C558 H548 0.930 . S
C558 C556 1.419 . S
C558 C559 1.362 . S
C559 H549 0.930 . S
C559 C552 1.409 . S
C559 C558 1.362 . S
H560 C566 0.930 . S
H561 C569 0.930 . S
H562 C570 0.930 . S
H563 C571 0.930 . S
H564 C574 0.930 . S
H565 C575 0.930 . S
C566 H560 0.930 . S
C566 C567 1.355 . S
C566 C568 1.415 . S
C567 C566 1.355 . S
C567 C569 1.419 . S
C568 C566 1.415 . S
C568 C573 1.425 . S
C568 C575 1.409 1_455 S
C569 H561 0.930 . S
C569 C567 1.419 . S
C569 C570 1.362 . S
C570 H562 0.930 . S
C570 C569 1.362 . S
C570 C573 1.409 . S
C571 H563 0.930 . S
C571 C572 1.355 . S
C571 C573 1.415 1_655 S
C572 C571 1.355 . S
C572 C574 1.419 . S
C573 C568 1.425 . S
C573 C570 1.409 . S
C573 C571 1.415 1_455 S
C574 H564 0.930 . S
C574 C572 1.419 . S
C574 C575 1.362 . S
C575 H565 0.930 . S
C575 C568 1.409 1_655 S
C575 C574 1.362 . S
H576 C582 0.930 . S
H577 C585 0.930 . S
H578 C586 0.930 . S
H579 C587 0.930 . S
H580 C590 0.930 . S
H581 C591 0.930 . S
C582 H576 0.930 . S
C582 C583 1.355 . S
C582 C584 1.415 . S
C583 C582 1.355 . S
C583 C585 1.419 . S
C584 C582 1.415 . S
C584 C589 1.425 . S
C584 C591 1.409 . S
C585 H577 0.930 . S
C585 C583 1.419 . S
C585 C586 1.362 . S
C586 H578 0.930 . S
C586 C585 1.362 . S
C586 C589 1.409 . S
C587 H579 0.930 . S
C587 C588 1.355 . S
C587 C589 1.415 1_545 S
C588 C587 1.355 . S
C588 C590 1.419 . S
C589 C584 1.425 . S
C589 C586 1.409 . S
C589 C587 1.415 1_565 S
C590 H580 0.930 . S
C590 C588 1.419 . S
C590 C591 1.362 1_545 S
C591 H581 0.930 . S
C591 C584 1.409 . S
C591 C590 1.362 1_565 S
H592 C598 0.930 . S
H593 C601 0.930 . S
H594 C602 0.930 . S
H595 C603 0.930 . S
H596 C606 0.930 . S
H597 C607 0.930 . S
C598 H592 0.930 . S
C598 C599 1.355 . S
C598 C600 1.415 1_455 S
C599 C598 1.355 . S
C599 C601 1.419 . S
C600 C598 1.415 1_655 S
C600 C605 1.425 . S
C600 C607 1.409 . S
C601 H593 0.930 . S
C601 C599 1.419 . S
C601 C602 1.362 . S
C602 H594 0.930 . S
C602 C601 1.362 . S
C602 C605 1.409 1_455 S
C603 H595 0.930 . S
C603 C604 1.355 . S
C603 C605 1.415 . S
C604 C603 1.355 . S
C604 C606 1.419 . S
C605 C600 1.425 . S
C605 C602 1.409 1_655 S
C605 C603 1.415 . S
C606 H596 0.930 . S
C606 C604 1.419 . S
C606 C607 1.362 . S
C607 H597 0.930 . S
C607 C600 1.409 . S
C607 C606 1.362 . S
H608 C614 0.930 . S
H609 C617 0.930 . S
H610 C618 0.930 . S
H611 C619 0.930 . S
H612 C622 0.930 . S
H613 C623 0.930 . S
C614 H608 0.930 . S
C614 C615 1.355 . S
C614 C616 1.415 . S
C615 C614 1.355 . S
C615 C617 1.419 . S
C616 C614 1.415 . S
C616 C621 1.425 . S
C616 C623 1.409 . S
C617 H609 0.930 . S
C617 C615 1.419 . S
C617 C618 1.362 . S
C618 H610 0.930 . S
C618 C617 1.362 . S
C618 C621 1.409 . S
C619 H611 0.930 . S
C619 C620 1.355 . S
C619 C621 1.415 . S
C620 C619 1.355 . S
C620 C622 1.419 . S
C621 C616 1.425 . S
C621 C618 1.409 . S
C621 C619 1.415 . S
C622 H612 0.930 . S
C622 C620 1.419 . S
C622 C623 1.362 . S
C623 H613 0.930 . S
C623 C616 1.409 . S
C623 C622 1.362 . S
H624 C630 0.930 . S
H625 C633 0.930 . S
H626 C634 0.930 . S
H627 C635 0.930 . S
H628 C638 0.930 . S
H629 C639 0.930 . S
C630 H624 0.930 . S
C630 C631 1.355 . S
C630 C632 1.415 . S
C631 C630 1.355 . S
C631 C633 1.419 . S
C632 C630 1.415 . S
C632 C637 1.425 . S
C632 C639 1.409 . S
C633 H625 0.930 . S
C633 C631 1.419 . S
C633 C634 1.362 . S
C634 H626 0.930 . S
C634 C633 1.362 . S
C634 C637 1.409 . S
C635 H627 0.930 . S
C635 C636 1.355 . S
C635 C637 1.415 . S
C636 C635 1.355 . S
C636 C638 1.419 . S
C637 C632 1.425 . S
C637 C634 1.409 . S
C637 C635 1.415 . S
C638 H628 0.930 . S
C638 C636 1.419 . S
C638 C639 1.362 . S
C639 H629 0.930 . S
C639 C632 1.409 . S
C639 C638 1.362 . S
H640 C646 0.930 . S
H641 C649 0.930 . S
H642 C650 0.930 . S
H643 C651 0.930 . S
H644 C654 0.930 . S
H645 C655 0.930 . S
C646 H640 0.930 . S
C646 C647 1.355 . S
C646 C648 1.415 . S
C647 C646 1.355 . S
C647 C649 1.419 . S
C648 C646 1.415 . S
C648 C653 1.425 . S
C648 C655 1.409 . S
C649 H641 0.930 . S
C649 C647 1.419 . S
C649 C650 1.362 . S
C650 H642 0.930 . S
C650 C649 1.362 . S
C650 C653 1.409 . S
C651 H643 0.930 . S
C651 C652 1.355 . S
C651 C653 1.415 . S
C652 C651 1.355 . S
C652 C654 1.419 . S
C653 C648 1.425 . S
C653 C650 1.409 . S
C653 C651 1.415 . S
C654 H644 0.930 . S
C654 C652 1.419 . S
C654 C655 1.362 . S
C655 H645 0.930 . S
C655 C648 1.409 . S
C655 C654 1.362 . S
H656 C662 0.930 . S
H657 C665 0.930 . S
H658 C666 0.930 . S
H659 C667 0.930 . S
H660 C670 0.930 . S
H661 C671 0.930 . S
C662 H656 0.930 . S
C662 C663 1.355 . S
C662 C664 1.415 . S
C663 C662 1.355 . S
C663 C665 1.419 . S
C664 C662 1.415 . S
C664 C669 1.425 . S
C664 C671 1.409 . S
C665 H657 0.930 . S
C665 C663 1.419 . S
C665 C666 1.362 . S
C666 H658 0.930 . S
C666 C665 1.362 . S
C666 C669 1.409 . S
C667 H659 0.930 . S
C667 C668 1.355 . S
C667 C669 1.415 . S
C668 C667 1.355 . S
C668 C670 1.419 . S
C669 C664 1.425 . S
C669 C666 1.409 . S
C669 C667 1.415 . S
C670 H660 0.930 . S
C670 C668 1.419 . S
C670 C671 1.362 . S
C671 H661 0.930 . S
C671 C664 1.409 . S
C671 C670 1.362 . S
H672 C678 0.930 . S
H673 C681 0.930 . S
H674 C682 0.930 . S
H675 C683 0.930 . S
H676 C686 0.930 . S
H677 C687 0.930 . S
C678 H672 0.930 . S
C678 C679 1.355 . S
C678 C680 1.415 . S
C679 C678 1.355 . S
C679 C681 1.419 . S
C680 C678 1.415 . S
C680 C685 1.425 . S
C680 C687 1.409 . S
C681 H673 0.930 . S
C681 C679 1.419 . S
C681 C682 1.362 . S
C682 H674 0.930 . S
C682 C681 1.362 . S
C682 C685 1.409 . S
C683 H675 0.930 . S
C683 C684 1.355 . S
C683 C685 1.415 . S
C684 C683 1.355 . S
C684 C686 1.419 . S
C685 C680 1.425 . S
C685 C682 1.409 . S
C685 C683 1.415 . S
C686 H676 0.930 . S
C686 C684 1.419 . S
C686 C687 1.362 . S
C687 H677 0.930 . S
C687 C680 1.409 . S
C687 C686 1.362 . S
H688 C694 0.930 . S
H689 C697 0.930 . S
H690 C698 0.930 . S
H691 C699 0.930 . S
H692 C702 0.930 . S
H693 C703 0.930 . S
C694 H688 0.930 . S
C694 C695 1.355 . S
C694 C696 1.415 . S
C695 C694 1.355 . S
C695 C697 1.419 . S
C696 C694 1.415 . S
C696 C701 1.425 . S
C696 C703 1.409 . S
C697 H689 0.930 . S
C697 C695 1.419 . S
C697 C698 1.362 . S
C698 H690 0.930 . S
C698 C697 1.362 . S
C698 C701 1.409 . S
C699 H691 0.930 . S
C699 C700 1.355 . S
C699 C701 1.415 . S
C700 C699 1.355 . S
C700 C702 1.419 . S
C701 C696 1.425 . S
C701 C698 1.409 . S
C701 C699 1.415 . S
C702 H692 0.930 . S
C702 C700 1.419 . S
C702 C703 1.362 . S
C703 H693 0.930 . S
C703 C696 1.409 . S
C703 C702 1.362 . S
H704 C710 0.930 . S
H705 C713 0.930 . S
H706 C714 0.930 . S
H707 C715 0.930 . S
H708 C718 0.930 . S
H709 C719 0.930 . S
C710 H704 0.930 . S
C710 C711 1.355 . S
C710 C712 1.415 . S
C711 C710 1.355 . S
C711 C713 1.419 . S
C712 C710 1.415 . S
C712 C717 1.425 . S
C712 C719 1.409 . S
C713 H705 0.930 . S
C713 C711 1.419 . S
C713 C714 1.362 . S
C714 H706 0.930 . S
C714 C713 1.362 . S
C714 C717 1.409 . S
C715 H707 0.930 . S
C715 C716 1.355 . S
C715 C717 1.415 . S
C716 C715 1.355 . S
C716 C718 1.419 . S
C717 C712 1.425 . S
C717 C714 1.409 . S
C717 C715 1.415 . S
C718 H708 0.930 . S
C718 C716 1.419 . S
C718 C719 1.362 . S
C719 H709 0.930 . S
C719 C712 1.409 . S
C719 C718 1.362 . S
H720 C726 0.930 . S
H721 C729 0.930 . S
H722 C730 0.930 . S
H723 C731 0.930 . S
H724 C734 0.930 . S
H725 C735 0.930 . S
C726 H720 0.930 . S
C726 C727 1.355 . S
C726 C728 1.415 . S
C727 C726 1.355 . S
C727 C729 1.419 . S
C728 C726 1.415 . S
C728 C733 1.425 . S
C728 C735 1.409 . S
C729 H721 0.930 . S
C729 C727 1.419 . S
C729 C730 1.362 . S
C730 H722 0.930 . S
C730 C729 1.362 . S
C730 C733 1.409 . S
C731 H723 0.930 . S
C731 C732 1.355 . S
C731 C733 1.415 . S
C732 C731 1.355 . S
C732 C734 1.419 . S
C733 C728 1.425 . S
C733 C730 1.409 . S
C733 C731 1.415 . S
C734 H724 0.930 . S
C734 C732 1.419 . S
C734 C735 1.362 . S
C735 H725 0.930 . S
C735 C728 1.409 . S
C735 C734 1.362 . S
H736 C742 0.930 . S
H737 C745 0.930 . S
H738 C746 0.930 . S
H739 C747 0.930 . S
H740 C750 0.930 . S
H741 C751 0.930 . S
C742 H736 0.930 . S
C742 C743 1.355 . S
C742 C744 1.415 . S
C743 C742 1.355 . S
C743 C745 1.419 . S
C744 C742 1.415 . S
C744 C749 1.425 . S
C744 C751 1.409 . S
C745 H737 0.930 . S
C745 C743 1.419 . S
C745 C746 1.362 . S
C746 H738 0.930 . S
C746 C745 1.362 . S
C746 C749 1.409 . S
C747 H739 0.930 . S
C747 C748 1.355 . S
C747 C749 1.415 . S
C748 C747 1.355 . S
C748 C750 1.419 . S
C749 C744 1.425 . S
C749 C746 1.409 . S
C749 C747 1.415 . S
C750 H740 0.930 . S
C750 C748 1.419 . S
C750 C751 1.362 . S
C751 H741 0.930 . S
C751 C744 1.409 . S
C751 C750 1.362 . S
H752 C758 0.930 . S
H753 C761 0.930 . S
H754 C762 0.930 . S
H755 C763 0.930 . S
H756 C766 0.930 . S
H757 C767 0.930 . S
C758 H752 0.930 . S
C758 C759 1.355 . S
C758 C760 1.415 . S
C759 C758 1.355 . S
C759 C761 1.419 . S
C760 C758 1.415 . S
C760 C765 1.425 . S
C760 C767 1.409 . S
C761 H753 0.930 . S
C761 C759 1.419 . S
C761 C762 1.362 . S
C762 H754 0.930 . S
C762 C761 1.362 . S
C762 C765 1.409 . S
C763 H755 0.930 . S
C763 C764 1.355 . S
C763 C765 1.415 . S
C764 C763 1.355 . S
C764 C766 1.419 . S
C765 C760 1.425 . S
C765 C762 1.409 . S
C765 C763 1.415 . S
C766 H756 0.930 . S
C766 C764 1.419 . S
C766 C767 1.362 . S
C767 H757 0.930 . S
C767 C760 1.409 . S
C767 C766 1.362 . S
H768 C774 0.930 . S
H769 C777 0.930 . S
H770 C778 0.930 . S
H771 C779 0.930 . S
H772 C782 0.930 . S
H773 C783 0.930 . S
C774 H768 0.930 . S
C774 C775 1.355 . S
C774 C776 1.415 . S
C775 C774 1.355 . S
C775 C777 1.419 . S
C776 C774 1.415 . S
C776 C781 1.425 . S
C776 C783 1.409 . S
C777 H769 0.930 . S
C777 C775 1.419 . S
C777 C778 1.362 . S
C778 H770 0.930 . S
C778 C777 1.362 . S
C778 C781 1.409 . S
C779 H771 0.930 . S
C779 C780 1.355 . S
C779 C781 1.415 . S
C780 C779 1.355 . S
C780 C782 1.419 . S
C781 C776 1.425 . S
C781 C778 1.409 . S
C781 C779 1.415 . S
C782 H772 0.930 . S
C782 C780 1.419 . S
C782 C783 1.362 . S
C783 H773 0.930 . S
C783 C776 1.409 . S
C783 C782 1.362 . S
H784 C790 0.930 . S
H785 C793 0.930 . S
H786 C794 0.930 . S
H787 C795 0.930 . S
H788 C798 0.930 . S
H789 C799 0.930 . S
C790 H784 0.930 . S
C790 C791 1.355 . S
C790 C792 1.415 . S
C791 C790 1.355 . S
C791 C793 1.419 . S
C792 C790 1.415 . S
C792 C797 1.425 . S
C792 C799 1.409 . S
C793 H785 0.930 . S
C793 C791 1.419 . S
C793 C794 1.362 . S
C794 H786 0.930 . S
C794 C793 1.362 . S
C794 C797 1.409 . S
C795 H787 0.930 . S
C795 C796 1.355 . S
C795 C797 1.415 . S
C796 C795 1.355 . S
C796 C798 1.419 . S
C797 C792 1.425 . S
C797 C794 1.409 . S
C797 C795 1.415 . S
C798 H788 0.930 . S
C798 C796 1.419 . S
C798 C799 1.362 . S
C799 H789 0.930 . S
C799 C792 1.409 . S
C799 C798 1.362 . S
H800 C806 0.930 . S
H801 C809 0.930 . S
H802 C810 0.930 . S
H803 C811 0.930 . S
H804 C814 0.930 . S
H805 C815 0.930 . S
C806 H800 0.930 . S
C806 C807 1.355 . S
C806 C808 1.415 . S
C807 C806 1.355 . S
C807 C809 1.419 . S
C808 C806 1.415 . S
C808 C813 1.425 . S
C808 C815 1.409 . S
C809 H801 0.930 . S
C809 C807 1.419 . S
C809 C810 1.362 . S
C810 H802 0.930 . S
C810 C809 1.362 . S
C810 C813 1.409 . S
C811 H803 0.930 . S
C811 C812 1.355 . S
C811 C813 1.415 1_564 S
C812 C811 1.355 . S
C812 C814 1.415 1_554 S
C813 C808 1.425 . S
C813 C810 1.409 . S
C813 C811 1.415 1_546 S
C814 H804 0.930 . S
C814 C812 1.415 1_556 S
C814 C815 1.362 1_565 S
C815 H805 0.930 . S
C815 C808 1.409 . S
C815 C814 1.362 1_545 S
H816 C822 0.930 . S
H817 C825 0.930 . S
H818 C826 0.930 . S
H819 C827 0.930 . S
H820 C830 0.930 . S
H821 C831 0.930 . S
C822 H816 0.930 . S
C822 C823 1.355 . S
C822 C824 1.415 . S
C823 C822 1.355 . S
C823 C825 1.419 . S
C824 C822 1.415 . S
C824 C829 1.425 . S
C824 C831 1.409 1_554 S
C825 H817 0.930 . S
C825 C823 1.419 . S
C825 C826 1.362 . S
C826 H818 0.930 . S
C826 C825 1.362 . S
C826 C829 1.409 . S
C827 H819 0.930 . S
C827 C828 1.312 1_554 S
C827 C829 1.415 1_655 S
C828 C827 1.312 1_556 S
C828 C830 1.444 . S
C829 C824 1.425 . S
C829 C826 1.409 . S
C829 C827 1.415 1_455 S
C830 H820 0.930 . S
C830 C828 1.444 . S
C830 C831 1.362 1_655 S
C831 H821 0.930 . S
C831 C824 1.409 1_556 S
C831 C830 1.362 1_455 S
H832 C838 0.930 . S
H833 C841 0.930 . S
H834 C842 0.930 . S
H835 C843 0.930 . S
H836 C846 0.930 . S
H837 C847 0.937 . S
C838 H832 0.930 . S
C838 C839 1.355 1_556 S
C838 C840 1.415 1_545 S
C839 C838 1.355 1_554 S
C839 C841 1.419 . S
C840 C838 1.415 1_565 S
C840 C845 1.425 . S
C840 C847 1.409 . S
C841 H833 0.930 . S
C841 C839 1.419 . S
C841 C842 1.362 1_545 S
C842 H834 0.930 . S
C842 C841 1.362 1_565 S
C842 C845 1.409 1_554 S
C843 H835 0.930 . S
C843 C844 1.355 . S
C843 C845 1.415 . S
C844 C843 1.355 . S
C844 C846 1.419 . S
C845 C840 1.425 . S
C845 C842 1.409 1_556 S
C845 C843 1.415 . S
C846 H836 0.930 . S
C846 C844 1.419 . S
C846 C847 1.362 . S
C847 H837 0.937 . S
C847 C840 1.409 . S
C847 C846 1.362 . S
H848 C854 0.930 . S
H849 C857 0.930 . S
H850 C858 0.931 . S
H851 C859 0.930 . S
H852 C862 0.930 . S
H853 C863 0.930 . S
C854 H848 0.930 . S
C854 C855 1.339 1_556 S
C854 C856 1.415 1_456 S
C855 C854 1.339 1_554 S
C855 C857 1.461 . S
C856 C854 1.415 1_654 S
C856 C861 1.425 . S
C856 C863 1.409 1_554 S
C857 H849 0.930 . S
C857 C855 1.461 . S
C857 C858 1.357 1_455 S
C858 H850 0.931 . S
C858 C857 1.357 1_655 S
C858 C861 1.414 . S
C859 H851 0.930 . S
C859 C860 1.355 . S
C859 C861 1.415 . S
C860 C859 1.355 . S
C860 C862 1.419 . S
C861 C856 1.425 . S
C861 C858 1.414 . S
C861 C859 1.415 . S
C862 H852 0.930 . S
C862 C860 1.419 . S
C862 C863 1.362 1_554 S
C863 H853 0.930 . S
C863 C856 1.409 1_556 S
C863 C862 1.362 1_556 S
H864 C870 0.930 . S
H865 C873 0.930 . S
H866 C874 0.930 . S
H867 C875 0.930 . S
H868 C878 0.930 . S
H869 C879 0.930 . S
C870 H864 0.930 . S
C870 C871 1.355 . S
C870 C872 1.415 1_545 S
C871 C870 1.355 . S
C871 C873 1.419 . S
C872 C870 1.415 1_565 S
C872 C877 1.425 . S
C872 C879 1.409 . S
C873 H865 0.930 . S
C873 C871 1.419 . S
C873 C874 1.362 . S
C874 H866 0.930 . S
C874 C873 1.362 . S
C874 C877 1.409 1_545 S
C875 H867 0.930 . S
C875 C876 1.355 . S
C875 C877 1.415 . S
C876 C875 1.355 . S
C876 C878 1.419 . S
C877 C872 1.425 . S
C877 C874 1.409 1_565 S
C877 C875 1.415 . S
C878 H868 0.930 . S
C878 C876 1.419 . S
C878 C879 1.362 . S
C879 H869 0.930 . S
C879 C872 1.409 . S
C879 C878 1.362 . S
H880 C886 0.930 . S
H881 C889 0.930 . S
H882 C890 0.930 . S
H883 C891 0.930 . S
H884 C894 0.930 . S
H885 C895 0.930 . S
C886 H880 0.930 . S
C886 C887 1.355 . S
C886 C888 1.415 . S
C887 C886 1.355 . S
C887 C889 1.419 . S
C888 C886 1.415 . S
C888 C893 1.425 . S
C888 C895 1.409 1_655 S
C889 H881 0.930 . S
C889 C887 1.419 . S
C889 C890 1.362 . S
C890 H882 0.930 . S
C890 C889 1.362 . S
C890 C893 1.409 . S
C891 H883 0.930 . S
C891 C892 1.355 . S
C891 C893 1.415 1_455 S
C892 C891 1.355 . S
C892 C894 1.419 . S
C893 C888 1.425 . S
C893 C890 1.409 . S
C893 C891 1.415 1_655 S
C894 H884 0.930 . S
C894 C892 1.419 . S
C894 C895 1.362 . S
C895 H885 0.930 . S
C895 C888 1.409 1_455 S
C895 C894 1.362 . S
H896 C902 0.930 . S
H897 C905 0.930 . S
H898 C906 0.930 . S
H899 C907 0.930 . S
H900 C910 0.930 . S
H901 C911 0.930 . S
C902 H896 0.930 . S
C902 C903 1.355 . S
C902 C904 1.415 . S
C903 C902 1.355 . S
C903 C905 1.419 . S
C904 C902 1.415 . S
C904 C909 1.425 . S
C904 C911 1.409 . S
C905 H897 0.930 . S
C905 C903 1.419 . S
C905 C906 1.362 . S
C906 H898 0.930 . S
C906 C905 1.362 . S
C906 C909 1.409 . S
C907 H899 0.930 . S
C907 C908 1.355 . S
C907 C909 1.415 1_565 S
C908 C907 1.355 . S
C908 C910 1.419 . S
C909 C904 1.425 . S
C909 C906 1.409 . S
C909 C907 1.415 1_545 S
C910 H900 0.930 . S
C910 C908 1.419 . S
C910 C911 1.362 1_565 S
C911 H901 0.930 . S
C911 C904 1.409 . S
C911 C910 1.362 1_545 S
H912 C918 0.930 . S
H913 C921 0.930 . S
H914 C922 0.930 . S
H915 C923 0.930 . S
H916 C926 0.930 . S
H917 C927 0.930 . S
C918 H912 0.930 . S
C918 C919 1.355 . S
C918 C920 1.415 1_655 S
C919 C918 1.355 . S
C919 C921 1.419 . S
C920 C918 1.415 1_455 S
C920 C925 1.425 . S
C920 C927 1.409 . S
C921 H913 0.930 . S
C921 C919 1.419 . S
C921 C922 1.362 1_655 S
C922 H914 0.930 . S
C922 C921 1.362 1_455 S
C922 C925 1.409 . S
C923 H915 0.930 . S
C923 C924 1.355 . S
C923 C925 1.415 . S
C924 C923 1.355 . S
C924 C926 1.419 . S
C925 C920 1.425 . S
C925 C922 1.409 . S
C925 C923 1.415 . S
C926 H916 0.930 . S
C926 C924 1.419 . S
C926 C927 1.362 . S
C927 H917 0.930 . S
C927 C920 1.409 . S
C927 C926 1.362 . S
H928 C934 0.930 . S
H929 C937 0.930 . S
H930 C938 0.930 . S
H931 C939 0.930 . S
H932 C942 0.930 . S
H933 C943 0.930 . S
C934 H928 0.930 . S
C934 C935 1.355 . S
C934 C936 1.415 . S
C935 C934 1.355 . S
C935 C937 1.419 . S
C936 C934 1.415 . S
C936 C941 1.425 . S
C936 C943 1.409 . S
C937 H929 0.930 . S
C937 C935 1.419 . S
C937 C938 1.362 . S
C938 H930 0.930 . S
C938 C937 1.362 . S
C938 C941 1.409 . S
C939 H931 0.930 . S
C939 C940 1.355 . S
C939 C941 1.415 . S
C940 C939 1.355 . S
C940 C942 1.419 . S
C941 C936 1.425 . S
C941 C938 1.409 . S
C941 C939 1.415 . S
C942 H932 0.930 . S
C942 C940 1.419 . S
C942 C943 1.362 . S
C943 H933 0.930 . S
C943 C936 1.409 . S
C943 C942 1.362 . S
H944 C950 0.930 . S
H945 C953 0.930 . S
H946 C954 0.930 . S
H947 C955 0.930 . S
H948 C958 0.930 . S
H949 C959 0.930 . S
C950 H944 0.930 . S
C950 C951 1.355 . S
C950 C952 1.415 . S
C951 C950 1.355 . S
C951 C953 1.419 . S
C952 C950 1.415 . S
C952 C957 1.425 . S
C952 C959 1.409 . S
C953 H945 0.930 . S
C953 C951 1.419 . S
C953 C954 1.362 . S
C954 H946 0.930 . S
C954 C953 1.362 . S
C954 C957 1.409 . S
C955 H947 0.930 . S
C955 C956 1.355 . S
C955 C957 1.415 . S
C956 C955 1.355 . S
C956 C958 1.419 . S
C957 C952 1.425 . S
C957 C954 1.409 . S
C957 C955 1.415 . S
C958 H948 0.930 . S
C958 C956 1.419 . S
C958 C959 1.362 . S
C959 H949 0.930 . S
C959 C952 1.409 . S
C959 C958 1.362 . S
H960 C966 0.930 . S
H961 C969 0.930 . S
H962 C970 0.930 . S
H963 C971 0.930 . S
H964 C974 0.930 . S
H965 C975 0.930 . S
C966 H960 0.930 . S
C966 C967 1.355 . S
C966 C968 1.415 . S
C967 C966 1.355 . S
C967 C969 1.419 . S
C968 C966 1.415 . S
C968 C973 1.425 . S
C968 C975 1.409 . S
C969 H961 0.930 . S
C969 C967 1.419 . S
C969 C970 1.362 . S
C970 H962 0.930 . S
C970 C969 1.362 . S
C970 C973 1.409 . S
C971 H963 0.930 . S
C971 C972 1.355 . S
C971 C973 1.415 . S
C972 C971 1.355 . S
C972 C974 1.419 . S
C973 C968 1.425 . S
C973 C970 1.409 . S
C973 C971 1.415 . S
C974 H964 0.930 . S
C974 C972 1.419 . S
C974 C975 1.362 . S
C975 H965 0.930 . S
C975 C968 1.409 . S
C975 C974 1.362 . S
H976 C982 0.930 . S
H977 C985 0.930 . S
H978 C986 0.930 . S
H979 C987 0.930 . S
H980 C990 0.930 . S
H981 C991 0.930 . S
C982 H976 0.930 . S
C982 C983 1.355 . S
C982 C984 1.415 . S
C983 C982 1.355 . S
C983 C985 1.419 . S
C984 C982 1.415 . S
C984 C989 1.425 . S
C984 C991 1.409 . S
C985 H977 0.930 . S
C985 C983 1.419 . S
C985 C986 1.362 . S
C986 H978 0.930 . S
C986 C985 1.362 . S
C986 C989 1.409 . S
C987 H979 0.930 . S
C987 C988 1.355 . S
C987 C989 1.415 . S
C988 C987 1.355 . S
C988 C990 1.419 . S
C989 C984 1.425 . S
C989 C986 1.409 . S
C989 C987 1.415 . S
C990 H980 0.930 . S
C990 C988 1.419 . S
C990 C991 1.362 . S
C991 H981 0.930 . S
C991 C984 1.409 . S
C991 C990 1.362 . S
H992 C998 0.930 . S
H993 C1001 0.930 . S
H994 C1002 0.930 . S
H995 C1003 0.930 . S
H996 C1006 0.930 . S
H997 C1007 0.930 . S
C998 H992 0.930 . S
C998 C999 1.355 . S
C998 C1000 1.415 1_545 S
C999 C998 1.355 . S
C999 C1001 1.419 . S
C1000 C998 1.415 1_565 S
C1000 C1005 1.425 1_465 S
C1000 C1007 1.409 . S
C1001 H993 0.930 . S
C1001 C999 1.419 . S
C1001 C1002 1.362 1_455 S
C1002 H994 0.930 . S
C1002 C1001 1.362 1_655 S
C1002 C1005 1.409 . S
C1003 H995 0.930 . S
C1003 C1004 1.355 . S
C1003 C1005 1.415 1_565 S
C1004 C1003 1.355 . S
C1004 C1006 1.419 . S
C1005 C1000 1.425 1_645 S
C1005 C1002 1.409 . S
C1005 C1003 1.415 1_545 S
C1006 H996 0.930 . S
C1006 C1004 1.419 . S
C1006 C1007 1.362 1_655 S
C1007 H997 0.930 . S
C1007 C1000 1.409 . S
C1007 C1006 1.362 1_455 S
H1008 C1014 0.930 . S
H1009 C1017 0.930 . S
H1010 C1018 0.930 . S
H1011 C1019 0.930 . S
H1012 C1022 0.930 . S
H1013 C1023 0.930 . S
C1014 H1008 0.930 . S
C1014 C1015 1.355 . S
C1014 C1016 1.415 1_655 S
C1015 C1014 1.355 . S
C1015 C1017 1.419 . S
C1016 C1014 1.415 1_455 S
C1016 C1021 1.425 1_445 S
C1016 C1023 1.409 . S
C1017 H1009 0.930 . S
C1017 C1015 1.419 . S
C1017 C1018 1.362 1_545 S
C1018 H1010 0.930 . S
C1018 C1017 1.362 1_565 S
C1018 C1021 1.409 . S
C1019 H1011 0.930 . S
C1019 C1020 1.355 . S
C1019 C1021 1.415 1_455 S
C1020 C1019 1.355 . S
C1020 C1022 1.419 . S
C1021 C1016 1.425 1_665 S
C1021 C1018 1.409 . S
C1021 C1019 1.415 1_655 S
C1022 H1012 0.930 . S
C1022 C1020 1.419 . S
C1022 C1023 1.362 1_565 S
C1023 H1013 0.930 . S
C1023 C1016 1.409 . S
C1023 C1022 1.362 1_545 S
H1024 C1030 0.938 . S
H1025 C1033 0.930 . S
H1026 C1034 0.930 . S
H1027 C1035 0.938 . S
H1028 C1038 0.930 . S
H1029 C1039 0.930 . S
C1030 H1024 0.938 . S
C1030 C1031 1.355 . S
C1030 C1032 1.415 1_455 S
C1031 C1030 1.355 . S
C1031 C1033 1.419 . S
C1032 C1030 1.415 1_655 S
C1032 C1037 1.425 1_655 S
C1032 C1039 1.409 . S
C1033 H1025 0.930 . S
C1033 C1031 1.419 . S
C1033 C1034 1.362 . S
C1034 H1026 0.930 . S
C1034 C1033 1.362 . S
C1034 C1037 1.409 . S
C1035 H1027 0.938 . S
C1035 C1036 1.355 . S
C1035 C1037 1.415 1_655 S
C1036 C1035 1.355 . S
C1036 C1038 1.419 . S
C1037 C1032 1.425 1_455 S
C1037 C1034 1.409 . S
C1037 C1035 1.415 1_455 S
C1038 H1028 0.930 . S
C1038 C1036 1.419 . S
C1038 C1039 1.362 . S
C1039 H1029 0.930 . S
C1039 C1032 1.409 . S
C1039 C1038 1.362 . S
H1040 C1046 0.930 . S
H1041 C1049 0.930 . S
H1042 C1050 0.930 . S
H1043 C1051 0.930 . S
H1044 C1054 0.930 . S
H1045 C1055 0.930 . S
C1046 H1040 0.930 . S
C1046 C1047 1.355 . S
C1046 C1048 1.415 1_565 S
C1047 C1046 1.355 . S
C1047 C1049 1.419 . S
C1048 C1046 1.415 1_545 S
C1048 C1053 1.425 1_545 S
C1048 C1055 1.409 . S
C1049 H1041 0.930 . S
C1049 C1047 1.419 . S
C1049 C1050 1.362 . S
C1050 H1042 0.930 . S
C1050 C1049 1.362 . S
C1050 C1053 1.409 . S
C1051 H1043 0.930 . S
C1051 C1052 1.355 . S
C1051 C1053 1.415 1_545 S
C1052 C1051 1.355 . S
C1052 C1054 1.419 . S
C1053 C1048 1.425 1_565 S
C1053 C1050 1.409 . S
C1053 C1051 1.415 1_565 S
C1054 H1044 0.930 . S
C1054 C1052 1.419 . S
C1054 C1055 1.362 . S
C1055 H1045 0.930 . S
C1055 C1048 1.409 . S
C1055 C1054 1.362 . S
H1056 C1062 0.930 . S
H1057 C1065 0.930 . S
H1058 C1066 0.930 . S
H1059 C1067 0.930 . S
H1060 C1070 0.930 . S
H1061 C1071 0.930 . S
C1062 H1056 0.930 . S
C1062 C1063 1.355 . S
C1062 C1064 1.415 . S
C1063 C1062 1.355 . S
C1063 C1065 1.419 . S
C1064 C1062 1.415 . S
C1064 C1069 1.425 . S
C1064 C1071 1.409 . S
C1065 H1057 0.930 . S
C1065 C1063 1.419 . S
C1065 C1066 1.362 . S
C1066 H1058 0.930 . S
C1066 C1065 1.362 . S
C1066 C1069 1.409 . S
C1067 H1059 0.930 . S
C1067 C1068 1.355 . S
C1067 C1069 1.415 . S
C1068 C1067 1.355 . S
C1068 C1070 1.419 . S
C1069 C1064 1.425 . S
C1069 C1066 1.409 . S
C1069 C1067 1.415 . S
C1070 H1060 0.930 . S
C1070 C1068 1.419 . S
C1070 C1071 1.362 . S
C1071 H1061 0.930 . S
C1071 C1064 1.409 . S
C1071 C1070 1.362 . S
H1072 C1078 0.930 . S
H1073 C1081 0.930 . S
H1074 C1082 0.930 . S
H1075 C1083 0.930 . S
H1076 C1086 0.930 . S
H1077 C1087 0.930 . S
C1078 H1072 0.930 . S
C1078 C1079 1.355 . S
C1078 C1080 1.415 . S
C1079 C1078 1.355 . S
C1079 C1081 1.419 . S
C1080 C1078 1.415 . S
C1080 C1085 1.425 . S
C1080 C1087 1.409 . S
C1081 H1073 0.930 . S
C1081 C1079 1.419 . S
C1081 C1082 1.362 . S
C1082 H1074 0.930 . S
C1082 C1081 1.362 . S
C1082 C1085 1.409 . S
C1083 H1075 0.930 . S
C1083 C1084 1.355 . S
C1083 C1085 1.415 . S
C1084 C1083 1.355 . S
C1084 C1086 1.419 . S
C1085 C1080 1.425 . S
C1085 C1082 1.409 . S
C1085 C1083 1.415 . S
C1086 H1076 0.930 . S
C1086 C1084 1.419 . S
C1086 C1087 1.362 . S
C1087 H1077 0.930 . S
C1087 C1080 1.409 . S
C1087 C1086 1.362 . S
H1088 C1094 0.930 . S
H1089 C1097 0.930 . S
H1090 C1098 0.930 . S
H1091 C1099 0.930 . S
H1092 C1102 0.930 . S
H1093 C1103 0.930 . S
C1094 H1088 0.930 . S
C1094 C1095 1.355 . S
C1094 C1096 1.415 1_565 S
C1095 C1094 1.355 . S
C1095 C1097 1.419 . S
C1096 C1094 1.415 1_545 S
C1096 C1101 1.425 1_545 S
C1096 C1103 1.409 . S
C1097 H1089 0.930 . S
C1097 C1095 1.419 . S
C1097 C1098 1.362 . S
C1098 H1090 0.930 . S
C1098 C1097 1.362 . S
C1098 C1101 1.409 . S
C1099 H1091 0.930 . S
C1099 C1100 1.355 . S
C1099 C1101 1.415 1_545 S
C1100 C1099 1.355 . S
C1100 C1102 1.419 . S
C1101 C1096 1.425 1_565 S
C1101 C1098 1.409 . S
C1101 C1099 1.415 1_565 S
C1102 H1092 0.930 . S
C1102 C1100 1.419 . S
C1102 C1103 1.362 . S
C1103 H1093 0.930 . S
C1103 C1096 1.409 . S
C1103 C1102 1.362 . S
H1104 C1110 0.930 . S
H1105 C1113 0.930 . S
H1106 C1114 0.930 . S
H1107 C1115 0.930 . S
H1108 C1118 0.930 . S
H1109 C1119 0.930 . S
C1110 H1104 0.930 . S
C1110 C1111 1.355 . S
C1110 C1112 1.415 1_655 S
C1111 C1110 1.355 . S
C1111 C1113 1.419 . S
C1112 C1110 1.415 1_455 S
C1112 C1117 1.425 1_455 S
C1112 C1119 1.409 . S
C1113 H1105 0.930 . S
C1113 C1111 1.419 . S
C1113 C1114 1.362 . S
C1114 H1106 0.930 . S
C1114 C1113 1.362 . S
C1114 C1117 1.409 . S
C1115 H1107 0.930 . S
C1115 C1116 1.355 . S
C1115 C1117 1.415 1_455 S
C1116 C1115 1.355 . S
C1116 C1118 1.419 . S
C1117 C1112 1.425 1_655 S
C1117 C1114 1.409 . S
C1117 C1115 1.415 1_655 S
C1118 H1108 0.930 . S
C1118 C1116 1.419 . S
C1118 C1119 1.362 . S
C1119 H1109 0.930 . S
C1119 C1112 1.409 . S
C1119 C1118 1.362 . S
C359 C247 1.460 . S
C364 C9 1.446 . S
C375 C28 1.481 . S
C380 C182 1.474 . S
C391 C49 1.440 . S
C396 C207 1.505 . S
C407 C227 1.466 . S
C412 C73 1.431 . S
C423 C93 1.483 1_554 S
C428 C119 1.467 . S
C439 C116 1.403 1_556 S
C444 C138 1.500 . S
C455 C159 1.456 . S
C460 C141 1.470 1_554 S
C471 C95 1.485 . S
C476 C161 1.473 1_556 S
C487 C185 1.404 . S
C492 C71 1.502 . S
C503 C204 1.470 . S
C508 C6 1.456 . S
C519 C31 1.474 . S
C524 C225 1.481 . S
C535 C249 1.445 . S
C540 C51 1.460 . S
C551 C269 1.481 . S
C556 C295 1.473 . S
C567 C314 1.496 . S
C572 C292 1.403 . S
C583 C335 1.506 . S
C588 C317 1.408 . S
C599 C337 1.449 . S
C604 C271 1.459 . S
C615 C4 1.491 . S
C620 C312 1.444 . S
C631 C30 1.458 . S
C636 C334 1.490 . S
C647 C52 1.457 . S
C652 C272 1.414 . S
C663 C70 1.439 . S
C668 C294 1.420 . S
C679 C96 1.484 . S
C684 C228 1.427 . S
C695 C118 1.455 . S
C700 C246 1.491 . S
C711 C136 1.452 . S
C716 C180 1.491 . S
C727 C158 1.484 . S
C732 C206 1.472 . S
C743 C5 1.160 . S
C748 C251 1.230 . S
C759 C29 1.186 . S
C764 C183 1.178 . S
C775 C203 1.246 . S
C780 C53 1.186 . S
C791 C72 1.162 . S
C796 C226 1.210 . S
C807 C97 1.194 . S
C812 C115 1.249 . S
C823 C117 1.214 . S
C828 C139 1.268 . S
C839 C163 1.230 . S
C844 C137 1.223 . S
C855 C94 1.219 1_554 S
C860 C160 1.171 . S
C871 C75 1.213 . S
C876 C181 1.161 . S
C887 C205 1.160 . S
C892 C7 1.219 . S
C903 C229 1.216 . S
C908 C27 1.235 . S
C919 C50 1.199 . S
C924 C248 1.243 . S
C935 C273 1.165 . S
C940 C291 1.204 . S
C951 C293 1.223 . S
C956 C315 1.230 . S
C967 C339 1.218 . S
C972 C313 1.160 . S
C983 C270 1.168 . S
C988 C336 1.203 . S
C999 C8 1.728 . S
C1004 C48 1.737 . S
C1015 C74 1.733 . S
C1020 C26 1.733 . S
C1031 C92 1.732 . S
C1036 C140 1.724 . S
C1047 C114 1.724 . S
C1052 C162 1.732 . S
C1063 C184 1.736 . S
C1068 C224 1.722 . S
C1079 C250 1.725 . S
C1084 C202 1.739 . S
C1095 C268 1.725 . S
C1100 C316 1.739 . S
C1111 C290 1.727 . S
C1116 C338 1.737 . S
