# Generated by pormake.
# Topology wiu, (6)-cn, num edge types: 1
# Building blocks:
#     Node 0, Type 0, BuildingBlock: JUFBIX_clean_sbu_0, # of connection points: 6
#     Node 1, Type 0, BuildingBlock: JUFBIX_clean_sbu_0, # of connection points: 6
#     Node 2, Type 0, BuildingBlock: JUFBIX_clean_sbu_0, # of connection points: 6
#     Node 3, Type 0, BuildingBlock: JUFBIX_clean_sbu_0, # of connection points: 6
#     Node 4, Type 0, BuildingBlock: JUFBIX_clean_sbu_0, # of connection points: 6
#     Node 5, Type 0, BuildingBlock: JUFBIX_clean_sbu_0, # of connection points: 6
#     Node 6, Type 0, BuildingBlock: JUFBIX_clean_sbu_0, # of connection points: 6
#     Node 7, Type 0, BuildingBlock: JUFBIX_clean_sbu_0, # of connection points: 6
#     Node 8, Type 0, BuildingBlock: JUFBIX_clean_sbu_0, # of connection points: 6
#     Node 9, Type 0, BuildingBlock: JUFBIX_clean_sbu_0, # of connection points: 6
#     Node 10, Type 0, BuildingBlock: JUFBIX_clean_sbu_0, # of connection points: 6
#     Node 11, Type 0, BuildingBlock: JUFBIX_clean_sbu_0, # of connection points: 6
#     Node 12, Type 0, BuildingBlock: JUFBIX_clean_sbu_0, # of connection points: 6
#     Node 13, Type 0, BuildingBlock: JUFBIX_clean_sbu_0, # of connection points: 6
#     Node 14, Type 0, BuildingBlock: JUFBIX_clean_sbu_0, # of connection points: 6
#     Node 15, Type 0, BuildingBlock: JUFBIX_clean_sbu_0, # of connection points: 6
#     Edge 16, Type (0, 0), BuildingBlock: UVAHIK_clean_linker_0, # of connection points: 2
#     Edge 17, Type (0, 0), BuildingBlock: UVAHIK_clean_linker_0, # of connection points: 2
#     Edge 18, Type (0, 0), BuildingBlock: UVAHIK_clean_linker_0, # of connection points: 2
#     Edge 19, Type (0, 0), BuildingBlock: UVAHIK_clean_linker_0, # of connection points: 2
#     Edge 20, Type (0, 0), BuildingBlock: UVAHIK_clean_linker_0, # of connection points: 2
#     Edge 21, Type (0, 0), BuildingBlock: UVAHIK_clean_linker_0, # of connection points: 2
#     Edge 22, Type (0, 0), BuildingBlock: UVAHIK_clean_linker_0, # of connection points: 2
#     Edge 23, Type (0, 0), BuildingBlock: UVAHIK_clean_linker_0, # of connection points: 2
#     Edge 24, Type (0, 0), BuildingBlock: UVAHIK_clean_linker_0, # of connection points: 2
#     Edge 25, Type (0, 0), BuildingBlock: UVAHIK_clean_linker_0, # of connection points: 2
#     Edge 26, Type (0, 0), BuildingBlock: UVAHIK_clean_linker_0, # of connection points: 2
#     Edge 27, Type (0, 0), BuildingBlock: UVAHIK_clean_linker_0, # of connection points: 2
#     Edge 28, Type (0, 0), BuildingBlock: UVAHIK_clean_linker_0, # of connection points: 2
#     Edge 29, Type (0, 0), BuildingBlock: UVAHIK_clean_linker_0, # of connection points: 2
#     Edge 30, Type (0, 0), BuildingBlock: UVAHIK_clean_linker_0, # of connection points: 2
#     Edge 31, Type (0, 0), BuildingBlock: UVAHIK_clean_linker_0, # of connection points: 2
#     Edge 32, Type (0, 0), BuildingBlock: UVAHIK_clean_linker_0, # of connection points: 2
#     Edge 33, Type (0, 0), BuildingBlock: UVAHIK_clean_linker_0, # of connection points: 2
#     Edge 34, Type (0, 0), BuildingBlock: UVAHIK_clean_linker_0, # of connection points: 2
#     Edge 35, Type (0, 0), BuildingBlock: UVAHIK_clean_linker_0, # of connection points: 2
#     Edge 36, Type (0, 0), BuildingBlock: UVAHIK_clean_linker_0, # of connection points: 2
#     Edge 37, Type (0, 0), BuildingBlock: UVAHIK_clean_linker_0, # of connection points: 2
#     Edge 38, Type (0, 0), BuildingBlock: UVAHIK_clean_linker_0, # of connection points: 2
#     Edge 39, Type (0, 0), BuildingBlock: UVAHIK_clean_linker_0, # of connection points: 2
#     Edge 40, Type (0, 0), BuildingBlock: UVAHIK_clean_linker_0, # of connection points: 2
#     Edge 41, Type (0, 0), BuildingBlock: UVAHIK_clean_linker_0, # of connection points: 2
#     Edge 42, Type (0, 0), BuildingBlock: UVAHIK_clean_linker_0, # of connection points: 2
#     Edge 43, Type (0, 0), BuildingBlock: UVAHIK_clean_linker_0, # of connection points: 2
#     Edge 44, Type (0, 0), BuildingBlock: UVAHIK_clean_linker_0, # of connection points: 2
#     Edge 45, Type (0, 0), BuildingBlock: UVAHIK_clean_linker_0, # of connection points: 2
#     Edge 46, Type (0, 0), BuildingBlock: UVAHIK_clean_linker_0, # of connection points: 2
#     Edge 47, Type (0, 0), BuildingBlock: UVAHIK_clean_linker_0, # of connection points: 2
#     Edge 48, Type (0, 0), BuildingBlock: UVAHIK_clean_linker_0, # of connection points: 2
#     Edge 49, Type (0, 0), BuildingBlock: UVAHIK_clean_linker_0, # of connection points: 2
#     Edge 50, Type (0, 0), BuildingBlock: UVAHIK_clean_linker_0, # of connection points: 2
#     Edge 51, Type (0, 0), BuildingBlock: UVAHIK_clean_linker_0, # of connection points: 2
#     Edge 52, Type (0, 0), BuildingBlock: UVAHIK_clean_linker_0, # of connection points: 2
#     Edge 53, Type (0, 0), BuildingBlock: UVAHIK_clean_linker_0, # of connection points: 2
#     Edge 54, Type (0, 0), BuildingBlock: UVAHIK_clean_linker_0, # of connection points: 2
#     Edge 55, Type (0, 0), BuildingBlock: UVAHIK_clean_linker_0, # of connection points: 2
#     Edge 56, Type (0, 0), BuildingBlock: UVAHIK_clean_linker_0, # of connection points: 2
#     Edge 57, Type (0, 0), BuildingBlock: UVAHIK_clean_linker_0, # of connection points: 2
#     Edge 58, Type (0, 0), BuildingBlock: UVAHIK_clean_linker_0, # of connection points: 2
#     Edge 59, Type (0, 0), BuildingBlock: UVAHIK_clean_linker_0, # of connection points: 2
#     Edge 60, Type (0, 0), BuildingBlock: UVAHIK_clean_linker_0, # of connection points: 2
#     Edge 61, Type (0, 0), BuildingBlock: UVAHIK_clean_linker_0, # of connection points: 2
#     Edge 62, Type (0, 0), BuildingBlock: UVAHIK_clean_linker_0, # of connection points: 2
#     Edge 63, Type (0, 0), BuildingBlock: UVAHIK_clean_linker_0, # of connection points: 2
# Relax obj value: 0.337
# Max RMSD: 0.258
# Mean RMSD: 0.248
data_MOF--net-wiu--node1-JUFBIX_clean_sbu_0--edge1-UVAHIK_clean_linker_0
_symmetry_space_group_name_H-M    P1
_symmetry_Int_Tables_number       1
_symmetry_cell_setting            triclinic
loop_
_symmetry_equiv_pos_as_xyz
'x, y, z'
_cell_length_a     36.814051
_cell_length_b     37.814465
_cell_length_c     83.740324
_cell_angle_alpha  94.285035
_cell_angle_beta   85.269163
_cell_angle_gamma 94.000179
loop_
_atom_site_label
_atom_site_type_symbol
_atom_site_fract_x
_atom_site_fract_y
_atom_site_fract_z
_atom_type_partial_charge
Co0 Co 0.32383 0.14007 0.06145 0.0
C1 C 0.29568 0.09535 0.08555 0.0
Co2 Co 0.35972 0.13751 0.08094 0.0
C3 C 0.29665 0.14483 0.03042 0.0
C4 C 0.25467 0.14738 0.04969 0.0
N5 N 0.29067 0.14314 0.04645 0.0
N6 N 0.26583 0.15044 0.02359 0.0
C7 C 0.23933 0.15197 0.03566 0.0
H8 H 0.32331 0.14337 0.02399 0.0
H9 H 0.24066 0.14797 0.06157 0.0
C10 C 0.38532 0.18304 0.05716 0.0
N11 N 0.39305 0.13461 0.09601 0.0
C12 C 0.38661 0.12552 0.11129 0.0
C13 C 0.42979 0.1378 0.09348 0.0
N14 N 0.41783 0.12258 0.11832 0.0
C15 C 0.44509 0.13057 0.1072 0.0
C16 C 0.37533 0.08985 0.05381 0.0
O17 O 0.35615 0.17254 0.05081 0.0
O18 O 0.39197 0.17137 0.07038 0.0
O19 O 0.38308 0.10011 0.06802 0.0
O20 O 0.34749 0.10198 0.04847 0.0
O21 O 0.32588 0.10404 0.09162 0.0
H22 H 0.44459 0.14355 0.08217 0.0
H23 H 0.35954 0.12037 0.11704 0.0
O24 O 0.29034 0.10706 0.07217 0.0
O25 O 0.30231 0.1796 0.07423 0.0
O26 O 0.33786 0.17539 0.09361 0.0
C27 C 0.31311 0.19122 0.08785 0.0
H28 H 0.21096 0.15627 0.03442 0.0
H29 H 0.47395 0.12949 0.1086 0.0
Co30 Co 0.63862 0.56019 0.29879 0.0
C31 C 0.6854 0.53856 0.32064 0.0
Co32 Co 0.64537 0.59771 0.31987 0.0
C33 C 0.63541 0.52884 0.26606 0.0
C34 C 0.62334 0.49132 0.28398 0.0
N35 N 0.63238 0.52603 0.2821 0.0
N36 N 0.62832 0.4972 0.25792 0.0
C37 C 0.62072 0.4736 0.26919 0.0
H38 H 0.64245 0.55359 0.26049 0.0
H39 H 0.61927 0.47952 0.29542 0.0
C40 C 0.59763 0.61709 0.2984 0.0
N41 N 0.65155 0.63122 0.33677 0.0
C42 C 0.66144 0.62521 0.3514 0.0
C43 C 0.65029 0.66686 0.33693 0.0
N44 N 0.66697 0.65554 0.3606 0.0
C45 C 0.65963 0.68191 0.35166 0.0
C46 C 0.69284 0.61404 0.29286 0.0
O47 O 0.60615 0.58874 0.29037 0.0
O48 O 0.61124 0.62563 0.31172 0.0
O49 O 0.68373 0.62238 0.30756 0.0
O50 O 0.67845 0.58526 0.2864 0.0
O51 O 0.67908 0.5684 0.32797 0.0
H52 H 0.64427 0.68107 0.32683 0.0
H53 H 0.66518 0.59907 0.3552 0.0
O54 O 0.67157 0.53052 0.30734 0.0
O55 O 0.59752 0.53737 0.31127 0.0
O56 O 0.6066 0.5743 0.33214 0.0
C57 C 0.58809 0.5483 0.32569 0.0
H58 H 0.61465 0.44534 0.26689 0.0
H59 H 0.66245 0.71002 0.35523 0.0
Co60 Co 0.24505 0.87491 0.57305 0.0
C61 C 0.1849 0.87443 0.55586 0.0
Co62 Co 0.23562 0.92886 0.56533 0.0
C63 C 0.28035 0.81397 0.5853 0.0
C64 C 0.22215 0.8081 0.58514 0.0
N65 N 0.25119 0.83059 0.58122 0.0
N66 N 0.27014 0.78195 0.59116 0.0
C67 C 0.23367 0.77837 0.59101 0.0
H68 H 0.30827 0.82504 0.58407 0.0
H69 H 0.19392 0.8132 0.58419 0.0
C70 C 0.29744 0.92926 0.58203 0.0
N71 N 0.22353 0.97144 0.55688 0.0
C72 C 0.20537 0.97204 0.5434 0.0
C73 C 0.21712 1.00275 0.56501 0.0
N74 N 0.18598 1.00125 0.54317 0.0
C75 C 0.19429 0.02098 0.55669 0.0
C76 C 0.20201 0.91727 0.59502 0.0
O77 O 0.2871 0.89635 0.58254 0.0
O78 O 0.27857 0.94987 0.575 0.0
O79 O 0.20691 0.94004 0.58453 0.0
O80 O 0.21592 0.88736 0.59223 0.0
O81 O 0.19408 0.90718 0.55611 0.0
H82 H 0.22486 1.01007 0.57705 0.0
H83 H 0.2035 0.9495 0.53473 0.0
O84 O 0.20337 0.85446 0.56302 0.0
O85 O 0.27389 0.86343 0.55376 0.0
O86 O 0.26466 0.91678 0.54634 0.0
C87 C 0.27881 0.88694 0.5435 0.0
H88 H 0.21647 0.75607 0.59529 0.0
H89 H 0.18219 0.04537 0.56119 0.0
Co90 Co 0.87292 0.46892 0.81109 0.0
C91 C 0.82289 0.50139 0.83354 0.0
Co92 Co 0.85234 0.43517 0.83037 0.0
C93 C 0.89635 0.48954 0.77948 0.0
C94 C 0.89992 0.53321 0.79721 0.0
N95 N 0.88987 0.49828 0.79529 0.0
N96 N 0.91015 0.51764 0.77143 0.0
C97 C 0.91239 0.54521 0.78255 0.0
H98 H 0.89146 0.46292 0.77406 0.0
H99 H 0.89829 0.54889 0.80857 0.0
C100 C 0.90237 0.40445 0.80791 0.0
N101 N 0.83612 0.40574 0.84638 0.0
C102 C 0.83768 0.41331 0.86227 0.0
C103 C 0.82424 0.37119 0.84483 0.0
N104 N 0.82779 0.38481 0.87077 0.0
C105 C 0.81915 0.3582 0.85984 0.0
C106 C 0.81447 0.42115 0.80288 0.0
O107 O 0.90437 0.43463 0.80219 0.0
O108 O 0.88157 0.39913 0.82048 0.0
O109 O 0.81371 0.41542 0.8177 0.0
O110 O 0.83617 0.44628 0.79769 0.0
O111 O 0.82302 0.47244 0.8404 0.0
H112 H 0.82087 0.35609 0.8335 0.0
H113 H 0.84777 0.43885 0.86744 0.0
O114 O 0.84101 0.50417 0.82006 0.0
O115 O 0.91076 0.48957 0.82414 0.0
O116 O 0.89198 0.45338 0.84265 0.0
C117 C 0.91489 0.47743 0.83759 0.0
H118 H 0.92164 0.57228 0.78022 0.0
H119 H 0.8105 0.33116 0.86245 0.0
Co120 Co 0.68798 0.89633 0.92165 0.0
C121 C 0.66085 0.85003 0.94519 0.0
Co122 Co 0.72334 0.89088 0.94107 0.0
C123 C 0.65895 0.90997 0.89189 0.0
C124 C 0.61708 0.89866 0.91041 0.0
N125 N 0.6537 0.90095 0.9072 0.0
N126 N 0.62709 0.9135 0.88547 0.0
C127 C 0.60065 0.90617 0.89704 0.0
H128 H 0.68562 0.91442 0.88564 0.0
H129 H 0.60314 0.89314 0.92192 0.0
C130 C 0.75242 0.93648 0.91693 0.0
N131 N 0.7576 0.88593 0.95545 0.0
C132 C 0.75347 0.88102 0.9713 0.0
C133 C 0.79354 0.8832 0.95129 0.0
N134 N 0.78547 0.87497 0.9771 0.0
C135 C 0.81071 0.87654 0.96455 0.0
C136 C 0.73194 0.84094 0.91397 0.0
O137 O 0.72195 0.92924 0.91092 0.0
O138 O 0.7574 0.92377 0.93015 0.0
O139 O 0.74296 0.85126 0.9277 0.0
O140 O 0.70802 0.85824 0.9084 0.0
O141 O 0.69018 0.85863 0.95182 0.0
H142 H 0.80634 0.88501 0.93926 0.0
H143 H 0.72737 0.88056 0.97829 0.0
O144 O 0.65547 0.86313 0.93214 0.0
O145 O 0.66646 0.93388 0.93514 0.0
O146 O 0.70152 0.92914 0.95465 0.0
C147 C 0.67432 0.94278 0.94947 0.0
H148 H 0.57165 0.9077 0.89612 0.0
H149 H 0.83955 0.87297 0.9649 0.0
Co150 Co 0.40043 0.43004 0.67963 0.0
C151 C 0.44219 0.40573 0.70239 0.0
Co152 Co 0.41194 0.46785 0.70008 0.0
C153 C 0.38891 0.40174 0.64759 0.0
C154 C 0.38344 0.36118 0.66428 0.0
N155 N 0.39158 0.39628 0.66314 0.0
N156 N 0.379 0.37155 0.63897 0.0
C157 C 0.37562 0.34589 0.64943 0.0
H158 H 0.39259 0.42771 0.64284 0.0
H159 H 0.38221 0.34776 0.6753 0.0
C160 C 0.37017 0.49379 0.67723 0.0
N161 N 0.42048 0.50206 0.71649 0.0
C162 C 0.41447 0.50002 0.73252 0.0
C163 C 0.43322 0.53591 0.71456 0.0
N164 N 0.42298 0.53132 0.74065 0.0
C165 C 0.43487 0.55391 0.72936 0.0
C166 C 0.46415 0.47272 0.67373 0.0
O167 O 0.37344 0.46321 0.67008 0.0
O168 O 0.38306 0.5002 0.69085 0.0
O169 O 0.45496 0.48636 0.68772 0.0
O170 O 0.44385 0.44734 0.66781 0.0
O171 O 0.44053 0.43669 0.70918 0.0
H172 H 0.44007 0.54705 0.70309 0.0
H173 H 0.40386 0.4761 0.73807 0.0
O174 O 0.42723 0.39773 0.68936 0.0
O175 O 0.35771 0.41169 0.6914 0.0
O176 O 0.36953 0.44679 0.71254 0.0
C177 C 0.35098 0.42026 0.70625 0.0
H178 H 0.36753 0.31821 0.64662 0.0
H179 H 0.44292 0.5818 0.73159 0.0
Co180 Co 0.80512 0.10273 0.43353 0.0
C181 C 0.74256 0.091 0.41816 0.0
Co182 Co 0.78545 0.15417 0.42698 0.0
C183 C 0.8497 0.06445 0.45258 0.0
C184 C 0.83753 0.03378 0.431 0.0
N185 N 0.8289 0.06366 0.43985 0.0
N186 N 0.87202 0.03714 0.45181 0.0
C187 C 0.86376 0.01754 0.43826 0.0
H188 H 0.84995 0.08607 0.46177 0.0
H189 H 0.82775 0.02587 0.41935 0.0
C190 C 0.84659 0.16629 0.44242 0.0
N191 N 0.76397 0.19474 0.42121 0.0
C192 C 0.77637 0.21976 0.41088 0.0
C193 C 0.73071 0.20485 0.42703 0.0
N194 N 0.7523 0.24513 0.41034 0.0
C195 C 0.72366 0.23572 0.42052 0.0
C196 C 0.75932 0.13271 0.45732 0.0
O197 O 0.84291 0.13268 0.4422 0.0
O198 O 0.82394 0.18292 0.43569 0.0
O199 O 0.75894 0.15707 0.44765 0.0
O200 O 0.77789 0.10592 0.4534 0.0
O201 O 0.74689 0.12477 0.41833 0.0
H202 H 0.7124 0.19056 0.43544 0.0
H203 H 0.80264 0.21964 0.40405 0.0
O204 O 0.7656 0.07367 0.42455 0.0
O205 O 0.83205 0.09986 0.41337 0.0
O206 O 0.81264 0.15007 0.4067 0.0
C207 C 0.83137 0.1231 0.4032 0.0
H208 H 0.87744 0.99441 0.43319 0.0
H209 H 0.69899 0.24987 0.42287 0.0
Co210 Co 0.18699 0.59752 0.16895 0.0
C211 C 0.13725 0.62882 0.19148 0.0
Co212 Co 0.16632 0.56416 0.1884 0.0
C213 C 0.2027 0.62007 0.13713 0.0
C214 C 0.21626 0.66155 0.15485 0.0
N215 N 0.20389 0.62718 0.15308 0.0
N216 N 0.21333 0.64872 0.12882 0.0
C217 C 0.22205 0.6749 0.13993 0.0
H218 H 0.19243 0.59478 0.13179 0.0
H219 H 0.21956 0.67631 0.16626 0.0
C220 C 0.21622 0.5313 0.16589 0.0
N221 N 0.14862 0.53427 0.20391 0.0
C222 C 0.14301 0.54137 0.21989 0.0
C223 C 0.13628 0.50007 0.20122 0.0
N224 N 0.12731 0.513 0.22722 0.0
C225 C 0.12305 0.48694 0.21555 0.0
C226 C 0.12455 0.55588 0.16165 0.0
O227 O 0.21653 0.56033 0.15905 0.0
O228 O 0.19772 0.52855 0.17928 0.0
O229 O 0.12844 0.54455 0.17527 0.0
O230 O 0.14774 0.57939 0.15632 0.0
O231 O 0.1354 0.59891 0.19748 0.0
H232 H 0.13668 0.48567 0.18956 0.0
H233 H 0.14972 0.56699 0.22596 0.0
O234 O 0.15757 0.63351 0.1787 0.0
O235 O 0.22522 0.61713 0.18199 0.0
O236 O 0.20311 0.58571 0.2019 0.0
C237 C 0.22466 0.61101 0.19678 0.0
H238 H 0.23129 0.70191 0.13751 0.0
H239 H 0.1118 0.46016 0.2173 0.0
Co240 Co 0.82203 0.64146 0.55869 0.0
C241 C 0.79518 0.59609 0.58273 0.0
Co242 Co 0.85854 0.6394 0.57805 0.0
C243 C 0.7942 0.64571 0.52777 0.0
C244 C 0.7524 0.64758 0.54713 0.0
N245 N 0.78849 0.644 0.5438 0.0
N246 N 0.76311 0.65066 0.521 0.0
C247 C 0.73672 0.65175 0.53313 0.0
H248 H 0.82084 0.64467 0.52128 0.0
H249 H 0.73853 0.64792 0.55903 0.0
C250 C 0.88238 0.68592 0.5544 0.0
N251 N 0.89249 0.63696 0.59306 0.0
C252 C 0.8874 0.62184 0.60721 0.0
C253 C 0.92873 0.64602 0.59136 0.0
N254 N 0.91886 0.6207 0.61424 0.0
C255 C 0.94495 0.63624 0.60443 0.0
C256 C 0.87448 0.59217 0.5509 0.0
O257 O 0.8534 0.67471 0.54806 0.0
O258 O 0.8897 0.67401 0.56746 0.0
O259 O 0.88236 0.60267 0.56505 0.0
O260 O 0.84637 0.60388 0.54559 0.0
O261 O 0.82539 0.60528 0.58867 0.0
H262 H 0.94294 0.65749 0.58097 0.0
H263 H 0.86128 0.61102 0.61217 0.0
O264 O 0.78929 0.60775 0.56941 0.0
O265 O 0.79997 0.6805 0.57166 0.0
O266 O 0.83621 0.67661 0.59084 0.0
C267 C 0.81106 0.69216 0.58523 0.0
H268 H 0.70818 0.6554 0.53196 0.0
H269 H 0.97386 0.63865 0.60618 0.0
Co270 Co 0.1381 0.07008 0.80152 0.0
C271 C 0.18304 0.04555 0.82313 0.0
Co272 Co 0.14711 0.10767 0.82233 0.0
C273 C 0.13202 0.04234 0.7687 0.0
C274 C 0.11881 1.00278 0.78563 0.0
N275 N 0.13001 0.03731 0.78453 0.0
N276 N 0.12213 1.01236 0.75991 0.0
C277 C 0.11379 0.98741 0.77051 0.0
H278 H 0.13985 0.06764 0.76374 0.0
H279 H 0.11436 0.98966 0.79673 0.0
C280 C 0.10195 0.13041 0.8008 0.0
N281 N 0.15504 0.14033 0.8394 0.0
C282 C 0.16367 0.13318 0.85408 0.0
C283 C 0.15671 0.17615 0.83963 0.0
N284 N 0.1712 0.16295 0.86337 0.0
C285 C 0.1665 0.19017 0.85444 0.0
C286 C 0.1953 0.12169 0.79554 0.0
O287 O 0.10697 0.10041 0.7935 0.0
O288 O 0.11651 0.13872 0.81392 0.0
O289 O 0.18765 0.12988 0.81037 0.0
O290 O 0.17873 0.09406 0.7891 0.0
O291 O 0.17768 0.07549 0.83058 0.0
H292 H 0.15248 0.19113 0.8295 0.0
H293 H 0.16517 0.10659 0.85783 0.0
O294 O 0.16967 0.03849 0.80965 0.0
O295 O 0.09653 0.04843 0.81392 0.0
O296 O 0.10594 0.08661 0.83433 0.0
C297 C 0.08693 0.06061 0.82813 0.0
H298 H 0.1052 0.95992 0.76751 0.0
H299 H 0.17153 0.21804 0.85808 0.0
Co300 Co 0.76049 0.37097 0.06818 0.0
C301 C 0.69924 0.36232 0.0519 0.0
Co302 Co 0.74053 0.42325 0.06288 0.0
C303 C 0.78431 0.31166 0.08565 0.0
C304 C 0.78686 0.30241 0.06009 0.0
N305 N 0.77927 0.32745 0.072 0.0
N306 N 0.79493 0.2779 0.08259 0.0
C307 C 0.79642 0.27241 0.06646 0.0
H308 H 0.77941 0.32439 0.09756 0.0
H309 H 0.78393 0.30503 0.0475 0.0
C310 C 0.80399 0.43117 0.07871 0.0
N311 N 0.71787 0.46433 0.05784 0.0
C312 C 0.69788 0.46608 0.04498 0.0
C313 C 0.70908 0.49303 0.06753 0.0
N314 N 0.67601 0.49378 0.04644 0.0
C315 C 0.68363 0.5111 0.0606 0.0
C316 C 0.71367 0.39868 0.09249 0.0
O317 O 0.7997 0.3973 0.07754 0.0
O318 O 0.78039 0.44964 0.07325 0.0
O319 O 0.71255 0.42294 0.08283 0.0
O320 O 0.7332 0.37245 0.08849 0.0
O321 O 0.70283 0.39592 0.05286 0.0
H322 H 0.71815 0.49882 0.07947 0.0
H323 H 0.69784 0.446 0.0351 0.0
O324 O 0.72125 0.34501 0.05859 0.0
O325 O 0.78754 0.37114 0.04773 0.0
O326 O 0.76863 0.42301 0.04315 0.0
C327 C 0.78738 0.39661 0.03864 0.0
H328 H 0.80223 0.24777 0.05961 0.0
H329 H 0.66983 0.5337 0.06622 0.0
Co330 Co 0.37186 0.96379 0.31532 0.0
C331 C 0.3207 0.99633 0.33746 0.0
Co332 Co 0.35059 0.93061 0.3348 0.0
C333 C 0.39528 0.98724 0.28381 0.0
C334 C 0.40138 0.02816 0.30269 0.0
N335 N 0.38962 0.99385 0.29983 0.0
N336 N 0.41047 0.01606 0.27663 0.0
C337 C 0.41432 0.04185 0.28846 0.0
H338 H 0.38886 0.96172 0.27759 0.0
H339 H 0.40063 0.04233 0.31441 0.0
C340 C 0.40177 0.89963 0.31275 0.0
N341 N 0.33371 0.90084 0.35067 0.0
C342 C 0.33461 0.90804 0.36663 0.0
C343 C 0.32265 0.86612 0.34888 0.0
N344 N 0.3253 0.87908 0.37494 0.0
C345 C 0.3174 0.85267 0.36379 0.0
C346 C 0.31411 0.91627 0.30671 0.0
O347 O 0.40375 0.92935 0.30655 0.0
O348 O 0.38065 0.89506 0.3253 0.0
O349 O 0.31293 0.91051 0.32155 0.0
O350 O 0.33585 0.94148 0.30161 0.0
O351 O 0.32046 0.96752 0.34447 0.0
H352 H 0.3203 0.85115 0.33745 0.0
H353 H 0.34301 0.93393 0.37197 0.0
O354 O 0.33955 0.99896 0.32414 0.0
O355 O 0.40893 0.98415 0.32877 0.0
O356 O 0.38927 0.94909 0.34759 0.0
C357 C 0.41242 0.97281 0.34243 0.0
H358 H 0.42501 0.06887 0.28687 0.0
H359 H 0.31017 0.82521 0.36612 0.0
Co360 Co 0.18627 0.39638 0.42213 0.0
C361 C 0.15747 0.35466 0.44717 0.0
Co362 Co 0.2224 0.39021 0.44116 0.0
C363 C 0.15737 0.40787 0.39206 0.0
C364 C 0.11555 0.40185 0.41114 0.0
N365 N 0.15199 0.40115 0.40768 0.0
N366 N 0.12577 0.41285 0.38571 0.0
C367 C 0.09935 0.40883 0.39764 0.0
H368 H 0.18401 0.40994 0.38556 0.0
H369 H 0.10168 0.39906 0.42291 0.0
C370 C 0.25275 0.43233 0.41601 0.0
N371 N 0.2567 0.38557 0.45557 0.0
C372 C 0.25276 0.38332 0.47163 0.0
C373 C 0.29236 0.38116 0.45141 0.0
N374 N 0.28461 0.37736 0.47758 0.0
C375 C 0.30957 0.37617 0.46489 0.0
C376 C 0.22726 0.3378 0.41524 0.0
O377 O 0.22219 0.4251 0.41007 0.0
O378 O 0.25711 0.42139 0.42966 0.0
O379 O 0.24057 0.34942 0.42835 0.0
O380 O 0.20275 0.35489 0.40997 0.0
O381 O 0.18874 0.35958 0.4525 0.0
H382 H 0.30497 0.38095 0.43927 0.0
H383 H 0.22688 0.38491 0.4787 0.0
O384 O 0.15155 0.36779 0.4342 0.0
O385 O 0.16851 0.43711 0.43442 0.0
O386 O 0.20183 0.42995 0.45427 0.0
C387 C 0.17618 0.44548 0.4488 0.0
H388 H 0.07068 0.41258 0.39688 0.0
H389 H 0.33826 0.37202 0.4653 0.0
Co390 Co 0.89799 0.9261 0.17755 0.0
C391 C 0.94216 0.90608 0.20056 0.0
Co392 Co 0.90576 0.96477 0.19805 0.0
C393 C 0.88924 0.89546 0.14564 0.0
C394 C 0.8861 0.85586 0.16275 0.0
N395 N 0.89182 0.89115 0.16131 0.0
N396 N 0.8817 0.86434 0.13725 0.0
C397 C 0.87976 0.83929 0.14797 0.0
H398 H 0.89124 0.92116 0.14063 0.0
H399 H 0.88548 0.84314 0.17393 0.0
C400 C 0.86171 0.98635 0.17492 0.0
N401 N 0.91183 1.00035 0.21411 0.0
C402 C 0.9121 0.99893 0.23015 0.0
C403 C 0.9171 0.03513 0.21153 0.0
N404 N 0.91722 0.03164 0.23772 0.0
C405 C 0.92025 0.05434 0.22592 0.0
C406 C 0.95817 0.97274 0.17174 0.0
O407 O 0.8683 0.95649 0.16765 0.0
O408 O 0.87363 0.9938 0.18865 0.0
O409 O 0.94734 0.98608 0.18559 0.0
O410 O 0.94004 0.94589 0.16574 0.0
O411 O 0.93735 0.9367 0.2073 0.0
H412 H 0.91822 0.04593 0.19988 0.0
H413 H 0.90861 0.9743 0.23605 0.0
O414 O 0.92775 0.89669 0.18749 0.0
O415 O 0.85653 0.90524 0.18941 0.0
O416 O 0.86517 0.94125 0.21064 0.0
C417 C 0.84857 0.91364 0.2042 0.0
H418 H 0.87364 0.81114 0.14537 0.0
H419 H 0.92362 0.08298 0.22744 0.0
Co420 Co 0.29903 0.60957 0.93579 0.0
C421 C 0.23397 0.59569 0.92197 0.0
Co422 Co 0.27567 0.65964 0.92978 0.0
C423 C 0.3467 0.57308 0.95428 0.0
C424 C 0.33101 0.54021 0.9338 0.0
N425 N 0.32437 0.57137 0.94202 0.0
N426 N 0.36769 0.54484 0.95385 0.0
C427 C 0.35734 0.52393 0.94099 0.0
H428 H 0.34865 0.5956 0.96298 0.0
H429 H 0.31932 0.53101 0.92268 0.0
C430 C 0.33849 0.67435 0.94394 0.0
N431 N 0.25281 0.69938 0.92414 0.0
C432 C 0.26461 0.72424 0.91368 0.0
C433 C 0.21964 0.70931 0.93019 0.0
N434 N 0.24029 0.74935 0.9132 0.0
C435 C 0.21205 0.73997 0.92361 0.0
C436 C 0.25358 0.63873 0.96038 0.0
O437 O 0.33671 0.64075 0.94387 0.0
O438 O 0.31419 0.68957 0.93761 0.0
O439 O 0.25107 0.66277 0.95074 0.0
O440 O 0.27295 0.61265 0.95603 0.0
O441 O 0.23692 0.62948 0.92227 0.0
H442 H 0.2019 0.6951 0.93882 0.0
H443 H 0.29074 0.72426 0.90673 0.0
O444 O 0.25926 0.57911 0.92724 0.0
O445 O 0.32484 0.60696 0.91545 0.0
O446 O 0.30102 0.65517 0.90898 0.0
C447 C 0.32148 0.62953 0.90525 0.0
H448 H 0.36941 0.49954 0.93643 0.0
H449 H 0.18735 0.75402 0.92611 0.0
Co450 Co 0.68469 0.09438 0.66721 0.0
C451 C 0.63093 0.11938 0.68967 0.0
Co452 Co 0.66908 0.06003 0.68693 0.0
C453 C 0.6979 0.11646 0.6353 0.0
C454 C 0.70265 0.16058 0.65269 0.0
N455 N 0.69702 0.12493 0.65122 0.0
N456 N 0.7031 0.14541 0.62668 0.0
C457 C 0.70643 0.17327 0.63761 0.0
H458 H 0.69387 0.08946 0.63022 0.0
H459 H 0.70247 0.17642 0.664 0.0
C460 C 0.72159 0.03242 0.66409 0.0
N461 N 0.6558 0.02907 0.70255 0.0
C462 C 0.64904 0.03607 0.71848 0.0
C463 C 0.64773 0.99385 0.69995 0.0
N464 N 0.63658 1.00664 0.72586 0.0
C465 C 0.63577 0.98 0.71427 0.0
C466 C 0.62696 0.04621 0.66034 0.0
O467 O 0.71881 0.06114 0.65735 0.0
O468 O 0.70393 0.02812 0.67755 0.0
O469 O 0.63226 0.03624 0.67408 0.0
O470 O 0.64777 0.07122 0.65474 0.0
O471 O 0.63456 0.09086 0.6962 0.0
H472 H 0.64981 0.97931 0.68832 0.0
H473 H 0.65214 0.06237 0.72447 0.0
O474 O 0.65013 0.12612 0.67682 0.0
O475 O 0.72081 0.11904 0.68008 0.0
O476 O 0.70452 0.08572 0.70008 0.0
C477 C 0.72266 0.11297 0.69475 0.0
H478 H 0.70972 0.20096 0.63501 0.0
H479 H 0.62735 0.95248 0.71607 0.0
C480 C 0.41725 0.20534 0.03216 0.0
C481 C 0.41196 0.20745 0.04901 0.0
C482 C 0.44548 0.22603 0.02453 0.0
C483 C 0.50714 0.30452 0.02965 0.0
H484 H 0.58766 0.24613 0.01515 0.0
C485 C 0.65147 0.36323 0.03264 0.0
C486 C 0.66998 0.34414 0.04285 0.0
C487 C 0.6213 0.34753 0.02525 0.0
C488 C 0.5653 0.26288 0.01878 0.0
H489 H 0.42998 0.23378 0.0711 0.0
H490 H 0.47852 0.27076 0.05777 0.0
H491 H 0.52533 0.21902 0.01754 0.0
H492 H 0.67363 0.29273 0.05222 0.0
H493 H 0.62015 0.26538 0.03968 0.0
H494 H 0.54698 0.3477 0.03237 0.0
C495 C 0.46117 0.253 0.05048 0.0
C496 C 0.52971 0.24748 0.02 0.0
C497 C 0.43375 0.23172 0.0581 0.0
C498 C 0.65955 0.30818 0.04457 0.0
C499 C 0.62923 0.29243 0.0372 0.0
C500 C 0.54257 0.31998 0.0283 0.0
C501 C 0.46772 0.24974 0.0337 0.0
C502 C 0.50088 0.26782 0.02645 0.0
C503 C 0.60906 0.3124 0.02795 0.0
C504 C 0.57216 0.29877 0.0239 0.0
H505 H 0.40074 0.18653 0.02496 0.0
H506 H 0.45054 0.22293 0.01159 0.0
H507 H 0.48513 0.32054 0.03467 0.0
H508 H 0.65967 0.39067 0.03072 0.0
H509 H 0.60648 0.36338 0.01804 0.0
C510 C 0.57248 0.64412 0.27571 0.0
C511 C 0.57263 0.64035 0.29228 0.0
C512 C 0.55067 0.66868 0.27013 0.0
C513 C 0.46953 0.71432 0.2781 0.0
H514 H 0.52175 0.80679 0.27605 0.0
C515 C 0.44161 0.87299 0.28992 0.0
C516 C 0.42038 0.86939 0.30453 0.0
C517 C 0.4568 0.84338 0.28164 0.0
C518 C 0.50664 0.78116 0.27599 0.0
H519 H 0.54938 0.65758 0.31596 0.0
H520 H 0.51042 0.69959 0.30618 0.0
H521 H 0.55561 0.75315 0.27261 0.0
H522 H 0.39834 0.8321 0.3219 0.0
H523 H 0.42527 0.78099 0.30773 0.0
H524 H 0.42083 0.74221 0.28276 0.0
C525 C 0.52742 0.68395 0.29757 0.0
C526 C 0.52603 0.75052 0.27398 0.0
C527 C 0.54976 0.66021 0.30315 0.0
C528 C 0.41464 0.83581 0.3107 0.0
C529 C 0.42958 0.80637 0.30243 0.0
C530 C 0.45011 0.74486 0.27993 0.0
C531 C 0.52817 0.6887 0.2811 0.0
C532 C 0.50773 0.71725 0.2761 0.0
C533 C 0.45066 0.80977 0.28779 0.0
C534 C 0.46883 0.77856 0.28011 0.0
H535 H 0.59022 0.62912 0.26716 0.0
H536 H 0.55175 0.67247 0.2574 0.0
H537 H 0.45509 0.68877 0.27984 0.0
H538 H 0.44623 0.89856 0.28481 0.0
H539 H 0.47323 0.84671 0.27045 0.0
C540 C 0.13369 0.88324 0.53919 0.0
C541 C 0.15392 0.86013 0.54681 0.0
C542 C 0.10362 0.87019 0.53098 0.0
C543 C 0.05191 0.78676 0.5173 0.0
H544 H 0.96873 0.83445 0.53787 0.0
C545 C 0.91069 0.7146 0.5301 0.0
C546 C 0.90699 0.71301 0.54688 0.0
C547 C 0.93601 0.73922 0.52305 0.0
C548 C 0.99153 0.8214 0.53153 0.0
H549 H 0.15979 0.80509 0.55112 0.0
H550 H 0.10644 0.78234 0.53735 0.0
H551 H 0.0289 0.86523 0.53713 0.0
H552 H 0.92478 0.73666 0.56952 0.0
H553 H 0.96828 0.78007 0.55729 0.0
H554 H 1.01467 0.74152 0.51333 0.0
C555 C 0.1143 0.81048 0.53735 0.0
C556 C 0.02605 0.83897 0.53108 0.0
C557 C 0.14449 0.82354 0.5455 0.0
C558 C 0.92745 0.73727 0.55655 0.0
C559 C 0.9519 0.76233 0.54957 0.0
C560 C 1.01728 0.7692 0.51772 0.0
C561 C 0.09306 0.83379 0.53033 0.0
C562 C 0.05687 0.82076 0.52511 0.0
C563 C 0.95683 0.76311 0.53279 0.0
C564 C 0.98751 0.78556 0.52597 0.0
H565 H 0.14044 0.9116 0.53992 0.0
H566 H 0.08781 0.88873 0.52567 0.0
H567 H 0.0752 0.77247 0.51231 0.0
H568 H 0.89507 0.69597 0.52245 0.0
H569 H 0.93991 0.73915 0.51009 0.0
C570 C 0.06171 0.14624 0.78015 0.0
C571 C 0.08207 0.15645 0.79342 0.0
C572 C 0.04369 0.17143 0.77296 0.0
C573 C 0.98586 0.22616 0.77309 0.0
H574 H 0.02761 0.32312 0.77244 0.0
C575 C 0.94296 0.38061 0.78483 0.0
C576 C 0.92116 0.37503 0.79913 0.0
C577 C 0.95987 0.35238 0.77626 0.0
C578 C 1.01546 0.29617 0.77201 0.0
H579 H 0.10064 0.20095 0.80923 0.0
H580 H 0.06904 0.24463 0.79686 0.0
H581 H 0.06772 0.27436 0.77077 0.0
H582 H 0.89873 0.33548 0.81534 0.0
H583 H 0.92897 0.28659 0.80072 0.0
H584 H 0.93358 0.24817 0.77552 0.0
C585 C 0.0673 0.21736 0.79185 0.0
C586 C 0.03847 0.26829 0.77116 0.0
C587 C 0.08486 0.19225 0.79913 0.0
C588 C 0.91571 0.34066 0.80446 0.0
C589 C 0.93248 0.31252 0.7959 0.0
C590 C 0.96282 0.25405 0.77388 0.0
C591 C 0.04635 0.20718 0.77879 0.0
C592 C 0.02376 0.23346 0.77301 0.0
C593 C 0.95507 0.31815 0.78183 0.0
C594 C 0.97755 0.28937 0.77466 0.0
H595 H 0.05936 0.11877 0.77544 0.0
H596 H 0.02736 0.16298 0.76301 0.0
H597 H 0.97386 0.19945 0.7744 0.0
H598 H 0.9472 0.40679 0.7803 0.0
H599 H 0.97724 0.35741 0.76548 0.0
C600 C 0.6238 0.83062 0.96971 0.0
C601 C 0.63139 0.82782 0.95294 0.0
C602 C 0.59065 0.81594 0.97655 0.0
C603 C 0.49968 0.80591 0.96696 0.0
H604 H 0.47911 0.71496 0.98533 0.0
C605 C 0.39935 0.67859 0.95494 0.0
C606 C 0.36773 0.695 0.95208 0.0
C607 C 0.42747 0.69786 0.96248 0.0
C608 C 0.48431 0.74061 0.98035 0.0
H609 H 0.61258 0.80513 0.93032 0.0
H610 H 0.55531 0.77907 0.94225 0.0
H611 H 0.54124 0.74278 0.98453 0.0
H612 H 0.33924 0.74352 0.95595 0.0
H613 H 0.38808 0.7772 0.96956 0.0
H614 H 0.44466 0.80236 0.96087 0.0
C615 C 0.57449 0.793 0.95005 0.0
C616 C 0.51971 0.75665 0.98014 0.0
C617 C 0.60714 0.8078 0.94326 0.0
C618 C 0.36382 0.73054 0.95766 0.0
C619 C 0.39172 0.74972 0.96552 0.0
C620 C 0.4646 0.78974 0.96693 0.0
C621 C 0.5654 0.79824 0.9666 0.0
C622 C 0.52785 0.7883 0.97257 0.0
C623 C 0.42437 0.7339 0.96761 0.0
C624 C 0.45712 0.75574 0.97263 0.0
H625 H 0.64215 0.84623 0.97736 0.0
H626 H 0.58387 0.82012 0.98935 0.0
H627 H 0.50568 0.83042 0.96105 0.0
H628 H 0.40292 0.65106 0.95089 0.0
H629 H 0.45234 0.68481 0.96351 0.0
C630 C 0.59452 0.14488 0.71366 0.0
C631 C 0.6051 0.1446 0.69712 0.0
C632 C 0.57053 0.16952 0.72078 0.0
C633 C 0.49794 0.22202 0.71217 0.0
H634 H 0.53753 0.30064 0.73929 0.0
C635 C 0.43009 0.35004 0.71575 0.0
C636 C 0.45512 0.37751 0.7109 0.0
C637 C 0.44228 0.32032 0.72198 0.0
C638 C 0.5258 0.27857 0.732 0.0
H639 H 0.59884 0.16912 0.67501 0.0
H640 H 0.55618 0.21158 0.68739 0.0
H641 H 0.57091 0.2466 0.73398 0.0
H642 H 0.51151 0.39783 0.70985 0.0
H643 H 0.53359 0.34473 0.71984 0.0
H644 H 0.45464 0.25437 0.70888 0.0
C645 C 0.56663 0.19291 0.69481 0.0
C646 C 0.54472 0.2477 0.72908 0.0
C647 C 0.5911 0.16887 0.68777 0.0
C648 C 0.49205 0.37649 0.71343 0.0
C649 C 0.50445 0.34634 0.71935 0.0
C650 C 0.47901 0.25263 0.71512 0.0
C651 C 0.55632 0.19342 0.71133 0.0
C652 C 0.53178 0.2202 0.71843 0.0
C653 C 0.47982 0.31728 0.72298 0.0
C654 C 0.49382 0.28201 0.7243 0.0
H655 H 0.60527 0.12649 0.72112 0.0
H656 H 0.56296 0.16985 0.73357 0.0
H657 H 0.48763 0.2009 0.70395 0.0
H658 H 0.40126 0.35099 0.71414 0.0
H659 H 0.42262 0.2987 0.72498 0.0
C660 C 0.13251 0.30931 0.46621 0.0
C661 C 0.12705 0.33685 0.4565 0.0
C662 C 0.10244 0.29089 0.47381 0.0
C663 C 1.00151 0.29139 0.48235 0.0
H664 H 1.00197 0.19442 0.46383 0.0
C665 C 0.89873 0.16571 0.4595 0.0
C666 C 0.87621 0.18512 0.45111 0.0
C667 C 0.92721 0.1828 0.46761 0.0
C668 C 1.0013 0.22105 0.46955 0.0
H669 H 0.08688 0.3693 0.44838 0.0
H670 H 0.03484 0.33742 0.46143 0.0
H671 H 0.05932 0.22894 0.46646 0.0
H672 H 0.86502 0.23786 0.44511 0.0
H673 H 0.91588 0.26776 0.45874 0.0
H674 H 0.94316 0.28422 0.48423 0.0
C675 C 0.06191 0.32971 0.46325 0.0
C676 C 0.03432 0.24081 0.47113 0.0
C677 C 0.09169 0.34754 0.45548 0.0
C678 C 0.88208 0.22219 0.45138 0.0
C679 C 0.91087 0.23933 0.4594 0.0
C680 C 0.96843 0.27161 0.48077 0.0
C681 C 0.06682 0.30047 0.47205 0.0
C682 C 0.03453 0.27686 0.4765 0.0
C683 C 0.9341 0.21968 0.46736 0.0
C684 C 0.96804 0.23701 0.4734 0.0
H685 H 0.15972 0.30099 0.46729 0.0
H686 H 0.10685 0.26835 0.48051 0.0
H687 H 1.00108 0.31903 0.4868 0.0
H688 H 0.89479 0.13714 0.45963 0.0
H689 H 0.94444 0.16699 0.47372 0.0
C690 C 0.1239 0.69266 0.19419 0.0
C691 C 0.11923 0.65886 0.20018 0.0
C692 C 0.10848 0.72158 0.20275 0.0
C693 C 0.08289 0.78221 0.22477 0.0
H694 H 0.97826 0.76454 0.23278 0.0
C695 C 0.9568 0.84419 0.20374 0.0
C696 C 0.96182 0.88048 0.20835 0.0
C697 C 0.97497 0.81948 0.21096 0.0
C698 C 1.00756 0.76991 0.23103 0.0
H699 H 0.09575 0.62895 0.22011 0.0
H700 H 0.06813 0.67969 0.23496 0.0
H701 H 1.01725 0.7148 0.22989 0.0
H702 H 0.98881 0.9195 0.22448 0.0
H703 H 0.02204 0.87585 0.2368 0.0
H704 H 0.07258 0.83697 0.2241 0.0
C705 C 0.08382 0.68367 0.22365 0.0
C706 C 0.02995 0.74146 0.22945 0.0
C707 C 0.09934 0.65464 0.21507 0.0
C708 C 0.98473 0.89161 0.22064 0.0
C709 C 1.00348 0.86676 0.22775 0.0
C710 C 0.06044 0.81066 0.22626 0.0
C711 C 0.08806 0.71737 0.2175 0.0
C712 C 0.06742 0.74719 0.22506 0.0
C713 C 0.99885 0.83049 0.22288 0.0
C714 C 0.02237 0.80428 0.22812 0.0
H715 H 0.13935 0.69683 0.18283 0.0
H716 H 0.11146 0.74701 0.19747 0.0
H717 H 0.1119 0.78734 0.22183 0.0
H718 H 0.93895 0.83479 0.19444 0.0
H719 H 0.97153 0.79179 0.20668 0.0
C720 C 0.43263 0.05601 0.04947 0.0
C721 C 0.40245 0.06925 0.04305 0.0
C722 C 0.46153 0.042 0.03946 0.0
C723 C 0.50569 0.04397 0.9975 0.0
H724 H 0.55897 0.96694 0.00999 0.0
C725 C 0.61779 0.9776 0.95419 0.0
C726 C 0.64766 0.96345 0.96046 0.0
C727 C 0.58906 0.99154 0.96431 0.0
C728 C 0.5449 0.98886 0.00635 0.0
H729 H 0.37928 0.07712 0.02073 0.0
H730 H 0.42922 0.05217 0.00328 0.0
H731 H 0.50614 0.9867 0.02692 0.0
H732 H 0.67045 0.95392 0.98266 0.0
H733 H 0.62091 0.97899 0.00034 0.0
H734 H 0.54447 0.04627 0.97697 0.0
C735 C 0.43078 0.05302 0.01615 0.0
C736 C 0.51426 1.00021 0.01612 0.0
C737 C 0.4017 0.06693 0.02621 0.0
C738 C 0.64829 0.96484 0.9773 0.0
C739 C 0.61941 0.97881 0.98748 0.0
C740 C 0.53636 0.03267 0.98775 0.0
C741 C 0.46157 0.04081 0.02259 0.0
C742 C 0.49399 0.02798 0.01189 0.0
C743 C 0.58889 0.9919 0.98117 0.0
C744 C 0.55659 1.00482 0.99195 0.0
H745 H 0.43463 0.05757 0.06234 0.0
H746 H 0.4846 0.03338 0.04503 0.0
H747 H 0.49157 0.06585 0.99386 0.0
H748 H 0.61584 0.97676 0.94133 0.0
H749 H 0.5662 1.00077 0.95881 0.0
C750 C 0.71418 0.64033 0.26631 0.0
C751 C 0.71467 0.6412 0.28314 0.0
C752 C 0.72891 0.66945 0.25772 0.0
C753 C 0.78904 0.75437 0.26127 0.0
H754 H 0.73614 0.78101 0.22637 0.0
C755 C 0.82734 0.88764 0.23081 0.0
C756 C 0.82619 0.88701 0.21402 0.0
C757 C 0.81249 0.85861 0.23944 0.0
C758 C 0.75164 0.77393 0.23597 0.0
H759 H 0.73239 0.67353 0.30391 0.0
H760 H 0.75796 0.72353 0.28911 0.0
H761 H 0.7156 0.72788 0.24018 0.0
H762 H 0.80716 0.85518 0.19336 0.0
H763 H 0.78154 0.80531 0.20818 0.0
H764 H 0.82514 0.80034 0.25703 0.0
C765 C 0.74649 0.70041 0.28241 0.0
C766 C 0.7398 0.74314 0.24392 0.0
C767 C 0.73168 0.6715 0.29097 0.0
C768 C 0.80836 0.85707 0.20628 0.0
C769 C 0.79352 0.8282 0.21486 0.0
C770 C 0.80091 0.78512 0.2533 0.0
C771 C 0.74476 0.70033 0.26566 0.0
C772 C 0.75824 0.73275 0.25674 0.0
C773 C 0.79593 0.828 0.23157 0.0
C774 C 0.78246 0.79555 0.24048 0.0
H775 H 0.70102 0.61778 0.25983 0.0
H776 H 0.72742 0.66788 0.24482 0.0
H777 H 0.80448 0.74729 0.27088 0.0
H778 H 0.84116 0.90988 0.23723 0.0
H779 H 0.81449 0.86003 0.2523 0.0
C780 C 0.14482 0.97919 0.52156 0.0
C781 C 0.15663 1.00627 0.53289 0.0
C782 C 0.11442 0.98272 0.51279 0.0
C783 C 0.05356 0.04952 0.50016 0.0
H784 H 0.98722 0.96693 0.49259 0.0
C785 C 0.91457 0.06055 0.47263 0.0
C786 C 0.90217 0.03288 0.46173 0.0
C787 C 0.94508 0.05726 0.48137 0.0
C788 C 1.00557 0.99027 0.49437 0.0
H789 H 0.1454 0.0595 0.54285 0.0
H790 H 0.09289 0.06538 0.52775 0.0
H791 H 0.0412 0.96177 0.50704 0.0
H792 H 0.91264 0.97917 0.45228 0.0
H793 H 0.96561 0.97377 0.46719 0.0
H794 H 1.01801 0.07802 0.48747 0.0
C795 C 0.10716 0.04118 0.52571 0.0
C796 C 0.03677 0.98728 0.50272 0.0
C797 C 0.13746 0.03761 0.53455 0.0
C798 C 0.9211 1.00144 0.46028 0.0
C799 C 0.95159 0.99815 0.46904 0.0
C800 C 0.02239 0.0525 0.49179 0.0
C801 C 0.09475 1.01361 0.51482 0.0
C802 C 0.06138 0.01685 0.50577 0.0
C803 C 0.9644 0.02611 0.47965 0.0
C804 C 0.99777 0.02293 0.48873 0.0
H805 H 0.1585 0.95475 0.51948 0.0
H806 H 0.10645 0.96109 0.50432 0.0
H807 H 0.07191 0.07286 0.50198 0.0
H808 H 0.90119 0.08521 0.47436 0.0
H809 H 0.95338 0.07925 0.48958 0.0
C810 C 0.80675 0.39368 0.77465 0.0
C811 C 0.79805 0.39317 0.79135 0.0
C812 C 0.79819 0.36388 0.76415 0.0
C813 C 0.74323 0.27556 0.76158 0.0
H814 H 0.81363 0.25377 0.72582 0.0
C815 C 0.73126 0.14084 0.72283 0.0
C816 C 0.73865 0.14164 0.70607 0.0
C817 C 0.73972 0.17079 0.73326 0.0
C818 C 0.79339 0.25946 0.73563 0.0
H819 H 0.77224 0.36048 0.80982 0.0
H820 H 0.7574 0.30909 0.79172 0.0
H821 H 0.82358 0.30745 0.7433 0.0
H822 H 0.76204 0.17498 0.68738 0.0
H823 H 0.77704 0.22661 0.70541 0.0
H824 H 0.71316 0.22743 0.75394 0.0
C825 C 0.77054 0.33259 0.78659 0.0
C826 C 0.79906 0.29057 0.74572 0.0
C827 C 0.77907 0.36236 0.79707 0.0
C828 C 0.75622 0.17294 0.70018 0.0
C829 C 0.76483 0.20279 0.7106 0.0
C830 C 0.73762 0.2444 0.75152 0.0
C831 C 0.78066 0.33241 0.76995 0.0
C832 C 0.77409 0.29931 0.7589 0.0
C833 C 0.756 0.20261 0.72732 0.0
C834 C 0.76257 0.23571 0.73834 0.0
H835 H 0.82166 0.41659 0.76971 0.0
H836 H 0.8059 0.36542 0.75146 0.0
H837 H 0.72291 0.28123 0.77136 0.0
H838 H 0.71744 0.11754 0.7279 0.0
H839 H 0.73298 0.16909 0.74602 0.0
C840 C 0.30881 0.36507 0.70882 0.0
C841 C 0.32845 0.39419 0.71632 0.0
C842 C 0.29414 0.33622 0.71747 0.0
C843 C 0.30477 0.2912 0.75514 0.0
H844 H 0.2163 0.23698 0.7437 0.0
C845 C 0.23616 0.17791 0.79331 0.0
C846 C 0.21742 0.1484 0.78566 0.0
C847 C 0.251 0.20677 0.78471 0.0
C848 C 0.24137 0.25138 0.74695 0.0
H849 H 0.3469 0.41558 0.73919 0.0
H850 H 0.32051 0.36585 0.75438 0.0
H851 H 0.2368 0.29011 0.72989 0.0
H852 H 0.20072 0.12633 0.76258 0.0
H853 H 0.22713 0.17627 0.74751 0.0
H854 H 0.30919 0.25251 0.77226 0.0
C855 C 0.31691 0.36505 0.74165 0.0
C856 C 0.2532 0.28217 0.739 0.0
C857 C 0.33158 0.39405 0.73297 0.0
C858 C 0.21526 0.14822 0.76893 0.0
C859 C 0.22999 0.17728 0.7603 0.0
C860 C 0.29288 0.26044 0.76312 0.0
C861 C 0.29853 0.3352 0.73399 0.0
C862 C 0.28516 0.30272 0.74291 0.0
C863 C 0.24754 0.20744 0.76809 0.0
C864 C 0.26095 0.23989 0.75919 0.0
H865 H 0.30611 0.36373 0.696 0.0
H866 H 0.28071 0.31392 0.71094 0.0
H867 H 0.32987 0.30555 0.75839 0.0
H868 H 0.23816 0.17942 0.80618 0.0
H869 H 0.26384 0.22932 0.79129 0.0
C870 C 0.27877 0.85757 0.30063 0.0
C871 C 0.29802 0.88838 0.29506 0.0
C872 C 0.27052 0.8279 0.29006 0.0
C873 C 0.26692 0.79722 0.24629 0.0
H874 H 0.27527 0.70423 0.26171 0.0
C875 C 0.2603 0.66956 0.20283 0.0
C876 C 0.24102 0.63877 0.20841 0.0
C877 C 0.26865 0.69919 0.21341 0.0
C878 C 0.27239 0.72987 0.25717 0.0
H879 H 0.32259 0.91184 0.27358 0.0
H880 H 0.30808 0.86057 0.25522 0.0
H881 H 0.28457 0.75728 0.27966 0.0
H882 H 0.21655 0.6153 0.2299 0.0
H883 H 0.23125 0.66651 0.24826 0.0
H884 H 0.25473 0.76981 0.22381 0.0
C885 C 0.299 0.85931 0.26781 0.0
C886 C 0.27768 0.76056 0.26756 0.0
C887 C 0.30728 0.889 0.2784 0.0
C888 C 0.23189 0.63812 0.22508 0.0
C889 C 0.24027 0.66778 0.23567 0.0
C890 C 0.26163 0.76653 0.23591 0.0
C891 C 0.28124 0.82784 0.27348 0.0
C892 C 0.27502 0.79487 0.26234 0.0
C893 C 0.25802 0.69925 0.22999 0.0
C894 C 0.26429 0.73221 0.24113 0.0
H895 H 0.27129 0.85571 0.31334 0.0
H896 H 0.25614 0.80472 0.29498 0.0
H897 H 0.26404 0.82286 0.24175 0.0
H898 H 0.26769 0.67143 0.19011 0.0
H899 H 0.28303 0.72237 0.20848 0.0
C900 C 0.12125 0.4825 0.45312 0.0
C901 C 0.14999 0.46698 0.45963 0.0
C902 C 0.0922 0.49649 0.46301 0.0
C903 C 0.04469 0.49119 0.5043 0.0
H904 H 0.99376 0.57019 0.49217 0.0
C905 C 0.93117 0.55757 0.54682 0.0
C906 C 0.90168 0.57159 0.54021 0.0
C907 C 0.96034 0.54365 0.53698 0.0
C908 C 1.00722 0.54775 0.49569 0.0
H909 H 0.17059 0.45529 0.48202 0.0
H910 H 0.12059 0.48056 0.4993 0.0
H911 H 0.0476 0.5511 0.47578 0.0
H912 H 0.87995 0.58094 0.51775 0.0
H913 H 0.93047 0.55619 0.50056 0.0
H914 H 1.00438 0.48802 0.52426 0.0
C915 C 0.12017 0.48134 0.48643 0.0
C916 C 0.03841 0.53674 0.48623 0.0
C917 C 0.14934 0.46729 0.47649 0.0
C918 C 0.90183 0.57011 0.52334 0.0
C919 C 0.93123 0.55632 0.51346 0.0
C920 C 1.01356 0.50227 0.51378 0.0
C921 C 0.09062 0.49557 0.47985 0.0
C922 C 0.05779 0.5082 0.49032 0.0
C923 C 0.96136 0.54337 0.52011 0.0
C924 C 0.99418 0.53077 0.50966 0.0
H925 H 0.12029 0.48251 0.44022 0.0
H926 H 0.07013 0.50666 0.4573 0.0
H927 H 0.05805 0.4687 0.50781 0.0
H928 H 0.93242 0.55843 0.55972 0.0
H929 H 0.9829 0.53441 0.5427 0.0
C930 C 0.63111 0.53334 0.0373 0.0
C931 C 0.64652 0.50005 0.03651 0.0
C932 C 0.60134 0.53876 0.02839 0.0
C933 C 0.52508 0.48923 0.00739 0.0
H934 H 0.51803 0.57803 0.98793 0.0
C935 C 0.41228 0.50654 0.96404 0.0
C936 C 0.39774 0.54 0.96372 0.0
C937 C 0.44215 0.50206 0.973 0.0
C938 C 0.51908 0.55317 0.99345 0.0
H939 H 0.6418 0.44654 0.02526 0.0
H940 H 0.59072 0.45595 0.00983 0.0
H941 H 0.57035 0.5699 0.00304 0.0
H942 H 0.40438 0.5951 0.97295 0.0
H943 H 0.45529 0.58712 0.98878 0.0
H944 H 0.47376 0.47253 0.99798 0.0
C945 C 0.6014 0.47793 0.01749 0.0
C946 C 0.54937 0.54847 0.00215 0.0
C947 C 0.63127 0.47259 0.02629 0.0
C948 C 0.41412 0.56876 0.97287 0.0
C949 C 0.44396 0.56425 0.98186 0.0
C950 C 0.49473 0.49398 0.99877 0.0
C951 C 0.58568 0.51103 0.01844 0.0
C952 C 0.55303 0.51635 0.00923 0.0
C953 C 0.45871 0.53083 0.98207 0.0
C954 C 0.49114 0.52599 0.99156 0.0
H955 H 0.64197 0.55536 0.04486 0.0
H956 H 0.59009 0.56461 0.02961 0.0
H957 H 0.52628 0.46433 0.01286 0.0
H958 H 0.40062 0.48354 0.95735 0.0
H959 H 0.45265 0.47594 0.97255 0.0
C960 C 0.30575 0.23367 0.1124 0.0
C961 C 0.30003 0.22487 0.09614 0.0
C962 C 0.29696 0.26684 0.11982 0.0
C963 C 0.24753 0.34874 0.11404 0.0
H964 H 0.30622 0.38969 0.14797 0.0
C965 C 0.2377 0.49507 0.14077 0.0
C966 C 0.23278 0.49922 0.15764 0.0
C967 C 0.24753 0.46248 0.13297 0.0
C968 C 0.2895 0.3786 0.13854 0.0
H969 H 0.28027 0.24431 0.07499 0.0
H970 H 0.2662 0.30238 0.08762 0.0
H971 H 0.31892 0.33149 0.1351 0.0
H972 H 0.23572 0.47259 0.17949 0.0
H973 H 0.25408 0.41639 0.16594 0.0
H974 H 0.21893 0.3967 0.1173 0.0
C975 C 0.27647 0.28343 0.09491 0.0
C976 C 0.29654 0.3449 0.13119 0.0
C977 C 0.28466 0.24996 0.08758 0.0
C978 C 0.23948 0.47045 0.1665 0.0
C979 C 0.24999 0.43818 0.15872 0.0
C980 C 0.24095 0.38272 0.12121 0.0
C981 C 0.28282 0.29269 0.11114 0.0
C982 C 0.27548 0.32913 0.11888 0.0
C983 C 0.25339 0.43346 0.14185 0.0
C984 C 0.26165 0.39801 0.13365 0.0
H985 H 0.31739 0.21496 0.1194 0.0
H986 H 0.30142 0.27212 0.1324 0.0
H987 H 0.23011 0.33768 0.10488 0.0
H988 H 0.23237 0.51648 0.13356 0.0
H989 H 0.25018 0.45985 0.11997 0.0
C990 C 0.54889 0.54009 0.35136 0.0
C991 C 0.55453 0.53309 0.33462 0.0
C992 C 0.51617 0.52858 0.35974 0.0
C993 C 0.41868 0.50506 0.35476 0.0
H994 H 0.4202 0.4625 0.39535 0.0
C995 C 0.28564 0.44893 0.38968 0.0
C996 C 0.28459 0.44919 0.40652 0.0
C997 C 0.31781 0.45985 0.38063 0.0
C998 C 0.419 0.47495 0.3842 0.0
H999 H 0.52989 0.50822 0.31363 0.0
H1000 H 0.47244 0.48849 0.32827 0.0
H1001 H 0.47741 0.47886 0.38024 0.0
H1002 H 0.31622 0.46291 0.42705 0.0
H1003 H 0.37134 0.48346 0.41151 0.0
H1004 H 0.36034 0.50211 0.35886 0.0
C1005 C 0.49355 0.50284 0.33489 0.0
C1006 C 0.45203 0.48411 0.37545 0.0
C1007 C 0.52661 0.51387 0.32652 0.0
C1008 C 0.31602 0.46216 0.4141 0.0
C1009 C 0.34794 0.47355 0.4051 0.0
C1010 C 0.38556 0.49633 0.36362 0.0
C1011 C 0.48782 0.5102 0.35162 0.0
C1012 C 0.45239 0.49937 0.36063 0.0
C1013 C 0.34979 0.47175 0.38817 0.0
C1014 C 0.38512 0.48122 0.37855 0.0
H1015 H 0.56968 0.55489 0.35801 0.0
H1016 H 0.51268 0.53498 0.37258 0.0
H1017 H 0.41791 0.51714 0.34348 0.0
H1018 H 0.26209 0.43875 0.38341 0.0
H1019 H 0.31789 0.45763 0.36767 0.0
C1020 C 0.30705 0.76333 0.61199 0.0
C1021 C 0.29147 0.75621 0.59726 0.0
C1022 C 0.31845 0.73546 0.62021 0.0
C1023 C 0.29899 0.63784 0.62267 0.0
H1024 H 0.37916 0.64585 0.65019 0.0
C1025 C 0.34535 0.51729 0.6532 0.0
C1026 C 0.35649 0.52315 0.66891 0.0
C1027 C 0.33734 0.54581 0.64457 0.0
C1028 C 0.3564 0.64328 0.64269 0.0
H1029 H 0.27721 0.71507 0.57917 0.0
H1030 H 0.29862 0.6667 0.59294 0.0
H1031 H 0.36872 0.69542 0.63439 0.0
H1032 H 0.36693 0.56385 0.68795 0.0
H1033 H 0.35259 0.61334 0.67298 0.0
H1034 H 0.28672 0.58573 0.63091 0.0
C1035 C 0.30124 0.69344 0.5985 0.0
C1036 C 0.35043 0.67177 0.63359 0.0
C1037 C 0.28958 0.72117 0.59043 0.0
C1038 C 0.35834 0.55821 0.6759 0.0
C1039 C 0.35051 0.58672 0.66725 0.0
C1040 C 0.30505 0.60937 0.6317 0.0
C1041 C 0.3145 0.6999 0.61382 0.0
C1042 C 0.32166 0.66946 0.6234 0.0
C1043 C 0.34042 0.58102 0.65137 0.0
C1044 C 0.33382 0.61163 0.64184 0.0
H1045 H 0.30791 0.79004 0.61766 0.0
H1046 H 0.3283 0.7416 0.632 0.0
H1047 H 0.27596 0.6352 0.61533 0.0
H1048 H 0.3439 0.49074 0.64736 0.0
H1049 H 0.32992 0.54035 0.63234 0.0
C1050 C 0.95208 0.47476 0.86138 0.0
C1051 C 0.94725 0.48914 0.84672 0.0
C1052 C 0.98358 0.48399 0.86951 0.0
C1053 C 0.05994 0.55328 0.87249 0.0
H1054 H 0.10456 0.48328 0.89483 0.0
C1055 C 0.16905 0.59667 0.91594 0.0
C1056 C 0.20063 0.57754 0.9154 0.0
C1057 C 0.1387 0.58329 0.90796 0.0
C1058 C 0.09262 0.50308 0.88855 0.0
H1059 H 0.97207 0.52468 0.82919 0.0
H1060 H 0.02691 0.54067 0.84328 0.0
H1061 H 0.05112 0.46557 0.87979 0.0
H1062 H 0.22424 0.52828 0.90658 0.0
H1063 H 0.17067 0.50459 0.8924 0.0
H1064 H 0.10145 0.59067 0.88098 0.0
C1065 C 1.00616 0.5225 0.84863 0.0
C1066 C 0.06168 0.49304 0.88007 0.0
C1067 C 0.97466 0.51327 0.8405 0.0
C1068 C 0.20031 0.5436 0.90727 0.0
C1069 C 0.16964 0.53013 0.89913 0.0
C1070 C 0.09067 0.56327 0.88095 0.0
C1071 C 1.01119 0.50791 0.86323 0.0
C1072 C 0.04473 0.51809 0.87199 0.0
C1073 C 0.13883 0.55036 0.89902 0.0
C1074 C 0.10725 0.53849 0.88928 0.0
H1075 H 0.93159 0.45607 0.86656 0.0
H1076 H 0.98607 0.47262 0.88083 0.0
H1077 H 0.04765 0.57346 0.86659 0.0
H1078 H 0.16802 0.62267 0.92229 0.0
H1079 H 0.11519 0.59919 0.90861 0.0
C1080 C 0.79919 0.56202 0.83305 0.0
C1081 C 0.80654 0.53347 0.84187 0.0
C1082 C 0.78933 0.5945 0.84084 0.0
C1083 C 0.76187 0.63925 0.88149 0.0
H1084 H 0.7946 0.72441 0.85997 0.0
C1085 C 0.75949 0.78158 0.9135 0.0
C1086 C 0.74393 0.80725 0.90531 0.0
C1087 C 0.76712 0.74829 0.90583 0.0
C1088 C 0.78508 0.7009 0.86611 0.0
H1089 H 0.80865 0.51672 0.86593 0.0
H1090 H 0.79268 0.57345 0.87953 0.0
H1091 H 0.80659 0.66636 0.8468 0.0
H1092 H 0.72522 0.81812 0.8824 0.0
H1093 H 0.73957 0.76055 0.86891 0.0
H1094 H 0.74155 0.67436 0.90105 0.0
C1095 C 0.79346 0.5707 0.86655 0.0
C1096 C 0.79169 0.66736 0.8585 0.0
C1097 C 0.80267 0.53795 0.85874 0.0
C1098 C 0.73728 0.7991 0.88908 0.0
C1099 C 0.74554 0.76607 0.88133 0.0
C1100 C 0.75582 0.67287 0.8892 0.0
C1101 C 0.78728 0.59984 0.85773 0.0
C1102 C 0.78001 0.63583 0.86598 0.0
C1103 C 0.76004 0.73999 0.88967 0.0
C1104 C 0.76718 0.70415 0.88159 0.0
H1105 H 0.80181 0.55953 0.82004 0.0
H1106 H 0.78377 0.61555 0.83349 0.0
H1107 H 0.75178 0.61597 0.88766 0.0
H1108 H 0.76477 0.78677 0.92603 0.0
H1109 H 0.77858 0.72898 0.91257 0.0
C1110 C 0.50446 0.47583 0.648 0.0
C1111 C 0.49849 0.48536 0.66454 0.0
C1112 C 0.53707 0.48677 0.63936 0.0
C1113 C 0.63391 0.51486 0.64381 0.0
H1114 H 0.6301 0.55394 0.60256 0.0
C1115 C 0.76374 0.57705 0.6089 0.0
C1116 C 0.7649 0.57656 0.59205 0.0
C1117 C 0.73226 0.56414 0.61786 0.0
C1118 C 0.63199 0.54244 0.61389 0.0
H1119 H 0.52251 0.51388 0.68492 0.0
H1120 H 0.57974 0.53247 0.66986 0.0
H1121 H 0.57367 0.53562 0.61777 0.0
H1122 H 0.73446 0.5602 0.5714 0.0
H1123 H 0.68068 0.53609 0.5868 0.0
H1124 H 0.69219 0.52076 0.63983 0.0
C1125 C 0.55901 0.51659 0.66359 0.0
C1126 C 0.59939 0.53214 0.62269 0.0
C1127 C 0.5261 0.50613 0.6722 0.0
C1128 C 0.73451 0.56116 0.58436 0.0
C1129 C 0.70333 0.54774 0.59327 0.0
C1130 C 0.66662 0.52468 0.63489 0.0
C1131 C 0.56492 0.50709 0.64705 0.0
C1132 C 0.59985 0.51827 0.63778 0.0
C1133 C 0.70116 0.54991 0.61021 0.0
C1134 C 0.66627 0.53868 0.61975 0.0
H1135 H 0.48386 0.45987 0.64169 0.0
H1136 H 0.54075 0.47875 0.62667 0.0
H1137 H 0.6353 0.50392 0.65531 0.0
H1138 H 0.78646 0.5891 0.61524 0.0
H1139 H 0.73191 0.56676 0.63082 0.0
C1140 C 0.7683 0.27343 0.38462 0.0
C1141 C 0.75516 0.27582 0.40088 0.0
C1142 C 0.7669 0.30237 0.3751 0.0
C1143 C 0.76042 0.39985 0.37697 0.0
H1144 H 0.71202 0.38276 0.33751 0.0
C1145 C 0.70741 0.51504 0.34522 0.0
C1146 C 0.70364 0.51133 0.32859 0.0
C1147 C 0.71884 0.48701 0.35325 0.0
C1148 C 0.72636 0.38821 0.34828 0.0
H1149 H 0.73182 0.3108 0.42006 0.0
H1150 H 0.73034 0.36145 0.40368 0.0
H1151 H 0.72375 0.33283 0.3527 0.0
H1152 H 0.71085 0.47563 0.30726 0.0
H1153 H 0.73248 0.42753 0.32104 0.0
H1154 H 0.76365 0.45504 0.37259 0.0
C1155 C 0.74133 0.33721 0.39818 0.0
C1156 C 0.73294 0.35938 0.35705 0.0
C1157 C 0.74201 0.30816 0.40756 0.0
C1158 C 0.71335 0.47944 0.32008 0.0
C1159 C 0.72534 0.45158 0.32808 0.0
C1160 C 0.75442 0.42864 0.36809 0.0
C1161 C 0.75315 0.33456 0.38176 0.0
C1162 C 0.74947 0.36488 0.37164 0.0
C1163 C 0.7274 0.4545 0.34488 0.0
C1164 C 0.73665 0.42344 0.35372 0.0
H1165 H 0.77828 0.24875 0.37914 0.0
H1166 H 0.77635 0.29953 0.3625 0.0
H1167 H 0.77358 0.40498 0.38809 0.0
H1168 H 0.69982 0.53902 0.35222 0.0
H1169 H 0.7194 0.4905 0.36617 0.0
C1170 C 0.86577 0.42616 0.08825 0.0
C1171 C 0.83696 0.44763 0.08627 0.0
C1172 C 0.89634 0.43974 0.09604 0.0
C1173 C 0.94815 0.52276 0.10994 0.0
H1174 H 0.98851 0.45849 0.13679 0.0
C1175 C 0.08831 0.55463 0.13727 0.0
C1176 C 0.09215 0.5435 0.15268 0.0
C1177 C 0.05686 0.54427 0.12924 0.0
C1178 C 0.97754 0.47708 0.12951 0.0
H1179 H 0.81841 0.50083 0.09068 0.0
H1180 H 0.87198 0.52471 0.10468 0.0
H1181 H 0.93398 0.43961 0.12331 0.0
H1182 H 0.06556 0.51288 0.17172 0.0
H1183 H 1.01081 0.49544 0.15796 0.0
H1184 H 0.99142 0.5606 0.1166 0.0
C1185 C 0.87085 0.49722 0.09998 0.0
C1186 C 0.94636 0.466 0.12154 0.0
C1187 C 0.84007 0.48356 0.092 0.0
C1188 C 0.06378 0.52169 0.15981 0.0
C1189 C 0.03231 0.51155 0.15184 0.0
C1190 C 0.9794 0.53396 0.11802 0.0
C1191 C 0.89916 0.47525 0.10233 0.0
C1192 C 0.93137 0.48844 0.11147 0.0
C1193 C 0.02829 0.52263 0.13642 0.0
C1194 C 0.9947 0.51118 0.12787 0.0
H1195 H 0.86479 0.39849 0.08379 0.0
H1196 H 0.91788 0.42217 0.09712 0.0
H1197 H 0.9376 0.54076 0.10226 0.0
H1198 H 0.10959 0.57144 0.13141 0.0
H1199 H 0.05518 0.55294 0.11731 0.0
C1200 C 0.80513 0.73488 0.60969 0.0
C1201 C 0.79828 0.72585 0.59357 0.0
C1202 C 0.79744 0.76837 0.61705 0.0
C1203 C 0.74911 0.85096 0.61181 0.0
H1204 H 0.81284 0.89189 0.64391 0.0
C1205 C 0.7419 0.99728 0.63853 0.0
C1206 C 0.73943 1.00154 0.65542 0.0
C1207 C 0.75138 0.96484 0.63049 0.0
C1208 C 0.79472 0.88083 0.635 0.0
H1209 H 0.7774 0.74512 0.57262 0.0
H1210 H 0.76497 0.80374 0.5852 0.0
H1211 H 0.82308 0.83313 0.63108 0.0
H1212 H 0.74669 0.97541 0.677 0.0
H1213 H 0.7644 0.91952 0.663 0.0
H1214 H 0.72137 0.89936 0.61559 0.0
C1215 C 0.77546 0.78474 0.5924 0.0
C1216 C 0.80036 0.84683 0.62768 0.0
C1217 C 0.78265 0.75097 0.58512 0.0
C1218 C 0.7486 0.97321 0.66399 0.0
C1219 C 0.7587 0.94108 0.65595 0.0
C1220 C 0.74383 0.88521 0.61898 0.0
C1221 C 0.78324 0.79426 0.60844 0.0
C1222 C 0.77743 0.83106 0.61606 0.0
C1223 C 0.75928 0.93609 0.63912 0.0
C1224 C 0.76636 0.90049 0.63077 0.0
H1225 H 0.81702 0.71617 0.61661 0.0
H1226 H 0.80293 0.77392 0.62952 0.0
H1227 H 0.7304 0.83989 0.60316 0.0
H1228 H 0.73455 0.01832 0.63155 0.0
H1229 H 0.7519 0.96203 0.61751 0.0
C1230 C 0.81499 0.96816 0.91551 0.0
C1231 C 0.78366 0.95522 0.9078 0.0
C1232 C 0.84642 0.98138 0.90667 0.0
C1233 C 0.89552 0.97245 0.86667 0.0
H1234 H 0.95043 0.05877 0.88062 0.0
C1235 C 0.02519 0.02675 0.82906 0.0
C1236 C 0.05293 0.04635 0.8371 0.0
C1237 C 0.99199 0.01601 0.8374 0.0
C1238 C 0.93599 0.03422 0.87663 0.0
H1239 H 0.76096 0.9466 0.88465 0.0
H1240 H 0.81604 0.96921 0.86921 0.0
H1241 H 0.89349 0.04064 0.89558 0.0
H1242 H 0.06778 0.06885 0.8604 0.0
H1243 H 1.01114 0.04887 0.875 0.0
H1244 H 0.9384 0.9651 0.84809 0.0
C1245 C 0.81612 0.96926 0.88214 0.0
C1246 C 0.90301 0.02398 0.8852 0.0
C1247 C 0.7844 0.95663 0.89102 0.0
C1248 C 0.04696 0.05403 0.85377 0.0
C1249 C 1.01409 0.04282 0.86214 0.0
C1250 C 0.92882 0.98235 0.85823 0.0
C1251 C 0.84772 0.98143 0.88983 0.0
C1252 C 0.88231 0.99296 0.88036 0.0
C1253 C 0.98569 0.02407 0.8541 0.0
C1254 C 0.94977 1.01341 0.86306 0.0
H1255 H 0.81554 0.96729 0.92839 0.0
H1256 H 0.87026 0.99033 0.91299 0.0
H1257 H 0.88055 0.94813 0.86271 0.0
H1258 H 0.02866 0.02062 0.8162 0.0
H1259 H 0.97095 1.00216 0.83059 0.0
C1260 C 0.84501 1.01206 0.14986 0.0
C1261 C 0.84544 1.01434 0.16667 0.0
C1262 C 0.83552 0.04095 0.14184 0.0
C1263 C 0.82741 0.13964 0.14792 0.0
H1264 H 0.7876 0.12559 0.10634 0.0
C1265 C 0.78622 0.25384 0.10981 0.0
C1266 C 0.80076 0.25138 0.09368 0.0
C1267 C 0.78949 0.22618 0.11989 0.0
C1268 C 0.7987 0.12995 0.11796 0.0
H1269 H 0.83444 0.04838 0.18827 0.0
H1270 H 0.81617 0.09795 0.17444 0.0
H1271 H 0.79449 0.07442 0.12157 0.0
H1272 H 0.83247 0.2184 0.0761 0.0
H1273 H 0.83673 0.17042 0.09331 0.0
H1274 H 0.8308 0.19551 0.14422 0.0
C1275 C 0.82442 0.07438 0.1673 0.0
C1276 C 0.80297 0.10052 0.12669 0.0
C1277 C 0.83446 0.04568 0.1753 0.0
C1278 C 0.81974 0.22111 0.08819 0.0
C1279 C 0.82241 0.19345 0.09811 0.0
C1280 C 0.82251 0.16917 0.13927 0.0
C1281 C 0.82561 0.07288 0.1504 0.0
C1282 C 0.81812 0.10471 0.14169 0.0
C1283 C 0.80691 0.19531 0.11399 0.0
C1284 C 0.80879 0.16459 0.12404 0.0
H1285 H 0.85378 0.98857 0.14279 0.0
H1286 H 0.83748 0.03858 0.12884 0.0
H1287 H 0.83966 0.14428 0.15926 0.0
H1288 H 0.77143 0.27656 0.11454 0.0
H1289 H 0.77739 0.22842 0.13213 0.0
C1290 C 0.69594 0.09088 0.39821 0.0
C1291 C 0.71093 0.07329 0.4101 0.0
C1292 C 0.66476 0.07657 0.39106 0.0
C1293 C 0.58163 0.0194 0.39786 0.0
H1294 H 0.57723 0.02216 0.35187 0.0
C1295 C 0.45278 0.96712 0.36487 0.0
C1296 C 0.44473 0.98479 0.3515 0.0
C1297 C 0.48516 0.97607 0.37241 0.0
C1298 C 0.57766 0.02163 0.36476 0.0
H1299 H 0.70483 0.02649 0.42373 0.0
H1300 H 0.64934 1.00146 0.41131 0.0
H1301 H 0.63434 0.03916 0.36394 0.0
H1302 H 0.46388 0.02679 0.33604 0.0
H1303 H 0.51948 0.04314 0.34942 0.0
H1304 H 0.52462 1.00289 0.39877 0.0
C1305 C 0.6622 0.02642 0.40753 0.0
C1306 C 0.6106 0.03114 0.37167 0.0
C1307 C 0.69406 0.04057 0.41455 0.0
C1308 C 0.46926 1.01244 0.34622 0.0
C1309 C 0.50144 0.02157 0.35383 0.0
C1310 C 0.54846 1.01016 0.39096 0.0
C1311 C 0.6472 0.04437 0.3957 0.0
C1312 C 0.61295 0.03062 0.38832 0.0
C1313 C 0.51028 1.0031 0.36686 0.0
C1314 C 0.54584 1.01163 0.37431 0.0
H1315 H 0.70823 0.11609 0.39444 0.0
H1316 H 0.65381 0.0913 0.38214 0.0
H1317 H 0.58242 0.01906 0.41075 0.0
H1318 H 0.43459 0.94558 0.36924 0.0
H1319 H 0.49094 0.96099 0.3823 0.0
C1320 C 0.25467 0.27843 0.41507 0.0
C1321 C 0.23811 0.30341 0.40686 0.0
C1322 C 0.26211 0.24488 0.40763 0.0
C1323 C 0.27887 0.19611 0.36828 0.0
H1324 H 0.24784 0.11178 0.39066 0.0
C1325 C 0.29609 0.05641 0.33638 0.0
C1326 C 0.30379 0.02844 0.34548 0.0
C1327 C 0.28557 0.08895 0.34388 0.0
C1328 C 0.25733 0.13489 0.38425 0.0
H1329 H 0.21726 0.31274 0.38419 0.0
H1330 H 0.23135 0.2547 0.37107 0.0
H1331 H 0.2368 0.17038 0.40363 0.0
H1332 H 0.30592 1.01282 0.36971 0.0
H1333 H 0.28894 0.06968 0.38282 0.0
H1334 H 0.30074 0.16128 0.34918 0.0
C1335 C 0.23819 0.26096 0.38334 0.0
C1336 C 0.25078 0.16863 0.39172 0.0
C1337 C 0.23007 0.29424 0.39087 0.0
C1338 C 0.29967 0.03357 0.36232 0.0
C1339 C 0.28985 0.06642 0.36985 0.0
C1340 C 0.28605 0.16246 0.36092 0.0
C1341 C 0.25388 0.23565 0.39168 0.0
C1342 C 0.26132 0.19969 0.38381 0.0
C1343 C 0.28324 0.095 0.36075 0.0
C1344 C 0.27524 0.13112 0.36871 0.0
H1345 H 0.26106 0.28443 0.42742 0.0
H1346 H 0.27448 0.22616 0.41436 0.0
H1347 H 0.28775 0.21947 0.36191 0.0
H1348 H 0.2989 0.05339 0.32338 0.0
H1349 H 0.2797 0.1095 0.33632 0.0
C1350 C 1.01921 1.00769 0.17121 0.0
C1351 C 0.99263 0.98664 0.16305 0.0
C1352 C 0.05291 0.01815 0.16324 0.0
C1353 C 0.11279 0.99652 0.12554 0.0
H1354 H 0.16492 0.0855 0.13814 0.0
C1355 C 0.23467 0.061 0.08683 0.0
C1356 C 0.2649 0.0762 0.09472 0.0
C1357 C 0.20315 0.04773 0.09556 0.0
C1358 C 0.15089 0.06037 0.13458 0.0
H1359 H 0.98032 0.96123 0.13989 0.0
H1360 H 0.03791 0.98067 0.12587 0.0
H1361 H 0.10619 0.06894 0.15215 0.0
H1362 H 0.28573 0.08867 0.11809 0.0
H1363 H 0.23042 0.06589 0.13336 0.0
H1364 H 0.15711 0.9888 0.10756 0.0
C1365 C 0.03363 0.98811 0.13858 0.0
C1366 C 0.1171 0.05073 0.14267 0.0
C1367 C 1.00023 0.97721 0.14661 0.0
C1368 C 0.26314 0.07685 0.1116 0.0
C1369 C 0.23129 0.06414 0.12036 0.0
C1370 C 0.14628 1.00645 0.11731 0.0
C1371 C 0.06087 1.00832 0.14679 0.0
C1372 C 0.09733 0.01865 0.13826 0.0
C1373 C 0.20068 0.04985 0.11246 0.0
C1374 C 0.16577 0.03852 0.1217 0.0
H1375 H 1.01444 1.0152 0.1839 0.0
H1376 H 0.07304 0.0332 0.17015 0.0
H1377 H 0.09924 0.9712 0.12195 0.0
H1378 H 0.23495 0.06024 0.07386 0.0
H1379 H 0.18008 0.0371 0.08908 0.0
C1380 C 0.20843 0.98519 0.82261 0.0
C1381 C 0.19977 0.01739 0.8311 0.0
C1382 C 0.21922 0.95681 0.83063 0.0
C1383 C 0.24666 0.93279 0.87076 0.0
H1384 H 0.21343 0.83777 0.85531 0.0
C1385 C 0.22954 0.81222 0.91021 0.0
C1386 C 0.2429 0.77989 0.90366 0.0
C1387 C 0.22949 0.84131 0.9008 0.0
C1388 C 0.22328 0.8641 0.85967 0.0
H1389 H 0.19648 0.04505 0.85476 0.0
H1390 H 0.21388 0.99569 0.86874 0.0
H1391 H 0.20367 0.88818 0.84002 0.0
H1392 H 0.26686 0.75278 0.88208 0.0
H1393 H 0.26591 0.80357 0.86539 0.0
H1394 H 0.26445 0.90848 0.89088 0.0
C1395 C 0.21348 0.99231 0.85581 0.0
C1396 C 0.21786 0.89318 0.85086 0.0
C1397 C 0.20329 0.02082 0.84776 0.0
C1398 C 0.25667 0.77744 0.88747 0.0
C1399 C 0.25587 0.80639 0.87792 0.0
C1400 C 0.25145 0.90377 0.8797 0.0
C1401 C 0.22107 0.95955 0.84744 0.0
C1402 C 0.22912 0.92814 0.85632 0.0
C1403 C 0.24212 0.83864 0.88448 0.0
C1404 C 0.23955 0.86911 0.87435 0.0
H1405 H 0.20609 0.98159 0.80977 0.0
H1406 H 0.22564 0.93254 0.8236 0.0
H1407 H 0.25663 0.95893 0.87527 0.0
H1408 H 0.21892 0.81492 0.92266 0.0
H1409 H 0.2185 0.86563 0.9062 0.0
C1410 C 0.59161 0.03937 0.6357 0.0
C1411 C 0.595 0.03143 0.65163 0.0
C1412 C 0.56 0.0282 0.62796 0.0
C1413 C 0.47598 0.96628 0.63123 0.0
H1414 H 0.442 0.02658 0.60085 0.0
C1415 C 0.35616 0.91802 0.59329 0.0
C1416 C 0.3317 0.94249 0.58944 0.0
C1417 C 0.38818 0.92946 0.60055 0.0
C1418 C 0.45076 1.00954 0.60943 0.0
H1419 H 0.56766 1.00528 0.67188 0.0
H1420 H 0.51237 0.98665 0.65865 0.0
H1421 H 0.49713 0.04494 0.61425 0.0
H1422 H 0.3221 0.99846 0.59018 0.0
H1423 H 0.37762 0.01857 0.60335 0.0
H1424 H 0.42888 0.93166 0.62701 0.0
C1425 C 0.53439 1.00075 0.65188 0.0
C1426 C 0.4829 0.01982 0.61696 0.0
C1427 C 0.56619 1.01155 0.65954 0.0
C1428 C 0.34036 0.9789 0.59294 0.0
C1429 C 0.37237 0.9904 0.60043 0.0
C1430 C 0.44371 0.95621 0.62385 0.0
C1431 C 0.53062 1.00911 0.63599 0.0
C1432 C 0.49617 0.99826 0.62793 0.0
C1433 C 0.3967 0.96578 0.60445 0.0
C1434 C 0.43067 0.97748 0.61271 0.0
H1435 H 0.6133 0.05457 0.62921 0.0
H1436 H 0.55871 0.03457 0.61564 0.0
H1437 H 0.48525 0.9486 0.63941 0.0
H1438 H 0.35073 0.88977 0.5906 0.0
H1439 H 0.40644 0.90961 0.60296 0.0
C1440 C 0.28274 0.13614 0.99488 0.0
C1441 C 0.26208 0.15526 0.007 0.0
C1442 C 0.27751 0.13941 0.97875 0.0
C1443 C 0.24171 0.19635 0.95097 0.0
H1444 H 0.2199 0.10805 0.92598 0.0
C1445 C 0.17521 0.19123 0.8907 0.0
C1446 C 0.18537 0.16477 0.87887 0.0
C1447 C 0.18805 0.19191 0.90597 0.0
C1448 C 0.22661 0.13298 0.93264 0.0
H1449 H 0.22124 0.19403 0.01186 0.0
H1450 H 0.21215 0.19987 0.98364 0.0
H1451 H 0.23791 0.10645 0.95319 0.0
H1452 H 0.21836 0.11958 0.87328 0.0
H1453 H 0.24161 0.12123 0.89968 0.0
H1454 H 0.23057 0.22296 0.93041 0.0
C1455 C 0.23221 0.18227 0.98661 0.0
C1456 C 0.23685 0.13199 0.94824 0.0
C1457 C 0.23709 0.17863 0.00272 0.0
C1458 C 0.20948 0.13975 0.88234 0.0
C1459 C 0.22273 0.14071 0.89747 0.0
C1460 C 0.23187 0.19736 0.93527 0.0
C1461 C 0.25195 0.16227 0.97451 0.0
C1462 C 0.24408 0.16364 0.95759 0.0
C1463 C 0.21171 0.16641 0.90956 0.0
C1464 C 0.22383 0.16566 0.92598 0.0
H1465 H 0.30208 0.11789 0.99791 0.0
H1466 H 0.29315 0.12384 0.96959 0.0
H1467 H 0.24741 0.2211 0.95795 0.0
H1468 H 0.15653 0.21069 0.88826 0.0
H1469 H 0.17865 0.2118 0.91506 0.0
C1470 C 0.67084 0.43018 0.11244 0.0
C1471 C 0.69543 0.40338 0.10882 0.0
C1472 C 0.65784 0.43867 0.12828 0.0
C1473 C 0.65124 0.40836 0.16965 0.0
H1474 H 0.65207 0.50946 0.18176 0.0
C1475 C 0.65555 0.50809 0.23062 0.0
C1476 C 0.63024 0.48924 0.24081 0.0
C1477 C 0.65967 0.49799 0.2142 0.0
C1478 C 0.65185 0.48115 0.17859 0.0
H1479 H 0.72426 0.36324 0.11888 0.0
H1480 H 0.70202 0.37845 0.14661 0.0
H1481 H 0.66587 0.48913 0.1538 0.0
H1482 H 0.58792 0.44648 0.24168 0.0
H1483 H 0.59467 0.42916 0.21304 0.0
H1484 H 0.63876 0.40044 0.19456 0.0
C1485 C 0.69241 0.39264 0.13718 0.0
C1486 C 0.65926 0.46945 0.16252 0.0
C1487 C 0.70524 0.38395 0.12128 0.0
C1488 C 0.60815 0.46104 0.23416 0.0
C1489 C 0.61209 0.45107 0.21776 0.0
C1490 C 0.64394 0.42008 0.18574 0.0
C1491 C 0.66935 0.42076 0.14089 0.0
C1492 C 0.6593 0.43292 0.15787 0.0
C1493 C 0.63836 0.46899 0.20763 0.0
C1494 C 0.64444 0.45662 0.19042 0.0
H1495 H 0.66247 0.44541 0.10307 0.0
H1496 H 0.63942 0.45989 0.13069 0.0
H1497 H 0.65074 0.38006 0.16645 0.0
H1498 H 0.67317 0.52971 0.23544 0.0
H1499 H 0.68045 0.51213 0.20677 0.0
C1500 C 0.3198 0.90619 0.52041 0.0
C1501 C 0.29773 0.87923 0.52765 0.0
C1502 C 0.33114 0.90243 0.50413 0.0
C1503 C 0.33042 0.84022 0.46723 0.0
H1504 H 0.31971 0.92767 0.44712 0.0
C1505 C 0.30676 0.84894 0.39988 0.0
C1506 C 0.32694 0.87633 0.39195 0.0
C1507 C 0.30813 0.84667 0.41641 0.0
C1508 C 0.32325 0.90314 0.45255 0.0
H1509 H 0.27182 0.82643 0.52402 0.0
H1510 H 0.29022 0.82028 0.4953 0.0
H1511 H 0.31532 0.92783 0.47614 0.0
H1512 H 0.36579 0.92178 0.39519 0.0
H1513 H 0.36727 0.91831 0.42395 0.0
H1514 H 0.33664 0.81546 0.44332 0.0
C1515 C 0.29975 0.84395 0.50221 0.0
C1516 C 0.321 0.90321 0.46922 0.0
C1517 C 0.28916 0.84741 0.51866 0.0
C1518 C 0.34906 0.90092 0.40089 0.0
C1519 C 0.35019 0.89881 0.41738 0.0
C1520 C 0.33224 0.8401 0.45046 0.0
C1521 C 0.31959 0.8721 0.49463 0.0
C1522 C 0.32454 0.8718 0.47682 0.0
C1523 C 0.32948 0.8719 0.42533 0.0
C1524 C 0.32862 0.8716 0.443 0.0
H1525 H 0.32695 0.93086 0.52722 0.0
H1526 H 0.34745 0.92412 0.49882 0.0
H1527 H 0.33352 0.81562 0.47266 0.0
H1528 H 0.28929 0.82969 0.39341 0.0
H1529 H 0.2916 0.82588 0.4223 0.0
C1530 C 0.90236 0.57207 0.63188 0.0
C1531 C 0.92383 0.60308 0.6284 0.0
C1532 C 0.90599 0.55558 0.64593 0.0
C1533 C 0.96442 0.55305 0.67981 0.0
H1534 H 0.87212 0.52697 0.70308 0.0
C1535 C 0.94424 0.54444 0.74827 0.0
C1536 C 0.91868 0.51858 0.7544 0.0
C1537 C 0.94975 0.54774 0.73176 0.0
C1538 C 0.89818 0.53338 0.69661 0.0
H1539 H 0.96665 0.64065 0.63648 0.0
H1540 H 0.97239 0.61246 0.66141 0.0
H1541 H 0.87247 0.54637 0.67613 0.0
H1542 H 0.88028 0.47464 0.748 0.0
H1543 H 0.89023 0.48017 0.71917 0.0
H1544 H 0.98985 0.54136 0.70076 0.0
C1545 C 0.95326 0.60044 0.65312 0.0
C1546 C 0.89841 0.54452 0.68115 0.0
C1547 C 0.94986 0.61672 0.63895 0.0
C1548 C 0.90021 0.4948 0.74367 0.0
C1549 C 0.9057 0.49811 0.72716 0.0
C1550 C 0.96417 0.542 0.69537 0.0
C1551 C 0.93089 0.57002 0.65688 0.0
C1552 C 0.93145 0.55502 0.67267 0.0
C1553 C 0.92977 0.52523 0.7211 0.0
C1554 C 0.93097 0.53262 0.70399 0.0
H1555 H 0.88275 0.56052 0.62372 0.0
H1556 H 0.88894 0.53175 0.64832 0.0
H1557 H 0.99034 0.56051 0.67347 0.0
H1558 H 0.95939 0.56268 0.75624 0.0
H1559 H 0.96832 0.56903 0.72742 0.0
C1560 C 0.84851 0.83246 0.11551 0.0
C1561 C 0.87367 0.85972 0.12069 0.0
C1562 C 0.83864 0.82974 0.0997 0.0
C1563 C 0.86828 0.85726 0.0592 0.0
H1564 H 0.76519 0.84506 0.05208 0.0
C1565 C 0.77085 0.88209 0.00643 0.0
C1566 C 0.79177 0.86726 0.99314 0.0
C1567 C 0.77922 0.87685 0.02202 0.0
C1568 C 0.79404 0.84852 0.05391 0.0
H1569 H 0.90927 0.90459 0.11326 0.0
H1570 H 0.89183 0.90009 0.08571 0.0
H1571 H 0.7845 0.84428 0.07929 0.0
H1572 H 0.83606 0.83328 0.98571 0.0
H1573 H 0.85061 0.82409 0.01285 0.0
H1574 H 0.87787 0.8626 0.03398 0.0
C1575 C 0.8798 0.88077 0.09385 0.0
C1576 C 0.80512 0.84771 0.06943 0.0
C1577 C 0.88952 0.88357 0.10965 0.0
C1578 C 0.82009 0.8458 0.99572 0.0
C1579 C 0.82837 0.84048 0.01125 0.0
C1580 C 0.85725 0.85798 0.04372 0.0
C1581 C 0.85396 0.85408 0.08877 0.0
C1582 C 0.84232 0.85248 0.07223 0.0
C1583 C 0.80857 0.85658 0.02456 0.0
C1584 C 0.82001 0.85393 0.04093 0.0
H1585 H 0.8356 0.81389 0.12378 0.0
H1586 H 0.8189 0.80872 0.09605 0.0
H1587 H 0.89715 0.8607 0.061 0.0
H1588 H 0.74898 0.89884 0.00476 0.0
H1589 H 0.76366 0.8898 0.03206 0.0
C1590 C 0.36401 0.59745 0.8854 0.0
C1591 C 0.33916 0.62407 0.88885 0.0
C1592 C 0.37758 0.58908 0.86964 0.0
C1593 C 0.38727 0.62029 0.82856 0.0
H1594 H 0.38734 0.51943 0.81598 0.0
C1595 C 0.39021 0.522 0.7671 0.0
C1596 C 0.41787 0.54 0.75768 0.0
C1597 C 0.3836 0.53223 0.7834 0.0
C1598 C 0.38734 0.54768 0.81929 0.0
H1599 H 0.3103 0.66389 0.87859 0.0
H1600 H 0.33366 0.6489 0.85095 0.0
H1601 H 0.37054 0.53901 0.84379 0.0
H1602 H 0.46133 0.58173 0.75812 0.0
H1603 H 0.44992 0.59947 0.78658 0.0
H1604 H 0.4029 0.62886 0.80391 0.0
C1605 C 0.34291 0.63474 0.86048 0.0
C1606 C 0.37816 0.55893 0.83526 0.0
C1607 C 0.32943 0.64326 0.8763 0.0
C1608 C 0.4394 0.56778 0.765 0.0
C1609 C 0.43284 0.57796 0.78129 0.0
C1610 C 0.39646 0.60901 0.81256 0.0
C1611 C 0.36648 0.60699 0.85695 0.0
C1612 C 0.37783 0.59535 0.84007 0.0
C1613 C 0.40458 0.56059 0.79063 0.0
C1614 C 0.39633 0.57257 0.80773 0.0
H1615 H 0.37236 0.58241 0.89483 0.0
H1616 H 0.39631 0.5681 0.86735 0.0
H1617 H 0.38753 0.64852 0.83192 0.0
H1618 H 0.37285 0.50082 0.76179 0.0
H1619 H 0.36131 0.51859 0.79022 0.0
C1620 C 0.68618 0.11749 0.60045 0.0
C1621 C 0.70242 0.1463 0.60952 0.0
C1622 C 0.6865 0.11769 0.58382 0.0
C1623 C 0.69453 0.17359 0.54998 0.0
H1624 H 0.73591 0.09189 0.52634 0.0
C1625 C 0.74113 0.16967 0.48219 0.0
C1626 C 0.74105 0.13644 0.47354 0.0
C1627 C 0.73022 0.17201 0.4986 0.0
C1628 C 0.72344 0.11455 0.53266 0.0
H1629 H 0.73081 0.19839 0.60807 0.0
H1630 H 0.73067 0.19886 0.57892 0.0
H1631 H 0.72875 0.09423 0.55543 0.0
H1632 H 0.72649 0.08017 0.47462 0.0
H1633 H 0.70538 0.08435 0.50297 0.0
H1634 H 0.68878 0.19379 0.52716 0.0
C1635 C 0.7178 0.17619 0.58485 0.0
C1636 C 0.71964 0.11595 0.54936 0.0
C1637 C 0.71789 0.17585 0.60153 0.0
C1638 C 0.72722 0.10603 0.48115 0.0
C1639 C 0.71549 0.10844 0.49741 0.0
C1640 C 0.6978 0.17197 0.53318 0.0
C1641 C 0.7026 0.14685 0.57587 0.0
C1642 C 0.70539 0.14551 0.55816 0.0
C1643 C 0.71842 0.14119 0.50652 0.0
C1644 C 0.71249 0.14247 0.52432 0.0
H1645 H 0.67306 0.09468 0.60613 0.0
H1646 H 0.67423 0.09492 0.57713 0.0
H1647 H 0.68326 0.19658 0.55657 0.0
H1648 H 0.75191 0.19346 0.47653 0.0
H1649 H 0.73308 0.19764 0.50521 0.0
C1650 C 0.08941 0.41451 0.36243 0.0
C1651 C 0.12137 0.42456 0.37013 0.0
C1652 C 0.08443 0.42711 0.34758 0.0
C1653 C 0.11397 0.49912 0.32166 0.0
H1654 H 0.08902 0.43079 0.2868 0.0
C1655 C 0.14171 0.52705 0.25523 0.0
C1656 C 0.11868 0.51009 0.24408 0.0
C1657 C 0.13593 0.52053 0.27144 0.0
C1658 C 0.09515 0.45041 0.29646 0.0
H1659 H 0.17294 0.45596 0.36854 0.0
H1660 H 0.16438 0.47783 0.34251 0.0
H1661 H 0.09076 0.41102 0.31368 0.0
H1662 H 0.06995 0.47553 0.24113 0.0
H1663 H 0.05917 0.46471 0.26955 0.0
H1664 H 0.11871 0.53851 0.30443 0.0
C1665 C 0.14316 0.46032 0.348 0.0
C1666 C 0.0963 0.439 0.31183 0.0
C1667 C 0.14828 0.44743 0.36275 0.0
C1668 C 0.08847 0.4883 0.24951 0.0
C1669 C 0.08239 0.48211 0.26573 0.0
C1670 C 0.11248 0.51064 0.30631 0.0
C1671 C 0.11119 0.45028 0.34031 0.0
C1672 C 0.10648 0.46311 0.32447 0.0
C1673 C 0.10674 0.49725 0.27679 0.0
C1674 C 0.10382 0.48625 0.29347 0.0
H1675 H 0.06838 0.39677 0.36787 0.0
H1676 H 0.05955 0.41903 0.34186 0.0
H1677 H 0.1214 0.51827 0.33131 0.0
H1678 H 0.16531 0.5438 0.25128 0.0
H1679 H 0.15547 0.53229 0.27959 0.0
C1680 C 0.66947 0.68458 0.38787 0.0
C1681 C 0.6814 0.65878 0.37607 0.0
C1682 C 0.6824 0.68635 0.40316 0.0
C1683 C 0.7246 0.6304 0.42992 0.0
H1684 H 0.74012 0.71938 0.45533 0.0
C1685 C 0.78036 0.6367 0.49228 0.0
C1686 C 0.75898 0.65508 0.50439 0.0
C1687 C 0.77486 0.63956 0.47615 0.0
C1688 C 0.73587 0.69438 0.44833 0.0
H1689 H 0.71765 0.61606 0.37053 0.0
H1690 H 0.74094 0.61962 0.39697 0.0
H1691 H 0.72317 0.72007 0.42774 0.0
H1692 H 0.71647 0.69216 0.50921 0.0
H1693 H 0.70683 0.69718 0.48099 0.0
H1694 H 0.73736 0.60478 0.45048 0.0
C1695 C 0.72068 0.63769 0.39472 0.0
C1696 C 0.726 0.69473 0.43259 0.0
C1697 C 0.7074 0.63566 0.37957 0.0
C1698 C 0.73291 0.67732 0.50009 0.0
C1699 C 0.72771 0.6805 0.48398 0.0
C1700 C 0.73482 0.6301 0.44555 0.0
C1701 C 0.70785 0.66261 0.4068 0.0
C1702 C 0.71992 0.6627 0.42326 0.0
C1703 C 0.74823 0.66122 0.47188 0.0
C1704 C 0.74018 0.66204 0.45494 0.0
H1705 H 0.64934 0.70259 0.38541 0.0
H1706 H 0.67164 0.7056 0.41224 0.0
H1707 H 0.71941 0.60519 0.42321 0.0
H1708 H 0.80053 0.61932 0.49531 0.0
H1709 H 0.79115 0.62458 0.467 0.0
C1710 C 0.18434 0.90441 0.62352 0.0
C1711 C 0.18297 0.92647 0.61085 0.0
C1712 C 0.17012 0.91487 0.63897 0.0
C1713 C 0.1483 0.99582 0.66429 0.0
H1714 H 0.11019 0.92671 0.69433 0.0
C1715 C 0.14852 0.02455 0.73272 0.0
C1716 C 0.12156 1.00739 0.74276 0.0
C1717 C 0.14993 0.01713 0.7161 0.0
C1718 C 0.12011 0.9466 0.6861 0.0
H1719 H 0.16388 0.97596 0.60424 0.0
H1720 H 0.13804 0.99379 0.63116 0.0
H1721 H 0.12111 0.90803 0.66611 0.0
H1722 H 0.07356 0.97093 0.74337 0.0
H1723 H 0.07513 0.95875 0.71432 0.0
H1724 H 0.14662 0.03453 0.68425 0.0
C1725 C 0.151 0.96882 0.62925 0.0
C1726 C 0.12693 0.93571 0.6699 0.0
C1727 C 0.16558 0.95849 0.6138 0.0
C1728 C 0.09501 0.98398 0.73586 0.0
C1729 C 0.09604 0.97696 0.71924 0.0
C1730 C 0.14106 1.00681 0.68047 0.0
C1731 C 0.15379 0.94748 0.6421 0.0
C1732 C 0.14203 0.95997 0.65887 0.0
C1733 C 0.12403 0.99278 0.70916 0.0
C1734 C 0.12774 0.98216 0.69166 0.0
H1735 H 0.19769 0.87962 0.62168 0.0
H1736 H 0.17334 0.89798 0.64858 0.0
H1737 H 0.16018 1.01524 0.65618 0.0
H1738 H 0.16945 0.0425 0.73778 0.0
H1739 H 0.17223 0.02944 0.70878 0.0
C1740 C 0.83676 0.35077 0.89407 0.0
C1741 C 0.8299 0.38285 0.88775 0.0
C1742 C 0.84064 0.34951 0.91048 0.0
C1743 C 0.85972 0.40722 0.94682 0.0
H1744 H 0.80551 0.33256 0.96974 0.0
C1745 C 0.80801 0.42353 0.01291 0.0
C1746 C 0.80597 0.3942 0.02235 0.0
C1747 C 0.82059 0.42003 0.99675 0.0
C1748 C 0.82153 0.35314 0.96349 0.0
H1749 H 0.82066 0.43845 0.89374 0.0
H1750 H 0.82724 0.43626 0.92229 0.0
H1751 H 0.8078 0.32987 0.94052 0.0
H1752 H 0.81763 0.33877 0.02259 0.0
H1753 H 0.83952 0.33267 0.99423 0.0
H1754 H 0.87218 0.43122 0.96985 0.0
C1755 C 0.8305 0.41226 0.91453 0.0
C1756 C 0.82276 0.35163 0.94675 0.0
C1757 C 0.82658 0.41349 0.89819 0.0
C1758 C 0.81875 0.36182 0.01558 0.0
C1759 C 0.83113 0.35826 0.99935 0.0
C1760 C 0.85847 0.40874 0.96354 0.0
C1761 C 0.83778 0.38033 0.92084 0.0
C1762 C 0.84089 0.37924 0.9383 0.0
C1763 C 0.83124 0.3871 0.9897 0.0
C1764 C 0.83842 0.38227 0.97206 0.0
H1765 H 0.83997 0.32682 0.88632 0.0
H1766 H 0.84639 0.32457 0.91501 0.0
H1767 H 0.87457 0.42848 0.94057 0.0
H1768 H 0.79853 0.44888 0.01781 0.0
H1769 H 0.82001 0.44265 0.98959 0.0
C1770 C 0.44864 0.04248 0.25457 0.0
C1771 C 0.41899 0.01974 0.2598 0.0
C1772 C 0.45447 0.04958 0.23844 0.0
C1773 C 0.42613 0.02181 0.19757 0.0
H1774 H 0.44584 0.12204 0.19101 0.0
C1775 C 0.39506 0.08491 0.14024 0.0
C1776 C 0.4214 0.10969 0.13378 0.0
C1777 C 0.39902 0.0716 0.15503 0.0
C1778 C 0.44088 0.0939 0.19262 0.0
H1779 H 0.37316 0.9853 0.25228 0.0
H1780 H 0.38269 0.99826 0.22409 0.0
H1781 H 0.44617 0.10159 0.21783 0.0
H1782 H 0.47233 0.14012 0.13771 0.0
H1783 H 0.47921 0.11691 0.1637 0.0
H1784 H 0.41952 1.01456 0.17234 0.0
C1785 C 0.40189 1.01016 0.23237 0.0
C1786 C 0.44119 0.08212 0.20797 0.0
C1787 C 0.39632 1.00277 0.2485 0.0
C1788 C 0.45176 0.12093 0.1424 0.0
C1789 C 0.45558 0.10781 0.15727 0.0
C1790 C 0.42559 0.03367 0.18221 0.0
C1791 C 0.43048 0.03437 0.22725 0.0
C1792 C 0.43337 0.04601 0.21066 0.0
C1793 C 0.42925 0.08298 0.16369 0.0
C1794 C 0.4325 0.06989 0.17966 0.0
H1795 H 0.4669 0.0553 0.26304 0.0
H1796 H 0.47725 0.06767 0.23481 0.0
H1797 H 0.42052 0.99376 0.19923 0.0
H1798 H 0.37167 0.07538 0.13375 0.0
H1799 H 0.37811 0.05279 0.15981 0.0
C1800 C 0.34388 0.34264 0.61716 0.0
C1801 C 0.37039 0.36843 0.62247 0.0
C1802 C 0.33393 0.34112 0.60138 0.0
C1803 C 0.36572 0.36822 0.56107 0.0
H1804 H 0.2629 0.35807 0.55334 0.0
C1805 C 0.27038 0.38935 0.50676 0.0
C1806 C 0.29103 0.37238 0.49394 0.0
C1807 C 0.27854 0.38632 0.52259 0.0
C1808 C 0.29168 0.36105 0.55534 0.0
H1809 H 0.40802 0.4121 0.6153 0.0
H1810 H 0.3904 0.40973 0.58781 0.0
H1811 H 0.28116 0.35798 0.58075 0.0
H1812 H 0.3348 0.33714 0.48768 0.0
H1813 H 0.34899 0.33184 0.51521 0.0
H1814 H 0.37631 0.37213 0.53577 0.0
C1815 C 0.3774 0.3906 0.59583 0.0
C1816 C 0.30214 0.36062 0.57098 0.0
C1817 C 0.38725 0.39219 0.6116 0.0
C1818 C 0.31902 0.35126 0.49728 0.0
C1819 C 0.32712 0.34818 0.51304 0.0
C1820 C 0.35528 0.36855 0.54546 0.0
C1821 C 0.35043 0.36525 0.5906 0.0
C1822 C 0.33927 0.3644 0.57399 0.0
C1823 C 0.30743 0.36618 0.52584 0.0
C1824 C 0.31817 0.36507 0.54244 0.0
H1825 H 0.33013 0.3242 0.62529 0.0
H1826 H 0.31331 0.32107 0.59762 0.0
H1827 H 0.39454 0.37088 0.56301 0.0
H1828 H 0.24879 0.40594 0.50453 0.0
H1829 H 0.26307 0.4007 0.53223 0.0
C1830 C 0.85573 0.14435 0.37653 0.0
C1831 C 0.8497 0.1169 0.38701 0.0
C1832 C 0.87024 0.13729 0.36074 0.0
C1833 C 0.91332 0.06653 0.33314 0.0
H1834 H 0.87124 0.11499 0.30058 0.0
C1835 C 0.90542 0.01619 0.2661 0.0
C1836 C 0.91745 0.04105 0.25477 0.0
C1837 C 0.90308 0.02635 0.28253 0.0
C1838 C 0.88343 0.10152 0.30958 0.0
H1839 H 0.85472 0.06071 0.38933 0.0
H1840 H 0.87822 0.04809 0.3618 0.0
H1841 H 0.85632 0.13209 0.32881 0.0
H1842 H 0.93876 0.09574 0.25229 0.0
H1843 H 0.93298 0.11339 0.28075 0.0
H1844 H 0.93861 0.03455 0.31363 0.0
C1845 C 0.87308 0.07532 0.36574 0.0
C1846 C 0.87517 0.11146 0.32577 0.0
C1847 C 0.85929 0.08252 0.38156 0.0
C1848 C 0.92834 0.07592 0.26043 0.0
C1849 C 0.92537 0.08614 0.27679 0.0
C1850 C 0.92094 0.05611 0.31691 0.0
C1851 C 0.87829 0.10248 0.35503 0.0
C1852 C 0.88972 0.09389 0.33779 0.0
C1853 C 0.91225 0.06159 0.28793 0.0
C1854 C 0.90585 0.0734 0.30505 0.0
H1855 H 0.84885 0.17118 0.38046 0.0
H1856 H 0.87462 0.15906 0.35297 0.0
H1857 H 0.92569 0.05287 0.34201 0.0
H1858 H 0.89672 0.98917 0.26237 0.0
H1859 H 0.89271 1.00703 0.29098 0.0
C1860 C 0.2065 0.68379 0.10557 0.0
C1861 C 0.21201 0.65123 0.11181 0.0
C1862 C 0.20343 0.68565 0.08914 0.0
C1863 C 0.18346 0.62942 0.05252 0.0
H1864 H 0.24025 0.70313 0.02995 0.0
C1865 C 0.22504 0.67481 0.98379 0.0
C1866 C 0.23648 0.642 0.97691 0.0
C1867 C 0.21357 0.67871 0.00013 0.0
C1868 C 0.22355 0.68285 0.03611 0.0
H1869 H 0.21972 0.5954 0.10561 0.0
H1870 H 0.21445 0.59865 0.07703 0.0
H1871 H 0.2377 0.70512 0.0592 0.0
H1872 H 0.24275 0.58707 0.98142 0.0
H1873 H 0.22274 0.59383 0.00978 0.0
H1874 H 0.17049 0.60641 0.0294 0.0
C1875 C 0.21167 0.62257 0.08487 0.0
C1876 C 0.22218 0.68394 0.05286 0.0
C1877 C 0.21481 0.62073 0.10125 0.0
C1878 C 0.23428 0.61274 0.9864 0.0
C1879 C 0.22252 0.61654 0.00264 0.0
C1880 C 0.18486 0.62832 0.03581 0.0
C1881 C 0.2057 0.65498 0.07865 0.0
C1882 C 0.20306 0.65661 0.06118 0.0
C1883 C 0.21293 0.64974 0.00976 0.0
C1884 C 0.20584 0.65442 0.02742 0.0
H1885 H 0.20373 0.70767 0.11341 0.0
H1886 H 0.19869 0.71096 0.08468 0.0
H1887 H 0.16784 0.60843 0.05866 0.0
H1888 H 0.22643 0.69781 0.97674 0.0
H1889 H 0.20607 0.70453 0.00533 0.0
C1890 C 0.64781 0.95047 0.86309 0.0
C1891 C 0.62223 0.92569 0.87003 0.0
C1892 C 0.64273 0.96284 0.84822 0.0
C1893 C 0.60131 0.9363 0.8112 0.0
H1894 H 0.61778 0.03592 0.80285 0.0
C1895 C 0.59774 0.98 0.74763 0.0
C1896 C 0.62664 1.00377 0.74262 0.0
C1897 C 0.59027 0.97449 0.76386 0.0
C1898 C 0.61325 1.00801 0.80499 0.0
H1899 H 0.57142 0.89435 0.86697 0.0
H1900 H 0.56273 0.91571 0.84077 0.0
H1901 H 0.61858 0.01792 0.83024 0.0
H1902 H 0.6695 0.04155 0.75049 0.0
H1903 H 0.65745 0.03116 0.77888 0.0
H1904 H 0.59779 0.92588 0.786 0.0
C1905 C 0.58653 0.92565 0.84692 0.0
C1906 C 0.61361 0.99778 0.82064 0.0
C1907 C 0.59142 0.91357 0.86187 0.0
C1908 C 0.64697 0.0232 0.75413 0.0
C1909 C 0.63989 0.01733 0.77037 0.0
C1910 C 0.60132 0.94644 0.79556 0.0
C1911 C 0.61217 0.95038 0.83998 0.0
C1912 C 0.60824 0.96178 0.8238 0.0
C1913 C 0.61201 0.99226 0.77537 0.0
C1914 C 0.60789 0.98234 0.79223 0.0
H1915 H 0.67151 0.9606 0.86924 0.0
H1916 H 0.6631 0.98161 0.84302 0.0
H1917 H 0.59753 0.90832 0.81332 0.0
H1918 H 0.58125 0.9653 0.73894 0.0
H1919 H 0.56804 0.95565 0.76736 0.0
loop_
_geom_bond_atom_site_label_1
_geom_bond_atom_site_label_2
_geom_bond_distance
_geom_bond_site_symmetry_2
_ccdc_geom_bond_type
Co0 N5 2.057 . S
Co0 O17 2.021 . S
Co0 O20 2.062 . S
Co0 O24 2.117 . S
Co0 O25 2.020 . S
C1 O21 1.259 . S
C1 O24 1.258 . S
Co2 N11 2.057 . S
Co2 O18 2.117 . S
Co2 O19 2.020 . S
Co2 O21 2.021 . S
Co2 O26 2.062 . S
C3 N5 1.316 . S
C3 N6 1.347 . S
C3 H8 0.931 . S
C4 N5 1.375 . S
C4 C7 1.350 . S
C4 H9 0.930 . S
N5 Co0 2.057 . S
N5 C3 1.316 . S
N5 C4 1.375 . S
N6 C3 1.347 . S
N6 C7 1.373 . S
C7 C4 1.350 . S
C7 N6 1.373 . S
C7 H28 0.931 . S
H8 C3 0.931 . S
H9 C4 0.930 . S
C10 O17 1.259 . S
C10 O18 1.258 . S
N11 Co2 2.057 . S
N11 C12 1.316 . S
N11 C13 1.375 . S
C12 N11 1.316 . S
C12 N14 1.347 . S
C12 H23 0.931 . S
C13 N11 1.375 . S
C13 C15 1.350 . S
C13 H22 0.930 . S
N14 C12 1.347 . S
N14 C15 1.373 . S
C15 C13 1.350 . S
C15 N14 1.373 . S
C15 H29 0.931 . S
C16 O19 1.256 . S
C16 O20 1.255 . S
O17 Co0 2.021 . S
O17 C10 1.259 . S
O18 Co2 2.117 . S
O18 C10 1.258 . S
O19 Co2 2.020 . S
O19 C16 1.256 . S
O20 Co0 2.062 . S
O20 C16 1.255 . S
O21 C1 1.259 . S
O21 Co2 2.021 . S
H22 C13 0.930 . S
H23 C12 0.931 . S
O24 Co0 2.117 . S
O24 C1 1.258 . S
O25 Co0 2.020 . S
O25 C27 1.256 . S
O26 Co2 2.062 . S
O26 C27 1.255 . S
C27 O25 1.256 . S
C27 O26 1.255 . S
H28 C7 0.931 . S
H29 C15 0.931 . S
Co30 N35 2.057 . S
Co30 O47 2.021 . S
Co30 O50 2.062 . S
Co30 O54 2.117 . S
Co30 O55 2.020 . S
C31 O51 1.259 . S
C31 O54 1.258 . S
Co32 N41 2.057 . S
Co32 O48 2.117 . S
Co32 O49 2.020 . S
Co32 O51 2.021 . S
Co32 O56 2.062 . S
C33 N35 1.316 . S
C33 N36 1.347 . S
C33 H38 0.931 . S
C34 N35 1.375 . S
C34 C37 1.350 . S
C34 H39 0.930 . S
N35 Co30 2.057 . S
N35 C33 1.316 . S
N35 C34 1.375 . S
N36 C33 1.347 . S
N36 C37 1.373 . S
C37 C34 1.350 . S
C37 N36 1.373 . S
C37 H58 0.931 . S
H38 C33 0.931 . S
H39 C34 0.930 . S
C40 O47 1.259 . S
C40 O48 1.258 . S
N41 Co32 2.057 . S
N41 C42 1.316 . S
N41 C43 1.375 . S
C42 N41 1.316 . S
C42 N44 1.347 . S
C42 H53 0.931 . S
C43 N41 1.375 . S
C43 C45 1.350 . S
C43 H52 0.930 . S
N44 C42 1.347 . S
N44 C45 1.373 . S
C45 C43 1.350 . S
C45 N44 1.373 . S
C45 H59 0.931 . S
C46 O49 1.256 . S
C46 O50 1.255 . S
O47 Co30 2.021 . S
O47 C40 1.259 . S
O48 Co32 2.117 . S
O48 C40 1.258 . S
O49 Co32 2.020 . S
O49 C46 1.256 . S
O50 Co30 2.062 . S
O50 C46 1.255 . S
O51 C31 1.259 . S
O51 Co32 2.021 . S
H52 C43 0.930 . S
H53 C42 0.931 . S
O54 Co30 2.117 . S
O54 C31 1.258 . S
O55 Co30 2.020 . S
O55 C57 1.256 . S
O56 Co32 2.062 . S
O56 C57 1.255 . S
C57 O55 1.256 . S
C57 O56 1.255 . S
H58 C37 0.931 . S
H59 C45 0.931 . S
Co60 N65 2.057 . S
Co60 O77 2.021 . S
Co60 O80 2.062 . S
Co60 O84 2.117 . S
Co60 O85 2.020 . S
C61 O81 1.259 . S
C61 O84 1.258 . S
Co62 N71 2.057 . S
Co62 O78 2.117 . S
Co62 O79 2.020 . S
Co62 O81 2.021 . S
Co62 O86 2.062 . S
C63 N65 1.316 . S
C63 N66 1.347 . S
C63 H68 0.931 . S
C64 N65 1.375 . S
C64 C67 1.350 . S
C64 H69 0.930 . S
N65 Co60 2.057 . S
N65 C63 1.316 . S
N65 C64 1.375 . S
N66 C63 1.347 . S
N66 C67 1.373 . S
C67 C64 1.350 . S
C67 N66 1.373 . S
C67 H88 0.931 . S
H68 C63 0.931 . S
H69 C64 0.930 . S
C70 O77 1.259 . S
C70 O78 1.258 . S
N71 Co62 2.057 . S
N71 C72 1.316 . S
N71 C73 1.375 . S
C72 N71 1.316 . S
C72 N74 1.347 . S
C72 H83 0.931 . S
C73 N71 1.375 . S
C73 C75 1.350 . S
C73 H82 0.930 . S
N74 C72 1.347 . S
N74 C75 1.373 . S
C75 C73 1.350 . S
C75 N74 1.373 . S
C75 H89 0.931 . S
C76 O79 1.256 . S
C76 O80 1.255 . S
O77 Co60 2.021 . S
O77 C70 1.259 . S
O78 Co62 2.117 . S
O78 C70 1.258 . S
O79 Co62 2.020 . S
O79 C76 1.256 . S
O80 Co60 2.062 . S
O80 C76 1.255 . S
O81 C61 1.259 . S
O81 Co62 2.021 . S
H82 C73 0.930 . S
H83 C72 0.931 . S
O84 Co60 2.117 . S
O84 C61 1.258 . S
O85 Co60 2.020 . S
O85 C87 1.256 . S
O86 Co62 2.062 . S
O86 C87 1.255 . S
C87 O85 1.256 . S
C87 O86 1.255 . S
H88 C67 0.931 . S
H89 C75 0.931 . S
Co90 N95 2.057 . S
Co90 O107 2.021 . S
Co90 O110 2.062 . S
Co90 O114 2.117 . S
Co90 O115 2.020 . S
C91 O111 1.259 . S
C91 O114 1.258 . S
Co92 N101 2.057 . S
Co92 O108 2.117 . S
Co92 O109 2.020 . S
Co92 O111 2.021 . S
Co92 O116 2.062 . S
C93 N95 1.316 . S
C93 N96 1.347 . S
C93 H98 0.931 . S
C94 N95 1.375 . S
C94 C97 1.350 . S
C94 H99 0.930 . S
N95 Co90 2.057 . S
N95 C93 1.316 . S
N95 C94 1.375 . S
N96 C93 1.347 . S
N96 C97 1.373 . S
C97 C94 1.350 . S
C97 N96 1.373 . S
C97 H118 0.931 . S
H98 C93 0.931 . S
H99 C94 0.930 . S
C100 O107 1.259 . S
C100 O108 1.258 . S
N101 Co92 2.057 . S
N101 C102 1.316 . S
N101 C103 1.375 . S
C102 N101 1.316 . S
C102 N104 1.347 . S
C102 H113 0.931 . S
C103 N101 1.375 . S
C103 C105 1.350 . S
C103 H112 0.930 . S
N104 C102 1.347 . S
N104 C105 1.373 . S
C105 C103 1.350 . S
C105 N104 1.373 . S
C105 H119 0.931 . S
C106 O109 1.256 . S
C106 O110 1.255 . S
O107 Co90 2.021 . S
O107 C100 1.259 . S
O108 Co92 2.117 . S
O108 C100 1.258 . S
O109 Co92 2.020 . S
O109 C106 1.256 . S
O110 Co90 2.062 . S
O110 C106 1.255 . S
O111 C91 1.259 . S
O111 Co92 2.021 . S
H112 C103 0.930 . S
H113 C102 0.931 . S
O114 Co90 2.117 . S
O114 C91 1.258 . S
O115 Co90 2.020 . S
O115 C117 1.256 . S
O116 Co92 2.062 . S
O116 C117 1.255 . S
C117 O115 1.256 . S
C117 O116 1.255 . S
H118 C97 0.931 . S
H119 C105 0.931 . S
Co120 N125 2.057 . S
Co120 O137 2.021 . S
Co120 O140 2.062 . S
Co120 O144 2.117 . S
Co120 O145 2.020 . S
C121 O141 1.259 . S
C121 O144 1.258 . S
Co122 N131 2.057 . S
Co122 O138 2.117 . S
Co122 O139 2.020 . S
Co122 O141 2.021 . S
Co122 O146 2.062 . S
C123 N125 1.316 . S
C123 N126 1.347 . S
C123 H128 0.931 . S
C124 N125 1.375 . S
C124 C127 1.350 . S
C124 H129 0.930 . S
N125 Co120 2.057 . S
N125 C123 1.316 . S
N125 C124 1.375 . S
N126 C123 1.347 . S
N126 C127 1.373 . S
C127 C124 1.350 . S
C127 N126 1.373 . S
C127 H148 0.931 . S
H128 C123 0.931 . S
H129 C124 0.930 . S
C130 O137 1.259 . S
C130 O138 1.258 . S
N131 Co122 2.057 . S
N131 C132 1.316 . S
N131 C133 1.375 . S
C132 N131 1.316 . S
C132 N134 1.347 . S
C132 H143 0.931 . S
C133 N131 1.375 . S
C133 C135 1.350 . S
C133 H142 0.930 . S
N134 C132 1.347 . S
N134 C135 1.373 . S
C135 C133 1.350 . S
C135 N134 1.373 . S
C135 H149 0.931 . S
C136 O139 1.256 . S
C136 O140 1.255 . S
O137 Co120 2.021 . S
O137 C130 1.259 . S
O138 Co122 2.117 . S
O138 C130 1.258 . S
O139 Co122 2.020 . S
O139 C136 1.256 . S
O140 Co120 2.062 . S
O140 C136 1.255 . S
O141 C121 1.259 . S
O141 Co122 2.021 . S
H142 C133 0.930 . S
H143 C132 0.931 . S
O144 Co120 2.117 . S
O144 C121 1.258 . S
O145 Co120 2.020 . S
O145 C147 1.256 . S
O146 Co122 2.062 . S
O146 C147 1.255 . S
C147 O145 1.256 . S
C147 O146 1.255 . S
H148 C127 0.931 . S
H149 C135 0.931 . S
Co150 N155 2.057 . S
Co150 O167 2.021 . S
Co150 O170 2.062 . S
Co150 O174 2.117 . S
Co150 O175 2.020 . S
C151 O171 1.259 . S
C151 O174 1.258 . S
Co152 N161 2.057 . S
Co152 O168 2.117 . S
Co152 O169 2.020 . S
Co152 O171 2.021 . S
Co152 O176 2.062 . S
C153 N155 1.316 . S
C153 N156 1.347 . S
C153 H158 0.931 . S
C154 N155 1.375 . S
C154 C157 1.350 . S
C154 H159 0.930 . S
N155 Co150 2.057 . S
N155 C153 1.316 . S
N155 C154 1.375 . S
N156 C153 1.347 . S
N156 C157 1.373 . S
C157 C154 1.350 . S
C157 N156 1.373 . S
C157 H178 0.931 . S
H158 C153 0.931 . S
H159 C154 0.930 . S
C160 O167 1.259 . S
C160 O168 1.258 . S
N161 Co152 2.057 . S
N161 C162 1.316 . S
N161 C163 1.375 . S
C162 N161 1.316 . S
C162 N164 1.347 . S
C162 H173 0.931 . S
C163 N161 1.375 . S
C163 C165 1.350 . S
C163 H172 0.930 . S
N164 C162 1.347 . S
N164 C165 1.373 . S
C165 C163 1.350 . S
C165 N164 1.373 . S
C165 H179 0.931 . S
C166 O169 1.256 . S
C166 O170 1.255 . S
O167 Co150 2.021 . S
O167 C160 1.259 . S
O168 Co152 2.117 . S
O168 C160 1.258 . S
O169 Co152 2.020 . S
O169 C166 1.256 . S
O170 Co150 2.062 . S
O170 C166 1.255 . S
O171 C151 1.259 . S
O171 Co152 2.021 . S
H172 C163 0.930 . S
H173 C162 0.931 . S
O174 Co150 2.117 . S
O174 C151 1.258 . S
O175 Co150 2.020 . S
O175 C177 1.256 . S
O176 Co152 2.062 . S
O176 C177 1.255 . S
C177 O175 1.256 . S
C177 O176 1.255 . S
H178 C157 0.931 . S
H179 C165 0.931 . S
Co180 N185 2.057 . S
Co180 O197 2.021 . S
Co180 O200 2.062 . S
Co180 O204 2.117 . S
Co180 O205 2.020 . S
C181 O201 1.259 . S
C181 O204 1.258 . S
Co182 N191 2.057 . S
Co182 O198 2.117 . S
Co182 O199 2.020 . S
Co182 O201 2.021 . S
Co182 O206 2.062 . S
C183 N185 1.316 . S
C183 N186 1.347 . S
C183 H188 0.931 . S
C184 N185 1.375 . S
C184 C187 1.350 . S
C184 H189 0.930 . S
N185 Co180 2.057 . S
N185 C183 1.316 . S
N185 C184 1.375 . S
N186 C183 1.347 . S
N186 C187 1.373 . S
C187 C184 1.350 . S
C187 N186 1.373 . S
C187 H208 0.931 . S
H188 C183 0.931 . S
H189 C184 0.930 . S
C190 O197 1.259 . S
C190 O198 1.258 . S
N191 Co182 2.057 . S
N191 C192 1.316 . S
N191 C193 1.375 . S
C192 N191 1.316 . S
C192 N194 1.347 . S
C192 H203 0.931 . S
C193 N191 1.375 . S
C193 C195 1.350 . S
C193 H202 0.930 . S
N194 C192 1.347 . S
N194 C195 1.373 . S
C195 C193 1.350 . S
C195 N194 1.373 . S
C195 H209 0.931 . S
C196 O199 1.256 . S
C196 O200 1.255 . S
O197 Co180 2.021 . S
O197 C190 1.259 . S
O198 Co182 2.117 . S
O198 C190 1.258 . S
O199 Co182 2.020 . S
O199 C196 1.256 . S
O200 Co180 2.062 . S
O200 C196 1.255 . S
O201 C181 1.259 . S
O201 Co182 2.021 . S
H202 C193 0.930 . S
H203 C192 0.931 . S
O204 Co180 2.117 . S
O204 C181 1.258 . S
O205 Co180 2.020 . S
O205 C207 1.256 . S
O206 Co182 2.062 . S
O206 C207 1.255 . S
C207 O205 1.256 . S
C207 O206 1.255 . S
H208 C187 0.931 . S
H209 C195 0.931 . S
Co210 N215 2.057 . S
Co210 O227 2.021 . S
Co210 O230 2.062 . S
Co210 O234 2.117 . S
Co210 O235 2.020 . S
C211 O231 1.259 . S
C211 O234 1.258 . S
Co212 N221 2.057 . S
Co212 O228 2.117 . S
Co212 O229 2.020 . S
Co212 O231 2.021 . S
Co212 O236 2.062 . S
C213 N215 1.316 . S
C213 N216 1.347 . S
C213 H218 0.931 . S
C214 N215 1.375 . S
C214 C217 1.350 . S
C214 H219 0.930 . S
N215 Co210 2.057 . S
N215 C213 1.316 . S
N215 C214 1.375 . S
N216 C213 1.347 . S
N216 C217 1.373 . S
C217 C214 1.350 . S
C217 N216 1.373 . S
C217 H238 0.931 . S
H218 C213 0.931 . S
H219 C214 0.930 . S
C220 O227 1.259 . S
C220 O228 1.258 . S
N221 Co212 2.057 . S
N221 C222 1.316 . S
N221 C223 1.375 . S
C222 N221 1.316 . S
C222 N224 1.347 . S
C222 H233 0.931 . S
C223 N221 1.375 . S
C223 C225 1.350 . S
C223 H232 0.930 . S
N224 C222 1.347 . S
N224 C225 1.373 . S
C225 C223 1.350 . S
C225 N224 1.373 . S
C225 H239 0.931 . S
C226 O229 1.256 . S
C226 O230 1.255 . S
O227 Co210 2.021 . S
O227 C220 1.259 . S
O228 Co212 2.117 . S
O228 C220 1.258 . S
O229 Co212 2.020 . S
O229 C226 1.256 . S
O230 Co210 2.062 . S
O230 C226 1.255 . S
O231 C211 1.259 . S
O231 Co212 2.021 . S
H232 C223 0.930 . S
H233 C222 0.931 . S
O234 Co210 2.117 . S
O234 C211 1.258 . S
O235 Co210 2.020 . S
O235 C237 1.256 . S
O236 Co212 2.062 . S
O236 C237 1.255 . S
C237 O235 1.256 . S
C237 O236 1.255 . S
H238 C217 0.931 . S
H239 C225 0.931 . S
Co240 N245 2.057 . S
Co240 O257 2.021 . S
Co240 O260 2.062 . S
Co240 O264 2.117 . S
Co240 O265 2.020 . S
C241 O261 1.259 . S
C241 O264 1.258 . S
Co242 N251 2.057 . S
Co242 O258 2.117 . S
Co242 O259 2.020 . S
Co242 O261 2.021 . S
Co242 O266 2.062 . S
C243 N245 1.316 . S
C243 N246 1.347 . S
C243 H248 0.931 . S
C244 N245 1.375 . S
C244 C247 1.350 . S
C244 H249 0.930 . S
N245 Co240 2.057 . S
N245 C243 1.316 . S
N245 C244 1.375 . S
N246 C243 1.347 . S
N246 C247 1.373 . S
C247 C244 1.350 . S
C247 N246 1.373 . S
C247 H268 0.931 . S
H248 C243 0.931 . S
H249 C244 0.930 . S
C250 O257 1.259 . S
C250 O258 1.258 . S
N251 Co242 2.057 . S
N251 C252 1.316 . S
N251 C253 1.375 . S
C252 N251 1.316 . S
C252 N254 1.347 . S
C252 H263 0.931 . S
C253 N251 1.375 . S
C253 C255 1.350 . S
C253 H262 0.930 . S
N254 C252 1.347 . S
N254 C255 1.373 . S
C255 C253 1.350 . S
C255 N254 1.373 . S
C255 H269 0.931 . S
C256 O259 1.256 . S
C256 O260 1.255 . S
O257 Co240 2.021 . S
O257 C250 1.259 . S
O258 Co242 2.117 . S
O258 C250 1.258 . S
O259 Co242 2.020 . S
O259 C256 1.256 . S
O260 Co240 2.062 . S
O260 C256 1.255 . S
O261 C241 1.259 . S
O261 Co242 2.021 . S
H262 C253 0.930 . S
H263 C252 0.931 . S
O264 Co240 2.117 . S
O264 C241 1.258 . S
O265 Co240 2.020 . S
O265 C267 1.256 . S
O266 Co242 2.062 . S
O266 C267 1.255 . S
C267 O265 1.256 . S
C267 O266 1.255 . S
H268 C247 0.931 . S
H269 C255 0.931 . S
Co270 N275 2.057 . S
Co270 O287 2.021 . S
Co270 O290 2.062 . S
Co270 O294 2.117 . S
Co270 O295 2.020 . S
C271 O291 1.259 . S
C271 O294 1.258 . S
Co272 N281 2.057 . S
Co272 O288 2.117 . S
Co272 O289 2.020 . S
Co272 O291 2.021 . S
Co272 O296 2.062 . S
C273 N275 1.316 . S
C273 N276 1.347 . S
C273 H278 0.931 . S
C274 N275 1.375 . S
C274 C277 1.350 . S
C274 H279 0.930 1_545 S
N275 Co270 2.057 . S
N275 C273 1.316 . S
N275 C274 1.375 . S
N276 C273 1.347 . S
N276 C277 1.373 . S
C277 C274 1.350 . S
C277 N276 1.373 . S
C277 H298 0.931 1_545 S
H278 C273 0.931 . S
H279 C274 0.930 1_565 S
C280 O287 1.259 . S
C280 O288 1.258 . S
N281 Co272 2.057 . S
N281 C282 1.316 . S
N281 C283 1.375 . S
C282 N281 1.316 . S
C282 N284 1.347 . S
C282 H293 0.931 . S
C283 N281 1.375 . S
C283 C285 1.350 . S
C283 H292 0.930 . S
N284 C282 1.347 . S
N284 C285 1.373 . S
C285 C283 1.350 . S
C285 N284 1.373 . S
C285 H299 0.931 . S
C286 O289 1.256 . S
C286 O290 1.255 . S
O287 Co270 2.021 . S
O287 C280 1.259 . S
O288 Co272 2.117 . S
O288 C280 1.258 . S
O289 Co272 2.020 . S
O289 C286 1.256 . S
O290 Co270 2.062 . S
O290 C286 1.255 . S
O291 C271 1.259 . S
O291 Co272 2.021 . S
H292 C283 0.930 . S
H293 C282 0.931 . S
O294 Co270 2.117 . S
O294 C271 1.258 . S
O295 Co270 2.020 . S
O295 C297 1.256 . S
O296 Co272 2.062 . S
O296 C297 1.255 . S
C297 O295 1.256 . S
C297 O296 1.255 . S
H298 C277 0.931 1_565 S
H299 C285 0.931 . S
Co300 N305 2.057 . S
Co300 O317 2.021 . S
Co300 O320 2.062 . S
Co300 O324 2.117 . S
Co300 O325 2.020 . S
C301 O321 1.259 . S
C301 O324 1.258 . S
Co302 N311 2.057 . S
Co302 O318 2.117 . S
Co302 O319 2.020 . S
Co302 O321 2.021 . S
Co302 O326 2.062 . S
C303 N305 1.316 . S
C303 N306 1.347 . S
C303 H308 0.931 . S
C304 N305 1.375 . S
C304 C307 1.350 . S
C304 H309 0.930 . S
N305 Co300 2.057 . S
N305 C303 1.316 . S
N305 C304 1.375 . S
N306 C303 1.347 . S
N306 C307 1.373 . S
C307 C304 1.350 . S
C307 N306 1.373 . S
C307 H328 0.931 . S
H308 C303 0.931 . S
H309 C304 0.930 . S
C310 O317 1.259 . S
C310 O318 1.258 . S
N311 Co302 2.057 . S
N311 C312 1.316 . S
N311 C313 1.375 . S
C312 N311 1.316 . S
C312 N314 1.347 . S
C312 H323 0.931 . S
C313 N311 1.375 . S
C313 C315 1.350 . S
C313 H322 0.930 . S
N314 C312 1.347 . S
N314 C315 1.373 . S
C315 C313 1.350 . S
C315 N314 1.373 . S
C315 H329 0.931 . S
C316 O319 1.256 . S
C316 O320 1.255 . S
O317 Co300 2.021 . S
O317 C310 1.259 . S
O318 Co302 2.117 . S
O318 C310 1.258 . S
O319 Co302 2.020 . S
O319 C316 1.256 . S
O320 Co300 2.062 . S
O320 C316 1.255 . S
O321 C301 1.259 . S
O321 Co302 2.021 . S
H322 C313 0.930 . S
H323 C312 0.931 . S
O324 Co300 2.117 . S
O324 C301 1.258 . S
O325 Co300 2.020 . S
O325 C327 1.256 . S
O326 Co302 2.062 . S
O326 C327 1.255 . S
C327 O325 1.256 . S
C327 O326 1.255 . S
H328 C307 0.931 . S
H329 C315 0.931 . S
Co330 N335 2.057 . S
Co330 O347 2.021 . S
Co330 O350 2.062 . S
Co330 O354 2.117 . S
Co330 O355 2.020 . S
C331 O351 1.259 . S
C331 O354 1.258 . S
Co332 N341 2.057 . S
Co332 O348 2.117 . S
Co332 O349 2.020 . S
Co332 O351 2.021 . S
Co332 O356 2.062 . S
C333 N335 1.316 . S
C333 N336 1.347 . S
C333 H338 0.931 . S
C334 N335 1.375 . S
C334 C337 1.350 . S
C334 H339 0.930 1_565 S
N335 Co330 2.057 . S
N335 C333 1.316 . S
N335 C334 1.375 . S
N336 C333 1.347 . S
N336 C337 1.373 . S
C337 C334 1.350 . S
C337 N336 1.373 . S
C337 H358 0.931 1_565 S
H338 C333 0.931 . S
H339 C334 0.930 1_545 S
C340 O347 1.259 . S
C340 O348 1.258 . S
N341 Co332 2.057 . S
N341 C342 1.316 . S
N341 C343 1.375 . S
C342 N341 1.316 . S
C342 N344 1.347 . S
C342 H353 0.931 . S
C343 N341 1.375 . S
C343 C345 1.350 . S
C343 H352 0.930 . S
N344 C342 1.347 . S
N344 C345 1.373 . S
C345 C343 1.350 . S
C345 N344 1.373 . S
C345 H359 0.931 . S
C346 O349 1.256 . S
C346 O350 1.255 . S
O347 Co330 2.021 . S
O347 C340 1.259 . S
O348 Co332 2.117 . S
O348 C340 1.258 . S
O349 Co332 2.020 . S
O349 C346 1.256 . S
O350 Co330 2.062 . S
O350 C346 1.255 . S
O351 C331 1.259 . S
O351 Co332 2.021 . S
H352 C343 0.930 . S
H353 C342 0.931 . S
O354 Co330 2.117 . S
O354 C331 1.258 . S
O355 Co330 2.020 . S
O355 C357 1.256 . S
O356 Co332 2.062 . S
O356 C357 1.255 . S
C357 O355 1.256 . S
C357 O356 1.255 . S
H358 C337 0.931 1_545 S
H359 C345 0.931 . S
Co360 N365 2.057 . S
Co360 O377 2.021 . S
Co360 O380 2.062 . S
Co360 O384 2.117 . S
Co360 O385 2.020 . S
C361 O381 1.259 . S
C361 O384 1.258 . S
Co362 N371 2.057 . S
Co362 O378 2.117 . S
Co362 O379 2.020 . S
Co362 O381 2.021 . S
Co362 O386 2.062 . S
C363 N365 1.316 . S
C363 N366 1.347 . S
C363 H368 0.931 . S
C364 N365 1.375 . S
C364 C367 1.350 . S
C364 H369 0.930 . S
N365 Co360 2.057 . S
N365 C363 1.316 . S
N365 C364 1.375 . S
N366 C363 1.347 . S
N366 C367 1.373 . S
C367 C364 1.350 . S
C367 N366 1.373 . S
C367 H388 0.931 . S
H368 C363 0.931 . S
H369 C364 0.930 . S
C370 O377 1.259 . S
C370 O378 1.258 . S
N371 Co362 2.057 . S
N371 C372 1.316 . S
N371 C373 1.375 . S
C372 N371 1.316 . S
C372 N374 1.347 . S
C372 H383 0.931 . S
C373 N371 1.375 . S
C373 C375 1.350 . S
C373 H382 0.930 . S
N374 C372 1.347 . S
N374 C375 1.373 . S
C375 C373 1.350 . S
C375 N374 1.373 . S
C375 H389 0.931 . S
C376 O379 1.256 . S
C376 O380 1.255 . S
O377 Co360 2.021 . S
O377 C370 1.259 . S
O378 Co362 2.117 . S
O378 C370 1.258 . S
O379 Co362 2.020 . S
O379 C376 1.256 . S
O380 Co360 2.062 . S
O380 C376 1.255 . S
O381 C361 1.259 . S
O381 Co362 2.021 . S
H382 C373 0.930 . S
H383 C372 0.931 . S
O384 Co360 2.117 . S
O384 C361 1.258 . S
O385 Co360 2.020 . S
O385 C387 1.256 . S
O386 Co362 2.062 . S
O386 C387 1.255 . S
C387 O385 1.256 . S
C387 O386 1.255 . S
H388 C367 0.931 . S
H389 C375 0.931 . S
Co390 N395 2.057 . S
Co390 O407 2.021 . S
Co390 O410 2.062 . S
Co390 O414 2.117 . S
Co390 O415 2.020 . S
C391 O411 1.259 . S
C391 O414 1.258 . S
Co392 N401 2.057 . S
Co392 O408 2.117 . S
Co392 O409 2.020 . S
Co392 O411 2.021 . S
Co392 O416 2.062 . S
C393 N395 1.316 . S
C393 N396 1.347 . S
C393 H398 0.931 . S
C394 N395 1.375 . S
C394 C397 1.350 . S
C394 H399 0.930 . S
N395 Co390 2.057 . S
N395 C393 1.316 . S
N395 C394 1.375 . S
N396 C393 1.347 . S
N396 C397 1.373 . S
C397 C394 1.350 . S
C397 N396 1.373 . S
C397 H418 0.931 . S
H398 C393 0.931 . S
H399 C394 0.930 . S
C400 O407 1.259 . S
C400 O408 1.258 . S
N401 Co392 2.057 . S
N401 C402 1.316 . S
N401 C403 1.375 . S
C402 N401 1.316 . S
C402 N404 1.347 . S
C402 H413 0.931 . S
C403 N401 1.375 . S
C403 C405 1.350 . S
C403 H412 0.930 1_565 S
N404 C402 1.347 . S
N404 C405 1.373 . S
C405 C403 1.350 . S
C405 N404 1.373 . S
C405 H419 0.931 1_565 S
C406 O409 1.256 . S
C406 O410 1.255 . S
O407 Co390 2.021 . S
O407 C400 1.259 . S
O408 Co392 2.117 . S
O408 C400 1.258 . S
O409 Co392 2.020 . S
O409 C406 1.256 . S
O410 Co390 2.062 . S
O410 C406 1.255 . S
O411 C391 1.259 . S
O411 Co392 2.021 . S
H412 C403 0.930 1_545 S
H413 C402 0.931 . S
O414 Co390 2.117 . S
O414 C391 1.258 . S
O415 Co390 2.020 . S
O415 C417 1.256 . S
O416 Co392 2.062 . S
O416 C417 1.255 . S
C417 O415 1.256 . S
C417 O416 1.255 . S
H418 C397 0.931 . S
H419 C405 0.931 1_545 S
Co420 N425 2.057 . S
Co420 O437 2.021 . S
Co420 O440 2.062 . S
Co420 O444 2.117 . S
Co420 O445 2.020 . S
C421 O441 1.259 . S
C421 O444 1.258 . S
Co422 N431 2.057 . S
Co422 O438 2.117 . S
Co422 O439 2.020 . S
Co422 O441 2.021 . S
Co422 O446 2.062 . S
C423 N425 1.316 . S
C423 N426 1.347 . S
C423 H428 0.931 . S
C424 N425 1.375 . S
C424 C427 1.350 . S
C424 H429 0.930 . S
N425 Co420 2.057 . S
N425 C423 1.316 . S
N425 C424 1.375 . S
N426 C423 1.347 . S
N426 C427 1.373 . S
C427 C424 1.350 . S
C427 N426 1.373 . S
C427 H448 0.931 . S
H428 C423 0.931 . S
H429 C424 0.930 . S
C430 O437 1.259 . S
C430 O438 1.258 . S
N431 Co422 2.057 . S
N431 C432 1.316 . S
N431 C433 1.375 . S
C432 N431 1.316 . S
C432 N434 1.347 . S
C432 H443 0.931 . S
C433 N431 1.375 . S
C433 C435 1.350 . S
C433 H442 0.930 . S
N434 C432 1.347 . S
N434 C435 1.373 . S
C435 C433 1.350 . S
C435 N434 1.373 . S
C435 H449 0.931 . S
C436 O439 1.256 . S
C436 O440 1.255 . S
O437 Co420 2.021 . S
O437 C430 1.259 . S
O438 Co422 2.117 . S
O438 C430 1.258 . S
O439 Co422 2.020 . S
O439 C436 1.256 . S
O440 Co420 2.062 . S
O440 C436 1.255 . S
O441 C421 1.259 . S
O441 Co422 2.021 . S
H442 C433 0.930 . S
H443 C432 0.931 . S
O444 Co420 2.117 . S
O444 C421 1.258 . S
O445 Co420 2.020 . S
O445 C447 1.256 . S
O446 Co422 2.062 . S
O446 C447 1.255 . S
C447 O445 1.256 . S
C447 O446 1.255 . S
H448 C427 0.931 . S
H449 C435 0.931 . S
Co450 N455 2.057 . S
Co450 O467 2.021 . S
Co450 O470 2.062 . S
Co450 O474 2.117 . S
Co450 O475 2.020 . S
C451 O471 1.259 . S
C451 O474 1.258 . S
Co452 N461 2.057 . S
Co452 O468 2.117 . S
Co452 O469 2.020 . S
Co452 O471 2.021 . S
Co452 O476 2.062 . S
C453 N455 1.316 . S
C453 N456 1.347 . S
C453 H458 0.931 . S
C454 N455 1.375 . S
C454 C457 1.350 . S
C454 H459 0.930 . S
N455 Co450 2.057 . S
N455 C453 1.316 . S
N455 C454 1.375 . S
N456 C453 1.347 . S
N456 C457 1.373 . S
C457 C454 1.350 . S
C457 N456 1.373 . S
C457 H478 0.931 . S
H458 C453 0.931 . S
H459 C454 0.930 . S
C460 O467 1.259 . S
C460 O468 1.258 . S
N461 Co452 2.057 . S
N461 C462 1.316 . S
N461 C463 1.375 . S
C462 N461 1.316 . S
C462 N464 1.347 . S
C462 H473 0.931 . S
C463 N461 1.375 . S
C463 C465 1.350 . S
C463 H472 0.930 1_545 S
N464 C462 1.347 . S
N464 C465 1.373 . S
C465 C463 1.350 . S
C465 N464 1.373 . S
C465 H479 0.931 1_545 S
C466 O469 1.256 . S
C466 O470 1.255 . S
O467 Co450 2.021 . S
O467 C460 1.259 . S
O468 Co452 2.117 . S
O468 C460 1.258 . S
O469 Co452 2.020 . S
O469 C466 1.256 . S
O470 Co450 2.062 . S
O470 C466 1.255 . S
O471 C451 1.259 . S
O471 Co452 2.021 . S
H472 C463 0.930 1_565 S
H473 C462 0.931 . S
O474 Co450 2.117 . S
O474 C451 1.258 . S
O475 Co450 2.020 . S
O475 C477 1.256 . S
O476 Co452 2.062 . S
O476 C477 1.255 . S
C477 O475 1.256 . S
C477 O476 1.255 . S
H478 C457 0.931 . S
H479 C465 0.931 1_565 S
C480 C481 1.349 . S
C480 C482 1.327 . S
C480 H505 0.950 . S
C481 C480 1.349 . S
C481 C497 1.349 . S
C482 C480 1.327 . S
C482 C501 1.429 . S
C482 H506 0.950 . S
C483 C500 1.574 . S
C483 C502 1.368 . S
C483 H507 0.949 . S
H484 C488 0.949 . S
C485 C486 1.349 . S
C485 C487 1.327 . S
C485 H508 0.950 . S
C486 C485 1.349 . S
C486 C498 1.349 . S
C487 C485 1.327 . S
C487 C503 1.429 . S
C487 H509 0.950 . S
C488 H484 0.949 . S
C488 C496 1.574 . S
C488 C504 1.368 . S
H489 C497 0.950 . S
H490 C495 0.950 . S
H491 C496 0.949 . S
H492 C498 0.950 . S
H493 C499 0.950 . S
H494 C500 0.949 . S
C495 H490 0.950 . S
C495 C497 1.327 . S
C495 C501 1.429 . S
C496 C488 1.574 . S
C496 H491 0.949 . S
C496 C502 1.368 . S
C497 C481 1.349 . S
C497 H489 0.950 . S
C497 C495 1.327 . S
C498 C486 1.349 . S
C498 H492 0.950 . S
C498 C499 1.327 . S
C499 H493 0.950 . S
C499 C498 1.327 . S
C499 C503 1.429 . S
C500 C483 1.574 . S
C500 H494 0.949 . S
C500 C504 1.368 . S
C501 C482 1.429 . S
C501 C495 1.429 . S
C501 C502 1.523 . S
C502 C483 1.368 . S
C502 C496 1.368 . S
C502 C501 1.523 . S
C503 C487 1.429 . S
C503 C499 1.429 . S
C503 C504 1.523 . S
C504 C488 1.368 . S
C504 C500 1.368 . S
C504 C503 1.523 . S
H505 C480 0.950 . S
H506 C482 0.950 . S
H507 C483 0.949 . S
H508 C485 0.950 . S
H509 C487 0.950 . S
C510 C511 1.349 . S
C510 C512 1.327 . S
C510 H535 0.950 . S
C511 C510 1.349 . S
C511 C527 1.349 . S
C512 C510 1.327 . S
C512 C531 1.429 . S
C512 H536 0.950 . S
C513 C530 1.574 . S
C513 C532 1.368 . S
C513 H537 0.949 . S
H514 C518 0.949 . S
C515 C516 1.349 . S
C515 C517 1.327 . S
C515 H538 0.950 . S
C516 C515 1.349 . S
C516 C528 1.349 . S
C517 C515 1.327 . S
C517 C533 1.429 . S
C517 H539 0.950 . S
C518 H514 0.949 . S
C518 C526 1.574 . S
C518 C534 1.368 . S
H519 C527 0.950 . S
H520 C525 0.950 . S
H521 C526 0.949 . S
H522 C528 0.950 . S
H523 C529 0.950 . S
H524 C530 0.949 . S
C525 H520 0.950 . S
C525 C527 1.327 . S
C525 C531 1.429 . S
C526 C518 1.574 . S
C526 H521 0.949 . S
C526 C532 1.368 . S
C527 C511 1.349 . S
C527 H519 0.950 . S
C527 C525 1.327 . S
C528 C516 1.349 . S
C528 H522 0.950 . S
C528 C529 1.327 . S
C529 H523 0.950 . S
C529 C528 1.327 . S
C529 C533 1.429 . S
C530 C513 1.574 . S
C530 H524 0.949 . S
C530 C534 1.368 . S
C531 C512 1.429 . S
C531 C525 1.429 . S
C531 C532 1.523 . S
C532 C513 1.368 . S
C532 C526 1.368 . S
C532 C531 1.523 . S
C533 C517 1.429 . S
C533 C529 1.429 . S
C533 C534 1.523 . S
C534 C518 1.368 . S
C534 C530 1.368 . S
C534 C533 1.523 . S
H535 C510 0.950 . S
H536 C512 0.950 . S
H537 C513 0.949 . S
H538 C515 0.950 . S
H539 C517 0.950 . S
C540 C541 1.349 . S
C540 C542 1.327 . S
C540 H565 0.950 . S
C541 C540 1.349 . S
C541 C557 1.349 . S
C542 C540 1.327 . S
C542 C561 1.429 . S
C542 H566 0.950 . S
C543 C560 1.574 . S
C543 C562 1.368 . S
C543 H567 0.949 . S
H544 C548 0.949 . S
C545 C546 1.349 . S
C545 C547 1.327 . S
C545 H568 0.950 . S
C546 C545 1.349 . S
C546 C558 1.349 . S
C547 C545 1.327 . S
C547 C563 1.429 . S
C547 H569 0.950 . S
C548 H544 0.949 . S
C548 C556 1.574 1_655 S
C548 C564 1.368 . S
H549 C557 0.950 . S
H550 C555 0.950 . S
H551 C556 0.949 . S
H552 C558 0.950 . S
H553 C559 0.950 . S
H554 C560 0.949 1_655 S
C555 H550 0.950 . S
C555 C557 1.327 . S
C555 C561 1.429 . S
C556 C548 1.574 1_455 S
C556 H551 0.949 . S
C556 C562 1.368 . S
C557 C541 1.349 . S
C557 H549 0.950 . S
C557 C555 1.327 . S
C558 C546 1.349 . S
C558 H552 0.950 . S
C558 C559 1.327 . S
C559 H553 0.950 . S
C559 C558 1.327 . S
C559 C563 1.429 . S
C560 C543 1.574 . S
C560 H554 0.949 1_455 S
C560 C564 1.368 1_455 S
C561 C542 1.429 . S
C561 C555 1.429 . S
C561 C562 1.523 . S
C562 C543 1.368 . S
C562 C556 1.368 . S
C562 C561 1.523 . S
C563 C547 1.429 . S
C563 C559 1.429 . S
C563 C564 1.523 . S
C564 C548 1.368 . S
C564 C560 1.368 1_655 S
C564 C563 1.523 . S
H565 C540 0.950 . S
H566 C542 0.950 . S
H567 C543 0.949 . S
H568 C545 0.950 . S
H569 C547 0.950 . S
C570 C571 1.349 . S
C570 C572 1.327 . S
C570 H595 0.950 . S
C571 C570 1.349 . S
C571 C587 1.349 . S
C572 C570 1.327 . S
C572 C591 1.429 . S
C572 H596 0.950 . S
C573 C590 1.574 . S
C573 C592 1.368 1_655 S
C573 H597 0.949 . S
H574 C578 0.946 1_455 S
C575 C576 1.349 . S
C575 C577 1.327 . S
C575 H598 0.950 . S
C576 C575 1.349 . S
C576 C588 1.349 . S
C577 C575 1.327 . S
C577 C593 1.429 . S
C577 H599 0.950 . S
C578 H574 0.946 1_655 S
C578 C586 1.562 1_655 S
C578 C594 1.384 . S
H579 C587 0.950 . S
H580 C585 0.950 . S
H581 C586 0.949 . S
H582 C588 0.950 . S
H583 C589 0.950 . S
H584 C590 0.949 . S
C585 H580 0.950 . S
C585 C587 1.327 . S
C585 C591 1.429 . S
C586 C578 1.562 1_455 S
C586 H581 0.949 . S
C586 C592 1.368 . S
C587 C571 1.349 . S
C587 H579 0.950 . S
C587 C585 1.327 . S
C588 C576 1.349 . S
C588 H582 0.950 . S
C588 C589 1.327 . S
C589 H583 0.950 . S
C589 C588 1.327 . S
C589 C593 1.429 . S
C590 C573 1.574 . S
C590 H584 0.949 . S
C590 C594 1.368 . S
C591 C572 1.429 . S
C591 C585 1.429 . S
C591 C592 1.523 . S
C592 C573 1.368 1_455 S
C592 C586 1.368 . S
C592 C591 1.523 . S
C593 C577 1.429 . S
C593 C589 1.429 . S
C593 C594 1.523 . S
C594 C578 1.384 . S
C594 C590 1.368 . S
C594 C593 1.523 . S
H595 C570 0.950 . S
H596 C572 0.950 . S
H597 C573 0.949 . S
H598 C575 0.950 . S
H599 C577 0.950 . S
C600 C601 1.349 . S
C600 C602 1.327 . S
C600 H625 0.950 . S
C601 C600 1.349 . S
C601 C617 1.349 . S
C602 C600 1.327 . S
C602 C621 1.429 . S
C602 H626 0.950 . S
C603 C620 1.574 . S
C603 C622 1.368 . S
C603 H627 0.949 . S
H604 C608 0.949 . S
C605 C606 1.349 . S
C605 C607 1.327 . S
C605 H628 0.950 . S
C606 C605 1.349 . S
C606 C618 1.349 . S
C607 C605 1.327 . S
C607 C623 1.429 . S
C607 H629 0.950 . S
C608 H604 0.949 . S
C608 C616 1.574 . S
C608 C624 1.368 . S
H609 C617 0.950 . S
H610 C615 0.950 . S
H611 C616 0.949 . S
H612 C618 0.950 . S
H613 C619 0.950 . S
H614 C620 0.949 . S
C615 H610 0.950 . S
C615 C617 1.327 . S
C615 C621 1.429 . S
C616 C608 1.574 . S
C616 H611 0.949 . S
C616 C622 1.368 . S
C617 C601 1.349 . S
C617 H609 0.950 . S
C617 C615 1.327 . S
C618 C606 1.349 . S
C618 H612 0.950 . S
C618 C619 1.327 . S
C619 H613 0.950 . S
C619 C618 1.327 . S
C619 C623 1.429 . S
C620 C603 1.574 . S
C620 H614 0.949 . S
C620 C624 1.368 . S
C621 C602 1.429 . S
C621 C615 1.429 . S
C621 C622 1.523 . S
C622 C603 1.368 . S
C622 C616 1.368 . S
C622 C621 1.523 . S
C623 C607 1.429 . S
C623 C619 1.429 . S
C623 C624 1.523 . S
C624 C608 1.368 . S
C624 C620 1.368 . S
C624 C623 1.523 . S
H625 C600 0.950 . S
H626 C602 0.950 . S
H627 C603 0.949 . S
H628 C605 0.950 . S
H629 C607 0.950 . S
C630 C631 1.349 . S
C630 C632 1.327 . S
C630 H655 0.950 . S
C631 C630 1.349 . S
C631 C647 1.349 . S
C632 C630 1.327 . S
C632 C651 1.429 . S
C632 H656 0.950 . S
C633 C650 1.574 . S
C633 C652 1.368 . S
C633 H657 0.949 . S
H634 C638 0.949 . S
C635 C636 1.349 . S
C635 C637 1.327 . S
C635 H658 0.950 . S
C636 C635 1.349 . S
C636 C648 1.349 . S
C637 C635 1.327 . S
C637 C653 1.429 . S
C637 H659 0.950 . S
C638 H634 0.949 . S
C638 C646 1.574 . S
C638 C654 1.368 . S
H639 C647 0.950 . S
H640 C645 0.950 . S
H641 C646 0.949 . S
H642 C648 0.950 . S
H643 C649 0.950 . S
H644 C650 0.949 . S
C645 H640 0.950 . S
C645 C647 1.327 . S
C645 C651 1.429 . S
C646 C638 1.574 . S
C646 H641 0.949 . S
C646 C652 1.368 . S
C647 C631 1.349 . S
C647 H639 0.950 . S
C647 C645 1.327 . S
C648 C636 1.349 . S
C648 H642 0.950 . S
C648 C649 1.327 . S
C649 H643 0.950 . S
C649 C648 1.327 . S
C649 C653 1.429 . S
C650 C633 1.574 . S
C650 H644 0.949 . S
C650 C654 1.368 . S
C651 C632 1.429 . S
C651 C645 1.429 . S
C651 C652 1.523 . S
C652 C633 1.368 . S
C652 C646 1.368 . S
C652 C651 1.523 . S
C653 C637 1.429 . S
C653 C649 1.429 . S
C653 C654 1.523 . S
C654 C638 1.368 . S
C654 C650 1.368 . S
C654 C653 1.523 . S
H655 C630 0.950 . S
H656 C632 0.950 . S
H657 C633 0.949 . S
H658 C635 0.950 . S
H659 C637 0.950 . S
C660 C661 1.349 . S
C660 C662 1.327 . S
C660 H685 0.950 . S
C661 C660 1.349 . S
C661 C677 1.349 . S
C662 C660 1.327 . S
C662 C681 1.429 . S
C662 H686 0.950 . S
C663 C680 1.583 . S
C663 C682 1.362 1_655 S
C663 H687 0.946 1_655 S
H664 C668 0.949 . S
C665 C666 1.349 . S
C665 C667 1.327 . S
C665 H688 0.950 . S
C666 C665 1.349 . S
C666 C678 1.349 . S
C667 C665 1.327 . S
C667 C683 1.429 . S
C667 H689 0.950 . S
C668 H664 0.949 . S
C668 C676 1.574 1_655 S
C668 C684 1.368 . S
H669 C677 0.950 . S
H670 C675 0.950 . S
H671 C676 0.949 . S
H672 C678 0.950 . S
H673 C679 0.950 . S
H674 C680 0.949 . S
C675 H670 0.950 . S
C675 C677 1.327 . S
C675 C681 1.429 . S
C676 C668 1.574 1_455 S
C676 H671 0.949 . S
C676 C682 1.368 . S
C677 C661 1.349 . S
C677 H669 0.950 . S
C677 C675 1.327 . S
C678 C666 1.349 . S
C678 H672 0.950 . S
C678 C679 1.327 . S
C679 H673 0.950 . S
C679 C678 1.327 . S
C679 C683 1.429 . S
C680 C663 1.583 . S
C680 H674 0.949 . S
C680 C684 1.368 . S
C681 C662 1.429 . S
C681 C675 1.429 . S
C681 C682 1.523 . S
C682 C663 1.362 1_455 S
C682 C676 1.368 . S
C682 C681 1.523 . S
C683 C667 1.429 . S
C683 C679 1.429 . S
C683 C684 1.523 . S
C684 C668 1.368 . S
C684 C680 1.368 . S
C684 C683 1.523 . S
H685 C660 0.950 . S
H686 C662 0.950 . S
H687 C663 0.946 1_455 S
H688 C665 0.950 . S
H689 C667 0.950 . S
C690 C691 1.349 . S
C690 C692 1.327 . S
C690 H715 0.950 . S
C691 C690 1.349 . S
C691 C707 1.349 . S
C692 C690 1.327 . S
C692 C711 1.429 . S
C692 H716 0.950 . S
C693 C710 1.574 . S
C693 C712 1.368 . S
C693 H717 0.949 . S
H694 C698 0.949 . S
C695 C696 1.349 . S
C695 C697 1.327 . S
C695 H718 0.950 . S
C696 C695 1.349 . S
C696 C708 1.349 . S
C697 C695 1.327 . S
C697 C713 1.429 . S
C697 H719 0.950 . S
C698 H694 0.949 . S
C698 C706 1.578 . S
C698 C714 1.368 . S
H699 C707 0.950 . S
H700 C705 0.950 . S
H701 C706 0.951 . S
H702 C708 0.950 . S
H703 C709 0.950 . S
H704 C710 0.949 . S
C705 H700 0.950 . S
C705 C707 1.327 . S
C705 C711 1.429 . S
C706 C698 1.578 . S
C706 H701 0.951 . S
C706 C712 1.362 1_655 S
C707 C691 1.349 . S
C707 H699 0.950 . S
C707 C705 1.327 . S
C708 C696 1.349 . S
C708 H702 0.950 . S
C708 C709 1.327 . S
C709 H703 0.950 . S
C709 C708 1.327 . S
C709 C713 1.429 . S
C710 C693 1.574 . S
C710 H704 0.949 . S
C710 C714 1.368 1_455 S
C711 C692 1.429 . S
C711 C705 1.429 . S
C711 C712 1.523 . S
C712 C693 1.368 . S
C712 C706 1.362 1_455 S
C712 C711 1.523 . S
C713 C697 1.429 . S
C713 C709 1.429 . S
C713 C714 1.523 . S
C714 C698 1.368 . S
C714 C710 1.368 1_655 S
C714 C713 1.523 . S
H715 C690 0.950 . S
H716 C692 0.950 . S
H717 C693 0.949 . S
H718 C695 0.950 . S
H719 C697 0.950 . S
C720 C721 1.349 . S
C720 C722 1.327 . S
C720 H745 0.950 . S
C721 C720 1.349 . S
C721 C737 1.349 . S
C722 C720 1.327 . S
C722 C741 1.429 . S
C722 H746 0.950 1_545 S
C723 C740 1.574 . S
C723 C742 1.368 1_556 S
C723 H747 0.949 . S
H724 C728 0.949 . S
C725 C726 1.349 . S
C725 C727 1.327 . S
C725 H748 0.950 . S
C726 C725 1.349 . S
C726 C738 1.349 . S
C727 C725 1.327 . S
C727 C743 1.429 . S
C727 H749 0.950 1_565 S
C728 H724 0.949 . S
C728 C736 1.574 . S
C728 C744 1.368 1_554 S
H729 C737 0.950 . S
H730 C735 0.950 . S
H731 C736 0.949 . S
H732 C738 0.950 . S
H733 C739 0.950 . S
H734 C740 0.949 . S
C735 H730 0.950 . S
C735 C737 1.327 . S
C735 C741 1.429 . S
C736 C728 1.574 . S
C736 H731 0.949 . S
C736 C742 1.368 1_565 S
C737 C721 1.349 . S
C737 H729 0.950 . S
C737 C735 1.327 . S
C738 C726 1.349 . S
C738 H732 0.950 . S
C738 C739 1.327 . S
C739 H733 0.950 . S
C739 C738 1.327 . S
C739 C743 1.429 . S
C740 C723 1.574 . S
C740 H734 0.949 . S
C740 C744 1.368 1_545 S
C741 C722 1.429 . S
C741 C735 1.429 . S
C741 C742 1.523 . S
C742 C723 1.368 1_554 S
C742 C736 1.368 1_545 S
C742 C741 1.523 . S
C743 C727 1.429 . S
C743 C739 1.429 . S
C743 C744 1.523 . S
C744 C728 1.368 1_556 S
C744 C740 1.368 1_565 S
C744 C743 1.523 . S
H745 C720 0.950 . S
H746 C722 0.950 1_565 S
H747 C723 0.949 . S
H748 C725 0.950 . S
H749 C727 0.950 1_545 S
C750 C751 1.349 . S
C750 C752 1.327 . S
C750 H775 0.950 . S
C751 C750 1.349 . S
C751 C767 1.349 . S
C752 C750 1.327 . S
C752 C771 1.429 . S
C752 H776 0.950 . S
C753 C770 1.574 . S
C753 C772 1.368 . S
C753 H777 0.949 . S
H754 C758 0.949 . S
C755 C756 1.349 . S
C755 C757 1.327 . S
C755 H778 0.950 . S
C756 C755 1.349 . S
C756 C768 1.349 . S
C757 C755 1.327 . S
C757 C773 1.429 . S
C757 H779 0.950 . S
C758 H754 0.949 . S
C758 C766 1.574 . S
C758 C774 1.368 . S
H759 C767 0.950 . S
H760 C765 0.950 . S
H761 C766 0.949 . S
H762 C768 0.950 . S
H763 C769 0.950 . S
H764 C770 0.949 . S
C765 H760 0.950 . S
C765 C767 1.327 . S
C765 C771 1.429 . S
C766 C758 1.574 . S
C766 H761 0.949 . S
C766 C772 1.368 . S
C767 C751 1.349 . S
C767 H759 0.950 . S
C767 C765 1.327 . S
C768 C756 1.349 . S
C768 H762 0.950 . S
C768 C769 1.327 . S
C769 H763 0.950 . S
C769 C768 1.327 . S
C769 C773 1.429 . S
C770 C753 1.574 . S
C770 H764 0.949 . S
C770 C774 1.368 . S
C771 C752 1.429 . S
C771 C765 1.429 . S
C771 C772 1.523 . S
C772 C753 1.368 . S
C772 C766 1.368 . S
C772 C771 1.523 . S
C773 C757 1.429 . S
C773 C769 1.429 . S
C773 C774 1.523 . S
C774 C758 1.368 . S
C774 C770 1.368 . S
C774 C773 1.523 . S
H775 C750 0.950 . S
H776 C752 0.950 . S
H777 C753 0.949 . S
H778 C755 0.950 . S
H779 C757 0.950 . S
C780 C781 1.349 . S
C780 C782 1.327 . S
C780 H805 0.950 . S
C781 C780 1.349 . S
C781 C797 1.349 . S
C782 C780 1.327 . S
C782 C801 1.429 . S
C782 H806 0.950 . S
C783 C800 1.574 . S
C783 C802 1.368 1_545 S
C783 H807 0.949 . S
H784 C788 0.949 . S
C785 C786 1.349 . S
C785 C787 1.327 . S
C785 H808 0.950 . S
C786 C785 1.349 . S
C786 C798 1.349 . S
C787 C785 1.327 . S
C787 C803 1.429 . S
C787 H809 0.950 . S
C788 H784 0.949 . S
C788 C796 1.574 . S
C788 C804 1.368 1_565 S
H789 C797 0.950 . S
H790 C795 0.950 1_545 S
H791 C796 0.949 . S
H792 C798 0.950 . S
H793 C799 0.950 1_565 S
H794 C800 0.949 . S
C795 H790 0.950 1_565 S
C795 C797 1.327 . S
C795 C801 1.429 . S
C796 C788 1.574 . S
C796 H791 0.949 . S
C796 C802 1.368 1_655 S
C797 C781 1.349 . S
C797 H789 0.950 . S
C797 C795 1.327 . S
C798 C786 1.349 . S
C798 H792 0.950 . S
C798 C799 1.327 . S
C799 H793 0.950 1_545 S
C799 C798 1.327 . S
C799 C803 1.429 . S
C800 C783 1.574 . S
C800 H794 0.949 . S
C800 C804 1.368 1_455 S
C801 C782 1.429 . S
C801 C795 1.429 . S
C801 C802 1.523 . S
C802 C783 1.368 1_565 S
C802 C796 1.368 1_455 S
C802 C801 1.523 . S
C803 C787 1.429 . S
C803 C799 1.429 . S
C803 C804 1.523 . S
C804 C788 1.368 1_545 S
C804 C800 1.368 1_655 S
C804 C803 1.523 . S
H805 C780 0.950 . S
H806 C782 0.950 . S
H807 C783 0.949 . S
H808 C785 0.950 . S
H809 C787 0.950 . S
C810 C811 1.349 . S
C810 C812 1.327 . S
C810 H835 0.950 . S
C811 C810 1.349 . S
C811 C827 1.349 . S
C812 C810 1.327 . S
C812 C831 1.429 . S
C812 H836 0.950 . S
C813 C830 1.574 . S
C813 C832 1.368 . S
C813 H837 0.949 . S
H814 C818 0.949 . S
C815 C816 1.349 . S
C815 C817 1.327 . S
C815 H838 0.950 . S
C816 C815 1.349 . S
C816 C828 1.349 . S
C817 C815 1.327 . S
C817 C833 1.429 . S
C817 H839 0.950 . S
C818 H814 0.949 . S
C818 C826 1.574 . S
C818 C834 1.368 . S
H819 C827 0.950 . S
H820 C825 0.950 . S
H821 C826 0.949 . S
H822 C828 0.950 . S
H823 C829 0.950 . S
H824 C830 0.949 . S
C825 H820 0.950 . S
C825 C827 1.327 . S
C825 C831 1.429 . S
C826 C818 1.574 . S
C826 H821 0.949 . S
C826 C832 1.368 . S
C827 C811 1.349 . S
C827 H819 0.950 . S
C827 C825 1.327 . S
C828 C816 1.349 . S
C828 H822 0.950 . S
C828 C829 1.327 . S
C829 H823 0.950 . S
C829 C828 1.327 . S
C829 C833 1.429 . S
C830 C813 1.574 . S
C830 H824 0.949 . S
C830 C834 1.368 . S
C831 C812 1.429 . S
C831 C825 1.429 . S
C831 C832 1.523 . S
C832 C813 1.368 . S
C832 C826 1.368 . S
C832 C831 1.523 . S
C833 C817 1.429 . S
C833 C829 1.429 . S
C833 C834 1.523 . S
C834 C818 1.368 . S
C834 C830 1.368 . S
C834 C833 1.523 . S
H835 C810 0.950 . S
H836 C812 0.950 . S
H837 C813 0.949 . S
H838 C815 0.950 . S
H839 C817 0.950 . S
C840 C841 1.349 . S
C840 C842 1.327 . S
C840 H865 0.950 . S
C841 C840 1.349 . S
C841 C857 1.349 . S
C842 C840 1.327 . S
C842 C861 1.429 . S
C842 H866 0.950 . S
C843 C860 1.574 . S
C843 C862 1.368 . S
C843 H867 0.949 . S
H844 C848 0.949 . S
C845 C846 1.349 . S
C845 C847 1.327 . S
C845 H868 0.950 . S
C846 C845 1.349 . S
C846 C858 1.349 . S
C847 C845 1.327 . S
C847 C863 1.429 . S
C847 H869 0.950 . S
C848 H844 0.949 . S
C848 C856 1.574 . S
C848 C864 1.368 . S
H849 C857 0.950 . S
H850 C855 0.950 . S
H851 C856 0.949 . S
H852 C858 0.950 . S
H853 C859 0.950 . S
H854 C860 0.949 . S
C855 H850 0.950 . S
C855 C857 1.327 . S
C855 C861 1.429 . S
C856 C848 1.574 . S
C856 H851 0.949 . S
C856 C862 1.368 . S
C857 C841 1.349 . S
C857 H849 0.950 . S
C857 C855 1.327 . S
C858 C846 1.349 . S
C858 H852 0.950 . S
C858 C859 1.327 . S
C859 H853 0.950 . S
C859 C858 1.327 . S
C859 C863 1.429 . S
C860 C843 1.574 . S
C860 H854 0.949 . S
C860 C864 1.368 . S
C861 C842 1.429 . S
C861 C855 1.429 . S
C861 C862 1.523 . S
C862 C843 1.368 . S
C862 C856 1.368 . S
C862 C861 1.523 . S
C863 C847 1.429 . S
C863 C859 1.429 . S
C863 C864 1.523 . S
C864 C848 1.368 . S
C864 C860 1.368 . S
C864 C863 1.523 . S
H865 C840 0.950 . S
H866 C842 0.950 . S
H867 C843 0.949 . S
H868 C845 0.950 . S
H869 C847 0.950 . S
C870 C871 1.349 . S
C870 C872 1.327 . S
C870 H895 0.950 . S
C871 C870 1.349 . S
C871 C887 1.349 . S
C872 C870 1.327 . S
C872 C891 1.429 . S
C872 H896 0.950 . S
C873 C890 1.574 . S
C873 C892 1.368 . S
C873 H897 0.949 . S
H874 C878 0.949 . S
C875 C876 1.349 . S
C875 C877 1.327 . S
C875 H898 0.950 . S
C876 C875 1.349 . S
C876 C888 1.349 . S
C877 C875 1.327 . S
C877 C893 1.429 . S
C877 H899 0.950 . S
C878 H874 0.949 . S
C878 C886 1.574 . S
C878 C894 1.368 . S
H879 C887 0.950 . S
H880 C885 0.950 . S
H881 C886 0.949 . S
H882 C888 0.950 . S
H883 C889 0.950 . S
H884 C890 0.949 . S
C885 H880 0.950 . S
C885 C887 1.327 . S
C885 C891 1.429 . S
C886 C878 1.574 . S
C886 H881 0.949 . S
C886 C892 1.368 . S
C887 C871 1.349 . S
C887 H879 0.950 . S
C887 C885 1.327 . S
C888 C876 1.349 . S
C888 H882 0.950 . S
C888 C889 1.327 . S
C889 H883 0.950 . S
C889 C888 1.327 . S
C889 C893 1.429 . S
C890 C873 1.574 . S
C890 H884 0.949 . S
C890 C894 1.368 . S
C891 C872 1.429 . S
C891 C885 1.429 . S
C891 C892 1.523 . S
C892 C873 1.368 . S
C892 C886 1.368 . S
C892 C891 1.523 . S
C893 C877 1.429 . S
C893 C889 1.429 . S
C893 C894 1.523 . S
C894 C878 1.368 . S
C894 C890 1.368 . S
C894 C893 1.523 . S
H895 C870 0.950 . S
H896 C872 0.950 . S
H897 C873 0.949 . S
H898 C875 0.950 . S
H899 C877 0.950 . S
C900 C901 1.349 . S
C900 C902 1.327 . S
C900 H925 0.950 . S
C901 C900 1.349 . S
C901 C917 1.349 . S
C902 C900 1.327 . S
C902 C921 1.429 . S
C902 H926 0.950 . S
C903 C920 1.568 1_455 S
C903 C922 1.368 . S
C903 H927 0.949 . S
H904 C908 0.949 . S
C905 C906 1.349 . S
C905 C907 1.327 . S
C905 H928 0.950 . S
C906 C905 1.349 . S
C906 C918 1.349 . S
C907 C905 1.327 . S
C907 C923 1.429 . S
C907 H929 0.950 . S
C908 H904 0.949 . S
C908 C916 1.568 1_655 S
C908 C924 1.368 . S
H909 C917 0.950 . S
H910 C915 0.950 . S
H911 C916 0.949 . S
H912 C918 0.950 . S
H913 C919 0.950 . S
H914 C920 0.949 . S
C915 H910 0.950 . S
C915 C917 1.327 . S
C915 C921 1.429 . S
C916 C908 1.568 1_455 S
C916 H911 0.949 . S
C916 C922 1.374 . S
C917 C901 1.349 . S
C917 H909 0.950 . S
C917 C915 1.327 . S
C918 C906 1.349 . S
C918 H912 0.950 . S
C918 C919 1.327 . S
C919 H913 0.950 . S
C919 C918 1.327 . S
C919 C923 1.429 . S
C920 C903 1.568 1_655 S
C920 H914 0.949 . S
C920 C924 1.374 . S
C921 C902 1.429 . S
C921 C915 1.429 . S
C921 C922 1.523 . S
C922 C903 1.368 . S
C922 C916 1.374 . S
C922 C921 1.523 . S
C923 C907 1.429 . S
C923 C919 1.429 . S
C923 C924 1.523 . S
C924 C908 1.368 . S
C924 C920 1.374 . S
C924 C923 1.523 . S
H925 C900 0.950 . S
H926 C902 0.950 . S
H927 C903 0.949 . S
H928 C905 0.950 . S
H929 C907 0.950 . S
C930 C931 1.349 . S
C930 C932 1.327 . S
C930 H955 0.950 . S
C931 C930 1.349 . S
C931 C947 1.349 . S
C932 C930 1.327 . S
C932 C951 1.429 . S
C932 H956 0.950 . S
C933 C950 1.574 1_554 S
C933 C952 1.368 . S
C933 H957 0.949 . S
H934 C938 0.949 . S
C935 C936 1.349 . S
C935 C937 1.327 . S
C935 H958 0.950 . S
C936 C935 1.349 . S
C936 C948 1.349 . S
C937 C935 1.327 . S
C937 C953 1.429 . S
C937 H959 0.950 . S
C938 H934 0.949 . S
C938 C946 1.574 1_556 S
C938 C954 1.368 . S
H939 C947 0.950 . S
H940 C945 0.950 . S
H941 C946 0.949 . S
H942 C948 0.950 . S
H943 C949 0.950 . S
H944 C950 0.949 . S
C945 H940 0.950 . S
C945 C947 1.327 . S
C945 C951 1.429 . S
C946 C938 1.574 1_554 S
C946 H941 0.949 . S
C946 C952 1.368 . S
C947 C931 1.349 . S
C947 H939 0.950 . S
C947 C945 1.327 . S
C948 C936 1.349 . S
C948 H942 0.950 . S
C948 C949 1.327 . S
C949 H943 0.950 . S
C949 C948 1.327 . S
C949 C953 1.429 . S
C950 C933 1.574 1_556 S
C950 H944 0.949 . S
C950 C954 1.368 . S
C951 C932 1.429 . S
C951 C945 1.429 . S
C951 C952 1.523 . S
C952 C933 1.368 . S
C952 C946 1.368 . S
C952 C951 1.523 . S
C953 C937 1.429 . S
C953 C949 1.429 . S
C953 C954 1.523 . S
C954 C938 1.368 . S
C954 C950 1.368 . S
C954 C953 1.523 . S
H955 C930 0.950 . S
H956 C932 0.950 . S
H957 C933 0.949 . S
H958 C935 0.950 . S
H959 C937 0.950 . S
C960 C961 1.349 . S
C960 C962 1.327 . S
C960 H985 0.950 . S
C961 C960 1.349 . S
C961 C977 1.349 . S
C962 C960 1.327 . S
C962 C981 1.429 . S
C962 H986 0.950 . S
C963 C980 1.574 . S
C963 C982 1.368 . S
C963 H987 0.949 . S
H964 C968 0.949 . S
C965 C966 1.349 . S
C965 C967 1.327 . S
C965 H988 0.950 . S
C966 C965 1.349 . S
C966 C978 1.349 . S
C967 C965 1.327 . S
C967 C983 1.429 . S
C967 H989 0.950 . S
C968 H964 0.949 . S
C968 C976 1.574 . S
C968 C984 1.368 . S
H969 C977 0.950 . S
H970 C975 0.950 . S
H971 C976 0.949 . S
H972 C978 0.950 . S
H973 C979 0.950 . S
H974 C980 0.949 . S
C975 H970 0.950 . S
C975 C977 1.327 . S
C975 C981 1.429 . S
C976 C968 1.574 . S
C976 H971 0.949 . S
C976 C982 1.368 . S
C977 C961 1.349 . S
C977 H969 0.950 . S
C977 C975 1.327 . S
C978 C966 1.349 . S
C978 H972 0.950 . S
C978 C979 1.327 . S
C979 H973 0.950 . S
C979 C978 1.327 . S
C979 C983 1.429 . S
C980 C963 1.574 . S
C980 H974 0.949 . S
C980 C984 1.368 . S
C981 C962 1.429 . S
C981 C975 1.429 . S
C981 C982 1.523 . S
C982 C963 1.368 . S
C982 C976 1.368 . S
C982 C981 1.523 . S
C983 C967 1.429 . S
C983 C979 1.429 . S
C983 C984 1.523 . S
C984 C968 1.368 . S
C984 C980 1.368 . S
C984 C983 1.523 . S
H985 C960 0.950 . S
H986 C962 0.950 . S
H987 C963 0.949 . S
H988 C965 0.950 . S
H989 C967 0.950 . S
C990 C991 1.349 . S
C990 C992 1.327 . S
C990 H1015 0.950 . S
C991 C990 1.349 . S
C991 C1007 1.349 . S
C992 C990 1.327 . S
C992 C1011 1.429 . S
C992 H1016 0.950 . S
C993 C1010 1.574 . S
C993 C1012 1.368 . S
C993 H1017 0.949 . S
H994 C998 0.949 . S
C995 C996 1.349 . S
C995 C997 1.327 . S
C995 H1018 0.950 . S
C996 C995 1.349 . S
C996 C1008 1.349 . S
C997 C995 1.327 . S
C997 C1013 1.429 . S
C997 H1019 0.950 . S
C998 H994 0.949 . S
C998 C1006 1.574 . S
C998 C1014 1.368 . S
H999 C1007 0.950 . S
H1000 C1005 0.950 . S
H1001 C1006 0.949 . S
H1002 C1008 0.950 . S
H1003 C1009 0.950 . S
H1004 C1010 0.949 . S
C1005 H1000 0.950 . S
C1005 C1007 1.327 . S
C1005 C1011 1.429 . S
C1006 C998 1.574 . S
C1006 H1001 0.949 . S
C1006 C1012 1.368 . S
C1007 C991 1.349 . S
C1007 H999 0.950 . S
C1007 C1005 1.327 . S
C1008 C996 1.349 . S
C1008 H1002 0.950 . S
C1008 C1009 1.327 . S
C1009 H1003 0.950 . S
C1009 C1008 1.327 . S
C1009 C1013 1.429 . S
C1010 C993 1.574 . S
C1010 H1004 0.949 . S
C1010 C1014 1.368 . S
C1011 C992 1.429 . S
C1011 C1005 1.429 . S
C1011 C1012 1.523 . S
C1012 C993 1.368 . S
C1012 C1006 1.368 . S
C1012 C1011 1.523 . S
C1013 C997 1.429 . S
C1013 C1009 1.429 . S
C1013 C1014 1.523 . S
C1014 C998 1.368 . S
C1014 C1010 1.368 . S
C1014 C1013 1.523 . S
H1015 C990 0.950 . S
H1016 C992 0.950 . S
H1017 C993 0.949 . S
H1018 C995 0.950 . S
H1019 C997 0.950 . S
C1020 C1021 1.349 . S
C1020 C1022 1.327 . S
C1020 H1045 0.950 . S
C1021 C1020 1.349 . S
C1021 C1037 1.349 . S
C1022 C1020 1.327 . S
C1022 C1041 1.429 . S
C1022 H1046 0.950 . S
C1023 C1040 1.574 . S
C1023 C1042 1.368 . S
C1023 H1047 0.949 . S
H1024 C1028 0.949 . S
C1025 C1026 1.349 . S
C1025 C1027 1.327 . S
C1025 H1048 0.950 . S
C1026 C1025 1.349 . S
C1026 C1038 1.349 . S
C1027 C1025 1.327 . S
C1027 C1043 1.429 . S
C1027 H1049 0.950 . S
C1028 H1024 0.949 . S
C1028 C1036 1.574 . S
C1028 C1044 1.368 . S
H1029 C1037 0.950 . S
H1030 C1035 0.950 . S
H1031 C1036 0.949 . S
H1032 C1038 0.950 . S
H1033 C1039 0.950 . S
H1034 C1040 0.949 . S
C1035 H1030 0.950 . S
C1035 C1037 1.327 . S
C1035 C1041 1.429 . S
C1036 C1028 1.574 . S
C1036 H1031 0.949 . S
C1036 C1042 1.368 . S
C1037 C1021 1.349 . S
C1037 H1029 0.950 . S
C1037 C1035 1.327 . S
C1038 C1026 1.349 . S
C1038 H1032 0.950 . S
C1038 C1039 1.327 . S
C1039 H1033 0.950 . S
C1039 C1038 1.327 . S
C1039 C1043 1.429 . S
C1040 C1023 1.574 . S
C1040 H1034 0.949 . S
C1040 C1044 1.368 . S
C1041 C1022 1.429 . S
C1041 C1035 1.429 . S
C1041 C1042 1.523 . S
C1042 C1023 1.368 . S
C1042 C1036 1.368 . S
C1042 C1041 1.523 . S
C1043 C1027 1.429 . S
C1043 C1039 1.429 . S
C1043 C1044 1.523 . S
C1044 C1028 1.368 . S
C1044 C1040 1.368 . S
C1044 C1043 1.523 . S
H1045 C1020 0.950 . S
H1046 C1022 0.950 . S
H1047 C1023 0.949 . S
H1048 C1025 0.950 . S
H1049 C1027 0.950 . S
C1050 C1051 1.349 1_455 S
C1050 C1052 1.327 . S
C1050 H1075 0.950 1_455 S
C1051 C1050 1.349 1_655 S
C1051 C1067 1.349 . S
C1052 C1050 1.327 . S
C1052 C1071 1.429 . S
C1052 H1076 0.950 . S
C1053 C1070 1.574 . S
C1053 C1072 1.368 . S
C1053 H1077 0.949 . S
H1054 C1058 0.949 . S
C1055 C1056 1.349 . S
C1055 C1057 1.327 . S
C1055 H1078 0.950 . S
C1056 C1055 1.349 . S
C1056 C1068 1.349 . S
C1057 C1055 1.327 . S
C1057 C1073 1.429 . S
C1057 H1079 0.950 . S
C1058 H1054 0.949 . S
C1058 C1066 1.574 . S
C1058 C1074 1.368 . S
H1059 C1067 0.950 . S
H1060 C1065 0.950 . S
H1061 C1066 0.949 . S
H1062 C1068 0.950 . S
H1063 C1069 0.950 . S
H1064 C1070 0.949 . S
C1065 H1060 0.950 . S
C1065 C1067 1.327 1_455 S
C1065 C1071 1.429 . S
C1066 C1058 1.574 . S
C1066 H1061 0.949 . S
C1066 C1072 1.368 . S
C1067 C1051 1.349 . S
C1067 H1059 0.950 . S
C1067 C1065 1.327 1_655 S
C1068 C1056 1.349 . S
C1068 H1062 0.950 . S
C1068 C1069 1.327 . S
C1069 H1063 0.950 . S
C1069 C1068 1.327 . S
C1069 C1073 1.429 . S
C1070 C1053 1.574 . S
C1070 H1064 0.949 . S
C1070 C1074 1.368 . S
C1071 C1052 1.429 . S
C1071 C1065 1.429 . S
C1071 C1072 1.523 . S
C1072 C1053 1.368 . S
C1072 C1066 1.368 . S
C1072 C1071 1.523 . S
C1073 C1057 1.429 . S
C1073 C1069 1.429 . S
C1073 C1074 1.523 . S
C1074 C1058 1.368 . S
C1074 C1070 1.368 . S
C1074 C1073 1.523 . S
H1075 C1050 0.950 1_655 S
H1076 C1052 0.950 . S
H1077 C1053 0.949 . S
H1078 C1055 0.950 . S
H1079 C1057 0.950 . S
C1080 C1081 1.349 . S
C1080 C1082 1.327 . S
C1080 H1105 0.950 . S
C1081 C1080 1.349 . S
C1081 C1097 1.349 . S
C1082 C1080 1.327 . S
C1082 C1101 1.429 . S
C1082 H1106 0.950 . S
C1083 C1100 1.574 . S
C1083 C1102 1.368 . S
C1083 H1107 0.949 . S
H1084 C1088 0.949 . S
C1085 C1086 1.349 . S
C1085 C1087 1.327 . S
C1085 H1108 0.950 . S
C1086 C1085 1.349 . S
C1086 C1098 1.349 . S
C1087 C1085 1.327 . S
C1087 C1103 1.429 . S
C1087 H1109 0.950 . S
C1088 H1084 0.949 . S
C1088 C1096 1.574 . S
C1088 C1104 1.368 . S
H1089 C1097 0.950 . S
H1090 C1095 0.950 . S
H1091 C1096 0.949 . S
H1092 C1098 0.950 . S
H1093 C1099 0.950 . S
H1094 C1100 0.949 . S
C1095 H1090 0.950 . S
C1095 C1097 1.327 . S
C1095 C1101 1.429 . S
C1096 C1088 1.574 . S
C1096 H1091 0.949 . S
C1096 C1102 1.368 . S
C1097 C1081 1.349 . S
C1097 H1089 0.950 . S
C1097 C1095 1.327 . S
C1098 C1086 1.349 . S
C1098 H1092 0.950 . S
C1098 C1099 1.327 . S
C1099 H1093 0.950 . S
C1099 C1098 1.327 . S
C1099 C1103 1.429 . S
C1100 C1083 1.574 . S
C1100 H1094 0.949 . S
C1100 C1104 1.368 . S
C1101 C1082 1.429 . S
C1101 C1095 1.429 . S
C1101 C1102 1.523 . S
C1102 C1083 1.368 . S
C1102 C1096 1.368 . S
C1102 C1101 1.523 . S
C1103 C1087 1.429 . S
C1103 C1099 1.429 . S
C1103 C1104 1.523 . S
C1104 C1088 1.368 . S
C1104 C1100 1.368 . S
C1104 C1103 1.523 . S
H1105 C1080 0.950 . S
H1106 C1082 0.950 . S
H1107 C1083 0.949 . S
H1108 C1085 0.950 . S
H1109 C1087 0.950 . S
C1110 C1111 1.349 . S
C1110 C1112 1.327 . S
C1110 H1135 0.950 . S
C1111 C1110 1.349 . S
C1111 C1127 1.349 . S
C1112 C1110 1.327 . S
C1112 C1131 1.429 . S
C1112 H1136 0.950 . S
C1113 C1130 1.574 . S
C1113 C1132 1.368 . S
C1113 H1137 0.949 . S
H1114 C1118 0.949 . S
C1115 C1116 1.349 . S
C1115 C1117 1.327 . S
C1115 H1138 0.950 . S
C1116 C1115 1.349 . S
C1116 C1128 1.349 . S
C1117 C1115 1.327 . S
C1117 C1133 1.429 . S
C1117 H1139 0.950 . S
C1118 H1114 0.949 . S
C1118 C1126 1.574 . S
C1118 C1134 1.368 . S
H1119 C1127 0.950 . S
H1120 C1125 0.950 . S
H1121 C1126 0.949 . S
H1122 C1128 0.950 . S
H1123 C1129 0.950 . S
H1124 C1130 0.949 . S
C1125 H1120 0.950 . S
C1125 C1127 1.327 . S
C1125 C1131 1.429 . S
C1126 C1118 1.574 . S
C1126 H1121 0.949 . S
C1126 C1132 1.368 . S
C1127 C1111 1.349 . S
C1127 H1119 0.950 . S
C1127 C1125 1.327 . S
C1128 C1116 1.349 . S
C1128 H1122 0.950 . S
C1128 C1129 1.327 . S
C1129 H1123 0.950 . S
C1129 C1128 1.327 . S
C1129 C1133 1.429 . S
C1130 C1113 1.574 . S
C1130 H1124 0.949 . S
C1130 C1134 1.368 . S
C1131 C1112 1.429 . S
C1131 C1125 1.429 . S
C1131 C1132 1.523 . S
C1132 C1113 1.368 . S
C1132 C1126 1.368 . S
C1132 C1131 1.523 . S
C1133 C1117 1.429 . S
C1133 C1129 1.429 . S
C1133 C1134 1.523 . S
C1134 C1118 1.368 . S
C1134 C1130 1.368 . S
C1134 C1133 1.523 . S
H1135 C1110 0.950 . S
H1136 C1112 0.950 . S
H1137 C1113 0.949 . S
H1138 C1115 0.950 . S
H1139 C1117 0.950 . S
C1140 C1141 1.349 . S
C1140 C1142 1.327 . S
C1140 H1165 0.950 . S
C1141 C1140 1.349 . S
C1141 C1157 1.349 . S
C1142 C1140 1.327 . S
C1142 C1161 1.429 . S
C1142 H1166 0.950 . S
C1143 C1160 1.574 . S
C1143 C1162 1.368 . S
C1143 H1167 0.949 . S
H1144 C1148 0.949 . S
C1145 C1146 1.349 . S
C1145 C1147 1.327 . S
C1145 H1168 0.950 . S
C1146 C1145 1.349 . S
C1146 C1158 1.349 . S
C1147 C1145 1.327 . S
C1147 C1163 1.429 . S
C1147 H1169 0.950 . S
C1148 H1144 0.949 . S
C1148 C1156 1.574 . S
C1148 C1164 1.368 . S
H1149 C1157 0.950 . S
H1150 C1155 0.950 . S
H1151 C1156 0.949 . S
H1152 C1158 0.950 . S
H1153 C1159 0.950 . S
H1154 C1160 0.949 . S
C1155 H1150 0.950 . S
C1155 C1157 1.327 . S
C1155 C1161 1.429 . S
C1156 C1148 1.574 . S
C1156 H1151 0.949 . S
C1156 C1162 1.368 . S
C1157 C1141 1.349 . S
C1157 H1149 0.950 . S
C1157 C1155 1.327 . S
C1158 C1146 1.349 . S
C1158 H1152 0.950 . S
C1158 C1159 1.327 . S
C1159 H1153 0.950 . S
C1159 C1158 1.327 . S
C1159 C1163 1.429 . S
C1160 C1143 1.574 . S
C1160 H1154 0.949 . S
C1160 C1164 1.368 . S
C1161 C1142 1.429 . S
C1161 C1155 1.429 . S
C1161 C1162 1.523 . S
C1162 C1143 1.368 . S
C1162 C1156 1.368 . S
C1162 C1161 1.523 . S
C1163 C1147 1.429 . S
C1163 C1159 1.429 . S
C1163 C1164 1.523 . S
C1164 C1148 1.368 . S
C1164 C1160 1.368 . S
C1164 C1163 1.523 . S
H1165 C1140 0.950 . S
H1166 C1142 0.950 . S
H1167 C1143 0.949 . S
H1168 C1145 0.950 . S
H1169 C1147 0.950 . S
C1170 C1171 1.349 . S
C1170 C1172 1.327 . S
C1170 H1195 0.950 . S
C1171 C1170 1.349 . S
C1171 C1187 1.349 . S
C1172 C1170 1.327 . S
C1172 C1191 1.429 . S
C1172 H1196 0.950 . S
C1173 C1190 1.574 . S
C1173 C1192 1.368 . S
C1173 H1197 0.949 . S
H1174 C1178 0.949 . S
C1175 C1176 1.349 1_655 S
C1175 C1177 1.327 . S
C1175 H1198 0.950 . S
C1176 C1175 1.349 1_455 S
C1176 C1188 1.349 . S
C1177 C1175 1.327 . S
C1177 C1193 1.429 . S
C1177 H1199 0.950 . S
C1178 H1174 0.949 . S
C1178 C1186 1.574 . S
C1178 C1194 1.368 . S
H1179 C1187 0.950 . S
H1180 C1185 0.950 . S
H1181 C1186 0.949 . S
H1182 C1188 0.950 . S
H1183 C1189 0.950 . S
H1184 C1190 0.949 . S
C1185 H1180 0.950 . S
C1185 C1187 1.327 . S
C1185 C1191 1.429 . S
C1186 C1178 1.574 . S
C1186 H1181 0.949 . S
C1186 C1192 1.368 . S
C1187 C1171 1.349 . S
C1187 H1179 0.950 . S
C1187 C1185 1.327 . S
C1188 C1176 1.349 . S
C1188 H1182 0.950 . S
C1188 C1189 1.327 1_455 S
C1189 H1183 0.950 . S
C1189 C1188 1.327 1_655 S
C1189 C1193 1.429 . S
C1190 C1173 1.574 . S
C1190 H1184 0.949 . S
C1190 C1194 1.368 . S
C1191 C1172 1.429 . S
C1191 C1185 1.429 . S
C1191 C1192 1.523 . S
C1192 C1173 1.368 . S
C1192 C1186 1.368 . S
C1192 C1191 1.523 . S
C1193 C1177 1.429 . S
C1193 C1189 1.429 . S
C1193 C1194 1.523 . S
C1194 C1178 1.368 . S
C1194 C1190 1.368 . S
C1194 C1193 1.523 . S
H1195 C1170 0.950 . S
H1196 C1172 0.950 . S
H1197 C1173 0.949 . S
H1198 C1175 0.950 . S
H1199 C1177 0.950 . S
C1200 C1201 1.349 . S
C1200 C1202 1.327 . S
C1200 H1225 0.950 . S
C1201 C1200 1.349 . S
C1201 C1217 1.349 . S
C1202 C1200 1.327 . S
C1202 C1221 1.429 . S
C1202 H1226 0.950 . S
C1203 C1220 1.574 . S
C1203 C1222 1.368 . S
C1203 H1227 0.949 . S
H1204 C1208 0.949 . S
C1205 C1206 1.349 . S
C1205 C1207 1.327 . S
C1205 H1228 0.950 . S
C1206 C1205 1.349 . S
C1206 C1218 1.349 . S
C1207 C1205 1.327 . S
C1207 C1223 1.429 . S
C1207 H1229 0.950 . S
C1208 H1204 0.949 . S
C1208 C1216 1.574 . S
C1208 C1224 1.368 . S
H1209 C1217 0.950 . S
H1210 C1215 0.950 . S
H1211 C1216 0.949 . S
H1212 C1218 0.950 . S
H1213 C1219 0.950 . S
H1214 C1220 0.949 . S
C1215 H1210 0.950 . S
C1215 C1217 1.327 . S
C1215 C1221 1.429 . S
C1216 C1208 1.574 . S
C1216 H1211 0.949 . S
C1216 C1222 1.368 . S
C1217 C1201 1.349 . S
C1217 H1209 0.950 . S
C1217 C1215 1.327 . S
C1218 C1206 1.349 . S
C1218 H1212 0.950 . S
C1218 C1219 1.327 . S
C1219 H1213 0.950 . S
C1219 C1218 1.327 . S
C1219 C1223 1.429 . S
C1220 C1203 1.574 . S
C1220 H1214 0.949 . S
C1220 C1224 1.368 . S
C1221 C1202 1.429 . S
C1221 C1215 1.429 . S
C1221 C1222 1.523 . S
C1222 C1203 1.368 . S
C1222 C1216 1.368 . S
C1222 C1221 1.523 . S
C1223 C1207 1.429 . S
C1223 C1219 1.429 . S
C1223 C1224 1.523 . S
C1224 C1208 1.368 . S
C1224 C1220 1.368 . S
C1224 C1223 1.523 . S
H1225 C1200 0.950 . S
H1226 C1202 0.950 . S
H1227 C1203 0.949 . S
H1228 C1205 0.950 . S
H1229 C1207 0.950 . S
C1230 C1231 1.349 . S
C1230 C1232 1.327 . S
C1230 H1255 0.950 . S
C1231 C1230 1.349 . S
C1231 C1247 1.349 . S
C1232 C1230 1.327 . S
C1232 C1251 1.429 . S
C1232 H1256 0.950 . S
C1233 C1250 1.574 . S
C1233 C1252 1.368 . S
C1233 H1257 0.949 . S
H1234 C1238 0.949 . S
C1235 C1236 1.349 1_665 S
C1235 C1237 1.327 . S
C1235 H1258 0.950 1_655 S
C1236 C1235 1.349 1_445 S
C1236 C1248 1.349 1_455 S
C1237 C1235 1.327 . S
C1237 C1253 1.428 1_565 S
C1237 H1259 0.950 . S
C1238 H1234 0.949 . S
C1238 C1246 1.574 1_545 S
C1238 C1254 1.368 1_545 S
H1239 C1247 0.950 . S
H1240 C1245 0.950 . S
H1241 C1246 0.949 . S
H1242 C1248 0.950 . S
H1243 C1249 0.950 . S
H1244 C1250 0.949 . S
C1245 H1240 0.950 . S
C1245 C1247 1.327 . S
C1245 C1251 1.429 . S
C1246 C1238 1.574 1_565 S
C1246 H1241 0.949 . S
C1246 C1252 1.368 . S
C1247 C1231 1.349 . S
C1247 H1239 0.950 . S
C1247 C1245 1.327 . S
C1248 C1236 1.349 1_655 S
C1248 H1242 0.950 . S
C1248 C1249 1.327 . S
C1249 H1243 0.950 . S
C1249 C1248 1.327 . S
C1249 C1253 1.430 . S
C1250 C1233 1.574 . S
C1250 H1244 0.949 . S
C1250 C1254 1.368 . S
C1251 C1232 1.429 . S
C1251 C1245 1.429 . S
C1251 C1252 1.523 . S
C1252 C1233 1.368 . S
C1252 C1246 1.368 . S
C1252 C1251 1.523 . S
C1253 C1237 1.428 1_545 S
C1253 C1249 1.430 . S
C1253 C1254 1.522 1_545 S
C1254 C1238 1.368 1_565 S
C1254 C1250 1.368 . S
C1254 C1253 1.522 1_565 S
H1255 C1230 0.950 . S
H1256 C1232 0.950 . S
H1257 C1233 0.949 . S
H1258 C1235 0.950 1_455 S
H1259 C1237 0.950 . S
C1260 C1261 1.349 . S
C1260 C1262 1.327 1_565 S
C1260 H1285 0.950 . S
C1261 C1260 1.349 . S
C1261 C1277 1.349 1_565 S
C1262 C1260 1.327 1_545 S
C1262 C1281 1.429 . S
C1262 H1286 0.950 . S
C1263 C1280 1.574 . S
C1263 C1282 1.368 . S
C1263 H1287 0.949 . S
H1264 C1268 0.949 . S
C1265 C1266 1.349 . S
C1265 C1267 1.327 . S
C1265 H1288 0.950 . S
C1266 C1265 1.349 . S
C1266 C1278 1.349 . S
C1267 C1265 1.327 . S
C1267 C1283 1.429 . S
C1267 H1289 0.950 . S
C1268 H1264 0.949 . S
C1268 C1276 1.574 . S
C1268 C1284 1.368 . S
H1269 C1277 0.950 . S
H1270 C1275 0.950 . S
H1271 C1276 0.949 . S
H1272 C1278 0.950 . S
H1273 C1279 0.950 . S
H1274 C1280 0.949 . S
C1275 H1270 0.950 . S
C1275 C1277 1.327 . S
C1275 C1281 1.429 . S
C1276 C1268 1.574 . S
C1276 H1271 0.949 . S
C1276 C1282 1.368 . S
C1277 C1261 1.349 1_545 S
C1277 H1269 0.950 . S
C1277 C1275 1.327 . S
C1278 C1266 1.349 . S
C1278 H1272 0.950 . S
C1278 C1279 1.327 . S
C1279 H1273 0.950 . S
C1279 C1278 1.327 . S
C1279 C1283 1.429 . S
C1280 C1263 1.574 . S
C1280 H1274 0.949 . S
C1280 C1284 1.368 . S
C1281 C1262 1.429 . S
C1281 C1275 1.429 . S
C1281 C1282 1.523 . S
C1282 C1263 1.368 . S
C1282 C1276 1.368 . S
C1282 C1281 1.523 . S
C1283 C1267 1.429 . S
C1283 C1279 1.429 . S
C1283 C1284 1.523 . S
C1284 C1268 1.368 . S
C1284 C1280 1.368 . S
C1284 C1283 1.523 . S
H1285 C1260 0.950 . S
H1286 C1262 0.950 . S
H1287 C1263 0.949 . S
H1288 C1265 0.950 . S
H1289 C1267 0.950 . S
C1290 C1291 1.349 . S
C1290 C1292 1.327 . S
C1290 H1315 0.950 . S
C1291 C1290 1.349 . S
C1291 C1307 1.349 . S
C1292 C1290 1.327 . S
C1292 C1311 1.429 . S
C1292 H1316 0.950 . S
C1293 C1310 1.574 . S
C1293 C1312 1.368 . S
C1293 H1317 0.949 . S
H1294 C1298 0.949 . S
C1295 C1296 1.349 . S
C1295 C1297 1.327 1_565 S
C1295 H1318 0.950 . S
C1296 C1295 1.349 . S
C1296 C1308 1.349 . S
C1297 C1295 1.327 1_545 S
C1297 C1313 1.429 . S
C1297 H1319 0.950 . S
C1298 H1294 0.949 . S
C1298 C1306 1.574 . S
C1298 C1314 1.368 . S
H1299 C1307 0.950 . S
H1300 C1305 0.950 . S
H1301 C1306 0.949 . S
H1302 C1308 0.950 . S
H1303 C1309 0.950 . S
H1304 C1310 0.949 . S
C1305 H1300 0.950 . S
C1305 C1307 1.327 . S
C1305 C1311 1.429 . S
C1306 C1298 1.574 . S
C1306 H1301 0.949 . S
C1306 C1312 1.368 . S
C1307 C1291 1.349 . S
C1307 H1299 0.950 . S
C1307 C1305 1.327 . S
C1308 C1296 1.349 . S
C1308 H1302 0.950 . S
C1308 C1309 1.327 . S
C1309 H1303 0.950 . S
C1309 C1308 1.327 . S
C1309 C1313 1.429 1_565 S
C1310 C1293 1.574 . S
C1310 H1304 0.949 . S
C1310 C1314 1.368 . S
C1311 C1292 1.429 . S
C1311 C1305 1.429 . S
C1311 C1312 1.523 . S
C1312 C1293 1.368 . S
C1312 C1306 1.368 . S
C1312 C1311 1.523 . S
C1313 C1297 1.429 . S
C1313 C1309 1.429 1_545 S
C1313 C1314 1.523 . S
C1314 C1298 1.368 . S
C1314 C1310 1.368 . S
C1314 C1313 1.523 . S
H1315 C1290 0.950 . S
H1316 C1292 0.950 . S
H1317 C1293 0.949 . S
H1318 C1295 0.950 . S
H1319 C1297 0.950 . S
C1320 C1321 1.349 . S
C1320 C1322 1.327 . S
C1320 H1345 0.950 . S
C1321 C1320 1.349 . S
C1321 C1337 1.349 . S
C1322 C1320 1.327 . S
C1322 C1341 1.429 . S
C1322 H1346 0.950 . S
C1323 C1340 1.574 . S
C1323 C1342 1.368 . S
C1323 H1347 0.949 . S
H1324 C1328 0.949 . S
C1325 C1326 1.349 . S
C1325 C1327 1.327 . S
C1325 H1348 0.950 . S
C1326 C1325 1.349 . S
C1326 C1338 1.349 . S
C1327 C1325 1.327 . S
C1327 C1343 1.429 . S
C1327 H1349 0.950 . S
C1328 H1324 0.949 . S
C1328 C1336 1.574 . S
C1328 C1344 1.368 . S
H1329 C1337 0.950 . S
H1330 C1335 0.950 . S
H1331 C1336 0.949 . S
H1332 C1338 0.950 1_565 S
H1333 C1339 0.950 . S
H1334 C1340 0.949 . S
C1335 H1330 0.950 . S
C1335 C1337 1.327 . S
C1335 C1341 1.429 . S
C1336 C1328 1.574 . S
C1336 H1331 0.949 . S
C1336 C1342 1.368 . S
C1337 C1321 1.349 . S
C1337 H1329 0.950 . S
C1337 C1335 1.327 . S
C1338 C1326 1.349 . S
C1338 H1332 0.950 1_545 S
C1338 C1339 1.327 . S
C1339 H1333 0.950 . S
C1339 C1338 1.327 . S
C1339 C1343 1.429 . S
C1340 C1323 1.574 . S
C1340 H1334 0.949 . S
C1340 C1344 1.368 . S
C1341 C1322 1.429 . S
C1341 C1335 1.429 . S
C1341 C1342 1.523 . S
C1342 C1323 1.368 . S
C1342 C1336 1.368 . S
C1342 C1341 1.523 . S
C1343 C1327 1.429 . S
C1343 C1339 1.429 . S
C1343 C1344 1.523 . S
C1344 C1328 1.368 . S
C1344 C1340 1.368 . S
C1344 C1343 1.523 . S
H1345 C1320 0.950 . S
H1346 C1322 0.950 . S
H1347 C1323 0.949 . S
H1348 C1325 0.950 . S
H1349 C1327 0.950 . S
C1350 C1351 1.349 1_445 S
C1350 C1352 1.327 . S
C1350 H1375 0.950 1_455 S
C1351 C1350 1.349 1_665 S
C1351 C1367 1.349 1_655 S
C1352 C1350 1.327 . S
C1352 C1371 1.428 1_545 S
C1352 H1376 0.950 . S
C1353 C1370 1.574 1_565 S
C1353 C1372 1.368 1_565 S
C1353 H1377 0.949 . S
H1354 C1358 0.949 . S
C1355 C1356 1.349 . S
C1355 C1357 1.327 . S
C1355 H1378 0.950 . S
C1356 C1355 1.349 . S
C1356 C1368 1.349 . S
C1357 C1355 1.327 . S
C1357 C1373 1.429 . S
C1357 H1379 0.950 . S
C1358 H1354 0.949 . S
C1358 C1366 1.574 . S
C1358 C1374 1.368 . S
H1359 C1367 0.950 . S
H1360 C1365 0.950 . S
H1361 C1366 0.949 . S
H1362 C1368 0.950 . S
H1363 C1369 0.950 . S
H1364 C1370 0.949 1_565 S
C1365 H1360 0.950 . S
C1365 C1367 1.327 . S
C1365 C1371 1.430 . S
C1366 C1358 1.574 . S
C1366 H1361 0.949 . S
C1366 C1372 1.368 . S
C1367 C1351 1.349 1_455 S
C1367 H1359 0.950 . S
C1367 C1365 1.327 . S
C1368 C1356 1.349 . S
C1368 H1362 0.950 . S
C1368 C1369 1.327 . S
C1369 H1363 0.950 . S
C1369 C1368 1.327 . S
C1369 C1373 1.429 . S
C1370 C1353 1.574 1_545 S
C1370 H1364 0.949 1_545 S
C1370 C1374 1.368 . S
C1371 C1352 1.428 1_565 S
C1371 C1365 1.430 . S
C1371 C1372 1.522 1_565 S
C1372 C1353 1.368 1_545 S
C1372 C1366 1.368 . S
C1372 C1371 1.522 1_545 S
C1373 C1357 1.429 . S
C1373 C1369 1.429 . S
C1373 C1374 1.523 . S
C1374 C1358 1.368 . S
C1374 C1370 1.368 . S
C1374 C1373 1.523 . S
H1375 C1350 0.950 1_655 S
H1376 C1352 0.950 . S
H1377 C1353 0.949 . S
H1378 C1355 0.950 . S
H1379 C1357 0.950 . S
C1380 C1381 1.349 1_565 S
C1380 C1382 1.327 . S
C1380 H1405 0.950 . S
C1381 C1380 1.349 1_545 S
C1381 C1397 1.349 . S
C1382 C1380 1.327 . S
C1382 C1401 1.429 . S
C1382 H1406 0.950 . S
C1383 C1400 1.574 . S
C1383 C1402 1.368 . S
C1383 H1407 0.949 . S
H1384 C1388 0.949 . S
C1385 C1386 1.349 . S
C1385 C1387 1.327 . S
C1385 H1408 0.950 . S
C1386 C1385 1.349 . S
C1386 C1398 1.349 . S
C1387 C1385 1.327 . S
C1387 C1403 1.429 . S
C1387 H1409 0.950 . S
C1388 H1384 0.949 . S
C1388 C1396 1.574 . S
C1388 C1404 1.368 . S
H1389 C1397 0.950 . S
H1390 C1395 0.950 . S
H1391 C1396 0.949 . S
H1392 C1398 0.950 . S
H1393 C1399 0.950 . S
H1394 C1400 0.949 . S
C1395 H1390 0.950 . S
C1395 C1397 1.327 1_565 S
C1395 C1401 1.429 . S
C1396 C1388 1.574 . S
C1396 H1391 0.949 . S
C1396 C1402 1.368 . S
C1397 C1381 1.349 . S
C1397 H1389 0.950 . S
C1397 C1395 1.327 1_545 S
C1398 C1386 1.349 . S
C1398 H1392 0.950 . S
C1398 C1399 1.327 . S
C1399 H1393 0.950 . S
C1399 C1398 1.327 . S
C1399 C1403 1.429 . S
C1400 C1383 1.574 . S
C1400 H1394 0.949 . S
C1400 C1404 1.368 . S
C1401 C1382 1.429 . S
C1401 C1395 1.429 . S
C1401 C1402 1.523 . S
C1402 C1383 1.368 . S
C1402 C1396 1.368 . S
C1402 C1401 1.523 . S
C1403 C1387 1.429 . S
C1403 C1399 1.429 . S
C1403 C1404 1.523 . S
C1404 C1388 1.368 . S
C1404 C1400 1.368 . S
C1404 C1403 1.523 . S
H1405 C1380 0.950 . S
H1406 C1382 0.950 . S
H1407 C1383 0.949 . S
H1408 C1385 0.950 . S
H1409 C1387 0.950 . S
C1410 C1411 1.349 . S
C1410 C1412 1.327 . S
C1410 H1435 0.950 . S
C1411 C1410 1.349 . S
C1411 C1427 1.349 1_545 S
C1412 C1410 1.327 . S
C1412 C1431 1.429 1_545 S
C1412 H1436 0.950 . S
C1413 C1430 1.574 . S
C1413 C1432 1.368 . S
C1413 H1437 0.949 . S
H1414 C1418 0.949 . S
C1415 C1416 1.349 . S
C1415 C1417 1.327 . S
C1415 H1438 0.950 . S
C1416 C1415 1.349 . S
C1416 C1428 1.349 . S
C1417 C1415 1.327 . S
C1417 C1433 1.429 . S
C1417 H1439 0.950 . S
C1418 H1414 0.949 . S
C1418 C1426 1.574 . S
C1418 C1434 1.368 . S
H1419 C1427 0.950 . S
H1420 C1425 0.950 . S
H1421 C1426 0.949 1_545 S
H1422 C1428 0.950 . S
H1423 C1429 0.950 . S
H1424 C1430 0.949 . S
C1425 H1420 0.950 . S
C1425 C1427 1.327 . S
C1425 C1431 1.429 . S
C1426 C1418 1.574 . S
C1426 H1421 0.949 1_565 S
C1426 C1432 1.368 . S
C1427 C1411 1.349 1_565 S
C1427 H1419 0.950 . S
C1427 C1425 1.327 . S
C1428 C1416 1.349 . S
C1428 H1422 0.950 . S
C1428 C1429 1.327 . S
C1429 H1423 0.950 . S
C1429 C1428 1.327 . S
C1429 C1433 1.429 . S
C1430 C1413 1.574 . S
C1430 H1424 0.949 . S
C1430 C1434 1.368 . S
C1431 C1412 1.429 1_565 S
C1431 C1425 1.429 . S
C1431 C1432 1.523 . S
C1432 C1413 1.368 . S
C1432 C1426 1.368 . S
C1432 C1431 1.523 . S
C1433 C1417 1.429 . S
C1433 C1429 1.429 . S
C1433 C1434 1.523 . S
C1434 C1418 1.368 . S
C1434 C1430 1.368 . S
C1434 C1433 1.523 . S
H1435 C1410 0.950 . S
H1436 C1412 0.950 . S
H1437 C1413 0.949 . S
H1438 C1415 0.950 . S
H1439 C1417 0.950 . S
C1440 C1441 1.349 . S
C1440 C1442 1.327 1_554 S
C1440 H1465 0.950 . S
C1441 C1440 1.349 . S
C1441 C1457 1.349 1_554 S
C1442 C1440 1.327 1_556 S
C1442 C1461 1.429 . S
C1442 H1466 0.950 . S
C1443 C1460 1.574 . S
C1443 C1462 1.368 . S
C1443 H1467 0.949 . S
H1444 C1448 0.949 . S
C1445 C1446 1.349 . S
C1445 C1447 1.327 . S
C1445 H1468 0.950 . S
C1446 C1445 1.349 . S
C1446 C1458 1.349 . S
C1447 C1445 1.327 . S
C1447 C1463 1.429 . S
C1447 H1469 0.950 . S
C1448 H1444 0.949 . S
C1448 C1456 1.574 . S
C1448 C1464 1.368 . S
H1449 C1457 0.950 . S
H1450 C1455 0.950 . S
H1451 C1456 0.949 . S
H1452 C1458 0.950 . S
H1453 C1459 0.950 . S
H1454 C1460 0.949 . S
C1455 H1450 0.950 . S
C1455 C1457 1.327 . S
C1455 C1461 1.429 . S
C1456 C1448 1.574 . S
C1456 H1451 0.949 . S
C1456 C1462 1.368 . S
C1457 C1441 1.349 1_556 S
C1457 H1449 0.950 . S
C1457 C1455 1.327 . S
C1458 C1446 1.349 . S
C1458 H1452 0.950 . S
C1458 C1459 1.327 . S
C1459 H1453 0.950 . S
C1459 C1458 1.327 . S
C1459 C1463 1.429 . S
C1460 C1443 1.574 . S
C1460 H1454 0.949 . S
C1460 C1464 1.368 . S
C1461 C1442 1.429 . S
C1461 C1455 1.429 . S
C1461 C1462 1.523 . S
C1462 C1443 1.368 . S
C1462 C1456 1.368 . S
C1462 C1461 1.523 . S
C1463 C1447 1.429 . S
C1463 C1459 1.429 . S
C1463 C1464 1.523 . S
C1464 C1448 1.368 . S
C1464 C1460 1.368 . S
C1464 C1463 1.523 . S
H1465 C1440 0.950 . S
H1466 C1442 0.950 . S
H1467 C1443 0.949 . S
H1468 C1445 0.950 . S
H1469 C1447 0.950 . S
C1470 C1471 1.349 . S
C1470 C1472 1.327 . S
C1470 H1495 0.950 . S
C1471 C1470 1.349 . S
C1471 C1487 1.349 . S
C1472 C1470 1.327 . S
C1472 C1491 1.429 . S
C1472 H1496 0.950 . S
C1473 C1490 1.574 . S
C1473 C1492 1.368 . S
C1473 H1497 0.949 . S
H1474 C1478 0.949 . S
C1475 C1476 1.349 . S
C1475 C1477 1.327 . S
C1475 H1498 0.950 . S
C1476 C1475 1.349 . S
C1476 C1488 1.349 . S
C1477 C1475 1.327 . S
C1477 C1493 1.429 . S
C1477 H1499 0.950 . S
C1478 H1474 0.949 . S
C1478 C1486 1.574 . S
C1478 C1494 1.368 . S
H1479 C1487 0.950 . S
H1480 C1485 0.950 . S
H1481 C1486 0.949 . S
H1482 C1488 0.950 . S
H1483 C1489 0.950 . S
H1484 C1490 0.949 . S
C1485 H1480 0.950 . S
C1485 C1487 1.327 . S
C1485 C1491 1.429 . S
C1486 C1478 1.574 . S
C1486 H1481 0.949 . S
C1486 C1492 1.368 . S
C1487 C1471 1.349 . S
C1487 H1479 0.950 . S
C1487 C1485 1.327 . S
C1488 C1476 1.349 . S
C1488 H1482 0.950 . S
C1488 C1489 1.327 . S
C1489 H1483 0.950 . S
C1489 C1488 1.327 . S
C1489 C1493 1.429 . S
C1490 C1473 1.574 . S
C1490 H1484 0.949 . S
C1490 C1494 1.368 . S
C1491 C1472 1.429 . S
C1491 C1485 1.429 . S
C1491 C1492 1.523 . S
C1492 C1473 1.368 . S
C1492 C1486 1.368 . S
C1492 C1491 1.523 . S
C1493 C1477 1.429 . S
C1493 C1489 1.429 . S
C1493 C1494 1.523 . S
C1494 C1478 1.368 . S
C1494 C1490 1.368 . S
C1494 C1493 1.523 . S
H1495 C1470 0.950 . S
H1496 C1472 0.950 . S
H1497 C1473 0.949 . S
H1498 C1475 0.950 . S
H1499 C1477 0.950 . S
C1500 C1501 1.349 . S
C1500 C1502 1.327 . S
C1500 H1525 0.950 . S
C1501 C1500 1.349 . S
C1501 C1517 1.349 . S
C1502 C1500 1.327 . S
C1502 C1521 1.429 . S
C1502 H1526 0.950 . S
C1503 C1520 1.574 . S
C1503 C1522 1.368 . S
C1503 H1527 0.949 . S
H1504 C1508 0.949 . S
C1505 C1506 1.349 . S
C1505 C1507 1.327 . S
C1505 H1528 0.950 . S
C1506 C1505 1.349 . S
C1506 C1518 1.349 . S
C1507 C1505 1.327 . S
C1507 C1523 1.429 . S
C1507 H1529 0.950 . S
C1508 H1504 0.949 . S
C1508 C1516 1.574 . S
C1508 C1524 1.368 . S
H1509 C1517 0.950 . S
H1510 C1515 0.950 . S
H1511 C1516 0.949 . S
H1512 C1518 0.950 . S
H1513 C1519 0.950 . S
H1514 C1520 0.949 . S
C1515 H1510 0.950 . S
C1515 C1517 1.327 . S
C1515 C1521 1.429 . S
C1516 C1508 1.574 . S
C1516 H1511 0.949 . S
C1516 C1522 1.368 . S
C1517 C1501 1.349 . S
C1517 H1509 0.950 . S
C1517 C1515 1.327 . S
C1518 C1506 1.349 . S
C1518 H1512 0.950 . S
C1518 C1519 1.327 . S
C1519 H1513 0.950 . S
C1519 C1518 1.327 . S
C1519 C1523 1.429 . S
C1520 C1503 1.574 . S
C1520 H1514 0.949 . S
C1520 C1524 1.368 . S
C1521 C1502 1.429 . S
C1521 C1515 1.429 . S
C1521 C1522 1.523 . S
C1522 C1503 1.368 . S
C1522 C1516 1.368 . S
C1522 C1521 1.523 . S
C1523 C1507 1.429 . S
C1523 C1519 1.429 . S
C1523 C1524 1.523 . S
C1524 C1508 1.368 . S
C1524 C1520 1.368 . S
C1524 C1523 1.523 . S
H1525 C1500 0.950 . S
H1526 C1502 0.950 . S
H1527 C1503 0.949 . S
H1528 C1505 0.950 . S
H1529 C1507 0.950 . S
C1530 C1531 1.349 . S
C1530 C1532 1.327 . S
C1530 H1555 0.950 . S
C1531 C1530 1.349 . S
C1531 C1547 1.349 . S
C1532 C1530 1.327 . S
C1532 C1551 1.429 . S
C1532 H1556 0.950 . S
C1533 C1550 1.574 . S
C1533 C1552 1.368 . S
C1533 H1557 0.949 . S
H1534 C1538 0.949 . S
C1535 C1536 1.349 . S
C1535 C1537 1.327 . S
C1535 H1558 0.950 . S
C1536 C1535 1.349 . S
C1536 C1548 1.349 . S
C1537 C1535 1.327 . S
C1537 C1553 1.429 . S
C1537 H1559 0.950 . S
C1538 H1534 0.949 . S
C1538 C1546 1.574 . S
C1538 C1554 1.368 . S
H1539 C1547 0.950 . S
H1540 C1545 0.950 . S
H1541 C1546 0.949 . S
H1542 C1548 0.950 . S
H1543 C1549 0.950 . S
H1544 C1550 0.949 . S
C1545 H1540 0.950 . S
C1545 C1547 1.327 . S
C1545 C1551 1.429 . S
C1546 C1538 1.574 . S
C1546 H1541 0.949 . S
C1546 C1552 1.368 . S
C1547 C1531 1.349 . S
C1547 H1539 0.950 . S
C1547 C1545 1.327 . S
C1548 C1536 1.349 . S
C1548 H1542 0.950 . S
C1548 C1549 1.327 . S
C1549 H1543 0.950 . S
C1549 C1548 1.327 . S
C1549 C1553 1.429 . S
C1550 C1533 1.574 . S
C1550 H1544 0.949 . S
C1550 C1554 1.368 . S
C1551 C1532 1.429 . S
C1551 C1545 1.429 . S
C1551 C1552 1.523 . S
C1552 C1533 1.368 . S
C1552 C1546 1.368 . S
C1552 C1551 1.523 . S
C1553 C1537 1.429 . S
C1553 C1549 1.429 . S
C1553 C1554 1.523 . S
C1554 C1538 1.368 . S
C1554 C1550 1.368 . S
C1554 C1553 1.523 . S
H1555 C1530 0.950 . S
H1556 C1532 0.950 . S
H1557 C1533 0.949 . S
H1558 C1535 0.950 . S
H1559 C1537 0.950 . S
C1560 C1561 1.349 . S
C1560 C1562 1.327 . S
C1560 H1585 0.950 . S
C1561 C1560 1.349 . S
C1561 C1577 1.349 . S
C1562 C1560 1.327 . S
C1562 C1581 1.429 . S
C1562 H1586 0.950 . S
C1563 C1580 1.574 . S
C1563 C1582 1.368 . S
C1563 H1587 0.949 . S
H1564 C1568 0.949 . S
C1565 C1566 1.349 . S
C1565 C1567 1.327 1_556 S
C1565 H1588 0.950 . S
C1566 C1565 1.349 . S
C1566 C1578 1.349 1_556 S
C1567 C1565 1.327 1_554 S
C1567 C1583 1.429 . S
C1567 H1589 0.950 . S
C1568 H1564 0.949 . S
C1568 C1576 1.574 . S
C1568 C1584 1.368 . S
H1569 C1577 0.950 . S
H1570 C1575 0.950 . S
H1571 C1576 0.949 . S
H1572 C1578 0.950 . S
H1573 C1579 0.950 . S
H1574 C1580 0.949 . S
C1575 H1570 0.950 . S
C1575 C1577 1.327 . S
C1575 C1581 1.429 . S
C1576 C1568 1.574 . S
C1576 H1571 0.949 . S
C1576 C1582 1.368 . S
C1577 C1561 1.349 . S
C1577 H1569 0.950 . S
C1577 C1575 1.327 . S
C1578 C1566 1.349 1_554 S
C1578 H1572 0.950 . S
C1578 C1579 1.327 . S
C1579 H1573 0.950 . S
C1579 C1578 1.327 . S
C1579 C1583 1.429 . S
C1580 C1563 1.574 . S
C1580 H1574 0.949 . S
C1580 C1584 1.368 . S
C1581 C1562 1.429 . S
C1581 C1575 1.429 . S
C1581 C1582 1.523 . S
C1582 C1563 1.368 . S
C1582 C1576 1.368 . S
C1582 C1581 1.523 . S
C1583 C1567 1.429 . S
C1583 C1579 1.429 . S
C1583 C1584 1.523 . S
C1584 C1568 1.368 . S
C1584 C1580 1.368 . S
C1584 C1583 1.523 . S
H1585 C1560 0.950 . S
H1586 C1562 0.950 . S
H1587 C1563 0.949 . S
H1588 C1565 0.950 . S
H1589 C1567 0.950 . S
C1590 C1591 1.349 . S
C1590 C1592 1.327 . S
C1590 H1615 0.950 . S
C1591 C1590 1.349 . S
C1591 C1607 1.349 . S
C1592 C1590 1.327 . S
C1592 C1611 1.429 . S
C1592 H1616 0.950 . S
C1593 C1610 1.574 . S
C1593 C1612 1.368 . S
C1593 H1617 0.949 . S
H1594 C1598 0.949 . S
C1595 C1596 1.349 . S
C1595 C1597 1.327 . S
C1595 H1618 0.950 . S
C1596 C1595 1.349 . S
C1596 C1608 1.349 . S
C1597 C1595 1.327 . S
C1597 C1613 1.429 . S
C1597 H1619 0.950 . S
C1598 H1594 0.949 . S
C1598 C1606 1.574 . S
C1598 C1614 1.368 . S
H1599 C1607 0.950 . S
H1600 C1605 0.950 . S
H1601 C1606 0.949 . S
H1602 C1608 0.950 . S
H1603 C1609 0.950 . S
H1604 C1610 0.949 . S
C1605 H1600 0.950 . S
C1605 C1607 1.327 . S
C1605 C1611 1.429 . S
C1606 C1598 1.574 . S
C1606 H1601 0.949 . S
C1606 C1612 1.368 . S
C1607 C1591 1.349 . S
C1607 H1599 0.950 . S
C1607 C1605 1.327 . S
C1608 C1596 1.349 . S
C1608 H1602 0.950 . S
C1608 C1609 1.327 . S
C1609 H1603 0.950 . S
C1609 C1608 1.327 . S
C1609 C1613 1.429 . S
C1610 C1593 1.574 . S
C1610 H1604 0.949 . S
C1610 C1614 1.368 . S
C1611 C1592 1.429 . S
C1611 C1605 1.429 . S
C1611 C1612 1.523 . S
C1612 C1593 1.368 . S
C1612 C1606 1.368 . S
C1612 C1611 1.523 . S
C1613 C1597 1.429 . S
C1613 C1609 1.429 . S
C1613 C1614 1.523 . S
C1614 C1598 1.368 . S
C1614 C1610 1.368 . S
C1614 C1613 1.523 . S
H1615 C1590 0.950 . S
H1616 C1592 0.950 . S
H1617 C1593 0.949 . S
H1618 C1595 0.950 . S
H1619 C1597 0.950 . S
C1620 C1621 1.349 . S
C1620 C1622 1.327 . S
C1620 H1645 0.950 . S
C1621 C1620 1.349 . S
C1621 C1637 1.349 . S
C1622 C1620 1.327 . S
C1622 C1641 1.429 . S
C1622 H1646 0.950 . S
C1623 C1640 1.574 . S
C1623 C1642 1.368 . S
C1623 H1647 0.949 . S
H1624 C1628 0.949 . S
C1625 C1626 1.349 . S
C1625 C1627 1.327 . S
C1625 H1648 0.950 . S
C1626 C1625 1.349 . S
C1626 C1638 1.349 . S
C1627 C1625 1.327 . S
C1627 C1643 1.429 . S
C1627 H1649 0.950 . S
C1628 H1624 0.949 . S
C1628 C1636 1.574 . S
C1628 C1644 1.368 . S
H1629 C1637 0.950 . S
H1630 C1635 0.950 . S
H1631 C1636 0.949 . S
H1632 C1638 0.950 . S
H1633 C1639 0.950 . S
H1634 C1640 0.949 . S
C1635 H1630 0.950 . S
C1635 C1637 1.327 . S
C1635 C1641 1.429 . S
C1636 C1628 1.574 . S
C1636 H1631 0.949 . S
C1636 C1642 1.368 . S
C1637 C1621 1.349 . S
C1637 H1629 0.950 . S
C1637 C1635 1.327 . S
C1638 C1626 1.349 . S
C1638 H1632 0.950 . S
C1638 C1639 1.327 . S
C1639 H1633 0.950 . S
C1639 C1638 1.327 . S
C1639 C1643 1.429 . S
C1640 C1623 1.574 . S
C1640 H1634 0.949 . S
C1640 C1644 1.368 . S
C1641 C1622 1.429 . S
C1641 C1635 1.429 . S
C1641 C1642 1.523 . S
C1642 C1623 1.368 . S
C1642 C1636 1.368 . S
C1642 C1641 1.523 . S
C1643 C1627 1.429 . S
C1643 C1639 1.429 . S
C1643 C1644 1.523 . S
C1644 C1628 1.368 . S
C1644 C1640 1.368 . S
C1644 C1643 1.523 . S
H1645 C1620 0.950 . S
H1646 C1622 0.950 . S
H1647 C1623 0.949 . S
H1648 C1625 0.950 . S
H1649 C1627 0.950 . S
C1650 C1651 1.349 . S
C1650 C1652 1.327 . S
C1650 H1675 0.950 . S
C1651 C1650 1.349 . S
C1651 C1667 1.349 . S
C1652 C1650 1.327 . S
C1652 C1671 1.429 . S
C1652 H1676 0.950 . S
C1653 C1670 1.574 . S
C1653 C1672 1.368 . S
C1653 H1677 0.949 . S
H1654 C1658 0.949 . S
C1655 C1656 1.349 . S
C1655 C1657 1.327 . S
C1655 H1678 0.950 . S
C1656 C1655 1.349 . S
C1656 C1668 1.349 . S
C1657 C1655 1.327 . S
C1657 C1673 1.429 . S
C1657 H1679 0.950 . S
C1658 H1654 0.949 . S
C1658 C1666 1.574 . S
C1658 C1674 1.368 . S
H1659 C1667 0.950 . S
H1660 C1665 0.950 . S
H1661 C1666 0.949 . S
H1662 C1668 0.950 . S
H1663 C1669 0.950 . S
H1664 C1670 0.949 . S
C1665 H1660 0.950 . S
C1665 C1667 1.327 . S
C1665 C1671 1.429 . S
C1666 C1658 1.574 . S
C1666 H1661 0.949 . S
C1666 C1672 1.368 . S
C1667 C1651 1.349 . S
C1667 H1659 0.950 . S
C1667 C1665 1.327 . S
C1668 C1656 1.349 . S
C1668 H1662 0.950 . S
C1668 C1669 1.327 . S
C1669 H1663 0.950 . S
C1669 C1668 1.327 . S
C1669 C1673 1.429 . S
C1670 C1653 1.574 . S
C1670 H1664 0.949 . S
C1670 C1674 1.368 . S
C1671 C1652 1.429 . S
C1671 C1665 1.429 . S
C1671 C1672 1.523 . S
C1672 C1653 1.368 . S
C1672 C1666 1.368 . S
C1672 C1671 1.523 . S
C1673 C1657 1.429 . S
C1673 C1669 1.429 . S
C1673 C1674 1.523 . S
C1674 C1658 1.368 . S
C1674 C1670 1.368 . S
C1674 C1673 1.523 . S
H1675 C1650 0.950 . S
H1676 C1652 0.950 . S
H1677 C1653 0.949 . S
H1678 C1655 0.950 . S
H1679 C1657 0.950 . S
C1680 C1681 1.349 . S
C1680 C1682 1.327 . S
C1680 H1705 0.950 . S
C1681 C1680 1.349 . S
C1681 C1697 1.349 . S
C1682 C1680 1.327 . S
C1682 C1701 1.429 . S
C1682 H1706 0.950 . S
C1683 C1700 1.574 . S
C1683 C1702 1.368 . S
C1683 H1707 0.949 . S
H1684 C1688 0.949 . S
C1685 C1686 1.349 . S
C1685 C1687 1.327 . S
C1685 H1708 0.950 . S
C1686 C1685 1.349 . S
C1686 C1698 1.349 . S
C1687 C1685 1.327 . S
C1687 C1703 1.429 . S
C1687 H1709 0.950 . S
C1688 H1684 0.949 . S
C1688 C1696 1.574 . S
C1688 C1704 1.368 . S
H1689 C1697 0.950 . S
H1690 C1695 0.950 . S
H1691 C1696 0.949 . S
H1692 C1698 0.950 . S
H1693 C1699 0.950 . S
H1694 C1700 0.949 . S
C1695 H1690 0.950 . S
C1695 C1697 1.327 . S
C1695 C1701 1.429 . S
C1696 C1688 1.574 . S
C1696 H1691 0.949 . S
C1696 C1702 1.368 . S
C1697 C1681 1.349 . S
C1697 H1689 0.950 . S
C1697 C1695 1.327 . S
C1698 C1686 1.349 . S
C1698 H1692 0.950 . S
C1698 C1699 1.327 . S
C1699 H1693 0.950 . S
C1699 C1698 1.327 . S
C1699 C1703 1.429 . S
C1700 C1683 1.574 . S
C1700 H1694 0.949 . S
C1700 C1704 1.368 . S
C1701 C1682 1.429 . S
C1701 C1695 1.429 . S
C1701 C1702 1.523 . S
C1702 C1683 1.368 . S
C1702 C1696 1.368 . S
C1702 C1701 1.523 . S
C1703 C1687 1.429 . S
C1703 C1699 1.429 . S
C1703 C1704 1.523 . S
C1704 C1688 1.368 . S
C1704 C1700 1.368 . S
C1704 C1703 1.523 . S
H1705 C1680 0.950 . S
H1706 C1682 0.950 . S
H1707 C1683 0.949 . S
H1708 C1685 0.950 . S
H1709 C1687 0.950 . S
C1710 C1711 1.349 . S
C1710 C1712 1.327 . S
C1710 H1735 0.950 . S
C1711 C1710 1.349 . S
C1711 C1727 1.349 . S
C1712 C1710 1.327 . S
C1712 C1731 1.429 . S
C1712 H1736 0.950 . S
C1713 C1730 1.574 . S
C1713 C1732 1.368 . S
C1713 H1737 0.949 . S
H1714 C1718 0.949 . S
C1715 C1716 1.349 . S
C1715 C1717 1.327 . S
C1715 H1738 0.950 . S
C1716 C1715 1.349 . S
C1716 C1728 1.349 1_545 S
C1717 C1715 1.327 . S
C1717 C1733 1.429 1_545 S
C1717 H1739 0.950 . S
C1718 H1714 0.949 . S
C1718 C1726 1.574 . S
C1718 C1734 1.368 . S
H1719 C1727 0.950 . S
H1720 C1725 0.950 . S
H1721 C1726 0.949 . S
H1722 C1728 0.950 . S
H1723 C1729 0.950 . S
H1724 C1730 0.949 1_545 S
C1725 H1720 0.950 . S
C1725 C1727 1.327 . S
C1725 C1731 1.429 . S
C1726 C1718 1.574 . S
C1726 H1721 0.949 . S
C1726 C1732 1.368 . S
C1727 C1711 1.349 . S
C1727 H1719 0.950 . S
C1727 C1725 1.327 . S
C1728 C1716 1.349 1_565 S
C1728 H1722 0.950 . S
C1728 C1729 1.327 . S
C1729 H1723 0.950 . S
C1729 C1728 1.327 . S
C1729 C1733 1.429 . S
C1730 C1713 1.574 . S
C1730 H1724 0.949 1_565 S
C1730 C1734 1.368 . S
C1731 C1712 1.429 . S
C1731 C1725 1.429 . S
C1731 C1732 1.523 . S
C1732 C1713 1.368 . S
C1732 C1726 1.368 . S
C1732 C1731 1.523 . S
C1733 C1717 1.429 1_565 S
C1733 C1729 1.429 . S
C1733 C1734 1.523 . S
C1734 C1718 1.368 . S
C1734 C1730 1.368 . S
C1734 C1733 1.523 . S
H1735 C1710 0.950 . S
H1736 C1712 0.950 . S
H1737 C1713 0.949 . S
H1738 C1715 0.950 . S
H1739 C1717 0.950 . S
C1740 C1741 1.349 . S
C1740 C1742 1.327 . S
C1740 H1765 0.950 . S
C1741 C1740 1.349 . S
C1741 C1757 1.349 . S
C1742 C1740 1.327 . S
C1742 C1761 1.429 . S
C1742 H1766 0.950 . S
C1743 C1760 1.574 . S
C1743 C1762 1.368 . S
C1743 H1767 0.949 . S
H1744 C1748 0.949 . S
C1745 C1746 1.349 . S
C1745 C1747 1.327 . S
C1745 H1768 0.950 . S
C1746 C1745 1.349 . S
C1746 C1758 1.349 . S
C1747 C1745 1.327 . S
C1747 C1763 1.429 . S
C1747 H1769 0.950 . S
C1748 H1744 0.949 . S
C1748 C1756 1.574 . S
C1748 C1764 1.368 . S
H1749 C1757 0.950 . S
H1750 C1755 0.950 . S
H1751 C1756 0.949 . S
H1752 C1758 0.950 . S
H1753 C1759 0.950 . S
H1754 C1760 0.949 . S
C1755 H1750 0.950 . S
C1755 C1757 1.327 . S
C1755 C1761 1.429 . S
C1756 C1748 1.574 . S
C1756 H1751 0.949 . S
C1756 C1762 1.368 . S
C1757 C1741 1.349 . S
C1757 H1749 0.950 . S
C1757 C1755 1.327 . S
C1758 C1746 1.349 . S
C1758 H1752 0.950 . S
C1758 C1759 1.327 . S
C1759 H1753 0.950 . S
C1759 C1758 1.327 . S
C1759 C1763 1.429 . S
C1760 C1743 1.574 . S
C1760 H1754 0.949 . S
C1760 C1764 1.368 . S
C1761 C1742 1.429 . S
C1761 C1755 1.429 . S
C1761 C1762 1.523 . S
C1762 C1743 1.368 . S
C1762 C1756 1.368 . S
C1762 C1761 1.523 . S
C1763 C1747 1.429 . S
C1763 C1759 1.429 . S
C1763 C1764 1.523 1_554 S
C1764 C1748 1.368 . S
C1764 C1760 1.368 . S
C1764 C1763 1.523 1_556 S
H1765 C1740 0.950 . S
H1766 C1742 0.950 . S
H1767 C1743 0.949 . S
H1768 C1745 0.950 . S
H1769 C1747 0.950 . S
C1770 C1771 1.349 1_545 S
C1770 C1772 1.327 . S
C1770 H1795 0.950 . S
C1771 C1770 1.349 1_565 S
C1771 C1787 1.349 . S
C1772 C1770 1.327 . S
C1772 C1791 1.429 . S
C1772 H1796 0.950 . S
C1773 C1790 1.574 . S
C1773 C1792 1.368 . S
C1773 H1797 0.949 1_545 S
H1774 C1778 0.949 . S
C1775 C1776 1.349 . S
C1775 C1777 1.327 . S
C1775 H1798 0.950 . S
C1776 C1775 1.349 . S
C1776 C1788 1.349 . S
C1777 C1775 1.327 . S
C1777 C1793 1.429 . S
C1777 H1799 0.950 . S
C1778 H1774 0.949 . S
C1778 C1786 1.574 . S
C1778 C1794 1.368 . S
H1779 C1787 0.950 . S
H1780 C1785 0.950 . S
H1781 C1786 0.949 . S
H1782 C1788 0.950 . S
H1783 C1789 0.950 . S
H1784 C1790 0.949 . S
C1785 H1780 0.950 . S
C1785 C1787 1.327 . S
C1785 C1791 1.429 1_565 S
C1786 C1778 1.574 . S
C1786 H1781 0.949 . S
C1786 C1792 1.368 . S
C1787 C1771 1.349 . S
C1787 H1779 0.950 . S
C1787 C1785 1.327 . S
C1788 C1776 1.349 . S
C1788 H1782 0.950 . S
C1788 C1789 1.327 . S
C1789 H1783 0.950 . S
C1789 C1788 1.327 . S
C1789 C1793 1.429 . S
C1790 C1773 1.574 . S
C1790 H1784 0.949 . S
C1790 C1794 1.368 . S
C1791 C1772 1.429 . S
C1791 C1785 1.429 1_545 S
C1791 C1792 1.523 . S
C1792 C1773 1.368 . S
C1792 C1786 1.368 . S
C1792 C1791 1.523 . S
C1793 C1777 1.429 . S
C1793 C1789 1.429 . S
C1793 C1794 1.523 . S
C1794 C1778 1.368 . S
C1794 C1790 1.368 . S
C1794 C1793 1.523 . S
H1795 C1770 0.950 . S
H1796 C1772 0.950 . S
H1797 C1773 0.949 1_565 S
H1798 C1775 0.950 . S
H1799 C1777 0.950 . S
C1800 C1801 1.349 . S
C1800 C1802 1.327 . S
C1800 H1825 0.950 . S
C1801 C1800 1.349 . S
C1801 C1817 1.349 . S
C1802 C1800 1.327 . S
C1802 C1821 1.429 . S
C1802 H1826 0.950 . S
C1803 C1820 1.574 . S
C1803 C1822 1.368 . S
C1803 H1827 0.949 . S
H1804 C1808 0.949 . S
C1805 C1806 1.349 . S
C1805 C1807 1.327 . S
C1805 H1828 0.950 . S
C1806 C1805 1.349 . S
C1806 C1818 1.349 . S
C1807 C1805 1.327 . S
C1807 C1823 1.429 . S
C1807 H1829 0.950 . S
C1808 H1804 0.949 . S
C1808 C1816 1.574 . S
C1808 C1824 1.368 . S
H1809 C1817 0.950 . S
H1810 C1815 0.950 . S
H1811 C1816 0.949 . S
H1812 C1818 0.950 . S
H1813 C1819 0.950 . S
H1814 C1820 0.949 . S
C1815 H1810 0.950 . S
C1815 C1817 1.327 . S
C1815 C1821 1.429 . S
C1816 C1808 1.574 . S
C1816 H1811 0.949 . S
C1816 C1822 1.368 . S
C1817 C1801 1.349 . S
C1817 H1809 0.950 . S
C1817 C1815 1.327 . S
C1818 C1806 1.349 . S
C1818 H1812 0.950 . S
C1818 C1819 1.327 . S
C1819 H1813 0.950 . S
C1819 C1818 1.327 . S
C1819 C1823 1.429 . S
C1820 C1803 1.574 . S
C1820 H1814 0.949 . S
C1820 C1824 1.368 . S
C1821 C1802 1.429 . S
C1821 C1815 1.429 . S
C1821 C1822 1.523 . S
C1822 C1803 1.368 . S
C1822 C1816 1.368 . S
C1822 C1821 1.523 . S
C1823 C1807 1.429 . S
C1823 C1819 1.429 . S
C1823 C1824 1.523 . S
C1824 C1808 1.368 . S
C1824 C1820 1.368 . S
C1824 C1823 1.523 . S
H1825 C1800 0.950 . S
H1826 C1802 0.950 . S
H1827 C1803 0.949 . S
H1828 C1805 0.950 . S
H1829 C1807 0.950 . S
C1830 C1831 1.349 . S
C1830 C1832 1.327 . S
C1830 H1855 0.950 . S
C1831 C1830 1.349 . S
C1831 C1847 1.349 . S
C1832 C1830 1.327 . S
C1832 C1851 1.429 . S
C1832 H1856 0.950 . S
C1833 C1850 1.574 . S
C1833 C1852 1.368 . S
C1833 H1857 0.949 . S
H1834 C1838 0.949 . S
C1835 C1836 1.349 . S
C1835 C1837 1.327 . S
C1835 H1858 0.950 . S
C1836 C1835 1.349 . S
C1836 C1848 1.349 1_565 S
C1837 C1835 1.327 . S
C1837 C1853 1.429 1_565 S
C1837 H1859 0.950 . S
C1838 H1834 0.949 . S
C1838 C1846 1.574 . S
C1838 C1854 1.368 . S
H1839 C1847 0.950 . S
H1840 C1845 0.950 . S
H1841 C1846 0.949 . S
H1842 C1848 0.950 . S
H1843 C1849 0.950 . S
H1844 C1850 0.949 1_565 S
C1845 H1840 0.950 . S
C1845 C1847 1.327 . S
C1845 C1851 1.429 . S
C1846 C1838 1.574 . S
C1846 H1841 0.949 . S
C1846 C1852 1.368 . S
C1847 C1831 1.349 . S
C1847 H1839 0.950 . S
C1847 C1845 1.327 . S
C1848 C1836 1.349 1_545 S
C1848 H1842 0.950 . S
C1848 C1849 1.327 . S
C1849 H1843 0.950 . S
C1849 C1848 1.327 . S
C1849 C1853 1.429 . S
C1850 C1833 1.574 . S
C1850 H1844 0.949 1_545 S
C1850 C1854 1.368 . S
C1851 C1832 1.429 . S
C1851 C1845 1.429 . S
C1851 C1852 1.523 . S
C1852 C1833 1.368 . S
C1852 C1846 1.368 . S
C1852 C1851 1.523 . S
C1853 C1837 1.429 1_545 S
C1853 C1849 1.429 . S
C1853 C1854 1.523 . S
C1854 C1838 1.368 . S
C1854 C1850 1.368 . S
C1854 C1853 1.523 . S
H1855 C1830 0.950 . S
H1856 C1832 0.950 . S
H1857 C1833 0.949 . S
H1858 C1835 0.950 . S
H1859 C1837 0.950 . S
C1860 C1861 1.349 . S
C1860 C1862 1.327 . S
C1860 H1885 0.950 . S
C1861 C1860 1.349 . S
C1861 C1877 1.349 . S
C1862 C1860 1.327 . S
C1862 C1881 1.429 . S
C1862 H1886 0.950 . S
C1863 C1880 1.574 . S
C1863 C1882 1.368 . S
C1863 H1887 0.949 . S
H1864 C1868 0.949 . S
C1865 C1866 1.349 . S
C1865 C1867 1.327 . S
C1865 H1888 0.950 . S
C1866 C1865 1.349 . S
C1866 C1878 1.349 . S
C1867 C1865 1.327 . S
C1867 C1883 1.429 . S
C1867 H1889 0.950 . S
C1868 H1864 0.949 . S
C1868 C1876 1.574 . S
C1868 C1884 1.368 . S
H1869 C1877 0.950 . S
H1870 C1875 0.950 . S
H1871 C1876 0.949 . S
H1872 C1878 0.950 . S
H1873 C1879 0.950 1_554 S
H1874 C1880 0.949 . S
C1875 H1870 0.950 . S
C1875 C1877 1.327 . S
C1875 C1881 1.429 . S
C1876 C1868 1.574 . S
C1876 H1871 0.949 . S
C1876 C1882 1.368 . S
C1877 C1861 1.349 . S
C1877 H1869 0.950 . S
C1877 C1875 1.327 . S
C1878 C1866 1.349 . S
C1878 H1872 0.950 . S
C1878 C1879 1.327 . S
C1879 H1873 0.950 1_556 S
C1879 C1878 1.327 . S
C1879 C1883 1.429 . S
C1880 C1863 1.574 . S
C1880 H1874 0.949 . S
C1880 C1884 1.368 . S
C1881 C1862 1.429 . S
C1881 C1875 1.429 . S
C1881 C1882 1.523 . S
C1882 C1863 1.368 . S
C1882 C1876 1.368 . S
C1882 C1881 1.523 . S
C1883 C1867 1.429 . S
C1883 C1879 1.429 . S
C1883 C1884 1.523 1_556 S
C1884 C1868 1.368 . S
C1884 C1880 1.368 . S
C1884 C1883 1.523 1_554 S
H1885 C1860 0.950 . S
H1886 C1862 0.950 . S
H1887 C1863 0.949 . S
H1888 C1865 0.950 . S
H1889 C1867 0.950 . S
C1890 C1891 1.349 . S
C1890 C1892 1.327 . S
C1890 H1915 0.950 . S
C1891 C1890 1.349 . S
C1891 C1907 1.349 . S
C1892 C1890 1.327 . S
C1892 C1911 1.429 . S
C1892 H1916 0.950 . S
C1893 C1910 1.574 . S
C1893 C1912 1.368 . S
C1893 H1917 0.949 . S
H1894 C1898 0.949 1_545 S
C1895 C1896 1.345 1_565 S
C1895 C1897 1.330 . S
C1895 H1918 0.951 . S
C1896 C1895 1.345 1_545 S
C1896 C1908 1.349 . S
C1897 C1895 1.330 . S
C1897 C1913 1.429 . S
C1897 H1919 0.950 . S
C1898 H1894 0.949 1_565 S
C1898 C1906 1.574 . S
C1898 C1914 1.368 . S
H1899 C1907 0.950 . S
H1900 C1905 0.950 . S
H1901 C1906 0.949 . S
H1902 C1908 0.950 . S
H1903 C1909 0.950 . S
H1904 C1910 0.949 . S
C1905 H1900 0.950 . S
C1905 C1907 1.327 . S
C1905 C1911 1.429 . S
C1906 C1898 1.574 . S
C1906 H1901 0.949 . S
C1906 C1912 1.368 . S
C1907 C1891 1.349 . S
C1907 H1899 0.950 . S
C1907 C1905 1.327 . S
C1908 C1896 1.349 . S
C1908 H1902 0.950 . S
C1908 C1909 1.327 . S
C1909 H1903 0.950 . S
C1909 C1908 1.327 . S
C1909 C1913 1.429 1_545 S
C1910 C1893 1.574 . S
C1910 H1904 0.949 . S
C1910 C1914 1.368 . S
C1911 C1892 1.429 . S
C1911 C1905 1.429 . S
C1911 C1912 1.523 . S
C1912 C1893 1.368 . S
C1912 C1906 1.368 . S
C1912 C1911 1.523 . S
C1913 C1897 1.429 . S
C1913 C1909 1.429 1_565 S
C1913 C1914 1.523 . S
C1914 C1898 1.368 . S
C1914 C1910 1.368 . S
C1914 C1913 1.523 . S
H1915 C1890 0.950 . S
H1916 C1892 0.950 . S
H1917 C1893 0.949 . S
H1918 C1895 0.951 . S
H1919 C1897 0.950 . S
C481 C10 0.649 . S
C486 C301 0.725 . S
C511 C40 0.316 . S
C516 C340 0.304 . S
C541 C61 0.725 . S
C546 C250 0.649 . S
C571 C280 0.316 . S
C576 C100 0.304 . S
C601 C121 0.649 . S
C606 C430 0.725 . S
C631 C451 0.304 . S
C636 C151 0.316 . S
C661 C361 0.649 . S
C666 C190 0.725 . S
C691 C211 0.304 . S
C696 C391 0.316 . S
C721 C16 2.549 . S
C726 C147 2.549 . S
C751 C46 2.229 . S
C756 C417 2.229 . S
C781 N74 1.712 . S
C786 N186 1.712 . S
C811 C106 2.691 . S
C816 C477 2.691 . S
C841 C177 2.229 . S
C846 C286 2.229 . S
C871 C346 2.691 . S
C876 C237 2.691 . S
C901 C387 2.548 . S
C906 C256 2.548 . S
C931 N314 1.712 . S
C936 N426 1.712 . S
C961 C27 1.905 . S
C966 C220 1.897 . S
C991 C57 1.742 . S
C996 C370 1.708 . S
C1021 N66 1.220 . S
C1026 C160 1.231 . S
C1051 C117 1.709 . S
C1056 C421 1.679 . S
C1081 C91 1.897 . S
C1086 C136 1.905 . S
C1111 C166 1.742 . S
C1116 C241 1.708 . S
C1141 N194 1.220 . S
C1146 C31 1.231 . S
C1171 C310 1.679 . S
C1176 C226 1.709 . S
C1201 C267 1.905 . S
C1206 C460 1.897 1_565 S
C1231 C130 1.708 . S
C1236 C297 1.742 . S
C1261 C400 1.231 . S
C1266 N306 1.221 . S
C1291 C181 1.679 . S
C1296 C357 1.709 . S
C1321 C376 1.905 . S
C1326 C331 1.897 1_545 S
C1351 C406 1.742 . S
C1356 C1 1.708 . S
C1381 C271 1.231 . S
C1386 N434 1.221 . S
C1411 C466 1.709 . S
C1416 C70 1.679 . S
C1441 N6 1.151 . S
C1446 N284 1.213 . S
C1471 C316 1.480 . S
C1476 N36 1.373 . S
C1501 C87 1.461 . S
C1506 N344 1.459 . S
C1531 N254 1.191 . S
C1536 N96 1.133 . S
C1561 N396 1.213 . S
C1566 N134 1.151 . S
C1591 C447 1.479 . S
C1596 N164 1.373 . S
C1621 N456 1.459 . S
C1626 C196 1.461 . S
C1651 N366 1.191 . S
C1656 N224 1.132 . S
C1681 N44 1.213 . S
C1686 N246 1.150 . S
C1711 C76 1.479 . S
C1716 N276 1.372 . S
C1741 N104 1.458 . S
C1746 C327 1.461 . S
C1771 N336 1.132 . S
C1776 N14 1.191 . S
C1801 N156 1.213 . S
C1806 N374 1.151 . S
C1831 C207 1.479 . S
C1836 N404 1.373 . S
C1861 N216 1.459 . S
C1866 C436 1.461 . S
C1891 N126 1.191 . S
C1896 N464 1.132 . S
