# Generated by pormake.
# Topology umv, (4)-cn, num edge types: 1
# Building blocks:
#     Node 0, Type 0, BuildingBlock: TATPOV_clean_sbu_0, # of connection points: 4
#     Node 1, Type 0, BuildingBlock: TATPOV_clean_sbu_0, # of connection points: 4
#     Node 2, Type 0, BuildingBlock: TATPOV_clean_sbu_0, # of connection points: 4
#     Node 3, Type 0, BuildingBlock: TATPOV_clean_sbu_0, # of connection points: 4
#     Node 4, Type 0, BuildingBlock: TATPOV_clean_sbu_0, # of connection points: 4
#     Node 5, Type 0, BuildingBlock: TATPOV_clean_sbu_0, # of connection points: 4
#     Node 6, Type 0, BuildingBlock: TATPOV_clean_sbu_0, # of connection points: 4
#     Node 7, Type 0, BuildingBlock: TATPOV_clean_sbu_0, # of connection points: 4
#     Node 8, Type 0, BuildingBlock: TATPOV_clean_sbu_0, # of connection points: 4
#     Node 9, Type 0, BuildingBlock: TATPOV_clean_sbu_0, # of connection points: 4
#     Node 10, Type 0, BuildingBlock: TATPOV_clean_sbu_0, # of connection points: 4
#     Node 11, Type 0, BuildingBlock: TATPOV_clean_sbu_0, # of connection points: 4
#     Node 12, Type 0, BuildingBlock: TATPOV_clean_sbu_0, # of connection points: 4
#     Node 13, Type 0, BuildingBlock: TATPOV_clean_sbu_0, # of connection points: 4
#     Node 14, Type 0, BuildingBlock: TATPOV_clean_sbu_0, # of connection points: 4
#     Node 15, Type 0, BuildingBlock: TATPOV_clean_sbu_0, # of connection points: 4
#     Node 16, Type 0, BuildingBlock: TATPOV_clean_sbu_0, # of connection points: 4
#     Node 17, Type 0, BuildingBlock: TATPOV_clean_sbu_0, # of connection points: 4
#     Node 18, Type 0, BuildingBlock: TATPOV_clean_sbu_0, # of connection points: 4
#     Node 19, Type 0, BuildingBlock: TATPOV_clean_sbu_0, # of connection points: 4
#     Node 20, Type 0, BuildingBlock: TATPOV_clean_sbu_0, # of connection points: 4
#     Node 21, Type 0, BuildingBlock: TATPOV_clean_sbu_0, # of connection points: 4
#     Node 22, Type 0, BuildingBlock: TATPOV_clean_sbu_0, # of connection points: 4
#     Node 23, Type 0, BuildingBlock: TATPOV_clean_sbu_0, # of connection points: 4
#     Node 24, Type 0, BuildingBlock: TATPOV_clean_sbu_0, # of connection points: 4
#     Node 25, Type 0, BuildingBlock: TATPOV_clean_sbu_0, # of connection points: 4
#     Node 26, Type 0, BuildingBlock: TATPOV_clean_sbu_0, # of connection points: 4
#     Node 27, Type 0, BuildingBlock: TATPOV_clean_sbu_0, # of connection points: 4
#     Node 28, Type 0, BuildingBlock: TATPOV_clean_sbu_0, # of connection points: 4
#     Node 29, Type 0, BuildingBlock: TATPOV_clean_sbu_0, # of connection points: 4
#     Node 30, Type 0, BuildingBlock: TATPOV_clean_sbu_0, # of connection points: 4
#     Node 31, Type 0, BuildingBlock: TATPOV_clean_sbu_0, # of connection points: 4
#     Edge 32, Type (0, 0), BuildingBlock: OJICUG_clean_linker_0, # of connection points: 2
#     Edge 33, Type (0, 0), BuildingBlock: OJICUG_clean_linker_0, # of connection points: 2
#     Edge 34, Type (0, 0), BuildingBlock: OJICUG_clean_linker_0, # of connection points: 2
#     Edge 35, Type (0, 0), BuildingBlock: OJICUG_clean_linker_0, # of connection points: 2
#     Edge 36, Type (0, 0), BuildingBlock: OJICUG_clean_linker_0, # of connection points: 2
#     Edge 37, Type (0, 0), BuildingBlock: OJICUG_clean_linker_0, # of connection points: 2
#     Edge 38, Type (0, 0), BuildingBlock: OJICUG_clean_linker_0, # of connection points: 2
#     Edge 39, Type (0, 0), BuildingBlock: OJICUG_clean_linker_0, # of connection points: 2
#     Edge 40, Type (0, 0), BuildingBlock: OJICUG_clean_linker_0, # of connection points: 2
#     Edge 41, Type (0, 0), BuildingBlock: OJICUG_clean_linker_0, # of connection points: 2
#     Edge 42, Type (0, 0), BuildingBlock: OJICUG_clean_linker_0, # of connection points: 2
#     Edge 43, Type (0, 0), BuildingBlock: OJICUG_clean_linker_0, # of connection points: 2
#     Edge 44, Type (0, 0), BuildingBlock: OJICUG_clean_linker_0, # of connection points: 2
#     Edge 45, Type (0, 0), BuildingBlock: OJICUG_clean_linker_0, # of connection points: 2
#     Edge 46, Type (0, 0), BuildingBlock: OJICUG_clean_linker_0, # of connection points: 2
#     Edge 47, Type (0, 0), BuildingBlock: OJICUG_clean_linker_0, # of connection points: 2
#     Edge 48, Type (0, 0), BuildingBlock: OJICUG_clean_linker_0, # of connection points: 2
#     Edge 49, Type (0, 0), BuildingBlock: OJICUG_clean_linker_0, # of connection points: 2
#     Edge 50, Type (0, 0), BuildingBlock: OJICUG_clean_linker_0, # of connection points: 2
#     Edge 51, Type (0, 0), BuildingBlock: OJICUG_clean_linker_0, # of connection points: 2
#     Edge 52, Type (0, 0), BuildingBlock: OJICUG_clean_linker_0, # of connection points: 2
#     Edge 53, Type (0, 0), BuildingBlock: OJICUG_clean_linker_0, # of connection points: 2
#     Edge 54, Type (0, 0), BuildingBlock: OJICUG_clean_linker_0, # of connection points: 2
#     Edge 55, Type (0, 0), BuildingBlock: OJICUG_clean_linker_0, # of connection points: 2
#     Edge 56, Type (0, 0), BuildingBlock: OJICUG_clean_linker_0, # of connection points: 2
#     Edge 57, Type (0, 0), BuildingBlock: OJICUG_clean_linker_0, # of connection points: 2
#     Edge 58, Type (0, 0), BuildingBlock: OJICUG_clean_linker_0, # of connection points: 2
#     Edge 59, Type (0, 0), BuildingBlock: OJICUG_clean_linker_0, # of connection points: 2
#     Edge 60, Type (0, 0), BuildingBlock: OJICUG_clean_linker_0, # of connection points: 2
#     Edge 61, Type (0, 0), BuildingBlock: OJICUG_clean_linker_0, # of connection points: 2
#     Edge 62, Type (0, 0), BuildingBlock: OJICUG_clean_linker_0, # of connection points: 2
#     Edge 63, Type (0, 0), BuildingBlock: OJICUG_clean_linker_0, # of connection points: 2
#     Edge 64, Type (0, 0), BuildingBlock: OJICUG_clean_linker_0, # of connection points: 2
#     Edge 65, Type (0, 0), BuildingBlock: OJICUG_clean_linker_0, # of connection points: 2
#     Edge 66, Type (0, 0), BuildingBlock: OJICUG_clean_linker_0, # of connection points: 2
#     Edge 67, Type (0, 0), BuildingBlock: OJICUG_clean_linker_0, # of connection points: 2
#     Edge 68, Type (0, 0), BuildingBlock: OJICUG_clean_linker_0, # of connection points: 2
#     Edge 69, Type (0, 0), BuildingBlock: OJICUG_clean_linker_0, # of connection points: 2
#     Edge 70, Type (0, 0), BuildingBlock: OJICUG_clean_linker_0, # of connection points: 2
#     Edge 71, Type (0, 0), BuildingBlock: OJICUG_clean_linker_0, # of connection points: 2
#     Edge 72, Type (0, 0), BuildingBlock: OJICUG_clean_linker_0, # of connection points: 2
#     Edge 73, Type (0, 0), BuildingBlock: OJICUG_clean_linker_0, # of connection points: 2
#     Edge 74, Type (0, 0), BuildingBlock: OJICUG_clean_linker_0, # of connection points: 2
#     Edge 75, Type (0, 0), BuildingBlock: OJICUG_clean_linker_0, # of connection points: 2
#     Edge 76, Type (0, 0), BuildingBlock: OJICUG_clean_linker_0, # of connection points: 2
#     Edge 77, Type (0, 0), BuildingBlock: OJICUG_clean_linker_0, # of connection points: 2
#     Edge 78, Type (0, 0), BuildingBlock: OJICUG_clean_linker_0, # of connection points: 2
#     Edge 79, Type (0, 0), BuildingBlock: OJICUG_clean_linker_0, # of connection points: 2
#     Edge 80, Type (0, 0), BuildingBlock: OJICUG_clean_linker_0, # of connection points: 2
#     Edge 81, Type (0, 0), BuildingBlock: OJICUG_clean_linker_0, # of connection points: 2
#     Edge 82, Type (0, 0), BuildingBlock: OJICUG_clean_linker_0, # of connection points: 2
#     Edge 83, Type (0, 0), BuildingBlock: OJICUG_clean_linker_0, # of connection points: 2
#     Edge 84, Type (0, 0), BuildingBlock: OJICUG_clean_linker_0, # of connection points: 2
#     Edge 85, Type (0, 0), BuildingBlock: OJICUG_clean_linker_0, # of connection points: 2
#     Edge 86, Type (0, 0), BuildingBlock: OJICUG_clean_linker_0, # of connection points: 2
#     Edge 87, Type (0, 0), BuildingBlock: OJICUG_clean_linker_0, # of connection points: 2
#     Edge 88, Type (0, 0), BuildingBlock: OJICUG_clean_linker_0, # of connection points: 2
#     Edge 89, Type (0, 0), BuildingBlock: OJICUG_clean_linker_0, # of connection points: 2
#     Edge 90, Type (0, 0), BuildingBlock: OJICUG_clean_linker_0, # of connection points: 2
#     Edge 91, Type (0, 0), BuildingBlock: OJICUG_clean_linker_0, # of connection points: 2
#     Edge 92, Type (0, 0), BuildingBlock: OJICUG_clean_linker_0, # of connection points: 2
#     Edge 93, Type (0, 0), BuildingBlock: OJICUG_clean_linker_0, # of connection points: 2
#     Edge 94, Type (0, 0), BuildingBlock: OJICUG_clean_linker_0, # of connection points: 2
#     Edge 95, Type (0, 0), BuildingBlock: OJICUG_clean_linker_0, # of connection points: 2
# Relax obj value: 0.132
# Max RMSD: 0.091
# Mean RMSD: 0.091
data_MOF--net-umv--node1-TATPOV_clean_sbu_0--edge1-OJICUG_clean_linker_0
_symmetry_space_group_name_H-M    P1
_symmetry_Int_Tables_number       1
_symmetry_cell_setting            triclinic
loop_
_symmetry_equiv_pos_as_xyz
'x, y, z'
_cell_length_a     61.226922
_cell_length_b     19.209545
_cell_length_c     58.031356
_cell_angle_alpha  90.135154
_cell_angle_beta   89.754787
_cell_angle_gamma 90.046731
loop_
_atom_site_label
_atom_site_type_symbol
_atom_site_fract_x
_atom_site_fract_y
_atom_site_fract_z
_atom_type_partial_charge
Zn0 Zn 0.06181 0.12195 0.39116 0.0
Zn1 Zn 0.05026 0.10932 0.34778 0.0
O2 O 0.04472 0.00931 0.36029 0.0
O3 O 0.05704 0.02155 0.39579 0.0
O4 O 0.03848 0.11957 0.31502 0.0
O5 O 0.0375 0.1835 0.40048 0.0
O6 O 0.03081 0.18291 0.36341 0.0
C7 C 0.04867 -0.01597 0.38024 0.0
C8 C 0.09689 0.15479 0.36 0.0
O9 O 0.08343 0.13271 0.34492 0.0
O10 O 0.09102 0.15958 0.3809 0.0
C11 C 0.03994 0.18143 0.30712 0.0
O12 O 0.05012 0.22854 0.31955 0.0
C13 C 0.02641 0.20477 0.38363 0.0
Zn14 Zn 0.2249 0.12551 0.38731 0.0
Zn15 Zn 0.23589 0.1115 0.34429 0.0
O16 O 0.25568 0.19209 0.35668 0.0
O17 O 0.24978 0.18645 0.39403 0.0
O18 O 0.24761 0.08827 0.31199 0.0
O19 O 0.22826 0.02745 0.39589 0.0
O20 O 0.24096 0.01863 0.36048 0.0
C21 C 0.26021 0.21165 0.37721 0.0
C22 C 0.18956 0.15834 0.35688 0.0
O23 O 0.20263 0.1358 0.34132 0.0
O24 O 0.19592 0.16328 0.37755 0.0
C25 C 0.24401 0.02841 0.30317 0.0
O26 O 0.23099 -0.01488 0.31408 0.0
C27 C 0.23709 -0.00812 0.38012 0.0
Zn28 Zn 0.05649 0.0587 0.88497 0.0
Zn29 Zn 0.046 0.0694 0.92895 0.0
O30 O 0.04062 0.1705 0.91743 0.0
O31 O 0.05148 0.15936 0.88125 0.0
O32 O 0.03506 0.05712 0.96208 0.0
O33 O 0.03213 -0.00333 0.87624 0.0
O34 O 0.02612 -0.00322 0.9135 0.0
C35 C 0.04398 0.19657 0.89743 0.0
C36 C 0.09237 0.02542 0.91475 0.0
O37 O 0.07915 0.04587 0.93042 0.0
O38 O 0.08608 0.02182 0.89401 0.0
C39 C 0.03674 -0.00515 0.96954 0.0
O40 O 0.04659 0.9485 0.95645 0.0
C41 C 0.02135 -0.02488 0.89339 0.0
Zn42 Zn 0.22212 0.06455 0.88879 0.0
Zn43 Zn 0.23049 0.07991 0.93286 0.0
O44 O 0.2517 0.00068 0.92228 0.0
O45 O 0.2477 0.00406 0.88463 0.0
O46 O 0.23893 0.10896 0.96564 0.0
O47 O 0.22569 0.16273 0.88013 0.0
O48 O 0.23494 0.17272 0.91657 0.0
C49 C 0.25731 -0.01988 0.9021 0.0
C50 C 0.18535 0.02912 0.91773 0.0
O51 O 0.19758 0.05122 0.93399 0.0
O52 O 0.19265 0.02623 0.89729 0.0
C53 C 0.25595 0.1464 0.96847 0.0
O54 O 0.2686 0.15888 0.95061 0.0
C55 C 0.23251 0.19927 0.8967 0.0
Zn56 Zn 0.97822 0.87177 0.63668 0.0
Zn57 Zn 0.98918 0.86036 0.67945 0.0
O58 O 1.009 0.93987 0.66612 0.0
O59 O 1.00328 0.93097 0.62886 0.0
O60 O 1.00085 0.83877 0.71177 0.0
O61 O 0.9807 0.77292 0.62865 0.0
O62 O 0.99339 0.76553 0.66395 0.0
C63 C 1.01356 0.958 0.64542 0.0
C64 C 0.94313 0.90881 0.6673 0.0
O65 O 0.95613 0.8865 0.68281 0.0
O66 O 0.94947 0.91214 0.64653 0.0
C67 C 0.99638 0.78013 0.72099 0.0
O68 O 0.98275 0.73809 0.71042 0.0
C69 C 0.98913 0.73759 0.64459 0.0
Zn70 Zn 0.81486 0.87233 0.63588 0.0
Zn71 Zn 0.80419 0.86152 0.68019 0.0
O72 O 0.79897 0.76115 0.66843 0.0
O73 O 0.80994 0.7711 0.63227 0.0
O74 O 0.79288 0.87038 0.71318 0.0
O75 O 0.79008 0.9337 0.62776 0.0
O76 O 0.78382 0.93245 0.66498 0.0
C77 C 0.80231 0.73451 0.6485 0.0
C78 C 0.85039 0.90768 0.6663 0.0
O79 O 0.8372 0.88695 0.68193 0.0
O80 O 0.84421 0.91035 0.64551 0.0
C81 C 0.79219 0.93243 0.72107 0.0
O82 O 0.80035 -0.01704 0.70846 0.0
C83 C 0.77899 0.95384 0.64491 0.0
Zn84 Zn 0.97832 0.8046 0.13851 0.0
Zn85 Zn 0.98828 0.81848 0.09555 0.0
O86 O 1.00816 0.7375 0.10749 0.0
O87 O 1.00342 0.74465 0.14499 0.0
O88 O 0.99929 0.84189 0.063 0.0
O89 O 0.98127 0.90257 0.14737 0.0
O90 O 0.99321 0.91207 0.11171 0.0
C91 C 1.01319 0.71827 0.1279 0.0
C92 C 0.94244 0.76988 0.10895 0.0
O93 O 0.9551 0.79303 0.09314 0.0
O94 O 0.94926 0.76529 0.12946 0.0
C95 C 0.995 0.90131 0.0543 0.0
O96 O 0.98192 0.94359 0.0656 0.0
C97 C 0.98954 0.9387 0.13145 0.0
Zn98 Zn 0.81452 0.80102 0.14416 0.0
Zn99 Zn 0.80313 0.81369 0.10045 0.0
O100 O 0.79782 0.91322 0.11313 0.0
O101 O 0.80952 0.90158 0.14887 0.0
O102 O 0.7914 0.80682 0.06766 0.0
O103 O 0.7901 0.73856 0.15268 0.0
O104 O 0.78335 0.74029 0.11561 0.0
C105 C 0.80148 0.93884 0.13312 0.0
C106 C 0.84968 0.76864 0.11274 0.0
O107 O 0.83618 0.78979 0.0976 0.0
O108 O 0.84383 0.76447 0.13366 0.0
C109 C 0.7909 0.74537 0.05925 0.0
O110 O 0.79937 0.69427 0.07129 0.0
C111 C 0.77893 0.71803 0.13574 0.0
Zn112 Zn 0.05848 0.626 0.88973 0.0
Zn113 Zn 0.04821 0.61485 0.84576 0.0
O114 O 0.04254 0.51412 0.85746 0.0
O115 O 0.05355 0.52514 0.8935 0.0
O116 O 0.0374 0.62649 0.81268 0.0
O117 O 0.03385 0.68735 0.89838 0.0
O118 O 0.02804 0.68696 0.86113 0.0
C119 C 0.04585 0.48808 0.87744 0.0
C120 C 0.09442 0.6602 0.85978 0.0
O121 O 0.0814 0.6389 0.84417 0.0
O122 O 0.08797 0.66395 0.88052 0.0
C123 C 0.03906 0.68859 0.80504 0.0
O124 O 0.0489 0.73535 0.81791 0.0
C125 C 0.02307 0.70833 0.88126 0.0
Zn126 Zn 0.22151 0.62621 0.89081 0.0
Zn127 Zn 0.23355 0.61372 0.84817 0.0
O128 O 0.25314 0.69343 0.86171 0.0
O129 O 0.24634 0.6859 0.89886 0.0
O130 O 0.24605 0.59112 0.81611 0.0
O131 O 0.22401 0.52759 0.89899 0.0
O132 O 0.23757 0.51957 0.86393 0.0
C133 C 0.25715 0.71208 0.88247 0.0
C134 C 0.18713 0.66195 0.85953 0.0
O135 O 0.20051 0.63947 0.84426 0.0
O136 O 0.19297 0.66584 0.88039 0.0
C137 C 0.24201 0.53206 0.80691 0.0
O138 O 0.22818 0.49 0.81724 0.0
C139 C 0.23293 0.49208 0.88326 0.0
Zn140 Zn 0.06247 0.55735 0.38777 0.0
Zn141 Zn 0.05255 0.56636 0.4322 0.0
O142 O 0.04587 0.66719 0.42124 0.0
O143 O 0.0565 0.65764 0.38491 0.0
O144 O 0.0436 0.55147 0.46604 0.0
O145 O 0.03835 0.49449 0.37911 0.0
O146 O 0.03318 0.49261 0.41651 0.0
C147 C 0.04874 0.69375 0.40122 0.0
C148 C 0.09904 0.52644 0.41661 0.0
O149 O 0.08596 0.54612 0.4325 0.0
O150 O 0.09242 0.52206 0.39601 0.0
C151 C 0.02488 0.5265 0.47122 0.0
O152 O 1.01002 0.52139 0.45505 0.0
C153 C 0.02805 0.47176 0.3964 0.0
Zn154 Zn 0.2278 0.56643 0.38764 0.0
Zn155 Zn 0.23792 0.57949 0.43052 0.0
O156 O 0.25769 0.4989 0.41791 0.0
O157 O 0.2528 0.50646 0.3805 0.0
O158 O 0.24923 0.60172 0.46295 0.0
O159 O 0.23078 0.66445 0.37915 0.0
O160 O 0.24271 0.67353 0.41474 0.0
C161 C 0.26263 0.47984 0.39738 0.0
C162 C 0.19205 0.53115 0.41759 0.0
O163 O 0.20478 0.5538 0.43333 0.0
O164 O 0.19877 0.52719 0.39696 0.0
C165 C 0.24525 0.66094 0.47208 0.0
O166 O 0.23219 0.70411 0.46132 0.0
C167 C 0.23901 0.7004 0.39511 0.0
Zn168 Zn 0.97624 0.36416 0.13969 0.0
Zn169 Zn 0.98776 0.35161 0.18235 0.0
O170 O 1.00749 0.43155 0.16924 0.0
O171 O 1.00109 0.42437 0.13205 0.0
O172 O 0.99966 0.32945 0.21452 0.0
O173 O 0.97922 0.26578 0.13122 0.0
O174 O 0.99238 0.25772 0.16633 0.0
C175 C 1.01173 0.45033 0.14854 0.0
C176 C 0.94143 0.39958 0.17079 0.0
O177 O 0.95465 0.37723 0.18608 0.0
O178 O 0.94749 0.40324 0.14994 0.0
C179 C 0.99579 0.27017 0.22359 0.0
O180 O 0.98258 0.22699 0.21293 0.0
C181 C 0.98816 0.23044 0.14685 0.0
Zn182 Zn 0.8131 0.36745 0.14038 0.0
Zn183 Zn 0.80229 0.35799 0.1843 0.0
O184 O 0.79688 0.25691 0.17301 0.0
O185 O 0.80794 0.26669 0.13687 0.0
O186 O 0.79057 0.37044 0.21703 0.0
O187 O 0.78887 0.42926 0.13125 0.0
O188 O 0.78267 0.43018 0.16847 0.0
C189 C 0.80027 0.2302 0.15309 0.0
C190 C 0.84873 0.40154 0.17067 0.0
O191 O 0.83546 0.38133 0.1863 0.0
O192 O 0.84255 0.40462 0.14989 0.0
C193 C 0.79163 0.43294 0.22448 0.0
O194 O 0.80171 0.47962 0.21177 0.0
C195 C 0.77801 0.45127 0.1483 0.0
Zn196 Zn 0.97621 0.30975 0.64022 0.0
Zn197 Zn 0.98482 0.32422 0.59581 0.0
O198 O 1.0063 0.24601 0.60618 0.0
O199 O 1.00186 0.24922 0.64383 0.0
O200 O 0.99281 0.35273 0.56284 0.0
O201 O 0.97998 0.40841 0.64851 0.0
O202 O 0.98936 0.41717 0.612 0.0
C203 C 1.01177 0.22575 0.62634 0.0
C204 C 0.93963 0.27346 0.61141 0.0
O205 O 0.95199 0.29488 0.5951 0.0
O206 O 0.94673 0.27148 0.63187 0.0
C207 C 1.00949 0.39136 0.55946 0.0
O208 O 0.02233 0.40556 0.57694 0.0
C209 C 0.98695 0.44432 0.63185 0.0
Zn210 Zn 0.8102 0.30394 0.64322 0.0
Zn211 Zn 0.80071 0.3141 0.59893 0.0
O212 O 0.79572 0.41524 0.61033 0.0
O213 O 0.80543 0.40493 0.64678 0.0
O214 O 0.78977 0.3036 0.56593 0.0
O215 O 0.78551 0.24221 0.65148 0.0
O216 O 0.78056 0.24185 0.6141 0.0
C217 C 0.79868 0.4419 0.6303 0.0
C218 C 0.84657 0.2692 0.61348 0.0
O219 O 0.83372 0.28934 0.59759 0.0
O220 O 0.83987 0.26651 0.63416 0.0
C221 C 0.79067 0.24154 0.55806 0.0
O222 O 0.80015 0.1935 0.57063 0.0
C223 C 0.77525 0.22029 0.63409 0.0
Zn224 Zn 0.55921 0.06489 0.88712 0.0
Zn225 Zn 0.54783 0.07866 0.84477 0.0
O226 O 0.52831 -0.00227 0.85774 0.0
O227 O 0.53431 0.00528 0.89498 0.0
O228 O 0.5354 0.10293 0.81297 0.0
O229 O 0.55684 0.16285 0.8962 0.0
O230 O 0.5437 0.17239 0.86113 0.0
C231 C 0.52394 -0.02126 0.8784 0.0
C232 C 0.59399 0.02949 0.8559 0.0
O233 O 0.58091 0.05295 0.84065 0.0
O234 O 0.58781 0.02498 0.87669 0.0
C235 C 0.54025 0.16143 0.80388 0.0
O236 O 0.55483 0.20103 0.81406 0.0
C237 C 0.5481 0.19904 0.88066 0.0
Zn238 Zn 0.72101 0.05998 0.89012 0.0
Zn239 Zn 0.7334 0.07121 0.84675 0.0
O240 O 0.73864 0.17131 0.85905 0.0
O241 O 0.72613 0.16048 0.89462 0.0
O242 O 0.74589 0.06262 0.8142 0.0
O243 O 0.74496 -0.00238 0.8996 0.0
O244 O 0.75267 -0.00203 0.86266 0.0
C245 C 0.73459 0.19732 0.87893 0.0
C246 C 0.68646 0.02726 0.85839 0.0
O247 O 0.7003 0.04801 0.8434 0.0
O248 O 0.69188 0.02339 0.87939 0.0
C249 C 0.74657 0.00067 0.80622 0.0
O250 O 0.73786 0.95028 0.81847 0.0
C251 C 0.75653 -0.02365 0.88297 0.0
Zn252 Zn 0.5631 0.05978 0.38739 0.0
Zn253 Zn 0.55152 0.07104 0.43106 0.0
O254 O 0.54595 0.17151 0.41909 0.0
O255 O 0.55791 0.16025 0.3833 0.0
O256 O 0.53957 0.05924 0.46382 0.0
O257 O 0.53901 -0.00258 0.37814 0.0
O258 O 0.53203 -0.00183 0.41522 0.0
C259 C 0.54969 0.19731 0.39913 0.0
C260 C 0.59828 0.02736 0.41819 0.0
O261 O 0.58474 0.04814 0.43351 0.0
O262 O 0.59244 0.0233 0.39732 0.0
C263 C 0.54076 -0.00302 0.4714 0.0
O264 O 0.55096 0.95022 0.45878 0.0
C265 C 0.52775 -0.02363 0.39501 0.0
Zn266 Zn 0.72667 0.06335 0.39017 0.0
Zn267 Zn 0.73703 0.07644 0.43321 0.0
O268 O 0.7568 -0.00369 0.42046 0.0
O269 O 0.75166 0.003 0.38307 0.0
O270 O 0.74872 0.09748 0.4655 0.0
O271 O 0.72986 0.16176 0.38197 0.0
O272 O 0.74177 0.17065 0.41757 0.0
C273 C 0.76166 -0.02297 0.39995 0.0
C274 C 0.69104 0.02866 0.42059 0.0
O275 O 0.70389 0.0511 0.43627 0.0
O276 O 0.69763 0.02464 0.39992 0.0
C277 C 0.74536 0.15694 0.4747 0.0
O278 O 0.73255 0.20133 0.46415 0.0
C279 C 0.73807 0.19764 0.39797 0.0
Zn280 Zn 0.47557 0.87833 0.1401 0.0
Zn281 Zn 0.48693 0.86473 0.18271 0.0
O282 O 0.50648 0.9458 0.16997 0.0
O283 O 0.5003 0.93922 0.13273 0.0
O284 O 0.49897 0.84142 0.21476 0.0
O285 O 0.47875 0.78041 0.13119 0.0
O286 O 0.49188 0.77169 0.16629 0.0
C287 C 0.5108 0.96507 0.14933 0.0
C288 C 0.44047 0.91129 0.1711 0.0
O289 O 0.45366 0.88868 0.18639 0.0
O290 O 0.44669 0.91633 0.15034 0.0
C291 C 0.49532 0.78155 0.2235 0.0
O292 O 0.48212 0.73866 0.2127 0.0
C293 C 0.48777 0.74487 0.14671 0.0
Zn294 Zn 0.31333 0.87553 0.13686 0.0
Zn295 Zn 0.301 0.86355 0.18005 0.0
O296 O 0.2954 0.76352 0.16744 0.0
O297 O 0.30838 0.77529 0.13208 0.0
O298 O 0.28855 0.87466 0.21264 0.0
O299 O 0.28938 0.93745 0.12721 0.0
O300 O 0.28198 0.93735 0.1642 0.0
C301 C 0.29961 0.73809 0.14748 0.0
C302 C 0.34794 0.90797 0.16836 0.0
O303 O 0.3342 0.88624 0.18331 0.0
O304 O 0.34242 0.91267 0.14741 0.0
C305 C 0.28981 0.93681 0.22041 0.0
O306 O 0.30028 -0.01652 0.20805 0.0
C307 C 0.278 0.95904 0.14394 0.0
Zn308 Zn 0.47385 0.80701 0.63681 0.0
Zn309 Zn 0.48559 0.82159 0.59454 0.0
O310 O 0.5047 0.73948 0.60723 0.0
O311 O 0.49835 0.74605 0.64448 0.0
O312 O 0.49813 0.84504 0.56259 0.0
O313 O 0.47675 0.90452 0.64617 0.0
O314 O 0.49021 0.91475 0.61113 0.0
C315 C 0.5088 0.71979 0.62784 0.0
C316 C 0.43902 0.77484 0.60571 0.0
O317 O 0.45236 0.79803 0.59054 0.0
O318 O 0.44505 0.76901 0.62646 0.0
C319 C 0.49466 0.90492 0.55382 0.0
O320 O 0.4814 0.94795 0.56456 0.0
C321 C 0.4858 0.94087 0.63079 0.0
Zn322 Zn 0.31159 0.81153 0.63963 0.0
Zn323 Zn 0.29961 0.82291 0.59656 0.0
O324 O 0.29384 0.92308 0.60912 0.0
O325 O 0.30652 0.91164 0.64449 0.0
O326 O 0.28757 0.81207 0.56389 0.0
O327 O 0.28766 0.74928 0.64937 0.0
O328 O 0.2805 0.74856 0.61239 0.0
C329 C 0.29785 0.94866 0.62907 0.0
C330 C 0.34648 0.77914 0.60828 0.0
O331 O 0.33285 0.80055 0.59331 0.0
O332 O 0.3408 0.77468 0.62924 0.0
C333 C 0.28907 0.75021 0.55592 0.0
O334 O 0.29938 0.70334 0.56823 0.0
C335 C 0.27643 0.72711 0.63271 0.0
Zn336 Zn 0.5614 0.62569 0.38994 0.0
Zn337 Zn 0.55078 0.61439 0.34624 0.0
O338 O 0.54519 0.51364 0.35811 0.0
O339 O 0.55637 0.52523 0.39406 0.0
O340 O 0.53927 0.62624 0.3134 0.0
O341 O 0.53716 0.68768 0.39911 0.0
O342 O 0.53117 0.68761 0.3619 0.0
C343 C 0.54862 0.48791 0.37811 0.0
C344 C 0.59721 0.65851 0.3596 0.0
O345 O 0.58402 0.63744 0.3441 0.0
O346 O 0.5909 0.66268 0.38038 0.0
C347 C 0.54062 0.68854 0.30586 0.0
O348 O 0.55074 0.73516 0.31853 0.0
C349 C 0.52643 0.70935 0.38205 0.0
Zn350 Zn 0.72479 0.62362 0.39026 0.0
Zn351 Zn 0.73626 0.60908 0.3472 0.0
O352 O 0.75602 0.68921 0.35969 0.0
O353 O 0.7498 0.68435 0.397 0.0
O354 O 0.74841 0.58567 0.31518 0.0
O355 O 0.72795 0.52532 0.39882 0.0
O356 O 0.74084 0.51611 0.3635 0.0
C357 C 0.76041 0.70908 0.38021 0.0
C358 C 0.68996 0.65723 0.35898 0.0
O359 O 0.7032 0.63449 0.34362 0.0
O360 O 0.69601 0.66169 0.37978 0.0
C361 C 0.74489 0.52578 0.30638 0.0
O362 O 0.73163 0.48279 0.3171 0.0
C363 C 0.73676 0.48946 0.3831 0.0
Zn364 Zn 0.56003 0.62483 0.89046 0.0
Zn365 Zn 0.54833 0.61025 0.93302 0.0
O366 O 0.52875 0.69118 0.92044 0.0
O367 O 0.53519 0.68511 0.88319 0.0
O368 O 0.53604 0.58495 0.96488 0.0
O369 O 0.55733 0.52693 0.88129 0.0
O370 O 0.54409 0.51709 0.91644 0.0
C371 C 0.52458 0.71073 0.89984 0.0
C372 C 0.59467 0.65895 0.92173 0.0
O373 O 0.58139 0.63573 0.93696 0.0
O374 O 0.58869 0.66374 0.90094 0.0
C375 C 0.54123 0.52654 0.97377 0.0
O376 O 0.55592 0.48794 0.96325 0.0
C377 C 0.54847 0.49067 0.89683 0.0
Zn378 Zn 0.72252 0.62569 0.88898 0.0
Zn379 Zn 0.73374 0.61356 0.93246 0.0
O380 O 0.73899 0.51366 0.91987 0.0
O381 O 0.72733 0.5253 0.88413 0.0
O382 O 0.74557 0.62055 0.96521 0.0
O383 O 0.74683 0.6878 0.88007 0.0
O384 O 0.7533 0.68773 0.91719 0.0
C385 C 0.7353 0.48799 0.89989 0.0
C386 C 0.68727 0.65863 0.92018 0.0
O387 O 0.70066 0.63725 0.93539 0.0
O388 O 0.69323 0.66276 0.89929 0.0
C389 C 0.74606 0.68198 0.97363 0.0
O390 O 0.73752 0.73305 0.96164 0.0
C391 C 0.75776 0.70955 0.89701 0.0
Zn392 Zn 0.47291 0.36538 0.64172 0.0
Zn393 Zn 0.48507 0.35167 0.68389 0.0
O394 O 0.5044 0.43275 0.67069 0.0
O395 O 0.49759 0.42557 0.6336 0.0
O396 O 0.49783 0.32717 0.71552 0.0
O397 O 0.47551 0.26759 0.63254 0.0
O398 O 0.48932 0.25834 0.66733 0.0
C399 C 0.50834 0.45183 0.64995 0.0
C400 C 0.43862 0.40021 0.67353 0.0
O401 O 0.452 0.377 0.68853 0.0
O402 O 0.44441 0.40463 0.65262 0.0
C403 C 0.49309 0.26849 0.72455 0.0
O404 O 0.4785 0.2289 0.71439 0.0
C405 C 0.48472 0.23171 0.64784 0.0
Zn406 Zn 0.31128 0.37478 0.64112 0.0
Zn407 Zn 0.299 0.36395 0.68422 0.0
O408 O 0.29313 0.26359 0.6719 0.0
O409 O 0.30584 0.27481 0.63642 0.0
O410 O 0.28659 0.37615 0.71681 0.0
O411 O 0.28776 0.43777 0.6312 0.0
O412 O 0.28024 0.43843 0.66817 0.0
C413 C 0.29715 0.2379 0.65194 0.0
C414 C 0.34616 0.40545 0.67237 0.0
O415 O 0.33234 0.38485 0.68741 0.0
O416 O 0.34061 0.41029 0.65144 0.0
C417 C 0.28815 0.43819 0.72462 0.0
O418 O 0.29888 0.48438 0.71231 0.0
C419 C 0.27641 0.46003 0.64785 0.0
Zn420 Zn 0.47766 0.31982 0.13759 0.0
Zn421 Zn 0.48877 0.3333 0.09496 0.0
O422 O 0.50826 0.25214 0.10752 0.0
O423 O 0.50246 0.25952 0.14485 0.0
O424 O 0.50083 0.35791 0.06295 0.0
O425 O 0.48051 0.41758 0.14664 0.0
O426 O 0.49324 0.42679 0.11127 0.0
C427 C 0.51269 0.23297 0.12809 0.0
C428 C 0.44257 0.28525 0.10694 0.0
O429 O 0.45565 0.308 0.09146 0.0
O430 O 0.44883 0.28097 0.12766 0.0
C431 C 0.49559 0.41618 0.05401 0.0
O432 O 0.48093 0.45487 0.06455 0.0
C433 C 0.48916 0.45354 0.1309 0.0
Zn434 Zn 0.31352 0.31223 0.13806 0.0
Zn435 Zn 0.303 0.32127 0.09403 0.0
O436 O 0.2963 0.42192 0.10548 0.0
O437 O 0.30758 0.41235 0.14146 0.0
O438 O 0.29324 0.30648 0.06048 0.0
O439 O 0.2896 0.24933 0.14733 0.0
O440 O 0.28408 0.24681 0.11004 0.0
C441 C 0.29946 0.44841 0.12547 0.0
C442 C 0.34971 0.28158 0.10825 0.0
O443 O 0.33646 0.3015 0.09269 0.0
O444 O 0.34332 0.27696 0.12898 0.0
C445 C 0.27426 0.28249 0.05601 0.0
O446 O 0.25979 0.27847 0.07273 0.0
C447 C 0.2792 0.22607 0.13024 0.0
C448 C 0.13194 0.21484 0.36829 0.0
C449 C 0.12005 0.16905 0.35423 0.0
H450 H 0.16334 0.24886 0.3795 0.0
C451 C 0.1313 0.12986 0.33744 0.0
H452 H 0.12371 0.24651 0.38114 0.0
C453 C 0.15427 0.13106 0.33652 0.0
C454 C 0.16614 0.17164 0.35234 0.0
H455 H 0.12253 0.09411 0.32637 0.0
H456 H 0.16268 0.09599 0.32485 0.0
C457 C 0.15467 0.21626 0.36731 0.0
C458 C 0.15083 -0.02702 0.90503 0.0
C459 C 0.16185 0.01394 0.92138 0.0
H460 H 0.12021 0.94362 0.89045 0.0
C461 C 0.14956 0.04869 0.9384 0.0
H462 H 0.15982 0.94466 0.89189 0.0
C463 C 0.12661 0.04796 0.93758 0.0
C464 C 0.11575 0.0126 0.9197 0.0
H465 H 0.1576 0.08071 0.9512 0.0
H466 H 0.1175 0.07931 0.94982 0.0
C467 C 0.12809 -0.02759 0.90418 0.0
C468 C 0.90826 0.96625 0.6568 0.0
C469 C 0.91978 0.92333 0.6721 0.0
H470 H 0.87722 -0.00431 0.64331 0.0
C471 C 0.90799 0.88539 0.68872 0.0
H472 H 0.91687 -0.0031 0.64399 0.0
C473 C 0.88502 0.88487 0.68836 0.0
C474 C 0.87367 0.92211 0.67132 0.0
H475 H 0.91644 0.85172 0.70068 0.0
H476 H 0.87629 0.85098 0.70011 0.0
C477 C 0.88551 0.96552 0.65638 0.0
C478 C 0.90785 0.71149 0.12029 0.0
C479 C 0.919 0.75536 0.10486 0.0
H480 H 0.87713 0.68058 0.13454 0.0
C481 C 0.90683 0.79377 0.08879 0.0
H482 H 0.91675 0.68046 0.13267 0.0
C483 C 0.88387 0.79365 0.08984 0.0
C484 C 0.87291 0.7553 0.107 0.0
H485 H 0.91498 0.82815 0.07674 0.0
H486 H 0.87485 0.8278 0.07851 0.0
C487 C 0.88512 0.7116 0.12139 0.0
C488 C 0.12939 0.63606 0.83811 0.0
C489 C 0.11776 0.67444 0.85482 0.0
H490 H 0.16102 0.60227 0.82626 0.0
C491 C 0.12933 0.7191 0.86955 0.0
H492 H 0.12086 0.60118 0.82654 0.0
C493 C 0.15209 0.72007 0.86928 0.0
C494 C 0.16387 0.67612 0.85436 0.0
H495 H 0.12082 0.75015 0.88235 0.0
H496 H 0.16048 0.75173 0.88195 0.0
C497 C 0.15237 0.6368 0.83791 0.0
C498 C 0.13462 0.47299 0.40585 0.0
C499 C 0.12253 0.51459 0.42118 0.0
H500 H 0.16612 0.44406 0.39328 0.0
C501 C 0.13368 0.55173 0.43846 0.0
H502 H 0.1265 0.44286 0.39259 0.0
C503 C 0.15665 0.55262 0.43883 0.0
C504 C 0.16865 0.5162 0.42196 0.0
H505 H 0.12476 0.5842 0.45053 0.0
H506 H 0.16491 0.58595 0.4511 0.0
C507 C 0.15736 0.47363 0.40628 0.0
C508 C 0.90667 0.45883 0.16109 0.0
C509 C 0.91818 0.4145 0.17595 0.0
H510 H 0.87562 0.49022 0.14813 0.0
C511 C 0.90642 0.37589 0.19243 0.0
H512 H 0.91527 0.48998 0.14841 0.0
C513 C 0.88344 0.37622 0.1923 0.0
C514 C 0.87207 0.41499 0.17565 0.0
H515 H 0.91486 0.34113 0.20405 0.0
H516 H 0.87469 0.34183 0.20388 0.0
C517 C 0.88392 0.45894 0.1609 0.0
C518 C 0.90491 0.21825 0.62426 0.0
C519 C 0.91617 0.25798 0.60773 0.0
H520 H 0.87406 0.18965 0.6387 0.0
C521 C 0.90415 0.29114 0.59031 0.0
H522 H 0.91369 0.19112 0.6377 0.0
C523 C 0.8812 0.29018 0.59088 0.0
C524 C 0.87005 0.25615 0.60889 0.0
H525 H 0.91239 0.32214 0.57735 0.0
H526 H 0.87228 0.32039 0.5783 0.0
C527 C 0.88216 0.21741 0.62485 0.0
C528 C 0.65116 -0.03197 0.86618 0.0
C529 C 0.66334 0.01395 0.85242 0.0
H530 H 0.61952 0.93546 0.87738 0.0
C531 C 0.65237 0.05477 0.83602 0.0
H532 H 0.65917 0.93524 0.87874 0.0
C533 C 0.6294 0.05511 0.83527 0.0
C534 C 0.61726 0.01444 0.85088 0.0
H535 H 0.66138 0.09074 0.82521 0.0
H536 H 0.62123 0.0915 0.82398 0.0
C537 C 0.62842 -0.03189 0.86536 0.0
C538 C 0.65555 0.05295 0.44131 0.0
C539 C 0.66763 0.01416 0.42509 0.0
H540 H 0.62363 0.08729 0.45203 0.0
C541 C 0.6564 -0.03005 0.40988 0.0
H542 H 0.66378 0.08763 0.45319 0.0
C543 C 0.63366 -0.02997 0.40913 0.0
C544 C 0.62153 0.01409 0.42365 0.0
H545 H 0.66523 0.93866 0.39738 0.0
H546 H 0.62561 0.93873 0.39613 0.0
C547 C 0.63258 0.05284 0.44062 0.0
C548 C 0.38219 0.88175 0.19069 0.0
C549 C 0.37102 0.92217 0.17433 0.0
H550 H 0.41352 0.84687 0.20277 0.0
C551 C 0.38295 -0.03092 0.16069 0.0
H552 H 0.37337 0.84509 0.2014 0.0
C553 C 0.40568 -0.02955 0.16159 0.0
C554 C 0.41709 0.92466 0.17605 0.0
H555 H 0.37478 0.00164 0.14818 0.0
H556 H 0.41441 0.0039 0.14967 0.0
C557 C 0.40516 0.8829 0.19152 0.0
C558 C 0.38131 0.71752 0.61588 0.0
C559 C 0.36959 0.76481 0.60232 0.0
H560 H 0.41259 0.68211 0.62689 0.0
C561 C 0.38099 0.80542 0.58607 0.0
H562 H 0.37296 0.68483 0.62831 0.0
C563 C 0.40396 0.80403 0.58529 0.0
C564 C 0.41566 0.76184 0.60069 0.0
H565 H 0.37233 0.84239 0.57542 0.0
H566 H 0.41249 0.84018 0.57413 0.0
C567 C 0.40404 0.71589 0.61502 0.0
C568 C 0.65501 0.63255 0.33762 0.0
C569 C 0.66669 0.67169 0.35398 0.0
H570 H 0.62335 0.59795 0.32637 0.0
C571 C 0.6551 0.7163 0.36884 0.0
H572 H 0.66352 0.59756 0.326 0.0
C573 C 0.63235 0.71626 0.36914 0.0
C574 C 0.62057 0.67184 0.35451 0.0
H575 H 0.66363 0.74788 0.38143 0.0
H576 H 0.62398 0.74786 0.38191 0.0
C577 C 0.63203 0.6327 0.33787 0.0
C578 C 0.65266 0.63257 0.9422 0.0
C579 C 0.66404 0.67246 0.92574 0.0
H580 H 0.6212 0.59722 0.95409 0.0
C581 C 0.65224 0.71812 0.91165 0.0
H582 H 0.66137 0.59685 0.95327 0.0
C583 C 0.62949 0.71867 0.91223 0.0
C584 C 0.61794 0.67327 0.92681 0.0
H585 H 0.66057 0.75027 0.89905 0.0
H586 H 0.62091 0.75114 0.89999 0.0
C587 C 0.62968 0.63288 0.94271 0.0
C588 C 0.38043 0.37544 0.69411 0.0
C589 C 0.36939 0.4177 0.67817 0.0
H590 H 0.41162 0.33694 0.70541 0.0
C591 C 0.38154 0.46412 0.66457 0.0
H592 H 0.37144 0.33904 0.70477 0.0
C593 C 0.40428 0.46324 0.66504 0.0
C594 C 0.41547 0.41564 0.67904 0.0
H595 H 0.37348 0.49797 0.65235 0.0
H596 H 0.41313 0.49635 0.65312 0.0
C597 C 0.40341 0.37433 0.69452 0.0
C598 C 0.3844 0.30842 0.08641 0.0
C599 C 0.37314 0.26943 0.1032 0.0
H600 H 0.41574 0.34384 0.07418 0.0
C601 C 0.3851 0.22575 0.11781 0.0
H602 H 0.37556 0.34256 0.07492 0.0
C603 C 0.40785 0.22611 0.11728 0.0
C604 C 0.41925 0.27047 0.10222 0.0
H605 H 0.37689 0.19425 0.13067 0.0
H606 H 0.41653 0.19499 0.12981 0.0
C607 C 0.40738 0.30903 0.08594 0.0
C608 C 1.01536 0.15699 0.27324 0.0
C609 C 0.02911 0.20272 0.28531 0.0
H610 H 0.99394 0.14249 0.24452 0.0
C611 C 0.03176 0.27102 0.27691 0.0
H612 H 1.01285 0.10423 0.27925 0.0
C613 C 0.0209 0.29311 0.25703 0.0
C614 C 1.00701 0.24761 0.24504 0.0
H615 H 0.04219 0.30786 0.28577 0.0
H616 H 0.02339 0.34595 0.25109 0.0
C617 C 1.00441 0.1792 0.25338 0.0
C618 C 0.2695 0.05048 0.2698 0.0
C619 C 0.25553 0.0052 0.28183 0.0
H620 H 0.29128 0.06438 0.24126 0.0
C621 C 0.25324 0.93634 0.27371 0.0
H622 H 0.27176 0.10366 0.27556 0.0
C623 C 0.26459 0.91344 0.25406 0.0
C624 C 0.27847 0.95891 0.24197 0.0
H625 H 0.24271 0.89978 0.2826 0.0
H626 H 0.26233 0.86033 0.24823 0.0
C627 C 0.28077 0.0277 0.25013 0.0
C628 C 0.02953 0.9037 0.99961 0.0
C629 C 0.02654 -0.0277 0.99165 0.0
H630 H 0.02199 0.82742 0.02537 0.0
C631 C 1.01303 0.01714 1.00448 0.0
H632 H 0.03979 0.86752 0.99018 0.0
C633 C 1.00266 -0.00622 0.02463 0.0
C634 C 1.00561 0.92507 0.03254 0.0
H635 H 1.01027 0.0701 0.99883 0.0
H636 H 0.99236 0.02984 0.03407 0.0
C637 C 0.01926 0.88046 0.01979 0.0
C638 C 0.28016 0.21862 0.9941 0.0
C639 C 0.2607 0.18053 0.99098 0.0
H640 H 0.29969 0.28092 0.01683 0.0
C641 C 0.24556 0.17815 1.00922 0.0
H642 H 0.29218 0.2219 0.9804 0.0
C643 C 0.24976 0.2128 0.03002 0.0
C644 C 0.2693 0.2504 0.03322 0.0
H645 H 0.23035 0.14985 1.00741 0.0
H646 H 0.23776 0.20922 0.04372 0.0
C647 C 0.28444 0.25288 0.01497 0.0
C648 C 0.02134 0.80152 0.75469 0.0
C649 C 1.00732 0.75686 0.74252 0.0
H650 H 0.04235 0.81495 0.78374 0.0
C651 C 1.00429 0.68853 0.75077 0.0
H652 H 0.02415 0.85426 0.74882 0.0
C653 C 1.01489 0.6656 0.77074 0.0
C654 C 0.02872 0.71055 0.78304 0.0
H655 H 0.99372 0.65243 0.74176 0.0
H656 H 1.01203 0.61296 0.77668 0.0
C657 C 0.03184 0.77873 0.77471 0.0
C658 C 0.75944 0.91424 0.77658 0.0
C659 C 0.7581 -0.01625 0.78429 0.0
H660 H 0.7713 0.84332 0.75083 0.0
C661 C 0.7684 0.03581 0.77122 0.0
H662 H 0.75179 0.87262 0.78625 0.0
C663 C 0.77969 0.01881 0.75092 0.0
C664 C 0.78097 0.94932 0.74318 0.0
H665 H 0.7678 0.08974 0.77667 0.0
H666 H 0.78732 0.06043 0.74123 0.0
C667 C 0.77073 0.89724 0.75629 0.0
C668 C 0.75833 0.76657 1.00404 0.0
C669 C 0.75726 0.69762 0.99575 0.0
H670 H 0.76982 0.83594 0.03035 0.0
C671 C 0.76758 0.64493 1.0084 0.0
H672 H 0.75064 0.80864 0.99471 0.0
C673 C 0.77867 0.66078 0.02882 0.0
C674 C 0.77974 0.72972 0.03712 0.0
H675 H 0.76718 0.5914 1.00251 0.0
H676 H 0.78636 0.6187 0.03816 0.0
C677 C 0.76942 0.78242 0.02446 0.0
C678 C 0.25095 0.43981 0.77743 0.0
C679 C 0.25374 0.50826 0.78576 0.0
H680 H 0.2597 0.36359 0.75189 0.0
C681 C 0.26831 0.55247 0.7741 0.0
H682 H 0.23996 0.40404 0.78605 0.0
C683 C 0.27965 0.52911 0.75453 0.0
C684 C 0.27682 0.46078 0.74614 0.0
H685 H 0.27096 0.60529 0.78004 0.0
H686 H 0.2906 0.56499 0.74591 0.0
C687 C 0.26238 0.41632 0.7579 0.0
C688 C 0.03621 0.49857 0.51191 0.0
C689 C 0.02068 0.49454 0.49419 0.0
H690 H 0.04493 0.46907 0.54624 0.0
C691 C 1.00151 0.45557 0.49808 0.0
H692 H 0.05119 0.5277 0.50951 0.0
C693 C 0.99802 0.42114 0.51904 0.0
C694 C 1.01354 0.42512 0.53676 0.0
H695 H 0.98923 0.45077 0.48479 0.0
H696 H 0.98307 0.39179 0.52139 0.0
C697 C 0.03264 0.46454 0.53295 0.0
C698 C 0.2536 0.75192 0.50212 0.0
C699 C 0.25629 0.68355 0.49367 0.0
H700 H 0.26192 0.827 0.52813 0.0
C701 C 0.27015 0.6382 0.50566 0.0
H702 H 0.24314 0.78852 0.49328 0.0
C703 C 0.28093 0.66042 0.52561 0.0
C704 C 0.27824 0.7287 0.5341 0.0
H705 H 0.2727 0.5854 0.49964 0.0
H706 H 0.29137 0.62371 0.53443 0.0
C707 C 0.26447 0.77426 0.52205 0.0
C708 C 0.76635 0.40983 0.25802 0.0
C709 C 0.78021 0.45534 0.24593 0.0
H710 H 0.7442 0.39647 0.28634 0.0
C711 C 0.78228 0.5244 0.25387 0.0
H712 H 0.76427 0.3565 0.25235 0.0
C713 C 0.77075 0.54747 0.27333 0.0
C714 C 0.75675 0.50219 0.28532 0.0
H715 H 0.79276 0.56107 0.24497 0.0
H716 H 0.7728 0.60089 0.27893 0.0
C717 C 0.75473 0.43302 0.27745 0.0
C718 C 0.78152 0.15261 0.52782 0.0
C719 C 0.77966 0.22121 0.53625 0.0
H720 H 0.7722 0.0784 0.50202 0.0
C721 C 0.76637 0.26831 0.52426 0.0
H722 H 0.79157 0.11476 0.53662 0.0
C723 C 0.75509 0.24713 0.50447 0.0
C724 C 0.75689 0.17841 0.49611 0.0
H725 H 0.76447 0.32136 0.5303 0.0
H726 H 0.74499 0.28487 0.49568 0.0
C727 C 0.77033 0.13154 0.50799 0.0
C728 C 0.52169 0.28095 0.75546 0.0
C729 C 0.50494 0.24194 0.74512 0.0
H730 H 0.546 0.28609 0.78183 0.0
C731 C 0.50014 0.1755 0.75409 0.0
H732 H 0.52593 0.33205 0.74898 0.0
C733 C 0.51173 0.14885 0.77289 0.0
C734 C 0.52847 0.18788 0.78324 0.0
H735 H 0.48742 0.14371 0.74653 0.0
H736 H 0.50749 0.09775 0.77938 0.0
C737 C 0.53329 0.25429 0.77426 0.0
C738 C 0.50421 -0.00274 0.52471 0.0
C739 C 0.50642 0.92833 0.53267 0.0
H740 H 0.5134 0.07339 0.49942 0.0
C741 C 0.52042 0.88313 0.52061 0.0
H742 H 0.49366 0.03377 0.53364 0.0
C743 C 0.53176 0.90602 0.50101 0.0
C744 C 0.52949 -0.02517 0.49298 0.0
H745 H 0.52262 0.82991 0.52626 0.0
H746 H 0.54225 0.86939 0.49208 0.0
C747 C 0.51563 0.02026 0.50515 0.0
C748 C 0.50449 0.68894 0.25255 0.0
C749 C 0.50685 0.75792 0.24465 0.0
H750 H 0.51339 0.61253 0.27778 0.0
C751 C 0.52082 0.8029 0.25675 0.0
H752 H 0.49397 0.65258 0.2436 0.0
C753 C 0.53198 0.77977 0.27632 0.0
C754 C 0.52956 0.71091 0.28429 0.0
H755 H 0.52313 0.85615 0.25114 0.0
H756 H 0.54245 0.81625 0.28528 0.0
C757 C 0.51573 0.66569 0.27209 0.0
C758 C 0.50171 0.50964 0.02434 0.0
C759 C 0.50699 0.44346 0.03316 0.0
H760 H 0.50836 0.588 0.99897 0.0
C761 C 0.52381 0.4055 0.02241 0.0
H762 H 0.48892 0.54063 0.03221 0.0
C763 C 0.53504 0.43296 1.00338 0.0
C764 C 0.52977 0.49916 0.99458 0.0
H765 H 0.5284 0.35462 0.02876 0.0
H766 H 0.54784 0.40198 0.99552 0.0
C767 C 0.51295 0.53711 1.00531 0.0
C768 C 1.01085 0.36593 0.41257 0.0
C769 C 1.01423 0.40978 0.39357 0.0
H770 H 1.01124 0.26057 0.42404 0.0
C771 C 1.0107 0.38345 0.37128 0.0
H772 H 1.0124 0.38535 0.43003 0.0
C773 C 1.00999 0.31175 0.36785 0.0
C774 C 1.01295 0.26738 0.38676 0.0
H775 H 1.01208 0.41691 0.35634 0.0
H776 H 1.01099 0.29215 0.35035 0.0
C777 C 1.01016 0.29422 0.40912 0.0
C778 C 0.24256 0.82055 0.41028 0.0
C779 C 0.24251 0.77471 0.39146 0.0
H780 H 0.24076 0.92645 0.42134 0.0
C781 C 0.24363 0.80102 0.36895 0.0
H782 H 0.24188 0.8014 0.4278 0.0
C783 C 0.24326 0.87242 0.36526 0.0
C784 C 0.2414 0.91811 0.38403 0.0
H785 H 0.24393 0.76643 0.35417 0.0
H786 H 0.24319 0.89144 0.34771 0.0
C787 C 0.24182 0.89194 0.40658 0.0
C788 C 1.00494 0.88499 0.86835 0.0
C789 C 1.00785 0.91234 0.89061 0.0
H790 H 1.00702 0.79342 0.84763 0.0
C791 C 1.00496 0.86837 0.90967 0.0
H792 H 1.00597 0.91832 0.85334 0.0
C793 C 1.00558 0.79657 0.90639 0.0
C794 C 1.009 0.76974 0.88412 0.0
H795 H 1.00606 0.88837 0.9271 0.0
H796 H 1.00705 0.76347 0.9214 0.0
C797 C 1.00553 0.81318 0.86507 0.0
C798 C 0.23816 0.37276 0.8678 0.0
C799 C 0.23637 0.41766 0.8868 0.0
H800 H 0.23823 0.2673 0.85612 0.0
C801 C 0.23596 0.39028 0.90919 0.0
H802 H 0.23868 0.39272 0.85038 0.0
C803 C 0.23598 0.31869 0.91248 0.0
C804 C 0.23606 0.27376 0.8934 0.0
H805 H 0.23489 0.42408 0.92412 0.0
H806 H 0.23479 0.29873 0.92989 0.0
C807 C 0.23783 0.30113 0.87108 0.0
C808 C 0.99204 0.63464 0.61897 0.0
C809 C 0.99222 0.66283 0.64129 0.0
H810 H 0.99054 0.54246 0.59847 0.0
C811 C 0.99329 0.61851 0.66042 0.0
H812 H 0.99151 0.66795 0.60394 0.0
C813 C 0.99244 0.5468 0.65731 0.0
C814 C 0.99087 0.51874 0.63504 0.0
H815 H 0.99361 0.63909 0.6778 0.0
H816 H 0.9923 0.51352 0.67236 0.0
C817 C 0.99153 0.56295 0.61585 0.0
C818 C 0.76114 0.0414 0.62005 0.0
C819 C 0.7645 0.01423 0.64221 0.0
H820 H 0.7609 0.1338 0.59982 0.0
C821 C 0.76028 0.05667 0.66145 0.0
H822 H 0.76317 0.00894 0.6049 0.0
C823 C 0.75898 0.12848 0.65853 0.0
C824 C 0.762 0.15681 0.63644 0.0
H825 H 0.76168 0.03646 0.6788 0.0
H826 H 0.75948 0.16137 0.67372 0.0
C827 C 0.75976 0.11318 0.61715 0.0
C828 C 0.99294 0.13026 0.12033 0.0
C829 C 0.99226 0.15649 0.14291 0.0
H830 H 0.9931 0.03973 0.09897 0.0
C831 C 0.99368 0.11078 0.16163 0.0
H832 H 0.99221 0.16478 0.10562 0.0
C833 C 0.99391 0.03934 0.15784 0.0
C834 C 0.99309 0.013 0.13528 0.0
H835 H 0.99339 0.1299 0.1792 0.0
H836 H 0.99389 0.00477 0.17257 0.0
C837 C 0.99354 0.05885 0.11653 0.0
C838 C 0.76155 0.54033 0.12304 0.0
C839 C 0.76447 0.51374 0.14535 0.0
H840 H 0.76327 0.63141 0.10219 0.0
C841 C 0.76136 0.55811 0.16434 0.0
H842 H 0.76275 0.50662 0.10809 0.0
C843 C 0.76171 0.62983 0.16096 0.0
C844 C 0.76505 0.6562 0.13865 0.0
H845 H 0.76248 0.53865 0.1818 0.0
H846 H 0.76302 0.66343 0.17592 0.0
C847 C 0.76182 0.61207 0.11966 0.0
C848 C 0.54393 0.31947 0.86609 0.0
C849 C 0.54458 0.27323 0.88472 0.0
H850 H 0.54476 0.42575 0.85543 0.0
C851 C 0.54378 0.299 0.90735 0.0
H852 H 0.5444 0.30069 0.84848 0.0
C853 C 0.54368 0.37035 0.91133 0.0
C854 C 0.54478 0.41658 0.8927 0.0
H855 H 0.54397 0.26407 0.92199 0.0
H856 H 0.54395 0.38908 0.92894 0.0
C857 C 0.54422 0.39083 0.87006 0.0
C858 C 0.77444 0.7981 0.87154 0.0
C859 C 0.77114 0.77246 0.89395 0.0
H860 H 0.77289 0.88808 0.85016 0.0
C861 C 0.77363 0.81788 0.91273 0.0
H862 H 0.77367 0.7636 0.85676 0.0
C863 C 0.77314 0.88942 0.90895 0.0
C864 C 0.77028 0.91461 0.88645 0.0
H865 H 0.77217 0.79923 0.93028 0.0
H866 H 0.77142 0.92371 0.9237 0.0
C867 C 0.77401 0.86964 0.86775 0.0
C868 C 0.51035 0.81658 0.36601 0.0
C869 C 0.513 0.77215 0.38496 0.0
H870 H 0.51249 0.92181 0.35459 0.0
C871 C 0.5098 0.79888 0.40728 0.0
H872 H 0.51169 0.79704 0.34853 0.0
C873 C 0.51024 0.87061 0.41077 0.0
C874 C 0.51389 0.91461 0.39186 0.0
H875 H 0.51066 0.76517 0.4222 0.0
H876 H 0.51147 0.88995 0.42827 0.0
C877 C 0.51085 0.88829 0.36949 0.0
C878 C 0.74158 0.31777 0.41321 0.0
C879 C 0.7416 0.27199 0.39437 0.0
H880 H 0.73991 0.42366 0.42431 0.0
C881 C 0.74289 0.2984 0.37188 0.0
H882 H 0.74076 0.29855 0.43072 0.0
C883 C 0.74268 0.36983 0.36823 0.0
C884 C 0.7408 0.4155 0.38701 0.0
H885 H 0.74324 0.26387 0.35709 0.0
H886 H 0.74278 0.38892 0.35069 0.0
C887 C 0.741 0.3892 0.40954 0.0
C888 C 0.49373 0.55375 0.15737 0.0
C889 C 0.49275 0.52773 0.13479 0.0
H890 H 0.49336 0.64398 0.17886 0.0
C891 C 0.49307 0.57376 0.11609 0.0
H892 H 0.49381 0.51897 0.17205 0.0
C893 C 0.49249 0.64513 0.11999 0.0
C894 C 0.49197 0.67106 0.14261 0.0
H895 H 0.49248 0.55478 0.09851 0.0
H896 H 0.49163 0.67983 0.10533 0.0
C897 C 0.49354 0.62512 0.16126 0.0
C898 C 0.26192 0.04742 0.1182 0.0
C899 C 0.26462 0.02162 0.14065 0.0
H900 H 0.264 0.13763 0.09697 0.0
C901 C 0.26152 0.06677 0.15942 0.0
H902 H 0.26313 0.01307 0.1034 0.0
C903 C 0.26208 0.13833 0.15574 0.0
C904 C 0.26559 0.16376 0.13334 0.0
H905 H 0.26249 0.04794 0.17698 0.0
H906 H 0.26333 0.17247 0.17057 0.0
C907 C 0.26242 0.11898 0.11451 0.0
C908 C 0.48984 0.11125 0.66202 0.0
C909 C 0.48875 0.15793 0.64354 0.0
H910 H 0.48971 0.00464 0.67233 0.0
C911 C 0.48965 0.13289 0.62082 0.0
H912 H 0.48933 0.12951 0.67969 0.0
C913 C 0.49021 0.06167 0.61662 0.0
C914 C 0.48945 0.01487 0.63509 0.0
H915 H 0.48915 0.16822 0.6063 0.0
H916 H 0.48994 0.04345 0.59895 0.0
C917 C 0.49 0.04 0.65781 0.0
C918 C 0.26012 0.5472 0.62176 0.0
C919 C 0.26308 0.52262 0.64432 0.0
H920 H 0.26143 0.63649 0.60004 0.0
C921 C 0.25994 0.56852 0.66288 0.0
H922 H 0.26143 0.51223 0.60713 0.0
C923 C 0.25991 0.63992 0.65881 0.0
C924 C 0.26303 0.66454 0.63624 0.0
H925 H 0.26118 0.55061 0.68052 0.0
H926 H 0.26108 0.67488 0.67343 0.0
C927 C 0.26007 0.6186 0.61768 0.0
C928 C 0.04234 0.7901 0.37348 0.0
C929 C 0.04441 0.76771 0.39649 0.0
H930 H 0.04187 0.87644 0.3502 0.0
C931 C 0.04481 0.8172 0.4142 0.0
H932 H 0.04164 0.75283 0.35946 0.0
C933 C 0.04501 0.88794 0.40882 0.0
C934 C 0.04465 0.91024 0.38568 0.0
H935 H 0.04628 0.80142 0.43203 0.0
H936 H 0.04636 0.92512 0.42281 0.0
C937 C 0.04238 0.8608 0.36812 0.0
C938 C 0.2771 0.36595 0.41041 0.0
C939 C 0.27498 0.41531 0.39285 0.0
H940 H 0.27514 0.25817 0.41878 0.0
C941 C 0.27785 0.39371 0.36978 0.0
H942 H 0.27582 0.38107 0.42836 0.0
C943 C 0.27675 0.32313 0.3642 0.0
C944 C 0.27342 0.27441 0.38177 0.0
H945 H 0.27735 0.43111 0.35584 0.0
H946 H 0.27527 0.30832 0.34625 0.0
C947 C 0.27656 0.29533 0.40483 0.0
C948 C 0.04016 0.36516 0.86455 0.0
C949 C 0.04171 0.41401 0.88239 0.0
H950 H 0.03944 0.25749 0.85547 0.0
C951 C 0.04106 0.39092 0.90544 0.0
H952 H 0.04044 0.38141 0.84669 0.0
C953 C 0.04041 0.32002 0.91054 0.0
C954 C 0.04055 0.27105 0.89266 0.0
H955 H 0.04187 0.42761 0.91962 0.0
H956 H 0.04098 0.30368 0.92838 0.0
C957 C 0.03966 0.29425 0.86965 0.0
C958 C 0.27465 0.89457 0.87576 0.0
C959 C 0.2704 0.91646 0.89856 0.0
H960 H 0.27366 0.80871 0.85227 0.0
C961 C 0.27176 0.86751 0.91633 0.0
H962 H 0.27476 0.93173 0.86173 0.0
C963 C 0.27181 0.79674 0.91087 0.0
C964 C 0.26997 0.77527 0.88768 0.0
H965 H 0.26939 0.88287 0.93414 0.0
H966 H 0.26976 0.75979 0.92479 0.0
C967 C 0.27411 0.82386 0.87025 0.0
C968 C 0.02737 0.11442 0.61198 0.0
C969 C 0.02529 0.1631 0.62984 0.0
H970 H 0.02656 0.00662 0.60328 0.0
C971 C 0.02947 0.14152 0.65262 0.0
H972 H 0.02508 0.12965 0.59419 0.0
C973 C 0.02957 0.07076 0.65797 0.0
C974 C 0.02611 0.02191 0.64042 0.0
H975 H 0.02905 0.17858 0.66672 0.0
H976 H 0.02904 0.05549 0.67592 0.0
C977 C 0.02808 0.04366 0.61729 0.0
C978 C 0.79668 0.56451 0.61636 0.0
C979 C 0.79587 0.5169 0.63456 0.0
H980 H 0.79936 0.6712 0.60661 0.0
C981 C 0.79466 0.5418 0.65739 0.0
H982 H 0.79755 0.5468 0.59865 0.0
C983 C 0.79568 0.61295 0.66202 0.0
C984 C 0.79809 0.66032 0.64389 0.0
H985 H 0.79373 0.50612 0.67179 0.0
H986 H 0.7956 0.63048 0.67977 0.0
C987 C 0.79787 0.63566 0.621 0.0
C988 C 0.02733 0.53365 0.1203 0.0
C989 C 0.02472 0.51327 0.14348 0.0
H990 H 0.02588 0.61868 0.09666 0.0
C991 C 0.02826 0.56261 0.16087 0.0
H992 H 0.02574 0.49603 0.10646 0.0
C993 C 0.02905 0.63306 0.15514 0.0
C994 C 0.0257 0.65396 0.13213 0.0
H995 H 0.02717 0.54826 0.17888 0.0
H996 H 0.02873 0.67083 0.16904 0.0
C997 C 0.02758 0.60414 0.11459 0.0
C998 C 0.79697 0.10716 0.1664 0.0
C999 C 0.79662 0.15578 0.1485 0.0
H1000 H 0.79872 -0.0003 0.17546 0.0
C1001 C 0.79506 0.13227 0.12554 0.0
H1002 H 0.79807 0.12385 0.1842 0.0
C1003 C 0.79539 0.06134 0.12047 0.0
C1004 C 0.79747 0.01282 0.13826 0.0
H1005 H 0.79444 0.16884 0.11137 0.0
H1006 H 0.79516 0.04483 0.10261 0.0
C1007 C 0.79748 0.03618 0.16131 0.0
C1008 C 0.50906 0.82422 0.91242 0.0
C1009 C 0.51182 0.7742 0.89507 0.0
H1010 H 0.5095 0.93266 0.92028 0.0
C1011 C 0.50881 0.79418 0.87192 0.0
H1012 H 0.51052 0.81027 0.93043 0.0
C1013 C 0.50887 0.86454 0.86601 0.0
C1014 C 0.51144 0.91472 0.88333 0.0
H1015 H 0.50985 0.75611 0.85815 0.0
H1016 H 0.51019 0.87854 0.84799 0.0
C1017 C 0.50859 0.89457 0.90651 0.0
C1018 C 0.73959 0.36467 0.9125 0.0
C1019 C 0.73904 0.4139 0.89478 0.0
H1020 H 0.73872 0.25685 0.92123 0.0
C1021 C 0.73994 0.39122 0.87168 0.0
H1022 H 0.73904 0.3807 0.9304 0.0
C1023 C 0.73985 0.3204 0.86636 0.0
C1024 C 0.73864 0.27124 0.88407 0.0
H1025 H 0.73987 0.42826 0.85763 0.0
H1026 H 0.73952 0.30439 0.84845 0.0
C1027 C 0.73929 0.29387 0.90718 0.0
C1028 C 0.5438 0.39133 0.40626 0.0
C1029 C 0.54488 0.41373 0.38315 0.0
H1030 H 0.54425 0.30493 0.42953 0.0
C1031 C 0.54462 0.36418 0.36545 0.0
H1032 H 0.54365 0.42859 0.4203 0.0
C1033 C 0.54503 0.29345 0.37081 0.0
C1034 C 0.54554 0.27115 0.39395 0.0
H1035 H 0.54532 0.37992 0.34755 0.0
H1036 H 0.54581 0.25626 0.35677 0.0
C1037 C 0.54404 0.3206 0.41161 0.0
C1038 C 0.77735 0.89134 0.37251 0.0
C1039 C 0.77432 0.91306 0.39553 0.0
H1040 H 0.77532 0.80551 0.34911 0.0
C1041 C 0.77672 0.8641 0.41318 0.0
H1042 H 0.77665 0.92852 0.35851 0.0
C1043 C 0.77657 0.79338 0.40771 0.0
C1044 C 0.77355 0.77201 0.38468 0.0
H1045 H 0.77533 0.8794 0.4311 0.0
H1046 H 0.77528 0.75633 0.42171 0.0
C1047 C 0.7767 0.82064 0.36704 0.0
C1048 C 0.52783 0.14817 0.15593 0.0
C1049 C 0.52502 0.16861 0.13279 0.0
H1050 H 0.52542 0.06388 0.17981 0.0
C1051 C 0.52724 0.11842 0.11541 0.0
H1052 H 0.52721 0.18626 0.16972 0.0
C1053 C 0.52686 0.04805 0.12127 0.0
C1054 C 0.52378 0.02813 0.14445 0.0
H1055 H 0.52594 0.13262 0.09741 0.0
H1056 H 0.52556 0.01016 0.10748 0.0
C1057 C 0.52691 0.07784 0.1618 0.0
C1058 C 0.29561 0.64265 0.11862 0.0
C1059 C 0.29539 0.6645 0.14185 0.0
H1060 H 0.29675 0.55657 0.09508 0.0
C1061 C 0.29317 0.61476 0.15927 0.0
H1062 H 0.29692 0.68011 0.10476 0.0
C1063 C 0.29308 0.54415 0.15364 0.0
C1064 C 0.29505 0.5222 0.13052 0.0
H1065 H 0.29276 0.63008 0.17724 0.0
H1066 H 0.29245 0.50661 0.16754 0.0
C1067 C 0.29535 0.57201 0.11299 0.0
C1068 C 0.52392 0.56581 0.66189 0.0
C1069 C 0.52096 0.5154 0.64472 0.0
H1070 H 0.52359 0.67442 0.6695 0.0
C1071 C 0.52366 0.53491 0.62146 0.0
H1072 H 0.52268 0.55223 0.67996 0.0
C1073 C 0.52354 0.60515 0.61539 0.0
C1074 C 0.52123 0.65569 0.63264 0.0
H1075 H 0.52245 0.49655 0.6078 0.0
H1076 H 0.52199 0.61877 0.59736 0.0
C1077 C 0.52432 0.63603 0.65581 0.0
C1078 C 0.29275 0.04341 0.65798 0.0
C1079 C 0.29349 0.02216 0.6347 0.0
H1080 H 0.29301 0.12882 0.68181 0.0
C1081 C 0.29218 0.0724 0.61736 0.0
H1082 H 0.29336 0.00553 0.67177 0.0
C1083 C 0.29204 0.1429 0.62319 0.0
C1084 C 0.29299 0.16421 0.64644 0.0
H1085 H 0.29256 0.05753 0.59935 0.0
H1086 H 0.29213 0.18082 0.6094 0.0
C1087 C 0.2924 0.1139 0.66381 0.0
loop_
_geom_bond_atom_site_label_1
_geom_bond_atom_site_label_2
_geom_bond_distance
_geom_bond_site_symmetry_2
_ccdc_geom_bond_type
Zn0 O3 2.031 . S
Zn0 O5 2.049 . S
Zn0 O10 2.067 . S
Zn1 O2 1.962 . S
Zn1 O4 1.986 . S
Zn1 O6 1.996 . S
Zn1 O9 1.943 . S
O2 Zn1 1.962 . S
O2 C7 1.254 . S
O3 Zn0 2.031 . S
O3 C7 1.269 . S
O4 Zn1 1.986 . S
O4 C11 1.262 . S
O5 Zn0 2.049 . S
O5 C13 1.260 . S
O6 Zn1 1.996 . S
O6 C13 1.257 . S
C7 O2 1.254 . S
C7 O3 1.269 . S
C8 O9 1.249 . S
C8 O10 1.270 . S
O9 Zn1 1.943 . S
O9 C8 1.249 . S
O10 Zn0 2.067 . S
O10 C8 1.270 . S
C11 O4 1.262 . S
C11 O12 1.232 . S
O12 C11 1.232 . S
C13 O5 1.260 . S
C13 O6 1.257 . S
Zn14 O17 2.031 . S
Zn14 O19 2.049 . S
Zn14 O24 2.067 . S
Zn15 O16 1.962 . S
Zn15 O18 1.986 . S
Zn15 O20 1.996 . S
Zn15 O23 1.943 . S
O16 Zn15 1.962 . S
O16 C21 1.254 . S
O17 Zn14 2.031 . S
O17 C21 1.269 . S
O18 Zn15 1.986 . S
O18 C25 1.262 . S
O19 Zn14 2.049 . S
O19 C27 1.260 1_545 S
O20 Zn15 1.996 . S
O20 C27 1.257 1_545 S
C21 O16 1.254 . S
C21 O17 1.269 . S
C22 O23 1.249 . S
C22 O24 1.270 . S
O23 Zn15 1.943 . S
O23 C22 1.249 . S
O24 Zn14 2.067 . S
O24 C22 1.270 . S
C25 O18 1.262 . S
C25 O26 1.232 . S
O26 C25 1.232 . S
C27 O19 1.260 1_565 S
C27 O20 1.257 1_565 S
Zn28 O31 2.031 . S
Zn28 O33 2.049 . S
Zn28 O38 2.067 . S
Zn29 O30 1.962 . S
Zn29 O32 1.986 . S
Zn29 O34 1.996 . S
Zn29 O37 1.943 . S
O30 Zn29 1.962 . S
O30 C35 1.254 . S
O31 Zn28 2.031 . S
O31 C35 1.269 . S
O32 Zn29 1.986 . S
O32 C39 1.262 . S
O33 Zn28 2.049 . S
O33 C41 1.260 1_545 S
O34 Zn29 1.996 . S
O34 C41 1.257 1_545 S
C35 O30 1.254 . S
C35 O31 1.269 . S
C36 O37 1.249 . S
C36 O38 1.270 . S
O37 Zn29 1.943 . S
O37 C36 1.249 . S
O38 Zn28 2.067 . S
O38 C36 1.270 . S
C39 O32 1.262 . S
C39 O40 1.232 . S
O40 C39 1.232 . S
C41 O33 1.260 1_565 S
C41 O34 1.257 1_565 S
Zn42 O45 2.031 . S
Zn42 O47 2.049 . S
Zn42 O52 2.067 . S
Zn43 O44 1.962 . S
Zn43 O46 1.986 . S
Zn43 O48 1.996 . S
Zn43 O51 1.943 . S
O44 Zn43 1.962 . S
O44 C49 1.254 . S
O45 Zn42 2.031 . S
O45 C49 1.269 . S
O46 Zn43 1.986 . S
O46 C53 1.262 . S
O47 Zn42 2.049 . S
O47 C55 1.260 . S
O48 Zn43 1.996 . S
O48 C55 1.257 . S
C49 O44 1.254 . S
C49 O45 1.269 . S
C50 O51 1.249 . S
C50 O52 1.270 . S
O51 Zn43 1.943 . S
O51 C50 1.249 . S
O52 Zn42 2.067 . S
O52 C50 1.270 . S
C53 O46 1.262 . S
C53 O54 1.232 . S
O54 C53 1.232 . S
C55 O47 1.260 . S
C55 O48 1.257 . S
Zn56 O59 2.031 . S
Zn56 O61 2.049 . S
Zn56 O66 2.067 . S
Zn57 O58 1.962 . S
Zn57 O60 1.986 . S
Zn57 O62 1.996 . S
Zn57 O65 1.943 . S
O58 Zn57 1.962 . S
O58 C63 1.254 . S
O59 Zn56 2.031 . S
O59 C63 1.269 . S
O60 Zn57 1.986 . S
O60 C67 1.262 . S
O61 Zn56 2.049 . S
O61 C69 1.260 . S
O62 Zn57 1.996 . S
O62 C69 1.257 . S
C63 O58 1.254 . S
C63 O59 1.269 . S
C64 O65 1.249 . S
C64 O66 1.270 . S
O65 Zn57 1.943 . S
O65 C64 1.249 . S
O66 Zn56 2.067 . S
O66 C64 1.270 . S
C67 O60 1.262 . S
C67 O68 1.232 . S
O68 C67 1.232 . S
C69 O61 1.260 . S
C69 O62 1.257 . S
Zn70 O73 2.031 . S
Zn70 O75 2.049 . S
Zn70 O80 2.067 . S
Zn71 O72 1.962 . S
Zn71 O74 1.986 . S
Zn71 O76 1.996 . S
Zn71 O79 1.943 . S
O72 Zn71 1.962 . S
O72 C77 1.254 . S
O73 Zn70 2.031 . S
O73 C77 1.269 . S
O74 Zn71 1.986 . S
O74 C81 1.262 . S
O75 Zn70 2.049 . S
O75 C83 1.260 1_565 S
O76 Zn71 1.996 . S
O76 C83 1.257 1_565 S
C77 O72 1.254 . S
C77 O73 1.269 . S
C78 O79 1.249 . S
C78 O80 1.270 . S
O79 Zn71 1.943 . S
O79 C78 1.249 . S
O80 Zn70 2.067 . S
O80 C78 1.270 . S
C81 O74 1.262 . S
C81 O82 1.232 . S
O82 C81 1.232 . S
C83 O75 1.260 1_545 S
C83 O76 1.257 1_545 S
Zn84 O87 2.031 . S
Zn84 O89 2.049 . S
Zn84 O94 2.067 . S
Zn85 O86 1.962 . S
Zn85 O88 1.986 . S
Zn85 O90 1.996 . S
Zn85 O93 1.943 . S
O86 Zn85 1.962 . S
O86 C91 1.254 . S
O87 Zn84 2.031 . S
O87 C91 1.269 . S
O88 Zn85 1.986 . S
O88 C95 1.262 . S
O89 Zn84 2.049 . S
O89 C97 1.260 1_565 S
O90 Zn85 1.996 . S
O90 C97 1.257 1_565 S
C91 O86 1.254 . S
C91 O87 1.269 . S
C92 O93 1.249 . S
C92 O94 1.270 . S
O93 Zn85 1.943 . S
O93 C92 1.249 . S
O94 Zn84 2.067 . S
O94 C92 1.270 . S
C95 O88 1.262 . S
C95 O96 1.232 . S
O96 C95 1.232 . S
C97 O89 1.260 1_545 S
C97 O90 1.257 1_545 S
Zn98 O101 2.031 . S
Zn98 O103 2.049 . S
Zn98 O108 2.067 . S
Zn99 O100 1.962 . S
Zn99 O102 1.986 . S
Zn99 O104 1.996 . S
Zn99 O107 1.943 . S
O100 Zn99 1.962 . S
O100 C105 1.254 . S
O101 Zn98 2.031 . S
O101 C105 1.269 . S
O102 Zn99 1.986 . S
O102 C109 1.262 . S
O103 Zn98 2.049 . S
O103 C111 1.260 . S
O104 Zn99 1.996 . S
O104 C111 1.257 . S
C105 O100 1.254 . S
C105 O101 1.269 . S
C106 O107 1.249 . S
C106 O108 1.270 . S
O107 Zn99 1.943 . S
O107 C106 1.249 . S
O108 Zn98 2.067 . S
O108 C106 1.270 . S
C109 O102 1.262 . S
C109 O110 1.232 . S
O110 C109 1.232 . S
C111 O103 1.260 . S
C111 O104 1.257 . S
Zn112 O115 2.031 . S
Zn112 O117 2.049 . S
Zn112 O122 2.067 . S
Zn113 O114 1.962 . S
Zn113 O116 1.986 . S
Zn113 O118 1.996 . S
Zn113 O121 1.943 . S
O114 Zn113 1.962 . S
O114 C119 1.254 . S
O115 Zn112 2.031 . S
O115 C119 1.269 . S
O116 Zn113 1.986 . S
O116 C123 1.262 . S
O117 Zn112 2.049 . S
O117 C125 1.260 . S
O118 Zn113 1.996 . S
O118 C125 1.257 . S
C119 O114 1.254 . S
C119 O115 1.269 . S
C120 O121 1.249 . S
C120 O122 1.270 . S
O121 Zn113 1.943 . S
O121 C120 1.249 . S
O122 Zn112 2.067 . S
O122 C120 1.270 . S
C123 O116 1.262 . S
C123 O124 1.232 . S
O124 C123 1.232 . S
C125 O117 1.260 . S
C125 O118 1.257 . S
Zn126 O129 2.031 . S
Zn126 O131 2.049 . S
Zn126 O136 2.067 . S
Zn127 O128 1.962 . S
Zn127 O130 1.986 . S
Zn127 O132 1.996 . S
Zn127 O135 1.943 . S
O128 Zn127 1.962 . S
O128 C133 1.254 . S
O129 Zn126 2.031 . S
O129 C133 1.269 . S
O130 Zn127 1.986 . S
O130 C137 1.262 . S
O131 Zn126 2.049 . S
O131 C139 1.260 . S
O132 Zn127 1.996 . S
O132 C139 1.257 . S
C133 O128 1.254 . S
C133 O129 1.269 . S
C134 O135 1.249 . S
C134 O136 1.270 . S
O135 Zn127 1.943 . S
O135 C134 1.249 . S
O136 Zn126 2.067 . S
O136 C134 1.270 . S
C137 O130 1.262 . S
C137 O138 1.232 . S
O138 C137 1.232 . S
C139 O131 1.260 . S
C139 O132 1.257 . S
Zn140 O143 2.031 . S
Zn140 O145 2.049 . S
Zn140 O150 2.067 . S
Zn141 O142 1.962 . S
Zn141 O144 1.986 . S
Zn141 O146 1.996 . S
Zn141 O149 1.943 . S
O142 Zn141 1.962 . S
O142 C147 1.254 . S
O143 Zn140 2.031 . S
O143 C147 1.269 . S
O144 Zn141 1.986 . S
O144 C151 1.262 . S
O145 Zn140 2.049 . S
O145 C153 1.260 . S
O146 Zn141 1.996 . S
O146 C153 1.257 . S
C147 O142 1.254 . S
C147 O143 1.269 . S
C148 O149 1.249 . S
C148 O150 1.270 . S
O149 Zn141 1.943 . S
O149 C148 1.249 . S
O150 Zn140 2.067 . S
O150 C148 1.270 . S
C151 O144 1.262 . S
C151 O152 1.232 . S
O152 C151 1.232 . S
C153 O145 1.260 . S
C153 O146 1.257 . S
Zn154 O157 2.031 . S
Zn154 O159 2.049 . S
Zn154 O164 2.067 . S
Zn155 O156 1.962 . S
Zn155 O158 1.986 . S
Zn155 O160 1.996 . S
Zn155 O163 1.943 . S
O156 Zn155 1.962 . S
O156 C161 1.254 . S
O157 Zn154 2.031 . S
O157 C161 1.269 . S
O158 Zn155 1.986 . S
O158 C165 1.262 . S
O159 Zn154 2.049 . S
O159 C167 1.260 . S
O160 Zn155 1.996 . S
O160 C167 1.257 . S
C161 O156 1.254 . S
C161 O157 1.269 . S
C162 O163 1.249 . S
C162 O164 1.270 . S
O163 Zn155 1.943 . S
O163 C162 1.249 . S
O164 Zn154 2.067 . S
O164 C162 1.270 . S
C165 O158 1.262 . S
C165 O166 1.232 . S
O166 C165 1.232 . S
C167 O159 1.260 . S
C167 O160 1.257 . S
Zn168 O171 2.031 . S
Zn168 O173 2.049 . S
Zn168 O178 2.067 . S
Zn169 O170 1.962 . S
Zn169 O172 1.986 . S
Zn169 O174 1.996 . S
Zn169 O177 1.943 . S
O170 Zn169 1.962 . S
O170 C175 1.254 . S
O171 Zn168 2.031 . S
O171 C175 1.269 . S
O172 Zn169 1.986 . S
O172 C179 1.262 . S
O173 Zn168 2.049 . S
O173 C181 1.260 . S
O174 Zn169 1.996 . S
O174 C181 1.257 . S
C175 O170 1.254 . S
C175 O171 1.269 . S
C176 O177 1.249 . S
C176 O178 1.270 . S
O177 Zn169 1.943 . S
O177 C176 1.249 . S
O178 Zn168 2.067 . S
O178 C176 1.270 . S
C179 O172 1.262 . S
C179 O180 1.232 . S
O180 C179 1.232 . S
C181 O173 1.260 . S
C181 O174 1.257 . S
Zn182 O185 2.031 . S
Zn182 O187 2.049 . S
Zn182 O192 2.067 . S
Zn183 O184 1.962 . S
Zn183 O186 1.986 . S
Zn183 O188 1.996 . S
Zn183 O191 1.943 . S
O184 Zn183 1.962 . S
O184 C189 1.254 . S
O185 Zn182 2.031 . S
O185 C189 1.269 . S
O186 Zn183 1.986 . S
O186 C193 1.262 . S
O187 Zn182 2.049 . S
O187 C195 1.260 . S
O188 Zn183 1.996 . S
O188 C195 1.257 . S
C189 O184 1.254 . S
C189 O185 1.269 . S
C190 O191 1.249 . S
C190 O192 1.270 . S
O191 Zn183 1.943 . S
O191 C190 1.249 . S
O192 Zn182 2.067 . S
O192 C190 1.270 . S
C193 O186 1.262 . S
C193 O194 1.232 . S
O194 C193 1.232 . S
C195 O187 1.260 . S
C195 O188 1.257 . S
Zn196 O199 2.031 . S
Zn196 O201 2.049 . S
Zn196 O206 2.067 . S
Zn197 O198 1.962 . S
Zn197 O200 1.986 . S
Zn197 O202 1.996 . S
Zn197 O205 1.943 . S
O198 Zn197 1.962 . S
O198 C203 1.254 . S
O199 Zn196 2.031 . S
O199 C203 1.269 . S
O200 Zn197 1.986 . S
O200 C207 1.262 . S
O201 Zn196 2.049 . S
O201 C209 1.260 . S
O202 Zn197 1.996 . S
O202 C209 1.257 . S
C203 O198 1.254 . S
C203 O199 1.269 . S
C204 O205 1.249 . S
C204 O206 1.270 . S
O205 Zn197 1.943 . S
O205 C204 1.249 . S
O206 Zn196 2.067 . S
O206 C204 1.270 . S
C207 O200 1.262 . S
C207 O208 1.232 . S
O208 C207 1.232 . S
C209 O201 1.260 . S
C209 O202 1.257 . S
Zn210 O213 2.031 . S
Zn210 O215 2.049 . S
Zn210 O220 2.067 . S
Zn211 O212 1.962 . S
Zn211 O214 1.986 . S
Zn211 O216 1.996 . S
Zn211 O219 1.943 . S
O212 Zn211 1.962 . S
O212 C217 1.254 . S
O213 Zn210 2.031 . S
O213 C217 1.269 . S
O214 Zn211 1.986 . S
O214 C221 1.262 . S
O215 Zn210 2.049 . S
O215 C223 1.260 . S
O216 Zn211 1.996 . S
O216 C223 1.257 . S
C217 O212 1.254 . S
C217 O213 1.269 . S
C218 O219 1.249 . S
C218 O220 1.270 . S
O219 Zn211 1.943 . S
O219 C218 1.249 . S
O220 Zn210 2.067 . S
O220 C218 1.270 . S
C221 O214 1.262 . S
C221 O222 1.232 . S
O222 C221 1.232 . S
C223 O215 1.260 . S
C223 O216 1.257 . S
Zn224 O227 2.031 . S
Zn224 O229 2.049 . S
Zn224 O234 2.067 . S
Zn225 O226 1.962 . S
Zn225 O228 1.986 . S
Zn225 O230 1.996 . S
Zn225 O233 1.943 . S
O226 Zn225 1.962 . S
O226 C231 1.254 . S
O227 Zn224 2.031 . S
O227 C231 1.269 . S
O228 Zn225 1.986 . S
O228 C235 1.262 . S
O229 Zn224 2.049 . S
O229 C237 1.260 . S
O230 Zn225 1.996 . S
O230 C237 1.257 . S
C231 O226 1.254 . S
C231 O227 1.269 . S
C232 O233 1.249 . S
C232 O234 1.270 . S
O233 Zn225 1.943 . S
O233 C232 1.249 . S
O234 Zn224 2.067 . S
O234 C232 1.270 . S
C235 O228 1.262 . S
C235 O236 1.232 . S
O236 C235 1.232 . S
C237 O229 1.260 . S
C237 O230 1.257 . S
Zn238 O241 2.031 . S
Zn238 O243 2.049 . S
Zn238 O248 2.067 . S
Zn239 O240 1.962 . S
Zn239 O242 1.986 . S
Zn239 O244 1.996 . S
Zn239 O247 1.943 . S
O240 Zn239 1.962 . S
O240 C245 1.254 . S
O241 Zn238 2.031 . S
O241 C245 1.269 . S
O242 Zn239 1.986 . S
O242 C249 1.262 . S
O243 Zn238 2.049 . S
O243 C251 1.260 1_545 S
O244 Zn239 1.996 . S
O244 C251 1.257 1_545 S
C245 O240 1.254 . S
C245 O241 1.269 . S
C246 O247 1.249 . S
C246 O248 1.270 . S
O247 Zn239 1.943 . S
O247 C246 1.249 . S
O248 Zn238 2.067 . S
O248 C246 1.270 . S
C249 O242 1.262 . S
C249 O250 1.232 . S
O250 C249 1.232 . S
C251 O243 1.260 1_565 S
C251 O244 1.257 1_565 S
Zn252 O255 2.031 . S
Zn252 O257 2.049 . S
Zn252 O262 2.067 . S
Zn253 O254 1.962 . S
Zn253 O256 1.986 . S
Zn253 O258 1.996 . S
Zn253 O261 1.943 . S
O254 Zn253 1.962 . S
O254 C259 1.254 . S
O255 Zn252 2.031 . S
O255 C259 1.269 . S
O256 Zn253 1.986 . S
O256 C263 1.262 . S
O257 Zn252 2.049 . S
O257 C265 1.260 1_545 S
O258 Zn253 1.996 . S
O258 C265 1.257 1_545 S
C259 O254 1.254 . S
C259 O255 1.269 . S
C260 O261 1.249 . S
C260 O262 1.270 . S
O261 Zn253 1.943 . S
O261 C260 1.249 . S
O262 Zn252 2.067 . S
O262 C260 1.270 . S
C263 O256 1.262 . S
C263 O264 1.232 . S
O264 C263 1.232 . S
C265 O257 1.260 1_565 S
C265 O258 1.257 1_565 S
Zn266 O269 2.031 . S
Zn266 O271 2.049 . S
Zn266 O276 2.067 . S
Zn267 O268 1.962 . S
Zn267 O270 1.986 . S
Zn267 O272 1.996 . S
Zn267 O275 1.943 . S
O268 Zn267 1.962 . S
O268 C273 1.254 . S
O269 Zn266 2.031 . S
O269 C273 1.269 . S
O270 Zn267 1.986 . S
O270 C277 1.262 . S
O271 Zn266 2.049 . S
O271 C279 1.260 . S
O272 Zn267 1.996 . S
O272 C279 1.257 . S
C273 O268 1.254 . S
C273 O269 1.269 . S
C274 O275 1.249 . S
C274 O276 1.270 . S
O275 Zn267 1.943 . S
O275 C274 1.249 . S
O276 Zn266 2.067 . S
O276 C274 1.270 . S
C277 O270 1.262 . S
C277 O278 1.232 . S
O278 C277 1.232 . S
C279 O271 1.260 . S
C279 O272 1.257 . S
Zn280 O283 2.031 . S
Zn280 O285 2.049 . S
Zn280 O290 2.067 . S
Zn281 O282 1.962 . S
Zn281 O284 1.986 . S
Zn281 O286 1.996 . S
Zn281 O289 1.943 . S
O282 Zn281 1.962 . S
O282 C287 1.254 . S
O283 Zn280 2.031 . S
O283 C287 1.269 . S
O284 Zn281 1.986 . S
O284 C291 1.262 . S
O285 Zn280 2.049 . S
O285 C293 1.260 . S
O286 Zn281 1.996 . S
O286 C293 1.257 . S
C287 O282 1.254 . S
C287 O283 1.269 . S
C288 O289 1.249 . S
C288 O290 1.270 . S
O289 Zn281 1.943 . S
O289 C288 1.249 . S
O290 Zn280 2.067 . S
O290 C288 1.270 . S
C291 O284 1.262 . S
C291 O292 1.232 . S
O292 C291 1.232 . S
C293 O285 1.260 . S
C293 O286 1.257 . S
Zn294 O297 2.031 . S
Zn294 O299 2.049 . S
Zn294 O304 2.067 . S
Zn295 O296 1.962 . S
Zn295 O298 1.986 . S
Zn295 O300 1.996 . S
Zn295 O303 1.943 . S
O296 Zn295 1.962 . S
O296 C301 1.254 . S
O297 Zn294 2.031 . S
O297 C301 1.269 . S
O298 Zn295 1.986 . S
O298 C305 1.262 . S
O299 Zn294 2.049 . S
O299 C307 1.260 1_565 S
O300 Zn295 1.996 . S
O300 C307 1.257 1_565 S
C301 O296 1.254 . S
C301 O297 1.269 . S
C302 O303 1.249 . S
C302 O304 1.270 . S
O303 Zn295 1.943 . S
O303 C302 1.249 . S
O304 Zn294 2.067 . S
O304 C302 1.270 . S
C305 O298 1.262 . S
C305 O306 1.232 . S
O306 C305 1.232 . S
C307 O299 1.260 1_545 S
C307 O300 1.257 1_545 S
Zn308 O311 2.031 . S
Zn308 O313 2.049 . S
Zn308 O318 2.067 . S
Zn309 O310 1.962 . S
Zn309 O312 1.986 . S
Zn309 O314 1.996 . S
Zn309 O317 1.943 . S
O310 Zn309 1.962 . S
O310 C315 1.254 . S
O311 Zn308 2.031 . S
O311 C315 1.269 . S
O312 Zn309 1.986 . S
O312 C319 1.262 . S
O313 Zn308 2.049 . S
O313 C321 1.260 1_565 S
O314 Zn309 1.996 . S
O314 C321 1.257 1_565 S
C315 O310 1.254 . S
C315 O311 1.269 . S
C316 O317 1.249 . S
C316 O318 1.270 . S
O317 Zn309 1.943 . S
O317 C316 1.249 . S
O318 Zn308 2.067 . S
O318 C316 1.270 . S
C319 O312 1.262 . S
C319 O320 1.232 . S
O320 C319 1.232 . S
C321 O313 1.260 1_545 S
C321 O314 1.257 1_545 S
Zn322 O325 2.031 . S
Zn322 O327 2.049 . S
Zn322 O332 2.067 . S
Zn323 O324 1.962 . S
Zn323 O326 1.986 . S
Zn323 O328 1.996 . S
Zn323 O331 1.943 . S
O324 Zn323 1.962 . S
O324 C329 1.254 . S
O325 Zn322 2.031 . S
O325 C329 1.269 . S
O326 Zn323 1.986 . S
O326 C333 1.262 . S
O327 Zn322 2.049 . S
O327 C335 1.260 . S
O328 Zn323 1.996 . S
O328 C335 1.257 . S
C329 O324 1.254 . S
C329 O325 1.269 . S
C330 O331 1.249 . S
C330 O332 1.270 . S
O331 Zn323 1.943 . S
O331 C330 1.249 . S
O332 Zn322 2.067 . S
O332 C330 1.270 . S
C333 O326 1.262 . S
C333 O334 1.232 . S
O334 C333 1.232 . S
C335 O327 1.260 . S
C335 O328 1.257 . S
Zn336 O339 2.031 . S
Zn336 O341 2.049 . S
Zn336 O346 2.067 . S
Zn337 O338 1.962 . S
Zn337 O340 1.986 . S
Zn337 O342 1.996 . S
Zn337 O345 1.943 . S
O338 Zn337 1.962 . S
O338 C343 1.254 . S
O339 Zn336 2.031 . S
O339 C343 1.269 . S
O340 Zn337 1.986 . S
O340 C347 1.262 . S
O341 Zn336 2.049 . S
O341 C349 1.260 . S
O342 Zn337 1.996 . S
O342 C349 1.257 . S
C343 O338 1.254 . S
C343 O339 1.269 . S
C344 O345 1.249 . S
C344 O346 1.270 . S
O345 Zn337 1.943 . S
O345 C344 1.249 . S
O346 Zn336 2.067 . S
O346 C344 1.270 . S
C347 O340 1.262 . S
C347 O348 1.232 . S
O348 C347 1.232 . S
C349 O341 1.260 . S
C349 O342 1.257 . S
Zn350 O353 2.031 . S
Zn350 O355 2.049 . S
Zn350 O360 2.067 . S
Zn351 O352 1.962 . S
Zn351 O354 1.986 . S
Zn351 O356 1.996 . S
Zn351 O359 1.943 . S
O352 Zn351 1.962 . S
O352 C357 1.254 . S
O353 Zn350 2.031 . S
O353 C357 1.269 . S
O354 Zn351 1.986 . S
O354 C361 1.262 . S
O355 Zn350 2.049 . S
O355 C363 1.260 . S
O356 Zn351 1.996 . S
O356 C363 1.257 . S
C357 O352 1.254 . S
C357 O353 1.269 . S
C358 O359 1.249 . S
C358 O360 1.270 . S
O359 Zn351 1.943 . S
O359 C358 1.249 . S
O360 Zn350 2.067 . S
O360 C358 1.270 . S
C361 O354 1.262 . S
C361 O362 1.232 . S
O362 C361 1.232 . S
C363 O355 1.260 . S
C363 O356 1.257 . S
Zn364 O367 2.031 . S
Zn364 O369 2.049 . S
Zn364 O374 2.067 . S
Zn365 O366 1.962 . S
Zn365 O368 1.986 . S
Zn365 O370 1.996 . S
Zn365 O373 1.943 . S
O366 Zn365 1.962 . S
O366 C371 1.254 . S
O367 Zn364 2.031 . S
O367 C371 1.269 . S
O368 Zn365 1.986 . S
O368 C375 1.262 . S
O369 Zn364 2.049 . S
O369 C377 1.260 . S
O370 Zn365 1.996 . S
O370 C377 1.257 . S
C371 O366 1.254 . S
C371 O367 1.269 . S
C372 O373 1.249 . S
C372 O374 1.270 . S
O373 Zn365 1.943 . S
O373 C372 1.249 . S
O374 Zn364 2.067 . S
O374 C372 1.270 . S
C375 O368 1.262 . S
C375 O376 1.232 . S
O376 C375 1.232 . S
C377 O369 1.260 . S
C377 O370 1.257 . S
Zn378 O381 2.031 . S
Zn378 O383 2.049 . S
Zn378 O388 2.067 . S
Zn379 O380 1.962 . S
Zn379 O382 1.986 . S
Zn379 O384 1.996 . S
Zn379 O387 1.943 . S
O380 Zn379 1.962 . S
O380 C385 1.254 . S
O381 Zn378 2.031 . S
O381 C385 1.269 . S
O382 Zn379 1.986 . S
O382 C389 1.262 . S
O383 Zn378 2.049 . S
O383 C391 1.260 . S
O384 Zn379 1.996 . S
O384 C391 1.257 . S
C385 O380 1.254 . S
C385 O381 1.269 . S
C386 O387 1.249 . S
C386 O388 1.270 . S
O387 Zn379 1.943 . S
O387 C386 1.249 . S
O388 Zn378 2.067 . S
O388 C386 1.270 . S
C389 O382 1.262 . S
C389 O390 1.232 . S
O390 C389 1.232 . S
C391 O383 1.260 . S
C391 O384 1.257 . S
Zn392 O395 2.031 . S
Zn392 O397 2.049 . S
Zn392 O402 2.067 . S
Zn393 O394 1.962 . S
Zn393 O396 1.986 . S
Zn393 O398 1.996 . S
Zn393 O401 1.943 . S
O394 Zn393 1.962 . S
O394 C399 1.254 . S
O395 Zn392 2.031 . S
O395 C399 1.269 . S
O396 Zn393 1.986 . S
O396 C403 1.262 . S
O397 Zn392 2.049 . S
O397 C405 1.260 . S
O398 Zn393 1.996 . S
O398 C405 1.257 . S
C399 O394 1.254 . S
C399 O395 1.269 . S
C400 O401 1.249 . S
C400 O402 1.270 . S
O401 Zn393 1.943 . S
O401 C400 1.249 . S
O402 Zn392 2.067 . S
O402 C400 1.270 . S
C403 O396 1.262 . S
C403 O404 1.232 . S
O404 C403 1.232 . S
C405 O397 1.260 . S
C405 O398 1.257 . S
Zn406 O409 2.031 . S
Zn406 O411 2.049 . S
Zn406 O416 2.067 . S
Zn407 O408 1.962 . S
Zn407 O410 1.986 . S
Zn407 O412 1.996 . S
Zn407 O415 1.943 . S
O408 Zn407 1.962 . S
O408 C413 1.254 . S
O409 Zn406 2.031 . S
O409 C413 1.269 . S
O410 Zn407 1.986 . S
O410 C417 1.262 . S
O411 Zn406 2.049 . S
O411 C419 1.260 . S
O412 Zn407 1.996 . S
O412 C419 1.257 . S
C413 O408 1.254 . S
C413 O409 1.269 . S
C414 O415 1.249 . S
C414 O416 1.270 . S
O415 Zn407 1.943 . S
O415 C414 1.249 . S
O416 Zn406 2.067 . S
O416 C414 1.270 . S
C417 O410 1.262 . S
C417 O418 1.232 . S
O418 C417 1.232 . S
C419 O411 1.260 . S
C419 O412 1.257 . S
Zn420 O423 2.031 . S
Zn420 O425 2.049 . S
Zn420 O430 2.067 . S
Zn421 O422 1.962 . S
Zn421 O424 1.986 . S
Zn421 O426 1.996 . S
Zn421 O429 1.943 . S
O422 Zn421 1.962 . S
O422 C427 1.254 . S
O423 Zn420 2.031 . S
O423 C427 1.269 . S
O424 Zn421 1.986 . S
O424 C431 1.262 . S
O425 Zn420 2.049 . S
O425 C433 1.260 . S
O426 Zn421 1.996 . S
O426 C433 1.257 . S
C427 O422 1.254 . S
C427 O423 1.269 . S
C428 O429 1.249 . S
C428 O430 1.270 . S
O429 Zn421 1.943 . S
O429 C428 1.249 . S
O430 Zn420 2.067 . S
O430 C428 1.270 . S
C431 O424 1.262 . S
C431 O432 1.232 . S
O432 C431 1.232 . S
C433 O425 1.260 . S
C433 O426 1.257 . S
Zn434 O437 2.031 . S
Zn434 O439 2.049 . S
Zn434 O444 2.067 . S
Zn435 O436 1.962 . S
Zn435 O438 1.986 . S
Zn435 O440 1.996 . S
Zn435 O443 1.943 . S
O436 Zn435 1.962 . S
O436 C441 1.254 . S
O437 Zn434 2.031 . S
O437 C441 1.269 . S
O438 Zn435 1.986 . S
O438 C445 1.262 . S
O439 Zn434 2.049 . S
O439 C447 1.260 . S
O440 Zn435 1.996 . S
O440 C447 1.257 . S
C441 O436 1.254 . S
C441 O437 1.269 . S
C442 O443 1.249 . S
C442 O444 1.270 . S
O443 Zn435 1.943 . S
O443 C442 1.249 . S
O444 Zn434 2.067 . S
O444 C442 1.270 . S
C445 O438 1.262 . S
C445 O446 1.232 . S
O446 C445 1.232 . S
C447 O439 1.260 . S
C447 O440 1.257 . S
C448 C449 1.387 . S
C448 H452 0.950 . S
C448 C457 1.390 . S
C449 C448 1.387 . S
C449 C451 1.387 . S
H450 C457 0.950 . S
C451 C449 1.387 . S
C451 C453 1.390 . S
C451 H455 0.950 . S
H452 C448 0.950 . S
C453 C451 1.390 . S
C453 C454 1.387 . S
C453 H456 0.950 . S
C454 C453 1.387 . S
C454 C457 1.387 . S
H455 C451 0.950 . S
H456 C453 0.950 . S
C457 C448 1.390 . S
C457 H450 0.950 . S
C457 C454 1.387 . S
C458 C459 1.387 . S
C458 H462 0.950 . S
C458 C467 1.390 . S
C459 C458 1.387 . S
C459 C461 1.387 . S
H460 C467 0.950 . S
C461 C459 1.387 . S
C461 C463 1.390 . S
C461 H465 0.950 . S
H462 C458 0.950 . S
C463 C461 1.390 . S
C463 C464 1.387 . S
C463 H466 0.950 . S
C464 C463 1.387 . S
C464 C467 1.387 . S
H465 C461 0.950 . S
H466 C463 0.950 . S
C467 C458 1.390 . S
C467 H460 0.950 . S
C467 C464 1.387 . S
C468 C469 1.387 . S
C468 H472 0.950 . S
C468 C477 1.390 . S
C469 C468 1.387 . S
C469 C471 1.387 . S
H470 C477 0.950 . S
C471 C469 1.387 . S
C471 C473 1.390 . S
C471 H475 0.950 . S
H472 C468 0.950 . S
C473 C471 1.390 . S
C473 C474 1.387 . S
C473 H476 0.950 . S
C474 C473 1.387 . S
C474 C477 1.387 . S
H475 C471 0.950 . S
H476 C473 0.950 . S
C477 C468 1.390 . S
C477 H470 0.950 . S
C477 C474 1.387 . S
C478 C479 1.387 . S
C478 H482 0.950 . S
C478 C487 1.390 . S
C479 C478 1.387 . S
C479 C481 1.387 . S
H480 C487 0.950 . S
C481 C479 1.387 . S
C481 C483 1.390 . S
C481 H485 0.950 . S
H482 C478 0.950 . S
C483 C481 1.390 . S
C483 C484 1.387 . S
C483 H486 0.950 . S
C484 C483 1.387 . S
C484 C487 1.387 . S
H485 C481 0.950 . S
H486 C483 0.950 . S
C487 C478 1.390 . S
C487 H480 0.950 . S
C487 C484 1.387 . S
C488 C489 1.387 . S
C488 H492 0.950 . S
C488 C497 1.390 . S
C489 C488 1.387 . S
C489 C491 1.387 . S
H490 C497 0.950 . S
C491 C489 1.387 . S
C491 C493 1.390 . S
C491 H495 0.950 . S
H492 C488 0.950 . S
C493 C491 1.390 . S
C493 C494 1.387 . S
C493 H496 0.950 . S
C494 C493 1.387 . S
C494 C497 1.387 . S
H495 C491 0.950 . S
H496 C493 0.950 . S
C497 C488 1.390 . S
C497 H490 0.950 . S
C497 C494 1.387 . S
C498 C499 1.387 . S
C498 H502 0.950 . S
C498 C507 1.390 . S
C499 C498 1.387 . S
C499 C501 1.387 . S
H500 C507 0.950 . S
C501 C499 1.387 . S
C501 C503 1.390 . S
C501 H505 0.950 . S
H502 C498 0.950 . S
C503 C501 1.390 . S
C503 C504 1.387 . S
C503 H506 0.950 . S
C504 C503 1.387 . S
C504 C507 1.387 . S
H505 C501 0.950 . S
H506 C503 0.950 . S
C507 C498 1.390 . S
C507 H500 0.950 . S
C507 C504 1.387 . S
C508 C509 1.387 . S
C508 H512 0.950 . S
C508 C517 1.390 . S
C509 C508 1.387 . S
C509 C511 1.387 . S
H510 C517 0.950 . S
C511 C509 1.387 . S
C511 C513 1.390 . S
C511 H515 0.950 . S
H512 C508 0.950 . S
C513 C511 1.390 . S
C513 C514 1.387 . S
C513 H516 0.950 . S
C514 C513 1.387 . S
C514 C517 1.387 . S
H515 C511 0.950 . S
H516 C513 0.950 . S
C517 C508 1.390 . S
C517 H510 0.950 . S
C517 C514 1.387 . S
C518 C519 1.387 . S
C518 H522 0.950 . S
C518 C527 1.390 . S
C519 C518 1.387 . S
C519 C521 1.387 . S
H520 C527 0.950 . S
C521 C519 1.387 . S
C521 C523 1.390 . S
C521 H525 0.950 . S
H522 C518 0.950 . S
C523 C521 1.390 . S
C523 C524 1.387 . S
C523 H526 0.950 . S
C524 C523 1.387 . S
C524 C527 1.387 . S
H525 C521 0.950 . S
H526 C523 0.950 . S
C527 C518 1.390 . S
C527 H520 0.950 . S
C527 C524 1.387 . S
C528 C529 1.387 . S
C528 H532 0.950 . S
C528 C537 1.390 . S
C529 C528 1.387 . S
C529 C531 1.387 . S
H530 C537 0.950 . S
C531 C529 1.387 . S
C531 C533 1.390 . S
C531 H535 0.950 . S
H532 C528 0.950 . S
C533 C531 1.390 . S
C533 C534 1.387 . S
C533 H536 0.950 . S
C534 C533 1.387 . S
C534 C537 1.387 . S
H535 C531 0.950 . S
H536 C533 0.950 . S
C537 C528 1.390 . S
C537 H530 0.950 . S
C537 C534 1.387 . S
C538 C539 1.387 . S
C538 H542 0.950 . S
C538 C547 1.390 . S
C539 C538 1.387 . S
C539 C541 1.387 . S
H540 C547 0.950 . S
C541 C539 1.387 . S
C541 C543 1.390 . S
C541 H545 0.950 . S
H542 C538 0.950 . S
C543 C541 1.390 . S
C543 C544 1.387 . S
C543 H546 0.950 . S
C544 C543 1.387 . S
C544 C547 1.387 . S
H545 C541 0.950 . S
H546 C543 0.950 . S
C547 C538 1.390 . S
C547 H540 0.950 . S
C547 C544 1.387 . S
C548 C549 1.387 . S
C548 H552 0.950 . S
C548 C557 1.390 . S
C549 C548 1.387 . S
C549 C551 1.387 . S
H550 C557 0.950 . S
C551 C549 1.387 . S
C551 C553 1.390 . S
C551 H555 0.950 . S
H552 C548 0.950 . S
C553 C551 1.390 . S
C553 C554 1.387 . S
C553 H556 0.950 . S
C554 C553 1.387 . S
C554 C557 1.387 . S
H555 C551 0.950 . S
H556 C553 0.950 . S
C557 C548 1.390 . S
C557 H550 0.950 . S
C557 C554 1.387 . S
C558 C559 1.387 . S
C558 H562 0.950 . S
C558 C567 1.390 . S
C559 C558 1.387 . S
C559 C561 1.387 . S
H560 C567 0.950 . S
C561 C559 1.387 . S
C561 C563 1.390 . S
C561 H565 0.950 . S
H562 C558 0.950 . S
C563 C561 1.390 . S
C563 C564 1.387 . S
C563 H566 0.950 . S
C564 C563 1.387 . S
C564 C567 1.387 . S
H565 C561 0.950 . S
H566 C563 0.950 . S
C567 C558 1.390 . S
C567 H560 0.950 . S
C567 C564 1.387 . S
C568 C569 1.387 . S
C568 H572 0.950 . S
C568 C577 1.390 . S
C569 C568 1.387 . S
C569 C571 1.387 . S
H570 C577 0.950 . S
C571 C569 1.387 . S
C571 C573 1.390 . S
C571 H575 0.950 . S
H572 C568 0.950 . S
C573 C571 1.390 . S
C573 C574 1.387 . S
C573 H576 0.950 . S
C574 C573 1.387 . S
C574 C577 1.387 . S
H575 C571 0.950 . S
H576 C573 0.950 . S
C577 C568 1.390 . S
C577 H570 0.950 . S
C577 C574 1.387 . S
C578 C579 1.387 . S
C578 H582 0.950 . S
C578 C587 1.390 . S
C579 C578 1.387 . S
C579 C581 1.387 . S
H580 C587 0.950 . S
C581 C579 1.387 . S
C581 C583 1.390 . S
C581 H585 0.950 . S
H582 C578 0.950 . S
C583 C581 1.390 . S
C583 C584 1.387 . S
C583 H586 0.950 . S
C584 C583 1.387 . S
C584 C587 1.387 . S
H585 C581 0.950 . S
H586 C583 0.950 . S
C587 C578 1.390 . S
C587 H580 0.950 . S
C587 C584 1.387 . S
C588 C589 1.387 . S
C588 H592 0.950 . S
C588 C597 1.390 . S
C589 C588 1.387 . S
C589 C591 1.387 . S
H590 C597 0.950 . S
C591 C589 1.387 . S
C591 C593 1.390 . S
C591 H595 0.950 . S
H592 C588 0.950 . S
C593 C591 1.390 . S
C593 C594 1.387 . S
C593 H596 0.950 . S
C594 C593 1.387 . S
C594 C597 1.387 . S
H595 C591 0.950 . S
H596 C593 0.950 . S
C597 C588 1.390 . S
C597 H590 0.950 . S
C597 C594 1.387 . S
C598 C599 1.387 . S
C598 H602 0.950 . S
C598 C607 1.390 . S
C599 C598 1.387 . S
C599 C601 1.387 . S
H600 C607 0.950 . S
C601 C599 1.387 . S
C601 C603 1.390 . S
C601 H605 0.950 . S
H602 C598 0.950 . S
C603 C601 1.390 . S
C603 C604 1.387 . S
C603 H606 0.950 . S
C604 C603 1.387 . S
C604 C607 1.387 . S
H605 C601 0.950 . S
H606 C603 0.950 . S
C607 C598 1.390 . S
C607 H600 0.950 . S
C607 C604 1.387 . S
C608 C609 1.387 1_655 S
C608 H612 0.950 . S
C608 C617 1.390 . S
C609 C608 1.387 1_455 S
C609 C611 1.387 . S
H610 C617 0.950 . S
C611 C609 1.387 . S
C611 C613 1.390 . S
C611 H615 0.950 . S
H612 C608 0.950 . S
C613 C611 1.390 . S
C613 C614 1.387 1_455 S
C613 H616 0.950 . S
C614 C613 1.387 1_655 S
C614 C617 1.387 . S
H615 C611 0.950 . S
H616 C613 0.950 . S
C617 C608 1.390 . S
C617 H610 0.950 . S
C617 C614 1.387 . S
C618 C619 1.387 1_565 S
C618 H622 0.950 . S
C618 C627 1.390 . S
C619 C618 1.387 1_545 S
C619 C621 1.387 . S
H620 C627 0.950 . S
C621 C619 1.387 . S
C621 C623 1.390 . S
C621 H625 0.950 . S
H622 C618 0.950 . S
C623 C621 1.390 . S
C623 C624 1.387 1_545 S
C623 H626 0.950 . S
C624 C623 1.387 1_565 S
C624 C627 1.387 . S
H625 C621 0.950 . S
H626 C623 0.950 . S
C627 C618 1.390 . S
C627 H620 0.950 . S
C627 C624 1.387 . S
C628 C629 1.387 1_554 S
C628 H632 0.950 . S
C628 C637 1.391 . S
C629 C628 1.387 1_556 S
C629 C631 1.387 1_445 S
H630 C637 0.950 . S
C631 C629 1.387 1_665 S
C631 C633 1.391 . S
C631 H635 0.950 . S
H632 C628 0.950 . S
C633 C631 1.391 . S
C633 C634 1.387 1_556 S
C633 H636 0.950 . S
C634 C633 1.387 1_554 S
C634 C637 1.387 1_665 S
H635 C631 0.950 . S
H636 C633 0.950 . S
C637 C628 1.391 . S
C637 H630 0.950 . S
C637 C634 1.387 1_445 S
C638 C639 1.387 . S
C638 H642 0.950 . S
C638 C647 1.390 1_556 S
C639 C638 1.387 . S
C639 C641 1.387 . S
H640 C647 0.950 . S
C641 C639 1.387 . S
C641 C643 1.390 1_556 S
C641 H645 0.950 . S
H642 C638 0.950 . S
C643 C641 1.390 1_554 S
C643 C644 1.387 . S
C643 H646 0.950 . S
C644 C643 1.387 . S
C644 C647 1.387 . S
H645 C641 0.950 . S
H646 C643 0.950 . S
C647 C638 1.390 1_554 S
C647 H640 0.950 . S
C647 C644 1.387 . S
C648 C649 1.387 1_455 S
C648 H652 0.950 . S
C648 C657 1.390 . S
C649 C648 1.387 1_655 S
C649 C651 1.387 . S
H650 C657 0.950 . S
C651 C649 1.387 . S
C651 C653 1.390 . S
C651 H655 0.950 . S
H652 C648 0.950 . S
C653 C651 1.390 . S
C653 C654 1.387 1_655 S
C653 H656 0.950 . S
C654 C653 1.387 1_455 S
C654 C657 1.387 . S
H655 C651 0.950 . S
H656 C653 0.950 . S
C657 C648 1.390 . S
C657 H650 0.950 . S
C657 C654 1.387 . S
C658 C659 1.387 . S
C658 H662 0.950 . S
C658 C667 1.390 . S
C659 C658 1.387 . S
C659 C661 1.387 1_545 S
H660 C667 0.950 . S
C661 C659 1.387 1_565 S
C661 C663 1.390 . S
C661 H665 0.950 . S
H662 C658 0.950 . S
C663 C661 1.390 . S
C663 C664 1.387 . S
C663 H666 0.950 . S
C664 C663 1.387 . S
C664 C667 1.387 1_565 S
H665 C661 0.950 . S
H666 C663 0.950 . S
C667 C658 1.390 . S
C667 H660 0.950 . S
C667 C664 1.387 1_545 S
C668 C669 1.387 1_554 S
C668 H672 0.950 . S
C668 C677 1.390 . S
C669 C668 1.387 1_556 S
C669 C671 1.387 . S
H670 C677 0.950 . S
C671 C669 1.387 . S
C671 C673 1.390 . S
C671 H675 0.950 . S
H672 C668 0.950 . S
C673 C671 1.390 . S
C673 C674 1.387 1_556 S
C673 H676 0.950 . S
C674 C673 1.387 1_554 S
C674 C677 1.387 . S
H675 C671 0.950 . S
H676 C673 0.950 . S
C677 C668 1.390 . S
C677 H670 0.950 . S
C677 C674 1.387 . S
C678 C679 1.387 . S
C678 H682 0.950 . S
C678 C687 1.390 . S
C679 C678 1.387 . S
C679 C681 1.387 . S
H680 C687 0.950 . S
C681 C679 1.387 . S
C681 C683 1.390 . S
C681 H685 0.950 . S
H682 C678 0.950 . S
C683 C681 1.390 . S
C683 C684 1.387 . S
C683 H686 0.950 . S
C684 C683 1.387 . S
C684 C687 1.387 . S
H685 C681 0.950 . S
H686 C683 0.950 . S
C687 C678 1.390 . S
C687 H680 0.950 . S
C687 C684 1.387 . S
C688 C689 1.387 . S
C688 H692 0.950 . S
C688 C697 1.390 . S
C689 C688 1.387 . S
C689 C691 1.387 1_455 S
H690 C697 0.950 . S
C691 C689 1.387 1_655 S
C691 C693 1.390 . S
C691 H695 0.950 . S
H692 C688 0.950 . S
C693 C691 1.390 . S
C693 C694 1.387 . S
C693 H696 0.950 . S
C694 C693 1.387 . S
C694 C697 1.387 1_655 S
H695 C691 0.950 . S
H696 C693 0.950 . S
C697 C688 1.390 . S
C697 H690 0.950 . S
C697 C694 1.387 1_455 S
C698 C699 1.387 . S
C698 H702 0.950 . S
C698 C707 1.390 . S
C699 C698 1.387 . S
C699 C701 1.387 . S
H700 C707 0.950 . S
C701 C699 1.387 . S
C701 C703 1.390 . S
C701 H705 0.950 . S
H702 C698 0.950 . S
C703 C701 1.390 . S
C703 C704 1.387 . S
C703 H706 0.950 . S
C704 C703 1.387 . S
C704 C707 1.387 . S
H705 C701 0.950 . S
H706 C703 0.950 . S
C707 C698 1.390 . S
C707 H700 0.950 . S
C707 C704 1.387 . S
C708 C709 1.387 . S
C708 H712 0.950 . S
C708 C717 1.390 . S
C709 C708 1.387 . S
C709 C711 1.387 . S
H710 C717 0.950 . S
C711 C709 1.387 . S
C711 C713 1.390 . S
C711 H715 0.950 . S
H712 C708 0.950 . S
C713 C711 1.390 . S
C713 C714 1.387 . S
C713 H716 0.950 . S
C714 C713 1.387 . S
C714 C717 1.387 . S
H715 C711 0.950 . S
H716 C713 0.950 . S
C717 C708 1.390 . S
C717 H710 0.950 . S
C717 C714 1.387 . S
C718 C719 1.387 . S
C718 H722 0.950 . S
C718 C727 1.390 . S
C719 C718 1.387 . S
C719 C721 1.387 . S
H720 C727 0.950 . S
C721 C719 1.387 . S
C721 C723 1.390 . S
C721 H725 0.950 . S
H722 C718 0.950 . S
C723 C721 1.390 . S
C723 C724 1.387 . S
C723 H726 0.950 . S
C724 C723 1.387 . S
C724 C727 1.387 . S
H725 C721 0.950 . S
H726 C723 0.950 . S
C727 C718 1.390 . S
C727 H720 0.950 . S
C727 C724 1.387 . S
C728 C729 1.387 . S
C728 H732 0.950 . S
C728 C737 1.390 . S
C729 C728 1.387 . S
C729 C731 1.387 . S
H730 C737 0.950 . S
C731 C729 1.387 . S
C731 C733 1.390 . S
C731 H735 0.950 . S
H732 C728 0.950 . S
C733 C731 1.390 . S
C733 C734 1.387 . S
C733 H736 0.950 . S
C734 C733 1.387 . S
C734 C737 1.387 . S
H735 C731 0.950 . S
H736 C733 0.950 . S
C737 C728 1.390 . S
C737 H730 0.950 . S
C737 C734 1.387 . S
C738 C739 1.387 . S
C738 H742 0.950 . S
C738 C747 1.390 . S
C739 C738 1.387 . S
C739 C741 1.387 1_565 S
H740 C747 0.950 . S
C741 C739 1.387 1_545 S
C741 C743 1.390 . S
C741 H745 0.950 . S
H742 C738 0.950 . S
C743 C741 1.390 . S
C743 C744 1.387 . S
C743 H746 0.950 . S
C744 C743 1.387 . S
C744 C747 1.387 1_545 S
H745 C741 0.950 . S
H746 C743 0.950 . S
C747 C738 1.390 . S
C747 H740 0.950 . S
C747 C744 1.387 1_565 S
C748 C749 1.387 . S
C748 H752 0.950 . S
C748 C757 1.390 . S
C749 C748 1.387 . S
C749 C751 1.387 . S
H750 C757 0.950 . S
C751 C749 1.387 . S
C751 C753 1.390 . S
C751 H755 0.950 . S
H752 C748 0.950 . S
C753 C751 1.390 . S
C753 C754 1.387 . S
C753 H756 0.950 . S
C754 C753 1.387 . S
C754 C757 1.387 . S
H755 C751 0.950 . S
H756 C753 0.950 . S
C757 C748 1.390 . S
C757 H750 0.950 . S
C757 C754 1.387 . S
C758 C759 1.387 1_556 S
C758 H762 0.950 . S
C758 C767 1.390 . S
C759 C758 1.387 1_554 S
C759 C761 1.387 . S
H760 C767 0.950 . S
C761 C759 1.387 . S
C761 C763 1.390 . S
C761 H765 0.950 . S
H762 C758 0.950 . S
C763 C761 1.390 . S
C763 C764 1.387 1_554 S
C763 H766 0.950 . S
C764 C763 1.387 1_556 S
C764 C767 1.387 . S
H765 C761 0.950 . S
H766 C763 0.950 . S
C767 C758 1.390 . S
C767 H760 0.950 . S
C767 C764 1.387 . S
C768 C769 1.387 . S
C768 H772 0.950 . S
C768 C777 1.390 . S
C769 C768 1.387 . S
C769 C771 1.387 . S
H770 C777 0.950 . S
C771 C769 1.387 . S
C771 C773 1.390 . S
C771 H775 0.950 . S
H772 C768 0.950 . S
C773 C771 1.390 . S
C773 C774 1.387 . S
C773 H776 0.950 . S
C774 C773 1.387 . S
C774 C777 1.387 . S
H775 C771 0.950 . S
H776 C773 0.950 . S
C777 C768 1.390 . S
C777 H770 0.950 . S
C777 C774 1.387 . S
C778 C779 1.387 . S
C778 H782 0.950 . S
C778 C787 1.390 . S
C779 C778 1.387 . S
C779 C781 1.387 . S
H780 C787 0.950 . S
C781 C779 1.387 . S
C781 C783 1.390 . S
C781 H785 0.950 . S
H782 C778 0.950 . S
C783 C781 1.390 . S
C783 C784 1.387 . S
C783 H786 0.950 . S
C784 C783 1.387 . S
C784 C787 1.387 . S
H785 C781 0.950 . S
H786 C783 0.950 . S
C787 C778 1.390 . S
C787 H780 0.950 . S
C787 C784 1.387 . S
C788 C789 1.387 . S
C788 H792 0.950 . S
C788 C797 1.390 . S
C789 C788 1.387 . S
C789 C791 1.387 . S
H790 C797 0.950 . S
C791 C789 1.387 . S
C791 C793 1.390 . S
C791 H795 0.950 . S
H792 C788 0.950 . S
C793 C791 1.390 . S
C793 C794 1.387 . S
C793 H796 0.950 . S
C794 C793 1.387 . S
C794 C797 1.387 . S
H795 C791 0.950 . S
H796 C793 0.950 . S
C797 C788 1.390 . S
C797 H790 0.950 . S
C797 C794 1.387 . S
C798 C799 1.387 . S
C798 H802 0.950 . S
C798 C807 1.390 . S
C799 C798 1.387 . S
C799 C801 1.387 . S
H800 C807 0.950 . S
C801 C799 1.387 . S
C801 C803 1.390 . S
C801 H805 0.950 . S
H802 C798 0.950 . S
C803 C801 1.390 . S
C803 C804 1.387 . S
C803 H806 0.950 . S
C804 C803 1.387 . S
C804 C807 1.387 . S
H805 C801 0.950 . S
H806 C803 0.950 . S
C807 C798 1.390 . S
C807 H800 0.950 . S
C807 C804 1.387 . S
C808 C809 1.387 . S
C808 H812 0.950 . S
C808 C817 1.390 . S
C809 C808 1.387 . S
C809 C811 1.387 . S
H810 C817 0.950 . S
C811 C809 1.387 . S
C811 C813 1.390 . S
C811 H815 0.950 . S
H812 C808 0.950 . S
C813 C811 1.390 . S
C813 C814 1.387 . S
C813 H816 0.950 . S
C814 C813 1.387 . S
C814 C817 1.387 . S
H815 C811 0.950 . S
H816 C813 0.950 . S
C817 C808 1.390 . S
C817 H810 0.950 . S
C817 C814 1.387 . S
C818 C819 1.387 . S
C818 H822 0.950 . S
C818 C827 1.390 . S
C819 C818 1.387 . S
C819 C821 1.387 . S
H820 C827 0.950 . S
C821 C819 1.387 . S
C821 C823 1.390 . S
C821 H825 0.950 . S
H822 C818 0.950 . S
C823 C821 1.390 . S
C823 C824 1.387 . S
C823 H826 0.950 . S
C824 C823 1.387 . S
C824 C827 1.387 . S
H825 C821 0.950 . S
H826 C823 0.950 . S
C827 C818 1.390 . S
C827 H820 0.950 . S
C827 C824 1.387 . S
C828 C829 1.387 . S
C828 H832 0.950 . S
C828 C837 1.390 . S
C829 C828 1.387 . S
C829 C831 1.387 . S
H830 C837 0.950 . S
C831 C829 1.387 . S
C831 C833 1.390 . S
C831 H835 0.950 . S
H832 C828 0.950 . S
C833 C831 1.390 . S
C833 C834 1.387 . S
C833 H836 0.950 . S
C834 C833 1.387 . S
C834 C837 1.387 . S
H835 C831 0.950 . S
H836 C833 0.950 . S
C837 C828 1.390 . S
C837 H830 0.950 . S
C837 C834 1.387 . S
C838 C839 1.387 . S
C838 H842 0.950 . S
C838 C847 1.390 . S
C839 C838 1.387 . S
C839 C841 1.387 . S
H840 C847 0.950 . S
C841 C839 1.387 . S
C841 C843 1.390 . S
C841 H845 0.950 . S
H842 C838 0.950 . S
C843 C841 1.390 . S
C843 C844 1.387 . S
C843 H846 0.950 . S
C844 C843 1.387 . S
C844 C847 1.387 . S
H845 C841 0.950 . S
H846 C843 0.950 . S
C847 C838 1.390 . S
C847 H840 0.950 . S
C847 C844 1.387 . S
C848 C849 1.387 . S
C848 H852 0.950 . S
C848 C857 1.390 . S
C849 C848 1.387 . S
C849 C851 1.387 . S
H850 C857 0.950 . S
C851 C849 1.387 . S
C851 C853 1.390 . S
C851 H855 0.950 . S
H852 C848 0.950 . S
C853 C851 1.390 . S
C853 C854 1.387 . S
C853 H856 0.950 . S
C854 C853 1.387 . S
C854 C857 1.387 . S
H855 C851 0.950 . S
H856 C853 0.950 . S
C857 C848 1.390 . S
C857 H850 0.950 . S
C857 C854 1.387 . S
C858 C859 1.387 . S
C858 H862 0.950 . S
C858 C867 1.390 . S
C859 C858 1.387 . S
C859 C861 1.387 . S
H860 C867 0.950 . S
C861 C859 1.387 . S
C861 C863 1.390 . S
C861 H865 0.950 . S
H862 C858 0.950 . S
C863 C861 1.390 . S
C863 C864 1.387 . S
C863 H866 0.950 . S
C864 C863 1.387 . S
C864 C867 1.387 . S
H865 C861 0.950 . S
H866 C863 0.950 . S
C867 C858 1.390 . S
C867 H860 0.950 . S
C867 C864 1.387 . S
C868 C869 1.387 . S
C868 H872 0.950 . S
C868 C877 1.390 . S
C869 C868 1.387 . S
C869 C871 1.387 . S
H870 C877 0.950 . S
C871 C869 1.387 . S
C871 C873 1.390 . S
C871 H875 0.950 . S
H872 C868 0.950 . S
C873 C871 1.390 . S
C873 C874 1.387 . S
C873 H876 0.950 . S
C874 C873 1.387 . S
C874 C877 1.387 . S
H875 C871 0.950 . S
H876 C873 0.950 . S
C877 C868 1.390 . S
C877 H870 0.950 . S
C877 C874 1.387 . S
C878 C879 1.387 . S
C878 H882 0.950 . S
C878 C887 1.390 . S
C879 C878 1.387 . S
C879 C881 1.387 . S
H880 C887 0.950 . S
C881 C879 1.387 . S
C881 C883 1.390 . S
C881 H885 0.950 . S
H882 C878 0.950 . S
C883 C881 1.390 . S
C883 C884 1.387 . S
C883 H886 0.950 . S
C884 C883 1.387 . S
C884 C887 1.387 . S
H885 C881 0.950 . S
H886 C883 0.950 . S
C887 C878 1.390 . S
C887 H880 0.950 . S
C887 C884 1.387 . S
C888 C889 1.387 . S
C888 H892 0.950 . S
C888 C897 1.390 . S
C889 C888 1.387 . S
C889 C891 1.387 . S
H890 C897 0.950 . S
C891 C889 1.387 . S
C891 C893 1.390 . S
C891 H895 0.950 . S
H892 C888 0.950 . S
C893 C891 1.390 . S
C893 C894 1.387 . S
C893 H896 0.950 . S
C894 C893 1.387 . S
C894 C897 1.387 . S
H895 C891 0.950 . S
H896 C893 0.950 . S
C897 C888 1.390 . S
C897 H890 0.950 . S
C897 C894 1.387 . S
C898 C899 1.387 . S
C898 H902 0.950 . S
C898 C907 1.390 . S
C899 C898 1.387 . S
C899 C901 1.387 . S
H900 C907 0.950 . S
C901 C899 1.387 . S
C901 C903 1.390 . S
C901 H905 0.950 . S
H902 C898 0.950 . S
C903 C901 1.390 . S
C903 C904 1.387 . S
C903 H906 0.950 . S
C904 C903 1.387 . S
C904 C907 1.387 . S
H905 C901 0.950 . S
H906 C903 0.950 . S
C907 C898 1.390 . S
C907 H900 0.950 . S
C907 C904 1.387 . S
C908 C909 1.387 . S
C908 H912 0.950 . S
C908 C917 1.390 . S
C909 C908 1.387 . S
C909 C911 1.387 . S
H910 C917 0.950 . S
C911 C909 1.387 . S
C911 C913 1.390 . S
C911 H915 0.950 . S
H912 C908 0.950 . S
C913 C911 1.390 . S
C913 C914 1.387 . S
C913 H916 0.950 . S
C914 C913 1.387 . S
C914 C917 1.387 . S
H915 C911 0.950 . S
H916 C913 0.950 . S
C917 C908 1.390 . S
C917 H910 0.950 . S
C917 C914 1.387 . S
C918 C919 1.387 . S
C918 H922 0.950 . S
C918 C927 1.390 . S
C919 C918 1.387 . S
C919 C921 1.387 . S
H920 C927 0.950 . S
C921 C919 1.387 . S
C921 C923 1.390 . S
C921 H925 0.950 . S
H922 C918 0.950 . S
C923 C921 1.390 . S
C923 C924 1.387 . S
C923 H926 0.950 . S
C924 C923 1.387 . S
C924 C927 1.387 . S
H925 C921 0.950 . S
H926 C923 0.950 . S
C927 C918 1.390 . S
C927 H920 0.950 . S
C927 C924 1.387 . S
C928 C929 1.387 . S
C928 H932 0.950 . S
C928 C937 1.390 . S
C929 C928 1.387 . S
C929 C931 1.387 . S
H930 C937 0.950 . S
C931 C929 1.387 . S
C931 C933 1.390 . S
C931 H935 0.950 . S
H932 C928 0.950 . S
C933 C931 1.390 . S
C933 C934 1.387 . S
C933 H936 0.950 . S
C934 C933 1.387 . S
C934 C937 1.387 . S
H935 C931 0.950 . S
H936 C933 0.950 . S
C937 C928 1.390 . S
C937 H930 0.950 . S
C937 C934 1.387 . S
C938 C939 1.387 . S
C938 H942 0.950 . S
C938 C947 1.390 . S
C939 C938 1.387 . S
C939 C941 1.387 . S
H940 C947 0.950 . S
C941 C939 1.387 . S
C941 C943 1.390 . S
C941 H945 0.950 . S
H942 C938 0.950 . S
C943 C941 1.390 . S
C943 C944 1.387 . S
C943 H946 0.950 . S
C944 C943 1.387 . S
C944 C947 1.387 . S
H945 C941 0.950 . S
H946 C943 0.950 . S
C947 C938 1.390 . S
C947 H940 0.950 . S
C947 C944 1.387 . S
C948 C949 1.387 . S
C948 H952 0.950 . S
C948 C957 1.390 . S
C949 C948 1.387 . S
C949 C951 1.387 . S
H950 C957 0.950 . S
C951 C949 1.387 . S
C951 C953 1.390 . S
C951 H955 0.950 . S
H952 C948 0.950 . S
C953 C951 1.390 . S
C953 C954 1.387 . S
C953 H956 0.950 . S
C954 C953 1.387 . S
C954 C957 1.387 . S
H955 C951 0.950 . S
H956 C953 0.950 . S
C957 C948 1.390 . S
C957 H950 0.950 . S
C957 C954 1.387 . S
C958 C959 1.387 . S
C958 H962 0.950 . S
C958 C967 1.390 . S
C959 C958 1.387 . S
C959 C961 1.387 . S
H960 C967 0.950 . S
C961 C959 1.387 . S
C961 C963 1.390 . S
C961 H965 0.950 . S
H962 C958 0.950 . S
C963 C961 1.390 . S
C963 C964 1.387 . S
C963 H966 0.950 . S
C964 C963 1.387 . S
C964 C967 1.387 . S
H965 C961 0.950 . S
H966 C963 0.950 . S
C967 C958 1.390 . S
C967 H960 0.950 . S
C967 C964 1.387 . S
C968 C969 1.387 . S
C968 H972 0.950 . S
C968 C977 1.390 . S
C969 C968 1.387 . S
C969 C971 1.387 . S
H970 C977 0.950 . S
C971 C969 1.387 . S
C971 C973 1.390 . S
C971 H975 0.950 . S
H972 C968 0.950 . S
C973 C971 1.390 . S
C973 C974 1.387 . S
C973 H976 0.950 . S
C974 C973 1.387 . S
C974 C977 1.387 . S
H975 C971 0.950 . S
H976 C973 0.950 . S
C977 C968 1.390 . S
C977 H970 0.950 . S
C977 C974 1.387 . S
C978 C979 1.387 . S
C978 H982 0.950 . S
C978 C987 1.390 . S
C979 C978 1.387 . S
C979 C981 1.387 . S
H980 C987 0.950 . S
C981 C979 1.387 . S
C981 C983 1.390 . S
C981 H985 0.950 . S
H982 C978 0.950 . S
C983 C981 1.390 . S
C983 C984 1.387 . S
C983 H986 0.950 . S
C984 C983 1.387 . S
C984 C987 1.387 . S
H985 C981 0.950 . S
H986 C983 0.950 . S
C987 C978 1.390 . S
C987 H980 0.950 . S
C987 C984 1.387 . S
C988 C989 1.387 . S
C988 H992 0.950 . S
C988 C997 1.390 . S
C989 C988 1.387 . S
C989 C991 1.387 . S
H990 C997 0.950 . S
C991 C989 1.387 . S
C991 C993 1.390 . S
C991 H995 0.950 . S
H992 C988 0.950 . S
C993 C991 1.390 . S
C993 C994 1.387 . S
C993 H996 0.950 . S
C994 C993 1.387 . S
C994 C997 1.387 . S
H995 C991 0.950 . S
H996 C993 0.950 . S
C997 C988 1.390 . S
C997 H990 0.950 . S
C997 C994 1.387 . S
C998 C999 1.387 . S
C998 H1002 0.950 . S
C998 C1007 1.390 . S
C999 C998 1.387 . S
C999 C1001 1.387 . S
H1000 C1007 0.950 . S
C1001 C999 1.387 . S
C1001 C1003 1.390 . S
C1001 H1005 0.950 . S
H1002 C998 0.950 . S
C1003 C1001 1.390 . S
C1003 C1004 1.387 . S
C1003 H1006 0.950 . S
C1004 C1003 1.387 . S
C1004 C1007 1.387 . S
H1005 C1001 0.950 . S
H1006 C1003 0.950 . S
C1007 C998 1.390 . S
C1007 H1000 0.950 . S
C1007 C1004 1.387 . S
C1008 C1009 1.387 . S
C1008 H1012 0.950 . S
C1008 C1017 1.390 . S
C1009 C1008 1.387 . S
C1009 C1011 1.387 . S
H1010 C1017 0.950 . S
C1011 C1009 1.387 . S
C1011 C1013 1.390 . S
C1011 H1015 0.950 . S
H1012 C1008 0.950 . S
C1013 C1011 1.390 . S
C1013 C1014 1.387 . S
C1013 H1016 0.950 . S
C1014 C1013 1.387 . S
C1014 C1017 1.387 . S
H1015 C1011 0.950 . S
H1016 C1013 0.950 . S
C1017 C1008 1.390 . S
C1017 H1010 0.950 . S
C1017 C1014 1.387 . S
C1018 C1019 1.387 . S
C1018 H1022 0.950 . S
C1018 C1027 1.390 . S
C1019 C1018 1.387 . S
C1019 C1021 1.387 . S
H1020 C1027 0.950 . S
C1021 C1019 1.387 . S
C1021 C1023 1.390 . S
C1021 H1025 0.950 . S
H1022 C1018 0.950 . S
C1023 C1021 1.390 . S
C1023 C1024 1.387 . S
C1023 H1026 0.950 . S
C1024 C1023 1.387 . S
C1024 C1027 1.387 . S
H1025 C1021 0.950 . S
H1026 C1023 0.950 . S
C1027 C1018 1.390 . S
C1027 H1020 0.950 . S
C1027 C1024 1.387 . S
C1028 C1029 1.387 . S
C1028 H1032 0.950 . S
C1028 C1037 1.390 . S
C1029 C1028 1.387 . S
C1029 C1031 1.387 . S
H1030 C1037 0.950 . S
C1031 C1029 1.387 . S
C1031 C1033 1.390 . S
C1031 H1035 0.950 . S
H1032 C1028 0.950 . S
C1033 C1031 1.390 . S
C1033 C1034 1.387 . S
C1033 H1036 0.950 . S
C1034 C1033 1.387 . S
C1034 C1037 1.387 . S
H1035 C1031 0.950 . S
H1036 C1033 0.950 . S
C1037 C1028 1.390 . S
C1037 H1030 0.950 . S
C1037 C1034 1.387 . S
C1038 C1039 1.387 . S
C1038 H1042 0.950 . S
C1038 C1047 1.390 . S
C1039 C1038 1.387 . S
C1039 C1041 1.387 . S
H1040 C1047 0.950 . S
C1041 C1039 1.387 . S
C1041 C1043 1.390 . S
C1041 H1045 0.950 . S
H1042 C1038 0.950 . S
C1043 C1041 1.390 . S
C1043 C1044 1.387 . S
C1043 H1046 0.950 . S
C1044 C1043 1.387 . S
C1044 C1047 1.387 . S
H1045 C1041 0.950 . S
H1046 C1043 0.950 . S
C1047 C1038 1.390 . S
C1047 H1040 0.950 . S
C1047 C1044 1.387 . S
C1048 C1049 1.387 . S
C1048 H1052 0.950 . S
C1048 C1057 1.390 . S
C1049 C1048 1.387 . S
C1049 C1051 1.387 . S
H1050 C1057 0.950 . S
C1051 C1049 1.387 . S
C1051 C1053 1.390 . S
C1051 H1055 0.950 . S
H1052 C1048 0.950 . S
C1053 C1051 1.390 . S
C1053 C1054 1.387 . S
C1053 H1056 0.950 . S
C1054 C1053 1.387 . S
C1054 C1057 1.387 . S
H1055 C1051 0.950 . S
H1056 C1053 0.950 . S
C1057 C1048 1.390 . S
C1057 H1050 0.950 . S
C1057 C1054 1.387 . S
C1058 C1059 1.387 . S
C1058 H1062 0.950 . S
C1058 C1067 1.390 . S
C1059 C1058 1.387 . S
C1059 C1061 1.387 . S
H1060 C1067 0.950 . S
C1061 C1059 1.387 . S
C1061 C1063 1.390 . S
C1061 H1065 0.950 . S
H1062 C1058 0.950 . S
C1063 C1061 1.390 . S
C1063 C1064 1.387 . S
C1063 H1066 0.950 . S
C1064 C1063 1.387 . S
C1064 C1067 1.387 . S
H1065 C1061 0.950 . S
H1066 C1063 0.950 . S
C1067 C1058 1.390 . S
C1067 H1060 0.950 . S
C1067 C1064 1.387 . S
C1068 C1069 1.387 . S
C1068 H1072 0.950 . S
C1068 C1077 1.390 . S
C1069 C1068 1.387 . S
C1069 C1071 1.387 . S
H1070 C1077 0.950 . S
C1071 C1069 1.387 . S
C1071 C1073 1.390 . S
C1071 H1075 0.950 . S
H1072 C1068 0.950 . S
C1073 C1071 1.390 . S
C1073 C1074 1.387 . S
C1073 H1076 0.950 . S
C1074 C1073 1.387 . S
C1074 C1077 1.387 . S
H1075 C1071 0.950 . S
H1076 C1073 0.950 . S
C1077 C1068 1.390 . S
C1077 H1070 0.950 . S
C1077 C1074 1.387 . S
C1078 C1079 1.387 . S
C1078 H1082 0.950 . S
C1078 C1087 1.390 . S
C1079 C1078 1.387 . S
C1079 C1081 1.387 . S
H1080 C1087 0.950 . S
C1081 C1079 1.387 . S
C1081 C1083 1.390 . S
C1081 H1085 0.950 . S
H1082 C1078 0.950 . S
C1083 C1081 1.390 . S
C1083 C1084 1.387 . S
C1083 H1086 0.950 . S
C1084 C1083 1.387 . S
C1084 C1087 1.387 . S
H1085 C1081 0.950 . S
H1086 C1083 0.950 . S
C1087 C1078 1.390 . S
C1087 H1080 0.950 . S
C1087 C1084 1.387 . S
C449 C8 1.422 . S
C454 C22 1.422 . S
C459 C50 1.422 . S
C464 C36 1.422 . S
C469 C64 1.422 . S
C474 C78 1.422 . S
C479 C92 1.425 . S
C484 C106 1.425 . S
C489 C120 1.424 . S
C494 C134 1.424 . S
C499 C148 1.422 . S
C504 C162 1.422 . S
C509 C176 1.422 . S
C514 C190 1.422 . S
C519 C204 1.425 . S
C524 C218 1.425 . S
C529 C246 1.424 . S
C534 C232 1.424 . S
C539 C274 1.422 . S
C544 C260 1.422 . S
C549 C302 1.422 . S
C554 C288 1.422 . S
C559 C330 1.425 . S
C564 C316 1.425 . S
C569 C358 1.424 . S
C574 C344 1.424 . S
C579 C386 1.422 . S
C584 C372 1.422 . S
C589 C414 1.424 . S
C594 C400 1.424 . S
C599 C442 1.422 . S
C604 C428 1.422 . S
C609 C11 1.543 . S
C614 C179 1.543 . S
C619 C25 1.542 . S
C624 C305 1.542 . S
C629 C39 1.542 . S
C634 C95 1.542 . S
C639 C53 1.543 . S
C644 C445 1.543 . S
C649 C67 1.541 . S
C654 C123 1.541 . S
C659 C249 1.542 . S
C664 C81 1.542 . S
C669 C389 1.542 . S
C674 C109 1.542 . S
C679 C137 1.542 . S
C684 C417 1.542 . S
C689 C151 1.542 . S
C694 C207 1.542 . S
C699 C165 1.541 . S
C704 C333 1.541 . S
C709 C193 1.542 . S
C714 C361 1.542 . S
C719 C221 1.543 . S
C724 C277 1.543 . S
C729 C403 1.541 . S
C734 C235 1.541 . S
C739 C319 1.543 . S
C744 C263 1.543 . S
C749 C291 1.543 . S
C754 C347 1.543 . S
C759 C431 1.543 . S
C764 C375 1.543 . S
C769 C153 0.949 . S
C774 C13 0.949 . S
C779 C167 0.944 . S
C784 C27 0.944 . S
C789 C41 0.944 . S
C794 C125 0.944 . S
C799 C139 0.944 . S
C804 C55 0.944 . S
C809 C69 0.944 . S
C814 C209 0.944 . S
C819 C83 0.949 . S
C824 C223 0.949 . S
C829 C181 0.944 . S
C834 C97 0.944 . S
C839 C195 0.949 . S
C844 C111 0.949 . S
C849 C237 0.944 . S
C854 C377 0.944 . S
C859 C391 0.944 . S
C864 C251 0.944 . S
C869 C349 0.949 . S
C874 C265 0.949 . S
C879 C279 0.944 . S
C884 C363 0.944 . S
C889 C433 0.944 . S
C894 C293 0.944 . S
C899 C307 0.944 . S
C904 C447 0.944 . S
C909 C405 0.949 . S
C914 C321 0.949 . S
C919 C419 0.949 . S
C924 C335 0.949 . S
C929 C147 1.573 . S
C934 C7 1.573 1_565 S
C939 C161 1.573 . S
C944 C21 1.573 . S
C949 C119 1.573 . S
C954 C35 1.573 . S
C959 C49 1.573 1_565 S
C964 C133 1.573 . S
C969 C203 1.573 . S
C974 C63 1.573 1_545 S
C979 C217 1.575 . S
C984 C77 1.575 . S
C989 C175 1.573 . S
C994 C91 1.573 . S
C999 C189 1.573 . S
C1004 C105 1.573 1_545 S
C1009 C371 1.575 . S
C1014 C231 1.575 1_565 S
C1019 C385 1.575 . S
C1024 C245 1.575 . S
C1029 C343 1.573 . S
C1034 C259 1.573 . S
C1039 C273 1.575 1_565 S
C1044 C357 1.575 . S
C1049 C427 1.573 . S
C1054 C287 1.573 1_545 S
C1059 C301 1.573 . S
C1064 C441 1.573 . S
C1069 C399 1.575 . S
C1074 C315 1.575 . S
C1079 C329 1.573 1_545 S
C1084 C413 1.573 . S
