# Generated by pormake.
# Topology wiu, (6)-cn, num edge types: 1
# Building blocks:
#     Node 0, Type 0, BuildingBlock: BETFEN_clean_sbu_0, # of connection points: 6
#     Node 1, Type 0, BuildingBlock: BETFEN_clean_sbu_0, # of connection points: 6
#     Node 2, Type 0, BuildingBlock: BETFEN_clean_sbu_0, # of connection points: 6
#     Node 3, Type 0, BuildingBlock: BETFEN_clean_sbu_0, # of connection points: 6
#     Node 4, Type 0, BuildingBlock: BETFEN_clean_sbu_0, # of connection points: 6
#     Node 5, Type 0, BuildingBlock: BETFEN_clean_sbu_0, # of connection points: 6
#     Node 6, Type 0, BuildingBlock: BETFEN_clean_sbu_0, # of connection points: 6
#     Node 7, Type 0, BuildingBlock: BETFEN_clean_sbu_0, # of connection points: 6
#     Node 8, Type 0, BuildingBlock: BETFEN_clean_sbu_0, # of connection points: 6
#     Node 9, Type 0, BuildingBlock: BETFEN_clean_sbu_0, # of connection points: 6
#     Node 10, Type 0, BuildingBlock: BETFEN_clean_sbu_0, # of connection points: 6
#     Node 11, Type 0, BuildingBlock: BETFEN_clean_sbu_0, # of connection points: 6
#     Node 12, Type 0, BuildingBlock: BETFEN_clean_sbu_0, # of connection points: 6
#     Node 13, Type 0, BuildingBlock: BETFEN_clean_sbu_0, # of connection points: 6
#     Node 14, Type 0, BuildingBlock: BETFEN_clean_sbu_0, # of connection points: 6
#     Node 15, Type 0, BuildingBlock: BETFEN_clean_sbu_0, # of connection points: 6
#     Edge 16, Type (0, 0), BuildingBlock: UVAHIK_clean_linker_0, # of connection points: 2
#     Edge 17, Type (0, 0), BuildingBlock: UVAHIK_clean_linker_0, # of connection points: 2
#     Edge 18, Type (0, 0), BuildingBlock: UVAHIK_clean_linker_0, # of connection points: 2
#     Edge 19, Type (0, 0), BuildingBlock: UVAHIK_clean_linker_0, # of connection points: 2
#     Edge 20, Type (0, 0), BuildingBlock: UVAHIK_clean_linker_0, # of connection points: 2
#     Edge 21, Type (0, 0), BuildingBlock: UVAHIK_clean_linker_0, # of connection points: 2
#     Edge 22, Type (0, 0), BuildingBlock: UVAHIK_clean_linker_0, # of connection points: 2
#     Edge 23, Type (0, 0), BuildingBlock: UVAHIK_clean_linker_0, # of connection points: 2
#     Edge 24, Type (0, 0), BuildingBlock: UVAHIK_clean_linker_0, # of connection points: 2
#     Edge 25, Type (0, 0), BuildingBlock: UVAHIK_clean_linker_0, # of connection points: 2
#     Edge 26, Type (0, 0), BuildingBlock: UVAHIK_clean_linker_0, # of connection points: 2
#     Edge 27, Type (0, 0), BuildingBlock: UVAHIK_clean_linker_0, # of connection points: 2
#     Edge 28, Type (0, 0), BuildingBlock: UVAHIK_clean_linker_0, # of connection points: 2
#     Edge 29, Type (0, 0), BuildingBlock: UVAHIK_clean_linker_0, # of connection points: 2
#     Edge 30, Type (0, 0), BuildingBlock: UVAHIK_clean_linker_0, # of connection points: 2
#     Edge 31, Type (0, 0), BuildingBlock: UVAHIK_clean_linker_0, # of connection points: 2
#     Edge 32, Type (0, 0), BuildingBlock: UVAHIK_clean_linker_0, # of connection points: 2
#     Edge 33, Type (0, 0), BuildingBlock: UVAHIK_clean_linker_0, # of connection points: 2
#     Edge 34, Type (0, 0), BuildingBlock: UVAHIK_clean_linker_0, # of connection points: 2
#     Edge 35, Type (0, 0), BuildingBlock: UVAHIK_clean_linker_0, # of connection points: 2
#     Edge 36, Type (0, 0), BuildingBlock: UVAHIK_clean_linker_0, # of connection points: 2
#     Edge 37, Type (0, 0), BuildingBlock: UVAHIK_clean_linker_0, # of connection points: 2
#     Edge 38, Type (0, 0), BuildingBlock: UVAHIK_clean_linker_0, # of connection points: 2
#     Edge 39, Type (0, 0), BuildingBlock: UVAHIK_clean_linker_0, # of connection points: 2
#     Edge 40, Type (0, 0), BuildingBlock: UVAHIK_clean_linker_0, # of connection points: 2
#     Edge 41, Type (0, 0), BuildingBlock: UVAHIK_clean_linker_0, # of connection points: 2
#     Edge 42, Type (0, 0), BuildingBlock: UVAHIK_clean_linker_0, # of connection points: 2
#     Edge 43, Type (0, 0), BuildingBlock: UVAHIK_clean_linker_0, # of connection points: 2
#     Edge 44, Type (0, 0), BuildingBlock: UVAHIK_clean_linker_0, # of connection points: 2
#     Edge 45, Type (0, 0), BuildingBlock: UVAHIK_clean_linker_0, # of connection points: 2
#     Edge 46, Type (0, 0), BuildingBlock: UVAHIK_clean_linker_0, # of connection points: 2
#     Edge 47, Type (0, 0), BuildingBlock: UVAHIK_clean_linker_0, # of connection points: 2
#     Edge 48, Type (0, 0), BuildingBlock: UVAHIK_clean_linker_0, # of connection points: 2
#     Edge 49, Type (0, 0), BuildingBlock: UVAHIK_clean_linker_0, # of connection points: 2
#     Edge 50, Type (0, 0), BuildingBlock: UVAHIK_clean_linker_0, # of connection points: 2
#     Edge 51, Type (0, 0), BuildingBlock: UVAHIK_clean_linker_0, # of connection points: 2
#     Edge 52, Type (0, 0), BuildingBlock: UVAHIK_clean_linker_0, # of connection points: 2
#     Edge 53, Type (0, 0), BuildingBlock: UVAHIK_clean_linker_0, # of connection points: 2
#     Edge 54, Type (0, 0), BuildingBlock: UVAHIK_clean_linker_0, # of connection points: 2
#     Edge 55, Type (0, 0), BuildingBlock: UVAHIK_clean_linker_0, # of connection points: 2
#     Edge 56, Type (0, 0), BuildingBlock: UVAHIK_clean_linker_0, # of connection points: 2
#     Edge 57, Type (0, 0), BuildingBlock: UVAHIK_clean_linker_0, # of connection points: 2
#     Edge 58, Type (0, 0), BuildingBlock: UVAHIK_clean_linker_0, # of connection points: 2
#     Edge 59, Type (0, 0), BuildingBlock: UVAHIK_clean_linker_0, # of connection points: 2
#     Edge 60, Type (0, 0), BuildingBlock: UVAHIK_clean_linker_0, # of connection points: 2
#     Edge 61, Type (0, 0), BuildingBlock: UVAHIK_clean_linker_0, # of connection points: 2
#     Edge 62, Type (0, 0), BuildingBlock: UVAHIK_clean_linker_0, # of connection points: 2
#     Edge 63, Type (0, 0), BuildingBlock: UVAHIK_clean_linker_0, # of connection points: 2
# Relax obj value: 0.470
# Max RMSD: 0.311
# Mean RMSD: 0.311
data_MOF--net-wiu--node1-BETFEN_clean_sbu_0--edge1-UVAHIK_clean_linker_0
_symmetry_space_group_name_H-M    P1
_symmetry_Int_Tables_number       1
_symmetry_cell_setting            triclinic
loop_
_symmetry_equiv_pos_as_xyz
'x, y, z'
_cell_length_a     47.753115
_cell_length_b     47.580011
_cell_length_c     72.167602
_cell_angle_alpha  90.057134
_cell_angle_beta   89.271349
_cell_angle_gamma 90.119674
loop_
_atom_site_label
_atom_site_type_symbol
_atom_site_fract_x
_atom_site_fract_y
_atom_site_fract_z
_atom_type_partial_charge
Pr0 Pr 0.31031 0.14226 0.27719 0.0
Pr1 Pr 0.34124 0.09447 0.2643 0.0
C2 C 0.28003 0.18585 0.29074 0.0
C3 C 0.27203 0.21426 0.28408 0.0
C4 C 0.28331 0.23833 0.2925 0.0
C5 C 0.27635 0.26525 0.28622 0.0
C6 C 0.25777 0.26883 0.27142 0.0
C7 C 0.24638 0.24469 0.26306 0.0
C8 C 0.25343 0.21776 0.2693 0.0
C9 C 0.36417 0.15835 0.26438 0.0
C10 C 0.33546 0.09626 0.30898 0.0
C11 C 0.37827 0.05902 0.24836 0.0
C12 C 0.38851 0.05122 0.22993 0.0
C13 C 0.40532 0.02736 0.22789 0.0
C14 C 0.41796 0.02139 0.21082 0.0
C15 C 0.414 0.03934 0.19561 0.0
C16 C 0.39597 0.06251 0.19754 0.0
C17 C 0.38328 0.06841 0.21461 0.0
C18 C 0.28612 0.07983 0.27438 0.0
C19 C 0.30135 0.12568 0.23267 0.0
O20 O 0.30639 0.18196 0.29456 0.0
O21 O 0.26885 0.16413 0.28256 0.0
O22 O 0.35898 0.13741 0.27482 0.0
O23 O 0.34097 0.16956 0.25898 0.0
O24 O 0.35173 0.08766 0.29532 0.0
O25 O 0.31571 0.11524 0.30553 0.0
O26 O 0.38469 0.08439 0.25383 0.0
O27 O 0.35264 0.05172 0.25261 0.0
O28 O 0.29354 0.10134 0.26548 0.0
O29 O 0.30768 0.06442 0.27839 0.0
O30 O 0.29051 0.1395 0.24702 0.0
O31 O 0.32381 0.10991 0.23519 0.0
H32 H 0.29769 0.23633 0.30391 0.0
H33 H 0.28584 0.28326 0.29286 0.0
H34 H 0.23166 0.24655 0.25184 0.0
H35 H 0.24424 0.19973 0.26249 0.0
H36 H 0.40937 0.01384 0.23963 0.0
H37 H 0.43138 0.00313 0.20964 0.0
H38 H 0.3927 0.07682 0.18611 0.0
H39 H 0.37027 0.08693 0.21603 0.0
Pr40 Pr 0.59639 0.56496 0.52798 0.0
Pr41 Pr 0.64306 0.59795 0.51592 0.0
C42 C 0.55395 0.53265 0.54126 0.0
C43 C 0.52596 0.52512 0.53438 0.0
C44 C 0.51582 0.53724 0.51806 0.0
C45 C 0.48946 0.52972 0.51134 0.0
C46 C 0.47274 0.50979 0.52075 0.0
C47 C 0.48304 0.49777 0.53715 0.0
C48 C 0.50939 0.50539 0.54389 0.0
C49 C 0.57919 0.61929 0.51701 0.0
C50 C 0.64023 0.591 0.56027 0.0
C51 C 0.67708 0.63694 0.50076 0.0
C52 C 0.69123 0.6443 0.48336 0.0
C53 C 0.71623 0.65964 0.48395 0.0
C54 C 0.72807 0.67036 0.46767 0.0
C55 C 0.7149 0.66601 0.4506 0.0
C56 C 0.69076 0.64906 0.44995 0.0
C57 C 0.67902 0.63822 0.46624 0.0
C58 C 0.65928 0.54265 0.52413 0.0
C59 C 0.61371 0.55743 0.48323 0.0
O60 O 0.55757 0.55887 0.546 0.0
O61 O 0.57518 0.52263 0.53184 0.0
O62 O 0.6 0.61407 0.52726 0.0
O63 O 0.56855 0.59603 0.51093 0.0
O64 O 0.64677 0.6092 0.54724 0.0
O65 O 0.62368 0.56944 0.55602 0.0
O66 O 0.64976 0.63896 0.50105 0.0
O67 O 0.68647 0.61511 0.50966 0.0
O68 O 0.63767 0.54984 0.51561 0.0
O69 O 0.67415 0.56452 0.52852 0.0
O70 O 0.59933 0.54637 0.49728 0.0
O71 O 0.6298 0.57966 0.48633 0.0
H72 H 0.5284 0.55238 0.51044 0.0
H73 H 0.48242 0.53912 0.49856 0.0
H74 H 0.47062 0.48262 0.54488 0.0
H75 H 0.51686 0.4958 0.5565 0.0
H76 H 0.726 0.66427 0.49708 0.0
H77 H 0.74697 0.6829 0.46853 0.0
H78 H 0.68001 0.6455 0.43703 0.0
H79 H 0.65977 0.62619 0.46555 0.0
Pr80 Pr 0.17272 0.85105 0.77764 0.0
Pr81 Pr 0.14076 0.89792 0.76577 0.0
C82 C 0.20386 0.80825 0.7908 0.0
C83 C 0.21182 0.77971 0.7842 0.0
C84 C 0.19907 0.75579 0.79204 0.0
C85 C 0.20595 0.72882 0.78568 0.0
C86 C 0.2259 0.72505 0.77137 0.0
C87 C 0.23882 0.74901 0.76363 0.0
C88 C 0.23189 0.77598 0.76996 0.0
C89 C 0.11878 0.83388 0.76644 0.0
C90 C 0.14674 0.89568 0.81004 0.0
C91 C 0.10261 0.93189 0.75044 0.0
C92 C 0.0969 0.94785 0.73359 0.0
C93 C 0.08308 0.97368 0.73516 0.0
C94 C 0.07427 0.9877 0.71932 0.0
C95 C 0.079 0.97595 0.70168 0.0
C96 C 0.09433 0.95082 0.70014 0.0
C97 C 0.10329 0.93689 0.71599 0.0
C98 C 0.19587 0.9141 0.77407 0.0
C99 C 0.18196 0.86832 0.73309 0.0
O100 O 0.17765 0.81211 0.79548 0.0
O101 O 0.21455 0.82975 0.78196 0.0
O102 O 0.12384 0.85488 0.7768 0.0
O103 O 0.14204 0.82314 0.76032 0.0
O104 O 0.12896 0.90224 0.79701 0.0
O105 O 0.1679 0.87859 0.80582 0.0
O106 O 0.10177 0.90446 0.74914 0.0
O107 O 0.12259 0.94121 0.761 0.0
O108 O 0.18869 0.89225 0.76556 0.0
O109 O 0.17413 0.92931 0.77828 0.0
O110 O 0.19196 0.8533 0.74698 0.0
O111 O 0.16032 0.88514 0.73627 0.0
H112 H 0.18359 0.75793 0.80305 0.0
H113 H 0.19534 0.71093 0.79185 0.0
H114 H 0.25462 0.74695 0.75282 0.0
H115 H 0.2423 0.79387 0.76365 0.0
H116 H 0.07824 0.98252 0.74867 0.0
H117 H 0.06296 0.00728 0.72092 0.0
H118 H 0.09812 0.94111 0.68677 0.0
H119 H 0.1142 0.91705 0.71452 0.0
Pr120 Pr 0.89035 0.42924 1.02662 0.0
Pr121 Pr 0.84409 0.39603 1.01433 0.0
C122 C 0.93226 0.46168 1.03988 0.0
C123 C 0.96061 0.46915 1.03316 0.0
C124 C 0.97155 0.45705 1.01687 0.0
C125 C -0.00172 0.4645 1.01032 0.0
C126 C 0.01459 0.48433 1.01989 0.0
C127 C 0.00348 0.49633 1.03626 0.0
C128 C 0.97675 0.48879 1.04282 0.0
C129 C 0.90804 0.37495 1.01552 0.0
C130 C 0.84497 0.40318 1.05873 0.0
C131 C 0.81102 0.35658 0.99927 0.0
C132 C 0.79889 0.34789 0.98169 0.0
C133 C 0.77435 0.33179 0.98197 0.0
C134 C 0.76463 0.31968 0.96567 0.0
C135 C 0.77949 0.3234 0.94891 0.0
C136 C 0.80313 0.34109 0.94852 0.0
C137 C 0.81275 0.35331 0.96482 0.0
C138 C 0.8273 0.45116 1.02291 0.0
C139 C 0.87387 0.43724 0.98197 0.0
O140 O 0.92837 0.43553 1.04472 0.0
O141 O 0.91152 0.47157 1.0303 0.0
O142 O 0.88677 0.38018 1.02571 0.0
O143 O 0.91896 0.39822 1.00951 0.0
O144 O 0.83856 0.38529 1.04557 0.0
O145 O 0.86225 0.4244 1.05472 0.0
O146 O 0.83818 0.35403 1.00063 0.0
O147 O 0.80112 0.37939 1.00695 0.0
O148 O 0.84935 0.44414 1.01445 0.0
O149 O 0.81228 0.42916 1.02703 0.0
O150 O 0.8875 0.4484 0.99611 0.0
O151 O 0.8584 0.41445 0.98485 0.0
H152 H 0.95932 0.44197 1.00913 0.0
H153 H 0.00595 0.45511 0.99756 0.0
H154 H 0.01555 0.51139 1.04411 0.0
H155 H 0.96867 0.49835 1.05542 0.0
H156 H 0.76334 0.32764 0.99491 0.0
H157 H 0.74606 0.30658 0.9663 0.0
H158 H 0.8151 0.34421 0.93584 0.0
H159 H 0.83169 0.36588 0.9644 0.0
Pr160 Pr 0.64419 0.8978 0.97423 0.0
Pr161 Pr 0.67672 0.85108 0.96233 0.0
C162 C 0.60565 0.93202 0.9895 0.0
C163 C 0.59986 0.95035 1.00542 0.0
C164 C 0.58858 0.97705 1.00226 0.0
C165 C 0.57921 0.99346 1.01709 0.0
C166 C 0.58076 0.98326 1.03532 0.0
C167 C 0.59372 0.95721 1.0385 0.0
C168 C 0.60327 0.94089 1.02366 0.0
C169 C 0.69943 0.91446 0.96559 0.0
C170 C 0.68501 0.86892 1.00674 0.0
C171 C 0.70826 0.80826 0.94902 0.0
C172 C 0.71596 0.77971 0.95559 0.0
C173 C 0.70315 0.7558 0.94796 0.0
C174 C 0.7098 0.72884 0.95431 0.0
C175 C 0.72958 0.72507 0.96839 0.0
C176 C 0.74256 0.74902 0.9759 0.0
C177 C 0.73587 0.77597 0.96958 0.0
C178 C 0.6226 0.83377 0.97397 0.0
C179 C 0.65049 0.8945 0.92998 0.0
O180 O 0.60625 0.90488 0.99246 0.0
O181 O 0.62433 0.9407 0.97742 0.0
O182 O 0.69221 0.89255 0.97408 0.0
O183 O 0.67766 0.9295 0.96159 0.0
O184 O 0.6953 0.8537 0.99284 0.0
O185 O 0.66339 0.88565 1.00364 0.0
O186 O 0.68221 0.81217 0.94439 0.0
O187 O 0.71867 0.82975 0.95787 0.0
O188 O 0.62783 0.8546 0.96344 0.0
O189 O 0.64576 0.82327 0.98002 0.0
O190 O 0.63212 0.90033 0.9431 0.0
O191 O 0.67238 0.8786 0.93421 0.0
H192 H 0.58601 0.98476 0.98826 0.0
H193 H 0.56977 0.01365 1.01425 0.0
H194 H 0.59501 0.94863 1.05236 0.0
H195 H 0.61218 0.92042 1.02642 0.0
H196 H 0.6878 0.75793 0.93713 0.0
H197 H 0.69916 0.71096 0.94831 0.0
H198 H 0.75824 0.74696 0.98652 0.0
H199 H 0.74633 0.79386 0.97572 0.0
Pr200 Pr 0.34342 0.39626 0.72391 0.0
Pr201 Pr 0.38942 0.42988 0.71166 0.0
C202 C 0.31018 0.35675 0.73917 0.0
C203 C 0.29308 0.3503 0.7556 0.0
C204 C 0.26712 0.33713 0.75327 0.0
C205 C 0.25202 0.32735 0.76861 0.0
C206 C 0.26283 0.33041 0.78652 0.0
C207 C 0.28808 0.3452 0.78888 0.0
C208 C 0.30308 0.35516 0.77352 0.0
C209 C 0.32595 0.4514 0.71613 0.0
C210 C 0.37219 0.43768 0.75641 0.0
C211 C 0.4315 0.46255 0.69843 0.0
C212 C 0.45978 0.47076 0.70497 0.0
C213 C 0.4825 0.45201 0.70397 0.0
C214 C 0.50877 0.45971 0.71079 0.0
C215 C 0.51303 0.48635 0.71879 0.0
C216 C 0.49033 0.50517 0.71959 0.0
C217 C 0.46412 0.49752 0.7127 0.0
C218 C 0.40735 0.37577 0.72259 0.0
C219 C 0.34587 0.40334 0.67959 0.0
O220 O 0.33739 0.35728 0.74116 0.0
O221 O 0.30083 0.37609 0.72802 0.0
O222 O 0.34803 0.4445 0.72421 0.0
O223 O 0.31119 0.42929 0.71212 0.0
O224 O 0.38649 0.44865 0.7423 0.0
O225 O 0.35619 0.41533 0.75343 0.0
O226 O 0.42779 0.43649 0.69329 0.0
O227 O 0.41011 0.47246 0.70776 0.0
O228 O 0.38647 0.38075 0.71235 0.0
O229 O 0.41778 0.39916 0.72863 0.0
O230 O 0.34021 0.38477 0.69257 0.0
O231 O 0.36178 0.42534 0.68385 0.0
H232 H 0.25901 0.33346 0.73951 0.0
H233 H 0.23239 0.31647 0.76641 0.0
H234 H 0.29708 0.34771 0.80248 0.0
H235 H 0.323 0.36556 0.77562 0.0
H236 H 0.48003 0.43127 0.698 0.0
H237 H 0.52582 0.44481 0.70963 0.0
H238 H 0.4926 0.52572 0.72585 0.0
H239 H 0.4471 0.51249 0.71364 0.0
Pr240 Pr 0.84493 0.09663 0.47468 0.0
Pr241 Pr 0.81254 0.14357 0.46222 0.0
C242 C 0.88362 0.06282 0.48968 0.0
C243 C 0.89348 0.05253 0.50749 0.0
C244 C 0.9097 0.0281 0.50789 0.0
C245 C 0.92238 0.01981 0.52427 0.0
C246 C 0.91909 0.03596 0.54047 0.0
C247 C 0.90153 0.05965 0.54023 0.0
C248 C 0.88877 0.06789 0.52382 0.0
C249 C 0.79004 0.0804 0.46593 0.0
C250 C 0.80383 0.12678 0.50691 0.0
C251 C 0.78083 0.18612 0.44928 0.0
C252 C 0.77232 0.21443 0.45605 0.0
C253 C 0.79087 0.23744 0.4552 0.0
C254 C 0.78279 0.26383 0.46203 0.0
C255 C 0.75596 0.26793 0.46988 0.0
C256 C 0.73738 0.24492 0.47056 0.0
C257 C 0.74542 0.21859 0.46367 0.0
C258 C 0.86634 0.16079 0.47369 0.0
C259 C 0.83821 0.09789 0.43012 0.0
O260 O 0.88782 0.08949 0.48629 0.0
O261 O 0.85937 0.05366 0.48411 0.0
O262 O 0.79707 0.10232 0.47443 0.0
O263 O 0.81187 0.06525 0.46179 0.0
O264 O 0.79284 0.14031 0.49269 0.0
O265 O 0.82661 0.1114 0.50412 0.0
O266 O 0.80706 0.18251 0.4445 0.0
O267 O 0.77042 0.1645 0.45813 0.0
O268 O 0.86131 0.1397 0.46339 0.0
O269 O 0.84304 0.17178 0.47952 0.0
O270 O 0.85527 0.09031 0.44335 0.0
O271 O 0.81783 0.11612 0.43403 0.0
H272 H 0.91334 0.01598 0.49537 0.0
H273 H 0.93539 0.00118 0.52415 0.0
H274 H 0.89875 0.0726 0.55247 0.0
H275 H 0.87616 0.08679 0.52371 0.0
H276 H 0.8117 0.23513 0.4493 0.0
H277 H 0.79752 0.2811 0.46096 0.0
H278 H 0.71669 0.24708 0.4767 0.0
H279 H 0.73059 0.20136 0.46448 0.0
Pr280 Pr 0.14156 0.59817 0.22553 0.0
Pr281 Pr 0.09535 0.56481 0.21376 0.0
C282 C 0.17442 0.63794 0.24039 0.0
C283 C 0.18857 0.64565 0.2575 0.0
C284 C 0.2131 0.66172 0.25639 0.0
C285 C 0.22479 0.67283 0.27241 0.0
C286 C 0.21192 0.66815 0.28976 0.0
C287 C 0.18829 0.6505 0.29091 0.0
C288 C 0.17671 0.63926 0.27487 0.0
C289 C 0.15873 0.54295 0.21735 0.0
C290 C 0.11242 0.55688 0.25824 0.0
C291 C 0.05301 0.53274 0.20084 0.0
C292 C 0.02413 0.52546 0.20721 0.0
C293 C 0.00086 0.53909 0.19959 0.0
C294 C 0.97364 0.53271 0.20574 0.0
C295 C 0.96896 0.51241 0.21962 0.0
C296 C 0.99224 0.4986 0.22712 0.0
C297 C 0.01945 0.50499 0.22099 0.0
C298 C 0.07777 0.61927 0.22457 0.0
C299 C 0.13987 0.59056 0.18127 0.0
O300 O 0.14703 0.63902 0.24074 0.0
O301 O 0.18446 0.61661 0.23108 0.0
O302 O 0.13658 0.54995 0.22571 0.0
O303 O 0.17367 0.56498 0.21319 0.0
O304 O 0.09835 0.54583 0.24427 0.0
O305 O 0.12812 0.57946 0.25516 0.0
O306 O 0.05747 0.55857 0.19546 0.0
O307 O 0.0738 0.52267 0.21033 0.0
O308 O 0.09882 0.61385 0.21423 0.0
O309 O 0.06702 0.59609 0.23088 0.0
O310 O 0.14584 0.60904 0.19417 0.0
O311 O 0.12344 0.56889 0.18568 0.0
H312 H 0.22259 0.66661 0.24305 0.0
H313 H 0.2433 0.68592 0.27116 0.0
H314 H 0.17778 0.64666 0.30406 0.0
H315 H 0.15783 0.62668 0.27597 0.0
H316 H 0.00369 0.55486 0.18891 0.0
H317 H 0.95627 0.54395 0.19975 0.0
H318 H 0.98945 0.48251 0.23759 0.0
H319 H 0.03681 0.49386 0.22708 0.0
Pr320 Pr 0.80964 0.64267 0.77728 0.0
Pr321 Pr 0.84131 0.59561 0.76477 0.0
C322 C 0.77861 0.68565 0.79089 0.0
C323 C 0.7706 0.71406 0.78428 0.0
C324 C 0.78159 0.73811 0.79288 0.0
C325 C 0.7748 0.76503 0.78654 0.0
C326 C 0.75668 0.76862 0.77149 0.0
C327 C 0.74553 0.7445 0.76298 0.0
C328 C 0.75241 0.71758 0.76927 0.0
C329 C 0.86382 0.65952 0.76553 0.0
C330 C 0.83558 0.59782 0.80921 0.0
C331 C 0.87925 0.56112 0.74906 0.0
C332 C 0.88626 0.5471 0.7316 0.0
C333 C 0.90049 0.52145 0.73209 0.0
C334 C 0.91145 0.50988 0.7158 0.0
C335 C 0.90848 0.524 0.69885 0.0
C336 C 0.89238 0.5487 0.69826 0.0
C337 C 0.88126 0.56015 0.71455 0.0
C338 C 0.78611 0.57995 0.774 0.0
C339 C 0.80082 0.62564 0.73268 0.0
O340 O 0.80489 0.68193 0.79497 0.0
O341 O 0.76783 0.66397 0.78243 0.0
O342 O 0.85844 0.63844 0.77582 0.0
O343 O 0.84073 0.67046 0.75969 0.0
O344 O 0.85299 0.59084 0.79576 0.0
O345 O 0.81462 0.61526 0.80546 0.0
O346 O 0.88185 0.5885 0.74933 0.0
O347 O 0.85739 0.55187 0.75824 0.0
O348 O 0.79347 0.60167 0.76531 0.0
O349 O 0.80774 0.56471 0.77805 0.0
O350 O 0.79059 0.64045 0.7468 0.0
O351 O 0.82258 0.609 0.7355 0.0
H352 H 0.79565 0.73609 0.80447 0.0
H353 H 0.78407 0.78303 0.79332 0.0
H354 H 0.73116 0.74638 0.75156 0.0
H355 H 0.74347 0.69955 0.76231 0.0
H356 H 0.90424 0.51102 0.74516 0.0
H357 H 0.92331 0.49054 0.7166 0.0
H358 H 0.88987 0.56017 0.68544 0.0
H359 H 0.87005 0.57989 0.71393 0.0
Pr360 Pr 0.09656 0.06388 1.02877 0.0
Pr361 Pr 0.14322 0.09662 1.01615 0.0
C362 C 0.0539 0.03189 1.04197 0.0
C363 C 0.02568 0.0237 1.03526 0.0
C364 C 0.00275 0.04213 1.0368 0.0
C365 C 0.97649 0.03451 1.02992 0.0
C366 C 0.97243 0.00826 1.02134 0.0
C367 C -0.00466 0.98975 1.02 0.0
C368 C 0.02155 -0.00268 1.02693 0.0
C369 C 0.07931 0.11798 1.01736 0.0
C370 C 0.14112 0.08989 1.06064 0.0
C371 C 0.17715 0.13543 1.00061 0.0
C372 C 0.18789 0.14415 0.98248 0.0
C373 C 0.21189 0.16101 0.9815 0.0
C374 C 0.22036 0.17267 0.96462 0.0
C375 C 0.2048 0.1677 0.94853 0.0
C376 C 0.18162 0.14944 0.94942 0.0
C377 C 0.17324 0.1377 0.96631 0.0
C378 C 0.15942 0.04134 1.02457 0.0
C379 C 0.11323 0.05594 0.98402 0.0
O380 O 0.0577 0.05807 1.04681 0.0
O381 O 0.07546 0.02156 1.033 0.0
O382 O 0.10025 0.11293 1.02753 0.0
O383 O 0.06852 0.0946 1.01159 0.0
O384 O 0.14823 0.10755 1.04741 0.0
O385 O 0.12392 0.06871 1.05669 0.0
O386 O 0.15036 0.13928 1.00354 0.0
O387 O 0.18637 0.11168 1.00715 0.0
O388 O 0.13764 0.04851 1.01621 0.0
O389 O 0.17431 0.06327 1.02884 0.0
O390 O 0.09966 0.04463 0.99831 0.0
O391 O 0.12869 0.07871 0.98676 0.0
H392 H 0.00505 0.06255 1.04326 0.0
H393 H 0.95929 0.04915 1.03151 0.0
H394 H -0.0068 0.9695 1.0133 0.0
H395 H 0.03871 0.98257 1.02558 0.0
H396 H 0.22348 0.16599 0.9939 0.0
H397 H 0.23859 0.18625 0.96426 0.0
H398 H 0.1691 0.14538 0.9373 0.0
H399 H 0.15468 0.12458 0.96687 0.0
Pr400 Pr 0.67103 0.35241 0.2762 0.0
Pr401 Pr 0.63844 0.39876 0.26226 0.0
C402 C 0.70272 0.31024 0.2897 0.0
C403 C 0.71139 0.28179 0.28321 0.0
C404 C 0.69289 0.25874 0.2841 0.0
C405 C 0.70114 0.23224 0.27754 0.0
C406 C 0.72811 0.22803 0.26993 0.0
C407 C 0.74663 0.25108 0.2692 0.0
C408 C 0.73842 0.27754 0.27582 0.0
C409 C 0.61814 0.33406 0.26351 0.0
C410 C 0.64599 0.40069 0.3072 0.0
C411 C 0.59957 0.43049 0.24545 0.0
C412 C 0.58326 0.42924 0.22845 0.0
C413 C 0.56544 0.45147 0.22405 0.0
C414 C 0.54912 0.45015 0.20817 0.0
C415 C 0.55036 0.4265 0.19646 0.0
C416 C 0.56847 0.4043 0.2009 0.0
C417 C 0.5848 0.40566 0.21681 0.0
C418 C 0.69267 0.4161 0.2717 0.0
C419 C 0.68037 0.36713 0.23146 0.0
O420 O 0.67644 0.3139 0.29434 0.0
O421 O 0.71317 0.33172 0.28072 0.0
O422 O 0.62232 0.35561 0.27351 0.0
O423 O 0.6419 0.32304 0.25862 0.0
O424 O 0.63064 0.40987 0.29344 0.0
O425 O 0.66454 0.38026 0.3041 0.0
O426 O 0.59349 0.41137 0.25784 0.0
O427 O 0.62645 0.43469 0.24341 0.0
O428 O 0.68622 0.39359 0.26365 0.0
O429 O 0.67054 0.43143 0.27474 0.0
O430 O 0.69212 0.35587 0.24622 0.0
O431 O 0.65625 0.38058 0.23355 0.0
H432 H 0.67195 0.26113 0.28982 0.0
H433 H 0.68642 0.21496 0.27865 0.0
H434 H 0.76743 0.24887 0.26323 0.0
H435 H 0.75323 0.29478 0.27497 0.0
H436 H 0.56409 0.46982 0.23293 0.0
H437 H 0.53576 0.46781 0.20495 0.0
H438 H 0.56973 0.38574 0.19224 0.0
H439 H 0.59844 0.38825 0.22012 0.0
Pr440 Pr 0.38968 0.93018 0.5272 0.0
Pr441 Pr 0.34341 0.89662 0.51563 0.0
C442 C 0.43163 0.96294 0.53993 0.0
C443 C 0.46019 0.97093 0.53334 0.0
C444 C 0.48268 0.95191 0.53403 0.0
C445 C 0.50929 0.95956 0.52731 0.0
C446 C 0.51411 0.98641 0.51972 0.0
C447 C 0.49159 0.00545 0.51917 0.0
C448 C 0.46506 -0.00215 0.52596 0.0
C449 C 0.40753 0.87586 0.51629 0.0
C450 C 0.3458 0.90374 0.55985 0.0
C451 C 0.31011 0.85725 0.50076 0.0
C452 C 0.2949 0.85059 0.48385 0.0
C453 C 0.26987 0.83535 0.48526 0.0
C454 C 0.25688 0.8255 0.46932 0.0
C455 C 0.26891 0.83061 0.45177 0.0
C456 C 0.29311 0.84742 0.45039 0.0
C457 C 0.30599 0.85742 0.46634 0.0
C458 C 0.32647 0.95179 0.524 0.0
C459 C 0.37237 0.93778 0.48274 0.0
O460 O 0.42761 0.93703 0.54531 0.0
O461 O 0.41063 0.97271 0.53052 0.0
O462 O 0.38642 0.88106 0.52663 0.0
O463 O 0.41825 0.89914 0.51011 0.0
O464 O 0.33999 0.88523 0.54694 0.0
O465 O 0.36187 0.92567 0.5554 0.0
O466 O 0.33748 0.85649 0.49964 0.0
O467 O 0.30045 0.87785 0.51093 0.0
O468 O 0.34835 0.94477 0.51535 0.0
O469 O 0.31157 0.9298 0.52831 0.0
O470 O 0.38665 0.94884 0.49661 0.0
O471 O 0.35651 0.91536 0.48595 0.0
H472 H 0.47979 0.93103 0.5397 0.0
H473 H 0.52615 0.94447 0.52827 0.0
H474 H 0.4943 0.02617 0.51321 0.0
H475 H 0.44821 0.01301 0.52526 0.0
H476 H 0.26094 0.83017 0.49871 0.0
H477 H 0.23797 0.81303 0.47078 0.0
H478 H 0.303 0.85155 0.43708 0.0
H479 H 0.32522 0.86941 0.46501 0.0
Pr480 Pr 0.14448 0.39778 0.47507 0.0
Pr481 Pr 0.17659 0.35103 0.46271 0.0
C482 C 0.10625 0.4319 0.49076 0.0
C483 C 0.10051 0.44804 0.50764 0.0
C484 C 0.08726 0.47414 0.50617 0.0
C485 C 0.07792 0.48812 0.52206 0.0
C486 C 0.08149 0.476 0.53962 0.0
C487 C 0.09655 0.45074 0.54108 0.0
C488 C 0.10608 0.43688 0.52519 0.0
C489 C 0.19966 0.41422 0.46623 0.0
C490 C 0.18513 0.36829 0.5073 0.0
C491 C 0.20825 0.30833 0.44933 0.0
C492 C 0.21647 0.27997 0.45602 0.0
C493 C 0.19816 0.25686 0.45468 0.0
C494 C 0.20585 0.23043 0.46146 0.0
C495 C 0.23207 0.22638 0.46975 0.0
C496 C 0.25044 0.24948 0.47091 0.0
C497 C 0.24279 0.27586 0.46408 0.0
C498 C 0.12232 0.33393 0.47421 0.0
C499 C 0.15056 0.39556 0.43072 0.0
O500 O 0.10535 0.40448 0.49216 0.0
O501 O 0.12627 0.44112 0.47987 0.0
O502 O 0.19248 0.39223 0.47468 0.0
O503 O 0.17789 0.42933 0.46233 0.0
O504 O 0.19533 0.35329 0.49326 0.0
O505 O 0.16349 0.38503 0.50438 0.0
O506 O 0.18211 0.31209 0.44486 0.0
O507 O 0.21866 0.32992 0.45805 0.0
O508 O 0.12775 0.35494 0.46389 0.0
O509 O 0.14539 0.32307 0.48015 0.0
O510 O 0.13274 0.40195 0.44404 0.0
O511 O 0.17184 0.37858 0.43458 0.0
H512 H 0.08311 0.48315 0.4927 0.0
H513 H 0.06683 0.50781 0.52054 0.0
H514 H 0.09947 0.44074 0.55439 0.0
H515 H 0.1166 0.41685 0.52659 0.0
H516 H 0.17779 0.25913 0.44842 0.0
H517 H 0.19132 0.21309 0.46002 0.0
H518 H 0.27066 0.24734 0.47739 0.0
H519 H 0.25746 0.29315 0.46527 0.0
Pr520 Pr 0.84276 0.89776 0.22329 0.0
Pr521 Pr 0.88929 0.93058 0.21105 0.0
C522 C 0.80892 0.8588 0.23865 0.0
C523 C 0.79418 0.85184 0.25592 0.0
C524 C 0.76906 0.83674 0.2551 0.0
C525 C 0.75663 0.82638 0.27129 0.0
C526 C 0.76933 0.83084 0.28852 0.0
C527 C 0.79361 0.84757 0.28936 0.0
C528 C 0.80593 0.85807 0.27316 0.0
C529 C 0.82628 0.95317 0.21532 0.0
C530 C 0.87213 0.93851 0.25575 0.0
C531 C 0.93191 0.9627 0.19793 0.0
C532 C 0.96006 0.97096 0.20469 0.0
C533 C 0.98293 0.95239 0.20356 0.0
C534 C 0.00911 0.96011 0.21051 0.0
C535 C 0.01315 0.98661 0.21877 0.0
C536 C 0.99031 0.00526 0.21969 0.0
C537 C 0.96418 -0.00242 0.21268 0.0
C538 C 0.90649 0.87633 0.22218 0.0
C539 C 0.84537 0.90448 0.17895 0.0
O540 O 0.83627 0.85729 0.23885 0.0
O541 O 0.79946 0.88004 0.22917 0.0
O542 O 0.84813 0.94596 0.22355 0.0
O543 O 0.81136 0.93127 0.21106 0.0
O544 O 0.88636 0.94949 0.24162 0.0
O545 O 0.85613 0.91618 0.2528 0.0
O546 O 0.9282 0.93652 0.19307 0.0
O547 O 0.91031 0.97296 0.20688 0.0
O548 O 0.88571 0.88151 0.21188 0.0
O549 O 0.91713 0.89964 0.2282 0.0
O550 O 0.83899 0.8863 0.19202 0.0
O551 O 0.86188 0.92609 0.18311 0.0
H552 H 0.75963 0.83201 0.24187 0.0
H553 H 0.73765 0.814 0.27027 0.0
H554 H 0.80401 0.85121 0.3024 0.0
H555 H 0.82526 0.86993 0.27404 0.0
H556 H 0.98064 0.93178 0.19737 0.0
H557 H 0.02626 0.94536 0.20924 0.0
H558 H 0.99243 0.0257 0.22614 0.0
H559 H 0.94707 0.01243 0.21371 0.0
Pr560 Pr 0.34681 0.59383 0.97601 0.0
Pr561 Pr 0.31494 0.64098 0.96398 0.0
C562 C 0.38453 0.55972 0.9918 0.0
C563 C 0.38894 0.54063 1.00755 0.0
C564 C 0.39593 0.5125 1.004 0.0
C565 C 0.40299 0.49457 1.01849 0.0
C566 C 0.40344 0.50451 1.03683 0.0
C567 C 0.39537 0.53244 1.04043 0.0
C568 C 0.38814 0.55034 1.02593 0.0
C569 C 0.29171 0.57757 0.96762 0.0
C570 C 0.30502 0.62351 1.00843 0.0
C571 C 0.2841 0.68411 0.95088 0.0
C572 C 0.27583 0.71257 0.95754 0.0
C573 C 0.28805 0.73666 0.94956 0.0
C574 C 0.28071 0.76357 0.95584 0.0
C575 C 0.2608 0.76713 0.97021 0.0
C576 C 0.24846 0.74298 0.97811 0.0
C577 C 0.25586 0.71607 0.97187 0.0
C578 C 0.36894 0.65768 0.97536 0.0
C579 C 0.34092 0.59625 0.93162 0.0
O580 O 0.38319 0.58676 0.99514 0.0
O581 O 0.36733 0.55131 0.97899 0.0
O582 O 0.29883 0.59964 0.97591 0.0
O583 O 0.31345 0.56209 0.96393 0.0
O584 O 0.29543 0.63883 0.99455 0.0
O585 O 0.3264 0.60635 1.00531 0.0
O586 O 0.31044 0.68037 0.94648 0.0
O587 O 0.27323 0.66242 0.95943 0.0
O588 O 0.36378 0.63678 0.96492 0.0
O589 O 0.34572 0.66848 0.98149 0.0
O590 O 0.35867 0.58964 0.94468 0.0
O591 O 0.31984 0.61348 0.93581 0.0
H592 H 0.39664 0.50455 0.98992 0.0
H593 H 0.40867 0.47307 1.01527 0.0
H594 H 0.39581 0.54088 1.05436 0.0
H595 H 0.38276 0.57194 1.02909 0.0
H596 H 0.30345 0.7347 0.93848 0.0
H597 H 0.29092 0.78158 0.94954 0.0
H598 H 0.23272 0.74484 0.98897 0.0
H599 H 0.24585 0.69804 0.9783 0.0
Pr600 Pr 0.64301 0.098 0.72479 0.0
Pr601 Pr 0.59654 0.06505 0.71303 0.0
C602 C 0.67637 0.13701 0.73996 0.0
C603 C 0.69297 0.14258 0.75646 0.0
C604 C 0.71869 0.15649 0.75444 0.0
C605 C 0.73335 0.16509 0.77003 0.0
C606 C 0.72234 0.16009 0.78788 0.0
C607 C 0.69735 0.14461 0.78984 0.0
C608 C 0.68279 0.13583 0.77423 0.0
C609 C 0.65982 0.04274 0.71646 0.0
C610 C 0.61385 0.05671 0.75753 0.0
C611 C 0.55425 0.03279 0.70022 0.0
C612 C 0.52578 0.02462 0.70693 0.0
C613 C 0.50313 0.04347 0.70619 0.0
C614 C 0.47658 0.03566 0.71293 0.0
C615 C 0.47195 0.00881 0.72058 0.0
C616 C 0.49461 0.98995 0.72118 0.0
C617 C 0.5211 -0.00229 0.71437 0.0
C618 C 0.57927 0.11944 0.72409 0.0
C619 C 0.64108 0.09121 0.68053 0.0
O620 O 0.64909 0.13689 0.74206 0.0
O621 O 0.68573 0.1177 0.72862 0.0
O622 O 0.63772 0.04983 0.72485 0.0
O623 O 0.67495 0.0647 0.71246 0.0
O624 O 0.59891 0.04637 0.74372 0.0
O625 O 0.63046 0.07856 0.75431 0.0
O626 O 0.5582 0.05888 0.69519 0.0
O627 O 0.57544 0.02267 0.70928 0.0
O628 O 0.60027 0.11408 0.71369 0.0
O629 O 0.5684 0.09625 0.73028 0.0
O630 O 0.64713 0.10942 0.69356 0.0
O631 O 0.62432 0.06969 0.68477 0.0
H632 H 0.72694 0.16157 0.74079 0.0
H633 H 0.75281 0.17654 0.76811 0.0
H634 H 0.68819 0.14062 0.80339 0.0
H635 H 0.66308 0.12481 0.77606 0.0
H636 H 0.50586 0.06433 0.70045 0.0
H637 H 0.45961 0.05061 0.71194 0.0
H638 H 0.49205 0.96924 0.72717 0.0
H639 H 0.53805 0.98267 0.7151 0.0
C640 C 0.39312 0.1998 0.25341 0.0
C641 C 0.39141 0.17455 0.26358 0.0
C642 C 0.4174 0.21666 0.2535 0.0
C643 C 0.49426 0.21666 0.26483 0.0
H644 H 0.48543 0.29758 0.26279 0.0
C645 C 0.59053 0.29117 0.25379 0.0
C646 C 0.59119 0.31743 0.26286 0.0
C647 C 0.56633 0.27418 0.25406 0.0
C648 C 0.48849 0.27507 0.26351 0.0
H649 H 0.4148 0.14728 0.28167 0.0
H650 H 0.45723 0.17657 0.28186 0.0
H651 H 0.44419 0.26729 0.26331 0.0
H652 H 0.56604 0.34632 0.27915 0.0
H653 H 0.52379 0.31682 0.27965 0.0
H654 H 0.53855 0.22447 0.26532 0.0
C655 C 0.43969 0.18335 0.27365 0.0
C656 C 0.46462 0.25749 0.26357 0.0
C657 C 0.41523 0.16644 0.27358 0.0
C658 C 0.56645 0.32635 0.27194 0.0
C659 C 0.54209 0.30932 0.27217 0.0
C660 C 0.51814 0.23424 0.26468 0.0
C661 C 0.44115 0.20903 0.26377 0.0
C662 C 0.46696 0.22788 0.26414 0.0
C663 C 0.54162 0.2827 0.26339 0.0
C664 C 0.5158 0.26385 0.26393 0.0
H665 H 0.3754 0.20686 0.24544 0.0
H666 H 0.41751 0.23575 0.24535 0.0
H667 H 0.49732 0.19414 0.26515 0.0
H668 H 0.609 0.28345 0.24657 0.0
H669 H 0.56703 0.25429 0.24677 0.0
C670 C 0.53765 0.6481 0.50688 0.0
C671 C 0.56307 0.64657 0.51657 0.0
C672 C 0.52114 0.67261 0.50712 0.0
C673 C 0.52266 0.75022 0.51752 0.0
H674 H 0.44184 0.74235 0.51726 0.0
C675 C 0.44965 0.84709 0.50636 0.0
C676 C 0.42381 0.84866 0.51598 0.0
C677 C 0.46622 0.82263 0.50674 0.0
C678 C 0.46434 0.74515 0.51747 0.0
H679 H 0.59098 0.67049 0.53397 0.0
H680 H 0.56232 0.71333 0.53439 0.0
H681 H 0.47134 0.70058 0.51772 0.0
H682 H 0.39522 0.82487 0.53342 0.0
H683 H 0.42397 0.78215 0.53409 0.0
H684 H 0.51565 0.79479 0.51752 0.0
C685 C 0.55513 0.69546 0.52646 0.0
C686 C 0.48145 0.72096 0.5175 0.0
C687 C 0.57166 0.67076 0.52628 0.0
C688 C 0.41488 0.82457 0.52577 0.0
C689 C 0.43146 0.79993 0.52609 0.0
C690 C 0.50555 0.77441 0.51739 0.0
C691 C 0.52934 0.69679 0.51702 0.0
C692 C 0.511 0.72294 0.51744 0.0
C693 C 0.45766 0.79855 0.51672 0.0
C694 C 0.476 0.77242 0.51728 0.0
H695 H 0.53022 0.63009 0.49917 0.0
H696 H 0.50192 0.67259 0.49933 0.0
H697 H 0.54517 0.753 0.51735 0.0
H698 H 0.45737 0.86504 0.49859 0.0
H699 H 0.48579 0.82261 0.499 0.0
C700 C 0.06741 0.82599 0.77586 0.0
C701 C 0.09162 0.81752 0.76599 0.0
C702 C 0.04288 0.80917 0.77605 0.0
C703 C 0.01797 0.73489 0.76684 0.0
H704 H 0.94419 0.76846 0.76711 0.0
C705 C 0.91484 0.66722 0.77495 0.0
C706 C 0.891 0.67587 0.76517 0.0
C707 C 0.93935 0.68406 0.77532 0.0
C708 C 0.96457 0.75853 0.76691 0.0
H709 H 0.10832 0.78458 0.7483 0.0
H710 H 0.06614 0.75579 0.74851 0.0
H711 H 0.98566 0.79851 0.76701 0.0
H712 H 0.87495 0.70916 0.74782 0.0
H713 H 0.91711 0.73799 0.74833 0.0
H714 H -0.00311 0.69492 0.76647 0.0
C715 C 0.06596 0.77514 0.7564 0.0
C716 C 0.98856 0.77595 0.76709 0.0
C717 C 0.09028 0.79194 0.75615 0.0
C718 C 0.89269 0.70166 0.75559 0.0
C719 C 0.917 0.71847 0.75602 0.0
C720 C -0.00603 0.71747 0.76678 0.0
C721 C 0.04176 0.7832 0.76647 0.0
C722 C 0.01581 0.76453 0.7669 0.0
C723 C 0.94081 0.71022 0.76602 0.0
C724 C 0.96673 0.7289 0.76666 0.0
H725 H 0.06752 0.84542 0.78367 0.0
H726 H 0.02497 0.81628 0.7841 0.0
H727 H 0.03834 0.72496 0.76696 0.0
H728 H 0.91444 0.64764 0.78258 0.0
H729 H 0.95694 0.6768 0.78331 0.0
C730 C 0.03777 0.14673 1.00713 0.0
C731 C 0.06324 0.1453 1.01676 0.0
C732 C 0.0213 0.17127 1.00723 0.0
C733 C 0.02297 0.24906 1.01721 0.0
H734 H 0.94215 0.24131 1.01693 0.0
C735 C 0.95017 0.34605 1.00575 0.0
C736 C 0.92424 0.34769 1.01526 0.0
C737 C 0.9667 0.32156 1.00621 0.0
C738 C 0.96464 0.24408 1.01715 0.0
H739 H 0.09129 0.16946 1.03392 0.0
H740 H 0.0627 0.21234 1.03412 0.0
H741 H 0.97157 0.19951 1.01759 0.0
H742 H 0.89548 0.32397 1.03262 0.0
H743 H 0.92415 0.28122 1.03345 0.0
H744 H 0.01603 0.29365 1.01704 0.0
C745 C 0.05543 0.19436 1.02633 0.0
C746 C 0.98172 0.21987 1.01729 0.0
C747 C 0.07192 0.16963 1.02627 0.0
C748 C 0.91519 0.32363 1.02504 0.0
C749 C 0.93175 0.29896 1.02546 0.0
C750 C 0.0059 0.27328 1.01698 0.0
C751 C 0.02958 0.19559 1.01695 0.0
C752 C 0.01127 0.22179 1.01724 0.0
C753 C 0.95802 0.29751 1.01619 0.0
C754 C 0.97634 0.27135 1.01685 0.0
H755 H 0.03026 0.12861 0.99955 0.0
H756 H 0.00204 0.17115 0.99949 0.0
H757 H 0.04548 0.25182 1.01704 0.0
H758 H 0.95798 0.36397 0.99799 0.0
H759 H 0.98633 0.3215 0.99854 0.0
C760 C 0.59414 0.79158 0.9843 0.0
C761 C 0.59558 0.81718 0.97449 0.0
C762 C 0.56996 0.77458 0.98407 0.0
C763 C 0.49293 0.77484 0.97366 0.0
H764 H 0.50183 0.69386 0.97383 0.0
C765 C 0.39739 0.69978 0.9854 0.0
C766 C 0.39603 0.67414 0.97562 0.0
C767 C 0.4216 0.71674 0.9849 0.0
C768 C 0.49876 0.71639 0.97365 0.0
H769 H 0.57184 0.8449 0.95691 0.0
H770 H 0.52954 0.81541 0.95654 0.0
H771 H 0.54308 0.72422 0.97332 0.0
H772 H 0.41996 0.64632 0.95778 0.0
H773 H 0.46233 0.67574 0.95695 0.0
H774 H 0.44861 0.76702 0.9738 0.0
C775 C 0.54724 0.80845 0.96454 0.0
C776 C 0.52263 0.73399 0.97357 0.0
C777 C 0.57162 0.82546 0.9647 0.0
C778 C 0.42011 0.66578 0.96557 0.0
C779 C 0.44453 0.68276 0.96514 0.0
C780 C 0.46906 0.75725 0.97385 0.0
C781 C 0.54603 0.78246 0.97407 0.0
C782 C 0.52025 0.7636 0.97367 0.0
C783 C 0.44564 0.70878 0.97464 0.0
C784 C 0.47144 0.72763 0.97394 0.0
H785 H 0.61198 0.78437 0.99208 0.0
H786 H 0.57003 0.75521 0.99192 0.0
H787 H 0.48986 0.79737 0.97385 0.0
H788 H 0.37945 0.70706 0.99338 0.0
H789 H 0.42144 0.73614 0.99275 0.0
C790 C 0.57195 0.17065 0.71438 0.0
C791 C 0.56309 0.14671 0.72436 0.0
C792 C 0.55538 0.1953 0.71399 0.0
C793 C 0.48138 0.22091 0.72283 0.0
H794 H 0.51552 0.29477 0.72191 0.0
C795 C 0.41504 0.32426 0.71354 0.0
C796 C 0.42363 0.34859 0.72308 0.0
C797 C 0.43165 0.29962 0.71344 0.0
C798 C 0.50544 0.27438 0.72229 0.0
H799 H 0.52972 0.13062 0.74202 0.0
H800 H 0.50134 0.17306 0.74149 0.0
H801 H 0.54507 0.25303 0.72251 0.0
H802 H 0.45658 0.36542 0.74026 0.0
H803 H 0.48502 0.32301 0.74023 0.0
H804 H 0.44175 0.24227 0.72289 0.0
C805 C 0.52082 0.17291 0.73366 0.0
C806 C 0.52257 0.25022 0.7224 0.0
C807 C 0.53736 0.14844 0.73411 0.0
C808 C 0.44915 0.34728 0.73268 0.0
C809 C 0.46573 0.32283 0.73252 0.0
C810 C 0.46425 0.24508 0.72261 0.0
C811 C 0.52929 0.19683 0.72348 0.0
C812 C 0.51093 0.22293 0.72282 0.0
C813 C 0.45751 0.29849 0.72279 0.0
C814 C 0.47589 0.27237 0.72247 0.0
H815 H 0.59151 0.17022 0.70663 0.0
H816 H 0.5628 0.21296 0.70585 0.0
H817 H 0.4713 0.20052 0.72287 0.0
H818 H 0.39565 0.32436 0.70593 0.0
H819 H 0.42443 0.28162 0.70564 0.0
C820 C 0.09332 0.29187 0.48421 0.0
C821 C 0.0951 0.31761 0.47458 0.0
C822 C 0.06892 0.27517 0.48384 0.0
C823 C 0.99188 0.27653 0.47311 0.0
H824 H -0.00031 0.19545 0.47333 0.0
C825 C 0.89495 0.2028 0.48379 0.0
C826 C 0.89358 0.17703 0.47416 0.0
C827 C 0.91938 0.21946 0.48353 0.0
C828 C -0.00308 0.21802 0.47312 0.0
H829 H 0.07173 0.34587 0.45715 0.0
H830 H 0.0291 0.31691 0.45652 0.0
H831 H 0.04134 0.22523 0.47311 0.0
H832 H 0.91774 0.14867 0.45684 0.0
H833 H 0.96045 0.17758 0.45638 0.0
H834 H 0.94747 0.26932 0.47289 0.0
C835 C 0.04668 0.30959 0.46451 0.0
C836 C 0.02103 0.23529 0.47323 0.0
C837 C 0.07127 0.32632 0.46481 0.0
C838 C 0.91787 0.16825 0.46449 0.0
C839 C 0.94249 0.18494 0.46429 0.0
C840 C 0.96778 0.25926 0.47311 0.0
C841 C 0.04511 0.28348 0.47387 0.0
C842 C 0.01906 0.26495 0.47332 0.0
C843 C 0.94366 0.21108 0.47366 0.0
C844 C 0.96974 0.2296 0.4732 0.0
H845 H 0.11106 0.28432 0.49196 0.0
H846 H 0.06875 0.25569 0.49158 0.0
H847 H 0.9891 0.2991 0.4733 0.0
H848 H 0.87686 0.2104 0.49148 0.0
H849 H 0.91921 0.23896 0.49127 0.0
C850 C 0.07051 0.67047 0.21478 0.0
C851 C 0.06153 0.64652 0.22471 0.0
C852 C 0.05396 0.69514 0.21429 0.0
C853 C 0.97987 0.72097 0.22279 0.0
H854 H 0.01424 0.79472 0.22197 0.0
C855 C 0.91394 0.82468 0.21321 0.0
C856 C 0.92258 0.84901 0.22275 0.0
C857 C 0.93043 0.79994 0.21319 0.0
C858 C 0.00408 0.77437 0.22231 0.0
H859 H 0.02789 0.63045 0.24217 0.0
H860 H -0.00047 0.67292 0.24145 0.0
H861 H 0.04365 0.7529 0.22271 0.0
H862 H 0.95551 0.86567 0.24003 0.0
H863 H 0.98372 0.82312 0.24012 0.0
H864 H 0.9403 0.74247 0.22267 0.0
C865 C 0.01912 0.67277 0.23374 0.0
C866 C 0.02114 0.75014 0.22251 0.0
C867 C 0.03565 0.64828 0.23429 0.0
C868 C 0.94802 0.84756 0.23243 0.0
C869 C 0.96448 0.82301 0.23235 0.0
C870 C 0.96281 0.7452 0.22248 0.0
C871 C 0.02774 0.69671 0.22363 0.0
C872 C 0.00943 0.72288 0.22289 0.0
C873 C 0.95623 0.79869 0.22262 0.0
C874 C 0.97452 0.77247 0.22238 0.0
H875 H 0.09017 0.67004 0.20716 0.0
H876 H 0.06151 0.7128 0.2062 0.0
H877 H 0.96973 0.70061 0.2228 0.0
H878 H 0.89461 0.82487 0.20554 0.0
H879 H 0.92317 0.78196 0.20539 0.0
C880 C 0.45903 0.02877 0.17917 0.0
C881 C 0.43039 0.03526 0.17831 0.0
C882 C 0.47514 0.0267 0.16302 0.0
C883 C 0.47031 0.01477 1.11306 0.0
H884 H 0.54516 0.04674 1.11216 0.0
C885 C 0.53881 0.00849 1.04783 0.0
C886 C 0.56587 -0.00214 1.05064 0.0
C887 C 0.52266 0.01798 1.06276 0.0
C888 C 0.52433 0.03769 1.11225 0.0
H889 H 0.39602 0.04414 0.15988 0.0
H890 H 0.42435 0.0408 0.13154 0.0
H891 H 0.5154 0.05259 0.13966 0.0
H892 H 0.59798 0.99077 1.07108 0.0
H893 H 0.56948 0.00685 1.09729 0.0
H894 H 0.47935 -0.00062 1.08584 0.0
C895 C 0.43424 0.03719 0.14475 0.0
C896 C 0.50734 0.04095 0.12797 0.0
C897 C 0.41809 0.03928 0.16094 0.0
C898 C 0.57707 -0.00148 1.06854 0.0
C899 C 0.56085 0.00797 1.08351 0.0
C900 C 0.48727 0.01151 1.09736 0.0
C901 C 0.46298 0.03114 0.14566 0.0
C902 C 0.48032 0.02919 0.1286 0.0
C903 C 0.53318 0.01694 1.08081 0.0
C904 C 0.51456 0.02266 1.09688 0.0
H905 H 0.4692 0.02594 0.19237 0.0
H906 H 0.49715 0.02157 0.16412 0.0
H907 H 0.44971 0.00518 1.11325 0.0
H908 H 0.52944 0.00803 1.03424 0.0
H909 H 0.50154 0.0252 1.06026 0.0
C910 C 0.73144 0.7102 0.43542 0.0
C911 C 0.72433 0.68162 0.43393 0.0
C912 C 0.73701 0.7261 0.41961 0.0
C913 C 0.72027 0.72841 0.37044 0.0
H914 H 0.77921 0.78456 0.36818 0.0
C915 C 0.75199 0.78697 0.30372 0.0
C916 C 0.75931 0.81551 0.30515 0.0
C917 C 0.74603 0.77126 0.31955 0.0
C918 C 0.76241 0.76924 0.36874 0.0
H919 H 0.71881 0.64693 0.4148 0.0
H920 H 0.72859 0.67486 0.38704 0.0
H921 H 0.77475 0.75447 0.39539 0.0
H922 H 0.76469 0.85035 0.32418 0.0
H923 H 0.75424 0.82275 0.35198 0.0
H924 H 0.70796 0.74317 0.34377 0.0
C925 C 0.72943 0.68496 0.40048 0.0
C926 C 0.75996 0.75194 0.38425 0.0
C927 C 0.7239 0.669 0.41633 0.0
C928 C 0.75946 0.8283 0.3227 0.0
C929 C 0.75354 0.81253 0.33857 0.0
C930 C 0.72272 0.74572 0.35493 0.0
C931 C 0.73551 0.71377 0.40198 0.0
C932 C 0.73888 0.73136 0.38524 0.0
C933 C 0.74734 0.78374 0.33715 0.0
C934 C 0.74382 0.76628 0.35393 0.0
H935 H 0.73142 0.72068 0.44875 0.0
H936 H 0.74129 0.74834 0.42117 0.0
H937 H 0.70349 0.71307 0.371 0.0
H938 H 0.7522 0.77636 0.29044 0.0
H939 H 0.74165 0.74903 0.31805 0.0
C940 C 0.03749 -0.00284 0.68641 0.0
C941 C 0.06545 0.9881 0.6852 0.0
C942 C 0.02328 0.00524 0.67055 0.0
C943 C 0.02311 0.99148 0.62094 0.0
H944 H 0.96984 0.05288 0.61985 0.0
C945 C 0.96425 0.02261 0.55505 0.0
C946 C 0.93578 0.02953 0.55705 0.0
C947 C 0.98069 0.0183 0.57058 0.0
C948 C 0.98445 0.03549 0.62004 0.0
H949 H 0.10093 0.98189 0.6666 0.0
H950 H 0.07594 0.99596 0.63876 0.0
H951 H -0.00108 0.0463 0.64708 0.0
H952 H 0.90202 0.03673 0.57684 0.0
H953 H 0.93084 0.02904 0.60411 0.0
H954 H 0.00842 0.98042 0.59404 0.0
C955 C 0.065 0.99643 0.652 0.0
C956 C 0.00115 0.03182 0.63556 0.0
C957 C 0.07927 0.98841 0.6679 0.0
C958 C 0.92397 0.03169 0.57491 0.0
C959 C 0.94046 0.02737 0.59048 0.0
C960 C 0.0064 0.99513 0.60543 0.0
C961 C 0.03669 0.00434 0.65315 0.0
C962 C 0.02051 0.00967 0.6362 0.0
C963 C 0.96903 0.02085 0.58845 0.0
C964 C 0.9868 0.01707 0.60488 0.0
H965 H 0.02608 0.9967 0.69947 0.0
H966 H 0.00137 0.01088 0.67183 0.0
H967 H 0.03747 0.9739 0.62119 0.0
H968 H 0.97408 0.02135 0.54146 0.0
H969 H 0.00273 0.01369 0.56859 0.0
C970 C 0.77369 0.31833 0.91459 0.0
C971 C 0.77221 0.30659 0.93242 0.0
C972 C 0.76954 0.3015 0.89901 0.0
C973 C 0.73971 0.23399 0.884 0.0
H974 H 0.79148 0.24233 0.84249 0.0
C975 C 0.73566 0.15995 0.82139 0.0
C976 C 0.7349 0.17377 0.80421 0.0
C977 C 0.74351 0.17451 0.83731 0.0
C978 C 0.77685 0.23984 0.85398 0.0
H979 H 0.76509 0.26811 0.94794 0.0
H980 H 0.75763 0.2389 0.92081 0.0
H981 H 0.79648 0.27231 0.86973 0.0
H982 H 0.74279 0.21337 0.79013 0.0
H983 H 0.75668 0.23857 0.81778 0.0
H984 H 0.71988 0.20177 0.8682 0.0
C985 C 0.76164 0.26112 0.91886 0.0
C986 C 0.7796 0.25707 0.86949 0.0
C987 C 0.76581 0.2779 0.9344 0.0
C988 C 0.74358 0.20197 0.80309 0.0
C989 C 0.75149 0.21646 0.81896 0.0
C990 C 0.73696 0.21677 0.8685 0.0
C991 C 0.76385 0.27266 0.90102 0.0
C992 C 0.76093 0.25443 0.88458 0.0
C993 C 0.7508 0.2031 0.83628 0.0
C994 C 0.75538 0.21967 0.85329 0.0
H995 H 0.77831 0.34044 0.91268 0.0
H996 H 0.7709 0.31101 0.8854 0.0
H997 H 0.72485 0.23171 0.89537 0.0
H998 H 0.72946 0.13811 0.82262 0.0
H999 H 0.74323 0.16362 0.85048 0.0
C1000 C 0.24067 0.28751 0.80015 0.0
C1001 C 0.24975 0.31541 0.80236 0.0
C1002 C 0.23228 0.27167 0.81546 0.0
C1003 C 0.21184 0.27542 0.86481 0.0
H1004 H 0.24661 0.20186 0.86699 0.0
C1005 C 0.21711 0.21239 0.9323 0.0
C1006 C 0.21103 0.18353 0.93135 0.0
C1007 C 0.22065 0.22809 0.91617 0.0
C1008 C 0.23646 0.22217 0.86648 0.0
H1009 H 0.25547 0.34917 0.82218 0.0
H1010 H 0.24125 0.32125 0.84907 0.0
H1011 H 0.25265 0.2306 0.83932 0.0
H1012 H 0.20467 0.14829 0.91279 0.0
H1013 H 0.21052 0.1759 0.88448 0.0
H1014 H 0.19593 0.26708 0.89209 0.0
C1015 C 0.24049 0.31172 0.83544 0.0
C1016 C 0.23985 0.23861 0.85064 0.0
C1017 C 0.24887 0.32762 0.82009 0.0
C1018 C 0.20915 0.17054 0.91392 0.0
C1019 C 0.21269 0.18629 0.89775 0.0
C1020 C 0.20842 0.25896 0.88066 0.0
C1021 C 0.2329 0.28337 0.8333 0.0
C1022 C 0.22774 0.26546 0.84971 0.0
C1023 C 0.21811 0.21529 0.89875 0.0
C1024 C 0.22092 0.23229 0.8817 0.0
H1025 H 0.24138 0.27737 0.78671 0.0
H1026 H 0.22612 0.24998 0.8134 0.0
H1027 H 0.20205 0.29592 0.86437 0.0
H1028 H 0.21831 0.22309 0.94552 0.0
H1029 H 0.22526 0.25032 0.91735 0.0
C1030 C 0.25103 0.78727 0.43642 0.0
C1031 C 0.25826 0.81587 0.43523 0.0
C1032 C 0.24446 0.77213 0.42054 0.0
C1033 C 0.259 0.77187 0.37083 0.0
H1034 H 0.20073 0.715 0.3698 0.0
C1035 C 0.22744 0.71279 0.30465 0.0
C1036 C 0.2211 0.68402 0.30624 0.0
C1037 C 0.23289 0.7288 0.32036 0.0
C1038 C 0.21731 0.73057 0.36999 0.0
H1039 H 0.26283 0.85139 0.41662 0.0
H1040 H 0.25131 0.82478 0.38874 0.0
H1041 H 0.20568 0.74462 0.39718 0.0
H1042 H 0.21678 0.64919 0.32543 0.0
H1043 H 0.22634 0.67731 0.353 0.0
H1044 H 0.27069 0.75775 0.34367 0.0
C1045 C 0.25115 0.81409 0.40198 0.0
C1046 C 0.22004 0.7476 0.3856 0.0
C1047 C 0.25769 0.82929 0.41791 0.0
C1048 C 0.22127 0.67139 0.32382 0.0
C1049 C 0.22667 0.68746 0.33957 0.0
C1050 C 0.25627 0.75485 0.35522 0.0
C1051 C 0.24504 0.78523 0.40313 0.0
C1052 C 0.24097 0.76834 0.38619 0.0
C1053 C 0.23203 0.71641 0.33799 0.0
C1054 C 0.23546 0.73398 0.35469 0.0
H1055 H 0.25178 0.77618 0.4495 0.0
H1056 H 0.24019 0.74984 0.42181 0.0
H1057 H 0.27567 0.78735 0.37105 0.0
H1058 H 0.22695 0.72327 0.29134 0.0
H1059 H 0.23663 0.75113 0.31875 0.0
C1060 C 0.03838 0.49594 0.55432 0.0
C1061 C 0.0664 0.48741 0.55598 0.0
C1062 C 0.02235 0.50216 0.57002 0.0
C1063 C 0.01748 0.48253 0.61859 0.0
H1064 H 0.96177 0.54165 0.62128 0.0
C1065 C 0.95334 0.50776 0.68447 0.0
C1066 C 0.92509 0.51526 0.68241 0.0
C1067 C 0.97043 0.50343 0.66897 0.0
C1068 C 0.977 0.52482 0.62059 0.0
H1069 H 0.10017 0.48066 0.57528 0.0
H1070 H 0.07196 0.4915 0.60286 0.0
H1071 H -0.00618 0.53943 0.59471 0.0
H1072 H 0.89222 0.5226 0.66255 0.0
H1073 H 0.92225 0.51495 0.63533 0.0
H1074 H 0.00057 0.4678 0.64439 0.0
C1075 C 0.0624 0.49293 0.58936 0.0
C1076 C -0.00457 0.52368 0.60547 0.0
C1077 C 0.07851 0.48677 0.57362 0.0
C1078 C 0.91399 0.51717 0.66453 0.0
C1079 C 0.93116 0.51288 0.64899 0.0
C1080 C -0.00095 0.48367 0.6337 0.0
C1081 C 0.03397 0.49989 0.58771 0.0
C1082 C 0.01578 0.50248 0.60432 0.0
C1083 C 0.95967 0.50658 0.6511 0.0
C1084 C 0.97859 0.50477 0.63481 0.0
H1085 H 0.02826 0.49619 0.54097 0.0
H1086 H 0.00041 0.50718 0.56835 0.0
H1087 H 0.03259 0.46561 0.61786 0.0
H1088 H 0.96268 0.50665 0.69804 0.0
H1089 H 0.9924 0.49891 0.67101 0.0
C1090 C 0.50531 0.43508 0.17998 0.0
C1091 C 0.53308 0.42536 0.17955 0.0
C1092 C 0.48971 0.43617 0.16379 0.0
C1093 C 0.50018 0.44333 1.11379 0.0
H1094 H 0.41985 0.43141 1.11245 0.0
C1095 C 0.43848 0.47008 1.04876 0.0
C1096 C 0.41456 0.48668 1.05191 0.0
C1097 C 0.45117 0.45603 1.06337 0.0
C1098 C 0.44228 0.43482 1.11263 0.0
H1099 H 0.56591 0.40814 0.1619 0.0
H1100 H 0.53849 0.40962 0.13363 0.0
H1101 H 0.44581 0.41827 0.14009 0.0
H1102 H 0.38416 0.50002 1.07268 0.0
H1103 H 0.40677 0.47612 1.09831 0.0
H1104 H 0.49668 0.46072 1.08667 0.0
C1105 C 0.52892 0.41673 0.14648 0.0
C1106 C 0.45713 0.42731 0.12843 0.0
C1107 C 0.54453 0.41565 0.1627 0.0
C1108 C 0.40281 0.48775 1.06985 0.0
C1109 C 0.41557 0.47375 1.0845 0.0
C1110 C 0.48537 0.45081 1.09802 0.0
C1111 C 0.50153 0.42752 0.14679 0.0
C1112 C 0.48616 0.43204 0.12931 0.0
C1113 C 0.44032 0.45837 1.08149 0.0
C1114 C 0.45618 0.44717 1.0974 0.0
H1115 H 0.49574 0.44227 0.19282 0.0
H1116 H 0.46877 0.44484 0.16448 0.0
H1117 H 0.52244 0.44769 1.11411 0.0
H1118 H 0.44824 0.46895 1.03515 0.0
H1119 H 0.47 0.44402 1.06057 0.0
C1120 C 0.24625 0.30317 0.24592 0.0
C1121 C 0.24998 0.29758 0.26489 0.0
C1122 C 0.2382 0.32993 0.2399 0.0
C1123 C 0.2033 0.39464 0.25685 0.0
H1124 H 0.23213 0.42734 0.21122 0.0
C1125 C 0.15246 0.49253 0.22568 0.0
C1126 C 0.17016 0.51414 0.21923 0.0
C1127 C 0.16318 0.46611 0.23003 0.0
C1128 C 0.22401 0.41858 0.22405 0.0
H1129 H 0.24823 0.31617 0.29234 0.0
H1130 H 0.23487 0.36279 0.28185 0.0
H1131 H 0.24984 0.38187 0.22167 0.0
H1132 H 0.2129 0.52455 0.2115 0.0
H1133 H 0.23182 0.47809 0.21913 0.0
H1134 H 0.17779 0.43133 0.25944 0.0
C1135 C 0.23782 0.34638 0.27161 0.0
C1136 C 0.23395 0.39237 0.22996 0.0
C1137 C 0.24584 0.31965 0.27762 0.0
C1138 C 0.19874 0.5083 0.21641 0.0
C1139 C 0.20954 0.48169 0.22077 0.0
C1140 C 0.19335 0.4207 0.25094 0.0
C1141 C 0.23363 0.35185 0.25268 0.0
C1142 C 0.22365 0.38001 0.24643 0.0
C1143 C 0.19195 0.46049 0.22808 0.0
C1144 C 0.20338 0.43296 0.2344 0.0
H1145 H 0.24961 0.28686 0.23566 0.0
H1146 H 0.23497 0.33325 0.22524 0.0
H1147 H 0.19461 0.38573 0.26948 0.0
H1148 H 0.13028 0.49626 0.22787 0.0
H1149 H 0.14889 0.45015 0.23519 0.0
C1150 C 0.4267 0.52135 0.50574 0.0
C1151 C 0.44488 0.50132 0.51337 0.0
C1152 C 0.40065 0.51329 0.49872 0.0
C1153 C 0.36177 0.45113 0.48144 0.0
H1154 H 0.29571 0.49571 0.49237 0.0
C1155 C 0.25013 0.40742 0.47325 0.0
C1156 C 0.22861 0.42534 0.46743 0.0
C1157 C 0.27695 0.41787 0.4766 0.0
C1158 C 0.31399 0.48325 0.4889 0.0
H1159 H 0.44985 0.45696 0.51934 0.0
H1160 H 0.4044 0.443 0.50738 0.0
H1161 H 0.34144 0.51166 0.50295 0.0
H1162 H 0.21857 0.4682 0.45998 0.0
H1163 H 0.26574 0.48659 0.4657 0.0
H1164 H 0.33438 0.42255 0.46759 0.0
C1165 C 0.41035 0.46495 0.50668 0.0
C1166 C 0.34025 0.49237 0.49501 0.0
C1167 C 0.43632 0.47302 0.51376 0.0
C1168 C 0.23475 0.45388 0.46444 0.0
C1169 C 0.2617 0.46442 0.46787 0.0
C1170 C 0.33558 0.44204 0.47531 0.0
C1171 C 0.39217 0.48496 0.49904 0.0
C1172 C 0.36442 0.4762 0.49161 0.0
C1173 C 0.28305 0.44658 0.47423 0.0
C1174 C 0.31125 0.45772 0.47921 0.0
H1175 H 0.43247 0.54337 0.50536 0.0
H1176 H 0.38729 0.52924 0.49283 0.0
H1177 H 0.37999 0.43843 0.47821 0.0
H1178 H 0.24607 0.38532 0.47573 0.0
H1179 H 0.29264 0.40353 0.48171 0.0
C1180 C 0.23864 0.69102 0.74576 0.0
C1181 C 0.2335 0.69628 0.7647 0.0
C1182 C 0.2466 0.66423 0.73961 0.0
C1183 C 0.27933 0.59891 0.75642 0.0
H1184 H 0.25311 0.56716 0.71023 0.0
C1185 C 0.33178 0.50175 0.72462 0.0
C1186 C 0.31436 0.48013 0.71813 0.0
C1187 C 0.32083 0.52809 0.72909 0.0
C1188 C 0.26048 0.57567 0.72322 0.0
H1189 H 0.23257 0.67715 0.79197 0.0
H1190 H 0.24591 0.63046 0.78125 0.0
H1191 H 0.23509 0.61263 0.72088 0.0
H1192 H 0.27194 0.46962 0.71038 0.0
H1193 H 0.25262 0.51601 0.71818 0.0
H1194 H 0.30448 0.56203 0.75892 0.0
C1195 C 0.24408 0.64714 0.77114 0.0
C1196 C 0.25037 0.60185 0.72924 0.0
C1197 C 0.23611 0.6739 0.77728 0.0
C1198 C 0.28587 0.48588 0.71534 0.0
C1199 C 0.27484 0.51244 0.7198 0.0
C1200 C 0.28948 0.5729 0.75039 0.0
C1201 C 0.2497 0.64199 0.75225 0.0
C1202 C 0.25975 0.61384 0.74591 0.0
C1203 C 0.29212 0.53362 0.72718 0.0
C1204 C 0.28039 0.56102 0.73364 0.0
H1205 H 0.23647 0.70762 0.73563 0.0
H1206 H 0.25096 0.66112 0.72499 0.0
H1207 H 0.28728 0.60756 0.76921 0.0
H1208 H 0.35389 0.49808 0.72678 0.0
H1209 H 0.33486 0.54407 0.73432 0.0
C1210 C 0.06137 0.4726 1.00514 0.0
C1211 C 0.0429 0.49269 1.01273 0.0
C1212 C 0.08788 0.48053 0.99839 0.0
C1213 C 0.12837 0.54259 0.98193 0.0
H1214 H 0.19327 0.49708 0.99305 0.0
C1215 C 0.24103 0.58497 0.97469 0.0
C1216 C 0.26258 0.56682 0.96883 0.0
C1217 C 0.21392 0.57485 0.97789 0.0
C1218 C 0.17534 0.50982 0.98953 0.0
H1219 H 0.0379 0.53703 1.01889 0.0
H1220 H 0.08414 0.55076 1.00742 0.0
H1221 H 0.14678 0.48151 1.00312 0.0
H1222 H 0.27237 0.52389 0.96118 0.0
H1223 H 0.22471 0.50609 0.96663 0.0
H1224 H 0.15687 0.57105 0.96853 0.0
C1225 C 0.07807 0.52886 1.00653 0.0
C1226 C 0.14864 0.5009 0.99535 0.0
C1227 C 0.05164 0.52092 1.01333 0.0
C1228 C 0.25619 0.53838 0.96568 0.0
C1229 C 0.22895 0.52818 0.96895 0.0
C1230 C 0.15501 0.55147 0.9761 0.0
C1231 C 0.09657 0.50879 0.99896 0.0
C1232 C 0.12484 0.51739 0.99186 0.0
C1233 C 0.20754 0.54625 0.97532 0.0
C1234 C 0.17893 0.53544 0.98006 0.0
H1235 H 0.05547 0.45062 1.0046 0.0
H1236 H 0.10146 0.46453 0.99254 0.0
H1237 H 0.11048 0.55554 0.97864 0.0
H1238 H 0.24527 0.60699 0.97729 0.0
H1239 H 0.19818 0.58935 0.98301 0.0
C1240 C 0.78746 0.48595 1.02424 0.0
C1241 C 0.81596 0.48 1.02114 0.0
C1242 C 0.77666 0.51257 1.01989 0.0
C1243 C 0.79209 0.57273 0.98904 0.0
H1244 H 0.73751 0.61301 1.01905 0.0
C1245 C 0.73957 0.6738 0.96249 0.0
C1246 C 0.73694 0.69631 0.97504 0.0
C1247 C 0.74733 0.64705 0.96861 0.0
C1248 C 0.75284 0.60207 1.01055 0.0
H1249 H 0.85572 0.49768 1.01207 0.0
H1250 H 0.83709 0.54377 1.00472 0.0
H1251 H 0.75512 0.56752 1.0296 0.0
H1252 H 0.73962 0.70789 1.00405 0.0
H1253 H 0.75372 0.66139 1.01464 0.0
H1254 H 0.79032 0.60725 0.97016 0.0
C1255 C 0.82288 0.5279 1.01011 0.0
C1256 C 0.76272 0.57589 1.01652 0.0
C1257 C 0.83361 0.5015 1.01447 0.0
C1258 C 0.74182 0.69118 0.99394 0.0
C1259 C 0.74956 0.6644 1.00006 0.0
C1260 C 0.78215 0.59875 0.98305 0.0
C1261 C 0.79417 0.53361 1.01231 0.0
C1262 C 0.7827 0.56103 1.00591 0.0
C1263 C 0.75269 0.64203 0.98745 0.0
C1264 C 0.76251 0.61388 0.99375 0.0
H1265 H 0.77335 0.46979 1.02933 0.0
H1266 H 0.75444 0.51628 1.02174 0.0
H1267 H 0.80715 0.56171 0.98037 0.0
H1268 H 0.73623 0.67694 0.94783 0.0
H1269 H 0.7492 0.63027 0.95852 0.0
C1270 C 0.55102 0.52217 0.72439 0.0
C1271 C 0.54093 0.4945 0.72633 0.0
C1272 C 0.57689 0.53 0.7317 0.0
C1273 C 0.64486 0.50181 0.74661 0.0
H1274 H 0.65144 0.57394 0.77121 0.0
C1275 C 0.75042 0.54092 0.77676 0.0
C1276 C 0.75705 0.56913 0.77295 0.0
C1277 C 0.72337 0.53055 0.77346 0.0
C1278 C 0.65007 0.5538 0.76427 0.0
H1279 H 0.55046 0.45343 0.73768 0.0
H1280 H 0.59581 0.46706 0.75015 0.0
H1281 H 0.60596 0.55831 0.76024 0.0
H1282 H 0.74032 0.60878 0.76331 0.0
H1283 H 0.6937 0.59085 0.75744 0.0
H1284 H 0.68913 0.49762 0.75021 0.0
C1285 C 0.58365 0.48263 0.74286 0.0
C1286 C 0.62395 0.54485 0.75797 0.0
C1287 C 0.55765 0.47482 0.73565 0.0
C1288 C 0.7359 0.58693 0.76644 0.0
C1289 C 0.70902 0.57665 0.76316 0.0
C1290 C 0.67108 0.51085 0.75282 0.0
C1291 C 0.59351 0.51037 0.74107 0.0
C1292 C 0.62107 0.51895 0.7488 0.0
C1293 C 0.70241 0.54824 0.76637 0.0
C1294 C 0.67413 0.5372 0.76146 0.0
H1295 H 0.53909 0.5378 0.717 0.0
H1296 H 0.58407 0.55142 0.72976 0.0
H1297 H 0.64341 0.48181 0.73949 0.0
H1298 H 0.76631 0.5267 0.78177 0.0
H1299 H 0.71894 0.50863 0.7763 0.0
C1300 C 0.71979 0.30578 0.47509 0.0
C1301 C 0.74734 0.29601 0.47731 0.0
C1302 C 0.71154 0.33187 0.48223 0.0
C1303 C 0.73875 0.4008 0.49723 0.0
H1304 H 0.66566 0.40763 0.52077 0.0
C1305 C 0.69818 0.50713 0.527 0.0
C1306 C 0.67025 0.51358 0.52285 0.0
C1307 C 0.70871 0.48 0.5237 0.0
C1308 C 0.68607 0.4062 0.51412 0.0
H1309 H 0.78774 0.30634 0.489 0.0
H1310 H 0.77339 0.35205 0.5012 0.0
H1311 H 0.68185 0.3618 0.51014 0.0
H1312 H 0.63128 0.49649 0.51256 0.0
H1313 H 0.64951 0.44974 0.5067 0.0
H1314 H 0.74268 0.44536 0.50082 0.0
C1315 C 0.75824 0.33948 0.49381 0.0
C1316 C 0.69534 0.37987 0.50802 0.0
C1317 C 0.76647 0.31327 0.48676 0.0
C1318 C 0.6529 0.49221 0.51595 0.0
C1319 C 0.66335 0.46526 0.51268 0.0
C1320 C 0.7294 0.42723 0.50326 0.0
C1321 C 0.73062 0.34905 0.49171 0.0
C1322 C 0.72161 0.37688 0.49923 0.0
C1323 C 0.69148 0.4588 0.51629 0.0
C1324 C 0.70271 0.43036 0.51152 0.0
H1325 H 0.70459 0.29342 0.46759 0.0
H1326 H 0.69024 0.3388 0.48005 0.0
H1327 H 0.75902 0.39929 0.4904 0.0
H1328 H 0.71204 0.52318 0.53232 0.0
H1329 H 0.7304 0.4757 0.52685 0.0
C1330 C 0.72745 0.45609 0.27297 0.0
C1331 C 0.72157 0.42742 0.2703 0.0
C1332 C 0.75428 0.46682 0.26891 0.0
C1333 C 0.81562 0.45093 0.23917 0.0
H1334 H 0.855 0.50541 0.2692 0.0
C1335 C 0.91793 0.50329 0.21333 0.0
C1336 C 0.93993 0.50533 0.22605 0.0
C1337 C 0.89092 0.49571 0.21923 0.0
C1338 C 0.8443 0.49012 0.2607 0.0
H1339 H 0.73957 0.3873 0.26232 0.0
H1340 H 0.78598 0.40586 0.25539 0.0
H1341 H 0.80895 0.48807 0.27938 0.0
H1342 H 0.95034 0.5018 0.25512 0.0
H1343 H 0.90333 0.48813 0.26536 0.0
H1344 H 0.85086 0.45253 0.22063 0.0
C1345 C 0.76992 0.42022 0.26026 0.0
C1346 C 0.81782 0.48039 0.26645 0.0
C1347 C 0.74332 0.40955 0.26437 0.0
C1348 C 0.93403 0.50008 0.24489 0.0
C1349 C 0.90697 0.49257 0.25081 0.0
C1350 C 0.8419 0.46075 0.23338 0.0
C1351 C 0.7756 0.44908 0.26202 0.0
C1352 C 0.8033 0.46044 0.25584 0.0
C1353 C 0.88513 0.49 0.23802 0.0
C1354 C 0.85669 0.48035 0.24409 0.0
H1355 H 0.71111 0.47037 0.2775 0.0
H1356 H 0.758 0.48916 0.27041 0.0
H1357 H 0.80486 0.43586 0.23052 0.0
H1358 H 0.92168 0.50694 0.1987 0.0
H1359 H 0.87455 0.49425 0.20902 0.0
C1360 C 0.74611 0.80291 0.74582 0.0
C1361 C 0.74916 0.79735 0.76485 0.0
C1362 C 0.73828 0.82966 0.73966 0.0
C1363 C 0.70271 0.89426 0.75605 0.0
H1364 H 0.73319 0.92704 0.7109 0.0
C1365 C 0.65307 0.99223 0.72427 0.0
C1366 C 0.67106 0.01388 0.71824 0.0
C1367 C 0.66358 0.96574 0.72864 0.0
C1368 C 0.72461 0.91825 0.7236 0.0
H1369 H 0.74646 0.81595 0.79227 0.0
H1370 H 0.73348 0.86256 0.78155 0.0
H1371 H 0.75058 0.8816 0.72164 0.0
H1372 H 0.71407 0.0243 0.71123 0.0
H1373 H 0.73261 0.97773 0.71892 0.0
H1374 H 0.67706 0.9309 0.75823 0.0
C1375 C 0.73679 0.84613 0.77137 0.0
C1376 C 0.73437 0.89207 0.72966 0.0
C1377 C 0.74458 0.81941 0.77751 0.0
C1378 C 0.6997 0.00801 0.71581 0.0
C1379 C 0.71029 0.98134 0.72022 0.0
C1380 C 0.69295 0.9203 0.74998 0.0
C1381 C 0.73326 0.85157 0.75237 0.0
C1382 C 0.72348 0.8797 0.74596 0.0
C1383 C 0.69241 0.96011 0.72715 0.0
C1384 C 0.70358 0.93258 0.73361 0.0
H1385 H 0.74983 0.78659 0.73562 0.0
H1386 H 0.73556 0.83297 0.72495 0.0
H1387 H 0.69357 0.88532 0.76853 0.0
H1388 H 0.63085 0.996 0.72615 0.0
H1389 H 0.64909 0.94974 0.7335 0.0
C1390 C 0.74968 0.90772 0.97314 0.0
C1391 C 0.72839 0.92554 0.96684 0.0
C1392 C 0.77649 0.91811 0.97654 0.0
C1393 C 0.8141 0.9838 0.98766 0.0
H1394 H 0.87947 0.93703 0.9793 0.0
C1395 C 0.92743 0.02008 1.00499 0.0
C1396 C 0.9445 0.00016 1.01381 0.0
C1397 C 0.9014 0.01233 0.99779 0.0
C1398 C 0.86142 0.95029 0.98184 0.0
H1399 H 0.7188 0.96815 0.95859 0.0
H1400 H 0.76604 0.98642 0.9643 0.0
H1401 H 0.83399 0.92145 0.96831 0.0
H1402 H 0.94692 0.95649 1.02226 0.0
H1403 H 0.90187 0.94299 1.00955 0.0
H1404 H 0.8417 0.01257 1.0013 0.0
C1405 C 0.76178 0.96439 0.96685 0.0
C1406 C 0.83529 0.94137 0.97553 0.0
C1407 C 0.73479 0.95391 0.96342 0.0
C1408 C 0.93472 0.97232 1.01526 0.0
C1409 C 0.90881 0.96455 1.00797 0.0
C1410 C 0.84033 0.99281 0.9939 0.0
C1411 C 0.78289 0.94665 0.97369 0.0
C1412 C 0.81115 0.95771 0.97866 0.0
C1413 C 0.89183 0.98442 0.9991 0.0
C1414 C 0.86423 0.97591 0.99137 0.0
H1415 H 0.74544 0.88575 0.97597 0.0
H1416 H 0.79193 0.90385 0.98206 0.0
H1417 H 0.79598 0.99682 0.99052 0.0
H1418 H 0.93437 0.04162 1.00335 0.0
H1419 H 0.88898 0.0281 0.99088 0.0
C1420 C 0.78714 0.98863 0.21308 0.0
C1421 C 0.81515 0.98218 0.21699 0.0
C1422 C 0.77652 0.01566 0.21667 0.0
C1423 C 0.79911 0.08943 0.22669 0.0
H1424 H 0.72588 0.09611 0.25004 0.0
C1425 C 0.76451 0.19019 0.26516 0.0
C1426 C 0.73692 0.19979 0.26278 0.0
C1427 C 0.77296 0.16401 0.25824 0.0
C1428 C 0.74624 0.09467 0.24333 0.0
H1429 H 0.85414 -0.00077 0.22728 0.0
H1430 H 0.83579 0.04577 0.23368 0.0
H1431 H 0.74243 0.05011 0.23963 0.0
H1432 H 0.69668 0.18901 0.25103 0.0
H1433 H 0.71137 0.14318 0.23921 0.0
H1434 H 0.80318 0.13383 0.23074 0.0
C1435 C 0.82194 0.03033 0.22762 0.0
C1436 C 0.75572 0.06827 0.2373 0.0
C1437 C 0.83247 0.00349 0.22404 0.0
C1438 C 0.71797 0.18224 0.2534 0.0
C1439 C 0.7264 0.15594 0.24657 0.0
C1440 C 0.78971 0.11573 0.23279 0.0
C1441 C 0.79375 0.0368 0.22419 0.0
C1442 C 0.78248 0.06521 0.22914 0.0
C1443 C 0.75406 0.14655 0.24881 0.0
C1444 C 0.76331 0.11867 0.24143 0.0
H1445 H 0.77328 0.97265 0.20766 0.0
H1446 H 0.7548 0.01994 0.21365 0.0
H1447 H 0.81957 0.08808 0.22011 0.0
H1448 H 0.77959 0.20275 0.27261 0.0
H1449 H 0.79428 0.15725 0.26054 0.0
C1450 C 0.75442 0.04139 0.46305 0.0
C1451 C 0.76095 0.06953 0.46709 0.0
C1452 C 0.72723 0.031 0.46629 0.0
C1453 C 0.65363 0.05434 0.47564 0.0
H1454 H 0.64553 0.98173 0.49945 0.0
C1455 C 0.55259 0.02214 0.51476 0.0
C1456 C 0.54243 0.99459 0.51239 0.0
C1457 C 0.57885 0.03002 0.50766 0.0
C1458 C 0.64739 0.0019 0.4926 0.0
H1459 H 0.74393 0.10901 0.47715 0.0
H1460 H 0.69711 0.09104 0.48295 0.0
H1461 H 0.69181 -0.00238 0.48907 0.0
H1462 H 0.55227 0.9538 0.50052 0.0
H1463 H 0.5983 0.9675 0.48842 0.0
H1464 H 0.60936 0.05894 0.4796 0.0
C1465 C 0.7126 0.07692 0.47707 0.0
C1466 C 0.67394 0.011 0.48658 0.0
C1467 C 0.7396 0.08722 0.47384 0.0
C1468 C 0.55948 0.97508 0.50288 0.0
C1469 C 0.58588 0.98294 0.49588 0.0
C1470 C 0.62719 0.04534 0.48174 0.0
C1471 C 0.70604 0.04859 0.47357 0.0
C1472 C 0.67749 0.03757 0.4783 0.0
C1473 C 0.59582 0.01056 0.49809 0.0
C1474 C 0.62377 0.01921 0.49056 0.0
H1475 H 0.77045 0.02726 0.45786 0.0
H1476 H 0.72286 0.00916 0.46323 0.0
H1477 H 0.65539 0.07465 0.46895 0.0
H1478 H 0.54042 0.03763 0.52232 0.0
H1479 H 0.58607 0.05133 0.50992 0.0
C1480 C 0.22053 0.18082 0.48619 0.0
C1481 C 0.24026 0.19825 0.47714 0.0
C1482 C 0.22838 0.15458 0.49325 0.0
C1483 C 0.29047 0.11445 0.50822 0.0
H1484 H 0.24401 0.04874 0.50017 0.0
C1485 C 0.33303 0.00233 0.51615 0.0
C1486 C 0.31539 0.98081 0.5228 0.0
C1487 C 0.32262 0.02923 0.51288 0.0
C1488 C 0.25702 0.06693 0.50285 0.0
H1489 H 0.28369 0.20115 0.46811 0.0
H1490 H 0.29735 0.15573 0.48055 0.0
H1491 H 0.22814 0.09478 0.48969 0.0
H1492 H 0.27309 0.97089 0.53179 0.0
H1493 H 0.25478 0.0183 0.5263 0.0
H1494 H 0.31942 0.08677 0.52126 0.0
C1495 C 0.27587 0.16253 0.48243 0.0
C1496 C 0.24794 0.09334 0.49678 0.0
C1497 C 0.26801 0.18864 0.4753 0.0
C1498 C 0.28718 0.98706 0.52669 0.0
C1499 C 0.27668 0.01415 0.52338 0.0
C1500 C 0.29947 0.08814 0.51435 0.0
C1501 C 0.25619 0.14517 0.49154 0.0
C1502 C 0.26481 0.11735 0.49909 0.0
C1503 C 0.29424 0.0355 0.51623 0.0
C1504 C 0.28314 0.0639 0.51144 0.0
H1505 H 0.19907 0.18762 0.48813 0.0
H1506 H 0.21276 0.14188 0.50034 0.0
H1507 H 0.30371 0.13258 0.51059 0.0
H1508 H 0.35487 -0.0018 0.51296 0.0
H1509 H 0.33673 0.04487 0.50711 0.0
C1510 C 0.05091 0.02256 0.22468 0.0
C1511 C 0.04097 0.9948 0.22641 0.0
C1512 C 0.07674 0.0304 0.23206 0.0
C1513 C 0.14481 0.00218 0.24687 0.0
H1514 H 0.15126 0.07412 0.27173 0.0
C1515 C 0.25028 0.04097 0.27726 0.0
C1516 C 0.25697 0.06918 0.2735 0.0
C1517 C 0.22319 0.03069 0.27395 0.0
C1518 C 0.14993 0.05404 0.26472 0.0
H1519 H 0.05069 0.9536 0.23748 0.0
H1520 H 0.09594 0.96726 0.25009 0.0
H1521 H 0.10583 0.05854 0.26064 0.0
H1522 H 0.24031 0.10894 0.26402 0.0
H1523 H 0.19362 0.09116 0.25814 0.0
H1524 H 0.18907 -0.002 0.25053 0.0
C1525 C 0.08372 0.98289 0.2429 0.0
C1526 C 0.12383 0.04511 0.25835 0.0
C1527 C 0.05778 0.97506 0.23561 0.0
C1528 C 0.23583 0.08709 0.26709 0.0
C1529 C 0.20892 0.07689 0.26381 0.0
C1530 C 0.171 0.01119 0.25316 0.0
C1531 C 0.09346 0.01071 0.2413 0.0
C1532 C 0.12099 0.01928 0.24909 0.0
C1533 C 0.20227 0.04846 0.26691 0.0
C1534 C 0.174 0.03747 0.2619 0.0
H1535 H 0.03891 0.03824 0.21739 0.0
H1536 H 0.08382 0.05188 0.23027 0.0
H1537 H 0.14341 0.98225 0.23967 0.0
H1538 H 0.26614 0.02667 0.28219 0.0
H1539 H 0.21873 0.00876 0.27672 0.0
C1540 C 0.15345 0.99106 1.01576 0.0
C1541 C 0.17082 0.01248 1.0226 0.0
C1542 C 0.16433 0.96463 1.01134 0.0
C1543 C 0.22437 0.91661 1.01788 0.0
H1544 H 0.1982 0.8845 0.97179 0.0
C1545 C 0.24736 0.80125 0.99567 0.0
C1546 C 0.25266 0.79586 0.97676 0.0
C1547 C 0.23901 0.828 1.00171 0.0
C1548 C 0.20598 0.8932 0.98461 0.0
H1549 H 0.21308 0.02253 1.03094 0.0
H1550 H 0.23225 0.97605 1.02323 0.0
H1551 H 0.1809 0.9301 0.98188 0.0
H1552 H 0.25336 0.81481 0.94942 0.0
H1553 H 0.2394 0.8614 0.95996 0.0
H1554 H 0.24973 0.87967 1.02044 0.0
C1555 C 0.21012 0.97981 1.02131 0.0
C1556 C 0.19576 0.91926 0.99054 0.0
C1557 C 0.19917 0.00643 1.02573 0.0
C1558 C 0.24974 0.81812 0.9641 0.0
C1559 C 0.24139 0.84484 0.97014 0.0
C1560 C 0.23456 0.89039 1.01197 0.0
C1561 C 0.19292 0.9588 1.01364 0.0
C1562 C 0.20463 0.93126 1.00731 0.0
C1563 C 0.23567 0.85011 0.98901 0.0
C1564 C 0.22543 0.87829 0.99526 0.0
H1565 H 0.13145 0.99493 1.01331 0.0
H1566 H 0.15031 0.94882 1.00588 0.0
H1567 H 0.23158 0.92516 1.03089 0.0
H1568 H 0.24974 0.78478 1.00588 0.0
H1569 H 0.23459 0.83117 1.01632 0.0
C1570 C 0.43367 0.97283 0.72549 0.0
C1571 C 0.44366 0.00043 0.72787 0.0
C1572 C 0.4074 0.9648 0.7325 0.0
C1573 C 0.33862 0.9927 0.74744 0.0
H1574 H 0.33052 0.91967 0.77068 0.0
C1575 C 0.23158 0.95304 0.77691 0.0
C1576 C 0.22497 0.92496 0.77278 0.0
C1577 C 0.25877 0.96341 0.77363 0.0
C1578 C 0.33231 0.94005 0.7641 0.0
H1579 H 0.43352 0.04116 0.73973 0.0
H1580 H 0.3875 0.0272 0.7517 0.0
H1581 H 0.37659 0.9355 0.7602 0.0
H1582 H 0.24184 0.88555 0.76249 0.0
H1583 H 0.28869 0.90349 0.75665 0.0
H1584 H 0.29419 0.99697 0.75095 0.0
C1585 C 0.40004 0.01183 0.74428 0.0
C1586 C 0.35878 0.94913 0.75809 0.0
C1587 C 0.42644 0.01984 0.73736 0.0
C1588 C 0.24623 0.9073 0.76588 0.0
C1589 C 0.27325 0.91759 0.76262 0.0
C1590 C 0.31205 0.98355 0.75338 0.0
C1591 C 0.39025 0.98416 0.74202 0.0
C1592 C 0.36224 0.97538 0.74942 0.0
C1593 C 0.27989 0.94586 0.76623 0.0
C1594 C 0.30846 0.95688 0.76152 0.0
H1595 H 0.44599 0.95742 0.71796 0.0
H1596 H 0.40031 0.94346 0.7302 0.0
H1597 H 0.34049 0.01296 0.74071 0.0
H1598 H 0.21562 0.96715 0.78223 0.0
H1599 H 0.2632 0.98522 0.77678 0.0
C1600 C 0.2605 0.13897 0.21189 0.0
C1601 C 0.28568 0.12409 0.21452 0.0
C1602 C 0.24446 0.13539 0.1957 0.0
C1603 C 0.23301 0.08568 0.15545 0.0
H1604 H 0.19247 0.14842 0.13477 0.0
C1605 C 0.15513 0.07194 1.09288 0.0
C1606 C 0.15472 0.09343 1.07941 0.0
C1607 C 0.17013 0.07524 1.10961 0.0
C1608 C 0.20369 0.13054 0.14019 0.0
H1609 H 0.31337 0.09366 0.20153 0.0
H1610 H 0.28581 0.08765 0.17349 0.0
H1611 H 0.22081 0.15531 0.16225 0.0
H1612 H 0.16995 0.13554 1.07365 0.0
H1613 H 0.19545 0.14124 1.10231 0.0
H1614 H 0.21611 0.061 0.13318 0.0
C1615 C 0.27818 0.102 0.18404 0.0
C1616 C 0.21988 0.13448 0.15625 0.0
C1617 C 0.2943 0.10571 0.20017 0.0
C1618 C 0.16944 0.11841 1.08352 0.0
C1619 C 0.18413 0.12179 1.10019 0.0
C1620 C 0.21663 0.08168 0.13943 0.0
C1621 C 0.25277 0.1166 0.18147 0.0
C1622 C 0.23507 0.1122 0.16421 0.0
C1623 C 0.18504 0.10027 1.1136 0.0
C1624 C 0.20174 0.10408 0.13135 0.0
H1625 H 0.25278 0.1531 0.22255 0.0
H1626 H 0.22504 0.14692 0.19462 0.0
H1627 H 0.2439 0.06773 0.16106 0.0
H1628 H 0.14433 0.0523 1.09034 0.0
H1629 H 0.1699 0.05813 1.11948 0.0
C1630 C 0.62525 0.43896 0.32778 0.0
C1631 C 0.64298 0.41535 0.32589 0.0
C1632 C 0.62255 0.45377 0.34465 0.0
C1633 C 0.63406 0.44895 0.39616 0.0
H1634 H 0.62469 0.52979 0.39424 0.0
C1635 C 0.60356 0.51516 0.46246 0.0
C1636 C 0.61534 0.54219 0.46472 0.0
C1637 C 0.6072 0.49975 0.44582 0.0
C1638 C 0.62743 0.50727 0.39521 0.0
H1639 H 0.67165 0.38909 0.34109 0.0
H1640 H 0.66678 0.41472 0.37059 0.0
H1641 H 0.63133 0.5032 0.36564 0.0
H1642 H 0.64025 0.57385 0.45057 0.0
H1643 H 0.64624 0.54742 0.4217 0.0
H1644 H 0.63029 0.45313 0.42579 0.0
C1645 C 0.65481 0.42177 0.35884 0.0
C1646 C 0.63097 0.49179 0.37861 0.0
C1647 C 0.65773 0.40699 0.3418 0.0
C1648 C 0.63055 0.55332 0.44951 0.0
C1649 C 0.63398 0.53802 0.43279 0.0
C1650 C 0.63024 0.46443 0.41279 0.0
C1651 C 0.63731 0.44567 0.36058 0.0
C1652 C 0.63429 0.46225 0.37866 0.0
C1653 C 0.6226 0.51075 0.43061 0.0
C1654 C 0.6268 0.49397 0.4127 0.0
H1655 H 0.61337 0.44636 0.31608 0.0
H1656 H 0.60846 0.47155 0.34519 0.0
H1657 H 0.63632 0.42636 0.39705 0.0
H1658 H 0.59187 0.50552 0.47374 0.0
H1659 H 0.59769 0.47914 0.44487 0.0
C1660 C 0.18991 0.88891 0.70075 0.0
C1661 C 0.19795 0.87006 0.71481 0.0
C1662 C 0.20633 0.89261 0.68448 0.0
C1663 C 0.26484 0.85961 0.65599 0.0
H1664 H 0.26924 0.93305 0.63295 0.0
C1665 C 0.31736 0.87521 0.58308 0.0
C1666 C 0.3318 0.90033 0.57873 0.0
C1667 C 0.30225 0.87194 0.59984 0.0
C1668 C 0.26856 0.91238 0.6392 0.0
H1669 H 0.23016 0.84027 0.72222 0.0
H1670 H 0.25849 0.84654 0.69412 0.0
H1671 H 0.24093 0.92644 0.66106 0.0
H1672 H 0.34127 0.94182 0.5893 0.0
H1673 H 0.3151 0.93613 0.61864 0.0
H1674 H 0.29272 0.84559 0.63434 0.0
C1675 C 0.23925 0.85838 0.69548 0.0
C1676 C 0.25186 0.90845 0.65535 0.0
C1677 C 0.22287 0.85476 0.71178 0.0
C1678 C 0.33071 0.92207 0.59204 0.0
C1679 C 0.31535 0.91884 0.60888 0.0
C1680 C 0.2814 0.8635 0.63983 0.0
C1681 C 0.23151 0.87758 0.68151 0.0
C1682 C 0.24955 0.88194 0.6641 0.0
C1683 C 0.30069 0.89368 0.61312 0.0
C1684 C 0.28358 0.88994 0.63099 0.0
H1685 H 0.17103 0.90129 0.70242 0.0
H1686 H 0.19909 0.90728 0.67414 0.0
H1687 H 0.26372 0.83877 0.66195 0.0
H1688 H 0.31735 0.85788 0.57334 0.0
H1689 H 0.29114 0.85237 0.60213 0.0
C1690 C 0.8599 0.56267 0.82991 0.0
C1691 C 0.83902 0.58343 0.82785 0.0
C1692 C 0.86299 0.54757 0.84653 0.0
C1693 C 0.84639 0.54757 0.89754 0.0
H1694 H 0.86539 0.46857 0.89377 0.0
C1695 C 0.88106 0.48125 0.96224 0.0
C1696 C 0.8718 0.45313 0.96381 0.0
C1697 C 0.87658 0.49716 0.946 0.0
C1698 C 0.85995 0.49055 0.89524 0.0
H1699 H 0.8052 0.60438 0.84254 0.0
H1700 H 0.81086 0.57828 0.87175 0.0
H1701 H 0.85768 0.49594 0.86575 0.0
H1702 H 0.85051 0.42005 0.94886 0.0
H1703 H 0.84325 0.44735 0.92061 0.0
H1704 H 0.84873 0.54207 0.92711 0.0
C1705 C 0.82491 0.57372 0.86025 0.0
C1706 C 0.85575 0.50648 0.879 0.0
C1707 C 0.82159 0.58876 0.84341 0.0
C1708 C 0.85828 0.44144 0.94831 0.0
C1709 C 0.8541 0.45724 0.93197 0.0
C1710 C 0.85093 0.53167 0.91382 0.0
C1711 C 0.84551 0.55252 0.86206 0.0
C1712 C 0.84898 0.53538 0.87975 0.0
C1713 C 0.8629 0.48557 0.93051 0.0
C1714 C 0.85786 0.50279 0.91303 0.0
H1715 H 0.87394 0.55766 0.81849 0.0
H1716 H 0.87944 0.53199 0.84719 0.0
H1717 H 0.84138 0.56967 0.89892 0.0
H1718 H 0.89129 0.49134 0.9738 0.0
H1719 H 0.88406 0.51865 0.94558 0.0
C1720 C 0.83123 0.92256 0.14675 0.0
C1721 C 0.83162 0.90105 0.1602 0.0
C1722 C 0.81618 0.91934 0.13003 0.0
C1723 C 0.78193 0.86411 1.0996 0.0
H1724 H 0.7432 0.92741 1.07817 0.0
C1725 C 0.72521 0.85517 1.02794 0.0
C1726 C 0.70061 0.87082 1.02492 0.0
C1727 C 0.74121 0.8588 1.04414 0.0
C1728 C 0.75365 0.90931 1.08394 0.0
H1729 H 0.8162 0.859 0.16595 0.0
H1730 H 0.79053 0.85348 0.13737 0.0
H1731 H 0.7709 0.93398 1.10609 0.0
H1732 H 0.67392 0.90272 1.03725 0.0
H1733 H 0.70133 0.90878 1.06535 0.0
H1734 H 0.7644 0.83932 1.07771 0.0
C1735 C 0.80197 0.87287 0.13945 0.0
C1736 C 0.77 0.91322 1.09999 0.0
C1737 C 0.81676 0.87614 0.1561 0.0
C1738 C 0.69253 0.89007 1.0389 0.0
C1739 C 0.70859 0.89379 1.05508 0.0
C1740 C 0.76573 0.86024 1.08354 0.0
C1741 C 0.80113 0.89439 0.12603 0.0
C1742 C 0.78438 0.89065 1.10828 0.0
C1743 C 0.73343 0.87838 1.05803 0.0
C1744 C 0.75108 0.88271 1.07535 0.0
H1745 H 0.84214 0.94215 0.14928 0.0
H1746 H 0.8165 0.93646 0.12016 0.0
H1747 H 0.79276 0.84607 1.10515 0.0
H1748 H 0.73252 0.84035 1.01756 0.0
H1749 H 0.7602 0.84664 1.04549 0.0
C1750 C 0.36411 0.56041 0.91031 0.0
C1751 C 0.34392 0.58179 0.91288 0.0
C1752 C 0.36658 0.54535 0.89352 0.0
C1753 C 0.34941 0.54679 0.84281 0.0
H1754 H 0.3658 0.46712 0.84525 0.0
C1755 C 0.38079 0.48096 0.77654 0.0
C1756 C 0.37048 0.45324 0.7748 0.0
C1757 C 0.37709 0.49656 0.79309 0.0
C1758 C 0.3611 0.4893 0.84416 0.0
H1759 H 0.31062 0.60386 0.89899 0.0
H1760 H 0.31523 0.57796 0.86955 0.0
H1761 H 0.35963 0.49415 0.87378 0.0
H1762 H 0.34813 0.42055 0.78977 0.0
H1763 H 0.34224 0.44732 0.81857 0.0
H1764 H 0.35099 0.54188 0.81314 0.0
C1765 C 0.32924 0.57282 0.88072 0.0
C1766 C 0.35779 0.50503 0.86068 0.0
C1767 C 0.32651 0.58776 0.89771 0.0
C1768 C 0.35667 0.44163 0.79043 0.0
C1769 C 0.35329 0.45712 0.80708 0.0
C1770 C 0.3531 0.53111 0.82625 0.0
C1771 C 0.34916 0.55105 0.87835 0.0
C1772 C 0.35193 0.53415 0.86041 0.0
C1773 C 0.36318 0.48505 0.80873 0.0
C1774 C 0.35905 0.50199 0.82655 0.0
H1775 H 0.37803 0.55487 0.92145 0.0
H1776 H 0.38251 0.52925 0.89243 0.0
H1777 H 0.34511 0.56906 0.84177 0.0
H1778 H 0.39132 0.49097 0.76491 0.0
H1779 H 0.38538 0.51773 0.79363 0.0
C1780 C 0.65105 0.07629 0.64667 0.0
C1781 C 0.65581 0.09435 0.66184 0.0
C1782 C 0.66637 0.07933 0.62977 0.0
C1783 C 0.73347 0.11042 0.61039 0.0
H1784 H 0.69884 0.10202 0.56247 0.0
C1785 C 0.79925 0.11155 0.54081 0.0
C1786 C 0.78782 0.12489 0.52518 0.0
C1787 C 0.78332 0.10764 0.55728 0.0
C1788 C 0.70897 0.1046 0.5757 0.0
H1789 H 0.68091 0.13002 0.67051 0.0
H1790 H 0.70713 0.13501 0.6417 0.0
H1791 H 0.67088 0.09513 0.59083 0.0
H1792 H 0.74996 0.14436 0.51508 0.0
H1793 H 0.72242 0.13756 0.54352 0.0
H1794 H 0.77149 0.11993 0.59538 0.0
C1795 C 0.69174 0.11832 0.64271 0.0
C1796 C 0.69286 0.10032 0.59208 0.0
C1797 C 0.67632 0.11553 0.65938 0.0
C1798 C 0.75983 0.13425 0.52673 0.0
C1799 C 0.7438 0.13002 0.54311 0.0
C1800 C 0.74962 0.11432 0.59406 0.0
C1801 C 0.68731 0.10024 0.62755 0.0
C1802 C 0.7047 0.10342 0.6098 0.0
C1803 C 0.75512 0.11651 0.55873 0.0
C1804 C 0.73772 0.11173 0.57633 0.0
H1805 H 0.63564 0.05964 0.64787 0.0
H1806 H 0.66223 0.06481 0.61857 0.0
H1807 H 0.74372 0.11274 0.6236 0.0
H1808 H 0.82053 0.10373 0.54027 0.0
H1809 H 0.79299 0.09693 0.56877 0.0
C1810 C 0.12636 0.43088 0.41008 0.0
C1811 C 0.14724 0.41013 0.41212 0.0
C1812 C 0.12337 0.44614 0.39351 0.0
C1813 C 0.14006 0.4464 0.34255 0.0
H1814 H 0.12141 0.52548 0.34643 0.0
C1815 C 0.10515 0.51298 0.27804 0.0
C1816 C 0.11466 0.54101 0.27641 0.0
C1817 C 0.10969 0.49705 0.29427 0.0
C1818 C 0.12674 0.50348 0.34493 0.0
H1819 H 0.18121 0.38938 0.39746 0.0
H1820 H 0.17569 0.41569 0.36832 0.0
H1821 H 0.12901 0.49797 0.37442 0.0
H1822 H 0.13646 0.57391 0.2912 0.0
H1823 H 0.14378 0.54658 0.31945 0.0
H1824 H 0.13765 0.452 0.31299 0.0
C1825 C 0.16157 0.42014 0.3798 0.0
C1826 C 0.13089 0.48747 0.36115 0.0
C1827 C 0.16481 0.40498 0.3966 0.0
C1828 C 0.12849 0.5526 0.29181 0.0
C1829 C 0.13271 0.53678 0.30814 0.0
C1830 C 0.13553 0.46237 0.32629 0.0
C1831 C 0.14094 0.44132 0.37801 0.0
C1832 C 0.13754 0.45855 0.36035 0.0
C1833 C 0.12366 0.50854 0.30967 0.0
C1834 C 0.12873 0.49128 0.32713 0.0
H1835 H 0.11225 0.43578 0.42149 0.0
H1836 H 0.10692 0.46171 0.39285 0.0
H1837 H 0.14497 0.42429 0.34113 0.0
H1838 H 0.09467 0.50297 0.26656 0.0
H1839 H 0.10202 0.47563 0.29475 0.0
C1840 C 0.66844 0.61938 0.58336 0.0
C1841 C 0.65388 0.59435 0.57909 0.0
C1842 C 0.68318 0.62261 0.60004 0.0
C1843 C 0.71574 0.58207 0.63924 0.0
H1844 H 0.7205 0.65566 0.66206 0.0
C1845 C 0.79328 0.60512 0.70033 0.0
C1846 C 0.78508 0.624 0.71452 0.0
C1847 C 0.77714 0.60152 0.68418 0.0
C1848 C 0.71941 0.63482 0.65608 0.0
H1849 H 0.64388 0.55299 0.58976 0.0
H1850 H 0.66946 0.55857 0.61892 0.0
H1851 H 0.69217 0.64901 0.63457 0.0
H1852 H 0.75286 0.65395 0.72222 0.0
H1853 H 0.72508 0.64789 0.69429 0.0
H1854 H 0.74279 0.56786 0.66093 0.0
C1855 C 0.66956 0.57584 0.60916 0.0
C1856 C 0.70322 0.63102 0.63998 0.0
C1857 C 0.65453 0.57267 0.59241 0.0
C1858 C 0.76028 0.63942 0.71169 0.0
C1859 C 0.74421 0.63592 0.69549 0.0
C1860 C 0.7321 0.58592 0.6553 0.0
C1861 C 0.68431 0.60091 0.61333 0.0
C1862 C 0.70106 0.60459 0.63112 0.0
C1863 C 0.7521 0.61668 0.68141 0.0
C1864 C 0.73438 0.61242 0.66409 0.0
H1865 H 0.66879 0.63667 0.57361 0.0
H1866 H 0.69437 0.64211 0.60225 0.0
H1867 H 0.71508 0.5614 0.633 0.0
H1868 H 0.81204 0.59265 0.70182 0.0
H1869 H 0.78451 0.5868 0.67377 0.0
C1870 C 0.12295 0.93108 0.83129 0.0
C1871 C 0.14366 0.91021 0.82872 0.0
C1872 C 0.12033 0.9463 0.84797 0.0
C1873 C 0.1381 0.94617 0.89849 0.0
H1874 H 0.11984 0.02538 0.89544 0.0
C1875 C 0.10529 0.01233 0.96419 0.0
C1876 C 0.11501 0.04028 0.96572 0.0
C1877 C 0.1093 0.99656 0.94775 0.0
C1878 C 0.12508 0.00335 0.89669 0.0
H1879 H 0.17773 0.88919 0.8425 0.0
H1880 H 0.17289 0.91544 0.87181 0.0
H1881 H 0.12656 -0.002 0.86713 0.0
H1882 H 0.13659 0.07324 0.95052 0.0
H1883 H 0.14303 0.04616 0.9219 0.0
H1884 H 0.13652 0.95159 0.92811 0.0
C1885 C 0.15859 0.92001 0.86069 0.0
C1886 C 0.12871 0.98741 0.8803 0.0
C1887 C 0.16144 0.90488 0.84379 0.0
C1888 C 0.1285 0.05198 0.95 0.0
C1889 C 0.1322 0.03631 0.93347 0.0
C1890 C 0.13411 0.96206 0.91492 0.0
C1891 C 0.13814 0.9413 0.86303 0.0
C1892 C 0.1352 0.95845 0.88082 0.0
C1893 C 0.12295 0.00814 0.93204 0.0
C1894 C 0.12747 0.991 0.91438 0.0
H1895 H 0.1087 0.93609 0.82022 0.0
H1896 H 0.104 0.96199 0.84907 0.0
H1897 H 0.14291 0.92403 0.89969 0.0
H1898 H 0.09504 0.00225 0.9759 0.0
H1899 H 0.10148 0.9752 0.94736 0.0
C1900 C 0.83415 0.41854 1.09238 0.0
C1901 C 0.83019 0.39995 1.07738 0.0
C1902 C 0.81861 0.41548 1.10919 0.0
C1903 C 0.75229 0.38233 0.12839 0.0
H1904 H 0.78527 0.39462 0.17647 0.0
C1905 C 0.68483 0.38057 0.19723 0.0
C1906 C 0.69665 0.36893 0.21331 0.0
C1907 C 0.70096 0.38458 0.18085 0.0
C1908 C 0.77561 0.39092 0.1632 0.0
H1909 H 0.80643 0.36322 1.06895 0.0
H1910 H 0.77996 0.3581 1.09763 0.0
H1911 H 0.81358 0.40151 0.14829 0.0
H1912 H 0.73538 0.35255 0.2243 0.0
H1913 H 0.76319 0.35941 0.19602 0.0
H1914 H 0.71442 0.37158 0.14319 0.0
C1915 C 0.79478 0.3753 1.09653 0.0
C1916 C 0.79191 0.39521 0.14691 0.0
C1917 C 0.81035 0.37817 1.07995 0.0
C1918 C 0.72521 0.36132 0.2123 0.0
C1919 C 0.74139 0.3656 0.196 0.0
C1920 C 0.73595 0.37834 0.14464 0.0
C1921 C 0.79832 0.39395 1.1115 0.0
C1922 C 0.78067 0.39073 0.12914 0.0
C1923 C 0.72969 0.37745 0.17993 0.0
C1924 C 0.74726 0.38233 0.16242 0.0
H1925 H 0.84902 0.43565 1.09109 0.0
H1926 H 0.82207 0.43045 0.12024 0.0
H1927 H 0.74246 0.37894 1.11514 0.0
H1928 H 0.66309 0.38703 0.19735 0.0
H1929 H 0.69096 0.39399 0.169 0.0
C1930 C 0.35565 0.942 0.44932 0.0
C1931 C 0.37024 0.95341 0.46447 0.0
C1932 C 0.35157 0.95763 0.4329 0.0
C1933 C 0.35129 0.03176 0.41401 0.0
H1934 H 0.35422 0.9946 0.36627 0.0
C1935 C 0.32235 0.08882 0.34351 0.0
C1936 C 0.33877 0.08209 0.32772 0.0
C1937 C 0.3255 0.07399 0.36046 0.0
C1938 C 0.35339 0.00555 0.37942 0.0
H1939 H 0.3918 0.99091 0.47375 0.0
H1940 H 0.38478 0.01789 0.44538 0.0
H1941 H 0.36168 0.96754 0.39444 0.0
H1942 H 0.37173 0.05408 0.31804 0.0
H1943 H 0.37696 0.02884 0.34692 0.0
H1944 H 0.34313 0.06986 0.39885 0.0
C1945 C 0.37634 0.99679 0.44614 0.0
C1946 C 0.35744 0.98979 0.39575 0.0
C1947 C 0.38068 0.98105 0.46248 0.0
C1948 C 0.35847 0.06018 0.32964 0.0
C1949 C 0.3614 0.04532 0.34636 0.0
C1950 C 0.34692 0.0475 0.39764 0.0
C1951 C 0.36158 0.98549 0.431 0.0
C1952 C 0.3567 0.00254 0.41342 0.0
C1953 C 0.34491 0.05167 0.36214 0.0
C1954 C 0.34816 0.03478 0.37996 0.0
H1955 H 0.34696 0.92099 0.45021 0.0
H1956 H 0.33986 0.94799 0.42182 0.0
H1957 H 0.35016 0.04258 0.4272 0.0
H1958 H 0.30688 0.10537 0.34276 0.0
H1959 H 0.31223 0.07965 0.37214 0.0
C1960 C 0.31754 0.3748 0.65664 0.0
C1961 C 0.332 0.3999 0.66086 0.0
C1962 C 0.3027 0.37152 0.63999 0.0
C1963 C 0.26991 0.41198 0.60081 0.0
H1964 H 0.26522 0.33838 0.57803 0.0
C1965 C 0.19259 0.38893 0.53962 0.0
C1966 C 0.20081 0.36999 0.52548 0.0
C1967 C 0.20866 0.39254 0.5558 0.0
C1968 C 0.26629 0.35922 0.584 0.0
H1969 H 0.34172 0.44133 0.65017 0.0
H1970 H 0.31602 0.43562 0.62109 0.0
H1971 H 0.29354 0.34507 0.60552 0.0
H1972 H 0.233 0.33995 0.51787 0.0
H1973 H 0.26069 0.34606 0.54583 0.0
H1974 H 0.24289 0.42617 0.57911 0.0
C1975 C 0.31604 0.41836 0.63084 0.0
C1976 C 0.28247 0.36305 0.60009 0.0
C1977 C 0.33114 0.42159 0.64755 0.0
C1978 C 0.22557 0.35453 0.52837 0.0
C1979 C 0.24158 0.35805 0.54458 0.0
C1980 C 0.25358 0.40811 0.58475 0.0
C1981 C 0.3014 0.39322 0.62671 0.0
C1982 C 0.28461 0.38949 0.60895 0.0
C1983 C 0.23366 0.37734 0.55863 0.0
C1984 C 0.25133 0.38161 0.57597 0.0
H1985 H 0.31733 0.35752 0.66638 0.0
H1986 H 0.29159 0.35196 0.6378 0.0
H1987 H 0.27055 0.43266 0.60705 0.0
H1988 H 0.17386 0.40143 0.53808 0.0
H1989 H 0.20127 0.4073 0.56619 0.0
C1990 C 0.82439 0.08974 0.39606 0.0
C1991 C 0.84129 0.08343 0.41141 0.0
C1992 C 0.8273 0.07474 0.3791 0.0
C1993 C 0.85532 0.00645 0.35956 0.0
H1994 H 0.85072 0.04319 0.31184 0.0
C1995 C 0.85594 0.94272 0.28957 0.0
C1996 C 0.87029 0.95411 0.27408 0.0
C1997 C 0.85221 0.95835 0.30611 0.0
C1998 C 0.85223 0.03246 0.32501 0.0
H1999 H 0.87475 0.05593 0.42034 0.0
H2000 H 0.87956 0.03032 0.39141 0.0
H2001 H 0.84425 0.07059 0.34033 0.0
H2002 H 0.89178 0.99156 0.26433 0.0
H2003 H 0.88533 0.01855 0.2929 0.0
H2004 H 0.8634 0.96839 0.34435 0.0
C2005 C 0.86385 0.04665 0.39232 0.0
C2006 C 0.84818 0.04826 0.34147 0.0
C2007 C 0.86118 0.06171 0.40906 0.0
C2008 C 0.88084 0.98172 0.27586 0.0
C2009 C 0.87683 -0.00254 0.29231 0.0
C2010 C 0.85903 0.99062 0.34314 0.0
C2011 C 0.84692 0.05264 0.37698 0.0
C2012 C 0.84991 0.03564 0.35912 0.0
C2013 C 0.86232 0.98619 0.30779 0.0
C2014 C 0.85779 0.00328 0.32548 0.0
H2015 H 0.80876 0.10612 0.39716 0.0
H2016 H 0.81369 0.0801 0.36776 0.0
H2017 H 0.85654 0.9956 0.3727 0.0
H2018 H 0.84719 0.92174 0.28886 0.0
H2019 H 0.8407 0.94875 0.31748 0.0
C2020 C 0.16888 0.61862 0.15811 0.0
C2021 C 0.15402 0.59373 0.16243 0.0
C2022 C 0.18408 0.62165 0.14136 0.0
C2023 C 0.21718 0.5807 1.10205 0.0
H2024 H 0.22327 0.65424 1.07931 0.0
C2025 C 0.29649 0.60296 1.04071 0.0
C2026 C 0.28883 0.62195 1.02663 0.0
C2027 C 0.2799 0.59951 1.05693 0.0
C2028 C 0.22179 0.63342 1.08527 0.0
H2029 H 0.14387 0.55241 0.15183 0.0
H2030 H 0.17019 0.55771 0.12252 0.0
H2031 H 0.19406 0.64787 1.10687 0.0
H2032 H 0.25714 0.65228 1.01913 0.0
H2033 H 0.22854 0.6464 1.04716 0.0
H2034 H 0.24465 0.5662 1.08022 0.0
C2035 C 0.17022 0.57498 0.13229 0.0
C2036 C 0.20511 0.62978 1.1014 0.0
C2037 C 0.15478 0.572 0.14912 0.0
C2038 C 0.26413 0.63764 1.0296 0.0
C2039 C 0.24759 0.63426 1.04584 0.0
C2040 C 0.23399 0.58437 1.08593 0.0
C2041 C 0.1853 0.59991 0.12808 0.0
C2042 C 0.2025 0.60338 1.11024 0.0
C2043 C 0.25495 0.61493 1.05983 0.0
C2044 C 0.23675 0.61085 1.07718 0.0
H2045 H 0.16916 0.63592 0.16785 0.0
H2046 H 0.19553 0.64103 0.1391 0.0
H2047 H 0.21616 0.56005 1.10829 0.0
H2048 H 0.31516 0.59031 1.03909 0.0
H2049 H 0.28686 0.58471 1.06729 0.0
C2050 C 0.62185 0.92252 0.90709 0.0
C2051 C 0.64698 0.90831 0.91117 0.0
C2052 C 0.61847 0.93746 0.8904 0.0
C2053 C 0.65849 0.9712 0.85077 0.0
H2054 H 0.58506 0.97515 0.8287 0.0
C2055 C 0.63457 0.0492 0.78965 0.0
C2056 C 0.61574 0.04085 0.77574 0.0
C2057 C 0.6384 0.03293 0.80583 0.0
C2058 C 0.60585 0.97429 0.83446 0.0
H2059 H 0.68835 0.89912 0.90019 0.0
H2060 H 0.68247 0.925 0.87101 0.0
H2061 H 0.59205 0.94648 0.85616 0.0
H2062 H 0.58612 0.00819 0.76851 0.0
H2063 H 0.59261 0.98015 0.79645 0.0
H2064 H 0.67232 -0.00123 0.82886 0.0
C2065 C 0.66526 0.92469 0.88091 0.0
C2066 C 0.60985 0.95791 0.85054 0.0
C2067 C 0.66859 0.90949 0.89767 0.0
C2068 C 0.6006 0.01574 0.77884 0.0
C2069 C 0.60434 -0.00048 0.79504 0.0
C2070 C 0.65445 0.98772 0.83471 0.0
C2071 C 0.64009 0.93911 0.87694 0.0
C2072 C 0.63622 0.95604 0.85915 0.0
C2073 C 0.62352 0.00759 0.80887 0.0
C2074 C 0.628 0.98972 0.82619 0.0
H2075 H 0.60461 0.92247 0.91698 0.0
H2076 H 0.59889 0.94839 0.88834 0.0
H2077 H 0.67911 0.97077 0.85681 0.0
H2078 H 0.64683 0.0682 0.78794 0.0
H2079 H 0.65306 0.04043 0.81604 0.0
loop_
_geom_bond_atom_site_label_1
_geom_bond_atom_site_label_2
_geom_bond_distance
_geom_bond_site_symmetry_2
_ccdc_geom_bond_type
Pr0 C2 2.880 . S
Pr0 O20 2.562 . S
Pr0 O21 2.490 . S
Pr0 O22 2.695 . S
Pr0 O23 2.512 . S
Pr0 O25 2.437 . S
Pr0 O28 2.436 . S
Pr0 O30 2.438 . S
Pr1 C11 2.880 . S
Pr1 O22 2.436 . S
Pr1 O24 2.438 . S
Pr1 O26 2.562 . S
Pr1 O27 2.490 . S
Pr1 O28 2.695 . S
Pr1 O29 2.512 . S
Pr1 O31 2.437 . S
C2 Pr0 2.880 . S
C2 C3 1.491 . S
C2 O20 1.254 . S
C2 O21 1.225 . S
C3 C2 1.491 . S
C3 C4 1.392 . S
C3 C8 1.356 . S
C4 C3 1.392 . S
C4 C5 1.368 . S
C4 H32 0.929 . S
C5 C4 1.368 . S
C5 C6 1.386 . S
C5 H33 0.929 . S
C6 C5 1.386 . S
C6 C7 1.373 . S
C7 C6 1.373 . S
C7 C8 1.409 . S
C7 H34 0.931 . S
C8 C3 1.356 . S
C8 C7 1.409 . S
C8 H35 0.930 . S
C9 O22 1.270 . S
C9 O23 1.248 . S
C10 O24 1.267 . S
C10 O25 1.278 . S
C11 Pr1 2.880 . S
C11 C12 1.491 . S
C11 O26 1.254 . S
C11 O27 1.225 . S
C12 C11 1.491 . S
C12 C13 1.392 . S
C12 C17 1.356 . S
C13 C12 1.392 . S
C13 C14 1.368 . S
C13 H36 0.929 . S
C14 C13 1.368 . S
C14 C15 1.386 . S
C14 H37 0.929 1_545 S
C15 C14 1.386 . S
C15 C16 1.373 . S
C16 C15 1.373 . S
C16 C17 1.409 . S
C16 H38 0.931 . S
C17 C12 1.356 . S
C17 C16 1.409 . S
C17 H39 0.930 . S
C18 O28 1.270 . S
C18 O29 1.248 . S
C19 O30 1.267 . S
C19 O31 1.278 . S
O20 Pr0 2.562 . S
O20 C2 1.254 . S
O21 Pr0 2.490 . S
O21 C2 1.225 . S
O22 Pr0 2.695 . S
O22 Pr1 2.436 . S
O22 C9 1.270 . S
O23 Pr0 2.512 . S
O23 C9 1.248 . S
O24 Pr1 2.438 . S
O24 C10 1.267 . S
O25 Pr0 2.437 . S
O25 C10 1.278 . S
O26 Pr1 2.562 . S
O26 C11 1.254 . S
O27 Pr1 2.490 . S
O27 C11 1.225 . S
O28 Pr0 2.436 . S
O28 Pr1 2.695 . S
O28 C18 1.270 . S
O29 Pr1 2.512 . S
O29 C18 1.248 . S
O30 Pr0 2.438 . S
O30 C19 1.267 . S
O31 Pr1 2.437 . S
O31 C19 1.278 . S
H32 C4 0.929 . S
H33 C5 0.929 . S
H34 C7 0.931 . S
H35 C8 0.930 . S
H36 C13 0.929 . S
H37 C14 0.929 1_565 S
H38 C16 0.931 . S
H39 C17 0.930 . S
Pr40 C42 2.880 . S
Pr40 O60 2.562 . S
Pr40 O61 2.490 . S
Pr40 O62 2.695 . S
Pr40 O63 2.512 . S
Pr40 O65 2.437 . S
Pr40 O68 2.436 . S
Pr40 O70 2.438 . S
Pr41 C51 2.880 . S
Pr41 O62 2.436 . S
Pr41 O64 2.438 . S
Pr41 O66 2.562 . S
Pr41 O67 2.490 . S
Pr41 O68 2.695 . S
Pr41 O69 2.512 . S
Pr41 O71 2.437 . S
C42 Pr40 2.880 . S
C42 C43 1.491 . S
C42 O60 1.254 . S
C42 O61 1.225 . S
C43 C42 1.491 . S
C43 C44 1.392 . S
C43 C48 1.356 . S
C44 C43 1.392 . S
C44 C45 1.368 . S
C44 H72 0.929 . S
C45 C44 1.368 . S
C45 C46 1.386 . S
C45 H73 0.929 . S
C46 C45 1.386 . S
C46 C47 1.373 . S
C47 C46 1.373 . S
C47 C48 1.409 . S
C47 H74 0.931 . S
C48 C43 1.356 . S
C48 C47 1.409 . S
C48 H75 0.930 . S
C49 O62 1.270 . S
C49 O63 1.248 . S
C50 O64 1.267 . S
C50 O65 1.278 . S
C51 Pr41 2.880 . S
C51 C52 1.491 . S
C51 O66 1.254 . S
C51 O67 1.225 . S
C52 C51 1.491 . S
C52 C53 1.392 . S
C52 C57 1.356 . S
C53 C52 1.392 . S
C53 C54 1.368 . S
C53 H76 0.929 . S
C54 C53 1.368 . S
C54 C55 1.386 . S
C54 H77 0.929 . S
C55 C54 1.386 . S
C55 C56 1.373 . S
C56 C55 1.373 . S
C56 C57 1.409 . S
C56 H78 0.931 . S
C57 C52 1.356 . S
C57 C56 1.409 . S
C57 H79 0.930 . S
C58 O68 1.270 . S
C58 O69 1.248 . S
C59 O70 1.267 . S
C59 O71 1.278 . S
O60 Pr40 2.562 . S
O60 C42 1.254 . S
O61 Pr40 2.490 . S
O61 C42 1.225 . S
O62 Pr40 2.695 . S
O62 Pr41 2.436 . S
O62 C49 1.270 . S
O63 Pr40 2.512 . S
O63 C49 1.248 . S
O64 Pr41 2.438 . S
O64 C50 1.267 . S
O65 Pr40 2.437 . S
O65 C50 1.278 . S
O66 Pr41 2.562 . S
O66 C51 1.254 . S
O67 Pr41 2.490 . S
O67 C51 1.225 . S
O68 Pr40 2.436 . S
O68 Pr41 2.695 . S
O68 C58 1.270 . S
O69 Pr41 2.512 . S
O69 C58 1.248 . S
O70 Pr40 2.438 . S
O70 C59 1.267 . S
O71 Pr41 2.437 . S
O71 C59 1.278 . S
H72 C44 0.929 . S
H73 C45 0.929 . S
H74 C47 0.931 . S
H75 C48 0.930 . S
H76 C53 0.929 . S
H77 C54 0.929 . S
H78 C56 0.931 . S
H79 C57 0.930 . S
Pr80 C82 2.880 . S
Pr80 O100 2.562 . S
Pr80 O101 2.490 . S
Pr80 O102 2.695 . S
Pr80 O103 2.512 . S
Pr80 O105 2.437 . S
Pr80 O108 2.436 . S
Pr80 O110 2.438 . S
Pr81 C91 2.880 . S
Pr81 O102 2.436 . S
Pr81 O104 2.438 . S
Pr81 O106 2.562 . S
Pr81 O107 2.490 . S
Pr81 O108 2.695 . S
Pr81 O109 2.512 . S
Pr81 O111 2.437 . S
C82 Pr80 2.880 . S
C82 C83 1.491 . S
C82 O100 1.254 . S
C82 O101 1.225 . S
C83 C82 1.491 . S
C83 C84 1.392 . S
C83 C88 1.356 . S
C84 C83 1.392 . S
C84 C85 1.368 . S
C84 H112 0.929 . S
C85 C84 1.368 . S
C85 C86 1.386 . S
C85 H113 0.929 . S
C86 C85 1.386 . S
C86 C87 1.373 . S
C87 C86 1.373 . S
C87 C88 1.409 . S
C87 H114 0.931 . S
C88 C83 1.356 . S
C88 C87 1.409 . S
C88 H115 0.930 . S
C89 O102 1.270 . S
C89 O103 1.248 . S
C90 O104 1.267 . S
C90 O105 1.278 . S
C91 Pr81 2.880 . S
C91 C92 1.491 . S
C91 O106 1.254 . S
C91 O107 1.225 . S
C92 C91 1.491 . S
C92 C93 1.392 . S
C92 C97 1.356 . S
C93 C92 1.392 . S
C93 C94 1.368 . S
C93 H116 0.929 . S
C94 C93 1.368 . S
C94 C95 1.386 . S
C94 H117 0.929 1_565 S
C95 C94 1.386 . S
C95 C96 1.373 . S
C96 C95 1.373 . S
C96 C97 1.409 . S
C96 H118 0.931 . S
C97 C92 1.356 . S
C97 C96 1.409 . S
C97 H119 0.930 . S
C98 O108 1.270 . S
C98 O109 1.248 . S
C99 O110 1.267 . S
C99 O111 1.278 . S
O100 Pr80 2.562 . S
O100 C82 1.254 . S
O101 Pr80 2.490 . S
O101 C82 1.225 . S
O102 Pr80 2.695 . S
O102 Pr81 2.436 . S
O102 C89 1.270 . S
O103 Pr80 2.512 . S
O103 C89 1.248 . S
O104 Pr81 2.438 . S
O104 C90 1.267 . S
O105 Pr80 2.437 . S
O105 C90 1.278 . S
O106 Pr81 2.562 . S
O106 C91 1.254 . S
O107 Pr81 2.490 . S
O107 C91 1.225 . S
O108 Pr80 2.436 . S
O108 Pr81 2.695 . S
O108 C98 1.270 . S
O109 Pr81 2.512 . S
O109 C98 1.248 . S
O110 Pr80 2.438 . S
O110 C99 1.267 . S
O111 Pr81 2.437 . S
O111 C99 1.278 . S
H112 C84 0.929 . S
H113 C85 0.929 . S
H114 C87 0.931 . S
H115 C88 0.930 . S
H116 C93 0.929 . S
H117 C94 0.929 1_545 S
H118 C96 0.931 . S
H119 C97 0.930 . S
Pr120 C122 2.880 . S
Pr120 O140 2.562 . S
Pr120 O141 2.490 . S
Pr120 O142 2.695 . S
Pr120 O143 2.512 . S
Pr120 O145 2.437 . S
Pr120 O148 2.436 . S
Pr120 O150 2.438 . S
Pr121 C131 2.880 . S
Pr121 O142 2.436 . S
Pr121 O144 2.438 . S
Pr121 O146 2.562 . S
Pr121 O147 2.490 . S
Pr121 O148 2.695 . S
Pr121 O149 2.512 . S
Pr121 O151 2.437 . S
C122 Pr120 2.880 . S
C122 C123 1.491 . S
C122 O140 1.254 . S
C122 O141 1.225 . S
C123 C122 1.491 . S
C123 C124 1.392 1_655 S
C123 C128 1.356 . S
C124 C123 1.392 1_455 S
C124 C125 1.368 . S
C124 H152 0.929 . S
C125 C124 1.368 . S
C125 C126 1.386 . S
C125 H153 0.929 . S
C126 C125 1.386 . S
C126 C127 1.373 1_455 S
C127 C126 1.373 1_655 S
C127 C128 1.409 . S
C127 H154 0.931 . S
C128 C123 1.356 . S
C128 C127 1.409 . S
C128 H155 0.930 . S
C129 O142 1.270 . S
C129 O143 1.248 . S
C130 O144 1.267 . S
C130 O145 1.278 . S
C131 Pr121 2.880 . S
C131 C132 1.491 . S
C131 O146 1.254 . S
C131 O147 1.225 . S
C132 C131 1.491 . S
C132 C133 1.392 . S
C132 C137 1.356 . S
C133 C132 1.392 . S
C133 C134 1.368 . S
C133 H156 0.929 . S
C134 C133 1.368 . S
C134 C135 1.386 . S
C134 H157 0.929 . S
C135 C134 1.386 . S
C135 C136 1.373 . S
C136 C135 1.373 . S
C136 C137 1.409 . S
C136 H158 0.931 . S
C137 C132 1.356 . S
C137 C136 1.409 . S
C137 H159 0.930 . S
C138 O148 1.270 . S
C138 O149 1.248 . S
C139 O150 1.267 . S
C139 O151 1.278 . S
O140 Pr120 2.562 . S
O140 C122 1.254 . S
O141 Pr120 2.490 . S
O141 C122 1.225 . S
O142 Pr120 2.695 . S
O142 Pr121 2.436 . S
O142 C129 1.270 . S
O143 Pr120 2.512 . S
O143 C129 1.248 . S
O144 Pr121 2.438 . S
O144 C130 1.267 . S
O145 Pr120 2.437 . S
O145 C130 1.278 . S
O146 Pr121 2.562 . S
O146 C131 1.254 . S
O147 Pr121 2.490 . S
O147 C131 1.225 . S
O148 Pr120 2.436 . S
O148 Pr121 2.695 . S
O148 C138 1.270 . S
O149 Pr121 2.512 . S
O149 C138 1.248 . S
O150 Pr120 2.438 . S
O150 C139 1.267 . S
O151 Pr121 2.437 . S
O151 C139 1.278 . S
H152 C124 0.929 . S
H153 C125 0.929 . S
H154 C127 0.931 . S
H155 C128 0.930 . S
H156 C133 0.929 . S
H157 C134 0.929 . S
H158 C136 0.931 . S
H159 C137 0.930 . S
Pr160 C162 2.880 . S
Pr160 O180 2.562 . S
Pr160 O181 2.490 . S
Pr160 O182 2.695 . S
Pr160 O183 2.512 . S
Pr160 O185 2.437 . S
Pr160 O188 2.436 . S
Pr160 O190 2.438 . S
Pr161 C171 2.880 . S
Pr161 O182 2.436 . S
Pr161 O184 2.438 . S
Pr161 O186 2.562 . S
Pr161 O187 2.490 . S
Pr161 O188 2.695 . S
Pr161 O189 2.512 . S
Pr161 O191 2.437 . S
C162 Pr160 2.880 . S
C162 C163 1.491 . S
C162 O180 1.254 . S
C162 O181 1.225 . S
C163 C162 1.491 . S
C163 C164 1.392 . S
C163 C168 1.356 . S
C164 C163 1.392 . S
C164 C165 1.368 . S
C164 H192 0.929 . S
C165 C164 1.368 . S
C165 C166 1.386 . S
C165 H193 0.929 1_565 S
C166 C165 1.386 . S
C166 C167 1.373 . S
C167 C166 1.373 . S
C167 C168 1.409 . S
C167 H194 0.931 . S
C168 C163 1.356 . S
C168 C167 1.409 . S
C168 H195 0.930 . S
C169 O182 1.270 . S
C169 O183 1.248 . S
C170 O184 1.267 . S
C170 O185 1.278 . S
C171 Pr161 2.880 . S
C171 C172 1.491 . S
C171 O186 1.254 . S
C171 O187 1.225 . S
C172 C171 1.491 . S
C172 C173 1.392 . S
C172 C177 1.356 . S
C173 C172 1.392 . S
C173 C174 1.368 . S
C173 H196 0.929 . S
C174 C173 1.368 . S
C174 C175 1.386 . S
C174 H197 0.929 . S
C175 C174 1.386 . S
C175 C176 1.373 . S
C176 C175 1.373 . S
C176 C177 1.409 . S
C176 H198 0.931 . S
C177 C172 1.356 . S
C177 C176 1.409 . S
C177 H199 0.930 . S
C178 O188 1.270 . S
C178 O189 1.248 . S
C179 O190 1.267 . S
C179 O191 1.278 . S
O180 Pr160 2.562 . S
O180 C162 1.254 . S
O181 Pr160 2.490 . S
O181 C162 1.225 . S
O182 Pr160 2.695 . S
O182 Pr161 2.436 . S
O182 C169 1.270 . S
O183 Pr160 2.512 . S
O183 C169 1.248 . S
O184 Pr161 2.438 . S
O184 C170 1.267 . S
O185 Pr160 2.437 . S
O185 C170 1.278 . S
O186 Pr161 2.562 . S
O186 C171 1.254 . S
O187 Pr161 2.490 . S
O187 C171 1.225 . S
O188 Pr160 2.436 . S
O188 Pr161 2.695 . S
O188 C178 1.270 . S
O189 Pr161 2.512 . S
O189 C178 1.248 . S
O190 Pr160 2.438 . S
O190 C179 1.267 . S
O191 Pr161 2.437 . S
O191 C179 1.278 . S
H192 C164 0.929 . S
H193 C165 0.929 1_545 S
H194 C167 0.931 . S
H195 C168 0.930 . S
H196 C173 0.929 . S
H197 C174 0.929 . S
H198 C176 0.931 . S
H199 C177 0.930 . S
Pr200 C202 2.880 . S
Pr200 O220 2.562 . S
Pr200 O221 2.490 . S
Pr200 O222 2.695 . S
Pr200 O223 2.512 . S
Pr200 O225 2.437 . S
Pr200 O228 2.436 . S
Pr200 O230 2.438 . S
Pr201 C211 2.880 . S
Pr201 O222 2.436 . S
Pr201 O224 2.438 . S
Pr201 O226 2.562 . S
Pr201 O227 2.490 . S
Pr201 O228 2.695 . S
Pr201 O229 2.512 . S
Pr201 O231 2.437 . S
C202 Pr200 2.880 . S
C202 C203 1.491 . S
C202 O220 1.254 . S
C202 O221 1.225 . S
C203 C202 1.491 . S
C203 C204 1.392 . S
C203 C208 1.356 . S
C204 C203 1.392 . S
C204 C205 1.368 . S
C204 H232 0.929 . S
C205 C204 1.368 . S
C205 C206 1.386 . S
C205 H233 0.929 . S
C206 C205 1.386 . S
C206 C207 1.373 . S
C207 C206 1.373 . S
C207 C208 1.409 . S
C207 H234 0.931 . S
C208 C203 1.356 . S
C208 C207 1.409 . S
C208 H235 0.930 . S
C209 O222 1.270 . S
C209 O223 1.248 . S
C210 O224 1.267 . S
C210 O225 1.278 . S
C211 Pr201 2.880 . S
C211 C212 1.491 . S
C211 O226 1.254 . S
C211 O227 1.225 . S
C212 C211 1.491 . S
C212 C213 1.392 . S
C212 C217 1.356 . S
C213 C212 1.392 . S
C213 C214 1.368 . S
C213 H236 0.929 . S
C214 C213 1.368 . S
C214 C215 1.386 . S
C214 H237 0.929 . S
C215 C214 1.386 . S
C215 C216 1.373 . S
C216 C215 1.373 . S
C216 C217 1.409 . S
C216 H238 0.931 . S
C217 C212 1.356 . S
C217 C216 1.409 . S
C217 H239 0.930 . S
C218 O228 1.270 . S
C218 O229 1.248 . S
C219 O230 1.267 . S
C219 O231 1.278 . S
O220 Pr200 2.562 . S
O220 C202 1.254 . S
O221 Pr200 2.490 . S
O221 C202 1.225 . S
O222 Pr200 2.695 . S
O222 Pr201 2.436 . S
O222 C209 1.270 . S
O223 Pr200 2.512 . S
O223 C209 1.248 . S
O224 Pr201 2.438 . S
O224 C210 1.267 . S
O225 Pr200 2.437 . S
O225 C210 1.278 . S
O226 Pr201 2.562 . S
O226 C211 1.254 . S
O227 Pr201 2.490 . S
O227 C211 1.225 . S
O228 Pr200 2.436 . S
O228 Pr201 2.695 . S
O228 C218 1.270 . S
O229 Pr201 2.512 . S
O229 C218 1.248 . S
O230 Pr200 2.438 . S
O230 C219 1.267 . S
O231 Pr201 2.437 . S
O231 C219 1.278 . S
H232 C204 0.929 . S
H233 C205 0.929 . S
H234 C207 0.931 . S
H235 C208 0.930 . S
H236 C213 0.929 . S
H237 C214 0.929 . S
H238 C216 0.931 . S
H239 C217 0.930 . S
Pr240 C242 2.880 . S
Pr240 O260 2.562 . S
Pr240 O261 2.490 . S
Pr240 O262 2.695 . S
Pr240 O263 2.512 . S
Pr240 O265 2.437 . S
Pr240 O268 2.436 . S
Pr240 O270 2.438 . S
Pr241 C251 2.880 . S
Pr241 O262 2.436 . S
Pr241 O264 2.438 . S
Pr241 O266 2.562 . S
Pr241 O267 2.490 . S
Pr241 O268 2.695 . S
Pr241 O269 2.512 . S
Pr241 O271 2.437 . S
C242 Pr240 2.880 . S
C242 C243 1.491 . S
C242 O260 1.254 . S
C242 O261 1.225 . S
C243 C242 1.491 . S
C243 C244 1.392 . S
C243 C248 1.356 . S
C244 C243 1.392 . S
C244 C245 1.368 . S
C244 H272 0.929 . S
C245 C244 1.368 . S
C245 C246 1.386 . S
C245 H273 0.929 1_545 S
C246 C245 1.386 . S
C246 C247 1.373 . S
C247 C246 1.373 . S
C247 C248 1.409 . S
C247 H274 0.931 . S
C248 C243 1.356 . S
C248 C247 1.409 . S
C248 H275 0.930 . S
C249 O262 1.270 . S
C249 O263 1.248 . S
C250 O264 1.267 . S
C250 O265 1.278 . S
C251 Pr241 2.880 . S
C251 C252 1.491 . S
C251 O266 1.254 . S
C251 O267 1.225 . S
C252 C251 1.491 . S
C252 C253 1.392 . S
C252 C257 1.356 . S
C253 C252 1.392 . S
C253 C254 1.368 . S
C253 H276 0.929 . S
C254 C253 1.368 . S
C254 C255 1.386 . S
C254 H277 0.929 . S
C255 C254 1.386 . S
C255 C256 1.373 . S
C256 C255 1.373 . S
C256 C257 1.409 . S
C256 H278 0.931 . S
C257 C252 1.356 . S
C257 C256 1.409 . S
C257 H279 0.930 . S
C258 O268 1.270 . S
C258 O269 1.248 . S
C259 O270 1.267 . S
C259 O271 1.278 . S
O260 Pr240 2.562 . S
O260 C242 1.254 . S
O261 Pr240 2.490 . S
O261 C242 1.225 . S
O262 Pr240 2.695 . S
O262 Pr241 2.436 . S
O262 C249 1.270 . S
O263 Pr240 2.512 . S
O263 C249 1.248 . S
O264 Pr241 2.438 . S
O264 C250 1.267 . S
O265 Pr240 2.437 . S
O265 C250 1.278 . S
O266 Pr241 2.562 . S
O266 C251 1.254 . S
O267 Pr241 2.490 . S
O267 C251 1.225 . S
O268 Pr240 2.436 . S
O268 Pr241 2.695 . S
O268 C258 1.270 . S
O269 Pr241 2.512 . S
O269 C258 1.248 . S
O270 Pr240 2.438 . S
O270 C259 1.267 . S
O271 Pr241 2.437 . S
O271 C259 1.278 . S
H272 C244 0.929 . S
H273 C245 0.929 1_565 S
H274 C247 0.931 . S
H275 C248 0.930 . S
H276 C253 0.929 . S
H277 C254 0.929 . S
H278 C256 0.931 . S
H279 C257 0.930 . S
Pr280 C282 2.880 . S
Pr280 O300 2.562 . S
Pr280 O301 2.490 . S
Pr280 O302 2.695 . S
Pr280 O303 2.512 . S
Pr280 O305 2.437 . S
Pr280 O308 2.436 . S
Pr280 O310 2.438 . S
Pr281 C291 2.880 . S
Pr281 O302 2.436 . S
Pr281 O304 2.438 . S
Pr281 O306 2.562 . S
Pr281 O307 2.490 . S
Pr281 O308 2.695 . S
Pr281 O309 2.512 . S
Pr281 O311 2.437 . S
C282 Pr280 2.880 . S
C282 C283 1.491 . S
C282 O300 1.254 . S
C282 O301 1.225 . S
C283 C282 1.491 . S
C283 C284 1.392 . S
C283 C288 1.356 . S
C284 C283 1.392 . S
C284 C285 1.368 . S
C284 H312 0.929 . S
C285 C284 1.368 . S
C285 C286 1.386 . S
C285 H313 0.929 . S
C286 C285 1.386 . S
C286 C287 1.373 . S
C287 C286 1.373 . S
C287 C288 1.409 . S
C287 H314 0.931 . S
C288 C283 1.356 . S
C288 C287 1.409 . S
C288 H315 0.930 . S
C289 O302 1.270 . S
C289 O303 1.248 . S
C290 O304 1.267 . S
C290 O305 1.278 . S
C291 Pr281 2.880 . S
C291 C292 1.491 . S
C291 O306 1.254 . S
C291 O307 1.225 . S
C292 C291 1.491 . S
C292 C293 1.392 1_455 S
C292 C297 1.356 . S
C293 C292 1.392 1_655 S
C293 C294 1.368 . S
C293 H316 0.929 . S
C294 C293 1.368 . S
C294 C295 1.386 . S
C294 H317 0.929 . S
C295 C294 1.386 . S
C295 C296 1.373 1_655 S
C296 C295 1.373 1_455 S
C296 C297 1.409 . S
C296 H318 0.931 . S
C297 C292 1.356 . S
C297 C296 1.409 . S
C297 H319 0.930 . S
C298 O308 1.270 . S
C298 O309 1.248 . S
C299 O310 1.267 . S
C299 O311 1.278 . S
O300 Pr280 2.562 . S
O300 C282 1.254 . S
O301 Pr280 2.490 . S
O301 C282 1.225 . S
O302 Pr280 2.695 . S
O302 Pr281 2.436 . S
O302 C289 1.270 . S
O303 Pr280 2.512 . S
O303 C289 1.248 . S
O304 Pr281 2.438 . S
O304 C290 1.267 . S
O305 Pr280 2.437 . S
O305 C290 1.278 . S
O306 Pr281 2.562 . S
O306 C291 1.254 . S
O307 Pr281 2.490 . S
O307 C291 1.225 . S
O308 Pr280 2.436 . S
O308 Pr281 2.695 . S
O308 C298 1.270 . S
O309 Pr281 2.512 . S
O309 C298 1.248 . S
O310 Pr280 2.438 . S
O310 C299 1.267 . S
O311 Pr281 2.437 . S
O311 C299 1.278 . S
H312 C284 0.929 . S
H313 C285 0.929 . S
H314 C287 0.931 . S
H315 C288 0.930 . S
H316 C293 0.929 . S
H317 C294 0.929 . S
H318 C296 0.931 . S
H319 C297 0.930 . S
Pr320 C322 2.880 . S
Pr320 O340 2.562 . S
Pr320 O341 2.490 . S
Pr320 O342 2.695 . S
Pr320 O343 2.512 . S
Pr320 O345 2.437 . S
Pr320 O348 2.436 . S
Pr320 O350 2.438 . S
Pr321 C331 2.880 . S
Pr321 O342 2.436 . S
Pr321 O344 2.438 . S
Pr321 O346 2.562 . S
Pr321 O347 2.490 . S
Pr321 O348 2.695 . S
Pr321 O349 2.512 . S
Pr321 O351 2.437 . S
C322 Pr320 2.880 . S
C322 C323 1.491 . S
C322 O340 1.254 . S
C322 O341 1.225 . S
C323 C322 1.491 . S
C323 C324 1.392 . S
C323 C328 1.356 . S
C324 C323 1.392 . S
C324 C325 1.368 . S
C324 H352 0.929 . S
C325 C324 1.368 . S
C325 C326 1.386 . S
C325 H353 0.929 . S
C326 C325 1.386 . S
C326 C327 1.373 . S
C327 C326 1.373 . S
C327 C328 1.409 . S
C327 H354 0.931 . S
C328 C323 1.356 . S
C328 C327 1.409 . S
C328 H355 0.930 . S
C329 O342 1.270 . S
C329 O343 1.248 . S
C330 O344 1.267 . S
C330 O345 1.278 . S
C331 Pr321 2.880 . S
C331 C332 1.491 . S
C331 O346 1.254 . S
C331 O347 1.225 . S
C332 C331 1.491 . S
C332 C333 1.392 . S
C332 C337 1.356 . S
C333 C332 1.392 . S
C333 C334 1.368 . S
C333 H356 0.929 . S
C334 C333 1.368 . S
C334 C335 1.386 . S
C334 H357 0.929 . S
C335 C334 1.386 . S
C335 C336 1.373 . S
C336 C335 1.373 . S
C336 C337 1.409 . S
C336 H358 0.931 . S
C337 C332 1.356 . S
C337 C336 1.409 . S
C337 H359 0.930 . S
C338 O348 1.270 . S
C338 O349 1.248 . S
C339 O350 1.267 . S
C339 O351 1.278 . S
O340 Pr320 2.562 . S
O340 C322 1.254 . S
O341 Pr320 2.490 . S
O341 C322 1.225 . S
O342 Pr320 2.695 . S
O342 Pr321 2.436 . S
O342 C329 1.270 . S
O343 Pr320 2.512 . S
O343 C329 1.248 . S
O344 Pr321 2.438 . S
O344 C330 1.267 . S
O345 Pr320 2.437 . S
O345 C330 1.278 . S
O346 Pr321 2.562 . S
O346 C331 1.254 . S
O347 Pr321 2.490 . S
O347 C331 1.225 . S
O348 Pr320 2.436 . S
O348 Pr321 2.695 . S
O348 C338 1.270 . S
O349 Pr321 2.512 . S
O349 C338 1.248 . S
O350 Pr320 2.438 . S
O350 C339 1.267 . S
O351 Pr321 2.437 . S
O351 C339 1.278 . S
H352 C324 0.929 . S
H353 C325 0.929 . S
H354 C327 0.931 . S
H355 C328 0.930 . S
H356 C333 0.929 . S
H357 C334 0.929 . S
H358 C336 0.931 . S
H359 C337 0.930 . S
Pr360 C362 2.880 . S
Pr360 O380 2.562 . S
Pr360 O381 2.490 . S
Pr360 O382 2.695 . S
Pr360 O383 2.512 . S
Pr360 O385 2.437 . S
Pr360 O388 2.436 . S
Pr360 O390 2.438 . S
Pr361 C371 2.880 . S
Pr361 O382 2.436 . S
Pr361 O384 2.438 . S
Pr361 O386 2.562 . S
Pr361 O387 2.490 . S
Pr361 O388 2.695 . S
Pr361 O389 2.512 . S
Pr361 O391 2.437 . S
C362 Pr360 2.880 . S
C362 C363 1.491 . S
C362 O380 1.254 . S
C362 O381 1.225 . S
C363 C362 1.491 . S
C363 C364 1.392 1_455 S
C363 C368 1.356 1_545 S
C364 C363 1.392 1_655 S
C364 C365 1.368 . S
C364 H392 0.929 . S
C365 C364 1.368 . S
C365 C366 1.386 1_545 S
C365 H393 0.929 . S
C366 C365 1.386 1_565 S
C366 C367 1.373 1_655 S
C367 C366 1.373 1_455 S
C367 C368 1.409 . S
C367 H394 0.931 . S
C368 C363 1.356 1_565 S
C368 C367 1.409 . S
C368 H395 0.930 . S
C369 O382 1.270 . S
C369 O383 1.248 . S
C370 O384 1.267 . S
C370 O385 1.278 . S
C371 Pr361 2.880 . S
C371 C372 1.491 . S
C371 O386 1.254 . S
C371 O387 1.225 . S
C372 C371 1.491 . S
C372 C373 1.392 . S
C372 C377 1.356 . S
C373 C372 1.392 . S
C373 C374 1.368 . S
C373 H396 0.929 . S
C374 C373 1.368 . S
C374 C375 1.386 . S
C374 H397 0.929 . S
C375 C374 1.386 . S
C375 C376 1.373 . S
C376 C375 1.373 . S
C376 C377 1.409 . S
C376 H398 0.931 . S
C377 C372 1.356 . S
C377 C376 1.409 . S
C377 H399 0.930 . S
C378 O388 1.270 . S
C378 O389 1.248 . S
C379 O390 1.267 . S
C379 O391 1.278 . S
O380 Pr360 2.562 . S
O380 C362 1.254 . S
O381 Pr360 2.490 . S
O381 C362 1.225 . S
O382 Pr360 2.695 . S
O382 Pr361 2.436 . S
O382 C369 1.270 . S
O383 Pr360 2.512 . S
O383 C369 1.248 . S
O384 Pr361 2.438 . S
O384 C370 1.267 . S
O385 Pr360 2.437 . S
O385 C370 1.278 . S
O386 Pr361 2.562 . S
O386 C371 1.254 . S
O387 Pr361 2.490 . S
O387 C371 1.225 . S
O388 Pr360 2.436 . S
O388 Pr361 2.695 . S
O388 C378 1.270 . S
O389 Pr361 2.512 . S
O389 C378 1.248 . S
O390 Pr360 2.438 . S
O390 C379 1.267 . S
O391 Pr361 2.437 . S
O391 C379 1.278 . S
H392 C364 0.929 . S
H393 C365 0.929 . S
H394 C367 0.931 . S
H395 C368 0.930 . S
H396 C373 0.929 . S
H397 C374 0.929 . S
H398 C376 0.931 . S
H399 C377 0.930 . S
Pr400 C402 2.880 . S
Pr400 O420 2.562 . S
Pr400 O421 2.490 . S
Pr400 O422 2.695 . S
Pr400 O423 2.512 . S
Pr400 O425 2.437 . S
Pr400 O428 2.436 . S
Pr400 O430 2.438 . S
Pr401 C411 2.880 . S
Pr401 O422 2.436 . S
Pr401 O424 2.438 . S
Pr401 O426 2.562 . S
Pr401 O427 2.490 . S
Pr401 O428 2.695 . S
Pr401 O429 2.512 . S
Pr401 O431 2.437 . S
C402 Pr400 2.880 . S
C402 C403 1.491 . S
C402 O420 1.254 . S
C402 O421 1.225 . S
C403 C402 1.491 . S
C403 C404 1.392 . S
C403 C408 1.356 . S
C404 C403 1.392 . S
C404 C405 1.368 . S
C404 H432 0.929 . S
C405 C404 1.368 . S
C405 C406 1.386 . S
C405 H433 0.929 . S
C406 C405 1.386 . S
C406 C407 1.373 . S
C407 C406 1.373 . S
C407 C408 1.409 . S
C407 H434 0.931 . S
C408 C403 1.356 . S
C408 C407 1.409 . S
C408 H435 0.930 . S
C409 O422 1.270 . S
C409 O423 1.248 . S
C410 O424 1.267 . S
C410 O425 1.278 . S
C411 Pr401 2.880 . S
C411 C412 1.491 . S
C411 O426 1.254 . S
C411 O427 1.225 . S
C412 C411 1.491 . S
C412 C413 1.392 . S
C412 C417 1.356 . S
C413 C412 1.392 . S
C413 C414 1.368 . S
C413 H436 0.929 . S
C414 C413 1.368 . S
C414 C415 1.386 . S
C414 H437 0.929 . S
C415 C414 1.386 . S
C415 C416 1.373 . S
C416 C415 1.373 . S
C416 C417 1.409 . S
C416 H438 0.931 . S
C417 C412 1.356 . S
C417 C416 1.409 . S
C417 H439 0.930 . S
C418 O428 1.270 . S
C418 O429 1.248 . S
C419 O430 1.267 . S
C419 O431 1.278 . S
O420 Pr400 2.562 . S
O420 C402 1.254 . S
O421 Pr400 2.490 . S
O421 C402 1.225 . S
O422 Pr400 2.695 . S
O422 Pr401 2.436 . S
O422 C409 1.270 . S
O423 Pr400 2.512 . S
O423 C409 1.248 . S
O424 Pr401 2.438 . S
O424 C410 1.267 . S
O425 Pr400 2.437 . S
O425 C410 1.278 . S
O426 Pr401 2.562 . S
O426 C411 1.254 . S
O427 Pr401 2.490 . S
O427 C411 1.225 . S
O428 Pr400 2.436 . S
O428 Pr401 2.695 . S
O428 C418 1.270 . S
O429 Pr401 2.512 . S
O429 C418 1.248 . S
O430 Pr400 2.438 . S
O430 C419 1.267 . S
O431 Pr401 2.437 . S
O431 C419 1.278 . S
H432 C404 0.929 . S
H433 C405 0.929 . S
H434 C407 0.931 . S
H435 C408 0.930 . S
H436 C413 0.929 . S
H437 C414 0.929 . S
H438 C416 0.931 . S
H439 C417 0.930 . S
Pr440 C442 2.880 . S
Pr440 O460 2.562 . S
Pr440 O461 2.490 . S
Pr440 O462 2.695 . S
Pr440 O463 2.512 . S
Pr440 O465 2.437 . S
Pr440 O468 2.436 . S
Pr440 O470 2.438 . S
Pr441 C451 2.880 . S
Pr441 O462 2.436 . S
Pr441 O464 2.438 . S
Pr441 O466 2.562 . S
Pr441 O467 2.490 . S
Pr441 O468 2.695 . S
Pr441 O469 2.512 . S
Pr441 O471 2.437 . S
C442 Pr440 2.880 . S
C442 C443 1.491 . S
C442 O460 1.254 . S
C442 O461 1.225 . S
C443 C442 1.491 . S
C443 C444 1.392 . S
C443 C448 1.356 1_565 S
C444 C443 1.392 . S
C444 C445 1.368 . S
C444 H472 0.929 . S
C445 C444 1.368 . S
C445 C446 1.386 1_565 S
C445 H473 0.929 . S
C446 C445 1.386 1_545 S
C446 C447 1.373 . S
C447 C446 1.373 . S
C447 C448 1.409 . S
C447 H474 0.931 . S
C448 C443 1.356 1_545 S
C448 C447 1.409 . S
C448 H475 0.930 . S
C449 O462 1.270 . S
C449 O463 1.248 . S
C450 O464 1.267 . S
C450 O465 1.278 . S
C451 Pr441 2.880 . S
C451 C452 1.491 . S
C451 O466 1.254 . S
C451 O467 1.225 . S
C452 C451 1.491 . S
C452 C453 1.392 . S
C452 C457 1.356 . S
C453 C452 1.392 . S
C453 C454 1.368 . S
C453 H476 0.929 . S
C454 C453 1.368 . S
C454 C455 1.386 . S
C454 H477 0.929 . S
C455 C454 1.386 . S
C455 C456 1.373 . S
C456 C455 1.373 . S
C456 C457 1.409 . S
C456 H478 0.931 . S
C457 C452 1.356 . S
C457 C456 1.409 . S
C457 H479 0.930 . S
C458 O468 1.270 . S
C458 O469 1.248 . S
C459 O470 1.267 . S
C459 O471 1.278 . S
O460 Pr440 2.562 . S
O460 C442 1.254 . S
O461 Pr440 2.490 . S
O461 C442 1.225 . S
O462 Pr440 2.695 . S
O462 Pr441 2.436 . S
O462 C449 1.270 . S
O463 Pr440 2.512 . S
O463 C449 1.248 . S
O464 Pr441 2.438 . S
O464 C450 1.267 . S
O465 Pr440 2.437 . S
O465 C450 1.278 . S
O466 Pr441 2.562 . S
O466 C451 1.254 . S
O467 Pr441 2.490 . S
O467 C451 1.225 . S
O468 Pr440 2.436 . S
O468 Pr441 2.695 . S
O468 C458 1.270 . S
O469 Pr441 2.512 . S
O469 C458 1.248 . S
O470 Pr440 2.438 . S
O470 C459 1.267 . S
O471 Pr441 2.437 . S
O471 C459 1.278 . S
H472 C444 0.929 . S
H473 C445 0.929 . S
H474 C447 0.931 . S
H475 C448 0.930 . S
H476 C453 0.929 . S
H477 C454 0.929 . S
H478 C456 0.931 . S
H479 C457 0.930 . S
Pr480 C482 2.880 . S
Pr480 O500 2.562 . S
Pr480 O501 2.490 . S
Pr480 O502 2.695 . S
Pr480 O503 2.512 . S
Pr480 O505 2.437 . S
Pr480 O508 2.436 . S
Pr480 O510 2.438 . S
Pr481 C491 2.880 . S
Pr481 O502 2.436 . S
Pr481 O504 2.438 . S
Pr481 O506 2.562 . S
Pr481 O507 2.490 . S
Pr481 O508 2.695 . S
Pr481 O509 2.512 . S
Pr481 O511 2.437 . S
C482 Pr480 2.880 . S
C482 C483 1.491 . S
C482 O500 1.254 . S
C482 O501 1.225 . S
C483 C482 1.491 . S
C483 C484 1.392 . S
C483 C488 1.356 . S
C484 C483 1.392 . S
C484 C485 1.368 . S
C484 H512 0.929 . S
C485 C484 1.368 . S
C485 C486 1.386 . S
C485 H513 0.929 . S
C486 C485 1.386 . S
C486 C487 1.373 . S
C487 C486 1.373 . S
C487 C488 1.409 . S
C487 H514 0.931 . S
C488 C483 1.356 . S
C488 C487 1.409 . S
C488 H515 0.930 . S
C489 O502 1.270 . S
C489 O503 1.248 . S
C490 O504 1.267 . S
C490 O505 1.278 . S
C491 Pr481 2.880 . S
C491 C492 1.491 . S
C491 O506 1.254 . S
C491 O507 1.225 . S
C492 C491 1.491 . S
C492 C493 1.392 . S
C492 C497 1.356 . S
C493 C492 1.392 . S
C493 C494 1.368 . S
C493 H516 0.929 . S
C494 C493 1.368 . S
C494 C495 1.386 . S
C494 H517 0.929 . S
C495 C494 1.386 . S
C495 C496 1.373 . S
C496 C495 1.373 . S
C496 C497 1.409 . S
C496 H518 0.931 . S
C497 C492 1.356 . S
C497 C496 1.409 . S
C497 H519 0.930 . S
C498 O508 1.270 . S
C498 O509 1.248 . S
C499 O510 1.267 . S
C499 O511 1.278 . S
O500 Pr480 2.562 . S
O500 C482 1.254 . S
O501 Pr480 2.490 . S
O501 C482 1.225 . S
O502 Pr480 2.695 . S
O502 Pr481 2.436 . S
O502 C489 1.270 . S
O503 Pr480 2.512 . S
O503 C489 1.248 . S
O504 Pr481 2.438 . S
O504 C490 1.267 . S
O505 Pr480 2.437 . S
O505 C490 1.278 . S
O506 Pr481 2.562 . S
O506 C491 1.254 . S
O507 Pr481 2.490 . S
O507 C491 1.225 . S
O508 Pr480 2.436 . S
O508 Pr481 2.695 . S
O508 C498 1.270 . S
O509 Pr481 2.512 . S
O509 C498 1.248 . S
O510 Pr480 2.438 . S
O510 C499 1.267 . S
O511 Pr481 2.437 . S
O511 C499 1.278 . S
H512 C484 0.929 . S
H513 C485 0.929 . S
H514 C487 0.931 . S
H515 C488 0.930 . S
H516 C493 0.929 . S
H517 C494 0.929 . S
H518 C496 0.931 . S
H519 C497 0.930 . S
Pr520 C522 2.880 . S
Pr520 O540 2.562 . S
Pr520 O541 2.490 . S
Pr520 O542 2.695 . S
Pr520 O543 2.512 . S
Pr520 O545 2.437 . S
Pr520 O548 2.436 . S
Pr520 O550 2.438 . S
Pr521 C531 2.880 . S
Pr521 O542 2.436 . S
Pr521 O544 2.438 . S
Pr521 O546 2.562 . S
Pr521 O547 2.490 . S
Pr521 O548 2.695 . S
Pr521 O549 2.512 . S
Pr521 O551 2.437 . S
C522 Pr520 2.880 . S
C522 C523 1.491 . S
C522 O540 1.254 . S
C522 O541 1.225 . S
C523 C522 1.491 . S
C523 C524 1.392 . S
C523 C528 1.356 . S
C524 C523 1.392 . S
C524 C525 1.368 . S
C524 H552 0.929 . S
C525 C524 1.368 . S
C525 C526 1.386 . S
C525 H553 0.929 . S
C526 C525 1.386 . S
C526 C527 1.373 . S
C527 C526 1.373 . S
C527 C528 1.409 . S
C527 H554 0.931 . S
C528 C523 1.356 . S
C528 C527 1.409 . S
C528 H555 0.930 . S
C529 O542 1.270 . S
C529 O543 1.248 . S
C530 O544 1.267 . S
C530 O545 1.278 . S
C531 Pr521 2.880 . S
C531 C532 1.491 . S
C531 O546 1.254 . S
C531 O547 1.225 . S
C532 C531 1.491 . S
C532 C533 1.392 1_655 S
C532 C537 1.356 1_565 S
C533 C532 1.392 1_455 S
C533 C534 1.368 . S
C533 H556 0.929 . S
C534 C533 1.368 . S
C534 C535 1.386 1_565 S
C534 H557 0.929 . S
C535 C534 1.386 1_545 S
C535 C536 1.373 1_455 S
C536 C535 1.373 1_655 S
C536 C537 1.409 . S
C536 H558 0.931 . S
C537 C532 1.356 1_545 S
C537 C536 1.409 . S
C537 H559 0.930 . S
C538 O548 1.270 . S
C538 O549 1.248 . S
C539 O550 1.267 . S
C539 O551 1.278 . S
O540 Pr520 2.562 . S
O540 C522 1.254 . S
O541 Pr520 2.490 . S
O541 C522 1.225 . S
O542 Pr520 2.695 . S
O542 Pr521 2.436 . S
O542 C529 1.270 . S
O543 Pr520 2.512 . S
O543 C529 1.248 . S
O544 Pr521 2.438 . S
O544 C530 1.267 . S
O545 Pr520 2.437 . S
O545 C530 1.278 . S
O546 Pr521 2.562 . S
O546 C531 1.254 . S
O547 Pr521 2.490 . S
O547 C531 1.225 . S
O548 Pr520 2.436 . S
O548 Pr521 2.695 . S
O548 C538 1.270 . S
O549 Pr521 2.512 . S
O549 C538 1.248 . S
O550 Pr520 2.438 . S
O550 C539 1.267 . S
O551 Pr521 2.437 . S
O551 C539 1.278 . S
H552 C524 0.929 . S
H553 C525 0.929 . S
H554 C527 0.931 . S
H555 C528 0.930 . S
H556 C533 0.929 . S
H557 C534 0.929 . S
H558 C536 0.931 . S
H559 C537 0.930 . S
Pr560 C562 2.880 . S
Pr560 O580 2.562 . S
Pr560 O581 2.490 . S
Pr560 O582 2.695 . S
Pr560 O583 2.512 . S
Pr560 O585 2.437 . S
Pr560 O588 2.436 . S
Pr560 O590 2.438 . S
Pr561 C571 2.880 . S
Pr561 O582 2.436 . S
Pr561 O584 2.438 . S
Pr561 O586 2.562 . S
Pr561 O587 2.490 . S
Pr561 O588 2.695 . S
Pr561 O589 2.512 . S
Pr561 O591 2.437 . S
C562 Pr560 2.880 . S
C562 C563 1.491 . S
C562 O580 1.254 . S
C562 O581 1.225 . S
C563 C562 1.491 . S
C563 C564 1.392 . S
C563 C568 1.356 . S
C564 C563 1.392 . S
C564 C565 1.368 . S
C564 H592 0.929 . S
C565 C564 1.368 . S
C565 C566 1.386 . S
C565 H593 0.929 . S
C566 C565 1.386 . S
C566 C567 1.373 . S
C567 C566 1.373 . S
C567 C568 1.409 . S
C567 H594 0.931 . S
C568 C563 1.356 . S
C568 C567 1.409 . S
C568 H595 0.930 . S
C569 O582 1.270 . S
C569 O583 1.248 . S
C570 O584 1.267 . S
C570 O585 1.278 . S
C571 Pr561 2.880 . S
C571 C572 1.491 . S
C571 O586 1.254 . S
C571 O587 1.225 . S
C572 C571 1.491 . S
C572 C573 1.392 . S
C572 C577 1.356 . S
C573 C572 1.392 . S
C573 C574 1.368 . S
C573 H596 0.929 . S
C574 C573 1.368 . S
C574 C575 1.386 . S
C574 H597 0.929 . S
C575 C574 1.386 . S
C575 C576 1.373 . S
C576 C575 1.373 . S
C576 C577 1.409 . S
C576 H598 0.931 . S
C577 C572 1.356 . S
C577 C576 1.409 . S
C577 H599 0.930 . S
C578 O588 1.270 . S
C578 O589 1.248 . S
C579 O590 1.267 . S
C579 O591 1.278 . S
O580 Pr560 2.562 . S
O580 C562 1.254 . S
O581 Pr560 2.490 . S
O581 C562 1.225 . S
O582 Pr560 2.695 . S
O582 Pr561 2.436 . S
O582 C569 1.270 . S
O583 Pr560 2.512 . S
O583 C569 1.248 . S
O584 Pr561 2.438 . S
O584 C570 1.267 . S
O585 Pr560 2.437 . S
O585 C570 1.278 . S
O586 Pr561 2.562 . S
O586 C571 1.254 . S
O587 Pr561 2.490 . S
O587 C571 1.225 . S
O588 Pr560 2.436 . S
O588 Pr561 2.695 . S
O588 C578 1.270 . S
O589 Pr561 2.512 . S
O589 C578 1.248 . S
O590 Pr560 2.438 . S
O590 C579 1.267 . S
O591 Pr561 2.437 . S
O591 C579 1.278 . S
H592 C564 0.929 . S
H593 C565 0.929 . S
H594 C567 0.931 . S
H595 C568 0.930 . S
H596 C573 0.929 . S
H597 C574 0.929 . S
H598 C576 0.931 . S
H599 C577 0.930 . S
Pr600 C602 2.880 . S
Pr600 O620 2.562 . S
Pr600 O621 2.490 . S
Pr600 O622 2.695 . S
Pr600 O623 2.512 . S
Pr600 O625 2.437 . S
Pr600 O628 2.436 . S
Pr600 O630 2.438 . S
Pr601 C611 2.880 . S
Pr601 O622 2.436 . S
Pr601 O624 2.438 . S
Pr601 O626 2.562 . S
Pr601 O627 2.490 . S
Pr601 O628 2.695 . S
Pr601 O629 2.512 . S
Pr601 O631 2.437 . S
C602 Pr600 2.880 . S
C602 C603 1.491 . S
C602 O620 1.254 . S
C602 O621 1.225 . S
C603 C602 1.491 . S
C603 C604 1.392 . S
C603 C608 1.356 . S
C604 C603 1.392 . S
C604 C605 1.368 . S
C604 H632 0.929 . S
C605 C604 1.368 . S
C605 C606 1.386 . S
C605 H633 0.929 . S
C606 C605 1.386 . S
C606 C607 1.373 . S
C607 C606 1.373 . S
C607 C608 1.409 . S
C607 H634 0.931 . S
C608 C603 1.356 . S
C608 C607 1.409 . S
C608 H635 0.930 . S
C609 O622 1.270 . S
C609 O623 1.248 . S
C610 O624 1.267 . S
C610 O625 1.278 . S
C611 Pr601 2.880 . S
C611 C612 1.491 . S
C611 O626 1.254 . S
C611 O627 1.225 . S
C612 C611 1.491 . S
C612 C613 1.392 . S
C612 C617 1.356 1_545 S
C613 C612 1.392 . S
C613 C614 1.368 . S
C613 H636 0.929 . S
C614 C613 1.368 . S
C614 C615 1.386 1_545 S
C614 H637 0.929 . S
C615 C614 1.386 1_565 S
C615 C616 1.373 . S
C616 C615 1.373 . S
C616 C617 1.409 . S
C616 H638 0.931 . S
C617 C612 1.356 1_565 S
C617 C616 1.409 . S
C617 H639 0.930 . S
C618 O628 1.270 . S
C618 O629 1.248 . S
C619 O630 1.267 . S
C619 O631 1.278 . S
O620 Pr600 2.562 . S
O620 C602 1.254 . S
O621 Pr600 2.490 . S
O621 C602 1.225 . S
O622 Pr600 2.695 . S
O622 Pr601 2.436 . S
O622 C609 1.270 . S
O623 Pr600 2.512 . S
O623 C609 1.248 . S
O624 Pr601 2.438 . S
O624 C610 1.267 . S
O625 Pr600 2.437 . S
O625 C610 1.278 . S
O626 Pr601 2.562 . S
O626 C611 1.254 . S
O627 Pr601 2.490 . S
O627 C611 1.225 . S
O628 Pr600 2.436 . S
O628 Pr601 2.695 . S
O628 C618 1.270 . S
O629 Pr601 2.512 . S
O629 C618 1.248 . S
O630 Pr600 2.438 . S
O630 C619 1.267 . S
O631 Pr601 2.437 . S
O631 C619 1.278 . S
H632 C604 0.929 . S
H633 C605 0.929 . S
H634 C607 0.931 . S
H635 C608 0.930 . S
H636 C613 0.929 . S
H637 C614 0.929 . S
H638 C616 0.931 . S
H639 C617 0.930 . S
C640 C641 1.349 . S
C640 C642 1.327 . S
C640 H665 0.950 . S
C641 C640 1.349 . S
C641 C657 1.349 . S
C642 C640 1.327 . S
C642 C661 1.429 . S
C642 H666 0.950 . S
C643 C660 1.574 . S
C643 C662 1.368 . S
C643 H667 0.949 . S
H644 C648 0.949 . S
C645 C646 1.349 . S
C645 C647 1.327 . S
C645 H668 0.950 . S
C646 C645 1.349 . S
C646 C658 1.349 . S
C647 C645 1.327 . S
C647 C663 1.429 . S
C647 H669 0.950 . S
C648 H644 0.949 . S
C648 C656 1.574 . S
C648 C664 1.368 . S
H649 C657 0.950 . S
H650 C655 0.950 . S
H651 C656 0.949 . S
H652 C658 0.950 . S
H653 C659 0.950 . S
H654 C660 0.949 . S
C655 H650 0.950 . S
C655 C657 1.327 . S
C655 C661 1.429 . S
C656 C648 1.574 . S
C656 H651 0.949 . S
C656 C662 1.368 . S
C657 C641 1.349 . S
C657 H649 0.950 . S
C657 C655 1.327 . S
C658 C646 1.349 . S
C658 H652 0.950 . S
C658 C659 1.327 . S
C659 H653 0.950 . S
C659 C658 1.327 . S
C659 C663 1.429 . S
C660 C643 1.574 . S
C660 H654 0.949 . S
C660 C664 1.368 . S
C661 C642 1.429 . S
C661 C655 1.429 . S
C661 C662 1.523 . S
C662 C643 1.368 . S
C662 C656 1.368 . S
C662 C661 1.523 . S
C663 C647 1.429 . S
C663 C659 1.429 . S
C663 C664 1.523 . S
C664 C648 1.368 . S
C664 C660 1.368 . S
C664 C663 1.523 . S
H665 C640 0.950 . S
H666 C642 0.950 . S
H667 C643 0.949 . S
H668 C645 0.950 . S
H669 C647 0.950 . S
C670 C671 1.349 . S
C670 C672 1.327 . S
C670 H695 0.950 . S
C671 C670 1.349 . S
C671 C687 1.349 . S
C672 C670 1.327 . S
C672 C691 1.429 . S
C672 H696 0.950 . S
C673 C690 1.574 . S
C673 C692 1.368 . S
C673 H697 0.949 . S
H674 C678 0.949 . S
C675 C676 1.349 . S
C675 C677 1.327 . S
C675 H698 0.950 . S
C676 C675 1.349 . S
C676 C688 1.349 . S
C677 C675 1.327 . S
C677 C693 1.429 . S
C677 H699 0.950 . S
C678 H674 0.949 . S
C678 C686 1.574 . S
C678 C694 1.368 . S
H679 C687 0.950 . S
H680 C685 0.950 . S
H681 C686 0.949 . S
H682 C688 0.950 . S
H683 C689 0.950 . S
H684 C690 0.949 . S
C685 H680 0.950 . S
C685 C687 1.327 . S
C685 C691 1.429 . S
C686 C678 1.574 . S
C686 H681 0.949 . S
C686 C692 1.368 . S
C687 C671 1.349 . S
C687 H679 0.950 . S
C687 C685 1.327 . S
C688 C676 1.349 . S
C688 H682 0.950 . S
C688 C689 1.327 . S
C689 H683 0.950 . S
C689 C688 1.327 . S
C689 C693 1.429 . S
C690 C673 1.574 . S
C690 H684 0.949 . S
C690 C694 1.368 . S
C691 C672 1.429 . S
C691 C685 1.429 . S
C691 C692 1.523 . S
C692 C673 1.368 . S
C692 C686 1.368 . S
C692 C691 1.523 . S
C693 C677 1.429 . S
C693 C689 1.429 . S
C693 C694 1.523 . S
C694 C678 1.368 . S
C694 C690 1.368 . S
C694 C693 1.523 . S
H695 C670 0.950 . S
H696 C672 0.950 . S
H697 C673 0.949 . S
H698 C675 0.950 . S
H699 C677 0.950 . S
C700 C701 1.349 . S
C700 C702 1.327 . S
C700 H725 0.950 . S
C701 C700 1.349 . S
C701 C717 1.349 . S
C702 C700 1.327 . S
C702 C721 1.429 . S
C702 H726 0.950 . S
C703 C720 1.574 1_455 S
C703 C722 1.368 . S
C703 H727 0.949 . S
H704 C708 0.949 . S
C705 C706 1.349 . S
C705 C707 1.327 . S
C705 H728 0.950 . S
C706 C705 1.349 . S
C706 C718 1.349 . S
C707 C705 1.327 . S
C707 C723 1.429 . S
C707 H729 0.950 . S
C708 H704 0.949 . S
C708 C716 1.574 1_655 S
C708 C724 1.368 . S
H709 C717 0.950 . S
H710 C715 0.950 . S
H711 C716 0.949 . S
H712 C718 0.950 . S
H713 C719 0.950 . S
H714 C720 0.949 . S
C715 H710 0.950 . S
C715 C717 1.327 . S
C715 C721 1.429 . S
C716 C708 1.574 1_455 S
C716 H711 0.949 . S
C716 C722 1.368 . S
C717 C701 1.349 . S
C717 H709 0.950 . S
C717 C715 1.327 . S
C718 C706 1.349 . S
C718 H712 0.950 . S
C718 C719 1.327 . S
C719 H713 0.950 . S
C719 C718 1.327 . S
C719 C723 1.429 . S
C720 C703 1.574 1_655 S
C720 H714 0.949 . S
C720 C724 1.368 . S
C721 C702 1.429 . S
C721 C715 1.429 . S
C721 C722 1.523 . S
C722 C703 1.368 . S
C722 C716 1.368 . S
C722 C721 1.523 . S
C723 C707 1.429 . S
C723 C719 1.429 . S
C723 C724 1.523 . S
C724 C708 1.368 . S
C724 C720 1.368 . S
C724 C723 1.523 . S
H725 C700 0.950 . S
H726 C702 0.950 . S
H727 C703 0.949 . S
H728 C705 0.950 . S
H729 C707 0.950 . S
C730 C731 1.349 . S
C730 C732 1.327 . S
C730 H755 0.950 . S
C731 C730 1.349 . S
C731 C747 1.349 . S
C732 C730 1.327 . S
C732 C751 1.429 . S
C732 H756 0.950 . S
C733 C750 1.574 . S
C733 C752 1.368 . S
C733 H757 0.949 . S
H734 C738 0.949 . S
C735 C736 1.349 . S
C735 C737 1.327 . S
C735 H758 0.950 . S
C736 C735 1.349 . S
C736 C748 1.349 . S
C737 C735 1.327 . S
C737 C753 1.429 . S
C737 H759 0.950 . S
C738 H734 0.949 . S
C738 C746 1.574 . S
C738 C754 1.368 . S
H739 C747 0.950 . S
H740 C745 0.950 . S
H741 C746 0.949 . S
H742 C748 0.950 . S
H743 C749 0.950 . S
H744 C750 0.949 . S
C745 H740 0.950 . S
C745 C747 1.327 . S
C745 C751 1.429 . S
C746 C738 1.574 . S
C746 H741 0.949 . S
C746 C752 1.368 1_655 S
C747 C731 1.349 . S
C747 H739 0.950 . S
C747 C745 1.327 . S
C748 C736 1.349 . S
C748 H742 0.950 . S
C748 C749 1.327 . S
C749 H743 0.950 . S
C749 C748 1.327 . S
C749 C753 1.429 . S
C750 C733 1.574 . S
C750 H744 0.949 . S
C750 C754 1.368 1_455 S
C751 C732 1.429 . S
C751 C745 1.429 . S
C751 C752 1.523 . S
C752 C733 1.368 . S
C752 C746 1.368 1_455 S
C752 C751 1.523 . S
C753 C737 1.429 . S
C753 C749 1.429 . S
C753 C754 1.523 . S
C754 C738 1.368 . S
C754 C750 1.368 1_655 S
C754 C753 1.523 . S
H755 C730 0.950 . S
H756 C732 0.950 . S
H757 C733 0.949 . S
H758 C735 0.950 . S
H759 C737 0.950 . S
C760 C761 1.349 . S
C760 C762 1.327 . S
C760 H785 0.950 . S
C761 C760 1.349 . S
C761 C777 1.349 . S
C762 C760 1.327 . S
C762 C781 1.429 . S
C762 H786 0.950 . S
C763 C780 1.574 . S
C763 C782 1.368 . S
C763 H787 0.949 . S
H764 C768 0.949 . S
C765 C766 1.349 . S
C765 C767 1.327 . S
C765 H788 0.950 . S
C766 C765 1.349 . S
C766 C778 1.349 . S
C767 C765 1.327 . S
C767 C783 1.429 . S
C767 H789 0.950 . S
C768 H764 0.949 . S
C768 C776 1.574 . S
C768 C784 1.368 . S
H769 C777 0.950 . S
H770 C775 0.950 . S
H771 C776 0.949 . S
H772 C778 0.950 . S
H773 C779 0.950 . S
H774 C780 0.949 . S
C775 H770 0.950 . S
C775 C777 1.327 . S
C775 C781 1.429 . S
C776 C768 1.574 . S
C776 H771 0.949 . S
C776 C782 1.368 . S
C777 C761 1.349 . S
C777 H769 0.950 . S
C777 C775 1.327 . S
C778 C766 1.349 . S
C778 H772 0.950 . S
C778 C779 1.327 . S
C779 H773 0.950 . S
C779 C778 1.327 . S
C779 C783 1.429 . S
C780 C763 1.574 . S
C780 H774 0.949 . S
C780 C784 1.368 . S
C781 C762 1.429 . S
C781 C775 1.429 . S
C781 C782 1.523 . S
C782 C763 1.368 . S
C782 C776 1.368 . S
C782 C781 1.523 . S
C783 C767 1.429 . S
C783 C779 1.429 . S
C783 C784 1.523 . S
C784 C768 1.368 . S
C784 C780 1.368 . S
C784 C783 1.523 . S
H785 C760 0.950 . S
H786 C762 0.950 . S
H787 C763 0.949 . S
H788 C765 0.950 . S
H789 C767 0.950 . S
C790 C791 1.349 . S
C790 C792 1.327 . S
C790 H815 0.950 . S
C791 C790 1.349 . S
C791 C807 1.349 . S
C792 C790 1.327 . S
C792 C811 1.429 . S
C792 H816 0.950 . S
C793 C810 1.574 . S
C793 C812 1.368 . S
C793 H817 0.949 . S
H794 C798 0.949 . S
C795 C796 1.349 . S
C795 C797 1.327 . S
C795 H818 0.950 . S
C796 C795 1.349 . S
C796 C808 1.349 . S
C797 C795 1.327 . S
C797 C813 1.429 . S
C797 H819 0.950 . S
C798 H794 0.949 . S
C798 C806 1.574 . S
C798 C814 1.368 . S
H799 C807 0.950 . S
H800 C805 0.950 . S
H801 C806 0.949 . S
H802 C808 0.950 . S
H803 C809 0.950 . S
H804 C810 0.949 . S
C805 H800 0.950 . S
C805 C807 1.327 . S
C805 C811 1.429 . S
C806 C798 1.574 . S
C806 H801 0.949 . S
C806 C812 1.368 . S
C807 C791 1.349 . S
C807 H799 0.950 . S
C807 C805 1.327 . S
C808 C796 1.349 . S
C808 H802 0.950 . S
C808 C809 1.327 . S
C809 H803 0.950 . S
C809 C808 1.327 . S
C809 C813 1.429 . S
C810 C793 1.574 . S
C810 H804 0.949 . S
C810 C814 1.368 . S
C811 C792 1.429 . S
C811 C805 1.429 . S
C811 C812 1.523 . S
C812 C793 1.368 . S
C812 C806 1.368 . S
C812 C811 1.523 . S
C813 C797 1.429 . S
C813 C809 1.429 . S
C813 C814 1.523 . S
C814 C798 1.368 . S
C814 C810 1.368 . S
C814 C813 1.523 . S
H815 C790 0.950 . S
H816 C792 0.950 . S
H817 C793 0.949 . S
H818 C795 0.950 . S
H819 C797 0.950 . S
C820 C821 1.349 . S
C820 C822 1.327 . S
C820 H845 0.950 . S
C821 C820 1.349 . S
C821 C837 1.349 . S
C822 C820 1.327 . S
C822 C841 1.429 . S
C822 H846 0.950 . S
C823 C840 1.574 1_455 S
C823 C842 1.368 . S
C823 H847 0.949 . S
H824 C828 0.949 . S
C825 C826 1.349 . S
C825 C827 1.327 . S
C825 H848 0.950 . S
C826 C825 1.349 . S
C826 C838 1.349 . S
C827 C825 1.327 . S
C827 C843 1.429 . S
C827 H849 0.950 . S
C828 H824 0.949 . S
C828 C836 1.574 1_655 S
C828 C844 1.368 . S
H829 C837 0.950 . S
H830 C835 0.950 . S
H831 C836 0.949 . S
H832 C838 0.950 . S
H833 C839 0.950 . S
H834 C840 0.949 . S
C835 H830 0.950 . S
C835 C837 1.327 . S
C835 C841 1.429 . S
C836 C828 1.574 1_455 S
C836 H831 0.949 . S
C836 C842 1.368 . S
C837 C821 1.349 . S
C837 H829 0.950 . S
C837 C835 1.327 . S
C838 C826 1.349 . S
C838 H832 0.950 . S
C838 C839 1.327 . S
C839 H833 0.950 . S
C839 C838 1.327 . S
C839 C843 1.429 . S
C840 C823 1.574 1_655 S
C840 H834 0.949 . S
C840 C844 1.368 . S
C841 C822 1.429 . S
C841 C835 1.429 . S
C841 C842 1.523 . S
C842 C823 1.368 . S
C842 C836 1.368 . S
C842 C841 1.523 . S
C843 C827 1.429 . S
C843 C839 1.429 . S
C843 C844 1.523 . S
C844 C828 1.368 . S
C844 C840 1.368 . S
C844 C843 1.523 . S
H845 C820 0.950 . S
H846 C822 0.950 . S
H847 C823 0.949 . S
H848 C825 0.950 . S
H849 C827 0.950 . S
C850 C851 1.349 . S
C850 C852 1.327 . S
C850 H875 0.950 . S
C851 C850 1.349 . S
C851 C867 1.349 . S
C852 C850 1.327 . S
C852 C871 1.429 . S
C852 H876 0.950 . S
C853 C870 1.574 . S
C853 C872 1.368 1_655 S
C853 H877 0.949 . S
H854 C858 0.949 . S
C855 C856 1.349 . S
C855 C857 1.327 . S
C855 H878 0.950 . S
C856 C855 1.349 . S
C856 C868 1.349 . S
C857 C855 1.327 . S
C857 C873 1.429 . S
C857 H879 0.950 . S
C858 H854 0.949 . S
C858 C866 1.574 . S
C858 C874 1.368 1_455 S
H859 C867 0.950 . S
H860 C865 0.950 . S
H861 C866 0.949 . S
H862 C868 0.950 . S
H863 C869 0.950 . S
H864 C870 0.949 . S
C865 H860 0.950 . S
C865 C867 1.327 . S
C865 C871 1.429 . S
C866 C858 1.574 . S
C866 H861 0.949 . S
C866 C872 1.368 . S
C867 C851 1.349 . S
C867 H859 0.950 . S
C867 C865 1.327 . S
C868 C856 1.349 . S
C868 H862 0.950 . S
C868 C869 1.327 . S
C869 H863 0.950 . S
C869 C868 1.327 . S
C869 C873 1.429 . S
C870 C853 1.574 . S
C870 H864 0.949 . S
C870 C874 1.368 . S
C871 C852 1.429 . S
C871 C865 1.429 . S
C871 C872 1.523 . S
C872 C853 1.368 1_455 S
C872 C866 1.368 . S
C872 C871 1.523 . S
C873 C857 1.429 . S
C873 C869 1.429 . S
C873 C874 1.523 . S
C874 C858 1.368 1_655 S
C874 C870 1.368 . S
C874 C873 1.523 . S
H875 C850 0.950 . S
H876 C852 0.950 . S
H877 C853 0.949 . S
H878 C855 0.950 . S
H879 C857 0.950 . S
C880 C881 1.349 . S
C880 C882 1.327 . S
C880 H905 0.950 . S
C881 C880 1.349 . S
C881 C897 1.349 . S
C882 C880 1.327 . S
C882 C901 1.429 . S
C882 H906 0.950 . S
C883 C900 1.574 . S
C883 C902 1.368 1_566 S
C883 H907 0.949 . S
H884 C888 0.949 . S
C885 C886 1.349 . S
C885 C887 1.327 . S
C885 H908 0.950 . S
C886 C885 1.349 . S
C886 C898 1.349 . S
C887 C885 1.327 . S
C887 C903 1.429 . S
C887 H909 0.950 . S
C888 H884 0.949 . S
C888 C896 1.574 . S
C888 C904 1.368 1_544 S
H889 C897 0.950 . S
H890 C895 0.953 1_556 S
H891 C896 0.949 . S
H892 C898 0.950 . S
H893 C899 0.953 1_554 S
H894 C900 0.949 . S
C895 H890 0.953 1_554 S
C895 C897 1.327 . S
C895 C901 1.429 . S
C896 C888 1.574 . S
C896 H891 0.949 . S
C896 C902 1.368 . S
C897 C881 1.349 . S
C897 H889 0.950 . S
C897 C895 1.327 . S
C898 C886 1.349 . S
C898 H892 0.950 . S
C898 C899 1.327 . S
C899 H893 0.953 1_556 S
C899 C898 1.327 . S
C899 C903 1.429 . S
C900 C883 1.574 . S
C900 H894 0.949 . S
C900 C904 1.368 . S
C901 C882 1.429 . S
C901 C895 1.429 . S
C901 C902 1.523 . S
C902 C883 1.368 1_544 S
C902 C896 1.368 . S
C902 C901 1.523 . S
C903 C887 1.429 . S
C903 C899 1.429 . S
C903 C904 1.523 . S
C904 C888 1.368 1_566 S
C904 C900 1.368 . S
C904 C903 1.523 . S
H905 C880 0.950 . S
H906 C882 0.950 . S
H907 C883 0.949 . S
H908 C885 0.950 . S
H909 C887 0.950 . S
C910 C911 1.349 . S
C910 C912 1.327 . S
C910 H935 0.950 . S
C911 C910 1.349 . S
C911 C927 1.349 . S
C912 C910 1.327 . S
C912 C931 1.429 . S
C912 H936 0.950 . S
C913 C930 1.574 . S
C913 C932 1.368 . S
C913 H937 0.949 . S
H914 C918 0.949 . S
C915 C916 1.349 . S
C915 C917 1.327 . S
C915 H938 0.950 . S
C916 C915 1.349 . S
C916 C928 1.349 . S
C917 C915 1.327 . S
C917 C933 1.429 . S
C917 H939 0.950 . S
C918 H914 0.949 . S
C918 C926 1.574 . S
C918 C934 1.368 . S
H919 C927 0.950 . S
H920 C925 0.950 . S
H921 C926 0.949 . S
H922 C928 0.950 . S
H923 C929 0.950 . S
H924 C930 0.949 . S
C925 H920 0.950 . S
C925 C927 1.327 . S
C925 C931 1.429 . S
C926 C918 1.574 . S
C926 H921 0.949 . S
C926 C932 1.368 . S
C927 C911 1.349 . S
C927 H919 0.950 . S
C927 C925 1.327 . S
C928 C916 1.349 . S
C928 H922 0.950 . S
C928 C929 1.327 . S
C929 H923 0.950 . S
C929 C928 1.327 . S
C929 C933 1.429 . S
C930 C913 1.574 . S
C930 H924 0.949 . S
C930 C934 1.368 . S
C931 C912 1.429 . S
C931 C925 1.429 . S
C931 C932 1.523 . S
C932 C913 1.368 . S
C932 C926 1.368 . S
C932 C931 1.523 . S
C933 C917 1.429 . S
C933 C929 1.429 . S
C933 C934 1.523 . S
C934 C918 1.368 . S
C934 C930 1.368 . S
C934 C933 1.523 . S
H935 C910 0.950 . S
H936 C912 0.950 . S
H937 C913 0.949 . S
H938 C915 0.950 . S
H939 C917 0.950 . S
C940 C941 1.349 1_545 S
C940 C942 1.327 . S
C940 H965 0.950 . S
C941 C940 1.349 1_565 S
C941 C957 1.349 . S
C942 C940 1.327 . S
C942 C961 1.429 1_545 S
C942 H966 0.950 . S
C943 C960 1.574 1_455 S
C943 C962 1.368 . S
C943 H967 0.949 . S
H944 C948 0.949 . S
C945 C946 1.349 1_565 S
C945 C947 1.327 . S
C945 H968 0.950 . S
C946 C945 1.349 1_545 S
C946 C958 1.349 . S
C947 C945 1.327 . S
C947 C963 1.429 1_565 S
C947 H969 0.950 . S
C948 H944 0.949 . S
C948 C956 1.574 1_655 S
C948 C964 1.368 . S
H949 C957 0.950 . S
H950 C955 0.950 . S
H951 C956 0.949 . S
H952 C958 0.950 . S
H953 C959 0.950 . S
H954 C960 0.949 . S
C955 H950 0.950 . S
C955 C957 1.327 . S
C955 C961 1.429 . S
C956 C948 1.574 1_455 S
C956 H951 0.949 . S
C956 C962 1.368 1_545 S
C957 C941 1.349 . S
C957 H949 0.950 . S
C957 C955 1.327 . S
C958 C946 1.349 . S
C958 H952 0.950 . S
C958 C959 1.327 . S
C959 H953 0.950 . S
C959 C958 1.327 . S
C959 C963 1.429 . S
C960 C943 1.574 1_655 S
C960 H954 0.949 . S
C960 C964 1.368 1_565 S
C961 C942 1.429 1_565 S
C961 C955 1.429 . S
C961 C962 1.523 . S
C962 C943 1.368 . S
C962 C956 1.368 1_565 S
C962 C961 1.523 . S
C963 C947 1.429 1_545 S
C963 C959 1.429 . S
C963 C964 1.523 . S
C964 C948 1.368 . S
C964 C960 1.368 1_545 S
C964 C963 1.523 . S
H965 C940 0.950 . S
H966 C942 0.950 . S
H967 C943 0.949 . S
H968 C945 0.950 . S
H969 C947 0.950 . S
C970 C971 1.349 . S
C970 C972 1.327 . S
C970 H995 0.950 . S
C971 C970 1.349 . S
C971 C987 1.349 . S
C972 C970 1.327 . S
C972 C991 1.429 . S
C972 H996 0.950 . S
C973 C990 1.574 . S
C973 C992 1.368 . S
C973 H997 0.949 . S
H974 C978 0.949 . S
C975 C976 1.349 . S
C975 C977 1.327 . S
C975 H998 0.950 . S
C976 C975 1.349 . S
C976 C988 1.349 . S
C977 C975 1.327 . S
C977 C993 1.429 . S
C977 H999 0.950 . S
C978 H974 0.949 . S
C978 C986 1.574 . S
C978 C994 1.368 . S
H979 C987 0.950 . S
H980 C985 0.950 . S
H981 C986 0.949 . S
H982 C988 0.950 . S
H983 C989 0.950 . S
H984 C990 0.949 . S
C985 H980 0.950 . S
C985 C987 1.327 . S
C985 C991 1.429 . S
C986 C978 1.574 . S
C986 H981 0.949 . S
C986 C992 1.368 . S
C987 C971 1.349 . S
C987 H979 0.950 . S
C987 C985 1.327 . S
C988 C976 1.349 . S
C988 H982 0.950 . S
C988 C989 1.327 . S
C989 H983 0.950 . S
C989 C988 1.327 . S
C989 C993 1.429 . S
C990 C973 1.574 . S
C990 H984 0.949 . S
C990 C994 1.368 . S
C991 C972 1.429 . S
C991 C985 1.429 . S
C991 C992 1.523 . S
C992 C973 1.368 . S
C992 C986 1.368 . S
C992 C991 1.523 . S
C993 C977 1.429 . S
C993 C989 1.429 . S
C993 C994 1.523 . S
C994 C978 1.368 . S
C994 C990 1.368 . S
C994 C993 1.523 . S
H995 C970 0.950 . S
H996 C972 0.950 . S
H997 C973 0.949 . S
H998 C975 0.950 . S
H999 C977 0.950 . S
C1000 C1001 1.349 . S
C1000 C1002 1.327 . S
C1000 H1025 0.950 . S
C1001 C1000 1.349 . S
C1001 C1017 1.349 . S
C1002 C1000 1.327 . S
C1002 C1021 1.429 . S
C1002 H1026 0.950 . S
C1003 C1020 1.574 . S
C1003 C1022 1.368 . S
C1003 H1027 0.949 . S
H1004 C1008 0.949 . S
C1005 C1006 1.349 . S
C1005 C1007 1.327 . S
C1005 H1028 0.950 . S
C1006 C1005 1.349 . S
C1006 C1018 1.349 . S
C1007 C1005 1.327 . S
C1007 C1023 1.429 . S
C1007 H1029 0.950 . S
C1008 H1004 0.949 . S
C1008 C1016 1.574 . S
C1008 C1024 1.368 . S
H1009 C1017 0.950 . S
H1010 C1015 0.950 . S
H1011 C1016 0.949 . S
H1012 C1018 0.950 . S
H1013 C1019 0.950 . S
H1014 C1020 0.949 . S
C1015 H1010 0.950 . S
C1015 C1017 1.327 . S
C1015 C1021 1.429 . S
C1016 C1008 1.574 . S
C1016 H1011 0.949 . S
C1016 C1022 1.368 . S
C1017 C1001 1.349 . S
C1017 H1009 0.950 . S
C1017 C1015 1.327 . S
C1018 C1006 1.349 . S
C1018 H1012 0.950 . S
C1018 C1019 1.327 . S
C1019 H1013 0.950 . S
C1019 C1018 1.327 . S
C1019 C1023 1.429 . S
C1020 C1003 1.574 . S
C1020 H1014 0.949 . S
C1020 C1024 1.368 . S
C1021 C1002 1.429 . S
C1021 C1015 1.429 . S
C1021 C1022 1.523 . S
C1022 C1003 1.368 . S
C1022 C1016 1.368 . S
C1022 C1021 1.523 . S
C1023 C1007 1.429 . S
C1023 C1019 1.429 . S
C1023 C1024 1.523 . S
C1024 C1008 1.368 . S
C1024 C1020 1.368 . S
C1024 C1023 1.523 . S
H1025 C1000 0.950 . S
H1026 C1002 0.950 . S
H1027 C1003 0.949 . S
H1028 C1005 0.950 . S
H1029 C1007 0.950 . S
C1030 C1031 1.349 . S
C1030 C1032 1.327 . S
C1030 H1055 0.950 . S
C1031 C1030 1.349 . S
C1031 C1047 1.349 . S
C1032 C1030 1.327 . S
C1032 C1051 1.429 . S
C1032 H1056 0.950 . S
C1033 C1050 1.574 . S
C1033 C1052 1.368 . S
C1033 H1057 0.949 . S
H1034 C1038 0.949 . S
C1035 C1036 1.349 . S
C1035 C1037 1.327 . S
C1035 H1058 0.950 . S
C1036 C1035 1.349 . S
C1036 C1048 1.349 . S
C1037 C1035 1.327 . S
C1037 C1053 1.429 . S
C1037 H1059 0.950 . S
C1038 H1034 0.949 . S
C1038 C1046 1.574 . S
C1038 C1054 1.368 . S
H1039 C1047 0.950 . S
H1040 C1045 0.950 . S
H1041 C1046 0.949 . S
H1042 C1048 0.950 . S
H1043 C1049 0.950 . S
H1044 C1050 0.949 . S
C1045 H1040 0.950 . S
C1045 C1047 1.327 . S
C1045 C1051 1.429 . S
C1046 C1038 1.574 . S
C1046 H1041 0.949 . S
C1046 C1052 1.368 . S
C1047 C1031 1.349 . S
C1047 H1039 0.950 . S
C1047 C1045 1.327 . S
C1048 C1036 1.349 . S
C1048 H1042 0.950 . S
C1048 C1049 1.327 . S
C1049 H1043 0.950 . S
C1049 C1048 1.327 . S
C1049 C1053 1.429 . S
C1050 C1033 1.574 . S
C1050 H1044 0.949 . S
C1050 C1054 1.368 . S
C1051 C1032 1.429 . S
C1051 C1045 1.429 . S
C1051 C1052 1.523 . S
C1052 C1033 1.368 . S
C1052 C1046 1.368 . S
C1052 C1051 1.523 . S
C1053 C1037 1.429 . S
C1053 C1049 1.429 . S
C1053 C1054 1.523 . S
C1054 C1038 1.368 . S
C1054 C1050 1.368 . S
C1054 C1053 1.523 . S
H1055 C1030 0.950 . S
H1056 C1032 0.950 . S
H1057 C1033 0.949 . S
H1058 C1035 0.950 . S
H1059 C1037 0.950 . S
C1060 C1061 1.349 . S
C1060 C1062 1.327 . S
C1060 H1085 0.950 . S
C1061 C1060 1.349 . S
C1061 C1077 1.349 . S
C1062 C1060 1.327 . S
C1062 C1081 1.429 . S
C1062 H1086 0.950 . S
C1063 C1080 1.574 1_455 S
C1063 C1082 1.368 . S
C1063 H1087 0.949 . S
H1064 C1068 0.949 . S
C1065 C1066 1.349 . S
C1065 C1067 1.327 . S
C1065 H1088 0.950 . S
C1066 C1065 1.349 . S
C1066 C1078 1.349 . S
C1067 C1065 1.327 . S
C1067 C1083 1.429 . S
C1067 H1089 0.950 . S
C1068 H1064 0.949 . S
C1068 C1076 1.574 1_655 S
C1068 C1084 1.368 . S
H1069 C1077 0.950 . S
H1070 C1075 0.950 . S
H1071 C1076 0.949 . S
H1072 C1078 0.950 . S
H1073 C1079 0.950 . S
H1074 C1080 0.949 . S
C1075 H1070 0.950 . S
C1075 C1077 1.327 . S
C1075 C1081 1.429 . S
C1076 C1068 1.574 1_455 S
C1076 H1071 0.949 . S
C1076 C1082 1.368 . S
C1077 C1061 1.349 . S
C1077 H1069 0.950 . S
C1077 C1075 1.327 . S
C1078 C1066 1.349 . S
C1078 H1072 0.950 . S
C1078 C1079 1.327 . S
C1079 H1073 0.950 . S
C1079 C1078 1.327 . S
C1079 C1083 1.429 . S
C1080 C1063 1.574 1_655 S
C1080 H1074 0.949 . S
C1080 C1084 1.368 . S
C1081 C1062 1.429 . S
C1081 C1075 1.429 . S
C1081 C1082 1.523 . S
C1082 C1063 1.368 . S
C1082 C1076 1.368 . S
C1082 C1081 1.523 . S
C1083 C1067 1.429 . S
C1083 C1079 1.429 . S
C1083 C1084 1.523 . S
C1084 C1068 1.368 . S
C1084 C1080 1.368 . S
C1084 C1083 1.523 . S
H1085 C1060 0.950 . S
H1086 C1062 0.950 . S
H1087 C1063 0.949 . S
H1088 C1065 0.950 . S
H1089 C1067 0.950 . S
C1090 C1091 1.349 . S
C1090 C1092 1.327 . S
C1090 H1115 0.950 . S
C1091 C1090 1.349 . S
C1091 C1107 1.349 . S
C1092 C1090 1.327 . S
C1092 C1111 1.429 . S
C1092 H1116 0.950 . S
C1093 C1110 1.574 . S
C1093 C1112 1.368 1_556 S
C1093 H1117 0.949 . S
H1094 C1098 0.949 . S
C1095 C1096 1.349 . S
C1095 C1097 1.327 . S
C1095 H1118 0.950 . S
C1096 C1095 1.349 . S
C1096 C1108 1.349 . S
C1097 C1095 1.327 . S
C1097 C1113 1.429 . S
C1097 H1119 0.950 . S
C1098 H1094 0.949 . S
C1098 C1106 1.574 . S
C1098 C1114 1.368 1_554 S
H1099 C1107 0.950 . S
H1100 C1105 0.950 . S
H1101 C1106 0.949 . S
H1102 C1108 0.950 . S
H1103 C1109 0.950 . S
H1104 C1110 0.949 . S
C1105 H1100 0.950 . S
C1105 C1107 1.327 . S
C1105 C1111 1.429 . S
C1106 C1098 1.574 . S
C1106 H1101 0.949 . S
C1106 C1112 1.368 . S
C1107 C1091 1.349 . S
C1107 H1099 0.950 . S
C1107 C1105 1.327 . S
C1108 C1096 1.349 . S
C1108 H1102 0.950 . S
C1108 C1109 1.327 . S
C1109 H1103 0.950 . S
C1109 C1108 1.327 . S
C1109 C1113 1.429 . S
C1110 C1093 1.574 . S
C1110 H1104 0.949 . S
C1110 C1114 1.368 . S
C1111 C1092 1.429 . S
C1111 C1105 1.429 . S
C1111 C1112 1.523 . S
C1112 C1093 1.368 1_554 S
C1112 C1106 1.368 . S
C1112 C1111 1.523 . S
C1113 C1097 1.429 . S
C1113 C1109 1.429 . S
C1113 C1114 1.523 . S
C1114 C1098 1.368 1_556 S
C1114 C1110 1.368 . S
C1114 C1113 1.523 . S
H1115 C1090 0.950 . S
H1116 C1092 0.950 . S
H1117 C1093 0.949 . S
H1118 C1095 0.950 . S
H1119 C1097 0.950 . S
C1120 C1121 1.349 . S
C1120 C1122 1.327 . S
C1120 H1145 0.950 . S
C1121 C1120 1.349 . S
C1121 C1137 1.349 . S
C1122 C1120 1.327 . S
C1122 C1141 1.429 . S
C1122 H1146 0.950 . S
C1123 C1140 1.574 . S
C1123 C1142 1.368 . S
C1123 H1147 0.949 . S
H1124 C1128 0.949 . S
C1125 C1126 1.349 . S
C1125 C1127 1.327 . S
C1125 H1148 0.950 . S
C1126 C1125 1.349 . S
C1126 C1138 1.349 . S
C1127 C1125 1.327 . S
C1127 C1143 1.429 . S
C1127 H1149 0.950 . S
C1128 H1124 0.949 . S
C1128 C1136 1.574 . S
C1128 C1144 1.368 . S
H1129 C1137 0.950 . S
H1130 C1135 0.950 . S
H1131 C1136 0.949 . S
H1132 C1138 0.950 . S
H1133 C1139 0.950 . S
H1134 C1140 0.949 . S
C1135 H1130 0.950 . S
C1135 C1137 1.327 . S
C1135 C1141 1.429 . S
C1136 C1128 1.574 . S
C1136 H1131 0.949 . S
C1136 C1142 1.368 . S
C1137 C1121 1.349 . S
C1137 H1129 0.950 . S
C1137 C1135 1.327 . S
C1138 C1126 1.349 . S
C1138 H1132 0.950 . S
C1138 C1139 1.327 . S
C1139 H1133 0.950 . S
C1139 C1138 1.327 . S
C1139 C1143 1.429 . S
C1140 C1123 1.574 . S
C1140 H1134 0.949 . S
C1140 C1144 1.368 . S
C1141 C1122 1.429 . S
C1141 C1135 1.429 . S
C1141 C1142 1.523 . S
C1142 C1123 1.368 . S
C1142 C1136 1.368 . S
C1142 C1141 1.523 . S
C1143 C1127 1.429 . S
C1143 C1139 1.429 . S
C1143 C1144 1.523 . S
C1144 C1128 1.368 . S
C1144 C1140 1.368 . S
C1144 C1143 1.523 . S
H1145 C1120 0.950 . S
H1146 C1122 0.950 . S
H1147 C1123 0.949 . S
H1148 C1125 0.950 . S
H1149 C1127 0.950 . S
C1150 C1151 1.349 . S
C1150 C1152 1.327 . S
C1150 H1175 0.950 . S
C1151 C1150 1.349 . S
C1151 C1167 1.349 . S
C1152 C1150 1.327 . S
C1152 C1171 1.429 . S
C1152 H1176 0.950 . S
C1153 C1170 1.574 . S
C1153 C1172 1.368 . S
C1153 H1177 0.949 . S
H1154 C1158 0.949 . S
C1155 C1156 1.349 . S
C1155 C1157 1.327 . S
C1155 H1178 0.950 . S
C1156 C1155 1.349 . S
C1156 C1168 1.349 . S
C1157 C1155 1.327 . S
C1157 C1173 1.429 . S
C1157 H1179 0.950 . S
C1158 H1154 0.949 . S
C1158 C1166 1.574 . S
C1158 C1174 1.368 . S
H1159 C1167 0.950 . S
H1160 C1165 0.950 . S
H1161 C1166 0.949 . S
H1162 C1168 0.950 . S
H1163 C1169 0.950 . S
H1164 C1170 0.949 . S
C1165 H1160 0.950 . S
C1165 C1167 1.327 . S
C1165 C1171 1.429 . S
C1166 C1158 1.574 . S
C1166 H1161 0.949 . S
C1166 C1172 1.368 . S
C1167 C1151 1.349 . S
C1167 H1159 0.950 . S
C1167 C1165 1.327 . S
C1168 C1156 1.349 . S
C1168 H1162 0.950 . S
C1168 C1169 1.327 . S
C1169 H1163 0.950 . S
C1169 C1168 1.327 . S
C1169 C1173 1.429 . S
C1170 C1153 1.574 . S
C1170 H1164 0.949 . S
C1170 C1174 1.368 . S
C1171 C1152 1.429 . S
C1171 C1165 1.429 . S
C1171 C1172 1.523 . S
C1172 C1153 1.368 . S
C1172 C1166 1.368 . S
C1172 C1171 1.523 . S
C1173 C1157 1.429 . S
C1173 C1169 1.429 . S
C1173 C1174 1.523 . S
C1174 C1158 1.368 . S
C1174 C1170 1.368 . S
C1174 C1173 1.523 . S
H1175 C1150 0.950 . S
H1176 C1152 0.950 . S
H1177 C1153 0.949 . S
H1178 C1155 0.950 . S
H1179 C1157 0.950 . S
C1180 C1181 1.349 . S
C1180 C1182 1.327 . S
C1180 H1205 0.950 . S
C1181 C1180 1.349 . S
C1181 C1197 1.349 . S
C1182 C1180 1.327 . S
C1182 C1201 1.429 . S
C1182 H1206 0.950 . S
C1183 C1200 1.574 . S
C1183 C1202 1.368 . S
C1183 H1207 0.949 . S
H1184 C1188 0.949 . S
C1185 C1186 1.349 . S
C1185 C1187 1.327 . S
C1185 H1208 0.950 . S
C1186 C1185 1.349 . S
C1186 C1198 1.349 . S
C1187 C1185 1.327 . S
C1187 C1203 1.429 . S
C1187 H1209 0.950 . S
C1188 H1184 0.949 . S
C1188 C1196 1.574 . S
C1188 C1204 1.368 . S
H1189 C1197 0.950 . S
H1190 C1195 0.950 . S
H1191 C1196 0.949 . S
H1192 C1198 0.950 . S
H1193 C1199 0.950 . S
H1194 C1200 0.949 . S
C1195 H1190 0.950 . S
C1195 C1197 1.327 . S
C1195 C1201 1.429 . S
C1196 C1188 1.574 . S
C1196 H1191 0.949 . S
C1196 C1202 1.368 . S
C1197 C1181 1.349 . S
C1197 H1189 0.950 . S
C1197 C1195 1.327 . S
C1198 C1186 1.349 . S
C1198 H1192 0.950 . S
C1198 C1199 1.327 . S
C1199 H1193 0.950 . S
C1199 C1198 1.327 . S
C1199 C1203 1.429 . S
C1200 C1183 1.574 . S
C1200 H1194 0.949 . S
C1200 C1204 1.368 . S
C1201 C1182 1.429 . S
C1201 C1195 1.429 . S
C1201 C1202 1.523 . S
C1202 C1183 1.368 . S
C1202 C1196 1.368 . S
C1202 C1201 1.523 . S
C1203 C1187 1.429 . S
C1203 C1199 1.429 . S
C1203 C1204 1.523 . S
C1204 C1188 1.368 . S
C1204 C1200 1.368 . S
C1204 C1203 1.523 . S
H1205 C1180 0.950 . S
H1206 C1182 0.950 . S
H1207 C1183 0.949 . S
H1208 C1185 0.950 . S
H1209 C1187 0.950 . S
C1210 C1211 1.349 . S
C1210 C1212 1.327 . S
C1210 H1235 0.950 . S
C1211 C1210 1.349 . S
C1211 C1227 1.349 . S
C1212 C1210 1.327 . S
C1212 C1231 1.429 . S
C1212 H1236 0.950 . S
C1213 C1230 1.574 . S
C1213 C1232 1.368 . S
C1213 H1237 0.949 . S
H1214 C1218 0.949 . S
C1215 C1216 1.349 . S
C1215 C1217 1.327 . S
C1215 H1238 0.950 . S
C1216 C1215 1.349 . S
C1216 C1228 1.349 . S
C1217 C1215 1.327 . S
C1217 C1233 1.429 . S
C1217 H1239 0.950 . S
C1218 H1214 0.949 . S
C1218 C1226 1.574 . S
C1218 C1234 1.368 . S
H1219 C1227 0.950 . S
H1220 C1225 0.950 . S
H1221 C1226 0.949 . S
H1222 C1228 0.950 . S
H1223 C1229 0.950 . S
H1224 C1230 0.949 . S
C1225 H1220 0.950 . S
C1225 C1227 1.327 . S
C1225 C1231 1.429 . S
C1226 C1218 1.574 . S
C1226 H1221 0.949 . S
C1226 C1232 1.368 . S
C1227 C1211 1.349 . S
C1227 H1219 0.950 . S
C1227 C1225 1.327 . S
C1228 C1216 1.349 . S
C1228 H1222 0.950 . S
C1228 C1229 1.327 . S
C1229 H1223 0.950 . S
C1229 C1228 1.327 . S
C1229 C1233 1.429 . S
C1230 C1213 1.574 . S
C1230 H1224 0.949 . S
C1230 C1234 1.368 . S
C1231 C1212 1.429 . S
C1231 C1225 1.429 . S
C1231 C1232 1.523 . S
C1232 C1213 1.368 . S
C1232 C1226 1.368 . S
C1232 C1231 1.523 . S
C1233 C1217 1.429 . S
C1233 C1229 1.429 . S
C1233 C1234 1.523 . S
C1234 C1218 1.368 . S
C1234 C1230 1.368 . S
C1234 C1233 1.523 . S
H1235 C1210 0.950 . S
H1236 C1212 0.950 . S
H1237 C1213 0.949 . S
H1238 C1215 0.950 . S
H1239 C1217 0.950 . S
C1240 C1241 1.349 . S
C1240 C1242 1.327 . S
C1240 H1265 0.950 . S
C1241 C1240 1.349 . S
C1241 C1257 1.349 . S
C1242 C1240 1.327 . S
C1242 C1261 1.429 . S
C1242 H1266 0.950 . S
C1243 C1260 1.574 . S
C1243 C1262 1.368 . S
C1243 H1267 0.949 . S
H1244 C1248 0.949 . S
C1245 C1246 1.349 . S
C1245 C1247 1.327 . S
C1245 H1268 0.950 . S
C1246 C1245 1.349 . S
C1246 C1258 1.349 . S
C1247 C1245 1.327 . S
C1247 C1263 1.429 . S
C1247 H1269 0.950 . S
C1248 H1244 0.949 . S
C1248 C1256 1.574 . S
C1248 C1264 1.368 . S
H1249 C1257 0.950 . S
H1250 C1255 0.950 . S
H1251 C1256 0.949 . S
H1252 C1258 0.950 . S
H1253 C1259 0.950 . S
H1254 C1260 0.949 . S
C1255 H1250 0.950 . S
C1255 C1257 1.327 . S
C1255 C1261 1.429 . S
C1256 C1248 1.574 . S
C1256 H1251 0.949 . S
C1256 C1262 1.368 . S
C1257 C1241 1.349 . S
C1257 H1249 0.950 . S
C1257 C1255 1.327 . S
C1258 C1246 1.349 . S
C1258 H1252 0.950 . S
C1258 C1259 1.327 . S
C1259 H1253 0.950 . S
C1259 C1258 1.327 . S
C1259 C1263 1.429 . S
C1260 C1243 1.574 . S
C1260 H1254 0.949 . S
C1260 C1264 1.368 . S
C1261 C1242 1.429 . S
C1261 C1255 1.429 . S
C1261 C1262 1.523 . S
C1262 C1243 1.368 . S
C1262 C1256 1.368 . S
C1262 C1261 1.523 . S
C1263 C1247 1.429 . S
C1263 C1259 1.429 . S
C1263 C1264 1.523 . S
C1264 C1248 1.368 . S
C1264 C1260 1.368 . S
C1264 C1263 1.523 . S
H1265 C1240 0.950 . S
H1266 C1242 0.950 . S
H1267 C1243 0.949 . S
H1268 C1245 0.950 . S
H1269 C1247 0.950 . S
C1270 C1271 1.349 . S
C1270 C1272 1.327 . S
C1270 H1295 0.950 . S
C1271 C1270 1.349 . S
C1271 C1287 1.349 . S
C1272 C1270 1.327 . S
C1272 C1291 1.429 . S
C1272 H1296 0.950 . S
C1273 C1290 1.574 . S
C1273 C1292 1.368 . S
C1273 H1297 0.949 . S
H1274 C1278 0.949 . S
C1275 C1276 1.349 . S
C1275 C1277 1.327 . S
C1275 H1298 0.950 . S
C1276 C1275 1.349 . S
C1276 C1288 1.349 . S
C1277 C1275 1.327 . S
C1277 C1293 1.429 . S
C1277 H1299 0.950 . S
C1278 H1274 0.949 . S
C1278 C1286 1.574 . S
C1278 C1294 1.368 . S
H1279 C1287 0.950 . S
H1280 C1285 0.950 . S
H1281 C1286 0.949 . S
H1282 C1288 0.950 . S
H1283 C1289 0.950 . S
H1284 C1290 0.949 . S
C1285 H1280 0.950 . S
C1285 C1287 1.327 . S
C1285 C1291 1.429 . S
C1286 C1278 1.574 . S
C1286 H1281 0.949 . S
C1286 C1292 1.368 . S
C1287 C1271 1.349 . S
C1287 H1279 0.950 . S
C1287 C1285 1.327 . S
C1288 C1276 1.349 . S
C1288 H1282 0.950 . S
C1288 C1289 1.327 . S
C1289 H1283 0.950 . S
C1289 C1288 1.327 . S
C1289 C1293 1.429 . S
C1290 C1273 1.574 . S
C1290 H1284 0.949 . S
C1290 C1294 1.368 . S
C1291 C1272 1.429 . S
C1291 C1285 1.429 . S
C1291 C1292 1.523 . S
C1292 C1273 1.368 . S
C1292 C1286 1.368 . S
C1292 C1291 1.523 . S
C1293 C1277 1.429 . S
C1293 C1289 1.429 . S
C1293 C1294 1.523 . S
C1294 C1278 1.368 . S
C1294 C1290 1.368 . S
C1294 C1293 1.523 . S
H1295 C1270 0.950 . S
H1296 C1272 0.950 . S
H1297 C1273 0.949 . S
H1298 C1275 0.950 . S
H1299 C1277 0.950 . S
C1300 C1301 1.349 . S
C1300 C1302 1.327 . S
C1300 H1325 0.950 . S
C1301 C1300 1.349 . S
C1301 C1317 1.349 . S
C1302 C1300 1.327 . S
C1302 C1321 1.429 . S
C1302 H1326 0.950 . S
C1303 C1320 1.574 . S
C1303 C1322 1.368 . S
C1303 H1327 0.949 . S
H1304 C1308 0.949 . S
C1305 C1306 1.349 . S
C1305 C1307 1.327 . S
C1305 H1328 0.950 . S
C1306 C1305 1.349 . S
C1306 C1318 1.349 . S
C1307 C1305 1.327 . S
C1307 C1323 1.429 . S
C1307 H1329 0.950 . S
C1308 H1304 0.949 . S
C1308 C1316 1.574 . S
C1308 C1324 1.368 . S
H1309 C1317 0.950 . S
H1310 C1315 0.950 . S
H1311 C1316 0.949 . S
H1312 C1318 0.950 . S
H1313 C1319 0.950 . S
H1314 C1320 0.949 . S
C1315 H1310 0.950 . S
C1315 C1317 1.327 . S
C1315 C1321 1.429 . S
C1316 C1308 1.574 . S
C1316 H1311 0.949 . S
C1316 C1322 1.368 . S
C1317 C1301 1.349 . S
C1317 H1309 0.950 . S
C1317 C1315 1.327 . S
C1318 C1306 1.349 . S
C1318 H1312 0.950 . S
C1318 C1319 1.327 . S
C1319 H1313 0.950 . S
C1319 C1318 1.327 . S
C1319 C1323 1.429 . S
C1320 C1303 1.574 . S
C1320 H1314 0.949 . S
C1320 C1324 1.368 . S
C1321 C1302 1.429 . S
C1321 C1315 1.429 . S
C1321 C1322 1.523 . S
C1322 C1303 1.368 . S
C1322 C1316 1.368 . S
C1322 C1321 1.523 . S
C1323 C1307 1.429 . S
C1323 C1319 1.429 . S
C1323 C1324 1.523 . S
C1324 C1308 1.368 . S
C1324 C1320 1.368 . S
C1324 C1323 1.523 . S
H1325 C1300 0.950 . S
H1326 C1302 0.950 . S
H1327 C1303 0.949 . S
H1328 C1305 0.950 . S
H1329 C1307 0.950 . S
C1330 C1331 1.349 . S
C1330 C1332 1.327 . S
C1330 H1355 0.950 . S
C1331 C1330 1.349 . S
C1331 C1347 1.349 . S
C1332 C1330 1.327 . S
C1332 C1351 1.429 . S
C1332 H1356 0.950 . S
C1333 C1350 1.574 . S
C1333 C1352 1.368 . S
C1333 H1357 0.949 . S
H1334 C1338 0.949 . S
C1335 C1336 1.349 . S
C1335 C1337 1.327 . S
C1335 H1358 0.950 . S
C1336 C1335 1.349 . S
C1336 C1348 1.349 . S
C1337 C1335 1.327 . S
C1337 C1353 1.429 . S
C1337 H1359 0.950 . S
C1338 H1334 0.949 . S
C1338 C1346 1.574 . S
C1338 C1354 1.368 . S
H1339 C1347 0.950 . S
H1340 C1345 0.950 . S
H1341 C1346 0.949 . S
H1342 C1348 0.950 . S
H1343 C1349 0.950 . S
H1344 C1350 0.949 . S
C1345 H1340 0.950 . S
C1345 C1347 1.327 . S
C1345 C1351 1.429 . S
C1346 C1338 1.574 . S
C1346 H1341 0.949 . S
C1346 C1352 1.368 . S
C1347 C1331 1.349 . S
C1347 H1339 0.950 . S
C1347 C1345 1.327 . S
C1348 C1336 1.349 . S
C1348 H1342 0.950 . S
C1348 C1349 1.327 . S
C1349 H1343 0.950 . S
C1349 C1348 1.327 . S
C1349 C1353 1.429 . S
C1350 C1333 1.574 . S
C1350 H1344 0.949 . S
C1350 C1354 1.368 . S
C1351 C1332 1.429 . S
C1351 C1345 1.429 . S
C1351 C1352 1.523 . S
C1352 C1333 1.368 . S
C1352 C1346 1.368 . S
C1352 C1351 1.523 . S
C1353 C1337 1.429 . S
C1353 C1349 1.429 . S
C1353 C1354 1.523 . S
C1354 C1338 1.368 . S
C1354 C1350 1.368 . S
C1354 C1353 1.523 . S
H1355 C1330 0.950 . S
H1356 C1332 0.950 . S
H1357 C1333 0.949 . S
H1358 C1335 0.950 . S
H1359 C1337 0.950 . S
C1360 C1361 1.349 . S
C1360 C1362 1.327 . S
C1360 H1385 0.950 . S
C1361 C1360 1.349 . S
C1361 C1377 1.349 . S
C1362 C1360 1.327 . S
C1362 C1381 1.429 . S
C1362 H1386 0.950 . S
C1363 C1380 1.574 . S
C1363 C1382 1.368 . S
C1363 H1387 0.949 . S
H1364 C1368 0.949 . S
C1365 C1366 1.354 . S
C1365 C1367 1.327 . S
C1365 H1388 0.950 1_565 S
C1366 C1365 1.354 . S
C1366 C1378 1.360 . S
C1367 C1365 1.327 . S
C1367 C1383 1.429 . S
C1367 H1389 0.950 . S
C1368 H1364 0.949 . S
C1368 C1376 1.574 . S
C1368 C1384 1.368 . S
H1369 C1377 0.950 . S
H1370 C1375 0.950 . S
H1371 C1376 0.949 . S
H1372 C1378 0.950 . S
H1373 C1379 0.950 . S
H1374 C1380 0.949 . S
C1375 H1370 0.950 . S
C1375 C1377 1.327 . S
C1375 C1381 1.429 . S
C1376 C1368 1.574 . S
C1376 H1371 0.949 . S
C1376 C1382 1.368 . S
C1377 C1361 1.349 . S
C1377 H1369 0.950 . S
C1377 C1375 1.327 . S
C1378 C1366 1.360 . S
C1378 H1372 0.950 . S
C1378 C1379 1.327 . S
C1379 H1373 0.950 . S
C1379 C1378 1.327 . S
C1379 C1383 1.429 . S
C1380 C1363 1.574 . S
C1380 H1374 0.949 . S
C1380 C1384 1.368 . S
C1381 C1362 1.429 . S
C1381 C1375 1.429 . S
C1381 C1382 1.523 . S
C1382 C1363 1.368 . S
C1382 C1376 1.368 . S
C1382 C1381 1.523 . S
C1383 C1367 1.429 . S
C1383 C1379 1.429 . S
C1383 C1384 1.523 . S
C1384 C1368 1.368 . S
C1384 C1380 1.368 . S
C1384 C1383 1.523 . S
H1385 C1360 0.950 . S
H1386 C1362 0.950 . S
H1387 C1363 0.949 . S
H1388 C1365 0.950 1_545 S
H1389 C1367 0.950 . S
C1390 C1391 1.349 . S
C1390 C1392 1.327 . S
C1390 H1415 0.950 . S
C1391 C1390 1.349 . S
C1391 C1407 1.349 . S
C1392 C1390 1.327 . S
C1392 C1411 1.429 . S
C1392 H1416 0.950 . S
C1393 C1410 1.574 . S
C1393 C1412 1.368 . S
C1393 H1417 0.949 . S
H1394 C1398 0.949 . S
C1395 C1396 1.349 . S
C1395 C1397 1.327 . S
C1395 H1418 0.950 . S
C1396 C1395 1.349 . S
C1396 C1408 1.349 . S
C1397 C1395 1.327 . S
C1397 C1413 1.429 . S
C1397 H1419 0.950 . S
C1398 H1394 0.949 . S
C1398 C1406 1.574 . S
C1398 C1414 1.368 . S
H1399 C1407 0.950 . S
H1400 C1405 0.950 . S
H1401 C1406 0.949 . S
H1402 C1408 0.950 . S
H1403 C1409 0.950 . S
H1404 C1410 0.949 . S
C1405 H1400 0.950 . S
C1405 C1407 1.327 . S
C1405 C1411 1.429 . S
C1406 C1398 1.574 . S
C1406 H1401 0.949 . S
C1406 C1412 1.368 . S
C1407 C1391 1.349 . S
C1407 H1399 0.950 . S
C1407 C1405 1.327 . S
C1408 C1396 1.349 . S
C1408 H1402 0.950 . S
C1408 C1409 1.327 . S
C1409 H1403 0.950 . S
C1409 C1408 1.327 . S
C1409 C1413 1.429 . S
C1410 C1393 1.574 . S
C1410 H1404 0.949 . S
C1410 C1414 1.368 . S
C1411 C1392 1.429 . S
C1411 C1405 1.429 . S
C1411 C1412 1.523 . S
C1412 C1393 1.368 . S
C1412 C1406 1.368 . S
C1412 C1411 1.523 . S
C1413 C1397 1.429 . S
C1413 C1409 1.429 . S
C1413 C1414 1.523 . S
C1414 C1398 1.368 . S
C1414 C1410 1.368 . S
C1414 C1413 1.523 . S
H1415 C1390 0.950 . S
H1416 C1392 0.950 . S
H1417 C1393 0.949 . S
H1418 C1395 0.950 . S
H1419 C1397 0.950 . S
C1420 C1421 1.354 . S
C1420 C1422 1.327 . S
C1420 H1445 0.950 1_545 S
C1421 C1420 1.354 . S
C1421 C1437 1.360 . S
C1422 C1420 1.327 . S
C1422 C1441 1.429 . S
C1422 H1446 0.950 . S
C1423 C1440 1.574 . S
C1423 C1442 1.368 . S
C1423 H1447 0.949 . S
H1424 C1428 0.949 . S
C1425 C1426 1.349 . S
C1425 C1427 1.327 . S
C1425 H1448 0.950 . S
C1426 C1425 1.349 . S
C1426 C1438 1.349 . S
C1427 C1425 1.327 . S
C1427 C1443 1.429 . S
C1427 H1449 0.950 . S
C1428 H1424 0.949 . S
C1428 C1436 1.574 . S
C1428 C1444 1.368 . S
H1429 C1437 0.950 . S
H1430 C1435 0.950 . S
H1431 C1436 0.949 . S
H1432 C1438 0.950 . S
H1433 C1439 0.950 . S
H1434 C1440 0.949 . S
C1435 H1430 0.950 . S
C1435 C1437 1.327 . S
C1435 C1441 1.429 . S
C1436 C1428 1.574 . S
C1436 H1431 0.949 . S
C1436 C1442 1.368 . S
C1437 C1421 1.360 . S
C1437 H1429 0.950 . S
C1437 C1435 1.327 . S
C1438 C1426 1.349 . S
C1438 H1432 0.950 . S
C1438 C1439 1.327 . S
C1439 H1433 0.950 . S
C1439 C1438 1.327 . S
C1439 C1443 1.429 . S
C1440 C1423 1.574 . S
C1440 H1434 0.949 . S
C1440 C1444 1.368 . S
C1441 C1422 1.429 . S
C1441 C1435 1.429 . S
C1441 C1442 1.523 . S
C1442 C1423 1.368 . S
C1442 C1436 1.368 . S
C1442 C1441 1.523 . S
C1443 C1427 1.429 . S
C1443 C1439 1.429 . S
C1443 C1444 1.523 . S
C1444 C1428 1.368 . S
C1444 C1440 1.368 . S
C1444 C1443 1.523 . S
H1445 C1420 0.950 1_565 S
H1446 C1422 0.950 . S
H1447 C1423 0.949 . S
H1448 C1425 0.950 . S
H1449 C1427 0.950 . S
C1450 C1451 1.349 . S
C1450 C1452 1.327 . S
C1450 H1475 0.950 . S
C1451 C1450 1.349 . S
C1451 C1467 1.349 . S
C1452 C1450 1.327 . S
C1452 C1471 1.429 . S
C1452 H1476 0.950 . S
C1453 C1470 1.574 . S
C1453 C1472 1.368 . S
C1453 H1477 0.949 . S
H1454 C1458 0.949 . S
C1455 C1456 1.349 . S
C1455 C1457 1.327 . S
C1455 H1478 0.950 . S
C1456 C1455 1.349 . S
C1456 C1468 1.349 . S
C1457 C1455 1.327 . S
C1457 C1473 1.429 . S
C1457 H1479 0.950 . S
C1458 H1454 0.949 . S
C1458 C1466 1.574 . S
C1458 C1474 1.368 . S
H1459 C1467 0.950 . S
H1460 C1465 0.950 . S
H1461 C1466 0.949 . S
H1462 C1468 0.950 . S
H1463 C1469 0.950 . S
H1464 C1470 0.949 . S
C1465 H1460 0.950 . S
C1465 C1467 1.327 . S
C1465 C1471 1.429 . S
C1466 C1458 1.574 . S
C1466 H1461 0.949 . S
C1466 C1472 1.368 . S
C1467 C1451 1.349 . S
C1467 H1459 0.950 . S
C1467 C1465 1.327 . S
C1468 C1456 1.349 . S
C1468 H1462 0.950 . S
C1468 C1469 1.327 . S
C1469 H1463 0.950 . S
C1469 C1468 1.327 . S
C1469 C1473 1.429 . S
C1470 C1453 1.574 . S
C1470 H1464 0.949 . S
C1470 C1474 1.368 . S
C1471 C1452 1.429 . S
C1471 C1465 1.429 . S
C1471 C1472 1.523 . S
C1472 C1453 1.368 . S
C1472 C1466 1.368 . S
C1472 C1471 1.523 . S
C1473 C1457 1.429 . S
C1473 C1469 1.429 . S
C1473 C1474 1.523 . S
C1474 C1458 1.368 . S
C1474 C1470 1.368 . S
C1474 C1473 1.523 . S
H1475 C1450 0.950 . S
H1476 C1452 0.950 . S
H1477 C1453 0.949 . S
H1478 C1455 0.950 . S
H1479 C1457 0.950 . S
C1480 C1481 1.349 . S
C1480 C1482 1.327 . S
C1480 H1505 0.950 . S
C1481 C1480 1.349 . S
C1481 C1497 1.349 . S
C1482 C1480 1.327 . S
C1482 C1501 1.429 . S
C1482 H1506 0.950 . S
C1483 C1500 1.574 . S
C1483 C1502 1.368 . S
C1483 H1507 0.949 . S
H1484 C1488 0.949 . S
C1485 C1486 1.360 . S
C1485 C1487 1.327 . S
C1485 H1508 0.950 . S
C1486 C1485 1.360 . S
C1486 C1498 1.354 . S
C1487 C1485 1.327 . S
C1487 C1503 1.429 . S
C1487 H1509 0.950 . S
C1488 H1484 0.949 . S
C1488 C1496 1.574 . S
C1488 C1504 1.368 . S
H1489 C1497 0.950 . S
H1490 C1495 0.950 . S
H1491 C1496 0.949 . S
H1492 C1498 0.950 1_565 S
H1493 C1499 0.950 . S
H1494 C1500 0.949 . S
C1495 H1490 0.950 . S
C1495 C1497 1.327 . S
C1495 C1501 1.429 . S
C1496 C1488 1.574 . S
C1496 H1491 0.949 . S
C1496 C1502 1.368 . S
C1497 C1481 1.349 . S
C1497 H1489 0.950 . S
C1497 C1495 1.327 . S
C1498 C1486 1.354 . S
C1498 H1492 0.950 1_545 S
C1498 C1499 1.327 . S
C1499 H1493 0.950 . S
C1499 C1498 1.327 . S
C1499 C1503 1.429 . S
C1500 C1483 1.574 . S
C1500 H1494 0.949 . S
C1500 C1504 1.368 . S
C1501 C1482 1.429 . S
C1501 C1495 1.429 . S
C1501 C1502 1.523 . S
C1502 C1483 1.368 . S
C1502 C1496 1.368 . S
C1502 C1501 1.523 . S
C1503 C1487 1.429 . S
C1503 C1499 1.429 . S
C1503 C1504 1.523 . S
C1504 C1488 1.368 . S
C1504 C1500 1.368 . S
C1504 C1503 1.523 . S
H1505 C1480 0.950 . S
H1506 C1482 0.950 . S
H1507 C1483 0.949 . S
H1508 C1485 0.950 . S
H1509 C1487 0.950 . S
C1510 C1511 1.349 . S
C1510 C1512 1.327 . S
C1510 H1535 0.950 . S
C1511 C1510 1.349 . S
C1511 C1527 1.349 . S
C1512 C1510 1.327 . S
C1512 C1531 1.429 . S
C1512 H1536 0.950 . S
C1513 C1530 1.574 . S
C1513 C1532 1.368 . S
C1513 H1537 0.949 . S
H1514 C1518 0.949 . S
C1515 C1516 1.349 . S
C1515 C1517 1.327 . S
C1515 H1538 0.950 . S
C1516 C1515 1.349 . S
C1516 C1528 1.349 . S
C1517 C1515 1.327 . S
C1517 C1533 1.429 . S
C1517 H1539 0.950 . S
C1518 H1514 0.949 . S
C1518 C1526 1.574 . S
C1518 C1534 1.368 . S
H1519 C1527 0.973 . S
H1520 C1525 0.950 . S
H1521 C1526 0.949 . S
H1522 C1528 0.950 . S
H1523 C1529 0.950 . S
H1524 C1530 0.949 . S
C1525 H1520 0.950 . S
C1525 C1527 1.327 . S
C1525 C1531 1.429 . S
C1526 C1518 1.574 . S
C1526 H1521 0.949 . S
C1526 C1532 1.368 . S
C1527 C1511 1.349 . S
C1527 H1519 0.973 . S
C1527 C1525 1.327 . S
C1528 C1516 1.349 . S
C1528 H1522 0.950 . S
C1528 C1529 1.327 . S
C1529 H1523 0.950 . S
C1529 C1528 1.327 . S
C1529 C1533 1.429 . S
C1530 C1513 1.574 . S
C1530 H1524 0.949 . S
C1530 C1534 1.368 . S
C1531 C1512 1.429 . S
C1531 C1525 1.429 . S
C1531 C1532 1.523 . S
C1532 C1513 1.368 . S
C1532 C1526 1.368 . S
C1532 C1531 1.523 . S
C1533 C1517 1.429 . S
C1533 C1529 1.429 . S
C1533 C1534 1.523 . S
C1534 C1518 1.368 . S
C1534 C1530 1.368 . S
C1534 C1533 1.523 . S
H1535 C1510 0.950 . S
H1536 C1512 0.950 . S
H1537 C1513 0.949 . S
H1538 C1515 0.950 . S
H1539 C1517 0.950 . S
C1540 C1541 1.354 . S
C1540 C1542 1.327 . S
C1540 H1565 0.950 1_565 S
C1541 C1540 1.354 . S
C1541 C1557 1.360 . S
C1542 C1540 1.327 . S
C1542 C1561 1.429 . S
C1542 H1566 0.950 . S
C1543 C1560 1.574 . S
C1543 C1562 1.368 . S
C1543 H1567 0.949 . S
H1544 C1548 0.949 . S
C1545 C1546 1.349 . S
C1545 C1547 1.327 . S
C1545 H1568 0.950 . S
C1546 C1545 1.349 . S
C1546 C1558 1.349 . S
C1547 C1545 1.327 . S
C1547 C1563 1.429 . S
C1547 H1569 0.950 . S
C1548 H1544 0.949 . S
C1548 C1556 1.574 . S
C1548 C1564 1.368 . S
H1549 C1557 0.950 . S
H1550 C1555 0.950 . S
H1551 C1556 0.949 . S
H1552 C1558 0.950 . S
H1553 C1559 0.950 . S
H1554 C1560 0.949 . S
C1555 H1550 0.950 . S
C1555 C1557 1.327 . S
C1555 C1561 1.429 . S
C1556 C1548 1.574 . S
C1556 H1551 0.949 . S
C1556 C1562 1.368 . S
C1557 C1541 1.360 . S
C1557 H1549 0.950 . S
C1557 C1555 1.327 . S
C1558 C1546 1.349 . S
C1558 H1552 0.950 . S
C1558 C1559 1.327 . S
C1559 H1553 0.950 . S
C1559 C1558 1.327 . S
C1559 C1563 1.429 . S
C1560 C1543 1.574 . S
C1560 H1554 0.949 . S
C1560 C1564 1.368 . S
C1561 C1542 1.429 . S
C1561 C1555 1.429 . S
C1561 C1562 1.523 . S
C1562 C1543 1.368 . S
C1562 C1556 1.368 . S
C1562 C1561 1.523 . S
C1563 C1547 1.429 . S
C1563 C1559 1.429 . S
C1563 C1564 1.523 . S
C1564 C1548 1.368 . S
C1564 C1560 1.368 . S
C1564 C1563 1.523 . S
H1565 C1540 0.950 1_545 S
H1566 C1542 0.950 . S
H1567 C1543 0.949 . S
H1568 C1545 0.950 . S
H1569 C1547 0.950 . S
C1570 C1571 1.349 . S
C1570 C1572 1.327 . S
C1570 H1595 0.950 . S
C1571 C1570 1.349 . S
C1571 C1587 1.349 . S
C1572 C1570 1.327 . S
C1572 C1591 1.429 . S
C1572 H1596 0.950 . S
C1573 C1590 1.574 . S
C1573 C1592 1.368 . S
C1573 H1597 0.949 . S
H1574 C1578 0.949 . S
C1575 C1576 1.349 . S
C1575 C1577 1.327 . S
C1575 H1598 0.950 . S
C1576 C1575 1.349 . S
C1576 C1588 1.349 . S
C1577 C1575 1.327 . S
C1577 C1593 1.429 . S
C1577 H1599 0.950 . S
C1578 H1574 0.949 . S
C1578 C1586 1.574 . S
C1578 C1594 1.368 . S
H1579 C1587 0.950 . S
H1580 C1585 0.950 . S
H1581 C1586 0.949 . S
H1582 C1588 0.950 . S
H1583 C1589 0.950 . S
H1584 C1590 0.949 . S
C1585 H1580 0.950 . S
C1585 C1587 1.327 . S
C1585 C1591 1.429 . S
C1586 C1578 1.574 . S
C1586 H1581 0.949 . S
C1586 C1592 1.368 . S
C1587 C1571 1.349 . S
C1587 H1579 0.950 . S
C1587 C1585 1.327 . S
C1588 C1576 1.349 . S
C1588 H1582 0.950 . S
C1588 C1589 1.327 . S
C1589 H1583 0.950 . S
C1589 C1588 1.327 . S
C1589 C1593 1.429 . S
C1590 C1573 1.574 . S
C1590 H1584 0.949 . S
C1590 C1594 1.368 . S
C1591 C1572 1.429 . S
C1591 C1585 1.429 . S
C1591 C1592 1.523 . S
C1592 C1573 1.368 . S
C1592 C1586 1.368 . S
C1592 C1591 1.523 . S
C1593 C1577 1.429 . S
C1593 C1589 1.429 . S
C1593 C1594 1.523 . S
C1594 C1578 1.368 . S
C1594 C1590 1.368 . S
C1594 C1593 1.523 . S
H1595 C1570 0.950 . S
H1596 C1572 0.950 . S
H1597 C1573 0.949 . S
H1598 C1575 0.950 . S
H1599 C1577 0.950 . S
C1600 C1601 1.349 . S
C1600 C1602 1.327 1_554 S
C1600 H1625 0.950 . S
C1601 C1600 1.349 . S
C1601 C1617 1.349 . S
C1602 C1600 1.327 1_556 S
C1602 C1621 1.429 . S
C1602 H1626 0.950 . S
C1603 C1620 1.574 . S
C1603 C1622 1.368 . S
C1603 H1627 0.949 . S
H1604 C1608 0.949 . S
C1605 C1606 1.349 . S
C1605 C1607 1.327 . S
C1605 H1628 0.950 . S
C1606 C1605 1.349 . S
C1606 C1618 1.349 . S
C1607 C1605 1.327 . S
C1607 C1623 1.429 . S
C1607 H1629 0.950 . S
C1608 H1604 0.949 . S
C1608 C1616 1.574 . S
C1608 C1624 1.368 . S
H1609 C1617 0.950 . S
H1610 C1615 0.950 . S
H1611 C1616 0.949 . S
H1612 C1618 0.950 . S
H1613 C1619 0.950 . S
H1614 C1620 0.949 . S
C1615 H1610 0.950 . S
C1615 C1617 1.327 . S
C1615 C1621 1.429 1_554 S
C1616 C1608 1.574 . S
C1616 H1611 0.949 . S
C1616 C1622 1.368 . S
C1617 C1601 1.349 . S
C1617 H1609 0.950 . S
C1617 C1615 1.327 . S
C1618 C1606 1.349 . S
C1618 H1612 0.950 . S
C1618 C1619 1.327 . S
C1619 H1613 0.950 . S
C1619 C1618 1.327 . S
C1619 C1623 1.429 . S
C1620 C1603 1.574 . S
C1620 H1614 0.949 . S
C1620 C1624 1.368 . S
C1621 C1602 1.429 . S
C1621 C1615 1.429 1_556 S
C1621 C1622 1.523 . S
C1622 C1603 1.368 . S
C1622 C1616 1.368 . S
C1622 C1621 1.523 . S
C1623 C1607 1.429 . S
C1623 C1619 1.429 . S
C1623 C1624 1.523 . S
C1624 C1608 1.368 . S
C1624 C1620 1.368 . S
C1624 C1623 1.523 . S
H1625 C1600 0.950 . S
H1626 C1602 0.950 . S
H1627 C1603 0.949 . S
H1628 C1605 0.950 . S
H1629 C1607 0.950 . S
C1630 C1631 1.349 . S
C1630 C1632 1.327 . S
C1630 H1655 0.950 . S
C1631 C1630 1.349 . S
C1631 C1647 1.349 . S
C1632 C1630 1.327 . S
C1632 C1651 1.429 . S
C1632 H1656 0.950 . S
C1633 C1650 1.574 . S
C1633 C1652 1.368 . S
C1633 H1657 0.949 . S
H1634 C1638 0.949 . S
C1635 C1636 1.349 . S
C1635 C1637 1.327 . S
C1635 H1658 0.950 . S
C1636 C1635 1.349 . S
C1636 C1648 1.349 . S
C1637 C1635 1.327 . S
C1637 C1653 1.429 . S
C1637 H1659 0.950 . S
C1638 H1634 0.949 . S
C1638 C1646 1.574 . S
C1638 C1654 1.368 . S
H1639 C1647 0.950 . S
H1640 C1645 0.950 . S
H1641 C1646 0.949 . S
H1642 C1648 0.950 . S
H1643 C1649 0.950 . S
H1644 C1650 0.949 . S
C1645 H1640 0.950 . S
C1645 C1647 1.327 . S
C1645 C1651 1.429 . S
C1646 C1638 1.574 . S
C1646 H1641 0.949 . S
C1646 C1652 1.368 . S
C1647 C1631 1.349 . S
C1647 H1639 0.950 . S
C1647 C1645 1.327 . S
C1648 C1636 1.349 . S
C1648 H1642 0.950 . S
C1648 C1649 1.327 . S
C1649 H1643 0.950 . S
C1649 C1648 1.327 . S
C1649 C1653 1.429 . S
C1650 C1633 1.574 . S
C1650 H1644 0.949 . S
C1650 C1654 1.368 . S
C1651 C1632 1.429 . S
C1651 C1645 1.429 . S
C1651 C1652 1.523 . S
C1652 C1633 1.368 . S
C1652 C1646 1.368 . S
C1652 C1651 1.523 . S
C1653 C1637 1.429 . S
C1653 C1649 1.429 . S
C1653 C1654 1.523 . S
C1654 C1638 1.368 . S
C1654 C1650 1.368 . S
C1654 C1653 1.523 . S
H1655 C1630 0.950 . S
H1656 C1632 0.950 . S
H1657 C1633 0.949 . S
H1658 C1635 0.950 . S
H1659 C1637 0.950 . S
C1660 C1661 1.349 . S
C1660 C1662 1.327 . S
C1660 H1685 0.950 . S
C1661 C1660 1.349 . S
C1661 C1677 1.349 . S
C1662 C1660 1.327 . S
C1662 C1681 1.429 . S
C1662 H1686 0.950 . S
C1663 C1680 1.574 . S
C1663 C1682 1.368 . S
C1663 H1687 0.949 . S
H1664 C1668 0.949 . S
C1665 C1666 1.349 . S
C1665 C1667 1.327 . S
C1665 H1688 0.950 . S
C1666 C1665 1.349 . S
C1666 C1678 1.349 . S
C1667 C1665 1.327 . S
C1667 C1683 1.429 . S
C1667 H1689 0.950 . S
C1668 H1664 0.949 . S
C1668 C1676 1.574 . S
C1668 C1684 1.368 . S
H1669 C1677 0.950 . S
H1670 C1675 0.950 . S
H1671 C1676 0.949 . S
H1672 C1678 0.950 . S
H1673 C1679 0.950 . S
H1674 C1680 0.949 . S
C1675 H1670 0.950 . S
C1675 C1677 1.327 . S
C1675 C1681 1.429 . S
C1676 C1668 1.574 . S
C1676 H1671 0.949 . S
C1676 C1682 1.368 . S
C1677 C1661 1.349 . S
C1677 H1669 0.950 . S
C1677 C1675 1.327 . S
C1678 C1666 1.349 . S
C1678 H1672 0.950 . S
C1678 C1679 1.327 . S
C1679 H1673 0.950 . S
C1679 C1678 1.327 . S
C1679 C1683 1.429 . S
C1680 C1663 1.574 . S
C1680 H1674 0.949 . S
C1680 C1684 1.368 . S
C1681 C1662 1.429 . S
C1681 C1675 1.429 . S
C1681 C1682 1.523 . S
C1682 C1663 1.368 . S
C1682 C1676 1.368 . S
C1682 C1681 1.523 . S
C1683 C1667 1.429 . S
C1683 C1679 1.429 . S
C1683 C1684 1.523 . S
C1684 C1668 1.368 . S
C1684 C1680 1.368 . S
C1684 C1683 1.523 . S
H1685 C1660 0.950 . S
H1686 C1662 0.950 . S
H1687 C1663 0.949 . S
H1688 C1665 0.950 . S
H1689 C1667 0.950 . S
C1690 C1691 1.349 . S
C1690 C1692 1.327 . S
C1690 H1715 0.950 . S
C1691 C1690 1.349 . S
C1691 C1707 1.349 . S
C1692 C1690 1.327 . S
C1692 C1711 1.429 . S
C1692 H1716 0.950 . S
C1693 C1710 1.574 . S
C1693 C1712 1.368 . S
C1693 H1717 0.949 . S
H1694 C1698 0.949 . S
C1695 C1696 1.349 . S
C1695 C1697 1.327 . S
C1695 H1718 0.950 . S
C1696 C1695 1.349 . S
C1696 C1708 1.349 . S
C1697 C1695 1.327 . S
C1697 C1713 1.429 . S
C1697 H1719 0.950 . S
C1698 H1694 0.949 . S
C1698 C1706 1.574 . S
C1698 C1714 1.368 . S
H1699 C1707 0.950 . S
H1700 C1705 0.950 . S
H1701 C1706 0.949 . S
H1702 C1708 0.950 . S
H1703 C1709 0.950 . S
H1704 C1710 0.949 . S
C1705 H1700 0.950 . S
C1705 C1707 1.327 . S
C1705 C1711 1.429 . S
C1706 C1698 1.574 . S
C1706 H1701 0.949 . S
C1706 C1712 1.368 . S
C1707 C1691 1.349 . S
C1707 H1699 0.950 . S
C1707 C1705 1.327 . S
C1708 C1696 1.349 . S
C1708 H1702 0.950 . S
C1708 C1709 1.327 . S
C1709 H1703 0.950 . S
C1709 C1708 1.327 . S
C1709 C1713 1.429 . S
C1710 C1693 1.574 . S
C1710 H1704 0.949 . S
C1710 C1714 1.368 . S
C1711 C1692 1.429 . S
C1711 C1705 1.429 . S
C1711 C1712 1.523 . S
C1712 C1693 1.368 . S
C1712 C1706 1.368 . S
C1712 C1711 1.523 . S
C1713 C1697 1.429 . S
C1713 C1709 1.429 . S
C1713 C1714 1.523 . S
C1714 C1698 1.368 . S
C1714 C1710 1.368 . S
C1714 C1713 1.523 . S
H1715 C1690 0.950 . S
H1716 C1692 0.950 . S
H1717 C1693 0.949 . S
H1718 C1695 0.950 . S
H1719 C1697 0.950 . S
C1720 C1721 1.349 . S
C1720 C1722 1.327 . S
C1720 H1745 0.950 . S
C1721 C1720 1.349 . S
C1721 C1737 1.349 . S
C1722 C1720 1.327 . S
C1722 C1741 1.429 . S
C1722 H1746 0.950 . S
C1723 C1740 1.574 . S
C1723 C1742 1.368 . S
C1723 H1747 0.949 . S
H1724 C1728 0.949 . S
C1725 C1726 1.349 . S
C1725 C1727 1.327 1_556 S
C1725 H1748 0.950 . S
C1726 C1725 1.349 . S
C1726 C1738 1.349 . S
C1727 C1725 1.327 1_554 S
C1727 C1743 1.429 . S
C1727 H1749 0.950 . S
C1728 H1724 0.949 . S
C1728 C1736 1.574 . S
C1728 C1744 1.368 . S
H1729 C1737 0.950 . S
H1730 C1735 0.950 . S
H1731 C1736 0.949 . S
H1732 C1738 0.950 . S
H1733 C1739 0.950 . S
H1734 C1740 0.949 . S
C1735 H1730 0.950 . S
C1735 C1737 1.327 . S
C1735 C1741 1.429 . S
C1736 C1728 1.574 . S
C1736 H1731 0.949 . S
C1736 C1742 1.368 . S
C1737 C1721 1.349 . S
C1737 H1729 0.950 . S
C1737 C1735 1.327 . S
C1738 C1726 1.349 . S
C1738 H1732 0.950 . S
C1738 C1739 1.327 . S
C1739 H1733 0.950 . S
C1739 C1738 1.327 . S
C1739 C1743 1.429 1_556 S
C1740 C1723 1.574 . S
C1740 H1734 0.949 . S
C1740 C1744 1.368 . S
C1741 C1722 1.429 . S
C1741 C1735 1.429 . S
C1741 C1742 1.523 . S
C1742 C1723 1.368 . S
C1742 C1736 1.368 . S
C1742 C1741 1.523 . S
C1743 C1727 1.429 . S
C1743 C1739 1.429 1_554 S
C1743 C1744 1.523 . S
C1744 C1728 1.368 . S
C1744 C1740 1.368 . S
C1744 C1743 1.523 . S
H1745 C1720 0.950 . S
H1746 C1722 0.950 . S
H1747 C1723 0.949 . S
H1748 C1725 0.950 . S
H1749 C1727 0.950 . S
C1750 C1751 1.349 . S
C1750 C1752 1.327 . S
C1750 H1775 0.950 . S
C1751 C1750 1.349 . S
C1751 C1767 1.349 . S
C1752 C1750 1.327 . S
C1752 C1771 1.429 . S
C1752 H1776 0.950 . S
C1753 C1770 1.574 . S
C1753 C1772 1.368 . S
C1753 H1777 0.949 . S
H1754 C1758 0.949 . S
C1755 C1756 1.349 . S
C1755 C1757 1.327 . S
C1755 H1778 0.950 . S
C1756 C1755 1.349 . S
C1756 C1768 1.349 . S
C1757 C1755 1.327 . S
C1757 C1773 1.429 . S
C1757 H1779 0.950 . S
C1758 H1754 0.949 . S
C1758 C1766 1.574 . S
C1758 C1774 1.368 . S
H1759 C1767 0.950 . S
H1760 C1765 0.950 . S
H1761 C1766 0.949 . S
H1762 C1768 0.950 . S
H1763 C1769 0.950 . S
H1764 C1770 0.949 . S
C1765 H1760 0.950 . S
C1765 C1767 1.327 . S
C1765 C1771 1.429 . S
C1766 C1758 1.574 . S
C1766 H1761 0.949 . S
C1766 C1772 1.368 . S
C1767 C1751 1.349 . S
C1767 H1759 0.950 . S
C1767 C1765 1.327 . S
C1768 C1756 1.349 . S
C1768 H1762 0.950 . S
C1768 C1769 1.327 . S
C1769 H1763 0.950 . S
C1769 C1768 1.327 . S
C1769 C1773 1.429 . S
C1770 C1753 1.574 . S
C1770 H1764 0.949 . S
C1770 C1774 1.368 . S
C1771 C1752 1.429 . S
C1771 C1765 1.429 . S
C1771 C1772 1.523 . S
C1772 C1753 1.368 . S
C1772 C1766 1.368 . S
C1772 C1771 1.523 . S
C1773 C1757 1.429 . S
C1773 C1769 1.429 . S
C1773 C1774 1.523 . S
C1774 C1758 1.368 . S
C1774 C1770 1.368 . S
C1774 C1773 1.523 . S
H1775 C1750 0.950 . S
H1776 C1752 0.950 . S
H1777 C1753 0.949 . S
H1778 C1755 0.950 . S
H1779 C1757 0.950 . S
C1780 C1781 1.349 . S
C1780 C1782 1.327 . S
C1780 H1805 0.950 . S
C1781 C1780 1.349 . S
C1781 C1797 1.349 . S
C1782 C1780 1.327 . S
C1782 C1801 1.429 . S
C1782 H1806 0.950 . S
C1783 C1800 1.574 . S
C1783 C1802 1.368 . S
C1783 H1807 0.949 . S
H1784 C1788 0.949 . S
C1785 C1786 1.349 . S
C1785 C1787 1.327 . S
C1785 H1808 0.950 . S
C1786 C1785 1.349 . S
C1786 C1798 1.349 . S
C1787 C1785 1.327 . S
C1787 C1803 1.429 . S
C1787 H1809 0.950 . S
C1788 H1784 0.949 . S
C1788 C1796 1.574 . S
C1788 C1804 1.368 . S
H1789 C1797 0.950 . S
H1790 C1795 0.950 . S
H1791 C1796 0.949 . S
H1792 C1798 0.950 . S
H1793 C1799 0.950 . S
H1794 C1800 0.949 . S
C1795 H1790 0.950 . S
C1795 C1797 1.327 . S
C1795 C1801 1.429 . S
C1796 C1788 1.574 . S
C1796 H1791 0.949 . S
C1796 C1802 1.368 . S
C1797 C1781 1.349 . S
C1797 H1789 0.950 . S
C1797 C1795 1.327 . S
C1798 C1786 1.349 . S
C1798 H1792 0.950 . S
C1798 C1799 1.327 . S
C1799 H1793 0.950 . S
C1799 C1798 1.327 . S
C1799 C1803 1.429 . S
C1800 C1783 1.574 . S
C1800 H1794 0.949 . S
C1800 C1804 1.368 . S
C1801 C1782 1.429 . S
C1801 C1795 1.429 . S
C1801 C1802 1.523 . S
C1802 C1783 1.368 . S
C1802 C1796 1.368 . S
C1802 C1801 1.523 . S
C1803 C1787 1.429 . S
C1803 C1799 1.429 . S
C1803 C1804 1.523 . S
C1804 C1788 1.368 . S
C1804 C1800 1.368 . S
C1804 C1803 1.523 . S
H1805 C1780 0.950 . S
H1806 C1782 0.950 . S
H1807 C1783 0.949 . S
H1808 C1785 0.950 . S
H1809 C1787 0.950 . S
C1810 C1811 1.349 . S
C1810 C1812 1.327 . S
C1810 H1835 0.950 . S
C1811 C1810 1.349 . S
C1811 C1827 1.349 . S
C1812 C1810 1.327 . S
C1812 C1831 1.429 . S
C1812 H1836 0.950 . S
C1813 C1830 1.574 . S
C1813 C1832 1.368 . S
C1813 H1837 0.949 . S
H1814 C1818 0.949 . S
C1815 C1816 1.349 . S
C1815 C1817 1.327 . S
C1815 H1838 0.950 . S
C1816 C1815 1.349 . S
C1816 C1828 1.349 . S
C1817 C1815 1.327 . S
C1817 C1833 1.429 . S
C1817 H1839 0.950 . S
C1818 H1814 0.949 . S
C1818 C1826 1.574 . S
C1818 C1834 1.368 . S
H1819 C1827 0.950 . S
H1820 C1825 0.950 . S
H1821 C1826 0.949 . S
H1822 C1828 0.950 . S
H1823 C1829 0.950 . S
H1824 C1830 0.949 . S
C1825 H1820 0.950 . S
C1825 C1827 1.327 . S
C1825 C1831 1.429 . S
C1826 C1818 1.574 . S
C1826 H1821 0.949 . S
C1826 C1832 1.368 . S
C1827 C1811 1.349 . S
C1827 H1819 0.950 . S
C1827 C1825 1.327 . S
C1828 C1816 1.349 . S
C1828 H1822 0.950 . S
C1828 C1829 1.327 . S
C1829 H1823 0.950 . S
C1829 C1828 1.327 . S
C1829 C1833 1.429 . S
C1830 C1813 1.574 . S
C1830 H1824 0.949 . S
C1830 C1834 1.368 . S
C1831 C1812 1.429 . S
C1831 C1825 1.429 . S
C1831 C1832 1.523 . S
C1832 C1813 1.368 . S
C1832 C1826 1.368 . S
C1832 C1831 1.523 . S
C1833 C1817 1.429 . S
C1833 C1829 1.429 . S
C1833 C1834 1.523 . S
C1834 C1818 1.368 . S
C1834 C1830 1.368 . S
C1834 C1833 1.523 . S
H1835 C1810 0.950 . S
H1836 C1812 0.950 . S
H1837 C1813 0.949 . S
H1838 C1815 0.950 . S
H1839 C1817 0.950 . S
C1840 C1841 1.349 . S
C1840 C1842 1.327 . S
C1840 H1865 0.950 . S
C1841 C1840 1.349 . S
C1841 C1857 1.349 . S
C1842 C1840 1.327 . S
C1842 C1861 1.429 . S
C1842 H1866 0.950 . S
C1843 C1860 1.574 . S
C1843 C1862 1.368 . S
C1843 H1867 0.949 . S
H1844 C1848 0.949 . S
C1845 C1846 1.349 . S
C1845 C1847 1.327 . S
C1845 H1868 0.950 . S
C1846 C1845 1.349 . S
C1846 C1858 1.349 . S
C1847 C1845 1.327 . S
C1847 C1863 1.429 . S
C1847 H1869 0.950 . S
C1848 H1844 0.949 . S
C1848 C1856 1.574 . S
C1848 C1864 1.368 . S
H1849 C1857 0.950 . S
H1850 C1855 0.950 . S
H1851 C1856 0.949 . S
H1852 C1858 0.950 . S
H1853 C1859 0.950 . S
H1854 C1860 0.949 . S
C1855 H1850 0.950 . S
C1855 C1857 1.327 . S
C1855 C1861 1.429 . S
C1856 C1848 1.574 . S
C1856 H1851 0.949 . S
C1856 C1862 1.368 . S
C1857 C1841 1.349 . S
C1857 H1849 0.950 . S
C1857 C1855 1.327 . S
C1858 C1846 1.349 . S
C1858 H1852 0.950 . S
C1858 C1859 1.327 . S
C1859 H1853 0.950 . S
C1859 C1858 1.327 . S
C1859 C1863 1.429 . S
C1860 C1843 1.574 . S
C1860 H1854 0.949 . S
C1860 C1864 1.368 . S
C1861 C1842 1.429 . S
C1861 C1855 1.429 . S
C1861 C1862 1.523 . S
C1862 C1843 1.368 . S
C1862 C1856 1.368 . S
C1862 C1861 1.523 . S
C1863 C1847 1.429 . S
C1863 C1859 1.429 . S
C1863 C1864 1.523 . S
C1864 C1848 1.368 . S
C1864 C1860 1.368 . S
C1864 C1863 1.523 . S
H1865 C1840 0.950 . S
H1866 C1842 0.950 . S
H1867 C1843 0.949 . S
H1868 C1845 0.950 . S
H1869 C1847 0.950 . S
C1870 C1871 1.349 . S
C1870 C1872 1.327 . S
C1870 H1895 0.950 . S
C1871 C1870 1.349 . S
C1871 C1887 1.349 . S
C1872 C1870 1.327 . S
C1872 C1891 1.429 . S
C1872 H1896 0.950 . S
C1873 C1890 1.574 . S
C1873 C1892 1.368 . S
C1873 H1897 0.949 . S
H1874 C1878 0.953 . S
C1875 C1876 1.349 1_565 S
C1875 C1877 1.327 . S
C1875 H1898 0.950 . S
C1876 C1875 1.349 1_545 S
C1876 C1888 1.349 . S
C1877 C1875 1.327 . S
C1877 C1893 1.429 . S
C1877 H1899 0.950 . S
C1878 H1874 0.953 . S
C1878 C1886 1.574 . S
C1878 C1894 1.368 . S
H1879 C1887 0.950 . S
H1880 C1885 0.950 . S
H1881 C1886 0.949 . S
H1882 C1888 0.950 . S
H1883 C1889 0.950 . S
H1884 C1890 0.949 . S
C1885 H1880 0.950 . S
C1885 C1887 1.327 . S
C1885 C1891 1.429 . S
C1886 C1878 1.574 . S
C1886 H1881 0.949 . S
C1886 C1892 1.368 . S
C1887 C1871 1.349 . S
C1887 H1879 0.950 . S
C1887 C1885 1.327 . S
C1888 C1876 1.349 . S
C1888 H1882 0.950 . S
C1888 C1889 1.327 . S
C1889 H1883 0.950 . S
C1889 C1888 1.327 . S
C1889 C1893 1.429 1_545 S
C1890 C1873 1.574 . S
C1890 H1884 0.949 . S
C1890 C1894 1.368 . S
C1891 C1872 1.429 . S
C1891 C1885 1.429 . S
C1891 C1892 1.523 . S
C1892 C1873 1.368 . S
C1892 C1886 1.368 . S
C1892 C1891 1.523 . S
C1893 C1877 1.429 . S
C1893 C1889 1.429 1_565 S
C1893 C1894 1.523 . S
C1894 C1878 1.368 . S
C1894 C1890 1.368 . S
C1894 C1893 1.523 . S
H1895 C1870 0.950 . S
H1896 C1872 0.950 . S
H1897 C1873 0.949 . S
H1898 C1875 0.950 . S
H1899 C1877 0.950 . S
C1900 C1901 1.349 . S
C1900 C1902 1.327 . S
C1900 H1925 0.950 . S
C1901 C1900 1.349 . S
C1901 C1917 1.349 . S
C1902 C1900 1.327 . S
C1902 C1921 1.429 . S
C1902 H1926 0.950 . S
C1903 C1920 1.574 . S
C1903 C1922 1.368 . S
C1903 H1927 0.949 . S
H1904 C1908 0.949 . S
C1905 C1906 1.349 . S
C1905 C1907 1.327 1_554 S
C1905 H1928 0.950 . S
C1906 C1905 1.349 . S
C1906 C1918 1.349 . S
C1907 C1905 1.327 1_556 S
C1907 C1923 1.429 . S
C1907 H1929 0.950 . S
C1908 H1904 0.949 . S
C1908 C1916 1.574 . S
C1908 C1924 1.368 . S
H1909 C1917 0.950 . S
H1910 C1915 0.950 . S
H1911 C1916 0.949 . S
H1912 C1918 0.950 . S
H1913 C1919 0.950 . S
H1914 C1920 0.949 . S
C1915 H1910 0.950 . S
C1915 C1917 1.327 . S
C1915 C1921 1.429 . S
C1916 C1908 1.574 . S
C1916 H1911 0.949 . S
C1916 C1922 1.368 . S
C1917 C1901 1.349 . S
C1917 H1909 0.950 . S
C1917 C1915 1.327 . S
C1918 C1906 1.349 . S
C1918 H1912 0.950 . S
C1918 C1919 1.327 . S
C1919 H1913 0.950 . S
C1919 C1918 1.327 . S
C1919 C1923 1.429 1_554 S
C1920 C1903 1.574 . S
C1920 H1914 0.949 . S
C1920 C1924 1.368 . S
C1921 C1902 1.429 . S
C1921 C1915 1.429 . S
C1921 C1922 1.523 . S
C1922 C1903 1.368 . S
C1922 C1916 1.368 . S
C1922 C1921 1.523 . S
C1923 C1907 1.429 . S
C1923 C1919 1.429 1_556 S
C1923 C1924 1.523 . S
C1924 C1908 1.368 . S
C1924 C1920 1.368 . S
C1924 C1923 1.523 . S
H1925 C1900 0.950 . S
H1926 C1902 0.950 . S
H1927 C1903 0.949 . S
H1928 C1905 0.950 . S
H1929 C1907 0.950 . S
C1930 C1931 1.349 . S
C1930 C1932 1.327 . S
C1930 H1955 0.950 . S
C1931 C1930 1.349 . S
C1931 C1947 1.349 1_565 S
C1932 C1930 1.327 . S
C1932 C1951 1.429 1_565 S
C1932 H1956 0.950 . S
C1933 C1950 1.574 . S
C1933 C1952 1.368 . S
C1933 H1957 0.949 . S
H1934 C1938 0.949 . S
C1935 C1936 1.349 . S
C1935 C1937 1.327 . S
C1935 H1958 0.950 . S
C1936 C1935 1.349 . S
C1936 C1948 1.349 . S
C1937 C1935 1.327 . S
C1937 C1953 1.429 . S
C1937 H1959 0.950 . S
C1938 H1934 0.949 . S
C1938 C1946 1.574 . S
C1938 C1954 1.368 . S
H1939 C1947 0.950 . S
H1940 C1945 0.950 . S
H1941 C1946 0.949 . S
H1942 C1948 0.950 . S
H1943 C1949 0.950 . S
H1944 C1950 0.949 . S
C1945 H1940 0.950 . S
C1945 C1947 1.327 . S
C1945 C1951 1.429 . S
C1946 C1938 1.574 . S
C1946 H1941 0.949 . S
C1946 C1952 1.368 . S
C1947 C1931 1.349 1_545 S
C1947 H1939 0.950 . S
C1947 C1945 1.327 . S
C1948 C1936 1.349 . S
C1948 H1942 0.950 . S
C1948 C1949 1.327 . S
C1949 H1943 0.950 . S
C1949 C1948 1.327 . S
C1949 C1953 1.429 . S
C1950 C1933 1.574 . S
C1950 H1944 0.949 . S
C1950 C1954 1.368 . S
C1951 C1932 1.429 1_545 S
C1951 C1945 1.429 . S
C1951 C1952 1.523 . S
C1952 C1933 1.368 . S
C1952 C1946 1.368 . S
C1952 C1951 1.523 . S
C1953 C1937 1.429 . S
C1953 C1949 1.429 . S
C1953 C1954 1.523 . S
C1954 C1938 1.368 . S
C1954 C1950 1.368 . S
C1954 C1953 1.523 . S
H1955 C1930 0.950 . S
H1956 C1932 0.950 . S
H1957 C1933 0.949 . S
H1958 C1935 0.950 . S
H1959 C1937 0.950 . S
C1960 C1961 1.349 . S
C1960 C1962 1.327 . S
C1960 H1985 0.950 . S
C1961 C1960 1.349 . S
C1961 C1977 1.349 . S
C1962 C1960 1.327 . S
C1962 C1981 1.429 . S
C1962 H1986 0.950 . S
C1963 C1980 1.574 . S
C1963 C1982 1.368 . S
C1963 H1987 0.949 . S
H1964 C1968 0.949 . S
C1965 C1966 1.349 . S
C1965 C1967 1.327 . S
C1965 H1988 0.950 . S
C1966 C1965 1.349 . S
C1966 C1978 1.349 . S
C1967 C1965 1.327 . S
C1967 C1983 1.429 . S
C1967 H1989 0.950 . S
C1968 H1964 0.949 . S
C1968 C1976 1.574 . S
C1968 C1984 1.368 . S
H1969 C1977 0.950 . S
H1970 C1975 0.950 . S
H1971 C1976 0.949 . S
H1972 C1978 0.950 . S
H1973 C1979 0.950 . S
H1974 C1980 0.949 . S
C1975 H1970 0.950 . S
C1975 C1977 1.327 . S
C1975 C1981 1.429 . S
C1976 C1968 1.574 . S
C1976 H1971 0.949 . S
C1976 C1982 1.368 . S
C1977 C1961 1.349 . S
C1977 H1969 0.950 . S
C1977 C1975 1.327 . S
C1978 C1966 1.349 . S
C1978 H1972 0.950 . S
C1978 C1979 1.327 . S
C1979 H1973 0.950 . S
C1979 C1978 1.327 . S
C1979 C1983 1.429 . S
C1980 C1963 1.574 . S
C1980 H1974 0.949 . S
C1980 C1984 1.368 . S
C1981 C1962 1.429 . S
C1981 C1975 1.429 . S
C1981 C1982 1.523 . S
C1982 C1963 1.368 . S
C1982 C1976 1.368 . S
C1982 C1981 1.523 . S
C1983 C1967 1.429 . S
C1983 C1979 1.429 . S
C1983 C1984 1.523 . S
C1984 C1968 1.368 . S
C1984 C1980 1.368 . S
C1984 C1983 1.523 . S
H1985 C1960 0.950 . S
H1986 C1962 0.950 . S
H1987 C1963 0.949 . S
H1988 C1965 0.950 . S
H1989 C1967 0.950 . S
C1990 C1991 1.349 . S
C1990 C1992 1.327 . S
C1990 H2015 0.950 . S
C1991 C1990 1.349 . S
C1991 C2007 1.349 . S
C1992 C1990 1.327 . S
C1992 C2011 1.429 . S
C1992 H2016 0.950 . S
C1993 C2010 1.574 . S
C1993 C2012 1.368 . S
C1993 H2017 0.949 . S
H1994 C1998 0.949 . S
C1995 C1996 1.349 . S
C1995 C1997 1.327 . S
C1995 H2018 0.950 . S
C1996 C1995 1.349 . S
C1996 C2008 1.349 1_565 S
C1997 C1995 1.327 . S
C1997 C2013 1.429 1_565 S
C1997 H2019 0.950 . S
C1998 H1994 0.949 . S
C1998 C2006 1.574 . S
C1998 C2014 1.368 . S
H1999 C2007 0.950 . S
H2000 C2005 0.950 . S
H2001 C2006 0.949 . S
H2002 C2008 0.950 . S
H2003 C2009 0.950 . S
H2004 C2010 0.946 . S
C2005 H2000 0.950 . S
C2005 C2007 1.327 . S
C2005 C2011 1.429 . S
C2006 C1998 1.574 . S
C2006 H2001 0.949 . S
C2006 C2012 1.368 . S
C2007 C1991 1.349 . S
C2007 H1999 0.950 . S
C2007 C2005 1.327 . S
C2008 C1996 1.349 1_545 S
C2008 H2002 0.950 . S
C2008 C2009 1.327 . S
C2009 H2003 0.950 . S
C2009 C2008 1.327 . S
C2009 C2013 1.429 . S
C2010 C1993 1.574 . S
C2010 H2004 0.946 . S
C2010 C2014 1.368 . S
C2011 C1992 1.429 . S
C2011 C2005 1.429 . S
C2011 C2012 1.523 . S
C2012 C1993 1.368 . S
C2012 C2006 1.368 . S
C2012 C2011 1.523 . S
C2013 C1997 1.429 1_545 S
C2013 C2009 1.429 . S
C2013 C2014 1.523 . S
C2014 C1998 1.368 . S
C2014 C2010 1.368 . S
C2014 C2013 1.523 . S
H2015 C1990 0.950 . S
H2016 C1992 0.950 . S
H2017 C1993 0.949 . S
H2018 C1995 0.950 . S
H2019 C1997 0.950 . S
C2020 C2021 1.349 . S
C2020 C2022 1.327 . S
C2020 H2045 0.950 . S
C2021 C2020 1.349 . S
C2021 C2037 1.349 . S
C2022 C2020 1.327 . S
C2022 C2041 1.429 . S
C2022 H2046 0.950 . S
C2023 C2040 1.574 . S
C2023 C2042 1.368 . S
C2023 H2047 0.949 . S
H2024 C2028 0.949 . S
C2025 C2026 1.349 . S
C2025 C2027 1.327 . S
C2025 H2048 0.950 . S
C2026 C2025 1.349 . S
C2026 C2038 1.349 . S
C2027 C2025 1.327 . S
C2027 C2043 1.429 1_556 S
C2027 H2049 0.950 . S
C2028 H2024 0.949 . S
C2028 C2036 1.574 . S
C2028 C2044 1.368 . S
H2029 C2037 0.950 . S
H2030 C2035 0.950 . S
H2031 C2036 0.949 . S
H2032 C2038 0.950 . S
H2033 C2039 0.950 . S
H2034 C2040 0.949 . S
C2035 H2030 0.950 . S
C2035 C2037 1.327 . S
C2035 C2041 1.429 . S
C2036 C2028 1.574 . S
C2036 H2031 0.949 . S
C2036 C2042 1.368 . S
C2037 C2021 1.349 . S
C2037 H2029 0.950 . S
C2037 C2035 1.327 . S
C2038 C2026 1.349 . S
C2038 H2032 0.950 . S
C2038 C2039 1.327 1_556 S
C2039 H2033 0.950 . S
C2039 C2038 1.327 1_554 S
C2039 C2043 1.429 . S
C2040 C2023 1.574 . S
C2040 H2034 0.949 . S
C2040 C2044 1.368 . S
C2041 C2022 1.429 . S
C2041 C2035 1.429 . S
C2041 C2042 1.523 . S
C2042 C2023 1.368 . S
C2042 C2036 1.368 . S
C2042 C2041 1.523 . S
C2043 C2027 1.429 1_554 S
C2043 C2039 1.429 . S
C2043 C2044 1.523 . S
C2044 C2028 1.368 . S
C2044 C2040 1.368 . S
C2044 C2043 1.523 . S
H2045 C2020 0.950 . S
H2046 C2022 0.950 . S
H2047 C2023 0.949 . S
H2048 C2025 0.950 . S
H2049 C2027 0.950 . S
C2050 C2051 1.349 . S
C2050 C2052 1.327 . S
C2050 H2075 0.950 . S
C2051 C2050 1.349 . S
C2051 C2067 1.349 . S
C2052 C2050 1.327 . S
C2052 C2071 1.429 . S
C2052 H2076 0.950 . S
C2053 C2070 1.574 . S
C2053 C2072 1.368 . S
C2053 H2077 0.949 . S
H2054 C2058 0.949 . S
C2055 C2056 1.349 . S
C2055 C2057 1.327 1_545 S
C2055 H2078 0.950 . S
C2056 C2055 1.349 . S
C2056 C2068 1.349 . S
C2057 C2055 1.327 1_565 S
C2057 C2073 1.429 . S
C2057 H2079 0.950 . S
C2058 H2054 0.949 . S
C2058 C2066 1.574 . S
C2058 C2074 1.368 . S
H2059 C2067 0.950 . S
H2060 C2065 0.950 . S
H2061 C2066 0.949 . S
H2062 C2068 0.950 . S
H2063 C2069 0.950 . S
H2064 C2070 0.949 . S
C2065 H2060 0.950 . S
C2065 C2067 1.327 . S
C2065 C2071 1.429 . S
C2066 C2058 1.574 . S
C2066 H2061 0.949 . S
C2066 C2072 1.368 . S
C2067 C2051 1.349 . S
C2067 H2059 0.950 . S
C2067 C2065 1.327 . S
C2068 C2056 1.349 . S
C2068 H2062 0.950 . S
C2068 C2069 1.327 1_545 S
C2069 H2063 0.950 . S
C2069 C2068 1.327 1_565 S
C2069 C2073 1.429 . S
C2070 C2053 1.574 . S
C2070 H2064 0.949 . S
C2070 C2074 1.368 . S
C2071 C2052 1.429 . S
C2071 C2065 1.429 . S
C2071 C2072 1.523 . S
C2072 C2053 1.368 . S
C2072 C2066 1.368 . S
C2072 C2071 1.523 . S
C2073 C2057 1.429 . S
C2073 C2069 1.429 . S
C2073 C2074 1.523 . S
C2074 C2058 1.368 . S
C2074 C2070 1.368 . S
C2074 C2073 1.523 . S
H2075 C2050 0.950 . S
H2076 C2052 0.950 . S
H2077 C2053 0.949 . S
H2078 C2055 0.950 . S
H2079 C2057 0.950 . S
C641 C9 2.264 . S
C646 C409 2.264 . S
C671 C49 2.264 . S
C676 C449 2.264 . S
C701 C89 2.264 . S
C706 C329 2.264 . S
C731 C369 2.264 . S
C736 C129 2.264 . S
C761 C178 2.264 . S
C766 C578 2.264 . S
C791 C618 2.264 . S
C796 C218 2.264 . S
C821 C498 2.264 . S
C826 C258 2.264 . S
C851 C298 2.264 . S
C856 C538 2.264 . S
C881 C15 0.739 . S
C886 C166 0.739 . S
C911 C55 0.740 . S
C916 C526 0.740 . S
C941 C95 0.739 . S
C946 C246 0.739 . S
C971 C135 0.740 . S
C976 C606 0.740 . S
C1001 C206 0.740 . S
C1006 C375 0.740 . S
C1031 C455 0.740 . S
C1036 C286 0.740 . S
C1061 C486 0.739 . S
C1066 C335 0.739 . S
C1091 C415 0.739 . S
C1096 C566 0.739 . S
C1121 C6 0.801 . S
C1126 C289 0.815 . S
C1151 C46 0.801 . S
C1156 C489 0.815 . S
C1181 C86 0.801 . S
C1186 C209 0.815 . S
C1211 C126 0.801 . S
C1216 C569 0.815 . S
C1241 C138 0.815 . S
C1246 C175 0.801 . S
C1271 C215 0.801 . S
C1276 C338 0.815 . S
C1301 C255 0.801 . S
C1306 C58 0.815 . S
C1331 C418 0.815 . S
C1336 C295 0.801 . S
C1361 C326 0.801 . S
C1366 C609 0.798 1_565 S
C1391 C169 0.815 . S
C1396 C366 0.801 . S
C1421 C529 0.798 1_545 S
C1426 C406 0.801 . S
C1451 C249 0.815 . S
C1456 C446 0.801 . S
C1481 C495 0.801 . S
C1486 C458 0.798 1_545 S
C1511 C535 0.801 . S
C1516 C18 0.815 . S
C1541 C378 0.798 1_565 S
C1546 C575 0.801 . S
C1571 C615 0.801 . S
C1576 C98 0.815 . S
C1601 C19 4.098 . S
C1606 C370 4.124 . S
C1631 C410 4.125 . S
C1636 C59 4.099 . S
C1661 C99 4.098 . S
C1666 C450 4.124 . S
C1691 C330 4.125 . S
C1696 C139 4.099 . S
C1721 C539 4.124 . S
C1726 C170 4.098 . S
C1751 C579 4.125 . S
C1756 C210 4.099 . S
C1781 C619 4.124 . S
C1786 C250 4.098 . S
C1811 C499 4.125 . S
C1816 C290 4.099 . S
C1841 C50 4.124 . S
C1846 C339 4.098 . S
C1871 C90 4.125 . S
C1876 C379 4.099 . S
C1901 C130 4.124 . S
C1906 C419 4.098 . S
C1931 C459 4.099 . S
C1936 C10 4.125 . S
C1961 C219 4.124 . S
C1966 C490 4.098 . S
C1991 C259 4.125 . S
C1996 C530 4.099 . S
C2021 C299 4.124 . S
C2026 C570 4.098 . S
C2051 C179 4.125 . S
C2056 C610 4.099 . S
