# Generated by pormake.
# Topology ske, (6)-cn, num edge types: 1
# Building blocks:
#     Node 0, Type 0, BuildingBlock: INOVEN_clean_sbu_0, # of connection points: 6
#     Node 1, Type 0, BuildingBlock: INOVEN_clean_sbu_0, # of connection points: 6
#     Node 2, Type 0, BuildingBlock: INOVEN_clean_sbu_0, # of connection points: 6
#     Node 3, Type 0, BuildingBlock: INOVEN_clean_sbu_0, # of connection points: 6
#     Node 4, Type 0, BuildingBlock: INOVEN_clean_sbu_0, # of connection points: 6
#     Node 5, Type 0, BuildingBlock: INOVEN_clean_sbu_0, # of connection points: 6
#     Node 6, Type 0, BuildingBlock: INOVEN_clean_sbu_0, # of connection points: 6
#     Node 7, Type 0, BuildingBlock: INOVEN_clean_sbu_0, # of connection points: 6
#     Edge 8, Type (0, 0), BuildingBlock: XIVTED_clean_linker_0, # of connection points: 2
#     Edge 9, Type (0, 0), BuildingBlock: XIVTED_clean_linker_0, # of connection points: 2
#     Edge 10, Type (0, 0), BuildingBlock: XIVTED_clean_linker_0, # of connection points: 2
#     Edge 11, Type (0, 0), BuildingBlock: XIVTED_clean_linker_0, # of connection points: 2
#     Edge 12, Type (0, 0), BuildingBlock: XIVTED_clean_linker_0, # of connection points: 2
#     Edge 13, Type (0, 0), BuildingBlock: XIVTED_clean_linker_0, # of connection points: 2
#     Edge 14, Type (0, 0), BuildingBlock: XIVTED_clean_linker_0, # of connection points: 2
#     Edge 15, Type (0, 0), BuildingBlock: XIVTED_clean_linker_0, # of connection points: 2
#     Edge 16, Type (0, 0), BuildingBlock: XIVTED_clean_linker_0, # of connection points: 2
#     Edge 17, Type (0, 0), BuildingBlock: XIVTED_clean_linker_0, # of connection points: 2
#     Edge 18, Type (0, 0), BuildingBlock: XIVTED_clean_linker_0, # of connection points: 2
#     Edge 19, Type (0, 0), BuildingBlock: XIVTED_clean_linker_0, # of connection points: 2
#     Edge 20, Type (0, 0), BuildingBlock: XIVTED_clean_linker_0, # of connection points: 2
#     Edge 21, Type (0, 0), BuildingBlock: XIVTED_clean_linker_0, # of connection points: 2
#     Edge 22, Type (0, 0), BuildingBlock: XIVTED_clean_linker_0, # of connection points: 2
#     Edge 23, Type (0, 0), BuildingBlock: XIVTED_clean_linker_0, # of connection points: 2
#     Edge 24, Type (0, 0), BuildingBlock: XIVTED_clean_linker_0, # of connection points: 2
#     Edge 25, Type (0, 0), BuildingBlock: XIVTED_clean_linker_0, # of connection points: 2
#     Edge 26, Type (0, 0), BuildingBlock: XIVTED_clean_linker_0, # of connection points: 2
#     Edge 27, Type (0, 0), BuildingBlock: XIVTED_clean_linker_0, # of connection points: 2
#     Edge 28, Type (0, 0), BuildingBlock: XIVTED_clean_linker_0, # of connection points: 2
#     Edge 29, Type (0, 0), BuildingBlock: XIVTED_clean_linker_0, # of connection points: 2
#     Edge 30, Type (0, 0), BuildingBlock: XIVTED_clean_linker_0, # of connection points: 2
#     Edge 31, Type (0, 0), BuildingBlock: XIVTED_clean_linker_0, # of connection points: 2
# Relax obj value: 0.200
# Max RMSD: 0.209
# Mean RMSD: 0.202
data_MOF--net-ske--node1-INOVEN_clean_sbu_0--edge1-XIVTED_clean_linker_0
_symmetry_space_group_name_H-M    P1
_symmetry_Int_Tables_number       1
_symmetry_cell_setting            triclinic
loop_
_symmetry_equiv_pos_as_xyz
'x, y, z'
_cell_length_a     103.59429
_cell_length_b     29.141774
_cell_length_c     15.699966
_cell_angle_alpha  89.876247
_cell_angle_beta   89.864044
_cell_angle_gamma 82.307982
loop_
_atom_site_label
_atom_site_type_symbol
_atom_site_fract_x
_atom_site_fract_y
_atom_site_fract_z
_atom_type_partial_charge
Gd0 Gd 0.15467 0.25923 0.53926 0.0
Gd1 Gd 0.12561 0.25094 0.54598 0.0
C2 C 0.14069 0.25195 0.72229 0.0
C3 C 0.17767 0.28492 0.55024 0.0
C4 C 0.19029 0.2781 0.59599 0.0
C5 C 0.19748 0.234 0.60658 0.0
C6 C 0.19581 0.31712 0.62226 0.0
C7 C 0.21585 0.26858 0.66424 0.0
C8 C 0.20842 0.31248 0.65607 0.0
C9 C 0.21011 0.22931 0.64045 0.0
C10 C 0.14912 0.17069 0.53307 0.0
C11 C 0.13983 0.25592 0.36284 0.0
C12 C 0.10258 0.22512 0.54034 0.0
C13 C 0.08904 0.23346 0.50889 0.0
C14 C 0.08233 0.27832 0.49905 0.0
C15 C 0.08221 0.19541 0.49888 0.0
C16 C 0.06188 0.24674 0.47625 0.0
C17 C 0.06881 0.20189 0.48285 0.0
C18 C 0.0689 0.28489 0.48264 0.0
C19 C 0.13125 0.3398 0.54724 0.0
O20 O 0.15018 0.26795 0.67982 0.0
O21 O 0.13122 0.23493 0.68202 0.0
O22 O 0.1749 0.25145 0.50096 0.0
O23 O 0.16747 0.30597 0.59034 0.0
O24 O 0.15928 0.18452 0.49837 0.0
O25 O 0.14321 0.20289 0.57755 0.0
O26 O 0.13032 0.24013 0.40581 0.0
O27 O 0.14926 0.27365 0.40252 0.0
O28 O 0.10609 0.25434 0.59599 0.0
O29 O 0.11193 0.20955 0.48745 0.0
O30 O 0.12104 0.32675 0.58264 0.0
O31 O 0.13707 0.30655 0.50526 0.0
H32 H 0.19351 0.20323 0.58656 0.0
H33 H 0.19049 0.35151 0.61451 0.0
H34 H 0.21238 0.34343 0.6751 0.0
H35 H 0.21555 0.19498 0.64512 0.0
H36 H 0.08738 0.30828 0.5067 0.0
H37 H 0.08715 0.1605 0.5072 0.0
H38 H 0.0638 0.17163 0.4796 0.0
H39 H 0.06397 0.31992 0.47647 0.0
Gd40 Gd 0.87066 0.25526 0.54115 0.0
Gd41 Gd 0.8999 0.26264 0.54387 0.0
C42 C 0.88515 0.26183 0.72216 0.0
C43 C 0.84761 0.23011 0.55474 0.0
C44 C 0.83496 0.23752 0.6005 0.0
C45 C 0.82705 0.28071 0.6005 0.0
C46 C 0.83006 0.19933 0.63701 0.0
C47 C 0.8093 0.24653 0.6681 0.0
C48 C 0.81742 0.20375 0.67056 0.0
C49 C 0.81439 0.28516 0.63402 0.0
C50 C 0.87647 0.3434 0.53422 0.0
C51 C 0.8852 0.25818 0.36277 0.0
C52 C 0.92297 0.28784 0.53549 0.0
C53 C 0.93655 0.28015 0.50347 0.0
C54 C 0.94432 0.23688 0.51024 0.0
C55 C 0.94236 0.31859 0.47701 0.0
C56 C 0.96372 0.27183 0.47227 0.0
C57 C 0.95577 0.31453 0.46154 0.0
C58 C 0.95777 0.23274 0.49449 0.0
C59 C 0.89395 0.17423 0.54615 0.0
O60 O 0.8755 0.24618 0.68119 0.0
O61 O 0.89458 0.27855 0.68044 0.0
O62 O 0.85042 0.26286 0.50352 0.0
O63 O 0.8578 0.20941 0.59536 0.0
O64 O 0.8661 0.3303 0.50147 0.0
O65 O 0.88242 0.31077 0.5775 0.0
O66 O 0.89486 0.27367 0.4042 0.0
O67 O 0.87581 0.24076 0.40398 0.0
O68 O 0.91952 0.25862 0.59171 0.0
O69 O 0.91354 0.30387 0.48364 0.0
O70 O 0.90437 0.18653 0.57963 0.0
O71 O 0.88813 0.20786 0.50525 0.0
H72 H 0.83049 0.31081 0.57234 0.0
H73 H 0.83591 0.16559 0.63742 0.0
H74 H 0.81396 0.17342 0.69762 0.0
H75 H 0.80841 0.31856 0.63026 0.0
H76 H 0.94012 0.20665 0.5311 0.0
H77 H 0.9366 0.35238 0.47185 0.0
H78 H 0.95997 0.34518 0.44308 0.0
H79 H 0.96358 0.19938 0.50382 0.0
Gd80 Gd 0.12583 0.75066 0.50203 0.0
Gd81 Gd 0.15479 0.7593 0.50395 0.0
C82 C 0.14072 0.75386 0.68173 0.0
C83 C 0.1028 0.72512 0.51423 0.0
C84 C 0.08889 0.73907 0.53557 0.0
C85 C 0.08136 0.77572 0.49273 0.0
C86 C 0.08264 0.71122 0.591 0.0
C87 C 0.06145 0.75344 0.55424 0.0
C88 C 0.06907 0.71841 0.60058 0.0
C89 C 0.06779 0.78277 0.50192 0.0
C90 C 0.13117 0.83985 0.49887 0.0
C91 C 0.14044 0.75116 0.32304 0.0
C92 C 0.17769 0.78542 0.48983 0.0
C93 C 0.19027 0.77815 0.44335 0.0
C94 C 0.1985 0.73567 0.44649 0.0
C95 C 0.19475 0.81596 0.40265 0.0
C96 C 0.21576 0.76998 0.37364 0.0
C97 C 0.20731 0.81193 0.36801 0.0
C98 C 0.21109 0.73163 0.41191 0.0
C99 C 0.14936 0.67054 0.51314 0.0
O100 O 0.13159 0.73564 0.63964 0.0
O101 O 0.14955 0.77422 0.64069 0.0
O102 O 0.1073 0.7428 0.44553 0.0
O103 O 0.11134 0.71948 0.5759 0.0
O104 O 0.12082 0.82658 0.46635 0.0
O105 O 0.13727 0.80671 0.53976 0.0
O106 O 0.15001 0.76741 0.36373 0.0
O107 O 0.13105 0.73443 0.36523 0.0
O108 O 0.17501 0.75275 0.54165 0.0
O109 O 0.16744 0.80565 0.44929 0.0
O110 O 0.15965 0.68446 0.54539 0.0
O111 O 0.14334 0.70265 0.4691 0.0
H112 H 0.08588 0.79786 0.4495 0.0
H113 H 0.0882 0.68243 0.62402 0.0
H114 H 0.06452 0.69497 0.64088 0.0
H115 H 0.06223 0.81053 0.46638 0.0
H116 H 0.19538 0.70589 0.47789 0.0
H117 H 0.18865 0.84916 0.39973 0.0
H118 H 0.21046 0.84196 0.33769 0.0
H119 H 0.21733 0.69889 0.41813 0.0
Gd120 Gd 0.89942 0.76342 0.49988 0.0
Gd121 Gd 0.87034 0.75535 0.50592 0.0
C122 C 0.8849 0.76055 0.68187 0.0
C123 C 0.92253 0.7885 0.50813 0.0
C124 C 0.93641 0.77506 0.53087 0.0
C125 C 0.94437 0.74085 0.4847 0.0
C126 C 0.94223 0.80134 0.59109 0.0
C127 C 0.9638 0.76251 0.55297 0.0
C128 C 0.95577 0.79499 0.60239 0.0
C129 C 0.9579 0.7347 0.4956 0.0
C130 C 0.89386 0.67459 0.49934 0.0
C131 C 0.88437 0.76277 0.32304 0.0
C132 C 0.84736 0.72975 0.49465 0.0
C133 C 0.83475 0.73721 0.44871 0.0
C134 C 0.82633 0.77916 0.45483 0.0
C135 C 0.83045 0.69998 0.40542 0.0
C136 C 0.80927 0.74542 0.37958 0.0
C137 C 0.8179 0.70404 0.37106 0.0
C138 C 0.81375 0.78322 0.42055 0.0
C139 C 0.87601 0.84375 0.51248 0.0
O140 O 0.8941 0.7779 0.6384 0.0
O141 O 0.87583 0.74085 0.6424 0.0
O142 O 0.91807 0.76856 0.44197 0.0
O143 O 0.9139 0.79672 0.56909 0.0
O144 O 0.9042 0.68734 0.4653 0.0
O145 O 0.88792 0.70798 0.54025 0.0
O146 O 0.87486 0.74679 0.36532 0.0
O147 O 0.89386 0.77954 0.3636 0.0
O148 O 0.85017 0.76256 0.54538 0.0
O149 O 0.85755 0.709 0.45397 0.0
O150 O 0.86573 0.83036 0.54634 0.0
O151 O 0.88186 0.81138 0.46838 0.0
H152 H 0.94023 0.72 0.43759 0.0
H153 H 0.93637 0.82835 0.62673 0.0
H154 H 0.95999 0.81722 0.64667 0.0
H155 H 0.96379 0.70889 0.45749 0.0
H156 H 0.82929 0.80846 0.48833 0.0
H157 H 0.83669 0.66715 0.40021 0.0
H158 H 0.81489 0.67446 0.33868 0.0
H159 H 0.80737 0.81548 0.4291 0.0
Gd160 Gd 0.65523 0.75978 0.04752 0.0
Gd161 Gd 0.62623 0.75191 0.05152 0.0
C162 C 0.64101 0.75146 0.22922 0.0
C163 C 0.67819 0.78544 0.06095 0.0
C164 C 0.69066 0.77817 0.10841 0.0
C165 C 0.69912 0.73626 0.10335 0.0
C166 C 0.69483 0.81553 0.15205 0.0
C167 C 0.71597 0.77031 0.18018 0.0
C168 C 0.7073 0.81165 0.18772 0.0
C169 C 0.71161 0.73238 0.13892 0.0
C170 C 0.64969 0.67136 0.03857 0.0
C171 C 0.64089 0.75566 0.87014 0.0
C172 C 0.60308 0.72737 0.04353 0.0
C173 C 0.58937 0.74005 1.01734 0.0
C174 C 0.58262 0.78444 0.03216 0.0
C175 C 0.58248 0.70515 0.98726 0.0
C176 C 0.56207 0.75754 0.99369 0.0
C177 C 0.569 0.71374 0.97546 0.0
C178 C 0.5691 0.79309 0.02043 0.0
C179 C 0.63192 0.84078 0.05283 0.0
O180 O 0.65055 0.76779 0.18798 0.0
O181 O 0.63162 0.73475 0.18757 0.0
O182 O 0.67551 0.75237 1.01037 0.0
O183 O 0.66789 0.80643 0.10017 0.0
O184 O 0.65996 0.68528 1.00563 0.0
O185 O 0.64368 0.70327 0.08326 0.0
O186 O 0.63148 0.73889 0.91249 0.0
O187 O 0.65003 0.77455 0.9107 0.0
O188 O 0.60722 0.75048 0.10677 0.0
O189 O 0.61195 0.71639 0.9849 0.0
O190 O 0.62159 0.82804 0.08711 0.0
O191 O 0.63777 0.8073 1.01189 0.0
H192 H 0.69627 0.70685 0.06963 0.0
H193 H 0.68856 0.84833 0.15648 0.0
H194 H 0.71021 0.84133 0.22028 0.0
H195 H 0.71803 0.70015 0.13108 0.0
H196 H 0.58771 0.812 0.05556 0.0
H197 H 0.58746 0.67051 0.97642 0.0
H198 H 0.56394 0.68534 0.95584 0.0
H199 H 0.56412 0.82741 0.0338 0.0
Gd200 Gd 0.3698 0.75775 0.02849 0.0
Gd201 Gd 0.39874 0.75613 0.03687 0.0
C202 C 0.38407 0.76203 0.21414 0.0
C203 C 0.34589 0.74084 0.04097 0.0
C204 C 0.3338 0.74712 0.09311 0.0
C205 C 0.32536 0.78919 0.09247 0.0
C206 C 0.32978 0.70888 0.13538 0.0
C207 C 0.30884 0.75374 0.17072 0.0
C208 C 0.31748 0.71217 0.17393 0.0
C209 C 0.31306 0.79248 0.13099 0.0
C210 C 0.3777 0.84188 1.00967 0.0
C211 C 0.38457 0.75563 0.85417 0.0
C212 C 0.42315 0.7642 0.02236 0.0
C213 C 0.43726 0.76742 1.0133 0.0
C214 C 0.4459 0.72841 0.98833 0.0
C215 C 0.4423 0.80878 0.03126 0.0
C216 C 0.46437 0.77182 0.99981 0.0
C217 C 0.45571 0.81095 0.02469 0.0
C218 C 0.45926 0.73057 0.98168 0.0
C219 C 0.3902 0.67252 0.05285 0.0
O220 O 0.37354 0.75468 0.17116 0.0
O221 O 0.39498 0.7684 0.17523 0.0
O222 O 0.34931 0.77702 1.0018 0.0
O223 O 0.35586 0.71254 0.06907 0.0
O224 O 0.36795 0.82872 0.96928 0.0
O225 O 0.38237 0.81121 0.06206 0.0
O226 O 0.39395 0.77139 0.89783 0.0
O227 O 0.37498 0.7389 0.89377 0.0
O228 O 0.41838 0.72594 1.00545 0.0
O229 O 0.41453 0.79885 0.04623 0.0
O230 O 0.39933 0.6858 0.09934 0.0
O231 O 0.38612 0.70374 1.00032 0.0
H232 H 0.32805 0.81923 0.05961 0.0
H233 H 0.33598 0.67585 0.13629 0.0
H234 H 0.31467 0.68182 0.20508 0.0
H235 H 0.30665 0.82493 0.12638 0.0
H236 H 0.44235 0.69589 0.97457 0.0
H237 H 0.43589 0.83943 0.0507 0.0
H238 H 0.45928 0.84342 0.03836 0.0
H239 H 0.46563 0.69952 0.96379 0.0
Gd240 Gd 0.62518 0.25339 0.98957 0.0
Gd241 Gd 0.65432 0.2606 0.99218 0.0
C242 C 0.63996 0.25681 0.17019 0.0
C243 C 0.60195 0.22923 0.99897 0.0
C244 C 0.58812 0.24114 0.02512 0.0
C245 C 0.58002 0.27824 0.98741 0.0
C246 C 0.58246 0.21088 0.07906 0.0
C247 C 0.56075 0.25223 0.05174 0.0
C248 C 0.56896 0.21642 0.09249 0.0
C249 C 0.56652 0.28372 1.00062 0.0
C250 C 0.63101 0.34206 0.98736 0.0
C251 C 0.63997 0.25283 0.81119 0.0
C252 C 0.6774 0.28541 0.97797 0.0
C253 C 0.68994 0.2781 0.93077 0.0
C254 C 0.69787 0.23495 0.93007 0.0
C255 C 0.69472 0.31632 0.8935 0.0
C256 C 0.71543 0.26928 0.86045 0.0
C257 C 0.70727 0.31199 0.8586 0.0
C258 C 0.71045 0.2306 0.89519 0.0
C259 C 0.6485 0.17248 1.00207 0.0
O260 O 0.6305 0.24027 0.12839 0.0
O261 O 0.64914 0.27546 0.12912 0.0
O262 O 0.60613 0.2521 0.93519 0.0
O263 O 0.61085 0.21813 0.05722 0.0
O264 O 0.62061 0.32951 0.95415 0.0
O265 O 0.63692 0.30849 0.02804 0.0
O266 O 0.64959 0.26879 0.85193 0.0
O267 O 0.63053 0.23642 0.85328 0.0
O268 O 0.67463 0.25227 0.02839 0.0
O269 O 0.66716 0.30678 0.93888 0.0
O270 O 0.65883 0.18597 0.0345 0.0
O271 O 0.64261 0.20464 0.95738 0.0
H272 H 0.58403 0.302 0.94479 0.0
H273 H 0.58843 0.18174 0.10835 0.0
H274 H 0.56495 0.19197 0.13355 0.0
H275 H 0.56056 0.31146 0.96743 0.0
H276 H 0.69453 0.20481 0.95875 0.0
H277 H 0.68885 0.35003 0.89355 0.0
H278 H 0.71065 0.34236 0.83107 0.0
H279 H 0.71645 0.19724 0.8985 0.0
Gd280 Gd 0.39856 0.26251 0.98078 0.0
Gd281 Gd 0.37018 0.25199 0.99399 0.0
C282 C 0.38544 0.25305 0.16731 0.0
C283 C 0.42182 0.28676 0.98505 0.0
C284 C 0.43552 0.27617 1.01427 0.0
C285 C 0.44381 0.23772 0.98274 0.0
C286 C 0.44093 0.30859 0.06443 0.0
C287 C 0.46276 0.26639 0.04542 0.0
C288 C 0.45435 0.30371 0.08009 0.0
C289 C 0.45725 0.23288 0.99819 0.0
C290 C 0.39341 0.17333 0.97473 0.0
C291 C 0.38294 0.26486 0.80813 0.0
C292 C 0.34697 0.22784 0.98493 0.0
C293 C 0.33462 0.23359 0.93596 0.0
C294 C 0.32745 0.27743 0.92172 0.0
C295 C 0.32923 0.19407 0.91076 0.0
C296 C 0.30935 0.24173 0.86311 0.0
C297 C 0.31678 0.19804 0.87462 0.0
C298 C 0.31497 0.28143 0.88565 0.0
C299 C 0.37545 0.34026 1.00872 0.0
O300 O 0.39451 0.27079 0.12306 0.0
O301 O 0.37614 0.23439 0.1283 0.0
O302 O 0.4178 0.26014 0.92666 0.0
O303 O 0.41271 0.30168 0.04013 0.0
O304 O 0.40264 0.18865 0.93209 0.0
O305 O 0.38803 0.20465 0.02254 0.0
O306 O 0.37397 0.24635 0.85151 0.0
O307 O 0.39224 0.28292 0.84811 0.0
O308 O 0.34979 0.26337 0.0284 0.0
O309 O 0.35723 0.20368 0.95068 0.0
O310 O 0.36643 0.32351 0.05115 0.0
O311 O 0.3807 0.31081 0.9563 0.0
H312 H 0.44002 0.21226 0.9431 0.0
H313 H 0.43482 0.33879 0.08891 0.0
H314 H 0.45817 0.32977 0.11806 0.0
H315 H 0.46336 0.20392 0.96963 0.0
H316 H 0.3313 0.30862 0.94078 0.0
H317 H 0.33452 0.15987 0.92128 0.0
H318 H 0.31292 0.16672 0.85664 0.0
H319 H 0.30954 0.31564 0.8785 0.0
H320 H 0.2288 0.20192 0.76962 0.0
H321 H 0.2966 0.30703 0.75413 0.0
H322 H 0.23451 0.32465 0.62774 0.0
H323 H 0.29067 0.18572 0.89963 0.0
H324 H 0.27396 0.31377 0.70646 0.0
H325 H 0.2515 0.19478 0.81615 0.0
C326 C 0.23481 0.22731 0.74793 0.0
C327 C 0.22964 0.26403 0.69467 0.0
C328 C 0.27762 0.28561 0.74868 0.0
C329 C 0.25574 0.25619 0.74844 0.0
C330 C 0.29056 0.28184 0.77632 0.0
C331 C 0.29565 0.24569 0.83108 0.0
C332 C 0.26962 0.25306 0.77593 0.0
C333 C 0.28732 0.21377 0.85646 0.0
C334 C 0.24779 0.22333 0.77492 0.0
C335 C 0.23794 0.29616 0.66979 0.0
N336 N 0.27476 0.21825 0.82887 0.0
N337 N 0.25053 0.29146 0.69672 0.0
H338 H 0.72966 0.19783 0.77208 0.0
H339 H 0.795 0.31812 0.75559 0.0
H340 H 0.73279 0.33218 0.87914 0.0
H341 H 0.79189 0.18385 0.64809 0.0
H342 H 0.77221 0.32408 0.80047 0.0
H343 H 0.75241 0.19202 0.72632 0.0
C344 C 0.73511 0.22609 0.78623 0.0
C345 C 0.72921 0.26561 0.8296 0.0
C346 C 0.77652 0.29326 0.76718 0.0
C347 C 0.75536 0.25927 0.77663 0.0
C348 C 0.78954 0.28992 0.74112 0.0
C349 C 0.79547 0.25037 0.69797 0.0
C350 C 0.76927 0.25686 0.74999 0.0
C351 C 0.78787 0.21472 0.68227 0.0
C352 C 0.74811 0.22283 0.75968 0.0
C353 C 0.7368 0.30134 0.84485 0.0
N354 N 0.77521 0.21884 0.70809 0.0
N355 N 0.74943 0.29727 0.81862 0.0
H356 H 0.29432 0.82524 0.25688 0.0
H357 H 0.23047 0.69756 0.29097 0.0
H358 H 0.29228 0.68768 0.16109 0.0
H359 H 0.23256 0.83507 0.3869 0.0
H360 H 0.25316 0.69289 0.24455 0.0
H361 H 0.27177 0.82924 0.30584 0.0
C362 C 0.28915 0.79587 0.24599 0.0
C363 C 0.29528 0.75605 0.20466 0.0
C364 C 0.24865 0.72412 0.27565 0.0
C365 C 0.26938 0.76032 0.26121 0.0
C366 C 0.23568 0.72675 0.30256 0.0
C367 C 0.22951 0.76683 0.34286 0.0
C368 C 0.25557 0.7618 0.28914 0.0
C369 C 0.23678 0.80373 0.35496 0.0
C370 C 0.27627 0.79811 0.27433 0.0
C371 C 0.28808 0.71886 0.19363 0.0
N372 N 0.24939 0.8003 0.32836 0.0
N373 N 0.27554 0.72196 0.22145 0.0
H374 H 0.73234 0.83707 0.1727 0.0
H375 H 0.79284 0.6789 0.38824 0.0
H376 H 0.73097 0.697 0.25869 0.0
H377 H 0.7942 0.81898 0.30233 0.0
H378 H 0.77027 0.68476 0.3405 0.0
H379 H 0.75486 0.83139 0.22136 0.0
C380 C 0.73671 0.80521 0.20254 0.0
C381 C 0.72965 0.7675 0.21171 0.0
C382 C 0.7755 0.71423 0.33197 0.0
C383 C 0.75566 0.76053 0.26652 0.0
C384 C 0.78845 0.7108 0.35865 0.0
C385 C 0.79553 0.74845 0.34912 0.0
C386 C 0.76948 0.75563 0.29534 0.0
C387 C 0.78915 0.7892 0.31191 0.0
C388 C 0.74964 0.8019 0.22975 0.0
C389 C 0.73601 0.72683 0.24932 0.0
N390 N 0.77652 0.79166 0.2864 0.0
N391 N 0.74862 0.72445 0.27527 0.0
H392 H 0.11409 0.91833 0.46808 0.0
H393 H 0.16596 0.09386 0.49229 0.0
H394 H 0.15359 0.87307 0.54676 0.0
H395 H 0.1263 0.13622 0.57174 0.0
H396 H 0.16155 0.01331 0.48752 0.0
H397 H 0.1182 0.99921 0.48132 0.0
C398 C 0.12364 0.92539 0.48779 0.0
C399 C 0.13354 0.88888 0.50606 0.0
C400 C 0.15382 0.04023 0.50616 0.0
C401 C 0.13833 0.9812 0.51984 0.0
C402 C 0.1563 0.08622 0.50868 0.0
C403 C 0.14647 0.12184 0.53247 0.0
C404 C 0.1413 0.02974 0.52524 0.0
C405 C 0.13415 0.10983 0.55309 0.0
C406 C 0.12594 0.9715 0.49571 0.0
C407 C 0.14571 0.9001 0.53169 0.0
N408 N 0.13186 0.06485 0.54801 0.0
N409 N 0.14781 0.9452 0.53686 0.0
H410 H 0.89955 0.37587 0.57114 0.0
H411 H 0.87139 0.64299 0.55125 0.0
H412 H 0.85993 0.42136 0.49531 0.0
H413 H 0.91047 0.59528 0.4662 0.0
H414 H 0.8672 0.56213 0.56137 0.0
H415 H 0.90406 0.45671 0.56318 0.0
C416 C 0.89181 0.40283 0.55314 0.0
C417 C 0.87938 0.39189 0.53328 0.0
C418 C 0.87668 0.56946 0.54053 0.0
C419 C 0.88435 0.48417 0.52625 0.0
C420 C 0.87908 0.61552 0.53468 0.0
C421 C 0.89125 0.62588 0.50695 0.0
C422 C 0.88665 0.53341 0.52094 0.0
C423 C 0.90092 0.58883 0.48723 0.0
C424 C 0.89439 0.44882 0.54845 0.0
C425 C 0.86967 0.42823 0.51072 0.0
N426 N 0.89846 0.54422 0.49529 0.0
N427 N 0.87232 0.47273 0.50856 0.0
H428 H 0.89929 0.87558 0.47926 0.0
H429 H 0.87139 0.14338 0.49471 0.0
H430 H 0.85938 0.92203 0.54826 0.0
H431 H 0.91036 0.09456 0.57976 0.0
H432 H 0.86703 0.0627 0.48489 0.0
H433 H 0.90387 0.95633 0.48658 0.0
C434 C 0.8915 0.90278 0.49542 0.0
C435 C 0.87895 0.89217 0.51344 0.0
C436 C 0.87653 0.06975 0.50569 0.0
C437 C 0.88404 0.98428 0.5202 0.0
C438 C 0.87902 0.11571 0.51135 0.0
C439 C 0.89121 0.12569 0.53893 0.0
C440 C 0.88641 0.03344 0.52542 0.0
C441 C 0.9008 0.08841 0.55882 0.0
C442 C 0.89412 0.94869 0.49989 0.0
C443 C 0.8692 0.9287 0.53423 0.0
N444 N 0.89824 0.04393 0.551 0.0
N445 N 0.87191 0.97313 0.5363 0.0
H446 H 0.16656 0.5931 0.54468 0.0
H447 H 0.11458 0.41821 0.58442 0.0
H448 H 0.12619 0.63685 0.48484 0.0
H449 H 0.15343 0.37294 0.49235 0.0
H450 H 0.11876 0.49898 0.57152 0.0
H451 H 0.16214 0.51247 0.54906 0.0
C452 C 0.15676 0.58572 0.53248 0.0
C453 C 0.14673 0.6217 0.51411 0.0
C454 C 0.12635 0.47132 0.5541 0.0
C455 C 0.14157 0.52957 0.52086 0.0
C456 C 0.12401 0.42524 0.56178 0.0
C457 C 0.1337 0.38874 0.5397 0.0
C458 C 0.13858 0.48103 0.52626 0.0
C459 C 0.14571 0.39996 0.51041 0.0
C460 C 0.15427 0.53971 0.53471 0.0
C461 C 0.13421 0.6101 0.49882 0.0
N462 N 0.14787 0.44504 0.50547 0.0
N463 N 0.13194 0.56508 0.50352 0.0
H464 H 0.66662 0.59435 1.00067 0.0
H465 H 0.61422 0.42132 0.95679 0.0
H466 H 0.6265 0.63762 0.06839 0.0
H467 H 0.65341 0.37394 0.03928 0.0
H468 H 0.6185 0.50177 0.97401 0.0
H469 H 0.66203 0.51415 0.99135 0.0
C470 C 0.65684 0.58695 1.01362 0.0
C471 C 0.64693 0.6227 0.03556 0.0
C472 C 0.62614 0.4737 0.98835 0.0
C473 C 0.64156 0.53103 0.02309 0.0
C474 C 0.62374 0.42783 0.97813 0.0
C475 C 0.6335 0.39085 0.99635 0.0
C476 C 0.63849 0.48272 1.01486 0.0
C477 C 0.64564 0.40136 0.02418 0.0
C478 C 0.65424 0.54117 1.0085 0.0
C479 C 0.63442 0.61106 0.05161 0.0
N480 N 0.64784 0.44626 0.03169 0.0
N481 N 0.63204 0.56628 0.04409 0.0
H482 H 0.37579 0.89785 0.87085 0.0
H483 H 0.38372 0.12895 0.10931 0.0
H484 H 0.38751 0.89334 0.13433 0.0
H485 H 0.39895 0.10577 0.85495 0.0
H486 H 0.38106 0.0465 0.11914 0.0
H487 H 0.38046 0.97818 0.86194 0.0
C488 C 0.37939 0.91383 0.92671 0.0
C489 C 0.38129 0.88913 1.0034 0.0
C490 C 0.38502 0.05956 0.0614 0.0
C491 C 0.38628 0.981 0.99421 0.0
C492 C 0.38646 0.1065 0.05549 0.0
C493 C 0.39158 0.12401 0.98118 0.0
C494 C 0.38835 0.03034 0.99158 0.0
C495 C 0.39501 0.09349 0.91339 0.0
C496 C 0.38207 0.95947 0.92148 0.0
C497 C 0.38598 0.91126 0.07396 0.0
N498 N 0.39318 0.0482 0.91973 0.0
N499 N 0.38813 0.95631 0.06812 0.0
H500 H 0.37176 0.39576 0.14761 0.0
H501 H 0.38136 0.62906 0.91491 0.0
H502 H 0.38523 0.39429 0.8875 0.0
H503 H 0.39345 0.60555 0.17577 0.0
H504 H 0.37838 0.54704 0.90335 0.0
H505 H 0.37556 0.47689 0.15957 0.0
C506 C 0.37551 0.41262 0.09304 0.0
C507 C 0.37819 0.3885 1.01646 0.0
C508 C 0.38168 0.55997 0.96301 0.0
C509 C 0.38225 0.48122 0.02915 0.0
C510 C 0.38328 0.60669 0.9699 0.0
C511 C 0.38767 0.62393 0.04645 0.0
C512 C 0.38412 0.53068 0.03386 0.0
C513 C 0.39009 0.59348 0.11563 0.0
C514 C 0.37771 0.45871 0.10004 0.0
C515 C 0.38309 0.41175 0.94771 0.0
N516 N 0.38816 0.54837 0.10802 0.0
N517 N 0.3848 0.45713 0.95525 0.0
H518 H 0.62525 0.13944 0.97222 0.0
H519 H 0.65422 0.87257 0.99856 0.0
H520 H 0.66533 0.095 0.03852 0.0
H521 H 0.61514 0.9201 0.08374 0.0
H522 H 0.65815 0.9535 0.9839 0.0
H523 H 0.62092 0.05842 0.9838 0.0
C524 C 0.63313 0.11264 0.98862 0.0
C525 C 0.64565 0.12391 1.0047 0.0
C526 C 0.64872 0.94614 1.00578 0.0
C527 C 0.64085 0.03151 1.01635 0.0
C528 C 0.64648 0.90002 1.01422 0.0
C529 C 0.63438 0.88958 0.04324 0.0
C530 C 0.63869 0.98217 0.02422 0.0
C531 C 0.62464 0.92661 0.06178 0.0
C532 C 0.63065 0.06658 0.99555 0.0
C533 C 0.65553 0.08786 0.0259 0.0
N534 N 0.62696 0.97126 0.05132 0.0
N535 N 0.65295 0.04332 0.03039 0.0
H536 H 0.12193 0.224 0.25709 0.0
H537 H 0.15873 0.28256 0.82845 0.0
H538 H 0.15752 0.28599 0.253 0.0
H539 H 0.123 0.22137 0.83175 0.0
H540 H 0.15852 0.28349 0.98402 0.0
H541 H 0.12217 0.22244 0.10142 0.0
C542 C 0.12979 0.23735 0.22359 0.0
C543 C 0.13971 0.25521 0.26843 0.0
C544 C 0.15073 0.2698 0.95073 0.0
C545 C 0.14007 0.2534 0.08991 0.0
C546 C 0.15085 0.26921 0.86177 0.0
C547 C 0.14087 0.25183 0.81672 0.0
C548 C 0.14056 0.25292 0.99525 0.0
C549 C 0.13091 0.23506 0.86361 0.0
C550 C 0.12993 0.23641 0.1346 0.0
C551 C 0.14965 0.27195 0.22134 0.0
N552 N 0.13101 0.23606 0.95019 0.0
N553 N 0.14957 0.27061 0.13481 0.0
H554 H 0.86723 0.22792 0.25616 0.0
H555 H 0.9031 0.29267 0.82842 0.0
H556 H 0.90292 0.28933 0.25371 0.0
H557 H 0.86732 0.2318 0.83158 0.0
H558 H 0.90316 0.29201 0.98391 0.0
H559 H 0.86712 0.22919 0.10081 0.0
C560 C 0.87506 0.24165 0.22307 0.0
C561 C 0.88512 0.25851 0.26834 0.0
C562 C 0.89529 0.27884 0.95063 0.0
C563 C 0.88502 0.2601 0.08982 0.0
C564 C 0.89523 0.27923 0.86169 0.0
C565 C 0.88517 0.26228 0.8166 0.0
C566 C 0.88522 0.26135 0.99514 0.0
C567 C 0.87527 0.24525 0.86346 0.0
C568 C 0.87498 0.24238 0.13417 0.0
C569 C 0.89498 0.27592 0.22166 0.0
N570 N 0.87555 0.2452 0.95006 0.0
N571 N 0.89468 0.27625 0.13503 0.0
H572 H 0.12281 0.71819 0.21661 0.0
H573 H 0.15813 0.78693 0.789 0.0
H574 H 0.15806 0.78223 0.21342 0.0
H575 H 0.1236 0.7188 0.79037 0.0
H576 H 0.15816 0.78562 0.94438 0.0
H577 H 0.12287 0.71815 0.06093 0.0
C578 C 0.13059 0.73218 0.18332 0.0
C579 C 0.14046 0.75023 0.22849 0.0
C580 C 0.15058 0.77091 0.9108 0.0
C581 C 0.14055 0.75036 0.04974 0.0
C582 C 0.15054 0.77167 0.82187 0.0
C583 C 0.14083 0.75298 0.77625 0.0
C584 C 0.14083 0.75138 0.95494 0.0
C585 C 0.13127 0.73363 0.82269 0.0
C586 C 0.13061 0.73214 0.09427 0.0
C587 C 0.15026 0.76792 0.18155 0.0
N588 N 0.13151 0.73338 0.90939 0.0
N589 N 0.15004 0.76758 0.09493 0.0
H590 H 0.90242 0.79498 0.78742 0.0
H591 H 0.86639 0.73204 0.21658 0.0
H592 H 0.86753 0.72892 0.79213 0.0
H593 H 0.9019 0.7945 0.21354 0.0
H594 H 0.86646 0.73201 0.06102 0.0
H595 H 0.90225 0.79635 0.94322 0.0
C596 C 0.89472 0.78076 0.82107 0.0
C597 C 0.88498 0.76175 0.77636 0.0
C598 C 0.87424 0.74577 0.09434 0.0
C599 C 0.88472 0.76328 0.95503 0.0
C600 C 0.8742 0.74585 0.18333 0.0
C601 C 0.88415 0.76331 0.22851 0.0
C602 C 0.88431 0.76329 0.0498 0.0
C603 C 0.89402 0.78069 0.18161 0.0
C604 C 0.89463 0.78156 0.91014 0.0
C605 C 0.87525 0.74387 0.82365 0.0
N606 N 0.89384 0.78021 0.09497 0.0
N607 N 0.87537 0.74509 0.91021 0.0
H608 H 0.62326 0.71921 0.33623 0.0
H609 H 0.65862 0.78708 0.7624 0.0
H610 H 0.65873 0.78197 0.33809 0.0
H611 H 0.6235 0.72227 0.76211 0.0
H612 H 0.65878 0.78531 0.6071 0.0
H613 H 0.6232 0.71966 0.49183 0.0
C614 C 0.63106 0.73299 0.36923 0.0
C615 C 0.64102 0.75057 0.32372 0.0
C616 C 0.65103 0.77146 0.64089 0.0
C617 C 0.64098 0.75129 0.50238 0.0
C618 C 0.65092 0.77248 0.72978 0.0
C619 C 0.64101 0.75485 0.77567 0.0
C620 C 0.64116 0.75267 0.5971 0.0
C621 C 0.63132 0.73631 0.72957 0.0
C622 C 0.63101 0.73326 0.45823 0.0
C623 C 0.65085 0.76803 0.37026 0.0
N624 N 0.63164 0.73574 0.6429 0.0
N625 N 0.65057 0.76799 0.45688 0.0
H626 H 0.40314 0.78401 0.74865 0.0
H627 H 0.36429 0.74331 0.3202 0.0
H628 H 0.36618 0.73093 0.74459 0.0
H629 H 0.40307 0.78225 0.32363 0.0
H630 H 0.36432 0.74239 0.47593 0.0
H631 H 0.40286 0.78695 0.593 0.0
C632 C 0.39497 0.77292 0.71513 0.0
C633 C 0.38468 0.7571 0.75989 0.0
C634 C 0.37282 0.75118 0.44255 0.0
C635 C 0.38428 0.76057 0.58157 0.0
C636 C 0.37279 0.75183 0.35355 0.0
C637 C 0.3837 0.76279 0.30852 0.0
C638 C 0.38381 0.76171 0.48701 0.0
C639 C 0.39445 0.77347 0.35542 0.0
C640 C 0.39482 0.77461 0.62619 0.0
C641 C 0.37435 0.74326 0.7129 0.0
N642 N 0.39422 0.77264 0.44195 0.0
N643 N 0.3744 0.74537 0.62642 0.0
H644 H 0.65778 0.28768 0.2772 0.0
H645 H 0.62213 0.22118 0.70488 0.0
H646 H 0.62247 0.22397 0.27898 0.0
H647 H 0.65779 0.28274 0.7016 0.0
H648 H 0.62211 0.22155 0.54927 0.0
H649 H 0.65791 0.28596 0.43254 0.0
C650 C 0.65003 0.27334 0.31015 0.0
C651 C 0.64008 0.256 0.26467 0.0
C652 C 0.62995 0.23491 0.58256 0.0
C653 C 0.64019 0.2539 0.44327 0.0
C654 C 0.62998 0.23469 0.67157 0.0
C655 C 0.63999 0.25195 0.71669 0.0
C656 C 0.63998 0.25258 0.53801 0.0
C657 C 0.64988 0.26906 0.66975 0.0
C658 C 0.65013 0.27234 0.39905 0.0
C659 C 0.63033 0.23778 0.31119 0.0
N660 N 0.64961 0.26897 0.58314 0.0
N661 N 0.63063 0.23724 0.39786 0.0
H662 H 0.40244 0.29031 0.27309 0.0
H663 H 0.36569 0.22978 0.70153 0.0
H664 H 0.3685 0.219 0.27744 0.0
H665 H 0.39991 0.29962 0.69871 0.0
H666 H 0.36637 0.22675 0.54591 0.0
H667 H 0.40167 0.29443 0.42881 0.0
C668 C 0.39487 0.27533 0.30665 0.0
C669 C 0.38554 0.25422 0.26184 0.0
C670 C 0.37371 0.24285 0.57932 0.0
C671 C 0.38454 0.25909 0.44033 0.0
C672 C 0.3733 0.24471 0.6683 0.0
C673 C 0.38275 0.26499 0.71355 0.0
C674 C 0.38365 0.26134 0.53496 0.0
C675 C 0.39241 0.28365 0.66674 0.0
C676 C 0.39441 0.27781 0.39565 0.0
C677 C 0.37592 0.23558 0.30901 0.0
N678 N 0.39262 0.28129 0.58022 0.0
N679 N 0.37567 0.23851 0.39542 0.0
H680 H 0.04412 0.31411 0.54921 0.0
H681 H 0.9812 0.20307 0.39968 0.0
H682 H 0.04628 0.19424 0.38599 0.0
H683 H 0.97937 0.3336 0.53135 0.0
H684 H 1.005 0.19826 0.39537 0.0
H685 H 0.02042 0.32161 0.54279 0.0
C686 C 0.03966 0.28966 0.51101 0.0
C687 C 0.04734 0.25343 0.46809 0.0
C688 C 0.99938 0.22808 0.42475 0.0
C689 C 0.01998 0.26133 0.4621 0.0
C690 C 0.98578 0.23074 0.42761 0.0
C691 C 0.97821 0.26888 0.46568 0.0
C692 C 1.00551 0.26361 0.46093 0.0
C693 C 0.98473 0.30387 0.50016 0.0
C694 C 0.02607 0.29378 0.50797 0.0
C695 C 0.04085 0.22232 0.42128 0.0
N696 N 0.99796 0.30027 0.4973 0.0
N697 N 0.02759 0.22686 0.41988 0.0
H698 H 0.97953 0.7642 0.69404 0.0
H699 H 0.0447 0.76757 0.4193 0.0
H700 H 0.98102 0.7561 0.41977 0.0
H701 H 0.04512 0.74673 0.6915 0.0
H702 H 0.02107 0.76991 0.42032 0.0
H703 H 1.00326 0.76326 0.69634 0.0
C704 C 0.98484 0.76218 0.63436 0.0
C705 C 0.97826 0.75998 0.55661 0.0
C706 C 0.0263 0.76491 0.47995 0.0
C707 C 1.00539 0.75919 0.55876 0.0
C708 C 0.03981 0.76401 0.47954 0.0
C709 C 0.04695 0.75713 0.55551 0.0
C710 C 0.01977 0.75917 0.55697 0.0
C711 C 0.04005 0.7518 0.63135 0.0
C712 C 0.99838 0.76149 0.63574 0.0
C713 C 0.98567 0.75714 0.48128 0.0
N714 N 0.02685 0.75304 0.6302 0.0
N715 N 0.99879 0.75704 0.48425 0.0
H716 H 0.54482 0.80706 0.10373 0.0
H717 H 0.48151 0.73207 0.8788 0.0
H718 H 0.54608 0.72447 0.87522 0.0
H719 H 0.47996 0.81533 0.10653 0.0
H720 H 0.50507 0.73172 0.87355 0.0
H721 H 0.52104 0.81421 0.10163 0.0
C722 C 0.54012 0.79091 0.05241 0.0
C723 C 0.54754 0.76501 0.98961 0.0
C724 C 0.49958 0.75024 0.92453 0.0
C725 C 0.52021 0.77247 0.98773 0.0
C726 C 0.48611 0.75025 0.92788 0.0
C727 C 0.47868 0.77352 0.99356 0.0
C728 C 0.50578 0.77363 0.98738 0.0
C729 C 0.48522 0.79723 0.0543 0.0
C730 C 0.52651 0.79472 0.05168 0.0
C731 C 0.54082 0.74422 0.92568 0.0
N732 N 0.49838 0.79647 0.04998 0.0
N733 N 0.52759 0.74827 0.92659 0.0
H734 H 0.48099 0.18905 0.0674 0.0
H735 H 0.54245 0.33021 0.0608 0.0
H736 H 0.47772 0.33773 0.04254 0.0
H737 H 0.54578 0.18097 0.05706 0.0
H738 H 0.51873 0.33382 0.06378 0.0
H739 H 0.50469 0.18564 0.07339 0.0
C740 C 0.48522 0.22103 0.06317 0.0
C741 C 0.47724 0.26376 0.05432 0.0
C742 C 0.52466 0.30027 0.06266 0.0
C743 C 0.5045 0.26006 0.06199 0.0
C744 C 0.53824 0.29816 0.06058 0.0
C745 C 0.54624 0.2552 0.05858 0.0
C746 C 0.51894 0.25916 0.06281 0.0
C747 C 0.54011 0.21491 0.05984 0.0
C748 C 0.49878 0.21904 0.06698 0.0
C749 C 0.48337 0.304 0.05065 0.0
N750 N 0.52688 0.2179 0.06164 0.0
N751 N 0.49659 0.30114 0.05425 0.0
loop_
_geom_bond_atom_site_label_1
_geom_bond_atom_site_label_2
_geom_bond_distance
_geom_bond_site_symmetry_2
_ccdc_geom_bond_type
Gd0 C3 2.818 . S
Gd0 O20 2.377 . S
Gd0 O22 2.448 . S
Gd0 O23 2.506 . S
Gd0 O24 2.435 . S
Gd0 O25 2.717 . S
Gd0 O27 2.395 . S
Gd0 O31 2.327 . S
Gd1 C12 2.818 . S
Gd1 O21 2.395 . S
Gd1 O25 2.327 . S
Gd1 O26 2.377 . S
Gd1 O28 2.448 . S
Gd1 O29 2.506 . S
Gd1 O30 2.435 . S
Gd1 O31 2.717 . S
C2 O20 1.240 . S
C2 O21 1.240 . S
C3 Gd0 2.818 . S
C3 C4 1.510 . S
C3 O22 1.249 . S
C3 O23 1.252 . S
C4 C3 1.510 . S
C4 C5 1.404 . S
C4 C6 1.352 . S
C5 C4 1.404 . S
C5 C9 1.389 . S
C5 H32 0.930 . S
C6 C4 1.352 . S
C6 C8 1.374 . S
C6 H33 0.931 . S
C7 C8 1.359 . S
C7 C9 1.364 . S
C8 C6 1.374 . S
C8 C7 1.359 . S
C8 H34 0.931 . S
C9 C5 1.389 . S
C9 C7 1.364 . S
C9 H35 0.931 . S
C10 O24 1.256 . S
C10 O25 1.257 . S
C11 O26 1.240 . S
C11 O27 1.240 . S
C12 Gd1 2.818 . S
C12 C13 1.510 . S
C12 O28 1.249 . S
C12 O29 1.252 . S
C13 C12 1.510 . S
C13 C14 1.404 . S
C13 C15 1.352 . S
C14 C13 1.404 . S
C14 C18 1.389 . S
C14 H36 0.930 . S
C15 C13 1.352 . S
C15 C17 1.374 . S
C15 H37 0.931 . S
C16 C17 1.359 . S
C16 C18 1.364 . S
C17 C15 1.374 . S
C17 C16 1.359 . S
C17 H38 0.931 . S
C18 C14 1.389 . S
C18 C16 1.364 . S
C18 H39 0.931 . S
C19 O30 1.256 . S
C19 O31 1.257 . S
O20 Gd0 2.377 . S
O20 C2 1.240 . S
O21 Gd1 2.395 . S
O21 C2 1.240 . S
O22 Gd0 2.448 . S
O22 C3 1.249 . S
O23 Gd0 2.506 . S
O23 C3 1.252 . S
O24 Gd0 2.435 . S
O24 C10 1.256 . S
O25 Gd0 2.717 . S
O25 Gd1 2.327 . S
O25 C10 1.257 . S
O26 Gd1 2.377 . S
O26 C11 1.240 . S
O27 Gd0 2.395 . S
O27 C11 1.240 . S
O28 Gd1 2.448 . S
O28 C12 1.249 . S
O29 Gd1 2.506 . S
O29 C12 1.252 . S
O30 Gd1 2.435 . S
O30 C19 1.256 . S
O31 Gd0 2.327 . S
O31 Gd1 2.717 . S
O31 C19 1.257 . S
H32 C5 0.930 . S
H33 C6 0.931 . S
H34 C8 0.931 . S
H35 C9 0.931 . S
H36 C14 0.930 . S
H37 C15 0.931 . S
H38 C17 0.931 . S
H39 C18 0.931 . S
Gd40 C43 2.818 . S
Gd40 O60 2.377 . S
Gd40 O62 2.448 . S
Gd40 O63 2.506 . S
Gd40 O64 2.435 . S
Gd40 O65 2.717 . S
Gd40 O67 2.395 . S
Gd40 O71 2.327 . S
Gd41 C52 2.818 . S
Gd41 O61 2.395 . S
Gd41 O65 2.327 . S
Gd41 O66 2.377 . S
Gd41 O68 2.448 . S
Gd41 O69 2.506 . S
Gd41 O70 2.435 . S
Gd41 O71 2.717 . S
C42 O60 1.240 . S
C42 O61 1.240 . S
C43 Gd40 2.818 . S
C43 C44 1.510 . S
C43 O62 1.249 . S
C43 O63 1.252 . S
C44 C43 1.510 . S
C44 C45 1.404 . S
C44 C46 1.352 . S
C45 C44 1.404 . S
C45 C49 1.389 . S
C45 H72 0.930 . S
C46 C44 1.352 . S
C46 C48 1.374 . S
C46 H73 0.931 . S
C47 C48 1.359 . S
C47 C49 1.364 . S
C48 C46 1.374 . S
C48 C47 1.359 . S
C48 H74 0.931 . S
C49 C45 1.389 . S
C49 C47 1.364 . S
C49 H75 0.931 . S
C50 O64 1.256 . S
C50 O65 1.257 . S
C51 O66 1.240 . S
C51 O67 1.240 . S
C52 Gd41 2.818 . S
C52 C53 1.510 . S
C52 O68 1.249 . S
C52 O69 1.252 . S
C53 C52 1.510 . S
C53 C54 1.404 . S
C53 C55 1.352 . S
C54 C53 1.404 . S
C54 C58 1.389 . S
C54 H76 0.930 . S
C55 C53 1.352 . S
C55 C57 1.374 . S
C55 H77 0.931 . S
C56 C57 1.359 . S
C56 C58 1.364 . S
C57 C55 1.374 . S
C57 C56 1.359 . S
C57 H78 0.931 . S
C58 C54 1.389 . S
C58 C56 1.364 . S
C58 H79 0.931 . S
C59 O70 1.256 . S
C59 O71 1.257 . S
O60 Gd40 2.377 . S
O60 C42 1.240 . S
O61 Gd41 2.395 . S
O61 C42 1.240 . S
O62 Gd40 2.448 . S
O62 C43 1.249 . S
O63 Gd40 2.506 . S
O63 C43 1.252 . S
O64 Gd40 2.435 . S
O64 C50 1.256 . S
O65 Gd40 2.717 . S
O65 Gd41 2.327 . S
O65 C50 1.257 . S
O66 Gd41 2.377 . S
O66 C51 1.240 . S
O67 Gd40 2.395 . S
O67 C51 1.240 . S
O68 Gd41 2.448 . S
O68 C52 1.249 . S
O69 Gd41 2.506 . S
O69 C52 1.252 . S
O70 Gd41 2.435 . S
O70 C59 1.256 . S
O71 Gd40 2.327 . S
O71 Gd41 2.717 . S
O71 C59 1.257 . S
H72 C45 0.930 . S
H73 C46 0.931 . S
H74 C48 0.931 . S
H75 C49 0.931 . S
H76 C54 0.930 . S
H77 C55 0.931 . S
H78 C57 0.931 . S
H79 C58 0.931 . S
Gd80 C83 2.818 . S
Gd80 O100 2.377 . S
Gd80 O102 2.448 . S
Gd80 O103 2.506 . S
Gd80 O104 2.435 . S
Gd80 O105 2.717 . S
Gd80 O107 2.395 . S
Gd80 O111 2.327 . S
Gd81 C92 2.818 . S
Gd81 O101 2.395 . S
Gd81 O105 2.327 . S
Gd81 O106 2.377 . S
Gd81 O108 2.448 . S
Gd81 O109 2.506 . S
Gd81 O110 2.435 . S
Gd81 O111 2.717 . S
C82 O100 1.240 . S
C82 O101 1.240 . S
C83 Gd80 2.818 . S
C83 C84 1.510 . S
C83 O102 1.249 . S
C83 O103 1.252 . S
C84 C83 1.510 . S
C84 C85 1.404 . S
C84 C86 1.352 . S
C85 C84 1.404 . S
C85 C89 1.389 . S
C85 H112 0.930 . S
C86 C84 1.352 . S
C86 C88 1.374 . S
C86 H113 0.931 . S
C87 C88 1.359 . S
C87 C89 1.364 . S
C88 C86 1.374 . S
C88 C87 1.359 . S
C88 H114 0.931 . S
C89 C85 1.389 . S
C89 C87 1.364 . S
C89 H115 0.931 . S
C90 O104 1.256 . S
C90 O105 1.257 . S
C91 O106 1.240 . S
C91 O107 1.240 . S
C92 Gd81 2.818 . S
C92 C93 1.510 . S
C92 O108 1.249 . S
C92 O109 1.252 . S
C93 C92 1.510 . S
C93 C94 1.404 . S
C93 C95 1.352 . S
C94 C93 1.404 . S
C94 C98 1.389 . S
C94 H116 0.930 . S
C95 C93 1.352 . S
C95 C97 1.374 . S
C95 H117 0.931 . S
C96 C97 1.359 . S
C96 C98 1.364 . S
C97 C95 1.374 . S
C97 C96 1.359 . S
C97 H118 0.931 . S
C98 C94 1.389 . S
C98 C96 1.364 . S
C98 H119 0.931 . S
C99 O110 1.256 . S
C99 O111 1.257 . S
O100 Gd80 2.377 . S
O100 C82 1.240 . S
O101 Gd81 2.395 . S
O101 C82 1.240 . S
O102 Gd80 2.448 . S
O102 C83 1.249 . S
O103 Gd80 2.506 . S
O103 C83 1.252 . S
O104 Gd80 2.435 . S
O104 C90 1.256 . S
O105 Gd80 2.717 . S
O105 Gd81 2.327 . S
O105 C90 1.257 . S
O106 Gd81 2.377 . S
O106 C91 1.240 . S
O107 Gd80 2.395 . S
O107 C91 1.240 . S
O108 Gd81 2.448 . S
O108 C92 1.249 . S
O109 Gd81 2.506 . S
O109 C92 1.252 . S
O110 Gd81 2.435 . S
O110 C99 1.256 . S
O111 Gd80 2.327 . S
O111 Gd81 2.717 . S
O111 C99 1.257 . S
H112 C85 0.930 . S
H113 C86 0.931 . S
H114 C88 0.931 . S
H115 C89 0.931 . S
H116 C94 0.930 . S
H117 C95 0.931 . S
H118 C97 0.931 . S
H119 C98 0.931 . S
Gd120 C123 2.818 . S
Gd120 O140 2.377 . S
Gd120 O142 2.448 . S
Gd120 O143 2.506 . S
Gd120 O144 2.435 . S
Gd120 O145 2.717 . S
Gd120 O147 2.395 . S
Gd120 O151 2.327 . S
Gd121 C132 2.818 . S
Gd121 O141 2.395 . S
Gd121 O145 2.327 . S
Gd121 O146 2.377 . S
Gd121 O148 2.448 . S
Gd121 O149 2.506 . S
Gd121 O150 2.435 . S
Gd121 O151 2.717 . S
C122 O140 1.240 . S
C122 O141 1.240 . S
C123 Gd120 2.818 . S
C123 C124 1.510 . S
C123 O142 1.249 . S
C123 O143 1.252 . S
C124 C123 1.510 . S
C124 C125 1.404 . S
C124 C126 1.352 . S
C125 C124 1.404 . S
C125 C129 1.389 . S
C125 H152 0.930 . S
C126 C124 1.352 . S
C126 C128 1.374 . S
C126 H153 0.931 . S
C127 C128 1.359 . S
C127 C129 1.364 . S
C128 C126 1.374 . S
C128 C127 1.359 . S
C128 H154 0.931 . S
C129 C125 1.389 . S
C129 C127 1.364 . S
C129 H155 0.931 . S
C130 O144 1.256 . S
C130 O145 1.257 . S
C131 O146 1.240 . S
C131 O147 1.240 . S
C132 Gd121 2.818 . S
C132 C133 1.510 . S
C132 O148 1.249 . S
C132 O149 1.252 . S
C133 C132 1.510 . S
C133 C134 1.404 . S
C133 C135 1.352 . S
C134 C133 1.404 . S
C134 C138 1.389 . S
C134 H156 0.930 . S
C135 C133 1.352 . S
C135 C137 1.374 . S
C135 H157 0.931 . S
C136 C137 1.359 . S
C136 C138 1.364 . S
C137 C135 1.374 . S
C137 C136 1.359 . S
C137 H158 0.931 . S
C138 C134 1.389 . S
C138 C136 1.364 . S
C138 H159 0.931 . S
C139 O150 1.256 . S
C139 O151 1.257 . S
O140 Gd120 2.377 . S
O140 C122 1.240 . S
O141 Gd121 2.395 . S
O141 C122 1.240 . S
O142 Gd120 2.448 . S
O142 C123 1.249 . S
O143 Gd120 2.506 . S
O143 C123 1.252 . S
O144 Gd120 2.435 . S
O144 C130 1.256 . S
O145 Gd120 2.717 . S
O145 Gd121 2.327 . S
O145 C130 1.257 . S
O146 Gd121 2.377 . S
O146 C131 1.240 . S
O147 Gd120 2.395 . S
O147 C131 1.240 . S
O148 Gd121 2.448 . S
O148 C132 1.249 . S
O149 Gd121 2.506 . S
O149 C132 1.252 . S
O150 Gd121 2.435 . S
O150 C139 1.256 . S
O151 Gd120 2.327 . S
O151 Gd121 2.717 . S
O151 C139 1.257 . S
H152 C125 0.930 . S
H153 C126 0.931 . S
H154 C128 0.931 . S
H155 C129 0.931 . S
H156 C134 0.930 . S
H157 C135 0.931 . S
H158 C137 0.931 . S
H159 C138 0.931 . S
Gd160 C163 2.818 1_556 S
Gd160 O180 2.377 1_556 S
Gd160 O182 2.448 1_556 S
Gd160 O183 2.506 1_556 S
Gd160 O184 2.435 . S
Gd160 O185 2.717 . S
Gd160 O187 2.395 . S
Gd160 O191 2.327 1_556 S
Gd161 C172 2.818 1_554 S
Gd161 O181 2.395 . S
Gd161 O185 2.327 1_554 S
Gd161 O186 2.377 1_554 S
Gd161 O188 2.448 1_554 S
Gd161 O189 2.506 1_554 S
Gd161 O190 2.435 . S
Gd161 O191 2.717 . S
C162 O180 1.240 . S
C162 O181 1.240 . S
C163 Gd160 2.818 1_554 S
C163 C164 1.510 . S
C163 O182 1.249 . S
C163 O183 1.252 . S
C164 C163 1.510 . S
C164 C165 1.404 . S
C164 C166 1.352 . S
C165 C164 1.404 . S
C165 C169 1.389 . S
C165 H192 0.930 . S
C166 C164 1.352 . S
C166 C168 1.374 . S
C166 H193 0.931 . S
C167 C168 1.359 . S
C167 C169 1.364 . S
C168 C166 1.374 . S
C168 C167 1.359 . S
C168 H194 0.931 . S
C169 C165 1.389 . S
C169 C167 1.364 . S
C169 H195 0.931 . S
C170 O184 1.256 . S
C170 O185 1.257 . S
C171 O186 1.240 . S
C171 O187 1.240 . S
C172 Gd161 2.818 1_556 S
C172 C173 1.510 . S
C172 O188 1.249 . S
C172 O189 1.252 . S
C173 C172 1.510 . S
C173 C174 1.404 . S
C173 C175 1.352 . S
C174 C173 1.404 . S
C174 C178 1.389 . S
C174 H196 0.930 . S
C175 C173 1.352 . S
C175 C177 1.374 . S
C175 H197 0.931 . S
C176 C177 1.359 . S
C176 C178 1.364 . S
C177 C175 1.374 . S
C177 C176 1.359 . S
C177 H198 0.931 . S
C178 C174 1.389 . S
C178 C176 1.364 . S
C178 H199 0.931 . S
C179 O190 1.256 . S
C179 O191 1.257 . S
O180 Gd160 2.377 1_554 S
O180 C162 1.240 . S
O181 Gd161 2.395 . S
O181 C162 1.240 . S
O182 Gd160 2.448 1_554 S
O182 C163 1.249 . S
O183 Gd160 2.506 1_554 S
O183 C163 1.252 . S
O184 Gd160 2.435 . S
O184 C170 1.256 . S
O185 Gd160 2.717 . S
O185 Gd161 2.327 1_556 S
O185 C170 1.257 . S
O186 Gd161 2.377 1_556 S
O186 C171 1.240 . S
O187 Gd160 2.395 . S
O187 C171 1.240 . S
O188 Gd161 2.448 1_556 S
O188 C172 1.249 . S
O189 Gd161 2.506 1_556 S
O189 C172 1.252 . S
O190 Gd161 2.435 . S
O190 C179 1.256 . S
O191 Gd160 2.327 1_554 S
O191 Gd161 2.717 . S
O191 C179 1.257 . S
H192 C165 0.930 . S
H193 C166 0.931 . S
H194 C168 0.931 . S
H195 C169 0.931 . S
H196 C174 0.930 . S
H197 C175 0.931 . S
H198 C177 0.931 . S
H199 C178 0.931 . S
Gd200 C203 2.818 1_556 S
Gd200 O220 2.377 1_556 S
Gd200 O222 2.448 1_556 S
Gd200 O223 2.506 1_556 S
Gd200 O224 2.435 . S
Gd200 O225 2.717 . S
Gd200 O227 2.395 . S
Gd200 O231 2.327 1_556 S
Gd201 C212 2.818 1_554 S
Gd201 O221 2.395 . S
Gd201 O225 2.327 1_554 S
Gd201 O226 2.377 1_554 S
Gd201 O228 2.448 1_554 S
Gd201 O229 2.506 1_554 S
Gd201 O230 2.435 . S
Gd201 O231 2.717 . S
C202 O220 1.240 . S
C202 O221 1.240 . S
C203 Gd200 2.818 1_554 S
C203 C204 1.510 . S
C203 O222 1.249 . S
C203 O223 1.252 . S
C204 C203 1.510 . S
C204 C205 1.404 . S
C204 C206 1.352 . S
C205 C204 1.404 . S
C205 C209 1.389 . S
C205 H232 0.930 . S
C206 C204 1.352 . S
C206 C208 1.374 . S
C206 H233 0.931 . S
C207 C208 1.359 . S
C207 C209 1.364 . S
C208 C206 1.374 . S
C208 C207 1.359 . S
C208 H234 0.931 . S
C209 C205 1.389 . S
C209 C207 1.364 . S
C209 H235 0.931 . S
C210 O224 1.256 . S
C210 O225 1.257 . S
C211 O226 1.240 . S
C211 O227 1.240 . S
C212 Gd201 2.818 1_556 S
C212 C213 1.510 . S
C212 O228 1.249 . S
C212 O229 1.252 . S
C213 C212 1.510 . S
C213 C214 1.404 . S
C213 C215 1.352 . S
C214 C213 1.404 . S
C214 C218 1.389 . S
C214 H236 0.930 . S
C215 C213 1.352 . S
C215 C217 1.374 . S
C215 H237 0.931 . S
C216 C217 1.359 . S
C216 C218 1.364 . S
C217 C215 1.374 . S
C217 C216 1.359 . S
C217 H238 0.931 . S
C218 C214 1.389 . S
C218 C216 1.364 . S
C218 H239 0.931 . S
C219 O230 1.256 . S
C219 O231 1.257 . S
O220 Gd200 2.377 1_554 S
O220 C202 1.240 . S
O221 Gd201 2.395 . S
O221 C202 1.240 . S
O222 Gd200 2.448 1_554 S
O222 C203 1.249 . S
O223 Gd200 2.506 1_554 S
O223 C203 1.252 . S
O224 Gd200 2.435 . S
O224 C210 1.256 . S
O225 Gd200 2.717 . S
O225 Gd201 2.327 1_556 S
O225 C210 1.257 . S
O226 Gd201 2.377 1_556 S
O226 C211 1.240 . S
O227 Gd200 2.395 . S
O227 C211 1.240 . S
O228 Gd201 2.448 1_556 S
O228 C212 1.249 . S
O229 Gd201 2.506 1_556 S
O229 C212 1.252 . S
O230 Gd201 2.435 . S
O230 C219 1.256 . S
O231 Gd200 2.327 1_554 S
O231 Gd201 2.717 . S
O231 C219 1.257 . S
H232 C205 0.930 . S
H233 C206 0.931 . S
H234 C208 0.931 . S
H235 C209 0.931 . S
H236 C214 0.930 . S
H237 C215 0.931 . S
H238 C217 0.931 . S
H239 C218 0.931 . S
Gd240 C243 2.818 1_556 S
Gd240 O260 2.377 1_556 S
Gd240 O262 2.448 1_556 S
Gd240 O263 2.506 1_556 S
Gd240 O264 2.435 . S
Gd240 O265 2.717 . S
Gd240 O267 2.395 . S
Gd240 O271 2.327 1_556 S
Gd241 C252 2.818 1_554 S
Gd241 O261 2.395 . S
Gd241 O265 2.327 1_554 S
Gd241 O266 2.377 1_554 S
Gd241 O268 2.448 1_554 S
Gd241 O269 2.506 1_554 S
Gd241 O270 2.435 . S
Gd241 O271 2.717 . S
C242 O260 1.240 . S
C242 O261 1.240 . S
C243 Gd240 2.818 1_554 S
C243 C244 1.510 . S
C243 O262 1.249 . S
C243 O263 1.252 . S
C244 C243 1.510 . S
C244 C245 1.404 . S
C244 C246 1.352 . S
C245 C244 1.404 . S
C245 C249 1.389 . S
C245 H272 0.930 . S
C246 C244 1.352 . S
C246 C248 1.374 . S
C246 H273 0.931 . S
C247 C248 1.359 . S
C247 C249 1.364 . S
C248 C246 1.374 . S
C248 C247 1.359 . S
C248 H274 0.931 . S
C249 C245 1.389 . S
C249 C247 1.364 . S
C249 H275 0.931 . S
C250 O264 1.256 . S
C250 O265 1.257 . S
C251 O266 1.240 . S
C251 O267 1.240 . S
C252 Gd241 2.818 1_556 S
C252 C253 1.510 . S
C252 O268 1.249 . S
C252 O269 1.252 . S
C253 C252 1.510 . S
C253 C254 1.404 . S
C253 C255 1.352 . S
C254 C253 1.404 . S
C254 C258 1.389 . S
C254 H276 0.930 . S
C255 C253 1.352 . S
C255 C257 1.374 . S
C255 H277 0.931 . S
C256 C257 1.359 . S
C256 C258 1.364 . S
C257 C255 1.374 . S
C257 C256 1.359 . S
C257 H278 0.931 . S
C258 C254 1.389 . S
C258 C256 1.364 . S
C258 H279 0.931 . S
C259 O270 1.256 . S
C259 O271 1.257 . S
O260 Gd240 2.377 1_554 S
O260 C242 1.240 . S
O261 Gd241 2.395 . S
O261 C242 1.240 . S
O262 Gd240 2.448 1_554 S
O262 C243 1.249 . S
O263 Gd240 2.506 1_554 S
O263 C243 1.252 . S
O264 Gd240 2.435 . S
O264 C250 1.256 . S
O265 Gd240 2.717 . S
O265 Gd241 2.327 1_556 S
O265 C250 1.257 . S
O266 Gd241 2.377 1_556 S
O266 C251 1.240 . S
O267 Gd240 2.395 . S
O267 C251 1.240 . S
O268 Gd241 2.448 1_556 S
O268 C252 1.249 . S
O269 Gd241 2.506 1_556 S
O269 C252 1.252 . S
O270 Gd241 2.435 . S
O270 C259 1.256 . S
O271 Gd240 2.327 1_554 S
O271 Gd241 2.717 . S
O271 C259 1.257 . S
H272 C245 0.930 . S
H273 C246 0.931 . S
H274 C248 0.931 . S
H275 C249 0.931 . S
H276 C254 0.930 . S
H277 C255 0.931 . S
H278 C257 0.931 . S
H279 C258 0.931 . S
Gd280 C283 2.818 1_556 S
Gd280 O300 2.377 1_556 S
Gd280 O302 2.448 1_556 S
Gd280 O303 2.506 1_556 S
Gd280 O304 2.435 . S
Gd280 O305 2.717 . S
Gd280 O307 2.395 . S
Gd280 O311 2.327 1_556 S
Gd281 C292 2.818 1_554 S
Gd281 O301 2.395 . S
Gd281 O305 2.327 1_554 S
Gd281 O306 2.377 1_554 S
Gd281 O308 2.448 1_554 S
Gd281 O309 2.506 1_554 S
Gd281 O310 2.435 . S
Gd281 O311 2.717 . S
C282 O300 1.240 . S
C282 O301 1.240 . S
C283 Gd280 2.818 1_554 S
C283 C284 1.510 . S
C283 O302 1.249 . S
C283 O303 1.252 . S
C284 C283 1.510 . S
C284 C285 1.404 . S
C284 C286 1.352 . S
C285 C284 1.404 . S
C285 C289 1.389 . S
C285 H312 0.930 . S
C286 C284 1.352 . S
C286 C288 1.374 . S
C286 H313 0.931 . S
C287 C288 1.359 . S
C287 C289 1.364 . S
C288 C286 1.374 . S
C288 C287 1.359 . S
C288 H314 0.931 . S
C289 C285 1.389 . S
C289 C287 1.364 . S
C289 H315 0.931 . S
C290 O304 1.256 . S
C290 O305 1.257 . S
C291 O306 1.240 . S
C291 O307 1.240 . S
C292 Gd281 2.818 1_556 S
C292 C293 1.510 . S
C292 O308 1.249 . S
C292 O309 1.252 . S
C293 C292 1.510 . S
C293 C294 1.404 . S
C293 C295 1.352 . S
C294 C293 1.404 . S
C294 C298 1.389 . S
C294 H316 0.930 . S
C295 C293 1.352 . S
C295 C297 1.374 . S
C295 H317 0.931 . S
C296 C297 1.359 . S
C296 C298 1.364 . S
C297 C295 1.374 . S
C297 C296 1.359 . S
C297 H318 0.931 . S
C298 C294 1.389 . S
C298 C296 1.364 . S
C298 H319 0.931 . S
C299 O310 1.256 . S
C299 O311 1.257 . S
O300 Gd280 2.377 1_554 S
O300 C282 1.240 . S
O301 Gd281 2.395 . S
O301 C282 1.240 . S
O302 Gd280 2.448 1_554 S
O302 C283 1.249 . S
O303 Gd280 2.506 1_554 S
O303 C283 1.252 . S
O304 Gd280 2.435 . S
O304 C290 1.256 . S
O305 Gd280 2.717 . S
O305 Gd281 2.327 1_556 S
O305 C290 1.257 . S
O306 Gd281 2.377 1_556 S
O306 C291 1.240 . S
O307 Gd280 2.395 . S
O307 C291 1.240 . S
O308 Gd281 2.448 1_556 S
O308 C292 1.249 . S
O309 Gd281 2.506 1_556 S
O309 C292 1.252 . S
O310 Gd281 2.435 . S
O310 C299 1.256 . S
O311 Gd280 2.327 1_554 S
O311 Gd281 2.717 . S
O311 C299 1.257 . S
H312 C285 0.930 . S
H313 C286 0.931 . S
H314 C288 0.931 . S
H315 C289 0.931 . S
H316 C294 0.930 . S
H317 C295 0.931 . S
H318 C297 0.931 . S
H319 C298 0.931 . S
H320 C326 0.930 . S
H321 C330 0.930 . S
H322 C335 0.929 . S
H323 C333 0.929 . S
H324 C328 0.929 . S
H325 C334 0.929 . S
C326 H320 0.930 . S
C326 C327 1.367 . S
C326 C334 1.378 . S
C327 C326 1.367 . S
C327 C335 1.433 . S
C328 H324 0.929 . S
C328 C330 1.378 . S
C328 C332 1.350 . S
C329 C332 1.463 . S
C329 C334 1.350 . S
C329 N337 1.427 . S
C330 H321 0.930 . S
C330 C328 1.378 . S
C330 C331 1.367 . S
C331 C330 1.367 . S
C331 C333 1.433 . S
C332 C328 1.350 . S
C332 C329 1.463 . S
C332 N336 1.427 . S
C333 H323 0.929 . S
C333 C331 1.433 . S
C333 N336 1.384 . S
C334 H325 0.929 . S
C334 C326 1.378 . S
C334 C329 1.350 . S
C335 H322 0.929 . S
C335 C327 1.433 . S
C335 N337 1.384 . S
N336 C332 1.427 . S
N336 C333 1.384 . S
N337 C329 1.427 . S
N337 C335 1.384 . S
H338 C344 0.930 . S
H339 C348 0.930 . S
H340 C353 0.929 . S
H341 C351 0.929 . S
H342 C346 0.929 . S
H343 C352 0.929 . S
C344 H338 0.930 . S
C344 C345 1.367 . S
C344 C352 1.378 . S
C345 C344 1.367 . S
C345 C353 1.433 . S
C346 H342 0.929 . S
C346 C348 1.378 . S
C346 C350 1.350 . S
C347 C350 1.463 . S
C347 C352 1.350 . S
C347 N355 1.427 . S
C348 H339 0.930 . S
C348 C346 1.378 . S
C348 C349 1.367 . S
C349 C348 1.367 . S
C349 C351 1.433 . S
C350 C346 1.350 . S
C350 C347 1.463 . S
C350 N354 1.427 . S
C351 H341 0.929 . S
C351 C349 1.433 . S
C351 N354 1.384 . S
C352 H343 0.929 . S
C352 C344 1.378 . S
C352 C347 1.350 . S
C353 H340 0.929 . S
C353 C345 1.433 . S
C353 N355 1.384 . S
N354 C350 1.427 . S
N354 C351 1.384 . S
N355 C347 1.427 . S
N355 C353 1.384 . S
H356 C362 0.930 . S
H357 C366 0.930 . S
H358 C371 0.929 . S
H359 C369 0.929 . S
H360 C364 0.929 . S
H361 C370 0.929 . S
C362 H356 0.930 . S
C362 C363 1.367 . S
C362 C370 1.378 . S
C363 C362 1.367 . S
C363 C371 1.433 . S
C364 H360 0.929 . S
C364 C366 1.378 . S
C364 C368 1.350 . S
C365 C368 1.463 . S
C365 C370 1.350 . S
C365 N373 1.427 . S
C366 H357 0.930 . S
C366 C364 1.378 . S
C366 C367 1.367 . S
C367 C366 1.367 . S
C367 C369 1.433 . S
C368 C364 1.350 . S
C368 C365 1.463 . S
C368 N372 1.427 . S
C369 H359 0.929 . S
C369 C367 1.433 . S
C369 N372 1.384 . S
C370 H361 0.929 . S
C370 C362 1.378 . S
C370 C365 1.350 . S
C371 H358 0.929 . S
C371 C363 1.433 . S
C371 N373 1.384 . S
N372 C368 1.427 . S
N372 C369 1.384 . S
N373 C365 1.427 . S
N373 C371 1.384 . S
H374 C380 0.930 . S
H375 C384 0.930 . S
H376 C389 0.929 . S
H377 C387 0.929 . S
H378 C382 0.929 . S
H379 C388 0.929 . S
C380 H374 0.930 . S
C380 C381 1.367 . S
C380 C388 1.378 . S
C381 C380 1.367 . S
C381 C389 1.433 . S
C382 H378 0.929 . S
C382 C384 1.378 . S
C382 C386 1.350 . S
C383 C386 1.463 . S
C383 C388 1.350 . S
C383 N391 1.427 . S
C384 H375 0.930 . S
C384 C382 1.378 . S
C384 C385 1.367 . S
C385 C384 1.367 . S
C385 C387 1.433 . S
C386 C382 1.350 . S
C386 C383 1.463 . S
C386 N390 1.427 . S
C387 H377 0.929 . S
C387 C385 1.433 . S
C387 N390 1.384 . S
C388 H379 0.929 . S
C388 C380 1.378 . S
C388 C383 1.350 . S
C389 H376 0.929 . S
C389 C381 1.433 . S
C389 N391 1.384 . S
N390 C386 1.427 . S
N390 C387 1.384 . S
N391 C383 1.427 . S
N391 C389 1.384 . S
H392 C398 0.930 . S
H393 C402 0.930 . S
H394 C407 0.929 . S
H395 C405 0.929 . S
H396 C400 0.929 . S
H397 C406 0.929 . S
C398 H392 0.930 . S
C398 C399 1.367 . S
C398 C406 1.378 . S
C399 C398 1.367 . S
C399 C407 1.433 . S
C400 H396 0.929 . S
C400 C402 1.378 . S
C400 C404 1.350 . S
C401 C404 1.463 1_565 S
C401 C406 1.350 . S
C401 N409 1.427 . S
C402 H393 0.930 . S
C402 C400 1.378 . S
C402 C403 1.367 . S
C403 C402 1.367 . S
C403 C405 1.433 . S
C404 C400 1.350 . S
C404 C401 1.463 1_545 S
C404 N408 1.427 . S
C405 H395 0.929 . S
C405 C403 1.433 . S
C405 N408 1.384 . S
C406 H397 0.929 . S
C406 C398 1.378 . S
C406 C401 1.350 . S
C407 H394 0.929 . S
C407 C399 1.433 . S
C407 N409 1.384 . S
N408 C404 1.427 . S
N408 C405 1.384 . S
N409 C401 1.427 . S
N409 C407 1.384 . S
H410 C416 0.930 . S
H411 C420 0.930 . S
H412 C425 0.929 . S
H413 C423 0.929 . S
H414 C418 0.929 . S
H415 C424 0.929 . S
C416 H410 0.930 . S
C416 C417 1.367 . S
C416 C424 1.378 . S
C417 C416 1.367 . S
C417 C425 1.433 . S
C418 H414 0.929 . S
C418 C420 1.378 . S
C418 C422 1.350 . S
C419 C422 1.463 . S
C419 C424 1.350 . S
C419 N427 1.427 . S
C420 H411 0.930 . S
C420 C418 1.378 . S
C420 C421 1.367 . S
C421 C420 1.367 . S
C421 C423 1.433 . S
C422 C418 1.350 . S
C422 C419 1.463 . S
C422 N426 1.427 . S
C423 H413 0.929 . S
C423 C421 1.433 . S
C423 N426 1.384 . S
C424 H415 0.929 . S
C424 C416 1.378 . S
C424 C419 1.350 . S
C425 H412 0.929 . S
C425 C417 1.433 . S
C425 N427 1.384 . S
N426 C422 1.427 . S
N426 C423 1.384 . S
N427 C419 1.427 . S
N427 C425 1.384 . S
H428 C434 0.930 . S
H429 C438 0.930 . S
H430 C443 0.929 . S
H431 C441 0.929 . S
H432 C436 0.929 . S
H433 C442 0.929 . S
C434 H428 0.930 . S
C434 C435 1.367 . S
C434 C442 1.378 . S
C435 C434 1.367 . S
C435 C443 1.433 . S
C436 H432 0.929 . S
C436 C438 1.378 . S
C436 C440 1.350 . S
C437 C440 1.463 1_565 S
C437 C442 1.350 . S
C437 N445 1.427 . S
C438 H429 0.930 . S
C438 C436 1.378 . S
C438 C439 1.367 . S
C439 C438 1.367 . S
C439 C441 1.433 . S
C440 C436 1.350 . S
C440 C437 1.463 1_545 S
C440 N444 1.427 . S
C441 H431 0.929 . S
C441 C439 1.433 . S
C441 N444 1.384 . S
C442 H433 0.929 . S
C442 C434 1.378 . S
C442 C437 1.350 . S
C443 H430 0.929 . S
C443 C435 1.433 . S
C443 N445 1.384 . S
N444 C440 1.427 . S
N444 C441 1.384 . S
N445 C437 1.427 . S
N445 C443 1.384 . S
H446 C452 0.930 . S
H447 C456 0.930 . S
H448 C461 0.929 . S
H449 C459 0.929 . S
H450 C454 0.929 . S
H451 C460 0.929 . S
C452 H446 0.930 . S
C452 C453 1.367 . S
C452 C460 1.378 . S
C453 C452 1.367 . S
C453 C461 1.433 . S
C454 H450 0.929 . S
C454 C456 1.378 . S
C454 C458 1.350 . S
C455 C458 1.463 . S
C455 C460 1.350 . S
C455 N463 1.427 . S
C456 H447 0.930 . S
C456 C454 1.378 . S
C456 C457 1.367 . S
C457 C456 1.367 . S
C457 C459 1.433 . S
C458 C454 1.350 . S
C458 C455 1.463 . S
C458 N462 1.427 . S
C459 H449 0.929 . S
C459 C457 1.433 . S
C459 N462 1.384 . S
C460 H451 0.929 . S
C460 C452 1.378 . S
C460 C455 1.350 . S
C461 H448 0.929 . S
C461 C453 1.433 . S
C461 N463 1.384 . S
N462 C458 1.427 . S
N462 C459 1.384 . S
N463 C455 1.427 . S
N463 C461 1.384 . S
H464 C470 0.930 . S
H465 C474 0.930 . S
H466 C479 0.929 . S
H467 C477 0.929 . S
H468 C472 0.929 . S
H469 C478 0.929 . S
C470 H464 0.930 . S
C470 C471 1.367 . S
C470 C478 1.378 . S
C471 C470 1.367 . S
C471 C479 1.433 1_556 S
C472 H468 0.929 . S
C472 C474 1.378 . S
C472 C476 1.350 1_554 S
C473 C476 1.463 . S
C473 C478 1.350 . S
C473 N481 1.427 1_556 S
C474 H465 0.930 . S
C474 C472 1.378 . S
C474 C475 1.367 1_554 S
C475 C474 1.367 1_556 S
C475 C477 1.433 . S
C476 C472 1.350 1_556 S
C476 C473 1.463 . S
C476 N480 1.427 . S
C477 H467 0.929 . S
C477 C475 1.433 . S
C477 N480 1.384 . S
C478 H469 0.929 . S
C478 C470 1.378 . S
C478 C473 1.350 . S
C479 H466 0.929 . S
C479 C471 1.433 1_554 S
C479 N481 1.384 . S
N480 C476 1.427 . S
N480 C477 1.384 . S
N481 C473 1.427 1_554 S
N481 C479 1.384 . S
H482 C488 0.930 . S
H483 C492 0.930 . S
H484 C497 0.929 . S
H485 C495 0.929 . S
H486 C490 0.929 . S
H487 C496 0.929 . S
C488 H482 0.930 . S
C488 C489 1.367 . S
C488 C496 1.378 . S
C489 C488 1.367 . S
C489 C497 1.433 1_556 S
C490 H486 0.929 . S
C490 C492 1.378 . S
C490 C494 1.350 1_554 S
C491 C494 1.463 1_565 S
C491 C496 1.350 . S
C491 N499 1.427 1_556 S
C492 H483 0.930 . S
C492 C490 1.378 . S
C492 C493 1.367 1_554 S
C493 C492 1.367 1_556 S
C493 C495 1.433 . S
C494 C490 1.350 1_556 S
C494 C491 1.463 1_545 S
C494 N498 1.427 . S
C495 H485 0.929 . S
C495 C493 1.433 . S
C495 N498 1.384 . S
C496 H487 0.929 . S
C496 C488 1.378 . S
C496 C491 1.350 . S
C497 H484 0.929 . S
C497 C489 1.433 1_554 S
C497 N499 1.384 . S
N498 C494 1.427 . S
N498 C495 1.384 . S
N499 C491 1.427 1_554 S
N499 C497 1.384 . S
H500 C506 0.930 . S
H501 C510 0.930 . S
H502 C515 0.929 . S
H503 C513 0.929 . S
H504 C508 0.929 . S
H505 C514 0.929 . S
C506 H500 0.930 . S
C506 C507 1.367 . S
C506 C514 1.378 . S
C507 C506 1.367 . S
C507 C515 1.433 1_554 S
C508 H504 0.929 . S
C508 C510 1.378 . S
C508 C512 1.350 1_556 S
C509 C512 1.463 . S
C509 C514 1.350 . S
C509 N517 1.427 1_554 S
C510 H501 0.930 . S
C510 C508 1.378 . S
C510 C511 1.367 1_556 S
C511 C510 1.367 1_554 S
C511 C513 1.433 . S
C512 C508 1.350 1_554 S
C512 C509 1.463 . S
C512 N516 1.427 . S
C513 H503 0.929 . S
C513 C511 1.433 . S
C513 N516 1.384 . S
C514 H505 0.929 . S
C514 C506 1.378 . S
C514 C509 1.350 . S
C515 H502 0.929 . S
C515 C507 1.433 1_556 S
C515 N517 1.384 . S
N516 C512 1.427 . S
N516 C513 1.384 . S
N517 C509 1.427 1_556 S
N517 C515 1.384 . S
H518 C524 0.930 . S
H519 C528 0.930 . S
H520 C533 0.929 . S
H521 C531 0.929 . S
H522 C526 0.929 . S
H523 C532 0.929 . S
C524 H518 0.930 . S
C524 C525 1.367 . S
C524 C532 1.378 . S
C525 C524 1.367 . S
C525 C533 1.433 1_554 S
C526 H522 0.929 . S
C526 C528 1.378 . S
C526 C530 1.350 1_556 S
C527 C530 1.463 1_545 S
C527 C532 1.350 . S
C527 N535 1.427 1_554 S
C528 H519 0.930 . S
C528 C526 1.378 . S
C528 C529 1.367 1_556 S
C529 C528 1.367 1_554 S
C529 C531 1.433 . S
C530 C526 1.350 1_554 S
C530 C527 1.463 1_565 S
C530 N534 1.427 . S
C531 H521 0.929 . S
C531 C529 1.433 . S
C531 N534 1.384 . S
C532 H523 0.929 . S
C532 C524 1.378 . S
C532 C527 1.350 . S
C533 H520 0.929 . S
C533 C525 1.433 1_556 S
C533 N535 1.384 . S
N534 C530 1.427 . S
N534 C531 1.384 . S
N535 C527 1.427 1_556 S
N535 C533 1.384 . S
H536 C542 0.930 . S
H537 C546 0.930 . S
H538 C551 0.929 . S
H539 C549 0.929 . S
H540 C544 0.929 . S
H541 C550 0.929 1_556 S
C542 H536 0.930 . S
C542 C543 1.367 . S
C542 C550 1.378 . S
C543 C542 1.367 . S
C543 C551 1.433 . S
C544 H540 0.929 . S
C544 C546 1.378 . S
C544 C548 1.350 . S
C545 C548 1.463 . S
C545 C550 1.350 1_556 S
C545 N553 1.427 1_556 S
C546 H537 0.930 . S
C546 C544 1.378 . S
C546 C547 1.367 . S
C547 C546 1.367 . S
C547 C549 1.433 . S
C548 C544 1.350 . S
C548 C545 1.463 . S
C548 N552 1.427 . S
C549 H539 0.929 . S
C549 C547 1.433 . S
C549 N552 1.384 . S
C550 H541 0.929 1_554 S
C550 C542 1.378 . S
C550 C545 1.350 1_554 S
C551 H538 0.929 . S
C551 C543 1.433 . S
C551 N553 1.384 . S
N552 C548 1.427 . S
N552 C549 1.384 . S
N553 C545 1.427 1_554 S
N553 C551 1.384 . S
H554 C560 0.930 . S
H555 C564 0.930 . S
H556 C569 0.929 . S
H557 C567 0.929 . S
H558 C562 0.929 . S
H559 C568 0.929 . S
C560 H554 0.930 . S
C560 C561 1.367 . S
C560 C568 1.378 . S
C561 C560 1.367 . S
C561 C569 1.433 . S
C562 H558 0.929 . S
C562 C564 1.378 . S
C562 C566 1.350 . S
C563 C566 1.463 . S
C563 C568 1.350 1_556 S
C563 N571 1.427 1_556 S
C564 H555 0.930 . S
C564 C562 1.378 . S
C564 C565 1.367 . S
C565 C564 1.367 . S
C565 C567 1.433 . S
C566 C562 1.350 . S
C566 C563 1.463 . S
C566 N570 1.427 . S
C567 H557 0.929 . S
C567 C565 1.433 . S
C567 N570 1.384 . S
C568 H559 0.929 . S
C568 C560 1.378 . S
C568 C563 1.350 1_554 S
C569 H556 0.929 . S
C569 C561 1.433 . S
C569 N571 1.384 . S
N570 C566 1.427 . S
N570 C567 1.384 . S
N571 C563 1.427 1_554 S
N571 C569 1.384 . S
H572 C578 0.930 . S
H573 C582 0.930 . S
H574 C587 0.929 . S
H575 C585 0.929 . S
H576 C580 0.929 1_554 S
H577 C586 0.929 . S
C578 H572 0.930 . S
C578 C579 1.367 . S
C578 C586 1.378 . S
C579 C578 1.367 . S
C579 C587 1.433 . S
C580 H576 0.929 1_556 S
C580 C582 1.378 . S
C580 C584 1.350 1_556 S
C581 C584 1.463 . S
C581 C586 1.350 . S
C581 N589 1.427 . S
C582 H573 0.930 . S
C582 C580 1.378 . S
C582 C583 1.367 . S
C583 C582 1.367 . S
C583 C585 1.433 . S
C584 C580 1.350 1_554 S
C584 C581 1.463 . S
C584 N588 1.427 1_554 S
C585 H575 0.929 . S
C585 C583 1.433 . S
C585 N588 1.384 . S
C586 H577 0.929 . S
C586 C578 1.378 . S
C586 C581 1.350 . S
C587 H574 0.929 . S
C587 C579 1.433 . S
C587 N589 1.384 . S
N588 C584 1.427 1_556 S
N588 C585 1.384 . S
N589 C581 1.427 . S
N589 C587 1.384 . S
H590 C596 0.930 . S
H591 C600 0.930 . S
H592 C605 0.929 . S
H593 C603 0.929 . S
H594 C598 0.929 . S
H595 C604 0.929 1_554 S
C596 H590 0.930 . S
C596 C597 1.367 . S
C596 C604 1.378 . S
C597 C596 1.367 . S
C597 C605 1.433 . S
C598 H594 0.929 . S
C598 C600 1.378 . S
C598 C602 1.350 . S
C599 C602 1.463 . S
C599 C604 1.350 1_554 S
C599 N607 1.427 1_554 S
C600 H591 0.930 . S
C600 C598 1.378 . S
C600 C601 1.367 . S
C601 C600 1.367 . S
C601 C603 1.433 . S
C602 C598 1.350 . S
C602 C599 1.463 . S
C602 N606 1.427 . S
C603 H593 0.929 . S
C603 C601 1.433 . S
C603 N606 1.384 . S
C604 H595 0.929 1_556 S
C604 C596 1.378 . S
C604 C599 1.350 1_556 S
C605 H592 0.929 . S
C605 C597 1.433 . S
C605 N607 1.384 . S
N606 C602 1.427 . S
N606 C603 1.384 . S
N607 C599 1.427 1_556 S
N607 C605 1.384 . S
H608 C614 0.930 . S
H609 C618 0.930 . S
H610 C623 0.929 . S
H611 C621 0.929 . S
H612 C616 0.929 . S
H613 C622 0.929 . S
C614 H608 0.930 . S
C614 C615 1.367 . S
C614 C622 1.378 . S
C615 C614 1.367 . S
C615 C623 1.433 . S
C616 H612 0.929 . S
C616 C618 1.378 . S
C616 C620 1.350 . S
C617 C620 1.463 . S
C617 C622 1.350 . S
C617 N625 1.427 . S
C618 H609 0.930 . S
C618 C616 1.378 . S
C618 C619 1.367 . S
C619 C618 1.367 . S
C619 C621 1.433 . S
C620 C616 1.350 . S
C620 C617 1.463 . S
C620 N624 1.427 . S
C621 H611 0.929 . S
C621 C619 1.433 . S
C621 N624 1.384 . S
C622 H613 0.929 . S
C622 C614 1.378 . S
C622 C617 1.350 . S
C623 H610 0.929 . S
C623 C615 1.433 . S
C623 N625 1.384 . S
N624 C620 1.427 . S
N624 C621 1.384 . S
N625 C617 1.427 . S
N625 C623 1.384 . S
H626 C632 0.930 . S
H627 C636 0.930 . S
H628 C641 0.929 . S
H629 C639 0.929 . S
H630 C634 0.929 . S
H631 C640 0.929 . S
C632 H626 0.930 . S
C632 C633 1.367 . S
C632 C640 1.378 . S
C633 C632 1.367 . S
C633 C641 1.433 . S
C634 H630 0.929 . S
C634 C636 1.378 . S
C634 C638 1.350 . S
C635 C638 1.463 . S
C635 C640 1.350 . S
C635 N643 1.427 . S
C636 H627 0.930 . S
C636 C634 1.378 . S
C636 C637 1.367 . S
C637 C636 1.367 . S
C637 C639 1.433 . S
C638 C634 1.350 . S
C638 C635 1.463 . S
C638 N642 1.427 . S
C639 H629 0.929 . S
C639 C637 1.433 . S
C639 N642 1.384 . S
C640 H631 0.929 . S
C640 C632 1.378 . S
C640 C635 1.350 . S
C641 H628 0.929 . S
C641 C633 1.433 . S
C641 N643 1.384 . S
N642 C638 1.427 . S
N642 C639 1.384 . S
N643 C635 1.427 . S
N643 C641 1.384 . S
H644 C650 0.930 . S
H645 C654 0.930 . S
H646 C659 0.929 . S
H647 C657 0.929 . S
H648 C652 0.929 . S
H649 C658 0.929 . S
C650 H644 0.930 . S
C650 C651 1.367 . S
C650 C658 1.378 . S
C651 C650 1.367 . S
C651 C659 1.433 . S
C652 H648 0.929 . S
C652 C654 1.378 . S
C652 C656 1.350 . S
C653 C656 1.463 . S
C653 C658 1.350 . S
C653 N661 1.427 . S
C654 H645 0.930 . S
C654 C652 1.378 . S
C654 C655 1.367 . S
C655 C654 1.367 . S
C655 C657 1.433 . S
C656 C652 1.350 . S
C656 C653 1.463 . S
C656 N660 1.427 . S
C657 H647 0.929 . S
C657 C655 1.433 . S
C657 N660 1.384 . S
C658 H649 0.929 . S
C658 C650 1.378 . S
C658 C653 1.350 . S
C659 H646 0.929 . S
C659 C651 1.433 . S
C659 N661 1.384 . S
N660 C656 1.427 . S
N660 C657 1.384 . S
N661 C653 1.427 . S
N661 C659 1.384 . S
H662 C668 0.930 . S
H663 C672 0.930 . S
H664 C677 0.929 . S
H665 C675 0.929 . S
H666 C670 0.929 . S
H667 C676 0.929 . S
C668 H662 0.930 . S
C668 C669 1.367 . S
C668 C676 1.378 . S
C669 C668 1.367 . S
C669 C677 1.433 . S
C670 H666 0.929 . S
C670 C672 1.378 . S
C670 C674 1.350 . S
C671 C674 1.463 . S
C671 C676 1.350 . S
C671 N679 1.427 . S
C672 H663 0.930 . S
C672 C670 1.378 . S
C672 C673 1.367 . S
C673 C672 1.367 . S
C673 C675 1.433 . S
C674 C670 1.350 . S
C674 C671 1.463 . S
C674 N678 1.427 . S
C675 H665 0.929 . S
C675 C673 1.433 . S
C675 N678 1.384 . S
C676 H667 0.929 . S
C676 C668 1.378 . S
C676 C671 1.350 . S
C677 H664 0.929 . S
C677 C669 1.433 . S
C677 N679 1.384 . S
N678 C674 1.427 . S
N678 C675 1.384 . S
N679 C671 1.427 . S
N679 C677 1.384 . S
H680 C686 0.930 . S
H681 C690 0.930 . S
H682 C695 0.929 . S
H683 C693 0.929 . S
H684 C688 0.929 . S
H685 C694 0.929 . S
C686 H680 0.930 . S
C686 C687 1.367 . S
C686 C694 1.378 . S
C687 C686 1.367 . S
C687 C695 1.433 . S
C688 H684 0.929 . S
C688 C690 1.378 . S
C688 C692 1.350 . S
C689 C692 1.463 1_455 S
C689 C694 1.350 . S
C689 N697 1.427 . S
C690 H681 0.930 . S
C690 C688 1.378 . S
C690 C691 1.367 . S
C691 C690 1.367 . S
C691 C693 1.433 . S
C692 C688 1.350 . S
C692 C689 1.463 1_655 S
C692 N696 1.427 . S
C693 H683 0.929 . S
C693 C691 1.433 . S
C693 N696 1.384 . S
C694 H685 0.929 . S
C694 C686 1.378 . S
C694 C689 1.350 . S
C695 H682 0.929 . S
C695 C687 1.433 . S
C695 N697 1.384 . S
N696 C692 1.427 . S
N696 C693 1.384 . S
N697 C689 1.427 . S
N697 C695 1.384 . S
H698 C704 0.930 . S
H699 C708 0.930 . S
H700 C713 0.929 . S
H701 C711 0.929 . S
H702 C706 0.929 . S
H703 C712 0.929 . S
C704 H698 0.930 . S
C704 C705 1.367 . S
C704 C712 1.378 . S
C705 C704 1.367 . S
C705 C713 1.433 . S
C706 H702 0.929 . S
C706 C708 1.378 . S
C706 C710 1.350 . S
C707 C710 1.463 1_655 S
C707 C712 1.350 . S
C707 N715 1.427 . S
C708 H699 0.930 . S
C708 C706 1.378 . S
C708 C709 1.367 . S
C709 C708 1.367 . S
C709 C711 1.433 . S
C710 C706 1.350 . S
C710 C707 1.463 1_455 S
C710 N714 1.427 . S
C711 H701 0.929 . S
C711 C709 1.433 . S
C711 N714 1.384 . S
C712 H703 0.929 . S
C712 C704 1.378 . S
C712 C707 1.350 . S
C713 H700 0.929 . S
C713 C705 1.433 . S
C713 N715 1.384 . S
N714 C710 1.427 . S
N714 C711 1.384 . S
N715 C707 1.427 . S
N715 C713 1.384 . S
H716 C722 0.930 . S
H717 C726 0.930 . S
H718 C731 0.929 . S
H719 C729 0.929 . S
H720 C724 0.929 . S
H721 C730 0.929 . S
C722 H716 0.930 . S
C722 C723 1.367 . S
C722 C730 1.378 . S
C723 C722 1.367 . S
C723 C731 1.433 . S
C724 H720 0.929 . S
C724 C726 1.378 . S
C724 C728 1.350 . S
C725 C728 1.463 . S
C725 C730 1.350 . S
C725 N733 1.427 . S
C726 H717 0.930 . S
C726 C724 1.378 . S
C726 C727 1.367 . S
C727 C726 1.367 . S
C727 C729 1.433 . S
C728 C724 1.350 . S
C728 C725 1.463 . S
C728 N732 1.427 . S
C729 H719 0.929 . S
C729 C727 1.433 . S
C729 N732 1.384 . S
C730 H721 0.929 . S
C730 C722 1.378 . S
C730 C725 1.350 . S
C731 H718 0.929 . S
C731 C723 1.433 . S
C731 N733 1.384 . S
N732 C728 1.427 . S
N732 C729 1.384 . S
N733 C725 1.427 . S
N733 C731 1.384 . S
H734 C740 0.930 . S
H735 C744 0.930 . S
H736 C749 0.929 . S
H737 C747 0.929 . S
H738 C742 0.929 . S
H739 C748 0.929 . S
C740 H734 0.930 . S
C740 C741 1.367 . S
C740 C748 1.378 . S
C741 C740 1.367 . S
C741 C749 1.433 . S
C742 H738 0.929 . S
C742 C744 1.378 . S
C742 C746 1.350 . S
C743 C746 1.463 . S
C743 C748 1.350 . S
C743 N751 1.427 . S
C744 H735 0.930 . S
C744 C742 1.378 . S
C744 C745 1.367 . S
C745 C744 1.367 . S
C745 C747 1.433 . S
C746 C742 1.350 . S
C746 C743 1.463 . S
C746 N750 1.427 . S
C747 H737 0.929 . S
C747 C745 1.433 . S
C747 N750 1.384 . S
C748 H739 0.929 . S
C748 C740 1.378 . S
C748 C743 1.350 . S
C749 H736 0.929 . S
C749 C741 1.433 . S
C749 N751 1.384 . S
N750 C746 1.427 . S
N750 C747 1.384 . S
N751 C743 1.427 . S
N751 C749 1.384 . S
C327 C7 1.679 . S
C331 C296 1.679 . S
C345 C256 1.678 . S
C349 C47 1.678 . S
C363 C207 1.677 . S
C367 C96 1.677 . S
C381 C167 1.675 . S
C385 C136 1.675 . S
C399 C90 1.565 . S
C403 C10 1.570 . S
C417 C50 1.576 . S
C421 C130 1.570 . S
C435 C139 1.582 . S
C439 C59 1.577 . S
C453 C99 1.570 . S
C457 C19 1.565 . S
C471 C170 1.443 . S
C475 C250 1.444 . S
C489 C210 1.444 . S
C493 C290 1.444 . S
C507 C299 1.448 . S
C511 C219 1.449 . S
C525 C259 1.451 . S
C529 C179 1.452 . S
C543 C11 2.085 . S
C547 C2 2.085 . S
C561 C51 2.076 . S
C565 C42 2.076 . S
C579 C91 2.079 . S
C583 C82 2.079 . S
C597 C122 2.082 . S
C601 C131 2.082 . S
C615 C162 2.078 . S
C619 C171 2.078 . S
C633 C211 2.084 . S
C637 C202 2.084 . S
C651 C242 2.079 . S
C655 C251 2.079 . S
C669 C282 2.082 . S
C673 C291 2.082 . S
C687 C16 2.308 . S
C691 C56 2.313 . S
C705 C127 2.314 . S
C709 C87 2.306 . S
C723 C176 2.309 . S
C727 C216 2.316 . S
C741 C287 2.314 . S
C745 C247 2.311 . S
