# Generated by pormake.
# Topology lcy-e, (6)-cn, num edge types: 1
# Building blocks:
#     Node 0, Type 0, BuildingBlock: KUMBUR_clean_sbu_0, # of connection points: 6
#     Node 1, Type 0, BuildingBlock: KUMBUR_clean_sbu_0, # of connection points: 6
#     Node 2, Type 0, BuildingBlock: KUMBUR_clean_sbu_0, # of connection points: 6
#     Node 3, Type 0, BuildingBlock: KUMBUR_clean_sbu_0, # of connection points: 6
#     Node 4, Type 0, BuildingBlock: KUMBUR_clean_sbu_0, # of connection points: 6
#     Node 5, Type 0, BuildingBlock: KUMBUR_clean_sbu_0, # of connection points: 6
#     Node 6, Type 0, BuildingBlock: KUMBUR_clean_sbu_0, # of connection points: 6
#     Node 7, Type 0, BuildingBlock: KUMBUR_clean_sbu_0, # of connection points: 6
#     Node 8, Type 0, BuildingBlock: KUMBUR_clean_sbu_0, # of connection points: 6
#     Node 9, Type 0, BuildingBlock: KUMBUR_clean_sbu_0, # of connection points: 6
#     Node 10, Type 0, BuildingBlock: KUMBUR_clean_sbu_0, # of connection points: 6
#     Node 11, Type 0, BuildingBlock: KUMBUR_clean_sbu_0, # of connection points: 6
#     Edge 12, Type (0, 0), BuildingBlock: EZIPEK_clean_linker_0, # of connection points: 2
#     Edge 13, Type (0, 0), BuildingBlock: EZIPEK_clean_linker_0, # of connection points: 2
#     Edge 14, Type (0, 0), BuildingBlock: EZIPEK_clean_linker_0, # of connection points: 2
#     Edge 15, Type (0, 0), BuildingBlock: EZIPEK_clean_linker_0, # of connection points: 2
#     Edge 16, Type (0, 0), BuildingBlock: EZIPEK_clean_linker_0, # of connection points: 2
#     Edge 17, Type (0, 0), BuildingBlock: EZIPEK_clean_linker_0, # of connection points: 2
#     Edge 18, Type (0, 0), BuildingBlock: EZIPEK_clean_linker_0, # of connection points: 2
#     Edge 19, Type (0, 0), BuildingBlock: EZIPEK_clean_linker_0, # of connection points: 2
#     Edge 20, Type (0, 0), BuildingBlock: EZIPEK_clean_linker_0, # of connection points: 2
#     Edge 21, Type (0, 0), BuildingBlock: EZIPEK_clean_linker_0, # of connection points: 2
#     Edge 22, Type (0, 0), BuildingBlock: EZIPEK_clean_linker_0, # of connection points: 2
#     Edge 23, Type (0, 0), BuildingBlock: EZIPEK_clean_linker_0, # of connection points: 2
#     Edge 24, Type (0, 0), BuildingBlock: EZIPEK_clean_linker_0, # of connection points: 2
#     Edge 25, Type (0, 0), BuildingBlock: EZIPEK_clean_linker_0, # of connection points: 2
#     Edge 26, Type (0, 0), BuildingBlock: EZIPEK_clean_linker_0, # of connection points: 2
#     Edge 27, Type (0, 0), BuildingBlock: EZIPEK_clean_linker_0, # of connection points: 2
#     Edge 28, Type (0, 0), BuildingBlock: EZIPEK_clean_linker_0, # of connection points: 2
#     Edge 29, Type (0, 0), BuildingBlock: EZIPEK_clean_linker_0, # of connection points: 2
#     Edge 30, Type (0, 0), BuildingBlock: EZIPEK_clean_linker_0, # of connection points: 2
#     Edge 31, Type (0, 0), BuildingBlock: EZIPEK_clean_linker_0, # of connection points: 2
#     Edge 32, Type (0, 0), BuildingBlock: EZIPEK_clean_linker_0, # of connection points: 2
#     Edge 33, Type (0, 0), BuildingBlock: EZIPEK_clean_linker_0, # of connection points: 2
#     Edge 34, Type (0, 0), BuildingBlock: EZIPEK_clean_linker_0, # of connection points: 2
#     Edge 35, Type (0, 0), BuildingBlock: EZIPEK_clean_linker_0, # of connection points: 2
#     Edge 36, Type (0, 0), BuildingBlock: EZIPEK_clean_linker_0, # of connection points: 2
#     Edge 37, Type (0, 0), BuildingBlock: EZIPEK_clean_linker_0, # of connection points: 2
#     Edge 38, Type (0, 0), BuildingBlock: EZIPEK_clean_linker_0, # of connection points: 2
#     Edge 39, Type (0, 0), BuildingBlock: EZIPEK_clean_linker_0, # of connection points: 2
#     Edge 40, Type (0, 0), BuildingBlock: EZIPEK_clean_linker_0, # of connection points: 2
#     Edge 41, Type (0, 0), BuildingBlock: EZIPEK_clean_linker_0, # of connection points: 2
#     Edge 42, Type (0, 0), BuildingBlock: EZIPEK_clean_linker_0, # of connection points: 2
#     Edge 43, Type (0, 0), BuildingBlock: EZIPEK_clean_linker_0, # of connection points: 2
#     Edge 44, Type (0, 0), BuildingBlock: EZIPEK_clean_linker_0, # of connection points: 2
#     Edge 45, Type (0, 0), BuildingBlock: EZIPEK_clean_linker_0, # of connection points: 2
#     Edge 46, Type (0, 0), BuildingBlock: EZIPEK_clean_linker_0, # of connection points: 2
#     Edge 47, Type (0, 0), BuildingBlock: EZIPEK_clean_linker_0, # of connection points: 2
# Relax obj value: 0.100
# Max RMSD: 0.295
# Mean RMSD: 0.294
data_MOF--net-lcy-e--node1-KUMBUR_clean_sbu_0--edge1-EZIPEK_clean_linker_0
_symmetry_space_group_name_H-M    P1
_symmetry_Int_Tables_number       1
_symmetry_cell_setting            triclinic
loop_
_symmetry_equiv_pos_as_xyz
'x, y, z'
_cell_length_a     33.896107
_cell_length_b     33.824908
_cell_length_c     33.964156
_cell_angle_alpha  90.036744
_cell_angle_beta   89.87523
_cell_angle_gamma 90.4787
loop_
_atom_site_label
_atom_site_type_symbol
_atom_site_fract_x
_atom_site_fract_y
_atom_site_fract_z
_atom_type_partial_charge
Tb0 Tb 0.16371 0.20713 0.54622 0.0
C1 C 0.03589 0.29404 0.45567 0.0
C2 C 0.02388 0.25473 0.39759 0.0
C3 C 0.97177 0.29601 0.42353 0.0
C4 C 0.04856 0.26651 0.429 0.0
C5 C 0.99772 0.31019 0.45254 0.0
C6 C 0.98497 0.26848 0.39582 0.0
C7 C 0.01648 0.3587 0.50101 0.0
N8 N 0.06265 0.30849 0.48158 0.0
C9 C 0.05394 0.34174 0.50299 0.0
C10 C 0.98786 0.34216 0.47653 0.0
Tb11 Tb 0.12481 0.28111 0.48099 0.0
N12 N 0.0865 0.25447 0.43144 0.0
C13 C 0.1022 0.2325 0.40149 0.0
C14 C 0.03963 0.23121 0.36779 0.0
C15 C 0.07908 0.22027 0.36961 0.0
H16 H 0.07599 0.35516 0.5218 0.0
H17 H 0.09177 0.20237 0.34647 0.0
H18 H 0.96539 0.25914 0.37235 0.0
H19 H 1.00988 0.38514 0.51756 0.0
H20 H 0.13228 0.22311 0.40226 0.0
H21 H 0.21188 0.25184 0.69222 0.0
H22 H 0.02195 0.22253 0.34268 0.0
H23 H 0.20285 0.14001 0.48571 0.0
H24 H 0.16507 0.24455 0.63856 0.0
H25 H 0.26535 0.10481 0.47809 0.0
H26 H 0.94222 0.30771 0.42095 0.0
H27 H 0.27991 0.22712 0.6852 0.0
H28 H 0.3295 0.1901 0.64501 0.0
H29 H 0.95907 0.35571 0.47468 0.0
H30 H 0.34409 0.14968 0.58661 0.0
N31 N 0.20578 0.2172 0.59876 0.0
C32 C 0.19453 0.23414 0.63374 0.0
C33 C 0.25942 0.22406 0.66092 0.0
C34 C 0.27031 0.20478 0.62623 0.0
C35 C 0.22107 0.23796 0.66501 0.0
C36 C 0.24234 0.20125 0.59561 0.0
H37 H 0.31991 0.1167 0.52487 0.0
N38 N 0.22134 0.1727 0.53637 0.0
C39 C 0.26162 0.12546 0.50211 0.0
C40 C 0.25039 0.1781 0.56328 0.0
C41 C 0.22599 0.14544 0.50679 0.0
C42 C 0.29237 0.13234 0.5285 0.0
C43 C 0.28679 0.15842 0.55994 0.0
O44 O 0.14488 0.14743 0.54989 0.0
O45 O 0.11703 0.22291 0.50455 0.0
O46 O 0.08779 0.27989 0.53664 0.0
O47 O 0.12954 0.24837 0.5808 0.0
O48 O 0.14005 0.16817 0.50002 0.0
O49 O 0.13489 0.18635 0.59812 0.0
O50 O 0.12953 0.34054 0.46166 0.0
O51 O 0.17164 0.26971 0.52348 0.0
O52 O 0.21139 0.22372 0.50646 0.0
O53 O 0.17348 0.24436 0.45399 0.0
O54 O 0.14528 0.32381 0.52345 0.0
O55 O 0.15933 0.29458 0.43095 0.0
C56 C 0.11367 0.19077 0.48573 0.0
C57 C 0.14236 0.11693 0.61283 0.0
C58 C 0.12772 0.05386 0.64796 0.0
C59 C 0.11511 0.08647 0.62442 0.0
C60 C 0.16768 0.05231 0.65861 0.0
C61 C 0.18158 0.11412 0.6253 0.0
C62 C 0.19408 0.08219 0.6478 0.0
C63 C 0.09782 0.26921 0.57331 0.0
C64 C 0.13126 0.15001 0.58558 0.0
C65 C 0.31577 0.16414 0.58888 0.0
C66 C 0.30749 0.18722 0.62208 0.0
C67 C 0.17399 0.30475 0.53892 0.0
C68 C 0.13983 0.34923 0.39237 0.0
C69 C 0.1694 0.36214 0.36555 0.0
C70 C 0.15901 0.37871 0.3287 0.0
C71 C 0.1189 0.38146 0.31899 0.0
C72 C 0.10006 0.35279 0.38175 0.0
C73 C 0.08976 0.36864 0.34529 0.0
C74 C 0.2077 0.23144 0.4685 0.0
C75 C 0.15078 0.33182 0.43096 0.0
H76 H 0.08468 0.08784 0.61491 0.0
H77 H 0.17871 0.02745 0.6751 0.0
H78 H 0.20297 0.13626 0.61697 0.0
H79 H 0.22471 0.08033 0.65652 0.0
H80 H 0.20025 0.35954 0.37335 0.0
H81 H 0.1101 0.39363 0.29092 0.0
H82 H 0.07689 0.34338 0.40164 0.0
H83 H 0.05896 0.37109 0.33739 0.0
Tb84 Tb 0.98613 0.86858 0.74271 0.0
C85 C 0.07104 0.99479 0.81856 0.0
C86 C 0.12614 1.01052 0.7757 0.0
C87 C 0.09443 0.06297 0.81219 0.0
C88 C 0.09852 0.98286 0.79091 0.0
C89 C 0.06948 0.03501 0.83013 0.0
C90 C 0.12307 0.05067 0.78539 0.0
C91 C 0.02481 0.01649 0.88206 0.0
N92 N 0.04903 0.96662 0.83713 0.0
C93 C 0.02836 0.97705 0.87062 0.0
C94 C 0.04477 0.04576 0.86118 0.0
Tb95 Tb 0.05538 0.90262 0.8119 0.0
N96 N 0.10084 0.94377 0.78184 0.0
C97 C 0.13262 0.93044 0.76079 0.0
C98 C 0.15732 0.9969 0.75271 0.0
C99 C 0.16079 0.95664 0.74556 0.0
H100 H 1.01331 0.95517 0.88831 0.0
H101 H 0.1854 0.94563 0.72854 0.0
H102 H 0.1435 0.07227 0.77322 0.0
H103 H 1.0071 0.02418 0.90746 0.0
H104 H 0.13697 0.89977 0.75508 0.0
H105 H 0.86685 0.81461 0.83636 0.0
H106 H 0.17979 0.01705 0.74187 0.0
H107 H 0.03335 0.8261 0.66637 0.0
H108 H 0.91824 0.86098 0.81642 0.0
H109 H 0.02875 0.7642 0.62913 0.0
H110 H 0.09322 0.09391 0.82041 0.0
H111 H 0.85838 0.75124 0.80113 0.0
H112 H 0.88069 0.70539 0.74799 0.0
H113 H 0.04265 0.07627 0.87066 0.0
H114 H 0.92555 0.69097 0.69307 0.0
N115 N 0.93955 0.82596 0.76868 0.0
C116 C 0.91514 0.83433 0.79973 0.0
C117 C 0.88111 0.77191 0.79173 0.0
C118 C 0.90622 0.76299 0.76032 0.0
C119 C 0.88574 0.80765 0.8116 0.0
C120 C 0.93549 0.79087 0.74926 0.0
H121 H 0.98052 0.71266 0.64862 0.0
N122 N 0.98828 0.81034 0.70773 0.0
C123 C 1.00944 0.76903 0.65407 0.0
C124 C 0.96092 0.78259 0.71825 0.0
C125 C 1.0117 0.80438 0.67525 0.0
C126 C 0.98228 0.73997 0.66524 0.0
C127 C 0.95738 0.74662 0.6974 0.0
O128 O 0.965 0.91836 0.71125 0.0
O129 O 0.03151 0.9133 0.75465 0.0
O130 O 0.99367 0.9267 0.82643 0.0
O131 O 0.94991 0.90801 0.77695 0.0
O132 O 0.0331 0.88771 0.70146 0.0
O133 O 0.94212 0.86161 0.69868 0.0
O134 O 0.08108 0.9153 0.86737 0.0
O135 O 1.00038 0.86741 0.80779 0.0
O136 O 0.03082 0.82266 0.74898 0.0
O137 O 0.08347 0.86068 0.76907 0.0
O138 O 0.04545 0.84482 0.83852 0.0
O139 O 0.10336 0.8686 0.83155 0.0
C140 C 0.04875 0.91577 0.72163 0.0
C141 C 0.94621 0.90647 0.64467 0.0
C142 C 0.92022 0.9318 0.58176 0.0
C143 C 0.91554 0.92464 0.6228 0.0
C144 C 0.95573 0.92142 0.56341 0.0
C145 C 0.98077 0.89566 0.62462 0.0
C146 C 0.98565 0.90348 0.58467 0.0
C147 C 0.95819 0.92897 0.80843 0.0
C148 C 0.94236 0.89826 0.68787 0.0
C149 C 0.92861 0.71877 0.70868 0.0
C150 C 0.90303 0.72699 0.73995 0.0
C151 C 1.00919 0.83825 0.83073 0.0
C152 C 0.14945 0.89959 0.87405 0.0
C153 C 0.17551 0.87122 0.89002 0.0
C154 C 0.2145 0.88198 0.90104 0.0
C155 C 0.22709 0.92115 0.89488 0.0
C156 C 0.16314 0.93846 0.86846 0.0
C157 C 0.2017 0.949 0.87861 0.0
C158 C 0.06906 0.82678 0.75493 0.0
C159 C 0.10813 0.88846 0.86391 0.0
H160 H 0.88817 0.93244 0.63726 0.0
H161 H 0.95994 0.92645 0.53216 0.0
H162 H 1.00419 0.8807 0.63936 0.0
H163 H 1.01265 0.89501 0.56993 0.0
H164 H 0.16533 0.84111 0.89457 0.0
H165 H 0.25671 0.93023 0.9028 0.0
H166 H 0.14399 0.96084 0.85652 0.0
H167 H 0.21188 0.97908 0.87413 0.0
Tb168 Tb 0.39505 0.73422 0.98912 0.0
C169 C 0.29162 0.86142 0.05513 0.0
C170 C 0.29498 0.90904 1.00225 0.0
C171 C 0.23904 0.90926 0.04705 0.0
C172 C 0.31101 0.87699 0.02322 0.0
C173 C 0.25535 0.87732 0.06765 0.0
C174 C 0.25886 0.92512 1.01436 0.0
C175 C 0.25543 0.83071 0.12131 0.0
N176 N 0.30874 0.83099 0.07429 0.0
C177 C 0.29187 0.81669 0.10817 0.0
C178 C 0.23692 0.86104 0.1008 0.0
Tb179 Tb 0.37083 0.8129 0.05366 0.0
N180 N 0.34537 0.86007 1.01225 0.0
C181 C 0.3653 0.87411 0.9801 0.0
C182 C 0.3157 0.92383 0.96977 0.0
C183 C 0.35096 0.90612 0.95852 0.0
H184 H 0.30691 0.79501 0.1257 0.0
H185 H 0.36697 0.91681 0.93301 0.0
H186 H 0.24596 0.94963 0.99856 0.0
H187 H 0.24213 0.81874 0.14778 0.0
H188 H 0.39169 0.85991 0.97011 0.0
H189 H 0.43291 0.62001 0.09597 0.0
H190 H 0.30466 0.94866 0.9531 0.0
H191 H 0.43985 0.75955 0.90416 0.0
H192 H 0.3913 0.67004 0.06757 0.0
H193 H 0.50144 0.74407 0.86955 0.0
H194 H 0.2112 0.92187 0.05616 0.0
H195 H 0.49837 0.60641 0.06774 0.0
H196 H 0.54864 0.62005 1.01591 0.0
H197 H 0.20897 0.87228 0.11132 0.0
H198 H 0.5674 0.65374 0.95462 0.0
N199 N 0.4318 0.68703 0.02173 0.0
C200 C 0.41921 0.66529 0.05361 0.0
C201 C 0.47997 0.62883 0.05451 0.0
C202 C 0.49256 0.64988 0.02141 0.0
C203 C 0.44303 0.63636 0.07044 0.0
C204 C 0.46751 0.67895 1.00525 0.0
H205 H 0.54968 0.69898 0.89962 0.0
N206 N 0.45344 0.72531 0.9553 0.0
C207 C 0.49558 0.73128 0.89819 0.0
C208 C 0.47846 0.69838 0.97095 0.0
C209 C 0.46067 0.74001 0.91814 0.0
C210 C 0.52267 0.70583 0.91524 0.0
C211 C 0.51413 0.68857 0.95168 0.0
O212 O 0.37724 0.73069 0.92936 0.0
O213 O 0.36419 0.79098 0.99492 0.0
O214 O 0.32654 0.76245 0.06228 0.0
O215 O 0.35356 0.70851 0.02857 0.0
O216 O 0.3338 0.74504 0.97101 0.0
O217 O 0.37928 0.67842 0.9651 0.0
O218 O 0.40264 0.86613 0.06407 0.0
O219 O 0.40976 0.76089 0.04962 0.0
O220 O 0.43432 0.78406 0.974 0.0
O221 O 0.43088 0.82453 0.02881 0.0
O222 O 0.37547 0.77015 0.09863 0.0
O223 O 0.38091 0.83257 0.11199 0.0
C224 C 0.33085 0.7814 0.98029 0.0
C225 C 0.38012 0.669 0.89431 0.0
C226 C 0.36195 0.64023 0.8291 0.0
C227 C 0.35214 0.66301 0.86321 0.0
C228 C 0.40028 0.62491 0.82675 0.0
C229 C 0.4173 0.6516 0.89083 0.0
C230 C 0.42736 0.63023 0.85723 0.0
C231 C 0.3268 0.72405 0.05148 0.0
C232 C 0.37039 0.69275 0.9304 0.0
C233 C 0.53969 0.66108 0.9687 0.0
C234 C 0.52899 0.64188 1.00356 0.0
C235 C 0.40386 0.74913 0.08622 0.0
C236 C 0.38758 0.90219 0.12255 0.0
C237 C 0.41544 0.93307 0.13012 0.0
C238 C 0.40428 0.96739 0.15166 0.0
C239 C 0.36492 0.97031 0.16428 0.0
C240 C 0.34881 0.90658 0.13631 0.0
C241 C 0.33761 0.94034 0.15674 0.0
C242 C 0.44791 0.81389 0.99523 0.0
C243 C 0.39909 0.86491 0.10193 0.0
H244 H 0.32301 0.67572 0.86561 0.0
H245 H 0.40941 0.60847 0.80113 0.0
H246 H 0.43876 0.65447 0.91414 0.0
H247 H 0.45647 0.61752 0.85482 0.0
H248 H 0.44552 0.9303 0.11971 0.0
H249 H 0.35503 0.99642 0.17953 0.0
H250 H 0.32698 0.88378 0.13167 0.0
H251 H 0.30747 0.94329 0.16686 0.0
Tb252 Tb 0.55109 0.1613 0.22507 0.0
C253 C 0.45377 0.03341 0.29127 0.0
C254 C 0.39178 0.03148 0.25596 0.0
C255 C 0.41959 0.97054 0.28049 0.0
C256 C 0.42501 0.05278 0.27005 0.0
C257 C 0.45071 0.99208 0.29745 0.0
C258 C 0.38995 0.99025 0.26016 0.0
C259 C 0.50336 0.99712 0.34446 0.0
N260 N 0.48164 0.05554 0.30997 0.0
C261 C 0.50399 0.038 0.33891 0.0
C262 C 0.47725 0.97388 0.32288 0.0
Tb263 Tb 0.48154 0.12289 0.29553 0.0
N264 N 0.42677 0.09289 0.26787 0.0
C265 C 0.39314 0.11305 0.25824 0.0
C266 C 0.35982 0.05244 0.24103 0.0
C267 C 0.36018 0.09344 0.24301 0.0
H268 H 0.52266 0.05537 0.35819 0.0
H269 H 0.33438 0.10995 0.23441 0.0
H270 H 0.36475 0.97352 0.24955 0.0
H271 H 0.52232 0.98373 0.36622 0.0
H272 H 0.3904 0.14435 0.2635 0.0
H273 H 0.66407 0.23728 0.30777 0.0
H274 H 0.33347 0.03733 0.23081 0.0
H275 H 0.49782 0.19011 0.14703 0.0
H276 H 0.62183 0.18104 0.28815 0.0
H277 H 0.48732 0.25062 0.10905 0.0
H278 H 0.41702 0.93887 0.28478 0.0
H279 H 0.65695 0.30178 0.27413 0.0
H280 H 0.62282 0.34241 0.22235 0.0
H281 H 0.476 0.94228 0.32807 0.0
H282 H 0.57421 0.34616 0.16868 0.0
N283 N 0.59052 0.21282 0.24509 0.0
C284 C 0.61821 0.20885 0.27382 0.0
C285 C 0.63839 0.27702 0.26557 0.0
C286 C 0.61059 0.28076 0.23543 0.0
C287 C 0.64243 0.24073 0.28465 0.0
C288 C 0.58722 0.24754 0.2255 0.0
H289 H 0.52334 0.3121 0.1263 0.0
N290 N 0.539 0.21648 0.18689 0.0
C291 C 0.50787 0.25081 0.13339 0.0
C292 C 0.5604 0.24954 0.19531 0.0
C293 C 0.51407 0.21631 0.15513 0.0
C294 C 0.52828 0.28542 0.14317 0.0
C295 C 0.55538 0.28497 0.17414 0.0
O296 O 0.56392 0.1329 0.17105 0.0
O297 O 0.50813 0.11462 0.23928 0.0
O298 O 0.54216 0.0954 0.30599 0.0
O299 O 0.58672 0.12338 0.26149 0.0
O300 O 0.51124 0.13173 0.18282 0.0
O301 O 0.61066 0.15344 0.20778 0.0
O302 O 0.46486 0.10803 0.35373 0.0
O303 O 0.53592 0.15866 0.28977 0.0
O304 O 0.50555 0.20519 0.23454 0.0
O305 O 0.45417 0.16334 0.25157 0.0
O306 O 0.49157 0.17988 0.32305 0.0
O307 O 0.43946 0.15797 0.32457 0.0
C308 C 0.49299 0.10776 0.20583 0.0
C309 C 0.62298 0.15082 0.13812 0.0
C310 C 0.65153 0.13767 0.07232 0.0
C311 C 0.63248 0.1241 0.10717 0.0
C312 C 0.66049 0.17813 0.06907 0.0
C313 C 0.63298 0.1909 0.13376 0.0
C314 C 0.65153 0.20434 0.09953 0.0
C315 C 0.57828 0.09814 0.28969 0.0
C316 C 0.60178 0.13701 0.17419 0.0
C317 C 0.57778 0.31856 0.1844 0.0
C318 C 0.60545 0.31643 0.21495 0.0
C319 C 0.52741 0.18688 0.31385 0.0
C320 C 0.39814 0.12478 0.37005 0.0
C321 C 0.37163 0.15459 0.3822 0.0
C322 C 0.3337 0.14465 0.39681 0.0
C323 C 0.32257 0.10461 0.39864 0.0
C324 C 0.38588 0.08505 0.3719 0.0
C325 C 0.34838 0.07516 0.38608 0.0
C326 C 0.46754 0.19787 0.23818 0.0
C327 C 0.43826 0.1356 0.35563 0.0
H328 H 0.62478 0.09308 0.10998 0.0
H329 H 0.67419 0.18958 0.04266 0.0
H330 H 0.62625 0.21195 0.15675 0.0
H331 H 0.65879 0.23541 0.09643 0.0
H332 H 0.38056 0.1854 0.38068 0.0
H333 H 0.29366 0.09618 0.40957 0.0
H334 H 0.40525 0.06155 0.36248 0.0
H335 H 0.33927 0.04445 0.38743 0.0
Tb336 Tb 0.62606 0.23176 0.54588 0.0
C337 C 0.75106 0.33146 0.47625 0.0
C338 C 0.75962 0.38248 0.52515 0.0
C339 C 0.8163 0.35942 0.48812 0.0
C340 C 0.73562 0.35458 0.50541 0.0
C341 C 0.79133 0.33459 0.46604 0.0
C342 C 0.80038 0.38353 0.51762 0.0
C343 C 0.77746 0.29475 0.40877 0.0
N344 N 0.72553 0.30929 0.45494 0.0
C345 C 0.73768 0.29346 0.41981 0.0
C346 C 0.80466 0.31462 0.43257 0.0
Tb347 Tb 0.66136 0.30445 0.47768 0.0
N348 N 0.69621 0.35234 0.5117 0.0
C349 C 0.67824 0.3808 0.53392 0.0
C350 C 0.7416 0.40981 0.55009 0.0
C351 C 0.70058 0.40973 0.5535 0.0
H352 H 0.71669 0.27903 0.40066 0.0
H353 H 0.68613 0.43155 0.5717 0.0
H354 H 0.81948 0.40412 0.53311 0.0
H355 H 0.78698 0.28083 0.38171 0.0
H356 H 0.64667 0.3814 0.53732 0.0
H357 H 0.57395 0.10074 0.46786 0.0
H358 H 0.75886 0.43194 0.5656 0.0
H359 H 0.59715 0.26357 0.63346 0.0
H360 H 0.61886 0.15568 0.48035 0.0
H361 H 0.53772 0.26119 0.67488 0.0
H362 H 0.84746 0.36175 0.48123 0.0
H363 H 0.51091 0.09525 0.50348 0.0
H364 H 0.46497 0.12201 0.55445 0.0
H365 H 0.83537 0.31618 0.4237 0.0
H366 H 0.45371 0.16766 0.60961 0.0
N367 N 0.58319 0.1822 0.52545 0.0
C368 C 0.59226 0.15422 0.49756 0.0
C369 C 0.53086 0.11958 0.50994 0.0
C370 C 0.52156 0.14774 0.53843 0.0
C371 C 0.5666 0.12253 0.48991 0.0
C372 C 0.54895 0.17851 0.5462 0.0
H373 H 0.48075 0.21973 0.65496 0.0
N374 N 0.57212 0.22939 0.58693 0.0
C375 C 0.53832 0.24544 0.64713 0.0
C376 C 0.54283 0.2036 0.5775 0.0
C377 C 0.57171 0.24751 0.62298 0.0
C378 C 0.50628 0.22202 0.63582 0.0
C379 C 0.50894 0.1994 0.60147 0.0
O380 O 0.65457 0.22245 0.6004 0.0
O381 O 0.67262 0.27554 0.53247 0.0
O382 O 0.69761 0.24866 0.46945 0.0
O383 O 0.66263 0.20069 0.50443 0.0
O384 O 0.65147 0.27518 0.58769 0.0
O385 O 0.64671 0.1746 0.56013 0.0
O386 O 0.66049 0.32981 0.42079 0.0
O387 O 0.6148 0.25946 0.48595 0.0
O388 O 0.57768 0.2735 0.54533 0.0
O389 O 0.60994 0.32638 0.51429 0.0
O390 O 0.64292 0.26381 0.4327 0.0
O391 O 0.62635 0.35514 0.46706 0.0
C392 C 0.67806 0.29141 0.56596 0.0
C393 C 0.64994 0.15912 0.62897 0.0
C394 C 0.66863 0.12987 0.69255 0.0
C395 C 0.67794 0.15356 0.6594 0.0
C396 C 0.6311 0.11219 0.69492 0.0
C397 C 0.61287 0.14065 0.63211 0.0
C398 C 0.60353 0.11753 0.66493 0.0
C399 C 0.69113 0.21093 0.48039 0.0
C400 C 0.65944 0.18497 0.59484 0.0
C401 C 0.48012 0.17103 0.59184 0.0
C402 C 0.48657 0.14501 0.5605 0.0
C403 C 0.61412 0.24589 0.44999 0.0
C404 C 0.64798 0.39946 0.41625 0.0
C405 C 0.61805 0.42707 0.40616 0.0
C406 C 0.62797 0.46429 0.38904 0.0
C407 C 0.66818 0.47321 0.38314 0.0
C408 C 0.68761 0.41002 0.41018 0.0
C409 C 0.69751 0.44656 0.39377 0.0
C410 C 0.57959 0.31102 0.53479 0.0
C411 C 0.63783 0.35901 0.43082 0.0
H412 H 0.70685 0.16733 0.65723 0.0
H413 H 0.62332 0.09382 0.71992 0.0
H414 H 0.59108 0.144 0.60923 0.0
H415 H 0.57479 0.10349 0.66705 0.0
H416 H 0.58734 0.41949 0.41122 0.0
H417 H 0.67703 0.50136 0.37063 0.0
H418 H 0.71101 0.38979 0.41772 0.0
H419 H 0.72822 0.45426 0.38912 0.0
Tb420 Tb 0.9732 0.39809 0.73425 0.0
C421 C 0.03368 0.2864 0.8515 0.0
C422 C 0.98353 0.29112 0.90195 0.0
C423 C 0.02051 0.2304 0.89482 0.0
C424 C 1.00448 0.30758 0.8698 0.0
C425 C 0.04258 0.24771 0.86428 0.0
C426 C 0.9913 0.25223 0.91391 0.0
C427 C 0.10001 0.24954 0.82264 0.0
N428 N 0.05597 0.30515 0.82397 0.0
C429 C 0.09096 0.28849 0.81269 0.0
C430 C 0.07509 0.22861 0.84789 0.0
Tb431 Tb 0.04047 0.37012 0.8103 0.0
N432 N 0.9986 0.34538 0.85798 0.0
C433 C 0.97431 0.36911 0.87959 0.0
C434 C 0.95687 0.31488 0.92233 0.0
C435 C 0.95245 0.35417 0.91122 0.0
H436 H 0.11269 0.30578 0.79722 0.0
H437 H 0.93328 0.37341 0.9279 0.0
H438 H 0.97574 0.23915 0.93862 0.0
H439 H 0.12707 0.23634 0.81221 0.0
H440 H 0.97355 0.4002 0.87446 0.0
H441 H 0.02182 0.37659 0.5829 0.0
H442 H 0.94096 0.30385 0.94778 0.0
H443 H 0.93167 0.48561 0.75988 0.0
H444 H 0.98628 0.35931 0.64285 0.0
H445 H 0.94873 0.55586 0.75413 0.0
H446 H 0.02689 0.20077 0.90496 0.0
H447 H 0.05319 0.44263 0.57566 0.0
H448 H 0.06623 0.50997 0.60454 0.0
H449 H 0.08275 0.19886 0.85668 0.0
H450 H 0.04848 0.5594 0.65457 0.0
N451 N 1.00149 0.41275 0.67343 0.0
C452 C 1.001 0.38773 0.64144 0.0
C453 C 0.03846 0.43476 0.60293 0.0
C454 C 0.03571 0.46174 0.63398 0.0
C455 C 0.02047 0.39776 0.60658 0.0
C456 C 0.01612 0.44989 0.66889 0.0
H457 H 1.00306 0.5773 0.71026 0.0
N458 N 0.9806 0.46576 0.72529 0.0
C459 C 0.96605 0.53409 0.73863 0.0
C460 C 1.00605 0.47745 0.69669 0.0
C461 C 0.95725 0.49379 0.74264 0.0
C462 C 0.99678 0.54605 0.71393 0.0
C463 C 0.01558 0.51776 0.69071 0.0
O464 O 0.91163 0.40771 0.74165 0.0
O465 O 0.9809 0.36318 0.78865 0.0
O466 O 0.04854 0.32706 0.75938 0.0
O467 O 1.00838 0.35143 0.70916 0.0
O468 O 0.95404 0.3362 0.74209 0.0
O469 O 0.93368 0.39002 0.68636 0.0
O470 O 0.09854 0.37069 0.83328 0.0
O471 O 0.03354 0.41118 0.7599 0.0
O472 O 0.95666 0.42849 0.78896 0.0
O473 O 0.01622 0.43066 0.82204 0.0
O474 O 0.08738 0.38385 0.76947 0.0
O475 O 0.05204 0.39685 0.86561 0.0
C476 C 0.96476 0.33074 0.77791 0.0
C477 C 0.86894 0.36634 0.70168 0.0
C478 C 0.81278 0.33579 0.66517 0.0
C479 C 0.84354 0.36495 0.66802 0.0
C480 C 0.80847 0.30835 0.69583 0.0
C481 C 0.86273 0.33823 0.73142 0.0
C482 C 0.83315 0.30957 0.72849 0.0
C483 C 0.03499 0.3266 0.72209 0.0
C484 C 0.90194 0.39634 0.7063 0.0
C485 C 0.03996 0.52877 0.65901 0.0
C486 C 0.04986 0.5007 0.63042 0.0
C487 C 0.06951 0.40782 0.74631 0.0
C488 C 0.11684 0.41763 0.88282 0.0
C489 C 0.1255 0.41929 0.92376 0.0
C490 C 0.14897 0.45068 0.93937 0.0
C491 C 0.16116 0.48086 0.91323 0.0
C492 C 0.13533 0.44459 0.85774 0.0
C493 C 0.1559 0.47694 0.87277 0.0
C494 C 0.9802 0.44486 0.81542 0.0
C495 C 0.08908 0.38776 0.86617 0.0
H496 H 0.84735 0.38638 0.64462 0.0
H497 H 0.78548 0.28592 0.6946 0.0
H498 H 0.88084 0.33829 0.75721 0.0
H499 H 0.82921 0.28821 0.75194 0.0
H500 H 0.11472 0.39601 0.94294 0.0
H501 H 0.17729 0.50649 0.92389 0.0
H502 H 0.13411 0.43995 0.82654 0.0
H503 H 0.16848 0.49875 0.85301 0.0
Tb504 Tb 0.90255 0.78708 0.05982 0.0
C505 C 0.76923 0.72217 0.95891 0.0
C506 C 0.74291 0.66667 0.99558 0.0
C507 C 0.70099 0.70147 0.94942 0.0
C508 C 0.77401 0.69334 0.98704 0.0
C509 C 0.7329 0.72612 0.93912 0.0
C510 C 0.70609 0.67156 0.97738 0.0
C511 C 0.7637 0.77491 0.89707 0.0
N512 N 0.80113 0.7444 0.94887 0.0
C513 C 0.7991 0.76982 0.91744 0.0
C514 C 0.73027 0.75336 0.9083 0.0
Tb515 Tb 0.85871 0.73183 0.98223 0.0
N516 N 0.8103 0.68896 1.0031 0.0
C517 C 0.81832 0.65615 0.025 0.0
C518 C 0.75045 0.63455 0.02026 0.0
C519 C 0.78855 0.62886 0.0344 0.0
H520 H 0.82458 0.78673 0.90818 0.0
H521 H 0.79508 0.60343 0.05251 0.0
H522 H 0.68179 0.65148 0.98361 0.0
H523 H 0.76223 0.79553 0.87277 0.0
H524 H 0.84765 0.65097 0.03545 0.0
H525 H 0.97099 0.91963 1.00048 0.0
H526 H 0.72753 0.61317 0.0273 0.0
H527 H 0.93216 0.72408 0.12859 0.0
H528 H 0.91887 0.86962 1.00634 0.0
H529 H 0.99144 0.71328 0.16841 0.0
H530 H 0.67278 0.7042 0.93476 0.0
H531 H 0.03401 0.91154 0.03594 0.0
H532 H 0.07596 0.87096 0.08102 0.0
H533 H 0.70292 0.75721 0.89235 0.0
H534 H 0.0824 0.81365 0.12502 0.0
N535 N 0.95107 0.83265 0.04584 0.0
C536 C 0.94579 0.8652 0.02244 0.0
C537 C 1.011 0.88931 0.03898 0.0
C538 C 0.01651 0.85593 0.06256 0.0
C539 C 0.97545 0.894 0.01896 0.0
C540 C 0.98549 0.828 0.0658 0.0
H541 H 0.05109 0.7547 0.15792 0.0
N542 N 0.95765 0.77115 0.09509 0.0
C543 C 0.99159 0.73604 0.14608 0.0
C544 C 0.98916 0.79584 0.09071 0.0
C545 C 0.95782 0.74251 0.12361 0.0
C546 C 0.02505 0.75964 0.1402 0.0
C547 C 0.02385 0.79056 0.11287 0.0
O548 O 0.87928 0.79195 0.11775 0.0
O549 O 0.85105 0.75223 0.04143 0.0
O550 O 0.82174 0.78598 0.9926 0.0
O551 O 0.86757 0.82666 0.02308 0.0
O552 O 0.87103 0.74232 0.096 0.0
O553 O 0.89515 0.84351 0.08502 0.0
O554 O 0.8659 0.71847 0.92245 0.0
O555 O 0.91089 0.76745 0.99707 0.0
O556 O 0.94527 0.74232 0.04558 0.0
O557 O 0.90333 0.6959 0.01693 0.0
O558 O 0.8843 0.77765 0.94522 0.0
O559 O 0.87737 0.67321 0.96611 0.0
C560 C 0.84331 0.73233 0.07218 0.0
C561 C 0.8961 0.84925 0.15538 0.0
C562 C 0.88411 0.87964 0.22056 0.0
C563 C 0.86968 0.86124 0.18569 0.0
C564 C 0.92501 0.88476 0.22473 0.0
C565 C 0.93658 0.85613 0.16052 0.0
C566 C 0.95089 0.87336 0.19497 0.0
C567 C 0.83299 0.82165 1.00595 0.0
C568 C 0.88141 0.83029 0.11843 0.0
C569 C 0.05542 0.81733 0.10842 0.0
C570 C 0.0517 0.85002 0.08344 0.0
C571 C 0.91539 0.78693 0.96466 0.0
C572 C 0.88385 0.65423 0.89527 0.0
C573 C 0.90403 0.61755 0.89929 0.0
C574 C 0.91226 0.59397 0.86541 0.0
C575 C 0.89992 0.60741 0.8284 0.0
C576 C 0.87212 0.66614 0.85742 0.0
C577 C 0.88002 0.64297 0.82452 0.0
C578 C 0.93721 0.70571 0.03511 0.0
C579 C 0.87537 0.68182 0.92883 0.0
H580 H 0.83822 0.85664 0.1821 0.0
H581 H 0.93701 0.89786 0.25116 0.0
H582 H 0.95733 0.84845 0.1379 0.0
H583 H 0.9823 0.87809 0.19856 0.0
H584 H 0.91343 0.60766 0.92807 0.0
H585 H 0.90544 0.58996 0.80224 0.0
H586 H 0.85664 0.69368 0.85307 0.0
H587 H 0.87051 0.65258 0.79573 0.0
Tb588 Tb 0.48269 0.65482 0.30917 0.0
C589 C 0.55961 0.52539 0.21722 0.0
C590 C 0.61116 0.50063 0.25962 0.0
C591 C 0.57927 0.45636 0.21307 0.0
C592 C 0.5855 0.53121 0.24818 0.0
C593 C 0.55683 0.48798 0.19883 0.0
C594 C 0.60688 0.46284 0.24299 0.0
C595 C 0.51641 0.51741 0.14869 0.0
N596 N 0.54071 0.5574 0.20235 0.0
C597 C 0.52133 0.55416 0.16692 0.0
C598 C 0.53361 0.48401 0.1651 0.0
Tb599 Tb 0.54892 0.61537 0.23775 0.0
N600 N 0.58906 0.56816 0.26361 0.0
C601 C 0.62086 0.57752 0.28655 0.0
C602 C 0.64171 0.50946 0.28587 0.0
C603 C 0.64704 0.54828 0.29878 0.0
H604 H 0.50831 0.57937 0.1528 0.0
H605 H 0.67153 0.55584 0.3178 0.0
H606 H 0.62566 0.43877 0.25216 0.0
H607 H 0.4998 0.51499 0.1216 0.0
H608 H 0.62629 0.6075 0.29542 0.0
H609 H 0.33968 0.71271 0.27103 0.0
H610 H 0.66221 0.48688 0.29507 0.0
H611 H 0.54576 0.68794 0.37787 0.0
H612 H 0.38925 0.66128 0.28071 0.0
H613 H 0.55915 0.74951 0.4133 0.0
H614 H 0.57716 0.42737 0.19959 0.0
H615 H 0.35367 0.78118 0.2929 0.0
H616 H 0.39902 0.8282 0.32866 0.0
H617 H 0.5305 0.45573 0.15035 0.0
H618 H 0.45928 0.83831 0.36786 0.0
N619 N 0.43402 0.70078 0.30055 0.0
C620 C 0.39731 0.69139 0.28675 0.0
C621 C 0.37623 0.75885 0.29559 0.0
C622 C 0.41217 0.76729 0.31402 0.0
C623 C 0.36836 0.72035 0.28291 0.0
C624 C 0.44039 0.73697 0.3169 0.0
H625 H 0.51877 0.80887 0.4005 0.0
N626 N 0.49795 0.71118 0.34451 0.0
C627 C 0.53538 0.74831 0.39216 0.0
C628 C 0.4737 0.74248 0.33946 0.0
C629 C 0.52736 0.71308 0.37217 0.0
C630 C 0.51251 0.78161 0.38487 0.0
C631 C 0.48056 0.77869 0.35899 0.0
O632 O 0.43524 0.61663 0.32539 0.0
O633 O 0.5244 0.60738 0.29586 0.0
O634 O 0.4901 0.58242 0.23299 0.0
O635 O 0.44675 0.62435 0.26601 0.0
O636 O 0.52257 0.62605 0.35157 0.0
O637 O 0.46157 0.65496 0.3679 0.0
O638 O 0.60093 0.60355 0.20548 0.0
O639 O 0.506 0.66338 0.24606 0.0
O640 O 0.52657 0.69965 0.29356 0.0
O641 O 0.57784 0.65767 0.28021 0.0
O642 O 0.51054 0.63505 0.19212 0.0
O643 O 0.58157 0.66259 0.21069 0.0
C644 C 0.53935 0.60078 0.32936 0.0
C645 C 0.43212 0.59603 0.3935 0.0
C646 C 0.40542 0.56897 0.45643 0.0
C647 C 0.4064 0.59913 0.42689 0.0
C648 C 0.4303 0.53632 0.4517 0.0
C649 C 0.45597 0.5626 0.39036 0.0
C650 C 0.45518 0.53319 0.4191 0.0
C651 C 0.45335 0.59322 0.2435 0.0
C652 C 0.43509 0.62754 0.36234 0.0
C653 C 0.45426 0.81008 0.35355 0.0
C654 C 0.41999 0.80433 0.3312 0.0
C655 C 0.49332 0.66395 0.20943 0.0
C656 C 0.62802 0.64813 0.15804 0.0
C657 C 0.66549 0.6677 0.15459 0.0
C658 C 0.68444 0.67223 0.1172 0.0
C659 C 0.66465 0.65769 0.08387 0.0
C660 C 0.61043 0.63292 0.12385 0.0
C661 C 0.62823 0.63832 0.08715 0.0
C662 C 0.5648 0.69314 0.29118 0.0
C663 C 0.6094 0.64001 0.1974 0.0
H664 H 0.38746 0.62459 0.4299 0.0
H665 H 0.43032 0.51286 0.47343 0.0
H666 H 0.47536 0.55925 0.36551 0.0
H667 H 0.47403 0.50769 0.41603 0.0
H668 H 0.68022 0.67842 0.18082 0.0
H669 H 0.67766 0.6611 0.05507 0.0
H670 H 0.5828 0.61666 0.12557 0.0
H671 H 0.61393 0.62691 0.06099 0.0
Tb672 Tb 0.21712 0.53442 0.15994 0.0
C673 C 0.32149 0.45257 0.03703 0.0
C674 C 0.28221 0.39554 0.01898 0.0
C675 C 0.33244 0.42025 0.97397 0.0
C676 C 0.29214 0.4259 0.0458 0.0
C677 C 0.34231 0.45007 1.0011 0.0
C678 C 0.30242 0.39295 0.98293 0.0
C679 C 0.38345 0.50417 0.02316 0.0
N680 N 0.33084 0.47991 0.06463 0.0
C681 C 0.3625 0.50471 0.05868 0.0
C682 C 0.37315 0.47687 0.99409 0.0
Tb683 Tb 0.29758 0.47685 0.1238 0.0
N684 N 0.27381 0.4293 0.08109 0.0
C685 C 0.24616 0.40168 0.09203 0.0
C686 C 0.25273 0.36839 0.02948 0.0
C687 C 0.23473 0.37142 0.06628 0.0
H688 H 0.3718 0.52506 0.08146 0.0
H689 H 0.212 0.35048 0.07489 0.0
H690 H 0.2952 0.3699 0.96192 0.0
H691 H 0.40795 0.52439 0.01854 0.0
H692 H 0.23128 0.40381 0.11987 0.0
H693 H 0.24376 0.67936 0.22463 0.0
H694 H 0.24401 0.34481 1.00964 0.0
H695 H 0.15088 0.46597 0.18624 0.0
H696 H 0.24514 0.63017 0.17237 0.0
H697 H 0.11181 0.4486 0.24487 0.0
H698 H 0.34804 0.41782 0.9462 0.0
H699 H 0.21569 0.66276 0.28979 0.0
H700 H 0.17907 0.61417 0.33235 0.0
H701 H 0.38979 0.47605 0.96682 0.0
H702 H 0.14257 0.5512 0.33785 0.0
N703 N 0.21878 0.58377 0.20699 0.0
C704 C 0.23273 0.62143 0.20028 0.0
C705 C 0.21615 0.64055 0.2668 0.0
C706 C 0.19931 0.60319 0.27275 0.0
C707 C 0.23187 0.65006 0.23003 0.0
C708 C 0.20035 0.57548 0.24166 0.0
H709 H 0.11641 0.4897 0.305 0.0
N710 N 0.17789 0.51669 0.21255 0.0
C711 C 0.13076 0.47447 0.2453 0.0
C712 C 0.1789 0.54081 0.24445 0.0
C713 C 0.15273 0.4847 0.2119 0.0
C714 C 0.13348 0.49773 0.27915 0.0
C715 C 0.15713 0.53182 0.27878 0.0
O716 O 0.15881 0.53666 0.1384 0.0
O717 O 0.24013 0.49943 0.11081 0.0
O718 O 0.29984 0.53708 0.09463 0.0
O719 O 0.25808 0.57547 0.13369 0.0
O720 O 0.18405 0.48924 0.12668 0.0
O721 O 0.1974 0.58678 0.13228 0.0
O722 O 0.35716 0.46179 0.13317 0.0
O723 O 0.27985 0.51559 0.17183 0.0
O724 O 0.23123 0.49289 0.20642 0.0
O725 O 0.26142 0.44423 0.16972 0.0
O726 O 0.33558 0.52108 0.14867 0.0
O727 O 0.31065 0.42439 0.15469 0.0
C728 C 0.20949 0.48067 0.10016 0.0
C729 C 0.1279 0.599 0.1344 0.0
C730 C 0.06618 0.63124 0.11393 0.0
C731 C 0.0995 0.60768 0.10495 0.0
C732 C 0.06183 0.64544 0.15252 0.0
C733 C 0.12247 0.61403 0.17247 0.0
C734 C 0.08974 0.63707 0.18138 0.0
C735 C 0.28329 0.57161 0.10466 0.0
C736 C 0.16196 0.57288 0.12587 0.0
C737 C 0.15866 0.55779 0.31101 0.0
C738 C 0.17957 0.59355 0.30793 0.0
C739 C 0.31334 0.53392 0.1765 0.0
C740 C 0.37059 0.39275 0.13798 0.0
C741 C 0.37871 0.36256 0.16558 0.0
C742 C 0.40074 0.32902 0.1544 0.0
C743 C 0.41395 0.32588 0.11533 0.0
C744 C 0.38447 0.38882 0.09922 0.0
C745 C 0.40583 0.35553 0.08803 0.0
C746 C 0.24287 0.45602 0.20241 0.0
C747 C 0.34852 0.4284 0.15027 0.0
H748 H 0.10311 0.59605 0.07545 0.0
H749 H 0.03655 0.663 0.1604 0.0
H750 H 0.14328 0.60766 0.19551 0.0
H751 H 0.08582 0.64831 0.21097 0.0
H752 H 0.36831 0.36527 0.19565 0.0
H753 H 0.43076 0.30043 0.10601 0.0
H754 H 0.37917 0.41157 0.07762 0.0
H755 H 0.41636 0.35282 0.05804 0.0
Tb756 Tb 0.71935 0.99131 0.87601 0.0
C757 C 0.79372 0.1034 0.99819 0.0
C758 C 0.74901 0.15839 0.99471 0.0
C759 C 0.78884 0.14898 0.05333 0.0
C760 C 0.76563 0.12407 0.97821 0.0
C761 C 0.80629 0.11578 0.03581 0.0
C762 C 0.76043 0.17048 0.03264 0.0
C763 C 0.85612 0.06536 0.0332 0.0
N764 N 0.81101 0.07295 0.97924 0.0
C765 C 0.84315 0.05508 0.99543 0.0
C766 C 0.83727 0.09559 0.05373 0.0
Tb767 Tb 0.79134 0.0599 0.91599 0.0
N768 N 0.75574 0.11129 0.94177 0.0
C769 C 0.72927 0.13206 0.9199 0.0
C770 C 0.72232 0.17998 0.97215 0.0
C771 C 0.71242 0.16673 0.93453 0.0
H772 H 0.85859 0.03238 0.97931 0.0
H773 H 0.69136 0.18285 0.91697 0.0
H774 H 0.74806 0.19674 0.04593 0.0
H775 H 0.88097 0.05032 0.04617 0.0
H776 H 0.71973 0.12118 0.89175 0.0
H777 H 0.80619 0.89325 0.78625 0.0
H778 H 0.70933 0.2069 0.98334 0.0
H779 H 0.63417 0.03705 0.85812 0.0
H780 H 0.78418 0.92517 0.8478 0.0
H781 H 0.58974 0.04713 0.80186 0.0
H782 H 0.79796 0.15895 0.08225 0.0
H783 H 0.76933 0.90493 0.72451 0.0
H784 H 0.71099 0.93595 0.69098 0.0
H785 H 0.84777 0.10403 0.08267 0.0
H786 H 0.65153 0.97711 0.69549 0.0
N787 N 0.74003 0.95902 0.82052 0.0
C788 C 0.77019 0.93269 0.82062 0.0
C789 C 0.76068 0.92004 0.75127 0.0
C790 C 0.72763 0.94455 0.75202 0.0
C791 C 0.78171 0.91359 0.78596 0.0
C792 C 0.71781 0.96356 0.78763 0.0
H793 H 0.60593 0.0185 0.73682 0.0
N794 N 0.67624 1.004 0.82523 0.0
C795 C 0.61644 0.03019 0.79812 0.0
C796 C 0.68437 0.98637 0.79014 0.0
C797 C 0.64178 0.02439 0.83002 0.0
C798 C 0.62564 1.01394 0.76145 0.0
C799 C 0.65977 0.99137 0.75718 0.0
O800 O 0.66934 0.97075 0.90667 0.0
O801 O 0.73268 0.0376 0.91795 0.0
O802 O 0.78544 1.00699 0.95726 0.0
O803 O 0.75633 0.95917 0.91646 0.0
O804 O 0.6757 0.022 0.91409 0.0
O805 O 0.70623 0.92992 0.87538 0.0
O806 O 0.85151 0.07707 0.9146 0.0
O807 O 0.78328 1.01106 0.87435 0.0
O808 O 0.71965 0.03992 0.83475 0.0
O809 O 0.76923 0.08208 0.85778 0.0
O810 O 0.834 0.01409 0.90883 0.0
O811 O 0.80948 0.10587 0.87789 0.0
C812 C 0.69936 0.0443 0.93359 0.0
C813 C 0.63734 0.91379 0.88288 0.0
C814 C 0.57388 0.88319 0.90049 0.0
C815 C 0.60996 0.90091 0.91163 0.0
C816 C 0.56553 0.87837 0.86032 0.0
C817 C 0.6285 0.90836 0.84292 0.0
C818 C 0.59273 0.89082 0.83178 0.0
C819 C 0.77278 0.96958 0.95021 0.0
C820 C 0.67378 0.93438 0.89559 0.0
C821 C 0.66988 0.9734 0.72129 0.0
C822 C 0.70378 0.95004 0.7187 0.0
C823 C 0.81701 0.99431 0.88126 0.0
C824 C 0.86285 0.1454 0.89986 0.0
C825 C 0.87557 0.17183 0.86986 0.0
C826 C 0.89164 0.20948 0.8796 0.0
C827 C 0.89303 0.22051 0.91945 0.0
C828 C 0.86606 0.15724 0.93932 0.0
C829 C 0.88062 0.19461 0.94894 0.0
C830 C 0.74207 0.07153 0.83134 0.0
C831 C 0.84576 0.10597 0.88998 0.0
H832 H 0.61658 0.90479 0.94262 0.0
H833 H 0.5381 0.86458 0.85111 0.0
H834 H 0.64906 0.91772 0.82034 0.0
H835 H 0.58607 0.88681 0.80088 0.0
H836 H 0.87346 0.16306 0.83925 0.0
H837 H 0.90385 0.24937 0.92783 0.0
H838 H 0.85734 0.13768 0.96289 0.0
H839 H 0.88242 0.20354 0.9795 0.0
Tb840 Tb 0.74219 0.97626 0.40333 0.0
C841 C 0.86098 0.03197 0.28621 0.0
C842 C 0.91255 0.983 0.28948 0.0
C843 C 0.90064 0.0173 0.22806 0.0
C844 C 0.88127 1.00388 0.30742 0.0
C845 C 0.87108 0.0395 0.24643 0.0
C846 C 0.92152 0.98929 0.24962 0.0
C847 C 0.82736 0.0951 0.24755 0.0
N848 N 0.83381 0.0542 0.3053 0.0
C849 C 0.81949 0.08735 0.28718 0.0
C850 C 0.85267 0.07052 0.22678 0.0
Tb851 Tb 0.82276 0.03892 0.37074 0.0
N852 N 0.87182 0.9984 0.346 0.0
C853 C 0.89474 0.97383 0.36852 0.0
C854 C 0.93489 0.95733 0.31236 0.0
C855 C 0.92607 0.95296 0.35205 0.0
H856 H 0.80282 0.10865 0.30356 0.0
H857 H 0.94359 0.93356 0.3702 0.0
H858 H 0.94518 0.9733 0.23541 0.0
H859 H 0.81485 0.12078 0.23343 0.0
H860 H 0.88999 0.96948 0.39943 0.0
H861 H 0.63959 0.08987 0.44667 0.0
H862 H 0.95966 0.94155 0.3 0.0
H863 H 0.75881 0.8892 0.44283 0.0
H864 H 0.6827 0.0547 0.40131 0.0
H865 H 0.74898 0.856 0.507 0.0
H866 H 0.9085 0.02252 0.19755 0.0
H867 H 0.63027 0.06568 0.51505 0.0
H868 H 0.64428 1.01356 0.56598 0.0
H869 H 0.8595 0.07707 0.19627 0.0
H870 H 0.67498 0.94999 0.58283 0.0
N871 N 0.69998 1.01109 0.44316 0.0
C872 C 0.67928 0.04328 0.43071 0.0
C873 C 0.6495 0.04994 0.49505 0.0
C874 C 0.6688 0.01559 0.50698 0.0
C875 C 0.65443 0.06352 0.45654 0.0
C876 C 0.69395 0.99659 0.47992 0.0
H877 H 0.714 0.89064 0.56085 0.0
N878 N 0.73361 0.94337 0.46166 0.0
C879 C 0.7388 0.88594 0.50274 0.0
C880 C 0.71136 0.96133 0.48954 0.0
C881 C 0.74485 0.90499 0.46664 0.0
C882 C 0.719 0.90556 0.53304 0.0
C883 C 0.704 0.94337 0.52627 0.0
O884 O 0.72822 0.9223 0.37468 0.0
O885 O 0.79137 0.98468 0.36248 0.0
O886 O 0.76699 0.05285 0.33391 0.0
O887 O 0.71688 1.01149 0.35817 0.0
O888 O 0.78259 0.92938 0.38222 0.0
O889 O 0.68287 0.96325 0.38802 0.0
O890 O 0.84453 0.0974 0.36524 0.0
O891 O 0.76506 0.03876 0.40006 0.0
O892 O 0.78288 0.97634 0.4528 0.0
O893 O 0.83929 1.00361 0.42356 0.0
O894 O 0.80778 0.07454 0.42152 0.0
O895 O 0.8751 0.05453 0.40053 0.0
C896 C 0.80377 0.94978 0.35802 0.0
C897 C 0.66477 0.89457 0.38444 0.0
C898 C 0.63255 0.83079 0.36818 0.0
C899 C 0.65645 0.86367 0.35713 0.0
C900 C 0.61762 0.82941 0.40674 0.0
C901 C 0.64883 0.89215 0.42251 0.0
C902 C 0.62555 0.85979 0.4335 0.0
C903 C 0.7295 0.03833 0.33336 0.0
C904 C 0.6907 0.9286 0.3734 0.0
C905 C 0.68062 0.96302 0.55421 0.0
C906 C 0.66308 0.99916 0.54458 0.0
C907 C 0.77165 0.06528 0.42668 0.0
C908 C 0.91432 0.10668 0.3741 0.0
C909 C 0.94409 0.11557 0.40218 0.0
C910 C 0.98039 0.13319 0.39048 0.0
C911 C 0.98648 0.14069 0.35018 0.0
C912 C 0.92171 0.11454 0.3342 0.0
C913 C 0.95757 0.13127 0.32243 0.0
C914 C 0.8207 0.98566 0.45325 0.0
C915 C 0.87543 0.0906 0.38705 0.0
H916 H 0.6686 0.86507 0.32763 0.0
H917 H 0.59972 0.80464 0.41629 0.0
H918 H 0.6545 0.91523 0.4439 0.0
H919 H 0.61363 0.85816 0.46305 0.0
H920 H 0.93882 0.10937 0.43306 0.0
H921 H 1.01413 0.15323 0.33999 0.0
H922 H 0.89973 0.108 0.31205 0.0
H923 H 0.96297 0.13711 0.29154 0.0
Tb924 Tb 0.29901 0.4841 0.66278 0.0
C925 C 0.22539 0.55716 0.52308 0.0
C926 C 0.27257 0.60721 0.50348 0.0
C927 C 0.23494 0.57189 0.45363 0.0
C928 C 0.25408 0.58414 0.53289 0.0
C929 C 0.2143 0.55163 0.48345 0.0
C930 C 0.26403 0.59982 0.46367 0.0
C931 C 0.15899 0.51256 0.50642 0.0
N932 N 0.20531 0.53972 0.55289 0.0
C933 C 0.17084 0.51976 0.54524 0.0
C934 C 0.18138 0.5278 0.47529 0.0
Tb935 Tb 0.22988 0.5485 0.61543 0.0
N936 N 0.26081 0.5906 0.57167 0.0
C937 C 0.28184 0.62335 0.58298 0.0
C938 C 0.29749 0.63819 0.51509 0.0
C939 C 0.30121 0.64699 0.55506 0.0
H940 H 0.1529 0.50874 0.56914 0.0
H941 H 0.31872 0.67219 0.56441 0.0
H942 H 0.27855 0.61663 0.44059 0.0
H943 H 0.13244 0.49557 0.50059 0.0
H944 H 0.28342 0.63208 0.6133 0.0
H945 H 0.23761 0.35842 0.74012 0.0
H946 H 0.31236 0.65661 0.4935 0.0
H947 H 0.37467 0.54293 0.69276 0.0
H948 H 0.26754 0.39359 0.6832 0.0
H949 H 0.40648 0.56064 0.75449 0.0
H950 H 0.22735 0.56761 0.42294 0.0
H951 H 0.24634 0.38674 0.80687 0.0
H952 H 0.28293 0.43616 0.84928 0.0
H953 H 0.1719 0.52269 0.44525 0.0
H954 H 0.33255 0.48966 0.85319 0.0
N955 N 0.27994 0.44542 0.71492 0.0
C956 C 0.26509 0.40824 0.71095 0.0
C957 C 0.25632 0.40326 0.78135 0.0
C958 C 0.27899 0.43775 0.78557 0.0
C959 C 0.25089 0.38741 0.74373 0.0
C960 C 0.29123 0.45787 0.75123 0.0
H961 H 0.38059 0.53464 0.81785 0.0
N962 N 0.3322 0.50395 0.71908 0.0
C963 C 0.38159 0.54049 0.75485 0.0
C964 C 0.31955 0.48726 0.75344 0.0
C965 C 0.36379 0.52953 0.7194 0.0
C966 C 0.36698 0.52564 0.7904 0.0
C967 C 0.33571 0.49842 0.79001 0.0
O968 O 0.3258 0.4496 0.61786 0.0
O969 O 0.28772 0.52353 0.61318 0.0
O970 O 0.22786 0.48594 0.58752 0.0
O971 O 0.25814 0.44437 0.63318 0.0
O972 O 0.34201 0.52499 0.63431 0.0
O973 O 0.34638 0.44588 0.67638 0.0
O974 O 0.17743 0.58042 0.60635 0.0
O975 O 0.2352 0.50123 0.65904 0.0
O976 O 0.28462 0.53279 0.70228 0.0
O977 O 0.26942 0.58162 0.65817 0.0
O978 O 0.17992 0.52018 0.64289 0.0
O979 O 0.21389 0.59329 0.65612 0.0
C980 C 0.32114 0.53889 0.60625 0.0
C981 C 0.39507 0.43995 0.62571 0.0
C982 C 0.45463 0.41471 0.59199 0.0
C983 C 0.41486 0.40929 0.60489 0.0
C984 C 0.47331 0.45121 0.59876 0.0
C985 C 0.41614 0.47498 0.63372 0.0
C986 C 0.45429 0.48091 0.61956 0.0
C987 C 0.23826 0.44922 0.59998 0.0
C988 C 0.35329 0.43569 0.6402 0.0
C989 C 0.32102 0.48102 0.82469 0.0
C990 C 0.29255 0.45075 0.82249 0.0
C991 C 0.19746 0.49603 0.66582 0.0
C992 C 0.17486 0.64657 0.63176 0.0
C993 C 0.16024 0.67004 0.66335 0.0
C994 C 0.14951 0.71023 0.65733 0.0
C995 C 0.15408 0.72627 0.61943 0.0
C996 C 0.17972 0.66421 0.59465 0.0
C997 C 0.16941 0.70364 0.58865 0.0
C998 C 0.28228 0.57037 0.69356 0.0
C999 C 0.18249 0.60335 0.63686 0.0
H1000 H 0.40009 0.38121 0.59994 0.0
H1001 H 0.50356 0.45607 0.5894 0.0
H1002 H 0.40368 0.49781 0.65171 0.0
H1003 H 0.46967 0.50839 0.62576 0.0
H1004 H 0.15632 0.65691 0.6922 0.0
H1005 H 0.14583 0.7566 0.6137 0.0
H1006 H 0.19089 0.64731 0.56998 0.0
H1007 H 0.17291 0.71666 0.55974 0.0
C1008 C 0.22137 0.33695 0.58609 0.0
C1009 C 0.20975 0.33158 0.5472 0.0
C1010 C 0.22378 0.40408 0.53772 0.0
C1011 C 0.22527 0.41003 0.57957 0.0
N1012 N 0.21384 0.37782 0.64244 0.0
N1013 N 0.21918 0.35688 0.48268 0.0
C1014 C 0.22098 0.37516 0.60326 0.0
C1015 C 0.21664 0.36463 0.52192 0.0
N1016 N 0.23785 0.30629 0.6053 0.0
N1017 N 0.22847 0.43559 0.51308 0.0
H1018 H 0.21814 0.32771 0.47259 0.0
H1019 H 0.22572 0.37771 0.46108 0.0
H1020 H 0.23482 0.46392 0.52301 0.0
H1021 H 0.22462 0.43429 0.48275 0.0
H1022 H 0.25078 0.30942 0.63299 0.0
H1023 H 0.24444 0.28064 0.58974 0.0
H1024 H 0.21298 0.35323 0.66096 0.0
H1025 H 0.20612 0.40418 0.65585 0.0
C1026 C 0.86478 0.93963 0.87153 0.0
C1027 C 0.84567 0.97299 0.85487 0.0
C1028 C 0.9008 0.97778 0.807 0.0
C1029 C 0.92229 0.94796 0.82733 0.0
N1030 N 0.92507 0.90442 0.88309 0.0
N1031 N 0.85178 0.0293 0.8117 0.0
C1032 C 0.90433 0.93035 0.86091 0.0
C1033 C 0.86522 0.99336 0.82364 0.0
N1034 N 0.84487 0.91614 0.89763 0.0
N1035 N 0.91428 0.99162 0.7717 0.0
H1036 H 0.82664 0.04215 0.8235 0.0
H1037 H 0.8674 0.04771 0.79251 0.0
H1038 H 0.94087 0.9827 0.7594 0.0
H1039 H 0.89764 1.00983 0.75352 0.0
H1040 H 0.85526 0.88911 0.90777 0.0
H1041 H 0.81582 0.92124 0.90542 0.0
H1042 H 0.91627 0.89446 0.9108 0.0
H1043 H 0.95271 0.89539 0.87458 0.0
C1044 C 0.27832 0.66777 0.04549 0.0
C1045 C 0.3017 0.69284 0.06997 0.0
C1046 C 0.32092 0.63482 0.10743 0.0
C1047 C 0.29464 0.61014 0.08636 0.0
N1048 N 0.23819 0.6083 0.04279 0.0
N1049 N 0.32983 0.70041 0.13383 0.0
C1050 C 0.27004 0.62811 0.05762 0.0
C1051 C 0.31748 0.67636 0.10434 0.0
N1052 N 0.26517 0.68112 1.01008 0.0
N1053 N 0.35056 0.61899 0.12893 0.0
H1054 H 0.32378 0.73049 0.13322 0.0
H1055 H 0.34034 0.68952 0.16034 0.0
H1056 H 0.35559 0.58871 0.1296 0.0
H1057 H 0.3733 0.63668 0.13991 0.0
H1058 H 0.25159 0.66268 0.98946 0.0
H1059 H 0.27011 0.71 1.00067 0.0
H1060 H 0.2178 0.62161 0.02419 0.0
H1061 H 0.23009 0.58014 0.05225 0.0
C1062 C 0.62459 0.03988 0.29402 0.0
C1063 C 0.61403 0.07829 0.3065 0.0
C1064 C 0.68413 0.09384 0.31603 0.0
C1065 C 0.6952 0.05438 0.30984 0.0
N1066 N 0.67437 0.98871 0.29042 0.0
N1067 N 0.63383 0.13577 0.34275 0.0
C1068 C 0.6648 0.02715 0.29755 0.0
C1069 C 0.6439 0.10319 0.3218 0.0
N1070 N 0.59601 0.01554 0.27924 0.0
N1071 N 0.71132 0.12318 0.31263 0.0
H1072 H 0.60445 0.14224 0.34845 0.0
H1073 H 0.65465 0.15368 0.35667 0.0
H1074 H 0.73988 0.11708 0.30357 0.0
H1075 H 0.70347 0.15293 0.31257 0.0
H1076 H 0.6016 0.98894 0.26493 0.0
H1077 H 0.56626 0.02271 0.28143 0.0
H1078 H 0.65378 0.96608 0.28642 0.0
H1079 H 0.70349 0.97934 0.28963 0.0
C1080 C 0.72204 0.16903 0.42525 0.0
C1081 C 0.7152 0.17598 0.4657 0.0
C1082 C 0.73916 0.10773 0.47934 0.0
C1083 C 0.7468 0.10106 0.43862 0.0
N1084 N 0.76197 0.1355 0.37794 0.0
N1085 N 0.73012 0.15574 0.53191 0.0
C1086 C 0.74284 0.13457 0.41302 0.0
C1087 C 0.72722 0.14619 0.49294 0.0
N1088 N 0.70816 0.19476 0.39783 0.0
N1089 N 0.74457 0.0776 0.50548 0.0
H1090 H 0.72519 0.18433 0.5422 0.0
H1091 H 0.74182 0.13707 0.55317 0.0
H1092 H 0.75558 0.05012 0.49714 0.0
H1093 H 0.73531 0.07877 0.53471 0.0
H1094 H 0.71187 0.19097 0.36767 0.0
H1095 H 0.68967 0.21792 0.40487 0.0
H1096 H 0.7661 0.16132 0.36162 0.0
H1097 H 0.77664 0.11142 0.367 0.0
C1098 C 0.12167 0.46357 0.7427 0.0
C1099 C 0.09703 0.43559 0.72269 0.0
C1100 C 0.1415 0.44508 0.66531 0.0
C1101 C 0.1703 0.46698 0.6876 0.0
N1102 N 0.18728 0.49266 0.75098 0.0
N1103 N 0.09182 0.39419 0.66566 0.0
C1104 C 0.16008 0.47474 0.72739 0.0
C1105 C 0.1098 0.42467 0.68444 0.0
N1106 N 0.1079 0.48059 0.77611 0.0
N1107 N 0.14319 0.44438 0.62522 0.0
H1108 H 0.06886 0.3787 0.67835 0.0
H1109 H 0.10023 0.38402 0.63807 0.0
H1110 H 0.16532 0.45785 0.60923 0.0
H1111 H 0.12074 0.43325 0.60743 0.0
H1112 H 0.12126 0.50516 0.78919 0.0
H1113 H 0.08277 0.46977 0.79011 0.0
H1114 H 0.18309 0.49679 0.78109 0.0
H1115 H 0.21561 0.49928 0.74073 0.0
C1116 C 0.75609 0.89987 0.97268 0.0
C1117 C 0.77991 0.93449 0.97747 0.0
C1118 C 0.82073 0.89455 0.02091 0.0
C1119 C 0.80808 0.85913 1.00166 0.0
N1120 N 0.75037 0.82842 0.97305 0.0
N1121 N 0.82602 0.96575 0.0212 0.0
C1122 C 0.77177 0.86161 0.98115 0.0
C1123 C 0.81044 0.93226 1.00548 0.0
N1124 N 0.71689 0.9045 0.96562 0.0
N1125 N 0.83443 0.89196 0.05834 0.0
H1126 H 0.81032 0.99196 0.02053 0.0
H1127 H 0.85195 0.96598 0.0377 0.0
H1128 H 0.82943 0.86597 0.07407 0.0
H1129 H 0.84238 0.9163 0.0755 0.0
H1130 H 0.69654 0.88128 0.96476 0.0
H1131 H 0.70436 0.93256 0.96655 0.0
H1132 H 0.72634 0.82831 0.95397 0.0
H1133 H 0.75556 0.8016 0.98694 0.0
C1134 C 0.38253 0.5982 0.22098 0.0
C1135 C 0.41554 0.57333 0.22822 0.0
C1136 C 0.36854 0.51654 0.22274 0.0
C1137 C 0.33698 0.54265 0.21349 0.0
N1138 N 0.31305 0.60447 0.23441 0.0
N1139 N 0.43801 0.50687 0.24 0.0
C1140 C 0.34366 0.58251 0.22162 0.0
C1141 C 0.40797 0.53169 0.23054 0.0
N1142 N 0.38801 0.63714 0.21264 0.0
N1143 N 0.35996 0.47716 0.22389 0.0
H1144 H 0.46688 0.51671 0.24375 0.0
H1145 H 0.43481 0.47657 0.24401 0.0
H1146 H 0.33093 0.46715 0.2206 0.0
H1147 H 0.38042 0.45494 0.22854 0.0
H1148 H 0.36461 0.65646 0.20901 0.0
H1149 H 0.41565 0.64902 0.20629 0.0
H1150 H 0.31623 0.63369 0.24384 0.0
H1151 H 0.28688 0.5901 0.24215 0.0
C1152 C 0.56235 0.2437 0.34994 0.0
C1153 C 0.55124 0.20295 0.34897 0.0
C1154 C 0.55609 0.20455 0.42241 0.0
C1155 C 0.57934 0.2386 0.42149 0.0
N1156 N 0.5834 0.30057 0.38883 0.0
N1157 N 0.53567 0.14552 0.3893 0.0
C1158 C 0.57675 0.26109 0.38601 0.0
C1159 C 0.54785 0.18371 0.38675 0.0
N1160 N 0.55627 0.26645 0.31737 0.0
N1161 N 0.53325 0.19842 0.45466 0.0
H1162 H 0.53205 0.12824 0.36456 0.0
H1163 H 0.53311 0.13059 0.41602 0.0
H1164 H 0.53425 0.21822 0.47827 0.0
H1165 H 0.5101 0.17789 0.45488 0.0
H1166 H 0.56229 0.29655 0.31548 0.0
H1167 H 0.54417 0.25505 0.29163 0.0
H1168 H 0.58649 0.32 0.3653 0.0
H1169 H 0.58213 0.31361 0.41651 0.0
C1170 C 0.10277 0.30136 0.63933 0.0
C1171 C 0.07783 0.28505 0.61013 0.0
C1172 C 0.02446 0.28496 0.65997 0.0
C1173 C 0.05102 0.30013 0.68948 0.0
N1174 N 0.11919 0.30998 0.70745 0.0
N1175 N 1.01416 0.25898 0.59348 0.0
C1176 C 0.0914 0.30283 0.67946 0.0
C1177 C 0.03835 0.27598 0.62077 0.0
N1178 N 0.13608 0.32051 0.62789 0.0
N1179 N 0.98558 0.28002 0.66934 0.0
H1180 H 0.02238 0.25675 0.56405 0.0
H1181 H 0.98656 0.24687 0.59984 0.0
H1182 H 0.97538 0.28226 0.69812 0.0
H1183 H 0.96345 0.2744 0.64886 0.0
H1184 H 0.15306 0.3366 0.64751 0.0
H1185 H 0.14028 0.32837 0.59877 0.0
H1186 H 0.14939 0.3076 0.70205 0.0
H1187 H 0.11213 0.31478 0.73651 0.0
C1188 C 0.96894 0.78359 0.86667 0.0
C1189 C 0.98615 0.82232 0.86696 0.0
C1190 C 0.98022 0.81898 0.9404 0.0
C1191 C 0.95196 0.78905 0.93777 0.0
N1192 N 0.94767 0.72697 0.90588 0.0
N1193 N 1.01269 0.87382 0.90984 0.0
C1194 C 0.9536 0.76657 0.90255 0.0
C1195 C 0.99327 0.83885 0.90563 0.0
N1196 N 0.9688 0.76223 0.83274 0.0
N1197 N 1.00251 0.82042 0.97343 0.0
H1198 H 0.01958 0.89092 0.88564 0.0
H1199 H 0.01662 0.8876 0.93707 0.0
H1200 H 0.99829 0.79935 0.99549 0.0
H1201 H 0.02835 0.83728 0.9754 0.0
H1202 H 0.95367 0.73553 0.82931 0.0
H1203 H 0.98248 0.77251 0.80736 0.0
H1204 H 0.95214 0.70677 0.88322 0.0
H1205 H 0.94391 0.71437 0.9337 0.0
C1206 C 0.45018 0.72397 0.19102 0.0
C1207 C 0.47935 0.69705 0.18103 0.0
C1208 C 0.47095 0.72126 0.11157 0.0
C1209 C 0.43258 0.73536 0.11971 0.0
N1210 N 0.38945 0.755 0.1761 0.0
N1211 N 0.52637 0.68115 0.12967 0.0
C1212 C 0.42313 0.73818 0.16184 0.0
C1213 C 0.49205 0.6986 0.14046 0.0
N1214 N 0.45206 0.74113 0.22704 0.0
N1215 N 0.48937 0.73342 0.0781 0.0
H1216 H 0.54786 0.67465 0.15016 0.0
H1217 H 0.53409 0.67537 0.10053 0.0
H1218 H 0.477 0.75521 0.0608 0.0
H1219 H 0.51859 0.72719 0.07108 0.0
H1220 H 0.4353 0.76577 0.23442 0.0
H1221 H 0.47533 0.73487 0.24601 0.0
H1222 H 0.38029 0.75021 0.20507 0.0
H1223 H 0.37095 0.77443 0.16193 0.0
C1224 C 0.20907 0.42987 0.30564 0.0
C1225 C 0.18922 0.39339 0.29944 0.0
C1226 C 0.21787 0.39021 0.23231 0.0
C1227 C 0.23403 0.42897 0.23715 0.0
N1228 N 0.25578 0.47843 0.28452 0.0
N1229 N 0.18223 0.3341 0.26103 0.0
C1230 C 0.23334 0.44609 0.27557 0.0
C1231 C 0.19591 0.37214 0.26389 0.0
N1232 N 0.20424 0.45015 0.34009 0.0
N1233 N 0.22325 0.37068 0.19765 0.0
H1234 H 0.16691 0.3201 0.28385 0.0
H1235 H 0.18814 0.3153 0.23756 0.0
H1236 H 0.24595 0.37808 0.17841 0.0
H1237 H 0.20691 0.34606 0.18889 0.0
H1238 H 0.21767 0.47756 0.34524 0.0
H1239 H 0.18625 0.44012 0.363 0.0
H1240 H 0.27634 0.49113 0.2653 0.0
H1241 H 0.27634 0.49113 0.2653 0.0
C1242 C 0.86566 0.91981 0.53352 0.0
C1243 C 0.88816 0.94734 0.55564 0.0
C1244 C 0.86205 1.00113 0.51424 0.0
C1245 C 0.84415 0.97283 0.4887 0.0
N1246 N 0.83565 0.90434 0.471 0.0
N1247 N 0.9102 0.01431 0.5658 0.0
C1248 C 0.84742 0.93194 0.49783 0.0
C1249 C 0.88682 0.98813 0.54577 0.0
N1250 N 0.86203 0.88172 0.5465 0.0
N1251 N 0.85451 0.04037 0.50913 0.0
H1252 H 0.927 1.00601 0.59011 0.0
H1253 H 0.91449 0.04357 0.55716 0.0
H1254 H 0.83643 0.05078 0.48675 0.0
H1255 H 0.86333 0.0622 0.52894 0.0
H1256 H 0.84277 0.86118 0.53388 0.0
H1257 H 0.87531 0.87187 0.57234 0.0
H1258 H 0.84132 0.87424 0.47368 0.0
H1259 H 0.82329 0.91213 0.44422 0.0
C1260 C 0.32598 0.62681 0.72226 0.0
C1261 C 0.29443 0.59902 0.7265 0.0
C1262 C 0.30185 0.60415 0.79917 0.0
C1263 C 0.33383 0.63137 0.79497 0.0
N1264 N 0.3686 0.67663 0.75255 0.0
N1265 N 0.24394 0.57365 0.76938 0.0
C1266 C 0.34321 0.64531 0.75643 0.0
C1267 C 0.27978 0.59178 0.76521 0.0
N1268 N 0.34108 0.63416 0.68581 0.0
N1269 N 0.29378 0.58812 0.8352 0.0
H1270 H 0.22631 0.56708 0.74504 0.0
H1271 H 0.22987 0.56981 0.79643 0.0
H1272 H 0.3089 0.59629 0.86067 0.0
H1273 H 0.27418 0.56458 0.83924 0.0
H1274 H 0.36732 0.6496 0.68085 0.0
H1275 H 0.32811 0.62295 0.66049 0.0
H1276 H 0.37413 0.69087 0.72591 0.0
H1277 H 0.38115 0.69086 0.77682 0.0
C1278 C 0.69281 0.08336 0.04065 0.0
C1279 C 0.66142 0.11078 0.03811 0.0
C1280 C 0.65547 0.09542 0.96703 0.0
C1281 C 0.68665 0.06746 0.96985 0.0
N1282 N 0.71992 0.02329 1.01389 0.0
N1283 N 0.60691 0.13601 1.00076 0.0
C1284 C 0.70131 0.05824 1.00795 0.0
C1285 C 0.64095 0.11466 1.00178 0.0
N1286 N 0.71502 0.08145 0.07405 0.0
N1287 N 0.64052 0.10469 0.93087 0.0
H1288 H 0.59533 0.15 0.02556 0.0
H1289 H 0.58817 0.13686 0.97655 0.0
H1290 H 0.65032 0.09168 0.90484 0.0
H1291 H 0.62111 0.12786 0.92605 0.0
H1292 H 0.74071 0.0648 0.07582 0.0
H1293 H 0.70971 0.09903 0.0987 0.0
H1294 H 0.72934 1.01368 0.04143 0.0
H1295 H 0.71947 1.0014 0.99246 0.0
C1296 C 0.7009 0.14558 0.75821 0.0
C1297 C 0.69809 0.121 0.72431 0.0
C1298 C 0.73927 0.0714 0.75725 0.0
C1299 C 0.73722 0.09339 0.79289 0.0
N1300 N 0.73277 0.15826 0.82111 0.0
N1301 N 0.71724 0.06216 0.68964 0.0
C1302 C 0.7231 0.1327 0.79159 0.0
C1303 C 0.71891 0.08476 0.72302 0.0
N1304 N 0.68085 0.18043 0.75913 0.0
N1305 N 0.76191 0.03822 0.75616 0.0
H1306 H 0.7041 0.07191 0.66369 0.0
H1307 H 0.72774 0.03345 0.68759 0.0
H1308 H 0.77678 0.02792 0.78085 0.0
H1309 H 0.76836 0.02243 0.73071 0.0
H1310 H 0.67749 0.19745 0.78444 0.0
H1311 H 0.66571 0.19134 0.73477 0.0
H1312 H 0.72546 0.18809 0.82116 0.0
H1313 H 0.75308 0.15079 0.84272 0.0
C1314 C 0.1595 0.44771 0.0536 0.0
C1315 C 0.19639 0.46815 0.05858 0.0
C1316 C 0.20467 0.4626 0.98665 0.0
C1317 C 0.16469 0.45196 0.98128 0.0
N1318 N 0.10137 0.4412 1.01248 0.0
N1319 N 0.24741 0.50485 0.02348 0.0
C1320 C 0.14121 0.4461 1.01554 0.0
C1321 C 0.21748 0.47804 0.02338 0.0
N1322 N 0.14216 0.42877 0.08469 0.0
N1323 N 0.22983 0.45886 0.95558 0.0
H1324 H 0.2549 0.52031 0.04824 0.0
H1325 H 0.26068 0.5157 0.9979 0.0
H1326 H 0.26005 0.46468 0.95707 0.0
H1327 H 0.26005 0.46468 0.95707 0.0
H1328 H 0.11678 0.41142 0.08162 0.0
H1329 H 0.15584 0.42598 0.112 0.0
H1330 H 0.08287 0.44018 0.03704 0.0
H1331 H 0.08654 0.44268 0.9857 0.0
C1332 C 0.84667 0.89691 0.32543 0.0
C1333 C 0.8223 0.93093 0.32133 0.0
C1334 C 0.83485 0.9286 0.24918 0.0
C1335 C 0.85788 0.89408 0.25358 0.0
N1336 N 0.87682 0.83967 0.29461 0.0
N1337 N 0.78436 0.97061 0.27613 0.0
C1338 C 0.8608 0.87646 0.29136 0.0
C1339 C 0.81372 0.94417 0.28224 0.0
N1340 N 0.85842 0.88521 0.36198 0.0
N1341 N 0.83419 0.94765 0.21372 0.0
H1342 H 0.76736 0.9814 0.29887 0.0
H1343 H 0.77398 0.97836 0.24837 0.0
H1344 H 0.8489 0.9373 0.18883 0.0
H1345 H 0.82171 0.97539 0.20973 0.0
H1346 H 0.87948 0.86352 0.3668 0.0
H1347 H 0.85079 0.90041 0.38737 0.0
H1348 H 0.87619 0.82322 0.32052 0.0
H1349 H 0.88702 0.82388 0.27027 0.0
C1350 C 0.37095 0.57914 0.56448 0.0
C1351 C 0.33977 0.55017 0.56631 0.0
C1352 C 0.34665 0.54151 0.49383 0.0
C1353 C 0.37853 0.5688 0.4924 0.0
N1354 N 0.41765 0.61813 0.52496 0.0
N1355 N 0.30852 0.49532 0.53243 0.0
C1356 C 0.38956 0.58899 0.52742 0.0
C1357 C 0.33016 0.5294 0.53081 0.0
N1358 N 0.38439 0.59574 0.59866 0.0
N1359 N 0.33154 0.5273 0.45929 0.0
H1360 H 0.29839 0.48309 0.55848 0.0
H1361 H 0.30511 0.47631 0.50853 0.0
H1362 H 0.34275 0.5357 0.43186 0.0
H1363 H 0.3054 0.51094 0.45769 0.0
H1364 H 0.40902 0.61409 0.60078 0.0
H1365 H 0.37248 0.58916 0.62608 0.0
H1366 H 0.42516 0.63718 0.5478 0.0
H1367 H 0.43187 0.62531 0.49863 0.0
C1368 C 0.2811 0.22156 0.46096 0.0
C1369 C 0.24325 0.22189 0.44299 0.0
C1370 C 0.26971 0.18198 0.38842 0.0
C1371 C 0.30493 0.17553 0.41023 0.0
N1372 N 0.34413 0.18896 0.46803 0.0
N1373 N 0.2104 0.22078 0.3803 0.0
C1374 C 0.31102 0.196 0.4463 0.0
C1375 C 0.23983 0.20733 0.40391 0.0
N1376 N 0.28881 0.24728 0.49108 0.0
N1377 N 0.2646 0.16333 0.35306 0.0
H1378 H 0.19364 0.24511 0.3881 0.0
H1379 H 0.20694 0.2129 0.3509 0.0
H1380 H 0.28699 0.14748 0.33924 0.0
H1381 H 0.23779 0.16205 0.33822 0.0
H1382 H 0.31654 0.25108 0.50369 0.0
H1383 H 0.26835 0.26835 0.50016 0.0
H1384 H 0.34801 0.19913 0.49671 0.0
H1385 H 0.36662 0.17032 0.45869 0.0
C1386 C 0.07329 0.0254 0.69265 0.0
C1387 C 0.10116 0.02002 0.66182 0.0
C1388 C 0.09533 0.94751 0.67135 0.0
C1389 C 0.06638 0.95251 0.70152 0.0
N1390 N 0.02082 0.99772 0.73279 0.0
N1391 N 0.13031 0.97553 0.61517 0.0
C1392 C 0.05315 0.99187 0.7096 0.0
C1393 C 0.10933 0.98086 0.64912 0.0
N1394 N 0.0673 0.06249 0.70733 0.0
N1395 N 0.11147 0.91108 0.6653 0.0
H1396 H 0.14042 0.9992 0.5981 0.0
H1397 H 0.13399 0.94805 0.60186 0.0
H1398 H 0.10351 0.88608 0.6815 0.0
H1399 H 0.13573 0.90637 0.64707 0.0
H1400 H 0.05129 0.06803 0.73292 0.0
H1401 H 0.08084 0.08766 0.69564 0.0
H1402 H 1.00712 0.025 0.73582 0.0
H1403 H 1.00549 0.975 0.74653 0.0
C1404 C 0.2346 0.83788 0.95804 0.0
C1405 C 0.24253 0.85327 0.91998 0.0
C1406 C 0.30903 0.82377 0.92235 0.0
C1407 C 0.30071 0.80737 0.96016 0.0
N1408 N 0.25056 0.79002 1.008 0.0
N1409 N 0.28357 0.85279 0.86209 0.0
C1410 C 0.26186 0.81146 0.97592 0.0
C1411 C 0.27875 0.84384 0.90106 0.0
N1412 N 0.20196 0.85004 0.9783 0.0
N1413 N 0.34615 0.82076 0.90688 0.0
H1414 H 0.26172 0.86646 0.84548 0.0
H1415 H 0.30735 0.84329 0.84521 0.0
H1416 H 0.36893 0.806 0.92101 0.0
H1417 H 0.35549 0.83588 0.88182 0.0
H1418 H 0.19667 0.84305 1.0077 0.0
H1419 H 0.18183 0.87022 0.96711 0.0
H1420 H 0.22148 0.78785 0.01777 0.0
H1421 H 0.26973 0.77199 0.02314 0.0
C1422 C 0.48559 0.0324 0.19955 0.0
C1423 C 0.47192 0.07101 0.19026 0.0
C1424 C 0.42238 0.04005 0.14576 0.0
C1425 C 0.43188 1.00187 0.1604 0.0
N1426 N 0.47167 0.96196 0.20336 0.0
N1427 N 0.43584 0.11056 0.14346 0.0
C1428 C 0.46359 0.99809 0.18747 0.0
C1429 C 0.44262 0.07452 0.16022 0.0
N1430 N 0.52143 0.02819 0.21714 0.0
N1431 N 0.39318 0.04328 0.11821 0.0
H1432 H 0.44981 0.13648 0.15227 0.0
H1433 H 0.4185 0.11504 0.11869 0.0
H1434 H 0.38143 0.01887 0.10339 0.0
H1435 H 0.37956 0.06963 0.11065 0.0
H1436 H 0.53523 1.00099 0.22026 0.0
H1437 H 0.53967 0.05212 0.22398 0.0
H1438 H 0.49134 0.95797 0.22651 0.0
H1439 H 0.45642 0.93623 0.19573 0.0
C1440 C 0.78731 0.30329 0.60231 0.0
C1441 C 0.7831 0.33274 0.63185 0.0
C1442 C 0.71259 0.33812 0.61464 0.0
C1443 C 0.71603 0.30841 0.58473 0.0
N1444 N 0.76008 0.26673 0.54714 0.0
N1445 N 0.74422 0.38451 0.65971 0.0
C1446 C 0.7545 0.2925 0.57746 0.0
C1447 C 0.74647 0.35205 0.63585 0.0
N1448 N 0.82253 0.28408 0.59941 0.0
N1449 N 0.67642 0.35321 0.62318 0.0
H1450 H 0.76835 0.39524 0.67558 0.0
H1451 H 0.71985 0.403 0.66095 0.0
H1452 H 0.65257 0.34959 0.60446 0.0
H1453 H 0.67013 0.36925 0.64858 0.0
H1454 H 0.82683 0.25856 0.58289 0.0
H1455 H 0.84743 0.29289 0.61528 0.0
H1456 H 0.78768 0.25846 0.5367 0.0
H1457 H 0.73727 0.25538 0.53039 0.0
C1458 C 0.98769 0.51778 0.83623 0.0
C1459 C 0.96535 0.48181 0.83676 0.0
C1460 C 0.9096 0.51922 0.86597 0.0
C1461 C 0.93262 0.55441 0.86615 0.0
N1462 N 0.99655 0.58479 0.86104 0.0
N1463 N 0.90651 0.44801 0.85966 0.0
C1464 C 0.97287 0.55252 0.85508 0.0
C1465 C 0.92683 0.4825 0.85412 0.0
N1466 N 0.02071 0.52039 0.81344 0.0
N1467 N 0.87043 0.52129 0.8753 0.0
H1468 H 0.91713 0.42097 0.8504 0.0
H1469 H 0.88072 0.44571 0.87624 0.0
H1470 H 0.85757 0.547 0.88625 0.0
H1471 H 0.85034 0.49837 0.87042 0.0
H1472 H 0.03681 0.5464 0.80921 0.0
H1473 H 0.02791 0.49823 0.79363 0.0
H1474 H 0.02701 0.58442 0.85683 0.0
H1475 H 0.98607 0.61064 0.87408 0.0
C1476 C 0.76842 0.74239 0.08148 0.0
C1477 C 0.8026 0.71895 0.08745 0.0
C1478 C 0.7599 0.66912 0.12142 0.0
C1479 C 0.72537 0.69064 0.11145 0.0
N1480 N 0.69697 0.74698 0.07907 0.0
N1481 N 0.83148 0.6661 0.1251 0.0
C1482 C 0.72984 0.72702 0.09063 0.0
C1483 C 0.79845 0.68432 0.11132 0.0
N1484 N 0.77308 0.78123 0.07161 0.0
N1485 N 0.75583 0.63243 0.1379 0.0
H1486 H 0.85993 0.67539 0.11803 0.0
H1487 H 0.83099 0.64385 0.14624 0.0
H1488 H 0.72864 0.62039 0.14612 0.0
H1489 H 0.77888 0.61253 0.14081 0.0
H1490 H 0.74994 0.80116 0.06955 0.0
H1491 H 0.80067 0.79493 0.07155 0.0
H1492 H 0.69775 0.77018 0.05891 0.0
H1493 H 0.66855 0.73892 0.08797 0.0
C1494 C 0.60229 0.53377 0.39649 0.0
C1495 C 0.59814 0.49602 0.37872 0.0
C1496 C 0.54762 0.52459 0.33457 0.0
C1497 C 0.55855 0.56377 0.34644 0.0
N1498 N 0.59847 0.60463 0.38969 0.0
N1499 N 0.56592 0.45522 0.3301 0.0
C1500 C 0.58607 0.56792 0.37806 0.0
C1501 C 0.57002 0.49119 0.34797 0.0
N1502 N 0.62116 0.53683 0.4319 0.0
N1503 N 0.5153 0.51896 0.31132 0.0
H1504 H 0.58198 0.43049 0.33844 0.0
H1505 H 0.5488 0.45046 0.30511 0.0
H1506 H 0.49774 0.54211 0.30182 0.0
H1507 H 0.50341 0.49122 0.30494 0.0
H1508 H 0.62173 0.56262 0.44867 0.0
H1509 H 0.63235 0.51228 0.44662 0.0
H1510 H 0.62231 0.6093 0.40847 0.0
H1511 H 0.58728 0.6307 0.37832 0.0
C1512 C 0.43948 0.3022 0.21222 0.0
C1513 C 0.41042 0.29651 0.18276 0.0
C1514 C 0.41061 0.22485 0.19604 0.0
C1515 C 0.44047 0.23054 0.22501 0.0
N1516 N 0.46962 0.27597 0.27112 0.0
N1517 N 0.36014 0.25451 0.15492 0.0
C1518 C 0.45047 0.26976 0.23637 0.0
C1519 C 0.39327 0.25843 0.1775 0.0
N1520 N 0.45815 0.33793 0.21601 0.0
N1521 N 0.39996 0.18767 0.18467 0.0
H1522 H 0.34679 0.27856 0.14126 0.0
H1523 H 0.34376 0.22841 0.15289 0.0
H1524 H 0.41021 0.16254 0.19855 0.0
H1525 H 0.38251 0.18164 0.16017 0.0
H1526 H 0.48279 0.34217 0.23388 0.0
H1527 H 0.45104 0.36251 0.19902 0.0
H1528 H 0.47536 0.30401 0.28259 0.0
H1529 H 0.47508 0.25283 0.2906 0.0
C1530 C 0.95818 0.25865 0.80099 0.0
C1531 C 0.94555 0.2988 0.80323 0.0
C1532 C 0.89085 0.27655 0.84657 0.0
C1533 C 0.90745 0.23823 0.84927 0.0
N1534 N 0.9602 0.19407 0.83198 0.0
N1535 N 0.89909 0.34558 0.82949 0.0
C1536 C 0.94168 0.22944 0.82683 0.0
C1537 C 0.91167 0.30752 0.82652 0.0
N1538 N 0.9865 0.24817 0.77456 0.0
N1539 N 0.8541 0.28288 0.86187 0.0
H1540 H 0.91092 0.36827 0.81245 0.0
H1541 H 0.87829 0.35493 0.85002 0.0
H1542 H 0.83757 0.26057 0.87547 0.0
H1543 H 0.83828 0.30876 0.85755 0.0
H1544 H 0.99321 0.21897 0.7677 0.0
H1545 H 1.00165 0.26868 0.75769 0.0
H1546 H 0.98777 0.18766 0.8201 0.0
H1547 H 0.95002 0.17224 0.85117 0.0
C1548 C 0.9963 0.62534 0.08864 0.0
C1549 C 0.03482 0.64164 0.08428 0.0
C1550 C 1.00879 0.68715 0.03421 0.0
C1551 C 0.96937 0.6765 0.04454 0.0
N1552 N 0.92586 0.63558 0.08347 0.0
N1553 N 0.07765 0.68981 0.05367 0.0
C1554 C 0.96319 0.64498 0.07164 0.0
C1555 C 0.04118 0.67258 0.05671 0.0
N1556 N 0.99142 0.59111 0.10947 0.0
N1557 N 1.01511 0.71161 1.00281 0.0
H1558 H 0.10216 0.67956 0.06896 0.0
H1559 H 0.08304 0.71577 0.03802 0.0
H1560 H 0.992 0.72223 0.98568 0.0
H1561 H 0.04299 0.71807 0.99146 0.0
H1562 H 0.96482 0.57555 0.11092 0.0
H1563 H 1.01512 0.57628 0.12212 0.0
H1564 H 0.91947 0.61669 0.10687 0.0
H1565 H 0.90125 0.64876 0.0713 0.0
C1566 C 0.59256 0.80029 0.31215 0.0
C1567 C 0.62285 0.79686 0.34071 0.0
C1568 C 0.62261 0.72439 0.33061 0.0
C1569 C 0.59162 0.72768 0.30242 0.0
N1570 N 0.55813 0.77034 0.2569 0.0
N1571 N 0.67396 0.75723 0.36896 0.0
C1572 C 0.58027 0.76625 0.2902 0.0
C1573 C 0.64026 0.75935 0.34709 0.0
N1574 N 0.57401 0.83562 0.30726 0.0
N1575 N 0.63383 0.68813 0.34362 0.0
H1576 H 0.68739 0.78218 0.38131 0.0
H1577 H 0.69061 0.73164 0.37164 0.0
H1578 H 0.62357 0.66206 0.33126 0.0
H1579 H 0.6518 0.68383 0.36805 0.0
H1580 H 0.54841 0.83876 0.29066 0.0
H1581 H 0.5826 0.8613 0.32207 0.0
H1582 H 0.55139 0.79763 0.24454 0.0
H1583 H 0.55043 0.74625 0.23919 0.0
C1584 C 0.51802 0.35245 0.5212 0.0
C1585 C 0.54606 0.33719 0.54828 0.0
C1586 C 0.50522 0.36247 0.60299 0.0
C1587 C 0.48023 0.3821 0.57617 0.0
N1588 N 0.4647 0.39884 0.50921 0.0
N1589 N 0.56982 0.33613 0.6149 0.0
C1590 C 0.4871 0.37783 0.53503 0.0
C1591 C 0.54033 0.34428 0.58917 0.0
N1592 N 0.52025 0.34184 0.48249 0.0
N1593 N 0.49561 0.36147 0.64208 0.0
H1594 H 0.59587 0.32335 0.60564 0.0
H1595 H 0.56976 0.34495 0.6443 0.0
H1596 H 0.47032 0.37476 0.65334 0.0
H1597 H 0.51053 0.34417 0.6625 0.0
H1598 H 0.49877 0.34878 0.46182 0.0
H1599 H 0.54219 0.32327 0.47178 0.0
H1600 H 0.4709 0.40085 0.47923 0.0
H1601 H 0.44093 0.41602 0.51838 0.0
C1602 C 0.09457 0.72839 0.70548 0.0
C1603 C 0.13266 0.73623 0.68959 0.0
C1604 C 0.13561 0.79777 0.72963 0.0
C1605 C 0.09523 0.79292 0.74009 0.0
N1606 N 0.04787 0.74276 0.75745 0.0
N1607 N 0.19067 0.77803 0.68816 0.0
C1608 C 0.07803 0.75491 0.73366 0.0
C1609 C 0.15356 0.77081 0.70233 0.0
N1610 N 0.07306 0.69672 0.6923 0.0
N1611 N 0.15814 0.82467 0.7495 0.0
H1612 H 0.20626 0.75746 0.67149 0.0
H1613 H 0.20531 0.80501 0.69144 0.0
H1614 H 0.14812 0.83785 0.77528 0.0
H1615 H 0.18828 0.82873 0.74504 0.0
H1616 H 0.04367 0.6918 0.69999 0.0
H1617 H 0.08338 0.67697 0.67118 0.0
H1618 H 0.03545 0.71451 0.75667 0.0
H1619 H 0.04 0.75921 0.78211 0.0
C1620 C 0.51812 0.81241 0.96879 0.0
C1621 C 0.48469 0.83519 0.97975 0.0
C1622 C 0.5163 0.89302 0.94707 0.0
C1623 C 0.54525 0.86784 0.93058 0.0
N1624 N 0.5745 0.80345 0.92577 0.0
N1625 N 0.45642 0.90028 0.98543 0.0
C1626 C 0.54654 0.82762 0.94176 0.0
C1627 C 0.48534 0.87658 0.97106 0.0
N1628 N 0.52416 0.77692 0.98641 0.0
N1629 N 0.51892 0.93282 0.94023 0.0
H1630 H 0.43801 0.89147 1.00815 0.0
H1631 H 0.45079 0.92873 0.97546 0.0
H1632 H 0.5406 0.94541 0.92223 0.0
H1633 H 0.50145 0.95388 0.95395 0.0
H1634 H 0.5504 0.76124 0.98441 0.0
H1635 H 0.50415 0.76523 1.00631 0.0
H1636 H 0.57424 0.77286 0.92903 0.0
H1637 H 0.597 0.8137 0.90731 0.0
C1638 C 1.00696 0.17201 0.44976 0.0
C1639 C 1.01285 0.14369 0.4193 0.0
C1640 C 0.08441 0.14624 0.43278 0.0
C1641 C 0.07846 0.17408 0.46369 0.0
N1642 N 0.03171 0.19911 0.51091 0.0
N1643 N 0.05828 0.09741 0.3891 0.0
C1644 C 0.03904 0.18278 0.47499 0.0
C1645 C 0.05155 0.12866 0.41343 0.0
N1646 N 0.9715 0.19049 0.45358 0.0
N1647 N 0.12165 0.13678 0.4207 0.0
H1648 H 0.03602 0.08123 0.37508 0.0
H1649 H 0.03602 0.08123 0.37508 0.0
H1650 H 0.14703 0.15068 0.43136 0.0
H1651 H 0.12691 0.11661 0.39805 0.0
H1652 H 0.96724 0.2143 0.47258 0.0
H1653 H 0.94761 0.18495 0.43509 0.0
H1654 H 1.00324 0.20246 0.52201 0.0
H1655 H 0.05386 0.20392 0.5316 0.0
loop_
_geom_bond_atom_site_label_1
_geom_bond_atom_site_label_2
_geom_bond_distance
_geom_bond_site_symmetry_2
_ccdc_geom_bond_type
Tb0 N31 2.660 . S
Tb0 N38 2.600 . S
Tb0 O44 2.546 . S
Tb0 O45 2.610 . S
Tb0 O47 2.320 . S
Tb0 O48 2.552 . S
Tb0 O49 2.413 . S
Tb0 O51 2.362 . S
Tb0 O52 2.421 . S
Tb0 C64 2.833 . S
C1 C4 1.432 . S
C1 C5 1.414 1_455 S
C1 N8 1.359 . S
C2 C4 1.417 . S
C2 C6 1.432 1_455 S
C2 C14 1.410 . S
C3 C5 1.444 . S
C3 C6 1.317 . S
C3 H26 0.929 . S
C4 C1 1.432 . S
C4 C2 1.417 . S
C4 N12 1.360 . S
C5 C1 1.414 1_655 S
C5 C3 1.444 . S
C5 C10 1.385 . S
C6 C2 1.432 1_655 S
C6 C3 1.317 . S
C6 H18 0.930 . S
C7 C9 1.392 1_655 S
C7 C10 1.370 . S
C7 H19 0.931 . S
N8 C1 1.359 . S
N8 C9 1.327 . S
N8 Tb11 2.600 . S
C9 C7 1.392 1_455 S
C9 N8 1.327 . S
C9 H16 0.930 . S
C10 C5 1.385 . S
C10 C7 1.370 . S
C10 H29 0.930 . S
Tb11 N8 2.600 . S
Tb11 N12 2.660 . S
Tb11 O45 2.362 . S
Tb11 O46 2.421 . S
Tb11 O50 2.546 . S
Tb11 O51 2.610 . S
Tb11 O53 2.320 . S
Tb11 O54 2.552 . S
Tb11 O55 2.413 . S
Tb11 C75 2.833 . S
N12 C4 1.360 . S
N12 Tb11 2.660 . S
N12 C13 1.305 . S
C13 N12 1.305 . S
C13 C15 1.407 . S
C13 H20 0.930 . S
C14 C2 1.410 . S
C14 C15 1.345 . S
C14 H22 0.930 . S
C15 C13 1.407 . S
C15 C14 1.345 . S
C15 H17 0.930 . S
H16 C9 0.930 . S
H17 C15 0.930 . S
H18 C6 0.930 . S
H19 C7 0.931 . S
H20 C13 0.930 . S
H21 C35 0.930 . S
H22 C14 0.930 . S
H23 C41 0.930 . S
H24 C32 0.930 . S
H25 C39 0.931 . S
H26 C3 0.929 . S
H27 C33 0.930 . S
H28 C66 0.930 . S
H29 C10 0.930 . S
H30 C65 0.929 . S
N31 Tb0 2.660 . S
N31 C32 1.305 . S
N31 C36 1.360 . S
C32 H24 0.930 . S
C32 N31 1.305 . S
C32 C35 1.407 . S
C33 H27 0.930 . S
C33 C34 1.410 . S
C33 C35 1.345 . S
C34 C33 1.410 . S
C34 C36 1.417 . S
C34 C66 1.432 . S
C35 H21 0.930 . S
C35 C32 1.407 . S
C35 C33 1.345 . S
C36 N31 1.360 . S
C36 C34 1.417 . S
C36 C40 1.432 . S
H37 C42 0.930 . S
N38 Tb0 2.600 . S
N38 C40 1.359 . S
N38 C41 1.327 . S
C39 H25 0.931 . S
C39 C41 1.392 . S
C39 C42 1.370 . S
C40 C36 1.432 . S
C40 N38 1.359 . S
C40 C43 1.414 . S
C41 H23 0.930 . S
C41 N38 1.327 . S
C41 C39 1.392 . S
C42 H37 0.930 . S
C42 C39 1.370 . S
C42 C43 1.385 . S
C43 C40 1.414 . S
C43 C42 1.385 . S
C43 C65 1.444 . S
O44 Tb0 2.546 . S
O44 C64 1.251 . S
O45 Tb0 2.610 . S
O45 Tb11 2.362 . S
O45 C56 1.283 . S
O46 Tb11 2.421 . S
O46 C63 1.262 . S
O47 Tb0 2.320 . S
O47 C63 1.260 . S
O48 Tb0 2.552 . S
O48 C56 1.243 . S
O49 Tb0 2.413 . S
O49 C64 1.256 . S
O50 Tb11 2.546 . S
O50 C75 1.251 . S
O51 Tb0 2.362 . S
O51 Tb11 2.610 . S
O51 C67 1.283 . S
O52 Tb0 2.421 . S
O52 C74 1.262 . S
O53 Tb11 2.320 . S
O53 C74 1.260 . S
O54 Tb11 2.552 . S
O54 C67 1.243 . S
O55 Tb11 2.413 . S
O55 C75 1.256 . S
C56 O45 1.283 . S
C56 O48 1.243 . S
C57 C59 1.382 . S
C57 C61 1.393 . S
C57 C64 1.500 . S
C58 C59 1.400 . S
C58 C60 1.384 . S
C59 C57 1.382 . S
C59 C58 1.400 . S
C59 H76 0.930 . S
C60 C58 1.384 . S
C60 C62 1.392 . S
C60 H77 0.931 . S
C61 C57 1.393 . S
C61 C62 1.401 . S
C61 H78 0.930 . S
C62 C60 1.392 . S
C62 C61 1.401 . S
C62 H79 0.930 . S
C63 O46 1.262 . S
C63 O47 1.260 . S
C64 Tb0 2.833 . S
C64 O44 1.251 . S
C64 O49 1.256 . S
C64 C57 1.500 . S
C65 H30 0.929 . S
C65 C43 1.444 . S
C65 C66 1.317 . S
C66 H28 0.930 . S
C66 C34 1.432 . S
C66 C65 1.317 . S
C67 O51 1.283 . S
C67 O54 1.243 . S
C68 C69 1.382 . S
C68 C72 1.393 . S
C68 C75 1.500 . S
C69 C68 1.382 . S
C69 C70 1.400 . S
C69 H80 0.930 . S
C70 C69 1.400 . S
C70 C71 1.384 . S
C71 C70 1.384 . S
C71 C73 1.392 . S
C71 H81 0.931 . S
C72 C68 1.393 . S
C72 C73 1.401 . S
C72 H82 0.930 . S
C73 C71 1.392 . S
C73 C72 1.401 . S
C73 H83 0.930 . S
C74 O52 1.262 . S
C74 O53 1.260 . S
C75 Tb11 2.833 . S
C75 O50 1.251 . S
C75 O55 1.256 . S
C75 C68 1.500 . S
H76 C59 0.930 . S
H77 C60 0.931 . S
H78 C61 0.930 . S
H79 C62 0.930 . S
H80 C69 0.930 . S
H81 C71 0.931 . S
H82 C72 0.930 . S
H83 C73 0.930 . S
Tb84 N115 2.660 . S
Tb84 N122 2.600 . S
Tb84 O128 2.546 . S
Tb84 O129 2.610 1_655 S
Tb84 O131 2.320 . S
Tb84 O132 2.552 . S
Tb84 O133 2.413 . S
Tb84 O135 2.362 . S
Tb84 O136 2.421 1_655 S
Tb84 C148 2.833 . S
C85 C88 1.432 . S
C85 C89 1.414 1_565 S
C85 N92 1.359 . S
C86 C88 1.417 . S
C86 C90 1.432 1_565 S
C86 C98 1.410 . S
C87 C89 1.444 . S
C87 C90 1.317 . S
C87 H110 0.929 . S
C88 C85 1.432 . S
C88 C86 1.417 . S
C88 N96 1.360 . S
C89 C85 1.414 1_545 S
C89 C87 1.444 . S
C89 C94 1.385 . S
C90 C86 1.432 1_545 S
C90 C87 1.317 . S
C90 H102 0.930 . S
C91 C93 1.392 1_545 S
C91 C94 1.370 . S
C91 H103 0.931 . S
N92 C85 1.359 . S
N92 C93 1.327 . S
N92 Tb95 2.600 . S
C93 C91 1.392 1_565 S
C93 N92 1.327 . S
C93 H100 0.930 . S
C94 C89 1.385 . S
C94 C91 1.370 . S
C94 H113 0.930 . S
Tb95 N92 2.600 . S
Tb95 N96 2.660 . S
Tb95 O129 2.362 . S
Tb95 O130 2.421 1_455 S
Tb95 O134 2.546 . S
Tb95 O135 2.610 1_455 S
Tb95 O137 2.320 . S
Tb95 O138 2.552 . S
Tb95 O139 2.413 . S
Tb95 C159 2.833 . S
N96 C88 1.360 . S
N96 Tb95 2.660 . S
N96 C97 1.305 . S
C97 N96 1.305 . S
C97 C99 1.407 . S
C97 H104 0.930 . S
C98 C86 1.410 . S
C98 C99 1.345 . S
C98 H106 0.930 . S
C99 C97 1.407 . S
C99 C98 1.345 . S
C99 H101 0.930 . S
H100 C93 0.930 . S
H101 C99 0.930 . S
H102 C90 0.930 . S
H103 C91 0.931 . S
H104 C97 0.930 . S
H105 C119 0.930 . S
H106 C98 0.930 . S
H107 C125 0.930 . S
H108 C116 0.930 . S
H109 C123 0.931 . S
H110 C87 0.929 . S
H111 C117 0.930 . S
H112 C150 0.930 . S
H113 C94 0.930 . S
H114 C149 0.929 . S
N115 Tb84 2.660 . S
N115 C116 1.305 . S
N115 C120 1.360 . S
C116 H108 0.930 . S
C116 N115 1.305 . S
C116 C119 1.407 . S
C117 H111 0.930 . S
C117 C118 1.410 . S
C117 C119 1.345 . S
C118 C117 1.410 . S
C118 C120 1.417 . S
C118 C150 1.432 . S
C119 H105 0.930 . S
C119 C116 1.407 . S
C119 C117 1.345 . S
C120 N115 1.360 . S
C120 C118 1.417 . S
C120 C124 1.432 . S
H121 C126 0.930 . S
N122 Tb84 2.600 . S
N122 C124 1.359 . S
N122 C125 1.327 . S
C123 H109 0.931 . S
C123 C125 1.392 . S
C123 C126 1.370 . S
C124 C120 1.432 . S
C124 N122 1.359 . S
C124 C127 1.414 . S
C125 H107 0.930 . S
C125 N122 1.327 . S
C125 C123 1.392 . S
C126 H121 0.930 . S
C126 C123 1.370 . S
C126 C127 1.385 . S
C127 C124 1.414 . S
C127 C126 1.385 . S
C127 C149 1.444 . S
O128 Tb84 2.546 . S
O128 C148 1.251 . S
O129 Tb84 2.610 1_455 S
O129 Tb95 2.362 . S
O129 C140 1.283 . S
O130 Tb95 2.421 1_655 S
O130 C147 1.262 . S
O131 Tb84 2.320 . S
O131 C147 1.260 . S
O132 Tb84 2.552 . S
O132 C140 1.243 1_655 S
O133 Tb84 2.413 . S
O133 C148 1.256 . S
O134 Tb95 2.546 . S
O134 C159 1.251 . S
O135 Tb84 2.362 . S
O135 Tb95 2.610 1_655 S
O135 C151 1.283 . S
O136 Tb84 2.421 1_455 S
O136 C158 1.262 . S
O137 Tb95 2.320 . S
O137 C158 1.260 . S
O138 Tb95 2.552 . S
O138 C151 1.243 1_455 S
O139 Tb95 2.413 . S
O139 C159 1.256 . S
C140 O129 1.283 . S
C140 O132 1.243 1_455 S
C141 C143 1.382 . S
C141 C145 1.393 . S
C141 C148 1.500 . S
C142 C143 1.400 . S
C142 C144 1.384 . S
C143 C141 1.382 . S
C143 C142 1.400 . S
C143 H160 0.930 . S
C144 C142 1.384 . S
C144 C146 1.392 . S
C144 H161 0.931 . S
C145 C141 1.393 . S
C145 C146 1.401 . S
C145 H162 0.930 . S
C146 C144 1.392 . S
C146 C145 1.401 . S
C146 H163 0.930 . S
C147 O130 1.262 . S
C147 O131 1.260 . S
C148 Tb84 2.833 . S
C148 O128 1.251 . S
C148 O133 1.256 . S
C148 C141 1.500 . S
C149 H114 0.929 . S
C149 C127 1.444 . S
C149 C150 1.317 . S
C150 H112 0.930 . S
C150 C118 1.432 . S
C150 C149 1.317 . S
C151 O135 1.283 . S
C151 O138 1.243 1_655 S
C152 C153 1.382 . S
C152 C156 1.393 . S
C152 C159 1.500 . S
C153 C152 1.382 . S
C153 C154 1.400 . S
C153 H164 0.930 . S
C154 C153 1.400 . S
C154 C155 1.384 . S
C155 C154 1.384 . S
C155 C157 1.392 . S
C155 H165 0.931 . S
C156 C152 1.393 . S
C156 C157 1.401 . S
C156 H166 0.930 . S
C157 C155 1.392 . S
C157 C156 1.401 . S
C157 H167 0.930 . S
C158 O136 1.262 . S
C158 O137 1.260 . S
C159 Tb95 2.833 . S
C159 O134 1.251 . S
C159 O139 1.256 . S
C159 C152 1.500 . S
H160 C143 0.930 . S
H161 C144 0.931 . S
H162 C145 0.930 . S
H163 C146 0.930 . S
H164 C153 0.930 . S
H165 C155 0.931 . S
H166 C156 0.930 . S
H167 C157 0.930 . S
Tb168 N199 2.660 . S
Tb168 N206 2.600 . S
Tb168 O212 2.546 . S
Tb168 O213 2.610 . S
Tb168 O215 2.314 1_556 S
Tb168 O216 2.552 . S
Tb168 O217 2.413 . S
Tb168 O219 2.362 1_556 S
Tb168 O220 2.421 . S
Tb168 C232 2.833 . S
C169 C172 1.432 . S
C169 C173 1.414 . S
C169 N176 1.359 . S
C170 C172 1.417 1_556 S
C170 C174 1.433 . S
C170 C182 1.410 . S
C171 C173 1.444 . S
C171 C174 1.313 1_554 S
C171 H194 0.929 . S
C172 C169 1.432 . S
C172 C170 1.417 1_554 S
C172 N180 1.357 1_554 S
C173 C169 1.414 . S
C173 C171 1.444 . S
C173 C178 1.385 . S
C174 C170 1.433 . S
C174 C171 1.313 1_556 S
C174 H186 0.933 . S
C175 C177 1.392 . S
C175 C178 1.370 . S
C175 H187 0.931 . S
N176 C169 1.359 . S
N176 C177 1.327 . S
N176 Tb179 2.600 . S
C177 C175 1.392 . S
C177 N176 1.327 . S
C177 H184 0.930 . S
C178 C173 1.385 . S
C178 C175 1.370 . S
C178 H197 0.930 . S
Tb179 N176 2.600 . S
Tb179 N180 2.653 1_554 S
Tb179 O213 2.362 1_554 S
Tb179 O214 2.421 . S
Tb179 O218 2.546 . S
Tb179 O219 2.610 . S
Tb179 O221 2.320 1_554 S
Tb179 O222 2.552 . S
Tb179 O223 2.413 . S
Tb179 C243 2.833 . S
N180 C172 1.357 1_556 S
N180 Tb179 2.653 1_556 S
N180 C181 1.315 . S
C181 N180 1.315 . S
C181 C183 1.407 . S
C181 H188 0.930 . S
C182 C170 1.410 . S
C182 C183 1.345 . S
C182 H190 0.930 . S
C183 C181 1.407 . S
C183 C182 1.345 . S
C183 H185 0.930 . S
H184 C177 0.930 . S
H185 C183 0.930 . S
H186 C174 0.933 . S
H187 C175 0.931 . S
H188 C181 0.930 . S
H189 C203 0.930 . S
H190 C182 0.930 . S
H191 C209 0.930 . S
H192 C200 0.930 . S
H193 C207 0.931 . S
H194 C171 0.929 . S
H195 C201 0.930 . S
H196 C234 0.930 1_554 S
H197 C178 0.930 . S
H198 C233 0.929 . S
N199 Tb168 2.660 . S
N199 C200 1.305 1_556 S
N199 C204 1.360 . S
C200 H192 0.930 . S
C200 N199 1.305 1_554 S
C200 C203 1.407 . S
C201 H195 0.930 . S
C201 C202 1.410 . S
C201 C203 1.345 . S
C202 C201 1.410 . S
C202 C204 1.417 1_554 S
C202 C234 1.432 1_554 S
C203 H189 0.930 . S
C203 C200 1.407 . S
C203 C201 1.345 . S
C204 N199 1.360 . S
C204 C202 1.417 1_556 S
C204 C208 1.432 . S
H205 C210 0.930 . S
N206 Tb168 2.600 . S
N206 C208 1.359 . S
N206 C209 1.327 . S
C207 H193 0.931 . S
C207 C209 1.392 . S
C207 C210 1.370 . S
C208 C204 1.432 . S
C208 N206 1.359 . S
C208 C211 1.414 . S
C209 H191 0.930 . S
C209 N206 1.327 . S
C209 C207 1.392 . S
C210 H205 0.930 . S
C210 C207 1.370 . S
C210 C211 1.385 . S
C211 C208 1.414 . S
C211 C210 1.385 . S
C211 C233 1.444 . S
O212 Tb168 2.546 . S
O212 C232 1.251 . S
O213 Tb168 2.610 . S
O213 Tb179 2.362 1_556 S
O213 C224 1.283 . S
O214 Tb179 2.421 . S
O214 C231 1.262 . S
O215 Tb168 2.314 1_554 S
O215 C231 1.266 . S
O216 Tb168 2.552 . S
O216 C224 1.243 . S
O217 Tb168 2.413 . S
O217 C232 1.256 . S
O218 Tb179 2.546 . S
O218 C243 1.251 . S
O219 Tb168 2.362 1_554 S
O219 Tb179 2.610 . S
O219 C235 1.283 . S
O220 Tb168 2.421 . S
O220 C242 1.262 . S
O221 Tb179 2.320 1_556 S
O221 C242 1.260 . S
O222 Tb179 2.552 . S
O222 C235 1.243 . S
O223 Tb179 2.413 . S
O223 C243 1.256 . S
C224 O213 1.283 . S
C224 O216 1.243 . S
C225 C227 1.382 . S
C225 C229 1.393 . S
C225 C232 1.500 . S
C226 C227 1.400 . S
C226 C228 1.384 . S
C227 C225 1.382 . S
C227 C226 1.400 . S
C227 H244 0.930 . S
C228 C226 1.384 . S
C228 C230 1.392 . S
C228 H245 0.931 . S
C229 C225 1.393 . S
C229 C230 1.401 . S
C229 H246 0.930 . S
C230 C228 1.392 . S
C230 C229 1.401 . S
C230 H247 0.930 . S
C231 O214 1.262 . S
C231 O215 1.266 . S
C232 Tb168 2.833 . S
C232 O212 1.251 . S
C232 O217 1.256 . S
C232 C225 1.500 . S
C233 H198 0.929 . S
C233 C211 1.444 . S
C233 C234 1.317 . S
C234 H196 0.930 1_556 S
C234 C202 1.432 1_556 S
C234 C233 1.317 . S
C235 O219 1.283 . S
C235 O222 1.243 . S
C236 C237 1.382 . S
C236 C240 1.393 . S
C236 C243 1.500 . S
C237 C236 1.382 . S
C237 C238 1.400 . S
C237 H248 0.930 . S
C238 C237 1.400 . S
C238 C239 1.384 . S
C239 C238 1.384 . S
C239 C241 1.392 . S
C239 H249 0.931 . S
C240 C236 1.393 . S
C240 C241 1.401 . S
C240 H250 0.930 . S
C241 C239 1.392 . S
C241 C240 1.401 . S
C241 H251 0.930 . S
C242 O220 1.262 . S
C242 O221 1.260 . S
C243 Tb179 2.833 . S
C243 O218 1.251 . S
C243 O223 1.256 . S
C243 C236 1.500 . S
H244 C227 0.930 . S
H245 C228 0.931 . S
H246 C229 0.930 . S
H247 C230 0.930 . S
H248 C237 0.930 . S
H249 C239 0.931 . S
H250 C240 0.930 . S
H251 C241 0.930 . S
Tb252 N283 2.660 . S
Tb252 N290 2.600 . S
Tb252 O296 2.546 . S
Tb252 O297 2.610 . S
Tb252 O299 2.320 . S
Tb252 O300 2.552 . S
Tb252 O301 2.413 . S
Tb252 O303 2.362 . S
Tb252 O304 2.421 . S
Tb252 C316 2.833 . S
C253 C256 1.432 . S
C253 C257 1.414 1_545 S
C253 N260 1.359 . S
C254 C256 1.417 . S
C254 C258 1.432 1_545 S
C254 C266 1.410 . S
C255 C257 1.444 . S
C255 C258 1.317 . S
C255 H278 0.929 . S
C256 C253 1.432 . S
C256 C254 1.417 . S
C256 N264 1.360 . S
C257 C253 1.414 1_565 S
C257 C255 1.444 . S
C257 C262 1.385 . S
C258 C254 1.432 1_565 S
C258 C255 1.317 . S
C258 H270 0.930 . S
C259 C261 1.392 1_565 S
C259 C262 1.370 . S
C259 H271 0.931 . S
N260 C253 1.359 . S
N260 C261 1.327 . S
N260 Tb263 2.600 . S
C261 C259 1.392 1_545 S
C261 N260 1.327 . S
C261 H268 0.930 . S
C262 C257 1.385 . S
C262 C259 1.370 . S
C262 H281 0.930 . S
Tb263 N260 2.600 . S
Tb263 N264 2.660 . S
Tb263 O297 2.362 . S
Tb263 O298 2.421 . S
Tb263 O302 2.546 . S
Tb263 O303 2.610 . S
Tb263 O305 2.320 . S
Tb263 O306 2.552 . S
Tb263 O307 2.413 . S
Tb263 C327 2.833 . S
N264 C256 1.360 . S
N264 Tb263 2.660 . S
N264 C265 1.305 . S
C265 N264 1.305 . S
C265 C267 1.407 . S
C265 H272 0.930 . S
C266 C254 1.410 . S
C266 C267 1.345 . S
C266 H274 0.930 . S
C267 C265 1.407 . S
C267 C266 1.345 . S
C267 H269 0.930 . S
H268 C261 0.930 . S
H269 C267 0.930 . S
H270 C258 0.930 . S
H271 C259 0.931 . S
H272 C265 0.930 . S
H273 C287 0.930 . S
H274 C266 0.930 . S
H275 C293 0.930 . S
H276 C284 0.930 . S
H277 C291 0.931 . S
H278 C255 0.929 . S
H279 C285 0.930 . S
H280 C318 0.930 . S
H281 C262 0.930 . S
H282 C317 0.929 . S
N283 Tb252 2.660 . S
N283 C284 1.305 . S
N283 C288 1.360 . S
C284 H276 0.930 . S
C284 N283 1.305 . S
C284 C287 1.407 . S
C285 H279 0.930 . S
C285 C286 1.410 . S
C285 C287 1.345 . S
C286 C285 1.410 . S
C286 C288 1.417 . S
C286 C318 1.432 . S
C287 H273 0.930 . S
C287 C284 1.407 . S
C287 C285 1.345 . S
C288 N283 1.360 . S
C288 C286 1.417 . S
C288 C292 1.432 . S
H289 C294 0.930 . S
N290 Tb252 2.600 . S
N290 C292 1.359 . S
N290 C293 1.327 . S
C291 H277 0.931 . S
C291 C293 1.392 . S
C291 C294 1.370 . S
C292 C288 1.432 . S
C292 N290 1.359 . S
C292 C295 1.414 . S
C293 H275 0.930 . S
C293 N290 1.327 . S
C293 C291 1.392 . S
C294 H289 0.930 . S
C294 C291 1.370 . S
C294 C295 1.385 . S
C295 C292 1.414 . S
C295 C294 1.385 . S
C295 C317 1.444 . S
O296 Tb252 2.546 . S
O296 C316 1.251 . S
O297 Tb252 2.610 . S
O297 Tb263 2.362 . S
O297 C308 1.283 . S
O298 Tb263 2.421 . S
O298 C315 1.262 . S
O299 Tb252 2.320 . S
O299 C315 1.260 . S
O300 Tb252 2.552 . S
O300 C308 1.243 . S
O301 Tb252 2.413 . S
O301 C316 1.256 . S
O302 Tb263 2.546 . S
O302 C327 1.251 . S
O303 Tb252 2.362 . S
O303 Tb263 2.610 . S
O303 C319 1.283 . S
O304 Tb252 2.421 . S
O304 C326 1.262 . S
O305 Tb263 2.320 . S
O305 C326 1.260 . S
O306 Tb263 2.552 . S
O306 C319 1.243 . S
O307 Tb263 2.413 . S
O307 C327 1.256 . S
C308 O297 1.283 . S
C308 O300 1.243 . S
C309 C311 1.382 . S
C309 C313 1.393 . S
C309 C316 1.500 . S
C310 C311 1.400 . S
C310 C312 1.384 . S
C311 C309 1.382 . S
C311 C310 1.400 . S
C311 H328 0.930 . S
C312 C310 1.384 . S
C312 C314 1.392 . S
C312 H329 0.931 . S
C313 C309 1.393 . S
C313 C314 1.401 . S
C313 H330 0.930 . S
C314 C312 1.392 . S
C314 C313 1.401 . S
C314 H331 0.930 . S
C315 O298 1.262 . S
C315 O299 1.260 . S
C316 Tb252 2.833 . S
C316 O296 1.251 . S
C316 O301 1.256 . S
C316 C309 1.500 . S
C317 H282 0.929 . S
C317 C295 1.444 . S
C317 C318 1.317 . S
C318 H280 0.930 . S
C318 C286 1.432 . S
C318 C317 1.317 . S
C319 O303 1.283 . S
C319 O306 1.243 . S
C320 C321 1.382 . S
C320 C324 1.393 . S
C320 C327 1.500 . S
C321 C320 1.382 . S
C321 C322 1.400 . S
C321 H332 0.930 . S
C322 C321 1.400 . S
C322 C323 1.384 . S
C323 C322 1.384 . S
C323 C325 1.392 . S
C323 H333 0.931 . S
C324 C320 1.393 . S
C324 C325 1.401 . S
C324 H334 0.930 . S
C325 C323 1.392 . S
C325 C324 1.401 . S
C325 H335 0.930 . S
C326 O304 1.262 . S
C326 O305 1.260 . S
C327 Tb263 2.833 . S
C327 O302 1.251 . S
C327 O307 1.256 . S
C327 C320 1.500 . S
H328 C311 0.930 . S
H329 C312 0.931 . S
H330 C313 0.930 . S
H331 C314 0.930 . S
H332 C321 0.930 . S
H333 C323 0.931 . S
H334 C324 0.930 . S
H335 C325 0.930 . S
Tb336 N367 2.660 . S
Tb336 N374 2.600 . S
Tb336 O380 2.546 . S
Tb336 O381 2.610 . S
Tb336 O383 2.320 . S
Tb336 O384 2.552 . S
Tb336 O385 2.413 . S
Tb336 O387 2.362 . S
Tb336 O388 2.421 . S
Tb336 C400 2.833 . S
C337 C340 1.432 . S
C337 C341 1.414 . S
C337 N344 1.359 . S
C338 C340 1.417 . S
C338 C342 1.432 . S
C338 C350 1.410 . S
C339 C341 1.444 . S
C339 C342 1.317 . S
C339 H362 0.929 . S
C340 C337 1.432 . S
C340 C338 1.417 . S
C340 N348 1.360 . S
C341 C337 1.414 . S
C341 C339 1.444 . S
C341 C346 1.385 . S
C342 C338 1.432 . S
C342 C339 1.317 . S
C342 H354 0.930 . S
C343 C345 1.392 . S
C343 C346 1.370 . S
C343 H355 0.931 . S
N344 C337 1.359 . S
N344 C345 1.327 . S
N344 Tb347 2.600 . S
C345 C343 1.392 . S
C345 N344 1.327 . S
C345 H352 0.930 . S
C346 C341 1.385 . S
C346 C343 1.370 . S
C346 H365 0.930 . S
Tb347 N344 2.600 . S
Tb347 N348 2.660 . S
Tb347 O381 2.362 . S
Tb347 O382 2.421 . S
Tb347 O386 2.546 . S
Tb347 O387 2.610 . S
Tb347 O389 2.320 . S
Tb347 O390 2.552 . S
Tb347 O391 2.413 . S
Tb347 C411 2.833 . S
N348 C340 1.360 . S
N348 Tb347 2.660 . S
N348 C349 1.305 . S
C349 N348 1.305 . S
C349 C351 1.407 . S
C349 H356 0.930 . S
C350 C338 1.410 . S
C350 C351 1.345 . S
C350 H358 0.930 . S
C351 C349 1.407 . S
C351 C350 1.345 . S
C351 H353 0.930 . S
H352 C345 0.930 . S
H353 C351 0.930 . S
H354 C342 0.930 . S
H355 C343 0.931 . S
H356 C349 0.930 . S
H357 C371 0.930 . S
H358 C350 0.930 . S
H359 C377 0.930 . S
H360 C368 0.930 . S
H361 C375 0.931 . S
H362 C339 0.929 . S
H363 C369 0.930 . S
H364 C402 0.930 . S
H365 C346 0.930 . S
H366 C401 0.929 . S
N367 Tb336 2.660 . S
N367 C368 1.305 . S
N367 C372 1.360 . S
C368 H360 0.930 . S
C368 N367 1.305 . S
C368 C371 1.407 . S
C369 H363 0.930 . S
C369 C370 1.410 . S
C369 C371 1.345 . S
C370 C369 1.410 . S
C370 C372 1.417 . S
C370 C402 1.432 . S
C371 H357 0.930 . S
C371 C368 1.407 . S
C371 C369 1.345 . S
C372 N367 1.360 . S
C372 C370 1.417 . S
C372 C376 1.432 . S
H373 C378 0.930 . S
N374 Tb336 2.600 . S
N374 C376 1.359 . S
N374 C377 1.327 . S
C375 H361 0.931 . S
C375 C377 1.392 . S
C375 C378 1.370 . S
C376 C372 1.432 . S
C376 N374 1.359 . S
C376 C379 1.414 . S
C377 H359 0.930 . S
C377 N374 1.327 . S
C377 C375 1.392 . S
C378 H373 0.930 . S
C378 C375 1.370 . S
C378 C379 1.385 . S
C379 C376 1.414 . S
C379 C378 1.385 . S
C379 C401 1.444 . S
O380 Tb336 2.546 . S
O380 C400 1.251 . S
O381 Tb336 2.610 . S
O381 Tb347 2.362 . S
O381 C392 1.283 . S
O382 Tb347 2.421 . S
O382 C399 1.262 . S
O383 Tb336 2.320 . S
O383 C399 1.260 . S
O384 Tb336 2.552 . S
O384 C392 1.243 . S
O385 Tb336 2.413 . S
O385 C400 1.256 . S
O386 Tb347 2.546 . S
O386 C411 1.251 . S
O387 Tb336 2.362 . S
O387 Tb347 2.610 . S
O387 C403 1.283 . S
O388 Tb336 2.421 . S
O388 C410 1.262 . S
O389 Tb347 2.320 . S
O389 C410 1.260 . S
O390 Tb347 2.552 . S
O390 C403 1.243 . S
O391 Tb347 2.413 . S
O391 C411 1.256 . S
C392 O381 1.283 . S
C392 O384 1.243 . S
C393 C395 1.382 . S
C393 C397 1.393 . S
C393 C400 1.500 . S
C394 C395 1.400 . S
C394 C396 1.384 . S
C395 C393 1.382 . S
C395 C394 1.400 . S
C395 H412 0.930 . S
C396 C394 1.384 . S
C396 C398 1.392 . S
C396 H413 0.931 . S
C397 C393 1.393 . S
C397 C398 1.401 . S
C397 H414 0.930 . S
C398 C396 1.392 . S
C398 C397 1.401 . S
C398 H415 0.930 . S
C399 O382 1.262 . S
C399 O383 1.260 . S
C400 Tb336 2.833 . S
C400 O380 1.251 . S
C400 O385 1.256 . S
C400 C393 1.500 . S
C401 H366 0.929 . S
C401 C379 1.444 . S
C401 C402 1.317 . S
C402 H364 0.930 . S
C402 C370 1.432 . S
C402 C401 1.317 . S
C403 O387 1.283 . S
C403 O390 1.243 . S
C404 C405 1.382 . S
C404 C408 1.393 . S
C404 C411 1.500 . S
C405 C404 1.382 . S
C405 C406 1.400 . S
C405 H416 0.930 . S
C406 C405 1.400 . S
C406 C407 1.384 . S
C407 C406 1.384 . S
C407 C409 1.392 . S
C407 H417 0.931 . S
C408 C404 1.393 . S
C408 C409 1.401 . S
C408 H418 0.930 . S
C409 C407 1.392 . S
C409 C408 1.401 . S
C409 H419 0.930 . S
C410 O388 1.262 . S
C410 O389 1.260 . S
C411 Tb347 2.833 . S
C411 O386 1.251 . S
C411 O391 1.256 . S
C411 C404 1.500 . S
H412 C395 0.930 . S
H413 C396 0.931 . S
H414 C397 0.930 . S
H415 C398 0.930 . S
H416 C405 0.930 . S
H417 C407 0.931 . S
H418 C408 0.930 . S
H419 C409 0.930 . S
Tb420 N451 2.660 . S
Tb420 N458 2.600 . S
Tb420 O464 2.546 . S
Tb420 O465 2.610 . S
Tb420 O467 2.320 1_655 S
Tb420 O468 2.552 . S
Tb420 O469 2.413 . S
Tb420 O471 2.362 1_655 S
Tb420 O472 2.421 . S
Tb420 C484 2.833 . S
C421 C424 1.432 . S
C421 C425 1.414 . S
C421 N428 1.359 . S
C422 C424 1.417 1_655 S
C422 C426 1.432 . S
C422 C434 1.410 . S
C423 C425 1.444 . S
C423 C426 1.317 1_455 S
C423 H446 0.929 . S
C424 C421 1.432 . S
C424 C422 1.417 1_455 S
C424 N432 1.360 1_455 S
C425 C421 1.414 . S
C425 C423 1.444 . S
C425 C430 1.385 . S
C426 C422 1.432 . S
C426 C423 1.317 1_655 S
C426 H438 0.930 . S
C427 C429 1.392 . S
C427 C430 1.370 . S
C427 H439 0.931 . S
N428 C421 1.359 . S
N428 C429 1.327 . S
N428 Tb431 2.600 . S
C429 C427 1.392 . S
C429 N428 1.327 . S
C429 H436 0.930 . S
C430 C425 1.385 . S
C430 C427 1.370 . S
C430 H449 0.930 . S
Tb431 N428 2.600 . S
Tb431 N432 2.660 1_455 S
Tb431 O465 2.362 1_455 S
Tb431 O466 2.421 . S
Tb431 O470 2.546 . S
Tb431 O471 2.610 . S
Tb431 O473 2.320 1_455 S
Tb431 O474 2.552 . S
Tb431 O475 2.413 . S
Tb431 C495 2.833 . S
N432 C424 1.360 1_655 S
N432 Tb431 2.660 1_655 S
N432 C433 1.305 . S
C433 N432 1.305 . S
C433 C435 1.407 . S
C433 H440 0.930 . S
C434 C422 1.410 . S
C434 C435 1.345 . S
C434 H442 0.930 . S
C435 C433 1.407 . S
C435 C434 1.345 . S
C435 H437 0.930 . S
H436 C429 0.930 . S
H437 C435 0.930 . S
H438 C426 0.930 . S
H439 C427 0.931 . S
H440 C433 0.930 . S
H441 C455 0.930 . S
H442 C434 0.930 . S
H443 C461 0.930 . S
H444 C452 0.930 . S
H445 C459 0.931 . S
H446 C423 0.929 . S
H447 C453 0.930 . S
H448 C486 0.930 1_455 S
H449 C430 0.930 . S
H450 C485 0.929 . S
N451 Tb420 2.660 . S
N451 C452 1.305 1_655 S
N451 C456 1.360 . S
C452 H444 0.930 . S
C452 N451 1.305 1_455 S
C452 C455 1.407 . S
C453 H447 0.930 . S
C453 C454 1.410 . S
C453 C455 1.345 . S
C454 C453 1.410 . S
C454 C456 1.417 1_455 S
C454 C486 1.432 1_455 S
C455 H441 0.930 . S
C455 C452 1.407 . S
C455 C453 1.345 . S
C456 N451 1.360 . S
C456 C454 1.417 1_655 S
C456 C460 1.432 . S
H457 C462 0.930 . S
N458 Tb420 2.600 . S
N458 C460 1.359 . S
N458 C461 1.327 . S
C459 H445 0.931 . S
C459 C461 1.392 . S
C459 C462 1.370 . S
C460 C456 1.432 . S
C460 N458 1.359 . S
C460 C463 1.414 . S
C461 H443 0.930 . S
C461 N458 1.327 . S
C461 C459 1.392 . S
C462 H457 0.930 . S
C462 C459 1.370 . S
C462 C463 1.385 . S
C463 C460 1.414 . S
C463 C462 1.385 . S
C463 C485 1.444 . S
O464 Tb420 2.546 . S
O464 C484 1.251 . S
O465 Tb420 2.610 . S
O465 Tb431 2.362 1_655 S
O465 C476 1.283 . S
O466 Tb431 2.421 . S
O466 C483 1.262 . S
O467 Tb420 2.320 1_455 S
O467 C483 1.260 . S
O468 Tb420 2.552 . S
O468 C476 1.243 . S
O469 Tb420 2.413 . S
O469 C484 1.256 . S
O470 Tb431 2.546 . S
O470 C495 1.251 . S
O471 Tb420 2.362 1_455 S
O471 Tb431 2.610 . S
O471 C487 1.283 . S
O472 Tb420 2.421 . S
O472 C494 1.262 . S
O473 Tb431 2.320 1_655 S
O473 C494 1.260 . S
O474 Tb431 2.552 . S
O474 C487 1.243 . S
O475 Tb431 2.413 . S
O475 C495 1.256 . S
C476 O465 1.283 . S
C476 O468 1.243 . S
C477 C479 1.382 . S
C477 C481 1.393 . S
C477 C484 1.500 . S
C478 C479 1.400 . S
C478 C480 1.384 . S
C479 C477 1.382 . S
C479 C478 1.400 . S
C479 H496 0.930 . S
C480 C478 1.384 . S
C480 C482 1.392 . S
C480 H497 0.931 . S
C481 C477 1.393 . S
C481 C482 1.401 . S
C481 H498 0.930 . S
C482 C480 1.392 . S
C482 C481 1.401 . S
C482 H499 0.930 . S
C483 O466 1.262 . S
C483 O467 1.260 . S
C484 Tb420 2.833 . S
C484 O464 1.251 . S
C484 O469 1.256 . S
C484 C477 1.500 . S
C485 H450 0.929 . S
C485 C463 1.444 . S
C485 C486 1.317 . S
C486 H448 0.930 1_655 S
C486 C454 1.432 1_655 S
C486 C485 1.317 . S
C487 O471 1.283 . S
C487 O474 1.243 . S
C488 C489 1.382 . S
C488 C492 1.393 . S
C488 C495 1.500 . S
C489 C488 1.382 . S
C489 C490 1.400 . S
C489 H500 0.930 . S
C490 C489 1.400 . S
C490 C491 1.384 . S
C491 C490 1.384 . S
C491 C493 1.392 . S
C491 H501 0.931 . S
C492 C488 1.393 . S
C492 C493 1.401 . S
C492 H502 0.930 . S
C493 C491 1.392 . S
C493 C492 1.401 . S
C493 H503 0.930 . S
C494 O472 1.262 . S
C494 O473 1.260 . S
C495 Tb431 2.833 . S
C495 O470 1.251 . S
C495 O475 1.256 . S
C495 C488 1.500 . S
H496 C479 0.930 . S
H497 C480 0.931 . S
H498 C481 0.930 . S
H499 C482 0.930 . S
H500 C489 0.930 . S
H501 C491 0.931 . S
H502 C492 0.930 . S
H503 C493 0.930 . S
Tb504 N535 2.660 . S
Tb504 N542 2.600 . S
Tb504 O548 2.546 . S
Tb504 O549 2.610 . S
Tb504 O551 2.318 . S
Tb504 O552 2.552 . S
Tb504 O553 2.413 . S
Tb504 O555 2.362 1_554 S
Tb504 O556 2.421 . S
Tb504 C568 2.833 . S
C505 C508 1.432 . S
C505 C509 1.414 . S
C505 N512 1.359 . S
C506 C508 1.417 1_554 S
C506 C510 1.432 . S
C506 C518 1.410 . S
C507 C509 1.444 . S
C507 C510 1.317 1_556 S
C507 H530 0.929 . S
C508 C505 1.432 . S
C508 C506 1.417 1_556 S
C508 N516 1.360 1_556 S
C509 C505 1.414 . S
C509 C507 1.444 . S
C509 C514 1.385 . S
C510 C506 1.432 . S
C510 C507 1.317 1_554 S
C510 H522 0.930 . S
C511 C513 1.392 . S
C511 C514 1.370 . S
C511 H523 0.931 . S
N512 C505 1.359 . S
N512 C513 1.327 . S
N512 Tb515 2.600 . S
C513 C511 1.392 . S
C513 N512 1.327 . S
C513 H520 0.930 . S
C514 C509 1.385 . S
C514 C511 1.370 . S
C514 H533 0.930 . S
Tb515 N512 2.600 . S
Tb515 N516 2.660 1_556 S
Tb515 O549 2.362 1_556 S
Tb515 O550 2.421 . S
Tb515 O554 2.546 . S
Tb515 O555 2.610 . S
Tb515 O557 2.320 1_556 S
Tb515 O558 2.552 . S
Tb515 O559 2.413 . S
Tb515 C579 2.833 . S
N516 C508 1.360 1_554 S
N516 Tb515 2.660 1_554 S
N516 C517 1.305 . S
C517 N516 1.305 . S
C517 C519 1.407 . S
C517 H524 0.930 . S
C518 C506 1.410 . S
C518 C519 1.345 . S
C518 H526 0.930 . S
C519 C517 1.407 . S
C519 C518 1.345 . S
C519 H521 0.930 . S
H520 C513 0.930 . S
H521 C519 0.930 . S
H522 C510 0.930 . S
H523 C511 0.931 . S
H524 C517 0.930 . S
H525 C539 0.930 . S
H526 C518 0.930 . S
H527 C545 0.930 . S
H528 C536 0.930 . S
H529 C543 0.931 . S
H530 C507 0.929 . S
H531 C537 0.930 . S
H532 C570 0.930 1_556 S
H533 C514 0.930 . S
H534 C569 0.929 . S
N535 Tb504 2.660 . S
N535 C536 1.305 1_554 S
N535 C540 1.360 . S
C536 H528 0.930 . S
C536 N535 1.305 1_556 S
C536 C539 1.407 . S
C537 H531 0.930 . S
C537 C538 1.410 . S
C537 C539 1.345 . S
C538 C537 1.410 . S
C538 C540 1.417 1_556 S
C538 C570 1.432 1_656 S
C539 H525 0.930 . S
C539 C536 1.407 . S
C539 C537 1.345 . S
C540 N535 1.360 . S
C540 C538 1.417 1_554 S
C540 C544 1.432 . S
H541 C546 0.930 . S
N542 Tb504 2.600 . S
N542 C544 1.359 . S
N542 C545 1.327 . S
C543 H529 0.931 . S
C543 C545 1.392 1_455 S
C543 C546 1.370 . S
C544 C540 1.432 . S
C544 N542 1.359 . S
C544 C547 1.414 1_655 S
C545 H527 0.930 . S
C545 N542 1.327 . S
C545 C543 1.392 1_655 S
C546 H541 0.930 . S
C546 C543 1.370 . S
C546 C547 1.385 . S
C547 C544 1.414 1_455 S
C547 C546 1.385 . S
C547 C569 1.444 . S
O548 Tb504 2.546 . S
O548 C568 1.251 . S
O549 Tb504 2.610 . S
O549 Tb515 2.362 1_554 S
O549 C560 1.283 . S
O550 Tb515 2.421 . S
O550 C567 1.262 . S
O551 Tb504 2.318 . S
O551 C567 1.262 1_554 S
O552 Tb504 2.552 . S
O552 C560 1.243 . S
O553 Tb504 2.413 . S
O553 C568 1.256 . S
O554 Tb515 2.546 . S
O554 C579 1.251 . S
O555 Tb504 2.362 1_556 S
O555 Tb515 2.610 . S
O555 C571 1.283 . S
O556 Tb504 2.421 . S
O556 C578 1.262 . S
O557 Tb515 2.320 1_554 S
O557 C578 1.260 . S
O558 Tb515 2.552 . S
O558 C571 1.243 . S
O559 Tb515 2.413 . S
O559 C579 1.256 . S
C560 O549 1.283 . S
C560 O552 1.243 . S
C561 C563 1.382 . S
C561 C565 1.393 . S
C561 C568 1.500 . S
C562 C563 1.400 . S
C562 C564 1.384 . S
C563 C561 1.382 . S
C563 C562 1.400 . S
C563 H580 0.930 . S
C564 C562 1.384 . S
C564 C566 1.392 . S
C564 H581 0.931 . S
C565 C561 1.393 . S
C565 C566 1.401 . S
C565 H582 0.930 . S
C566 C564 1.392 . S
C566 C565 1.401 . S
C566 H583 0.930 . S
C567 O550 1.262 . S
C567 O551 1.262 1_556 S
C568 Tb504 2.833 . S
C568 O548 1.251 . S
C568 O553 1.256 . S
C568 C561 1.500 . S
C569 H534 0.929 . S
C569 C547 1.444 . S
C569 C570 1.317 . S
C570 H532 0.930 1_554 S
C570 C538 1.432 1_454 S
C570 C569 1.317 . S
C571 O555 1.283 . S
C571 O558 1.243 . S
C572 C573 1.382 . S
C572 C576 1.393 . S
C572 C579 1.500 . S
C573 C572 1.382 . S
C573 C574 1.400 . S
C573 H584 0.930 . S
C574 C573 1.400 . S
C574 C575 1.384 . S
C575 C574 1.384 . S
C575 C577 1.392 . S
C575 H585 0.931 . S
C576 C572 1.393 . S
C576 C577 1.401 . S
C576 H586 0.930 . S
C577 C575 1.392 . S
C577 C576 1.401 . S
C577 H587 0.930 . S
C578 O556 1.262 . S
C578 O557 1.260 . S
C579 Tb515 2.833 . S
C579 O554 1.251 . S
C579 O559 1.256 . S
C579 C572 1.500 . S
H580 C563 0.930 . S
H581 C564 0.931 . S
H582 C565 0.930 . S
H583 C566 0.930 . S
H584 C573 0.930 . S
H585 C575 0.931 . S
H586 C576 0.930 . S
H587 C577 0.930 . S
Tb588 N619 2.660 . S
Tb588 N626 2.600 . S
Tb588 O632 2.546 . S
Tb588 O633 2.610 . S
Tb588 O635 2.320 . S
Tb588 O636 2.552 . S
Tb588 O637 2.413 . S
Tb588 O639 2.362 . S
Tb588 O640 2.421 . S
Tb588 C652 2.833 . S
C589 C592 1.432 . S
C589 C593 1.414 . S
C589 N596 1.359 . S
C590 C592 1.417 . S
C590 C594 1.432 . S
C590 C602 1.410 . S
C591 C593 1.444 . S
C591 C594 1.317 . S
C591 H614 0.929 . S
C592 C589 1.432 . S
C592 C590 1.417 . S
C592 N600 1.360 . S
C593 C589 1.414 . S
C593 C591 1.444 . S
C593 C598 1.385 . S
C594 C590 1.432 . S
C594 C591 1.317 . S
C594 H606 0.930 . S
C595 C597 1.392 . S
C595 C598 1.370 . S
C595 H607 0.931 . S
N596 C589 1.359 . S
N596 C597 1.327 . S
N596 Tb599 2.600 . S
C597 C595 1.392 . S
C597 N596 1.327 . S
C597 H604 0.930 . S
C598 C593 1.385 . S
C598 C595 1.370 . S
C598 H617 0.930 . S
Tb599 N596 2.600 . S
Tb599 N600 2.660 . S
Tb599 O633 2.362 . S
Tb599 O634 2.421 . S
Tb599 O638 2.546 . S
Tb599 O639 2.610 . S
Tb599 O641 2.320 . S
Tb599 O642 2.552 . S
Tb599 O643 2.413 . S
Tb599 C663 2.833 . S
N600 C592 1.360 . S
N600 Tb599 2.660 . S
N600 C601 1.305 . S
C601 N600 1.305 . S
C601 C603 1.407 . S
C601 H608 0.930 . S
C602 C590 1.410 . S
C602 C603 1.345 . S
C602 H610 0.930 . S
C603 C601 1.407 . S
C603 C602 1.345 . S
C603 H605 0.930 . S
H604 C597 0.930 . S
H605 C603 0.930 . S
H606 C594 0.930 . S
H607 C595 0.931 . S
H608 C601 0.930 . S
H609 C623 0.930 . S
H610 C602 0.930 . S
H611 C629 0.930 . S
H612 C620 0.930 . S
H613 C627 0.931 . S
H614 C591 0.929 . S
H615 C621 0.930 . S
H616 C654 0.930 . S
H617 C598 0.930 . S
H618 C653 0.929 . S
N619 Tb588 2.660 . S
N619 C620 1.305 . S
N619 C624 1.360 . S
C620 H612 0.930 . S
C620 N619 1.305 . S
C620 C623 1.407 . S
C621 H615 0.930 . S
C621 C622 1.410 . S
C621 C623 1.345 . S
C622 C621 1.410 . S
C622 C624 1.417 . S
C622 C654 1.432 . S
C623 H609 0.930 . S
C623 C620 1.407 . S
C623 C621 1.345 . S
C624 N619 1.360 . S
C624 C622 1.417 . S
C624 C628 1.432 . S
H625 C630 0.930 . S
N626 Tb588 2.600 . S
N626 C628 1.359 . S
N626 C629 1.327 . S
C627 H613 0.931 . S
C627 C629 1.392 . S
C627 C630 1.370 . S
C628 C624 1.432 . S
C628 N626 1.359 . S
C628 C631 1.414 . S
C629 H611 0.930 . S
C629 N626 1.327 . S
C629 C627 1.392 . S
C630 H625 0.930 . S
C630 C627 1.370 . S
C630 C631 1.385 . S
C631 C628 1.414 . S
C631 C630 1.385 . S
C631 C653 1.444 . S
O632 Tb588 2.546 . S
O632 C652 1.251 . S
O633 Tb588 2.610 . S
O633 Tb599 2.362 . S
O633 C644 1.283 . S
O634 Tb599 2.421 . S
O634 C651 1.262 . S
O635 Tb588 2.320 . S
O635 C651 1.260 . S
O636 Tb588 2.552 . S
O636 C644 1.243 . S
O637 Tb588 2.413 . S
O637 C652 1.256 . S
O638 Tb599 2.546 . S
O638 C663 1.251 . S
O639 Tb588 2.362 . S
O639 Tb599 2.610 . S
O639 C655 1.283 . S
O640 Tb588 2.421 . S
O640 C662 1.262 . S
O641 Tb599 2.320 . S
O641 C662 1.260 . S
O642 Tb599 2.552 . S
O642 C655 1.243 . S
O643 Tb599 2.413 . S
O643 C663 1.256 . S
C644 O633 1.283 . S
C644 O636 1.243 . S
C645 C647 1.382 . S
C645 C649 1.393 . S
C645 C652 1.500 . S
C646 C647 1.400 . S
C646 C648 1.384 . S
C647 C645 1.382 . S
C647 C646 1.400 . S
C647 H664 0.930 . S
C648 C646 1.384 . S
C648 C650 1.392 . S
C648 H665 0.931 . S
C649 C645 1.393 . S
C649 C650 1.401 . S
C649 H666 0.930 . S
C650 C648 1.392 . S
C650 C649 1.401 . S
C650 H667 0.930 . S
C651 O634 1.262 . S
C651 O635 1.260 . S
C652 Tb588 2.833 . S
C652 O632 1.251 . S
C652 O637 1.256 . S
C652 C645 1.500 . S
C653 H618 0.929 . S
C653 C631 1.444 . S
C653 C654 1.317 . S
C654 H616 0.930 . S
C654 C622 1.432 . S
C654 C653 1.317 . S
C655 O639 1.283 . S
C655 O642 1.243 . S
C656 C657 1.382 . S
C656 C660 1.393 . S
C656 C663 1.500 . S
C657 C656 1.382 . S
C657 C658 1.400 . S
C657 H668 0.930 . S
C658 C657 1.400 . S
C658 C659 1.384 . S
C659 C658 1.384 . S
C659 C661 1.392 . S
C659 H669 0.931 . S
C660 C656 1.393 . S
C660 C661 1.401 . S
C660 H670 0.930 . S
C661 C659 1.392 . S
C661 C660 1.401 . S
C661 H671 0.930 . S
C662 O640 1.262 . S
C662 O641 1.260 . S
C663 Tb599 2.833 . S
C663 O638 1.251 . S
C663 O643 1.256 . S
C663 C656 1.500 . S
H664 C647 0.930 . S
H665 C648 0.931 . S
H666 C649 0.930 . S
H667 C650 0.930 . S
H668 C657 0.930 . S
H669 C659 0.931 . S
H670 C660 0.930 . S
H671 C661 0.930 . S
Tb672 N703 2.660 . S
Tb672 N710 2.600 . S
Tb672 O716 2.546 . S
Tb672 O717 2.610 . S
Tb672 O719 2.320 . S
Tb672 O720 2.552 . S
Tb672 O721 2.413 . S
Tb672 O723 2.362 . S
Tb672 O724 2.421 . S
Tb672 C736 2.833 . S
C673 C676 1.432 . S
C673 C677 1.414 1_554 S
C673 N680 1.359 . S
C674 C676 1.417 . S
C674 C678 1.432 1_554 S
C674 C686 1.410 . S
C675 C677 1.444 . S
C675 C678 1.317 . S
C675 H698 0.929 . S
C676 C673 1.432 . S
C676 C674 1.417 . S
C676 N684 1.360 . S
C677 C673 1.414 1_556 S
C677 C675 1.444 . S
C677 C682 1.385 . S
C678 C674 1.432 1_556 S
C678 C675 1.317 . S
C678 H690 0.930 . S
C679 C681 1.392 1_556 S
C679 C682 1.370 . S
C679 H691 0.931 . S
N680 C673 1.359 . S
N680 C681 1.327 . S
N680 Tb683 2.600 . S
C681 C679 1.392 1_554 S
C681 N680 1.327 . S
C681 H688 0.930 . S
C682 C677 1.385 . S
C682 C679 1.370 . S
C682 H701 0.930 . S
Tb683 N680 2.600 . S
Tb683 N684 2.660 . S
Tb683 O717 2.362 . S
Tb683 O718 2.421 . S
Tb683 O722 2.546 . S
Tb683 O723 2.610 . S
Tb683 O725 2.320 . S
Tb683 O726 2.552 . S
Tb683 O727 2.413 . S
Tb683 C747 2.833 . S
N684 C676 1.360 . S
N684 Tb683 2.660 . S
N684 C685 1.305 . S
C685 N684 1.305 . S
C685 C687 1.407 . S
C685 H692 0.930 . S
C686 C674 1.410 . S
C686 C687 1.345 . S
C686 H694 0.930 . S
C687 C685 1.407 . S
C687 C686 1.345 . S
C687 H689 0.930 . S
H688 C681 0.930 . S
H689 C687 0.930 . S
H690 C678 0.930 . S
H691 C679 0.931 . S
H692 C685 0.930 . S
H693 C707 0.930 . S
H694 C686 0.930 . S
H695 C713 0.930 . S
H696 C704 0.930 . S
H697 C711 0.931 . S
H698 C675 0.929 . S
H699 C705 0.930 . S
H700 C738 0.930 . S
H701 C682 0.930 . S
H702 C737 0.929 . S
N703 Tb672 2.660 . S
N703 C704 1.305 . S
N703 C708 1.360 . S
C704 H696 0.930 . S
C704 N703 1.305 . S
C704 C707 1.407 . S
C705 H699 0.930 . S
C705 C706 1.410 . S
C705 C707 1.345 . S
C706 C705 1.410 . S
C706 C708 1.417 . S
C706 C738 1.432 . S
C707 H693 0.930 . S
C707 C704 1.407 . S
C707 C705 1.345 . S
C708 N703 1.360 . S
C708 C706 1.417 . S
C708 C712 1.432 . S
H709 C714 0.930 . S
N710 Tb672 2.600 . S
N710 C712 1.359 . S
N710 C713 1.327 . S
C711 H697 0.931 . S
C711 C713 1.392 . S
C711 C714 1.370 . S
C712 C708 1.432 . S
C712 N710 1.359 . S
C712 C715 1.414 . S
C713 H695 0.930 . S
C713 N710 1.327 . S
C713 C711 1.392 . S
C714 H709 0.930 . S
C714 C711 1.370 . S
C714 C715 1.385 . S
C715 C712 1.414 . S
C715 C714 1.385 . S
C715 C737 1.444 . S
O716 Tb672 2.546 . S
O716 C736 1.251 . S
O717 Tb672 2.610 . S
O717 Tb683 2.362 . S
O717 C728 1.283 . S
O718 Tb683 2.421 . S
O718 C735 1.262 . S
O719 Tb672 2.320 . S
O719 C735 1.260 . S
O720 Tb672 2.552 . S
O720 C728 1.243 . S
O721 Tb672 2.413 . S
O721 C736 1.256 . S
O722 Tb683 2.546 . S
O722 C747 1.251 . S
O723 Tb672 2.362 . S
O723 Tb683 2.610 . S
O723 C739 1.283 . S
O724 Tb672 2.421 . S
O724 C746 1.262 . S
O725 Tb683 2.320 . S
O725 C746 1.260 . S
O726 Tb683 2.552 . S
O726 C739 1.243 . S
O727 Tb683 2.413 . S
O727 C747 1.256 . S
C728 O717 1.283 . S
C728 O720 1.243 . S
C729 C731 1.382 . S
C729 C733 1.393 . S
C729 C736 1.500 . S
C730 C731 1.400 . S
C730 C732 1.384 . S
C731 C729 1.382 . S
C731 C730 1.400 . S
C731 H748 0.930 . S
C732 C730 1.384 . S
C732 C734 1.392 . S
C732 H749 0.931 . S
C733 C729 1.393 . S
C733 C734 1.401 . S
C733 H750 0.930 . S
C734 C732 1.392 . S
C734 C733 1.401 . S
C734 H751 0.930 . S
C735 O718 1.262 . S
C735 O719 1.260 . S
C736 Tb672 2.833 . S
C736 O716 1.251 . S
C736 O721 1.256 . S
C736 C729 1.500 . S
C737 H702 0.929 . S
C737 C715 1.444 . S
C737 C738 1.317 . S
C738 H700 0.930 . S
C738 C706 1.432 . S
C738 C737 1.317 . S
C739 O723 1.283 . S
C739 O726 1.243 . S
C740 C741 1.382 . S
C740 C744 1.393 . S
C740 C747 1.500 . S
C741 C740 1.382 . S
C741 C742 1.400 . S
C741 H752 0.930 . S
C742 C741 1.400 . S
C742 C743 1.384 . S
C743 C742 1.384 . S
C743 C745 1.392 . S
C743 H753 0.931 . S
C744 C740 1.393 . S
C744 C745 1.401 . S
C744 H754 0.930 . S
C745 C743 1.392 . S
C745 C744 1.401 . S
C745 H755 0.930 . S
C746 O724 1.262 . S
C746 O725 1.260 . S
C747 Tb683 2.833 . S
C747 O722 1.251 . S
C747 O727 1.256 . S
C747 C740 1.500 . S
H748 C731 0.930 . S
H749 C732 0.931 . S
H750 C733 0.930 . S
H751 C734 0.930 . S
H752 C741 0.930 . S
H753 C743 0.931 . S
H754 C744 0.930 . S
H755 C745 0.930 . S
Tb756 N787 2.660 . S
Tb756 N794 2.600 . S
Tb756 O800 2.546 . S
Tb756 O801 2.610 1_565 S
Tb756 O803 2.320 . S
Tb756 O804 2.552 . S
Tb756 O805 2.413 . S
Tb756 O807 2.362 . S
Tb756 O808 2.421 1_565 S
Tb756 C820 2.833 . S
C757 C760 1.432 . S
C757 C761 1.414 1_556 S
C757 N764 1.359 . S
C758 C760 1.417 . S
C758 C762 1.432 1_556 S
C758 C770 1.410 . S
C759 C761 1.444 . S
C759 C762 1.317 . S
C759 H782 0.929 . S
C760 C757 1.432 . S
C760 C758 1.417 . S
C760 N768 1.360 . S
C761 C757 1.414 1_554 S
C761 C759 1.444 . S
C761 C766 1.385 . S
C762 C758 1.432 1_554 S
C762 C759 1.317 . S
C762 H774 0.930 . S
C763 C765 1.392 1_554 S
C763 C766 1.370 . S
C763 H775 0.931 . S
N764 C757 1.359 . S
N764 C765 1.327 . S
N764 Tb767 2.600 . S
C765 C763 1.392 1_556 S
C765 N764 1.327 . S
C765 H772 0.930 . S
C766 C761 1.385 . S
C766 C763 1.370 . S
C766 H785 0.930 . S
Tb767 N764 2.600 . S
Tb767 N768 2.660 . S
Tb767 O801 2.362 . S
Tb767 O802 2.421 1_545 S
Tb767 O806 2.546 . S
Tb767 O807 2.610 1_545 S
Tb767 O809 2.320 . S
Tb767 O810 2.552 . S
Tb767 O811 2.413 . S
Tb767 C831 2.833 . S
N768 C760 1.360 . S
N768 Tb767 2.660 . S
N768 C769 1.305 . S
C769 N768 1.305 . S
C769 C771 1.407 . S
C769 H776 0.930 . S
C770 C758 1.410 . S
C770 C771 1.345 . S
C770 H778 0.930 . S
C771 C769 1.407 . S
C771 C770 1.345 . S
C771 H773 0.930 . S
H772 C765 0.930 . S
H773 C771 0.930 . S
H774 C762 0.930 . S
H775 C763 0.931 . S
H776 C769 0.930 . S
H777 C791 0.930 . S
H778 C770 0.930 . S
H779 C797 0.930 . S
H780 C788 0.930 . S
H781 C795 0.931 . S
H782 C759 0.929 . S
H783 C789 0.930 . S
H784 C822 0.930 . S
H785 C766 0.930 . S
H786 C821 0.929 . S
N787 Tb756 2.660 . S
N787 C788 1.305 . S
N787 C792 1.360 . S
C788 H780 0.930 . S
C788 N787 1.305 . S
C788 C791 1.407 . S
C789 H783 0.930 . S
C789 C790 1.410 . S
C789 C791 1.345 . S
C790 C789 1.410 . S
C790 C792 1.417 . S
C790 C822 1.432 . S
C791 H777 0.930 . S
C791 C788 1.407 . S
C791 C789 1.345 . S
C792 N787 1.360 . S
C792 C790 1.417 . S
C792 C796 1.432 . S
H793 C798 0.930 . S
N794 Tb756 2.600 . S
N794 C796 1.359 . S
N794 C797 1.327 . S
C795 H781 0.931 . S
C795 C797 1.392 . S
C795 C798 1.370 . S
C796 C792 1.432 . S
C796 N794 1.359 . S
C796 C799 1.414 . S
C797 H779 0.930 . S
C797 N794 1.327 . S
C797 C795 1.392 . S
C798 H793 0.930 . S
C798 C795 1.370 . S
C798 C799 1.385 . S
C799 C796 1.414 . S
C799 C798 1.385 . S
C799 C821 1.444 . S
O800 Tb756 2.546 . S
O800 C820 1.251 . S
O801 Tb756 2.610 1_545 S
O801 Tb767 2.362 . S
O801 C812 1.283 . S
O802 Tb767 2.421 1_565 S
O802 C819 1.262 . S
O803 Tb756 2.320 . S
O803 C819 1.260 . S
O804 Tb756 2.552 . S
O804 C812 1.243 1_565 S
O805 Tb756 2.413 . S
O805 C820 1.256 . S
O806 Tb767 2.546 . S
O806 C831 1.251 . S
O807 Tb756 2.362 . S
O807 Tb767 2.610 1_565 S
O807 C823 1.283 . S
O808 Tb756 2.421 1_545 S
O808 C830 1.262 . S
O809 Tb767 2.320 . S
O809 C830 1.260 . S
O810 Tb767 2.552 . S
O810 C823 1.243 1_545 S
O811 Tb767 2.413 . S
O811 C831 1.256 . S
C812 O801 1.283 . S
C812 O804 1.243 1_545 S
C813 C815 1.382 . S
C813 C817 1.393 . S
C813 C820 1.500 . S
C814 C815 1.400 . S
C814 C816 1.384 . S
C815 C813 1.382 . S
C815 C814 1.400 . S
C815 H832 0.930 . S
C816 C814 1.384 . S
C816 C818 1.392 . S
C816 H833 0.931 . S
C817 C813 1.393 . S
C817 C818 1.401 . S
C817 H834 0.930 . S
C818 C816 1.392 . S
C818 C817 1.401 . S
C818 H835 0.930 . S
C819 O802 1.262 . S
C819 O803 1.260 . S
C820 Tb756 2.833 . S
C820 O800 1.251 . S
C820 O805 1.256 . S
C820 C813 1.500 . S
C821 H786 0.929 . S
C821 C799 1.444 . S
C821 C822 1.317 . S
C822 H784 0.930 . S
C822 C790 1.432 . S
C822 C821 1.317 . S
C823 O807 1.283 . S
C823 O810 1.243 1_565 S
C824 C825 1.382 . S
C824 C828 1.393 . S
C824 C831 1.500 . S
C825 C824 1.382 . S
C825 C826 1.400 . S
C825 H836 0.930 . S
C826 C825 1.400 . S
C826 C827 1.384 . S
C827 C826 1.384 . S
C827 C829 1.392 . S
C827 H837 0.931 . S
C828 C824 1.393 . S
C828 C829 1.401 . S
C828 H838 0.930 . S
C829 C827 1.392 . S
C829 C828 1.401 . S
C829 H839 0.930 . S
C830 O808 1.262 . S
C830 O809 1.260 . S
C831 Tb767 2.833 . S
C831 O806 1.251 . S
C831 O811 1.256 . S
C831 C824 1.500 . S
H832 C815 0.930 . S
H833 C816 0.931 . S
H834 C817 0.930 . S
H835 C818 0.930 . S
H836 C825 0.930 . S
H837 C827 0.931 . S
H838 C828 0.930 . S
H839 C829 0.930 . S
Tb840 N871 2.660 . S
Tb840 N878 2.600 . S
Tb840 O884 2.546 . S
Tb840 O885 2.610 . S
Tb840 O887 2.320 . S
Tb840 O888 2.552 . S
Tb840 O889 2.413 . S
Tb840 O891 2.362 1_565 S
Tb840 O892 2.421 . S
Tb840 C904 2.833 . S
C841 C844 1.432 . S
C841 C845 1.414 . S
C841 N848 1.359 . S
C842 C844 1.417 1_565 S
C842 C846 1.432 . S
C842 C854 1.410 . S
C843 C845 1.444 . S
C843 C846 1.317 1_545 S
C843 H866 0.929 . S
C844 C841 1.432 . S
C844 C842 1.417 1_545 S
C844 N852 1.360 1_545 S
C845 C841 1.414 . S
C845 C843 1.444 . S
C845 C850 1.385 . S
C846 C842 1.432 . S
C846 C843 1.317 1_565 S
C846 H858 0.930 . S
C847 C849 1.392 . S
C847 C850 1.370 . S
C847 H859 0.931 . S
N848 C841 1.359 . S
N848 C849 1.327 . S
N848 Tb851 2.600 . S
C849 C847 1.392 . S
C849 N848 1.327 . S
C849 H856 0.930 . S
C850 C845 1.385 . S
C850 C847 1.370 . S
C850 H869 0.930 . S
Tb851 N848 2.600 . S
Tb851 N852 2.660 1_545 S
Tb851 O885 2.362 1_545 S
Tb851 O886 2.421 . S
Tb851 O890 2.546 . S
Tb851 O891 2.610 . S
Tb851 O893 2.320 1_545 S
Tb851 O894 2.552 . S
Tb851 O895 2.413 . S
Tb851 C915 2.833 . S
N852 C844 1.360 1_565 S
N852 Tb851 2.660 1_565 S
N852 C853 1.305 . S
C853 N852 1.305 . S
C853 C855 1.407 . S
C853 H860 0.930 . S
C854 C842 1.410 . S
C854 C855 1.345 . S
C854 H862 0.930 . S
C855 C853 1.407 . S
C855 C854 1.345 . S
C855 H857 0.930 . S
H856 C849 0.930 . S
H857 C855 0.930 . S
H858 C846 0.930 . S
H859 C847 0.931 . S
H860 C853 0.930 . S
H861 C875 0.930 . S
H862 C854 0.930 . S
H863 C881 0.930 . S
H864 C872 0.930 . S
H865 C879 0.931 . S
H866 C843 0.929 . S
H867 C873 0.930 . S
H868 C906 0.930 1_545 S
H869 C850 0.930 . S
H870 C905 0.929 . S
N871 Tb840 2.660 . S
N871 C872 1.305 1_565 S
N871 C876 1.360 . S
C872 H864 0.930 . S
C872 N871 1.305 1_545 S
C872 C875 1.407 . S
C873 H867 0.930 . S
C873 C874 1.410 . S
C873 C875 1.345 . S
C874 C873 1.410 . S
C874 C876 1.417 1_545 S
C874 C906 1.432 1_545 S
C875 H861 0.930 . S
C875 C872 1.407 . S
C875 C873 1.345 . S
C876 N871 1.360 . S
C876 C874 1.417 1_565 S
C876 C880 1.432 . S
H877 C882 0.930 . S
N878 Tb840 2.600 . S
N878 C880 1.359 . S
N878 C881 1.327 . S
C879 H865 0.931 . S
C879 C881 1.392 . S
C879 C882 1.370 . S
C880 C876 1.432 . S
C880 N878 1.359 . S
C880 C883 1.414 . S
C881 H863 0.930 . S
C881 N878 1.327 . S
C881 C879 1.392 . S
C882 H877 0.930 . S
C882 C879 1.370 . S
C882 C883 1.385 . S
C883 C880 1.414 . S
C883 C882 1.385 . S
C883 C905 1.444 . S
O884 Tb840 2.546 . S
O884 C904 1.251 . S
O885 Tb840 2.610 . S
O885 Tb851 2.362 1_565 S
O885 C896 1.283 . S
O886 Tb851 2.421 . S
O886 C903 1.262 . S
O887 Tb840 2.320 . S
O887 C903 1.260 1_565 S
O888 Tb840 2.552 . S
O888 C896 1.243 . S
O889 Tb840 2.413 . S
O889 C904 1.256 . S
O890 Tb851 2.546 . S
O890 C915 1.251 . S
O891 Tb840 2.362 1_545 S
O891 Tb851 2.610 . S
O891 C907 1.283 . S
O892 Tb840 2.421 . S
O892 C914 1.262 . S
O893 Tb851 2.320 1_565 S
O893 C914 1.260 . S
O894 Tb851 2.552 . S
O894 C907 1.243 . S
O895 Tb851 2.413 . S
O895 C915 1.256 . S
C896 O885 1.283 . S
C896 O888 1.243 . S
C897 C899 1.382 . S
C897 C901 1.393 . S
C897 C904 1.500 . S
C898 C899 1.400 . S
C898 C900 1.384 . S
C899 C897 1.382 . S
C899 C898 1.400 . S
C899 H916 0.930 . S
C900 C898 1.384 . S
C900 C902 1.392 . S
C900 H917 0.931 . S
C901 C897 1.393 . S
C901 C902 1.401 . S
C901 H918 0.930 . S
C902 C900 1.392 . S
C902 C901 1.401 . S
C902 H919 0.930 . S
C903 O886 1.262 . S
C903 O887 1.260 1_545 S
C904 Tb840 2.833 . S
C904 O884 1.251 . S
C904 O889 1.256 . S
C904 C897 1.500 . S
C905 H870 0.929 . S
C905 C883 1.444 . S
C905 C906 1.317 . S
C906 H868 0.930 1_565 S
C906 C874 1.432 1_565 S
C906 C905 1.317 . S
C907 O891 1.283 . S
C907 O894 1.243 . S
C908 C909 1.382 . S
C908 C912 1.393 . S
C908 C915 1.500 . S
C909 C908 1.382 . S
C909 C910 1.400 . S
C909 H920 0.930 . S
C910 C909 1.400 . S
C910 C911 1.384 . S
C911 C910 1.384 . S
C911 C913 1.392 . S
C911 H921 0.931 . S
C912 C908 1.393 . S
C912 C913 1.401 . S
C912 H922 0.930 . S
C913 C911 1.392 . S
C913 C912 1.401 . S
C913 H923 0.930 . S
C914 O892 1.262 . S
C914 O893 1.260 . S
C915 Tb851 2.833 . S
C915 O890 1.251 . S
C915 O895 1.256 . S
C915 C908 1.500 . S
H916 C899 0.930 . S
H917 C900 0.931 . S
H918 C901 0.930 . S
H919 C902 0.930 . S
H920 C909 0.930 . S
H921 C911 0.931 . S
H922 C912 0.930 . S
H923 C913 0.930 . S
Tb924 N955 2.660 . S
Tb924 N962 2.600 . S
Tb924 O968 2.546 . S
Tb924 O969 2.610 . S
Tb924 O971 2.320 . S
Tb924 O972 2.552 . S
Tb924 O973 2.413 . S
Tb924 O975 2.362 . S
Tb924 O976 2.421 . S
Tb924 C988 2.833 . S
C925 C928 1.432 . S
C925 C929 1.414 . S
C925 N932 1.359 . S
C926 C928 1.417 . S
C926 C930 1.432 . S
C926 C938 1.410 . S
C927 C929 1.444 . S
C927 C930 1.317 . S
C927 H950 0.929 . S
C928 C925 1.432 . S
C928 C926 1.417 . S
C928 N936 1.360 . S
C929 C925 1.414 . S
C929 C927 1.444 . S
C929 C934 1.385 . S
C930 C926 1.432 . S
C930 C927 1.317 . S
C930 H942 0.930 . S
C931 C933 1.392 . S
C931 C934 1.370 . S
C931 H943 0.931 . S
N932 C925 1.359 . S
N932 C933 1.327 . S
N932 Tb935 2.600 . S
C933 C931 1.392 . S
C933 N932 1.327 . S
C933 H940 0.930 . S
C934 C929 1.385 . S
C934 C931 1.370 . S
C934 H953 0.930 . S
Tb935 N932 2.600 . S
Tb935 N936 2.660 . S
Tb935 O969 2.362 . S
Tb935 O970 2.421 . S
Tb935 O974 2.546 . S
Tb935 O975 2.610 . S
Tb935 O977 2.320 . S
Tb935 O978 2.552 . S
Tb935 O979 2.413 . S
Tb935 C999 2.833 . S
N936 C928 1.360 . S
N936 Tb935 2.660 . S
N936 C937 1.305 . S
C937 N936 1.305 . S
C937 C939 1.407 . S
C937 H944 0.930 . S
C938 C926 1.410 . S
C938 C939 1.345 . S
C938 H946 0.930 . S
C939 C937 1.407 . S
C939 C938 1.345 . S
C939 H941 0.930 . S
H940 C933 0.930 . S
H941 C939 0.930 . S
H942 C930 0.930 . S
H943 C931 0.931 . S
H944 C937 0.930 . S
H945 C959 0.930 . S
H946 C938 0.930 . S
H947 C965 0.930 . S
H948 C956 0.930 . S
H949 C963 0.931 . S
H950 C927 0.929 . S
H951 C957 0.930 . S
H952 C990 0.930 . S
H953 C934 0.930 . S
H954 C989 0.929 . S
N955 Tb924 2.660 . S
N955 C956 1.305 . S
N955 C960 1.360 . S
C956 H948 0.930 . S
C956 N955 1.305 . S
C956 C959 1.407 . S
C957 H951 0.930 . S
C957 C958 1.410 . S
C957 C959 1.345 . S
C958 C957 1.410 . S
C958 C960 1.417 . S
C958 C990 1.432 . S
C959 H945 0.930 . S
C959 C956 1.407 . S
C959 C957 1.345 . S
C960 N955 1.360 . S
C960 C958 1.417 . S
C960 C964 1.432 . S
H961 C966 0.930 . S
N962 Tb924 2.600 . S
N962 C964 1.359 . S
N962 C965 1.327 . S
C963 H949 0.931 . S
C963 C965 1.392 . S
C963 C966 1.370 . S
C964 C960 1.432 . S
C964 N962 1.359 . S
C964 C967 1.414 . S
C965 H947 0.930 . S
C965 N962 1.327 . S
C965 C963 1.392 . S
C966 H961 0.930 . S
C966 C963 1.370 . S
C966 C967 1.385 . S
C967 C964 1.414 . S
C967 C966 1.385 . S
C967 C989 1.444 . S
O968 Tb924 2.546 . S
O968 C988 1.251 . S
O969 Tb924 2.610 . S
O969 Tb935 2.362 . S
O969 C980 1.283 . S
O970 Tb935 2.421 . S
O970 C987 1.262 . S
O971 Tb924 2.320 . S
O971 C987 1.260 . S
O972 Tb924 2.552 . S
O972 C980 1.243 . S
O973 Tb924 2.413 . S
O973 C988 1.256 . S
O974 Tb935 2.546 . S
O974 C999 1.251 . S
O975 Tb924 2.362 . S
O975 Tb935 2.610 . S
O975 C991 1.283 . S
O976 Tb924 2.421 . S
O976 C998 1.262 . S
O977 Tb935 2.320 . S
O977 C998 1.260 . S
O978 Tb935 2.552 . S
O978 C991 1.243 . S
O979 Tb935 2.413 . S
O979 C999 1.256 . S
C980 O969 1.283 . S
C980 O972 1.243 . S
C981 C983 1.382 . S
C981 C985 1.393 . S
C981 C988 1.500 . S
C982 C983 1.400 . S
C982 C984 1.384 . S
C983 C981 1.382 . S
C983 C982 1.400 . S
C983 H1000 0.930 . S
C984 C982 1.384 . S
C984 C986 1.392 . S
C984 H1001 0.931 . S
C985 C981 1.393 . S
C985 C986 1.401 . S
C985 H1002 0.930 . S
C986 C984 1.392 . S
C986 C985 1.401 . S
C986 H1003 0.930 . S
C987 O970 1.262 . S
C987 O971 1.260 . S
C988 Tb924 2.833 . S
C988 O968 1.251 . S
C988 O973 1.256 . S
C988 C981 1.500 . S
C989 H954 0.929 . S
C989 C967 1.444 . S
C989 C990 1.317 . S
C990 H952 0.930 . S
C990 C958 1.432 . S
C990 C989 1.317 . S
C991 O975 1.283 . S
C991 O978 1.243 . S
C992 C993 1.382 . S
C992 C996 1.393 . S
C992 C999 1.500 . S
C993 C992 1.382 . S
C993 C994 1.400 . S
C993 H1004 0.930 . S
C994 C993 1.400 . S
C994 C995 1.384 . S
C995 C994 1.384 . S
C995 C997 1.392 . S
C995 H1005 0.931 . S
C996 C992 1.393 . S
C996 C997 1.401 . S
C996 H1006 0.930 . S
C997 C995 1.392 . S
C997 C996 1.401 . S
C997 H1007 0.930 . S
C998 O976 1.262 . S
C998 O977 1.260 . S
C999 Tb935 2.833 . S
C999 O974 1.251 . S
C999 O979 1.256 . S
C999 C992 1.500 . S
H1000 C983 0.930 . S
H1001 C984 0.931 . S
H1002 C985 0.930 . S
H1003 C986 0.930 . S
H1004 C993 0.930 . S
H1005 C995 0.931 . S
H1006 C996 0.930 . S
H1007 C997 0.930 . S
C1008 C1009 1.363 . S
C1008 C1014 1.379 . S
C1008 N1016 1.356 . S
C1009 C1008 1.363 . S
C1009 C1015 1.363 . S
C1010 C1011 1.363 . S
C1010 C1015 1.379 . S
C1010 N1017 1.356 . S
C1011 C1010 1.363 . S
C1011 C1014 1.363 . S
N1012 C1014 1.356 . S
N1012 H1024 0.984 . S
N1012 H1025 0.985 . S
N1013 C1015 1.356 . S
N1013 H1018 0.984 . S
N1013 H1019 0.985 . S
C1014 C1008 1.379 . S
C1014 C1011 1.363 . S
C1014 N1012 1.356 . S
C1015 C1009 1.363 . S
C1015 C1010 1.379 . S
C1015 N1013 1.356 . S
N1016 C1008 1.356 . S
N1016 H1022 0.984 . S
N1016 H1023 0.984 . S
N1017 C1010 1.356 . S
N1017 H1020 0.984 . S
N1017 H1021 0.985 . S
H1018 N1013 0.984 . S
H1019 N1013 0.985 . S
H1020 N1017 0.984 . S
H1021 N1017 0.985 . S
H1022 N1016 0.984 . S
H1023 N1016 0.984 . S
H1024 N1012 0.984 . S
H1025 N1012 0.985 . S
C1026 C1027 1.363 . S
C1026 C1032 1.379 . S
C1026 N1034 1.356 . S
C1027 C1026 1.363 . S
C1027 C1033 1.362 . S
C1028 C1029 1.363 . S
C1028 C1033 1.378 . S
C1028 N1035 1.356 1_565 S
C1029 C1028 1.363 . S
C1029 C1032 1.363 . S
N1030 C1032 1.356 . S
N1030 H1042 0.984 . S
N1030 H1043 0.985 . S
N1031 C1033 1.358 1_545 S
N1031 H1036 0.984 . S
N1031 H1037 0.985 . S
C1032 C1026 1.379 . S
C1032 C1029 1.363 . S
C1032 N1030 1.356 . S
C1033 C1027 1.362 . S
C1033 C1028 1.378 . S
C1033 N1031 1.358 1_565 S
N1034 C1026 1.356 . S
N1034 H1040 0.984 . S
N1034 H1041 0.984 . S
N1035 C1028 1.356 1_545 S
N1035 H1038 0.984 1_545 S
N1035 H1039 0.985 . S
H1036 N1031 0.984 . S
H1037 N1031 0.985 . S
H1038 N1035 0.984 1_565 S
H1039 N1035 0.985 . S
H1040 N1034 0.984 . S
H1041 N1034 0.984 . S
H1042 N1030 0.984 . S
H1043 N1030 0.985 . S
C1044 C1045 1.372 . S
C1044 C1050 1.381 . S
C1044 N1052 1.346 1_554 S
C1045 C1044 1.372 . S
C1045 C1051 1.363 . S
C1046 C1047 1.363 . S
C1046 C1051 1.379 . S
C1046 N1053 1.356 . S
C1047 C1046 1.363 . S
C1047 C1050 1.363 . S
N1048 C1050 1.356 1_556 S
N1048 H1060 0.984 . S
N1048 H1061 0.985 1_556 S
N1049 C1051 1.356 . S
N1049 H1054 0.984 . S
N1049 H1055 0.985 . S
C1050 C1044 1.381 . S
C1050 C1047 1.363 . S
C1050 N1048 1.356 1_554 S
C1051 C1045 1.363 . S
C1051 C1046 1.379 . S
C1051 N1049 1.356 . S
N1052 C1044 1.346 1_556 S
N1052 H1058 0.984 . S
N1052 H1059 0.984 . S
N1053 C1046 1.356 . S
N1053 H1056 0.984 . S
N1053 H1057 0.985 . S
H1054 N1049 0.984 . S
H1055 N1049 0.985 . S
H1056 N1053 0.984 . S
H1057 N1053 0.985 . S
H1058 N1052 0.984 . S
H1059 N1052 0.984 . S
H1060 N1048 0.984 . S
H1061 N1048 0.985 1_554 S
C1062 C1063 1.363 . S
C1062 C1068 1.379 1_545 S
C1062 N1070 1.356 1_545 S
C1063 C1062 1.363 . S
C1063 C1069 1.363 . S
C1064 C1065 1.363 . S
C1064 C1069 1.379 . S
C1064 N1071 1.356 . S
C1065 C1064 1.363 . S
C1065 C1068 1.363 1_545 S
N1066 C1068 1.356 . S
N1066 H1078 0.984 . S
N1066 H1079 0.985 . S
N1067 C1069 1.356 . S
N1067 H1072 0.984 . S
N1067 H1073 0.985 . S
C1068 C1062 1.379 1_565 S
C1068 C1065 1.363 1_565 S
C1068 N1066 1.356 . S
C1069 C1063 1.363 . S
C1069 C1064 1.379 . S
C1069 N1067 1.356 . S
N1070 C1062 1.356 1_565 S
N1070 H1076 0.984 . S
N1070 H1077 0.984 1_565 S
N1071 C1064 1.356 . S
N1071 H1074 0.984 . S
N1071 H1075 0.985 . S
H1072 N1067 0.984 . S
H1073 N1067 0.985 . S
H1074 N1071 0.984 . S
H1075 N1071 0.985 . S
H1076 N1070 0.984 . S
H1077 N1070 0.984 1_545 S
H1078 N1066 0.984 . S
H1079 N1066 0.985 . S
C1080 C1081 1.363 . S
C1080 C1086 1.379 . S
C1080 N1088 1.356 . S
C1081 C1080 1.363 . S
C1081 C1087 1.363 . S
C1082 C1083 1.363 . S
C1082 C1087 1.379 . S
C1082 N1089 1.356 . S
C1083 C1082 1.363 . S
C1083 C1086 1.363 . S
N1084 C1086 1.356 . S
N1084 H1096 0.984 . S
N1084 H1097 0.985 . S
N1085 C1087 1.356 . S
N1085 H1090 0.984 . S
N1085 H1091 0.985 . S
C1086 C1080 1.379 . S
C1086 C1083 1.363 . S
C1086 N1084 1.356 . S
C1087 C1081 1.363 . S
C1087 C1082 1.379 . S
C1087 N1085 1.356 . S
N1088 C1080 1.356 . S
N1088 H1094 0.984 . S
N1088 H1095 0.984 . S
N1089 C1082 1.356 . S
N1089 H1092 0.984 . S
N1089 H1093 0.985 . S
H1090 N1085 0.984 . S
H1091 N1085 0.985 . S
H1092 N1089 0.984 . S
H1093 N1089 0.985 . S
H1094 N1088 0.984 . S
H1095 N1088 0.984 . S
H1096 N1084 0.984 . S
H1097 N1084 0.985 . S
C1098 C1099 1.363 . S
C1098 C1104 1.379 . S
C1098 N1106 1.356 . S
C1099 C1098 1.363 . S
C1099 C1105 1.363 . S
C1100 C1101 1.363 . S
C1100 C1105 1.379 . S
C1100 N1107 1.356 . S
C1101 C1100 1.363 . S
C1101 C1104 1.363 . S
N1102 C1104 1.356 . S
N1102 H1114 0.984 . S
N1102 H1115 0.985 . S
N1103 C1105 1.356 . S
N1103 H1108 0.984 . S
N1103 H1109 0.985 . S
C1104 C1098 1.379 . S
C1104 C1101 1.363 . S
C1104 N1102 1.356 . S
C1105 C1099 1.363 . S
C1105 C1100 1.379 . S
C1105 N1103 1.356 . S
N1106 C1098 1.356 . S
N1106 H1112 0.984 . S
N1106 H1113 0.984 . S
N1107 C1100 1.356 . S
N1107 H1110 0.984 . S
N1107 H1111 0.985 . S
H1108 N1103 0.984 . S
H1109 N1103 0.985 . S
H1110 N1107 0.984 . S
H1111 N1107 0.985 . S
H1112 N1106 0.984 . S
H1113 N1106 0.984 . S
H1114 N1102 0.984 . S
H1115 N1102 0.985 . S
C1116 C1117 1.363 . S
C1116 C1122 1.379 . S
C1116 N1124 1.356 . S
C1117 C1116 1.363 . S
C1117 C1123 1.363 . S
C1118 C1119 1.363 . S
C1118 C1123 1.379 . S
C1118 N1125 1.356 1_556 S
C1119 C1118 1.363 . S
C1119 C1122 1.363 . S
N1120 C1122 1.356 . S
N1120 H1132 0.984 . S
N1120 H1133 0.985 . S
N1121 C1123 1.356 1_554 S
N1121 H1126 0.984 1_554 S
N1121 H1127 0.985 . S
C1122 C1116 1.379 . S
C1122 C1119 1.363 . S
C1122 N1120 1.356 . S
C1123 C1117 1.363 . S
C1123 C1118 1.379 . S
C1123 N1121 1.356 1_556 S
N1124 C1116 1.356 . S
N1124 H1130 0.984 . S
N1124 H1131 0.984 . S
N1125 C1118 1.356 1_554 S
N1125 H1128 0.984 . S
N1125 H1129 0.985 . S
H1126 N1121 0.984 1_556 S
H1127 N1121 0.985 . S
H1128 N1125 0.984 . S
H1129 N1125 0.985 . S
H1130 N1124 0.984 . S
H1131 N1124 0.984 . S
H1132 N1120 0.984 . S
H1133 N1120 0.985 . S
C1134 C1135 1.363 . S
C1134 C1140 1.379 . S
C1134 N1142 1.356 . S
C1135 C1134 1.363 . S
C1135 C1141 1.363 . S
C1136 C1137 1.363 . S
C1136 C1141 1.379 . S
C1136 N1143 1.356 . S
C1137 C1136 1.363 . S
C1137 C1140 1.363 . S
N1138 C1140 1.356 . S
N1138 H1150 0.984 . S
N1138 H1151 0.985 . S
N1139 C1141 1.356 . S
N1139 H1144 0.984 . S
N1139 H1145 0.985 . S
C1140 C1134 1.379 . S
C1140 C1137 1.363 . S
C1140 N1138 1.356 . S
C1141 C1135 1.363 . S
C1141 C1136 1.379 . S
C1141 N1139 1.356 . S
N1142 C1134 1.356 . S
N1142 H1148 0.984 . S
N1142 H1149 0.984 . S
N1143 C1136 1.356 . S
N1143 H1146 0.984 . S
N1143 H1147 0.985 . S
H1144 N1139 0.984 . S
H1145 N1139 0.985 . S
H1146 N1143 0.984 . S
H1147 N1143 0.985 . S
H1148 N1142 0.984 . S
H1149 N1142 0.984 . S
H1150 N1138 0.984 . S
H1151 N1138 0.985 . S
C1152 C1153 1.363 . S
C1152 C1158 1.379 . S
C1152 N1160 1.356 . S
C1153 C1152 1.363 . S
C1153 C1159 1.363 . S
C1154 C1155 1.363 . S
C1154 C1159 1.379 . S
C1154 N1161 1.356 . S
C1155 C1154 1.363 . S
C1155 C1158 1.363 . S
N1156 C1158 1.356 . S
N1156 H1168 0.984 . S
N1156 H1169 0.985 . S
N1157 C1159 1.356 . S
N1157 H1162 0.984 . S
N1157 H1163 0.985 . S
C1158 C1152 1.379 . S
C1158 C1155 1.363 . S
C1158 N1156 1.356 . S
C1159 C1153 1.363 . S
C1159 C1154 1.379 . S
C1159 N1157 1.356 . S
N1160 C1152 1.356 . S
N1160 H1166 0.984 . S
N1160 H1167 0.984 . S
N1161 C1154 1.356 . S
N1161 H1164 0.984 . S
N1161 H1165 0.985 . S
H1162 N1157 0.984 . S
H1163 N1157 0.985 . S
H1164 N1161 0.984 . S
H1165 N1161 0.985 . S
H1166 N1160 0.984 . S
H1167 N1160 0.984 . S
H1168 N1156 0.984 . S
H1169 N1156 0.985 . S
C1170 C1171 1.363 . S
C1170 C1176 1.379 . S
C1170 N1178 1.356 . S
C1171 C1170 1.363 . S
C1171 C1177 1.363 . S
C1172 C1173 1.363 . S
C1172 C1177 1.379 . S
C1172 N1179 1.356 1_455 S
C1173 C1172 1.363 . S
C1173 C1176 1.363 . S
N1174 C1176 1.356 . S
N1174 H1186 0.984 . S
N1174 H1187 0.985 . S
N1175 C1177 1.356 . S
N1175 H1180 0.984 . S
N1175 H1181 0.985 1_455 S
C1176 C1170 1.379 . S
C1176 C1173 1.363 . S
C1176 N1174 1.356 . S
C1177 C1171 1.363 . S
C1177 C1172 1.379 . S
C1177 N1175 1.356 . S
N1178 C1170 1.356 . S
N1178 H1184 0.984 . S
N1178 H1185 0.984 . S
N1179 C1172 1.356 1_655 S
N1179 H1182 0.984 . S
N1179 H1183 0.985 . S
H1180 N1175 0.984 . S
H1181 N1175 0.985 1_655 S
H1182 N1179 0.984 . S
H1183 N1179 0.985 . S
H1184 N1178 0.984 . S
H1185 N1178 0.984 . S
H1186 N1174 0.984 . S
H1187 N1174 0.985 . S
C1188 C1189 1.363 . S
C1188 C1194 1.379 . S
C1188 N1196 1.356 . S
C1189 C1188 1.363 . S
C1189 C1195 1.363 . S
C1190 C1191 1.363 . S
C1190 C1195 1.379 . S
C1190 N1197 1.356 . S
C1191 C1190 1.363 . S
C1191 C1194 1.363 . S
N1192 C1194 1.356 . S
N1192 H1204 0.984 . S
N1192 H1205 0.985 . S
N1193 C1195 1.356 1_455 S
N1193 H1198 0.984 . S
N1193 H1199 0.985 . S
C1194 C1188 1.379 . S
C1194 C1191 1.363 . S
C1194 N1192 1.356 . S
C1195 C1189 1.363 . S
C1195 C1190 1.379 . S
C1195 N1193 1.356 1_655 S
N1196 C1188 1.356 . S
N1196 H1202 0.984 . S
N1196 H1203 0.984 . S
N1197 C1190 1.356 . S
N1197 H1200 0.984 . S
N1197 H1201 0.985 . S
H1198 N1193 0.984 . S
H1199 N1193 0.985 . S
H1200 N1197 0.984 . S
H1201 N1197 0.985 . S
H1202 N1196 0.984 . S
H1203 N1196 0.984 . S
H1204 N1192 0.984 . S
H1205 N1192 0.985 . S
C1206 C1207 1.363 . S
C1206 C1212 1.379 . S
C1206 N1214 1.356 . S
C1207 C1206 1.363 . S
C1207 C1213 1.363 . S
C1208 C1209 1.363 . S
C1208 C1213 1.379 . S
C1208 N1215 1.356 . S
C1209 C1208 1.363 . S
C1209 C1212 1.363 . S
N1210 C1212 1.356 . S
N1210 H1222 0.984 . S
N1210 H1223 0.985 . S
N1211 C1213 1.356 . S
N1211 H1216 0.984 . S
N1211 H1217 0.985 . S
C1212 C1206 1.379 . S
C1212 C1209 1.363 . S
C1212 N1210 1.356 . S
C1213 C1207 1.363 . S
C1213 C1208 1.379 . S
C1213 N1211 1.356 . S
N1214 C1206 1.356 . S
N1214 H1220 0.984 . S
N1214 H1221 0.984 . S
N1215 C1208 1.356 . S
N1215 H1218 0.984 . S
N1215 H1219 0.985 . S
H1216 N1211 0.984 . S
H1217 N1211 0.985 . S
H1218 N1215 0.984 . S
H1219 N1215 0.985 . S
H1220 N1214 0.984 . S
H1221 N1214 0.984 . S
H1222 N1210 0.984 . S
H1223 N1210 0.985 . S
C1224 C1225 1.363 . S
C1224 C1230 1.379 . S
C1224 N1232 1.356 . S
C1225 C1224 1.363 . S
C1225 C1231 1.363 . S
C1226 C1227 1.363 . S
C1226 C1231 1.379 . S
C1226 N1233 1.356 . S
C1227 C1226 1.363 . S
C1227 C1230 1.363 . S
N1228 C1230 1.356 . S
N1228 H1240 0.984 . S
N1228 H1241 0.985 . S
N1229 C1231 1.356 . S
N1229 H1234 0.984 . S
N1229 H1235 0.985 . S
C1230 C1224 1.379 . S
C1230 C1227 1.363 . S
C1230 N1228 1.356 . S
C1231 C1225 1.363 . S
C1231 C1226 1.379 . S
C1231 N1229 1.356 . S
N1232 C1224 1.356 . S
N1232 H1238 0.984 . S
N1232 H1239 0.984 . S
N1233 C1226 1.356 . S
N1233 H1236 0.984 . S
N1233 H1237 0.985 . S
H1234 N1229 0.984 . S
H1235 N1229 0.985 . S
H1236 N1233 0.984 . S
H1237 N1233 0.985 . S
H1238 N1232 0.984 . S
H1239 N1232 0.984 . S
H1240 N1228 0.984 . S
H1241 N1228 0.985 . S
C1242 C1243 1.363 . S
C1242 C1248 1.379 . S
C1242 N1250 1.356 . S
C1243 C1242 1.363 . S
C1243 C1249 1.363 . S
C1244 C1245 1.363 . S
C1244 C1249 1.379 . S
C1244 N1251 1.356 1_565 S
C1245 C1244 1.363 . S
C1245 C1248 1.363 . S
N1246 C1248 1.356 . S
N1246 H1258 0.984 . S
N1246 H1259 0.985 . S
N1247 C1249 1.356 . S
N1247 H1252 0.984 . S
N1247 H1253 0.985 1_565 S
C1248 C1242 1.379 . S
C1248 C1245 1.363 . S
C1248 N1246 1.356 . S
C1249 C1243 1.363 . S
C1249 C1244 1.379 . S
C1249 N1247 1.356 . S
N1250 C1242 1.356 . S
N1250 H1256 0.984 . S
N1250 H1257 0.984 . S
N1251 C1244 1.356 1_545 S
N1251 H1254 0.984 . S
N1251 H1255 0.985 . S
H1252 N1247 0.984 . S
H1253 N1247 0.985 1_545 S
H1254 N1251 0.984 . S
H1255 N1251 0.985 . S
H1256 N1250 0.984 . S
H1257 N1250 0.984 . S
H1258 N1246 0.984 . S
H1259 N1246 0.985 . S
C1260 C1261 1.363 . S
C1260 C1266 1.379 . S
C1260 N1268 1.356 . S
C1261 C1260 1.363 . S
C1261 C1267 1.363 . S
C1262 C1263 1.363 . S
C1262 C1267 1.379 . S
C1262 N1269 1.356 . S
C1263 C1262 1.363 . S
C1263 C1266 1.363 . S
N1264 C1266 1.356 . S
N1264 H1276 0.984 . S
N1264 H1277 0.985 . S
N1265 C1267 1.356 . S
N1265 H1270 0.984 . S
N1265 H1271 0.985 . S
C1266 C1260 1.379 . S
C1266 C1263 1.363 . S
C1266 N1264 1.356 . S
C1267 C1261 1.363 . S
C1267 C1262 1.379 . S
C1267 N1265 1.356 . S
N1268 C1260 1.356 . S
N1268 H1274 0.984 . S
N1268 H1275 0.984 . S
N1269 C1262 1.356 . S
N1269 H1272 0.984 . S
N1269 H1273 0.985 . S
H1270 N1265 0.984 . S
H1271 N1265 0.985 . S
H1272 N1269 0.984 . S
H1273 N1269 0.985 . S
H1274 N1268 0.984 . S
H1275 N1268 0.984 . S
H1276 N1264 0.984 . S
H1277 N1264 0.985 . S
C1278 C1279 1.363 . S
C1278 C1284 1.379 . S
C1278 N1286 1.356 . S
C1279 C1278 1.363 . S
C1279 C1285 1.363 . S
C1280 C1281 1.363 . S
C1280 C1285 1.379 1_556 S
C1280 N1287 1.356 . S
C1281 C1280 1.363 . S
C1281 C1284 1.363 1_556 S
N1282 C1284 1.356 1_566 S
N1282 H1294 0.983 1_556 S
N1282 H1295 0.985 . S
N1283 C1285 1.356 . S
N1283 H1288 0.984 . S
N1283 H1289 0.985 . S
C1284 C1278 1.379 . S
C1284 C1281 1.363 1_554 S
C1284 N1282 1.356 1_544 S
C1285 C1279 1.363 . S
C1285 C1280 1.379 1_554 S
C1285 N1283 1.356 . S
N1286 C1278 1.356 . S
N1286 H1292 0.984 . S
N1286 H1293 0.984 . S
N1287 C1280 1.356 . S
N1287 H1290 0.984 . S
N1287 H1291 0.985 . S
H1288 N1283 0.984 . S
H1289 N1283 0.985 . S
H1290 N1287 0.984 . S
H1291 N1287 0.985 . S
H1292 N1286 0.984 . S
H1293 N1286 0.984 . S
H1294 N1282 0.983 1_554 S
H1295 N1282 0.985 . S
C1296 C1297 1.363 . S
C1296 C1302 1.379 . S
C1296 N1304 1.356 . S
C1297 C1296 1.363 . S
C1297 C1303 1.363 . S
C1298 C1299 1.363 . S
C1298 C1303 1.379 . S
C1298 N1305 1.356 . S
C1299 C1298 1.363 . S
C1299 C1302 1.363 . S
N1300 C1302 1.356 . S
N1300 H1312 0.984 . S
N1300 H1313 0.985 . S
N1301 C1303 1.356 . S
N1301 H1306 0.984 . S
N1301 H1307 0.985 . S
C1302 C1296 1.379 . S
C1302 C1299 1.363 . S
C1302 N1300 1.356 . S
C1303 C1297 1.363 . S
C1303 C1298 1.379 . S
C1303 N1301 1.356 . S
N1304 C1296 1.356 . S
N1304 H1310 0.984 . S
N1304 H1311 0.984 . S
N1305 C1298 1.356 . S
N1305 H1308 0.984 . S
N1305 H1309 0.985 1_545 S
H1306 N1301 0.984 . S
H1307 N1301 0.985 . S
H1308 N1305 0.984 . S
H1309 N1305 0.985 1_565 S
H1310 N1304 0.984 . S
H1311 N1304 0.984 . S
H1312 N1300 0.984 . S
H1313 N1300 0.985 . S
C1314 C1315 1.358 1_556 S
C1314 C1320 1.387 . S
C1314 N1322 1.351 1_556 S
C1315 C1314 1.358 1_554 S
C1315 C1321 1.363 . S
C1316 C1317 1.363 . S
C1316 C1321 1.379 1_556 S
C1316 N1323 1.356 . S
C1317 C1316 1.363 . S
C1317 C1320 1.363 . S
N1318 C1320 1.356 . S
N1318 H1330 0.984 . S
N1318 H1331 0.985 . S
N1319 C1321 1.356 . S
N1319 H1324 0.984 . S
N1319 H1325 0.985 . S
C1320 C1314 1.387 . S
C1320 C1317 1.363 . S
C1320 N1318 1.356 . S
C1321 C1315 1.363 . S
C1321 C1316 1.379 1_554 S
C1321 N1319 1.356 . S
N1322 C1314 1.351 1_554 S
N1322 H1328 0.984 . S
N1322 H1329 0.984 . S
N1323 C1316 1.356 . S
N1323 H1326 0.984 . S
N1323 H1327 0.985 . S
H1324 N1319 0.984 . S
H1325 N1319 0.985 . S
H1326 N1323 0.984 . S
H1327 N1323 0.985 . S
H1328 N1322 0.984 . S
H1329 N1322 0.984 . S
H1330 N1318 0.984 . S
H1331 N1318 0.985 . S
C1332 C1333 1.363 . S
C1332 C1338 1.379 . S
C1332 N1340 1.356 . S
C1333 C1332 1.363 . S
C1333 C1339 1.363 . S
C1334 C1335 1.363 . S
C1334 C1339 1.379 . S
C1334 N1341 1.356 . S
C1335 C1334 1.363 . S
C1335 C1338 1.363 . S
N1336 C1338 1.356 . S
N1336 H1348 0.984 . S
N1336 H1349 0.985 . S
N1337 C1339 1.356 . S
N1337 H1342 0.984 . S
N1337 H1343 0.985 1_565 S
C1338 C1332 1.379 . S
C1338 C1335 1.363 . S
C1338 N1336 1.356 . S
C1339 C1333 1.363 . S
C1339 C1334 1.379 . S
C1339 N1337 1.356 . S
N1340 C1332 1.356 . S
N1340 H1346 0.984 . S
N1340 H1347 0.984 . S
N1341 C1334 1.356 . S
N1341 H1344 0.984 . S
N1341 H1345 0.985 . S
H1342 N1337 0.984 . S
H1343 N1337 0.985 1_545 S
H1344 N1341 0.984 . S
H1345 N1341 0.985 . S
H1346 N1340 0.984 . S
H1347 N1340 0.984 . S
H1348 N1336 0.984 . S
H1349 N1336 0.985 . S
C1350 C1351 1.363 . S
C1350 C1356 1.379 . S
C1350 N1358 1.356 . S
C1351 C1350 1.363 . S
C1351 C1357 1.363 . S
C1352 C1353 1.363 . S
C1352 C1357 1.379 . S
C1352 N1359 1.356 . S
C1353 C1352 1.363 . S
C1353 C1356 1.363 . S
N1354 C1356 1.356 . S
N1354 H1366 0.984 . S
N1354 H1367 0.985 . S
N1355 C1357 1.356 . S
N1355 H1360 0.984 . S
N1355 H1361 0.985 . S
C1356 C1350 1.379 . S
C1356 C1353 1.363 . S
C1356 N1354 1.356 . S
C1357 C1351 1.363 . S
C1357 C1352 1.379 . S
C1357 N1355 1.356 . S
N1358 C1350 1.356 . S
N1358 H1364 0.984 . S
N1358 H1365 0.984 . S
N1359 C1352 1.356 . S
N1359 H1362 0.984 . S
N1359 H1363 0.985 . S
H1360 N1355 0.984 . S
H1361 N1355 0.985 . S
H1362 N1359 0.984 . S
H1363 N1359 0.985 . S
H1364 N1358 0.984 . S
H1365 N1358 0.984 . S
H1366 N1354 0.984 . S
H1367 N1354 0.985 . S
C1368 C1369 1.363 . S
C1368 C1374 1.379 . S
C1368 N1376 1.356 . S
C1369 C1368 1.363 . S
C1369 C1375 1.363 . S
C1370 C1371 1.363 . S
C1370 C1375 1.379 . S
C1370 N1377 1.356 . S
C1371 C1370 1.363 . S
C1371 C1374 1.363 . S
N1372 C1374 1.356 . S
N1372 H1384 0.984 . S
N1372 H1385 0.985 . S
N1373 C1375 1.356 . S
N1373 H1378 0.984 . S
N1373 H1379 0.985 . S
C1374 C1368 1.379 . S
C1374 C1371 1.363 . S
C1374 N1372 1.356 . S
C1375 C1369 1.363 . S
C1375 C1370 1.379 . S
C1375 N1373 1.356 . S
N1376 C1368 1.356 . S
N1376 H1382 0.984 . S
N1376 H1383 0.984 . S
N1377 C1370 1.356 . S
N1377 H1380 0.984 . S
N1377 H1381 0.985 . S
H1378 N1373 0.984 . S
H1379 N1373 0.985 . S
H1380 N1377 0.984 . S
H1381 N1377 0.985 . S
H1382 N1376 0.984 . S
H1383 N1376 0.984 . S
H1384 N1372 0.984 . S
H1385 N1372 0.985 . S
C1386 C1387 1.363 . S
C1386 C1392 1.379 1_545 S
C1386 N1394 1.356 . S
C1387 C1386 1.363 . S
C1387 C1393 1.363 . S
C1388 C1389 1.363 . S
C1388 C1393 1.379 1_565 S
C1388 N1395 1.356 1_455 S
C1389 C1388 1.363 . S
C1389 C1392 1.363 . S
N1390 C1392 1.356 . S
N1390 H1402 0.984 . S
N1390 H1403 0.985 . S
N1391 C1393 1.356 . S
N1391 H1396 0.984 . S
N1391 H1397 0.985 1_455 S
C1392 C1386 1.379 1_565 S
C1392 C1389 1.363 . S
C1392 N1390 1.356 . S
C1393 C1387 1.363 . S
C1393 C1388 1.379 1_545 S
C1393 N1391 1.356 . S
N1394 C1386 1.356 . S
N1394 H1400 0.984 . S
N1394 H1401 0.984 . S
N1395 C1388 1.356 1_655 S
N1395 H1398 0.984 . S
N1395 H1399 0.985 . S
H1396 N1391 0.984 . S
H1397 N1391 0.985 1_655 S
H1398 N1395 0.984 . S
H1399 N1395 0.985 . S
H1400 N1394 0.984 . S
H1401 N1394 0.984 . S
H1402 N1390 0.984 . S
H1403 N1390 0.985 . S
C1404 C1405 1.363 . S
C1404 C1410 1.379 . S
C1404 N1412 1.356 . S
C1405 C1404 1.363 . S
C1405 C1411 1.363 . S
C1406 C1407 1.363 . S
C1406 C1411 1.379 . S
C1406 N1413 1.356 . S
C1407 C1406 1.363 . S
C1407 C1410 1.363 . S
N1408 C1410 1.356 . S
N1408 H1420 0.984 . S
N1408 H1421 0.985 . S
N1409 C1411 1.356 . S
N1409 H1414 0.984 . S
N1409 H1415 0.985 . S
C1410 C1404 1.379 . S
C1410 C1407 1.363 . S
C1410 N1408 1.356 . S
C1411 C1405 1.363 . S
C1411 C1406 1.379 . S
C1411 N1409 1.356 . S
N1412 C1404 1.356 . S
N1412 H1418 0.984 . S
N1412 H1419 0.984 . S
N1413 C1406 1.356 . S
N1413 H1416 0.984 . S
N1413 H1417 0.985 . S
H1414 N1409 0.984 . S
H1415 N1409 0.985 . S
H1416 N1413 0.984 . S
H1417 N1413 0.985 . S
H1418 N1412 0.984 . S
H1419 N1412 0.984 . S
H1420 N1408 0.984 . S
H1421 N1408 0.985 . S
C1422 C1423 1.363 1_565 S
C1422 C1428 1.379 . S
C1422 N1430 1.356 1_565 S
C1423 C1422 1.363 1_545 S
C1423 C1429 1.363 . S
C1424 C1425 1.363 . S
C1424 C1429 1.379 1_565 S
C1424 N1431 1.356 . S
C1425 C1424 1.363 . S
C1425 C1428 1.363 . S
N1426 C1428 1.356 . S
N1426 H1438 0.984 . S
N1426 H1439 0.985 . S
N1427 C1429 1.356 . S
N1427 H1432 0.984 . S
N1427 H1433 0.985 . S
C1428 C1422 1.379 . S
C1428 C1425 1.363 . S
C1428 N1426 1.356 . S
C1429 C1423 1.363 . S
C1429 C1424 1.379 1_545 S
C1429 N1427 1.356 . S
N1430 C1422 1.356 1_545 S
N1430 H1436 0.986 . S
N1430 H1437 0.984 . S
N1431 C1424 1.356 . S
N1431 H1434 0.984 . S
N1431 H1435 0.985 . S
H1432 N1427 0.984 . S
H1433 N1427 0.985 . S
H1434 N1431 0.984 . S
H1435 N1431 0.985 . S
H1436 N1430 0.986 . S
H1437 N1430 0.984 . S
H1438 N1426 0.984 . S
H1439 N1426 0.985 . S
C1440 C1441 1.363 . S
C1440 C1446 1.379 . S
C1440 N1448 1.356 . S
C1441 C1440 1.363 . S
C1441 C1447 1.363 . S
C1442 C1443 1.363 . S
C1442 C1447 1.379 . S
C1442 N1449 1.356 . S
C1443 C1442 1.363 . S
C1443 C1446 1.363 . S
N1444 C1446 1.356 . S
N1444 H1456 0.984 . S
N1444 H1457 0.985 . S
N1445 C1447 1.356 . S
N1445 H1450 0.984 . S
N1445 H1451 0.985 . S
C1446 C1440 1.379 . S
C1446 C1443 1.363 . S
C1446 N1444 1.356 . S
C1447 C1441 1.363 . S
C1447 C1442 1.379 . S
C1447 N1445 1.356 . S
N1448 C1440 1.356 . S
N1448 H1454 0.984 . S
N1448 H1455 0.984 . S
N1449 C1442 1.356 . S
N1449 H1452 0.984 . S
N1449 H1453 0.985 . S
H1450 N1445 0.984 . S
H1451 N1445 0.985 . S
H1452 N1449 0.984 . S
H1453 N1449 0.985 . S
H1454 N1448 0.984 . S
H1455 N1448 0.984 . S
H1456 N1444 0.984 . S
H1457 N1444 0.985 . S
C1458 C1459 1.363 . S
C1458 C1464 1.379 . S
C1458 N1466 1.356 1_655 S
C1459 C1458 1.363 . S
C1459 C1465 1.363 . S
C1460 C1461 1.363 . S
C1460 C1465 1.379 . S
C1460 N1467 1.356 . S
C1461 C1460 1.363 . S
C1461 C1464 1.363 . S
N1462 C1464 1.356 . S
N1462 H1474 0.984 1_655 S
N1462 H1475 0.985 . S
N1463 C1465 1.356 . S
N1463 H1468 0.984 . S
N1463 H1469 0.985 . S
C1464 C1458 1.379 . S
C1464 C1461 1.363 . S
C1464 N1462 1.356 . S
C1465 C1459 1.363 . S
C1465 C1460 1.379 . S
C1465 N1463 1.356 . S
N1466 C1458 1.356 1_455 S
N1466 H1472 0.984 . S
N1466 H1473 0.984 . S
N1467 C1460 1.356 . S
N1467 H1470 0.984 . S
N1467 H1471 0.985 . S
H1468 N1463 0.984 . S
H1469 N1463 0.985 . S
H1470 N1467 0.984 . S
H1471 N1467 0.985 . S
H1472 N1466 0.984 . S
H1473 N1466 0.984 . S
H1474 N1462 0.984 1_455 S
H1475 N1462 0.985 . S
C1476 C1477 1.363 . S
C1476 C1482 1.379 . S
C1476 N1484 1.356 . S
C1477 C1476 1.363 . S
C1477 C1483 1.363 . S
C1478 C1479 1.363 . S
C1478 C1483 1.379 . S
C1478 N1485 1.356 . S
C1479 C1478 1.363 . S
C1479 C1482 1.363 . S
N1480 C1482 1.356 . S
N1480 H1492 0.984 . S
N1480 H1493 0.985 . S
N1481 C1483 1.356 . S
N1481 H1486 0.984 . S
N1481 H1487 0.985 . S
C1482 C1476 1.379 . S
C1482 C1479 1.363 . S
C1482 N1480 1.356 . S
C1483 C1477 1.363 . S
C1483 C1478 1.379 . S
C1483 N1481 1.356 . S
N1484 C1476 1.356 . S
N1484 H1490 0.984 1_554 S
N1484 H1491 0.984 . S
N1485 C1478 1.356 . S
N1485 H1488 0.984 . S
N1485 H1489 0.985 . S
H1486 N1481 0.984 . S
H1487 N1481 0.985 . S
H1488 N1485 0.984 . S
H1489 N1485 0.985 . S
H1490 N1484 0.984 1_556 S
H1491 N1484 0.984 . S
H1492 N1480 0.984 . S
H1493 N1480 0.985 . S
C1494 C1495 1.363 . S
C1494 C1500 1.379 . S
C1494 N1502 1.356 . S
C1495 C1494 1.363 . S
C1495 C1501 1.363 . S
C1496 C1497 1.363 . S
C1496 C1501 1.379 . S
C1496 N1503 1.356 . S
C1497 C1496 1.363 . S
C1497 C1500 1.363 . S
N1498 C1500 1.356 . S
N1498 H1510 0.984 . S
N1498 H1511 0.985 . S
N1499 C1501 1.356 . S
N1499 H1504 0.984 . S
N1499 H1505 0.985 . S
C1500 C1494 1.379 . S
C1500 C1497 1.363 . S
C1500 N1498 1.356 . S
C1501 C1495 1.363 . S
C1501 C1496 1.379 . S
C1501 N1499 1.356 . S
N1502 C1494 1.356 . S
N1502 H1508 0.984 . S
N1502 H1509 0.984 . S
N1503 C1496 1.356 . S
N1503 H1506 0.984 . S
N1503 H1507 0.985 . S
H1504 N1499 0.984 . S
H1505 N1499 0.985 . S
H1506 N1503 0.984 . S
H1507 N1503 0.985 . S
H1508 N1502 0.984 . S
H1509 N1502 0.984 . S
H1510 N1498 0.984 . S
H1511 N1498 0.985 . S
C1512 C1513 1.363 . S
C1512 C1518 1.379 . S
C1512 N1520 1.356 . S
C1513 C1512 1.363 . S
C1513 C1519 1.363 . S
C1514 C1515 1.363 . S
C1514 C1519 1.379 . S
C1514 N1521 1.356 . S
C1515 C1514 1.363 . S
C1515 C1518 1.363 . S
N1516 C1518 1.356 . S
N1516 H1528 0.984 . S
N1516 H1529 0.985 . S
N1517 C1519 1.356 . S
N1517 H1522 0.984 . S
N1517 H1523 0.985 . S
C1518 C1512 1.379 . S
C1518 C1515 1.363 . S
C1518 N1516 1.356 . S
C1519 C1513 1.363 . S
C1519 C1514 1.379 . S
C1519 N1517 1.356 . S
N1520 C1512 1.356 . S
N1520 H1526 0.984 . S
N1520 H1527 0.984 . S
N1521 C1514 1.356 . S
N1521 H1524 0.984 . S
N1521 H1525 0.985 . S
H1522 N1517 0.984 . S
H1523 N1517 0.985 . S
H1524 N1521 0.984 . S
H1525 N1521 0.985 . S
H1526 N1520 0.984 . S
H1527 N1520 0.984 . S
H1528 N1516 0.984 . S
H1529 N1516 0.985 . S
C1530 C1531 1.363 . S
C1530 C1536 1.379 . S
C1530 N1538 1.356 . S
C1531 C1530 1.363 . S
C1531 C1537 1.363 . S
C1532 C1533 1.363 . S
C1532 C1537 1.379 . S
C1532 N1539 1.356 . S
C1533 C1532 1.363 . S
C1533 C1536 1.363 . S
N1534 C1536 1.356 . S
N1534 H1546 0.984 1_655 S
N1534 H1547 0.985 . S
N1535 C1537 1.356 . S
N1535 H1540 0.984 . S
N1535 H1541 0.985 . S
C1536 C1530 1.379 . S
C1536 C1533 1.363 . S
C1536 N1534 1.356 . S
C1537 C1531 1.363 . S
C1537 C1532 1.379 . S
C1537 N1535 1.356 . S
N1538 C1530 1.356 . S
N1538 H1544 0.984 1_655 S
N1538 H1545 0.984 . S
N1539 C1532 1.356 . S
N1539 H1542 0.984 . S
N1539 H1543 0.985 . S
H1540 N1535 0.984 . S
H1541 N1535 0.985 . S
H1542 N1539 0.984 . S
H1543 N1539 0.985 . S
H1544 N1538 0.984 1_455 S
H1545 N1538 0.984 . S
H1546 N1534 0.984 1_455 S
H1547 N1534 0.985 . S
C1548 C1549 1.363 . S
C1548 C1554 1.379 1_455 S
C1548 N1556 1.356 . S
C1549 C1548 1.363 . S
C1549 C1555 1.363 . S
C1550 C1551 1.351 1_455 S
C1550 C1555 1.396 . S
C1550 N1557 1.346 1_455 S
C1551 C1550 1.351 1_655 S
C1551 C1554 1.363 . S
N1552 C1554 1.356 . S
N1552 H1564 0.984 . S
N1552 H1565 0.985 . S
N1553 C1555 1.356 . S
N1553 H1558 0.984 . S
N1553 H1559 0.985 . S
C1554 C1548 1.379 1_655 S
C1554 C1551 1.363 . S
C1554 N1552 1.356 . S
C1555 C1549 1.363 . S
C1555 C1550 1.396 . S
C1555 N1553 1.356 . S
N1556 C1548 1.356 . S
N1556 H1562 0.984 . S
N1556 H1563 0.984 . S
N1557 C1550 1.346 1_655 S
N1557 H1560 0.984 . S
N1557 H1561 0.985 . S
H1558 N1553 0.984 . S
H1559 N1553 0.985 . S
H1560 N1557 0.984 . S
H1561 N1557 0.985 . S
H1562 N1556 0.984 . S
H1563 N1556 0.984 . S
H1564 N1552 0.984 . S
H1565 N1552 0.985 . S
C1566 C1567 1.363 . S
C1566 C1572 1.379 . S
C1566 N1574 1.356 . S
C1567 C1566 1.363 . S
C1567 C1573 1.363 . S
C1568 C1569 1.363 . S
C1568 C1573 1.379 . S
C1568 N1575 1.356 . S
C1569 C1568 1.363 . S
C1569 C1572 1.363 . S
N1570 C1572 1.356 . S
N1570 H1582 0.984 . S
N1570 H1583 0.985 . S
N1571 C1573 1.356 . S
N1571 H1576 0.984 . S
N1571 H1577 0.985 . S
C1572 C1566 1.379 . S
C1572 C1569 1.363 . S
C1572 N1570 1.356 . S
C1573 C1567 1.363 . S
C1573 C1568 1.379 . S
C1573 N1571 1.356 . S
N1574 C1566 1.356 . S
N1574 H1580 0.984 . S
N1574 H1581 0.984 . S
N1575 C1568 1.356 . S
N1575 H1578 0.984 . S
N1575 H1579 0.985 . S
H1576 N1571 0.984 . S
H1577 N1571 0.985 . S
H1578 N1575 0.984 . S
H1579 N1575 0.985 . S
H1580 N1574 0.984 . S
H1581 N1574 0.984 . S
H1582 N1570 0.984 . S
H1583 N1570 0.985 . S
C1584 C1585 1.363 . S
C1584 C1590 1.379 . S
C1584 N1592 1.356 . S
C1585 C1584 1.363 . S
C1585 C1591 1.363 . S
C1586 C1587 1.363 . S
C1586 C1591 1.379 . S
C1586 N1593 1.356 . S
C1587 C1586 1.363 . S
C1587 C1590 1.363 . S
N1588 C1590 1.356 . S
N1588 H1600 0.984 . S
N1588 H1601 0.985 . S
N1589 C1591 1.356 . S
N1589 H1594 0.984 . S
N1589 H1595 0.985 . S
C1590 C1584 1.379 . S
C1590 C1587 1.363 . S
C1590 N1588 1.356 . S
C1591 C1585 1.363 . S
C1591 C1586 1.379 . S
C1591 N1589 1.356 . S
N1592 C1584 1.356 . S
N1592 H1598 0.984 . S
N1592 H1599 0.984 . S
N1593 C1586 1.356 . S
N1593 H1596 0.984 . S
N1593 H1597 0.985 . S
H1594 N1589 0.984 . S
H1595 N1589 0.985 . S
H1596 N1593 0.984 . S
H1597 N1593 0.985 . S
H1598 N1592 0.984 . S
H1599 N1592 0.984 . S
H1600 N1588 0.984 . S
H1601 N1588 0.985 . S
C1602 C1603 1.363 . S
C1602 C1608 1.379 . S
C1602 N1610 1.356 . S
C1603 C1602 1.363 . S
C1603 C1609 1.363 . S
C1604 C1605 1.363 . S
C1604 C1609 1.379 . S
C1604 N1611 1.356 . S
C1605 C1604 1.363 . S
C1605 C1608 1.363 . S
N1606 C1608 1.356 . S
N1606 H1618 0.984 1_455 S
N1606 H1619 0.985 . S
N1607 C1609 1.356 . S
N1607 H1612 0.984 . S
N1607 H1613 0.985 . S
C1608 C1602 1.379 . S
C1608 C1605 1.363 . S
C1608 N1606 1.356 . S
C1609 C1603 1.363 . S
C1609 C1604 1.379 . S
C1609 N1607 1.356 . S
N1610 C1602 1.356 . S
N1610 H1616 0.984 1_455 S
N1610 H1617 0.984 . S
N1611 C1604 1.356 . S
N1611 H1614 0.984 . S
N1611 H1615 0.985 . S
H1612 N1607 0.984 . S
H1613 N1607 0.985 . S
H1614 N1611 0.984 . S
H1615 N1611 0.985 . S
H1616 N1610 0.984 1_655 S
H1617 N1610 0.984 . S
H1618 N1606 0.984 1_655 S
H1619 N1606 0.985 . S
C1620 C1621 1.363 . S
C1620 C1626 1.379 . S
C1620 N1628 1.356 . S
C1621 C1620 1.363 . S
C1621 C1627 1.363 . S
C1622 C1623 1.363 . S
C1622 C1627 1.379 . S
C1622 N1629 1.356 . S
C1623 C1622 1.363 . S
C1623 C1626 1.363 . S
N1624 C1626 1.356 . S
N1624 H1636 0.984 . S
N1624 H1637 0.985 . S
N1625 C1627 1.356 . S
N1625 H1630 0.989 . S
N1625 H1631 0.985 1_556 S
C1626 C1620 1.379 . S
C1626 C1623 1.363 . S
C1626 N1624 1.356 . S
C1627 C1621 1.363 . S
C1627 C1622 1.379 . S
C1627 N1625 1.356 . S
N1628 C1620 1.356 . S
N1628 H1634 0.984 . S
N1628 H1635 0.984 . S
N1629 C1622 1.356 . S
N1629 H1632 0.984 . S
N1629 H1633 0.985 . S
H1630 N1625 0.989 . S
H1631 N1625 0.985 1_554 S
H1632 N1629 0.984 . S
H1633 N1629 0.985 . S
H1634 N1628 0.984 . S
H1635 N1628 0.984 . S
H1636 N1624 0.984 . S
H1637 N1624 0.985 . S
C1638 C1639 1.363 . S
C1638 C1644 1.379 . S
C1638 N1646 1.356 . S
C1639 C1638 1.363 . S
C1639 C1645 1.363 . S
C1640 C1641 1.363 . S
C1640 C1645 1.379 1_455 S
C1640 N1647 1.356 . S
C1641 C1640 1.363 . S
C1641 C1644 1.363 1_455 S
N1642 C1644 1.356 1_455 S
N1642 H1654 0.984 . S
N1642 H1655 0.985 . S
N1643 C1645 1.356 . S
N1643 H1648 0.984 . S
N1643 H1649 0.985 . S
C1644 C1638 1.379 . S
C1644 C1641 1.363 1_655 S
C1644 N1642 1.356 1_655 S
C1645 C1639 1.363 . S
C1645 C1640 1.379 1_655 S
C1645 N1643 1.356 . S
N1646 C1638 1.356 . S
N1646 H1652 0.984 . S
N1646 H1653 0.984 . S
N1647 C1640 1.356 . S
N1647 H1650 0.984 . S
N1647 H1651 0.985 . S
H1648 N1643 0.984 . S
H1649 N1643 0.985 . S
H1650 N1647 0.984 . S
H1651 N1647 0.985 . S
H1652 N1646 0.984 . S
H1653 N1646 0.984 . S
H1654 N1642 0.984 . S
H1655 N1642 0.985 . S
C1009 C67 1.610 . S
C1011 C987 1.696 . S
C1027 C823 1.638 . S
C1029 C147 1.741 . S
C1045 C231 1.620 . S
C1047 C735 1.618 . S
C1063 C315 1.653 . S
C1065 C903 1.654 . S
C1081 C399 1.745 . S
C1083 C907 1.644 . S
C1099 C487 1.692 . S
C1101 C991 1.696 . S
C1117 C819 1.667 . S
C1119 C567 1.659 . S
C1135 C651 1.693 . S
C1137 C739 1.604 . S
C1153 C319 1.700 . S
C1155 C403 1.695 . S
C1171 C63 1.637 . S
C1173 C483 1.645 . S
C1189 C151 1.695 . S
C1191 C571 1.700 . S
C1207 C655 1.724 . S
C1209 C235 1.718 . S
C1225 C70 1.746 . S
C1227 C746 1.853 . S
C1243 C142 1.456 . S
C1245 C914 1.697 . S
C1261 C998 1.736 . S
C1263 C226 1.487 . S
C1279 C310 1.575 . S
C1281 C812 1.866 . S
C1297 C394 1.452 . S
C1299 C830 1.687 . S
C1315 C728 1.964 . S
C1317 C490 1.804 . S
C1333 C896 1.858 . S
C1335 C562 1.571 . S
C1351 C980 1.832 . S
C1353 C646 1.546 . S
C1369 C74 1.863 . S
C1371 C322 1.754 . S
C1387 C58 1.556 . S
C1389 C140 1.840 . S
C1405 C154 1.810 . S
C1407 C224 1.971 . S
C1423 C308 1.898 . S
C1425 C238 1.743 . S
C1441 C478 1.561 . S
C1443 C392 1.836 . S
C1459 C494 1.770 . S
C1461 C574 1.670 . S
C1477 C560 1.893 . S
C1479 C658 1.746 . S
C1495 C406 1.725 . S
C1497 C644 1.879 . S
C1513 C742 1.713 . S
C1515 C326 1.816 . S
C1531 C476 1.917 . S
C1533 C826 1.764 . S
C1549 C730 1.496 . S
C1551 C578 1.750 . S
C1567 C898 1.453 . S
C1569 C662 1.684 . S
C1585 C410 1.682 . S
C1587 C982 1.435 . S
C1603 C994 1.642 . S
C1605 C158 1.745 . S
C1621 C242 1.660 . S
C1623 C814 1.426 . S
C1639 C910 1.733 . S
C1641 C56 1.888 . S
