# Generated by pormake.
# Topology qtz, (4)-cn, num edge types: 1
# Building blocks:
#     Node 0, Type 0, BuildingBlock: GALJAG_clean_sbu_0, # of connection points: 4
#     Node 1, Type 0, BuildingBlock: GALJAG_clean_sbu_0, # of connection points: 4
#     Node 2, Type 0, BuildingBlock: GALJAG_clean_sbu_0, # of connection points: 4
#     Edge 3, Type (0, 0), BuildingBlock: MIFKUJ_clean_linker_0, # of connection points: 2
#     Edge 4, Type (0, 0), BuildingBlock: MIFKUJ_clean_linker_0, # of connection points: 2
#     Edge 5, Type (0, 0), BuildingBlock: MIFKUJ_clean_linker_0, # of connection points: 2
#     Edge 6, Type (0, 0), BuildingBlock: MIFKUJ_clean_linker_0, # of connection points: 2
#     Edge 7, Type (0, 0), BuildingBlock: MIFKUJ_clean_linker_0, # of connection points: 2
#     Edge 8, Type (0, 0), BuildingBlock: MIFKUJ_clean_linker_0, # of connection points: 2
# Relax obj value: 0.004
# Max RMSD: 0.037
# Mean RMSD: 0.037
data_MOF--net-qtz--node1-GALJAG_clean_sbu_0--edge1-MIFKUJ_clean_linker_0
_symmetry_space_group_name_H-M    P1
_symmetry_Int_Tables_number       1
_symmetry_cell_setting            triclinic
loop_
_symmetry_equiv_pos_as_xyz
'x, y, z'
_cell_length_a     32.175549
_cell_length_b     32.189267
_cell_length_c     34.27894
_cell_angle_alpha  90.137589
_cell_angle_beta   90.038864
_cell_angle_gamma 120.05216
loop_
_atom_site_label
_atom_site_type_symbol
_atom_site_fract_x
_atom_site_fract_y
_atom_site_fract_z
_atom_type_partial_charge
In0 In 0.00676 0.50718 0.16778 0.0
O1 O 0.98553 0.44074 0.20591 0.0
O2 O 0.9321 0.45876 0.19212 0.0
C3 C 0.06674 0.49284 0.12144 0.0
C4 C 0.94667 0.52071 0.12151 0.0
C5 C 0.06582 0.58161 0.21515 0.0
O6 O 0.03813 0.46117 0.14482 0.0
O7 O 0.06446 0.53075 0.12135 0.0
O8 O 0.06105 0.58631 0.17931 0.0
O9 O 0.04001 0.53953 0.22761 0.0
C10 C 0.94235 0.43063 0.20957 0.0
O11 O 0.95812 0.53834 0.15541 0.0
O12 O 0.96567 0.49645 0.11084 0.0
In13 In 0.50852 0.00577 0.5009 0.0
O14 O 0.58118 0.03462 0.4708 0.0
O15 O 0.53755 0.06413 0.45445 0.0
C16 C 0.5158 0.94156 0.54759 0.0
C17 C 0.50001 0.06707 0.55038 0.0
C18 C 0.43855 0.94896 0.45031 0.0
O19 O 0.55194 0.98047 0.53738 0.0
O20 O 0.47657 0.93546 0.53463 0.0
O21 O 0.43158 0.97019 0.4784 0.0
O22 O 0.4811 0.95709 0.44724 0.0
C23 C 0.57668 0.06447 0.44998 0.0
O24 O 0.46456 0.03355 0.53295 0.0
O25 O 0.53948 0.06936 0.54327 0.0
In26 In 0.50604 0.5048 0.83532 0.0
O27 O 0.54302 0.58256 0.81449 0.0
O28 O 0.48164 0.53112 0.78307 0.0
C29 C 0.57948 0.52147 0.88386 0.0
C30 C 0.43407 0.49474 0.88206 0.0
C31 C 0.49524 0.43123 0.78939 0.0
O32 O 0.58574 0.53555 0.84901 0.0
O33 O 0.53628 0.49971 0.89462 0.0
O34 O 0.46093 0.42911 0.80879 0.0
O35 O 0.53423 0.4701 0.79309 0.0
C36 C 0.51433 0.57441 0.78656 0.0
O37 O 0.4401 0.45986 0.87361 0.0
O38 O 0.46443 0.53433 0.86724 0.0
H39 H 0.40399 0.55938 0.89148 0.0
H40 H 0.33999 0.55298 0.93358 0.0
H41 H 0.31194 0.41397 0.97274 0.0
H42 H 0.37508 0.41948 0.92927 0.0
H43 H 0.23017 0.41226 0.96199 0.0
H44 H 0.37555 0.51729 0.02996 0.0
H45 H 0.45723 0.58655 0.0381 0.0
H46 H 0.40512 0.68292 0.01231 0.0
H47 H 0.32323 0.61422 0.00349 0.0
H48 H 0.08594 0.41876 0.12072 0.0
H49 H 0.14703 0.41311 0.08186 0.0
H50 H 0.1863 0.54876 0.02776 0.0
H51 H 0.12628 0.55494 0.06673 0.0
H52 H 0.26391 0.54677 0.0517 0.0
H53 H 0.11928 0.44027 0.97966 0.0
H54 H 0.03783 0.37048 0.972 0.0
H55 H 0.08911 0.27618 0.00741 0.0
H56 H 0.17078 0.34552 0.01575 0.0
C57 C 0.38421 0.52742 0.90904 0.0
C58 C 0.39477 0.49008 0.90734 0.0
C59 C 0.34774 0.52389 0.93327 0.0
C60 C 0.32178 0.48346 0.95707 0.0
C61 C 0.33163 0.44563 0.95485 0.0
C62 C 0.36776 0.44885 0.9301 0.0
C63 C 0.28449 0.48103 0.98413 0.0
C64 C 0.23776 0.44131 0.98209 0.0
C65 C 0.29413 0.51909 0.01015 0.0
C66 C 0.3433 0.56055 0.01582 0.0
C67 C 0.38156 0.55324 0.02581 0.0
C68 C 0.42789 0.5924 0.03056 0.0
C69 C 0.43637 0.6391 0.02566 0.0
C70 C 0.3985 0.64673 0.01609 0.0
C71 C 0.35211 0.60769 0.01126 0.0
C72 C 0.10745 0.44715 0.10033 0.0
C73 C 0.1014 0.48732 0.09681 0.0
C74 C 0.14222 0.44384 0.07808 0.0
C75 C 0.17115 0.48046 0.05176 0.0
C76 C 0.16458 0.52018 0.04796 0.0
C77 C 0.13012 0.52358 0.0702 0.0
C78 C 0.2094 0.47866 0.02882 0.0
C79 C 0.25643 0.51754 0.03182 0.0
C80 C 0.20002 0.43976 0.00392 0.0
C81 C 0.151 0.39811 0.99873 0.0
C82 C 0.1131 0.40468 0.9861 0.0
C83 C 0.06691 0.36521 0.98158 0.0
C84 C 0.05827 0.31894 0.98932 0.0
C85 C 0.09583 0.31205 0.00148 0.0
C86 C 0.14208 0.35141 0.00608 0.0
H87 H 0.02248 0.28843 0.98581 0.0
H88 H 0.47227 0.66937 0.02933 0.0
H89 H 0.95631 0.36982 0.2567 0.0
H90 H 0.89645 0.30513 0.29772 0.0
H91 H 0.78757 0.33501 0.25596 0.0
H92 H 0.84712 0.39995 0.21577 0.0
H93 H 0.78291 0.32604 0.33256 0.0
H94 H 0.79507 0.2361 0.22448 0.0
H95 H 0.83759 0.2104 0.17931 0.0
H96 H 0.88435 0.15911 0.27582 0.0
H97 H 0.84259 0.18508 0.32162 0.0
H98 H 0.57093 0.12421 0.39678 0.0
H99 H 0.63508 0.18354 0.3556 0.0
H100 H 0.7333 0.14225 0.40314 0.0
H101 H 0.66871 0.08173 0.44365 0.0
H102 H 0.74756 0.1574 0.32698 0.0
H103 H 0.73343 0.24433 0.43486 0.0
H104 H 0.69127 0.2699 0.48052 0.0
H105 H 0.6496 0.3277 0.38528 0.0
H106 H 0.69096 0.30186 0.33897 0.0
C107 C 0.91954 0.36233 0.25617 0.0
C108 C 0.90642 0.38997 0.23307 0.0
C109 C 0.88533 0.32527 0.27949 0.0
C110 C 0.83737 0.31497 0.27976 0.0
C111 C 0.82431 0.34233 0.25636 0.0
C112 C 0.85841 0.37939 0.2333 0.0
C113 C 0.80076 0.27674 0.3051 0.0
C114 C 0.77483 0.28905 0.33099 0.0
C115 C 0.79121 0.22877 0.30402 0.0
C116 C 0.81614 0.21299 0.27649 0.0
C117 C 0.81473 0.21967 0.23609 0.0
C118 C 0.83863 0.205 0.21037 0.0
C119 C 0.86377 0.18326 0.22469 0.0
C120 C 0.86493 0.17602 0.26477 0.0
C121 C 0.84112 0.19067 0.29061 0.0
C122 C 0.60612 0.12758 0.39831 0.0
C123 C 0.6149 0.09856 0.42362 0.0
C124 C 0.64284 0.16167 0.37489 0.0
C125 C 0.68932 0.16807 0.37682 0.0
C126 C 0.69781 0.13813 0.40126 0.0
C127 C 0.66091 0.10364 0.42445 0.0
C128 C 0.7291 0.20658 0.35384 0.0
C129 C 0.75575 0.19441 0.3286 0.0
C130 C 0.73951 0.25482 0.35558 0.0
C131 C 0.71498 0.2708 0.38342 0.0
C132 C 0.71502 0.26222 0.42363 0.0
C133 C 0.6913 0.2768 0.44963 0.0
C134 C 0.66769 0.30032 0.4358 0.0
C135 C 0.66787 0.30944 0.39595 0.0
C136 C 0.69149 0.29488 0.36982 0.0
H137 H 0.64933 0.31156 0.45597 0.0
H138 H 0.88225 0.17193 0.20474 0.0
H139 H 0.44479 0.85023 0.5618 0.0
H140 H 0.44839 0.79025 0.6027 0.0
H141 H 0.59615 0.89141 0.63112 0.0
H142 H 0.59316 0.95132 0.58889 0.0
H143 H 0.58632 0.80649 0.61863 0.0
H144 H 0.50321 0.86437 0.69648 0.0
H145 H 0.44205 0.88668 0.71181 0.0
H146 H 0.33021 0.74096 0.69318 0.0
H147 H 0.39069 0.71788 0.67721 0.0
H148 H 0.58729 0.66747 0.78235 0.0
H149 H 0.59099 0.73167 0.74155 0.0
H150 H 0.45211 0.63259 0.69299 0.0
H151 H 0.44834 0.56816 0.7334 0.0
H152 H 0.46098 0.71982 0.71876 0.0
H153 H 0.5473 0.66418 0.63933 0.0
H154 H 0.61043 0.64392 0.62621 0.0
H155 H 0.71909 0.7891 0.65172 0.0
H156 H 0.65654 0.81006 0.66554 0.0
C157 C 0.47807 0.85977 0.57678 0.0
C158 C 0.51862 0.90557 0.57239 0.0
C159 C 0.48002 0.82549 0.60033 0.0
C160 C 0.52225 0.83655 0.62068 0.0
C161 C 0.5631 0.8821 0.61586 0.0
C162 C 0.56134 0.91632 0.59184 0.0
C163 C 0.52353 0.8003 0.64669 0.0
C164 C 0.55936 0.78814 0.64095 0.0
C165 C 0.48802 0.77581 0.67555 0.0
C166 C 0.4515 0.78949 0.68533 0.0
C167 C 0.46556 0.83714 0.69539 0.0
C168 C 0.43102 0.84992 0.70423 0.0
C169 C 0.38227 0.81528 0.70339 0.0
C170 C 0.36798 0.76776 0.69379 0.0
C171 C 0.40238 0.7548 0.68488 0.0
C172 C 0.55768 0.65933 0.76281 0.0
C173 C 0.51753 0.61282 0.761 0.0
C174 C 0.5599 0.69599 0.73949 0.0
C175 C 0.52188 0.68678 0.7142 0.0
C176 C 0.4818 0.64037 0.71234 0.0
C177 C 0.47979 0.60361 0.73532 0.0
C178 C 0.52329 0.72574 0.69027 0.0
C179 C 0.48802 0.73844 0.69653 0.0
C180 C 0.55962 0.75108 0.66231 0.0
C181 C 0.59724 0.73855 0.65388 0.0
C182 C 0.58465 0.69168 0.64248 0.0
C183 C 0.62032 0.68009 0.63485 0.0
C184 C 0.66874 0.71516 0.63824 0.0
C185 C 0.68157 0.76194 0.64917 0.0
C186 C 0.64603 0.77371 0.65687 0.0
H187 H 0.69631 0.70612 0.63231 0.0
H188 H 0.35558 0.82525 0.71024 0.0
H189 H 0.66954 0.54375 0.86171 0.0
H190 H 0.73358 0.54758 0.90299 0.0
H191 H 0.64365 0.51704 0.00433 0.0
H192 H 0.57886 0.51197 0.96305 0.0
H193 H 0.74749 0.59741 0.01023 0.0
H194 H 0.64666 0.42967 0.97463 0.0
H195 H 0.60396 0.36361 0.92744 0.0
H196 H 0.73707 0.40274 0.86991 0.0
H197 H 0.78046 0.46955 0.91644 0.0
H198 H 0.8777 0.54037 0.14552 0.0
H199 H 0.81679 0.54413 0.10555 0.0
H200 H 0.87744 0.51851 0.00216 0.0
H201 H 0.93653 0.51178 0.04252 0.0
H202 H 0.78795 0.46823 0.99639 0.0
H203 H 0.89086 0.63348 0.02901 0.0
H204 H 0.9371 0.70356 0.07188 0.0
H205 H 0.80726 0.67595 0.12946 0.0
H206 H 0.76029 0.60531 0.08726 0.0
C207 C 0.66356 0.53826 0.89283 0.0
C208 C 0.61923 0.52743 0.90921 0.0
C209 C 0.70009 0.5404 0.9163 0.0
C210 C 0.69315 0.53248 0.95658 0.0
C211 C 0.64958 0.52332 0.97327 0.0
C212 C 0.61265 0.52029 0.94968 0.0
C213 C 0.73068 0.53167 0.98094 0.0
C214 C 0.75614 0.56898 0.00769 0.0
C215 C 0.74272 0.49533 0.97649 0.0
C216 C 0.71671 0.45492 0.94874 0.0
C217 C 0.66675 0.42447 0.9517 0.0
C218 C 0.64244 0.38683 0.92512 0.0
C219 C 0.66776 0.37907 0.89562 0.0
C220 C 0.71748 0.40884 0.89273 0.0
C221 C 0.74196 0.44658 0.91921 0.0
C222 C 0.87815 0.53586 0.11422 0.0
C223 C 0.91184 0.52594 0.09704 0.0
C224 C 0.8435 0.53833 0.09131 0.0
C225 C 0.84286 0.53251 0.0506 0.0
C226 C 0.87702 0.52312 0.03345 0.0
C227 C 0.9109 0.51945 0.05648 0.0
C228 C 0.80554 0.53429 0.02607 0.0
C229 C 0.77982 0.497 0.99915 0.0
C230 C 0.79401 0.57129 0.02985 0.0
C231 C 0.82212 0.61384 0.0552 0.0
C232 C 0.87221 0.64216 0.05099 0.0
C233 C 0.89854 0.68201 0.07515 0.0
C234 C 0.87515 0.69413 0.10344 0.0
C235 C 0.82534 0.66649 0.10757 0.0
C236 C 0.79884 0.62657 0.08351 0.0
H237 H 0.8956 0.72499 0.12212 0.0
H238 H 0.64888 0.34991 0.87507 0.0
H239 H 0.34224 0.90701 0.46293 0.0
H240 H 0.27724 0.84629 0.42238 0.0
H241 H 0.38097 0.85418 0.33884 0.0
H242 H 0.44639 0.91391 0.37978 0.0
H243 H 0.27358 0.85773 0.32218 0.0
H244 H 0.3593 0.76966 0.36188 0.0
H245 H 0.39616 0.7457 0.41383 0.0
H246 H 0.26632 0.68859 0.48081 0.0
H247 H 0.22905 0.71296 0.42941 0.0
H248 H 0.14073 0.66662 0.19096 0.0
H249 H 0.20193 0.73081 0.23111 0.0
H250 H 0.13075 0.6519 0.33515 0.0
H251 H 0.07066 0.58633 0.29478 0.0
H252 H 0.22025 0.68589 0.34445 0.0
H253 H 0.12775 0.75589 0.30272 0.0
H254 H 0.08627 0.7814 0.25638 0.0
H255 H 0.22018 0.87471 0.1997 0.0
H256 H 0.26239 0.84928 0.2454 0.0
C257 C 0.35119 0.89603 0.4358 0.0
C258 C 0.39934 0.91502 0.42452 0.0
C259 C 0.31408 0.86139 0.41276 0.0
C260 C 0.32454 0.84576 0.37789 0.0
C261 C 0.37241 0.86572 0.36586 0.0
C262 C 0.40962 0.89974 0.38923 0.0
C263 C 0.28541 0.8075 0.35461 0.0
C264 C 0.26214 0.82012 0.32649 0.0
C265 C 0.26953 0.75865 0.36158 0.0
C266 C 0.29171 0.74364 0.39215 0.0
C267 C 0.33885 0.75244 0.38788 0.0
C268 C 0.35976 0.73869 0.41716 0.0
C269 C 0.33366 0.71579 0.45067 0.0
C270 C 0.28654 0.70644 0.45489 0.0
C271 C 0.26552 0.7202 0.42571 0.0
C272 C 0.13792 0.66313 0.22241 0.0
C273 C 0.10085 0.6216 0.23979 0.0
C274 C 0.17282 0.70002 0.2454 0.0
C275 C 0.17066 0.69678 0.2863 0.0
C276 C 0.13327 0.65537 0.30369 0.0
C277 C 0.09884 0.618 0.28064 0.0
C278 C 0.20843 0.7357 0.31075 0.0
C279 C 0.23139 0.72333 0.33959 0.0
C280 C 0.2234 0.78484 0.30477 0.0
C281 C 0.19816 0.80035 0.27729 0.0
C282 C 0.1483 0.78159 0.28021 0.0
C283 C 0.12467 0.79608 0.25408 0.0
C284 C 0.15055 0.82957 0.22506 0.0
C285 C 0.20016 0.84874 0.22217 0.0
C286 C 0.22397 0.83434 0.24821 0.0
H287 H 0.13219 0.84074 0.20486 0.0
H288 H 0.3499 0.70517 0.47331 0.0
H289 H 0.56459 0.43103 0.74433 0.0
H290 H 0.5586 0.3662 0.70339 0.0
H291 H 0.41033 0.27703 0.73672 0.0
H292 H 0.41626 0.34204 0.77832 0.0
H293 H 0.45841 0.22756 0.73866 0.0
H294 H 0.43672 0.32618 0.64755 0.0
H295 H 0.45422 0.4011 0.61442 0.0
H296 H 0.58985 0.42083 0.5758 0.0
H297 H 0.5735 0.34637 0.60922 0.0
H298 H 0.41888 0.05912 0.58306 0.0
H299 H 0.41274 0.11827 0.62434 0.0
H300 H 0.5657 0.21315 0.61549 0.0
H301 H 0.57226 0.15391 0.575 0.0
H302 H 0.50679 0.25619 0.59946 0.0
H303 H 0.52897 0.15932 0.69535 0.0
H304 H 0.50957 0.08357 0.72799 0.0
H305 H 0.36914 0.05933 0.75619 0.0
H306 H 0.38749 0.13468 0.72315 0.0
C307 C 0.53062 0.3977 0.74293 0.0
C308 C 0.49081 0.39168 0.76442 0.0
C309 C 0.52721 0.36071 0.71937 0.0
C310 C 0.48384 0.31698 0.71658 0.0
C311 C 0.44408 0.31057 0.73835 0.0
C312 C 0.44747 0.34773 0.76197 0.0
C313 C 0.48072 0.27804 0.69124 0.0
C314 C 0.4681 0.23352 0.70804 0.0
C315 C 0.49398 0.28601 0.65139 0.0
C316 C 0.50404 0.33086 0.63119 0.0
C317 C 0.47046 0.34669 0.63227 0.0
C318 C 0.48014 0.38905 0.61339 0.0
C319 C 0.52317 0.41577 0.5931 0.0
C320 C 0.55656 0.40012 0.59157 0.0
C321 C 0.54708 0.35781 0.61045 0.0
C322 C 0.45118 0.09252 0.5901 0.0
C323 C 0.49606 0.10194 0.57593 0.0
C324 C 0.44762 0.12616 0.61366 0.0
C325 C 0.48878 0.16997 0.6229 0.0
C326 C 0.53355 0.17953 0.60861 0.0
C327 C 0.53725 0.14561 0.58566 0.0
C328 C 0.4853 0.20626 0.6471 0.0
C329 C 0.49663 0.2502 0.62999 0.0
C330 C 0.47047 0.19759 0.6865 0.0
C331 C 0.45937 0.1523 0.70633 0.0
C332 C 0.49377 0.13758 0.70813 0.0
C333 C 0.48301 0.09478 0.72679 0.0
C334 C 0.43809 0.06656 0.74403 0.0
C335 C 0.40388 0.08117 0.74274 0.0
C336 C 0.41445 0.12393 0.72407 0.0
H337 H 0.42984 0.03345 0.75849 0.0
H338 H 0.53059 0.44854 0.57848 0.0
loop_
_geom_bond_atom_site_label_1
_geom_bond_atom_site_label_2
_geom_bond_distance
_geom_bond_site_symmetry_2
_ccdc_geom_bond_type
In0 O1 2.294 1_455 S
In0 O2 2.326 1_455 S
In0 O6 2.266 . S
In0 O7 2.326 . S
In0 O8 2.266 . S
In0 O9 2.326 . S
In0 O11 2.294 1_455 S
In0 O12 2.326 1_455 S
O1 In0 2.294 1_655 S
O1 C10 1.240 . S
O2 In0 2.326 1_655 S
O2 C10 1.252 . S
C3 O6 1.252 . S
C3 O7 1.260 . S
C4 O11 1.240 . S
C4 O12 1.252 . S
C5 O8 1.252 . S
C5 O9 1.260 . S
O6 In0 2.266 . S
O6 C3 1.252 . S
O7 In0 2.326 . S
O7 C3 1.260 . S
O8 In0 2.266 . S
O8 C5 1.252 . S
O9 In0 2.326 . S
O9 C5 1.260 . S
C10 O1 1.240 . S
C10 O2 1.252 . S
O11 In0 2.294 1_655 S
O11 C4 1.240 . S
O12 In0 2.326 1_655 S
O12 C4 1.252 . S
In13 O14 2.294 . S
In13 O15 2.326 . S
In13 O19 2.266 1_545 S
In13 O20 2.326 1_545 S
In13 O21 2.266 1_545 S
In13 O22 2.326 1_545 S
In13 O24 2.294 . S
In13 O25 2.326 . S
O14 In13 2.294 . S
O14 C23 1.240 . S
O15 In13 2.326 . S
O15 C23 1.252 . S
C16 O19 1.252 . S
C16 O20 1.260 . S
C17 O24 1.240 . S
C17 O25 1.252 . S
C18 O21 1.252 . S
C18 O22 1.260 . S
O19 In13 2.266 1_565 S
O19 C16 1.252 . S
O20 In13 2.326 1_565 S
O20 C16 1.260 . S
O21 In13 2.266 1_565 S
O21 C18 1.252 . S
O22 In13 2.326 1_565 S
O22 C18 1.260 . S
C23 O14 1.240 . S
C23 O15 1.252 . S
O24 In13 2.294 . S
O24 C17 1.240 . S
O25 In13 2.326 . S
O25 C17 1.252 . S
In26 O27 2.294 . S
In26 O28 2.326 . S
In26 O32 2.266 . S
In26 O33 2.326 . S
In26 O34 2.266 . S
In26 O35 2.326 . S
In26 O37 2.294 . S
In26 O38 2.326 . S
O27 In26 2.294 . S
O27 C36 1.240 . S
O28 In26 2.326 . S
O28 C36 1.252 . S
C29 O32 1.252 . S
C29 O33 1.260 . S
C30 O37 1.240 . S
C30 O38 1.252 . S
C31 O34 1.252 . S
C31 O35 1.260 . S
O32 In26 2.266 . S
O32 C29 1.252 . S
O33 In26 2.326 . S
O33 C29 1.260 . S
O34 In26 2.266 . S
O34 C31 1.252 . S
O35 In26 2.326 . S
O35 C31 1.260 . S
C36 O27 1.240 . S
C36 O28 1.252 . S
O37 In26 2.294 . S
O37 C30 1.240 . S
O38 In26 2.326 . S
O38 C30 1.252 . S
H39 C57 0.951 . S
H40 C59 0.951 . S
H41 C61 0.950 . S
H42 C62 0.950 . S
H43 C64 0.950 . S
H44 C67 0.950 . S
H45 C68 0.950 . S
H46 C70 0.950 . S
H47 C71 0.950 . S
H48 C72 0.951 . S
H49 C74 0.951 . S
H50 C76 0.950 . S
H51 C77 0.950 . S
H52 C79 0.950 . S
H53 C82 0.950 . S
H54 C83 0.950 . S
H55 C85 0.950 . S
H56 C86 0.950 . S
C57 H39 0.951 . S
C57 C58 1.366 . S
C57 C59 1.388 . S
C58 C57 1.366 . S
C58 C62 1.385 . S
C59 H40 0.951 . S
C59 C57 1.388 . S
C59 C60 1.366 . S
C60 C59 1.366 . S
C60 C61 1.414 . S
C60 C63 1.499 . S
C61 H41 0.950 . S
C61 C60 1.414 . S
C61 C62 1.374 . S
C62 H42 0.950 . S
C62 C58 1.385 . S
C62 C61 1.374 . S
C63 C60 1.499 . S
C63 C64 1.373 . S
C63 C65 1.389 . S
C64 H43 0.950 . S
C64 C63 1.373 . S
C64 C80 1.377 1_556 S
C65 C63 1.389 . S
C65 C66 1.524 . S
C65 C79 1.377 1_556 S
C66 C65 1.524 . S
C66 C67 1.397 1_556 S
C66 C71 1.363 . S
C67 H44 0.950 . S
C67 C66 1.397 1_554 S
C67 C68 1.334 . S
C68 H45 0.950 . S
C68 C67 1.334 . S
C68 C69 1.287 1_554 S
C69 C68 1.287 1_556 S
C69 C70 1.524 . S
C69 H88 0.913 . S
C70 H46 0.950 . S
C70 C69 1.524 . S
C70 C71 1.415 . S
C71 H47 0.950 . S
C71 C66 1.363 . S
C71 C70 1.415 . S
C72 H48 0.951 . S
C72 C73 1.366 . S
C72 C74 1.388 . S
C73 C72 1.366 . S
C73 C77 1.385 . S
C74 H49 0.951 . S
C74 C72 1.388 . S
C74 C75 1.366 . S
C75 C74 1.366 . S
C75 C76 1.414 . S
C75 C78 1.499 . S
C76 H50 0.950 . S
C76 C75 1.414 . S
C76 C77 1.374 . S
C77 H51 0.950 . S
C77 C73 1.385 . S
C77 C76 1.374 . S
C78 C75 1.499 . S
C78 C79 1.373 . S
C78 C80 1.389 . S
C79 H52 0.950 . S
C79 C65 1.377 1_554 S
C79 C78 1.373 . S
C80 C64 1.377 1_554 S
C80 C78 1.389 . S
C80 C81 1.524 . S
C81 C80 1.524 . S
C81 C82 1.397 1_554 S
C81 C86 1.363 . S
C82 H53 0.950 . S
C82 C81 1.397 1_556 S
C82 C83 1.334 . S
C83 H54 0.950 . S
C83 C82 1.334 . S
C83 C84 1.287 1_556 S
C84 C83 1.287 1_554 S
C84 C85 1.524 . S
C84 H87 0.999 . S
C85 H55 0.950 . S
C85 C84 1.524 . S
C85 C86 1.415 . S
C86 H56 0.950 . S
C86 C81 1.363 . S
C86 C85 1.415 . S
H87 C84 0.999 . S
H88 C69 0.913 . S
H89 C107 0.951 . S
H90 C109 0.951 . S
H91 C111 0.950 . S
H92 C112 0.950 . S
H93 C114 0.950 . S
H94 C117 0.950 . S
H95 C118 0.950 . S
H96 C120 0.950 . S
H97 C121 0.950 . S
H98 C122 0.951 . S
H99 C124 0.951 . S
H100 C126 0.950 . S
H101 C127 0.950 . S
H102 C129 0.950 . S
H103 C132 0.950 . S
H104 C133 0.950 . S
H105 C135 0.950 . S
H106 C136 0.950 . S
C107 H89 0.951 . S
C107 C108 1.366 . S
C107 C109 1.388 . S
C108 C107 1.366 . S
C108 C112 1.385 . S
C109 H90 0.951 . S
C109 C107 1.388 . S
C109 C110 1.366 . S
C110 C109 1.366 . S
C110 C111 1.414 . S
C110 C113 1.499 . S
C111 H91 0.950 . S
C111 C110 1.414 . S
C111 C112 1.374 . S
C112 H92 0.950 . S
C112 C108 1.385 . S
C112 C111 1.374 . S
C113 C110 1.499 . S
C113 C114 1.373 . S
C113 C115 1.389 . S
C114 H93 0.950 . S
C114 C113 1.373 . S
C114 C130 1.377 . S
C115 C113 1.389 . S
C115 C116 1.524 . S
C115 C129 1.377 . S
C116 C115 1.524 . S
C116 C117 1.397 . S
C116 C121 1.363 . S
C117 H94 0.950 . S
C117 C116 1.397 . S
C117 C118 1.334 . S
C118 H95 0.950 . S
C118 C117 1.334 . S
C118 C119 1.287 . S
C119 C118 1.287 . S
C119 C120 1.524 . S
C119 H138 0.913 . S
C120 H96 0.950 . S
C120 C119 1.524 . S
C120 C121 1.415 . S
C121 H97 0.950 . S
C121 C116 1.363 . S
C121 C120 1.415 . S
C122 H98 0.951 . S
C122 C123 1.366 . S
C122 C124 1.388 . S
C123 C122 1.366 . S
C123 C127 1.385 . S
C124 H99 0.951 . S
C124 C122 1.388 . S
C124 C125 1.366 . S
C125 C124 1.366 . S
C125 C126 1.414 . S
C125 C128 1.499 . S
C126 H100 0.950 . S
C126 C125 1.414 . S
C126 C127 1.374 . S
C127 H101 0.950 . S
C127 C123 1.385 . S
C127 C126 1.374 . S
C128 C125 1.499 . S
C128 C129 1.373 . S
C128 C130 1.389 . S
C129 H102 0.950 . S
C129 C115 1.377 . S
C129 C128 1.373 . S
C130 C114 1.377 . S
C130 C128 1.389 . S
C130 C131 1.524 . S
C131 C130 1.524 . S
C131 C132 1.397 . S
C131 C136 1.363 . S
C132 H103 0.950 . S
C132 C131 1.397 . S
C132 C133 1.334 . S
C133 H104 0.950 . S
C133 C132 1.334 . S
C133 C134 1.287 . S
C134 C133 1.287 . S
C134 C135 1.524 . S
C134 H137 0.999 . S
C135 H105 0.950 . S
C135 C134 1.524 . S
C135 C136 1.415 . S
C136 H106 0.950 . S
C136 C131 1.363 . S
C136 C135 1.415 . S
H137 C134 0.999 . S
H138 C119 0.913 . S
H139 C157 0.951 . S
H140 C159 0.951 . S
H141 C161 0.950 . S
H142 C162 0.950 . S
H143 C164 0.950 . S
H144 C167 0.950 . S
H145 C168 0.950 . S
H146 C170 0.950 . S
H147 C171 0.950 . S
H148 C172 0.951 . S
H149 C174 0.951 . S
H150 C176 0.950 . S
H151 C177 0.950 . S
H152 C179 0.950 . S
H153 C182 0.950 . S
H154 C183 0.950 . S
H155 C185 0.950 . S
H156 C186 0.950 . S
C157 H139 0.951 . S
C157 C158 1.366 . S
C157 C159 1.388 . S
C158 C157 1.366 . S
C158 C162 1.385 . S
C159 H140 0.951 . S
C159 C157 1.388 . S
C159 C160 1.366 . S
C160 C159 1.366 . S
C160 C161 1.414 . S
C160 C163 1.499 . S
C161 H141 0.950 . S
C161 C160 1.414 . S
C161 C162 1.374 . S
C162 H142 0.950 . S
C162 C158 1.385 . S
C162 C161 1.374 . S
C163 C160 1.499 . S
C163 C164 1.373 . S
C163 C165 1.389 . S
C164 H143 0.950 . S
C164 C163 1.373 . S
C164 C180 1.377 . S
C165 C163 1.389 . S
C165 C166 1.524 . S
C165 C179 1.377 . S
C166 C165 1.524 . S
C166 C167 1.397 . S
C166 C171 1.363 . S
C167 H144 0.950 . S
C167 C166 1.397 . S
C167 C168 1.334 . S
C168 H145 0.950 . S
C168 C167 1.334 . S
C168 C169 1.287 . S
C169 C168 1.287 . S
C169 C170 1.524 . S
C169 H188 0.913 . S
C170 H146 0.950 . S
C170 C169 1.524 . S
C170 C171 1.415 . S
C171 H147 0.950 . S
C171 C166 1.363 . S
C171 C170 1.415 . S
C172 H148 0.951 . S
C172 C173 1.366 . S
C172 C174 1.388 . S
C173 C172 1.366 . S
C173 C177 1.385 . S
C174 H149 0.951 . S
C174 C172 1.388 . S
C174 C175 1.366 . S
C175 C174 1.366 . S
C175 C176 1.414 . S
C175 C178 1.499 . S
C176 H150 0.950 . S
C176 C175 1.414 . S
C176 C177 1.374 . S
C177 H151 0.950 . S
C177 C173 1.385 . S
C177 C176 1.374 . S
C178 C175 1.499 . S
C178 C179 1.373 . S
C178 C180 1.389 . S
C179 H152 0.950 . S
C179 C165 1.377 . S
C179 C178 1.373 . S
C180 C164 1.377 . S
C180 C178 1.389 . S
C180 C181 1.524 . S
C181 C180 1.524 . S
C181 C182 1.397 . S
C181 C186 1.363 . S
C182 H153 0.950 . S
C182 C181 1.397 . S
C182 C183 1.334 . S
C183 H154 0.950 . S
C183 C182 1.334 . S
C183 C184 1.287 . S
C184 C183 1.287 . S
C184 C185 1.524 . S
C184 H187 0.999 . S
C185 H155 0.950 . S
C185 C184 1.524 . S
C185 C186 1.415 . S
C186 H156 0.950 . S
C186 C181 1.363 . S
C186 C185 1.415 . S
H187 C184 0.999 . S
H188 C169 0.913 . S
H189 C207 0.951 . S
H190 C209 0.951 . S
H191 C211 0.950 . S
H192 C212 0.950 . S
H193 C214 0.950 . S
H194 C217 0.950 . S
H195 C218 0.950 . S
H196 C220 0.950 . S
H197 C221 0.950 . S
H198 C222 0.951 . S
H199 C224 0.951 . S
H200 C226 0.950 . S
H201 C227 0.950 . S
H202 C229 0.950 . S
H203 C232 0.950 . S
H204 C233 0.950 . S
H205 C235 0.950 . S
H206 C236 0.950 . S
C207 H189 0.951 . S
C207 C208 1.366 . S
C207 C209 1.388 . S
C208 C207 1.366 . S
C208 C212 1.385 . S
C209 H190 0.951 . S
C209 C207 1.388 . S
C209 C210 1.366 . S
C210 C209 1.366 . S
C210 C211 1.414 . S
C210 C213 1.499 . S
C211 H191 0.950 . S
C211 C210 1.414 . S
C211 C212 1.374 . S
C212 H192 0.950 . S
C212 C208 1.385 . S
C212 C211 1.374 . S
C213 C210 1.499 . S
C213 C214 1.373 1_556 S
C213 C215 1.389 . S
C214 H193 0.950 . S
C214 C213 1.373 1_554 S
C214 C230 1.377 . S
C215 C213 1.389 . S
C215 C216 1.524 . S
C215 C229 1.377 . S
C216 C215 1.524 . S
C216 C217 1.397 . S
C216 C221 1.363 . S
C217 H194 0.950 . S
C217 C216 1.397 . S
C217 C218 1.334 . S
C218 H195 0.950 . S
C218 C217 1.334 . S
C218 C219 1.287 . S
C219 C218 1.287 . S
C219 C220 1.524 . S
C219 H238 0.913 . S
C220 H196 0.950 . S
C220 C219 1.524 . S
C220 C221 1.415 . S
C221 H197 0.950 . S
C221 C216 1.363 . S
C221 C220 1.415 . S
C222 H198 0.951 . S
C222 C223 1.366 . S
C222 C224 1.388 . S
C223 C222 1.366 . S
C223 C227 1.385 . S
C224 H199 0.951 . S
C224 C222 1.388 . S
C224 C225 1.366 . S
C225 C224 1.366 . S
C225 C226 1.414 . S
C225 C228 1.499 . S
C226 H200 0.950 . S
C226 C225 1.414 . S
C226 C227 1.374 . S
C227 H201 0.950 . S
C227 C223 1.385 . S
C227 C226 1.374 . S
C228 C225 1.499 . S
C228 C229 1.373 1_554 S
C228 C230 1.389 . S
C229 H202 0.950 . S
C229 C215 1.377 . S
C229 C228 1.373 1_556 S
C230 C214 1.377 . S
C230 C228 1.389 . S
C230 C231 1.524 . S
C231 C230 1.524 . S
C231 C232 1.397 . S
C231 C236 1.363 . S
C232 H203 0.950 . S
C232 C231 1.397 . S
C232 C233 1.334 . S
C233 H204 0.950 . S
C233 C232 1.334 . S
C233 C234 1.287 . S
C234 C233 1.287 . S
C234 C235 1.524 . S
C234 H237 0.999 . S
C235 H205 0.950 . S
C235 C234 1.524 . S
C235 C236 1.415 . S
C236 H206 0.950 . S
C236 C231 1.363 . S
C236 C235 1.415 . S
H237 C234 0.999 . S
H238 C219 0.913 . S
H239 C257 0.951 . S
H240 C259 0.951 . S
H241 C261 0.950 . S
H242 C262 0.950 . S
H243 C264 0.950 . S
H244 C267 0.950 . S
H245 C268 0.950 . S
H246 C270 0.950 . S
H247 C271 0.950 . S
H248 C272 0.951 . S
H249 C274 0.951 . S
H250 C276 0.950 . S
H251 C277 0.950 . S
H252 C279 0.950 . S
H253 C282 0.950 . S
H254 C283 0.950 . S
H255 C285 0.950 . S
H256 C286 0.950 . S
C257 H239 0.951 . S
C257 C258 1.366 . S
C257 C259 1.388 . S
C258 C257 1.366 . S
C258 C262 1.385 . S
C259 H240 0.951 . S
C259 C257 1.388 . S
C259 C260 1.366 . S
C260 C259 1.366 . S
C260 C261 1.414 . S
C260 C263 1.499 . S
C261 H241 0.950 . S
C261 C260 1.414 . S
C261 C262 1.374 . S
C262 H242 0.950 . S
C262 C258 1.385 . S
C262 C261 1.374 . S
C263 C260 1.499 . S
C263 C264 1.373 . S
C263 C265 1.389 . S
C264 H243 0.950 . S
C264 C263 1.373 . S
C264 C280 1.377 . S
C265 C263 1.389 . S
C265 C266 1.524 . S
C265 C279 1.377 . S
C266 C265 1.524 . S
C266 C267 1.397 . S
C266 C271 1.363 . S
C267 H244 0.950 . S
C267 C266 1.397 . S
C267 C268 1.334 . S
C268 H245 0.950 . S
C268 C267 1.334 . S
C268 C269 1.287 . S
C269 C268 1.287 . S
C269 C270 1.524 . S
C269 H288 0.913 . S
C270 H246 0.950 . S
C270 C269 1.524 . S
C270 C271 1.415 . S
C271 H247 0.950 . S
C271 C266 1.363 . S
C271 C270 1.415 . S
C272 H248 0.951 . S
C272 C273 1.366 . S
C272 C274 1.388 . S
C273 C272 1.366 . S
C273 C277 1.385 . S
C274 H249 0.951 . S
C274 C272 1.388 . S
C274 C275 1.366 . S
C275 C274 1.366 . S
C275 C276 1.414 . S
C275 C278 1.499 . S
C276 H250 0.950 . S
C276 C275 1.414 . S
C276 C277 1.374 . S
C277 H251 0.950 . S
C277 C273 1.385 . S
C277 C276 1.374 . S
C278 C275 1.499 . S
C278 C279 1.373 . S
C278 C280 1.389 . S
C279 H252 0.950 . S
C279 C265 1.377 . S
C279 C278 1.373 . S
C280 C264 1.377 . S
C280 C278 1.389 . S
C280 C281 1.524 . S
C281 C280 1.524 . S
C281 C282 1.397 . S
C281 C286 1.363 . S
C282 H253 0.950 . S
C282 C281 1.397 . S
C282 C283 1.334 . S
C283 H254 0.950 . S
C283 C282 1.334 . S
C283 C284 1.287 . S
C284 C283 1.287 . S
C284 C285 1.524 . S
C284 H287 0.999 . S
C285 H255 0.950 . S
C285 C284 1.524 . S
C285 C286 1.415 . S
C286 H256 0.950 . S
C286 C281 1.363 . S
C286 C285 1.415 . S
H287 C284 0.999 . S
H288 C269 0.913 . S
H289 C307 0.951 . S
H290 C309 0.951 . S
H291 C311 0.950 . S
H292 C312 0.950 . S
H293 C314 0.950 . S
H294 C317 0.950 . S
H295 C318 0.950 . S
H296 C320 0.950 . S
H297 C321 0.950 . S
H298 C322 0.951 . S
H299 C324 0.951 . S
H300 C326 0.950 . S
H301 C327 0.950 . S
H302 C329 0.950 . S
H303 C332 0.950 . S
H304 C333 0.950 . S
H305 C335 0.950 . S
H306 C336 0.950 . S
C307 H289 0.951 . S
C307 C308 1.366 . S
C307 C309 1.388 . S
C308 C307 1.366 . S
C308 C312 1.385 . S
C309 H290 0.951 . S
C309 C307 1.388 . S
C309 C310 1.366 . S
C310 C309 1.366 . S
C310 C311 1.414 . S
C310 C313 1.499 . S
C311 H291 0.950 . S
C311 C310 1.414 . S
C311 C312 1.374 . S
C312 H292 0.950 . S
C312 C308 1.385 . S
C312 C311 1.374 . S
C313 C310 1.499 . S
C313 C314 1.373 . S
C313 C315 1.389 . S
C314 H293 0.950 . S
C314 C313 1.373 . S
C314 C330 1.377 . S
C315 C313 1.389 . S
C315 C316 1.524 . S
C315 C329 1.377 . S
C316 C315 1.524 . S
C316 C317 1.397 . S
C316 C321 1.363 . S
C317 H294 0.950 . S
C317 C316 1.397 . S
C317 C318 1.334 . S
C318 H295 0.950 . S
C318 C317 1.334 . S
C318 C319 1.287 . S
C319 C318 1.287 . S
C319 C320 1.524 . S
C319 H338 0.913 . S
C320 H296 0.950 . S
C320 C319 1.524 . S
C320 C321 1.415 . S
C321 H297 0.950 . S
C321 C316 1.363 . S
C321 C320 1.415 . S
C322 H298 0.951 . S
C322 C323 1.366 . S
C322 C324 1.388 . S
C323 C322 1.366 . S
C323 C327 1.385 . S
C324 H299 0.951 . S
C324 C322 1.388 . S
C324 C325 1.366 . S
C325 C324 1.366 . S
C325 C326 1.414 . S
C325 C328 1.499 . S
C326 H300 0.950 . S
C326 C325 1.414 . S
C326 C327 1.374 . S
C327 H301 0.950 . S
C327 C323 1.385 . S
C327 C326 1.374 . S
C328 C325 1.499 . S
C328 C329 1.373 . S
C328 C330 1.389 . S
C329 H302 0.950 . S
C329 C315 1.377 . S
C329 C328 1.373 . S
C330 C314 1.377 . S
C330 C328 1.389 . S
C330 C331 1.524 . S
C331 C330 1.524 . S
C331 C332 1.397 . S
C331 C336 1.363 . S
C332 H303 0.950 . S
C332 C331 1.397 . S
C332 C333 1.334 . S
C333 H304 0.950 . S
C333 C332 1.334 . S
C333 C334 1.287 . S
C334 C333 1.287 . S
C334 C335 1.524 . S
C334 H337 0.999 . S
C335 H305 0.950 . S
C335 C334 1.524 . S
C335 C336 1.415 . S
C336 H306 0.950 . S
C336 C331 1.363 . S
C336 C335 1.415 . S
H337 C334 0.999 . S
H338 C319 0.913 . S
C58 C30 1.561 . S
C73 C3 1.562 . S
C108 C10 1.553 . S
C123 C23 1.553 . S
C158 C16 1.562 . S
C173 C36 1.561 . S
C208 C29 1.561 . S
C223 C4 1.561 . S
C258 C18 1.569 . S
C273 C5 1.569 . S
C308 C31 1.561 . S
C323 C17 1.561 . S
