# Generated by pormake.
# Topology bcs, (6)-cn, num edge types: 1
# Building blocks:
#     Node 0, Type 0, BuildingBlock: JUFBIX_clean_sbu_0, # of connection points: 6
#     Node 1, Type 0, BuildingBlock: JUFBIX_clean_sbu_0, # of connection points: 6
#     Node 2, Type 0, BuildingBlock: JUFBIX_clean_sbu_0, # of connection points: 6
#     Node 3, Type 0, BuildingBlock: JUFBIX_clean_sbu_0, # of connection points: 6
#     Node 4, Type 0, BuildingBlock: JUFBIX_clean_sbu_0, # of connection points: 6
#     Node 5, Type 0, BuildingBlock: JUFBIX_clean_sbu_0, # of connection points: 6
#     Node 6, Type 0, BuildingBlock: JUFBIX_clean_sbu_0, # of connection points: 6
#     Node 7, Type 0, BuildingBlock: JUFBIX_clean_sbu_0, # of connection points: 6
#     Node 8, Type 0, BuildingBlock: JUFBIX_clean_sbu_0, # of connection points: 6
#     Node 9, Type 0, BuildingBlock: JUFBIX_clean_sbu_0, # of connection points: 6
#     Node 10, Type 0, BuildingBlock: JUFBIX_clean_sbu_0, # of connection points: 6
#     Node 11, Type 0, BuildingBlock: JUFBIX_clean_sbu_0, # of connection points: 6
#     Node 12, Type 0, BuildingBlock: JUFBIX_clean_sbu_0, # of connection points: 6
#     Node 13, Type 0, BuildingBlock: JUFBIX_clean_sbu_0, # of connection points: 6
#     Node 14, Type 0, BuildingBlock: JUFBIX_clean_sbu_0, # of connection points: 6
#     Node 15, Type 0, BuildingBlock: JUFBIX_clean_sbu_0, # of connection points: 6
#     Edge 16, Type (0, 0), None
#     Edge 17, Type (0, 0), None
#     Edge 18, Type (0, 0), None
#     Edge 19, Type (0, 0), None
#     Edge 20, Type (0, 0), None
#     Edge 21, Type (0, 0), None
#     Edge 22, Type (0, 0), None
#     Edge 23, Type (0, 0), None
#     Edge 24, Type (0, 0), None
#     Edge 25, Type (0, 0), None
#     Edge 26, Type (0, 0), None
#     Edge 27, Type (0, 0), None
#     Edge 28, Type (0, 0), None
#     Edge 29, Type (0, 0), None
#     Edge 30, Type (0, 0), None
#     Edge 31, Type (0, 0), None
#     Edge 32, Type (0, 0), None
#     Edge 33, Type (0, 0), None
#     Edge 34, Type (0, 0), None
#     Edge 35, Type (0, 0), None
#     Edge 36, Type (0, 0), None
#     Edge 37, Type (0, 0), None
#     Edge 38, Type (0, 0), None
#     Edge 39, Type (0, 0), None
#     Edge 40, Type (0, 0), None
#     Edge 41, Type (0, 0), None
#     Edge 42, Type (0, 0), None
#     Edge 43, Type (0, 0), None
#     Edge 44, Type (0, 0), None
#     Edge 45, Type (0, 0), None
#     Edge 46, Type (0, 0), None
#     Edge 47, Type (0, 0), None
#     Edge 48, Type (0, 0), None
#     Edge 49, Type (0, 0), None
#     Edge 50, Type (0, 0), None
#     Edge 51, Type (0, 0), None
#     Edge 52, Type (0, 0), None
#     Edge 53, Type (0, 0), None
#     Edge 54, Type (0, 0), None
#     Edge 55, Type (0, 0), None
#     Edge 56, Type (0, 0), None
#     Edge 57, Type (0, 0), None
#     Edge 58, Type (0, 0), None
#     Edge 59, Type (0, 0), None
#     Edge 60, Type (0, 0), None
#     Edge 61, Type (0, 0), None
#     Edge 62, Type (0, 0), None
#     Edge 63, Type (0, 0), None
# Relax obj value: 0.636
# Max RMSD: 0.334
# Mean RMSD: 0.240
data_MOF--net-bcs--node1-JUFBIX_clean_sbu_0--edge1-none
_symmetry_space_group_name_H-M    P1
_symmetry_Int_Tables_number       1
_symmetry_cell_setting            triclinic
loop_
_symmetry_equiv_pos_as_xyz
'x, y, z'
_cell_length_a     17.622733
_cell_length_b     16.975558
_cell_length_c     18.873402
_cell_angle_alpha  101.82055
_cell_angle_beta   101.0608
_cell_angle_gamma 88.682603
loop_
_atom_site_label
_atom_site_type_symbol
_atom_site_fract_x
_atom_site_fract_y
_atom_site_fract_z
_atom_type_partial_charge
Co0 Co 0.98653 1.03258 -0.00654 0.0
C1 C 0.94623 0.18177 0.09623 0.0
Co2 Co 0.06777 0.12238 0.98171 0.0
C3 C 0.90431 0.90675 0.04004 0.0
C4 C 0.83696 0.99719 -0.00428 0.0
N5 N 0.90366 0.95792 -0.00879 0.0
N6 N 0.84514 0.91905 0.07833 0.0
C7 C 0.80636 0.97949 0.05253 0.0
H8 H 0.95199 0.86821 0.05427 0.0
H9 H 0.82004 1.04867 0.97126 0.0
C10 C 0.10807 0.97319 0.87895 0.0
N11 N 0.15062 0.19705 0.98396 0.0
C12 C 0.14999 0.24826 0.93516 0.0
C13 C 0.21733 0.15779 0.97945 0.0
N14 N 0.20917 0.23599 0.89688 0.0
C15 C 0.24794 0.17554 0.92267 0.0
C16 C 0.1224 0.98487 0.08997 0.0
O17 O 0.05165 0.95187 0.90952 0.0
O18 O 0.11866 1.04934 0.89789 0.0
O19 O 0.14165 1.04748 0.0634 0.0
O20 O 0.05012 0.97088 0.06949 0.0
O21 O 1.00263 0.20309 0.06565 0.0
H22 H 0.23425 0.1063 0.00389 0.0
H23 H 0.10229 0.28678 0.92093 0.0
O24 O 0.93564 0.10562 0.07729 0.0
O25 O 0.91264 0.10749 0.91178 0.0
O26 O 1.00417 0.18409 0.90568 0.0
C27 C 0.93189 0.1701 0.88521 0.0
H28 H 0.76019 1.01179 0.07545 0.0
H29 H 0.29412 0.14325 0.89975 0.0
Co30 Co 0.31953 0.8383 0.20796 0.0
C31 C 0.34478 0.94816 0.34169 0.0
Co32 Co 0.23407 0.82129 0.27078 0.0
C33 C 0.40302 0.93499 0.14271 0.0
C34 C 0.43908 0.81307 0.11737 0.0
N35 N 0.39348 0.86022 0.1564 0.0
N36 N 0.45244 0.93538 0.09681 0.0
C37 C 0.4756 0.85846 0.08138 0.0
H38 H 0.37326 0.9881 0.16502 0.0
H39 H 0.44132 0.7497 0.1106 0.0
C40 C 0.20895 0.70893 0.13685 0.0
N41 N 0.15998 0.80065 0.32185 0.0
C42 C 0.15106 0.72681 0.33756 0.0
C43 C 0.11087 0.84814 0.35601 0.0
N44 N 0.09943 0.72683 0.38129 0.0
C45 C 0.07386 0.80338 0.39282 0.0
C46 C 0.17842 0.9313 0.14753 0.0
O47 O 0.27012 0.74337 0.12841 0.0
O48 O 0.18779 0.73151 0.1978 0.0
O49 O 0.15806 0.90059 0.20064 0.0
O50 O 0.2489 0.91362 0.14345 0.0
O51 O 0.28349 0.91442 0.35025 0.0
H52 H 0.10484 0.91118 0.35611 0.0
H53 H 0.1822 0.67375 0.31755 0.0
O54 O 0.36493 0.92749 0.28021 0.0
O55 O 0.39634 0.76112 0.27978 0.0
O56 O 0.30485 0.74573 0.33544 0.0
C57 C 0.37619 0.73054 0.33313 0.0
H58 H 0.51103 0.83456 0.0415 0.0
H59 H 0.03482 0.82729 0.42914 0.0
Co60 Co 0.55047 1.02208 0.50194 0.0
C61 C 0.65192 0.15655 0.572 0.0
Co62 Co 0.5038 0.13291 0.47327 0.0
C63 C 0.6305 0.93829 0.5919 0.0
C64 C 0.52502 0.87929 0.53737 0.0
N65 N 0.58157 0.92599 0.52696 0.0
N66 N 0.60063 0.91719 0.6456 0.0
C67 C 0.5344 0.87826 0.6106 0.0
H68 H 0.68985 0.95642 0.59779 0.0
H69 H 0.47519 0.85448 0.49651 0.0
C70 C 0.40238 0.99844 0.40319 0.0
N71 N 0.47271 0.22902 0.44826 0.0
C72 C 0.42376 0.21671 0.38333 0.0
C73 C 0.52925 0.2757 0.43782 0.0
N74 N 0.45363 0.23777 0.3296 0.0
C75 C 0.51987 0.2767 0.36459 0.0
C76 C 0.59325 1.05656 0.38493 0.0
O77 O 0.45848 0.96427 0.43686 0.0
O78 O 0.41032 1.07365 0.40896 0.0
O79 O 0.55172 0.11612 0.39529 0.0
O80 O 0.60018 1.006 0.42674 0.0
O81 O 0.59582 0.19071 0.5383 0.0
H82 H 0.57908 0.30053 0.47869 0.0
H83 H 0.36441 0.1986 0.37745 0.0
O84 O 0.64391 0.08137 0.56631 0.0
O85 O 0.50249 1.03885 0.5799 0.0
O86 O 0.45414 0.14903 0.54851 0.0
C87 C 0.46103 0.09846 0.5903 0.0
H88 H 0.4988 0.84667 0.6363 0.0
H89 H 0.55546 0.30828 0.33887 0.0
Co90 Co 0.23202 0.37262 0.73716 0.0
C91 C 0.38354 0.41473 0.83333 0.0
Co92 Co 0.31913 0.28658 0.73725 0.0
C93 C 0.17506 0.49104 0.8196 0.0
C94 C 0.13028 0.50376 0.70962 0.0
N95 N 0.17552 0.458 0.75034 0.0
N96 N 0.12516 0.54947 0.82535 0.0
C97 C 0.09736 0.56145 0.75686 0.0
H98 H 0.20606 0.46801 0.86632 0.0
H99 H 0.12058 0.49367 0.65058 0.0
C100 C 0.16765 0.24487 0.64057 0.0
N101 N 0.37578 0.2013 0.72408 0.0
C102 C 0.37705 0.17007 0.65461 0.0
C103 C 0.42089 0.15449 0.76396 0.0
N104 N 0.4275 0.11253 0.64836 0.0
C105 C 0.45451 0.09836 0.71618 0.0
C106 C 0.22864 0.27002 0.8416 0.0
O107 O 0.14821 0.31534 0.66648 0.0
O108 O 0.23558 0.22395 0.664 0.0
O109 O 0.28616 0.2438 0.81322 0.0
O110 O 0.1932 0.3286 0.81782 0.0
O111 O 0.4027 0.3438 0.80848 0.0
H112 H 0.43036 0.16242 0.82282 0.0
H113 H 0.34587 0.19338 0.60816 0.0
O114 O 0.31573 0.4356 0.80959 0.0
O115 O 0.26465 0.41476 0.66035 0.0
O116 O 0.35851 0.33101 0.65734 0.0
C117 C 0.32261 0.38865 0.63255 0.0
H118 H 0.05116 0.60163 0.74182 0.0
H119 H 0.50056 1.05777 0.7306 0.0
Co120 Co 0.05672 0.08884 0.44758 0.0
C121 C 0.11428 0.1875 0.58395 0.0
Co122 Co 0.99759 1.06622 0.52767 0.0
C123 C 0.10648 1.05429 0.31666 0.0
C124 C 0.19757 0.10252 0.40598 0.0
N125 N 0.12087 0.08776 0.38791 0.0
N126 N 0.16808 1.05791 0.28645 0.0
C127 C 0.22641 0.08367 0.34353 0.0
H128 H 0.04946 1.03771 0.28455 0.0
H129 H 0.23064 0.12534 0.4606 0.0
C130 C 0.94005 0.96753 0.39131 0.0
N131 N 0.93343 1.06729 0.58733 0.0
C132 C 0.94782 0.10072 0.65859 0.0
C133 C 0.85674 1.05253 0.56925 0.0
N134 N 0.88621 0.09708 0.68879 0.0
C135 C 0.82788 1.07135 0.6317 0.0
C136 C 0.94334 0.17761 0.4504 0.0
O137 O 0.99079 1.00724 0.37414 0.0
O138 O 0.93169 0.98403 0.45744 0.0
O139 O 0.93979 0.14118 0.49995 0.0
O140 O 0.99867 0.16656 0.41565 0.0
O141 O 0.06352 0.14782 0.60112 0.0
H142 H 0.82367 1.02974 0.51462 0.0
H143 H 1.00483 0.1173 0.69071 0.0
O144 O 0.12263 0.17101 0.51782 0.0
O145 O 0.11451 1.01388 0.47529 0.0
O146 O 0.05564 0.9885 0.5596 0.0
C147 C 0.11096 0.97744 0.52484 0.0
H148 H 0.28358 0.09852 0.33878 0.0
H149 H 0.77071 1.05649 0.63642 0.0
Co150 Co 0.2727 0.78451 0.76874 0.0
C151 C 0.38116 0.93165 0.82029 0.0
Co152 Co 0.2825 0.86723 0.70759 0.0
C153 C 0.3698 0.72224 0.85602 0.0
C154 C 0.25933 0.71804 0.88763 0.0
N155 N 0.29502 0.72811 0.83311 0.0
N156 N 0.38432 0.71292 0.92427 0.0
C157 C 0.31569 0.70845 0.94541 0.0
H158 H 0.41406 0.73149 0.82588 0.0
H159 H 0.19792 0.72275 0.88715 0.0
C160 C 0.17454 0.71994 0.65587 0.0
N161 N 0.2615 0.92359 0.64352 0.0
C162 C 0.18741 0.93135 0.61936 0.0
C163 C 0.29985 0.93832 0.59229 0.0
N164 N 0.17597 0.94718 0.55329 0.0
C165 C 0.2457 0.95308 0.53487 0.0
C166 C 0.39155 0.73722 0.65204 0.0
O167 O 0.19877 0.70413 0.71784 0.0
O168 O 0.20087 0.78422 0.64377 0.0
O169 O 0.36671 0.80738 0.64472 0.0
O170 O 0.35898 0.7147 0.70186 0.0
O171 O 0.35708 0.94723 0.75827 0.0
H172 H 0.36157 0.93388 0.59471 0.0
H173 H 0.14177 0.9205 0.64744 0.0
O174 O 0.3539 0.86812 0.83273 0.0
O175 O 0.18756 0.84451 0.83146 0.0
O176 O 0.19645 0.93736 0.77444 0.0
C177 C 0.16375 0.9152 0.82447 0.0
H178 H 0.30727 0.69533 -0.00286 0.0
H179 H 0.25639 0.97022 0.48548 0.0
Co180 Co 0.48147 0.11667 -0.0007 0.0
C181 C 0.61827 0.16717 0.09773 0.0
Co182 Co 0.57283 1.03831 0.97589 0.0
C183 C 0.37573 0.2173 0.0566 0.0
C184 C 0.40526 0.26044 0.9672 0.0
N185 N 0.41366 0.19695 0.00194 0.0
N186 N 0.34317 0.28872 0.05634 0.0
C187 C 0.36401 0.31906 0.00314 0.0
H188 H 0.37615 0.18361 0.09949 0.0
H189 H 0.4279 0.26546 0.91943 0.0
C190 C 0.43603 0.98781 0.87745 0.0
N191 N 0.64065 0.95804 0.97325 0.0
C192 C 0.67853 0.93766 0.91856 0.0
C193 C 0.6491 0.89461 0.00805 0.0
N194 N 0.71111 0.86625 0.91886 0.0
C195 C 0.69034 0.83597 0.97212 0.0
C196 C 0.47342 0.99593 0.06649 0.0
O197 O 0.41257 1.05179 0.91458 0.0
O198 O 0.50718 0.97191 0.89201 0.0
O199 O 0.52989 0.98465 0.03468 0.0
O200 O 0.43628 1.06051 0.06374 0.0
O201 O 0.64174 0.1032 0.06059 0.0
H202 H 0.62653 0.88964 0.05586 0.0
H203 H 0.67807 0.9713 0.87564 0.0
O204 O 0.54711 0.18306 0.08319 0.0
O205 O 0.52443 0.17034 0.94053 0.0
O206 O 0.618 0.09445 0.91143 0.0
C207 C 0.58088 0.15904 0.90871 0.0
H208 H 0.34826 0.3768 -0.00995 0.0
H209 H 0.70615 0.77827 0.98528 0.0
Co210 Co 0.25956 0.28224 0.22747 0.0
C211 C 0.2597 0.34848 0.35885 0.0
Co212 Co 0.3199 0.3882 0.24643 0.0
C213 C 0.21937 0.12294 0.20632 0.0
C214 C 0.12148 0.19495 0.1821 0.0
N215 N 0.19901 0.19446 0.19109 0.0
N216 N 0.15984 0.08721 0.22187 0.0
C217 C 0.09689 0.1287 0.19943 0.0
H218 H 0.27818 0.10492 0.22223 0.0
H219 H 0.08512 0.24583 0.18051 0.0
C220 C 0.31331 0.32473 0.11266 0.0
N221 N 0.37608 0.47607 0.28224 0.0
C222 C 0.34901 0.54767 0.27403 0.0
C223 C 0.45164 0.47851 0.27969 0.0
N224 N 0.40049 0.58758 0.25122 0.0
C225 C 0.4684 0.54965 0.26632 0.0
C226 C 0.40682 0.26244 0.27482 0.0
O227 O 0.26623 0.28298 0.13241 0.0
O228 O 0.3537 0.37781 0.16001 0.0
O229 O 0.40088 0.33652 0.28383 0.0
O230 O 0.34928 0.21987 0.2386 0.0
O231 O 0.28689 0.40186 0.33251 0.0
H232 H 0.48785 0.42696 0.26892 0.0
H233 H 0.28873 0.56365 0.26802 0.0
O234 O 0.25047 0.27758 0.32231 0.0
O235 O 0.17063 0.34533 0.22038 0.0
O236 O 0.23612 0.44226 0.20492 0.0
C237 C 0.17256 0.40603 0.19347 0.0
H238 H 0.03959 0.12207 0.21023 0.0
H239 H 0.52172 0.56095 0.2493 0.0
Co240 Co 0.55684 0.5897 0.94766 0.0
C241 C 0.61756 0.68306 0.08523 0.0
Co242 Co 0.49744 0.56553 0.02756 0.0
C243 C 0.6183 0.53234 0.8244 0.0
C244 C 0.69908 0.6094 0.9048 0.0
N245 N 0.62519 0.58287 0.88944 0.0
N246 N 0.67525 0.54176 0.79042 0.0
C247 C 0.72995 0.58321 0.84404 0.0
H248 H 0.56625 0.50024 0.79405 0.0
H249 H 0.72932 0.64525 0.9559 0.0
C250 C 0.43672 0.47216 0.88998 0.0
N251 N 0.42907 0.5723 0.08574 0.0
C252 C 0.43603 0.62264 0.15087 0.0
C253 C 0.35517 0.54572 0.07034 0.0
N254 N 0.37904 0.61309 0.18475 0.0
C255 C 0.32431 0.57169 0.13116 0.0
C256 C 0.4497 0.68219 0.95162 0.0
O257 O 0.48705 0.51262 0.87315 0.0
O258 O 0.42943 0.48697 0.95629 0.0
O259 O 0.44536 0.64353 -0.00049 0.0
O260 O 0.50443 0.67084 0.91585 0.0
O261 O 0.56702 0.64284 0.10201 0.0
H262 H 0.32496 0.50994 0.01919 0.0
H263 H 0.48811 0.65462 0.18131 0.0
O264 O 0.62505 0.66801 0.01898 0.0
O265 O 0.60878 0.5115 0.97556 0.0
O266 O 0.55 0.48463 0.05957 0.0
C267 C 0.60466 0.47315 0.02372 0.0
H268 H 0.78373 0.60409 0.83538 0.0
H269 H 0.27054 0.55076 0.13982 0.0
Co270 Co 0.7718 0.28774 0.2676 0.0
C271 C 0.87975 0.43502 0.31934 0.0
Co272 Co 0.78161 0.37043 0.20644 0.0
C273 C 0.86688 0.22361 0.35584 0.0
C274 C 0.75444 0.21665 0.38289 0.0
N275 N 0.79279 0.23136 0.33166 0.0
N276 N 0.87832 0.20783 0.42192 0.0
C277 C 0.80858 0.20192 0.44033 0.0
H278 H 0.91252 0.23446 0.32776 0.0
H279 H 0.69272 0.22108 0.38048 0.0
C280 C 0.67314 0.22334 0.15488 0.0
N281 N 0.75933 0.42682 0.14209 0.0
C282 C 0.68457 0.4329 0.11925 0.0
C283 C 0.79505 0.4371 0.08764 0.0
N284 N 0.67013 0.44267 0.05114 0.0
C285 C 0.73872 0.44706 0.02995 0.0
C286 C 0.89055 0.23976 0.15071 0.0
O287 O 0.69724 0.20775 0.21689 0.0
O288 O 0.70038 0.28688 0.14243 0.0
O289 O 0.86672 0.31044 0.1437 0.0
O290 O 0.85787 0.21762 0.20075 0.0
O291 O 0.85556 0.45079 0.25734 0.0
H292 H 0.85645 0.43226 0.08807 0.0
H293 H 0.64027 0.42351 0.14931 0.0
O294 O 0.85341 0.37076 0.33145 0.0
O295 O 0.68757 0.34758 0.33046 0.0
O296 O 0.69533 0.44026 0.27333 0.0
C297 C 0.66275 0.41774 0.32314 0.0
H298 H 0.79789 0.18481 0.48973 0.0
H299 H 0.74715 0.46033 0.97828 0.0
Co300 Co 0.982 0.61752 0.5004 0.0
C301 C 0.11918 0.66418 0.59878 0.0
Co302 Co 0.07228 0.53747 0.47481 0.0
C303 C 0.87393 0.71115 0.56304 0.0
C304 C 0.90208 0.76411 0.47852 0.0
N305 N 0.91311 0.69748 0.50896 0.0
N306 N 0.83703 0.78091 0.56597 0.0
C307 C 0.85676 0.81753 0.51585 0.0
H308 H 0.87429 0.67242 0.60201 0.0
H309 H 0.92356 0.77341 0.43126 0.0
C310 C 0.9351 0.4908 0.37643 0.0
N311 N 0.14117 0.45751 0.46626 0.0
C312 C 0.18028 0.44379 0.41214 0.0
C313 C 0.15222 0.39091 0.49674 0.0
N314 N 0.21715 0.37402 0.40919 0.0
C315 C 0.1975 0.33745 0.45938 0.0
C316 C 0.97603 0.48888 0.56354 0.0
O317 O 0.91235 0.55463 0.4146 0.0
O318 O 1.00601 0.47401 0.3903 0.0
O319 O 0.03244 0.47793 0.5316 0.0
O320 O 0.93999 0.55463 0.5627 0.0
O321 O 0.14192 0.60034 0.56062 0.0
H322 H 0.13078 0.38165 0.54404 0.0
H323 H 0.17989 0.48251 0.37315 0.0
O324 O 0.04827 0.68099 0.5849 0.0
O325 O 1.02183 0.67706 0.4436 0.0
O326 O 0.1143 0.60037 0.41252 0.0
C327 C 0.07826 0.66611 0.41168 0.0
H328 H 0.83641 0.87519 0.50465 0.0
H329 H 0.21788 0.27982 0.47061 0.0
Co330 Co 0.7352 0.86852 0.23802 0.0
C331 C 0.88668 0.91018 0.33469 0.0
Co332 Co 0.82229 0.78246 0.23806 0.0
C333 C 0.67731 0.98505 0.32066 0.0
C334 C 0.63343 1.00059 0.2113 0.0
N335 N 0.67858 0.95382 0.25119 0.0
N336 N 0.62681 1.04255 0.32689 0.0
C337 C 0.59978 1.05669 0.25907 0.0
H338 H 0.7085 0.96175 0.36711 0.0
H339 H 0.62393 0.99262 0.15243 0.0
C340 C 0.67077 0.74043 0.1419 0.0
N341 N 0.87876 0.69706 0.22488 0.0
C342 C 0.87922 0.66401 0.15561 0.0
C343 C 0.92398 0.65127 0.26559 0.0
N344 N 0.9291 0.60555 0.14986 0.0
C345 C 0.95688 0.59356 0.21835 0.0
C346 C 0.73168 0.76642 0.34268 0.0
O347 O 0.65161 0.81134 0.16681 0.0
O348 O 0.73858 0.71954 0.16559 0.0
O349 O 0.78962 0.7403 0.31484 0.0
O350 O 0.69582 0.8241 0.31793 0.0
O351 O 0.9061 0.8397 0.30877 0.0
H352 H 0.93367 0.66136 0.32463 0.0
H353 H 0.84824 0.68706 0.10889 0.0
O354 O 0.81877 0.93112 0.31125 0.0
O355 O 0.76818 0.91128 0.16203 0.0
O356 O 0.86113 0.82648 0.15742 0.0
C357 C 0.82569 0.88505 0.13364 0.0
H358 H 0.55367 0.09722 0.24463 0.0
H359 H 1.00306 0.55336 0.23339 0.0
Co360 Co 0.82021 0.3337 0.70442 0.0
C361 C 0.84533 0.44604 0.83835 0.0
Co362 Co 0.73475 0.31667 0.76723 0.0
C363 C 0.90321 0.42818 0.63764 0.0
C364 C 0.94344 0.30686 0.61922 0.0
N365 N 0.89431 0.35435 0.65336 0.0
N366 N 0.95484 0.42816 0.5939 0.0
C367 C 0.98044 0.35162 0.58241 0.0
H368 H 0.87208 0.48124 0.65765 0.0
H369 H 0.94948 0.24383 0.61915 0.0
C370 C 0.7095 0.20686 0.6335 0.0
N371 N 0.66081 0.29476 0.81879 0.0
C372 C 0.65124 0.21998 0.83246 0.0
C373 C 0.61533 0.34194 0.85794 0.0
N374 N 0.60192 0.21962 0.87845 0.0
C375 C 0.57882 0.29656 0.89396 0.0
C376 C 0.67809 0.42445 0.64207 0.0
O377 O 0.7708 0.24058 0.62495 0.0
O378 O 0.68935 0.22749 0.69498 0.0
O379 O 0.65794 0.39385 0.69541 0.0
O380 O 0.74944 0.40927 0.63976 0.0
O381 O 0.78417 0.41159 0.84679 0.0
H382 H 0.61319 0.40532 0.86479 0.0
H383 H 0.68093 0.16685 0.81007 0.0
O384 O 0.86649 0.42348 0.77741 0.0
O385 O 0.89623 0.2544 0.77456 0.0
O386 O 0.80538 0.24133 0.83173 0.0
C387 C 0.87586 0.22367 0.82765 0.0
H388 H 1.01951 0.32771 0.54611 0.0
H389 H 0.54348 0.32048 0.93392 0.0
Co390 Co 0.73433 0.76672 0.72876 0.0
C391 C 0.74097 0.8302 0.86255 0.0
Co392 Co 0.79471 0.87267 0.74771 0.0
C393 C 0.70523 0.60726 0.70117 0.0
C394 C 0.60257 0.67641 0.69556 0.0
N395 N 0.67814 0.67885 0.69296 0.0
N396 N 0.65374 0.56741 0.72401 0.0
C397 C 0.5858 0.60527 0.70895 0.0
H398 H 0.76551 0.59128 0.70719 0.0
H399 H 0.56637 0.72797 0.70634 0.0
C400 C 0.79449 0.80645 0.61633 0.0
N401 N 0.85526 0.96046 0.78408 0.0
C402 C 0.83491 1.03198 0.76887 0.0
C403 C 0.93279 0.95997 0.79308 0.0
N404 N 0.89444 1.06772 0.75334 0.0
C405 C 0.95738 1.02623 0.77577 0.0
C406 C 0.88169 0.7489 0.7817 0.0
O407 O 0.76731 0.75306 0.64266 0.0
O408 O 0.80378 0.87735 0.65287 0.0
O409 O 0.88363 0.80958 0.75478 0.0
O410 O 0.81813 0.71267 0.77026 0.0
O411 O 0.78805 0.87193 0.84278 0.0
H412 H 0.96916 0.90908 0.79465 0.0
H413 H 0.7761 1.05 0.75296 0.0
O414 O 0.70056 0.77713 0.8152 0.0
O415 O 0.65334 0.81841 0.69139 0.0
O416 O 0.70499 0.93505 0.7366 0.0
C417 C 0.64744 0.8925 0.70038 0.0
H418 H 0.53251 0.59397 0.72603 0.0
H419 H 1.01469 1.03286 0.76496 0.0
Co420 Co 0.48603 0.53263 0.49257 0.0
C421 C 0.44789 0.68023 0.59778 0.0
Co422 Co 0.56826 0.62235 0.48262 0.0
C423 C 0.40129 0.40845 0.53835 0.0
C424 C 0.33583 0.50065 0.49514 0.0
N425 N 0.40162 0.45978 0.48982 0.0
N426 N 0.34255 0.42215 0.57719 0.0
C427 C 0.3046 0.48308 0.55162 0.0
H428 H 0.44759 0.36769 0.55101 0.0
H429 H 0.31969 0.55248 0.47099 0.0
C430 C 0.6064 0.47474 0.3774 0.0
N431 N 0.65267 0.6952 0.48535 0.0
C432 C 0.653 0.74657 0.43685 0.0
C433 C 0.71845 0.65431 0.48 0.0
N434 N 0.71174 0.73288 0.39801 0.0
C435 C 0.74968 0.67192 0.42354 0.0
C436 C 0.62185 0.47943 0.58541 0.0
O437 O 0.54863 0.45282 0.40608 0.0
O438 O 0.61722 0.5507 0.39735 0.0
O439 O 0.64114 0.54327 0.56057 0.0
O440 O 0.54927 0.46684 0.56575 0.0
O441 O 0.50567 0.70214 0.56911 0.0
H442 H 0.73458 0.60247 0.50412 0.0
H443 H 0.6067 0.78733 0.42422 0.0
O444 O 0.43707 0.60427 0.57782 0.0
O445 O 0.41315 0.61171 0.41462 0.0
O446 O 0.50502 0.68815 0.40944 0.0
C447 C 0.43243 0.67556 0.38979 0.0
H448 H 0.25837 0.51538 0.57426 0.0
H449 H 0.79592 0.63964 0.40089 0.0
Co450 Co 0.04941 0.52156 0.00136 0.0
C451 C 0.15169 0.65701 0.07495 0.0
Co452 Co 1.00484 0.63342 0.97384 0.0
C453 C 0.1423 0.42794 0.07183 0.0
C454 C 0.02988 0.37615 0.03549 0.0
N455 N 0.08205 0.422 0.01662 0.0
N456 N 0.12331 0.4069 0.13062 0.0
C457 C 0.05357 0.37122 0.10774 0.0
H458 H 0.1981 0.45103 0.06966 0.0
H459 H 0.97148 0.36201 0.00562 0.0
C460 C 0.90257 0.49797 0.90026 0.0
N461 N 0.97219 0.73298 0.95858 0.0
C462 C 0.91194 0.72702 0.90336 0.0
C463 C 1.02436 0.77882 0.93971 0.0
N464 N 0.93093 0.74805 0.84457 0.0
C465 C 1.00067 0.78374 0.86745 0.0
C466 C 0.09144 0.56412 0.88345 0.0
O467 O 0.95786 0.4642 0.9354 0.0
O468 O 0.91084 0.57355 0.90622 0.0
O469 O 0.05056 0.62421 0.89443 0.0
O470 O 0.09754 0.51309 0.92478 0.0
O471 O 0.0964 0.69079 0.03981 0.0
H472 H 0.08275 0.79297 0.96958 0.0
H473 H 0.85614 0.70392 0.90553 0.0
O474 O 0.14342 0.58143 0.06899 0.0
O475 O 1.0037 0.53078 0.08079 0.0
O476 O 0.95672 0.64189 0.05042 0.0
C477 C 0.96281 0.59087 0.09175 0.0
H478 H 1.02017 0.34917 0.14221 0.0
H479 H 0.03409 0.80578 0.83298 0.0
loop_
_geom_bond_atom_site_label_1
_geom_bond_atom_site_label_2
_geom_bond_distance
_geom_bond_site_symmetry_2
_ccdc_geom_bond_type
Co0 N5 2.057 1_556 S
Co0 O17 2.021 . S
Co0 O20 2.062 1_656 S
Co0 O24 2.117 1_566 S
Co0 O25 2.020 . S
C1 O21 1.259 1_655 S
C1 O24 1.258 . S
Co2 N11 2.057 1_554 S
Co2 O18 2.117 1_544 S
Co2 O19 2.020 . S
Co2 O21 2.021 . S
Co2 O26 2.062 1_454 S
C3 N5 1.316 . S
C3 N6 1.347 . S
C3 H8 0.931 1_554 S
C4 N5 1.375 . S
C4 C7 1.350 . S
C4 H9 0.930 . S
N5 Co0 2.057 1_554 S
N5 C3 1.316 . S
N5 C4 1.375 . S
N6 C3 1.347 . S
N6 C7 1.373 . S
C7 C4 1.350 . S
C7 N6 1.373 . S
C7 H28 0.931 . S
H8 C3 0.931 1_556 S
H9 C4 0.930 . S
C10 O17 1.259 1_455 S
C10 O18 1.258 . S
N11 Co2 2.057 1_556 S
N11 C12 1.316 . S
N11 C13 1.375 . S
C12 N11 1.316 . S
C12 N14 1.347 . S
C12 H23 0.931 1_556 S
C13 N11 1.375 . S
C13 C15 1.350 . S
C13 H22 0.930 . S
N14 C12 1.347 . S
N14 C15 1.373 . S
C15 C13 1.350 . S
C15 N14 1.373 . S
C15 H29 0.931 . S
C16 O19 1.256 1_565 S
C16 O20 1.255 . S
O17 Co0 2.021 . S
O17 C10 1.259 1_655 S
O18 Co2 2.117 1_566 S
O18 C10 1.258 . S
O19 Co2 2.020 . S
O19 C16 1.256 1_545 S
O20 Co0 2.062 1_454 S
O20 C16 1.255 . S
O21 C1 1.259 1_455 S
O21 Co2 2.021 . S
H22 C13 0.930 . S
H23 C12 0.931 1_554 S
O24 Co0 2.117 1_544 S
O24 C1 1.258 . S
O25 Co0 2.020 . S
O25 C27 1.256 1_565 S
O26 Co2 2.062 1_656 S
O26 C27 1.255 . S
C27 O25 1.256 1_545 S
C27 O26 1.255 . S
H28 C7 0.931 . S
H29 C15 0.931 . S
Co30 N35 2.057 . S
Co30 O47 2.021 . S
Co30 O50 2.062 . S
Co30 O54 2.117 . S
Co30 O55 2.020 . S
C31 O51 1.259 . S
C31 O54 1.258 . S
Co32 N41 2.057 . S
Co32 O48 2.117 . S
Co32 O49 2.020 . S
Co32 O51 2.021 . S
Co32 O56 2.062 . S
C33 N35 1.316 . S
C33 N36 1.347 . S
C33 H38 0.931 . S
C34 N35 1.375 . S
C34 C37 1.350 . S
C34 H39 0.930 . S
N35 Co30 2.057 . S
N35 C33 1.316 . S
N35 C34 1.375 . S
N36 C33 1.347 . S
N36 C37 1.373 . S
C37 C34 1.350 . S
C37 N36 1.373 . S
C37 H58 0.931 . S
H38 C33 0.931 . S
H39 C34 0.930 . S
C40 O47 1.259 . S
C40 O48 1.258 . S
N41 Co32 2.057 . S
N41 C42 1.316 . S
N41 C43 1.375 . S
C42 N41 1.316 . S
C42 N44 1.347 . S
C42 H53 0.931 . S
C43 N41 1.375 . S
C43 C45 1.350 . S
C43 H52 0.930 . S
N44 C42 1.347 . S
N44 C45 1.373 . S
C45 C43 1.350 . S
C45 N44 1.373 . S
C45 H59 0.931 . S
C46 O49 1.256 . S
C46 O50 1.255 . S
O47 Co30 2.021 . S
O47 C40 1.259 . S
O48 Co32 2.117 . S
O48 C40 1.258 . S
O49 Co32 2.020 . S
O49 C46 1.256 . S
O50 Co30 2.062 . S
O50 C46 1.255 . S
O51 C31 1.259 . S
O51 Co32 2.021 . S
H52 C43 0.930 . S
H53 C42 0.931 . S
O54 Co30 2.117 . S
O54 C31 1.258 . S
O55 Co30 2.020 . S
O55 C57 1.256 . S
O56 Co32 2.062 . S
O56 C57 1.255 . S
C57 O55 1.256 . S
C57 O56 1.255 . S
H58 C37 0.931 . S
H59 C45 0.931 . S
Co60 N65 2.057 . S
Co60 O77 2.021 . S
Co60 O80 2.062 . S
Co60 O84 2.117 1_565 S
Co60 O85 2.020 1_565 S
C61 O81 1.259 . S
C61 O84 1.258 . S
Co62 N71 2.057 . S
Co62 O78 2.117 1_545 S
Co62 O79 2.020 1_545 S
Co62 O81 2.021 . S
Co62 O86 2.062 . S
C63 N65 1.316 . S
C63 N66 1.347 . S
C63 H68 0.931 . S
C64 N65 1.375 . S
C64 C67 1.350 . S
C64 H69 0.930 . S
N65 Co60 2.057 . S
N65 C63 1.316 . S
N65 C64 1.375 . S
N66 C63 1.347 . S
N66 C67 1.373 . S
C67 C64 1.350 . S
C67 N66 1.373 . S
C67 H88 0.931 . S
H68 C63 0.931 . S
H69 C64 0.930 . S
C70 O77 1.259 . S
C70 O78 1.258 . S
N71 Co62 2.057 . S
N71 C72 1.316 . S
N71 C73 1.375 . S
C72 N71 1.316 . S
C72 N74 1.347 . S
C72 H83 0.931 . S
C73 N71 1.375 . S
C73 C75 1.350 . S
C73 H82 0.930 . S
N74 C72 1.347 . S
N74 C75 1.373 . S
C75 C73 1.350 . S
C75 N74 1.373 . S
C75 H89 0.931 . S
C76 O79 1.256 . S
C76 O80 1.255 . S
O77 Co60 2.021 . S
O77 C70 1.259 . S
O78 Co62 2.117 1_565 S
O78 C70 1.258 . S
O79 Co62 2.020 1_565 S
O79 C76 1.256 . S
O80 Co60 2.062 . S
O80 C76 1.255 . S
O81 C61 1.259 . S
O81 Co62 2.021 . S
H82 C73 0.930 . S
H83 C72 0.931 . S
O84 Co60 2.117 1_545 S
O84 C61 1.258 . S
O85 Co60 2.020 1_545 S
O85 C87 1.256 . S
O86 Co62 2.062 . S
O86 C87 1.255 . S
C87 O85 1.256 . S
C87 O86 1.255 . S
H88 C67 0.931 . S
H89 C75 0.931 . S
Co90 N95 2.057 . S
Co90 O107 2.021 . S
Co90 O110 2.062 . S
Co90 O114 2.117 . S
Co90 O115 2.020 . S
C91 O111 1.259 . S
C91 O114 1.258 . S
Co92 N101 2.057 . S
Co92 O108 2.117 . S
Co92 O109 2.020 . S
Co92 O111 2.021 . S
Co92 O116 2.062 . S
C93 N95 1.316 . S
C93 N96 1.347 . S
C93 H98 0.931 . S
C94 N95 1.375 . S
C94 C97 1.350 . S
C94 H99 0.930 . S
N95 Co90 2.057 . S
N95 C93 1.316 . S
N95 C94 1.375 . S
N96 C93 1.347 . S
N96 C97 1.373 . S
C97 C94 1.350 . S
C97 N96 1.373 . S
C97 H118 0.931 . S
H98 C93 0.931 . S
H99 C94 0.930 . S
C100 O107 1.259 . S
C100 O108 1.258 . S
N101 Co92 2.057 . S
N101 C102 1.316 . S
N101 C103 1.375 . S
C102 N101 1.316 . S
C102 N104 1.347 . S
C102 H113 0.931 . S
C103 N101 1.375 . S
C103 C105 1.350 . S
C103 H112 0.930 . S
N104 C102 1.347 . S
N104 C105 1.373 . S
C105 C103 1.350 . S
C105 N104 1.373 . S
C105 H119 0.931 1_545 S
C106 O109 1.256 . S
C106 O110 1.255 . S
O107 Co90 2.021 . S
O107 C100 1.259 . S
O108 Co92 2.117 . S
O108 C100 1.258 . S
O109 Co92 2.020 . S
O109 C106 1.256 . S
O110 Co90 2.062 . S
O110 C106 1.255 . S
O111 C91 1.259 . S
O111 Co92 2.021 . S
H112 C103 0.930 . S
H113 C102 0.931 . S
O114 Co90 2.117 . S
O114 C91 1.258 . S
O115 Co90 2.020 . S
O115 C117 1.256 . S
O116 Co92 2.062 . S
O116 C117 1.255 . S
C117 O115 1.256 . S
C117 O116 1.255 . S
H118 C97 0.931 . S
H119 C105 0.931 1_565 S
Co120 N125 2.057 . S
Co120 O137 2.021 1_445 S
Co120 O140 2.062 1_455 S
Co120 O144 2.117 . S
Co120 O145 2.020 1_545 S
C121 O141 1.259 . S
C121 O144 1.258 . S
Co122 N131 2.057 . S
Co122 O138 2.117 . S
Co122 O139 2.020 1_565 S
Co122 O141 2.021 1_665 S
Co122 O146 2.062 1_655 S
C123 N125 1.316 . S
C123 N126 1.347 . S
C123 H128 0.931 1_545 S
C124 N125 1.375 . S
C124 C127 1.350 . S
C124 H129 0.930 . S
N125 Co120 2.057 . S
N125 C123 1.316 . S
N125 C124 1.375 . S
N126 C123 1.347 . S
N126 C127 1.373 . S
C127 C124 1.350 . S
C127 N126 1.373 . S
C127 H148 0.931 . S
H128 C123 0.931 1_565 S
H129 C124 0.930 . S
C130 O137 1.259 . S
C130 O138 1.258 . S
N131 Co122 2.057 . S
N131 C132 1.316 . S
N131 C133 1.375 . S
C132 N131 1.316 . S
C132 N134 1.347 . S
C132 H143 0.931 1_565 S
C133 N131 1.375 . S
C133 C135 1.350 . S
C133 H142 0.930 . S
N134 C132 1.347 . S
N134 C135 1.373 . S
C135 C133 1.350 . S
C135 N134 1.373 . S
C135 H149 0.931 . S
C136 O139 1.256 . S
C136 O140 1.255 . S
O137 Co120 2.021 1_665 S
O137 C130 1.259 . S
O138 Co122 2.117 . S
O138 C130 1.258 . S
O139 Co122 2.020 1_545 S
O139 C136 1.256 . S
O140 Co120 2.062 1_655 S
O140 C136 1.255 . S
O141 C121 1.259 . S
O141 Co122 2.021 1_445 S
H142 C133 0.930 . S
H143 C132 0.931 1_545 S
O144 Co120 2.117 . S
O144 C121 1.258 . S
O145 Co120 2.020 1_565 S
O145 C147 1.256 . S
O146 Co122 2.062 1_455 S
O146 C147 1.255 . S
C147 O145 1.256 . S
C147 O146 1.255 . S
H148 C127 0.931 . S
H149 C135 0.931 . S
Co150 N155 2.057 . S
Co150 O167 2.021 . S
Co150 O170 2.062 . S
Co150 O174 2.117 . S
Co150 O175 2.020 . S
C151 O171 1.259 . S
C151 O174 1.258 . S
Co152 N161 2.057 . S
Co152 O168 2.117 . S
Co152 O169 2.020 . S
Co152 O171 2.021 . S
Co152 O176 2.062 . S
C153 N155 1.316 . S
C153 N156 1.347 . S
C153 H158 0.931 . S
C154 N155 1.375 . S
C154 C157 1.350 . S
C154 H159 0.930 . S
N155 Co150 2.057 . S
N155 C153 1.316 . S
N155 C154 1.375 . S
N156 C153 1.347 . S
N156 C157 1.373 . S
C157 C154 1.350 . S
C157 N156 1.373 . S
C157 H178 0.931 1_556 S
H158 C153 0.931 . S
H159 C154 0.930 . S
C160 O167 1.259 . S
C160 O168 1.258 . S
N161 Co152 2.057 . S
N161 C162 1.316 . S
N161 C163 1.375 . S
C162 N161 1.316 . S
C162 N164 1.347 . S
C162 H173 0.931 . S
C163 N161 1.375 . S
C163 C165 1.350 . S
C163 H172 0.930 . S
N164 C162 1.347 . S
N164 C165 1.373 . S
C165 C163 1.350 . S
C165 N164 1.373 . S
C165 H179 0.931 . S
C166 O169 1.256 . S
C166 O170 1.255 . S
O167 Co150 2.021 . S
O167 C160 1.259 . S
O168 Co152 2.117 . S
O168 C160 1.258 . S
O169 Co152 2.020 . S
O169 C166 1.256 . S
O170 Co150 2.062 . S
O170 C166 1.255 . S
O171 C151 1.259 . S
O171 Co152 2.021 . S
H172 C163 0.930 . S
H173 C162 0.931 . S
O174 Co150 2.117 . S
O174 C151 1.258 . S
O175 Co150 2.020 . S
O175 C177 1.256 . S
O176 Co152 2.062 . S
O176 C177 1.255 . S
C177 O175 1.256 . S
C177 O176 1.255 . S
H178 C157 0.931 1_554 S
H179 C165 0.931 . S
Co180 N185 2.057 . S
Co180 O197 2.021 1_544 S
Co180 O200 2.062 1_545 S
Co180 O204 2.117 . S
Co180 O205 2.020 1_554 S
C181 O201 1.259 . S
C181 O204 1.258 . S
Co182 N191 2.057 . S
Co182 O198 2.117 . S
Co182 O199 2.020 1_556 S
Co182 O201 2.021 1_566 S
Co182 O206 2.062 1_565 S
C183 N185 1.316 . S
C183 N186 1.347 . S
C183 H188 0.931 . S
C184 N185 1.375 . S
C184 C187 1.350 . S
C184 H189 0.930 . S
N185 Co180 2.057 . S
N185 C183 1.316 . S
N185 C184 1.375 . S
N186 C183 1.347 . S
N186 C187 1.373 . S
C187 C184 1.350 . S
C187 N186 1.373 . S
C187 H208 0.931 . S
H188 C183 0.931 . S
H189 C184 0.930 . S
C190 O197 1.259 . S
C190 O198 1.258 . S
N191 Co182 2.057 . S
N191 C192 1.316 . S
N191 C193 1.375 . S
C192 N191 1.316 . S
C192 N194 1.347 . S
C192 H203 0.931 . S
C193 N191 1.375 . S
C193 C195 1.350 . S
C193 H202 0.930 . S
N194 C192 1.347 . S
N194 C195 1.373 . S
C195 C193 1.350 . S
C195 N194 1.373 . S
C195 H209 0.931 . S
C196 O199 1.256 . S
C196 O200 1.255 . S
O197 Co180 2.021 1_566 S
O197 C190 1.259 . S
O198 Co182 2.117 . S
O198 C190 1.258 . S
O199 Co182 2.020 1_554 S
O199 C196 1.256 . S
O200 Co180 2.062 1_565 S
O200 C196 1.255 . S
O201 C181 1.259 . S
O201 Co182 2.021 1_544 S
H202 C193 0.930 . S
H203 C192 0.931 . S
O204 Co180 2.117 . S
O204 C181 1.258 . S
O205 Co180 2.020 1_556 S
O205 C207 1.256 . S
O206 Co182 2.062 1_545 S
O206 C207 1.255 . S
C207 O205 1.256 . S
C207 O206 1.255 . S
H208 C187 0.931 . S
H209 C195 0.931 . S
Co210 N215 2.057 . S
Co210 O227 2.021 . S
Co210 O230 2.062 . S
Co210 O234 2.117 . S
Co210 O235 2.020 . S
C211 O231 1.259 . S
C211 O234 1.258 . S
Co212 N221 2.057 . S
Co212 O228 2.117 . S
Co212 O229 2.020 . S
Co212 O231 2.021 . S
Co212 O236 2.062 . S
C213 N215 1.316 . S
C213 N216 1.347 . S
C213 H218 0.931 . S
C214 N215 1.375 . S
C214 C217 1.350 . S
C214 H219 0.930 . S
N215 Co210 2.057 . S
N215 C213 1.316 . S
N215 C214 1.375 . S
N216 C213 1.347 . S
N216 C217 1.373 . S
C217 C214 1.350 . S
C217 N216 1.373 . S
C217 H238 0.931 . S
H218 C213 0.931 . S
H219 C214 0.930 . S
C220 O227 1.259 . S
C220 O228 1.258 . S
N221 Co212 2.057 . S
N221 C222 1.316 . S
N221 C223 1.375 . S
C222 N221 1.316 . S
C222 N224 1.347 . S
C222 H233 0.931 . S
C223 N221 1.375 . S
C223 C225 1.350 . S
C223 H232 0.930 . S
N224 C222 1.347 . S
N224 C225 1.373 . S
C225 C223 1.350 . S
C225 N224 1.373 . S
C225 H239 0.931 . S
C226 O229 1.256 . S
C226 O230 1.255 . S
O227 Co210 2.021 . S
O227 C220 1.259 . S
O228 Co212 2.117 . S
O228 C220 1.258 . S
O229 Co212 2.020 . S
O229 C226 1.256 . S
O230 Co210 2.062 . S
O230 C226 1.255 . S
O231 C211 1.259 . S
O231 Co212 2.021 . S
H232 C223 0.930 . S
H233 C222 0.931 . S
O234 Co210 2.117 . S
O234 C211 1.258 . S
O235 Co210 2.020 . S
O235 C237 1.256 . S
O236 Co212 2.062 . S
O236 C237 1.255 . S
C237 O235 1.256 . S
C237 O236 1.255 . S
H238 C217 0.931 . S
H239 C225 0.931 . S
Co240 N245 2.057 . S
Co240 O257 2.021 . S
Co240 O260 2.062 . S
Co240 O264 2.117 1_556 S
Co240 O265 2.020 1_556 S
C241 O261 1.259 . S
C241 O264 1.258 . S
Co242 N251 2.057 . S
Co242 O258 2.117 1_554 S
Co242 O259 2.020 1_554 S
Co242 O261 2.021 . S
Co242 O266 2.062 . S
C243 N245 1.316 . S
C243 N246 1.347 . S
C243 H248 0.931 . S
C244 N245 1.375 . S
C244 C247 1.350 . S
C244 H249 0.930 . S
N245 Co240 2.057 . S
N245 C243 1.316 . S
N245 C244 1.375 . S
N246 C243 1.347 . S
N246 C247 1.373 . S
C247 C244 1.350 . S
C247 N246 1.373 . S
C247 H268 0.931 . S
H248 C243 0.931 . S
H249 C244 0.930 . S
C250 O257 1.259 . S
C250 O258 1.258 . S
N251 Co242 2.057 . S
N251 C252 1.316 . S
N251 C253 1.375 . S
C252 N251 1.316 . S
C252 N254 1.347 . S
C252 H263 0.931 . S
C253 N251 1.375 . S
C253 C255 1.350 . S
C253 H262 0.930 . S
N254 C252 1.347 . S
N254 C255 1.373 . S
C255 C253 1.350 . S
C255 N254 1.373 . S
C255 H269 0.931 . S
C256 O259 1.256 . S
C256 O260 1.255 . S
O257 Co240 2.021 . S
O257 C250 1.259 . S
O258 Co242 2.117 1_556 S
O258 C250 1.258 . S
O259 Co242 2.020 1_556 S
O259 C256 1.256 . S
O260 Co240 2.062 . S
O260 C256 1.255 . S
O261 C241 1.259 . S
O261 Co242 2.021 . S
H262 C253 0.930 . S
H263 C252 0.931 . S
O264 Co240 2.117 1_554 S
O264 C241 1.258 . S
O265 Co240 2.020 1_554 S
O265 C267 1.256 . S
O266 Co242 2.062 . S
O266 C267 1.255 . S
C267 O265 1.256 . S
C267 O266 1.255 . S
H268 C247 0.931 . S
H269 C255 0.931 . S
Co270 N275 2.057 . S
Co270 O287 2.021 . S
Co270 O290 2.062 . S
Co270 O294 2.117 . S
Co270 O295 2.020 . S
C271 O291 1.259 . S
C271 O294 1.258 . S
Co272 N281 2.057 . S
Co272 O288 2.117 . S
Co272 O289 2.020 . S
Co272 O291 2.021 . S
Co272 O296 2.062 . S
C273 N275 1.316 . S
C273 N276 1.347 . S
C273 H278 0.931 . S
C274 N275 1.375 . S
C274 C277 1.350 . S
C274 H279 0.930 . S
N275 Co270 2.057 . S
N275 C273 1.316 . S
N275 C274 1.375 . S
N276 C273 1.347 . S
N276 C277 1.373 . S
C277 C274 1.350 . S
C277 N276 1.373 . S
C277 H298 0.931 . S
H278 C273 0.931 . S
H279 C274 0.930 . S
C280 O287 1.259 . S
C280 O288 1.258 . S
N281 Co272 2.057 . S
N281 C282 1.316 . S
N281 C283 1.375 . S
C282 N281 1.316 . S
C282 N284 1.347 . S
C282 H293 0.931 . S
C283 N281 1.375 . S
C283 C285 1.350 . S
C283 H292 0.930 . S
N284 C282 1.347 . S
N284 C285 1.373 . S
C285 C283 1.350 . S
C285 N284 1.373 . S
C285 H299 0.931 1_554 S
C286 O289 1.256 . S
C286 O290 1.255 . S
O287 Co270 2.021 . S
O287 C280 1.259 . S
O288 Co272 2.117 . S
O288 C280 1.258 . S
O289 Co272 2.020 . S
O289 C286 1.256 . S
O290 Co270 2.062 . S
O290 C286 1.255 . S
O291 C271 1.259 . S
O291 Co272 2.021 . S
H292 C283 0.930 . S
H293 C282 0.931 . S
O294 Co270 2.117 . S
O294 C271 1.258 . S
O295 Co270 2.020 . S
O295 C297 1.256 . S
O296 Co272 2.062 . S
O296 C297 1.255 . S
C297 O295 1.256 . S
C297 O296 1.255 . S
H298 C277 0.931 . S
H299 C285 0.931 1_556 S
Co300 N305 2.057 . S
Co300 O317 2.021 . S
Co300 O320 2.062 . S
Co300 O324 2.117 1_655 S
Co300 O325 2.020 . S
C301 O321 1.259 . S
C301 O324 1.258 . S
Co302 N311 2.057 . S
Co302 O318 2.117 1_455 S
Co302 O319 2.020 . S
Co302 O321 2.021 . S
Co302 O326 2.062 . S
C303 N305 1.316 . S
C303 N306 1.347 . S
C303 H308 0.931 . S
C304 N305 1.375 . S
C304 C307 1.350 . S
C304 H309 0.930 . S
N305 Co300 2.057 . S
N305 C303 1.316 . S
N305 C304 1.375 . S
N306 C303 1.347 . S
N306 C307 1.373 . S
C307 C304 1.350 . S
C307 N306 1.373 . S
C307 H328 0.931 . S
H308 C303 0.931 . S
H309 C304 0.930 . S
C310 O317 1.259 . S
C310 O318 1.258 . S
N311 Co302 2.057 . S
N311 C312 1.316 . S
N311 C313 1.375 . S
C312 N311 1.316 . S
C312 N314 1.347 . S
C312 H323 0.931 . S
C313 N311 1.375 . S
C313 C315 1.350 . S
C313 H322 0.930 . S
N314 C312 1.347 . S
N314 C315 1.373 . S
C315 C313 1.350 . S
C315 N314 1.373 . S
C315 H329 0.931 . S
C316 O319 1.256 1_655 S
C316 O320 1.255 . S
O317 Co300 2.021 . S
O317 C310 1.259 . S
O318 Co302 2.117 1_655 S
O318 C310 1.258 . S
O319 Co302 2.020 . S
O319 C316 1.256 1_455 S
O320 Co300 2.062 . S
O320 C316 1.255 . S
O321 C301 1.259 . S
O321 Co302 2.021 . S
H322 C313 0.930 . S
H323 C312 0.931 . S
O324 Co300 2.117 1_455 S
O324 C301 1.258 . S
O325 Co300 2.020 . S
O325 C327 1.256 1_655 S
O326 Co302 2.062 . S
O326 C327 1.255 . S
C327 O325 1.256 1_455 S
C327 O326 1.255 . S
H328 C307 0.931 . S
H329 C315 0.931 . S
Co330 N335 2.057 . S
Co330 O347 2.021 . S
Co330 O350 2.062 . S
Co330 O354 2.117 . S
Co330 O355 2.020 . S
C331 O351 1.259 . S
C331 O354 1.258 . S
Co332 N341 2.057 . S
Co332 O348 2.117 . S
Co332 O349 2.020 . S
Co332 O351 2.021 . S
Co332 O356 2.062 . S
C333 N335 1.316 . S
C333 N336 1.347 . S
C333 H338 0.931 . S
C334 N335 1.375 . S
C334 C337 1.350 . S
C334 H339 0.930 . S
N335 Co330 2.057 . S
N335 C333 1.316 . S
N335 C334 1.375 . S
N336 C333 1.347 . S
N336 C337 1.373 . S
C337 C334 1.350 . S
C337 N336 1.373 . S
C337 H358 0.931 1_565 S
H338 C333 0.931 . S
H339 C334 0.930 . S
C340 O347 1.259 . S
C340 O348 1.258 . S
N341 Co332 2.057 . S
N341 C342 1.316 . S
N341 C343 1.375 . S
C342 N341 1.316 . S
C342 N344 1.347 . S
C342 H353 0.931 . S
C343 N341 1.375 . S
C343 C345 1.350 . S
C343 H352 0.930 . S
N344 C342 1.347 . S
N344 C345 1.373 . S
C345 C343 1.350 . S
C345 N344 1.373 . S
C345 H359 0.931 . S
C346 O349 1.256 . S
C346 O350 1.255 . S
O347 Co330 2.021 . S
O347 C340 1.259 . S
O348 Co332 2.117 . S
O348 C340 1.258 . S
O349 Co332 2.020 . S
O349 C346 1.256 . S
O350 Co330 2.062 . S
O350 C346 1.255 . S
O351 C331 1.259 . S
O351 Co332 2.021 . S
H352 C343 0.930 . S
H353 C342 0.931 . S
O354 Co330 2.117 . S
O354 C331 1.258 . S
O355 Co330 2.020 . S
O355 C357 1.256 . S
O356 Co332 2.062 . S
O356 C357 1.255 . S
C357 O355 1.256 . S
C357 O356 1.255 . S
H358 C337 0.931 1_545 S
H359 C345 0.931 . S
Co360 N365 2.057 . S
Co360 O377 2.021 . S
Co360 O380 2.062 . S
Co360 O384 2.117 . S
Co360 O385 2.020 . S
C361 O381 1.259 . S
C361 O384 1.258 . S
Co362 N371 2.057 . S
Co362 O378 2.117 . S
Co362 O379 2.020 . S
Co362 O381 2.021 . S
Co362 O386 2.062 . S
C363 N365 1.316 . S
C363 N366 1.347 . S
C363 H368 0.931 . S
C364 N365 1.375 . S
C364 C367 1.350 . S
C364 H369 0.930 . S
N365 Co360 2.057 . S
N365 C363 1.316 . S
N365 C364 1.375 . S
N366 C363 1.347 . S
N366 C367 1.373 . S
C367 C364 1.350 . S
C367 N366 1.373 . S
C367 H388 0.931 . S
H368 C363 0.931 . S
H369 C364 0.930 . S
C370 O377 1.259 . S
C370 O378 1.258 . S
N371 Co362 2.057 . S
N371 C372 1.316 . S
N371 C373 1.375 . S
C372 N371 1.316 . S
C372 N374 1.347 . S
C372 H383 0.931 . S
C373 N371 1.375 . S
C373 C375 1.350 . S
C373 H382 0.930 . S
N374 C372 1.347 . S
N374 C375 1.373 . S
C375 C373 1.350 . S
C375 N374 1.373 . S
C375 H389 0.931 . S
C376 O379 1.256 . S
C376 O380 1.255 . S
O377 Co360 2.021 . S
O377 C370 1.259 . S
O378 Co362 2.117 . S
O378 C370 1.258 . S
O379 Co362 2.020 . S
O379 C376 1.256 . S
O380 Co360 2.062 . S
O380 C376 1.255 . S
O381 C361 1.259 . S
O381 Co362 2.021 . S
H382 C373 0.930 . S
H383 C372 0.931 . S
O384 Co360 2.117 . S
O384 C361 1.258 . S
O385 Co360 2.020 . S
O385 C387 1.256 . S
O386 Co362 2.062 . S
O386 C387 1.255 . S
C387 O385 1.256 . S
C387 O386 1.255 . S
H388 C367 0.931 . S
H389 C375 0.931 . S
Co390 N395 2.057 . S
Co390 O407 2.021 . S
Co390 O410 2.062 . S
Co390 O414 2.117 . S
Co390 O415 2.020 . S
C391 O411 1.259 . S
C391 O414 1.258 . S
Co392 N401 2.057 . S
Co392 O408 2.117 . S
Co392 O409 2.020 . S
Co392 O411 2.021 . S
Co392 O416 2.062 . S
C393 N395 1.316 . S
C393 N396 1.347 . S
C393 H398 0.931 . S
C394 N395 1.375 . S
C394 C397 1.350 . S
C394 H399 0.930 . S
N395 Co390 2.057 . S
N395 C393 1.316 . S
N395 C394 1.375 . S
N396 C393 1.347 . S
N396 C397 1.373 . S
C397 C394 1.350 . S
C397 N396 1.373 . S
C397 H418 0.931 . S
H398 C393 0.931 . S
H399 C394 0.930 . S
C400 O407 1.259 . S
C400 O408 1.258 . S
N401 Co392 2.057 . S
N401 C402 1.316 . S
N401 C403 1.375 . S
C402 N401 1.316 . S
C402 N404 1.347 . S
C402 H413 0.931 . S
C403 N401 1.375 . S
C403 C405 1.350 . S
C403 H412 0.930 . S
N404 C402 1.347 . S
N404 C405 1.373 . S
C405 C403 1.350 . S
C405 N404 1.373 . S
C405 H419 0.931 . S
C406 O409 1.256 . S
C406 O410 1.255 . S
O407 Co390 2.021 . S
O407 C400 1.259 . S
O408 Co392 2.117 . S
O408 C400 1.258 . S
O409 Co392 2.020 . S
O409 C406 1.256 . S
O410 Co390 2.062 . S
O410 C406 1.255 . S
O411 C391 1.259 . S
O411 Co392 2.021 . S
H412 C403 0.930 . S
H413 C402 0.931 . S
O414 Co390 2.117 . S
O414 C391 1.258 . S
O415 Co390 2.020 . S
O415 C417 1.256 . S
O416 Co392 2.062 . S
O416 C417 1.255 . S
C417 O415 1.256 . S
C417 O416 1.255 . S
H418 C397 0.931 . S
H419 C405 0.931 . S
Co420 N425 2.057 . S
Co420 O437 2.021 . S
Co420 O440 2.062 . S
Co420 O444 2.117 . S
Co420 O445 2.020 . S
C421 O441 1.259 . S
C421 O444 1.258 . S
Co422 N431 2.057 . S
Co422 O438 2.117 . S
Co422 O439 2.020 . S
Co422 O441 2.021 . S
Co422 O446 2.062 . S
C423 N425 1.316 . S
C423 N426 1.347 . S
C423 H428 0.931 . S
C424 N425 1.375 . S
C424 C427 1.350 . S
C424 H429 0.930 . S
N425 Co420 2.057 . S
N425 C423 1.316 . S
N425 C424 1.375 . S
N426 C423 1.347 . S
N426 C427 1.373 . S
C427 C424 1.350 . S
C427 N426 1.373 . S
C427 H448 0.931 . S
H428 C423 0.931 . S
H429 C424 0.930 . S
C430 O437 1.259 . S
C430 O438 1.258 . S
N431 Co422 2.057 . S
N431 C432 1.316 . S
N431 C433 1.375 . S
C432 N431 1.316 . S
C432 N434 1.347 . S
C432 H443 0.931 . S
C433 N431 1.375 . S
C433 C435 1.350 . S
C433 H442 0.930 . S
N434 C432 1.347 . S
N434 C435 1.373 . S
C435 C433 1.350 . S
C435 N434 1.373 . S
C435 H449 0.931 . S
C436 O439 1.256 . S
C436 O440 1.255 . S
O437 Co420 2.021 . S
O437 C430 1.259 . S
O438 Co422 2.117 . S
O438 C430 1.258 . S
O439 Co422 2.020 . S
O439 C436 1.256 . S
O440 Co420 2.062 . S
O440 C436 1.255 . S
O441 C421 1.259 . S
O441 Co422 2.021 . S
H442 C433 0.930 . S
H443 C432 0.931 . S
O444 Co420 2.117 . S
O444 C421 1.258 . S
O445 Co420 2.020 . S
O445 C447 1.256 . S
O446 Co422 2.062 . S
O446 C447 1.255 . S
C447 O445 1.256 . S
C447 O446 1.255 . S
H448 C427 0.931 . S
H449 C435 0.931 . S
Co450 N455 2.057 . S
Co450 O467 2.021 1_454 S
Co450 O470 2.062 1_554 S
Co450 O474 2.117 . S
Co450 O475 2.020 1_455 S
C451 O471 1.259 . S
C451 O474 1.258 . S
Co452 N461 2.057 . S
Co452 O468 2.117 . S
Co452 O469 2.020 1_655 S
Co452 O471 2.021 1_656 S
Co452 O476 2.062 1_556 S
C453 N455 1.316 . S
C453 N456 1.347 . S
C453 H458 0.931 . S
C454 N455 1.375 . S
C454 C457 1.350 . S
C454 H459 0.930 . S
N455 Co450 2.057 . S
N455 C453 1.316 . S
N455 C454 1.375 . S
N456 C453 1.347 . S
N456 C457 1.373 . S
C457 C454 1.350 . S
C457 N456 1.373 . S
C457 H478 0.931 . S
H458 C453 0.931 . S
H459 C454 0.930 . S
C460 O467 1.259 . S
C460 O468 1.258 . S
N461 Co452 2.057 . S
N461 C462 1.316 . S
N461 C463 1.375 . S
C462 N461 1.316 . S
C462 N464 1.347 . S
C462 H473 0.931 . S
C463 N461 1.375 . S
C463 C465 1.350 . S
C463 H472 0.930 . S
N464 C462 1.347 . S
N464 C465 1.373 . S
C465 C463 1.350 . S
C465 N464 1.373 . S
C465 H479 0.931 . S
C466 O469 1.256 . S
C466 O470 1.255 . S
O467 Co450 2.021 1_656 S
O467 C460 1.259 . S
O468 Co452 2.117 . S
O468 C460 1.258 . S
O469 Co452 2.020 1_455 S
O469 C466 1.256 . S
O470 Co450 2.062 1_556 S
O470 C466 1.255 . S
O471 C451 1.259 . S
O471 Co452 2.021 1_454 S
H472 C463 0.930 . S
H473 C462 0.931 . S
O474 Co450 2.117 . S
O474 C451 1.258 . S
O475 Co450 2.020 1_655 S
O475 C477 1.256 . S
O476 Co452 2.062 1_554 S
O476 C477 1.255 . S
C477 O475 1.256 . S
C477 O476 1.255 . S
H478 C457 0.931 . S
H479 C465 0.931 . S
C106 N14 2.612 . S
C16 C46 3.554 . S
C70 C31 1.527 . S
N104 C87 1.075 . S
C147 N164 0.544 . S
C151 C190 1.548 . S
N186 C220 1.415 . S
N126 N216 1.995 . S
C286 C1 3.373 . S
C327 N44 2.376 . S
N66 C417 1.033 . S
C250 C91 1.738 . S
C331 C130 1.741 . S
C421 C166 3.373 . S
C207 N374 2.376 . S
N456 C237 1.031 . S
N246 N396 1.994 . S
N284 C267 0.545 . S
C310 C271 1.546 . S
N434 C346 2.612 . S
C361 C460 1.528 . S
C357 N6 2.611 . S
C387 C27 3.554 . S
C370 C61 1.526 . S
C76 N336 1.074 . S
N276 C136 0.547 . S
C280 C181 1.543 . S
C391 N194 1.415 . S
N134 N404 1.992 . S
C177 C10 3.373 . S
C316 N366 2.378 . S
N74 C226 1.030 . S
C241 C340 1.739 . S
C100 C121 1.736 . S
C297 C430 3.373 . S
C196 N36 2.378 . S
N464 C406 1.031 . S
N254 N224 1.994 . S
C256 N156 0.546 . S
C301 C160 1.545 . S
C117 N426 2.612 . S
C40 C451 1.524 . S
C376 C436 3.554 . S
N344 C477 1.073 . S
N306 C400 1.416 . S
C447 C57 3.554 . S
N96 C466 1.077 . S
C211 N314 1.414 . S
