# Generated by pormake.
# Topology uoq, (4)-cn, num edge types: 1
# Building blocks:
#     Node 0, Type 0, BuildingBlock: GALJAG_clean_sbu_0, # of connection points: 4
#     Node 1, Type 0, BuildingBlock: GALJAG_clean_sbu_0, # of connection points: 4
#     Node 2, Type 0, BuildingBlock: GALJAG_clean_sbu_0, # of connection points: 4
#     Node 3, Type 0, BuildingBlock: GALJAG_clean_sbu_0, # of connection points: 4
#     Node 4, Type 0, BuildingBlock: GALJAG_clean_sbu_0, # of connection points: 4
#     Node 5, Type 0, BuildingBlock: GALJAG_clean_sbu_0, # of connection points: 4
#     Node 6, Type 0, BuildingBlock: GALJAG_clean_sbu_0, # of connection points: 4
#     Node 7, Type 0, BuildingBlock: GALJAG_clean_sbu_0, # of connection points: 4
#     Node 8, Type 0, BuildingBlock: GALJAG_clean_sbu_0, # of connection points: 4
#     Node 9, Type 0, BuildingBlock: GALJAG_clean_sbu_0, # of connection points: 4
#     Node 10, Type 0, BuildingBlock: GALJAG_clean_sbu_0, # of connection points: 4
#     Node 11, Type 0, BuildingBlock: GALJAG_clean_sbu_0, # of connection points: 4
#     Edge 12, Type (0, 0), BuildingBlock: UVAHIK_clean_linker_0, # of connection points: 2
#     Edge 13, Type (0, 0), BuildingBlock: UVAHIK_clean_linker_0, # of connection points: 2
#     Edge 14, Type (0, 0), BuildingBlock: UVAHIK_clean_linker_0, # of connection points: 2
#     Edge 15, Type (0, 0), BuildingBlock: UVAHIK_clean_linker_0, # of connection points: 2
#     Edge 16, Type (0, 0), BuildingBlock: UVAHIK_clean_linker_0, # of connection points: 2
#     Edge 17, Type (0, 0), BuildingBlock: UVAHIK_clean_linker_0, # of connection points: 2
#     Edge 18, Type (0, 0), BuildingBlock: UVAHIK_clean_linker_0, # of connection points: 2
#     Edge 19, Type (0, 0), BuildingBlock: UVAHIK_clean_linker_0, # of connection points: 2
#     Edge 20, Type (0, 0), BuildingBlock: UVAHIK_clean_linker_0, # of connection points: 2
#     Edge 21, Type (0, 0), BuildingBlock: UVAHIK_clean_linker_0, # of connection points: 2
#     Edge 22, Type (0, 0), BuildingBlock: UVAHIK_clean_linker_0, # of connection points: 2
#     Edge 23, Type (0, 0), BuildingBlock: UVAHIK_clean_linker_0, # of connection points: 2
#     Edge 24, Type (0, 0), BuildingBlock: UVAHIK_clean_linker_0, # of connection points: 2
#     Edge 25, Type (0, 0), BuildingBlock: UVAHIK_clean_linker_0, # of connection points: 2
#     Edge 26, Type (0, 0), BuildingBlock: UVAHIK_clean_linker_0, # of connection points: 2
#     Edge 27, Type (0, 0), BuildingBlock: UVAHIK_clean_linker_0, # of connection points: 2
#     Edge 28, Type (0, 0), BuildingBlock: UVAHIK_clean_linker_0, # of connection points: 2
#     Edge 29, Type (0, 0), BuildingBlock: UVAHIK_clean_linker_0, # of connection points: 2
#     Edge 30, Type (0, 0), BuildingBlock: UVAHIK_clean_linker_0, # of connection points: 2
#     Edge 31, Type (0, 0), BuildingBlock: UVAHIK_clean_linker_0, # of connection points: 2
#     Edge 32, Type (0, 0), BuildingBlock: UVAHIK_clean_linker_0, # of connection points: 2
#     Edge 33, Type (0, 0), BuildingBlock: UVAHIK_clean_linker_0, # of connection points: 2
#     Edge 34, Type (0, 0), BuildingBlock: UVAHIK_clean_linker_0, # of connection points: 2
#     Edge 35, Type (0, 0), BuildingBlock: UVAHIK_clean_linker_0, # of connection points: 2
# Relax obj value: 0.135
# Max RMSD: 0.151
# Mean RMSD: 0.151
data_MOF--net-uoq--node1-GALJAG_clean_sbu_0--edge1-UVAHIK_clean_linker_0
_symmetry_space_group_name_H-M    P1
_symmetry_Int_Tables_number       1
_symmetry_cell_setting            triclinic
loop_
_symmetry_equiv_pos_as_xyz
'x, y, z'
_cell_length_a     80.955173
_cell_length_b     80.924888
_cell_length_c     26.042515
_cell_angle_alpha  90.048646
_cell_angle_beta   89.958203
_cell_angle_gamma 120.03342
loop_
_atom_site_label
_atom_site_type_symbol
_atom_site_fract_x
_atom_site_fract_y
_atom_site_fract_z
_atom_type_partial_charge
In0 In 0.31042 0.44608 0.25375 0.0
O1 O 0.28554 0.43463 0.30938 0.0
O2 O 0.3003 0.46444 0.294 0.0
C3 C 0.31863 0.4181 0.27045 0.0
C4 C 0.28947 0.44057 0.16795 0.0
C5 C 0.34525 0.47627 0.27193 0.0
O6 O 0.30927 0.42215 0.30158 0.0
O7 O 0.32365 0.42797 0.22988 0.0
O8 O 0.33917 0.47077 0.22682 0.0
O9 O 0.3338 0.46651 0.30714 0.0
C10 C 0.28692 0.45063 0.31764 0.0
O11 O 0.30434 0.45624 0.17753 0.0
O12 O 0.28593 0.42753 0.19989 0.0
In13 In 0.86226 0.31156 0.58073 0.0
O14 O 0.85177 0.30395 0.66297 0.0
O15 O 0.84155 0.28143 0.60821 0.0
C16 C 0.89878 0.31947 0.59139 0.0
C17 C 0.84254 0.29349 0.4953 0.0
C18 C 0.86216 0.34448 0.59708 0.0
O19 O 0.88509 0.30657 0.61626 0.0
O20 O 0.89407 0.32812 0.55966 0.0
O21 O 0.86896 0.34162 0.55658 0.0
O22 O 0.8552 0.33071 0.62811 0.0
C23 C 0.84128 0.28635 0.65404 0.0
O24 O 0.83799 0.3032 0.52375 0.0
O25 O 0.85765 0.2937 0.50847 0.0
In26 In 0.54719 0.86363 0.91155 0.0
O27 O 0.55862 0.85102 0.96958 0.0
O28 O 0.52909 0.83492 0.95117 0.0
C29 C 0.57501 0.90004 0.92704 0.0
C30 C 0.55311 0.84793 0.8268 0.0
C31 C 0.51672 0.86769 0.93073 0.0
O32 O 0.57137 0.88669 0.95794 0.0
O33 O 0.56482 0.89504 0.88702 0.0
O34 O 0.52177 0.86664 0.88542 0.0
O35 O 0.52705 0.86677 0.96552 0.0
C36 C 0.54283 0.83601 0.97671 0.0
O37 O 0.53767 0.84785 0.83435 0.0
O38 O 0.56576 0.8569 0.8601 0.0
In39 In 0.68167 0.54972 0.23653 0.0
O40 O 0.70273 0.56247 0.30231 0.0
O41 O 0.69555 0.53472 0.27657 0.0
C42 C 0.67311 0.57783 0.24386 0.0
C43 C 0.70231 0.55285 0.15144 0.0
C44 C 0.64727 0.51934 0.25878 0.0
O45 O 0.68537 0.57697 0.27165 0.0
O46 O 0.66543 0.56475 0.21065 0.0
O47 O 0.6526 0.52467 0.2132 0.0
O48 O 0.65919 0.52939 0.29272 0.0
C49 C 0.7051 0.5483 0.30723 0.0
O50 O 0.68835 0.53727 0.16608 0.0
O51 O 0.70523 0.56706 0.17809 0.0
In52 In 0.13023 0.68166 0.58005 0.0
O53 O 0.14967 0.68843 0.51031 0.0
O54 O 0.13596 0.70469 0.52053 0.0
C55 C 0.12652 0.6474 0.60301 0.0
C56 C 0.15493 0.70494 0.65139 0.0
C57 C 0.09389 0.67432 0.5831 0.0
O58 O 0.12588 0.65234 0.55741 0.0
O59 O 0.12896 0.65965 0.63651 0.0
O60 O 0.10726 0.68785 0.60755 0.0
O61 O 0.09894 0.66478 0.5555 0.0
C62 C 0.14759 0.70202 0.49468 0.0
O63 O 0.1372 0.69851 0.65462 0.0
O64 O 0.16017 0.69948 0.61242 0.0
In65 In 0.44247 0.13 0.90906 0.0
O66 O 0.4333 0.13774 0.98363 0.0
O67 O 0.45512 0.16027 0.93995 0.0
C68 C 0.41371 0.09356 0.91553 0.0
C69 C 0.43874 0.14669 0.82334 0.0
C70 C 0.47351 0.12698 0.9302 0.0
O71 O 0.41378 0.10713 0.93945 0.0
O72 O 0.42787 0.09844 0.88632 0.0
O73 O 0.46777 0.1265 0.88486 0.0
O74 O 0.46353 0.1288 0.96442 0.0
C75 C 0.44471 0.15542 0.97942 0.0
O76 O 0.45437 0.14825 0.83721 0.0
O77 O 0.4247 0.13579 0.85114 0.0
In78 In 0.54877 0.68428 0.41405 0.0
O79 O 0.5593 0.7051 0.34779 0.0
O80 O 0.53103 0.69531 0.37439 0.0
C81 C 0.57705 0.67602 0.40429 0.0
C82 C 0.55445 0.70712 0.49603 0.0
C83 C 0.51845 0.64954 0.39488 0.0
O84 O 0.57482 0.68691 0.37423 0.0
O85 O 0.56528 0.66958 0.44098 0.0
O86 O 0.52318 0.65588 0.44008 0.0
O87 O 0.52902 0.66064 0.36015 0.0
C88 C 0.54407 0.70562 0.34308 0.0
O89 O 0.53949 0.69112 0.49087 0.0
O90 O 0.56678 0.71097 0.46163 0.0
In91 In 0.86329 0.55027 0.74182 0.0
O92 O 0.84935 0.56445 0.69809 0.0
O93 O 0.84051 0.53556 0.68052 0.0
C94 C 0.89927 0.57944 0.73037 0.0
C95 C 0.84396 0.54981 0.82704 0.0
C96 C 0.86891 0.52056 0.72573 0.0
O97 O 0.88592 0.57638 0.70004 0.0
O98 O 0.89442 0.56801 0.76779 0.0
O99 O 0.86539 0.52457 0.76986 0.0
O100 O 0.86986 0.53168 0.6905 0.0
C101 C 0.83867 0.54986 0.67176 0.0
O102 O 0.83938 0.53519 0.80019 0.0
O103 O 0.85898 0.56455 0.81261 0.0
In104 In 0.31004 0.86413 0.08645 0.0
O105 O 0.30392 0.84549 0.1575 0.0
O106 O 0.28667 0.85799 0.14543 0.0
C107 C 0.34432 0.86798 0.06315 0.0
C108 C 0.28668 0.83875 0.01643 0.0
C109 C 0.31738 0.90046 0.08062 0.0
O110 O 0.3394 0.86863 0.10878 0.0
O111 O 0.33205 0.86551 0.02973 0.0
O112 O 0.30415 0.88691 0.05594 0.0
O113 O 0.32656 0.89561 0.11023 0.0
C114 C 0.28988 0.84695 0.17228 0.0
O115 O 0.29216 0.85632 0.01371 0.0
O116 O 0.29313 0.83402 0.05422 0.0
In117 In 0.44484 0.31213 0.41666 0.0
O118 O 0.45698 0.30511 0.48694 0.0
O119 O 0.42711 0.28873 0.47491 0.0
C120 C 0.47558 0.34621 0.39353 0.0
C121 C 0.44628 0.28889 0.34511 0.0
C122 C 0.41661 0.3206 0.41519 0.0
O123 O 0.47076 0.34077 0.4393 0.0
O124 O 0.46489 0.33454 0.35994 0.0
O125 O 0.41598 0.30704 0.38976 0.0
O126 O 0.43126 0.32958 0.44296 0.0
C127 C 0.44122 0.29138 0.50157 0.0
O128 O 0.43439 0.29462 0.34318 0.0
O129 O 0.45752 0.29502 0.38287 0.0
In130 In 0.12891 0.44356 0.75388 0.0
O131 O 0.14425 0.45187 0.83193 0.0
O132 O 0.13964 0.42631 0.79665 0.0
C133 C 0.12411 0.4737 0.73574 0.0
C134 C 0.1543 0.44937 0.67964 0.0
C135 C 0.09255 0.41447 0.74945 0.0
O136 O 0.12783 0.47009 0.78008 0.0
O137 O 0.12264 0.46205 0.70143 0.0
O138 O 0.1055 0.41607 0.71959 0.0
O139 O 0.09801 0.42733 0.7833 0.0
C140 C 0.14685 0.43776 0.83358 0.0
O141 O 0.13815 0.43448 0.68238 0.0
O142 O 0.15774 0.46151 0.71453 0.0
In143 In 0.68077 0.13171 0.0871 0.0
O144 O 0.68664 0.14997 0.15884 0.0
O145 O 0.70368 0.13718 0.14669 0.0
C146 C 0.64768 0.13043 0.06315 0.0
C147 C 0.70546 0.15613 0.01749 0.0
C148 C 0.67179 0.0948 0.08377 0.0
O149 O 0.65222 0.12927 0.10881 0.0
O150 O 0.65981 0.13226 0.02994 0.0
O151 O 0.68611 0.10795 0.0612 0.0
O152 O 0.66235 0.10034 0.10992 0.0
C153 C 0.70046 0.14816 0.1739 0.0
O154 O 0.69678 0.13827 0.01115 0.0
O155 O 0.70141 0.16165 0.05844 0.0
C156 C 0.33779 0.40225 0.25226 0.0
C157 C 0.32442 0.40393 0.28284 0.0
C158 C 0.34476 0.39031 0.26738 0.0
C159 C 0.35176 0.36894 0.38417 0.0
H160 H 0.36524 0.34135 0.28687 0.0
C161 C 0.40529 0.34381 0.43038 0.0
C162 C 0.40236 0.3267 0.40842 0.0
C163 C 0.39319 0.3509 0.41822 0.0
C164 C 0.36131 0.34874 0.31471 0.0
H165 H 0.30713 0.39377 0.35177 0.0
H166 H 0.31901 0.37269 0.37761 0.0
H167 H 0.34831 0.35735 0.25715 0.0
H168 H 0.38391 0.30305 0.35879 0.0
H169 H 0.36258 0.31524 0.33829 0.0
H170 H 0.36471 0.36028 0.44176 0.0
C171 C 0.32445 0.38088 0.3426 0.0
C172 C 0.35182 0.35811 0.29752 0.0
C173 C 0.31755 0.39287 0.32762 0.0
C174 C 0.38658 0.31634 0.37607 0.0
C175 C 0.37445 0.32339 0.36403 0.0
C176 C 0.36122 0.35954 0.40137 0.0
C177 C 0.33843 0.37977 0.31327 0.0
C178 C 0.34718 0.36855 0.33193 0.0
C179 C 0.37788 0.34098 0.38399 0.0
C180 C 0.36635 0.34956 0.36672 0.0
H181 H 0.34336 0.41065 0.21762 0.0
H182 H 0.35567 0.38994 0.24414 0.0
H183 H 0.34858 0.37702 0.41165 0.0
H184 H 0.41738 0.35213 0.45532 0.0
H185 H 0.39636 0.36458 0.4339 0.0
C186 C 0.92299 0.31549 0.64061 0.0
C187 C 0.91879 0.32517 0.60265 0.0
C188 C 0.9418 0.32223 0.65611 0.0
C189 C 0.99214 0.3546 0.62009 0.0
H190 H 0.00072 0.35809 0.76727 0.0
C191 C 0.05772 0.40103 0.76685 0.0
C192 C 0.07237 0.39998 0.7409 0.0
C193 C 0.03868 0.38913 0.75256 0.0
C194 C -0.00145 0.3572 0.72611 0.0
H195 H 0.93099 0.34899 0.5496 0.0
H196 H 0.96388 0.36084 0.5768 0.0
H197 H 0.96818 0.34267 0.73411 0.0
H198 H 0.07859 0.38486 0.68209 0.0
H199 H 0.04541 0.36396 0.65774 0.0
H200 H 0.02249 0.36974 0.61204 0.0
C201 C 0.95265 0.34796 0.59436 0.0
C202 C 0.97992 0.3482 0.70707 0.0
C203 C 0.93382 0.34123 0.57887 0.0
C204 C 0.06759 0.3861 0.70252 0.0
C205 C 0.04861 0.37421 0.68832 0.0
C206 C 0.01076 0.36355 0.6391 0.0
C207 C 0.95679 0.33876 0.63392 0.0
C208 C 0.97653 0.34702 0.65386 0.0
C209 C 0.03399 0.37597 0.71213 0.0
C210 C 0.01417 0.36515 0.69233 0.0
H211 H 0.91169 0.30301 0.65946 0.0
H212 H 0.94457 0.31466 0.68608 0.0
H213 H 0.98998 0.35378 0.57891 0.0
H214 H 0.06101 0.41163 0.7965 0.0
H215 H 0.02775 0.3909 0.77145 0.0
C216 C 0.59021 0.93512 0.90986 0.0
C217 C 0.58901 0.92007 0.93948 0.0
C218 C 0.60188 0.95404 0.92562 0.0
C219 C 0.62283 0.98184 0.04345 0.0
H220 H 0.65048 0.02381 0.94876 0.0
C221 C 0.648 0.06019 0.09542 0.0
C222 C 0.66542 0.07445 0.07515 0.0
C223 C 0.64073 0.04111 0.08147 0.0
C224 C 0.64304 0.01223 0.97583 0.0
H225 H 0.59979 0.91299 0.0072 0.0
H226 H 0.62033 0.94593 0.03415 0.0
H227 H 0.63463 0.99108 0.9168 0.0
H228 H 0.68937 0.07988 0.02643 0.0
H229 H 0.67679 0.04653 0.00263 0.0
H230 H 0.63123 0.00296 0.10247 0.0
C231 C 0.61199 0.94316 -0.00057 0.0
C232 C 0.63378 0.9935 0.95738 0.0
C233 C 0.60031 0.9243 0.98379 0.0
C234 C 0.67585 0.06919 0.04252 0.0
C235 C 0.66859 0.05012 0.02856 0.0
C236 C 0.63208 0.00055 0.06187 0.0
C237 C 0.61257 0.95823 0.97121 0.0
C238 C 0.62341 0.9781 0.99092 0.0
C239 C 0.65075 0.03592 0.047 0.0
C240 C 0.64211 0.01598 0.02819 0.0
H241 H 0.58161 0.93226 0.8756 0.0
H242 H 0.6019 0.96533 0.90322 0.0
H243 H 0.61479 0.97032 0.07025 0.0
H244 H 0.63963 0.06383 0.12052 0.0
H245 H 0.62687 0.03054 0.09601 0.0
C246 C 0.67638 0.60615 0.2909 0.0
C247 C 0.66691 0.59186 0.25373 0.0
C248 C 0.66914 0.61785 0.30579 0.0
C249 C 0.63501 0.6337 0.27001 0.0
H250 H 0.63325 0.64059 0.41701 0.0
C251 C 0.59052 0.65457 0.42035 0.0
C252 C 0.59105 0.66986 0.3935 0.0
C253 C 0.60201 0.6471 0.40484 0.0
C254 C 0.6336 0.63876 0.37589 0.0
H255 H 0.64292 0.57914 0.20133 0.0
H256 H 0.63011 0.5995 0.22762 0.0
H257 H 0.64892 0.62373 0.38391 0.0
H258 H 0.60477 0.69006 0.33138 0.0
H259 H 0.625 0.67725 0.30495 0.0
H260 H 0.6191 0.64812 0.26208 0.0
C261 C 0.64325 0.60177 0.24497 0.0
C262 C 0.64277 0.62929 0.35685 0.0
C263 C 0.65054 0.59008 0.22997 0.0
C264 C 0.60394 0.67815 0.35259 0.0
C265 C 0.61544 0.67074 0.33719 0.0
C266 C 0.62586 0.64317 0.28905 0.0
C267 C 0.65223 0.61549 0.28393 0.0
C268 C 0.64344 0.62652 0.30372 0.0
C269 C 0.61426 0.65483 0.36228 0.0
C270 C 0.62491 0.64567 0.34223 0.0
H271 H 0.68912 0.60794 0.30966 0.0
H272 H 0.6766 0.62853 0.33515 0.0
H273 H 0.63541 0.63192 0.22889 0.0
H274 H 0.58066 0.64787 0.45193 0.0
H275 H 0.60068 0.63475 0.42478 0.0
C276 C 0.92353 0.60623 0.6771 0.0
C277 C 0.91924 0.59405 0.71958 0.0
C278 C 0.94243 0.61836 0.66246 0.0
C279 C 0.99268 0.63929 0.70501 0.0
H280 H 0.00257 0.6384 0.55952 0.0
C281 C 0.06901 0.67958 0.62409 0.0
C282 C 0.07375 0.66893 0.59073 0.0
C283 C 0.04999 0.67315 0.6369 0.0
C284 C 4e-05 0.63881 0.60023 0.0
H285 H 0.93135 0.58565 0.78152 0.0
H286 H 0.96442 0.60672 0.75569 0.0
H287 H 0.96979 0.62232 0.59069 0.0
H288 H 0.06229 0.64367 0.54277 0.0
H289 H 0.02909 0.63234 0.56539 0.0
H290 H 0.02296 0.65508 0.71479 0.0
C291 C 0.95318 0.60703 0.73393 0.0
C292 C 0.98125 0.62978 0.61806 0.0
C293 C 0.93424 0.5949 0.74865 0.0
C294 C 0.05906 0.65219 0.56851 0.0
C295 C 0.04003 0.64575 0.58135 0.0
C296 C 0.01147 0.64834 0.68716 0.0
C297 C 0.95746 0.61855 0.68993 0.0
C298 C 0.97737 0.62966 0.67076 0.0
C299 C 0.03533 0.65593 0.61661 0.0
C300 C 0.01537 0.64792 0.63467 0.0
H301 H 0.91225 0.60598 0.65416 0.0
H302 H 0.94527 0.62732 0.62896 0.0
H303 H 0.99015 0.63962 0.74574 0.0
H304 H 0.08004 0.6926 0.64161 0.0
H305 H 0.0468 0.68147 0.6635 0.0
C306 C 0.33928 0.93548 0.09397 0.0
C307 C 0.32304 0.92056 0.07049 0.0
C308 C 0.34618 0.95437 0.07855 0.0
C309 C 0.34697 0.98138 0.96517 0.0
H310 H 0.36875 0.02457 0.05826 0.0
C311 C 0.38522 0.06904 0.96329 0.0
C312 C 0.39939 0.07345 0.92603 0.0
C313 C 0.37337 0.05021 0.97904 0.0
C314 C 0.36252 0.01265 0.03178 0.0
H315 H 0.30069 0.91374 0.0145 0.0
H316 H 0.31269 0.94669 0.98784 0.0
H317 H 0.35236 0.99219 0.09289 0.0
H318 H 0.41167 0.06153 0.87416 0.0
H319 H 0.3909 0.02855 0.90156 0.0
H320 H 0.35736 0.00183 0.90406 0.0
C321 C 0.32023 0.94378 0.01762 0.0
C322 C 0.35331 0.99413 0.05163 0.0
C323 C 0.3133 0.92494 0.03315 0.0
C324 C 0.40085 0.05855 0.9029 0.0
C325 C 0.38892 0.03967 0.91851 0.0
C326 C 0.35629 -0.00011 0.94532 0.0
C327 C 0.337 0.95864 0.03925 0.0
C328 C 0.34559 0.9783 0.01854 0.0
C329 C 0.3754 0.03538 0.95767 0.0
C330 C 0.36432 0.01572 0.97841 0.0
H331 H 0.34709 0.93252 0.12279 0.0
H332 H 0.3592 0.96551 0.09573 0.0
H333 H 0.34135 0.96946 0.93868 0.0
H334 H 0.3837 0.08023 0.98169 0.0
H335 H 0.36288 0.04729 0.00872 0.0
C336 C 0.16533 0.42256 0.86371 0.0
C337 C 0.15932 0.43591 0.87176 0.0
C338 C 0.17894 0.42218 0.89577 0.0
C339 C 0.21713 0.45263 0.98817 0.0
H340 H 0.21687 0.40541 0.01522 0.0
C341 C 0.28024 0.45296 0.09153 0.0
C342 C 0.27576 0.43838 0.12741 0.0
C343 C 0.26627 0.45192 0.05792 0.0
C344 C 0.21712 0.41874 0.00855 0.0
H345 H 0.1622 0.45878 0.92102 0.0
H346 H 0.18541 0.45762 0.97858 0.0
H347 H 0.19089 0.40467 0.96692 0.0
H348 H 0.25332 0.41105 0.15539 0.0
H349 H 0.22892 0.40948 0.09826 0.0
H350 H 0.24287 0.46658 0.03198 0.0
C351 C 0.18009 0.44783 0.94643 0.0
C352 C 0.20229 0.41834 0.98013 0.0
C353 C 0.16663 0.44838 0.91382 0.0
C354 C 0.25726 0.42245 0.12786 0.0
C355 C 0.24325 0.42153 0.09484 0.0
C356 C 0.23183 0.45299 0.01721 0.0
C357 C 0.18671 0.43497 0.93722 0.0
C358 C 0.20212 0.43529 0.96933 0.0
C359 C 0.24745 0.4364 0.05999 0.0
C360 C 0.23206 0.43606 0.0277 0.0
H361 H 0.16008 0.41285 0.83134 0.0
H362 H 0.18384 0.41228 0.88678 0.0
H363 H 0.21772 0.46603 0.98001 0.0
H364 H 0.2944 0.46538 0.09024 0.0
H365 H 0.27018 0.46344 0.03082 0.0
C366 C 0.81215 0.27969 0.44547 0.0
C367 C 0.8296 0.2805 0.45535 0.0
C368 C 0.79845 0.26533 0.41428 0.0
C369 C 0.7907 0.22824 0.31862 0.0
H370 H 0.73879 0.20364 0.37021 0.0
C371 C 0.73063 0.1602 0.22425 0.0
C372 C 0.7136 0.16031 0.21473 0.0
C373 C 0.74457 0.17391 0.25648 0.0
C374 C 0.75318 0.21043 0.3551 0.0
H375 H 0.84676 0.26748 0.43833 0.0
H376 H 0.82281 0.24235 0.38393 0.0
H377 H 0.76404 0.23052 0.41688 0.0
H378 H 0.6974 0.17422 0.23343 0.0
H379 H 0.72168 0.1981 0.28956 0.0
H380 H 0.7798 0.20816 0.2567 0.0
C381 C 0.81974 0.25287 0.40007 0.0
C382 C 0.76765 0.22589 0.38171 0.0
C383 C 0.83347 0.26726 0.43127 0.0
C384 C 0.71036 0.17374 0.24014 0.0
C385 C 0.72428 0.18741 0.2724 0.0
C386 C 0.77621 0.21276 0.29197 0.0
C387 C 0.80188 0.25144 0.39234 0.0
C388 C 0.78656 0.23506 0.36363 0.0
C389 C 0.74174 0.18795 0.27992 0.0
C390 C 0.75727 0.20374 0.30978 0.0
H391 H 0.80879 0.28974 0.46334 0.0
H392 H 0.78499 0.26487 0.40817 0.0
H393 H 0.80508 0.23509 0.30342 0.0
H394 H 0.73353 0.15001 0.20523 0.0
H395 H 0.75774 0.17374 0.26222 0.0
C396 C 0.5702 0.83201 0.79129 0.0
C397 C 0.55527 0.83606 0.7872 0.0
C398 C 0.57084 0.81855 0.75909 0.0
C399 C 0.55605 0.79438 0.63636 0.0
H400 H 0.55791 0.75257 0.70387 0.0
C401 C 0.5704 0.74062 0.52816 0.0
C402 C 0.55635 0.72137 0.53459 0.0
C403 C 0.57076 0.75469 0.55998 0.0
C404 C 0.55739 0.76416 0.68464 0.0
H405 H 0.52981 0.82987 0.74466 0.0
H406 H 0.53133 0.8067 0.68688 0.0
H407 H 0.55787 0.77791 0.75551 0.0
H408 H 0.53218 0.70162 0.58073 0.0
H409 H 0.53324 0.72629 0.63776 0.0
H410 H 0.55594 0.78083 0.56546 0.0
C411 C 0.54235 0.81382 0.71561 0.0
C412 C 0.55746 0.77866 0.71403 0.0
C413 C 0.5415 0.82706 0.74855 0.0
C414 C 0.54319 0.71634 0.575 0.0
C415 C 0.54378 0.73042 0.60753 0.0
C416 C 0.55637 0.78009 0.60694 0.0
C417 C 0.55676 0.80912 0.72152 0.0
C418 C 0.55675 0.79387 0.69013 0.0
C419 C 0.5573 0.74975 0.59946 0.0
C420 C 0.557 0.76485 0.63084 0.0
H421 H 0.58098 0.83865 0.82084 0.0
H422 H 0.58219 0.81528 0.76401 0.0
H423 H 0.55553 0.80598 0.61714 0.0
H424 H 0.5807 0.74495 0.49723 0.0
H425 H 0.58143 0.76948 0.55337 0.0
C426 C 0.73264 0.57111 0.10161 0.0
C427 C 0.71569 0.55389 0.11126 0.0
C428 C 0.74662 0.57147 0.06932 0.0
C429 C 0.75515 0.54363 0.97023 0.0
H430 H 0.80739 0.57181 0.01909 0.0
C431 C 0.81395 0.53353 0.8785 0.0
C432 C 0.83121 0.55019 0.86708 0.0
C433 C 0.8004 0.53432 0.91001 0.0
C434 C 0.79291 0.56402 0.00469 0.0
H435 H 0.69974 0.5237 0.09304 0.0
H436 H 0.72409 0.5243 0.03687 0.0
H437 H 0.78219 0.57316 0.06712 0.0
H438 H 0.84822 0.58058 0.88166 0.0
H439 H 0.82452 0.58197 0.93681 0.0
H440 H 0.76582 0.53439 0.90803 0.0
C441 C 0.72658 0.53757 0.05389 0.0
C442 C 0.77847 0.56484 0.03209 0.0
C443 C 0.71262 0.53721 0.0862 0.0
C444 C 0.83506 0.5675 0.88991 0.0
C445 C 0.82149 0.56829 0.92151 0.0
C446 C 0.76957 0.54279 0.94293 0.0
C447 C 0.74392 0.55462 0.04594 0.0
C448 C 0.7594 0.55456 0.01533 0.0
C449 C 0.8038 0.55178 0.9308 0.0
C450 C 0.78859 0.55285 0.96003 0.0
H451 H 0.73539 0.5842 0.12039 0.0
H452 H 0.75968 0.58489 0.06329 0.0
H453 H 0.74067 0.53579 0.95584 0.0
H454 H 0.81059 0.51996 0.86164 0.0
H455 H 0.78708 0.52128 0.91732 0.0
C456 C 0.17526 0.7141 0.43448 0.0
C457 C 0.15984 0.71542 0.4544 0.0
C458 C 0.18861 0.72836 0.40239 0.0
C459 C 0.2076 0.77929 0.37051 0.0
H460 H 0.23314 0.76822 0.26118 0.0
C461 C 0.26026 0.83553 0.22506 0.0
C462 C 0.27655 0.83443 0.21231 0.0
C463 C 0.24609 0.82169 0.25657 0.0
C464 C 0.22625 0.77153 0.29194 0.0
H465 H 0.14574 0.73219 0.45429 0.0
H466 H 0.16873 0.75685 0.39696 0.0
H467 H 0.20713 0.74203 0.3078 0.0
H468 H 0.29123 0.81851 0.22455 0.0
H469 H 0.26653 0.79441 0.27955 0.0
H470 H 0.22666 0.80886 0.35389 0.0
C471 C 0.17081 0.74505 0.4072 0.0
C472 C 0.21133 0.75652 0.31867 0.0
C473 C 0.15752 0.73082 0.43962 0.0
C474 C 0.27883 0.81975 0.23363 0.0
C475 C 0.26462 0.80585 0.26474 0.0
C476 C 0.22243 0.79431 0.34343 0.0
C477 C 0.18677 0.74422 0.38914 0.0
C478 C 0.20191 0.76019 0.35863 0.0
C479 C 0.2479 0.80641 0.27553 0.0
C480 C 0.23203 0.79058 0.30421 0.0
H481 H 0.17749 0.70245 0.44544 0.0
H482 H 0.2008 0.72732 0.38975 0.0
H483 H 0.2009 0.78269 0.4016 0.0
H484 H 0.2581 0.84666 0.20909 0.0
H485 H 0.23334 0.82247 0.26416 0.0
C486 C 0.42013 0.1578 0.77133 0.0
C487 C 0.43763 0.15901 0.78329 0.0
C488 C 0.41959 0.17154 0.7399 0.0
C489 C 0.44949 0.22164 0.70474 0.0
H490 H 0.41332 0.21049 0.5943 0.0
C491 C 0.45644 0.27921 0.56252 0.0
C492 C 0.43981 0.27787 0.54178 0.0
C493 C 0.45535 0.26489 0.59465 0.0
C494 C 0.4233 0.21388 0.62563 0.0
H495 H 0.46815 0.17496 0.76965 0.0
H496 H 0.46718 0.1989 0.71494 0.0
H497 H 0.4129 0.1843 0.64195 0.0
H498 H 0.40893 0.26101 0.54044 0.0
H499 H 0.40696 0.23626 0.59792 0.0
H500 H 0.45976 0.25114 0.68932 0.0
C501 C 0.45392 0.18745 0.73025 0.0
C502 C 0.42311 0.19885 0.65266 0.0
C503 C 0.45445 0.17365 0.76121 0.0
C504 C 0.422 0.26239 0.55576 0.0
C505 C 0.42089 0.24811 0.58826 0.0
C506 C 0.44956 0.23665 0.67815 0.0
C507 C 0.43656 0.18681 0.72033 0.0
C508 C 0.43637 0.2026 0.69203 0.0
C509 C 0.43758 0.24897 0.60718 0.0
C510 C 0.43662 0.23298 0.63783 0.0
H511 H 0.40694 0.14669 0.78788 0.0
H512 H 0.406 0.17071 0.73289 0.0
H513 H 0.45962 0.22495 0.73566 0.0
H514 H 0.47038 0.29091 0.55218 0.0
H515 H 0.46853 0.26596 0.60789 0.0
C516 C 0.16431 0.43701 0.60564 0.0
C517 C 0.16807 0.45212 0.63897 0.0
C518 C 0.17739 0.43925 0.56765 0.0
C519 C 0.22816 0.46846 0.53338 0.0
H520 H 0.21008 0.44223 0.40305 0.0
C521 C 0.27792 0.47106 0.36882 0.0
C522 C 0.2737 0.45289 0.35173 0.0
C523 C 0.2653 0.47305 0.4014 0.0
C524 C 0.21529 0.44965 0.43927 0.0
H525 H 0.18824 0.48154 0.65839 0.0
H526 H 0.21104 0.48565 0.591 0.0
H527 H 0.18733 0.44247 0.46401 0.0
H528 H 0.25303 0.42262 0.35453 0.0
H529 H 0.23086 0.42615 0.41074 0.0
H530 H 0.25618 0.4756 0.50815 0.0
C531 C 0.19812 0.47194 0.59487 0.0
C532 C 0.20231 0.44973 0.47426 0.0
C533 C 0.18506 0.46963 0.63327 0.0
C534 C 0.25663 0.43678 0.36725 0.0
C535 C 0.24391 0.4388 0.39908 0.0
C536 C 0.2412 0.46857 0.49802 0.0
C537 C 0.19444 0.45674 0.56176 0.0
C538 C 0.20852 0.45868 0.5223 0.0
C539 C 0.24816 0.45693 0.4165 0.0
C540 C 0.23478 0.45876 0.45127 0.0
H541 H 0.15137 0.4233 0.60936 0.0
H542 H 0.17427 0.42711 0.5436 0.0
H543 H 0.23341 0.47534 0.5702 0.0
H544 H 0.29102 0.48369 0.3574 0.0
H545 H 0.26882 0.48716 0.41439 0.0
C546 C 0.81736 0.25333 0.68153 0.0
C547 C 0.82901 0.27273 0.69358 0.0
C548 C 0.8049 0.24062 0.71816 0.0
C549 C 0.77863 0.23947 0.83357 0.0
H550 H 0.77189 0.18891 0.85205 0.0
C551 C 0.73088 0.18891 0.99308 0.0
C552 C 0.71964 0.16949 0.98065 0.0
C553 C 0.74473 0.20152 0.9589 0.0
C554 C 0.77346 0.2029 0.8469 0.0
H555 H 0.83717 0.29403 0.75356 0.0
H556 H 0.81541 0.27179 0.81766 0.0
H557 H 0.79565 0.21092 0.79117 0.0
H558 H 0.71384 0.14801 0.92271 0.0
H559 H 0.73773 0.17013 0.86234 0.0
H560 H 0.75627 0.23144 0.88851 0.0
C561 C 0.81578 0.26646 0.77976 0.0
C562 C 0.78709 0.2155 0.81219 0.0
C563 C 0.82829 0.27915 0.74319 0.0
C564 C 0.72237 0.16291 0.9333 0.0
C565 C 0.73614 0.17555 0.89893 0.0
C566 C 0.76494 0.22685 0.86806 0.0
C567 C 0.80382 0.24712 0.76741 0.0
C568 C 0.78978 0.23389 0.80516 0.0
C569 C 0.74751 0.19498 0.91144 0.0
C570 C 0.76218 0.20842 0.87505 0.0
H571 H 0.81762 0.24801 0.64352 0.0
H572 H 0.79571 0.22582 0.70747 0.0
H573 H 0.78019 0.25346 0.8283 0.0
H574 H 0.72916 0.19433 0.02954 0.0
H575 H 0.75344 0.21634 0.97002 0.0
C576 C 0.52265 0.80618 0.02678 0.0
C577 C 0.54078 0.82086 0.01175 0.0
C578 C 0.5209 0.79192 0.0603 0.0
C579 C 0.54617 0.76786 0.10454 0.0
H580 H 0.51699 0.75777 0.23036 0.0
C581 C 0.55758 0.73008 0.27414 0.0
C582 C 0.5418 0.71731 0.30356 0.0
C583 C 0.55563 0.74113 0.23632 0.0
C584 C 0.5249 0.76015 0.19497 0.0
H585 H 0.57125 0.83213 0.01934 0.0
H586 H 0.56817 0.80707 0.07721 0.0
H587 H 0.51658 0.77983 0.16697 0.0
H588 H 0.51156 0.70594 0.31665 0.0
H589 H 0.50803 0.72508 0.24957 0.0
H590 H 0.55454 0.7483 0.13204 0.0
C591 C 0.55535 0.80661 0.06318 0.0
C592 C 0.52469 0.77279 0.15883 0.0
C593 C 0.5571 0.82098 0.03037 0.0
C594 C 0.52398 0.71576 0.29453 0.0
C595 C 0.52198 0.72675 0.25631 0.0
C596 C 0.54623 0.75511 0.14029 0.0
C597 C 0.53726 0.79198 0.07846 0.0
C598 C 0.53569 0.77707 0.11395 0.0
C599 C 0.5378 0.73952 0.22671 0.0
C600 C 0.536 0.75148 0.18651 0.0
H601 H 0.50985 0.80581 0.01296 0.0
H602 H 0.50681 0.78073 0.07157 0.0
H603 H 0.55452 0.77074 0.06976 0.0
H604 H 0.57153 0.73167 0.28054 0.0
H605 H 0.5682 0.75115 0.21506 0.0
C606 C 0.72859 0.56346 0.37827 0.0
C607 C 0.71817 0.54779 0.34564 0.0
C608 C 0.74122 0.56318 0.41418 0.0
C609 C 0.76938 0.54002 0.44189 0.0
H610 H 0.77239 0.56032 0.57873 0.0
C611 C 0.81398 0.5331 0.60416 0.0
C612 C 0.8249 0.54945 0.63417 0.0
C613 C 0.80074 0.53259 0.56902 0.0
C614 C 0.77182 0.55477 0.5405 0.0
H615 H 0.71258 0.51948 0.32509 0.0
H616 H 0.73454 0.5189 0.38831 0.0
H617 H 0.74928 0.55969 0.51756 0.0
H618 H 0.83064 0.57809 0.65107 0.0
H619 H 0.80751 0.57722 0.58946 0.0
H620 H 0.79192 0.5351 0.46493 0.0
C621 C 0.73312 0.53149 0.38568 0.0
C622 C 0.75861 0.55441 0.50551 0.0
C623 C 0.72049 0.53177 0.34972 0.0
C624 C 0.82238 0.5653 0.62842 0.0
C625 C 0.80908 0.56476 0.59343 0.0
C626 C 0.78257 0.54035 0.47694 0.0
C627 C 0.74365 0.54721 0.41818 0.0
C628 C 0.75731 0.54711 0.45576 0.0
C629 C 0.79812 0.54839 0.56344 0.0
C630 C 0.78397 0.5478 0.52649 0.0
H631 H 0.72711 0.57602 0.37586 0.0
H632 H 0.74931 0.57561 0.43821 0.0
H633 H 0.76891 0.53458 0.40359 0.0
H634 H 0.81562 0.52066 0.60791 0.0
H635 H 0.79234 0.51972 0.54675 0.0
C636 C 0.18824 0.72585 0.68236 0.0
C637 C 0.16854 0.71803 0.68976 0.0
C638 C 0.20119 0.73863 0.71804 0.0
C639 C 0.20539 0.75421 0.85218 0.0
H640 H 0.24981 0.80024 0.80279 0.0
C641 C 0.26677 0.80524 0.98544 0.0
C642 C 0.27357 0.82482 0.97867 0.0
C643 C 0.25406 0.79201 0.95015 0.0
C644 C 0.23742 0.78749 0.81711 0.0
H645 H 0.14686 0.71726 0.74029 0.0
H646 H 0.16952 0.73965 0.8027 0.0
H647 H 0.22712 0.77738 0.74132 0.0
H648 H 0.27256 0.84597 0.92977 0.0
H649 H 0.25032 0.82283 0.86807 0.0
H650 H 0.21558 0.76445 0.92799 0.0
C651 C 0.17493 0.73579 0.7695 0.0
C652 C 0.22455 0.77433 0.78197 0.0
C653 C 0.16199 0.72306 0.73369 0.0
C654 C 0.26756 0.83096 0.93585 0.0
C655 C 0.25492 0.81773 0.90044 0.0
C656 C 0.21832 0.76732 0.88733 0.0
C657 C 0.19465 0.74377 0.76186 0.0
C658 C 0.2084 0.75759 0.79918 0.0
C659 C 0.248 0.79813 0.90734 0.0
C660 C 0.23443 0.78411 0.87011 0.0
H661 H 0.19369 0.72219 0.64884 0.0
H662 H 0.21631 0.74441 0.71151 0.0
H663 H 0.19313 0.74134 0.86647 0.0
H664 H 0.27119 0.80013 0.01813 0.0
H665 H 0.2491 0.77699 0.95609 0.0
C666 C 0.45758 0.189 0.00897 0.0
C667 C 0.44561 0.16936 0.01731 0.0
C668 C 0.45812 0.20223 0.04435 0.0
C669 C 0.44787 0.20721 0.17903 0.0
H670 H 0.44651 0.25175 0.12979 0.0
C671 C 0.45955 0.26891 0.31258 0.0
C672 C 0.44686 0.27585 0.30665 0.0
C673 C 0.45981 0.25619 0.27685 0.0
C674 C 0.44681 0.23933 0.14406 0.0
H675 H 0.42493 0.14808 0.06912 0.0
H676 H 0.42587 0.17121 0.13096 0.0
H677 H 0.446 0.22871 0.06827 0.0
H678 H 0.42463 0.27512 0.25866 0.0
H679 H 0.42506 0.25284 0.19615 0.0
H680 H 0.44841 0.21768 0.25483 0.0
C681 C 0.43492 0.17637 0.09729 0.0
C682 C 0.44671 0.22626 0.10889 0.0
C683 C 0.43432 0.16315 0.0618 0.0
C684 C 0.43457 0.27 0.26411 0.0
C685 C 0.43489 0.25734 0.22823 0.0
C686 C 0.44806 0.22032 0.21418 0.0
C687 C 0.44677 0.19604 0.0888 0.0
C688 C 0.44718 0.21005 0.12605 0.0
C689 C 0.44744 0.25024 0.23441 0.0
C690 C 0.44749 0.23648 0.19704 0.0
H691 H 0.46645 0.19418 0.97498 0.0
H692 H 0.46754 0.2173 0.03714 0.0
H693 H 0.4484 0.19491 0.1933 0.0
H694 H 0.4692 0.27321 0.34501 0.0
H695 H 0.46978 0.25111 0.28222 0.0
C696 C 0.36965 0.49841 0.33447 0.0
C697 C 0.36403 0.49309 0.28327 0.0
C698 C 0.38705 0.51466 0.3458 0.0
C699 C 0.42311 0.56044 0.29007 0.0
H700 H 0.45411 0.56094 0.40424 0.0
C701 C 0.49723 0.62501 0.33132 0.0
C702 C 0.50162 0.63084 0.38274 0.0
C703 C 0.48101 0.60773 0.31901 0.0
C704 C 0.44552 0.56106 0.37255 0.0
H705 H 0.37236 0.50041 0.20373 0.0
H706 H 0.40295 0.5288 0.22351 0.0
H707 H 0.42497 0.53144 0.38206 0.0
H708 H 0.49264 0.62304 0.46169 0.0
H709 H 0.46409 0.59277 0.44014 0.0
H710 H 0.44357 0.59005 0.28071 0.0
C711 C 0.39375 0.5205 0.2549 0.0
C712 C 0.42884 0.54417 0.3598 0.0
C713 C 0.3763 0.50421 0.24355 0.0
C714 C 0.4896 0.61889 0.42173 0.0
C715 C 0.47333 0.60153 0.40938 0.0
C716 C 0.43978 0.5773 0.30278 0.0
C717 C 0.39926 0.52598 0.30619 0.0
C718 C 0.4174 0.54369 0.31853 0.0
C719 C 0.46878 0.59585 0.35781 0.0
C720 C 0.45115 0.57783 0.34424 0.0
H721 H 0.36048 0.49015 0.36595 0.0
H722 H 0.39073 0.5186 0.38567 0.0
H723 H 0.41446 0.56065 0.25866 0.0
H724 H 0.50627 0.63387 0.30039 0.0
H725 H 0.47807 0.60363 0.27899 0.0
C726 C 0.86585 0.48943 0.75257 0.0
C727 C 0.87061 0.50356 0.71502 0.0
C728 C 0.86588 0.47259 0.74059 0.0
C729 C 0.88411 0.45103 0.64791 0.0
H730 H 0.8396 0.40349 0.68858 0.0
C731 C 0.87023 0.37775 0.57336 0.0
C732 C 0.86289 0.36269 0.60888 0.0
C733 C 0.87139 0.39513 0.58594 0.0
C734 C 0.85225 0.41662 0.67745 0.0
H735 H 0.87976 0.51147 0.63612 0.0
H736 H 0.8799 0.48216 0.61539 0.0
H737 H 0.8422 0.43371 0.71349 0.0
H738 H 0.85107 0.35397 0.68538 0.0
H739 H 0.85342 0.38423 0.70759 0.0
H740 H 0.89425 0.43396 0.61221 0.0
C741 C 0.87618 0.48408 0.65402 0.0
C742 C 0.85373 0.43394 0.69178 0.0
C743 C 0.876 0.50082 0.66585 0.0
C744 C 0.85668 0.36528 0.65702 0.0
C745 C 0.85793 0.38262 0.66967 0.0
C746 C 0.88269 0.43369 0.63383 0.0
C747 C 0.87082 0.46966 0.69101 0.0
C748 C 0.86966 0.45132 0.67714 0.0
C749 C 0.86531 0.39778 0.63436 0.0
C750 C 0.86674 0.41627 0.64844 0.0
H751 H 0.86164 0.49117 0.79078 0.0
H752 H 0.86189 0.4618 0.77003 0.0
H753 H 0.89663 0.46423 0.63643 0.0
H754 H 0.8751 0.37614 0.53594 0.0
H755 H 0.87692 0.40643 0.55758 0.0
C756 C 0.48755 0.86888 0.90399 0.0
C757 C 0.49977 0.86933 0.94289 0.0
C758 C 0.47113 0.86967 0.91645 0.0
C759 C 0.43796 0.86053 0.0243 0.0
H760 H 0.42194 0.89035 0.94398 0.0
C761 C 0.37575 0.87134 0.08792 0.0
C762 C 0.36276 0.86953 0.04959 0.0
C763 C 0.39289 0.87214 0.07478 0.0
C764 C 0.42615 0.88183 0.96652 0.0
H765 H 0.50466 0.87139 0.02514 0.0
H766 H 0.47628 0.87301 0.04671 0.0
H767 H 0.45104 0.89013 0.92052 0.0
H768 H 0.35759 0.86738 0.96748 0.0
H769 H 0.3874 0.86866 0.94463 0.0
H770 H 0.41309 0.85218 0.07021 0.0
C771 C 0.47912 0.87171 0.0067 0.0
C772 C 0.4428 0.88168 0.95303 0.0
C773 C 0.49546 0.8709 0.99429 0.0
C774 C 0.36734 0.86881 -0.00211 0.0
C775 C 0.38447 0.86965 0.98476 0.0
C776 C 0.42135 0.86069 0.0378 0.0
C777 C 0.46665 0.87091 0.96803 0.0
C778 C 0.44891 0.87104 0.98184 0.0
C779 C 0.39739 0.87119 0.02306 0.0
C780 C 0.41526 0.87135 0.0091 0.0
H781 H 0.49051 0.86765 0.86405 0.0
H782 H 0.46173 0.86888 0.88579 0.0
H783 H 0.44207 0.8519 0.04675 0.0
H784 H 0.37262 0.87198 0.12807 0.0
H785 H 0.40266 0.87357 0.10514 0.0
C786 C 0.62368 0.49737 0.32333 0.0
C787 C 0.62877 0.5024 0.27173 0.0
C788 C 0.60653 0.48101 0.33594 0.0
C789 C 0.57062 0.43457 0.28324 0.0
H790 H 0.53976 0.4346 0.39719 0.0
C791 C 0.49689 0.36977 0.32807 0.0
C792 C 0.4925 0.36462 0.37988 0.0
C793 C 0.51309 0.38694 0.31466 0.0
C794 C 0.54832 0.43432 0.36561 0.0
H795 H 0.61979 0.49442 0.19283 0.0
H796 H 0.58971 0.46583 0.21485 0.0
H797 H 0.56866 0.46408 0.37357 0.0
H798 H 0.50152 0.37344 0.45836 0.0
H799 H 0.53 0.40342 0.43494 0.0
H800 H 0.55041 0.40481 0.27548 0.0
C801 C 0.5991 0.47445 0.24555 0.0
C802 C 0.56486 0.4512 0.35203 0.0
C803 C 0.61626 0.49087 0.23294 0.0
C804 C 0.50454 0.37706 0.4181 0.0
C805 C 0.52078 0.39427 0.40467 0.0
C806 C 0.55411 0.41769 0.29684 0.0
C807 C 0.5941 0.46928 0.29721 0.0
C808 C 0.57622 0.4515 0.31077 0.0
C809 C 0.52529 0.39934 0.35276 0.0
C810 C 0.54278 0.41736 0.33823 0.0
H811 H 0.63306 0.50597 0.3541 0.0
H812 H 0.60322 0.47731 0.37607 0.0
H813 H 0.57923 0.43425 0.25183 0.0
H814 H 0.48783 0.36051 0.29773 0.0
H815 H 0.51599 0.39055 0.27436 0.0
C816 C 0.12647 0.6247 0.66798 0.0
C817 C 0.12484 0.62889 0.61653 0.0
C818 C 0.12531 0.60743 0.68109 0.0
C819 C 0.1309 0.56851 0.62605 0.0
H820 H 0.10456 0.54148 0.7498 0.0
C821 C 0.1188 0.49387 0.67313 0.0
C822 C 0.12238 0.49062 0.72382 0.0
C823 C 0.11816 0.5103 0.66062 0.0
C824 C 0.11211 0.54896 0.71539 0.0
H825 H 0.12045 0.6182 0.53849 0.0
H826 H 0.11818 0.58785 0.56141 0.0
H827 H 0.10496 0.57087 0.72612 0.0
H828 H 0.12771 0.5018 0.80142 0.0
H829 H 0.12665 0.53066 0.7795 0.0
H830 H 0.13807 0.54664 0.61531 0.0
C831 C 0.12064 0.59806 0.59157 0.0
C832 C 0.11235 0.56579 0.70179 0.0
C833 C 0.12183 0.61538 0.57844 0.0
C834 C 0.12491 0.50394 0.76204 0.0
C835 C 0.12422 0.5204 0.74951 0.0
C836 C 0.13063 0.55168 0.63956 0.0
C837 C 0.12246 0.59392 0.64305 0.0
C838 C 0.12178 0.57578 0.65699 0.0
C839 C 0.12106 0.52386 0.69851 0.0
C840 C 0.12124 0.54172 0.68438 0.0
H841 H 0.12885 0.63487 0.6982 0.0
H842 H 0.12704 0.60483 0.72098 0.0
H843 H 0.1386 0.57602 0.59183 0.0
H844 H 0.11671 0.48383 0.64283 0.0
H845 H 0.11539 0.51239 0.62116 0.0
C846 C 0.61672 0.12825 0.08742 0.0
C847 C 0.62961 0.12961 0.04929 0.0
C848 C 0.59962 0.12745 0.07397 0.0
C849 C 0.57648 0.1386 0.96762 0.0
H850 H 0.52991 0.10459 0.04086 0.0
C851 C 0.50261 0.12575 0.90348 0.0
C852 C 0.49079 0.12599 0.94259 0.0
C853 C 0.51933 0.12554 0.91568 0.0
C854 C 0.54283 0.11426 0.02031 0.0
H855 H 0.63472 0.13113 0.96721 0.0
H856 H 0.60481 0.12947 0.9437 0.0
H857 H 0.55962 0.10569 0.06411 0.0
H858 H 0.48702 0.12598 0.02507 0.0
H859 H 0.51615 0.12564 0.04632 0.0
H860 H 0.55965 0.14714 0.92379 0.0
C861 C 0.60799 0.12932 0.98402 0.0
C862 C 0.55986 0.11493 0.0337 0.0
C863 C 0.62509 0.13015 -0.00252 0.0
C864 C 0.49584 0.12576 0.99407 0.0
C865 C 0.51247 0.12546 0.00626 0.0
C866 C 0.55943 0.13789 0.95413 0.0
C867 C 0.59506 0.12798 0.02208 0.0
C868 C 0.5769 0.12716 0.00764 0.0
C869 C 0.52447 0.12547 0.96723 0.0
C870 C 0.54244 0.12577 0.98046 0.0
H871 H 0.61986 0.12786 0.12768 0.0
H872 H 0.59009 0.12669 0.10426 0.0
H873 H 0.5894 0.14839 0.94728 0.0
H874 H 0.49905 0.1259 0.86346 0.0
H875 H 0.5282 0.12535 0.88478 0.0
loop_
_geom_bond_atom_site_label_1
_geom_bond_atom_site_label_2
_geom_bond_distance
_geom_bond_site_symmetry_2
_ccdc_geom_bond_type
In0 O1 2.294 . S
In0 O2 2.326 . S
In0 O6 2.266 . S
In0 O7 2.326 . S
In0 O8 2.266 . S
In0 O9 2.326 . S
In0 O11 2.294 . S
In0 O12 2.326 . S
O1 In0 2.294 . S
O1 C10 1.240 . S
O2 In0 2.326 . S
O2 C10 1.252 . S
C3 O6 1.252 . S
C3 O7 1.260 . S
C4 O11 1.240 . S
C4 O12 1.252 . S
C5 O8 1.252 . S
C5 O9 1.260 . S
O6 In0 2.266 . S
O6 C3 1.252 . S
O7 In0 2.326 . S
O7 C3 1.260 . S
O8 In0 2.266 . S
O8 C5 1.252 . S
O9 In0 2.326 . S
O9 C5 1.260 . S
C10 O1 1.240 . S
C10 O2 1.252 . S
O11 In0 2.294 . S
O11 C4 1.240 . S
O12 In0 2.326 . S
O12 C4 1.252 . S
In13 O14 2.294 . S
In13 O15 2.326 . S
In13 O19 2.266 . S
In13 O20 2.326 . S
In13 O21 2.266 . S
In13 O22 2.326 . S
In13 O24 2.294 . S
In13 O25 2.326 . S
O14 In13 2.294 . S
O14 C23 1.240 . S
O15 In13 2.326 . S
O15 C23 1.252 . S
C16 O19 1.252 . S
C16 O20 1.260 . S
C17 O24 1.240 . S
C17 O25 1.252 . S
C18 O21 1.252 . S
C18 O22 1.260 . S
O19 In13 2.266 . S
O19 C16 1.252 . S
O20 In13 2.326 . S
O20 C16 1.260 . S
O21 In13 2.266 . S
O21 C18 1.252 . S
O22 In13 2.326 . S
O22 C18 1.260 . S
C23 O14 1.240 . S
C23 O15 1.252 . S
O24 In13 2.294 . S
O24 C17 1.240 . S
O25 In13 2.326 . S
O25 C17 1.252 . S
In26 O27 2.294 1_556 S
In26 O28 2.326 . S
In26 O32 2.266 . S
In26 O33 2.326 . S
In26 O34 2.266 . S
In26 O35 2.313 1_556 S
In26 O37 2.294 . S
In26 O38 2.326 . S
O27 In26 2.294 1_554 S
O27 C36 1.240 . S
O28 In26 2.326 . S
O28 C36 1.252 1_556 S
C29 O32 1.252 . S
C29 O33 1.260 . S
C30 O37 1.240 . S
C30 O38 1.252 . S
C31 O34 1.252 . S
C31 O35 1.247 1_556 S
O32 In26 2.266 . S
O32 C29 1.252 . S
O33 In26 2.326 . S
O33 C29 1.260 . S
O34 In26 2.266 . S
O34 C31 1.252 . S
O35 In26 2.313 1_554 S
O35 C31 1.247 1_554 S
C36 O27 1.240 . S
C36 O28 1.252 1_554 S
O37 In26 2.294 . S
O37 C30 1.240 . S
O38 In26 2.326 . S
O38 C30 1.252 . S
In39 O40 2.294 . S
In39 O41 2.326 . S
In39 O45 2.266 . S
In39 O46 2.326 . S
In39 O47 2.266 . S
In39 O48 2.326 . S
In39 O50 2.294 . S
In39 O51 2.326 . S
O40 In39 2.294 . S
O40 C49 1.240 . S
O41 In39 2.326 . S
O41 C49 1.252 . S
C42 O45 1.252 . S
C42 O46 1.260 . S
C43 O50 1.240 . S
C43 O51 1.252 . S
C44 O47 1.252 . S
C44 O48 1.260 . S
O45 In39 2.266 . S
O45 C42 1.252 . S
O46 In39 2.326 . S
O46 C42 1.260 . S
O47 In39 2.266 . S
O47 C44 1.252 . S
O48 In39 2.326 . S
O48 C44 1.260 . S
C49 O40 1.240 . S
C49 O41 1.252 . S
O50 In39 2.294 . S
O50 C43 1.240 . S
O51 In39 2.326 . S
O51 C43 1.252 . S
In52 O53 2.294 . S
In52 O54 2.326 . S
In52 O58 2.266 . S
In52 O59 2.326 . S
In52 O60 2.266 . S
In52 O61 2.326 . S
In52 O63 2.294 . S
In52 O64 2.326 . S
O53 In52 2.294 . S
O53 C62 1.240 . S
O54 In52 2.326 . S
O54 C62 1.252 . S
C55 O58 1.252 . S
C55 O59 1.260 . S
C56 O63 1.240 . S
C56 O64 1.252 . S
C57 O60 1.252 . S
C57 O61 1.260 . S
O58 In52 2.266 . S
O58 C55 1.252 . S
O59 In52 2.326 . S
O59 C55 1.260 . S
O60 In52 2.266 . S
O60 C57 1.252 . S
O61 In52 2.326 . S
O61 C57 1.260 . S
C62 O53 1.240 . S
C62 O54 1.252 . S
O63 In52 2.294 . S
O63 C56 1.240 . S
O64 In52 2.326 . S
O64 C56 1.252 . S
In65 O66 2.294 1_556 S
In65 O67 2.326 . S
In65 O71 2.266 . S
In65 O72 2.326 . S
In65 O73 2.266 . S
In65 O74 2.313 1_556 S
In65 O76 2.294 . S
In65 O77 2.326 . S
O66 In65 2.294 1_554 S
O66 C75 1.240 . S
O67 In65 2.326 . S
O67 C75 1.252 1_556 S
C68 O71 1.252 . S
C68 O72 1.260 . S
C69 O76 1.240 . S
C69 O77 1.252 . S
C70 O73 1.252 . S
C70 O74 1.247 1_556 S
O71 In65 2.266 . S
O71 C68 1.252 . S
O72 In65 2.326 . S
O72 C68 1.260 . S
O73 In65 2.266 . S
O73 C70 1.252 . S
O74 In65 2.313 1_554 S
O74 C70 1.247 1_554 S
C75 O66 1.240 . S
C75 O67 1.252 1_554 S
O76 In65 2.294 . S
O76 C69 1.240 . S
O77 In65 2.326 . S
O77 C69 1.252 . S
In78 O79 2.294 . S
In78 O80 2.326 . S
In78 O84 2.266 . S
In78 O85 2.326 . S
In78 O86 2.266 . S
In78 O87 2.326 . S
In78 O89 2.294 . S
In78 O90 2.326 . S
O79 In78 2.294 . S
O79 C88 1.240 . S
O80 In78 2.326 . S
O80 C88 1.252 . S
C81 O84 1.252 . S
C81 O85 1.260 . S
C82 O89 1.240 . S
C82 O90 1.252 . S
C83 O86 1.252 . S
C83 O87 1.260 . S
O84 In78 2.266 . S
O84 C81 1.252 . S
O85 In78 2.326 . S
O85 C81 1.260 . S
O86 In78 2.266 . S
O86 C83 1.252 . S
O87 In78 2.326 . S
O87 C83 1.260 . S
C88 O79 1.240 . S
C88 O80 1.252 . S
O89 In78 2.294 . S
O89 C82 1.240 . S
O90 In78 2.326 . S
O90 C82 1.252 . S
In91 O92 2.294 . S
In91 O93 2.326 . S
In91 O97 2.266 . S
In91 O98 2.326 . S
In91 O99 2.266 . S
In91 O100 2.326 . S
In91 O102 2.294 . S
In91 O103 2.326 . S
O92 In91 2.294 . S
O92 C101 1.240 . S
O93 In91 2.326 . S
O93 C101 1.252 . S
C94 O97 1.252 . S
C94 O98 1.260 . S
C95 O102 1.240 . S
C95 O103 1.252 . S
C96 O99 1.252 . S
C96 O100 1.260 . S
O97 In91 2.266 . S
O97 C94 1.252 . S
O98 In91 2.326 . S
O98 C94 1.260 . S
O99 In91 2.266 . S
O99 C96 1.252 . S
O100 In91 2.326 . S
O100 C96 1.260 . S
C101 O92 1.240 . S
C101 O93 1.252 . S
O102 In91 2.294 . S
O102 C95 1.240 . S
O103 In91 2.326 . S
O103 C95 1.252 . S
In104 O105 2.294 . S
In104 O106 2.326 . S
In104 O110 2.266 . S
In104 O111 2.313 1_554 S
In104 O112 2.266 . S
In104 O113 2.326 . S
In104 O115 2.294 1_554 S
In104 O116 2.326 . S
O105 In104 2.294 . S
O105 C114 1.240 . S
O106 In104 2.326 . S
O106 C114 1.252 . S
C107 O110 1.252 . S
C107 O111 1.247 1_554 S
C108 O115 1.240 . S
C108 O116 1.252 1_556 S
C109 O112 1.252 . S
C109 O113 1.260 . S
O110 In104 2.266 . S
O110 C107 1.252 . S
O111 In104 2.313 1_556 S
O111 C107 1.247 1_556 S
O112 In104 2.266 . S
O112 C109 1.252 . S
O113 In104 2.326 . S
O113 C109 1.260 . S
C114 O105 1.240 . S
C114 O106 1.252 . S
O115 In104 2.294 1_556 S
O115 C108 1.240 . S
O116 In104 2.326 . S
O116 C108 1.252 1_554 S
In117 O118 2.294 . S
In117 O119 2.326 . S
In117 O123 2.266 . S
In117 O124 2.326 . S
In117 O125 2.266 . S
In117 O126 2.326 . S
In117 O128 2.294 . S
In117 O129 2.326 . S
O118 In117 2.294 . S
O118 C127 1.240 . S
O119 In117 2.326 . S
O119 C127 1.252 . S
C120 O123 1.252 . S
C120 O124 1.260 . S
C121 O128 1.240 . S
C121 O129 1.252 . S
C122 O125 1.252 . S
C122 O126 1.260 . S
O123 In117 2.266 . S
O123 C120 1.252 . S
O124 In117 2.326 . S
O124 C120 1.260 . S
O125 In117 2.266 . S
O125 C122 1.252 . S
O126 In117 2.326 . S
O126 C122 1.260 . S
C127 O118 1.240 . S
C127 O119 1.252 . S
O128 In117 2.294 . S
O128 C121 1.240 . S
O129 In117 2.326 . S
O129 C121 1.252 . S
In130 O131 2.294 . S
In130 O132 2.326 . S
In130 O136 2.266 . S
In130 O137 2.326 . S
In130 O138 2.266 . S
In130 O139 2.326 . S
In130 O141 2.294 . S
In130 O142 2.326 . S
O131 In130 2.294 . S
O131 C140 1.240 . S
O132 In130 2.326 . S
O132 C140 1.252 . S
C133 O136 1.252 . S
C133 O137 1.260 . S
C134 O141 1.240 . S
C134 O142 1.252 . S
C135 O138 1.252 . S
C135 O139 1.260 . S
O136 In130 2.266 . S
O136 C133 1.252 . S
O137 In130 2.326 . S
O137 C133 1.260 . S
O138 In130 2.266 . S
O138 C135 1.252 . S
O139 In130 2.326 . S
O139 C135 1.260 . S
C140 O131 1.240 . S
C140 O132 1.252 . S
O141 In130 2.294 . S
O141 C134 1.240 . S
O142 In130 2.326 . S
O142 C134 1.252 . S
In143 O144 2.294 . S
In143 O145 2.326 . S
In143 O149 2.266 . S
In143 O150 2.313 1_554 S
In143 O151 2.266 . S
In143 O152 2.326 . S
In143 O154 2.294 1_554 S
In143 O155 2.326 . S
O144 In143 2.294 . S
O144 C153 1.240 . S
O145 In143 2.326 . S
O145 C153 1.252 . S
C146 O149 1.252 . S
C146 O150 1.247 1_554 S
C147 O154 1.240 . S
C147 O155 1.252 1_556 S
C148 O151 1.252 . S
C148 O152 1.260 . S
O149 In143 2.266 . S
O149 C146 1.252 . S
O150 In143 2.313 1_556 S
O150 C146 1.247 1_556 S
O151 In143 2.266 . S
O151 C148 1.252 . S
O152 In143 2.326 . S
O152 C148 1.260 . S
C153 O144 1.240 . S
C153 O145 1.252 . S
O154 In143 2.294 1_556 S
O154 C147 1.240 . S
O155 In143 2.326 . S
O155 C147 1.252 1_554 S
C156 C157 1.349 . S
C156 C158 1.327 . S
C156 H181 0.950 . S
C157 C156 1.349 . S
C157 C173 1.349 . S
C158 C156 1.327 . S
C158 C177 1.429 . S
C158 H182 0.950 . S
C159 C176 1.574 . S
C159 C178 1.368 . S
C159 H183 0.949 . S
H160 C164 0.949 . S
C161 C162 1.349 . S
C161 C163 1.327 . S
C161 H184 0.950 . S
C162 C161 1.349 . S
C162 C174 1.349 . S
C163 C161 1.327 . S
C163 C179 1.429 . S
C163 H185 0.950 . S
C164 H160 0.949 . S
C164 C172 1.574 . S
C164 C180 1.368 . S
H165 C173 0.950 . S
H166 C171 0.950 . S
H167 C172 0.949 . S
H168 C174 0.950 . S
H169 C175 0.950 . S
H170 C176 0.949 . S
C171 H166 0.950 . S
C171 C173 1.327 . S
C171 C177 1.429 . S
C172 C164 1.574 . S
C172 H167 0.949 . S
C172 C178 1.368 . S
C173 C157 1.349 . S
C173 H165 0.950 . S
C173 C171 1.327 . S
C174 C162 1.349 . S
C174 H168 0.950 . S
C174 C175 1.327 . S
C175 H169 0.950 . S
C175 C174 1.327 . S
C175 C179 1.429 . S
C176 C159 1.574 . S
C176 H170 0.949 . S
C176 C180 1.368 . S
C177 C158 1.429 . S
C177 C171 1.429 . S
C177 C178 1.523 . S
C178 C159 1.368 . S
C178 C172 1.368 . S
C178 C177 1.523 . S
C179 C163 1.429 . S
C179 C175 1.429 . S
C179 C180 1.523 . S
C180 C164 1.368 . S
C180 C176 1.368 . S
C180 C179 1.523 . S
H181 C156 0.950 . S
H182 C158 0.950 . S
H183 C159 0.949 . S
H184 C161 0.950 . S
H185 C163 0.950 . S
C186 C187 1.349 . S
C186 C188 1.327 . S
C186 H211 0.950 . S
C187 C186 1.349 . S
C187 C203 1.349 . S
C188 C186 1.327 . S
C188 C207 1.429 . S
C188 H212 0.950 . S
C189 C206 1.574 1_655 S
C189 C208 1.368 . S
C189 H213 0.949 . S
H190 C194 0.949 . S
C191 C192 1.349 . S
C191 C193 1.327 . S
C191 H214 0.950 . S
C192 C191 1.349 . S
C192 C204 1.349 . S
C193 C191 1.327 . S
C193 C209 1.429 . S
C193 H215 0.950 . S
C194 H190 0.949 . S
C194 C202 1.574 1_455 S
C194 C210 1.368 . S
H195 C203 0.950 . S
H196 C201 0.950 . S
H197 C202 0.949 . S
H198 C204 0.950 . S
H199 C205 0.950 . S
H200 C206 0.949 . S
C201 H196 0.950 . S
C201 C203 1.327 . S
C201 C207 1.429 . S
C202 C194 1.574 1_655 S
C202 H197 0.949 . S
C202 C208 1.368 . S
C203 C187 1.349 . S
C203 H195 0.950 . S
C203 C201 1.327 . S
C204 C192 1.349 . S
C204 H198 0.950 . S
C204 C205 1.327 . S
C205 H199 0.950 . S
C205 C204 1.327 . S
C205 C209 1.429 . S
C206 C189 1.574 1_455 S
C206 H200 0.949 . S
C206 C210 1.368 . S
C207 C188 1.429 . S
C207 C201 1.429 . S
C207 C208 1.523 . S
C208 C189 1.368 . S
C208 C202 1.368 . S
C208 C207 1.523 . S
C209 C193 1.429 . S
C209 C205 1.429 . S
C209 C210 1.523 . S
C210 C194 1.368 . S
C210 C206 1.368 . S
C210 C209 1.523 . S
H211 C186 0.950 . S
H212 C188 0.950 . S
H213 C189 0.949 . S
H214 C191 0.950 . S
H215 C193 0.950 . S
C216 C217 1.349 . S
C216 C218 1.327 . S
C216 H241 0.950 . S
C217 C216 1.349 . S
C217 C233 1.349 . S
C218 C216 1.327 . S
C218 C237 1.429 . S
C218 H242 0.950 . S
C219 C236 1.574 1_565 S
C219 C238 1.368 1_554 S
C219 H243 0.949 . S
H220 C224 0.949 . S
C221 C222 1.349 . S
C221 C223 1.327 . S
C221 H244 0.950 . S
C222 C221 1.349 . S
C222 C234 1.349 . S
C223 C221 1.327 . S
C223 C239 1.429 . S
C223 H245 0.950 . S
C224 H220 0.949 . S
C224 C232 1.574 1_545 S
C224 C240 1.368 1_556 S
H225 C233 0.950 1_554 S
H226 C231 0.950 . S
H227 C232 0.949 . S
H228 C234 0.950 1_556 S
H229 C235 0.950 . S
H230 C236 0.949 . S
C231 H226 0.950 . S
C231 C233 1.327 1_554 S
C231 C237 1.429 1_554 S
C232 C224 1.574 1_565 S
C232 H227 0.949 . S
C232 C238 1.368 . S
C233 C217 1.349 . S
C233 H225 0.950 1_556 S
C233 C231 1.327 1_556 S
C234 C222 1.349 . S
C234 H228 0.950 1_554 S
C234 C235 1.327 1_554 S
C235 H229 0.950 . S
C235 C234 1.327 1_556 S
C235 C239 1.429 1_556 S
C236 C219 1.574 1_545 S
C236 H230 0.949 . S
C236 C240 1.368 . S
C237 C218 1.429 . S
C237 C231 1.429 1_556 S
C237 C238 1.523 . S
C238 C219 1.368 1_556 S
C238 C232 1.368 . S
C238 C237 1.523 . S
C239 C223 1.429 . S
C239 C235 1.429 1_554 S
C239 C240 1.523 . S
C240 C224 1.368 1_554 S
C240 C236 1.368 . S
C240 C239 1.523 . S
H241 C216 0.950 . S
H242 C218 0.950 . S
H243 C219 0.949 . S
H244 C221 0.950 . S
H245 C223 0.950 . S
C246 C247 1.349 . S
C246 C248 1.327 . S
C246 H271 0.950 . S
C247 C246 1.349 . S
C247 C263 1.349 . S
C248 C246 1.327 . S
C248 C267 1.429 . S
C248 H272 0.950 . S
C249 C266 1.574 . S
C249 C268 1.368 . S
C249 H273 0.949 . S
H250 C254 0.949 . S
C251 C252 1.349 . S
C251 C253 1.327 . S
C251 H274 0.950 . S
C252 C251 1.349 . S
C252 C264 1.349 . S
C253 C251 1.327 . S
C253 C269 1.429 . S
C253 H275 0.950 . S
C254 H250 0.949 . S
C254 C262 1.574 . S
C254 C270 1.368 . S
H255 C263 0.950 . S
H256 C261 0.950 . S
H257 C262 0.949 . S
H258 C264 0.950 . S
H259 C265 0.950 . S
H260 C266 0.949 . S
C261 H256 0.950 . S
C261 C263 1.327 . S
C261 C267 1.429 . S
C262 C254 1.574 . S
C262 H257 0.949 . S
C262 C268 1.368 . S
C263 C247 1.349 . S
C263 H255 0.950 . S
C263 C261 1.327 . S
C264 C252 1.349 . S
C264 H258 0.950 . S
C264 C265 1.327 . S
C265 H259 0.950 . S
C265 C264 1.327 . S
C265 C269 1.429 . S
C266 C249 1.574 . S
C266 H260 0.949 . S
C266 C270 1.368 . S
C267 C248 1.429 . S
C267 C261 1.429 . S
C267 C268 1.523 . S
C268 C249 1.368 . S
C268 C262 1.368 . S
C268 C267 1.523 . S
C269 C253 1.429 . S
C269 C265 1.429 . S
C269 C270 1.523 . S
C270 C254 1.368 . S
C270 C266 1.368 . S
C270 C269 1.523 . S
H271 C246 0.950 . S
H272 C248 0.950 . S
H273 C249 0.949 . S
H274 C251 0.950 . S
H275 C253 0.950 . S
C276 C277 1.349 . S
C276 C278 1.327 . S
C276 H301 0.950 . S
C277 C276 1.349 . S
C277 C293 1.349 . S
C278 C276 1.327 . S
C278 C297 1.429 . S
C278 H302 0.950 . S
C279 C296 1.574 1_655 S
C279 C298 1.368 . S
C279 H303 0.949 . S
H280 C284 0.949 . S
C281 C282 1.349 . S
C281 C283 1.327 . S
C281 H304 0.950 . S
C282 C281 1.349 . S
C282 C294 1.349 . S
C283 C281 1.327 . S
C283 C299 1.429 . S
C283 H305 0.950 . S
C284 H280 0.949 . S
C284 C292 1.574 1_455 S
C284 C300 1.368 . S
H285 C293 0.950 . S
H286 C291 0.950 . S
H287 C292 0.949 . S
H288 C294 0.950 . S
H289 C295 0.950 . S
H290 C296 0.949 . S
C291 H286 0.950 . S
C291 C293 1.327 . S
C291 C297 1.429 . S
C292 C284 1.574 1_655 S
C292 H287 0.949 . S
C292 C298 1.368 . S
C293 C277 1.349 . S
C293 H285 0.950 . S
C293 C291 1.327 . S
C294 C282 1.349 . S
C294 H288 0.950 . S
C294 C295 1.327 . S
C295 H289 0.950 . S
C295 C294 1.327 . S
C295 C299 1.429 . S
C296 C279 1.574 1_455 S
C296 H290 0.949 . S
C296 C300 1.368 . S
C297 C278 1.429 . S
C297 C291 1.429 . S
C297 C298 1.523 . S
C298 C279 1.368 . S
C298 C292 1.368 . S
C298 C297 1.523 . S
C299 C283 1.429 . S
C299 C295 1.429 . S
C299 C300 1.523 . S
C300 C284 1.368 . S
C300 C296 1.368 . S
C300 C299 1.523 . S
H301 C276 0.950 . S
H302 C278 0.950 . S
H303 C279 0.949 . S
H304 C281 0.950 . S
H305 C283 0.950 . S
C306 C307 1.349 . S
C306 C308 1.327 . S
C306 H331 0.950 . S
C307 C306 1.349 . S
C307 C323 1.349 . S
C308 C306 1.327 . S
C308 C327 1.429 . S
C308 H332 0.950 . S
C309 C326 1.574 1_565 S
C309 C328 1.368 1_556 S
C309 H333 0.949 . S
H310 C314 0.949 . S
C311 C312 1.349 . S
C311 C313 1.327 . S
C311 H334 0.950 . S
C312 C311 1.349 . S
C312 C324 1.349 . S
C313 C311 1.327 . S
C313 C329 1.429 . S
C313 H335 0.950 . S
C314 H310 0.949 . S
C314 C322 1.574 1_545 S
C314 C330 1.368 1_554 S
H315 C323 0.950 . S
H316 C321 0.950 1_556 S
H317 C322 0.949 . S
H318 C324 0.950 . S
H319 C325 0.950 1_554 S
H320 C326 0.949 . S
C321 H316 0.950 1_554 S
C321 C323 1.327 . S
C321 C327 1.429 . S
C322 C314 1.574 1_565 S
C322 H317 0.949 . S
C322 C328 1.368 . S
C323 C307 1.349 . S
C323 H315 0.950 . S
C323 C321 1.327 . S
C324 C312 1.349 . S
C324 H318 0.950 . S
C324 C325 1.327 . S
C325 H319 0.950 1_556 S
C325 C324 1.327 . S
C325 C329 1.429 . S
C326 C309 1.574 1_545 S
C326 H320 0.949 . S
C326 C330 1.368 . S
C327 C308 1.429 . S
C327 C321 1.429 . S
C327 C328 1.523 . S
C328 C309 1.368 1_554 S
C328 C322 1.368 . S
C328 C327 1.523 . S
C329 C313 1.429 . S
C329 C325 1.429 . S
C329 C330 1.523 . S
C330 C314 1.368 1_556 S
C330 C326 1.368 . S
C330 C329 1.523 . S
H331 C306 0.950 . S
H332 C308 0.950 . S
H333 C309 0.949 . S
H334 C311 0.950 . S
H335 C313 0.950 . S
C336 C337 1.349 . S
C336 C338 1.327 . S
C336 H361 0.950 . S
C337 C336 1.349 . S
C337 C353 1.349 . S
C338 C336 1.327 . S
C338 C357 1.429 . S
C338 H362 0.950 . S
C339 C356 1.573 . S
C339 C358 1.369 1_554 S
C339 H363 0.949 1_554 S
H340 C344 0.949 1_554 S
C341 C342 1.349 . S
C341 C343 1.327 . S
C341 H364 0.950 . S
C342 C341 1.349 . S
C342 C354 1.349 . S
C343 C341 1.327 . S
C343 C359 1.429 . S
C343 H365 0.950 . S
C344 H340 0.949 1_556 S
C344 C352 1.574 . S
C344 C360 1.368 1_556 S
H345 C353 0.950 . S
H346 C351 0.950 . S
H347 C352 0.949 . S
H348 C354 0.950 . S
H349 C355 0.950 . S
H350 C356 0.949 . S
C351 H346 0.950 . S
C351 C353 1.327 . S
C351 C357 1.429 . S
C352 C344 1.574 . S
C352 H347 0.949 . S
C352 C358 1.368 . S
C353 C337 1.349 . S
C353 H345 0.950 . S
C353 C351 1.327 . S
C354 C342 1.349 . S
C354 H348 0.950 . S
C354 C355 1.327 . S
C355 H349 0.950 . S
C355 C354 1.327 . S
C355 C359 1.429 . S
C356 C339 1.573 . S
C356 H350 0.949 . S
C356 C360 1.368 . S
C357 C338 1.429 . S
C357 C351 1.429 . S
C357 C358 1.523 . S
C358 C339 1.369 1_556 S
C358 C352 1.368 . S
C358 C357 1.523 . S
C359 C343 1.429 . S
C359 C355 1.429 . S
C359 C360 1.523 . S
C360 C344 1.368 1_554 S
C360 C356 1.368 . S
C360 C359 1.523 . S
H361 C336 0.950 . S
H362 C338 0.950 . S
H363 C339 0.949 1_556 S
H364 C341 0.950 . S
H365 C343 0.950 . S
C366 C367 1.349 . S
C366 C368 1.327 . S
C366 H391 0.950 . S
C367 C366 1.349 . S
C367 C383 1.349 . S
C368 C366 1.327 . S
C368 C387 1.429 . S
C368 H392 0.950 . S
C369 C386 1.574 . S
C369 C388 1.368 . S
C369 H393 0.949 . S
H370 C374 0.949 . S
C371 C372 1.349 . S
C371 C373 1.327 . S
C371 H394 0.950 . S
C372 C371 1.349 . S
C372 C384 1.349 . S
C373 C371 1.327 . S
C373 C389 1.429 . S
C373 H395 0.950 . S
C374 H370 0.949 . S
C374 C382 1.574 . S
C374 C390 1.368 . S
H375 C383 0.950 . S
H376 C381 0.950 . S
H377 C382 0.949 . S
H378 C384 0.950 . S
H379 C385 0.950 . S
H380 C386 0.949 . S
C381 H376 0.950 . S
C381 C383 1.327 . S
C381 C387 1.429 . S
C382 C374 1.574 . S
C382 H377 0.949 . S
C382 C388 1.368 . S
C383 C367 1.349 . S
C383 H375 0.950 . S
C383 C381 1.327 . S
C384 C372 1.349 . S
C384 H378 0.950 . S
C384 C385 1.327 . S
C385 H379 0.950 . S
C385 C384 1.327 . S
C385 C389 1.429 . S
C386 C369 1.574 . S
C386 H380 0.949 . S
C386 C390 1.368 . S
C387 C368 1.429 . S
C387 C381 1.429 . S
C387 C388 1.523 . S
C388 C369 1.368 . S
C388 C382 1.368 . S
C388 C387 1.523 . S
C389 C373 1.429 . S
C389 C385 1.429 . S
C389 C390 1.523 . S
C390 C374 1.368 . S
C390 C386 1.368 . S
C390 C389 1.523 . S
H391 C366 0.950 . S
H392 C368 0.950 . S
H393 C369 0.949 . S
H394 C371 0.950 . S
H395 C373 0.950 . S
C396 C397 1.349 . S
C396 C398 1.327 . S
C396 H421 0.950 . S
C397 C396 1.349 . S
C397 C413 1.349 . S
C398 C396 1.327 . S
C398 C417 1.429 . S
C398 H422 0.950 . S
C399 C416 1.574 . S
C399 C418 1.368 . S
C399 H423 0.949 . S
H400 C404 0.949 . S
C401 C402 1.349 . S
C401 C403 1.327 . S
C401 H424 0.950 . S
C402 C401 1.349 . S
C402 C414 1.349 . S
C403 C401 1.327 . S
C403 C419 1.429 . S
C403 H425 0.950 . S
C404 H400 0.949 . S
C404 C412 1.574 . S
C404 C420 1.368 . S
H405 C413 0.950 . S
H406 C411 0.950 . S
H407 C412 0.949 . S
H408 C414 0.950 . S
H409 C415 0.950 . S
H410 C416 0.949 . S
C411 H406 0.950 . S
C411 C413 1.327 . S
C411 C417 1.429 . S
C412 C404 1.574 . S
C412 H407 0.949 . S
C412 C418 1.368 . S
C413 C397 1.349 . S
C413 H405 0.950 . S
C413 C411 1.327 . S
C414 C402 1.349 . S
C414 H408 0.950 . S
C414 C415 1.327 . S
C415 H409 0.950 . S
C415 C414 1.327 . S
C415 C419 1.429 . S
C416 C399 1.574 . S
C416 H410 0.949 . S
C416 C420 1.368 . S
C417 C398 1.429 . S
C417 C411 1.429 . S
C417 C418 1.523 . S
C418 C399 1.368 . S
C418 C412 1.368 . S
C418 C417 1.523 . S
C419 C403 1.429 . S
C419 C415 1.429 . S
C419 C420 1.523 . S
C420 C404 1.368 . S
C420 C416 1.368 . S
C420 C419 1.523 . S
H421 C396 0.950 . S
H422 C398 0.950 . S
H423 C399 0.949 . S
H424 C401 0.950 . S
H425 C403 0.950 . S
C426 C427 1.349 . S
C426 C428 1.327 . S
C426 H451 0.950 . S
C427 C426 1.349 . S
C427 C443 1.349 . S
C428 C426 1.327 . S
C428 C447 1.429 . S
C428 H452 0.950 . S
C429 C446 1.574 . S
C429 C448 1.368 1_556 S
C429 H453 0.949 1_556 S
H430 C434 0.949 1_556 S
C431 C432 1.349 . S
C431 C433 1.327 . S
C431 H454 0.950 . S
C432 C431 1.349 . S
C432 C444 1.349 . S
C433 C431 1.327 . S
C433 C449 1.429 . S
C433 H455 0.950 . S
C434 H430 0.949 1_554 S
C434 C442 1.573 . S
C434 C450 1.369 1_554 S
H435 C443 0.950 . S
H436 C441 0.950 . S
H437 C442 0.949 . S
H438 C444 0.950 . S
H439 C445 0.950 . S
H440 C446 0.949 . S
C441 H436 0.950 . S
C441 C443 1.327 . S
C441 C447 1.429 . S
C442 C434 1.573 . S
C442 H437 0.949 . S
C442 C448 1.368 . S
C443 C427 1.349 . S
C443 H435 0.950 . S
C443 C441 1.327 . S
C444 C432 1.349 . S
C444 H438 0.950 . S
C444 C445 1.327 . S
C445 H439 0.950 . S
C445 C444 1.327 . S
C445 C449 1.429 . S
C446 C429 1.574 . S
C446 H440 0.949 . S
C446 C450 1.368 . S
C447 C428 1.429 . S
C447 C441 1.429 . S
C447 C448 1.523 . S
C448 C429 1.368 1_554 S
C448 C442 1.368 . S
C448 C447 1.523 . S
C449 C433 1.429 . S
C449 C445 1.429 . S
C449 C450 1.523 . S
C450 C434 1.369 1_556 S
C450 C446 1.368 . S
C450 C449 1.523 . S
H451 C426 0.950 . S
H452 C428 0.950 . S
H453 C429 0.949 1_554 S
H454 C431 0.950 . S
H455 C433 0.950 . S
C456 C457 1.349 . S
C456 C458 1.327 . S
C456 H481 0.950 . S
C457 C456 1.349 . S
C457 C473 1.349 . S
C458 C456 1.327 . S
C458 C477 1.429 . S
C458 H482 0.950 . S
C459 C476 1.574 . S
C459 C478 1.368 . S
C459 H483 0.949 . S
H460 C464 0.949 . S
C461 C462 1.349 . S
C461 C463 1.327 . S
C461 H484 0.950 . S
C462 C461 1.349 . S
C462 C474 1.349 . S
C463 C461 1.327 . S
C463 C479 1.429 . S
C463 H485 0.950 . S
C464 H460 0.949 . S
C464 C472 1.574 . S
C464 C480 1.368 . S
H465 C473 0.950 . S
H466 C471 0.950 . S
H467 C472 0.949 . S
H468 C474 0.950 . S
H469 C475 0.950 . S
H470 C476 0.949 . S
C471 H466 0.950 . S
C471 C473 1.327 . S
C471 C477 1.429 . S
C472 C464 1.574 . S
C472 H467 0.949 . S
C472 C478 1.368 . S
C473 C457 1.349 . S
C473 H465 0.950 . S
C473 C471 1.327 . S
C474 C462 1.349 . S
C474 H468 0.950 . S
C474 C475 1.327 . S
C475 H469 0.950 . S
C475 C474 1.327 . S
C475 C479 1.429 . S
C476 C459 1.574 . S
C476 H470 0.949 . S
C476 C480 1.368 . S
C477 C458 1.429 . S
C477 C471 1.429 . S
C477 C478 1.523 . S
C478 C459 1.368 . S
C478 C472 1.368 . S
C478 C477 1.523 . S
C479 C463 1.429 . S
C479 C475 1.429 . S
C479 C480 1.523 . S
C480 C464 1.368 . S
C480 C476 1.368 . S
C480 C479 1.523 . S
H481 C456 0.950 . S
H482 C458 0.950 . S
H483 C459 0.949 . S
H484 C461 0.950 . S
H485 C463 0.950 . S
C486 C487 1.349 . S
C486 C488 1.327 . S
C486 H511 0.950 . S
C487 C486 1.349 . S
C487 C503 1.349 . S
C488 C486 1.327 . S
C488 C507 1.429 . S
C488 H512 0.950 . S
C489 C506 1.574 . S
C489 C508 1.368 . S
C489 H513 0.949 . S
H490 C494 0.949 . S
C491 C492 1.349 . S
C491 C493 1.327 . S
C491 H514 0.950 . S
C492 C491 1.349 . S
C492 C504 1.349 . S
C493 C491 1.327 . S
C493 C509 1.429 . S
C493 H515 0.950 . S
C494 H490 0.949 . S
C494 C502 1.574 . S
C494 C510 1.368 . S
H495 C503 0.950 . S
H496 C501 0.950 . S
H497 C502 0.949 . S
H498 C504 0.950 . S
H499 C505 0.950 . S
H500 C506 0.949 . S
C501 H496 0.950 . S
C501 C503 1.327 . S
C501 C507 1.429 . S
C502 C494 1.574 . S
C502 H497 0.949 . S
C502 C508 1.368 . S
C503 C487 1.349 . S
C503 H495 0.950 . S
C503 C501 1.327 . S
C504 C492 1.349 . S
C504 H498 0.950 . S
C504 C505 1.327 . S
C505 H499 0.950 . S
C505 C504 1.327 . S
C505 C509 1.429 . S
C506 C489 1.574 . S
C506 H500 0.949 . S
C506 C510 1.368 . S
C507 C488 1.429 . S
C507 C501 1.429 . S
C507 C508 1.523 . S
C508 C489 1.368 . S
C508 C502 1.368 . S
C508 C507 1.523 . S
C509 C493 1.429 . S
C509 C505 1.429 . S
C509 C510 1.523 . S
C510 C494 1.368 . S
C510 C506 1.368 . S
C510 C509 1.523 . S
H511 C486 0.950 . S
H512 C488 0.950 . S
H513 C489 0.949 . S
H514 C491 0.950 . S
H515 C493 0.950 . S
C516 C517 1.349 . S
C516 C518 1.327 . S
C516 H541 0.950 . S
C517 C516 1.349 . S
C517 C533 1.349 . S
C518 C516 1.327 . S
C518 C537 1.429 . S
C518 H542 0.950 . S
C519 C536 1.574 . S
C519 C538 1.368 . S
C519 H543 0.949 . S
H520 C524 0.949 . S
C521 C522 1.349 . S
C521 C523 1.327 . S
C521 H544 0.950 . S
C522 C521 1.349 . S
C522 C534 1.349 . S
C523 C521 1.327 . S
C523 C539 1.429 . S
C523 H545 0.950 . S
C524 H520 0.949 . S
C524 C532 1.574 . S
C524 C540 1.368 . S
H525 C533 0.950 . S
H526 C531 0.950 . S
H527 C532 0.949 . S
H528 C534 0.950 . S
H529 C535 0.950 . S
H530 C536 0.949 . S
C531 H526 0.950 . S
C531 C533 1.327 . S
C531 C537 1.429 . S
C532 C524 1.574 . S
C532 H527 0.949 . S
C532 C538 1.368 . S
C533 C517 1.349 . S
C533 H525 0.950 . S
C533 C531 1.327 . S
C534 C522 1.349 . S
C534 H528 0.950 . S
C534 C535 1.327 . S
C535 H529 0.950 . S
C535 C534 1.327 . S
C535 C539 1.429 . S
C536 C519 1.574 . S
C536 H530 0.949 . S
C536 C540 1.368 . S
C537 C518 1.429 . S
C537 C531 1.429 . S
C537 C538 1.523 . S
C538 C519 1.368 . S
C538 C532 1.368 . S
C538 C537 1.523 . S
C539 C523 1.429 . S
C539 C535 1.429 . S
C539 C540 1.523 . S
C540 C524 1.368 . S
C540 C536 1.368 . S
C540 C539 1.523 . S
H541 C516 0.950 . S
H542 C518 0.950 . S
H543 C519 0.949 . S
H544 C521 0.950 . S
H545 C523 0.950 . S
C546 C547 1.349 . S
C546 C548 1.327 . S
C546 H571 0.950 . S
C547 C546 1.349 . S
C547 C563 1.349 . S
C548 C546 1.327 . S
C548 C567 1.429 . S
C548 H572 0.950 . S
C549 C566 1.574 . S
C549 C568 1.368 . S
C549 H573 0.949 . S
H550 C554 0.949 . S
C551 C552 1.349 . S
C551 C553 1.327 . S
C551 H574 0.950 1_556 S
C552 C551 1.349 . S
C552 C564 1.349 . S
C553 C551 1.327 . S
C553 C569 1.429 . S
C553 H575 0.950 . S
C554 H550 0.949 . S
C554 C562 1.574 . S
C554 C570 1.368 . S
H555 C563 0.950 . S
H556 C561 0.950 . S
H557 C562 0.949 . S
H558 C564 0.950 . S
H559 C565 0.950 . S
H560 C566 0.949 . S
C561 H556 0.950 . S
C561 C563 1.327 . S
C561 C567 1.429 . S
C562 C554 1.574 . S
C562 H557 0.949 . S
C562 C568 1.368 . S
C563 C547 1.349 . S
C563 H555 0.950 . S
C563 C561 1.327 . S
C564 C552 1.349 . S
C564 H558 0.950 . S
C564 C565 1.327 . S
C565 H559 0.950 . S
C565 C564 1.327 . S
C565 C569 1.429 . S
C566 C549 1.574 . S
C566 H560 0.949 . S
C566 C570 1.368 . S
C567 C548 1.429 . S
C567 C561 1.429 . S
C567 C568 1.523 . S
C568 C549 1.368 . S
C568 C562 1.368 . S
C568 C567 1.523 . S
C569 C553 1.429 . S
C569 C565 1.429 . S
C569 C570 1.523 . S
C570 C554 1.368 . S
C570 C566 1.368 . S
C570 C569 1.523 . S
H571 C546 0.950 . S
H572 C548 0.950 . S
H573 C549 0.949 . S
H574 C551 0.950 1_554 S
H575 C553 0.950 . S
C576 C577 1.349 . S
C576 C578 1.327 . S
C576 H601 0.950 . S
C577 C576 1.349 . S
C577 C593 1.349 . S
C578 C576 1.327 . S
C578 C597 1.429 . S
C578 H602 0.950 . S
C579 C596 1.574 . S
C579 C598 1.368 . S
C579 H603 0.949 . S
H580 C584 0.949 . S
C581 C582 1.349 . S
C581 C583 1.327 . S
C581 H604 0.950 . S
C582 C581 1.349 . S
C582 C594 1.349 . S
C583 C581 1.327 . S
C583 C599 1.429 . S
C583 H605 0.950 . S
C584 H580 0.949 . S
C584 C592 1.574 . S
C584 C600 1.368 . S
H585 C593 0.950 1_556 S
H586 C591 0.950 . S
H587 C592 0.949 . S
H588 C594 0.950 . S
H589 C595 0.950 . S
H590 C596 0.949 . S
C591 H586 0.950 . S
C591 C593 1.327 . S
C591 C597 1.429 . S
C592 C584 1.574 . S
C592 H587 0.949 . S
C592 C598 1.368 . S
C593 C577 1.349 . S
C593 H585 0.950 1_554 S
C593 C591 1.327 . S
C594 C582 1.349 . S
C594 H588 0.950 . S
C594 C595 1.327 . S
C595 H589 0.950 . S
C595 C594 1.327 . S
C595 C599 1.429 . S
C596 C579 1.574 . S
C596 H590 0.949 . S
C596 C600 1.368 . S
C597 C578 1.429 . S
C597 C591 1.429 . S
C597 C598 1.523 . S
C598 C579 1.368 . S
C598 C592 1.368 . S
C598 C597 1.523 . S
C599 C583 1.429 . S
C599 C595 1.429 . S
C599 C600 1.523 . S
C600 C584 1.368 . S
C600 C596 1.368 . S
C600 C599 1.523 . S
H601 C576 0.950 . S
H602 C578 0.950 . S
H603 C579 0.949 . S
H604 C581 0.950 . S
H605 C583 0.950 . S
C606 C607 1.349 . S
C606 C608 1.327 . S
C606 H631 0.950 . S
C607 C606 1.349 . S
C607 C623 1.349 . S
C608 C606 1.327 . S
C608 C627 1.429 . S
C608 H632 0.950 . S
C609 C626 1.574 . S
C609 C628 1.368 . S
C609 H633 0.949 . S
H610 C614 0.949 . S
C611 C612 1.349 . S
C611 C613 1.327 . S
C611 H634 0.950 . S
C612 C611 1.349 . S
C612 C624 1.349 . S
C613 C611 1.327 . S
C613 C629 1.429 . S
C613 H635 0.950 . S
C614 H610 0.949 . S
C614 C622 1.574 . S
C614 C630 1.368 . S
H615 C623 0.950 . S
H616 C621 0.950 . S
H617 C622 0.949 . S
H618 C624 0.950 . S
H619 C625 0.950 . S
H620 C626 0.949 . S
C621 H616 0.950 . S
C621 C623 1.327 . S
C621 C627 1.429 . S
C622 C614 1.574 . S
C622 H617 0.949 . S
C622 C628 1.368 . S
C623 C607 1.349 . S
C623 H615 0.950 . S
C623 C621 1.327 . S
C624 C612 1.349 . S
C624 H618 0.950 . S
C624 C625 1.327 . S
C625 H619 0.950 . S
C625 C624 1.327 . S
C625 C629 1.429 . S
C626 C609 1.574 . S
C626 H620 0.949 . S
C626 C630 1.368 . S
C627 C608 1.429 . S
C627 C621 1.429 . S
C627 C628 1.523 . S
C628 C609 1.368 . S
C628 C622 1.368 . S
C628 C627 1.523 . S
C629 C613 1.429 . S
C629 C625 1.429 . S
C629 C630 1.523 . S
C630 C614 1.368 . S
C630 C626 1.368 . S
C630 C629 1.523 . S
H631 C606 0.950 . S
H632 C608 0.950 . S
H633 C609 0.949 . S
H634 C611 0.950 . S
H635 C613 0.950 . S
C636 C637 1.349 . S
C636 C638 1.327 . S
C636 H661 0.950 . S
C637 C636 1.349 . S
C637 C653 1.349 . S
C638 C636 1.327 . S
C638 C657 1.429 . S
C638 H662 0.950 . S
C639 C656 1.574 . S
C639 C658 1.368 . S
C639 H663 0.949 . S
H640 C644 0.949 . S
C641 C642 1.349 . S
C641 C643 1.327 . S
C641 H664 0.950 1_556 S
C642 C641 1.349 . S
C642 C654 1.349 . S
C643 C641 1.327 . S
C643 C659 1.429 . S
C643 H665 0.950 . S
C644 H640 0.949 . S
C644 C652 1.574 . S
C644 C660 1.368 . S
H645 C653 0.950 . S
H646 C651 0.950 . S
H647 C652 0.949 . S
H648 C654 0.950 . S
H649 C655 0.950 . S
H650 C656 0.949 . S
C651 H646 0.950 . S
C651 C653 1.327 . S
C651 C657 1.429 . S
C652 C644 1.574 . S
C652 H647 0.949 . S
C652 C658 1.368 . S
C653 C637 1.349 . S
C653 H645 0.950 . S
C653 C651 1.327 . S
C654 C642 1.349 . S
C654 H648 0.950 . S
C654 C655 1.327 . S
C655 H649 0.950 . S
C655 C654 1.327 . S
C655 C659 1.429 . S
C656 C639 1.574 . S
C656 H650 0.949 . S
C656 C660 1.368 . S
C657 C638 1.429 . S
C657 C651 1.429 . S
C657 C658 1.523 . S
C658 C639 1.368 . S
C658 C652 1.368 . S
C658 C657 1.523 . S
C659 C643 1.429 . S
C659 C655 1.429 . S
C659 C660 1.523 . S
C660 C644 1.368 . S
C660 C656 1.368 . S
C660 C659 1.523 . S
H661 C636 0.950 . S
H662 C638 0.950 . S
H663 C639 0.949 . S
H664 C641 0.950 1_554 S
H665 C643 0.950 . S
C666 C667 1.349 . S
C666 C668 1.327 . S
C666 H691 0.950 1_554 S
C667 C666 1.349 . S
C667 C683 1.349 . S
C668 C666 1.327 . S
C668 C687 1.429 . S
C668 H692 0.950 . S
C669 C686 1.574 . S
C669 C688 1.368 . S
C669 H693 0.949 . S
H670 C674 0.949 . S
C671 C672 1.349 . S
C671 C673 1.327 . S
C671 H694 0.950 . S
C672 C671 1.349 . S
C672 C684 1.349 . S
C673 C671 1.327 . S
C673 C689 1.429 . S
C673 H695 0.950 . S
C674 H670 0.949 . S
C674 C682 1.574 . S
C674 C690 1.368 . S
H675 C683 0.950 . S
H676 C681 0.950 . S
H677 C682 0.949 . S
H678 C684 0.950 . S
H679 C685 0.950 . S
H680 C686 0.949 . S
C681 H676 0.950 . S
C681 C683 1.327 . S
C681 C687 1.429 . S
C682 C674 1.574 . S
C682 H677 0.949 . S
C682 C688 1.368 . S
C683 C667 1.349 . S
C683 H675 0.950 . S
C683 C681 1.327 . S
C684 C672 1.349 . S
C684 H678 0.950 . S
C684 C685 1.327 . S
C685 H679 0.950 . S
C685 C684 1.327 . S
C685 C689 1.429 . S
C686 C669 1.574 . S
C686 H680 0.949 . S
C686 C690 1.368 . S
C687 C668 1.429 . S
C687 C681 1.429 . S
C687 C688 1.523 . S
C688 C669 1.368 . S
C688 C682 1.368 . S
C688 C687 1.523 . S
C689 C673 1.429 . S
C689 C685 1.429 . S
C689 C690 1.523 . S
C690 C674 1.368 . S
C690 C686 1.368 . S
C690 C689 1.523 . S
H691 C666 0.950 1_556 S
H692 C668 0.950 . S
H693 C669 0.949 . S
H694 C671 0.950 . S
H695 C673 0.950 . S
C696 C697 1.349 . S
C696 C698 1.327 . S
C696 H721 0.950 . S
C697 C696 1.349 . S
C697 C713 1.349 . S
C698 C696 1.327 . S
C698 C717 1.429 . S
C698 H722 0.950 . S
C699 C716 1.574 . S
C699 C718 1.368 . S
C699 H723 0.949 . S
H700 C704 0.949 . S
C701 C702 1.349 . S
C701 C703 1.327 . S
C701 H724 0.950 . S
C702 C701 1.349 . S
C702 C714 1.349 . S
C703 C701 1.327 . S
C703 C719 1.429 . S
C703 H725 0.950 . S
C704 H700 0.949 . S
C704 C712 1.574 . S
C704 C720 1.368 . S
H705 C713 0.950 . S
H706 C711 0.950 . S
H707 C712 0.949 . S
H708 C714 0.950 . S
H709 C715 0.950 . S
H710 C716 0.949 . S
C711 H706 0.950 . S
C711 C713 1.327 . S
C711 C717 1.429 . S
C712 C704 1.574 . S
C712 H707 0.949 . S
C712 C718 1.368 . S
C713 C697 1.349 . S
C713 H705 0.950 . S
C713 C711 1.327 . S
C714 C702 1.349 . S
C714 H708 0.950 . S
C714 C715 1.327 . S
C715 H709 0.950 . S
C715 C714 1.327 . S
C715 C719 1.429 . S
C716 C699 1.574 . S
C716 H710 0.949 . S
C716 C720 1.368 . S
C717 C698 1.429 . S
C717 C711 1.429 . S
C717 C718 1.523 . S
C718 C699 1.368 . S
C718 C712 1.368 . S
C718 C717 1.523 . S
C719 C703 1.429 . S
C719 C715 1.429 . S
C719 C720 1.523 . S
C720 C704 1.368 . S
C720 C716 1.368 . S
C720 C719 1.523 . S
H721 C696 0.950 . S
H722 C698 0.950 . S
H723 C699 0.949 . S
H724 C701 0.950 . S
H725 C703 0.950 . S
C726 C727 1.349 . S
C726 C728 1.327 . S
C726 H751 0.950 . S
C727 C726 1.349 . S
C727 C743 1.349 . S
C728 C726 1.327 . S
C728 C747 1.429 . S
C728 H752 0.950 . S
C729 C746 1.574 . S
C729 C748 1.368 . S
C729 H753 0.949 . S
H730 C734 0.949 . S
C731 C732 1.349 . S
C731 C733 1.327 . S
C731 H754 0.950 . S
C732 C731 1.349 . S
C732 C744 1.349 . S
C733 C731 1.327 . S
C733 C749 1.429 . S
C733 H755 0.950 . S
C734 H730 0.949 . S
C734 C742 1.574 . S
C734 C750 1.368 . S
H735 C743 0.950 . S
H736 C741 0.950 . S
H737 C742 0.949 . S
H738 C744 0.950 . S
H739 C745 0.950 . S
H740 C746 0.949 . S
C741 H736 0.950 . S
C741 C743 1.327 . S
C741 C747 1.429 . S
C742 C734 1.574 . S
C742 H737 0.949 . S
C742 C748 1.368 . S
C743 C727 1.349 . S
C743 H735 0.950 . S
C743 C741 1.327 . S
C744 C732 1.349 . S
C744 H738 0.950 . S
C744 C745 1.327 . S
C745 H739 0.950 . S
C745 C744 1.327 . S
C745 C749 1.429 . S
C746 C729 1.574 . S
C746 H740 0.949 . S
C746 C750 1.368 . S
C747 C728 1.429 . S
C747 C741 1.429 . S
C747 C748 1.523 . S
C748 C729 1.368 . S
C748 C742 1.368 . S
C748 C747 1.523 . S
C749 C733 1.429 . S
C749 C745 1.429 . S
C749 C750 1.523 . S
C750 C734 1.368 . S
C750 C746 1.368 . S
C750 C749 1.523 . S
H751 C726 0.950 . S
H752 C728 0.950 . S
H753 C729 0.949 . S
H754 C731 0.950 . S
H755 C733 0.950 . S
C756 C757 1.349 . S
C756 C758 1.327 . S
C756 H781 0.950 . S
C757 C756 1.349 . S
C757 C773 1.349 1_556 S
C758 C756 1.327 . S
C758 C777 1.429 . S
C758 H782 0.950 . S
C759 C776 1.574 . S
C759 C778 1.368 1_554 S
C759 H783 0.949 . S
H760 C764 0.949 . S
C761 C762 1.349 . S
C761 C763 1.327 . S
C761 H784 0.950 . S
C762 C761 1.349 . S
C762 C774 1.349 1_554 S
C763 C761 1.327 . S
C763 C779 1.429 . S
C763 H785 0.950 . S
C764 H760 0.949 . S
C764 C772 1.574 . S
C764 C780 1.368 1_556 S
H765 C773 0.950 . S
H766 C771 0.950 . S
H767 C772 0.949 . S
H768 C774 0.950 . S
H769 C775 0.950 . S
H770 C776 0.949 . S
C771 H766 0.950 . S
C771 C773 1.327 . S
C771 C777 1.429 1_554 S
C772 C764 1.574 . S
C772 H767 0.949 . S
C772 C778 1.368 . S
C773 C757 1.349 1_554 S
C773 H765 0.950 . S
C773 C771 1.327 . S
C774 C762 1.349 1_556 S
C774 H768 0.950 . S
C774 C775 1.327 . S
C775 H769 0.950 . S
C775 C774 1.327 . S
C775 C779 1.429 1_556 S
C776 C759 1.574 . S
C776 H770 0.949 . S
C776 C780 1.368 . S
C777 C758 1.429 . S
C777 C771 1.429 1_556 S
C777 C778 1.523 . S
C778 C759 1.368 1_556 S
C778 C772 1.368 . S
C778 C777 1.523 . S
C779 C763 1.429 . S
C779 C775 1.429 1_554 S
C779 C780 1.523 . S
C780 C764 1.368 1_554 S
C780 C776 1.368 . S
C780 C779 1.523 . S
H781 C756 0.950 . S
H782 C758 0.950 . S
H783 C759 0.949 . S
H784 C761 0.950 . S
H785 C763 0.950 . S
C786 C787 1.349 . S
C786 C788 1.327 . S
C786 H811 0.950 . S
C787 C786 1.349 . S
C787 C803 1.349 . S
C788 C786 1.327 . S
C788 C807 1.429 . S
C788 H812 0.950 . S
C789 C806 1.574 . S
C789 C808 1.368 . S
C789 H813 0.949 . S
H790 C794 0.949 . S
C791 C792 1.349 . S
C791 C793 1.327 . S
C791 H814 0.950 . S
C792 C791 1.349 . S
C792 C804 1.349 . S
C793 C791 1.327 . S
C793 C809 1.429 . S
C793 H815 0.950 . S
C794 H790 0.949 . S
C794 C802 1.574 . S
C794 C810 1.368 . S
H795 C803 0.950 . S
H796 C801 0.950 . S
H797 C802 0.949 . S
H798 C804 0.950 . S
H799 C805 0.950 . S
H800 C806 0.949 . S
C801 H796 0.950 . S
C801 C803 1.327 . S
C801 C807 1.429 . S
C802 C794 1.574 . S
C802 H797 0.949 . S
C802 C808 1.368 . S
C803 C787 1.349 . S
C803 H795 0.950 . S
C803 C801 1.327 . S
C804 C792 1.349 . S
C804 H798 0.950 . S
C804 C805 1.327 . S
C805 H799 0.950 . S
C805 C804 1.327 . S
C805 C809 1.429 . S
C806 C789 1.574 . S
C806 H800 0.949 . S
C806 C810 1.368 . S
C807 C788 1.429 . S
C807 C801 1.429 . S
C807 C808 1.523 . S
C808 C789 1.368 . S
C808 C802 1.368 . S
C808 C807 1.523 . S
C809 C793 1.429 . S
C809 C805 1.429 . S
C809 C810 1.523 . S
C810 C794 1.368 . S
C810 C806 1.368 . S
C810 C809 1.523 . S
H811 C786 0.950 . S
H812 C788 0.950 . S
H813 C789 0.949 . S
H814 C791 0.950 . S
H815 C793 0.950 . S
C816 C817 1.349 . S
C816 C818 1.327 . S
C816 H841 0.950 . S
C817 C816 1.349 . S
C817 C833 1.349 . S
C818 C816 1.327 . S
C818 C837 1.429 . S
C818 H842 0.950 . S
C819 C836 1.574 . S
C819 C838 1.368 . S
C819 H843 0.949 . S
H820 C824 0.949 . S
C821 C822 1.349 . S
C821 C823 1.327 . S
C821 H844 0.950 . S
C822 C821 1.349 . S
C822 C834 1.349 . S
C823 C821 1.327 . S
C823 C839 1.429 . S
C823 H845 0.950 . S
C824 H820 0.949 . S
C824 C832 1.574 . S
C824 C840 1.368 . S
H825 C833 0.950 . S
H826 C831 0.950 . S
H827 C832 0.949 . S
H828 C834 0.950 . S
H829 C835 0.950 . S
H830 C836 0.949 . S
C831 H826 0.950 . S
C831 C833 1.327 . S
C831 C837 1.429 . S
C832 C824 1.574 . S
C832 H827 0.949 . S
C832 C838 1.368 . S
C833 C817 1.349 . S
C833 H825 0.950 . S
C833 C831 1.327 . S
C834 C822 1.349 . S
C834 H828 0.950 . S
C834 C835 1.327 . S
C835 H829 0.950 . S
C835 C834 1.327 . S
C835 C839 1.429 . S
C836 C819 1.574 . S
C836 H830 0.949 . S
C836 C840 1.368 . S
C837 C818 1.429 . S
C837 C831 1.429 . S
C837 C838 1.523 . S
C838 C819 1.368 . S
C838 C832 1.368 . S
C838 C837 1.523 . S
C839 C823 1.429 . S
C839 C835 1.429 . S
C839 C840 1.523 . S
C840 C824 1.368 . S
C840 C836 1.368 . S
C840 C839 1.523 . S
H841 C816 0.950 . S
H842 C818 0.950 . S
H843 C819 0.949 . S
H844 C821 0.950 . S
H845 C823 0.950 . S
C846 C847 1.349 . S
C846 C848 1.327 . S
C846 H871 0.950 . S
C847 C846 1.349 . S
C847 C863 1.349 1_554 S
C848 C846 1.327 . S
C848 C867 1.429 . S
C848 H872 0.950 . S
C849 C866 1.574 . S
C849 C868 1.368 1_556 S
C849 H873 0.949 . S
H850 C854 0.949 . S
C851 C852 1.349 . S
C851 C853 1.327 . S
C851 H874 0.950 . S
C852 C851 1.349 . S
C852 C864 1.349 1_556 S
C853 C851 1.327 . S
C853 C869 1.429 . S
C853 H875 0.950 . S
C854 H850 0.949 . S
C854 C862 1.574 . S
C854 C870 1.368 1_554 S
H855 C863 0.950 . S
H856 C861 0.950 . S
H857 C862 0.949 . S
H858 C864 0.950 . S
H859 C865 0.950 . S
H860 C866 0.949 . S
C861 H856 0.950 . S
C861 C863 1.327 . S
C861 C867 1.429 1_556 S
C862 C854 1.574 . S
C862 H857 0.949 . S
C862 C868 1.368 . S
C863 C847 1.349 1_556 S
C863 H855 0.950 . S
C863 C861 1.327 . S
C864 C852 1.349 1_554 S
C864 H858 0.950 . S
C864 C865 1.327 . S
C865 H859 0.950 . S
C865 C864 1.327 . S
C865 C869 1.429 1_554 S
C866 C849 1.574 . S
C866 H860 0.949 . S
C866 C870 1.368 . S
C867 C848 1.429 . S
C867 C861 1.429 1_554 S
C867 C868 1.523 . S
C868 C849 1.368 1_554 S
C868 C862 1.368 . S
C868 C867 1.523 . S
C869 C853 1.429 . S
C869 C865 1.429 1_556 S
C869 C870 1.523 . S
C870 C854 1.368 1_556 S
C870 C866 1.368 . S
C870 C869 1.523 . S
H871 C846 0.950 . S
H872 C848 0.950 . S
H873 C849 0.949 . S
H874 C851 0.950 . S
H875 C853 0.950 . S
C157 C3 1.315 . S
C162 C122 1.315 . S
C187 C16 1.315 . S
C192 C135 1.315 . S
C217 C29 1.315 . S
C222 C148 1.315 . S
C247 C42 1.315 . S
C252 C81 1.315 . S
C277 C94 1.315 . S
C282 C57 1.315 . S
C307 C109 1.315 . S
C312 C68 1.315 . S
C337 C140 1.919 . S
C342 C4 1.919 . S
C367 C17 1.920 . S
C372 C153 1.920 . S
C397 C30 1.920 . S
C402 C82 1.920 . S
C427 C43 1.919 . S
C432 C95 1.919 . S
C457 C62 1.920 . S
C462 C114 1.920 . S
C487 C69 1.920 . S
C492 C127 1.920 . S
C517 C134 0.844 . S
C522 C10 0.844 . S
C547 C23 0.845 . S
C552 C147 0.845 . S
C577 C36 0.844 . S
C582 C88 0.844 . S
C607 C49 0.844 . S
C612 C101 0.844 . S
C637 C56 0.845 . S
C642 C108 0.845 . S
C667 C75 0.845 . S
C672 C121 0.845 . S
C697 C5 1.779 . S
C702 C83 1.779 . S
C727 C96 1.778 . S
C732 C18 1.778 . S
C757 C31 1.778 . S
C762 C107 1.778 . S
C787 C44 1.779 . S
C792 C120 1.779 . S
C817 C55 1.778 . S
C822 C133 1.778 . S
C847 C146 1.778 . S
C852 C70 1.778 . S
