# Generated by pormake.
# Topology lcy-e, (6)-cn, num edge types: 1
# Building blocks:
#     Node 0, Type 0, BuildingBlock: MIFKUJ_clean_sbu_0, # of connection points: 6
#     Node 1, Type 0, BuildingBlock: MIFKUJ_clean_sbu_0, # of connection points: 6
#     Node 2, Type 0, BuildingBlock: MIFKUJ_clean_sbu_0, # of connection points: 6
#     Node 3, Type 0, BuildingBlock: MIFKUJ_clean_sbu_0, # of connection points: 6
#     Node 4, Type 0, BuildingBlock: MIFKUJ_clean_sbu_0, # of connection points: 6
#     Node 5, Type 0, BuildingBlock: MIFKUJ_clean_sbu_0, # of connection points: 6
#     Node 6, Type 0, BuildingBlock: MIFKUJ_clean_sbu_0, # of connection points: 6
#     Node 7, Type 0, BuildingBlock: MIFKUJ_clean_sbu_0, # of connection points: 6
#     Node 8, Type 0, BuildingBlock: MIFKUJ_clean_sbu_0, # of connection points: 6
#     Node 9, Type 0, BuildingBlock: MIFKUJ_clean_sbu_0, # of connection points: 6
#     Node 10, Type 0, BuildingBlock: MIFKUJ_clean_sbu_0, # of connection points: 6
#     Node 11, Type 0, BuildingBlock: MIFKUJ_clean_sbu_0, # of connection points: 6
#     Edge 12, Type (0, 0), BuildingBlock: XIVTED_clean_linker_0, # of connection points: 2
#     Edge 13, Type (0, 0), BuildingBlock: XIVTED_clean_linker_0, # of connection points: 2
#     Edge 14, Type (0, 0), BuildingBlock: XIVTED_clean_linker_0, # of connection points: 2
#     Edge 15, Type (0, 0), BuildingBlock: XIVTED_clean_linker_0, # of connection points: 2
#     Edge 16, Type (0, 0), BuildingBlock: XIVTED_clean_linker_0, # of connection points: 2
#     Edge 17, Type (0, 0), BuildingBlock: XIVTED_clean_linker_0, # of connection points: 2
#     Edge 18, Type (0, 0), BuildingBlock: XIVTED_clean_linker_0, # of connection points: 2
#     Edge 19, Type (0, 0), BuildingBlock: XIVTED_clean_linker_0, # of connection points: 2
#     Edge 20, Type (0, 0), BuildingBlock: XIVTED_clean_linker_0, # of connection points: 2
#     Edge 21, Type (0, 0), BuildingBlock: XIVTED_clean_linker_0, # of connection points: 2
#     Edge 22, Type (0, 0), BuildingBlock: XIVTED_clean_linker_0, # of connection points: 2
#     Edge 23, Type (0, 0), BuildingBlock: XIVTED_clean_linker_0, # of connection points: 2
#     Edge 24, Type (0, 0), BuildingBlock: XIVTED_clean_linker_0, # of connection points: 2
#     Edge 25, Type (0, 0), BuildingBlock: XIVTED_clean_linker_0, # of connection points: 2
#     Edge 26, Type (0, 0), BuildingBlock: XIVTED_clean_linker_0, # of connection points: 2
#     Edge 27, Type (0, 0), BuildingBlock: XIVTED_clean_linker_0, # of connection points: 2
#     Edge 28, Type (0, 0), BuildingBlock: XIVTED_clean_linker_0, # of connection points: 2
#     Edge 29, Type (0, 0), BuildingBlock: XIVTED_clean_linker_0, # of connection points: 2
#     Edge 30, Type (0, 0), BuildingBlock: XIVTED_clean_linker_0, # of connection points: 2
#     Edge 31, Type (0, 0), BuildingBlock: XIVTED_clean_linker_0, # of connection points: 2
#     Edge 32, Type (0, 0), BuildingBlock: XIVTED_clean_linker_0, # of connection points: 2
#     Edge 33, Type (0, 0), BuildingBlock: XIVTED_clean_linker_0, # of connection points: 2
#     Edge 34, Type (0, 0), BuildingBlock: XIVTED_clean_linker_0, # of connection points: 2
#     Edge 35, Type (0, 0), BuildingBlock: XIVTED_clean_linker_0, # of connection points: 2
#     Edge 36, Type (0, 0), BuildingBlock: XIVTED_clean_linker_0, # of connection points: 2
#     Edge 37, Type (0, 0), BuildingBlock: XIVTED_clean_linker_0, # of connection points: 2
#     Edge 38, Type (0, 0), BuildingBlock: XIVTED_clean_linker_0, # of connection points: 2
#     Edge 39, Type (0, 0), BuildingBlock: XIVTED_clean_linker_0, # of connection points: 2
#     Edge 40, Type (0, 0), BuildingBlock: XIVTED_clean_linker_0, # of connection points: 2
#     Edge 41, Type (0, 0), BuildingBlock: XIVTED_clean_linker_0, # of connection points: 2
#     Edge 42, Type (0, 0), BuildingBlock: XIVTED_clean_linker_0, # of connection points: 2
#     Edge 43, Type (0, 0), BuildingBlock: XIVTED_clean_linker_0, # of connection points: 2
#     Edge 44, Type (0, 0), BuildingBlock: XIVTED_clean_linker_0, # of connection points: 2
#     Edge 45, Type (0, 0), BuildingBlock: XIVTED_clean_linker_0, # of connection points: 2
#     Edge 46, Type (0, 0), BuildingBlock: XIVTED_clean_linker_0, # of connection points: 2
#     Edge 47, Type (0, 0), BuildingBlock: XIVTED_clean_linker_0, # of connection points: 2
# Relax obj value: 0.176
# Max RMSD: 0.282
# Mean RMSD: 0.239
data_MOF--net-lcy-e--node1-MIFKUJ_clean_sbu_0--edge1-XIVTED_clean_linker_0
_symmetry_space_group_name_H-M    P1
_symmetry_Int_Tables_number       1
_symmetry_cell_setting            triclinic
loop_
_symmetry_equiv_pos_as_xyz
'x, y, z'
_cell_length_a     36.986022
_cell_length_b     40.055742
_cell_length_c     40.044677
_cell_angle_alpha  87.277353
_cell_angle_beta   88.795595
_cell_angle_gamma 88.449315
loop_
_atom_site_label
_atom_site_type_symbol
_atom_site_fract_x
_atom_site_fract_y
_atom_site_fract_z
_atom_type_partial_charge
Zn0 Zn 0.11548 0.23777 0.44606 0.0
Zn1 Zn 0.11229 0.14956 0.47188 0.0
C2 C 0.11456 0.29413 0.488 0.0
O3 O 0.08667 0.3035 0.4697 0.0
C4 C 0.07146 0.1231 0.41956 0.0
O5 O 0.09988 0.10285 0.41746 0.0
O6 O 0.10279 0.2654 0.40456 0.0
O7 O 0.15782 0.209 0.43091 0.0
O8 O 0.15884 0.15526 0.44695 0.0
C9 C 0.12289 0.29004 0.39732 0.0
O10 O 0.14839 0.2973 0.4179 0.0
O11 O 0.13203 0.26732 0.4817 0.0
C12 C 0.13151 0.1045 0.52578 0.0
O13 O 0.14666 0.13118 0.53648 0.0
O14 O 0.11584 0.10624 0.49783 0.0
O15 O 0.09972 0.18361 0.50537 0.0
O16 O 0.07264 0.2143 0.46656 0.0
O17 O 0.07142 0.14616 0.44029 0.0
C18 C 0.17301 0.18011 0.43142 0.0
C19 C 0.07785 0.20738 0.49739 0.0
Zn20 Zn 0.98979 0.87225 0.6883 0.0
Zn21 Zn 0.05679 0.87536 0.73391 0.0
C22 C 0.92977 0.89108 0.72573 0.0
O23 O 0.92087 0.86192 0.71513 0.0
C24 C 0.10157 0.84912 0.68332 0.0
O25 O 0.12019 0.87521 0.69057 0.0
O26 O 0.9572 0.86708 0.64873 0.0
O27 O 0.03276 0.89703 0.66847 0.0
O28 O 0.05285 0.92097 0.71262 0.0
C29 C 0.94897 0.8955 0.63494 0.0
O30 O 0.96245 0.92229 0.64712 0.0
O31 O 0.96069 0.90238 0.71767 0.0
C32 C 0.0945 0.87929 0.7972 0.0
O33 O 0.06407 0.89277 0.80833 0.0
O34 O 0.09733 0.87179 0.76676 0.0
O35 O 0.01352 0.85864 0.75793 0.0
O36 O 0.99574 0.82906 0.71654 0.0
O37 O 0.07181 0.84369 0.69875 0.0
C38 C 0.04915 0.92073 0.68122 0.0
C39 C -0.00067 0.83263 0.74772 0.0
Zn40 Zn 0.35305 0.74978 0.96023 0.0
Zn41 Zn 0.35477 0.83256 0.99515 0.0
C42 C 0.31665 0.70721 0.01281 0.0
O43 O 0.30794 0.73495 0.02763 0.0
C44 C 0.39719 0.86328 0.94282 0.0
O45 O 0.36774 0.88224 0.94017 0.0
O46 O 0.37116 0.73234 0.91595 0.0
O47 O 0.31123 0.78197 0.94864 0.0
O48 O 0.30853 0.832 0.97031 0.0
C49 C 0.3484 0.71304 0.90401 0.0
O50 O 0.31763 0.70816 0.92025 0.0
O51 O 0.33433 0.70866 0.98529 0.0
C52 C 0.37625 0.87479 0.04645 0.0
O53 O 0.39634 0.84814 0.05428 0.0
O54 O 0.35473 0.87399 0.02214 0.0
O55 O 0.36346 0.79316 0.02687 0.0
O56 O 0.39331 0.76487 0.98897 0.0
O57 O 0.39723 0.8382 0.9635 0.0
C58 C 0.29546 0.81029 0.95217 0.0
C59 C 0.38515 0.76944 0.01947 0.0
Zn60 Zn 0.43861 0.12513 0.23536 0.0
Zn61 Zn 0.49238 0.12997 0.17972 0.0
C62 C 0.46713 0.1578 0.28766 0.0
O63 O 0.4567 0.12915 0.30147 0.0
C64 C 0.45045 0.08885 0.13945 0.0
O65 O 0.45345 0.11504 0.11864 0.0
O66 O 0.39509 0.11838 0.26584 0.0
O67 O 0.4163 0.14069 0.19099 0.0
O68 O 0.46169 0.1715 0.17398 0.0
C69 C 0.3763 0.14542 0.26689 0.0
O70 O 0.38605 0.17123 0.24764 0.0
O71 O 0.46319 0.16333 0.25637 0.0
C72 C 0.55276 0.10628 0.14427 0.0
O73 O 0.5472 0.08111 0.16585 0.0
O74 O 0.53236 0.13223 0.14549 0.0
O75 O 0.51623 0.12133 0.22346 0.0
O76 O 0.4748 0.08584 0.24038 0.0
O77 O 0.46424 0.08952 0.16822 0.0
C78 C 0.42806 0.16624 0.17462 0.0
C79 C 0.50753 0.09501 0.24027 0.0
Zn80 Zn 0.61746 0.32343 0.50411 0.0
Zn81 Zn 0.61103 0.27858 0.57032 0.0
C82 C 0.59185 0.30198 0.44305 0.0
O83 O 0.62409 0.31217 0.43356 0.0
C84 C 0.65227 0.33029 0.59969 0.0
O85 O 0.62556 0.33002 0.62185 0.0
O86 O 0.63709 0.36319 0.47758 0.0
O87 O 0.58714 0.3443 0.54229 0.0
O88 O 0.56268 0.29838 0.56273 0.0
C89 C 0.64435 0.39036 0.49082 0.0
O90 O 0.64389 0.39138 0.52357 0.0
O91 O 0.58162 0.30478 0.47334 0.0
C92 C 0.59799 0.22261 0.61728 0.0
O93 O 0.59197 0.20619 0.59041 0.0
O94 O 0.60692 0.25302 0.61431 0.0
O95 O 0.62536 0.24728 0.53616 0.0
O96 O 0.65613 0.28506 0.50638 0.0
O97 O 0.65065 0.31192 0.57474 0.0
C98 C 0.56089 0.32962 0.55718 0.0
C99 C 0.64936 0.25453 0.5142 0.0
Zn100 Zn 0.9502 0.3805 0.72992 0.0
Zn101 Zn 0.98381 0.38784 0.81595 0.0
C102 C 0.98668 0.36573 0.66817 0.0
O103 O 0.97402 0.39584 0.65968 0.0
C104 C 0.92895 0.42884 0.84586 0.0
O105 O 0.92233 0.40013 0.86176 0.0
O106 O 0.90464 0.39526 0.70484 0.0
O107 O 0.93216 0.34721 0.7658 0.0
O108 O 0.95301 0.34807 0.81711 0.0
C109 C 0.89185 0.37211 0.68818 0.0
O110 O 0.90873 0.34282 0.68858 0.0
O111 O 0.98079 0.35382 0.69773 0.0
C112 C 0.04354 0.39798 0.85939 0.0
O113 O 0.05346 0.419 0.83493 0.0
O114 O 0.01475 0.38177 0.85667 0.0
O115 O 0.01832 0.39303 0.77672 0.0
O116 O 0.98209 0.41942 0.74054 0.0
O117 O 0.95349 0.42977 0.82308 0.0
C118 C 0.93325 0.33545 0.79582 0.0
C119 C 0.01371 0.41322 0.75167 0.0
Zn120 Zn 0.86739 0.68814 0.00561 0.0
Zn121 Zn 0.87276 0.73107 0.07546 0.0
C122 C 0.87877 0.7169 0.94183 0.0
O123 O 0.84503 0.70769 0.94035 0.0
C124 C 0.83428 0.67527 0.10524 0.0
O125 O 0.86289 0.67186 0.12412 0.0
O126 O 0.85165 0.6469 0.98214 0.0
O127 O 0.904 0.67029 0.03954 0.0
O128 O 0.91977 0.70714 0.07558 0.0
C129 C 0.87937 0.63351 0.96816 0.0
O130 O 0.91131 0.64583 0.97295 0.0
O131 O 0.89542 0.7123 0.96918 0.0
C132 C 0.85375 0.78704 0.11736 0.0
O133 O 0.83531 0.79851 0.09138 0.0
O134 O 0.87151 0.75954 0.11571 0.0
O135 O 0.86305 0.75954 0.03467 0.0
O136 O 0.82712 0.72257 0.01469 0.0
O137 O 0.83321 0.69831 0.08236 0.0
C138 C 0.92454 0.67924 0.06237 0.0
C139 C 0.83682 0.75277 0.0164 0.0
Zn140 Zn 0.54733 0.61423 0.25918 0.0
Zn141 Zn 0.49823 0.61728 0.32176 0.0
C142 C 0.50411 0.62955 0.20268 0.0
O143 O 0.51646 0.5994 0.19629 0.0
C144 C 0.55456 0.59011 0.36398 0.0
O145 O 0.54537 0.61642 0.38095 0.0
O146 O 0.59105 0.60407 0.23017 0.0
O147 O 0.56732 0.64275 0.29494 0.0
O148 O 0.51613 0.66351 0.31484 0.0
C149 C 0.60047 0.62691 0.2089 0.0
O150 O 0.58161 0.65516 0.20692 0.0
O151 O 0.5129 0.64218 0.22985 0.0
C152 C 0.45072 0.58852 0.36988 0.0
O153 O 0.46148 0.56195 0.35398 0.0
O154 O 0.46277 0.61685 0.36025 0.0
O155 O 0.47265 0.59812 0.28427 0.0
O156 O 0.52212 0.57059 0.2696 0.0
O157 O 0.53893 0.58574 0.33662 0.0
C158 C 0.54993 0.66571 0.30979 0.0
C159 C 0.48779 0.57272 0.27169 0.0
Zn160 Zn 0.24574 0.4179 0.13341 0.0
Zn161 Zn 0.16823 0.46037 0.12929 0.0
C162 C 0.31658 0.43459 0.15347 0.0
O163 O 0.32515 0.42625 0.12291 0.0
C164 C 0.14838 0.41261 0.08348 0.0
O165 O 0.12633 0.40464 0.10858 0.0
O166 O 0.26868 0.37791 0.11192 0.0
O167 O 0.20657 0.40131 0.16704 0.0
O168 O 0.15636 0.43233 0.16868 0.0
C169 C 0.25451 0.34932 0.11415 0.0
O170 O 0.22125 0.34675 0.12596 0.0
O171 O 0.28399 0.43235 0.1638 0.0
C172 C 0.12345 0.51986 0.13529 0.0
O173 O 0.14851 0.52872 0.15564 0.0
O174 O 0.12635 0.49178 0.12195 0.0
O175 O 0.21053 0.48834 0.13613 0.0
O176 O 0.24246 0.45918 0.10079 0.0
O177 O 0.17185 0.43461 0.08738 0.0
C178 C 0.1754 0.40774 0.17965 0.0
C179 C 0.23446 0.48714 0.11323 0.0
Zn180 Zn 0.6892 0.01295 0.88205 0.0
Zn181 Zn 0.72116 0.09702 0.8671 0.0
C182 C 0.72011 0.94606 0.88772 0.0
O183 O 0.69873 0.94138 0.86267 0.0
C184 C 0.65692 0.12178 0.83692 0.0
O185 O 0.65805 0.14166 0.86203 0.0
O186 O 0.64037 0.99284 0.87557 0.0
O187 O 0.68344 0.04462 0.91974 0.0
O188 O 0.70297 0.09649 0.91409 0.0
C189 C 0.6303 0.97496 0.90102 0.0
O190 O 0.65072 0.9732 0.92754 0.0
O191 O 0.72133 0.97494 0.89947 0.0
C192 C 0.77636 0.14532 0.87362 0.0
O193 O 0.78608 0.12476 0.89857 0.0
O194 O 0.74857 0.13902 0.85716 0.0
O195 O 0.7559 0.05982 0.8575 0.0
O196 O 0.71279 0.02949 0.83895 0.0
O197 O 0.68052 0.09832 0.83494 0.0
C198 C 0.68811 0.07313 0.93144 0.0
C199 C 0.7462 0.03537 0.84117 0.0
Zn200 Zn 0.77455 0.99149 0.38426 0.0
Zn201 Zn 0.74366 0.90703 0.38111 0.0
C202 C 0.74405 0.05803 0.38957 0.0
O203 O 0.75792 0.06154 0.35917 0.0
C204 C 0.7988 0.88182 0.33817 0.0
O205 O 0.802 0.86028 0.3638 0.0
O206 O 0.82128 0.01163 0.36704 0.0
O207 O 0.78896 0.95866 0.42183 0.0
O208 O 0.7712 0.9063 0.42381 0.0
C209 C 0.83488 0.02955 0.38871 0.0
O210 O 0.8186 0.03164 0.41804 0.0
O211 O 0.74631 0.02956 0.40503 0.0
C212 C 0.68415 0.86095 0.38712 0.0
O213 O 0.66596 0.88669 0.3987 0.0
O214 O 0.7175 0.86376 0.37957 0.0
O215 O 0.70586 0.94382 0.37486 0.0
O216 O 0.744 0.97631 0.347 0.0
O217 O 0.77684 0.90658 0.3406 0.0
C218 C 0.78835 0.92966 0.43617 0.0
C219 C 0.71168 0.96849 0.35458 0.0
Zn220 Zn 0.28277 0.50113 0.63423 0.0
Zn221 Zn 0.27008 0.59495 0.64081 0.0
C222 C 0.23529 0.4452 0.63494 0.0
O223 O 0.25528 0.43438 0.66015 0.0
C224 C 0.3234 0.6227 0.68176 0.0
O225 O 0.32564 0.64425 0.65607 0.0
O226 O 0.32667 0.47126 0.64324 0.0
O227 O 0.29919 0.52915 0.59397 0.0
O228 O 0.29599 0.58424 0.59816 0.0
C229 C 0.33249 0.45106 0.62002 0.0
O230 O 0.30917 0.45026 0.5958 0.0
O231 O 0.24184 0.47329 0.62032 0.0
C232 C 0.22081 0.64492 0.61431 0.0
O233 O 0.20598 0.61905 0.6016 0.0
O234 O 0.24869 0.64052 0.63211 0.0
O235 O 0.22825 0.56574 0.65323 0.0
O236 O 0.26485 0.52653 0.6734 0.0
O237 O 0.30293 0.59785 0.68003 0.0
C238 C 0.3046 0.55859 0.58199 0.0
C239 C 0.23283 0.53813 0.66954 0.0
H240 H 0.16114 0.2765 0.53824 0.0
H241 H 0.18168 0.46257 0.5911 0.0
H242 H 0.09313 0.35835 0.50026 0.0
H243 H 0.22967 0.37759 0.64558 0.0
H244 H 0.14533 0.42465 0.56059 0.0
H245 H 0.18335 0.31246 0.58045 0.0
C246 C 0.15081 0.30204 0.53886 0.0
C247 C 0.12588 0.31473 0.51527 0.0
C248 C 0.1634 0.4143 0.57956 0.0
C249 C 0.15114 0.35599 0.56347 0.0
C250 C 0.18422 0.43593 0.59692 0.0
C251 C 0.20914 0.42313 0.62047 0.0
C252 C 0.16799 0.37961 0.58544 0.0
C253 C 0.211 0.38848 0.6274 0.0
C254 C 0.1633 0.32249 0.56311 0.0
C255 C 0.11276 0.34773 0.51768 0.0
N256 N 0.19115 0.36786 0.60953 0.0
N257 N 0.12597 0.3674 0.54104 0.0
H258 H 0.81927 0.04363 0.83772 0.0
H259 H 0.86005 0.87571 0.74224 0.0
H260 H 0.73619 0.97734 0.80937 0.0
H261 H 0.93923 0.95152 0.75323 0.0
H262 H 0.81559 0.90988 0.77195 0.0
H263 H 0.86471 0.00748 0.81167 0.0
C264 C 0.81056 0.02143 0.82606 0.0
C265 C 0.77384 0.01351 0.82564 0.0
C266 C 0.8427 0.91902 0.7679 0.0
C267 C 0.82578 0.97202 0.79589 0.0
C268 C 0.86815 0.8995 0.75102 0.0
C269 C 0.90335 0.9109 0.7451 0.0
C270 C 0.85254 0.95011 0.77908 0.0
C271 C 0.91234 0.94186 0.75713 0.0
C272 C 0.83654 0.00084 0.81117 0.0
C273 C 0.76417 0.98443 0.81021 0.0
N274 N 0.88703 0.96045 0.77353 0.0
N275 N 0.79002 0.9647 0.79595 0.0
H276 H 0.33011 0.64542 0.98803 0.0
H277 H 0.2261 0.54867 0.13881 0.0
H278 H 0.28025 0.69376 0.07208 0.0
H279 H 0.27741 0.49821 0.05676 0.0
H280 H 0.24775 0.60161 0.11527 0.0
H281 H 0.31276 0.59126 0.0131 0.0
C282 C 0.31553 0.64468 0.01179 0.0
C283 C 0.30647 0.67427 0.02792 0.0
C284 C 0.25442 0.57903 0.10237 0.0
C285 C 0.28661 0.61221 0.05676 0.0
C286 C 0.24203 0.54867 0.11581 0.0
C287 C 0.2497 0.51888 0.0996 0.0
C288 C 0.27463 0.57987 0.07233 0.0
C289 C 0.27077 0.52056 0.07003 0.0
C290 C 0.30569 0.61369 0.02609 0.0
C291 C 0.28767 0.67168 0.05867 0.0
N292 N 0.28235 0.55062 0.05722 0.0
N293 N 0.27831 0.64123 0.07202 0.0
H294 H 0.50131 0.03722 0.28038 0.0
H295 H 0.71437 0.02498 0.3138 0.0
H296 H 0.579 0.10874 0.24213 0.0
H297 H 0.6392 0.95484 0.35912 0.0
H298 H 0.66411 0.05546 0.28725 0.0
H299 H 0.55047 0.00603 0.30945 0.0
C300 C 0.52858 0.04639 0.27814 0.0
C301 C 0.53599 0.07562 0.25875 0.0
C302 C 0.65848 0.03342 0.30301 0.0
C303 C 0.59214 0.0402 0.29174 0.0
C304 C 0.68726 0.01595 0.31819 0.0
C305 C 0.68106 0.98725 0.33869 0.0
C306 C 0.62305 0.02214 0.30817 0.0
C307 C 0.64523 0.97686 0.3435 0.0
C308 C 0.55659 0.02861 0.29471 0.0
C309 C 0.57184 0.08637 0.25674 0.0
N310 N 0.61755 0.99425 0.32826 0.0
N311 N 0.59844 0.06867 0.27292 0.0
H312 H 0.65517 0.18954 0.5364 0.0
H313 H 0.74113 0.12352 0.36603 0.0
H314 H 0.68476 0.25587 0.45278 0.0
H315 H 0.71546 0.06017 0.45306 0.0
H316 H 0.72106 0.17237 0.39666 0.0
H317 H 0.67877 0.14231 0.50607 0.0
C318 C 0.66695 0.19422 0.51167 0.0
C319 C 0.66789 0.22675 0.49706 0.0
C320 C 0.71981 0.14778 0.40901 0.0
C321 C 0.69474 0.17237 0.46183 0.0
C322 C 0.73109 0.11983 0.39151 0.0
C323 C 0.72993 0.08763 0.40698 0.0
C324 C 0.70721 0.1435 0.44222 0.0
C325 C 0.71681 0.08444 0.44006 0.0
C326 C 0.68038 0.16714 0.4943 0.0
C327 C 0.68367 0.23123 0.46503 0.0
N328 N 0.70601 0.11198 0.45652 0.0
N329 N 0.69624 0.20426 0.44832 0.0
H330 H 0.01584 0.46317 0.70182 0.0
H331 H 0.23115 0.48113 0.71021 0.0
H332 H 0.08472 0.40258 0.76755 0.0
H333 H 0.16205 0.54915 0.65218 0.0
H334 H 0.17809 0.44913 0.72778 0.0
H335 H 0.06941 0.49223 0.67971 0.0
C336 C 0.04215 0.45591 0.71155 0.0
C337 C 0.04564 0.43056 0.73681 0.0
C338 C 0.17452 0.47102 0.71114 0.0
C339 C 0.10705 0.46362 0.71155 0.0
C340 C 0.20485 0.48926 0.70105 0.0
C341 C 0.2011 0.51789 0.67973 0.0
C342 C 0.14007 0.48152 0.69995 0.0
C343 C 0.16626 0.52731 0.66876 0.0
C344 C 0.07272 0.47252 0.69894 0.0
C345 C 0.08053 0.42212 0.7483 0.0
N346 N 0.13713 0.50923 0.67902 0.0
N347 N 0.10975 0.43862 0.73567 0.0
H348 H 0.77019 0.94772 0.93665 0.0
H349 H 0.78495 0.74892 0.96831 0.0
H350 H 0.71384 0.87927 0.87734 0.0
H351 H 0.84806 0.81945 0.01903 0.0
H352 H 0.75755 0.79568 0.93504 0.0
H353 H 0.79863 0.90029 0.96709 0.0
C354 C 0.76395 0.92268 0.92989 0.0
C355 C 0.73953 0.91746 0.90447 0.0
C356 C 0.77743 0.8008 0.95347 0.0
C357 C 0.77184 0.86285 0.93948 0.0
C358 C 0.79295 0.77416 0.97253 0.0
C359 C 0.81881 0.78025 0.99653 0.0
C360 C 0.78776 0.83366 0.95863 0.0
C361 C 0.82827 0.81346 0.00085 0.0
C362 C 0.78018 0.89555 0.94732 0.0
C363 C 0.73255 0.88443 0.89675 0.0
N364 N 0.81274 0.83881 0.98216 0.0
N365 N 0.74848 0.85832 0.91434 0.0
H366 H 0.50755 0.52581 0.22648 0.0
H367 H 0.30597 0.46019 0.21506 0.0
H368 H 0.41669 0.56161 0.28535 0.0
H369 H 0.38887 0.44264 0.13989 0.0
H370 H 0.34967 0.48912 0.24719 0.0
H371 H 0.46754 0.48712 0.20045 0.0
C372 C 0.47931 0.52525 0.23418 0.0
C373 C 0.46528 0.54713 0.25783 0.0
C374 C 0.35837 0.47875 0.22377 0.0
C375 C 0.41963 0.50309 0.22838 0.0
C376 C 0.33346 0.46215 0.20543 0.0
C377 C 0.34369 0.4493 0.17454 0.0
C378 C 0.39383 0.48249 0.21122 0.0
C379 C 0.37975 0.45245 0.16343 0.0
C380 C 0.45651 0.5033 0.21925 0.0
C381 C 0.42853 0.54545 0.26691 0.0
N382 N 0.40352 0.46894 0.18168 0.0
N383 N 0.40697 0.5239 0.2521 0.0
H384 H 0.50762 0.21232 0.26844 0.0
H385 H 0.5304 0.26678 0.45663 0.0
H386 H 0.46118 0.16018 0.35517 0.0
H387 H 0.60202 0.29865 0.37545 0.0
H388 H 0.49669 0.23502 0.41757 0.0
H389 H 0.53492 0.25143 0.3055 0.0
C390 C 0.50298 0.20927 0.29519 0.0
C391 C 0.48244 0.18284 0.30881 0.0
C392 C 0.51967 0.24914 0.40829 0.0
C393 C 0.51309 0.22737 0.35108 0.0
C394 C 0.53882 0.26737 0.43054 0.0
C395 C 0.56925 0.28512 0.41933 0.0
C396 C 0.53085 0.24887 0.37455 0.0
C397 C 0.57891 0.28503 0.38522 0.0
C398 C 0.51859 0.23147 0.31629 0.0
C399 C 0.47719 0.17997 0.34363 0.0
N400 N 0.55984 0.26707 0.36402 0.0
N401 N 0.49241 0.20193 0.36353 0.0
H402 H 0.09916 0.20896 0.56235 0.0
H403 H 0.98826 0.37705 0.60021 0.0
H404 H 0.02867 0.25963 0.49062 0.0
H405 H 0.02362 0.30598 0.67797 0.0
H406 H 0.01215 0.33936 0.55824 0.0
H407 H 0.0799 0.24909 0.60367 0.0
C408 C 0.07956 0.22847 0.55527 0.0
C409 C 0.0656 0.23102 0.52287 0.0
C410 C 0.01474 0.33212 0.58451 0.0
C411 C 0.04374 0.27714 0.57006 0.0
C412 C 0.00133 0.35367 0.60849 0.0
C413 C 0.00374 0.34454 0.64267 0.0
C414 C 0.03102 0.3014 0.59478 0.0
C415 C 0.02095 0.31392 0.6519 0.0
C416 C 0.06867 0.25138 0.57888 0.0
C417 C 0.04028 0.25684 0.51522 0.0
N418 N 0.03392 0.29342 0.62808 0.0
N419 N 0.03031 0.27904 0.53858 0.0
H420 H 0.02805 0.81673 0.80783 0.0
H421 H 0.85226 0.72584 0.87871 0.0
H422 H 0.93948 0.79373 0.74517 0.0
H423 H 0.94844 0.73761 0.93588 0.0
H424 H 0.88429 0.74782 0.82874 0.0
H425 H 0.00072 0.78387 0.8538 0.0
C426 C 0.00297 0.8043 0.80371 0.0
C427 C 0.9857 0.80809 0.77291 0.0
C428 C 0.89842 0.74537 0.85218 0.0
C429 C 0.95383 0.77096 0.82559 0.0
C430 C 0.88012 0.73304 0.88075 0.0
C431 C 0.89765 0.73022 0.91155 0.0
C432 C 0.9344 0.75509 0.85452 0.0
C433 C 0.93379 0.73962 0.91272 0.0
C434 C 0.98734 0.78556 0.82996 0.0
C435 C 0.95352 0.79132 0.76864 0.0
N436 N 0.95089 0.75181 0.88463 0.0
N437 N 0.93821 0.77381 0.79498 0.0
H438 H 0.4721 0.69187 0.20759 0.0
H439 H 0.42236 0.70973 0.014 0.0
H440 H 0.48955 0.61266 0.13914 0.0
H441 H 0.38433 0.77955 0.08659 0.0
H442 H 0.44919 0.67471 0.0592 0.0
H443 H 0.44146 0.72531 0.16332 0.0
C444 C 0.46933 0.68144 0.18334 0.0
C445 C 0.4835 0.64944 0.17706 0.0
C446 C 0.4349 0.69767 0.06523 0.0
C447 C 0.44878 0.68766 0.12623 0.0
C448 C 0.41973 0.71774 0.03941 0.0
C449 C 0.40127 0.74772 0.04647 0.0
C450 C 0.43191 0.70779 0.09834 0.0
C451 C 0.39837 0.75667 0.07995 0.0
C452 C 0.45183 0.70053 0.15808 0.0
C453 C 0.47908 0.63719 0.14514 0.0
N454 N 0.41371 0.73691 0.10459 0.0
N455 N 0.46234 0.65638 0.1209 0.0
H456 H 0.12763 0.35662 0.38336 0.0
H457 H 0.19288 0.34278 0.19919 0.0
H458 H 0.11735 0.26257 0.33679 0.0
H459 H 0.12831 0.42859 0.22778 0.0
H460 H 0.17297 0.31269 0.25108 0.0
H461 H 0.13494 0.38449 0.32784 0.0
C462 C 0.12633 0.34203 0.36133 0.0
C463 C 0.1216 0.30747 0.36434 0.0
C464 C 0.16293 0.33797 0.2456 0.0
C465 C 0.13126 0.33868 0.30138 0.0
C466 C 0.1744 0.35515 0.21626 0.0
C467 C 0.16228 0.38819 0.20934 0.0
C468 C 0.14014 0.35439 0.26838 0.0
C469 C 0.13823 0.40311 0.23215 0.0
C470 C 0.1305 0.35784 0.32982 0.0
C471 C 0.12049 0.28941 0.33525 0.0
N472 N 0.12842 0.38629 0.26097 0.0
N473 N 0.12604 0.30516 0.30481 0.0
H474 H 0.92851 0.95332 0.60159 0.0
H475 H 0.80185 0.86954 0.47093 0.0
H476 H 0.91318 0.8468 0.60273 0.0
H477 H 0.82363 0.97488 0.47159 0.0
H478 H 0.84007 0.8599 0.52006 0.0
H479 H 0.88815 0.96075 0.55481 0.0
C480 C 0.91665 0.93137 0.59199 0.0
C481 C 0.92438 0.89933 0.60617 0.0
C482 C 0.83631 0.88509 0.50944 0.0
C483 C 0.87766 0.90778 0.55207 0.0
C484 C 0.81442 0.89065 0.48147 0.0
C485 C 0.80952 0.92309 0.46698 0.0
C486 C 0.85331 0.91217 0.52301 0.0
C487 C 0.8266 0.94943 0.48169 0.0
C488 C 0.89348 0.93567 0.56515 0.0
C489 C 0.90803 0.87194 0.59252 0.0
N490 N 0.84768 0.94336 0.50873 0.0
N491 N 0.88541 0.87677 0.56615 0.0
H492 H 0.31917 0.58621 0.74121 0.0
H493 H 0.39043 0.73328 0.84939 0.0
H494 H 0.36187 0.67759 0.69669 0.0
H495 H 0.32137 0.65433 0.88691 0.0
H496 H 0.3937 0.70719 0.79486 0.0
H497 H 0.33444 0.60457 0.79625 0.0
C498 C 0.33228 0.60991 0.74292 0.0
C499 C 0.33862 0.63066 0.71429 0.0
C500 C 0.37827 0.69543 0.81525 0.0
C501 C 0.35591 0.65198 0.7774 0.0
C502 C 0.37653 0.71021 0.84631 0.0
C503 C 0.35521 0.69613 0.87244 0.0
C504 C 0.35901 0.66622 0.81071 0.0
C505 C 0.33766 0.66628 0.86723 0.0
C506 C 0.34088 0.62045 0.77441 0.0
C507 C 0.35605 0.66097 0.71812 0.0
N508 N 0.33982 0.65244 0.83699 0.0
N509 N 0.36366 0.67095 0.74916 0.0
H510 H 0.59311 0.05075 0.12912 0.0
H511 H 0.67724 0.13338 0.96033 0.0
H512 H 0.57322 0.15386 0.09666 0.0
H513 H 0.66821 0.02698 0.98028 0.0
H514 H 0.65006 0.14287 0.01546 0.0
H515 H 0.63207 0.0436 0.07992 0.0
C516 C 0.59724 0.07201 0.11185 0.0
C517 C 0.57953 0.10284 0.11675 0.0
C518 C 0.65433 0.11747 0.00779 0.0
C519 C 0.62404 0.09477 0.06044 0.0
C520 C 0.66991 0.11202 0.97642 0.0
C521 C 0.67464 0.07934 0.96558 0.0
C522 C 0.64379 0.09005 0.02851 0.0
C523 C 0.66468 0.0526 0.98746 0.0
C524 C 0.6194 0.06786 0.08373 0.0
C525 C 0.58606 0.12955 0.09364 0.0
N526 N 0.64962 0.05856 0.01784 0.0
N527 N 0.60765 0.12484 0.06631 0.0
H528 H 0.59213 0.2517 0.67734 0.0
H529 H 0.64857 0.08699 0.78041 0.0
H530 H 0.59914 0.15532 0.63346 0.0
H531 H 0.61543 0.17865 0.82618 0.0
H532 H 0.62389 0.10918 0.72755 0.0
H533 H 0.59478 0.22398 0.73275 0.0
C534 C 0.59398 0.22464 0.67941 0.0
C535 C 0.596 0.20577 0.65079 0.0
C536 C 0.62139 0.12418 0.74932 0.0
C537 C 0.59927 0.17384 0.71419 0.0
C538 C 0.63545 0.11151 0.77953 0.0
C539 C 0.63479 0.13132 0.80755 0.0
C540 C 0.60702 0.157 0.74708 0.0
C541 C 0.61706 0.16271 0.80509 0.0
C542 C 0.59527 0.2088 0.71108 0.0
C543 C 0.59781 0.1708 0.65491 0.0
N544 N 0.60451 0.17485 0.77518 0.0
N545 N 0.60001 0.15593 0.68607 0.0
H546 H 0.09936 0.36696 0.06595 0.0
H547 H 0.10619 0.42888 0.87371 0.0
H548 H 0.17878 0.43465 0.02362 0.0
H549 H 0.02857 0.35942 0.91608 0.0
H550 H 0.13768 0.42616 0.92684 0.0
H551 H 0.07841 0.35799 0.0098 0.0
C552 C 0.11281 0.37953 0.04481 0.0
C553 C 0.14052 0.40198 0.04957 0.0
C554 C 0.11395 0.41128 0.92443 0.0
C555 C 0.11629 0.39218 0.98515 0.0
C556 C 0.0959 0.41287 0.8941 0.0
C557 C 0.06444 0.39464 0.89053 0.0
C558 C 0.10038 0.39143 0.95147 0.0
C559 C 0.05254 0.37413 0.91775 0.0
C560 C 0.10074 0.37448 0.01272 0.0
C561 C 0.15712 0.41734 0.02118 0.0
N562 N 0.07033 0.37331 0.94713 0.0
N563 N 0.1444 0.41252 0.99022 0.0
H564 H 0.78765 0.91429 0.27717 0.0
H565 H 0.88594 0.76849 0.1766 0.0
H566 H 0.84594 0.83038 0.32398 0.0
H567 H 0.81764 0.8459 0.13043 0.0
H568 H 0.87906 0.79567 0.22971 0.0
H569 H 0.80645 0.89475 0.22237 0.0
C570 C 0.80488 0.89206 0.27597 0.0
C571 C 0.81487 0.87372 0.30525 0.0
C572 C 0.86577 0.80686 0.20792 0.0
C573 C 0.8362 0.85107 0.24257 0.0
C574 C 0.86969 0.79135 0.17754 0.0
C575 C 0.85202 0.80473 0.14904 0.0
C576 C 0.84401 0.83601 0.20993 0.0
C577 C 0.83151 0.83453 0.15179 0.0
C578 C 0.81546 0.88083 0.24465 0.0
C579 C 0.83729 0.84515 0.30211 0.0
N580 N 0.82787 0.84903 0.18175 0.0
N581 N 0.8469 0.83455 0.27136 0.0
H582 H 0.32732 0.51002 0.53977 0.0
H583 H 0.42359 0.63796 0.40909 0.0
H584 H 0.324 0.61712 0.54886 0.0
H585 H 0.4223 0.53129 0.39804 0.0
H586 H 0.38534 0.63114 0.45932 0.0
H587 H 0.36031 0.51763 0.48674 0.0
C588 C 0.33335 0.53517 0.53058 0.0
C589 C 0.32297 0.56297 0.54895 0.0
C590 C 0.3933 0.60925 0.44582 0.0
C591 C 0.36094 0.57182 0.48817 0.0
C592 C 0.41514 0.61312 0.41714 0.0
C593 C 0.42629 0.58513 0.39942 0.0
C594 C 0.38261 0.57714 0.45692 0.0
C595 C 0.41446 0.55356 0.41096 0.0
C596 C 0.35222 0.53949 0.50025 0.0
C597 C 0.33153 0.59494 0.53566 0.0
N598 N 0.3934 0.55042 0.43905 0.0
N599 N 0.35017 0.59847 0.50616 0.0
H600 H 0.21287 0.12188 0.4244 0.0
H601 H 0.33326 0.20066 0.27446 0.0
H602 H 0.20805 0.22593 0.3906 0.0
H603 H 0.35107 0.09987 0.31504 0.0
H604 H 0.28605 0.20916 0.31639 0.0
H605 H 0.26321 0.11256 0.38505 0.0
C606 C 0.22259 0.14284 0.40899 0.0
C607 C 0.20602 0.17473 0.4107 0.0
C608 C 0.30022 0.18515 0.31625 0.0
C609 C 0.26328 0.16408 0.36545 0.0
C610 C 0.32716 0.18019 0.29215 0.0
C611 C 0.34619 0.14947 0.29124 0.0
C612 C 0.29199 0.15919 0.33968 0.0
C613 C 0.33699 0.12392 0.31484 0.0
C614 C 0.25126 0.13745 0.38648 0.0
C615 C 0.21982 0.20091 0.39013 0.0
N616 N 0.31045 0.12935 0.33817 0.0
N617 N 0.24744 0.19493 0.36824 0.0
H618 H 0.10892 0.0435 0.50894 0.0
H619 H 0.08793 0.97464 0.69846 0.0
H620 H 0.14533 0.09682 0.59269 0.0
H621 H 0.04991 0.92459 0.61316 0.0
H622 H 0.11505 0.01694 0.66031 0.0
H623 H 0.09428 0.99636 0.54689 0.0
C624 C 0.11419 0.04514 0.53532 0.0
C625 C 0.12786 0.07426 0.54779 0.0
C626 C 0.10094 0.99655 0.65002 0.0
C627 C 0.11074 0.02054 0.59147 0.0
C628 C 0.08537 0.97249 0.67176 0.0
C629 C 0.06636 0.94623 0.65897 0.0
C630 C 0.09742 0.99423 0.61536 0.0
C631 C 0.06408 0.94452 0.62418 0.0
C632 C 0.10577 0.01822 0.557 0.0
C633 C 0.13458 0.07488 0.5821 0.0
N634 N 0.07927 0.96827 0.60363 0.0
N635 N 0.12549 0.04852 0.60289 0.0
H636 H 0.15292 0.83793 0.78593 0.0
H637 H 0.2476 0.86334 0.95914 0.0
H638 H 0.1033 0.89862 0.86142 0.0
H639 H 0.26985 0.77813 0.89911 0.0
H640 H 0.1977 0.88033 0.9222 0.0
H641 H 0.20003 0.82017 0.82513 0.0
C642 C 0.15203 0.84771 0.8107 0.0
C643 C 0.12409 0.86984 0.8204 0.0
C644 C 0.21337 0.85778 0.91736 0.0
C645 C 0.17808 0.8495 0.86546 0.0
C646 C 0.24185 0.84806 0.93839 0.0
C647 C 0.26304 0.81927 0.93221 0.0
C648 C 0.20644 0.83891 0.88964 0.0
C649 C 0.25427 0.80044 0.90494 0.0
C650 C 0.17883 0.83735 0.83315 0.0
C651 C 0.1243 0.8815 0.85293 0.0
N652 N 0.22691 0.81078 0.88451 0.0
N653 N 0.151 0.87131 0.87429 0.0
H654 H 0.41183 0.08129 0.08291 0.0
H655 H 0.41228 0.88266 0.10429 0.0
H656 H 0.45121 0.02647 0.17077 0.0
H657 H 0.35246 0.93833 0.02774 0.0
H658 H 0.42572 0.93506 0.12961 0.0
H659 H 0.38883 0.02944 0.06278 0.0
C660 C 0.41542 0.05839 0.09809 0.0
C661 C 0.43371 0.05819 0.12847 0.0
C662 C 0.40935 0.93583 0.10746 0.0
C663 C 0.40764 -0.00134 0.10543 0.0
C664 C 0.40171 0.90591 0.09294 0.0
C665 C 0.38139 0.90612 0.06372 0.0
C666 C 0.39699 0.9663 0.09246 0.0
C667 C 0.36825 0.93698 0.05024 0.0
C668 C 0.4022 0.02879 0.08661 0.0
C669 C 0.43737 0.02779 0.14717 0.0
N670 N 0.37661 0.96587 0.06452 0.0
N671 N 0.42478 -0.0008 0.13519 0.0
H672 H 0.83143 0.41042 0.70375 0.0
H673 H 0.71547 0.32972 0.5628 0.0
H674 H 0.87442 0.34267 0.63147 0.0
H675 H 0.66745 0.36827 0.65281 0.0
H676 H 0.7743 0.34847 0.57975 0.0
H677 H 0.77187 0.40857 0.67752 0.0
C678 C 0.82851 0.39581 0.68194 0.0
C679 C 0.85766 0.37642 0.66989 0.0
C680 C 0.7508 0.3532 0.59559 0.0
C681 C 0.79016 0.37428 0.63988 0.0
C682 C 0.71714 0.34259 0.58588 0.0
C683 C 0.68652 0.34684 0.60672 0.0
C684 C 0.75398 0.36831 0.6263 0.0
C685 C 0.6904 0.36404 0.63618 0.0
C686 C 0.79457 0.39459 0.66715 0.0
C687 C 0.85248 0.3577 0.64174 0.0
N688 N 0.72361 0.37382 0.64531 0.0
N689 N 0.8194 0.35698 0.62781 0.0
H690 H 0.87736 0.43587 0.89547 0.0
H691 H 0.91719 0.6279 0.9105 0.0
H692 H 0.94259 0.49335 0.8243 0.0
H693 H 0.83693 0.57769 0.97258 0.0
H694 H 0.92164 0.57992 0.87548 0.0
H695 H 0.85714 0.48775 0.92078 0.0
C696 C 0.88705 0.45941 0.88483 0.0
C697 C 0.91217 0.46017 0.85798 0.0
C698 C 0.90265 0.57935 0.89644 0.0
C699 C 0.88925 0.51963 0.88704 0.0
C700 C 0.90015 0.60676 0.91649 0.0
C701 C 0.87693 0.60651 0.9446 0.0
C702 C 0.88235 0.55097 0.90489 0.0
C703 C 0.85517 0.57874 0.95108 0.0
C704 C 0.87543 0.48903 0.89932 0.0
C705 C 0.92352 0.49144 0.84514 0.0
N706 N 0.85888 0.55171 0.93168 0.0
N707 N 0.91235 0.51981 0.86005 0.0
H708 H 0.77127 0.67617 0.07089 0.0
H709 H 0.66086 0.58769 0.22226 0.0
H710 H 0.82177 0.6322 0.15937 0.0
H711 H 0.61543 0.65836 0.14895 0.0
H712 H 0.71895 0.58957 0.19139 0.0
H713 H 0.71343 0.65449 0.091 0.0
C714 C 0.77033 0.66151 0.09432 0.0
C715 C 0.8012 0.65669 0.11392 0.0
C716 C 0.69602 0.60418 0.18184 0.0
C717 C 0.73504 0.63199 0.13709 0.0
C718 C 0.66294 0.60304 0.19933 0.0
C719 C 0.63364 0.62334 0.18833 0.0
C720 C 0.69941 0.62539 0.15305 0.0
C721 C 0.63761 0.64278 0.15853 0.0
C722 C 0.73728 0.64918 0.10578 0.0
C723 C 0.79849 0.63696 0.14375 0.0
N724 N 0.66998 0.6435 0.14205 0.0
N725 N 0.76577 0.62576 0.15474 0.0
H726 H 0.64926 0.4546 0.5109 0.0
H727 H 0.57724 0.53136 0.33687 0.0
H728 H 0.63944 0.39784 0.42268 0.0
H729 H 0.58687 0.58829 0.42499 0.0
H730 H 0.60983 0.48466 0.36508 0.0
H731 H 0.637 0.50591 0.47716 0.0
C732 C 0.64522 0.45293 0.48432 0.0
C733 C 0.64473 0.42177 0.46975 0.0
C734 C 0.60523 0.50751 0.37812 0.0
C735 C 0.63021 0.48043 0.43103 0.0
C736 C 0.58661 0.53423 0.362 0.0
C737 C 0.57878 0.56362 0.37878 0.0
C738 C 0.61593 0.51009 0.41135 0.0
C739 C 0.59191 0.56598 0.41121 0.0
C740 C 0.63807 0.48228 0.46507 0.0
C741 C 0.63959 0.42125 0.43512 0.0
N742 N 0.60941 0.53941 0.42659 0.0
N743 N 0.63199 0.45007 0.41706 0.0
H744 H 0.23665 0.28395 0.12728 0.0
H745 H 0.44367 0.22342 0.1374 0.0
H746 H 0.32643 0.34565 0.09638 0.0
H747 H 0.35417 0.16367 0.17318 0.0
H748 H 0.40069 0.26506 0.11389 0.0
H749 H 0.27864 0.23622 0.13487 0.0
C750 C 0.26508 0.28736 0.12145 0.0
C751 C 0.27808 0.31903 0.11171 0.0
C752 C 0.39045 0.24269 0.1266 0.0
C753 C 0.32638 0.26454 0.1208 0.0
C754 C 0.41499 0.2189 0.14008 0.0
C755 C 0.40252 0.19018 0.15765 0.0
C756 C 0.35312 0.23782 0.13081 0.0
C757 C 0.36503 0.18556 0.16008 0.0
C758 C 0.28909 0.26009 0.12596 0.0
C759 C 0.31521 0.32182 0.10433 0.0
N760 N 0.34167 0.20928 0.1471 0.0
N761 N 0.3381 0.29506 0.10948 0.0
H762 H 0.88055 0.30653 0.76046 0.0
H763 H 0.83491 0.16859 0.90528 0.0
H764 H 0.93344 0.29961 0.85579 0.0
H765 H 0.76928 0.1875 0.81815 0.0
H766 H 0.8733 0.21472 0.88627 0.0
H767 H 0.84182 0.26068 0.77966 0.0
C768 C 0.88415 0.29531 0.78536 0.0
C769 C 0.91033 0.30699 0.80653 0.0
C770 C 0.85042 0.20885 0.87138 0.0
C771 C 0.86601 0.25452 0.82866 0.0
C772 C 0.82848 0.18251 0.88222 0.0
C773 C 0.79883 0.17415 0.86329 0.0
C774 C 0.84284 0.22683 0.84124 0.0
C775 C 0.79182 0.19309 0.83359 0.0
C776 C 0.86191 0.26922 0.79635 0.0
C777 C 0.91362 0.29152 0.8386 0.0
N778 N 0.81375 0.21843 0.82342 0.0
N779 N 0.89177 0.26608 0.84864 0.0
H780 H 0.06648 0.50772 0.09596 0.0
H781 H 0.97702 0.69076 0.10754 0.0
H782 H 0.11122 0.58425 0.15404 0.0
H783 H 0.9393 0.61557 0.04365 0.0
H784 H 0.02499 0.6518 0.12684 0.0
H785 H 0.01784 0.54649 0.07901 0.0
C786 C 0.06603 0.53269 0.10524 0.0
C787 C 0.09303 0.54282 0.12636 0.0
C788 C 0.0062 0.64389 0.10859 0.0
C789 C 0.03737 0.58747 0.10689 0.0
C790 C 0.97883 0.6661 0.09754 0.0
C791 C 0.95415 0.65643 0.07388 0.0
C792 C 0.00875 0.61179 0.096 0.0
C793 C 0.95777 0.62418 0.06182 0.0
C794 C 0.03824 0.55486 0.09549 0.0
C795 C 0.09095 0.57544 0.13771 0.0
N796 N 0.98453 0.60303 0.07305 0.0
N797 N 0.06359 0.59669 0.12773 0.0
H798 H 0.71318 0.80426 0.3605 0.0
H799 H 0.52182 0.71834 0.34418 0.0
H800 H 0.61212 0.84773 0.39567 0.0
H801 H 0.62255 0.67736 0.30542 0.0
H802 H 0.55472 0.76451 0.36575 0.0
H803 H 0.68081 0.75585 0.34337 0.0
C804 C 0.68421 0.80353 0.36487 0.0
C805 C 0.66531 0.83021 0.37941 0.0
C806 C 0.56963 0.7454 0.35256 0.0
C807 C 0.62801 0.77486 0.3596 0.0
C808 C 0.55085 0.71903 0.34017 0.0
C809 C 0.56942 0.69396 0.32284 0.0
C810 C 0.60728 0.74674 0.34762 0.0
C811 C 0.60707 0.69615 0.31854 0.0
C812 C 0.66571 0.77589 0.35498 0.0
C813 C 0.62778 0.82781 0.38448 0.0
N814 N 0.62472 0.72208 0.3308 0.0
N815 N 0.61034 0.80069 0.37444 0.0
H816 H 0.55234 0.39724 0.56658 0.0
H817 H 0.34077 0.38908 0.59669 0.0
H818 H 0.49563 0.30431 0.57517 0.0
H819 H 0.40099 0.46867 0.63586 0.0
H820 H 0.39756 0.35937 0.58407 0.0
H821 H 0.49726 0.42642 0.58691 0.0
C822 C 0.52839 0.38303 0.57269 0.0
C823 C 0.52851 0.34834 0.56908 0.0
C824 C 0.39842 0.38312 0.59583 0.0
C825 C 0.46588 0.38136 0.59206 0.0
C826 C 0.36606 0.40001 0.60307 0.0
C827 C 0.36635 0.43115 0.61751 0.0
C828 C 0.4314 0.39787 0.60224 0.0
C829 C 0.39977 0.44445 0.62509 0.0
C830 C 0.49717 0.39961 0.5845 0.0
C831 C 0.49683 0.33107 0.57757 0.0
N832 N 0.43115 0.42793 0.61687 0.0
N833 N 0.46679 0.34778 0.58835 0.0
H834 H 0.15043 0.66061 0.59896 0.0
H835 H 0.16916 0.84771 0.65451 0.0
H836 H 0.25098 0.7049 0.62367 0.0
H837 H 0.06945 0.79389 0.66092 0.0
H838 H 0.19783 0.80132 0.62562 0.0
H839 H 0.11962 0.71509 0.60432 0.0
C840 C 0.16613 0.68193 0.60483 0.0
C841 C 0.2031 0.67823 0.61158 0.0
C842 C 0.16951 0.79994 0.6329 0.0
C843 C 0.16825 0.74023 0.61757 0.0
C844 C 0.15312 0.82639 0.64936 0.0
C845 C 0.11715 0.82422 0.66086 0.0
C846 C 0.14974 0.77125 0.62789 0.0
C847 C 0.0975 0.79623 0.65308 0.0
C848 C 0.14854 0.71291 0.60796 0.0
C849 C 0.22226 0.70661 0.61892 0.0
N850 N 0.11422 0.77056 0.63745 0.0
N851 N 0.20452 0.73638 0.62207 0.0
H852 H 0.40807 0.91759 0.8997 0.0
H853 H 0.61631 0.91903 0.93925 0.0
H854 H 0.46506 0.83576 0.95144 0.0
H855 H 0.56953 0.98531 0.86281 0.0
H856 H 0.56081 0.88772 0.94246 0.0
H857 H 0.46623 0.94184 0.88333 0.0
C858 C 0.43278 0.9044 0.90714 0.0
C859 C 0.43165 0.87484 0.92743 0.0
C860 C 0.56265 0.9089 0.92472 0.0
C861 C 0.49815 0.90269 0.90913 0.0
C862 C 0.59429 0.92695 0.92303 0.0
C863 C 0.59733 0.95502 0.90099 0.0
C864 C 0.53341 0.91927 0.90465 0.0
C865 C 0.56816 0.96385 0.88023 0.0
C866 C 0.46596 0.9183 0.89778 0.0
C867 C 0.46454 0.85876 0.93611 0.0
N868 N 0.5371 0.9463 0.8829 0.0
N869 N 0.49638 0.87316 0.92735 0.0
H870 H 0.89385 0.01223 0.3496 0.0
H871 H 0.0081 0.15976 0.41889 0.0
H872 H 0.85167 0.08875 0.41305 0.0
H873 H 0.05734 0.06914 0.38252 0.0
H874 H 0.94945 0.14167 0.40108 0.0
H875 H 0.95245 0.04018 0.34686 0.0
C876 C 0.89676 0.03524 0.36233 0.0
C877 C 0.86829 0.04803 0.382 0.0
C878 C 0.97316 0.12594 0.39657 0.0
C879 C 0.93446 0.08 0.37878 0.0
C880 C 0.0067 0.13628 0.40668 0.0
C881 C 0.03755 0.11555 0.40291 0.0
C882 C 0.97036 0.09459 0.38271 0.0
C883 C 0.03414 0.08565 0.38639 0.0
C884 C 0.9301 0.05106 0.36088 0.0
C885 C 0.87324 0.07782 0.39808 0.0
N886 N 0.00098 0.07576 0.37737 0.0
N887 N 0.90573 0.09267 0.39628 0.0
loop_
_geom_bond_atom_site_label_1
_geom_bond_atom_site_label_2
_geom_bond_distance
_geom_bond_site_symmetry_2
_ccdc_geom_bond_type
Zn0 O6 1.969 . S
Zn0 O7 1.965 . S
Zn0 O11 2.024 . S
Zn0 O16 1.969 . S
Zn1 O8 1.969 . S
Zn1 O14 1.969 . S
Zn1 O15 1.965 . S
Zn1 O17 2.024 . S
C2 O3 1.229 . S
C2 O11 1.058 . S
O3 C2 1.229 . S
C4 O5 1.229 . S
C4 O17 1.058 . S
O5 C4 1.229 . S
O6 Zn0 1.969 . S
O6 C9 1.267 . S
O7 Zn0 1.965 . S
O7 C18 1.260 . S
O8 Zn1 1.969 . S
O8 C18 1.258 . S
C9 O6 1.267 . S
C9 O10 1.228 . S
O10 C9 1.228 . S
O11 Zn0 2.024 . S
O11 C2 1.058 . S
C12 O13 1.228 . S
C12 O14 1.267 . S
O13 C12 1.228 . S
O14 Zn1 1.969 . S
O14 C12 1.267 . S
O15 Zn1 1.965 . S
O15 C19 1.260 . S
O16 Zn0 1.969 . S
O16 C19 1.258 . S
O17 Zn1 2.024 . S
O17 C4 1.058 . S
C18 O7 1.260 . S
C18 O8 1.258 . S
C19 O15 1.260 . S
C19 O16 1.258 . S
Zn20 O26 1.969 . S
Zn20 O27 1.965 1_655 S
Zn20 O31 2.024 . S
Zn20 O36 1.969 . S
Zn21 O28 1.969 . S
Zn21 O34 1.969 . S
Zn21 O35 1.965 . S
Zn21 O37 2.024 . S
C22 O23 1.229 . S
C22 O31 1.058 . S
O23 C22 1.229 . S
C24 O25 1.229 . S
C24 O37 1.058 . S
O25 C24 1.229 . S
O26 Zn20 1.969 . S
O26 C29 1.267 . S
O27 Zn20 1.965 1_455 S
O27 C38 1.260 . S
O28 Zn21 1.969 . S
O28 C38 1.258 . S
C29 O26 1.267 . S
C29 O30 1.228 . S
O30 C29 1.228 . S
O31 Zn20 2.024 . S
O31 C22 1.058 . S
C32 O33 1.228 . S
C32 O34 1.267 . S
O33 C32 1.228 . S
O34 Zn21 1.969 . S
O34 C32 1.267 . S
O35 Zn21 1.965 . S
O35 C39 1.260 . S
O36 Zn20 1.969 . S
O36 C39 1.258 1_655 S
O37 Zn21 2.024 . S
O37 C24 1.058 . S
C38 O27 1.260 . S
C38 O28 1.258 . S
C39 O35 1.260 . S
C39 O36 1.258 1_455 S
Zn40 O46 1.969 . S
Zn40 O47 1.965 . S
Zn40 O51 2.024 . S
Zn40 O56 1.969 . S
Zn41 O48 1.969 . S
Zn41 O54 1.984 . S
Zn41 O55 1.965 . S
Zn41 O57 2.024 . S
C42 O43 1.229 . S
C42 O51 1.058 . S
O43 C42 1.229 . S
C44 O45 1.229 . S
C44 O57 1.058 . S
O45 C44 1.229 . S
O46 Zn40 1.969 . S
O46 C49 1.267 . S
O47 Zn40 1.965 . S
O47 C58 1.260 . S
O48 Zn41 1.969 . S
O48 C58 1.258 . S
C49 O46 1.267 . S
C49 O50 1.228 . S
O50 C49 1.228 . S
O51 Zn40 2.024 . S
O51 C42 1.058 . S
C52 O53 1.228 . S
C52 O54 1.251 1_554 S
O53 C52 1.228 . S
O54 Zn41 1.984 . S
O54 C52 1.251 1_556 S
O55 Zn41 1.965 . S
O55 C59 1.260 . S
O56 Zn40 1.969 . S
O56 C59 1.258 . S
O57 Zn41 2.024 . S
O57 C44 1.058 . S
C58 O47 1.260 . S
C58 O48 1.258 . S
C59 O55 1.260 . S
C59 O56 1.258 . S
Zn60 O66 1.969 . S
Zn60 O67 1.965 . S
Zn60 O71 2.024 . S
Zn60 O76 1.969 . S
Zn61 O68 1.969 . S
Zn61 O74 1.969 . S
Zn61 O75 1.965 . S
Zn61 O77 2.024 . S
C62 O63 1.229 . S
C62 O71 1.058 . S
O63 C62 1.229 . S
C64 O65 1.229 . S
C64 O77 1.058 . S
O65 C64 1.229 . S
O66 Zn60 1.969 . S
O66 C69 1.267 . S
O67 Zn60 1.965 . S
O67 C78 1.260 . S
O68 Zn61 1.969 . S
O68 C78 1.258 . S
C69 O66 1.267 . S
C69 O70 1.228 . S
O70 C69 1.228 . S
O71 Zn60 2.024 . S
O71 C62 1.058 . S
C72 O73 1.228 . S
C72 O74 1.267 . S
O73 C72 1.228 . S
O74 Zn61 1.969 . S
O74 C72 1.267 . S
O75 Zn61 1.965 . S
O75 C79 1.260 . S
O76 Zn60 1.969 . S
O76 C79 1.258 . S
O77 Zn61 2.024 . S
O77 C64 1.058 . S
C78 O67 1.260 . S
C78 O68 1.258 . S
C79 O75 1.260 . S
C79 O76 1.258 . S
Zn80 O86 1.969 . S
Zn80 O87 1.965 . S
Zn80 O91 2.024 . S
Zn80 O96 1.969 . S
Zn81 O88 1.969 . S
Zn81 O94 1.969 . S
Zn81 O95 1.965 . S
Zn81 O97 2.024 . S
C82 O83 1.229 . S
C82 O91 1.058 . S
O83 C82 1.229 . S
C84 O85 1.229 . S
C84 O97 1.058 . S
O85 C84 1.229 . S
O86 Zn80 1.969 . S
O86 C89 1.267 . S
O87 Zn80 1.965 . S
O87 C98 1.260 . S
O88 Zn81 1.969 . S
O88 C98 1.258 . S
C89 O86 1.267 . S
C89 O90 1.228 . S
O90 C89 1.228 . S
O91 Zn80 2.024 . S
O91 C82 1.058 . S
C92 O93 1.228 . S
C92 O94 1.267 . S
O93 C92 1.228 . S
O94 Zn81 1.969 . S
O94 C92 1.267 . S
O95 Zn81 1.965 . S
O95 C99 1.260 . S
O96 Zn80 1.969 . S
O96 C99 1.258 . S
O97 Zn81 2.024 . S
O97 C84 1.058 . S
C98 O87 1.260 . S
C98 O88 1.258 . S
C99 O95 1.260 . S
C99 O96 1.258 . S
Zn100 O106 1.969 . S
Zn100 O107 1.965 . S
Zn100 O111 2.024 . S
Zn100 O116 1.969 . S
Zn101 O108 1.969 . S
Zn101 O114 1.969 1_655 S
Zn101 O115 1.965 1_655 S
Zn101 O117 2.024 . S
C102 O103 1.229 . S
C102 O111 1.058 . S
O103 C102 1.229 . S
C104 O105 1.229 . S
C104 O117 1.058 . S
O105 C104 1.229 . S
O106 Zn100 1.969 . S
O106 C109 1.267 . S
O107 Zn100 1.965 . S
O107 C118 1.260 . S
O108 Zn101 1.969 . S
O108 C118 1.258 . S
C109 O106 1.267 . S
C109 O110 1.228 . S
O110 C109 1.228 . S
O111 Zn100 2.024 . S
O111 C102 1.058 . S
C112 O113 1.228 . S
C112 O114 1.267 . S
O113 C112 1.228 . S
O114 Zn101 1.969 1_455 S
O114 C112 1.267 . S
O115 Zn101 1.965 1_455 S
O115 C119 1.260 . S
O116 Zn100 1.969 . S
O116 C119 1.258 1_655 S
O117 Zn101 2.024 . S
O117 C104 1.058 . S
C118 O107 1.260 . S
C118 O108 1.258 . S
C119 O115 1.260 . S
C119 O116 1.258 1_455 S
Zn120 O126 1.969 . S
Zn120 O127 1.965 1_556 S
Zn120 O131 2.024 . S
Zn120 O136 1.969 . S
Zn121 O128 1.969 . S
Zn121 O134 1.969 . S
Zn121 O135 1.965 . S
Zn121 O137 2.024 . S
C122 O123 1.229 . S
C122 O131 1.058 . S
O123 C122 1.229 . S
C124 O125 1.229 . S
C124 O137 1.058 . S
O125 C124 1.229 . S
O126 Zn120 1.969 . S
O126 C129 1.267 . S
O127 Zn120 1.965 1_554 S
O127 C138 1.260 . S
O128 Zn121 1.969 . S
O128 C138 1.258 . S
C129 O126 1.267 . S
C129 O130 1.228 . S
O130 C129 1.228 . S
O131 Zn120 2.024 . S
O131 C122 1.058 . S
C132 O133 1.228 . S
C132 O134 1.267 . S
O133 C132 1.228 . S
O134 Zn121 1.969 . S
O134 C132 1.267 . S
O135 Zn121 1.965 . S
O135 C139 1.260 . S
O136 Zn120 1.969 . S
O136 C139 1.258 1_556 S
O137 Zn121 2.024 . S
O137 C124 1.058 . S
C138 O127 1.260 . S
C138 O128 1.258 . S
C139 O135 1.260 . S
C139 O136 1.258 1_554 S
Zn140 O146 1.969 . S
Zn140 O147 1.965 . S
Zn140 O151 2.024 . S
Zn140 O156 1.969 . S
Zn141 O148 1.969 . S
Zn141 O154 1.969 . S
Zn141 O155 1.965 . S
Zn141 O157 2.024 . S
C142 O143 1.229 . S
C142 O151 1.058 . S
O143 C142 1.229 . S
C144 O145 1.229 . S
C144 O157 1.058 . S
O145 C144 1.229 . S
O146 Zn140 1.969 . S
O146 C149 1.267 . S
O147 Zn140 1.965 . S
O147 C158 1.260 . S
O148 Zn141 1.969 . S
O148 C158 1.258 . S
C149 O146 1.267 . S
C149 O150 1.228 . S
O150 C149 1.228 . S
O151 Zn140 2.024 . S
O151 C142 1.058 . S
C152 O153 1.228 . S
C152 O154 1.267 . S
O153 C152 1.228 . S
O154 Zn141 1.969 . S
O154 C152 1.267 . S
O155 Zn141 1.965 . S
O155 C159 1.260 . S
O156 Zn140 1.969 . S
O156 C159 1.258 . S
O157 Zn141 2.024 . S
O157 C144 1.058 . S
C158 O147 1.260 . S
C158 O148 1.258 . S
C159 O155 1.260 . S
C159 O156 1.258 . S
Zn160 O166 1.969 . S
Zn160 O167 1.965 . S
Zn160 O171 2.024 . S
Zn160 O176 1.969 . S
Zn161 O168 1.969 . S
Zn161 O174 1.969 . S
Zn161 O175 1.965 . S
Zn161 O177 2.024 . S
C162 O163 1.229 . S
C162 O171 1.058 . S
O163 C162 1.229 . S
C164 O165 1.229 . S
C164 O177 1.058 . S
O165 C164 1.229 . S
O166 Zn160 1.969 . S
O166 C169 1.267 . S
O167 Zn160 1.965 . S
O167 C178 1.260 . S
O168 Zn161 1.969 . S
O168 C178 1.258 . S
C169 O166 1.267 . S
C169 O170 1.228 . S
O170 C169 1.228 . S
O171 Zn160 2.024 . S
O171 C162 1.058 . S
C172 O173 1.228 . S
C172 O174 1.267 . S
O173 C172 1.228 . S
O174 Zn161 1.969 . S
O174 C172 1.267 . S
O175 Zn161 1.965 . S
O175 C179 1.260 . S
O176 Zn160 1.969 . S
O176 C179 1.258 . S
O177 Zn161 2.024 . S
O177 C164 1.058 . S
C178 O167 1.260 . S
C178 O168 1.258 . S
C179 O175 1.260 . S
C179 O176 1.258 . S
Zn180 O186 1.969 1_545 S
Zn180 O187 1.965 . S
Zn180 O191 2.023 1_545 S
Zn180 O196 1.969 . S
Zn181 O188 1.969 . S
Zn181 O194 1.969 . S
Zn181 O195 1.965 . S
Zn181 O197 2.024 . S
C182 O183 1.229 . S
C182 O191 1.082 . S
O183 C182 1.229 . S
C184 O185 1.229 . S
C184 O197 1.058 . S
O185 C184 1.229 . S
O186 Zn180 1.969 1_565 S
O186 C189 1.267 . S
O187 Zn180 1.965 . S
O187 C198 1.260 . S
O188 Zn181 1.969 . S
O188 C198 1.258 . S
C189 O186 1.267 . S
C189 O190 1.228 . S
O190 C189 1.228 . S
O191 Zn180 2.023 1_565 S
O191 C182 1.082 . S
C192 O193 1.228 . S
C192 O194 1.267 . S
O193 C192 1.228 . S
O194 Zn181 1.969 . S
O194 C192 1.267 . S
O195 Zn181 1.965 . S
O195 C199 1.260 . S
O196 Zn180 1.969 . S
O196 C199 1.258 . S
O197 Zn181 2.024 . S
O197 C184 1.058 . S
C198 O187 1.260 . S
C198 O188 1.258 . S
C199 O195 1.260 . S
C199 O196 1.258 . S
Zn200 O206 1.988 . S
Zn200 O207 1.935 1_545 S
Zn200 O211 2.027 . S
Zn200 O216 1.969 . S
Zn201 O208 1.969 . S
Zn201 O214 1.969 . S
Zn201 O215 1.965 . S
Zn201 O217 2.024 . S
C202 O203 1.229 . S
C202 O211 1.058 . S
O203 C202 1.229 . S
C204 O205 1.229 . S
C204 O217 1.058 . S
O205 C204 1.229 . S
O206 Zn200 1.988 . S
O206 C209 1.267 . S
O207 Zn200 1.935 1_565 S
O207 C218 1.260 . S
O208 Zn201 1.969 . S
O208 C218 1.258 . S
C209 O206 1.267 . S
C209 O210 1.228 . S
O210 C209 1.228 . S
O211 Zn200 2.027 . S
O211 C202 1.058 . S
C212 O213 1.228 . S
C212 O214 1.267 . S
O213 C212 1.228 . S
O214 Zn201 1.969 . S
O214 C212 1.267 . S
O215 Zn201 1.965 . S
O215 C219 1.260 . S
O216 Zn200 1.969 . S
O216 C219 1.258 1_545 S
O217 Zn201 2.024 . S
O217 C204 1.058 . S
C218 O207 1.260 . S
C218 O208 1.258 . S
C219 O215 1.260 . S
C219 O216 1.258 1_565 S
Zn220 O226 1.969 . S
Zn220 O227 1.965 . S
Zn220 O231 2.024 . S
Zn220 O236 1.969 . S
Zn221 O228 1.969 . S
Zn221 O234 1.969 . S
Zn221 O235 1.965 . S
Zn221 O237 2.024 . S
C222 O223 1.229 . S
C222 O231 1.058 . S
O223 C222 1.229 . S
C224 O225 1.229 . S
C224 O237 1.058 . S
O225 C224 1.229 . S
O226 Zn220 1.969 . S
O226 C229 1.267 . S
O227 Zn220 1.965 . S
O227 C238 1.260 . S
O228 Zn221 1.969 . S
O228 C238 1.258 . S
C229 O226 1.267 . S
C229 O230 1.228 . S
O230 C229 1.228 . S
O231 Zn220 2.024 . S
O231 C222 1.058 . S
C232 O233 1.228 . S
C232 O234 1.267 . S
O233 C232 1.228 . S
O234 Zn221 1.969 . S
O234 C232 1.267 . S
O235 Zn221 1.965 . S
O235 C239 1.260 . S
O236 Zn220 1.969 . S
O236 C239 1.258 . S
O237 Zn221 2.024 . S
O237 C224 1.058 . S
C238 O227 1.260 . S
C238 O228 1.258 . S
C239 O235 1.260 . S
C239 O236 1.258 . S
H240 C246 0.930 . S
H241 C250 0.930 . S
H242 C255 0.929 . S
H243 C253 0.929 . S
H244 C248 0.929 . S
H245 C254 0.929 . S
C246 H240 0.930 . S
C246 C247 1.367 . S
C246 C254 1.378 . S
C247 C246 1.367 . S
C247 C255 1.433 . S
C248 H244 0.929 . S
C248 C250 1.378 . S
C248 C252 1.350 . S
C249 C252 1.463 . S
C249 C254 1.350 . S
C249 N257 1.427 . S
C250 H241 0.930 . S
C250 C248 1.378 . S
C250 C251 1.367 . S
C251 C250 1.367 . S
C251 C253 1.433 . S
C252 C248 1.350 . S
C252 C249 1.463 . S
C252 N256 1.427 . S
C253 H243 0.929 . S
C253 C251 1.433 . S
C253 N256 1.384 . S
C254 H245 0.929 . S
C254 C246 1.378 . S
C254 C249 1.350 . S
C255 H242 0.929 . S
C255 C247 1.433 . S
C255 N257 1.384 . S
N256 C252 1.427 . S
N256 C253 1.384 . S
N257 C249 1.427 . S
N257 C255 1.384 . S
H258 C264 0.930 . S
H259 C268 0.930 . S
H260 C273 0.929 . S
H261 C271 0.929 . S
H262 C266 0.918 1_545 S
H263 C272 0.929 . S
C264 H258 0.930 . S
C264 C265 1.367 1_565 S
C264 C272 1.378 . S
C265 C264 1.367 1_545 S
C265 C273 1.433 . S
C266 H262 0.918 1_565 S
C266 C268 1.383 . S
C266 C270 1.356 . S
C267 C270 1.463 . S
C267 C272 1.350 . S
C267 N275 1.427 1_565 S
C268 H259 0.930 . S
C268 C266 1.383 . S
C268 C269 1.367 . S
C269 C268 1.367 . S
C269 C271 1.433 . S
C270 C266 1.356 . S
C270 C267 1.463 . S
C270 N274 1.427 . S
C271 H261 0.929 . S
C271 C269 1.433 . S
C271 N274 1.384 . S
C272 H263 0.929 . S
C272 C264 1.378 . S
C272 C267 1.350 . S
C273 H260 0.929 . S
C273 C265 1.433 . S
C273 N275 1.384 . S
N274 C270 1.427 . S
N274 C271 1.384 . S
N275 C267 1.427 1_545 S
N275 C273 1.384 . S
H276 C282 0.930 . S
H277 C286 0.930 . S
H278 C291 0.929 . S
H279 C289 0.929 . S
H280 C284 0.929 . S
H281 C290 0.929 . S
C282 H276 0.930 . S
C282 C283 1.367 . S
C282 C290 1.378 . S
C283 C282 1.367 . S
C283 C291 1.433 . S
C284 H280 0.929 . S
C284 C286 1.378 . S
C284 C288 1.350 . S
C285 C288 1.463 . S
C285 C290 1.350 . S
C285 N293 1.427 . S
C286 H277 0.930 . S
C286 C284 1.378 . S
C286 C287 1.367 . S
C287 C286 1.367 . S
C287 C289 1.433 . S
C288 C284 1.350 . S
C288 C285 1.463 . S
C288 N292 1.427 . S
C289 H279 0.929 . S
C289 C287 1.433 . S
C289 N292 1.384 . S
C290 H281 0.929 . S
C290 C282 1.378 . S
C290 C285 1.350 . S
C291 H278 0.929 . S
C291 C283 1.433 . S
C291 N293 1.384 . S
N292 C288 1.427 . S
N292 C289 1.384 . S
N293 C285 1.427 . S
N293 C291 1.384 . S
H294 C300 0.930 . S
H295 C304 0.930 1_565 S
H296 C309 0.929 . S
H297 C307 0.929 . S
H298 C302 0.929 . S
H299 C308 0.929 . S
C300 H294 0.930 . S
C300 C301 1.367 . S
C300 C308 1.378 . S
C301 C300 1.367 . S
C301 C309 1.433 . S
C302 H298 0.929 . S
C302 C304 1.378 . S
C302 C306 1.350 . S
C303 C306 1.463 . S
C303 C308 1.350 . S
C303 N311 1.427 . S
C304 H295 0.930 1_545 S
C304 C302 1.378 . S
C304 C305 1.367 1_545 S
C305 C304 1.367 1_565 S
C305 C307 1.433 1_565 S
C306 C302 1.350 . S
C306 C303 1.463 . S
C306 N310 1.427 . S
C307 H297 0.929 . S
C307 C305 1.433 1_545 S
C307 N310 1.384 . S
C308 H299 0.929 . S
C308 C300 1.378 . S
C308 C303 1.350 . S
C309 H296 0.929 . S
C309 C301 1.433 . S
C309 N311 1.384 . S
N310 C306 1.427 . S
N310 C307 1.384 . S
N311 C303 1.427 . S
N311 C309 1.384 . S
H312 C318 0.930 . S
H313 C322 0.930 . S
H314 C327 0.929 . S
H315 C325 0.929 . S
H316 C320 0.929 . S
H317 C326 0.929 . S
C318 H312 0.930 . S
C318 C319 1.367 . S
C318 C326 1.378 . S
C319 C318 1.367 . S
C319 C327 1.433 . S
C320 H316 0.929 . S
C320 C322 1.378 . S
C320 C324 1.350 . S
C321 C324 1.463 . S
C321 C326 1.350 . S
C321 N329 1.427 . S
C322 H313 0.930 . S
C322 C320 1.378 . S
C322 C323 1.367 . S
C323 C322 1.367 . S
C323 C325 1.433 . S
C324 C320 1.350 . S
C324 C321 1.463 . S
C324 N328 1.427 . S
C325 H315 0.929 . S
C325 C323 1.433 . S
C325 N328 1.384 . S
C326 H317 0.929 . S
C326 C318 1.378 . S
C326 C321 1.350 . S
C327 H314 0.929 . S
C327 C319 1.433 . S
C327 N329 1.384 . S
N328 C324 1.427 . S
N328 C325 1.384 . S
N329 C321 1.427 . S
N329 C327 1.384 . S
H330 C336 0.930 . S
H331 C340 0.930 . S
H332 C345 0.929 . S
H333 C343 0.929 . S
H334 C338 0.929 . S
H335 C344 0.929 . S
C336 H330 0.930 . S
C336 C337 1.367 . S
C336 C344 1.378 . S
C337 C336 1.367 . S
C337 C345 1.433 . S
C338 H334 0.929 . S
C338 C340 1.378 . S
C338 C342 1.350 . S
C339 C342 1.463 . S
C339 C344 1.350 . S
C339 N347 1.427 . S
C340 H331 0.930 . S
C340 C338 1.378 . S
C340 C341 1.367 . S
C341 C340 1.367 . S
C341 C343 1.433 . S
C342 C338 1.350 . S
C342 C339 1.463 . S
C342 N346 1.427 . S
C343 H333 0.929 . S
C343 C341 1.433 . S
C343 N346 1.384 . S
C344 H335 0.929 . S
C344 C336 1.378 . S
C344 C339 1.350 . S
C345 H332 0.929 . S
C345 C337 1.433 . S
C345 N347 1.384 . S
N346 C342 1.427 . S
N346 C343 1.384 . S
N347 C339 1.427 . S
N347 C345 1.384 . S
H348 C354 0.930 1_554 S
H349 C358 0.930 . S
H350 C363 0.929 . S
H351 C361 0.929 . S
H352 C356 0.929 . S
H353 C362 0.929 . S
C354 H348 0.930 1_556 S
C354 C355 1.367 . S
C354 C362 1.378 1_556 S
C355 C354 1.367 . S
C355 C363 1.433 . S
C356 H352 0.929 . S
C356 C358 1.378 . S
C356 C360 1.350 . S
C357 C360 1.463 . S
C357 C362 1.350 1_556 S
C357 N365 1.427 . S
C358 H349 0.930 . S
C358 C356 1.378 . S
C358 C359 1.367 . S
C359 C358 1.367 . S
C359 C361 1.433 1_556 S
C360 C356 1.350 . S
C360 C357 1.463 . S
C360 N364 1.427 1_556 S
C361 H351 0.929 . S
C361 C359 1.433 1_554 S
C361 N364 1.384 . S
C362 H353 0.929 . S
C362 C354 1.378 1_554 S
C362 C357 1.350 1_554 S
C363 H350 0.929 . S
C363 C355 1.433 . S
C363 N365 1.384 . S
N364 C360 1.427 1_554 S
N364 C361 1.384 . S
N365 C357 1.427 . S
N365 C363 1.384 . S
H366 C372 0.930 . S
H367 C376 0.930 . S
H368 C381 0.929 . S
H369 C379 0.929 . S
H370 C374 0.929 . S
H371 C380 0.929 . S
C372 H366 0.930 . S
C372 C373 1.367 . S
C372 C380 1.378 . S
C373 C372 1.367 . S
C373 C381 1.433 . S
C374 H370 0.929 . S
C374 C376 1.378 . S
C374 C378 1.350 . S
C375 C378 1.463 . S
C375 C380 1.350 . S
C375 N383 1.427 . S
C376 H367 0.930 . S
C376 C374 1.378 . S
C376 C377 1.367 . S
C377 C376 1.367 . S
C377 C379 1.433 . S
C378 C374 1.350 . S
C378 C375 1.463 . S
C378 N382 1.427 . S
C379 H369 0.929 . S
C379 C377 1.433 . S
C379 N382 1.384 . S
C380 H371 0.929 . S
C380 C372 1.378 . S
C380 C375 1.350 . S
C381 H368 0.929 . S
C381 C373 1.433 . S
C381 N383 1.384 . S
N382 C378 1.427 . S
N382 C379 1.384 . S
N383 C375 1.427 . S
N383 C381 1.384 . S
H384 C390 0.930 . S
H385 C394 0.930 . S
H386 C399 0.929 . S
H387 C397 0.929 . S
H388 C392 0.929 . S
H389 C398 0.929 . S
C390 H384 0.930 . S
C390 C391 1.367 . S
C390 C398 1.378 . S
C391 C390 1.367 . S
C391 C399 1.433 . S
C392 H388 0.929 . S
C392 C394 1.378 . S
C392 C396 1.350 . S
C393 C396 1.463 . S
C393 C398 1.350 . S
C393 N401 1.427 . S
C394 H385 0.930 . S
C394 C392 1.378 . S
C394 C395 1.367 . S
C395 C394 1.367 . S
C395 C397 1.433 . S
C396 C392 1.350 . S
C396 C393 1.463 . S
C396 N400 1.427 . S
C397 H387 0.929 . S
C397 C395 1.433 . S
C397 N400 1.384 . S
C398 H389 0.929 . S
C398 C390 1.378 . S
C398 C393 1.350 . S
C399 H386 0.929 . S
C399 C391 1.433 . S
C399 N401 1.384 . S
N400 C396 1.427 . S
N400 C397 1.384 . S
N401 C393 1.427 . S
N401 C399 1.384 . S
H402 C408 0.930 . S
H403 C412 0.930 . S
H404 C417 0.929 . S
H405 C415 0.929 . S
H406 C410 0.929 . S
H407 C416 0.929 . S
C408 H402 0.930 . S
C408 C409 1.367 . S
C408 C416 1.378 . S
C409 C408 1.367 . S
C409 C417 1.433 . S
C410 H406 0.929 . S
C410 C412 1.378 . S
C410 C414 1.350 . S
C411 C414 1.463 . S
C411 C416 1.350 . S
C411 N419 1.427 . S
C412 H403 0.930 . S
C412 C410 1.378 . S
C412 C413 1.367 . S
C413 C412 1.367 . S
C413 C415 1.433 . S
C414 C410 1.350 . S
C414 C411 1.463 . S
C414 N418 1.427 . S
C415 H405 0.929 . S
C415 C413 1.433 . S
C415 N418 1.384 . S
C416 H407 0.929 . S
C416 C408 1.378 . S
C416 C411 1.350 . S
C417 H404 0.929 . S
C417 C409 1.433 . S
C417 N419 1.384 . S
N418 C414 1.427 . S
N418 C415 1.384 . S
N419 C411 1.427 . S
N419 C417 1.384 . S
H420 C426 0.930 . S
H421 C430 0.930 . S
H422 C435 0.929 . S
H423 C433 0.929 . S
H424 C428 0.929 . S
H425 C434 0.929 . S
C426 H420 0.930 . S
C426 C427 1.367 . S
C426 C434 1.378 . S
C427 C426 1.367 . S
C427 C435 1.433 1_655 S
C428 H424 0.929 . S
C428 C430 1.378 . S
C428 C432 1.350 . S
C429 C432 1.463 . S
C429 C434 1.350 . S
C429 N437 1.427 . S
C430 H421 0.930 . S
C430 C428 1.378 . S
C430 C431 1.367 . S
C431 C430 1.367 . S
C431 C433 1.433 . S
C432 C428 1.350 . S
C432 C429 1.463 . S
C432 N436 1.427 . S
C433 H423 0.929 . S
C433 C431 1.433 . S
C433 N436 1.384 . S
C434 H425 0.929 . S
C434 C426 1.378 . S
C434 C429 1.350 . S
C435 H422 0.929 . S
C435 C427 1.433 1_455 S
C435 N437 1.384 1_455 S
N436 C432 1.427 . S
N436 C433 1.384 . S
N437 C429 1.427 . S
N437 C435 1.384 1_655 S
H438 C444 0.930 . S
H439 C448 0.930 . S
H440 C453 0.929 . S
H441 C451 0.929 . S
H442 C446 0.929 . S
H443 C452 0.929 . S
C444 H438 0.930 . S
C444 C445 1.367 . S
C444 C452 1.378 . S
C445 C444 1.367 . S
C445 C453 1.433 . S
C446 H442 0.929 . S
C446 C448 1.378 . S
C446 C450 1.350 . S
C447 C450 1.463 . S
C447 C452 1.350 . S
C447 N455 1.427 . S
C448 H439 0.930 . S
C448 C446 1.378 . S
C448 C449 1.367 . S
C449 C448 1.367 . S
C449 C451 1.433 . S
C450 C446 1.350 . S
C450 C447 1.463 . S
C450 N454 1.427 . S
C451 H441 0.929 . S
C451 C449 1.433 . S
C451 N454 1.384 . S
C452 H443 0.929 . S
C452 C444 1.378 . S
C452 C447 1.350 . S
C453 H440 0.929 . S
C453 C445 1.433 . S
C453 N455 1.384 . S
N454 C450 1.427 . S
N454 C451 1.384 . S
N455 C447 1.427 . S
N455 C453 1.384 . S
H456 C462 0.930 . S
H457 C466 0.930 . S
H458 C471 0.929 . S
H459 C469 0.929 . S
H460 C464 0.929 . S
H461 C470 0.929 . S
C462 H456 0.930 . S
C462 C463 1.367 . S
C462 C470 1.378 . S
C463 C462 1.367 . S
C463 C471 1.433 . S
C464 H460 0.929 . S
C464 C466 1.378 . S
C464 C468 1.350 . S
C465 C468 1.463 . S
C465 C470 1.350 . S
C465 N473 1.427 . S
C466 H457 0.930 . S
C466 C464 1.378 . S
C466 C467 1.367 . S
C467 C466 1.367 . S
C467 C469 1.433 . S
C468 C464 1.350 . S
C468 C465 1.463 . S
C468 N472 1.427 . S
C469 H459 0.929 . S
C469 C467 1.433 . S
C469 N472 1.384 . S
C470 H461 0.929 . S
C470 C462 1.378 . S
C470 C465 1.350 . S
C471 H458 0.929 . S
C471 C463 1.433 . S
C471 N473 1.384 . S
N472 C468 1.427 . S
N472 C469 1.384 . S
N473 C465 1.427 . S
N473 C471 1.384 . S
H474 C480 0.930 . S
H475 C484 0.930 . S
H476 C489 0.929 . S
H477 C487 0.929 . S
H478 C482 0.929 . S
H479 C488 0.929 . S
C480 H474 0.930 . S
C480 C481 1.367 . S
C480 C488 1.378 . S
C481 C480 1.367 . S
C481 C489 1.433 . S
C482 H478 0.929 . S
C482 C484 1.378 . S
C482 C486 1.350 . S
C483 C486 1.463 . S
C483 C488 1.350 . S
C483 N491 1.427 . S
C484 H475 0.930 . S
C484 C482 1.378 . S
C484 C485 1.367 . S
C485 C484 1.367 . S
C485 C487 1.433 . S
C486 C482 1.350 . S
C486 C483 1.463 . S
C486 N490 1.427 . S
C487 H477 0.929 . S
C487 C485 1.433 . S
C487 N490 1.384 . S
C488 H479 0.929 . S
C488 C480 1.378 . S
C488 C483 1.350 . S
C489 H476 0.929 . S
C489 C481 1.433 . S
C489 N491 1.384 . S
N490 C486 1.427 . S
N490 C487 1.384 . S
N491 C483 1.427 . S
N491 C489 1.384 . S
H492 C498 0.930 . S
H493 C502 0.930 . S
H494 C507 0.929 . S
H495 C505 0.929 . S
H496 C500 0.929 . S
H497 C506 0.929 . S
C498 H492 0.930 . S
C498 C499 1.367 . S
C498 C506 1.378 . S
C499 C498 1.367 . S
C499 C507 1.433 . S
C500 H496 0.929 . S
C500 C502 1.378 . S
C500 C504 1.350 . S
C501 C504 1.463 . S
C501 C506 1.350 . S
C501 N509 1.427 . S
C502 H493 0.930 . S
C502 C500 1.378 . S
C502 C503 1.367 . S
C503 C502 1.367 . S
C503 C505 1.433 . S
C504 C500 1.350 . S
C504 C501 1.463 . S
C504 N508 1.427 . S
C505 H495 0.929 . S
C505 C503 1.433 . S
C505 N508 1.384 . S
C506 H497 0.929 . S
C506 C498 1.378 . S
C506 C501 1.350 . S
C507 H494 0.929 . S
C507 C499 1.433 . S
C507 N509 1.384 . S
N508 C504 1.427 . S
N508 C505 1.384 . S
N509 C501 1.427 . S
N509 C507 1.384 . S
H510 C516 0.930 . S
H511 C520 0.930 . S
H512 C525 0.929 . S
H513 C523 0.929 . S
H514 C518 0.929 1_554 S
H515 C524 0.929 . S
C516 H510 0.930 . S
C516 C517 1.367 . S
C516 C524 1.378 . S
C517 C516 1.367 . S
C517 C525 1.433 . S
C518 H514 0.929 1_556 S
C518 C520 1.378 . S
C518 C522 1.350 1_556 S
C519 C522 1.463 . S
C519 C524 1.350 . S
C519 N527 1.427 . S
C520 H511 0.930 . S
C520 C518 1.378 . S
C520 C521 1.367 . S
C521 C520 1.367 . S
C521 C523 1.433 . S
C522 C518 1.350 1_554 S
C522 C519 1.463 . S
C522 N526 1.427 1_554 S
C523 H513 0.929 . S
C523 C521 1.433 . S
C523 N526 1.384 . S
C524 H515 0.929 . S
C524 C516 1.378 . S
C524 C519 1.350 . S
C525 H512 0.929 . S
C525 C517 1.433 . S
C525 N527 1.384 . S
N526 C522 1.427 1_556 S
N526 C523 1.384 . S
N527 C519 1.427 . S
N527 C525 1.384 . S
H528 C534 0.930 . S
H529 C538 0.930 . S
H530 C543 0.929 . S
H531 C541 0.929 . S
H532 C536 0.929 . S
H533 C542 0.929 . S
C534 H528 0.930 . S
C534 C535 1.367 . S
C534 C542 1.378 . S
C535 C534 1.367 . S
C535 C543 1.433 . S
C536 H532 0.929 . S
C536 C538 1.378 . S
C536 C540 1.350 . S
C537 C540 1.463 . S
C537 C542 1.350 . S
C537 N545 1.427 . S
C538 H529 0.930 . S
C538 C536 1.378 . S
C538 C539 1.367 . S
C539 C538 1.367 . S
C539 C541 1.433 . S
C540 C536 1.350 . S
C540 C537 1.463 . S
C540 N544 1.427 . S
C541 H531 0.929 . S
C541 C539 1.433 . S
C541 N544 1.384 . S
C542 H533 0.929 . S
C542 C534 1.378 . S
C542 C537 1.350 . S
C543 H530 0.929 . S
C543 C535 1.433 . S
C543 N545 1.384 . S
N544 C540 1.427 . S
N544 C541 1.384 . S
N545 C537 1.427 . S
N545 C543 1.384 . S
H546 C552 0.930 . S
H547 C556 0.930 . S
H548 C561 0.929 . S
H549 C559 0.929 . S
H550 C554 0.929 . S
H551 C560 0.929 . S
C552 H546 0.930 . S
C552 C553 1.367 . S
C552 C560 1.378 . S
C553 C552 1.367 . S
C553 C561 1.433 . S
C554 H550 0.929 . S
C554 C556 1.378 . S
C554 C558 1.350 . S
C555 C558 1.463 . S
C555 C560 1.350 1_556 S
C555 N563 1.427 . S
C556 H547 0.930 . S
C556 C554 1.378 . S
C556 C557 1.367 . S
C557 C556 1.367 . S
C557 C559 1.433 . S
C558 C554 1.350 . S
C558 C555 1.463 . S
C558 N562 1.427 . S
C559 H549 0.929 . S
C559 C557 1.433 . S
C559 N562 1.384 . S
C560 H551 0.929 . S
C560 C552 1.378 . S
C560 C555 1.350 1_554 S
C561 H548 0.929 . S
C561 C553 1.433 . S
C561 N563 1.384 1_554 S
N562 C558 1.427 . S
N562 C559 1.384 . S
N563 C555 1.427 . S
N563 C561 1.384 1_556 S
H564 C570 0.930 . S
H565 C574 0.930 . S
H566 C579 0.929 . S
H567 C577 0.929 . S
H568 C572 0.929 . S
H569 C578 0.929 . S
C570 H564 0.930 . S
C570 C571 1.367 . S
C570 C578 1.378 . S
C571 C570 1.367 . S
C571 C579 1.433 . S
C572 H568 0.929 . S
C572 C574 1.378 . S
C572 C576 1.350 . S
C573 C576 1.463 . S
C573 C578 1.350 . S
C573 N581 1.427 . S
C574 H565 0.930 . S
C574 C572 1.378 . S
C574 C575 1.367 . S
C575 C574 1.367 . S
C575 C577 1.433 . S
C576 C572 1.350 . S
C576 C573 1.463 . S
C576 N580 1.427 . S
C577 H567 0.929 . S
C577 C575 1.433 . S
C577 N580 1.384 . S
C578 H569 0.929 . S
C578 C570 1.378 . S
C578 C573 1.350 . S
C579 H566 0.929 . S
C579 C571 1.433 . S
C579 N581 1.384 . S
N580 C576 1.427 . S
N580 C577 1.384 . S
N581 C573 1.427 . S
N581 C579 1.384 . S
H582 C588 0.930 . S
H583 C592 0.930 . S
H584 C597 0.929 . S
H585 C595 0.929 . S
H586 C590 0.929 . S
H587 C596 0.929 . S
C588 H582 0.930 . S
C588 C589 1.367 . S
C588 C596 1.378 . S
C589 C588 1.367 . S
C589 C597 1.433 . S
C590 H586 0.929 . S
C590 C592 1.378 . S
C590 C594 1.350 . S
C591 C594 1.463 . S
C591 C596 1.350 . S
C591 N599 1.427 . S
C592 H583 0.930 . S
C592 C590 1.378 . S
C592 C593 1.367 . S
C593 C592 1.367 . S
C593 C595 1.433 . S
C594 C590 1.350 . S
C594 C591 1.463 . S
C594 N598 1.427 . S
C595 H585 0.929 . S
C595 C593 1.433 . S
C595 N598 1.384 . S
C596 H587 0.929 . S
C596 C588 1.378 . S
C596 C591 1.350 . S
C597 H584 0.929 . S
C597 C589 1.433 . S
C597 N599 1.384 . S
N598 C594 1.427 . S
N598 C595 1.384 . S
N599 C591 1.427 . S
N599 C597 1.384 . S
H600 C606 0.930 . S
H601 C610 0.930 . S
H602 C615 0.929 . S
H603 C613 0.929 . S
H604 C608 0.929 . S
H605 C614 0.929 . S
C606 H600 0.930 . S
C606 C607 1.367 . S
C606 C614 1.378 . S
C607 C606 1.367 . S
C607 C615 1.433 . S
C608 H604 0.929 . S
C608 C610 1.378 . S
C608 C612 1.350 . S
C609 C612 1.463 . S
C609 C614 1.350 . S
C609 N617 1.427 . S
C610 H601 0.930 . S
C610 C608 1.378 . S
C610 C611 1.367 . S
C611 C610 1.367 . S
C611 C613 1.433 . S
C612 C608 1.350 . S
C612 C609 1.463 . S
C612 N616 1.427 . S
C613 H603 0.929 . S
C613 C611 1.433 . S
C613 N616 1.384 . S
C614 H605 0.929 . S
C614 C606 1.378 . S
C614 C609 1.350 . S
C615 H602 0.929 . S
C615 C607 1.433 . S
C615 N617 1.384 . S
N616 C612 1.427 . S
N616 C613 1.384 . S
N617 C609 1.427 . S
N617 C615 1.384 . S
H618 C624 0.930 . S
H619 C628 0.930 . S
H620 C633 0.929 . S
H621 C631 0.929 . S
H622 C626 0.929 1_545 S
H623 C632 0.929 . S
C624 H618 0.930 . S
C624 C625 1.367 . S
C624 C632 1.378 . S
C625 C624 1.367 . S
C625 C633 1.433 . S
C626 H622 0.929 1_565 S
C626 C628 1.378 . S
C626 C630 1.350 . S
C627 C630 1.463 1_545 S
C627 C632 1.350 . S
C627 N635 1.427 . S
C628 H619 0.930 . S
C628 C626 1.378 . S
C628 C629 1.367 . S
C629 C628 1.367 . S
C629 C631 1.433 . S
C630 C626 1.350 . S
C630 C627 1.463 1_565 S
C630 N634 1.427 . S
C631 H621 0.929 . S
C631 C629 1.433 . S
C631 N634 1.384 . S
C632 H623 0.929 . S
C632 C624 1.378 . S
C632 C627 1.350 . S
C633 H620 0.929 . S
C633 C625 1.433 . S
C633 N635 1.384 . S
N634 C630 1.427 . S
N634 C631 1.384 . S
N635 C627 1.427 . S
N635 C633 1.384 . S
H636 C642 0.930 . S
H637 C646 0.930 . S
H638 C651 0.929 . S
H639 C649 0.929 . S
H640 C644 0.929 . S
H641 C650 0.929 . S
C642 H636 0.930 . S
C642 C643 1.367 . S
C642 C650 1.378 . S
C643 C642 1.367 . S
C643 C651 1.433 . S
C644 H640 0.929 . S
C644 C646 1.378 . S
C644 C648 1.350 . S
C645 C648 1.463 . S
C645 C650 1.350 . S
C645 N653 1.427 . S
C646 H637 0.930 . S
C646 C644 1.378 . S
C646 C647 1.367 . S
C647 C646 1.367 . S
C647 C649 1.433 . S
C648 C644 1.350 . S
C648 C645 1.463 . S
C648 N652 1.427 . S
C649 H639 0.929 . S
C649 C647 1.433 . S
C649 N652 1.384 . S
C650 H641 0.929 . S
C650 C642 1.378 . S
C650 C645 1.350 . S
C651 H638 0.929 . S
C651 C643 1.433 . S
C651 N653 1.384 . S
N652 C648 1.427 . S
N652 C649 1.384 . S
N653 C645 1.427 . S
N653 C651 1.384 . S
H654 C660 0.930 . S
H655 C664 0.930 . S
H656 C669 0.929 . S
H657 C667 0.929 . S
H658 C662 0.929 . S
H659 C668 0.929 . S
C660 H654 0.930 . S
C660 C661 1.367 . S
C660 C668 1.378 . S
C661 C660 1.367 . S
C661 C669 1.433 . S
C662 H658 0.929 . S
C662 C664 1.378 . S
C662 C666 1.350 . S
C663 C666 1.463 . S
C663 C668 1.350 1_565 S
C663 N671 1.427 . S
C664 H655 0.930 . S
C664 C662 1.378 . S
C664 C665 1.367 . S
C665 C664 1.367 . S
C665 C667 1.433 . S
C666 C662 1.350 . S
C666 C663 1.463 . S
C666 N670 1.427 . S
C667 H657 0.929 . S
C667 C665 1.433 . S
C667 N670 1.384 . S
C668 H659 0.929 . S
C668 C660 1.378 . S
C668 C663 1.350 1_545 S
C669 H656 0.929 . S
C669 C661 1.433 . S
C669 N671 1.384 1_545 S
N670 C666 1.427 . S
N670 C667 1.384 . S
N671 C663 1.427 . S
N671 C669 1.384 1_565 S
H672 C678 0.930 . S
H673 C682 0.930 . S
H674 C687 0.929 . S
H675 C685 0.929 . S
H676 C680 0.929 . S
H677 C686 0.929 . S
C678 H672 0.930 . S
C678 C679 1.367 . S
C678 C686 1.378 . S
C679 C678 1.367 . S
C679 C687 1.433 . S
C680 H676 0.929 . S
C680 C682 1.378 . S
C680 C684 1.350 . S
C681 C684 1.463 . S
C681 C686 1.350 . S
C681 N689 1.427 . S
C682 H673 0.930 . S
C682 C680 1.378 . S
C682 C683 1.367 . S
C683 C682 1.367 . S
C683 C685 1.433 . S
C684 C680 1.350 . S
C684 C681 1.463 . S
C684 N688 1.427 . S
C685 H675 0.929 . S
C685 C683 1.433 . S
C685 N688 1.384 . S
C686 H677 0.929 . S
C686 C678 1.378 . S
C686 C681 1.350 . S
C687 H674 0.929 . S
C687 C679 1.433 . S
C687 N689 1.384 . S
N688 C684 1.427 . S
N688 C685 1.384 . S
N689 C681 1.427 . S
N689 C687 1.384 . S
H690 C696 0.930 . S
H691 C700 0.930 . S
H692 C705 0.929 . S
H693 C703 0.929 . S
H694 C698 0.929 . S
H695 C704 0.929 . S
C696 H690 0.930 . S
C696 C697 1.367 . S
C696 C704 1.378 . S
C697 C696 1.367 . S
C697 C705 1.433 . S
C698 H694 0.929 . S
C698 C700 1.378 . S
C698 C702 1.350 . S
C699 C702 1.463 . S
C699 C704 1.350 . S
C699 N707 1.427 . S
C700 H691 0.930 . S
C700 C698 1.378 . S
C700 C701 1.367 . S
C701 C700 1.367 . S
C701 C703 1.433 . S
C702 C698 1.350 . S
C702 C699 1.463 . S
C702 N706 1.427 . S
C703 H693 0.929 . S
C703 C701 1.433 . S
C703 N706 1.384 . S
C704 H695 0.929 . S
C704 C696 1.378 . S
C704 C699 1.350 . S
C705 H692 0.929 . S
C705 C697 1.433 . S
C705 N707 1.384 . S
N706 C702 1.427 . S
N706 C703 1.384 . S
N707 C699 1.427 . S
N707 C705 1.384 . S
H708 C714 0.930 . S
H709 C718 0.930 . S
H710 C723 0.929 . S
H711 C721 0.929 . S
H712 C716 0.929 . S
H713 C722 0.929 . S
C714 H708 0.930 . S
C714 C715 1.367 . S
C714 C722 1.378 . S
C715 C714 1.367 . S
C715 C723 1.433 . S
C716 H712 0.929 . S
C716 C718 1.378 . S
C716 C720 1.350 . S
C717 C720 1.463 . S
C717 C722 1.350 . S
C717 N725 1.427 . S
C718 H709 0.930 . S
C718 C716 1.378 . S
C718 C719 1.367 . S
C719 C718 1.367 . S
C719 C721 1.433 . S
C720 C716 1.350 . S
C720 C717 1.463 . S
C720 N724 1.427 . S
C721 H711 0.929 . S
C721 C719 1.433 . S
C721 N724 1.384 . S
C722 H713 0.929 . S
C722 C714 1.378 . S
C722 C717 1.350 . S
C723 H710 0.929 . S
C723 C715 1.433 . S
C723 N725 1.384 . S
N724 C720 1.427 . S
N724 C721 1.384 . S
N725 C717 1.427 . S
N725 C723 1.384 . S
H726 C732 0.930 . S
H727 C736 0.930 . S
H728 C741 0.929 . S
H729 C739 0.929 . S
H730 C734 0.929 . S
H731 C740 0.929 . S
C732 H726 0.930 . S
C732 C733 1.367 . S
C732 C740 1.378 . S
C733 C732 1.367 . S
C733 C741 1.433 . S
C734 H730 0.929 . S
C734 C736 1.378 . S
C734 C738 1.350 . S
C735 C738 1.463 . S
C735 C740 1.350 . S
C735 N743 1.427 . S
C736 H727 0.930 . S
C736 C734 1.378 . S
C736 C737 1.367 . S
C737 C736 1.367 . S
C737 C739 1.433 . S
C738 C734 1.350 . S
C738 C735 1.463 . S
C738 N742 1.427 . S
C739 H729 0.929 . S
C739 C737 1.433 . S
C739 N742 1.384 . S
C740 H731 0.929 . S
C740 C732 1.378 . S
C740 C735 1.350 . S
C741 H728 0.929 . S
C741 C733 1.433 . S
C741 N743 1.384 . S
N742 C738 1.427 . S
N742 C739 1.384 . S
N743 C735 1.427 . S
N743 C741 1.384 . S
H744 C750 0.930 . S
H745 C754 0.930 . S
H746 C759 0.929 . S
H747 C757 0.929 . S
H748 C752 0.929 . S
H749 C758 0.929 . S
C750 H744 0.930 . S
C750 C751 1.367 . S
C750 C758 1.378 . S
C751 C750 1.367 . S
C751 C759 1.433 . S
C752 H748 0.929 . S
C752 C754 1.378 . S
C752 C756 1.350 . S
C753 C756 1.463 . S
C753 C758 1.350 . S
C753 N761 1.427 . S
C754 H745 0.930 . S
C754 C752 1.378 . S
C754 C755 1.367 . S
C755 C754 1.367 . S
C755 C757 1.433 . S
C756 C752 1.350 . S
C756 C753 1.463 . S
C756 N760 1.427 . S
C757 H747 0.929 . S
C757 C755 1.433 . S
C757 N760 1.384 . S
C758 H749 0.929 . S
C758 C750 1.378 . S
C758 C753 1.350 . S
C759 H746 0.929 . S
C759 C751 1.433 . S
C759 N761 1.384 . S
N760 C756 1.427 . S
N760 C757 1.384 . S
N761 C753 1.427 . S
N761 C759 1.384 . S
H762 C768 0.930 . S
H763 C772 0.930 . S
H764 C777 0.929 . S
H765 C775 0.929 . S
H766 C770 0.929 . S
H767 C776 0.929 . S
C768 H762 0.930 . S
C768 C769 1.367 . S
C768 C776 1.378 . S
C769 C768 1.367 . S
C769 C777 1.433 . S
C770 H766 0.929 . S
C770 C772 1.378 . S
C770 C774 1.350 . S
C771 C774 1.463 . S
C771 C776 1.350 . S
C771 N779 1.427 . S
C772 H763 0.930 . S
C772 C770 1.378 . S
C772 C773 1.367 . S
C773 C772 1.367 . S
C773 C775 1.433 . S
C774 C770 1.350 . S
C774 C771 1.463 . S
C774 N778 1.427 . S
C775 H765 0.929 . S
C775 C773 1.433 . S
C775 N778 1.384 . S
C776 H767 0.929 . S
C776 C768 1.378 . S
C776 C771 1.350 . S
C777 H764 0.929 . S
C777 C769 1.433 . S
C777 N779 1.384 . S
N778 C774 1.427 . S
N778 C775 1.384 . S
N779 C771 1.427 . S
N779 C777 1.384 . S
H780 C786 0.930 . S
H781 C790 0.930 . S
H782 C795 0.929 . S
H783 C793 0.929 . S
H784 C788 0.929 1_455 S
H785 C794 0.929 1_655 S
C786 H780 0.930 . S
C786 C787 1.367 . S
C786 C794 1.378 . S
C787 C786 1.367 . S
C787 C795 1.433 . S
C788 H784 0.929 1_655 S
C788 C790 1.378 . S
C788 C792 1.350 . S
C789 C792 1.463 1_455 S
C789 C794 1.350 . S
C789 N797 1.427 . S
C790 H781 0.930 . S
C790 C788 1.378 . S
C790 C791 1.367 . S
C791 C790 1.367 . S
C791 C793 1.433 . S
C792 C788 1.350 . S
C792 C789 1.463 1_655 S
C792 N796 1.427 . S
C793 H783 0.929 . S
C793 C791 1.433 . S
C793 N796 1.384 . S
C794 H785 0.929 1_455 S
C794 C786 1.378 . S
C794 C789 1.350 . S
C795 H782 0.929 . S
C795 C787 1.433 . S
C795 N797 1.384 . S
N796 C792 1.427 . S
N796 C793 1.384 . S
N797 C789 1.427 . S
N797 C795 1.384 . S
H798 C804 0.930 . S
H799 C808 0.930 . S
H800 C813 0.929 . S
H801 C811 0.929 . S
H802 C806 0.929 . S
H803 C812 0.929 . S
C804 H798 0.930 . S
C804 C805 1.367 . S
C804 C812 1.378 . S
C805 C804 1.367 . S
C805 C813 1.433 . S
C806 H802 0.929 . S
C806 C808 1.378 . S
C806 C810 1.350 . S
C807 C810 1.463 . S
C807 C812 1.350 . S
C807 N815 1.427 . S
C808 H799 0.930 . S
C808 C806 1.378 . S
C808 C809 1.367 . S
C809 C808 1.367 . S
C809 C811 1.433 . S
C810 C806 1.350 . S
C810 C807 1.463 . S
C810 N814 1.427 . S
C811 H801 0.929 . S
C811 C809 1.433 . S
C811 N814 1.384 . S
C812 H803 0.929 . S
C812 C804 1.378 . S
C812 C807 1.350 . S
C813 H800 0.929 . S
C813 C805 1.433 . S
C813 N815 1.384 . S
N814 C810 1.427 . S
N814 C811 1.384 . S
N815 C807 1.427 . S
N815 C813 1.384 . S
H816 C822 0.930 . S
H817 C826 0.930 . S
H818 C831 0.929 . S
H819 C829 0.929 . S
H820 C824 0.929 . S
H821 C830 0.929 . S
C822 H816 0.930 . S
C822 C823 1.367 . S
C822 C830 1.378 . S
C823 C822 1.367 . S
C823 C831 1.433 . S
C824 H820 0.929 . S
C824 C826 1.378 . S
C824 C828 1.350 . S
C825 C828 1.463 . S
C825 C830 1.350 . S
C825 N833 1.427 . S
C826 H817 0.930 . S
C826 C824 1.378 . S
C826 C827 1.367 . S
C827 C826 1.367 . S
C827 C829 1.433 . S
C828 C824 1.350 . S
C828 C825 1.463 . S
C828 N832 1.427 . S
C829 H819 0.929 . S
C829 C827 1.433 . S
C829 N832 1.384 . S
C830 H821 0.929 . S
C830 C822 1.378 . S
C830 C825 1.350 . S
C831 H818 0.929 . S
C831 C823 1.433 . S
C831 N833 1.384 . S
N832 C828 1.427 . S
N832 C829 1.384 . S
N833 C825 1.427 . S
N833 C831 1.384 . S
H834 C840 0.930 . S
H835 C844 0.930 . S
H836 C849 0.929 . S
H837 C847 0.929 . S
H838 C842 0.929 . S
H839 C848 0.929 . S
C840 H834 0.930 . S
C840 C841 1.367 . S
C840 C848 1.378 . S
C841 C840 1.367 . S
C841 C849 1.433 . S
C842 H838 0.929 . S
C842 C844 1.378 . S
C842 C846 1.350 . S
C843 C846 1.463 . S
C843 C848 1.350 . S
C843 N851 1.427 . S
C844 H835 0.930 . S
C844 C842 1.378 . S
C844 C845 1.367 . S
C845 C844 1.367 . S
C845 C847 1.433 . S
C846 C842 1.350 . S
C846 C843 1.463 . S
C846 N850 1.427 . S
C847 H837 0.929 . S
C847 C845 1.433 . S
C847 N850 1.384 . S
C848 H839 0.929 . S
C848 C840 1.378 . S
C848 C843 1.350 . S
C849 H836 0.929 . S
C849 C841 1.433 . S
C849 N851 1.384 . S
N850 C846 1.427 . S
N850 C847 1.384 . S
N851 C843 1.427 . S
N851 C849 1.384 . S
H852 C858 0.930 . S
H853 C862 0.930 . S
H854 C867 0.929 . S
H855 C865 0.929 . S
H856 C860 0.929 . S
H857 C866 0.929 . S
C858 H852 0.930 . S
C858 C859 1.367 . S
C858 C866 1.378 . S
C859 C858 1.367 . S
C859 C867 1.433 . S
C860 H856 0.929 . S
C860 C862 1.378 . S
C860 C864 1.350 . S
C861 C864 1.463 . S
C861 C866 1.350 . S
C861 N869 1.427 . S
C862 H853 0.930 . S
C862 C860 1.378 . S
C862 C863 1.367 . S
C863 C862 1.367 . S
C863 C865 1.433 . S
C864 C860 1.350 . S
C864 C861 1.463 . S
C864 N868 1.427 . S
C865 H855 0.929 . S
C865 C863 1.433 . S
C865 N868 1.384 . S
C866 H857 0.929 . S
C866 C858 1.378 . S
C866 C861 1.350 . S
C867 H854 0.929 . S
C867 C859 1.433 . S
C867 N869 1.384 . S
N868 C864 1.427 . S
N868 C865 1.384 . S
N869 C861 1.427 . S
N869 C867 1.384 . S
H870 C876 0.930 . S
H871 C880 0.930 . S
H872 C885 0.929 . S
H873 C883 0.929 . S
H874 C878 0.929 . S
H875 C884 0.929 . S
C876 H870 0.930 . S
C876 C877 1.367 . S
C876 C884 1.378 . S
C877 C876 1.367 . S
C877 C885 1.433 . S
C878 H874 0.929 . S
C878 C880 1.378 . S
C878 C882 1.350 . S
C879 C882 1.463 . S
C879 C884 1.350 . S
C879 N887 1.427 . S
C880 H871 0.930 . S
C880 C878 1.378 . S
C880 C881 1.367 1_655 S
C881 C880 1.367 1_455 S
C881 C883 1.433 . S
C882 C878 1.350 . S
C882 C879 1.463 . S
C882 N886 1.427 . S
C883 H873 0.929 . S
C883 C881 1.433 . S
C883 N886 1.384 1_455 S
C884 H875 0.929 . S
C884 C876 1.378 . S
C884 C879 1.350 . S
C885 H872 0.929 . S
C885 C877 1.433 . S
C885 N887 1.384 . S
N886 C882 1.427 . S
N886 C883 1.384 1_655 S
N887 C879 1.427 . S
N887 C885 1.384 . S
C247 C2 1.001 . S
C251 C222 1.012 . S
C265 C199 1.327 . S
C269 C22 1.260 . S
C283 C42 1.439 1_554 S
C287 C179 1.574 . S
C301 C79 1.903 . S
C305 C219 1.932 . S
C319 C99 1.549 . S
C323 C202 1.412 . S
C337 C119 1.831 . S
C341 C239 1.816 . S
C355 C182 1.403 . S
C359 C139 1.543 1_556 S
C373 C159 1.305 . S
C377 C162 1.224 . S
C391 C62 1.027 . S
C395 C82 1.006 . S
C409 C19 1.511 . S
C413 C102 1.399 1_455 S
C427 C39 1.547 1_655 S
C431 C122 1.415 . S
C445 C142 1.411 . S
C449 C59 1.549 1_554 S
C463 C9 1.684 . S
C467 C178 1.752 . S
C481 C29 1.716 . S
C485 C218 1.766 . S
C499 C224 1.305 . S
C503 C49 1.305 . S
C517 C72 1.397 . S
C521 C198 1.481 . S
C535 C92 0.990 . S
C539 C184 1.038 . S
C553 C164 1.343 . S
C557 C112 1.279 . S
C571 C204 1.673 . S
C575 C132 1.604 . S
C589 C238 1.533 . S
C593 C152 1.429 . S
C607 C18 1.570 . S
C611 C69 1.529 . S
C625 C12 1.592 . S
C629 C38 1.668 . S
C643 C32 1.677 . S
C647 C58 1.739 . S
C661 C64 1.615 . S
C665 C52 1.578 . S
C679 C109 1.075 . S
C683 C84 1.089 . S
C697 C104 1.382 . S
C701 C129 1.336 . S
C715 C124 0.887 . S
C719 C149 0.894 . S
C733 C89 1.073 . S
C737 C144 1.126 . S
C751 C169 1.537 . S
C755 C78 1.589 . S
C769 C118 1.643 . S
C773 C192 1.550 . S
C787 C172 1.474 . S
C791 C138 1.551 . S
C805 C212 1.569 . S
C809 C158 1.693 . S
C823 C98 1.157 . S
C827 C229 1.107 . S
C841 C232 1.172 . S
C845 C24 1.155 . S
C859 C44 1.054 . S
C863 C189 1.071 . S
C877 C209 1.408 . S
C881 C4 1.401 . S
