# Generated by pormake.
# Topology yfc, (5)-cn, num edge types: 1
# Building blocks:
#     Node 0, Type 0, BuildingBlock: XOMCOT_clean_sbu_1, # of connection points: 5
#     Node 1, Type 0, BuildingBlock: XOMCOT_clean_sbu_1, # of connection points: 5
#     Node 2, Type 0, BuildingBlock: XOMCOT_clean_sbu_1, # of connection points: 5
#     Node 3, Type 0, BuildingBlock: XOMCOT_clean_sbu_1, # of connection points: 5
#     Node 4, Type 0, BuildingBlock: XOMCOT_clean_sbu_1, # of connection points: 5
#     Node 5, Type 0, BuildingBlock: XOMCOT_clean_sbu_1, # of connection points: 5
#     Node 6, Type 0, BuildingBlock: XOMCOT_clean_sbu_1, # of connection points: 5
#     Node 7, Type 0, BuildingBlock: XOMCOT_clean_sbu_1, # of connection points: 5
#     Node 8, Type 0, BuildingBlock: XOMCOT_clean_sbu_1, # of connection points: 5
#     Node 9, Type 0, BuildingBlock: XOMCOT_clean_sbu_1, # of connection points: 5
#     Node 10, Type 0, BuildingBlock: XOMCOT_clean_sbu_1, # of connection points: 5
#     Node 11, Type 0, BuildingBlock: XOMCOT_clean_sbu_1, # of connection points: 5
#     Node 12, Type 0, BuildingBlock: XOMCOT_clean_sbu_1, # of connection points: 5
#     Node 13, Type 0, BuildingBlock: XOMCOT_clean_sbu_1, # of connection points: 5
#     Node 14, Type 0, BuildingBlock: XOMCOT_clean_sbu_1, # of connection points: 5
#     Node 15, Type 0, BuildingBlock: XOMCOT_clean_sbu_1, # of connection points: 5
#     Edge 16, Type (0, 0), BuildingBlock: XUDNAN_clean_linker_2, # of connection points: 2
#     Edge 17, Type (0, 0), BuildingBlock: XUDNAN_clean_linker_2, # of connection points: 2
#     Edge 18, Type (0, 0), BuildingBlock: XUDNAN_clean_linker_2, # of connection points: 2
#     Edge 19, Type (0, 0), BuildingBlock: XUDNAN_clean_linker_2, # of connection points: 2
#     Edge 20, Type (0, 0), BuildingBlock: XUDNAN_clean_linker_2, # of connection points: 2
#     Edge 21, Type (0, 0), BuildingBlock: XUDNAN_clean_linker_2, # of connection points: 2
#     Edge 22, Type (0, 0), BuildingBlock: XUDNAN_clean_linker_2, # of connection points: 2
#     Edge 23, Type (0, 0), BuildingBlock: XUDNAN_clean_linker_2, # of connection points: 2
#     Edge 24, Type (0, 0), BuildingBlock: XUDNAN_clean_linker_2, # of connection points: 2
#     Edge 25, Type (0, 0), BuildingBlock: XUDNAN_clean_linker_2, # of connection points: 2
#     Edge 26, Type (0, 0), BuildingBlock: XUDNAN_clean_linker_2, # of connection points: 2
#     Edge 27, Type (0, 0), BuildingBlock: XUDNAN_clean_linker_2, # of connection points: 2
#     Edge 28, Type (0, 0), BuildingBlock: XUDNAN_clean_linker_2, # of connection points: 2
#     Edge 29, Type (0, 0), BuildingBlock: XUDNAN_clean_linker_2, # of connection points: 2
#     Edge 30, Type (0, 0), BuildingBlock: XUDNAN_clean_linker_2, # of connection points: 2
#     Edge 31, Type (0, 0), BuildingBlock: XUDNAN_clean_linker_2, # of connection points: 2
#     Edge 32, Type (0, 0), BuildingBlock: XUDNAN_clean_linker_2, # of connection points: 2
#     Edge 33, Type (0, 0), BuildingBlock: XUDNAN_clean_linker_2, # of connection points: 2
#     Edge 34, Type (0, 0), BuildingBlock: XUDNAN_clean_linker_2, # of connection points: 2
#     Edge 35, Type (0, 0), BuildingBlock: XUDNAN_clean_linker_2, # of connection points: 2
#     Edge 36, Type (0, 0), BuildingBlock: XUDNAN_clean_linker_2, # of connection points: 2
#     Edge 37, Type (0, 0), BuildingBlock: XUDNAN_clean_linker_2, # of connection points: 2
#     Edge 38, Type (0, 0), BuildingBlock: XUDNAN_clean_linker_2, # of connection points: 2
#     Edge 39, Type (0, 0), BuildingBlock: XUDNAN_clean_linker_2, # of connection points: 2
#     Edge 40, Type (0, 0), BuildingBlock: XUDNAN_clean_linker_2, # of connection points: 2
#     Edge 41, Type (0, 0), BuildingBlock: XUDNAN_clean_linker_2, # of connection points: 2
#     Edge 42, Type (0, 0), BuildingBlock: XUDNAN_clean_linker_2, # of connection points: 2
#     Edge 43, Type (0, 0), BuildingBlock: XUDNAN_clean_linker_2, # of connection points: 2
#     Edge 44, Type (0, 0), BuildingBlock: XUDNAN_clean_linker_2, # of connection points: 2
#     Edge 45, Type (0, 0), BuildingBlock: XUDNAN_clean_linker_2, # of connection points: 2
#     Edge 46, Type (0, 0), BuildingBlock: XUDNAN_clean_linker_2, # of connection points: 2
#     Edge 47, Type (0, 0), BuildingBlock: XUDNAN_clean_linker_2, # of connection points: 2
#     Edge 48, Type (0, 0), BuildingBlock: XUDNAN_clean_linker_2, # of connection points: 2
#     Edge 49, Type (0, 0), BuildingBlock: XUDNAN_clean_linker_2, # of connection points: 2
#     Edge 50, Type (0, 0), BuildingBlock: XUDNAN_clean_linker_2, # of connection points: 2
#     Edge 51, Type (0, 0), BuildingBlock: XUDNAN_clean_linker_2, # of connection points: 2
#     Edge 52, Type (0, 0), BuildingBlock: XUDNAN_clean_linker_2, # of connection points: 2
#     Edge 53, Type (0, 0), BuildingBlock: XUDNAN_clean_linker_2, # of connection points: 2
#     Edge 54, Type (0, 0), BuildingBlock: XUDNAN_clean_linker_2, # of connection points: 2
#     Edge 55, Type (0, 0), BuildingBlock: XUDNAN_clean_linker_2, # of connection points: 2
# Relax obj value: 0.647
# Max RMSD: 0.269
# Mean RMSD: 0.269
data_MOF--net-yfc--node1-XOMCOT_clean_sbu_1--edge1-XUDNAN_clean_linker_2
_symmetry_space_group_name_H-M    P1
_symmetry_Int_Tables_number       1
_symmetry_cell_setting            triclinic
loop_
_symmetry_equiv_pos_as_xyz
'x, y, z'
_cell_length_a     40.911936
_cell_length_b     40.889506
_cell_length_c     47.067391
_cell_angle_alpha  89.948108
_cell_angle_beta   89.996026
_cell_angle_gamma 89.934248
loop_
_atom_site_label
_atom_site_type_symbol
_atom_site_fract_x
_atom_site_fract_y
_atom_site_fract_z
_atom_type_partial_charge
C0 C 0.69603 0.97523 0.15626 0.0
C1 C 0.67577 0.95444 0.17107 0.0
N2 N 0.65493 0.97255 0.18666 0.0
N3 N 0.68806 0.00648 0.16226 0.0
C4 C 0.66277 0.00402 0.1808 0.0
H5 H 0.71658 0.96785 0.14336 0.0
Co6 Co 0.71393 0.04294 0.15291 0.0
C7 C 0.68076 0.09978 0.17828 0.0
O8 O 0.70902 0.11033 0.18792 0.0
N9 N 0.74036 0.08004 0.1431 0.0
C10 C 0.77924 0.11813 0.14058 0.0
C11 C 0.77224 0.08632 0.14814 0.0
C12 C 0.72926 0.10802 0.13081 0.0
N13 N 0.75191 0.13216 0.13016 0.0
O14 O 0.69694 0.04412 0.11521 0.0
H15 H 0.78949 0.06954 0.15751 0.0
H16 H 0.70405 0.1113 0.12454 0.0
O17 O 0.67901 0.07242 0.16527 0.0
C18 C 0.71459 0.0278 0.09801 0.0
O19 O 0.73845 0.00982 0.10827 0.0
N20 N 0.73298 0.03972 0.18893 0.0
C21 C 0.77458 0.03933 0.23527 0.0
C22 C 0.74217 0.0501 0.23832 0.0
C23 C 0.72125 0.04915 0.21483 0.0
C24 C 0.76207 0.02371 0.18717 0.0
C25 C 0.78353 0.02348 0.21006 0.0
H26 H 0.69645 0.05764 0.21729 0.0
H27 H 0.76977 0.01354 0.16703 0.0
H28 H 0.65181 0.02477 0.19141 0.0
H29 H 0.677 0.92799 0.17103 0.0
H30 H 0.80257 0.13011 0.1434 0.0
H31 H 0.73383 0.06145 0.25779 0.0
H32 H 0.80789 0.01358 0.20725 0.0
C33 C 0.51653 0.71473 0.66037 0.0
C34 C 0.53891 0.69393 0.67281 0.0
N35 N 0.52262 0.66884 0.68488 0.0
N36 N 0.48618 0.70295 0.6645 0.0
C37 C 0.49072 0.67475 0.67917 0.0
H38 H 0.52189 0.73782 0.65017 0.0
Co39 Co 0.4478 0.72649 0.65692 0.0
C40 C 0.39516 0.68247 0.67594 0.0
O41 O 0.38122 0.7066 0.68983 0.0
N42 N 0.40881 0.75081 0.64864 0.0
C43 C 0.37173 0.79043 0.64272 0.0
C44 C 0.40292 0.7832 0.65177 0.0
C45 C 0.3811 0.73946 0.63619 0.0
N46 N 0.35793 0.76272 0.63331 0.0
O47 O 0.4511 0.71636 0.61748 0.0
H48 H 0.42 0.80101 0.6597 0.0
H49 H 0.37789 0.71459 0.62907 0.0
O50 O 0.4219 0.6869 0.66253 0.0
C51 C 0.45966 0.74023 0.60171 0.0
O52 O 0.46717 0.76823 0.61372 0.0
N53 N 0.44654 0.73859 0.69555 0.0
C54 C 0.44714 0.76566 0.75022 0.0
C55 C 0.44191 0.73195 0.74611 0.0
C56 C 0.44182 0.71889 0.71865 0.0
C57 C 0.45616 0.77006 0.69944 0.0
C58 C 0.4553 0.78447 0.72621 0.0
H59 H 0.43801 0.69296 0.71625 0.0
H60 H 0.4643 0.78429 0.68144 0.0
H61 H 0.47092 0.65984 0.68713 0.0
H62 H 0.56509 0.69757 0.67357 0.0
H63 H 0.35985 0.81408 0.64356 0.0
H64 H 0.43773 0.71558 0.7638 0.0
H65 H 0.46023 0.81037 0.72745 0.0
C66 C 0.819 0.51967 0.12758 0.0
C67 C 0.84133 0.54227 0.13727 0.0
N68 N 0.85406 0.53127 0.16189 0.0
N69 N 0.81783 0.49423 0.14579 0.0
C70 C 0.83946 0.50209 0.16655 0.0
H71 H 0.80421 0.52195 0.10865 0.0
Co72 Co 0.7902 0.45766 0.14293 0.0
C73 C 0.8321 0.40131 0.16086 0.0
O74 O 0.80757 0.3857 0.17273 0.0
N75 N 0.76167 0.42084 0.13974 0.0
C76 C 0.71752 0.38903 0.14281 0.0
C77 C 0.73034 0.41937 0.14878 0.0
C78 C 0.76671 0.39129 0.12722 0.0
N79 N 0.74059 0.37123 0.12962 0.0
O80 O 0.79883 0.45452 0.10307 0.0
H81 H 0.71737 0.43896 0.1592 0.0
H82 H 0.78945 0.38422 0.11718 0.0
O83 O 0.82798 0.42973 0.15021 0.0
C84 C 0.77476 0.46262 0.08734 0.0
O85 O 0.74765 0.47278 0.09945 0.0
N86 N 0.77938 0.46274 0.18134 0.0
C87 C 0.74752 0.46969 0.23313 0.0
C88 C 0.77646 0.45131 0.23118 0.0
C89 C 0.79241 0.44855 0.20504 0.0
C90 C 0.75399 0.4841 0.18374 0.0
C91 C 0.73756 0.4879 0.20943 0.0
H92 H 0.81456 0.43447 0.20414 0.0
H93 H 0.74498 0.49647 0.16497 0.0
H94 H 0.84455 0.48673 0.18474 0.0
H95 H 0.84714 0.56544 0.12734 0.0
H96 H 0.69345 0.38031 0.14863 0.0
H97 H 0.78554 0.43735 0.24908 0.0
H98 H 0.71597 0.50322 0.2102 0.0
C99 C 0.97358 0.79789 0.65452 0.0
C100 C 0.95523 0.82037 0.66947 0.0
N101 N 0.97494 0.83575 0.68808 0.0
N102 N 0.00489 0.79907 0.66341 0.0
C103 C 0.00495 0.82271 0.68361 0.0
H104 H 0.96411 0.78044 0.6394 0.0
Co105 Co 0.03816 0.7689 0.65406 0.0
C106 C 0.09787 0.79286 0.68161 0.0
O107 O 0.10289 0.76285 0.69067 0.0
N108 N 0.07221 0.73889 0.64404 0.0
C109 C 0.10993 0.69947 0.6419 0.0
C110 C 0.07859 0.70728 0.65053 0.0
C111 C 0.0995 0.74889 0.63019 0.0
N112 N 0.1232 0.72593 0.62937 0.0
O113 O 0.04132 0.78618 0.61634 0.0
H114 H 0.06262 0.69112 0.66213 0.0
H115 H 0.10311 0.77389 0.62335 0.0
O116 O 0.07193 0.79961 0.66749 0.0
C117 C 0.02435 0.76859 0.59953 0.0
O118 O 0.00514 0.74619 0.61054 0.0
N119 N 0.03236 0.74947 0.68999 0.0
C120 C 0.02349 0.71132 0.73842 0.0
C121 C 0.03679 0.74288 0.74044 0.0
C122 C 0.04033 0.7619 0.71602 0.0
C123 C 0.01531 0.72095 0.68826 0.0
C124 C 0.0111 0.70112 0.71212 0.0
H125 H 0.05074 0.78595 0.71818 0.0
H126 H 0.00659 0.71264 0.6678 0.0
H127 H 0.02635 0.8294 0.69571 0.0
H128 H 0.929 0.82345 0.66813 0.0
H129 H 0.12238 0.67651 0.64568 0.0
H130 H 0.04623 0.75218 0.76034 0.0
H131 H 0.99958 0.67745 0.70974 0.0
C132 C 0.68915 0.51954 0.84294 0.0
C133 C 0.66776 0.54284 0.83279 0.0
N134 N 0.64611 0.52815 0.8154 0.0
N135 N 0.68112 0.49011 0.83215 0.0
C136 C 0.65445 0.49609 0.81583 0.0
H137 H 0.71058 0.52421 0.85574 0.0
Co138 Co 0.70857 0.45327 0.83252 0.0
C139 C 0.66677 0.39516 0.82646 0.0
O140 O 0.68794 0.38287 0.80839 0.0
N141 N 0.73724 0.41602 0.83301 0.0
C142 C 0.77076 0.37599 0.81933 0.0
C143 C 0.76054 0.40744 0.81401 0.0
C144 C 0.73552 0.38984 0.8508 0.0
N145 N 0.75483 0.36485 0.84233 0.0
O146 O 0.71194 0.45519 0.87312 0.0
H147 H 0.76848 0.42192 0.79618 0.0
H148 H 0.7178 0.3878 0.86779 0.0
O149 O 0.67051 0.42407 0.83632 0.0
C150 C 0.74004 0.46533 0.88081 0.0
O151 O 0.76071 0.4748 0.86106 0.0
N152 N 0.70802 0.45378 0.79262 0.0
C153 C 0.72685 0.44992 0.73619 0.0
C154 C 0.69677 0.4368 0.74498 0.0
C155 C 0.6874 0.43958 0.77344 0.0
C156 C 0.73365 0.47204 0.78329 0.0
C157 C 0.74383 0.4702 0.75514 0.0
H158 H 0.66454 0.4289 0.77998 0.0
H159 H 0.74851 0.48507 0.79855 0.0
H160 H 0.64297 0.47778 0.80265 0.0
H161 H 0.66909 0.56884 0.83689 0.0
H162 H 0.7871 0.36162 0.80621 0.0
H163 H 0.68204 0.42231 0.73061 0.0
H164 H 0.7669 0.48136 0.74944 0.0
C165 C 0.97122 0.68712 0.34423 0.0
C166 C 0.95376 0.66465 0.32853 0.0
N167 N 0.97293 0.65365 0.30732 0.0
N168 N 1.0015 0.69028 0.33323 0.0
C169 C 1.00186 0.66917 0.31101 0.0
H170 H 0.96154 0.70169 0.36141 0.0
Co171 Co 0.0323 0.72298 0.34264 0.0
C172 C 0.09123 0.70712 0.30983 0.0
O173 O 0.09269 0.73782 0.3016 0.0
N174 N 0.06396 0.75549 0.35265 0.0
C175 C 0.09419 0.8003 0.35907 0.0
C176 C 0.06383 0.78853 0.35136 0.0
C177 C 0.09434 0.74817 0.36249 0.0
N178 N 0.11354 0.77473 0.36563 0.0
O179 O 0.04035 0.7035 0.37892 0.0
H180 H 0.04353 0.8035 0.34466 0.0
H181 H 0.10273 0.72344 0.36628 0.0
O182 O 0.06765 0.69723 0.32556 0.0
C183 C 0.02266 0.7182 0.39723 0.0
O184 O 1.00056 0.73905 0.38813 0.0
N185 N 0.02157 0.74447 0.30849 0.0
C186 C 0.00899 0.78839 0.26491 0.0
C187 C 0.0236 0.75808 0.25902 0.0
C188 C 0.02894 0.73594 0.28115 0.0
C189 C 1.00199 0.77078 0.31344 0.0
C190 C 0.99572 0.79345 0.29201 0.0
H191 H 0.04105 0.71321 0.27632 0.0
H192 H 0.99338 0.77553 0.33478 0.0
H193 H 0.02252 0.66622 0.29696 0.0
H194 H 0.92816 0.65878 0.3313 0.0
H195 H 0.10182 0.82563 0.35861 0.0
H196 H 0.03347 0.75262 0.2382 0.0
H197 H 0.98307 0.81595 0.29719 0.0
C198 C 0.82377 0.98019 0.86344 0.0
C199 C 0.84695 0.95789 0.8547 0.0
N200 N 0.85766 0.96678 0.82879 0.0
N201 N 0.81995 0.00342 0.84329 0.0
C202 C 0.84112 0.99445 0.82244 0.0
H203 H 0.81044 0.97904 0.8832 0.0
Co204 Co 0.79095 0.03964 0.84318 0.0
C205 C 0.83434 0.09731 0.83162 0.0
O206 O 0.81138 0.11476 0.81935 0.0
N207 N 0.76162 0.07593 0.84315 0.0
C208 C 0.7232 0.11158 0.83015 0.0
C209 C 0.73517 0.08043 0.82641 0.0
C210 C 0.76376 0.10417 0.85823 0.0
N211 N 0.74156 0.12679 0.84984 0.0
O212 O 0.7937 0.04381 0.88354 0.0
H213 H 0.72579 0.0629 0.81136 0.0
H214 H 0.78343 0.10924 0.87296 0.0
O215 O 0.82905 0.06798 0.83961 0.0
C216 C 0.77074 0.02934 0.8968 0.0
O217 O 0.75061 0.01048 0.88254 0.0
N218 N 0.78541 0.03428 0.80394 0.0
C219 C 0.75547 0.0313 0.75117 0.0
C220 C 0.78255 0.05176 0.75549 0.0
C221 C 0.79754 0.05264 0.78213 0.0
C222 C 0.76272 0.01069 0.7988 0.0
C223 C 0.74744 0.00862 0.77242 0.0
H224 H 0.81741 0.06933 0.78523 0.0
H225 H 0.75409 0.99563 0.81616 0.0
H226 H 0.84456 0.00799 0.80292 0.0
H227 H 0.85475 0.93631 0.86621 0.0
H228 H 0.70333 0.12262 0.81835 0.0
H229 H 0.79012 0.06925 0.7395 0.0
H230 H 0.72727 0.99178 0.7697 0.0
C231 C 0.51116 0.81309 0.35528 0.0
C232 C 0.53496 0.8337 0.34462 0.0
N233 N 0.52143 0.85218 0.3241 0.0
N234 N 0.4827 0.81823 0.34135 0.0
C235 C 0.49 0.84239 0.32261 0.0
H236 H 0.51491 0.79448 0.37126 0.0
Co237 Co 0.44393 0.7923 0.34439 0.0
C238 C 0.40837 0.8523 0.32287 0.0
O239 O 0.41818 0.84909 0.29648 0.0
N240 N 0.40505 0.76723 0.34833 0.0
C241 C 0.36536 0.73023 0.34499 0.0
C242 C 0.39783 0.73684 0.3392 0.0
C243 C 0.37712 0.77781 0.36067 0.0
N244 N 0.35208 0.75629 0.35836 0.0
O245 O 0.44541 0.79592 0.38502 0.0
H246 H 0.41473 0.72102 0.32807 0.0
H247 H 0.37539 0.80123 0.37098 0.0
O248 O 0.41701 0.83181 0.34192 0.0
C249 C 0.45604 0.76847 0.39412 0.0
O250 O 0.4657 0.74673 0.37532 0.0
N251 N 0.44428 0.78436 0.30457 0.0
C252 C 0.44823 0.74987 0.25321 0.0
C253 C 0.41822 0.76276 0.26275 0.0
C254 C 0.41686 0.78039 0.2883 0.0
C255 C 0.47373 0.77357 0.29461 0.0
C256 C 0.47642 0.75794 0.26855 0.0
H257 H 0.39328 0.78805 0.29629 0.0
H258 H 0.49532 0.77452 0.30771 0.0
H259 H 0.47371 0.85104 0.30644 0.0
H260 H 0.56035 0.83454 0.35105 0.0
H261 H 0.35259 0.70808 0.33923 0.0
H262 H 0.39553 0.75728 0.25198 0.0
H263 H 0.50042 0.74997 0.26179 0.0
C264 C 0.31917 0.02056 0.85816 0.0
C265 C 0.33927 0.04185 0.84376 0.0
N266 N 0.3543 0.02535 0.82274 0.0
N267 N 0.32131 0.99054 0.8464 0.0
C268 C 0.34323 0.99429 0.82497 0.0
H269 H 0.30318 0.0272 0.87546 0.0
Co270 Co 0.29479 0.95371 0.85433 0.0
C271 C 0.36207 0.92884 0.86762 0.0
O272 O 0.37465 0.95715 0.87487 0.0
N273 N 0.26809 0.91708 0.86149 0.0
C274 C 0.22451 0.88636 0.87084 0.0
C275 C 0.23561 0.91774 0.86644 0.0
C276 C 0.27594 0.88485 0.86216 0.0
N277 N 0.24994 0.86569 0.86811 0.0
O278 O 0.29442 0.96335 0.89424 0.0
H279 H 0.22072 0.93956 0.86658 0.0
H280 H 0.3002 0.87541 0.85838 0.0
O281 O 0.33258 0.92666 0.8593 0.0
C282 C 0.26889 0.97917 0.90154 0.0
O283 O 0.25007 0.99117 0.88143 0.0
N284 N 0.29217 0.94459 0.81588 0.0
C285 C 0.26857 0.9259 0.76307 0.0
C286 C 0.29548 0.90969 0.77524 0.0
C287 C 0.30681 0.91924 0.80196 0.0
C288 C 0.2684 0.96267 0.80318 0.0
C289 C 0.25622 0.95381 0.77669 0.0
H290 H 0.32559 0.90478 0.81207 0.0
H291 H 0.25697 0.98241 0.81481 0.0
H292 H 0.34979 0.97494 0.81037 0.0
H293 H 0.34207 0.06769 0.84811 0.0
H294 H 0.19953 0.87926 0.87522 0.0
H295 H 0.30602 0.88829 0.76524 0.0
H296 H 0.23524 0.96687 0.76841 0.0
C297 C 0.48579 0.31558 0.36683 0.0
C298 C 0.46184 0.3371 0.358 0.0
N299 N 0.4735 0.35422 0.33578 0.0
N300 N 0.51257 0.31939 0.35044 0.0
C301 C 0.50428 0.34326 0.33178 0.0
H302 H 0.48356 0.29781 0.38374 0.0
Co303 Co 0.55102 0.29452 0.35249 0.0
C304 C 0.60308 0.33768 0.33069 0.0
O305 O 0.61587 0.31322 0.31641 0.0
N306 N 0.5902 0.26902 0.35514 0.0
C307 C 0.62899 0.23114 0.35018 0.0
C308 C 0.59675 0.2388 0.34504 0.0
C309 C 0.61859 0.27824 0.3677 0.0
N310 N 0.64307 0.25627 0.36405 0.0
O311 O 0.55402 0.30292 0.39231 0.0
H312 H 0.57963 0.22311 0.33426 0.0
H313 H 0.62158 0.30173 0.37787 0.0
O314 O 0.57672 0.33397 0.34486 0.0
C315 C 0.54734 0.2782 0.40779 0.0
O316 O 0.53902 0.25067 0.39535 0.0
N317 N 0.54591 0.28388 0.31386 0.0
C318 C 0.54155 0.25458 0.26074 0.0
C319 C 0.55154 0.28727 0.26326 0.0
C320 C 0.55325 0.30165 0.2901 0.0
C321 C 0.53106 0.25429 0.31122 0.0
C322 C 0.52921 0.2388 0.28494 0.0
H323 H 0.56138 0.32661 0.29143 0.0
H324 H 0.52303 0.24148 0.3301 0.0
H325 H 0.52036 0.35263 0.31552 0.0
H326 H 0.43738 0.3392 0.3666 0.0
H327 H 0.64108 0.20884 0.34365 0.0
H328 H 0.55983 0.30094 0.2449 0.0
H329 H 0.52084 0.21371 0.28421 0.0
C330 C 0.19421 0.47333 0.86034 0.0
C331 C 0.17133 0.45056 0.85197 0.0
N332 N 0.15542 0.46241 0.82913 0.0
N333 N 0.19248 0.49961 0.84302 0.0
C334 C 0.16851 0.49214 0.82427 0.0
H335 H 0.21126 0.47052 0.8777 0.0
Co336 Co 0.21807 0.53777 0.84323 0.0
C337 C 0.16711 0.5921 0.84156 0.0
O338 O 0.18746 0.61565 0.83502 0.0
N339 N 0.24431 0.57625 0.84347 0.0
C340 C 0.27831 0.61592 0.83039 0.0
C341 C 0.26773 0.5847 0.82468 0.0
C342 C 0.24303 0.6019 0.86164 0.0
N343 N 0.26212 0.62734 0.85334 0.0
O344 O 0.21998 0.53693 0.88384 0.0
H345 H 0.27578 0.56977 0.80707 0.0
H346 H 0.22596 0.60274 0.87913 0.0
O347 O 0.17694 0.56255 0.84382 0.0
C348 C 0.24796 0.52534 0.8904 0.0
O349 O 0.26728 0.51566 0.86972 0.0
N350 N 0.21949 0.53657 0.80365 0.0
C351 C 0.24418 0.5372 0.74891 0.0
C352 C 0.22029 0.56 0.75709 0.0
C353 C 0.20812 0.55929 0.78482 0.0
C354 C 0.23941 0.51186 0.79486 0.0
C355 C 0.25183 0.51149 0.76739 0.0
H356 H 0.19226 0.57874 0.79156 0.0
H357 H 0.24817 0.49409 0.8101 0.0
H358 H 0.16081 0.50818 0.80722 0.0
H359 H 0.16736 0.42673 0.8614 0.0
H360 H 0.29547 0.62946 0.8175 0.0
H361 H 0.21394 0.58037 0.74341 0.0
H362 H 0.27011 0.49344 0.76174 0.0
C363 C 0.03743 0.22004 0.35688 0.0
C364 C 0.06421 0.20341 0.34674 0.0
N365 N 0.05446 0.18362 0.32549 0.0
N366 N 0.01071 0.21092 0.34219 0.0
C367 C 0.02177 0.18801 0.3237 0.0
H368 H 0.03795 0.23951 0.37238 0.0
Co369 Co 0.97151 0.23465 0.34303 0.0
C370 C 0.9226 0.19205 0.31641 0.0
O371 O 0.91169 0.21696 0.3015 0.0
N372 N 0.93199 0.25954 0.34482 0.0
C373 C 0.89706 0.30143 0.34714 0.0
C374 C 0.92851 0.29212 0.34075 0.0
C375 C 0.90221 0.24995 0.35459 0.0
N376 N 0.88049 0.27482 0.35562 0.0
O377 O 0.9659 0.22453 0.38211 0.0
H378 H 0.9477 0.30875 0.33473 0.0
H379 H 0.89674 0.22538 0.3617 0.0
O380 O 0.94696 0.19538 0.33311 0.0
C381 C 0.97316 0.24828 0.39842 0.0
O382 O 0.98479 0.27524 0.38706 0.0
N383 N 0.97892 0.24696 0.30491 0.0
C384 C 0.98645 0.27638 0.2519 0.0
C385 C 0.97974 0.24279 0.2541 0.0
C386 C 0.97594 0.22855 0.28082 0.0
C387 C 0.9915 0.27766 0.30308 0.0
C388 C 0.99443 0.29332 0.27691 0.0
H389 H 0.96969 0.20301 0.28171 0.0
H390 H 0.99759 0.29077 0.3223 0.0
H391 H 0.00685 0.17675 0.30754 0.0
H392 H 0.08931 0.2074 0.35313 0.0
H393 H 0.88717 0.32596 0.34587 0.0
H394 H 0.97558 0.22794 0.23541 0.0
H395 H 1.00066 0.31902 0.27676 0.0
C396 C 0.32972 0.4833 0.15027 0.0
C397 C 0.34638 0.46222 0.16805 0.0
N398 N 0.35816 0.47957 0.19007 0.0
N399 N 0.33122 0.51393 0.16086 0.0
C400 C 0.34882 0.51076 0.18512 0.0
H401 H 0.31687 0.47648 0.13111 0.0
Co402 Co 0.31221 0.55233 0.14581 0.0
C403 C 0.38332 0.56858 0.14013 0.0
O404 O 0.3939 0.53945 0.13281 0.0
N405 N 0.29427 0.59162 0.13063 0.0
C406 C 0.2941 0.63664 0.10399 0.0
C407 C 0.30591 0.60545 0.10658 0.0
C408 C 0.27473 0.61513 0.14204 0.0
N409 N 0.27489 0.64302 0.1265 0.0
O410 O 0.31864 0.53642 0.1081 0.0
H411 H 0.32409 0.59462 0.09282 0.0
H412 H 0.26293 0.61304 0.16254 0.0
O413 O 0.3533 0.57338 0.14539 0.0
C414 C 0.29234 0.52843 0.09538 0.0
O415 O 0.26473 0.52919 0.10964 0.0
N416 N 0.30403 0.56713 0.18239 0.0
C417 C 0.27736 0.59129 0.23204 0.0
C418 C 0.30376 0.60733 0.21926 0.0
C419 C 0.31719 0.59454 0.19441 0.0
C420 C 0.27984 0.55016 0.19563 0.0
C421 C 0.26637 0.56162 0.22083 0.0
H422 H 0.33591 0.60838 0.18363 0.0
H423 H 0.26965 0.52867 0.18558 0.0
H424 H 0.35457 0.53097 0.19907 0.0
H425 H 0.34858 0.436 0.16554 0.0
H426 H 0.30086 0.65408 0.0877 0.0
H427 H 0.31225 0.63069 0.22721 0.0
H428 H 0.24553 0.54909 0.22996 0.0
C429 C 0.02179 0.31335 0.65178 0.0
C430 C 0.04171 0.33488 0.66628 0.0
N431 N 0.02422 0.34843 0.68749 0.0
N432 N 0.99184 0.31346 0.66372 0.0
C433 C 0.99397 0.33556 0.68499 0.0
H434 H 0.0294 0.29689 0.63508 0.0
Co435 Co 0.95847 0.28295 0.6579 0.0
C436 C 0.89791 0.31292 0.6799 0.0
O437 O 0.89079 0.28514 0.69255 0.0
N438 N 0.92425 0.25201 0.65162 0.0
C439 C 0.88697 0.2127 0.65599 0.0
C440 C 0.9184 0.22215 0.66276 0.0
C441 C 0.89669 0.25908 0.63686 0.0
N442 N 0.87294 0.23641 0.64017 0.0
O443 O 0.95584 0.29455 0.61875 0.0
H444 H 0.93483 0.20882 0.67648 0.0
H445 H 0.89302 0.28242 0.62653 0.0
O446 O 0.92531 0.31625 0.66704 0.0
C447 C 0.96926 0.2717 0.60454 0.0
O448 O 0.98419 0.2481 0.61838 0.0
N449 N 0.96401 0.2689 0.69551 0.0
C450 C 0.97518 0.23511 0.74588 0.0
C451 C 0.95708 0.26436 0.74585 0.0
C452 C 0.95242 0.28137 0.72046 0.0
C453 C 0.98515 0.24317 0.69583 0.0
C454 C 0.99112 0.22586 0.72077 0.0
H455 H 0.93876 0.30388 0.72108 0.0
H456 H 0.99599 0.23492 0.67614 0.0
H457 H 0.97427 0.3407 0.69958 0.0
H458 H 0.06771 0.3381 0.66303 0.0
H459 H 0.87496 0.19083 0.6636 0.0
H460 H 0.9448 0.27304 0.76477 0.0
H461 H 0.0064 0.20423 0.71996 0.0
C462 C 0.20265 0.03894 0.14603 0.0
C463 C 0.18825 0.0675 0.15509 0.0
N464 N 0.16748 0.06042 0.17647 0.0
N465 N 0.19108 0.0138 0.16152 0.0
C466 C 0.16908 0.02759 0.17942 0.0
H467 H 0.22215 0.037 0.13062 0.0
Co468 Co 0.21053 0.97241 0.1623 0.0
C469 C 0.16029 0.92971 0.18742 0.0
O470 O 0.18237 0.91608 0.2039 0.0
N471 N 0.23133 0.93043 0.16254 0.0
C472 C 0.27025 0.89231 0.16534 0.0
C473 C 0.26328 0.92495 0.16818 0.0
C474 C 0.21982 0.90041 0.15514 0.0
N475 N 0.24285 0.87675 0.15737 0.0
O476 O 0.20267 0.96756 0.12245 0.0
H477 H 0.28111 0.94339 0.17328 0.0
H478 H 0.19513 0.89594 0.14789 0.0
O479 O 0.1681 0.95266 0.17034 0.0
C480 C 0.22826 0.97054 0.10717 0.0
O481 O 0.25641 0.97591 0.11976 0.0
N482 N 0.22097 0.97921 0.20095 0.0
C483 C 0.25012 0.98426 0.25444 0.0
C484 C 0.2161 0.98021 0.25178 0.0
C485 C 0.20197 0.97772 0.22482 0.0
C486 C 0.25238 0.98956 0.20318 0.0
C487 C 0.26783 0.99105 0.22944 0.0
H488 H 0.17598 0.9739 0.22358 0.0
H489 H 0.2662 0.9947 0.18411 0.0
H490 H 0.15644 0.01435 0.19593 0.0
H491 H 0.19427 0.09185 0.14772 0.0
H492 H 0.29373 0.88086 0.16908 0.0
H493 H 0.20048 0.97759 0.27018 0.0
H494 H 0.29385 0.99537 0.22936 0.0
C495 C 0.4784 0.20589 0.66137 0.0
C496 C 0.45563 0.18425 0.6719 0.0
N497 N 0.47156 0.15846 0.68321 0.0
N498 N 0.50864 0.19395 0.666 0.0
C499 C 0.50363 0.1647 0.67887 0.0
H500 H 0.47328 0.22995 0.65294 0.0
Co501 Co 0.54673 0.21916 0.66398 0.0
C502 C 0.59943 0.17411 0.68042 0.0
O503 O 0.61105 0.19647 0.6977 0.0
N504 N 0.5854 0.24543 0.66151 0.0
C505 C 0.62118 0.28669 0.66275 0.0
C506 C 0.58994 0.27689 0.66956 0.0
C507 C 0.61406 0.23736 0.64873 0.0
N508 N 0.63633 0.26158 0.64998 0.0
O509 O 0.54651 0.21713 0.62334 0.0
H510 H 0.57183 0.29239 0.67932 0.0
H511 H 0.61862 0.21418 0.63843 0.0
O512 O 0.57356 0.17948 0.66595 0.0
C513 C 0.53573 0.24447 0.6142 0.0
O514 O 0.52454 0.26564 0.63282 0.0
N515 N 0.54451 0.22423 0.70365 0.0
C516 C 0.54058 0.24453 0.76026 0.0
C517 C 0.54748 0.21168 0.75343 0.0
C518 C 0.54924 0.20198 0.72495 0.0
C519 C 0.53232 0.25423 0.70997 0.0
C520 C 0.53128 0.26535 0.73782 0.0
H521 H 0.55495 0.17681 0.72033 0.0
H522 H 0.5245 0.27024 0.693 0.0
H523 H 0.52308 0.14959 0.68723 0.0
H524 H 0.42946 0.18808 0.67259 0.0
H525 H 0.6321 0.31023 0.66722 0.0
H526 H 0.55248 0.19367 0.76969 0.0
H527 H 0.5249 0.29071 0.74095 0.0
H528 H 0.6598 0.91755 0.21921 0.0
H529 H 0.59707 1.00051 0.20115 0.0
H530 H 0.55643 0.97948 0.23564 0.0
H531 H 0.59678 0.85757 0.22665 0.0
H532 H 0.61664 0.83618 0.25537 0.0
H533 H 0.64071 0.85807 0.22959 0.0
H534 H 0.66789 0.89132 0.27001 0.0
H535 H 0.64382 0.86959 0.29592 0.0
H536 H 0.64256 0.91363 0.29465 0.0
H537 H 0.52122 0.94736 0.27026 0.0
H538 H 0.49575 0.90862 0.3041 0.0
H539 H 0.58252 0.84789 0.30123 0.0
C540 C 0.63745 0.93124 0.22238 0.0
C541 C 0.63151 0.96064 0.20726 0.0
C542 C 0.6022 0.97807 0.21253 0.0
C543 C 0.57895 0.96623 0.23202 0.0
C544 C 0.58552 0.93708 0.24641 0.0
C545 C 0.61422 0.91998 0.24202 0.0
C546 C 0.61553 0.88944 0.26037 0.0
C547 C 0.61753 0.85849 0.24189 0.0
C548 C 0.64415 0.89111 0.28149 0.0
C549 C 0.58291 0.89174 0.27556 0.0
C550 C 0.56588 0.91932 0.26709 0.0
C551 C 0.53452 0.92591 0.27723 0.0
C552 C 0.5202 0.90375 0.29637 0.0
C553 C 0.53726 0.87546 0.30552 0.0
C554 C 0.56916 0.86963 0.29507 0.0
H555 H 0.64969 0.58991 0.79351 0.0
H556 H 0.59001 0.50231 0.79392 0.0
H557 H 0.55154 0.52866 0.76032 0.0
H558 H 0.58331 0.6484 0.79013 0.0
H559 H 0.60522 0.67584 0.76699 0.0
H560 H 0.62732 0.65016 0.79148 0.0
H561 H 0.66115 0.62654 0.74971 0.0
H562 H 0.63901 0.65197 0.72506 0.0
H563 H 0.64028 0.6083 0.71994 0.0
H564 H 0.51934 0.56537 0.72628 0.0
H565 H 0.49716 0.60832 0.6946 0.0
H566 H 0.57845 0.67142 0.71664 0.0
C567 C 0.62831 0.57634 0.78695 0.0
C568 C 0.62284 0.54398 0.79664 0.0
C569 C 0.59485 0.527 0.78679 0.0
C570 C 0.5728 0.54184 0.76775 0.0
C571 C 0.57907 0.5737 0.75855 0.0
C572 C 0.60621 0.59069 0.76785 0.0
C573 C 0.60788 0.62436 0.75436 0.0
C574 C 0.6058 0.65128 0.7771 0.0
C575 C 0.63892 0.62799 0.73619 0.0
C576 C 0.57744 0.62375 0.73601 0.0
C577 C 0.56104 0.5944 0.73876 0.0
C578 C 0.53206 0.58842 0.72402 0.0
C579 C 0.51955 0.61304 0.70611 0.0
C580 C 0.53602 0.64333 0.70288 0.0
C581 C 0.56543 0.64847 0.71813 0.0
H582 H 0.925 0.60707 0.30555 0.0
H583 H 0.99627 0.6577 0.25334 0.0
H584 H 0.97553 0.62909 0.21099 0.0
H585 H 0.92775 0.52897 0.26635 0.0
H586 H 0.88453 0.52176 0.27034 0.0
H587 H 0.90642 0.54448 0.29704 0.0
H588 H 0.86591 0.59272 0.29118 0.0
H589 H 0.84398 0.5702 0.26444 0.0
H590 H 0.85966 0.61035 0.25648 0.0
H591 H 0.94388 0.59904 0.17351 0.0
H592 H 0.90544 0.56717 0.14398 0.0
H593 H 0.85528 0.53427 0.21986 0.0
C594 C 0.93646 0.61188 0.28526 0.0
C595 C 0.96253 0.63459 0.28298 0.0
C596 C 0.97679 0.64008 0.25593 0.0
C597 C 0.96499 0.62405 0.23162 0.0
C598 C 0.93904 0.60224 0.23457 0.0
C599 C 0.92514 0.59581 0.26074 0.0
C600 C 0.89696 0.57181 0.25785 0.0
C601 C 0.90437 0.53985 0.27385 0.0
C602 C 0.86472 0.5872 0.26809 0.0
C603 C 0.8967 0.56638 0.22591 0.0
C604 C 0.92123 0.5842 0.21294 0.0
C605 C 0.92487 0.58466 0.18349 0.0
C606 C 0.90285 0.56661 0.16686 0.0
C607 C 0.87756 0.54806 0.17958 0.0
C608 C 0.87476 0.54771 0.20958 0.0
H609 H 0.92336 0.8783 0.68884 0.0
H610 H 1.0027 0.84027 0.74039 0.0
H611 H 0.98288 0.87237 0.78122 0.0
H612 H 0.92251 0.96086 0.72028 0.0
H613 H 0.87862 0.96426 0.71858 0.0
H614 H 0.90021 0.93992 0.69274 0.0
H615 H 0.8645 0.88984 0.70577 0.0
H616 H 0.84289 0.91398 0.73166 0.0
H617 H 0.86253 0.87641 0.74222 0.0
H618 H 0.95156 0.90439 0.81784 0.0
H619 H 0.91287 0.93696 0.8467 0.0
H620 H 0.85472 0.95636 0.77163 0.0
C621 C 0.93674 0.87699 0.70864 0.0
C622 C 0.96479 0.85681 0.71122 0.0
C623 C 0.98157 0.85588 0.73757 0.0
C624 C 0.97034 0.87391 0.76102 0.0
C625 C 0.94243 0.89316 0.75785 0.0
C626 C 0.92603 0.89516 0.73224 0.0
C627 C 0.89622 0.91721 0.73476 0.0
C628 C 0.89961 0.94735 0.71544 0.0
C629 C 0.86467 0.89822 0.72822 0.0
C630 C 0.89803 0.92669 0.76592 0.0
C631 C 0.92487 0.91247 0.77883 0.0
C632 C 0.93074 0.91601 0.80785 0.0
C633 C 0.90859 0.93442 0.82411 0.0
C634 C 0.88103 0.94942 0.81139 0.0
C635 C 0.87595 0.94572 0.7818 0.0
H636 H 0.35166 0.08675 0.80065 0.0
H637 H 0.40398 0.99474 0.79495 0.0
H638 H 0.43972 0.01835 0.75766 0.0
H639 H 0.35309 0.10541 0.72607 0.0
H640 H 0.3582 0.14874 0.73147 0.0
H641 H 0.3372 0.12452 0.75771 0.0
H642 H 0.37737 0.14475 0.79646 0.0
H643 H 0.39839 0.16915 0.77037 0.0
H644 H 0.42073 0.13966 0.79122 0.0
H645 H 0.47124 0.05365 0.72185 0.0
H646 H 0.49356 0.09614 0.6896 0.0
H647 H 0.41905 0.16389 0.71833 0.0
C648 C 0.3708 0.0716 0.79177 0.0
C649 C 0.37516 0.03891 0.80091 0.0
C650 C 0.40009 0.01976 0.78821 0.0
C651 C 0.42057 0.03303 0.7671 0.0
C652 C 0.41561 0.06542 0.75866 0.0
C653 C 0.39114 0.08432 0.77053 0.0
C654 C 0.39041 0.11826 0.7576 0.0
C655 C 0.35779 0.12459 0.7423 0.0
C656 C 0.39713 0.1445 0.78026 0.0
C657 C 0.41841 0.11569 0.73667 0.0
C658 C 0.43283 0.08512 0.73764 0.0
C659 C 0.4599 0.07755 0.72081 0.0
C660 C 0.47248 0.10182 0.7026 0.0
C661 C 0.45783 0.1332 0.70111 0.0
C662 C 0.43037 0.13996 0.71841 0.0
H663 H 0.47274 0.35816 0.2782 0.0
H664 H 0.43371 0.40228 0.35462 0.0
H665 H 0.40194 0.44148 0.32535 0.0
H666 H 0.47815 0.43221 0.23512 0.0
H667 H 0.46508 0.41207 0.20303 0.0
H668 H 0.48661 0.38934 0.23 0.0
H669 H 0.43912 0.34759 0.23226 0.0
H670 H 0.41743 0.37018 0.20534 0.0
H671 H 0.39815 0.3619 0.23902 0.0
H672 H 0.37454 0.47588 0.28756 0.0
H673 H 0.34949 0.49956 0.24433 0.0
H674 H 0.40316 0.43054 0.19232 0.0
C675 C 0.45785 0.37645 0.28867 0.0
C676 C 0.45591 0.3776 0.31866 0.0
C677 C 0.43552 0.40119 0.3317 0.0
C678 C 0.41755 0.42356 0.31524 0.0
C679 C 0.41983 0.42169 0.28571 0.0
C680 C 0.43918 0.39849 0.27252 0.0
C681 C 0.43557 0.40024 0.24045 0.0
C682 C 0.4683 0.40899 0.22632 0.0
C683 C 0.42174 0.36807 0.22858 0.0
C684 C 0.41109 0.42797 0.23765 0.0
C685 C 0.40275 0.44036 0.26399 0.0
C686 C 0.38087 0.46633 0.26684 0.0
C687 C 0.36688 0.47974 0.24219 0.0
C688 C 0.37434 0.46687 0.21502 0.0
C689 C 0.39685 0.44069 0.21284 0.0
H690 H 0.07317 0.39365 0.68781 0.0
H691 H 0.00522 0.34176 0.74232 0.0
H692 H 0.02982 0.36772 0.78438 0.0
H693 H 0.14214 0.38749 0.73265 0.0
H694 H 0.1576 0.42789 0.72531 0.0
H695 H 0.13338 0.40695 0.6991 0.0
H696 H 0.09298 0.45577 0.69754 0.0
H697 H 0.1172 0.47692 0.72369 0.0
H698 H 0.07433 0.46987 0.73001 0.0
H699 H 0.06504 0.39489 0.82088 0.0
H700 H 0.10614 0.42509 0.84915 0.0
H701 H 0.14986 0.46178 0.7716 0.0
C702 C 0.06329 0.38813 0.7086 0.0
C703 C 0.03705 0.36589 0.7117 0.0
C704 C 0.02482 0.35918 0.73928 0.0
C705 C 0.0388 0.37365 0.76337 0.0
C706 C 0.0648 0.39517 0.75963 0.0
C707 C 0.07669 0.4028 0.73294 0.0
C708 C 0.10524 0.42637 0.73498 0.0
C709 C 0.13643 0.41126 0.72226 0.0
C710 C 0.09693 0.45918 0.72071 0.0
C711 C 0.10801 0.43009 0.76697 0.0
C712 C 0.08447 0.4118 0.78076 0.0
C713 C 0.08327 0.4097 0.81032 0.0
C714 C 0.10674 0.42676 0.8262 0.0
C715 C 0.13084 0.44595 0.81256 0.0
C716 C 0.13125 0.4478 0.78255 0.0
H717 H 0.04432 0.12679 0.29603 0.0
H718 H 0.11153 0.20797 0.30601 0.0
H719 H 0.14638 0.18552 0.2682 0.0
H720 H 0.10714 0.06521 0.28312 0.0
H721 H 0.08339 0.04311 0.25724 0.0
H722 H 0.06313 0.06552 0.2851 0.0
H723 H 0.02994 0.09762 0.24741 0.0
H724 H 0.05025 0.07543 0.21943 0.0
H725 H 0.05124 0.1195 0.21979 0.0
H726 H 0.17318 0.15615 0.22873 0.0
H727 H 0.19354 0.11843 0.19218 0.0
H728 H 0.11109 0.05405 0.20739 0.0
C729 C 0.06645 0.13965 0.29024 0.0
C730 C 0.07533 0.16903 0.30422 0.0
C731 C 0.1045 0.18518 0.29608 0.0
C732 C 0.12434 0.17277 0.2744 0.0
C733 C 0.11496 0.14393 0.26105 0.0
C734 C 0.08697 0.12725 0.26877 0.0
C735 C 0.0833 0.09623 0.25122 0.0
C736 C 0.08431 0.06571 0.27031 0.0
C737 C 0.05181 0.09727 0.23341 0.0
C738 C 0.11351 0.09832 0.23245 0.0
C739 C 0.13111 0.12629 0.2384 0.0
C740 C 0.15966 0.13413 0.22386 0.0
C741 C 0.17088 0.11263 0.20288 0.0
C742 C 0.15383 0.08335 0.19663 0.0
C743 C 0.12466 0.07621 0.21168 0.0
H744 H 0.68105 0.16541 0.18452 0.0
H745 H 0.61594 0.0823 0.17723 0.0
H746 H 0.56855 0.1187 0.18603 0.0
H747 H 0.64662 0.19917 0.24132 0.0
H748 H 0.65238 0.24123 0.23094 0.0
H749 H 0.67907 0.21031 0.21725 0.0
H750 H 0.66458 0.22816 0.16586 0.0
H751 H 0.63733 0.25905 0.17957 0.0
H752 H 0.62245 0.22906 0.15471 0.0
H753 H 0.53069 0.16128 0.2053 0.0
H754 H 0.50692 0.20423 0.23578 0.0
H755 H 0.59724 0.25918 0.22983 0.0
C756 C 0.65673 0.15499 0.18417 0.0
C757 C 0.65198 0.12116 0.1805 0.0
C758 C 0.61993 0.10829 0.17999 0.0
C759 C 0.59293 0.12882 0.18473 0.0
C760 C 0.59853 0.16212 0.1892 0.0
C761 C 0.62973 0.1751 0.18863 0.0
C762 C 0.63009 0.21042 0.19795 0.0
C763 C 0.65336 0.21553 0.22337 0.0
C764 C 0.63914 0.233 0.17303 0.0
C765 C 0.59464 0.21456 0.20628 0.0
C766 C 0.57652 0.18688 0.20016 0.0
C767 C 0.54439 0.18335 0.20958 0.0
C768 C 0.53113 0.20781 0.22702 0.0
C769 C 0.55024 0.23508 0.23525 0.0
C770 C 0.58162 0.2392 0.22332 0.0
H771 H 0.30916 0.54198 0.75418 0.0
H772 H 0.23057 0.5553 0.69371 0.0
H773 H 0.26891 0.58308 0.66094 0.0
H774 H 0.33442 0.61681 0.75089 0.0
H775 H 0.37761 0.60965 0.75537 0.0
H776 H 0.34883 0.58056 0.76883 0.0
H777 H 0.37614 0.53445 0.73945 0.0
H778 H 0.40557 0.56345 0.72607 0.0
H779 H 0.38154 0.53948 0.70168 0.0
H780 H 0.31133 0.61904 0.64029 0.0
H781 H 0.35004 0.66509 0.63655 0.0
H782 H 0.39989 0.6318 0.71228 0.0
C783 C 0.30054 0.5489 0.73326 0.0
C784 C 0.26727 0.54566 0.72597 0.0
C785 C 0.25621 0.5569 0.69926 0.0
C786 C 0.27789 0.57253 0.68054 0.0
C787 C 0.31034 0.57684 0.68905 0.0
C788 C 0.32159 0.56527 0.7149 0.0
C789 C 0.35469 0.57938 0.72234 0.0
C790 C 0.35378 0.59769 0.75101 0.0
C791 C 0.38104 0.55259 0.72237 0.0
C792 C 0.35933 0.60256 0.69771 0.0
C793 C 0.33426 0.59967 0.67807 0.0
C794 C 0.33129 0.62117 0.65523 0.0
C795 C 0.3534 0.64718 0.65323 0.0
C796 C 0.37798 0.65132 0.67397 0.0
C797 C 0.3817 0.62827 0.69585 0.0
H798 H 0.94021 0.2613 0.21235 0.0
H799 H 0.01413 0.33399 0.23169 0.0
H800 H 0.98741 0.37227 0.19867 0.0
H801 H 0.9264 0.29176 0.13413 0.0
H802 H 0.88374 0.2819 0.13702 0.0
H803 H 0.91379 0.25635 0.15414 0.0
H804 H 0.88478 0.2633 0.20227 0.0
H805 H 0.85437 0.28862 0.18623 0.0
H806 H 0.87754 0.30388 0.21598 0.0
H807 H 0.94422 0.40689 0.17653 0.0
H808 H 0.89098 0.43267 0.16541 0.0
H809 H 0.8464 0.33693 0.15976 0.0
C810 C 0.95222 0.28441 0.20849 0.0
C811 C 0.97896 0.29466 0.22525 0.0
C812 C 0.99313 0.32567 0.21975 0.0
C813 C 0.97833 0.34753 0.20069 0.0
C814 C 0.95009 0.33762 0.18652 0.0
C815 C 0.93787 0.30626 0.18947 0.0
C816 C 0.90468 0.3029 0.17567 0.0
C817 C 0.9073 0.28199 0.14865 0.0
C818 C 0.87889 0.28891 0.19631 0.0
C819 C 0.89803 0.33824 0.16833 0.0
C820 C 0.92508 0.35772 0.17333 0.0
C821 C 0.92328 0.39178 0.17162 0.0
C822 C 0.89295 0.40624 0.16546 0.0
C823 C 0.86484 0.38659 0.16194 0.0
C824 C 0.86773 0.35231 0.16234 0.0
H825 H 0.2549 0.86124 0.75769 0.0
H826 H 0.23615 0.95539 0.71834 0.0
H827 H 0.19252 0.93036 0.68923 0.0
H828 H 0.23525 0.80875 0.6937 0.0
H829 H 0.21727 0.77846 0.71677 0.0
H830 H 0.25109 0.8028 0.7291 0.0
H831 H 0.21584 0.81973 0.77253 0.0
H832 H 0.18167 0.79672 0.75942 0.0
H833 H 0.17711 0.83975 0.76671 0.0
H834 H 0.14477 0.89671 0.67081 0.0
H835 H 0.10081 0.85632 0.66167 0.0
H836 H 0.15262 0.78529 0.71347 0.0
C837 C 0.24292 0.87637 0.74193 0.0
C838 C 0.24914 0.91025 0.74019 0.0
C839 C 0.23176 0.92935 0.72006 0.0
C840 C 0.20699 0.91533 0.7034 0.0
C841 C 0.20027 0.88215 0.70689 0.0
C842 C 0.21828 0.86282 0.72526 0.0
C843 C 0.20428 0.82877 0.7276 0.0
C844 C 0.22843 0.8032 0.71607 0.0
C845 C 0.19412 0.82082 0.75838 0.0
C846 C 0.1749 0.83223 0.70845 0.0
C847 C 0.17298 0.86301 0.69645 0.0
C848 C 0.14642 0.87231 0.67963 0.0
C849 C 0.12147 0.84936 0.67474 0.0
C850 C 0.12333 0.81767 0.6868 0.0
C851 C 0.15051 0.8092 0.70372 0.0
H852 H 0.51697 0.30165 0.78497 0.0
H853 H 0.58188 0.21965 0.80178 0.0
H854 H 0.60828 0.25083 0.83894 0.0
H855 H 0.57492 0.35078 0.77473 0.0
H856 H 0.55782 0.38782 0.78934 0.0
H857 H 0.53124 0.35617 0.77726 0.0
H858 H 0.50358 0.35387 0.82669 0.0
H859 H 0.53032 0.38595 0.83896 0.0
H860 H 0.52809 0.34781 0.85808 0.0
H861 H 0.6416 0.29291 0.85851 0.0
H862 H 0.67862 0.33979 0.8551 0.0
H863 H 0.60079 0.39922 0.82058 0.0
C864 C 0.53639 0.28987 0.79666 0.0
C865 C 0.54779 0.2583 0.78915 0.0
C866 C 0.57208 0.24358 0.80648 0.0
C867 C 0.58752 0.26137 0.82799 0.0
C868 C 0.57901 0.2941 0.83183 0.0
C869 C 0.55365 0.30826 0.81673 0.0
C870 C 0.55542 0.34534 0.81802 0.0
C871 C 0.55488 0.36087 0.78808 0.0
C872 C 0.52771 0.35904 0.83656 0.0
C873 C 0.58818 0.34967 0.83255 0.0
C874 C 0.60009 0.31988 0.84223 0.0
C875 C 0.63208 0.31644 0.85197 0.0
C876 C 0.65306 0.34321 0.84988 0.0
C877 C 0.64209 0.37295 0.83799 0.0
C878 C 0.60899 0.37689 0.83071 0.0
H879 H 0.24337 0.64569 0.22066 0.0
H880 H 0.2613 0.57379 0.28646 0.0
H881 H 0.21645 0.59771 0.31532 0.0
H882 H 0.21911 0.71453 0.26312 0.0
H883 H 0.18562 0.72648 0.24053 0.0
H884 H 0.22103 0.70666 0.22566 0.0
H885 H 0.18669 0.6613 0.20359 0.0
H886 H 0.15021 0.68072 0.21668 0.0
H887 H 0.15839 0.63852 0.22525 0.0
H888 H 0.16569 0.62532 0.33385 0.0
H889 H 0.11514 0.65723 0.34251 0.0
H890 H 0.13042 0.70972 0.26352 0.0
C891 C 0.23871 0.63598 0.24172 0.0
C892 C 0.25616 0.60877 0.25201 0.0
C893 C 0.24849 0.59527 0.27882 0.0
C894 C 0.22306 0.60856 0.29515 0.0
C895 C 0.20546 0.63481 0.28393 0.0
C896 C 0.21305 0.64841 0.25783 0.0
C897 C 0.18827 0.67383 0.24891 0.0
C898 C 0.20444 0.70737 0.24436 0.0
C899 C 0.16981 0.66291 0.22203 0.0
C900 C 0.1661 0.67328 0.27457 0.0
C901 C 0.17602 0.65024 0.29431 0.0
C902 C 0.15787 0.64368 0.31873 0.0
C903 C 0.12908 0.66157 0.32331 0.0
C904 C 0.11913 0.68578 0.30365 0.0
C905 C 0.1378 0.69152 0.27899 0.0
H906 H 0.96895 0.16921 0.74216 0.0
H907 H 0.97184 0.24824 0.8034 0.0
H908 H 0.94779 0.2118 0.83941 0.0
H909 H 0.89738 0.14589 0.75317 0.0
H910 H 0.90197 0.10218 0.75004 0.0
H911 H 0.9307 0.12859 0.73303 0.0
H912 H 0.97859 0.10084 0.75967 0.0
H913 H 0.94993 0.07351 0.77653 0.0
H914 H 0.97756 0.09748 0.79785 0.0
H915 H 0.90713 0.17601 0.86135 0.0
H916 H 0.85757 0.14246 0.86827 0.0
H917 H 0.88263 0.08458 0.79471 0.0
C918 C 0.96661 0.17833 0.76362 0.0
C919 C 0.97207 0.21167 0.76985 0.0
C920 C 0.96748 0.22289 0.798 0.0
C921 C 0.95411 0.2022 0.8187 0.0
C922 C 0.9462 0.17018 0.8111 0.0
C923 C 0.95322 0.15796 0.78437 0.0
C924 C 0.9368 0.12527 0.77945 0.0
C925 C 0.91545 0.12558 0.75237 0.0
C926 C 0.96224 0.09764 0.77833 0.0
C927 C 0.91636 0.1229 0.80611 0.0
C928 C 0.92298 0.14843 0.82462 0.0
C929 C 0.9028 0.15506 0.84783 0.0
C930 C 0.87468 0.13604 0.8516 0.0
C931 C 0.86733 0.11064 0.83241 0.0
C932 C 0.88893 0.10311 0.81019 0.0
H933 H 0.31257 1.00257 0.27149 0.0
H934 H 0.22842 0.94614 0.29947 0.0
H935 H 0.26249 0.91826 0.33402 0.0
H936 H 0.35566 0.93845 0.26015 0.0
H937 H 0.39542 0.95377 0.26994 0.0
H938 H 0.3643 0.98167 0.2587 0.0
H939 H 0.37004 0.01411 0.30567 0.0
H940 H 0.40171 0.98628 0.31703 0.0
H941 H 0.36647 0.99315 0.33923 0.0
H942 H 0.30536 0.88353 0.35305 0.0
H943 H 0.35147 0.84521 0.3522 0.0
H944 H 0.40963 0.91562 0.30597 0.0
C945 C 0.30091 0.98479 0.28509 0.0
C946 C 0.26761 0.97628 0.2816 0.0
C947 C 0.25359 0.95385 0.30118 0.0
C948 C 0.27299 0.93753 0.32117 0.0
C949 C 0.30652 0.94339 0.32129 0.0
C950 C 0.32042 0.96675 0.3038 0.0
C951 C 0.35718 0.96238 0.30194 0.0
C952 C 0.36876 0.95882 0.27086 0.0
C953 C 0.37489 0.99066 0.31687 0.0
C954 C 0.36117 0.93084 0.31842 0.0
C955 C 0.33203 0.92147 0.33094 0.0
C956 C 0.32855 0.89117 0.34421 0.0
C957 C 0.35498 0.86943 0.3437 0.0
C958 C 0.38415 0.87775 0.32941 0.0
C959 C 0.38763 0.90915 0.31746 0.0
H960 H 0.47276 0.82429 0.77055 0.0
H961 H 0.40854 0.74415 0.79483 0.0
H962 H 0.39271 0.77431 0.8373 0.0
H963 H 0.48958 0.85843 0.84401 0.0
H964 H 0.48597 0.89973 0.83093 0.0
H965 H 0.50193 0.86801 0.80819 0.0
H966 H 0.45793 0.88178 0.77033 0.0
H967 H 0.44214 0.91345 0.79281 0.0
H968 H 0.4154 0.88149 0.78039 0.0
H969 H 0.37226 0.81671 0.86942 0.0
H970 H 0.34821 0.86817 0.88693 0.0
H971 H 0.42003 0.92359 0.83967 0.0
C972 C 0.45554 0.81264 0.7847 0.0
C973 C 0.44204 0.78147 0.77864 0.0
C974 C 0.42018 0.76744 0.79868 0.0
C975 C 0.41069 0.78461 0.82305 0.0
C976 C 0.4227 0.81609 0.82714 0.0
C977 C 0.44471 0.83002 0.8085 0.0
C978 C 0.44895 0.86624 0.81437 0.0
C979 C 0.48368 0.87352 0.82502 0.0
C980 C 0.44058 0.88692 0.78792 0.0
C981 C 0.42405 0.87096 0.83784 0.0
C982 C 0.41014 0.84141 0.84564 0.0
C983 C 0.38357 0.83983 0.8641 0.0
C984 C 0.36994 0.86915 0.87382 0.0
C985 C 0.3826 0.89956 0.86477 0.0
C986 C 0.4108 0.90052 0.84762 0.0
H987 H 0.68195 0.46137 0.23061 0.0
H988 H 0.76266 0.46462 0.29016 0.0
H989 H 0.72668 0.44239 0.32761 0.0
H990 H 0.61245 0.47501 0.28511 0.0
H991 H 0.58718 0.44654 0.26587 0.0
H992 H 0.61562 0.47229 0.24699 0.0
H993 H 0.64149 0.42089 0.22395 0.0
H994 H 0.61362 0.39511 0.24283 0.0
H995 H 0.65703 0.38874 0.24649 0.0
H996 H 0.68774 0.40696 0.35365 0.0
H997 H 0.64982 0.36184 0.36543 0.0
H998 H 0.59424 0.38199 0.28933 0.0
C999 C 0.69162 0.45929 0.25194 0.0
C1000 C 0.72503 0.46503 0.25753 0.0
C1001 C 0.73711 0.46043 0.28542 0.0
C1002 C 0.71674 0.44807 0.30688 0.0
C1003 C 0.68431 0.44082 0.30016 0.0
C1004 C 0.67169 0.44677 0.27338 0.0
C1005 C 0.6383 0.43146 0.26971 0.0
C1006 C 0.61182 0.45791 0.26676 0.0
C1007 C 0.63763 0.40764 0.24428 0.0
C1008 C 0.63522 0.41364 0.29771 0.0
C1009 C 0.66146 0.42019 0.31544 0.0
C1010 C 0.66646 0.40266 0.34053 0.0
C1011 C 0.64486 0.37715 0.34712 0.0
C1012 C 0.61882 0.36956 0.32862 0.0
C1013 C 0.6133 0.38857 0.30423 0.0
H1014 H 0.04177 0.64757 0.73491 0.0
H1015 H 0.01616 0.72283 0.79573 0.0
H1016 H 0.03866 0.68891 0.83432 0.0
H1017 H 0.033 0.57337 0.78758 0.0
H1018 H 0.06748 0.55401 0.77066 0.0
H1019 H 0.03931 0.57818 0.74991 0.0
H1020 H 0.08762 0.6132 0.73158 0.0
H1021 H 0.11567 0.58959 0.7523 0.0
H1022 H 0.11391 0.63333 0.75687 0.0
H1023 H 0.07899 0.65798 0.86166 0.0
H1024 H 0.13071 0.63119 0.87546 0.0
H1025 H 0.12789 0.57263 0.79918 0.0
C1026 C 0.03903 0.65604 0.75655 0.0
C1027 C 0.02727 0.68785 0.76229 0.0
C1028 C 0.02528 0.69862 0.7908 0.0
C1029 C 0.03774 0.67933 0.81292 0.0
C1030 C 0.05148 0.64903 0.80628 0.0
C1031 C 0.05141 0.63701 0.77879 0.0
C1032 C 0.07277 0.60685 0.7762 0.0
C1033 C 0.05189 0.57629 0.77078 0.0
C1034 C 0.09903 0.61106 0.7529 0.0
C1035 C 0.08766 0.60592 0.80563 0.0
C1036 C 0.07428 0.62983 0.82298 0.0
C1037 C 0.08857 0.63815 0.84892 0.0
C1038 C 0.11792 0.62286 0.85665 0.0
C1039 C 0.13226 0.59923 0.83874 0.0
C1040 C 0.11622 0.58953 0.81372 0.0
H1041 H 0.91819 0.15846 0.26765 0.0
H1042 H 0.89038 0.15613 0.35628 0.0
H1043 H 0.85433 0.10852 0.34686 0.0
H1044 H 0.84405 0.14502 0.23995 0.0
H1045 H 0.8569 0.11959 0.21075 0.0
H1046 H 0.88484 0.14857 0.22577 0.0
H1047 H 0.92678 0.10218 0.23528 0.0
H1048 H 0.89888 0.07292 0.22008 0.0
H1049 H 0.91457 0.06676 0.25547 0.0
H1050 H 0.81309 0.06956 0.32519 0.0
H1051 H 0.77375 0.04044 0.2941 0.0
H1052 H 0.83193 0.06687 0.22064 0.0
C1053 C 0.90545 0.14696 0.28519 0.0
C1054 C 0.90707 0.16023 0.31264 0.0
C1055 C 0.88969 0.14553 0.3352 0.0
C1056 C 0.86921 0.11863 0.33 0.0
C1057 C 0.86726 0.10654 0.30232 0.0
C1058 C 0.88556 0.11987 0.28043 0.0
C1059 C 0.87697 0.10488 0.25214 0.0
C1060 C 0.86497 0.13107 0.23094 0.0
C1061 C 0.90603 0.08553 0.24004 0.0
C1062 C 0.84968 0.08236 0.26116 0.0
C1063 C 0.84448 0.08326 0.29016 0.0
C1064 C 0.81761 0.06777 0.30259 0.0
C1065 C 0.79534 0.05143 0.28483 0.0
C1066 C 0.80027 0.0507 0.25507 0.0
C1067 C 0.82823 0.06573 0.2434 0.0
H1068 H 0.40727 0.74121 0.20661 0.0
H1069 H 0.4917 0.69856 0.24898 0.0
H1070 H 0.49147 0.6534 0.21539 0.0
H1071 H 0.36545 0.66986 0.20165 0.0
H1072 H 0.34706 0.67751 0.16748 0.0
H1073 H 0.35883 0.71123 0.18959 0.0
H1074 H 0.39585 0.73438 0.14885 0.0
H1075 H 0.38231 0.70085 0.12688 0.0
H1076 H 0.42536 0.70782 0.13234 0.0
H1077 H 0.47716 0.60765 0.18372 0.0
H1078 H 0.44637 0.56383 0.15944 0.0
H1079 H 0.36987 0.6334 0.13886 0.0
C1080 C 0.42617 0.72283 0.20856 0.0
C1081 C 0.44996 0.72449 0.23034 0.0
C1082 C 0.47394 0.69931 0.232 0.0
C1083 C 0.47399 0.67309 0.21297 0.0
C1084 C 0.44979 0.67185 0.19233 0.0
C1085 C 0.42621 0.69599 0.19001 0.0
C1086 C 0.40003 0.68627 0.1689 0.0
C1087 C 0.36586 0.6862 0.18275 0.0
C1088 C 0.40093 0.70865 0.14268 0.0
C1089 C 0.41139 0.65203 0.16149 0.0
C1090 C 0.44079 0.64461 0.17438 0.0
C1091 C 0.45449 0.61333 0.17294 0.0
C1092 C 0.43695 0.58859 0.15903 0.0
C1093 C 0.4059 0.59534 0.1473 0.0
C1094 C 0.39378 0.62774 0.14746 0.0
H1095 H 0.72864 0.38637 0.72037 0.0
H1096 H 0.76756 0.48158 0.69836 0.0
H1097 H 0.81266 0.45496 0.6724 0.0
H1098 H 0.79526 0.35412 0.74032 0.0
H1099 H 0.79034 0.31309 0.72702 0.0
H1100 H 0.75502 0.33756 0.73427 0.0
H1101 H 0.7342 0.3306 0.68261 0.0
H1102 H 0.76893 0.30469 0.67557 0.0
H1103 H 0.76107 0.33967 0.65329 0.0
H1104 H 0.86074 0.41921 0.66172 0.0
H1105 H 0.90427 0.37703 0.66268 0.0
H1106 H 0.83359 0.30568 0.69225 0.0
C1107 C 0.74528 0.4017 0.70846 0.0
C1108 C 0.74462 0.43605 0.71148 0.0
C1109 C 0.76767 0.4552 0.69641 0.0
C1110 C 0.79337 0.44024 0.68155 0.0
C1111 C 0.79518 0.40618 0.68145 0.0
C1112 C 0.77108 0.38708 0.69377 0.0
C1113 C 0.78126 0.35151 0.69527 0.0
C1114 C 0.78044 0.33837 0.72603 0.0
C1115 C 0.7601 0.3304 0.67549 0.0
C1116 C 0.81581 0.35409 0.68423 0.0
C1117 C 0.82322 0.38553 0.67559 0.0
C1118 C 0.85492 0.3943 0.6676 0.0
C1119 C 0.87954 0.37033 0.66847 0.0
C1120 C 0.87233 0.33824 0.67778 0.0
C1121 C 0.83993 0.33006 0.68516 0.0
H1122 H 0.02991 0.84817 0.28037 0.0
H1123 H 0.00458 0.79076 0.20632 0.0
H1124 H 0.03084 0.83212 0.17555 0.0
H1125 H 0.02991 0.9335 0.24464 0.0
H1126 H 0.06504 0.94462 0.26561 0.0
H1127 H 0.03432 0.91787 0.28026 0.0
H1128 H 0.07916 0.87494 0.29132 0.0
H1129 H 0.10977 0.90099 0.27638 0.0
H1130 H 0.10467 0.86007 0.26285 0.0
H1131 H 0.07111 0.87122 0.15465 0.0
H1132 H 0.12247 0.90196 0.14643 0.0
H1133 H 0.12381 0.93106 0.23469 0.0
C1134 C 0.02799 0.84529 0.25757 0.0
C1135 C 0.01477 0.81654 0.2457 0.0
C1136 C 0.01431 0.81281 0.21582 0.0
C1137 C 0.02904 0.8363 0.1982 0.0
C1138 C 0.04397 0.86334 0.21082 0.0
C1139 C 0.04317 0.86806 0.23994 0.0
C1140 C 0.06656 0.89462 0.24915 0.0
C1141 C 0.04783 0.92443 0.26058 0.0
C1142 C 0.09149 0.88185 0.27117 0.0
C1143 C 0.08262 0.90231 0.22107 0.0
C1144 C 0.0684 0.88514 0.19895 0.0
C1145 C 0.08175 0.88552 0.17162 0.0
C1146 C 0.11084 0.90297 0.1671 0.0
C1147 C 0.12639 0.91894 0.18997 0.0
C1148 C 0.11167 0.91945 0.21691 0.0
H1149 H 0.68998 0.03572 0.7573 0.0
H1150 H 0.76718 0.04816 0.6952 0.0
H1151 H 0.72835 0.07661 0.66341 0.0
H1152 H 0.61751 0.03157 0.70527 0.0
H1153 H 0.59303 0.05498 0.72978 0.0
H1154 H 0.62333 0.02673 0.743 0.0
H1155 H 0.64959 0.07355 0.77218 0.0
H1156 H 0.61996 0.10193 0.75885 0.0
H1157 H 0.66292 0.11009 0.75413 0.0
H1158 H 0.68629 0.11494 0.64464 0.0
H1159 H 0.64548 0.15943 0.64103 0.0
H1160 H 0.59619 0.12263 0.71571 0.0
C1161 C 0.6983 0.04253 0.73628 0.0
C1162 C 0.73149 0.03924 0.72855 0.0
C1163 C 0.74178 0.05017 0.70145 0.0
C1164 C 0.71981 0.0662 0.6832 0.0
C1165 C 0.68764 0.07081 0.6923 0.0
C1166 C 0.67684 0.05885 0.71815 0.0
C1167 C 0.64343 0.07215 0.72573 0.0
C1168 C 0.61781 0.04472 0.72594 0.0
C1169 C 0.64407 0.09052 0.75437 0.0
C1170 C 0.63798 0.0952 0.70111 0.0
C1171 C 0.66324 0.09341 0.68155 0.0
C1172 C 0.66579 0.11566 0.65915 0.0
C1173 C 0.64254 0.14081 0.6572 0.0
C1174 C 0.6174 0.14344 0.67763 0.0
C1175 C 0.61457 0.11999 0.69929 0.0
H1176 H 0.78465 0.32438 0.1439 0.0
H1177 H 0.69119 0.34003 0.10306 0.0
H1178 H 0.68509 0.28018 0.09626 0.0
H1179 H 0.81211 0.25385 0.10227 0.0
H1180 H 0.83 0.23444 0.13299 0.0
H1181 H 0.82685 0.2784 0.1313 0.0
H1182 H 0.79542 0.27749 0.17967 0.0
H1183 H 0.79853 0.23356 0.18029 0.0
H1184 H 0.75904 0.25296 0.18264 0.0
H1185 H 0.68886 0.21821 0.09514 0.0
H1186 H 0.7006 0.15959 0.10141 0.0
H1187 H 0.79031 0.18424 0.14593 0.0
C1188 C 0.76333 0.31513 0.13294 0.0
C1189 C 0.73867 0.33674 0.12339 0.0
C1190 C 0.71047 0.32379 0.11013 0.0
C1191 C 0.70684 0.28989 0.10623 0.0
C1192 C 0.73143 0.26914 0.11615 0.0
C1193 C 0.759 0.28126 0.12946 0.0
C1194 C 0.78067 0.25366 0.13999 0.0
C1195 C 0.81443 0.25513 0.12578 0.0
C1196 C 0.78359 0.25446 0.17257 0.0
C1197 C 0.76133 0.2241 0.13014 0.0
C1198 C 0.73303 0.23355 0.1164 0.0
C1199 C 0.71098 0.21058 0.1059 0.0
C1200 C 0.71784 0.17715 0.10972 0.0
C1201 C 0.74643 0.16667 0.12425 0.0
C1202 C 0.76847 0.19084 0.13434 0.0
H1203 H 0.31597 0.7166 0.65269 0.0
H1204 H 0.32361 0.80049 0.59698 0.0
H1205 H 0.26444 0.7965 0.58613 0.0
H1206 H 0.25291 0.67121 0.61304 0.0
H1207 H 0.23177 0.65831 0.64476 0.0
H1208 H 0.27521 0.66528 0.64567 0.0
H1209 H 0.26829 0.70574 0.6869 0.0
H1210 H 0.22473 0.69961 0.68653 0.0
H1211 H 0.24126 0.74023 0.68281 0.0
H1212 H 0.20416 0.78508 0.58333 0.0
H1213 H 0.14656 0.76992 0.59123 0.0
H1214 H 0.1772 0.69542 0.65134 0.0
C1215 C 0.30523 0.73345 0.63758 0.0
C1216 C 0.3243 0.75845 0.6251 0.0
C1217 C 0.30934 0.78101 0.60639 0.0
C1218 C 0.27585 0.77883 0.6001 0.0
C1219 C 0.25756 0.75416 0.61301 0.0
C1220 C 0.27166 0.73197 0.63152 0.0
C1221 C 0.24594 0.70991 0.6447 0.0
C1222 C 0.25179 0.67403 0.63652 0.0
C1223 C 0.24499 0.71413 0.67717 0.0
C1224 C 0.21519 0.72324 0.63084 0.0
C1225 C 0.22252 0.74848 0.61237 0.0
C1226 C 0.19816 0.76532 0.59771 0.0
C1227 C 0.16544 0.75661 0.60245 0.0
C1228 C 0.15711 0.73151 0.62197 0.0
C1229 C 0.18256 0.71431 0.63593 0.0
H1230 H 0.72667 0.17606 0.81323 0.0
H1231 H 0.75904 0.15654 0.89926 0.0
H1232 H 0.76304 0.21624 0.90808 0.0
H1233 H 0.7799 0.24129 0.79978 0.0
H1234 H 0.75119 0.2646 0.7789 0.0
H1235 H 0.7479 0.22076 0.78044 0.0
H1236 H 0.68797 0.22589 0.79774 0.0
H1237 H 0.69099 0.26982 0.79627 0.0
H1238 H 0.67892 0.24999 0.82881 0.0
H1239 H 0.76404 0.27921 0.90681 0.0
H1240 H 0.76623 0.33835 0.89418 0.0
H1241 H 0.73628 0.31522 0.80842 0.0
C1242 C 0.73387 0.18426 0.83416 0.0
C1243 C 0.74206 0.16153 0.85574 0.0
C1244 C 0.75251 0.17346 0.88249 0.0
C1245 C 0.75471 0.20733 0.88769 0.0
C1246 C 0.74661 0.22903 0.86584 0.0
C1247 C 0.73654 0.21785 0.83955 0.0
C1248 C 0.73122 0.2459 0.81897 0.0
C1249 C 0.75391 0.24295 0.793 0.0
C1250 C 0.69514 0.24801 0.80992 0.0
C1251 C 0.74058 0.27463 0.83751 0.0
C1252 C 0.74873 0.26463 0.86468 0.0
C1253 C 0.75781 0.28718 0.88556 0.0
C1254 C 0.75898 0.32063 0.87831 0.0
C1255 C 0.75184 0.331 0.85034 0.0
C1256 C 0.74227 0.30769 0.82986 0.0
H1257 H 0.29846 0.71878 0.34415 0.0
H1258 H 0.32673 0.80657 0.39009 0.0
H1259 H 0.26907 0.81909 0.39867 0.0
H1260 H 0.22968 0.75091 0.31039 0.0
H1261 H 0.20423 0.71525 0.31419 0.0
H1262 H 0.24797 0.71081 0.31266 0.0
H1263 H 0.24805 0.68009 0.36044 0.0
H1264 H 0.20416 0.68347 0.36186 0.0
H1265 H 0.22864 0.69829 0.39098 0.0
H1266 H 0.20775 0.8251 0.39898 0.0
H1267 H 0.14775 0.82198 0.39291 0.0
H1268 H 0.15871 0.72934 0.34921 0.0
C1269 C 0.29287 0.74036 0.35646 0.0
C1270 C 0.31796 0.76177 0.36597 0.0
C1271 C 0.30868 0.78984 0.38188 0.0
C1272 C 0.27569 0.79717 0.38715 0.0
C1273 C 0.25182 0.77597 0.37696 0.0
C1274 C 0.25995 0.74786 0.36232 0.0
C1275 C 0.22937 0.72961 0.35314 0.0
C1276 C 0.22777 0.72649 0.32066 0.0
C1277 C 0.22745 0.69586 0.36748 0.0
C1278 C 0.20288 0.75233 0.3642 0.0
C1279 C 0.21637 0.77891 0.37797 0.0
C1280 C 0.19692 0.80416 0.38858 0.0
C1281 C 0.16286 0.80229 0.38493 0.0
C1282 C 0.1484 0.77532 0.37089 0.0
C1283 C 0.16886 0.7499 0.36065 0.0
H1284 H 0.29418 0.68105 0.83127 0.0
H1285 H 0.22503 0.65223 0.89696 0.0
H1286 H 0.21603 0.7099 0.9085 0.0
H1287 H 0.32889 0.75085 0.86966 0.0
H1288 H 0.33255 0.77536 0.83798 0.0
H1289 H 0.33575 0.73146 0.83577 0.0
H1290 H 0.2893 0.7307 0.79842 0.0
H1291 H 0.28609 0.77454 0.80052 0.0
H1292 H 0.25058 0.7495 0.80674 0.0
H1293 H 0.21051 0.7711 0.9104 0.0
H1294 H 0.21243 0.83115 0.9047 0.0
H1295 H 0.28592 0.82064 0.83897 0.0
C1296 C 0.27741 0.68639 0.84836 0.0
C1297 C 0.26011 0.6612 0.86279 0.0
C1298 C 0.23854 0.67033 0.88511 0.0
C1299 C 0.2332 0.70332 0.89197 0.0
C1300 C 0.24983 0.72725 0.87668 0.0
C1301 C 0.27186 0.71923 0.8556 0.0
C1302 C 0.28589 0.74979 0.84184 0.0
C1303 C 0.32298 0.75196 0.84662 0.0
C1304 C 0.27745 0.7512 0.81 0.0
C1305 C 0.26799 0.7762 0.85828 0.0
C1306 C 0.24723 0.76263 0.87822 0.0
C1307 C 0.22697 0.78198 0.89508 0.0
C1308 C 0.22805 0.81605 0.89157 0.0
C1309 C 0.2494 0.83059 0.87151 0.0
C1310 C 0.26974 0.81026 0.85478 0.0
H1311 H 0.83466 0.23078 0.33907 0.0
H1312 H 0.84965 0.31759 0.38999 0.0
H1313 H 0.79054 0.31945 0.40109 0.0
H1314 H 0.76107 0.25793 0.30772 0.0
H1315 H 0.74184 0.2183 0.30686 0.0
H1316 H 0.7857 0.22139 0.3058 0.0
H1317 H 0.79004 0.18365 0.34984 0.0
H1318 H 0.74612 0.18039 0.35103 0.0
H1319 H 0.76827 0.19422 0.38186 0.0
H1320 H 0.72952 0.31355 0.40461 0.0
H1321 H 0.67095 0.30231 0.39853 0.0
H1322 H 0.69484 0.22105 0.3427 0.0
C1323 C 0.82545 0.24963 0.3531 0.0
C1324 C 0.84663 0.27383 0.36404 0.0
C1325 C 0.83374 0.2988 0.38159 0.0
C1326 C 0.80027 0.29995 0.38805 0.0
C1327 C 0.77986 0.27611 0.37655 0.0
C1328 C 0.79189 0.25148 0.35933 0.0
C1329 C 0.76429 0.23059 0.34776 0.0
C1330 C 0.76316 0.23217 0.3151 0.0
C1331 C 0.76737 0.19511 0.35826 0.0
C1332 C 0.7349 0.24753 0.36093 0.0
C1333 C 0.74448 0.27345 0.37773 0.0
C1334 C 0.72173 0.29326 0.39151 0.0
C1335 C 0.68832 0.28674 0.38774 0.0
C1336 C 0.67763 0.26082 0.36997 0.0
C1337 C 0.70161 0.2408 0.35674 0.0
H1338 H 0.30782 0.69963 0.12016 0.0
H1339 H 0.21736 0.65908 0.15231 0.0
H1340 H 0.19764 0.71532 0.16338 0.0
H1341 H 0.31488 0.76371 0.17245 0.0
H1342 H 0.33274 0.79194 0.14743 0.0
H1343 H 0.33854 0.7486 0.14298 0.0
H1344 H 0.3153 0.75265 0.09195 0.0
H1345 H 0.30875 0.79588 0.09635 0.0
H1346 H 0.27514 0.76977 0.08653 0.0
H1347 H 0.18732 0.77809 0.16767 0.0
H1348 H 0.19019 0.83876 0.17025 0.0
H1349 H 0.28835 0.83569 0.1359 0.0
C1350 C 0.28371 0.70254 0.12931 0.0
C1351 C 0.26375 0.67512 0.13481 0.0
C1352 C 0.23286 0.67987 0.14775 0.0
C1353 C 0.22149 0.7117 0.15393 0.0
C1354 C 0.24156 0.73835 0.14736 0.0
C1355 C 0.27227 0.73383 0.13576 0.0
C1356 C 0.28979 0.76593 0.13126 0.0
C1357 C 0.32082 0.76767 0.14965 0.0
C1358 C 0.29769 0.77136 0.09965 0.0
C1359 C 0.26403 0.78957 0.14157 0.0
C1360 C 0.23623 0.77346 0.15071 0.0
C1361 C 0.20909 0.79078 0.1607 0.0
C1362 C 0.21079 0.82522 0.16187 0.0
C1363 C 0.23953 0.8419 0.15336 0.0
C1364 C 0.26619 0.82364 0.14283 0.0
H1365 H 0.68126 0.21785 0.66821 0.0
H1366 H 0.66782 0.30316 0.61505 0.0
H1367 H 0.72696 0.30284 0.60325 0.0
H1368 H 0.75666 0.24551 0.69782 0.0
H1369 H 0.77447 0.2053 0.70053 0.0
H1370 H 0.73078 0.2102 0.70214 0.0
H1371 H 0.72413 0.16954 0.6604 0.0
H1372 H 0.76785 0.16457 0.65851 0.0
H1373 H 0.74528 0.17707 0.62744 0.0
H1374 H 0.78744 0.29345 0.59792 0.0
H1375 H 0.84565 0.28002 0.60304 0.0
H1376 H 0.82075 0.20368 0.66363 0.0
C1377 C 0.69086 0.23594 0.65362 0.0
C1378 C 0.67017 0.26012 0.6419 0.0
C1379 C 0.68343 0.28426 0.62377 0.0
C1380 C 0.71686 0.28415 0.61696 0.0
C1381 C 0.73675 0.26005 0.62893 0.0
C1382 C 0.72435 0.23668 0.64723 0.0
C1383 C 0.75148 0.21556 0.6594 0.0
C1384 C 0.75346 0.21939 0.69189 0.0
C1385 C 0.74691 0.17955 0.65092 0.0
C1386 C 0.78107 0.2305 0.64488 0.0
C1387 C 0.77193 0.25585 0.62717 0.0
C1388 C 0.79489 0.27372 0.61183 0.0
C1389 C 0.8281 0.26595 0.61508 0.0
C1390 C 0.83843 0.24094 0.63404 0.0
C1391 C 0.81421 0.2227 0.64871 0.0
H1392 H 0.75745 0.98472 0.93799 0.0
H1393 H 0.768 0.08873 0.92302 0.0
H1394 H 0.7487 0.10002 0.972 0.0
H1395 H 0.68652 0.98695 0.98196 0.0
H1396 H 0.70051 0.95551 0.00594 0.0
H1397 H 0.71407 0.95563 0.96952 0.0
H1398 H 0.77459 0.95631 0.98589 0.0
H1399 H 0.76119 0.95534 0.0223 0.0
H1400 H 0.78807 0.98742 0.01033 0.0
H1401 H 0.72494 0.09951 0.022 0.0
H1402 H 0.71061 0.08736 0.07203 0.0
H1403 H 0.72101 0.98369 0.05532 0.0
C1404 C 0.75597 0.00983 0.94522 0.0
C1405 C 0.7641 0.03592 0.92696 0.0
C1406 C 0.76212 0.06848 0.93694 0.0
C1407 C 0.75083 0.07508 0.96455 0.0
C1408 C 0.74228 0.04877 0.98193 0.0
C1409 C 0.74568 0.01677 0.9729 0.0
C1410 C 0.7372 0.99283 0.99629 0.0
C1411 C 0.70783 0.97148 0.98791 0.0
C1412 C 0.76704 0.97175 0.00417 0.0
C1413 C 0.72833 0.0163 0.01991 0.0
C1414 C 0.7306 0.04846 0.01104 0.0
C1415 C 0.72326 0.07442 0.02919 0.0
C1416 C 0.71477 0.06731 0.05746 0.0
C1417 C 0.71448 0.03461 0.06731 0.0
C1418 C 0.72072 0.00887 0.04814 0.0
H1419 H 0.45579 0.80815 0.44195 0.0
H1420 H 0.45407 0.70675 0.41469 0.0
H1421 H 0.45385 0.68867 0.46448 0.0
H1422 H 0.51043 0.79531 0.50059 0.0
H1423 H 0.49057 0.8243 0.52371 0.0
H1424 H 0.48885 0.82981 0.48577 0.0
H1425 H 0.42557 0.83124 0.48791 0.0
H1426 H 0.42712 0.82584 0.52588 0.0
H1427 H 0.4039 0.79783 0.50433 0.0
H1428 H 0.45386 0.68096 0.51698 0.0
H1429 H 0.45612 0.68462 0.56939 0.0
H1430 H 0.46035 0.7905 0.56322 0.0
C1431 C 0.4551 0.78221 0.44655 0.0
C1432 C 0.45495 0.75889 0.42442 0.0
C1433 C 0.4544 0.72511 0.43126 0.0
C1434 C 0.45414 0.71452 0.45951 0.0
C1435 C 0.45469 0.73796 0.48085 0.0
C1436 C 0.45529 0.77109 0.47483 0.0
C1437 C 0.45702 0.79096 0.50197 0.0
C1438 C 0.4886 0.81129 0.50307 0.0
C1439 C 0.42659 0.81275 0.50521 0.0
C1440 C 0.4574 0.76379 0.52397 0.0
C1441 C 0.45573 0.73342 0.51131 0.0
C1442 C 0.45527 0.70461 0.52721 0.0
C1443 C 0.45657 0.7069 0.55693 0.0
C1444 C 0.45867 0.73776 0.57037 0.0
C1445 C 0.45911 0.7665 0.55357 0.0
H1446 H 0.72369 0.4613 0.05004 0.0
H1447 H 0.82967 0.45944 0.05398 0.0
H1448 H 0.83201 0.45884 0.00141 0.0
H1449 H 0.71627 0.40679 0.9892 0.0
H1450 H 0.6817 0.42848 0.97469 0.0
H1451 H 0.6885 0.42805 0.01251 0.0
H1452 H 0.68813 0.49142 0.01306 0.0
H1453 H 0.68149 0.49206 0.97525 0.0
H1454 H 0.71586 0.51349 0.99028 0.0
H1455 H 0.82269 0.46204 0.94881 0.0
H1456 H 0.80284 0.46489 0.8995 0.0
H1457 H 0.70257 0.46198 0.92957 0.0
C1458 C 0.74743 0.46066 0.03986 0.0
C1459 C 0.77657 0.46062 0.05604 0.0
C1460 C 0.80709 0.45944 0.04196 0.0
C1461 C 0.80863 0.45916 0.01216 0.0
C1462 C 0.77941 0.45959 0.99686 0.0
C1463 C 0.74937 0.45991 0.01021 0.0
C1464 C 0.72161 0.46016 0.98886 0.0
C1465 C 0.7008 0.42901 0.99148 0.0
C1466 C 0.70054 0.49113 0.99206 0.0
C1467 C 0.74071 0.46056 0.9613 0.0
C1468 C 0.77401 0.46034 0.96646 0.0
C1469 C 0.7967 0.46192 0.94452 0.0
C1470 C 0.78513 0.46369 0.91657 0.0
C1471 C 0.75113 0.4636 0.91068 0.0
C1472 C 0.72867 0.46182 0.93341 0.0
H1473 H 0.98013 0.71951 0.44117 0.0
H1474 H 0.08352 0.72137 0.42147 0.0
H1475 H 0.09563 0.73775 0.47112 0.0
H1476 H 0.9777 0.78764 0.48494 0.0
H1477 H 0.94895 0.77115 0.51017 0.0
H1478 H 0.9486 0.75708 0.47394 0.0
H1479 H 0.95614 0.69708 0.49057 0.0
H1480 H 0.95536 0.71083 0.5269 0.0
H1481 H 0.98939 0.68697 0.51414 0.0
H1482 H 0.09505 0.76048 0.52208 0.0
H1483 H 0.08312 0.77595 0.57196 0.0
H1484 H 0.9804 0.75591 0.55797 0.0
C1485 C 0.00539 0.72235 0.44759 0.0
C1486 C 0.03094 0.71887 0.4277 0.0
C1487 C 0.06368 0.72329 0.43661 0.0
C1488 C 0.0707 0.73303 0.46464 0.0
C1489 C 0.04471 0.73766 0.48347 0.0
C1490 C 0.01279 0.73145 0.47547 0.0
C1491 C 0.98916 0.73795 0.49952 0.0
C1492 C 0.96467 0.76507 0.49165 0.0
C1493 C 0.97149 0.70633 0.50831 0.0
C1494 C 0.0126 0.7493 0.52228 0.0
C1495 C 0.04451 0.74949 0.51262 0.0
C1496 C 0.07018 0.76003 0.5299 0.0
C1497 C 0.06315 0.76918 0.55808 0.0
C1498 C 0.03083 0.76721 0.5687 0.0
C1499 C 0.00531 0.75777 0.55032 0.0
H1500 H 0.27856 0.9589 0.07047 0.0
H1501 H 0.17502 0.98188 0.07312 0.0
H1502 H 0.17451 0.98659 0.02067 0.0
H1503 H 0.30059 0.01295 0.01521 0.0
H1504 H 0.32948 0.98556 0.99875 0.0
H1505 H 0.32155 0.98265 0.0363 0.0
H1506 H 0.30623 0.92153 0.03073 0.0
H1507 H 0.31448 0.92413 0.99319 0.0
H1508 H 0.27523 0.90996 0.00546 0.0
H1509 H 0.18639 0.993 0.96868 0.0
H1510 H 0.20785 0.99479 0.9199 0.0
H1511 H 0.30345 0.96491 0.95057 0.0
C1512 C 0.25569 0.96464 0.06 0.0
C1513 C 0.2268 0.97018 0.07581 0.0
C1514 C 0.19735 0.97742 0.06137 0.0
C1515 C 0.19689 0.98029 0.03164 0.0
C1516 C 0.22599 0.97535 0.01675 0.0
C1517 C 0.25472 0.96712 0.03037 0.0
C1518 C 0.28256 0.9629 0.0094 0.0
C1519 C 0.31017 0.98749 0.01527 0.0
C1520 C 0.29537 0.92752 0.00972 0.0
C1521 C 0.26516 0.97064 0.9818 0.0
C1522 C 0.2326 0.97795 0.98661 0.0
C1523 C 0.21174 0.987 0.96464 0.0
C1524 C 0.22429 0.98814 0.93699 0.0
C1525 C 0.25738 0.97998 0.93136 0.0
C1526 C 0.27806 0.97117 0.95417 0.0
H1527 H 0.54105 0.2062 0.56585 0.0
H1528 H 0.53905 0.30684 0.59514 0.0
H1529 H 0.54464 0.32625 0.54595 0.0
H1530 H 0.59915 0.21839 0.50777 0.0
H1531 H 0.57826 0.19087 0.48404 0.0
H1532 H 0.57621 0.18443 0.52188 0.0
H1533 H 0.51293 0.18555 0.51954 0.0
H1534 H 0.51481 0.19195 0.48172 0.0
H1535 H 0.49262 0.22029 0.50382 0.0
H1536 H 0.54964 0.33532 0.49373 0.0
H1537 H 0.55043 0.33299 0.44122 0.0
H1538 H 0.54688 0.22696 0.44519 0.0
C1539 C 0.54207 0.23226 0.56184 0.0
C1540 C 0.5396 0.25497 0.58432 0.0
C1541 C 0.54066 0.28894 0.57825 0.0
C1542 C 0.54403 0.30028 0.55037 0.0
C1543 C 0.54609 0.2774 0.52864 0.0
C1544 C 0.54496 0.24412 0.53392 0.0
C1545 C 0.54596 0.22494 0.5064 0.0
C1546 C 0.57673 0.20338 0.50495 0.0
C1547 C 0.51472 0.20448 0.50266 0.0
C1548 C 0.54751 0.25266 0.48499 0.0
C1549 C 0.548 0.28271 0.4983 0.0
C1550 C 0.54929 0.31192 0.483 0.0
C1551 C 0.54978 0.31039 0.45322 0.0
C1552 C 0.54857 0.27987 0.43914 0.0
C1553 C 0.54765 0.25071 0.45534 0.0
H1554 H 0.23939 0.5321 0.06012 0.0
H1555 H 0.34416 0.51513 0.06041 0.0
H1556 H 0.34345 0.51097 0.00798 0.0
H1557 H 0.21901 0.47843 0.00104 0.0
H1558 H 0.18842 0.50583 0.98706 0.0
H1559 H 0.19683 0.50516 0.02463 0.0
H1560 H 0.2083 0.56745 0.02346 0.0
H1561 H 0.20014 0.5683 0.98587 0.0
H1562 H 0.23858 0.58328 0.99927 0.0
H1563 H 0.33163 0.50995 0.95604 0.0
H1564 H 0.3102 0.51325 0.90738 0.0
H1565 H 0.21305 0.53329 0.94035 0.0
C1566 C 0.26213 0.52695 0.04921 0.0
C1567 C 0.29184 0.52355 0.06432 0.0
C1568 C 0.32115 0.5176 0.04923 0.0
C1569 C 0.32096 0.5152 0.01951 0.0
C1570 C 0.2913 0.5191 0.00527 0.0
C1571 C 0.26243 0.52493 0.01957 0.0
C1572 C 0.2342 0.52981 0.9991 0.0
C1573 C 0.20807 0.50322 0.00321 0.0
C1574 C 0.21945 0.56426 0.00211 0.0
C1575 C 0.25172 0.52588 0.97097 0.0
C1576 C 0.28459 0.51948 0.97512 0.0
C1577 C 0.30595 0.51488 0.95252 0.0
C1578 C 0.29344 0.51679 0.92493 0.0
C1579 C 0.25988 0.52351 0.92002 0.0
C1580 C 0.23879 0.5282 0.94342 0.0
H1581 H 0.98853 0.29459 0.43801 0.0
H1582 H 0.9441 0.19879 0.42864 0.0
H1583 H 0.93366 0.19717 0.48036 0.0
H1584 H 0.02936 0.27829 0.50263 0.0
H1585 H 0.02305 0.31861 0.51708 0.0
H1586 H 0.02511 0.31295 0.47922 0.0
H1587 H 0.96848 0.34074 0.47377 0.0
H1588 H 0.96613 0.34626 0.5117 0.0
H1589 H 0.93398 0.32493 0.49324 0.0
H1590 H 0.93118 0.20446 0.53292 0.0
H1591 H 0.93847 0.21919 0.5834 0.0
H1592 H 0.98334 0.31085 0.55874 0.0
C1593 C 0.9764 0.27332 0.44676 0.0
C1594 C 0.9671 0.24677 0.42931 0.0
C1595 C 0.95149 0.21934 0.44163 0.0
C1596 C 0.9453 0.21831 0.47093 0.0
C1597 C 0.95475 0.24495 0.48748 0.0
C1598 C 0.97002 0.27191 0.47588 0.0
C1599 C 0.97914 0.29661 0.49852 0.0
C1600 C 0.01637 0.30191 0.49941 0.0
C1601 C 0.96083 0.32906 0.49403 0.0
C1602 C 0.96713 0.27906 0.52483 0.0
C1603 C 0.95293 0.24939 0.5179 0.0
C1604 C 0.94185 0.22776 0.53858 0.0
C1605 C 0.94609 0.2363 0.56711 0.0
C1606 C 0.96106 0.26623 0.57463 0.0
C1607 C 0.97113 0.28821 0.55332 0.0
loop_
_geom_bond_atom_site_label_1
_geom_bond_atom_site_label_2
_geom_bond_distance
_geom_bond_site_symmetry_2
_ccdc_geom_bond_type
C0 C1 1.351 . S
C0 N3 1.368 1_565 S
C0 H5 0.931 . S
C1 C0 1.351 . S
C1 N2 1.373 . S
C1 H29 0.930 . S
N2 C1 1.373 . S
N2 C4 1.340 . S
N3 C0 1.368 1_545 S
N3 C4 1.321 1_545 S
N3 Co6 2.135 . S
C4 N2 1.340 . S
C4 N3 1.321 1_565 S
C4 H28 0.930 1_565 S
H5 C0 0.931 . S
Co6 N3 2.135 . S
Co6 N9 2.121 . S
Co6 O14 2.055 . S
Co6 O17 2.039 . S
Co6 N20 2.140 . S
C7 O8 1.227 . S
C7 O17 1.265 . S
O8 C7 1.227 . S
N9 Co6 2.121 . S
N9 C11 1.375 . S
N9 C12 1.313 . S
C10 C11 1.338 . S
C10 N13 1.377 . S
C10 H30 0.930 . S
C11 N9 1.375 . S
C11 C10 1.338 . S
C11 H15 0.931 . S
C12 N9 1.313 . S
C12 N13 1.344 . S
C12 H16 0.930 . S
N13 C10 1.377 . S
N13 C12 1.344 . S
O14 Co6 2.055 . S
O14 C18 1.253 . S
H15 C11 0.931 . S
H16 C12 0.930 . S
O17 Co6 2.039 . S
O17 C7 1.265 . S
C18 O14 1.253 . S
C18 O19 1.227 . S
O19 C18 1.227 . S
N20 Co6 2.140 . S
N20 C23 1.346 . S
N20 C24 1.345 . S
C21 C22 1.387 . S
C21 C25 1.391 . S
C22 C21 1.387 . S
C22 C23 1.369 . S
C22 H31 0.929 . S
C23 N20 1.346 . S
C23 C22 1.369 . S
C23 H26 0.928 . S
C24 N20 1.345 . S
C24 C25 1.371 . S
C24 H27 0.931 . S
C25 C21 1.391 . S
C25 C24 1.371 . S
C25 H32 0.930 . S
H26 C23 0.928 . S
H27 C24 0.931 . S
H28 C4 0.930 1_545 S
H29 C1 0.930 . S
H30 C10 0.930 . S
H31 C22 0.929 . S
H32 C25 0.930 . S
C33 C34 1.351 . S
C33 N36 1.368 . S
C33 H38 0.931 . S
C34 C33 1.351 . S
C34 N35 1.373 . S
C34 H62 0.930 . S
N35 C34 1.373 . S
N35 C37 1.340 . S
N36 C33 1.368 . S
N36 C37 1.321 . S
N36 Co39 2.135 . S
C37 N35 1.340 . S
C37 N36 1.321 . S
C37 H61 0.930 . S
H38 C33 0.931 . S
Co39 N36 2.135 . S
Co39 N42 2.121 . S
Co39 O47 2.055 . S
Co39 O50 2.039 . S
Co39 N53 2.140 . S
C40 O41 1.227 . S
C40 O50 1.265 . S
O41 C40 1.227 . S
N42 Co39 2.121 . S
N42 C44 1.375 . S
N42 C45 1.313 . S
C43 C44 1.338 . S
C43 N46 1.377 . S
C43 H63 0.930 . S
C44 N42 1.375 . S
C44 C43 1.338 . S
C44 H48 0.931 . S
C45 N42 1.313 . S
C45 N46 1.344 . S
C45 H49 0.930 . S
N46 C43 1.377 . S
N46 C45 1.344 . S
O47 Co39 2.055 . S
O47 C51 1.253 . S
H48 C44 0.931 . S
H49 C45 0.930 . S
O50 Co39 2.039 . S
O50 C40 1.265 . S
C51 O47 1.253 . S
C51 O52 1.227 . S
O52 C51 1.227 . S
N53 Co39 2.140 . S
N53 C56 1.346 . S
N53 C57 1.345 . S
C54 C55 1.387 . S
C54 C58 1.391 . S
C55 C54 1.387 . S
C55 C56 1.369 . S
C55 H64 0.929 . S
C56 N53 1.346 . S
C56 C55 1.369 . S
C56 H59 0.928 . S
C57 N53 1.345 . S
C57 C58 1.371 . S
C57 H60 0.931 . S
C58 C54 1.391 . S
C58 C57 1.371 . S
C58 H65 0.930 . S
H59 C56 0.928 . S
H60 C57 0.931 . S
H61 C37 0.930 . S
H62 C34 0.930 . S
H63 C43 0.930 . S
H64 C55 0.929 . S
H65 C58 0.930 . S
C66 C67 1.351 . S
C66 N69 1.368 . S
C66 H71 0.931 . S
C67 C66 1.351 . S
C67 N68 1.373 . S
C67 H95 0.930 . S
N68 C67 1.373 . S
N68 C70 1.340 . S
N69 C66 1.368 . S
N69 C70 1.321 . S
N69 Co72 2.135 . S
C70 N68 1.340 . S
C70 N69 1.321 . S
C70 H94 0.930 . S
H71 C66 0.931 . S
Co72 N69 2.135 . S
Co72 N75 2.121 . S
Co72 O80 2.055 . S
Co72 O83 2.039 . S
Co72 N86 2.140 . S
C73 O74 1.227 . S
C73 O83 1.265 . S
O74 C73 1.227 . S
N75 Co72 2.121 . S
N75 C77 1.375 . S
N75 C78 1.313 . S
C76 C77 1.338 . S
C76 N79 1.377 . S
C76 H96 0.930 . S
C77 N75 1.375 . S
C77 C76 1.338 . S
C77 H81 0.931 . S
C78 N75 1.313 . S
C78 N79 1.344 . S
C78 H82 0.930 . S
N79 C76 1.377 . S
N79 C78 1.344 . S
O80 Co72 2.055 . S
O80 C84 1.253 . S
H81 C77 0.931 . S
H82 C78 0.930 . S
O83 Co72 2.039 . S
O83 C73 1.265 . S
C84 O80 1.253 . S
C84 O85 1.227 . S
O85 C84 1.227 . S
N86 Co72 2.140 . S
N86 C89 1.346 . S
N86 C90 1.345 . S
C87 C88 1.387 . S
C87 C91 1.391 . S
C88 C87 1.387 . S
C88 C89 1.369 . S
C88 H97 0.929 . S
C89 N86 1.346 . S
C89 C88 1.369 . S
C89 H92 0.928 . S
C90 N86 1.345 . S
C90 C91 1.371 . S
C90 H93 0.931 . S
C91 C87 1.391 . S
C91 C90 1.371 . S
C91 H98 0.930 . S
H92 C89 0.928 . S
H93 C90 0.931 . S
H94 C70 0.930 . S
H95 C67 0.930 . S
H96 C76 0.930 . S
H97 C88 0.929 . S
H98 C91 0.930 . S
C99 C100 1.351 . S
C99 N102 1.368 1_655 S
C99 H104 0.931 . S
C100 C99 1.351 . S
C100 N101 1.373 . S
C100 H128 0.930 . S
N101 C100 1.373 . S
N101 C103 1.340 . S
N102 C99 1.368 1_455 S
N102 C103 1.321 1_455 S
N102 Co105 2.135 . S
C103 N101 1.340 . S
C103 N102 1.321 1_655 S
C103 H127 0.930 1_655 S
H104 C99 0.931 . S
Co105 N102 2.135 . S
Co105 N108 2.121 . S
Co105 O113 2.055 . S
Co105 O116 2.039 . S
Co105 N119 2.140 . S
C106 O107 1.227 . S
C106 O116 1.265 . S
O107 C106 1.227 . S
N108 Co105 2.121 . S
N108 C110 1.375 . S
N108 C111 1.313 . S
C109 C110 1.338 . S
C109 N112 1.377 . S
C109 H129 0.930 . S
C110 N108 1.375 . S
C110 C109 1.338 . S
C110 H114 0.931 . S
C111 N108 1.313 . S
C111 N112 1.344 . S
C111 H115 0.930 . S
N112 C109 1.377 . S
N112 C111 1.344 . S
O113 Co105 2.055 . S
O113 C117 1.253 . S
H114 C110 0.931 . S
H115 C111 0.930 . S
O116 Co105 2.039 . S
O116 C106 1.265 . S
C117 O113 1.253 . S
C117 O118 1.227 . S
O118 C117 1.227 . S
N119 Co105 2.140 . S
N119 C122 1.346 . S
N119 C123 1.345 . S
C120 C121 1.387 . S
C120 C124 1.391 . S
C121 C120 1.387 . S
C121 C122 1.369 . S
C121 H130 0.929 . S
C122 N119 1.346 . S
C122 C121 1.369 . S
C122 H125 0.928 . S
C123 N119 1.345 . S
C123 C124 1.371 . S
C123 H126 0.931 . S
C124 C120 1.391 . S
C124 C123 1.371 . S
C124 H131 0.930 . S
H125 C122 0.928 . S
H126 C123 0.931 . S
H127 C103 0.930 1_455 S
H128 C100 0.930 . S
H129 C109 0.930 . S
H130 C121 0.929 . S
H131 C124 0.930 . S
C132 C133 1.351 . S
C132 N135 1.368 . S
C132 H137 0.931 . S
C133 C132 1.351 . S
C133 N134 1.373 . S
C133 H161 0.930 . S
N134 C133 1.373 . S
N134 C136 1.340 . S
N135 C132 1.368 . S
N135 C136 1.321 . S
N135 Co138 2.135 . S
C136 N134 1.340 . S
C136 N135 1.321 . S
C136 H160 0.930 . S
H137 C132 0.931 . S
Co138 N135 2.135 . S
Co138 N141 2.121 . S
Co138 O146 2.055 . S
Co138 O149 2.039 . S
Co138 N152 2.140 . S
C139 O140 1.227 . S
C139 O149 1.265 . S
O140 C139 1.227 . S
N141 Co138 2.121 . S
N141 C143 1.375 . S
N141 C144 1.313 . S
C142 C143 1.338 . S
C142 N145 1.377 . S
C142 H162 0.930 . S
C143 N141 1.375 . S
C143 C142 1.338 . S
C143 H147 0.931 . S
C144 N141 1.313 . S
C144 N145 1.344 . S
C144 H148 0.930 . S
N145 C142 1.377 . S
N145 C144 1.344 . S
O146 Co138 2.055 . S
O146 C150 1.253 . S
H147 C143 0.931 . S
H148 C144 0.930 . S
O149 Co138 2.039 . S
O149 C139 1.265 . S
C150 O146 1.253 . S
C150 O151 1.227 . S
O151 C150 1.227 . S
N152 Co138 2.140 . S
N152 C155 1.346 . S
N152 C156 1.345 . S
C153 C154 1.387 . S
C153 C157 1.391 . S
C154 C153 1.387 . S
C154 C155 1.369 . S
C154 H163 0.929 . S
C155 N152 1.346 . S
C155 C154 1.369 . S
C155 H158 0.928 . S
C156 N152 1.345 . S
C156 C157 1.371 . S
C156 H159 0.931 . S
C157 C153 1.391 . S
C157 C156 1.371 . S
C157 H164 0.930 . S
H158 C155 0.928 . S
H159 C156 0.931 . S
H160 C136 0.930 . S
H161 C133 0.930 . S
H162 C142 0.930 . S
H163 C154 0.929 . S
H164 C157 0.930 . S
C165 C166 1.351 . S
C165 N168 1.368 1_655 S
C165 H170 0.931 . S
C166 C165 1.351 . S
C166 N167 1.373 . S
C166 H194 0.930 . S
N167 C166 1.373 . S
N167 C169 1.340 . S
N168 C165 1.368 1_455 S
N168 C169 1.321 1_455 S
N168 Co171 2.135 . S
C169 N167 1.340 . S
C169 N168 1.321 1_655 S
C169 H193 0.930 1_655 S
H170 C165 0.931 . S
Co171 N168 2.135 . S
Co171 N174 2.121 . S
Co171 O179 2.055 . S
Co171 O182 2.039 . S
Co171 N185 2.140 . S
C172 O173 1.227 . S
C172 O182 1.265 . S
O173 C172 1.227 . S
N174 Co171 2.121 . S
N174 C176 1.375 . S
N174 C177 1.313 . S
C175 C176 1.338 . S
C175 N178 1.377 . S
C175 H195 0.930 . S
C176 N174 1.375 . S
C176 C175 1.338 . S
C176 H180 0.931 . S
C177 N174 1.313 . S
C177 N178 1.344 . S
C177 H181 0.930 . S
N178 C175 1.377 . S
N178 C177 1.344 . S
O179 Co171 2.055 . S
O179 C183 1.253 . S
H180 C176 0.931 . S
H181 C177 0.930 . S
O182 Co171 2.039 . S
O182 C172 1.265 . S
C183 O179 1.253 . S
C183 O184 1.227 . S
O184 C183 1.227 . S
N185 Co171 2.140 . S
N185 C188 1.346 . S
N185 C189 1.345 . S
C186 C187 1.387 . S
C186 C190 1.391 . S
C187 C186 1.387 . S
C187 C188 1.369 . S
C187 H196 0.929 . S
C188 N185 1.346 . S
C188 C187 1.369 . S
C188 H191 0.928 . S
C189 N185 1.345 . S
C189 C190 1.371 . S
C189 H192 0.931 . S
C190 C186 1.391 . S
C190 C189 1.371 . S
C190 H197 0.930 . S
H191 C188 0.928 . S
H192 C189 0.931 . S
H193 C169 0.930 1_455 S
H194 C166 0.930 . S
H195 C175 0.930 . S
H196 C187 0.929 . S
H197 C190 0.930 . S
C198 C199 1.351 . S
C198 N201 1.368 1_565 S
C198 H203 0.931 . S
C199 C198 1.351 . S
C199 N200 1.373 . S
C199 H227 0.930 . S
N200 C199 1.373 . S
N200 C202 1.340 . S
N201 C198 1.368 1_545 S
N201 C202 1.321 1_545 S
N201 Co204 2.135 . S
C202 N200 1.340 . S
C202 N201 1.321 1_565 S
C202 H226 0.930 1_565 S
H203 C198 0.931 . S
Co204 N201 2.135 . S
Co204 N207 2.121 . S
Co204 O212 2.055 . S
Co204 O215 2.039 . S
Co204 N218 2.140 . S
C205 O206 1.227 . S
C205 O215 1.265 . S
O206 C205 1.227 . S
N207 Co204 2.121 . S
N207 C209 1.375 . S
N207 C210 1.313 . S
C208 C209 1.338 . S
C208 N211 1.377 . S
C208 H228 0.930 . S
C209 N207 1.375 . S
C209 C208 1.338 . S
C209 H213 0.931 . S
C210 N207 1.313 . S
C210 N211 1.344 . S
C210 H214 0.930 . S
N211 C208 1.377 . S
N211 C210 1.344 . S
O212 Co204 2.055 . S
O212 C216 1.253 . S
H213 C209 0.931 . S
H214 C210 0.930 . S
O215 Co204 2.039 . S
O215 C205 1.265 . S
C216 O212 1.253 . S
C216 O217 1.227 . S
O217 C216 1.227 . S
N218 Co204 2.140 . S
N218 C221 1.346 . S
N218 C222 1.345 . S
C219 C220 1.387 . S
C219 C223 1.391 . S
C220 C219 1.387 . S
C220 C221 1.369 . S
C220 H229 0.929 . S
C221 N218 1.346 . S
C221 C220 1.369 . S
C221 H224 0.928 . S
C222 N218 1.345 . S
C222 C223 1.371 . S
C222 H225 0.931 . S
C223 C219 1.391 . S
C223 C222 1.371 . S
C223 H230 0.930 . S
H224 C221 0.928 . S
H225 C222 0.931 . S
H226 C202 0.930 1_545 S
H227 C199 0.930 . S
H228 C208 0.930 . S
H229 C220 0.929 . S
H230 C223 0.930 . S
C231 C232 1.351 . S
C231 N234 1.368 . S
C231 H236 0.931 . S
C232 C231 1.351 . S
C232 N233 1.373 . S
C232 H260 0.930 . S
N233 C232 1.373 . S
N233 C235 1.340 . S
N234 C231 1.368 . S
N234 C235 1.321 . S
N234 Co237 2.135 . S
C235 N233 1.340 . S
C235 N234 1.321 . S
C235 H259 0.930 . S
H236 C231 0.931 . S
Co237 N234 2.135 . S
Co237 N240 2.121 . S
Co237 O245 2.055 . S
Co237 O248 2.039 . S
Co237 N251 2.140 . S
C238 O239 1.227 . S
C238 O248 1.265 . S
O239 C238 1.227 . S
N240 Co237 2.121 . S
N240 C242 1.375 . S
N240 C243 1.313 . S
C241 C242 1.338 . S
C241 N244 1.377 . S
C241 H261 0.930 . S
C242 N240 1.375 . S
C242 C241 1.338 . S
C242 H246 0.931 . S
C243 N240 1.313 . S
C243 N244 1.344 . S
C243 H247 0.930 . S
N244 C241 1.377 . S
N244 C243 1.344 . S
O245 Co237 2.055 . S
O245 C249 1.253 . S
H246 C242 0.931 . S
H247 C243 0.930 . S
O248 Co237 2.039 . S
O248 C238 1.265 . S
C249 O245 1.253 . S
C249 O250 1.227 . S
O250 C249 1.227 . S
N251 Co237 2.140 . S
N251 C254 1.346 . S
N251 C255 1.345 . S
C252 C253 1.387 . S
C252 C256 1.391 . S
C253 C252 1.387 . S
C253 C254 1.369 . S
C253 H262 0.929 . S
C254 N251 1.346 . S
C254 C253 1.369 . S
C254 H257 0.928 . S
C255 N251 1.345 . S
C255 C256 1.371 . S
C255 H258 0.931 . S
C256 C252 1.391 . S
C256 C255 1.371 . S
C256 H263 0.930 . S
H257 C254 0.928 . S
H258 C255 0.931 . S
H259 C235 0.930 . S
H260 C232 0.930 . S
H261 C241 0.930 . S
H262 C253 0.929 . S
H263 C256 0.930 . S
C264 C265 1.351 . S
C264 N267 1.368 1_545 S
C264 H269 0.931 . S
C265 C264 1.351 . S
C265 N266 1.373 . S
C265 H293 0.930 . S
N266 C265 1.373 . S
N266 C268 1.340 . S
N267 C264 1.368 1_565 S
N267 C268 1.321 1_565 S
N267 Co270 2.135 . S
C268 N266 1.340 . S
C268 N267 1.321 1_545 S
C268 H292 0.930 1_545 S
H269 C264 0.931 . S
Co270 N267 2.135 . S
Co270 N273 2.121 . S
Co270 O278 2.055 . S
Co270 O281 2.039 . S
Co270 N284 2.140 . S
C271 O272 1.227 . S
C271 O281 1.265 . S
O272 C271 1.227 . S
N273 Co270 2.121 . S
N273 C275 1.375 . S
N273 C276 1.313 . S
C274 C275 1.338 . S
C274 N277 1.377 . S
C274 H294 0.930 . S
C275 N273 1.375 . S
C275 C274 1.338 . S
C275 H279 0.931 . S
C276 N273 1.313 . S
C276 N277 1.344 . S
C276 H280 0.930 . S
N277 C274 1.377 . S
N277 C276 1.344 . S
O278 Co270 2.055 . S
O278 C282 1.253 . S
H279 C275 0.931 . S
H280 C276 0.930 . S
O281 Co270 2.039 . S
O281 C271 1.265 . S
C282 O278 1.253 . S
C282 O283 1.227 . S
O283 C282 1.227 . S
N284 Co270 2.140 . S
N284 C287 1.346 . S
N284 C288 1.345 . S
C285 C286 1.387 . S
C285 C289 1.391 . S
C286 C285 1.387 . S
C286 C287 1.369 . S
C286 H295 0.929 . S
C287 N284 1.346 . S
C287 C286 1.369 . S
C287 H290 0.928 . S
C288 N284 1.345 . S
C288 C289 1.371 . S
C288 H291 0.931 . S
C289 C285 1.391 . S
C289 C288 1.371 . S
C289 H296 0.930 . S
H290 C287 0.928 . S
H291 C288 0.931 . S
H292 C268 0.930 1_565 S
H293 C265 0.930 . S
H294 C274 0.930 . S
H295 C286 0.929 . S
H296 C289 0.930 . S
C297 C298 1.351 . S
C297 N300 1.368 . S
C297 H302 0.931 . S
C298 C297 1.351 . S
C298 N299 1.373 . S
C298 H326 0.930 . S
N299 C298 1.373 . S
N299 C301 1.340 . S
N300 C297 1.368 . S
N300 C301 1.321 . S
N300 Co303 2.135 . S
C301 N299 1.340 . S
C301 N300 1.321 . S
C301 H325 0.930 . S
H302 C297 0.931 . S
Co303 N300 2.135 . S
Co303 N306 2.121 . S
Co303 O311 2.055 . S
Co303 O314 2.039 . S
Co303 N317 2.140 . S
C304 O305 1.227 . S
C304 O314 1.265 . S
O305 C304 1.227 . S
N306 Co303 2.121 . S
N306 C308 1.375 . S
N306 C309 1.313 . S
C307 C308 1.338 . S
C307 N310 1.377 . S
C307 H327 0.930 . S
C308 N306 1.375 . S
C308 C307 1.338 . S
C308 H312 0.931 . S
C309 N306 1.313 . S
C309 N310 1.344 . S
C309 H313 0.930 . S
N310 C307 1.377 . S
N310 C309 1.344 . S
O311 Co303 2.055 . S
O311 C315 1.253 . S
H312 C308 0.931 . S
H313 C309 0.930 . S
O314 Co303 2.039 . S
O314 C304 1.265 . S
C315 O311 1.253 . S
C315 O316 1.227 . S
O316 C315 1.227 . S
N317 Co303 2.140 . S
N317 C320 1.346 . S
N317 C321 1.345 . S
C318 C319 1.387 . S
C318 C322 1.391 . S
C319 C318 1.387 . S
C319 C320 1.369 . S
C319 H328 0.929 . S
C320 N317 1.346 . S
C320 C319 1.369 . S
C320 H323 0.928 . S
C321 N317 1.345 . S
C321 C322 1.371 . S
C321 H324 0.931 . S
C322 C318 1.391 . S
C322 C321 1.371 . S
C322 H329 0.930 . S
H323 C320 0.928 . S
H324 C321 0.931 . S
H325 C301 0.930 . S
H326 C298 0.930 . S
H327 C307 0.930 . S
H328 C319 0.929 . S
H329 C322 0.930 . S
C330 C331 1.351 . S
C330 N333 1.368 . S
C330 H335 0.931 . S
C331 C330 1.351 . S
C331 N332 1.373 . S
C331 H359 0.930 . S
N332 C331 1.373 . S
N332 C334 1.340 . S
N333 C330 1.368 . S
N333 C334 1.321 . S
N333 Co336 2.135 . S
C334 N332 1.340 . S
C334 N333 1.321 . S
C334 H358 0.930 . S
H335 C330 0.931 . S
Co336 N333 2.135 . S
Co336 N339 2.121 . S
Co336 O344 2.055 . S
Co336 O347 2.039 . S
Co336 N350 2.140 . S
C337 O338 1.227 . S
C337 O347 1.265 . S
O338 C337 1.227 . S
N339 Co336 2.121 . S
N339 C341 1.375 . S
N339 C342 1.313 . S
C340 C341 1.338 . S
C340 N343 1.377 . S
C340 H360 0.930 . S
C341 N339 1.375 . S
C341 C340 1.338 . S
C341 H345 0.931 . S
C342 N339 1.313 . S
C342 N343 1.344 . S
C342 H346 0.930 . S
N343 C340 1.377 . S
N343 C342 1.344 . S
O344 Co336 2.055 . S
O344 C348 1.253 . S
H345 C341 0.931 . S
H346 C342 0.930 . S
O347 Co336 2.039 . S
O347 C337 1.265 . S
C348 O344 1.253 . S
C348 O349 1.227 . S
O349 C348 1.227 . S
N350 Co336 2.140 . S
N350 C353 1.346 . S
N350 C354 1.345 . S
C351 C352 1.387 . S
C351 C355 1.391 . S
C352 C351 1.387 . S
C352 C353 1.369 . S
C352 H361 0.929 . S
C353 N350 1.346 . S
C353 C352 1.369 . S
C353 H356 0.928 . S
C354 N350 1.345 . S
C354 C355 1.371 . S
C354 H357 0.931 . S
C355 C351 1.391 . S
C355 C354 1.371 . S
C355 H362 0.930 . S
H356 C353 0.928 . S
H357 C354 0.931 . S
H358 C334 0.930 . S
H359 C331 0.930 . S
H360 C340 0.930 . S
H361 C352 0.929 . S
H362 C355 0.930 . S
C363 C364 1.351 . S
C363 N366 1.368 1_455 S
C363 H368 0.931 . S
C364 C363 1.351 . S
C364 N365 1.373 . S
C364 H392 0.930 . S
N365 C364 1.373 . S
N365 C367 1.340 . S
N366 C363 1.368 1_655 S
N366 C367 1.321 1_655 S
N366 Co369 2.135 . S
C367 N365 1.340 . S
C367 N366 1.321 1_455 S
C367 H391 0.930 1_455 S
H368 C363 0.931 . S
Co369 N366 2.135 . S
Co369 N372 2.121 . S
Co369 O377 2.055 . S
Co369 O380 2.039 . S
Co369 N383 2.140 . S
C370 O371 1.227 . S
C370 O380 1.265 . S
O371 C370 1.227 . S
N372 Co369 2.121 . S
N372 C374 1.375 . S
N372 C375 1.313 . S
C373 C374 1.338 . S
C373 N376 1.377 . S
C373 H393 0.930 . S
C374 N372 1.375 . S
C374 C373 1.338 . S
C374 H378 0.931 . S
C375 N372 1.313 . S
C375 N376 1.344 . S
C375 H379 0.930 . S
N376 C373 1.377 . S
N376 C375 1.344 . S
O377 Co369 2.055 . S
O377 C381 1.253 . S
H378 C374 0.931 . S
H379 C375 0.930 . S
O380 Co369 2.039 . S
O380 C370 1.265 . S
C381 O377 1.253 . S
C381 O382 1.227 . S
O382 C381 1.227 . S
N383 Co369 2.140 . S
N383 C386 1.346 . S
N383 C387 1.345 . S
C384 C385 1.387 . S
C384 C388 1.391 . S
C385 C384 1.387 . S
C385 C386 1.369 . S
C385 H394 0.929 . S
C386 N383 1.346 . S
C386 C385 1.369 . S
C386 H389 0.928 . S
C387 N383 1.345 . S
C387 C388 1.371 . S
C387 H390 0.931 . S
C388 C384 1.391 . S
C388 C387 1.371 . S
C388 H395 0.930 . S
H389 C386 0.928 . S
H390 C387 0.931 . S
H391 C367 0.930 1_655 S
H392 C364 0.930 . S
H393 C373 0.930 . S
H394 C385 0.929 . S
H395 C388 0.930 . S
C396 C397 1.351 . S
C396 N399 1.368 . S
C396 H401 0.931 . S
C397 C396 1.351 . S
C397 N398 1.373 . S
C397 H425 0.930 . S
N398 C397 1.373 . S
N398 C400 1.340 . S
N399 C396 1.368 . S
N399 C400 1.321 . S
N399 Co402 2.135 . S
C400 N398 1.340 . S
C400 N399 1.321 . S
C400 H424 0.930 . S
H401 C396 0.931 . S
Co402 N399 2.135 . S
Co402 N405 2.121 . S
Co402 O410 2.055 . S
Co402 O413 2.039 . S
Co402 N416 2.140 . S
C403 O404 1.227 . S
C403 O413 1.265 . S
O404 C403 1.227 . S
N405 Co402 2.121 . S
N405 C407 1.375 . S
N405 C408 1.313 . S
C406 C407 1.338 . S
C406 N409 1.377 . S
C406 H426 0.930 . S
C407 N405 1.375 . S
C407 C406 1.338 . S
C407 H411 0.931 . S
C408 N405 1.313 . S
C408 N409 1.344 . S
C408 H412 0.930 . S
N409 C406 1.377 . S
N409 C408 1.344 . S
O410 Co402 2.055 . S
O410 C414 1.253 . S
H411 C407 0.931 . S
H412 C408 0.930 . S
O413 Co402 2.039 . S
O413 C403 1.265 . S
C414 O410 1.253 . S
C414 O415 1.227 . S
O415 C414 1.227 . S
N416 Co402 2.140 . S
N416 C419 1.346 . S
N416 C420 1.345 . S
C417 C418 1.387 . S
C417 C421 1.391 . S
C418 C417 1.387 . S
C418 C419 1.369 . S
C418 H427 0.929 . S
C419 N416 1.346 . S
C419 C418 1.369 . S
C419 H422 0.928 . S
C420 N416 1.345 . S
C420 C421 1.371 . S
C420 H423 0.931 . S
C421 C417 1.391 . S
C421 C420 1.371 . S
C421 H428 0.930 . S
H422 C419 0.928 . S
H423 C420 0.931 . S
H424 C400 0.930 . S
H425 C397 0.930 . S
H426 C406 0.930 . S
H427 C418 0.929 . S
H428 C421 0.930 . S
C429 C430 1.351 . S
C429 N432 1.368 1_455 S
C429 H434 0.931 . S
C430 C429 1.351 . S
C430 N431 1.373 . S
C430 H458 0.930 . S
N431 C430 1.373 . S
N431 C433 1.340 . S
N432 C429 1.368 1_655 S
N432 C433 1.321 1_655 S
N432 Co435 2.135 . S
C433 N431 1.340 . S
C433 N432 1.321 1_455 S
C433 H457 0.930 1_455 S
H434 C429 0.931 . S
Co435 N432 2.135 . S
Co435 N438 2.121 . S
Co435 O443 2.055 . S
Co435 O446 2.039 . S
Co435 N449 2.140 . S
C436 O437 1.227 . S
C436 O446 1.265 . S
O437 C436 1.227 . S
N438 Co435 2.121 . S
N438 C440 1.375 . S
N438 C441 1.313 . S
C439 C440 1.338 . S
C439 N442 1.377 . S
C439 H459 0.930 . S
C440 N438 1.375 . S
C440 C439 1.338 . S
C440 H444 0.931 . S
C441 N438 1.313 . S
C441 N442 1.344 . S
C441 H445 0.930 . S
N442 C439 1.377 . S
N442 C441 1.344 . S
O443 Co435 2.055 . S
O443 C447 1.253 . S
H444 C440 0.931 . S
H445 C441 0.930 . S
O446 Co435 2.039 . S
O446 C436 1.265 . S
C447 O443 1.253 . S
C447 O448 1.227 . S
O448 C447 1.227 . S
N449 Co435 2.140 . S
N449 C452 1.346 . S
N449 C453 1.345 . S
C450 C451 1.387 . S
C450 C454 1.391 . S
C451 C450 1.387 . S
C451 C452 1.369 . S
C451 H460 0.929 . S
C452 N449 1.346 . S
C452 C451 1.369 . S
C452 H455 0.928 . S
C453 N449 1.345 . S
C453 C454 1.371 . S
C453 H456 0.931 . S
C454 C450 1.391 . S
C454 C453 1.371 . S
C454 H461 0.930 . S
H455 C452 0.928 . S
H456 C453 0.931 . S
H457 C433 0.930 1_655 S
H458 C430 0.930 . S
H459 C439 0.930 . S
H460 C451 0.929 . S
H461 C454 0.930 . S
C462 C463 1.351 . S
C462 N465 1.368 1_545 S
C462 H467 0.931 . S
C463 C462 1.351 . S
C463 N464 1.373 . S
C463 H491 0.930 . S
N464 C463 1.373 . S
N464 C466 1.340 . S
N465 C462 1.368 1_565 S
N465 C466 1.321 1_565 S
N465 Co468 2.135 . S
C466 N464 1.340 . S
C466 N465 1.321 1_545 S
C466 H490 0.930 1_545 S
H467 C462 0.931 . S
Co468 N465 2.135 . S
Co468 N471 2.121 . S
Co468 O476 2.055 . S
Co468 O479 2.039 . S
Co468 N482 2.140 . S
C469 O470 1.227 . S
C469 O479 1.265 . S
O470 C469 1.227 . S
N471 Co468 2.121 . S
N471 C473 1.375 . S
N471 C474 1.313 . S
C472 C473 1.338 . S
C472 N475 1.377 . S
C472 H492 0.930 . S
C473 N471 1.375 . S
C473 C472 1.338 . S
C473 H477 0.931 . S
C474 N471 1.313 . S
C474 N475 1.344 . S
C474 H478 0.930 . S
N475 C472 1.377 . S
N475 C474 1.344 . S
O476 Co468 2.055 . S
O476 C480 1.253 . S
H477 C473 0.931 . S
H478 C474 0.930 . S
O479 Co468 2.039 . S
O479 C469 1.265 . S
C480 O476 1.253 . S
C480 O481 1.227 . S
O481 C480 1.227 . S
N482 Co468 2.140 . S
N482 C485 1.346 . S
N482 C486 1.345 . S
C483 C484 1.387 . S
C483 C487 1.391 . S
C484 C483 1.387 . S
C484 C485 1.369 . S
C484 H493 0.929 . S
C485 N482 1.346 . S
C485 C484 1.369 . S
C485 H488 0.928 . S
C486 N482 1.345 . S
C486 C487 1.371 . S
C486 H489 0.931 . S
C487 C483 1.391 . S
C487 C486 1.371 . S
C487 H494 0.930 . S
H488 C485 0.928 . S
H489 C486 0.931 . S
H490 C466 0.930 1_565 S
H491 C463 0.930 . S
H492 C472 0.930 . S
H493 C484 0.929 . S
H494 C487 0.930 . S
C495 C496 1.351 . S
C495 N498 1.368 . S
C495 H500 0.931 . S
C496 C495 1.351 . S
C496 N497 1.373 . S
C496 H524 0.930 . S
N497 C496 1.373 . S
N497 C499 1.340 . S
N498 C495 1.368 . S
N498 C499 1.321 . S
N498 Co501 2.135 . S
C499 N497 1.340 . S
C499 N498 1.321 . S
C499 H523 0.930 . S
H500 C495 0.931 . S
Co501 N498 2.135 . S
Co501 N504 2.121 . S
Co501 O509 2.055 . S
Co501 O512 2.039 . S
Co501 N515 2.140 . S
C502 O503 1.227 . S
C502 O512 1.265 . S
O503 C502 1.227 . S
N504 Co501 2.121 . S
N504 C506 1.375 . S
N504 C507 1.313 . S
C505 C506 1.338 . S
C505 N508 1.377 . S
C505 H525 0.930 . S
C506 N504 1.375 . S
C506 C505 1.338 . S
C506 H510 0.931 . S
C507 N504 1.313 . S
C507 N508 1.344 . S
C507 H511 0.930 . S
N508 C505 1.377 . S
N508 C507 1.344 . S
O509 Co501 2.055 . S
O509 C513 1.253 . S
H510 C506 0.931 . S
H511 C507 0.930 . S
O512 Co501 2.039 . S
O512 C502 1.265 . S
C513 O509 1.253 . S
C513 O514 1.227 . S
O514 C513 1.227 . S
N515 Co501 2.140 . S
N515 C518 1.346 . S
N515 C519 1.345 . S
C516 C517 1.387 . S
C516 C520 1.391 . S
C517 C516 1.387 . S
C517 C518 1.369 . S
C517 H526 0.929 . S
C518 N515 1.346 . S
C518 C517 1.369 . S
C518 H521 0.928 . S
C519 N515 1.345 . S
C519 C520 1.371 . S
C519 H522 0.931 . S
C520 C516 1.391 . S
C520 C519 1.371 . S
C520 H527 0.930 . S
H521 C518 0.928 . S
H522 C519 0.931 . S
H523 C499 0.930 . S
H524 C496 0.930 . S
H525 C505 0.930 . S
H526 C517 0.929 . S
H527 C520 0.930 . S
H528 C540 0.930 . S
H529 C542 0.930 . S
H530 C543 0.930 . S
H531 C547 0.959 . S
H532 C547 0.959 . S
H533 C547 0.961 . S
H534 C548 0.960 . S
H535 C548 0.961 . S
H536 C548 0.959 . S
H537 C551 0.929 . S
H538 C552 0.931 . S
H539 C554 0.930 . S
C540 H528 0.930 . S
C540 C541 1.399 . S
C540 C545 1.399 . S
C541 C540 1.399 . S
C541 C542 1.376 . S
C542 H529 0.930 . S
C542 C541 1.376 . S
C542 C543 1.388 . S
C543 H530 0.930 . S
C543 C542 1.388 . S
C543 C544 1.390 . S
C544 C543 1.390 . S
C544 C545 1.394 . S
C544 C550 1.465 . S
C545 C540 1.399 . S
C545 C544 1.394 . S
C545 C546 1.516 . S
C546 C545 1.516 . S
C546 C547 1.502 . S
C546 C548 1.561 . S
C546 C549 1.526 . S
C547 H531 0.959 . S
C547 H532 0.959 . S
C547 H533 0.961 . S
C547 C546 1.502 . S
C548 H534 0.960 . S
C548 H535 0.961 . S
C548 H536 0.959 . S
C548 C546 1.561 . S
C549 C546 1.526 . S
C549 C550 1.396 . S
C549 C554 1.390 . S
C550 C544 1.465 . S
C550 C549 1.396 . S
C550 C551 1.399 . S
C551 H537 0.929 . S
C551 C550 1.399 . S
C551 C552 1.385 . S
C552 H538 0.931 . S
C552 C551 1.385 . S
C552 C553 1.389 . S
C553 C552 1.389 . S
C553 C554 1.387 . S
C554 H539 0.930 . S
C554 C549 1.390 . S
C554 C553 1.387 . S
H555 C567 0.930 . S
H556 C569 0.930 . S
H557 C570 0.930 . S
H558 C574 0.959 . S
H559 C574 0.959 . S
H560 C574 0.961 . S
H561 C575 0.960 . S
H562 C575 0.961 . S
H563 C575 0.959 . S
H564 C578 0.929 . S
H565 C579 0.931 . S
H566 C581 0.930 . S
C567 H555 0.930 . S
C567 C568 1.399 . S
C567 C572 1.399 . S
C568 C567 1.399 . S
C568 C569 1.376 . S
C569 H556 0.930 . S
C569 C568 1.376 . S
C569 C570 1.388 . S
C570 H557 0.930 . S
C570 C569 1.388 . S
C570 C571 1.390 . S
C571 C570 1.390 . S
C571 C572 1.394 . S
C571 C577 1.465 . S
C572 C567 1.399 . S
C572 C571 1.394 . S
C572 C573 1.516 . S
C573 C572 1.516 . S
C573 C574 1.502 . S
C573 C575 1.561 . S
C573 C576 1.526 . S
C574 H558 0.959 . S
C574 H559 0.959 . S
C574 H560 0.961 . S
C574 C573 1.502 . S
C575 H561 0.960 . S
C575 H562 0.961 . S
C575 H563 0.959 . S
C575 C573 1.561 . S
C576 C573 1.526 . S
C576 C577 1.396 . S
C576 C581 1.390 . S
C577 C571 1.465 . S
C577 C576 1.396 . S
C577 C578 1.399 . S
C578 H564 0.929 . S
C578 C577 1.399 . S
C578 C579 1.385 . S
C579 H565 0.931 . S
C579 C578 1.385 . S
C579 C580 1.389 . S
C580 C579 1.389 . S
C580 C581 1.387 . S
C581 H566 0.930 . S
C581 C576 1.390 . S
C581 C580 1.387 . S
H582 C594 0.930 . S
H583 C596 0.930 . S
H584 C597 0.930 . S
H585 C601 0.959 . S
H586 C601 0.959 . S
H587 C601 0.961 . S
H588 C602 0.960 . S
H589 C602 0.961 . S
H590 C602 0.959 . S
H591 C605 0.929 . S
H592 C606 0.931 . S
H593 C608 0.930 . S
C594 H582 0.930 . S
C594 C595 1.399 . S
C594 C599 1.399 . S
C595 C594 1.399 . S
C595 C596 1.376 . S
C596 H583 0.930 . S
C596 C595 1.376 . S
C596 C597 1.388 . S
C597 H584 0.930 . S
C597 C596 1.388 . S
C597 C598 1.390 . S
C598 C597 1.390 . S
C598 C599 1.394 . S
C598 C604 1.465 . S
C599 C594 1.399 . S
C599 C598 1.394 . S
C599 C600 1.516 . S
C600 C599 1.516 . S
C600 C601 1.502 . S
C600 C602 1.561 . S
C600 C603 1.526 . S
C601 H585 0.959 . S
C601 H586 0.959 . S
C601 H587 0.961 . S
C601 C600 1.502 . S
C602 H588 0.960 . S
C602 H589 0.961 . S
C602 H590 0.959 . S
C602 C600 1.561 . S
C603 C600 1.526 . S
C603 C604 1.396 . S
C603 C608 1.390 . S
C604 C598 1.465 . S
C604 C603 1.396 . S
C604 C605 1.399 . S
C605 H591 0.929 . S
C605 C604 1.399 . S
C605 C606 1.385 . S
C606 H592 0.931 . S
C606 C605 1.385 . S
C606 C607 1.389 . S
C607 C606 1.389 . S
C607 C608 1.387 . S
C608 H593 0.930 . S
C608 C603 1.390 . S
C608 C607 1.387 . S
H609 C621 0.930 . S
H610 C623 0.930 . S
H611 C624 0.930 . S
H612 C628 0.959 . S
H613 C628 0.959 . S
H614 C628 0.961 . S
H615 C629 0.960 . S
H616 C629 0.961 . S
H617 C629 0.959 . S
H618 C632 0.929 . S
H619 C633 0.931 . S
H620 C635 0.930 . S
C621 H609 0.930 . S
C621 C622 1.399 . S
C621 C626 1.399 . S
C622 C621 1.399 . S
C622 C623 1.376 . S
C623 H610 0.930 . S
C623 C622 1.376 . S
C623 C624 1.388 . S
C624 H611 0.930 . S
C624 C623 1.388 . S
C624 C625 1.390 . S
C625 C624 1.390 . S
C625 C626 1.394 . S
C625 C631 1.465 . S
C626 C621 1.399 . S
C626 C625 1.394 . S
C626 C627 1.516 . S
C627 C626 1.516 . S
C627 C628 1.502 . S
C627 C629 1.561 . S
C627 C630 1.526 . S
C628 H612 0.959 . S
C628 H613 0.959 . S
C628 H614 0.961 . S
C628 C627 1.502 . S
C629 H615 0.960 . S
C629 H616 0.961 . S
C629 H617 0.959 . S
C629 C627 1.561 . S
C630 C627 1.526 . S
C630 C631 1.396 . S
C630 C635 1.390 . S
C631 C625 1.465 . S
C631 C630 1.396 . S
C631 C632 1.399 . S
C632 H618 0.929 . S
C632 C631 1.399 . S
C632 C633 1.385 . S
C633 H619 0.931 . S
C633 C632 1.385 . S
C633 C634 1.389 . S
C634 C633 1.389 . S
C634 C635 1.387 . S
C635 H620 0.930 . S
C635 C630 1.390 . S
C635 C634 1.387 . S
H636 C648 0.930 . S
H637 C650 0.930 . S
H638 C651 0.930 . S
H639 C655 0.959 . S
H640 C655 0.959 . S
H641 C655 0.961 . S
H642 C656 0.960 . S
H643 C656 0.961 . S
H644 C656 0.959 . S
H645 C659 0.929 . S
H646 C660 0.931 . S
H647 C662 0.930 . S
C648 H636 0.930 . S
C648 C649 1.399 . S
C648 C653 1.399 . S
C649 C648 1.399 . S
C649 C650 1.376 . S
C650 H637 0.930 . S
C650 C649 1.376 . S
C650 C651 1.388 . S
C651 H638 0.930 . S
C651 C650 1.388 . S
C651 C652 1.390 . S
C652 C651 1.390 . S
C652 C653 1.394 . S
C652 C658 1.465 . S
C653 C648 1.399 . S
C653 C652 1.394 . S
C653 C654 1.516 . S
C654 C653 1.516 . S
C654 C655 1.502 . S
C654 C656 1.561 . S
C654 C657 1.526 . S
C655 H639 0.959 . S
C655 H640 0.959 . S
C655 H641 0.961 . S
C655 C654 1.502 . S
C656 H642 0.960 . S
C656 H643 0.961 . S
C656 H644 0.959 . S
C656 C654 1.561 . S
C657 C654 1.526 . S
C657 C658 1.396 . S
C657 C662 1.390 . S
C658 C652 1.465 . S
C658 C657 1.396 . S
C658 C659 1.399 . S
C659 H645 0.929 . S
C659 C658 1.399 . S
C659 C660 1.385 . S
C660 H646 0.931 . S
C660 C659 1.385 . S
C660 C661 1.389 . S
C661 C660 1.389 . S
C661 C662 1.387 . S
C662 H647 0.930 . S
C662 C657 1.390 . S
C662 C661 1.387 . S
H663 C675 0.930 . S
H664 C677 0.930 . S
H665 C678 0.930 . S
H666 C682 0.959 . S
H667 C682 0.959 . S
H668 C682 0.961 . S
H669 C683 0.960 . S
H670 C683 0.961 . S
H671 C683 0.959 . S
H672 C686 0.929 . S
H673 C687 0.931 . S
H674 C689 0.930 . S
C675 H663 0.930 . S
C675 C676 1.399 . S
C675 C680 1.399 . S
C676 C675 1.399 . S
C676 C677 1.376 . S
C677 H664 0.930 . S
C677 C676 1.376 . S
C677 C678 1.388 . S
C678 H665 0.930 . S
C678 C677 1.388 . S
C678 C679 1.390 . S
C679 C678 1.390 . S
C679 C680 1.394 . S
C679 C685 1.465 . S
C680 C675 1.399 . S
C680 C679 1.394 . S
C680 C681 1.516 . S
C681 C680 1.516 . S
C681 C682 1.502 . S
C681 C683 1.561 . S
C681 C684 1.526 . S
C682 H666 0.959 . S
C682 H667 0.959 . S
C682 H668 0.961 . S
C682 C681 1.502 . S
C683 H669 0.960 . S
C683 H670 0.961 . S
C683 H671 0.959 . S
C683 C681 1.561 . S
C684 C681 1.526 . S
C684 C685 1.396 . S
C684 C689 1.390 . S
C685 C679 1.465 . S
C685 C684 1.396 . S
C685 C686 1.399 . S
C686 H672 0.929 . S
C686 C685 1.399 . S
C686 C687 1.385 . S
C687 H673 0.931 . S
C687 C686 1.385 . S
C687 C688 1.389 . S
C688 C687 1.389 . S
C688 C689 1.387 . S
C689 H674 0.930 . S
C689 C684 1.390 . S
C689 C688 1.387 . S
H690 C702 0.930 . S
H691 C704 0.930 . S
H692 C705 0.930 . S
H693 C709 0.959 . S
H694 C709 0.959 . S
H695 C709 0.961 . S
H696 C710 0.960 . S
H697 C710 0.961 . S
H698 C710 0.959 . S
H699 C713 0.929 . S
H700 C714 0.931 . S
H701 C716 0.930 . S
C702 H690 0.930 . S
C702 C703 1.399 . S
C702 C707 1.399 . S
C703 C702 1.399 . S
C703 C704 1.376 . S
C704 H691 0.930 . S
C704 C703 1.376 . S
C704 C705 1.388 . S
C705 H692 0.930 . S
C705 C704 1.388 . S
C705 C706 1.390 . S
C706 C705 1.390 . S
C706 C707 1.394 . S
C706 C712 1.465 . S
C707 C702 1.399 . S
C707 C706 1.394 . S
C707 C708 1.516 . S
C708 C707 1.516 . S
C708 C709 1.502 . S
C708 C710 1.561 . S
C708 C711 1.526 . S
C709 H693 0.959 . S
C709 H694 0.959 . S
C709 H695 0.961 . S
C709 C708 1.502 . S
C710 H696 0.960 . S
C710 H697 0.961 . S
C710 H698 0.959 . S
C710 C708 1.561 . S
C711 C708 1.526 . S
C711 C712 1.396 . S
C711 C716 1.390 . S
C712 C706 1.465 . S
C712 C711 1.396 . S
C712 C713 1.399 . S
C713 H699 0.929 . S
C713 C712 1.399 . S
C713 C714 1.385 . S
C714 H700 0.931 . S
C714 C713 1.385 . S
C714 C715 1.389 . S
C715 C714 1.389 . S
C715 C716 1.387 . S
C716 H701 0.930 . S
C716 C711 1.390 . S
C716 C715 1.387 . S
H717 C729 0.930 . S
H718 C731 0.930 . S
H719 C732 0.930 . S
H720 C736 0.959 . S
H721 C736 0.959 . S
H722 C736 0.961 . S
H723 C737 0.960 . S
H724 C737 0.961 . S
H725 C737 0.959 . S
H726 C740 0.929 . S
H727 C741 0.931 . S
H728 C743 0.930 . S
C729 H717 0.930 . S
C729 C730 1.399 . S
C729 C734 1.399 . S
C730 C729 1.399 . S
C730 C731 1.376 . S
C731 H718 0.930 . S
C731 C730 1.376 . S
C731 C732 1.388 . S
C732 H719 0.930 . S
C732 C731 1.388 . S
C732 C733 1.390 . S
C733 C732 1.390 . S
C733 C734 1.394 . S
C733 C739 1.465 . S
C734 C729 1.399 . S
C734 C733 1.394 . S
C734 C735 1.516 . S
C735 C734 1.516 . S
C735 C736 1.502 . S
C735 C737 1.561 . S
C735 C738 1.526 . S
C736 H720 0.959 . S
C736 H721 0.959 . S
C736 H722 0.961 . S
C736 C735 1.502 . S
C737 H723 0.960 . S
C737 H724 0.961 . S
C737 H725 0.959 . S
C737 C735 1.561 . S
C738 C735 1.526 . S
C738 C739 1.396 . S
C738 C743 1.390 . S
C739 C733 1.465 . S
C739 C738 1.396 . S
C739 C740 1.399 . S
C740 H726 0.929 . S
C740 C739 1.399 . S
C740 C741 1.385 . S
C741 H727 0.931 . S
C741 C740 1.385 . S
C741 C742 1.389 . S
C742 C741 1.389 . S
C742 C743 1.387 . S
C743 H728 0.930 . S
C743 C738 1.390 . S
C743 C742 1.387 . S
H744 C756 0.930 . S
H745 C758 0.930 . S
H746 C759 0.930 . S
H747 C763 0.959 . S
H748 C763 0.959 . S
H749 C763 0.961 . S
H750 C764 0.960 . S
H751 C764 0.961 . S
H752 C764 0.959 . S
H753 C767 0.929 . S
H754 C768 0.931 . S
H755 C770 0.930 . S
C756 H744 0.930 . S
C756 C757 1.399 . S
C756 C761 1.399 . S
C757 C756 1.399 . S
C757 C758 1.376 . S
C758 H745 0.930 . S
C758 C757 1.376 . S
C758 C759 1.388 . S
C759 H746 0.930 . S
C759 C758 1.388 . S
C759 C760 1.390 . S
C760 C759 1.390 . S
C760 C761 1.394 . S
C760 C766 1.465 . S
C761 C756 1.399 . S
C761 C760 1.394 . S
C761 C762 1.516 . S
C762 C761 1.516 . S
C762 C763 1.502 . S
C762 C764 1.561 . S
C762 C765 1.526 . S
C763 H747 0.959 . S
C763 H748 0.959 . S
C763 H749 0.961 . S
C763 C762 1.502 . S
C764 H750 0.960 . S
C764 H751 0.961 . S
C764 H752 0.959 . S
C764 C762 1.561 . S
C765 C762 1.526 . S
C765 C766 1.396 . S
C765 C770 1.390 . S
C766 C760 1.465 . S
C766 C765 1.396 . S
C766 C767 1.399 . S
C767 H753 0.929 . S
C767 C766 1.399 . S
C767 C768 1.385 . S
C768 H754 0.931 . S
C768 C767 1.385 . S
C768 C769 1.389 . S
C769 C768 1.389 . S
C769 C770 1.387 . S
C770 H755 0.930 . S
C770 C765 1.390 . S
C770 C769 1.387 . S
H771 C783 0.930 . S
H772 C785 0.930 . S
H773 C786 0.930 . S
H774 C790 0.959 . S
H775 C790 0.959 . S
H776 C790 0.961 . S
H777 C791 0.960 . S
H778 C791 0.961 . S
H779 C791 0.959 . S
H780 C794 0.929 . S
H781 C795 0.931 . S
H782 C797 0.930 . S
C783 H771 0.930 . S
C783 C784 1.399 . S
C783 C788 1.399 . S
C784 C783 1.399 . S
C784 C785 1.376 . S
C785 H772 0.930 . S
C785 C784 1.376 . S
C785 C786 1.388 . S
C786 H773 0.930 . S
C786 C785 1.388 . S
C786 C787 1.390 . S
C787 C786 1.390 . S
C787 C788 1.394 . S
C787 C793 1.465 . S
C788 C783 1.399 . S
C788 C787 1.394 . S
C788 C789 1.516 . S
C789 C788 1.516 . S
C789 C790 1.502 . S
C789 C791 1.561 . S
C789 C792 1.526 . S
C790 H774 0.959 . S
C790 H775 0.959 . S
C790 H776 0.961 . S
C790 C789 1.502 . S
C791 H777 0.960 . S
C791 H778 0.961 . S
C791 H779 0.959 . S
C791 C789 1.561 . S
C792 C789 1.526 . S
C792 C793 1.396 . S
C792 C797 1.390 . S
C793 C787 1.465 . S
C793 C792 1.396 . S
C793 C794 1.399 . S
C794 H780 0.929 . S
C794 C793 1.399 . S
C794 C795 1.385 . S
C795 H781 0.931 . S
C795 C794 1.385 . S
C795 C796 1.389 . S
C796 C795 1.389 . S
C796 C797 1.387 . S
C797 H782 0.930 . S
C797 C792 1.390 . S
C797 C796 1.387 . S
H798 C810 0.930 . S
H799 C812 0.930 . S
H800 C813 0.930 . S
H801 C817 0.959 . S
H802 C817 0.959 . S
H803 C817 0.961 . S
H804 C818 0.960 . S
H805 C818 0.961 . S
H806 C818 0.959 . S
H807 C821 0.929 . S
H808 C822 0.931 . S
H809 C824 0.930 . S
C810 H798 0.930 . S
C810 C811 1.399 . S
C810 C815 1.399 . S
C811 C810 1.399 . S
C811 C812 1.376 . S
C812 H799 0.930 . S
C812 C811 1.376 . S
C812 C813 1.388 . S
C813 H800 0.930 . S
C813 C812 1.388 . S
C813 C814 1.390 . S
C814 C813 1.390 . S
C814 C815 1.394 . S
C814 C820 1.465 . S
C815 C810 1.399 . S
C815 C814 1.394 . S
C815 C816 1.516 . S
C816 C815 1.516 . S
C816 C817 1.502 . S
C816 C818 1.561 . S
C816 C819 1.526 . S
C817 H801 0.959 . S
C817 H802 0.959 . S
C817 H803 0.961 . S
C817 C816 1.502 . S
C818 H804 0.960 . S
C818 H805 0.961 . S
C818 H806 0.959 . S
C818 C816 1.561 . S
C819 C816 1.526 . S
C819 C820 1.396 . S
C819 C824 1.390 . S
C820 C814 1.465 . S
C820 C819 1.396 . S
C820 C821 1.399 . S
C821 H807 0.929 . S
C821 C820 1.399 . S
C821 C822 1.385 . S
C822 H808 0.931 . S
C822 C821 1.385 . S
C822 C823 1.389 . S
C823 C822 1.389 . S
C823 C824 1.387 . S
C824 H809 0.930 . S
C824 C819 1.390 . S
C824 C823 1.387 . S
H825 C837 0.930 . S
H826 C839 0.930 . S
H827 C840 0.930 . S
H828 C844 0.959 . S
H829 C844 0.959 . S
H830 C844 0.961 . S
H831 C845 0.960 . S
H832 C845 0.961 . S
H833 C845 0.959 . S
H834 C848 0.929 . S
H835 C849 0.931 . S
H836 C851 0.930 . S
C837 H825 0.930 . S
C837 C838 1.399 . S
C837 C842 1.399 . S
C838 C837 1.399 . S
C838 C839 1.376 . S
C839 H826 0.930 . S
C839 C838 1.376 . S
C839 C840 1.388 . S
C840 H827 0.930 . S
C840 C839 1.388 . S
C840 C841 1.390 . S
C841 C840 1.390 . S
C841 C842 1.394 . S
C841 C847 1.465 . S
C842 C837 1.399 . S
C842 C841 1.394 . S
C842 C843 1.516 . S
C843 C842 1.516 . S
C843 C844 1.502 . S
C843 C845 1.561 . S
C843 C846 1.526 . S
C844 H828 0.959 . S
C844 H829 0.959 . S
C844 H830 0.961 . S
C844 C843 1.502 . S
C845 H831 0.960 . S
C845 H832 0.961 . S
C845 H833 0.959 . S
C845 C843 1.561 . S
C846 C843 1.526 . S
C846 C847 1.396 . S
C846 C851 1.390 . S
C847 C841 1.465 . S
C847 C846 1.396 . S
C847 C848 1.399 . S
C848 H834 0.929 . S
C848 C847 1.399 . S
C848 C849 1.385 . S
C849 H835 0.931 . S
C849 C848 1.385 . S
C849 C850 1.389 . S
C850 C849 1.389 . S
C850 C851 1.387 . S
C851 H836 0.930 . S
C851 C846 1.390 . S
C851 C850 1.387 . S
H852 C864 0.930 . S
H853 C866 0.930 . S
H854 C867 0.930 . S
H855 C871 0.959 . S
H856 C871 0.959 . S
H857 C871 0.961 . S
H858 C872 0.960 . S
H859 C872 0.961 . S
H860 C872 0.959 . S
H861 C875 0.929 . S
H862 C876 0.931 . S
H863 C878 0.930 . S
C864 H852 0.930 . S
C864 C865 1.399 . S
C864 C869 1.399 . S
C865 C864 1.399 . S
C865 C866 1.376 . S
C866 H853 0.930 . S
C866 C865 1.376 . S
C866 C867 1.388 . S
C867 H854 0.930 . S
C867 C866 1.388 . S
C867 C868 1.390 . S
C868 C867 1.390 . S
C868 C869 1.394 . S
C868 C874 1.465 . S
C869 C864 1.399 . S
C869 C868 1.394 . S
C869 C870 1.516 . S
C870 C869 1.516 . S
C870 C871 1.502 . S
C870 C872 1.561 . S
C870 C873 1.526 . S
C871 H855 0.959 . S
C871 H856 0.959 . S
C871 H857 0.961 . S
C871 C870 1.502 . S
C872 H858 0.960 . S
C872 H859 0.961 . S
C872 H860 0.959 . S
C872 C870 1.561 . S
C873 C870 1.526 . S
C873 C874 1.396 . S
C873 C878 1.390 . S
C874 C868 1.465 . S
C874 C873 1.396 . S
C874 C875 1.399 . S
C875 H861 0.929 . S
C875 C874 1.399 . S
C875 C876 1.385 . S
C876 H862 0.931 . S
C876 C875 1.385 . S
C876 C877 1.389 . S
C877 C876 1.389 . S
C877 C878 1.387 . S
C878 H863 0.930 . S
C878 C873 1.390 . S
C878 C877 1.387 . S
H879 C891 0.930 . S
H880 C893 0.930 . S
H881 C894 0.930 . S
H882 C898 0.959 . S
H883 C898 0.959 . S
H884 C898 0.961 . S
H885 C899 0.960 . S
H886 C899 0.961 . S
H887 C899 0.959 . S
H888 C902 0.929 . S
H889 C903 0.931 . S
H890 C905 0.930 . S
C891 H879 0.930 . S
C891 C892 1.399 . S
C891 C896 1.399 . S
C892 C891 1.399 . S
C892 C893 1.376 . S
C893 H880 0.930 . S
C893 C892 1.376 . S
C893 C894 1.388 . S
C894 H881 0.930 . S
C894 C893 1.388 . S
C894 C895 1.390 . S
C895 C894 1.390 . S
C895 C896 1.394 . S
C895 C901 1.465 . S
C896 C891 1.399 . S
C896 C895 1.394 . S
C896 C897 1.516 . S
C897 C896 1.516 . S
C897 C898 1.502 . S
C897 C899 1.561 . S
C897 C900 1.526 . S
C898 H882 0.959 . S
C898 H883 0.959 . S
C898 H884 0.961 . S
C898 C897 1.502 . S
C899 H885 0.960 . S
C899 H886 0.961 . S
C899 H887 0.959 . S
C899 C897 1.561 . S
C900 C897 1.526 . S
C900 C901 1.396 . S
C900 C905 1.390 . S
C901 C895 1.465 . S
C901 C900 1.396 . S
C901 C902 1.399 . S
C902 H888 0.929 . S
C902 C901 1.399 . S
C902 C903 1.385 . S
C903 H889 0.931 . S
C903 C902 1.385 . S
C903 C904 1.389 . S
C904 C903 1.389 . S
C904 C905 1.387 . S
C905 H890 0.930 . S
C905 C900 1.390 . S
C905 C904 1.387 . S
H906 C918 0.930 . S
H907 C920 0.930 . S
H908 C921 0.930 . S
H909 C925 0.959 . S
H910 C925 0.959 . S
H911 C925 0.961 . S
H912 C926 0.960 . S
H913 C926 0.961 . S
H914 C926 0.959 . S
H915 C929 0.929 . S
H916 C930 0.931 . S
H917 C932 0.930 . S
C918 H906 0.930 . S
C918 C919 1.399 . S
C918 C923 1.399 . S
C919 C918 1.399 . S
C919 C920 1.376 . S
C920 H907 0.930 . S
C920 C919 1.376 . S
C920 C921 1.388 . S
C921 H908 0.930 . S
C921 C920 1.388 . S
C921 C922 1.390 . S
C922 C921 1.390 . S
C922 C923 1.394 . S
C922 C928 1.465 . S
C923 C918 1.399 . S
C923 C922 1.394 . S
C923 C924 1.516 . S
C924 C923 1.516 . S
C924 C925 1.502 . S
C924 C926 1.561 . S
C924 C927 1.526 . S
C925 H909 0.959 . S
C925 H910 0.959 . S
C925 H911 0.961 . S
C925 C924 1.502 . S
C926 H912 0.960 . S
C926 H913 0.961 . S
C926 H914 0.959 . S
C926 C924 1.561 . S
C927 C924 1.526 . S
C927 C928 1.396 . S
C927 C932 1.390 . S
C928 C922 1.465 . S
C928 C927 1.396 . S
C928 C929 1.399 . S
C929 H915 0.929 . S
C929 C928 1.399 . S
C929 C930 1.385 . S
C930 H916 0.931 . S
C930 C929 1.385 . S
C930 C931 1.389 . S
C931 C930 1.389 . S
C931 C932 1.387 . S
C932 H917 0.930 . S
C932 C927 1.390 . S
C932 C931 1.387 . S
H933 C945 0.930 . S
H934 C947 0.930 . S
H935 C948 0.930 . S
H936 C952 0.959 . S
H937 C952 0.959 . S
H938 C952 0.961 . S
H939 C953 0.960 . S
H940 C953 0.961 . S
H941 C953 0.959 . S
H942 C956 0.929 . S
H943 C957 0.931 . S
H944 C959 0.930 . S
C945 H933 0.930 . S
C945 C946 1.399 . S
C945 C950 1.399 . S
C946 C945 1.399 . S
C946 C947 1.376 . S
C947 H934 0.930 . S
C947 C946 1.376 . S
C947 C948 1.388 . S
C948 H935 0.930 . S
C948 C947 1.388 . S
C948 C949 1.390 . S
C949 C948 1.390 . S
C949 C950 1.394 . S
C949 C955 1.465 . S
C950 C945 1.399 . S
C950 C949 1.394 . S
C950 C951 1.516 . S
C951 C950 1.516 . S
C951 C952 1.502 . S
C951 C953 1.561 . S
C951 C954 1.526 . S
C952 H936 0.959 . S
C952 H937 0.959 . S
C952 H938 0.961 . S
C952 C951 1.502 . S
C953 H939 0.960 . S
C953 H940 0.961 . S
C953 H941 0.959 . S
C953 C951 1.561 . S
C954 C951 1.526 . S
C954 C955 1.396 . S
C954 C959 1.390 . S
C955 C949 1.465 . S
C955 C954 1.396 . S
C955 C956 1.399 . S
C956 H942 0.929 . S
C956 C955 1.399 . S
C956 C957 1.385 . S
C957 H943 0.931 . S
C957 C956 1.385 . S
C957 C958 1.389 . S
C958 C957 1.389 . S
C958 C959 1.387 . S
C959 H944 0.930 . S
C959 C954 1.390 . S
C959 C958 1.387 . S
H960 C972 0.930 . S
H961 C974 0.930 . S
H962 C975 0.930 . S
H963 C979 0.959 . S
H964 C979 0.959 . S
H965 C979 0.961 . S
H966 C980 0.960 . S
H967 C980 0.961 . S
H968 C980 0.959 . S
H969 C983 0.929 . S
H970 C984 0.931 . S
H971 C986 0.930 . S
C972 H960 0.930 . S
C972 C973 1.399 . S
C972 C977 1.399 . S
C973 C972 1.399 . S
C973 C974 1.376 . S
C974 H961 0.930 . S
C974 C973 1.376 . S
C974 C975 1.388 . S
C975 H962 0.930 . S
C975 C974 1.388 . S
C975 C976 1.390 . S
C976 C975 1.390 . S
C976 C977 1.394 . S
C976 C982 1.465 . S
C977 C972 1.399 . S
C977 C976 1.394 . S
C977 C978 1.516 . S
C978 C977 1.516 . S
C978 C979 1.502 . S
C978 C980 1.561 . S
C978 C981 1.526 . S
C979 H963 0.959 . S
C979 H964 0.959 . S
C979 H965 0.961 . S
C979 C978 1.502 . S
C980 H966 0.960 . S
C980 H967 0.961 . S
C980 H968 0.959 . S
C980 C978 1.561 . S
C981 C978 1.526 . S
C981 C982 1.396 . S
C981 C986 1.390 . S
C982 C976 1.465 . S
C982 C981 1.396 . S
C982 C983 1.399 . S
C983 H969 0.929 . S
C983 C982 1.399 . S
C983 C984 1.385 . S
C984 H970 0.931 . S
C984 C983 1.385 . S
C984 C985 1.389 . S
C985 C984 1.389 . S
C985 C986 1.387 . S
C986 H971 0.930 . S
C986 C981 1.390 . S
C986 C985 1.387 . S
H987 C999 0.930 . S
H988 C1001 0.930 . S
H989 C1002 0.930 . S
H990 C1006 0.959 . S
H991 C1006 0.959 . S
H992 C1006 0.961 . S
H993 C1007 0.960 . S
H994 C1007 0.961 . S
H995 C1007 0.959 . S
H996 C1010 0.929 . S
H997 C1011 0.931 . S
H998 C1013 0.930 . S
C999 H987 0.930 . S
C999 C1000 1.399 . S
C999 C1004 1.399 . S
C1000 C999 1.399 . S
C1000 C1001 1.376 . S
C1001 H988 0.930 . S
C1001 C1000 1.376 . S
C1001 C1002 1.388 . S
C1002 H989 0.930 . S
C1002 C1001 1.388 . S
C1002 C1003 1.390 . S
C1003 C1002 1.390 . S
C1003 C1004 1.394 . S
C1003 C1009 1.465 . S
C1004 C999 1.399 . S
C1004 C1003 1.394 . S
C1004 C1005 1.516 . S
C1005 C1004 1.516 . S
C1005 C1006 1.502 . S
C1005 C1007 1.561 . S
C1005 C1008 1.526 . S
C1006 H990 0.959 . S
C1006 H991 0.959 . S
C1006 H992 0.961 . S
C1006 C1005 1.502 . S
C1007 H993 0.960 . S
C1007 H994 0.961 . S
C1007 H995 0.959 . S
C1007 C1005 1.561 . S
C1008 C1005 1.526 . S
C1008 C1009 1.396 . S
C1008 C1013 1.390 . S
C1009 C1003 1.465 . S
C1009 C1008 1.396 . S
C1009 C1010 1.399 . S
C1010 H996 0.929 . S
C1010 C1009 1.399 . S
C1010 C1011 1.385 . S
C1011 H997 0.931 . S
C1011 C1010 1.385 . S
C1011 C1012 1.389 . S
C1012 C1011 1.389 . S
C1012 C1013 1.387 . S
C1013 H998 0.930 . S
C1013 C1008 1.390 . S
C1013 C1012 1.387 . S
H1014 C1026 0.930 . S
H1015 C1028 0.930 . S
H1016 C1029 0.930 . S
H1017 C1033 0.959 . S
H1018 C1033 0.959 . S
H1019 C1033 0.961 . S
H1020 C1034 0.960 . S
H1021 C1034 0.961 . S
H1022 C1034 0.959 . S
H1023 C1037 0.929 . S
H1024 C1038 0.931 . S
H1025 C1040 0.930 . S
C1026 H1014 0.930 . S
C1026 C1027 1.399 . S
C1026 C1031 1.399 . S
C1027 C1026 1.399 . S
C1027 C1028 1.376 . S
C1028 H1015 0.930 . S
C1028 C1027 1.376 . S
C1028 C1029 1.388 . S
C1029 H1016 0.930 . S
C1029 C1028 1.388 . S
C1029 C1030 1.390 . S
C1030 C1029 1.390 . S
C1030 C1031 1.394 . S
C1030 C1036 1.465 . S
C1031 C1026 1.399 . S
C1031 C1030 1.394 . S
C1031 C1032 1.516 . S
C1032 C1031 1.516 . S
C1032 C1033 1.502 . S
C1032 C1034 1.561 . S
C1032 C1035 1.526 . S
C1033 H1017 0.959 . S
C1033 H1018 0.959 . S
C1033 H1019 0.961 . S
C1033 C1032 1.502 . S
C1034 H1020 0.960 . S
C1034 H1021 0.961 . S
C1034 H1022 0.959 . S
C1034 C1032 1.561 . S
C1035 C1032 1.526 . S
C1035 C1036 1.396 . S
C1035 C1040 1.390 . S
C1036 C1030 1.465 . S
C1036 C1035 1.396 . S
C1036 C1037 1.399 . S
C1037 H1023 0.929 . S
C1037 C1036 1.399 . S
C1037 C1038 1.385 . S
C1038 H1024 0.931 . S
C1038 C1037 1.385 . S
C1038 C1039 1.389 . S
C1039 C1038 1.389 . S
C1039 C1040 1.387 . S
C1040 H1025 0.930 . S
C1040 C1035 1.390 . S
C1040 C1039 1.387 . S
H1041 C1053 0.930 . S
H1042 C1055 0.930 . S
H1043 C1056 0.930 . S
H1044 C1060 0.959 . S
H1045 C1060 0.959 . S
H1046 C1060 0.961 . S
H1047 C1061 0.960 . S
H1048 C1061 0.961 . S
H1049 C1061 0.959 . S
H1050 C1064 0.929 . S
H1051 C1065 0.931 . S
H1052 C1067 0.930 . S
C1053 H1041 0.930 . S
C1053 C1054 1.399 . S
C1053 C1058 1.399 . S
C1054 C1053 1.399 . S
C1054 C1055 1.376 . S
C1055 H1042 0.930 . S
C1055 C1054 1.376 . S
C1055 C1056 1.388 . S
C1056 H1043 0.930 . S
C1056 C1055 1.388 . S
C1056 C1057 1.390 . S
C1057 C1056 1.390 . S
C1057 C1058 1.394 . S
C1057 C1063 1.465 . S
C1058 C1053 1.399 . S
C1058 C1057 1.394 . S
C1058 C1059 1.516 . S
C1059 C1058 1.516 . S
C1059 C1060 1.502 . S
C1059 C1061 1.561 . S
C1059 C1062 1.526 . S
C1060 H1044 0.959 . S
C1060 H1045 0.959 . S
C1060 H1046 0.961 . S
C1060 C1059 1.502 . S
C1061 H1047 0.960 . S
C1061 H1048 0.961 . S
C1061 H1049 0.959 . S
C1061 C1059 1.561 . S
C1062 C1059 1.526 . S
C1062 C1063 1.396 . S
C1062 C1067 1.390 . S
C1063 C1057 1.465 . S
C1063 C1062 1.396 . S
C1063 C1064 1.399 . S
C1064 H1050 0.929 . S
C1064 C1063 1.399 . S
C1064 C1065 1.385 . S
C1065 H1051 0.931 . S
C1065 C1064 1.385 . S
C1065 C1066 1.389 . S
C1066 C1065 1.389 . S
C1066 C1067 1.387 . S
C1067 H1052 0.930 . S
C1067 C1062 1.390 . S
C1067 C1066 1.387 . S
H1068 C1080 0.930 . S
H1069 C1082 0.930 . S
H1070 C1083 0.930 . S
H1071 C1087 0.959 . S
H1072 C1087 0.959 . S
H1073 C1087 0.961 . S
H1074 C1088 0.960 . S
H1075 C1088 0.961 . S
H1076 C1088 0.959 . S
H1077 C1091 0.929 . S
H1078 C1092 0.931 . S
H1079 C1094 0.930 . S
C1080 H1068 0.930 . S
C1080 C1081 1.399 . S
C1080 C1085 1.399 . S
C1081 C1080 1.399 . S
C1081 C1082 1.376 . S
C1082 H1069 0.930 . S
C1082 C1081 1.376 . S
C1082 C1083 1.388 . S
C1083 H1070 0.930 . S
C1083 C1082 1.388 . S
C1083 C1084 1.390 . S
C1084 C1083 1.390 . S
C1084 C1085 1.394 . S
C1084 C1090 1.465 . S
C1085 C1080 1.399 . S
C1085 C1084 1.394 . S
C1085 C1086 1.516 . S
C1086 C1085 1.516 . S
C1086 C1087 1.502 . S
C1086 C1088 1.561 . S
C1086 C1089 1.526 . S
C1087 H1071 0.959 . S
C1087 H1072 0.959 . S
C1087 H1073 0.961 . S
C1087 C1086 1.502 . S
C1088 H1074 0.960 . S
C1088 H1075 0.961 . S
C1088 H1076 0.959 . S
C1088 C1086 1.561 . S
C1089 C1086 1.526 . S
C1089 C1090 1.396 . S
C1089 C1094 1.390 . S
C1090 C1084 1.465 . S
C1090 C1089 1.396 . S
C1090 C1091 1.399 . S
C1091 H1077 0.929 . S
C1091 C1090 1.399 . S
C1091 C1092 1.385 . S
C1092 H1078 0.931 . S
C1092 C1091 1.385 . S
C1092 C1093 1.389 . S
C1093 C1092 1.389 . S
C1093 C1094 1.387 . S
C1094 H1079 0.930 . S
C1094 C1089 1.390 . S
C1094 C1093 1.387 . S
H1095 C1107 0.930 . S
H1096 C1109 0.930 . S
H1097 C1110 0.930 . S
H1098 C1114 0.959 . S
H1099 C1114 0.959 . S
H1100 C1114 0.961 . S
H1101 C1115 0.960 . S
H1102 C1115 0.961 . S
H1103 C1115 0.959 . S
H1104 C1118 0.929 . S
H1105 C1119 0.931 . S
H1106 C1121 0.930 . S
C1107 H1095 0.930 . S
C1107 C1108 1.399 . S
C1107 C1112 1.399 . S
C1108 C1107 1.399 . S
C1108 C1109 1.376 . S
C1109 H1096 0.930 . S
C1109 C1108 1.376 . S
C1109 C1110 1.388 . S
C1110 H1097 0.930 . S
C1110 C1109 1.388 . S
C1110 C1111 1.390 . S
C1111 C1110 1.390 . S
C1111 C1112 1.394 . S
C1111 C1117 1.465 . S
C1112 C1107 1.399 . S
C1112 C1111 1.394 . S
C1112 C1113 1.516 . S
C1113 C1112 1.516 . S
C1113 C1114 1.502 . S
C1113 C1115 1.561 . S
C1113 C1116 1.526 . S
C1114 H1098 0.959 . S
C1114 H1099 0.959 . S
C1114 H1100 0.961 . S
C1114 C1113 1.502 . S
C1115 H1101 0.960 . S
C1115 H1102 0.961 . S
C1115 H1103 0.959 . S
C1115 C1113 1.561 . S
C1116 C1113 1.526 . S
C1116 C1117 1.396 . S
C1116 C1121 1.390 . S
C1117 C1111 1.465 . S
C1117 C1116 1.396 . S
C1117 C1118 1.399 . S
C1118 H1104 0.929 . S
C1118 C1117 1.399 . S
C1118 C1119 1.385 . S
C1119 H1105 0.931 . S
C1119 C1118 1.385 . S
C1119 C1120 1.389 . S
C1120 C1119 1.389 . S
C1120 C1121 1.387 . S
C1121 H1106 0.930 . S
C1121 C1116 1.390 . S
C1121 C1120 1.387 . S
H1122 C1134 0.930 . S
H1123 C1136 0.930 . S
H1124 C1137 0.930 . S
H1125 C1141 0.959 . S
H1126 C1141 0.959 . S
H1127 C1141 0.961 . S
H1128 C1142 0.960 . S
H1129 C1142 0.961 . S
H1130 C1142 0.959 . S
H1131 C1145 0.929 . S
H1132 C1146 0.931 . S
H1133 C1148 0.930 . S
C1134 H1122 0.930 . S
C1134 C1135 1.399 . S
C1134 C1139 1.399 . S
C1135 C1134 1.399 . S
C1135 C1136 1.376 . S
C1136 H1123 0.930 . S
C1136 C1135 1.376 . S
C1136 C1137 1.388 . S
C1137 H1124 0.930 . S
C1137 C1136 1.388 . S
C1137 C1138 1.390 . S
C1138 C1137 1.390 . S
C1138 C1139 1.394 . S
C1138 C1144 1.465 . S
C1139 C1134 1.399 . S
C1139 C1138 1.394 . S
C1139 C1140 1.516 . S
C1140 C1139 1.516 . S
C1140 C1141 1.502 . S
C1140 C1142 1.561 . S
C1140 C1143 1.526 . S
C1141 H1125 0.959 . S
C1141 H1126 0.959 . S
C1141 H1127 0.961 . S
C1141 C1140 1.502 . S
C1142 H1128 0.960 . S
C1142 H1129 0.961 . S
C1142 H1130 0.959 . S
C1142 C1140 1.561 . S
C1143 C1140 1.526 . S
C1143 C1144 1.396 . S
C1143 C1148 1.390 . S
C1144 C1138 1.465 . S
C1144 C1143 1.396 . S
C1144 C1145 1.399 . S
C1145 H1131 0.929 . S
C1145 C1144 1.399 . S
C1145 C1146 1.385 . S
C1146 H1132 0.931 . S
C1146 C1145 1.385 . S
C1146 C1147 1.389 . S
C1147 C1146 1.389 . S
C1147 C1148 1.387 . S
C1148 H1133 0.930 . S
C1148 C1143 1.390 . S
C1148 C1147 1.387 . S
H1149 C1161 0.930 . S
H1150 C1163 0.930 . S
H1151 C1164 0.930 . S
H1152 C1168 0.959 . S
H1153 C1168 0.959 . S
H1154 C1168 0.961 . S
H1155 C1169 0.960 . S
H1156 C1169 0.961 . S
H1157 C1169 0.959 . S
H1158 C1172 0.929 . S
H1159 C1173 0.931 . S
H1160 C1175 0.930 . S
C1161 H1149 0.930 . S
C1161 C1162 1.399 . S
C1161 C1166 1.399 . S
C1162 C1161 1.399 . S
C1162 C1163 1.376 . S
C1163 H1150 0.930 . S
C1163 C1162 1.376 . S
C1163 C1164 1.388 . S
C1164 H1151 0.930 . S
C1164 C1163 1.388 . S
C1164 C1165 1.390 . S
C1165 C1164 1.390 . S
C1165 C1166 1.394 . S
C1165 C1171 1.465 . S
C1166 C1161 1.399 . S
C1166 C1165 1.394 . S
C1166 C1167 1.516 . S
C1167 C1166 1.516 . S
C1167 C1168 1.502 . S
C1167 C1169 1.561 . S
C1167 C1170 1.526 . S
C1168 H1152 0.959 . S
C1168 H1153 0.959 . S
C1168 H1154 0.961 . S
C1168 C1167 1.502 . S
C1169 H1155 0.960 . S
C1169 H1156 0.961 . S
C1169 H1157 0.959 . S
C1169 C1167 1.561 . S
C1170 C1167 1.526 . S
C1170 C1171 1.396 . S
C1170 C1175 1.390 . S
C1171 C1165 1.465 . S
C1171 C1170 1.396 . S
C1171 C1172 1.399 . S
C1172 H1158 0.929 . S
C1172 C1171 1.399 . S
C1172 C1173 1.385 . S
C1173 H1159 0.931 . S
C1173 C1172 1.385 . S
C1173 C1174 1.389 . S
C1174 C1173 1.389 . S
C1174 C1175 1.387 . S
C1175 H1160 0.930 . S
C1175 C1170 1.390 . S
C1175 C1174 1.387 . S
H1176 C1188 0.930 . S
H1177 C1190 0.930 . S
H1178 C1191 0.930 . S
H1179 C1195 0.959 . S
H1180 C1195 0.959 . S
H1181 C1195 0.961 . S
H1182 C1196 0.960 . S
H1183 C1196 0.961 . S
H1184 C1196 0.959 . S
H1185 C1199 0.929 . S
H1186 C1200 0.931 . S
H1187 C1202 0.930 . S
C1188 H1176 0.930 . S
C1188 C1189 1.399 . S
C1188 C1193 1.399 . S
C1189 C1188 1.399 . S
C1189 C1190 1.376 . S
C1190 H1177 0.930 . S
C1190 C1189 1.376 . S
C1190 C1191 1.388 . S
C1191 H1178 0.930 . S
C1191 C1190 1.388 . S
C1191 C1192 1.390 . S
C1192 C1191 1.390 . S
C1192 C1193 1.394 . S
C1192 C1198 1.465 . S
C1193 C1188 1.399 . S
C1193 C1192 1.394 . S
C1193 C1194 1.516 . S
C1194 C1193 1.516 . S
C1194 C1195 1.502 . S
C1194 C1196 1.561 . S
C1194 C1197 1.526 . S
C1195 H1179 0.959 . S
C1195 H1180 0.959 . S
C1195 H1181 0.961 . S
C1195 C1194 1.502 . S
C1196 H1182 0.960 . S
C1196 H1183 0.961 . S
C1196 H1184 0.959 . S
C1196 C1194 1.561 . S
C1197 C1194 1.526 . S
C1197 C1198 1.396 . S
C1197 C1202 1.390 . S
C1198 C1192 1.465 . S
C1198 C1197 1.396 . S
C1198 C1199 1.399 . S
C1199 H1185 0.929 . S
C1199 C1198 1.399 . S
C1199 C1200 1.385 . S
C1200 H1186 0.931 . S
C1200 C1199 1.385 . S
C1200 C1201 1.389 . S
C1201 C1200 1.389 . S
C1201 C1202 1.387 . S
C1202 H1187 0.930 . S
C1202 C1197 1.390 . S
C1202 C1201 1.387 . S
H1203 C1215 0.930 . S
H1204 C1217 0.930 . S
H1205 C1218 0.930 . S
H1206 C1222 0.959 . S
H1207 C1222 0.959 . S
H1208 C1222 0.961 . S
H1209 C1223 0.960 . S
H1210 C1223 0.961 . S
H1211 C1223 0.959 . S
H1212 C1226 0.929 . S
H1213 C1227 0.931 . S
H1214 C1229 0.930 . S
C1215 H1203 0.930 . S
C1215 C1216 1.399 . S
C1215 C1220 1.399 . S
C1216 C1215 1.399 . S
C1216 C1217 1.376 . S
C1217 H1204 0.930 . S
C1217 C1216 1.376 . S
C1217 C1218 1.388 . S
C1218 H1205 0.930 . S
C1218 C1217 1.388 . S
C1218 C1219 1.390 . S
C1219 C1218 1.390 . S
C1219 C1220 1.394 . S
C1219 C1225 1.465 . S
C1220 C1215 1.399 . S
C1220 C1219 1.394 . S
C1220 C1221 1.516 . S
C1221 C1220 1.516 . S
C1221 C1222 1.502 . S
C1221 C1223 1.561 . S
C1221 C1224 1.526 . S
C1222 H1206 0.959 . S
C1222 H1207 0.959 . S
C1222 H1208 0.961 . S
C1222 C1221 1.502 . S
C1223 H1209 0.960 . S
C1223 H1210 0.961 . S
C1223 H1211 0.959 . S
C1223 C1221 1.561 . S
C1224 C1221 1.526 . S
C1224 C1225 1.396 . S
C1224 C1229 1.390 . S
C1225 C1219 1.465 . S
C1225 C1224 1.396 . S
C1225 C1226 1.399 . S
C1226 H1212 0.929 . S
C1226 C1225 1.399 . S
C1226 C1227 1.385 . S
C1227 H1213 0.931 . S
C1227 C1226 1.385 . S
C1227 C1228 1.389 . S
C1228 C1227 1.389 . S
C1228 C1229 1.387 . S
C1229 H1214 0.930 . S
C1229 C1224 1.390 . S
C1229 C1228 1.387 . S
H1230 C1242 0.930 . S
H1231 C1244 0.930 . S
H1232 C1245 0.930 . S
H1233 C1249 0.959 . S
H1234 C1249 0.959 . S
H1235 C1249 0.961 . S
H1236 C1250 0.960 . S
H1237 C1250 0.961 . S
H1238 C1250 0.959 . S
H1239 C1253 0.929 . S
H1240 C1254 0.931 . S
H1241 C1256 0.930 . S
C1242 H1230 0.930 . S
C1242 C1243 1.399 . S
C1242 C1247 1.399 . S
C1243 C1242 1.399 . S
C1243 C1244 1.376 . S
C1244 H1231 0.930 . S
C1244 C1243 1.376 . S
C1244 C1245 1.388 . S
C1245 H1232 0.930 . S
C1245 C1244 1.388 . S
C1245 C1246 1.390 . S
C1246 C1245 1.390 . S
C1246 C1247 1.394 . S
C1246 C1252 1.465 . S
C1247 C1242 1.399 . S
C1247 C1246 1.394 . S
C1247 C1248 1.516 . S
C1248 C1247 1.516 . S
C1248 C1249 1.502 . S
C1248 C1250 1.561 . S
C1248 C1251 1.526 . S
C1249 H1233 0.959 . S
C1249 H1234 0.959 . S
C1249 H1235 0.961 . S
C1249 C1248 1.502 . S
C1250 H1236 0.960 . S
C1250 H1237 0.961 . S
C1250 H1238 0.959 . S
C1250 C1248 1.561 . S
C1251 C1248 1.526 . S
C1251 C1252 1.396 . S
C1251 C1256 1.390 . S
C1252 C1246 1.465 . S
C1252 C1251 1.396 . S
C1252 C1253 1.399 . S
C1253 H1239 0.929 . S
C1253 C1252 1.399 . S
C1253 C1254 1.385 . S
C1254 H1240 0.931 . S
C1254 C1253 1.385 . S
C1254 C1255 1.389 . S
C1255 C1254 1.389 . S
C1255 C1256 1.387 . S
C1256 H1241 0.930 . S
C1256 C1251 1.390 . S
C1256 C1255 1.387 . S
H1257 C1269 0.930 . S
H1258 C1271 0.930 . S
H1259 C1272 0.930 . S
H1260 C1276 0.959 . S
H1261 C1276 0.959 . S
H1262 C1276 0.961 . S
H1263 C1277 0.960 . S
H1264 C1277 0.961 . S
H1265 C1277 0.959 . S
H1266 C1280 0.929 . S
H1267 C1281 0.931 . S
H1268 C1283 0.930 . S
C1269 H1257 0.930 . S
C1269 C1270 1.399 . S
C1269 C1274 1.399 . S
C1270 C1269 1.399 . S
C1270 C1271 1.376 . S
C1271 H1258 0.930 . S
C1271 C1270 1.376 . S
C1271 C1272 1.388 . S
C1272 H1259 0.930 . S
C1272 C1271 1.388 . S
C1272 C1273 1.390 . S
C1273 C1272 1.390 . S
C1273 C1274 1.394 . S
C1273 C1279 1.465 . S
C1274 C1269 1.399 . S
C1274 C1273 1.394 . S
C1274 C1275 1.516 . S
C1275 C1274 1.516 . S
C1275 C1276 1.502 . S
C1275 C1277 1.561 . S
C1275 C1278 1.526 . S
C1276 H1260 0.959 . S
C1276 H1261 0.959 . S
C1276 H1262 0.961 . S
C1276 C1275 1.502 . S
C1277 H1263 0.960 . S
C1277 H1264 0.961 . S
C1277 H1265 0.959 . S
C1277 C1275 1.561 . S
C1278 C1275 1.526 . S
C1278 C1279 1.396 . S
C1278 C1283 1.390 . S
C1279 C1273 1.465 . S
C1279 C1278 1.396 . S
C1279 C1280 1.399 . S
C1280 H1266 0.929 . S
C1280 C1279 1.399 . S
C1280 C1281 1.385 . S
C1281 H1267 0.931 . S
C1281 C1280 1.385 . S
C1281 C1282 1.389 . S
C1282 C1281 1.389 . S
C1282 C1283 1.387 . S
C1283 H1268 0.930 . S
C1283 C1278 1.390 . S
C1283 C1282 1.387 . S
H1284 C1296 0.930 . S
H1285 C1298 0.930 . S
H1286 C1299 0.930 . S
H1287 C1303 0.959 . S
H1288 C1303 0.959 . S
H1289 C1303 0.961 . S
H1290 C1304 0.960 . S
H1291 C1304 0.961 . S
H1292 C1304 0.959 . S
H1293 C1307 0.929 . S
H1294 C1308 0.931 . S
H1295 C1310 0.930 . S
C1296 H1284 0.930 . S
C1296 C1297 1.399 . S
C1296 C1301 1.399 . S
C1297 C1296 1.399 . S
C1297 C1298 1.376 . S
C1298 H1285 0.930 . S
C1298 C1297 1.376 . S
C1298 C1299 1.388 . S
C1299 H1286 0.930 . S
C1299 C1298 1.388 . S
C1299 C1300 1.390 . S
C1300 C1299 1.390 . S
C1300 C1301 1.394 . S
C1300 C1306 1.465 . S
C1301 C1296 1.399 . S
C1301 C1300 1.394 . S
C1301 C1302 1.516 . S
C1302 C1301 1.516 . S
C1302 C1303 1.502 . S
C1302 C1304 1.561 . S
C1302 C1305 1.526 . S
C1303 H1287 0.959 . S
C1303 H1288 0.959 . S
C1303 H1289 0.961 . S
C1303 C1302 1.502 . S
C1304 H1290 0.960 . S
C1304 H1291 0.961 . S
C1304 H1292 0.959 . S
C1304 C1302 1.561 . S
C1305 C1302 1.526 . S
C1305 C1306 1.396 . S
C1305 C1310 1.390 . S
C1306 C1300 1.465 . S
C1306 C1305 1.396 . S
C1306 C1307 1.399 . S
C1307 H1293 0.929 . S
C1307 C1306 1.399 . S
C1307 C1308 1.385 . S
C1308 H1294 0.931 . S
C1308 C1307 1.385 . S
C1308 C1309 1.389 . S
C1309 C1308 1.389 . S
C1309 C1310 1.387 . S
C1310 H1295 0.930 . S
C1310 C1305 1.390 . S
C1310 C1309 1.387 . S
H1311 C1323 0.930 . S
H1312 C1325 0.930 . S
H1313 C1326 0.930 . S
H1314 C1330 0.959 . S
H1315 C1330 0.959 . S
H1316 C1330 0.961 . S
H1317 C1331 0.960 . S
H1318 C1331 0.961 . S
H1319 C1331 0.959 . S
H1320 C1334 0.929 . S
H1321 C1335 0.931 . S
H1322 C1337 0.930 . S
C1323 H1311 0.930 . S
C1323 C1324 1.399 . S
C1323 C1328 1.399 . S
C1324 C1323 1.399 . S
C1324 C1325 1.376 . S
C1325 H1312 0.930 . S
C1325 C1324 1.376 . S
C1325 C1326 1.388 . S
C1326 H1313 0.930 . S
C1326 C1325 1.388 . S
C1326 C1327 1.390 . S
C1327 C1326 1.390 . S
C1327 C1328 1.394 . S
C1327 C1333 1.465 . S
C1328 C1323 1.399 . S
C1328 C1327 1.394 . S
C1328 C1329 1.516 . S
C1329 C1328 1.516 . S
C1329 C1330 1.502 . S
C1329 C1331 1.561 . S
C1329 C1332 1.526 . S
C1330 H1314 0.959 . S
C1330 H1315 0.959 . S
C1330 H1316 0.961 . S
C1330 C1329 1.502 . S
C1331 H1317 0.960 . S
C1331 H1318 0.961 . S
C1331 H1319 0.959 . S
C1331 C1329 1.561 . S
C1332 C1329 1.526 . S
C1332 C1333 1.396 . S
C1332 C1337 1.390 . S
C1333 C1327 1.465 . S
C1333 C1332 1.396 . S
C1333 C1334 1.399 . S
C1334 H1320 0.929 . S
C1334 C1333 1.399 . S
C1334 C1335 1.385 . S
C1335 H1321 0.931 . S
C1335 C1334 1.385 . S
C1335 C1336 1.389 . S
C1336 C1335 1.389 . S
C1336 C1337 1.387 . S
C1337 H1322 0.930 . S
C1337 C1332 1.390 . S
C1337 C1336 1.387 . S
H1338 C1350 0.930 . S
H1339 C1352 0.930 . S
H1340 C1353 0.930 . S
H1341 C1357 0.959 . S
H1342 C1357 0.959 . S
H1343 C1357 0.961 . S
H1344 C1358 0.960 . S
H1345 C1358 0.961 . S
H1346 C1358 0.959 . S
H1347 C1361 0.929 . S
H1348 C1362 0.931 . S
H1349 C1364 0.930 . S
C1350 H1338 0.930 . S
C1350 C1351 1.399 . S
C1350 C1355 1.399 . S
C1351 C1350 1.399 . S
C1351 C1352 1.376 . S
C1352 H1339 0.930 . S
C1352 C1351 1.376 . S
C1352 C1353 1.388 . S
C1353 H1340 0.930 . S
C1353 C1352 1.388 . S
C1353 C1354 1.390 . S
C1354 C1353 1.390 . S
C1354 C1355 1.394 . S
C1354 C1360 1.465 . S
C1355 C1350 1.399 . S
C1355 C1354 1.394 . S
C1355 C1356 1.516 . S
C1356 C1355 1.516 . S
C1356 C1357 1.502 . S
C1356 C1358 1.561 . S
C1356 C1359 1.526 . S
C1357 H1341 0.959 . S
C1357 H1342 0.959 . S
C1357 H1343 0.961 . S
C1357 C1356 1.502 . S
C1358 H1344 0.960 . S
C1358 H1345 0.961 . S
C1358 H1346 0.959 . S
C1358 C1356 1.561 . S
C1359 C1356 1.526 . S
C1359 C1360 1.396 . S
C1359 C1364 1.390 . S
C1360 C1354 1.465 . S
C1360 C1359 1.396 . S
C1360 C1361 1.399 . S
C1361 H1347 0.929 . S
C1361 C1360 1.399 . S
C1361 C1362 1.385 . S
C1362 H1348 0.931 . S
C1362 C1361 1.385 . S
C1362 C1363 1.389 . S
C1363 C1362 1.389 . S
C1363 C1364 1.387 . S
C1364 H1349 0.930 . S
C1364 C1359 1.390 . S
C1364 C1363 1.387 . S
H1365 C1377 0.930 . S
H1366 C1379 0.930 . S
H1367 C1380 0.930 . S
H1368 C1384 0.959 . S
H1369 C1384 0.959 . S
H1370 C1384 0.961 . S
H1371 C1385 0.960 . S
H1372 C1385 0.961 . S
H1373 C1385 0.959 . S
H1374 C1388 0.929 . S
H1375 C1389 0.931 . S
H1376 C1391 0.930 . S
C1377 H1365 0.930 . S
C1377 C1378 1.399 . S
C1377 C1382 1.399 . S
C1378 C1377 1.399 . S
C1378 C1379 1.376 . S
C1379 H1366 0.930 . S
C1379 C1378 1.376 . S
C1379 C1380 1.388 . S
C1380 H1367 0.930 . S
C1380 C1379 1.388 . S
C1380 C1381 1.390 . S
C1381 C1380 1.390 . S
C1381 C1382 1.394 . S
C1381 C1387 1.465 . S
C1382 C1377 1.399 . S
C1382 C1381 1.394 . S
C1382 C1383 1.516 . S
C1383 C1382 1.516 . S
C1383 C1384 1.502 . S
C1383 C1385 1.561 . S
C1383 C1386 1.526 . S
C1384 H1368 0.959 . S
C1384 H1369 0.959 . S
C1384 H1370 0.961 . S
C1384 C1383 1.502 . S
C1385 H1371 0.960 . S
C1385 H1372 0.961 . S
C1385 H1373 0.959 . S
C1385 C1383 1.561 . S
C1386 C1383 1.526 . S
C1386 C1387 1.396 . S
C1386 C1391 1.390 . S
C1387 C1381 1.465 . S
C1387 C1386 1.396 . S
C1387 C1388 1.399 . S
C1388 H1374 0.929 . S
C1388 C1387 1.399 . S
C1388 C1389 1.385 . S
C1389 H1375 0.931 . S
C1389 C1388 1.385 . S
C1389 C1390 1.389 . S
C1390 C1389 1.389 . S
C1390 C1391 1.387 . S
C1391 H1376 0.930 . S
C1391 C1386 1.390 . S
C1391 C1390 1.387 . S
H1392 C1404 0.930 1_565 S
H1393 C1406 0.930 . S
H1394 C1407 0.930 . S
H1395 C1411 0.959 1_545 S
H1396 C1411 0.959 1_554 S
H1397 C1411 0.961 . S
H1398 C1412 0.960 1_556 S
H1399 C1412 0.961 . S
H1400 C1412 0.959 . S
H1401 C1415 0.929 . S
H1402 C1416 0.931 . S
H1403 C1418 0.930 1_565 S
C1404 H1392 0.930 1_545 S
C1404 C1405 1.399 . S
C1404 C1409 1.399 . S
C1405 C1404 1.399 . S
C1405 C1406 1.376 . S
C1406 H1393 0.930 . S
C1406 C1405 1.376 . S
C1406 C1407 1.388 . S
C1407 H1394 0.930 . S
C1407 C1406 1.388 . S
C1407 C1408 1.390 . S
C1408 C1407 1.390 . S
C1408 C1409 1.394 . S
C1408 C1414 1.465 1_556 S
C1409 C1404 1.399 . S
C1409 C1408 1.394 . S
C1409 C1410 1.516 1_545 S
C1410 C1409 1.516 1_565 S
C1410 C1411 1.502 . S
C1410 C1412 1.561 1_556 S
C1410 C1413 1.526 1_566 S
C1411 H1395 0.959 1_565 S
C1411 H1396 0.959 1_556 S
C1411 H1397 0.961 . S
C1411 C1410 1.502 . S
C1412 H1398 0.960 1_554 S
C1412 H1399 0.961 . S
C1412 H1400 0.959 . S
C1412 C1410 1.561 1_554 S
C1413 C1410 1.526 1_544 S
C1413 C1414 1.396 . S
C1413 C1418 1.390 . S
C1414 C1408 1.465 1_554 S
C1414 C1413 1.396 . S
C1414 C1415 1.399 . S
C1415 H1401 0.929 . S
C1415 C1414 1.399 . S
C1415 C1416 1.385 . S
C1416 H1402 0.931 . S
C1416 C1415 1.385 . S
C1416 C1417 1.389 . S
C1417 C1416 1.389 . S
C1417 C1418 1.387 . S
C1418 H1403 0.930 1_545 S
C1418 C1413 1.390 . S
C1418 C1417 1.387 . S
H1419 C1431 0.930 . S
H1420 C1433 0.930 . S
H1421 C1434 0.930 . S
H1422 C1438 0.959 . S
H1423 C1438 0.959 . S
H1424 C1438 0.961 . S
H1425 C1439 0.960 . S
H1426 C1439 0.961 . S
H1427 C1439 0.959 . S
H1428 C1442 0.929 . S
H1429 C1443 0.931 . S
H1430 C1445 0.930 . S
C1431 H1419 0.930 . S
C1431 C1432 1.399 . S
C1431 C1436 1.399 . S
C1432 C1431 1.399 . S
C1432 C1433 1.376 . S
C1433 H1420 0.930 . S
C1433 C1432 1.376 . S
C1433 C1434 1.388 . S
C1434 H1421 0.930 . S
C1434 C1433 1.388 . S
C1434 C1435 1.390 . S
C1435 C1434 1.390 . S
C1435 C1436 1.394 . S
C1435 C1441 1.465 . S
C1436 C1431 1.399 . S
C1436 C1435 1.394 . S
C1436 C1437 1.516 . S
C1437 C1436 1.516 . S
C1437 C1438 1.502 . S
C1437 C1439 1.561 . S
C1437 C1440 1.526 . S
C1438 H1422 0.959 . S
C1438 H1423 0.959 . S
C1438 H1424 0.961 . S
C1438 C1437 1.502 . S
C1439 H1425 0.960 . S
C1439 H1426 0.961 . S
C1439 H1427 0.959 . S
C1439 C1437 1.561 . S
C1440 C1437 1.526 . S
C1440 C1441 1.396 . S
C1440 C1445 1.390 . S
C1441 C1435 1.465 . S
C1441 C1440 1.396 . S
C1441 C1442 1.399 . S
C1442 H1428 0.929 . S
C1442 C1441 1.399 . S
C1442 C1443 1.385 . S
C1443 H1429 0.931 . S
C1443 C1442 1.385 . S
C1443 C1444 1.389 . S
C1444 C1443 1.389 . S
C1444 C1445 1.387 . S
C1445 H1430 0.930 . S
C1445 C1440 1.390 . S
C1445 C1444 1.387 . S
H1446 C1458 0.930 . S
H1447 C1460 0.930 . S
H1448 C1461 0.930 . S
H1449 C1465 0.959 . S
H1450 C1465 0.959 . S
H1451 C1465 0.961 1_554 S
H1452 C1466 0.960 . S
H1453 C1466 0.961 1_556 S
H1454 C1466 0.959 . S
H1455 C1469 0.929 . S
H1456 C1470 0.931 . S
H1457 C1472 0.930 . S
C1458 H1446 0.930 . S
C1458 C1459 1.399 . S
C1458 C1463 1.399 . S
C1459 C1458 1.399 . S
C1459 C1460 1.376 . S
C1460 H1447 0.930 . S
C1460 C1459 1.376 . S
C1460 C1461 1.388 . S
C1461 H1448 0.930 . S
C1461 C1460 1.388 . S
C1461 C1462 1.390 . S
C1462 C1461 1.390 . S
C1462 C1463 1.394 . S
C1462 C1468 1.465 1_554 S
C1463 C1458 1.399 . S
C1463 C1462 1.394 . S
C1463 C1464 1.516 1_554 S
C1464 C1463 1.516 1_556 S
C1464 C1465 1.502 . S
C1464 C1466 1.561 1_556 S
C1464 C1467 1.526 . S
C1465 H1449 0.959 . S
C1465 H1450 0.959 . S
C1465 H1451 0.961 1_556 S
C1465 C1464 1.502 . S
C1466 H1452 0.960 . S
C1466 H1453 0.961 1_554 S
C1466 H1454 0.959 . S
C1466 C1464 1.561 1_554 S
C1467 C1464 1.526 . S
C1467 C1468 1.396 . S
C1467 C1472 1.390 . S
C1468 C1462 1.465 1_556 S
C1468 C1467 1.396 . S
C1468 C1469 1.399 . S
C1469 H1455 0.929 . S
C1469 C1468 1.399 . S
C1469 C1470 1.385 . S
C1470 H1456 0.931 . S
C1470 C1469 1.385 . S
C1470 C1471 1.389 . S
C1471 C1470 1.389 . S
C1471 C1472 1.387 . S
C1472 H1457 0.930 . S
C1472 C1467 1.390 . S
C1472 C1471 1.387 . S
H1473 C1485 0.930 . S
H1474 C1487 0.930 . S
H1475 C1488 0.930 . S
H1476 C1492 0.959 1_655 S
H1477 C1492 0.959 . S
H1478 C1492 0.961 . S
H1479 C1493 0.960 . S
H1480 C1493 0.961 . S
H1481 C1493 0.959 . S
H1482 C1496 0.929 . S
H1483 C1497 0.931 . S
H1484 C1499 0.930 . S
C1485 H1473 0.930 . S
C1485 C1486 1.399 . S
C1485 C1490 1.399 . S
C1486 C1485 1.399 . S
C1486 C1487 1.376 . S
C1487 H1474 0.930 . S
C1487 C1486 1.376 . S
C1487 C1488 1.388 . S
C1488 H1475 0.930 . S
C1488 C1487 1.388 . S
C1488 C1489 1.390 . S
C1489 C1488 1.390 . S
C1489 C1490 1.394 . S
C1489 C1495 1.465 . S
C1490 C1485 1.399 . S
C1490 C1489 1.394 . S
C1490 C1491 1.516 . S
C1491 C1490 1.516 . S
C1491 C1492 1.502 . S
C1491 C1493 1.561 . S
C1491 C1494 1.526 . S
C1492 H1476 0.959 1_455 S
C1492 H1477 0.959 . S
C1492 H1478 0.961 . S
C1492 C1491 1.502 . S
C1493 H1479 0.960 . S
C1493 H1480 0.961 . S
C1493 H1481 0.959 . S
C1493 C1491 1.561 . S
C1494 C1491 1.526 . S
C1494 C1495 1.396 . S
C1494 C1499 1.390 . S
C1495 C1489 1.465 . S
C1495 C1494 1.396 . S
C1495 C1496 1.399 . S
C1496 H1482 0.929 . S
C1496 C1495 1.399 . S
C1496 C1497 1.385 . S
C1497 H1483 0.931 . S
C1497 C1496 1.385 . S
C1497 C1498 1.389 . S
C1498 C1497 1.389 . S
C1498 C1499 1.387 . S
C1499 H1484 0.930 . S
C1499 C1494 1.390 . S
C1499 C1498 1.387 . S
H1500 C1512 0.930 . S
H1501 C1514 0.930 1_545 S
H1502 C1515 0.930 . S
H1503 C1519 0.959 . S
H1504 C1519 0.959 1_556 S
H1505 C1519 0.961 . S
H1506 C1520 0.960 1_554 S
H1507 C1520 0.961 . S
H1508 C1520 0.959 . S
H1509 C1523 0.929 . S
H1510 C1524 0.931 1_545 S
H1511 C1526 0.930 . S
C1512 H1500 0.930 . S
C1512 C1513 1.399 . S
C1512 C1517 1.399 . S
C1513 C1512 1.399 . S
C1513 C1514 1.376 . S
C1514 H1501 0.930 1_565 S
C1514 C1513 1.376 . S
C1514 C1515 1.388 1_565 S
C1515 H1502 0.930 . S
C1515 C1514 1.388 1_545 S
C1515 C1516 1.390 1_545 S
C1516 C1515 1.390 1_565 S
C1516 C1517 1.394 . S
C1516 C1522 1.465 1_554 S
C1517 C1512 1.399 . S
C1517 C1516 1.394 . S
C1517 C1518 1.516 . S
C1518 C1517 1.516 . S
C1518 C1519 1.502 . S
C1518 C1520 1.561 1_554 S
C1518 C1521 1.526 1_554 S
C1519 H1503 0.959 . S
C1519 H1504 0.959 1_554 S
C1519 H1505 0.961 . S
C1519 C1518 1.502 . S
C1520 H1506 0.960 1_556 S
C1520 H1507 0.961 . S
C1520 H1508 0.959 . S
C1520 C1518 1.561 1_556 S
C1521 C1518 1.526 1_556 S
C1521 C1522 1.396 . S
C1521 C1526 1.390 . S
C1522 C1516 1.465 1_556 S
C1522 C1521 1.396 . S
C1522 C1523 1.399 1_565 S
C1523 H1509 0.929 . S
C1523 C1522 1.399 1_545 S
C1523 C1524 1.385 1_545 S
C1524 H1510 0.931 1_565 S
C1524 C1523 1.385 1_565 S
C1524 C1525 1.389 . S
C1525 C1524 1.389 . S
C1525 C1526 1.387 . S
C1526 H1511 0.930 . S
C1526 C1521 1.390 . S
C1526 C1525 1.387 . S
H1527 C1539 0.930 . S
H1528 C1541 0.930 . S
H1529 C1542 0.930 . S
H1530 C1546 0.959 . S
H1531 C1546 0.959 . S
H1532 C1546 0.961 . S
H1533 C1547 0.960 . S
H1534 C1547 0.961 . S
H1535 C1547 0.959 . S
H1536 C1550 0.929 . S
H1537 C1551 0.931 . S
H1538 C1553 0.930 . S
C1539 H1527 0.930 . S
C1539 C1540 1.399 . S
C1539 C1544 1.399 . S
C1540 C1539 1.399 . S
C1540 C1541 1.376 . S
C1541 H1528 0.930 . S
C1541 C1540 1.376 . S
C1541 C1542 1.388 . S
C1542 H1529 0.930 . S
C1542 C1541 1.388 . S
C1542 C1543 1.390 . S
C1543 C1542 1.390 . S
C1543 C1544 1.394 . S
C1543 C1549 1.465 . S
C1544 C1539 1.399 . S
C1544 C1543 1.394 . S
C1544 C1545 1.516 . S
C1545 C1544 1.516 . S
C1545 C1546 1.502 . S
C1545 C1547 1.561 . S
C1545 C1548 1.526 . S
C1546 H1530 0.959 . S
C1546 H1531 0.959 . S
C1546 H1532 0.961 . S
C1546 C1545 1.502 . S
C1547 H1533 0.960 . S
C1547 H1534 0.961 . S
C1547 H1535 0.959 . S
C1547 C1545 1.561 . S
C1548 C1545 1.526 . S
C1548 C1549 1.396 . S
C1548 C1553 1.390 . S
C1549 C1543 1.465 . S
C1549 C1548 1.396 . S
C1549 C1550 1.399 . S
C1550 H1536 0.929 . S
C1550 C1549 1.399 . S
C1550 C1551 1.385 . S
C1551 H1537 0.931 . S
C1551 C1550 1.385 . S
C1551 C1552 1.389 . S
C1552 C1551 1.389 . S
C1552 C1553 1.387 . S
C1553 H1538 0.930 . S
C1553 C1548 1.390 . S
C1553 C1552 1.387 . S
H1554 C1566 0.930 . S
H1555 C1568 0.930 . S
H1556 C1569 0.930 . S
H1557 C1573 0.959 . S
H1558 C1573 0.959 1_556 S
H1559 C1573 0.961 . S
H1560 C1574 0.960 . S
H1561 C1574 0.961 1_556 S
H1562 C1574 0.959 . S
H1563 C1577 0.929 . S
H1564 C1578 0.931 . S
H1565 C1580 0.930 . S
C1566 H1554 0.930 . S
C1566 C1567 1.399 . S
C1566 C1571 1.399 . S
C1567 C1566 1.399 . S
C1567 C1568 1.376 . S
C1568 H1555 0.930 . S
C1568 C1567 1.376 . S
C1568 C1569 1.388 . S
C1569 H1556 0.930 . S
C1569 C1568 1.388 . S
C1569 C1570 1.390 . S
C1570 C1569 1.390 . S
C1570 C1571 1.394 . S
C1570 C1576 1.465 1_554 S
C1571 C1566 1.399 . S
C1571 C1570 1.394 . S
C1571 C1572 1.516 . S
C1572 C1571 1.516 . S
C1572 C1573 1.502 . S
C1572 C1574 1.561 . S
C1572 C1575 1.526 1_554 S
C1573 H1557 0.959 . S
C1573 H1558 0.959 1_554 S
C1573 H1559 0.961 . S
C1573 C1572 1.502 . S
C1574 H1560 0.960 . S
C1574 H1561 0.961 1_554 S
C1574 H1562 0.959 . S
C1574 C1572 1.561 . S
C1575 C1572 1.526 1_556 S
C1575 C1576 1.396 . S
C1575 C1580 1.390 . S
C1576 C1570 1.465 1_556 S
C1576 C1575 1.396 . S
C1576 C1577 1.399 . S
C1577 H1563 0.929 . S
C1577 C1576 1.399 . S
C1577 C1578 1.385 . S
C1578 H1564 0.931 . S
C1578 C1577 1.385 . S
C1578 C1579 1.389 . S
C1579 C1578 1.389 . S
C1579 C1580 1.387 . S
C1580 H1565 0.930 . S
C1580 C1575 1.390 . S
C1580 C1579 1.387 . S
H1581 C1593 0.930 . S
H1582 C1595 0.930 . S
H1583 C1596 0.930 . S
H1584 C1600 0.959 . S
H1585 C1600 0.959 . S
H1586 C1600 0.961 . S
H1587 C1601 0.960 . S
H1588 C1601 0.961 . S
H1589 C1601 0.959 . S
H1590 C1604 0.929 . S
H1591 C1605 0.931 . S
H1592 C1607 0.930 . S
C1593 H1581 0.930 . S
C1593 C1594 1.399 . S
C1593 C1598 1.399 . S
C1594 C1593 1.399 . S
C1594 C1595 1.376 . S
C1595 H1582 0.930 . S
C1595 C1594 1.376 . S
C1595 C1596 1.388 . S
C1596 H1583 0.930 . S
C1596 C1595 1.388 . S
C1596 C1597 1.390 . S
C1597 C1596 1.390 . S
C1597 C1598 1.394 . S
C1597 C1603 1.465 . S
C1598 C1593 1.399 . S
C1598 C1597 1.394 . S
C1598 C1599 1.516 . S
C1599 C1598 1.516 . S
C1599 C1600 1.502 1_655 S
C1599 C1601 1.561 . S
C1599 C1602 1.526 . S
C1600 H1584 0.959 . S
C1600 H1585 0.959 . S
C1600 H1586 0.961 . S
C1600 C1599 1.502 1_455 S
C1601 H1587 0.960 . S
C1601 H1588 0.961 . S
C1601 H1589 0.959 . S
C1601 C1599 1.561 . S
C1602 C1599 1.526 . S
C1602 C1603 1.396 . S
C1602 C1607 1.390 . S
C1603 C1597 1.465 . S
C1603 C1602 1.396 . S
C1603 C1604 1.399 . S
C1604 H1590 0.929 . S
C1604 C1603 1.399 . S
C1604 C1605 1.385 . S
C1605 H1591 0.931 . S
C1605 C1604 1.385 . S
C1605 C1606 1.389 . S
C1606 C1605 1.389 . S
C1606 C1607 1.387 . S
C1607 H1592 0.930 . S
C1607 C1602 1.390 . S
C1607 C1606 1.387 . S
C541 N2 2.009 . S
C553 N233 1.991 . S
C568 N134 1.993 . S
C580 N35 1.994 . S
C595 N167 2.009 . S
C607 N68 2.007 . S
C622 N101 2.012 . S
C634 N200 1.995 . S
C649 N266 1.992 . S
C661 N497 2.006 . S
C676 N299 1.997 . S
C688 N398 2.010 . S
C703 N431 2.009 . S
C715 N332 1.997 . S
C730 N365 2.012 . S
C742 N464 2.003 . S
C757 C7 0.868 . S
C769 C318 0.915 . S
C784 C351 0.745 . S
C796 C40 0.841 . S
C811 C384 0.789 . S
C823 C73 0.833 . S
C838 C285 0.904 . S
C850 C106 0.873 . S
C865 C516 0.858 . S
C877 C139 0.866 . S
C892 C417 0.919 . S
C904 C172 0.869 . S
C919 C450 0.810 . S
C931 C205 0.857 . S
C946 C483 0.713 . S
C958 C238 0.829 . S
C973 C54 0.750 . S
C985 C271 0.825 . S
C1000 C87 0.836 . S
C1012 C304 0.871 . S
C1027 C120 0.733 . S
C1039 C337 0.852 . S
C1054 C370 0.840 . S
C1066 C21 0.715 . S
C1081 C252 0.882 . S
C1093 C403 0.840 . S
C1108 C153 0.919 . S
C1120 C436 0.862 . S
C1135 C186 0.712 . S
C1147 C469 0.840 . S
C1162 C219 0.765 . S
C1174 C502 0.861 . S
C1189 N79 1.035 . S
C1201 N13 0.988 . S
C1216 N46 1.037 . S
C1228 N112 1.017 . S
C1243 N211 1.024 . S
C1255 N145 1.034 . S
C1270 N244 0.856 . S
C1282 N178 0.913 . S
C1297 N343 0.963 . S
C1309 N277 1.037 . S
C1324 N376 0.945 . S
C1336 N310 0.853 . S
C1351 N409 0.926 . S
C1363 N475 0.854 . S
C1378 N508 0.921 . S
C1390 N442 0.855 . S
C1405 C216 1.267 . S
C1417 C18 1.237 . S
C1432 C249 1.239 . S
C1444 C51 1.279 . S
C1459 C84 1.267 . S
C1471 C150 1.292 . S
C1486 C183 1.241 . S
C1498 C117 1.282 . S
C1513 C480 1.292 . S
C1525 C282 1.275 . S
C1540 C513 1.263 . S
C1552 C315 1.288 . S
C1567 C414 1.262 . S
C1579 C348 1.239 . S
C1594 C381 1.262 . S
C1606 C447 1.239 . S
