# Generated by pormake.
# Topology upa, (4)-cn, num edge types: 1
# Building blocks:
#     Node 0, Type 0, BuildingBlock: KUFVIS_clean_sbu_0, # of connection points: 4
#     Node 1, Type 0, BuildingBlock: KUFVIS_clean_sbu_0, # of connection points: 4
#     Node 2, Type 0, BuildingBlock: KUFVIS_clean_sbu_0, # of connection points: 4
#     Node 3, Type 0, BuildingBlock: KUFVIS_clean_sbu_0, # of connection points: 4
#     Node 4, Type 0, BuildingBlock: KUFVIS_clean_sbu_0, # of connection points: 4
#     Node 5, Type 0, BuildingBlock: KUFVIS_clean_sbu_0, # of connection points: 4
#     Node 6, Type 0, BuildingBlock: KUFVIS_clean_sbu_0, # of connection points: 4
#     Node 7, Type 0, BuildingBlock: KUFVIS_clean_sbu_0, # of connection points: 4
#     Edge 8, Type (0, 0), BuildingBlock: KIFKEQ_clean_linker_1, # of connection points: 2
#     Edge 9, Type (0, 0), BuildingBlock: KIFKEQ_clean_linker_1, # of connection points: 2
#     Edge 10, Type (0, 0), BuildingBlock: KIFKEQ_clean_linker_1, # of connection points: 2
#     Edge 11, Type (0, 0), BuildingBlock: KIFKEQ_clean_linker_1, # of connection points: 2
#     Edge 12, Type (0, 0), BuildingBlock: KIFKEQ_clean_linker_1, # of connection points: 2
#     Edge 13, Type (0, 0), BuildingBlock: KIFKEQ_clean_linker_1, # of connection points: 2
#     Edge 14, Type (0, 0), BuildingBlock: KIFKEQ_clean_linker_1, # of connection points: 2
#     Edge 15, Type (0, 0), BuildingBlock: KIFKEQ_clean_linker_1, # of connection points: 2
#     Edge 16, Type (0, 0), BuildingBlock: KIFKEQ_clean_linker_1, # of connection points: 2
#     Edge 17, Type (0, 0), BuildingBlock: KIFKEQ_clean_linker_1, # of connection points: 2
#     Edge 18, Type (0, 0), BuildingBlock: KIFKEQ_clean_linker_1, # of connection points: 2
#     Edge 19, Type (0, 0), BuildingBlock: KIFKEQ_clean_linker_1, # of connection points: 2
#     Edge 20, Type (0, 0), BuildingBlock: KIFKEQ_clean_linker_1, # of connection points: 2
#     Edge 21, Type (0, 0), BuildingBlock: KIFKEQ_clean_linker_1, # of connection points: 2
#     Edge 22, Type (0, 0), BuildingBlock: KIFKEQ_clean_linker_1, # of connection points: 2
#     Edge 23, Type (0, 0), BuildingBlock: KIFKEQ_clean_linker_1, # of connection points: 2
# Relax obj value: 0.188
# Max RMSD: 0.139
# Mean RMSD: 0.139
data_MOF--net-upa--node1-KUFVIS_clean_sbu_0--edge1-KIFKEQ_clean_linker_1
_symmetry_space_group_name_H-M    P1
_symmetry_Int_Tables_number       1
_symmetry_cell_setting            triclinic
loop_
_symmetry_equiv_pos_as_xyz
'x, y, z'
_cell_length_a     25.809388
_cell_length_b     25.78204
_cell_length_c     44.305326
_cell_angle_alpha  89.975819
_cell_angle_beta   89.991638
_cell_angle_gamma 89.977909
loop_
_atom_site_label
_atom_site_type_symbol
_atom_site_fract_x
_atom_site_fract_y
_atom_site_fract_z
_atom_type_partial_charge
Mn0 Mn 0.19729 0.20926 0.35104 0.0
Mn1 Mn 0.25898 0.10316 0.37721 0.0
C2 C 0.15115 0.14221 0.37263 0.0
C3 C 0.14954 0.24959 0.31245 0.0
C4 C 0.25305 0.20426 0.41215 0.0
O5 O 0.26919 0.21597 0.3313 0.0
O6 O 0.30535 0.14269 0.34961 0.0
C7 C 0.26691 0.04607 0.31941 0.0
N8 N 0.25025 0.04841 0.34855 0.0
C9 C 0.20954 0.96472 0.3445 0.0
C10 C 0.22664 0.96125 0.31453 0.0
C11 C 0.25544 1.00212 0.30194 0.0
C12 C 0.22262 1.00924 0.36092 0.0
H13 H 0.28857 0.0776 0.30952 0.0
C14 C 0.30723 0.18412 0.33358 0.0
O15 O 0.16976 0.27659 0.3343 0.0
O16 O 0.16238 0.20118 0.31136 0.0
N17 N 0.21795 0.06127 0.40374 0.0
C18 C 0.20261 0.07154 0.43257 0.0
C19 C 0.17241 0.03501 0.44817 0.0
C20 C 0.15844 0.98831 0.43404 0.0
C21 C 0.17522 0.97834 0.4045 0.0
C22 C 0.20575 0.01593 0.39019 0.0
H23 H 0.21284 0.10755 0.44347 0.0
O24 O 0.13161 0.18831 0.37116 0.0
O25 O 0.19715 0.13654 0.36114 0.0
O26 O 0.22705 0.22988 0.39253 0.0
O27 O 0.26784 0.15736 0.4083 0.0
C28 C 0.16204 0.93301 0.38851 0.0
C29 C 0.17919 0.92621 0.35853 0.0
H30 H 0.2175 0.92761 0.30089 0.0
H31 H 0.2685 0.99986 0.27877 0.0
H32 H 0.1596 0.04301 0.47096 0.0
H33 H 0.1346 0.96052 0.44601 0.0
H34 H 0.13827 0.90338 0.39894 0.0
H35 H 0.16836 0.89143 0.34636 0.0
Mn36 Mn 0.30552 0.69314 0.85151 0.0
Mn37 Mn 0.4127 0.75375 0.87688 0.0
C38 C 0.37312 0.64605 0.87177 0.0
C39 C 0.26297 0.64697 0.81329 0.0
C40 C 0.31286 0.74758 0.91292 0.0
O41 O 0.29838 0.76573 0.83251 0.0
O42 O 0.37263 0.80088 0.84999 0.0
C43 C 0.46805 0.76246 0.81855 0.0
N44 N 0.4665 0.74527 0.84761 0.0
C45 C 0.54982 0.70424 0.84246 0.0
C46 C 0.55248 0.72188 0.81256 0.0
C47 C 0.5114 0.7511 0.80056 0.0
C48 C 0.50588 0.71721 0.8594 0.0
H49 H 0.43636 0.78448 0.80911 0.0
C50 C 0.33065 0.80345 0.83454 0.0
O51 O 0.2374 0.66647 0.83591 0.0
O52 O 0.31138 0.65939 0.81129 0.0
N53 N 0.45514 0.71198 0.90272 0.0
C54 C 0.44573 0.69626 0.93158 0.0
C55 C 0.48261 0.66569 0.94665 0.0
C56 C 0.52878 0.65174 0.93196 0.0
C57 C 0.53789 0.66894 0.9024 0.0
C58 C 0.5 0.69984 0.88864 0.0
H59 H 0.41014 0.70649 0.94292 0.0
O60 O 0.32697 0.62671 0.87068 0.0
O61 O 0.37858 0.69239 0.86064 0.0
O62 O 0.28669 0.72181 0.8935 0.0
O63 O 0.35956 0.76244 0.90862 0.0
C64 C 0.58265 0.65585 0.88587 0.0
C65 C 0.58861 0.67348 0.85592 0.0
H66 H 0.58565 0.71283 0.79853 0.0
H67 H 0.51302 0.76459 0.77745 0.0
H68 H 0.47528 0.65256 0.96946 0.0
H69 H 0.55683 0.62759 0.94352 0.0
H70 H 0.61248 0.63178 0.89587 0.0
H71 H 0.62296 0.66272 0.84334 0.0
Mn72 Mn 0.82556 0.81065 0.35098 0.0
Mn73 Mn 0.76389 0.91598 0.37816 0.0
C74 C 0.87178 0.87744 0.37276 0.0
C75 C 0.87286 0.77118 0.31198 0.0
C76 C 0.77063 0.81415 0.41235 0.0
O77 O 0.75341 0.80413 0.33155 0.0
O78 O 0.71731 0.87695 0.35049 0.0
C79 C 0.755 0.97436 0.32082 0.0
N80 N 0.77206 0.97141 0.34986 0.0
C81 C 0.81242 0.05533 0.34623 0.0
C82 C 0.7949 0.05943 0.31637 0.0
C83 C 0.76608 0.01876 0.30362 0.0
C84 C 0.79972 1.01039 0.36238 0.0
H85 H 0.73332 0.94299 0.3108 0.0
C86 C 0.71534 0.83586 0.3342 0.0
O87 O 0.85298 0.74372 0.33375 0.0
O88 O 0.8599 0.81958 0.3112 0.0
N89 N 0.80515 0.95739 0.4048 0.0
C90 C 0.82095 0.9465 0.43346 0.0
C91 C 0.85124 0.98277 0.44919 0.0
C92 C 0.86484 0.02984 0.43533 0.0
C93 C 0.84762 0.04044 0.40596 0.0
C94 C 0.81701 1.00309 0.39152 0.0
H95 H 0.81099 0.9102 0.44415 0.0
O96 O 0.89146 0.83144 0.37091 0.0
O97 O 0.8256 0.88317 0.36155 0.0
O98 O 0.79653 0.78907 0.39247 0.0
O99 O 0.75558 0.86106 0.4089 0.0
C100 C 0.86042 0.08619 0.39024 0.0
C101 C 0.84283 0.09363 0.3604 0.0
H102 H 0.80374 0.09342 0.30294 0.0
H103 H 0.7527 0.0215 0.28053 0.0
H104 H 0.8644 0.97428 0.47185 0.0
H105 H 0.88876 0.05744 0.4474 0.0
H106 H 0.88423 0.11565 0.40077 0.0
H107 H 0.85337 0.12872 0.34844 0.0
Mn108 Mn 0.71153 0.32685 0.8514 0.0
Mn109 Mn 0.60865 0.26217 0.87929 0.0
C110 C 0.64336 0.37113 0.87296 0.0
C111 C 0.75001 0.37536 0.81251 0.0
C112 C 0.70914 0.27394 0.91371 0.0
O113 O 0.72005 0.25498 0.8318 0.0
O114 O 0.65153 0.21551 0.85366 0.0
C115 C 0.55405 0.24627 0.82125 0.0
N116 N 0.55457 0.26559 0.84986 0.0
C117 C 0.4692 0.30168 0.84372 0.0
C118 C 0.46763 0.28185 0.81427 0.0
C119 C 0.51025 0.25403 0.803 0.0
C120 C 0.5137 0.2923 0.86096 0.0
H121 H 0.58688 0.22527 0.81237 0.0
C122 C 0.69163 0.21501 0.83658 0.0
O123 O 0.77774 0.35607 0.83434 0.0
O124 O 0.70198 0.36122 0.81162 0.0
N125 N 0.56377 0.30299 0.90418 0.0
C126 C 0.57207 0.32087 0.93272 0.0
C127 C 0.5335 0.35033 0.94708 0.0
C128 C 0.48678 0.3609 0.93202 0.0
C129 C 0.47883 0.34144 0.90284 0.0
C130 C 0.51845 0.31184 0.88979 0.0
H131 H 0.60809 0.31322 0.9443 0.0
O132 O 0.68877 0.39208 0.8713 0.0
O133 O 0.63902 0.32463 0.86186 0.0
O134 O 0.73396 0.29837 0.89307 0.0
O135 O 0.66224 0.25877 0.91091 0.0
C136 C 0.43352 0.35097 0.88599 0.0
C137 C 0.42871 0.33112 0.85646 0.0
H138 H 0.43407 0.28808 0.80003 0.0
H139 H 0.50944 0.23884 0.78023 0.0
H140 H 0.53992 0.3652 0.9696 0.0
H141 H 0.45738 0.38417 0.94302 0.0
H142 H 0.40233 0.37394 0.89543 0.0
H143 H 0.39387 0.3391 0.84363 0.0
Mn144 Mn 0.69697 0.31089 0.19489 0.0
Mn145 Mn 0.75837 0.41759 0.16937 0.0
C146 C 0.65058 0.37847 0.17399 0.0
C147 C 0.64956 0.26968 0.23327 0.0
C148 C 0.75213 0.31738 0.13361 0.0
O149 O 0.76904 0.30368 0.21437 0.0
O150 O 0.80503 0.37726 0.19642 0.0
C151 C 0.76695 0.47303 0.22768 0.0
N152 N 0.74999 0.47154 0.19858 0.0
C153 C 0.70935 0.55514 0.2036 0.0
C154 C 0.72676 0.55773 0.23354 0.0
C155 C 0.75567 0.51648 0.24562 0.0
C156 C 0.72224 0.51108 0.1867 0.0
H157 H 0.78871 0.4412 0.23719 0.0
C158 C 0.80708 0.33551 0.21215 0.0
O159 O 0.66959 0.24318 0.21115 0.0
O160 O 0.66242 0.31804 0.23473 0.0
N161 N 0.7171 0.46028 0.1434 0.0
C162 C 0.70151 0.45089 0.11452 0.0
C163 C 0.67121 0.48791 0.09938 0.0
C164 C 0.65739 0.53421 0.11402 0.0
C165 C 0.67444 0.54329 0.14359 0.0
C166 C 0.70507 0.50525 0.15743 0.0
H167 H 0.71163 0.41519 0.10323 0.0
O168 O 0.6311 0.33234 0.17514 0.0
O169 O 0.69668 0.38387 0.18537 0.0
O170 O 0.72642 0.29127 0.15314 0.0
O171 O 0.76684 0.36422 0.13776 0.0
C172 C 0.66144 0.58817 0.16007 0.0
C173 C 0.67888 0.59409 0.19005 0.0
H174 H 0.71776 0.59098 0.24753 0.0
H175 H 0.76897 0.51805 0.26876 0.0
H176 H 0.65818 0.4806 0.07656 0.0
H177 H 0.63345 0.56237 0.1024 0.0
H178 H 0.63759 0.61813 0.15002 0.0
H179 H 0.66819 0.62853 0.2026 0.0
Mn180 Mn 0.21123 0.19504 0.69396 0.0
Mn181 Mn 0.10834 0.25967 0.66602 0.0
C182 C 0.1432 0.15073 0.67232 0.0
C183 C 0.24967 0.1465 0.73286 0.0
C184 C 0.20899 0.24812 0.6317 0.0
O185 O 0.21957 0.26688 0.71362 0.0
O186 O 0.15105 0.30633 0.69172 0.0
C187 C 0.05351 0.27539 0.72402 0.0
N188 N 0.05416 0.25613 0.6954 0.0
C189 C 0.96886 0.21989 0.70144 0.0
C190 C 0.96715 0.23966 0.7309 0.0
C191 C 1.00967 0.26752 0.74223 0.0
C192 C 0.0134 0.22937 0.68424 0.0
H193 H 0.08627 0.29641 0.73294 0.0
C194 C 0.19111 0.30684 0.70884 0.0
O195 O 0.27744 0.16586 0.71107 0.0
O196 O 0.20161 0.16059 0.73372 0.0
N197 N 0.06363 0.21884 0.64106 0.0
C198 C 0.07206 0.20103 0.61252 0.0
C199 C 0.0336 0.17154 0.59811 0.0
C200 C 0.98686 0.16087 0.61312 0.0
C201 C 0.97877 0.18026 0.6423 0.0
C202 C 0.01828 0.2099 0.6554 0.0
H203 H 0.1081 0.20875 0.60097 0.0
O204 O 0.18865 0.12983 0.674 0.0
O205 O 0.13876 0.19721 0.68344 0.0
O206 O 0.23377 0.22366 0.65236 0.0
O207 O 0.16204 0.26321 0.63446 0.0
C208 C 0.93343 0.17062 0.6591 0.0
C209 C 0.92848 0.19041 0.68864 0.0
H210 H 0.93357 0.23334 0.7451 0.0
H211 H 1.00876 0.28266 0.765 0.0
H212 H 0.04013 0.15672 0.57558 0.0
H213 H 0.95755 0.13757 0.60207 0.0
H214 H 0.90233 0.14762 0.64961 0.0
H215 H 0.89363 0.18234 0.70143 0.0
Mn216 Mn 0.32592 0.71264 0.19474 0.0
Mn217 Mn 0.26452 0.60683 0.16808 0.0
C218 C 0.37238 0.64537 0.17359 0.0
C219 C 0.37287 0.75287 0.2336 0.0
C220 C 0.27157 0.70798 0.13323 0.0
O221 O 0.25358 0.71961 0.21393 0.0
O222 O 0.21767 0.6465 0.1953 0.0
C223 C 0.25499 0.5497 0.22581 0.0
N224 N 0.27236 0.55201 0.19681 0.0
C225 C 0.31266 0.46814 0.20119 0.0
C226 C 0.29483 0.4647 0.23102 0.0
C227 C 0.26588 0.50568 0.24337 0.0
C228 C 0.30014 0.51273 0.18467 0.0
H229 H 0.23321 0.58131 0.23553 0.0
C230 C 0.21552 0.68788 0.21134 0.0
O231 O 0.35318 0.7799 0.21158 0.0
O232 O 0.35987 0.7045 0.23468 0.0
N233 N 0.30603 0.56481 0.14189 0.0
C234 C 0.32212 0.57505 0.1132 0.0
C235 C 0.35255 0.53841 0.09784 0.0
C236 C 0.366 0.49162 0.11208 0.0
C237 C 0.34848 0.48169 0.14148 0.0
C238 C 0.31774 0.51939 0.15554 0.0
H239 H 0.31228 0.61113 0.10221 0.0
O240 O 0.39201 0.69139 0.17517 0.0
O241 O 0.32606 0.63991 0.18468 0.0
O242 O 0.29725 0.73342 0.15303 0.0
O243 O 0.25654 0.66112 0.13692 0.0
C244 C 0.3611 0.43628 0.15758 0.0
C245 C 0.34321 0.42951 0.18741 0.0
H246 H 0.30353 0.43101 0.24473 0.0
H247 H 0.25226 0.50345 0.26644 0.0
H248 H 0.36595 0.54638 0.07516 0.0
H249 H 0.39003 0.46375 0.10031 0.0
H250 H 0.38502 0.40656 0.14735 0.0
H251 H 0.35362 0.39466 0.19967 0.0
Mn252 Mn 0.80574 0.82864 0.69376 0.0
Mn253 Mn 0.91281 0.7679 0.66826 0.0
C254 C 0.8733 0.87565 0.6734 0.0
C255 C 0.76334 0.87488 0.73202 0.0
C256 C 0.81283 0.7741 0.63237 0.0
O257 O 0.79864 0.75608 0.71279 0.0
O258 O 0.87283 0.72083 0.69523 0.0
C259 C 0.96837 0.75918 0.72652 0.0
N260 N 0.96671 0.77636 0.69746 0.0
C261 C 0.05005 0.81734 0.70249 0.0
C262 C 0.05281 0.79972 0.73239 0.0
C263 C 0.01178 0.77052 0.74444 0.0
C264 C 1.00605 0.80439 0.68561 0.0
H265 H 0.93671 0.73719 0.736 0.0
C266 C 0.83089 0.71831 0.71072 0.0
O267 O 0.73768 0.8554 0.70944 0.0
O268 O 0.81174 0.86243 0.73396 0.0
N269 N 0.95515 0.80962 0.64236 0.0
C270 C 0.94564 0.82534 0.61351 0.0
C271 C 0.98245 0.85589 0.59838 0.0
C272 C 0.02867 0.86982 0.61301 0.0
C273 C 0.03789 0.85262 0.64255 0.0
C274 C 1.00006 0.82174 0.65637 0.0
H275 H 0.91 0.81513 0.60222 0.0
O276 O 0.82715 0.89503 0.67453 0.0
O277 O 0.87877 0.82931 0.68454 0.0
O278 O 0.78675 0.79993 0.65181 0.0
O279 O 0.85955 0.75922 0.6366 0.0
C280 C 0.08271 0.8657 0.65902 0.0
C281 C 0.08878 0.84808 0.68897 0.0
H282 H 0.08602 0.80875 0.74637 0.0
H283 H 0.01348 0.75705 0.76756 0.0
H284 H 0.97504 0.86902 0.57558 0.0
H285 H 0.05667 0.89395 0.60141 0.0
H286 H 0.1125 0.88975 0.64898 0.0
H287 H 0.12317 0.85883 0.7015 0.0
H288 H 0.13212 0.06353 0.3343 0.0
H289 H 0.0875 0.12673 0.4206 0.0
H290 H 0.06189 1.00014 0.33762 0.0
H291 H 0.01697 0.06283 0.42409 0.0
H292 H 0.93622 0.89221 0.42043 0.0
H293 H 1.00669 0.9562 0.42383 0.0
H294 H 0.95998 0.02042 0.33804 0.0
H295 H 0.88983 0.95695 0.33481 0.0
C296 C 0.10819 0.06264 0.35439 0.0
C297 C 0.11579 0.09868 0.37762 0.0
C298 C 0.06775 0.027 0.35612 0.0
C299 C 0.03414 0.0271 0.38103 0.0
C300 C 0.04272 0.06202 0.40478 0.0
C301 C 0.08288 0.09825 0.40283 0.0
C302 C 0.94044 0.92105 0.40281 0.0
C303 C 0.90707 0.921 0.3778 0.0
C304 C 0.98056 0.95732 0.4047 0.0
C305 C 0.98861 0.9927 0.38109 0.0
C306 C 0.95452 0.99321 0.35642 0.0
C307 C 0.91413 0.95752 0.35475 0.0
H308 H 0.45078 0.6266 0.83277 0.0
H309 H 0.38964 0.58253 0.91968 0.0
H310 H 0.51497 0.55698 0.83606 0.0
H311 H 0.45442 0.51275 0.92317 0.0
H312 H 0.62677 0.43661 0.91993 0.0
H313 H 0.56088 0.50539 0.9227 0.0
H314 H 0.49791 0.45439 0.83747 0.0
H315 H 0.56332 0.38585 0.83487 0.0
C316 C 0.45222 0.60285 0.85294 0.0
C317 C 0.41665 0.61054 0.8764 0.0
C318 C 0.48831 0.56276 0.85465 0.0
C319 C 0.48918 0.52965 0.8798 0.0
C320 C 0.45449 0.53813 0.90368 0.0
C321 C 0.41777 0.57786 0.90173 0.0
C322 C 0.59783 0.43949 0.9023 0.0
C323 C 0.5988 0.40537 0.87764 0.0
C324 C 0.56045 0.47865 0.90384 0.0
C325 C 0.52482 0.48502 0.88021 0.0
C326 C 0.52527 0.45021 0.85587 0.0
C327 C 0.56208 0.41073 0.85456 0.0
H328 H 0.58694 0.39493 0.12615 0.0
H329 H 0.63146 0.45642 0.21287 0.0
H330 H 0.51681 0.45933 0.1229 0.0
H331 H 0.56161 0.52034 0.20979 0.0
H332 H 0.4371 0.62956 0.12616 0.0
H333 H 0.50717 0.56506 0.12314 0.0
H334 H 0.45996 0.50254 0.20927 0.0
H335 H 0.3902 0.56657 0.21212 0.0
C336 C 0.58235 0.42312 0.14409 0.0
C337 C 0.61518 0.42212 0.16932 0.0
C338 C 0.54242 0.45964 0.14227 0.0
C339 C 0.53394 0.4943 0.16618 0.0
C340 C 0.56736 0.4937 0.19117 0.0
C341 C 0.6076 0.45777 0.19276 0.0
C342 C 0.44115 0.60102 0.14396 0.0
C343 C 0.4077 0.60166 0.16893 0.0
C344 C 0.48104 0.56444 0.14228 0.0
C345 C 0.48883 0.52933 0.16606 0.0
C346 C 0.45475 0.52953 0.19076 0.0
C347 C 0.41457 0.56553 0.19221 0.0
H348 H 0.12679 0.08528 0.62531 0.0
H349 H 0.06313 0.13586 0.71037 0.0
H350 H 0.06103 0.01643 0.6225 0.0
H351 H 0.99786 0.06726 0.70773 0.0
H352 H 0.88976 0.93923 0.62551 0.0
H353 H 0.95449 1.00901 0.62202 0.0
H354 H 0.01516 0.96462 0.70908 0.0
H355 H 0.95103 0.89499 0.71236 0.0
C356 C 0.09784 0.08234 0.64293 0.0
C357 C 0.09872 0.11644 0.6676 0.0
C358 C 0.06053 0.04314 0.64137 0.0
C359 C 0.02488 0.0367 0.66498 0.0
C360 C 0.02523 0.07149 0.68934 0.0
C361 C 0.06197 0.11101 0.69067 0.0
C362 C 0.91791 0.94386 0.64345 0.0
C363 C 0.91683 0.91114 0.66876 0.0
C364 C 0.9546 0.98359 0.6415 0.0
C365 C 0.98931 0.99204 0.66537 0.0
C366 C 0.98849 0.95887 0.6905 0.0
C367 C 0.95243 0.91877 0.6922 0.0
H368 H 0.18996 0.27199 0.44185 0.0
H369 H 0.33142 0.18455 0.45201 0.0
H370 H 0.19008 0.29099 0.49547 0.0
H371 H 0.33372 0.20611 0.50552 0.0
H372 H 0.19651 0.32818 0.59217 0.0
H373 H 0.21949 0.32952 0.53885 0.0
H374 H 0.29253 0.17937 0.54884 0.0
H375 H 0.27235 0.18015 0.60241 0.0
C376 C 0.22225 0.25853 0.45538 0.0
C377 C 0.26047 0.22649 0.4427 0.0
C378 C 0.22249 0.2695 0.48632 0.0
C379 C 0.26157 0.24953 0.50534 0.0
C380 C 0.30209 0.22098 0.49201 0.0
C381 C 0.3012 0.2091 0.46118 0.0
C382 C 0.21886 0.29625 0.58303 0.0
C383 C 0.2326 0.25404 0.60143 0.0
C384 C 0.2315 0.29661 0.55232 0.0
C385 C 0.25699 0.25405 0.539 0.0
C386 C 0.27347 0.21328 0.55799 0.0
C387 C 0.26184 0.21355 0.58888 0.0
H388 H 0.33205 0.82678 0.95233 0.0
H389 H 0.24706 0.6836 0.94335 0.0
H390 H 0.31061 0.82989 1.00585 0.0
H391 H 0.22842 0.6844 0.99701 0.0
H392 H 0.19181 0.69196 0.09383 0.0
H393 H 0.18979 0.71345 0.04029 0.0
H394 H 0.33774 0.79082 0.04947 0.0
H395 H 0.33751 0.77223 0.10315 0.0
C396 C 0.30815 0.79629 0.96178 0.0
C397 C 0.29131 0.75492 0.94364 0.0
C398 C 0.29633 0.79765 0.99262 0.0
C399 C 0.26853 0.7569 1.0063 0.0
C400 C 0.24927 0.71703 0.9876 0.0
C401 C 0.26007 0.71637 0.95664 0.0
C402 C 0.22307 0.71492 0.08445 0.0
C403 C 0.26483 0.73037 0.10268 0.0
C404 C 0.22235 0.72672 0.0536 0.0
C405 C 0.26413 0.75302 0.04 0.0
C406 C 0.30439 0.77111 0.0588 0.0
C407 C 0.30443 0.76037 0.08978 0.0
H408 H 0.74661 0.83786 0.60205 0.0
H409 H 0.83203 0.69488 0.59295 0.0
H410 H 0.7276 0.8369 0.54845 0.0
H411 H 0.81023 0.69161 0.53949 0.0
H412 H 0.83667 0.74967 0.44219 0.0
H413 H 0.83705 0.73079 0.49583 0.0
H414 H 0.68882 0.80765 0.50524 0.0
H415 H 0.69068 0.82943 0.45175 0.0
C416 C 0.75964 0.8051 0.58875 0.0
C417 C 0.79111 0.76667 0.6017 0.0
C418 C 0.74862 0.80434 0.55782 0.0
C419 C 0.7679 0.76449 0.5391 0.0
C420 C 0.79593 0.72384 0.55274 0.0
C421 C 0.80796 0.72529 0.58354 0.0
C422 C 0.80355 0.76133 0.4556 0.0
C423 C 0.76384 0.79131 0.44278 0.0
C424 C 0.8036 0.75043 0.48656 0.0
C425 C 0.76333 0.76835 0.50542 0.0
C426 C 0.72139 0.79454 0.49188 0.0
C427 C 0.72202 0.80649 0.46106 0.0
H428 H 0.77176 0.34238 0.94311 0.0
H429 H 0.69696 0.19388 0.95327 0.0
H430 H 0.79151 0.34342 0.99674 0.0
H431 H 0.71952 0.19279 1.00664 0.0
H432 H 0.68934 0.24972 0.10365 0.0
H433 H 0.68963 0.23109 0.04999 0.0
H434 H 0.83262 0.31704 0.04013 0.0
H435 H 0.83013 0.33822 0.09369 0.0
C436 C 0.7614 0.30894 0.95664 0.0
C437 C 0.73258 0.26822 0.94404 0.0
C438 C 0.77277 0.30936 0.98756 0.0
C439 C 0.75646 0.26851 1.00654 0.0
C440 C 0.73139 0.22576 0.99319 0.0
C441 C 0.71899 0.22597 0.96244 0.0
C442 C 0.72151 0.26353 0.09015 0.0
C443 C 0.7595 0.29571 0.10291 0.0
C444 C 0.72186 0.25276 0.05918 0.0
C445 C 0.76082 0.27308 0.04021 0.0
C446 C 0.80108 0.30189 0.05361 0.0
C447 C 0.80008 0.31356 0.08446 0.0
H448 H 0.59605 0.17757 0.228 0.0
H449 H 0.60098 0.31967 0.27948 0.0
H450 H 0.51283 0.15588 0.25142 0.0
H451 H 0.51831 0.2981 0.30269 0.0
H452 H 0.3421 0.2762 0.30902 0.0
H453 H 0.4268 0.29344 0.28619 0.0
H454 H 0.47029 0.1334 0.29963 0.0
H455 H 0.38608 0.11606 0.32212 0.0
C456 C 0.58012 0.20355 0.24481 0.0
C457 C 0.60541 0.25034 0.25181 0.0
C458 C 0.53219 0.19131 0.25812 0.0
C459 C 0.50828 0.22576 0.27855 0.0
C460 C 0.53488 0.27125 0.28655 0.0
C461 C 0.58276 0.28326 0.27348 0.0
C462 C 0.36954 0.24463 0.30689 0.0
C463 C 0.35708 0.19484 0.31763 0.0
C464 C 0.41832 0.25456 0.29403 0.0
C465 C 0.45567 0.21486 0.29128 0.0
C466 C 0.44257 0.16484 0.30123 0.0
C467 C 0.39417 0.15504 0.31431 0.0
H468 H 0.23899 0.83863 0.80951 0.0
H469 H 0.39854 0.88278 0.82401 0.0
H470 H 0.22233 0.92339 0.78645 0.0
H471 H 0.38173 0.967 0.80142 0.0
H472 H 0.34152 0.09236 0.72935 0.0
H473 H 0.36161 1.00914 0.75326 0.0
H474 H 0.21662 0.01512 0.80173 0.0
H475 H 0.19654 0.09782 0.77791 0.0
C476 C 0.27053 0.86614 0.8077 0.0
C477 C 0.32001 0.85364 0.81883 0.0
C478 C 0.26092 0.91497 0.7947 0.0
C479 C 0.30064 0.95233 0.79223 0.0
C480 C 0.35029 0.93927 0.80273 0.0
C481 C 0.35978 0.89084 0.8159 0.0
C482 C 0.31451 0.07652 0.74563 0.0
C483 C 0.26746 0.10201 0.75168 0.0
C484 C 0.32586 0.02859 0.75924 0.0
C485 C 0.2903 1.00484 0.77908 0.0
C486 C 0.24438 0.03156 0.78608 0.0
C487 C 0.23321 0.07946 0.77268 0.0
H488 H 0.63631 0.90407 0.32358 0.0
H489 H 0.68039 0.74434 0.30901 0.0
H490 H 0.552 0.88724 0.30114 0.0
H491 H 0.59556 0.72763 0.28622 0.0
H492 H 0.42134 0.70159 0.27938 0.0
H493 H 0.50404 0.7225 0.30276 0.0
H494 H 0.5095 0.86612 0.25277 0.0
H495 H 0.42628 0.84512 0.22919 0.0
C496 C 0.62821 0.86529 0.31546 0.0
C497 C 0.66537 0.82545 0.31834 0.0
C498 C 0.57976 0.8558 0.3024 0.0
C499 C 0.56667 0.80604 0.29204 0.0
C500 C 0.60405 0.7663 0.29438 0.0
C501 C 0.6529 0.77594 0.30721 0.0
C502 C 0.43956 0.73816 0.27372 0.0
C503 C 0.41693 0.77169 0.25234 0.0
C504 C 0.48745 0.74979 0.28688 0.0
C505 C 0.51404 0.7955 0.27927 0.0
C506 C 0.49014 0.83052 0.25916 0.0
C507 C 0.44221 0.81866 0.24576 0.0
H508 H 0.68056 0.11919 0.86098 0.0
H509 H 0.72984 0.19648 0.77946 0.0
H510 H 0.69368 0.03499 0.83691 0.0
H511 H 0.7418 0.11154 0.75499 0.0
H512 H 0.69335 0.94907 0.71532 0.0
H513 H 0.67731 0.03222 0.7406 0.0
H514 H 0.77454 0.98437 0.81472 0.0
H515 H 0.79182 0.90201 0.78911 0.0
C516 C 0.69441 0.11816 0.8379 0.0
C517 C 0.70435 0.16454 0.82214 0.0
C518 C 0.70188 0.06989 0.82415 0.0
C519 C 0.7183 0.06666 0.79402 0.0
C520 C 0.72862 0.11294 0.77819 0.0
C521 C 0.72232 0.16146 0.79224 0.0
C522 C 0.71015 0.95574 0.73738 0.0
C523 C 0.74335 0.91867 0.7504 0.0
C524 C 0.70165 1.00367 0.75159 0.0
C525 C 0.72518 0.015 0.77945 0.0
C526 C 0.75596 0.97676 0.79325 0.0
C527 C 0.76549 0.92945 0.77871 0.0
H528 H 0.10034 0.19848 0.26689 0.0
H529 H 0.09648 0.34209 0.31696 0.0
H530 H 0.01773 0.21997 0.24356 0.0
H531 H 0.01331 0.36366 0.29347 0.0
H532 H 0.88662 0.40299 0.22301 0.0
H533 H 0.97079 0.38531 0.24538 0.0
H534 H 0.92631 0.22579 0.25966 0.0
H535 H 0.84162 0.24335 0.23688 0.0
C536 C 0.08236 0.23518 0.27256 0.0
C537 C 0.10532 0.26859 0.29386 0.0
C538 C 0.03451 0.24715 0.25942 0.0
C539 C 1.00823 0.29308 0.26699 0.0
C540 C 0.03242 0.32791 0.28708 0.0
C541 C 0.08032 0.31573 0.30044 0.0
C542 C 0.89448 0.36404 0.23095 0.0
C543 C 0.85708 0.32449 0.2279 0.0
C544 C 0.94288 0.35405 0.24398 0.0
C545 C 0.95569 0.30409 0.25417 0.0
C546 C 0.91808 0.26462 0.25164 0.0
C547 C 0.86929 0.27474 0.23881 0.0
H548 H 0.17981 0.40266 0.68447 0.0
H549 H 0.22942 0.32539 0.76593 0.0
H550 H 0.19295 0.48687 0.70851 0.0
H551 H 0.24139 0.41033 0.79037 0.0
H552 H 0.19303 0.57285 0.83009 0.0
H553 H 0.1769 0.4897 0.80484 0.0
H554 H 0.27391 0.53744 0.73059 0.0
H555 H 0.29128 0.6198 0.75617 0.0
C556 C 0.19373 0.4037 0.70753 0.0
C557 C 0.20375 0.35732 0.72328 0.0
C558 C 0.20121 0.45197 0.72126 0.0
C559 C 0.21774 0.45521 0.75137 0.0
C560 C 0.22813 0.40893 0.76719 0.0
C561 C 0.22181 0.3604 0.75315 0.0
C562 C 0.20976 0.56616 0.80801 0.0
C563 C 0.24292 0.6032 0.79494 0.0
C564 C 0.20121 0.51823 0.79381 0.0
C565 C 0.22465 0.50687 0.76592 0.0
C566 C 0.2554 0.54507 0.75208 0.0
C567 C 0.26498 0.59239 0.7666 0.0
H568 H 0.18079 0.77947 0.23666 0.0
H569 H 0.13594 0.62015 0.22149 0.0
H570 H 0.09595 0.79644 0.25941 0.0
H571 H 0.05164 0.63725 0.24385 0.0
H572 H 0.92595 0.67864 0.31577 0.0
H573 H 1.00913 0.65772 0.29212 0.0
H574 H 1.00451 0.8025 0.24321 0.0
H575 H 0.92185 0.82334 0.2667 0.0
C576 C 0.15312 0.74803 0.23829 0.0
C577 C 0.16541 0.69855 0.22704 0.0
C578 C 0.10426 0.75782 0.25111 0.0
C579 C 0.06667 0.71826 0.25328 0.0
C580 C 0.07955 0.66856 0.24273 0.0
C581 C 0.12802 0.65891 0.22971 0.0
C582 C 0.94206 0.70539 0.29942 0.0
C583 C 0.91701 0.75264 0.29318 0.0
C584 C 0.98997 0.69358 0.28598 0.0
C585 C 0.0141 0.72889 0.26614 0.0
C586 C 0.98776 0.77494 0.25888 0.0
C587 C 0.93988 0.78654 0.2721 0.0
H588 H 0.69685 0.42406 0.76748 0.0
H589 H 0.84185 0.42946 0.81598 0.0
H590 H 0.7169 0.50673 0.74363 0.0
H591 H 0.86192 0.51266 0.79204 0.0
H592 H 0.89879 0.63892 0.72122 0.0
H593 H 0.882 0.55473 0.74383 0.0
H594 H 0.72262 0.59849 0.7589 0.0
H595 H 0.73926 0.68323 0.73582 0.0
C596 C 0.73352 0.4424 0.77269 0.0
C597 C 0.76778 0.41984 0.79368 0.0
C598 C 0.74467 0.49029 0.75927 0.0
C599 C 0.7906 0.51698 0.76625 0.0
C600 C 0.82617 0.49323 0.78608 0.0
C601 C 0.81483 0.44531 0.7997 0.0
C602 C 0.86004 0.6309 0.72936 0.0
C603 C 0.82027 0.66814 0.72645 0.0
C604 C 0.85056 0.58248 0.74254 0.0
C605 C 0.80093 0.56947 0.75307 0.0
C606 C 0.76121 0.60687 0.75063 0.0
C607 C 0.77081 0.65568 0.73762 0.0
loop_
_geom_bond_atom_site_label_1
_geom_bond_atom_site_label_2
_geom_bond_distance
_geom_bond_site_symmetry_2
_ccdc_geom_bond_type
Mn0 O5 2.095 . S
Mn0 O15 2.162 . S
Mn0 O16 2.297 . S
Mn0 O24 2.385 . S
Mn0 O25 2.209 . S
Mn0 O26 2.094 . S
Mn1 O6 2.121 . S
Mn1 N8 2.257 . S
Mn1 N17 2.282 . S
Mn1 O25 2.215 . S
Mn1 O27 2.117 . S
C2 O24 1.234 . S
C2 O25 1.283 . S
C3 O15 1.281 . S
C3 O16 1.236 . S
C4 O26 1.240 . S
C4 O27 1.264 . S
O5 Mn0 2.095 . S
O5 C14 1.250 . S
O6 Mn1 2.121 . S
O6 C14 1.258 . S
C7 N8 1.326 . S
C7 C11 1.460 . S
C7 H13 0.929 . S
N8 Mn1 2.257 . S
N8 C7 1.326 . S
N8 C12 1.362 . S
C9 C10 1.258 . S
C9 C12 1.431 1_565 S
C9 C29 1.449 . S
C10 C9 1.258 . S
C10 C11 1.477 1_565 S
C10 H30 0.931 . S
C11 C7 1.460 . S
C11 C10 1.477 1_545 S
C11 H31 0.930 . S
C12 N8 1.362 . S
C12 C9 1.431 1_545 S
C12 C22 1.476 . S
H13 C7 0.929 . S
C14 O5 1.250 . S
C14 O6 1.258 . S
O15 Mn0 2.162 . S
O15 C3 1.281 . S
O16 Mn0 2.297 . S
O16 C3 1.236 . S
N17 Mn1 2.282 . S
N17 C18 1.328 . S
N17 C22 1.318 . S
C18 N17 1.328 . S
C18 C19 1.457 . S
C18 H23 0.929 . S
C19 C18 1.457 . S
C19 C20 1.291 1_545 S
C19 H32 0.931 . S
C20 C19 1.291 1_565 S
C20 C21 1.373 . S
C20 H33 0.929 . S
C21 C20 1.373 . S
C21 C22 1.396 1_565 S
C21 C28 1.403 . S
C22 C12 1.476 . S
C22 N17 1.318 . S
C22 C21 1.396 1_545 S
H23 C18 0.929 . S
O24 Mn0 2.385 . S
O24 C2 1.234 . S
O25 Mn0 2.209 . S
O25 Mn1 2.215 . S
O25 C2 1.283 . S
O26 Mn0 2.094 . S
O26 C4 1.240 . S
O27 Mn1 2.117 . S
O27 C4 1.264 . S
C28 C21 1.403 . S
C28 C29 1.399 . S
C28 H34 0.929 . S
C29 C9 1.449 . S
C29 C28 1.399 . S
C29 H35 0.930 . S
H30 C10 0.931 . S
H31 C11 0.930 . S
H32 C19 0.931 . S
H33 C20 0.929 . S
H34 C28 0.929 . S
H35 C29 0.930 . S
Mn36 O41 2.095 . S
Mn36 O51 2.162 . S
Mn36 O52 2.297 . S
Mn36 O60 2.385 . S
Mn36 O61 2.209 . S
Mn36 O62 2.094 . S
Mn37 O42 2.121 . S
Mn37 N44 2.257 . S
Mn37 N53 2.282 . S
Mn37 O61 2.215 . S
Mn37 O63 2.117 . S
C38 O60 1.234 . S
C38 O61 1.283 . S
C39 O51 1.281 . S
C39 O52 1.236 . S
C40 O62 1.240 . S
C40 O63 1.264 . S
O41 Mn36 2.095 . S
O41 C50 1.250 . S
O42 Mn37 2.121 . S
O42 C50 1.258 . S
C43 N44 1.326 . S
C43 C47 1.460 . S
C43 H49 0.929 . S
N44 Mn37 2.257 . S
N44 C43 1.326 . S
N44 C48 1.362 . S
C45 C46 1.258 . S
C45 C48 1.431 . S
C45 C65 1.449 . S
C46 C45 1.258 . S
C46 C47 1.477 . S
C46 H66 0.931 . S
C47 C43 1.460 . S
C47 C46 1.477 . S
C47 H67 0.930 . S
C48 N44 1.362 . S
C48 C45 1.431 . S
C48 C58 1.476 . S
H49 C43 0.929 . S
C50 O41 1.250 . S
C50 O42 1.258 . S
O51 Mn36 2.162 . S
O51 C39 1.281 . S
O52 Mn36 2.297 . S
O52 C39 1.236 . S
N53 Mn37 2.282 . S
N53 C54 1.328 . S
N53 C58 1.318 . S
C54 N53 1.328 . S
C54 C55 1.457 . S
C54 H59 0.929 . S
C55 C54 1.457 . S
C55 C56 1.291 . S
C55 H68 0.931 . S
C56 C55 1.291 . S
C56 C57 1.373 . S
C56 H69 0.929 . S
C57 C56 1.373 . S
C57 C58 1.396 . S
C57 C64 1.403 . S
C58 C48 1.476 . S
C58 N53 1.318 . S
C58 C57 1.396 . S
H59 C54 0.929 . S
O60 Mn36 2.385 . S
O60 C38 1.234 . S
O61 Mn36 2.209 . S
O61 Mn37 2.215 . S
O61 C38 1.283 . S
O62 Mn36 2.094 . S
O62 C40 1.240 . S
O63 Mn37 2.117 . S
O63 C40 1.264 . S
C64 C57 1.403 . S
C64 C65 1.399 . S
C64 H70 0.929 . S
C65 C45 1.449 . S
C65 C64 1.399 . S
C65 H71 0.930 . S
H66 C46 0.931 . S
H67 C47 0.930 . S
H68 C55 0.931 . S
H69 C56 0.929 . S
H70 C64 0.929 . S
H71 C65 0.930 . S
Mn72 O77 2.095 . S
Mn72 O87 2.162 . S
Mn72 O88 2.297 . S
Mn72 O96 2.385 . S
Mn72 O97 2.209 . S
Mn72 O98 2.094 . S
Mn73 O78 2.121 . S
Mn73 N80 2.257 . S
Mn73 N89 2.282 . S
Mn73 O97 2.215 . S
Mn73 O99 2.117 . S
C74 O96 1.234 . S
C74 O97 1.283 . S
C75 O87 1.281 . S
C75 O88 1.236 . S
C76 O98 1.240 . S
C76 O99 1.264 . S
O77 Mn72 2.095 . S
O77 C86 1.250 . S
O78 Mn73 2.121 . S
O78 C86 1.258 . S
C79 N80 1.326 . S
C79 C83 1.460 . S
C79 H85 0.929 . S
N80 Mn73 2.257 . S
N80 C79 1.326 . S
N80 C84 1.362 . S
C81 C82 1.258 . S
C81 C84 1.431 1_545 S
C81 C101 1.449 . S
C82 C81 1.258 . S
C82 C83 1.477 1_545 S
C82 H102 0.931 . S
C83 C79 1.460 . S
C83 C82 1.477 1_565 S
C83 H103 0.930 . S
C84 N80 1.362 . S
C84 C81 1.431 1_565 S
C84 C94 1.476 . S
H85 C79 0.929 . S
C86 O77 1.250 . S
C86 O78 1.258 . S
O87 Mn72 2.162 . S
O87 C75 1.281 . S
O88 Mn72 2.297 . S
O88 C75 1.236 . S
N89 Mn73 2.282 . S
N89 C90 1.328 . S
N89 C94 1.318 . S
C90 N89 1.328 . S
C90 C91 1.457 . S
C90 H95 0.929 . S
C91 C90 1.457 . S
C91 C92 1.291 1_565 S
C91 H104 0.931 . S
C92 C91 1.291 1_545 S
C92 C93 1.373 . S
C92 H105 0.929 . S
C93 C92 1.373 . S
C93 C94 1.396 1_545 S
C93 C100 1.403 . S
C94 C84 1.476 . S
C94 N89 1.318 . S
C94 C93 1.396 1_565 S
H95 C90 0.929 . S
O96 Mn72 2.385 . S
O96 C74 1.234 . S
O97 Mn72 2.209 . S
O97 Mn73 2.215 . S
O97 C74 1.283 . S
O98 Mn72 2.094 . S
O98 C76 1.240 . S
O99 Mn73 2.117 . S
O99 C76 1.264 . S
C100 C93 1.403 . S
C100 C101 1.399 . S
C100 H106 0.929 . S
C101 C81 1.449 . S
C101 C100 1.399 . S
C101 H107 0.930 . S
H102 C82 0.931 . S
H103 C83 0.930 . S
H104 C91 0.931 . S
H105 C92 0.929 . S
H106 C100 0.929 . S
H107 C101 0.930 . S
Mn108 O113 2.095 . S
Mn108 O123 2.162 . S
Mn108 O124 2.297 . S
Mn108 O132 2.385 . S
Mn108 O133 2.209 . S
Mn108 O134 2.094 . S
Mn109 O114 2.121 . S
Mn109 N116 2.257 . S
Mn109 N125 2.282 . S
Mn109 O133 2.215 . S
Mn109 O135 2.117 . S
C110 O132 1.234 . S
C110 O133 1.283 . S
C111 O123 1.281 . S
C111 O124 1.236 . S
C112 O134 1.240 . S
C112 O135 1.264 . S
O113 Mn108 2.095 . S
O113 C122 1.250 . S
O114 Mn109 2.121 . S
O114 C122 1.258 . S
C115 N116 1.326 . S
C115 C119 1.460 . S
C115 H121 0.929 . S
N116 Mn109 2.257 . S
N116 C115 1.326 . S
N116 C120 1.362 . S
C117 C118 1.258 . S
C117 C120 1.431 . S
C117 C137 1.449 . S
C118 C117 1.258 . S
C118 C119 1.477 . S
C118 H138 0.931 . S
C119 C115 1.460 . S
C119 C118 1.477 . S
C119 H139 0.930 . S
C120 N116 1.362 . S
C120 C117 1.431 . S
C120 C130 1.476 . S
H121 C115 0.929 . S
C122 O113 1.250 . S
C122 O114 1.258 . S
O123 Mn108 2.162 . S
O123 C111 1.281 . S
O124 Mn108 2.297 . S
O124 C111 1.236 . S
N125 Mn109 2.282 . S
N125 C126 1.328 . S
N125 C130 1.318 . S
C126 N125 1.328 . S
C126 C127 1.457 . S
C126 H131 0.929 . S
C127 C126 1.457 . S
C127 C128 1.291 . S
C127 H140 0.931 . S
C128 C127 1.291 . S
C128 C129 1.373 . S
C128 H141 0.929 . S
C129 C128 1.373 . S
C129 C130 1.396 . S
C129 C136 1.403 . S
C130 C120 1.476 . S
C130 N125 1.318 . S
C130 C129 1.396 . S
H131 C126 0.929 . S
O132 Mn108 2.385 . S
O132 C110 1.234 . S
O133 Mn108 2.209 . S
O133 Mn109 2.215 . S
O133 C110 1.283 . S
O134 Mn108 2.094 . S
O134 C112 1.240 . S
O135 Mn109 2.117 . S
O135 C112 1.264 . S
C136 C129 1.403 . S
C136 C137 1.399 . S
C136 H142 0.929 . S
C137 C117 1.449 . S
C137 C136 1.399 . S
C137 H143 0.930 . S
H138 C118 0.931 . S
H139 C119 0.930 . S
H140 C127 0.931 . S
H141 C128 0.929 . S
H142 C136 0.929 . S
H143 C137 0.930 . S
Mn144 O149 2.095 . S
Mn144 O159 2.162 . S
Mn144 O160 2.297 . S
Mn144 O168 2.385 . S
Mn144 O169 2.209 . S
Mn144 O170 2.094 . S
Mn145 O150 2.121 . S
Mn145 N152 2.257 . S
Mn145 N161 2.282 . S
Mn145 O169 2.215 . S
Mn145 O171 2.117 . S
C146 O168 1.234 . S
C146 O169 1.283 . S
C147 O159 1.281 . S
C147 O160 1.236 . S
C148 O170 1.240 . S
C148 O171 1.264 . S
O149 Mn144 2.095 . S
O149 C158 1.250 . S
O150 Mn145 2.121 . S
O150 C158 1.258 . S
C151 N152 1.326 . S
C151 C155 1.460 . S
C151 H157 0.929 . S
N152 Mn145 2.257 . S
N152 C151 1.326 . S
N152 C156 1.362 . S
C153 C154 1.258 . S
C153 C156 1.431 . S
C153 C173 1.449 . S
C154 C153 1.258 . S
C154 C155 1.477 . S
C154 H174 0.931 . S
C155 C151 1.460 . S
C155 C154 1.477 . S
C155 H175 0.930 . S
C156 N152 1.362 . S
C156 C153 1.431 . S
C156 C166 1.476 . S
H157 C151 0.929 . S
C158 O149 1.250 . S
C158 O150 1.258 . S
O159 Mn144 2.162 . S
O159 C147 1.281 . S
O160 Mn144 2.297 . S
O160 C147 1.236 . S
N161 Mn145 2.282 . S
N161 C162 1.328 . S
N161 C166 1.318 . S
C162 N161 1.328 . S
C162 C163 1.457 . S
C162 H167 0.929 . S
C163 C162 1.457 . S
C163 C164 1.291 . S
C163 H176 0.931 . S
C164 C163 1.291 . S
C164 C165 1.373 . S
C164 H177 0.929 . S
C165 C164 1.373 . S
C165 C166 1.396 . S
C165 C172 1.403 . S
C166 C156 1.476 . S
C166 N161 1.318 . S
C166 C165 1.396 . S
H167 C162 0.929 . S
O168 Mn144 2.385 . S
O168 C146 1.234 . S
O169 Mn144 2.209 . S
O169 Mn145 2.215 . S
O169 C146 1.283 . S
O170 Mn144 2.094 . S
O170 C148 1.240 . S
O171 Mn145 2.117 . S
O171 C148 1.264 . S
C172 C165 1.403 . S
C172 C173 1.399 . S
C172 H178 0.929 . S
C173 C153 1.449 . S
C173 C172 1.399 . S
C173 H179 0.930 . S
H174 C154 0.931 . S
H175 C155 0.930 . S
H176 C163 0.931 . S
H177 C164 0.929 . S
H178 C172 0.929 . S
H179 C173 0.930 . S
Mn180 O185 2.095 . S
Mn180 O195 2.162 . S
Mn180 O196 2.297 . S
Mn180 O204 2.385 . S
Mn180 O205 2.209 . S
Mn180 O206 2.094 . S
Mn181 O186 2.121 . S
Mn181 N188 2.257 . S
Mn181 N197 2.282 . S
Mn181 O205 2.215 . S
Mn181 O207 2.117 . S
C182 O204 1.234 . S
C182 O205 1.283 . S
C183 O195 1.281 . S
C183 O196 1.236 . S
C184 O206 1.240 . S
C184 O207 1.264 . S
O185 Mn180 2.095 . S
O185 C194 1.250 . S
O186 Mn181 2.121 . S
O186 C194 1.258 . S
C187 N188 1.326 . S
C187 C191 1.460 . S
C187 H193 0.929 . S
N188 Mn181 2.257 . S
N188 C187 1.326 . S
N188 C192 1.362 . S
C189 C190 1.258 . S
C189 C192 1.431 1_655 S
C189 C209 1.449 . S
C190 C189 1.258 . S
C190 C191 1.477 1_655 S
C190 H210 0.931 . S
C191 C187 1.460 . S
C191 C190 1.477 1_455 S
C191 H211 0.930 . S
C192 N188 1.362 . S
C192 C189 1.431 1_455 S
C192 C202 1.476 . S
H193 C187 0.929 . S
C194 O185 1.250 . S
C194 O186 1.258 . S
O195 Mn180 2.162 . S
O195 C183 1.281 . S
O196 Mn180 2.297 . S
O196 C183 1.236 . S
N197 Mn181 2.282 . S
N197 C198 1.328 . S
N197 C202 1.318 . S
C198 N197 1.328 . S
C198 C199 1.457 . S
C198 H203 0.929 . S
C199 C198 1.457 . S
C199 C200 1.291 1_455 S
C199 H212 0.931 . S
C200 C199 1.291 1_655 S
C200 C201 1.373 . S
C200 H213 0.929 . S
C201 C200 1.373 . S
C201 C202 1.396 1_655 S
C201 C208 1.403 . S
C202 C192 1.476 . S
C202 N197 1.318 . S
C202 C201 1.396 1_455 S
H203 C198 0.929 . S
O204 Mn180 2.385 . S
O204 C182 1.234 . S
O205 Mn180 2.209 . S
O205 Mn181 2.215 . S
O205 C182 1.283 . S
O206 Mn180 2.094 . S
O206 C184 1.240 . S
O207 Mn181 2.117 . S
O207 C184 1.264 . S
C208 C201 1.403 . S
C208 C209 1.399 . S
C208 H214 0.929 . S
C209 C189 1.449 . S
C209 C208 1.399 . S
C209 H215 0.930 . S
H210 C190 0.931 . S
H211 C191 0.930 . S
H212 C199 0.931 . S
H213 C200 0.929 . S
H214 C208 0.929 . S
H215 C209 0.930 . S
Mn216 O221 2.095 . S
Mn216 O231 2.162 . S
Mn216 O232 2.297 . S
Mn216 O240 2.385 . S
Mn216 O241 2.209 . S
Mn216 O242 2.094 . S
Mn217 O222 2.121 . S
Mn217 N224 2.257 . S
Mn217 N233 2.282 . S
Mn217 O241 2.215 . S
Mn217 O243 2.117 . S
C218 O240 1.234 . S
C218 O241 1.283 . S
C219 O231 1.281 . S
C219 O232 1.236 . S
C220 O242 1.240 . S
C220 O243 1.264 . S
O221 Mn216 2.095 . S
O221 C230 1.250 . S
O222 Mn217 2.121 . S
O222 C230 1.258 . S
C223 N224 1.326 . S
C223 C227 1.460 . S
C223 H229 0.929 . S
N224 Mn217 2.257 . S
N224 C223 1.326 . S
N224 C228 1.362 . S
C225 C226 1.258 . S
C225 C228 1.431 . S
C225 C245 1.449 . S
C226 C225 1.258 . S
C226 C227 1.477 . S
C226 H246 0.931 . S
C227 C223 1.460 . S
C227 C226 1.477 . S
C227 H247 0.930 . S
C228 N224 1.362 . S
C228 C225 1.431 . S
C228 C238 1.476 . S
H229 C223 0.929 . S
C230 O221 1.250 . S
C230 O222 1.258 . S
O231 Mn216 2.162 . S
O231 C219 1.281 . S
O232 Mn216 2.297 . S
O232 C219 1.236 . S
N233 Mn217 2.282 . S
N233 C234 1.328 . S
N233 C238 1.318 . S
C234 N233 1.328 . S
C234 C235 1.457 . S
C234 H239 0.929 . S
C235 C234 1.457 . S
C235 C236 1.291 . S
C235 H248 0.931 . S
C236 C235 1.291 . S
C236 C237 1.373 . S
C236 H249 0.929 . S
C237 C236 1.373 . S
C237 C238 1.396 . S
C237 C244 1.403 . S
C238 C228 1.476 . S
C238 N233 1.318 . S
C238 C237 1.396 . S
H239 C234 0.929 . S
O240 Mn216 2.385 . S
O240 C218 1.234 . S
O241 Mn216 2.209 . S
O241 Mn217 2.215 . S
O241 C218 1.283 . S
O242 Mn216 2.094 . S
O242 C220 1.240 . S
O243 Mn217 2.117 . S
O243 C220 1.264 . S
C244 C237 1.403 . S
C244 C245 1.399 . S
C244 H250 0.929 . S
C245 C225 1.449 . S
C245 C244 1.399 . S
C245 H251 0.930 . S
H246 C226 0.931 . S
H247 C227 0.930 . S
H248 C235 0.931 . S
H249 C236 0.929 . S
H250 C244 0.929 . S
H251 C245 0.930 . S
Mn252 O257 2.095 . S
Mn252 O267 2.162 . S
Mn252 O268 2.297 . S
Mn252 O276 2.385 . S
Mn252 O277 2.209 . S
Mn252 O278 2.094 . S
Mn253 O258 2.121 . S
Mn253 N260 2.257 . S
Mn253 N269 2.282 . S
Mn253 O277 2.215 . S
Mn253 O279 2.117 . S
C254 O276 1.234 . S
C254 O277 1.283 . S
C255 O267 1.281 . S
C255 O268 1.236 . S
C256 O278 1.240 . S
C256 O279 1.264 . S
O257 Mn252 2.095 . S
O257 C266 1.250 . S
O258 Mn253 2.121 . S
O258 C266 1.258 . S
C259 N260 1.326 . S
C259 C263 1.460 . S
C259 H265 0.929 . S
N260 Mn253 2.257 . S
N260 C259 1.326 . S
N260 C264 1.362 . S
C261 C262 1.258 . S
C261 C264 1.431 1_455 S
C261 C281 1.449 . S
C262 C261 1.258 . S
C262 C263 1.477 1_455 S
C262 H282 0.931 . S
C263 C259 1.460 . S
C263 C262 1.477 1_655 S
C263 H283 0.930 . S
C264 N260 1.362 . S
C264 C261 1.431 1_655 S
C264 C274 1.476 . S
H265 C259 0.929 . S
C266 O257 1.250 . S
C266 O258 1.258 . S
O267 Mn252 2.162 . S
O267 C255 1.281 . S
O268 Mn252 2.297 . S
O268 C255 1.236 . S
N269 Mn253 2.282 . S
N269 C270 1.328 . S
N269 C274 1.318 . S
C270 N269 1.328 . S
C270 C271 1.457 . S
C270 H275 0.929 . S
C271 C270 1.457 . S
C271 C272 1.291 1_655 S
C271 H284 0.931 . S
C272 C271 1.291 1_455 S
C272 C273 1.373 . S
C272 H285 0.929 . S
C273 C272 1.373 . S
C273 C274 1.396 1_455 S
C273 C280 1.403 . S
C274 C264 1.476 . S
C274 N269 1.318 . S
C274 C273 1.396 1_655 S
H275 C270 0.929 . S
O276 Mn252 2.385 . S
O276 C254 1.234 . S
O277 Mn252 2.209 . S
O277 Mn253 2.215 . S
O277 C254 1.283 . S
O278 Mn252 2.094 . S
O278 C256 1.240 . S
O279 Mn253 2.117 . S
O279 C256 1.264 . S
C280 C273 1.403 . S
C280 C281 1.399 . S
C280 H286 0.929 . S
C281 C261 1.449 . S
C281 C280 1.399 . S
C281 H287 0.930 . S
H282 C262 0.931 . S
H283 C263 0.930 . S
H284 C271 0.931 . S
H285 C272 0.929 . S
H286 C280 0.929 . S
H287 C281 0.930 . S
H288 C296 0.950 . S
H289 C301 0.950 . S
H290 C298 0.950 1_655 S
H291 C300 0.950 . S
H292 C302 0.950 . S
H293 C304 0.950 1_455 S
H294 C306 0.950 . S
H295 C307 0.950 . S
C296 H288 0.950 . S
C296 C297 1.386 . S
C296 C298 1.391 . S
C297 C296 1.386 . S
C297 C301 1.393 . S
C298 H290 0.950 1_455 S
C298 C296 1.391 . S
C298 C299 1.400 . S
C299 C298 1.400 . S
C299 C300 1.398 . S
C299 C305 1.491 1_445 S
C300 H291 0.950 . S
C300 C299 1.398 . S
C300 C301 1.391 . S
C301 H289 0.950 . S
C301 C297 1.393 . S
C301 C300 1.391 . S
C302 H292 0.950 . S
C302 C303 1.386 . S
C302 C304 1.391 . S
C303 C302 1.386 . S
C303 C307 1.393 . S
C304 H293 0.950 1_655 S
C304 C302 1.391 . S
C304 C305 1.400 . S
C305 C299 1.491 1_665 S
C305 C304 1.400 . S
C305 C306 1.398 . S
C306 H294 0.950 . S
C306 C305 1.398 . S
C306 C307 1.391 . S
C307 H295 0.950 . S
C307 C303 1.393 . S
C307 C306 1.391 . S
H308 C316 0.950 . S
H309 C321 0.950 . S
H310 C318 0.950 . S
H311 C320 0.950 . S
H312 C322 0.950 . S
H313 C324 0.950 . S
H314 C326 0.950 . S
H315 C327 0.950 . S
C316 H308 0.950 . S
C316 C317 1.386 . S
C316 C318 1.391 . S
C317 C316 1.386 . S
C317 C321 1.393 . S
C318 H310 0.950 . S
C318 C316 1.391 . S
C318 C319 1.400 . S
C319 C318 1.400 . S
C319 C320 1.398 . S
C319 C325 1.491 . S
C320 H311 0.950 . S
C320 C319 1.398 . S
C320 C321 1.391 . S
C321 H309 0.950 . S
C321 C317 1.393 . S
C321 C320 1.391 . S
C322 H312 0.950 . S
C322 C323 1.386 . S
C322 C324 1.391 . S
C323 C322 1.386 . S
C323 C327 1.393 . S
C324 H313 0.950 . S
C324 C322 1.391 . S
C324 C325 1.400 . S
C325 C319 1.491 . S
C325 C324 1.400 . S
C325 C326 1.398 . S
C326 H314 0.950 . S
C326 C325 1.398 . S
C326 C327 1.391 . S
C327 H315 0.950 . S
C327 C323 1.393 . S
C327 C326 1.391 . S
H328 C336 0.950 . S
H329 C341 0.950 . S
H330 C338 0.950 . S
H331 C340 0.950 . S
H332 C342 0.950 . S
H333 C344 0.950 . S
H334 C346 0.950 . S
H335 C347 0.950 . S
C336 H328 0.950 . S
C336 C337 1.386 . S
C336 C338 1.391 . S
C337 C336 1.386 . S
C337 C341 1.393 . S
C338 H330 0.950 . S
C338 C336 1.391 . S
C338 C339 1.400 . S
C339 C338 1.400 . S
C339 C340 1.398 . S
C339 C345 1.491 . S
C340 H331 0.950 . S
C340 C339 1.398 . S
C340 C341 1.391 . S
C341 H329 0.950 . S
C341 C337 1.393 . S
C341 C340 1.391 . S
C342 H332 0.950 . S
C342 C343 1.386 . S
C342 C344 1.391 . S
C343 C342 1.386 . S
C343 C347 1.393 . S
C344 H333 0.950 . S
C344 C342 1.391 . S
C344 C345 1.400 . S
C345 C339 1.491 . S
C345 C344 1.400 . S
C345 C346 1.398 . S
C346 H334 0.950 . S
C346 C345 1.398 . S
C346 C347 1.391 . S
C347 H335 0.950 . S
C347 C343 1.393 . S
C347 C346 1.391 . S
H348 C356 0.956 . S
H349 C361 0.950 . S
H350 C358 0.950 . S
H351 C360 0.950 1_655 S
H352 C362 0.956 . S
H353 C364 0.950 . S
H354 C366 0.950 1_455 S
H355 C367 0.950 . S
C356 H348 0.956 . S
C356 C357 1.386 . S
C356 C358 1.391 1_545 S
C357 C356 1.386 . S
C357 C361 1.393 . S
C358 H350 0.950 . S
C358 C356 1.391 1_565 S
C358 C359 1.400 1_565 S
C359 C358 1.400 1_545 S
C359 C360 1.398 . S
C359 C365 1.491 1_445 S
C360 H351 0.950 1_455 S
C360 C359 1.398 . S
C360 C361 1.391 . S
C361 H349 0.950 . S
C361 C357 1.393 . S
C361 C360 1.391 . S
C362 H352 0.956 . S
C362 C363 1.386 . S
C362 C364 1.391 1_565 S
C363 C362 1.386 . S
C363 C367 1.393 . S
C364 H353 0.950 . S
C364 C362 1.391 1_545 S
C364 C365 1.400 1_545 S
C365 C359 1.491 1_665 S
C365 C364 1.400 1_565 S
C365 C366 1.398 . S
C366 H354 0.950 1_655 S
C366 C365 1.398 . S
C366 C367 1.391 . S
C367 H355 0.950 . S
C367 C363 1.393 . S
C367 C366 1.391 . S
H368 C376 0.950 . S
H369 C381 0.950 . S
H370 C378 0.950 . S
H371 C380 0.950 . S
H372 C382 0.950 . S
H373 C384 0.950 . S
H374 C386 0.950 . S
H375 C387 0.950 . S
C376 H368 0.950 . S
C376 C377 1.386 . S
C376 C378 1.391 . S
C377 C376 1.386 . S
C377 C381 1.393 . S
C378 H370 0.950 . S
C378 C376 1.391 . S
C378 C379 1.400 . S
C379 C378 1.400 . S
C379 C380 1.398 . S
C379 C385 1.491 . S
C380 H371 0.950 . S
C380 C379 1.398 . S
C380 C381 1.391 . S
C381 H369 0.950 . S
C381 C377 1.393 . S
C381 C380 1.391 . S
C382 H372 0.950 . S
C382 C383 1.386 . S
C382 C384 1.391 . S
C383 C382 1.386 . S
C383 C387 1.393 . S
C384 H373 0.950 . S
C384 C382 1.391 . S
C384 C385 1.400 . S
C385 C379 1.491 . S
C385 C384 1.400 . S
C385 C386 1.398 . S
C386 H374 0.950 . S
C386 C385 1.398 . S
C386 C387 1.391 . S
C387 H375 0.950 . S
C387 C383 1.393 . S
C387 C386 1.391 . S
H388 C396 0.950 . S
H389 C401 0.950 . S
H390 C398 0.950 . S
H391 C400 0.950 . S
H392 C402 0.950 . S
H393 C404 0.950 . S
H394 C406 0.950 . S
H395 C407 0.950 . S
C396 H388 0.950 . S
C396 C397 1.386 . S
C396 C398 1.391 . S
C397 C396 1.386 . S
C397 C401 1.393 . S
C398 H390 0.950 . S
C398 C396 1.391 . S
C398 C399 1.400 . S
C399 C398 1.400 . S
C399 C400 1.398 . S
C399 C405 1.491 1_556 S
C400 H391 0.950 . S
C400 C399 1.398 . S
C400 C401 1.391 . S
C401 H389 0.950 . S
C401 C397 1.393 . S
C401 C400 1.391 . S
C402 H392 0.950 . S
C402 C403 1.386 . S
C402 C404 1.391 . S
C403 C402 1.386 . S
C403 C407 1.393 . S
C404 H393 0.950 . S
C404 C402 1.391 . S
C404 C405 1.400 . S
C405 C399 1.491 1_554 S
C405 C404 1.400 . S
C405 C406 1.398 . S
C406 H394 0.950 . S
C406 C405 1.398 . S
C406 C407 1.391 . S
C407 H395 0.950 . S
C407 C403 1.393 . S
C407 C406 1.391 . S
H408 C416 0.950 . S
H409 C421 0.950 . S
H410 C418 0.950 . S
H411 C420 0.950 . S
H412 C422 0.950 . S
H413 C424 0.950 . S
H414 C426 0.950 . S
H415 C427 0.950 . S
C416 H408 0.950 . S
C416 C417 1.386 . S
C416 C418 1.391 . S
C417 C416 1.386 . S
C417 C421 1.393 . S
C418 H410 0.950 . S
C418 C416 1.391 . S
C418 C419 1.400 . S
C419 C418 1.400 . S
C419 C420 1.398 . S
C419 C425 1.491 . S
C420 H411 0.950 . S
C420 C419 1.398 . S
C420 C421 1.391 . S
C421 H409 0.950 . S
C421 C417 1.393 . S
C421 C420 1.391 . S
C422 H412 0.950 . S
C422 C423 1.386 . S
C422 C424 1.391 . S
C423 C422 1.386 . S
C423 C427 1.393 . S
C424 H413 0.950 . S
C424 C422 1.391 . S
C424 C425 1.400 . S
C425 C419 1.491 . S
C425 C424 1.400 . S
C425 C426 1.398 . S
C426 H414 0.950 . S
C426 C425 1.398 . S
C426 C427 1.391 . S
C427 H415 0.950 . S
C427 C423 1.393 . S
C427 C426 1.391 . S
H428 C436 0.950 . S
H429 C441 0.950 . S
H430 C438 0.950 . S
H431 C440 0.950 . S
H432 C442 0.950 . S
H433 C444 0.950 . S
H434 C446 0.950 . S
H435 C447 0.950 . S
C436 H428 0.950 . S
C436 C437 1.386 . S
C436 C438 1.391 . S
C437 C436 1.386 . S
C437 C441 1.393 . S
C438 H430 0.950 . S
C438 C436 1.391 . S
C438 C439 1.400 . S
C439 C438 1.400 . S
C439 C440 1.398 . S
C439 C445 1.491 1_556 S
C440 H431 0.950 . S
C440 C439 1.398 . S
C440 C441 1.391 . S
C441 H429 0.950 . S
C441 C437 1.393 . S
C441 C440 1.391 . S
C442 H432 0.950 . S
C442 C443 1.386 . S
C442 C444 1.391 . S
C443 C442 1.386 . S
C443 C447 1.393 . S
C444 H433 0.950 . S
C444 C442 1.391 . S
C444 C445 1.400 . S
C445 C439 1.491 1_554 S
C445 C444 1.400 . S
C445 C446 1.398 . S
C446 H434 0.950 . S
C446 C445 1.398 . S
C446 C447 1.391 . S
C447 H435 0.950 . S
C447 C443 1.393 . S
C447 C446 1.391 . S
H448 C456 0.950 . S
H449 C461 0.950 . S
H450 C458 0.950 . S
H451 C460 0.950 . S
H452 C462 0.950 . S
H453 C464 0.950 . S
H454 C466 0.950 . S
H455 C467 0.950 . S
C456 H448 0.950 . S
C456 C457 1.386 . S
C456 C458 1.391 . S
C457 C456 1.386 . S
C457 C461 1.393 . S
C458 H450 0.950 . S
C458 C456 1.391 . S
C458 C459 1.400 . S
C459 C458 1.400 . S
C459 C460 1.398 . S
C459 C465 1.491 . S
C460 H451 0.950 . S
C460 C459 1.398 . S
C460 C461 1.391 . S
C461 H449 0.950 . S
C461 C457 1.393 . S
C461 C460 1.391 . S
C462 H452 0.950 . S
C462 C463 1.386 . S
C462 C464 1.391 . S
C463 C462 1.386 . S
C463 C467 1.393 . S
C464 H453 0.950 . S
C464 C462 1.391 . S
C464 C465 1.400 . S
C465 C459 1.491 . S
C465 C464 1.400 . S
C465 C466 1.398 . S
C466 H454 0.950 . S
C466 C465 1.398 . S
C466 C467 1.391 . S
C467 H455 0.950 . S
C467 C463 1.393 . S
C467 C466 1.391 . S
H468 C476 0.950 . S
H469 C481 0.950 . S
H470 C478 0.950 . S
H471 C480 0.950 . S
H472 C482 0.950 . S
H473 C484 0.950 . S
H474 C486 0.950 . S
H475 C487 0.950 1_545 S
C476 H468 0.950 . S
C476 C477 1.386 . S
C476 C478 1.391 . S
C477 C476 1.386 . S
C477 C481 1.393 . S
C478 H470 0.950 . S
C478 C476 1.391 . S
C478 C479 1.400 . S
C479 C478 1.400 . S
C479 C480 1.398 . S
C479 C485 1.491 . S
C480 H471 0.950 . S
C480 C479 1.398 . S
C480 C481 1.391 . S
C481 H469 0.950 . S
C481 C477 1.393 . S
C481 C480 1.391 . S
C482 H472 0.950 . S
C482 C483 1.386 . S
C482 C484 1.391 . S
C483 C482 1.386 . S
C483 C487 1.393 . S
C484 H473 0.950 . S
C484 C482 1.391 . S
C484 C485 1.400 . S
C485 C479 1.491 . S
C485 C484 1.400 . S
C485 C486 1.398 . S
C486 H474 0.950 . S
C486 C485 1.398 . S
C486 C487 1.391 . S
C487 H475 0.950 1_565 S
C487 C483 1.393 . S
C487 C486 1.391 . S
H488 C496 0.950 . S
H489 C501 0.950 . S
H490 C498 0.950 . S
H491 C500 0.950 . S
H492 C502 0.950 . S
H493 C504 0.950 . S
H494 C506 0.950 . S
H495 C507 0.950 . S
C496 H488 0.950 . S
C496 C497 1.386 . S
C496 C498 1.391 . S
C497 C496 1.386 . S
C497 C501 1.393 . S
C498 H490 0.950 . S
C498 C496 1.391 . S
C498 C499 1.400 . S
C499 C498 1.400 . S
C499 C500 1.398 . S
C499 C505 1.491 . S
C500 H491 0.950 . S
C500 C499 1.398 . S
C500 C501 1.391 . S
C501 H489 0.950 . S
C501 C497 1.393 . S
C501 C500 1.391 . S
C502 H492 0.950 . S
C502 C503 1.386 . S
C502 C504 1.391 . S
C503 C502 1.386 . S
C503 C507 1.393 . S
C504 H493 0.950 . S
C504 C502 1.391 . S
C504 C505 1.400 . S
C505 C499 1.491 . S
C505 C504 1.400 . S
C505 C506 1.398 . S
C506 H494 0.950 . S
C506 C505 1.398 . S
C506 C507 1.391 . S
C507 H495 0.950 . S
C507 C503 1.393 . S
C507 C506 1.391 . S
H508 C516 0.950 . S
H509 C521 0.950 . S
H510 C518 0.950 . S
H511 C520 0.950 . S
H512 C522 0.950 . S
H513 C524 0.950 . S
H514 C526 0.950 . S
H515 C527 0.950 . S
C516 H508 0.950 . S
C516 C517 1.386 . S
C516 C518 1.391 . S
C517 C516 1.386 . S
C517 C521 1.393 . S
C518 H510 0.950 . S
C518 C516 1.391 . S
C518 C519 1.400 . S
C519 C518 1.400 . S
C519 C520 1.398 . S
C519 C525 1.491 . S
C520 H511 0.950 . S
C520 C519 1.398 . S
C520 C521 1.391 . S
C521 H509 0.950 . S
C521 C517 1.393 . S
C521 C520 1.391 . S
C522 H512 0.950 . S
C522 C523 1.386 . S
C522 C524 1.391 . S
C523 C522 1.386 . S
C523 C527 1.393 . S
C524 H513 0.950 . S
C524 C522 1.391 . S
C524 C525 1.400 . S
C525 C519 1.491 . S
C525 C524 1.400 . S
C525 C526 1.398 . S
C526 H514 0.950 . S
C526 C525 1.398 . S
C526 C527 1.391 . S
C527 H515 0.950 . S
C527 C523 1.393 . S
C527 C526 1.391 . S
H528 C536 0.950 . S
H529 C541 0.950 . S
H530 C538 0.950 . S
H531 C540 0.950 . S
H532 C542 0.950 . S
H533 C544 0.950 . S
H534 C546 0.950 . S
H535 C547 0.950 . S
C536 H528 0.950 . S
C536 C537 1.386 . S
C536 C538 1.391 . S
C537 C536 1.386 . S
C537 C541 1.393 . S
C538 H530 0.950 . S
C538 C536 1.391 . S
C538 C539 1.400 . S
C539 C538 1.400 . S
C539 C540 1.398 . S
C539 C545 1.491 . S
C540 H531 0.950 . S
C540 C539 1.398 . S
C540 C541 1.391 . S
C541 H529 0.950 . S
C541 C537 1.393 . S
C541 C540 1.391 . S
C542 H532 0.950 . S
C542 C543 1.386 . S
C542 C544 1.391 . S
C543 C542 1.386 . S
C543 C547 1.393 . S
C544 H533 0.950 . S
C544 C542 1.391 . S
C544 C545 1.400 . S
C545 C539 1.491 . S
C545 C544 1.400 . S
C545 C546 1.398 . S
C546 H534 0.950 . S
C546 C545 1.398 . S
C546 C547 1.391 . S
C547 H535 0.950 . S
C547 C543 1.393 . S
C547 C546 1.391 . S
H548 C556 0.950 . S
H549 C561 0.950 . S
H550 C558 0.950 . S
H551 C560 0.950 . S
H552 C562 0.950 . S
H553 C564 0.950 . S
H554 C566 0.950 . S
H555 C567 0.950 . S
C556 H548 0.950 . S
C556 C557 1.386 . S
C556 C558 1.391 . S
C557 C556 1.386 . S
C557 C561 1.393 . S
C558 H550 0.950 . S
C558 C556 1.391 . S
C558 C559 1.400 . S
C559 C558 1.400 . S
C559 C560 1.398 . S
C559 C565 1.491 . S
C560 H551 0.950 . S
C560 C559 1.398 . S
C560 C561 1.391 . S
C561 H549 0.950 . S
C561 C557 1.393 . S
C561 C560 1.391 . S
C562 H552 0.950 . S
C562 C563 1.386 . S
C562 C564 1.391 . S
C563 C562 1.386 . S
C563 C567 1.393 . S
C564 H553 0.950 . S
C564 C562 1.391 . S
C564 C565 1.400 . S
C565 C559 1.491 . S
C565 C564 1.400 . S
C565 C566 1.398 . S
C566 H554 0.950 . S
C566 C565 1.398 . S
C566 C567 1.391 . S
C567 H555 0.950 . S
C567 C563 1.393 . S
C567 C566 1.391 . S
H568 C576 0.950 . S
H569 C581 0.950 . S
H570 C578 0.950 . S
H571 C580 0.950 . S
H572 C582 0.950 . S
H573 C584 0.950 . S
H574 C586 0.950 . S
H575 C587 0.950 . S
C576 H568 0.950 . S
C576 C577 1.386 . S
C576 C578 1.391 . S
C577 C576 1.386 . S
C577 C581 1.393 . S
C578 H570 0.950 . S
C578 C576 1.391 . S
C578 C579 1.400 . S
C579 C578 1.400 . S
C579 C580 1.398 . S
C579 C585 1.491 . S
C580 H571 0.950 . S
C580 C579 1.398 . S
C580 C581 1.391 . S
C581 H569 0.950 . S
C581 C577 1.393 . S
C581 C580 1.391 . S
C582 H572 0.950 . S
C582 C583 1.386 . S
C582 C584 1.391 . S
C583 C582 1.386 . S
C583 C587 1.393 . S
C584 H573 0.950 . S
C584 C582 1.391 . S
C584 C585 1.400 . S
C585 C579 1.491 . S
C585 C584 1.400 . S
C585 C586 1.398 . S
C586 H574 0.950 . S
C586 C585 1.398 . S
C586 C587 1.391 . S
C587 H575 0.950 . S
C587 C583 1.393 . S
C587 C586 1.391 . S
H588 C596 0.950 . S
H589 C601 0.950 . S
H590 C598 0.950 . S
H591 C600 0.950 . S
H592 C602 0.950 . S
H593 C604 0.950 . S
H594 C606 0.950 . S
H595 C607 0.950 . S
C596 H588 0.950 . S
C596 C597 1.386 . S
C596 C598 1.391 . S
C597 C596 1.386 . S
C597 C601 1.393 . S
C598 H590 0.950 . S
C598 C596 1.391 . S
C598 C599 1.400 . S
C599 C598 1.400 . S
C599 C600 1.398 . S
C599 C605 1.491 . S
C600 H591 0.950 . S
C600 C599 1.398 . S
C600 C601 1.391 . S
C601 H589 0.950 . S
C601 C597 1.393 . S
C601 C600 1.391 . S
C602 H592 0.950 . S
C602 C603 1.386 . S
C602 C604 1.391 . S
C603 C602 1.386 . S
C603 C607 1.393 . S
C604 H593 0.950 . S
C604 C602 1.391 . S
C604 C605 1.400 . S
C605 C599 1.491 . S
C605 C604 1.400 . S
C605 C606 1.398 . S
C606 H594 0.950 . S
C606 C605 1.398 . S
C606 C607 1.391 . S
C607 H595 0.950 . S
C607 C603 1.393 . S
C607 C606 1.391 . S
C297 C2 0.512 . S
C303 C74 0.504 . S
C317 C38 0.510 . S
C323 C110 0.496 . S
C337 C146 0.497 . S
C343 C218 0.475 . S
C357 C182 0.498 . S
C363 C254 0.476 . S
C377 C4 1.428 . S
C383 C184 1.425 . S
C397 C40 1.442 . S
C403 C220 1.425 . S
C417 C256 1.429 . S
C423 C76 1.446 . S
C437 C112 1.423 . S
C443 C148 1.435 . S
C457 C147 1.705 . S
C463 C14 1.642 . S
C477 C50 1.617 . S
C483 C183 1.686 1_565 S
C497 C86 1.642 . S
C503 C219 1.706 . S
C517 C122 1.612 . S
C523 C255 1.687 1_545 S
C537 C3 1.703 1_655 S
C543 C158 1.633 . S
C557 C194 1.614 . S
C563 C39 1.685 . S
C577 C230 1.621 . S
C583 C75 1.696 1_455 S
C597 C111 1.696 . S
C603 C266 1.622 . S
