# Generated by pormake.
# Topology unj, (4)-cn, num edge types: 1
# Building blocks:
#     Node 0, Type 0, BuildingBlock: GALJAG_clean_sbu_0, # of connection points: 4
#     Node 1, Type 0, BuildingBlock: GALJAG_clean_sbu_0, # of connection points: 4
#     Node 2, Type 0, BuildingBlock: GALJAG_clean_sbu_0, # of connection points: 4
#     Node 3, Type 0, BuildingBlock: GALJAG_clean_sbu_0, # of connection points: 4
#     Node 4, Type 0, BuildingBlock: GALJAG_clean_sbu_0, # of connection points: 4
#     Node 5, Type 0, BuildingBlock: GALJAG_clean_sbu_0, # of connection points: 4
#     Edge 6, Type (0, 0), BuildingBlock: FUNLAD_clean_linker_1, # of connection points: 2
#     Edge 7, Type (0, 0), BuildingBlock: FUNLAD_clean_linker_1, # of connection points: 2
#     Edge 8, Type (0, 0), BuildingBlock: FUNLAD_clean_linker_1, # of connection points: 2
#     Edge 9, Type (0, 0), BuildingBlock: FUNLAD_clean_linker_1, # of connection points: 2
#     Edge 10, Type (0, 0), BuildingBlock: FUNLAD_clean_linker_1, # of connection points: 2
#     Edge 11, Type (0, 0), BuildingBlock: FUNLAD_clean_linker_1, # of connection points: 2
#     Edge 12, Type (0, 0), BuildingBlock: FUNLAD_clean_linker_1, # of connection points: 2
#     Edge 13, Type (0, 0), BuildingBlock: FUNLAD_clean_linker_1, # of connection points: 2
#     Edge 14, Type (0, 0), BuildingBlock: FUNLAD_clean_linker_1, # of connection points: 2
#     Edge 15, Type (0, 0), BuildingBlock: FUNLAD_clean_linker_1, # of connection points: 2
#     Edge 16, Type (0, 0), BuildingBlock: FUNLAD_clean_linker_1, # of connection points: 2
#     Edge 17, Type (0, 0), BuildingBlock: FUNLAD_clean_linker_1, # of connection points: 2
# Relax obj value: 0.013
# Max RMSD: 0.059
# Mean RMSD: 0.059
data_MOF--net-unj--node1-GALJAG_clean_sbu_0--edge1-FUNLAD_clean_linker_1
_symmetry_space_group_name_H-M    P1
_symmetry_Int_Tables_number       1
_symmetry_cell_setting            triclinic
loop_
_symmetry_equiv_pos_as_xyz
'x, y, z'
_cell_length_a     31.805916
_cell_length_b     31.968755
_cell_length_c     41.224943
_cell_angle_alpha  89.913572
_cell_angle_beta   90.679356
_cell_angle_gamma 119.57148
loop_
_atom_site_label
_atom_site_type_symbol
_atom_site_fract_x
_atom_site_fract_y
_atom_site_fract_z
_atom_type_partial_charge
In0 In 0.51026 0.25066 0.59519 0.0
O1 O 0.57644 0.29155 0.56258 0.0
O2 O 0.50816 0.28084 0.54585 0.0
C3 C 0.54689 0.24613 0.65362 0.0
C4 C 0.46899 0.16012 0.57163 0.0
C5 C 0.46851 0.30117 0.6153 0.0
O6 O 0.57392 0.26952 0.63035 0.0
O7 O 0.50228 0.22477 0.64716 0.0
O8 O 0.44421 0.25669 0.60892 0.0
O9 O 0.51347 0.32009 0.61116 0.0
C10 C 0.55241 0.29761 0.5402 0.0
O11 O 0.44483 0.18093 0.5772 0.0
O12 O 0.51338 0.18442 0.57852 0.0
In13 In 0.26464 0.51305 0.76026 0.0
O14 O 0.24633 0.43833 0.74255 0.0
O15 O 0.31695 0.49656 0.73349 0.0
C16 C 0.18157 0.47732 0.79313 0.0
C17 C 0.25608 0.55708 0.70668 0.0
C18 C 0.32582 0.55674 0.81086 0.0
O19 O 0.20034 0.45193 0.78563 0.0
O20 O 0.20448 0.52048 0.78401 0.0
O21 O 0.30738 0.57726 0.79462 0.0
O22 O 0.3149 0.51536 0.80096 0.0
C23 C 0.28734 0.45217 0.73044 0.0
O24 O 0.29557 0.57318 0.72221 0.0
O25 O 0.22137 0.51987 0.71841 0.0
In26 In 0.76058 0.25382 0.928 0.0
O27 O 0.71729 0.27385 0.89211 0.0
O28 O 0.73516 0.22081 0.87781 0.0
C29 C 0.75906 0.31052 0.97622 0.0
C30 C 0.85099 0.28728 0.90661 0.0
C31 C 0.72592 0.16954 0.95954 0.0
O32 O 0.7213 0.27392 0.96605 0.0
O33 O 0.7969 0.31958 0.96134 0.0
O34 O 0.7694 0.20232 0.96197 0.0
O35 O 0.69978 0.17892 0.94103 0.0
C36 C 0.71555 0.24538 0.87025 0.0
O37 O 0.82667 0.24585 0.91856 0.0
O38 O 0.83003 0.31209 0.90579 0.0
In39 In 0.49533 0.74827 0.09524 0.0
O40 O 0.42848 0.71007 0.06237 0.0
O41 O 0.49429 0.71694 0.04518 0.0
C42 C 0.44575 0.74248 0.14924 0.0
C43 C 0.53459 0.83888 0.0725 0.0
C44 C 0.55008 0.71259 0.12013 0.0
O45 O 0.42763 0.71234 0.12638 0.0
O46 O 0.48866 0.77548 0.14491 0.0
O47 O 0.56576 0.75699 0.11659 0.0
O48 O 0.50699 0.68588 0.11067 0.0
C49 C 0.45016 0.70264 0.03964 0.0
O50 O 0.55714 0.81565 0.0728 0.0
O51 O 0.4927 0.81686 0.08404 0.0
In52 In 0.73954 0.47688 0.26055 0.0
O53 O 0.69924 0.41075 0.22781 0.0
O54 O 0.76794 0.46579 0.2124 0.0
C55 C 0.70545 0.42825 0.31647 0.0
C56 C 0.68975 0.51945 0.23833 0.0
C57 C 0.8304 0.53547 0.28273 0.0
O58 O 0.72069 0.41294 0.29386 0.0
O59 O 0.70633 0.46745 0.31068 0.0
O60 O 0.80004 0.54957 0.27875 0.0
O61 O 0.81558 0.49231 0.27467 0.0
C62 C 0.73114 0.42566 0.2063 0.0
O63 O 0.73439 0.53666 0.23354 0.0
O64 O 0.67037 0.4814 0.25482 0.0
In65 In 0.25448 0.74474 0.4264 0.0
O66 O 0.1838 0.73176 0.40273 0.0
O67 O 0.19136 0.67056 0.41291 0.0
C68 C 0.28197 0.83387 0.44947 0.0
C69 C 0.31056 0.75648 0.3746 0.0
C70 C 0.2611 0.70014 0.48033 0.0
O71 O 0.23828 0.80251 0.44537 0.0
O72 O 0.31184 0.82088 0.44126 0.0
O73 O 0.2813 0.70038 0.45418 0.0
O74 O 0.23643 0.72119 0.47917 0.0
C75 C 0.16532 0.68665 0.40129 0.0
O76 O 0.3207 0.74818 0.40264 0.0
O77 O 0.27275 0.75983 0.37264 0.0
H78 H 0.47226 0.09757 0.55256 0.0
C79 C 0.44819 0.11202 0.5568 0.0
H80 H 0.37781 0.10172 0.55002 0.0
H81 H 0.33473 0.96413 0.42875 0.0
H82 H 0.33646 0.03374 0.40389 0.0
H83 H 0.35978 0.10736 0.4358 0.0
H84 H 0.38152 0.11185 0.49275 0.0
C85 C 0.40176 0.08683 0.54711 0.0
C86 C 0.38367 0.04083 0.52884 0.0
C87 C 0.3701 0.0385 0.4957 0.0
C88 C 0.35634 0.99593 0.47732 0.0
C89 C 0.34457 0.99518 0.44401 0.0
C90 C 0.34566 0.035 0.42937 0.0
C91 C 0.35881 0.07646 0.44733 0.0
C92 C 0.37111 0.07848 0.48006 0.0
H93 H 0.26841 0.88967 0.47022 0.0
C94 C 0.29644 0.88087 0.46454 0.0
H95 H 0.37044 0.90179 0.46901 0.0
H96 H 0.40115 0.03091 0.59287 0.0
H97 H 0.39955 0.96131 0.61767 0.0
H98 H 0.37826 0.88848 0.58536 0.0
H99 H 0.35771 0.88453 0.5282 0.0
C100 C 0.34252 0.91131 0.47316 0.0
C101 C 0.35577 0.95566 0.49222 0.0
C102 C 0.36847 0.95766 0.52549 0.0
C103 C 0.3818 1.00003 0.54394 0.0
C104 C 0.39236 1.00027 0.57744 0.0
C105 C 0.39118 0.96039 0.59206 0.0
C106 C 0.37907 0.91934 0.5739 0.0
C107 C 0.36755 0.91766 0.54105 0.0
H108 H 0.47064 0.36765 0.63169 0.0
C109 C 0.44697 0.32929 0.62782 0.0
H110 H 0.37662 0.27036 0.63376 0.0
H111 H 0.34531 0.3832 0.75026 0.0
H112 H 0.3533 0.3217 0.77954 0.0
H113 H 0.37384 0.26656 0.75095 0.0
H114 H 0.38687 0.2729 0.69288 0.0
C115 C 0.40032 0.30897 0.63607 0.0
C116 C 0.3818 0.33809 0.65221 0.0
C117 C 0.37266 0.3328 0.68595 0.0
C118 C 0.35989 0.36399 0.70231 0.0
C119 C 0.3536 0.35959 0.73636 0.0
C120 C 0.35842 0.32462 0.75355 0.0
C121 C 0.37006 0.29363 0.73746 0.0
C122 C 0.37738 0.29764 0.7041 0.0
H123 H 0.27197 0.38086 0.71267 0.0
C124 C 0.29943 0.41861 0.71417 0.0
H125 H 0.3704 0.47132 0.702 0.0
H126 H 0.39179 0.35414 0.58682 0.0
H127 H 0.38225 0.41463 0.55712 0.0
H128 H 0.35994 0.46872 0.58538 0.0
H129 H 0.34698 0.46264 0.64348 0.0
C130 C 0.34323 0.43342 0.70156 0.0
C131 C 0.35504 0.39955 0.68464 0.0
C132 C 0.36281 0.40386 0.65072 0.0
C133 C 0.37599 0.37294 0.63445 0.0
C134 C 0.38265 0.37738 0.60046 0.0
C135 C 0.37702 0.41174 0.58309 0.0
C136 C 0.36442 0.44217 0.599 0.0
C137 C 0.35723 0.43838 0.63239 0.0
H138 H 0.91432 0.28004 0.89417 0.0
C139 C 0.89951 0.30427 0.89353 0.0
H140 H 0.91102 0.37281 0.8797 0.0
H141 H 0.13916 0.45754 0.87686 0.0
H142 H 0.13212 0.48972 0.92847 0.0
H143 H 0.05208 0.46472 0.95176 0.0
H144 H 0.97861 0.40703 0.92365 0.0
C145 C 0.92478 0.34773 0.87991 0.0
C146 C 0.97275 0.3633 0.86546 0.0
C147 C 0.01518 0.39777 0.88186 0.0
C148 C 0.06123 0.41291 0.86811 0.0
C149 C 0.10318 0.44594 0.88566 0.0
C150 C 0.09967 0.46442 0.91545 0.0
C151 C 0.05461 0.45028 0.92859 0.0
C152 C 0.01274 0.41722 0.91217 0.0
H153 H 0.12146 0.48245 0.81493 0.0
C154 C 0.136 0.45847 0.81081 0.0
H155 H 0.12548 0.38833 0.81685 0.0
H156 H 0.89816 0.2979 0.82712 0.0
H157 H 0.90517 0.26548 0.77564 0.0
H158 H 0.98511 0.2915 0.75187 0.0
H159 H 0.05848 0.3502 0.77942 0.0
C160 C 0.11208 0.41308 0.82161 0.0
C161 C 0.06453 0.39442 0.83756 0.0
C162 C 0.02211 0.3593 0.82143 0.0
C163 C 0.97609 0.34396 0.83528 0.0
C164 C 0.93414 0.31012 0.81809 0.0
C165 C 0.93762 0.29139 0.78839 0.0
C166 C 0.98261 0.30607 0.775 0.0
C167 C 0.02447 0.33975 0.79113 0.0
H168 H 0.53215 0.90443 0.05919 0.0
C169 C 0.55434 0.88727 0.0586 0.0
H170 H 0.61907 0.89182 0.04219 0.0
H171 H 0.6443 0.0331 0.92748 0.0
H172 H 0.62171 0.9592 0.89803 0.0
H173 H 0.59513 0.88292 0.92715 0.0
H174 H 0.59089 0.87997 0.98585 0.0
C175 C 0.59748 0.90949 0.04413 0.0
C176 C 0.61409 0.95584 0.02694 0.0
C177 C 0.61604 0.95679 0.99259 0.0
C178 C 0.63093 1.00067 0.97579 0.0
C179 C 0.63288 1.00068 0.94148 0.0
C180 C 0.62005 0.95852 0.92426 0.0
C181 C 0.60507 0.91557 0.94065 0.0
C182 C 0.60294 0.91445 0.97438 0.0
H183 H 0.73283 0.11906 0.99264 0.0
C184 C 0.70757 0.12412 0.97741 0.0
H185 H 0.63571 0.0934 0.95979 0.0
H186 H 0.61808 0.9673 0.093 0.0
H187 H 0.63813 0.04066 0.12235 0.0
H188 H 0.65952 0.11579 0.09305 0.0
H189 H 0.66159 0.11813 0.03427 0.0
C190 C 0.66108 0.08947 0.97564 0.0
C191 C 0.64393 0.04348 0.99338 0.0
C192 C 0.64133 0.04244 0.02773 0.0
C193 C 0.6272 0.99872 0.04457 0.0
C194 C 0.627 0.99913 0.07893 0.0
C195 C 0.6387 0.04107 0.09609 0.0
C196 C 0.65088 0.0834 0.07961 0.0
C197 C 0.65221 0.0843 0.04584 0.0
H198 H 0.62287 0.52254 0.22924 0.0
C199 C 0.66147 0.5406 0.22466 0.0
H200 H 0.71975 0.59711 0.20019 0.0
H201 H 0.59227 0.62032 0.09129 0.0
H202 H 0.63455 0.58797 0.0606 0.0
H203 H 0.68461 0.55928 0.08845 0.0
H204 H 0.69291 0.56295 0.14706 0.0
C205 C 0.68154 0.57993 0.20588 0.0
C206 C 0.65152 0.59775 0.18937 0.0
C207 C 0.64697 0.5952 0.15504 0.0
C208 C 0.61774 0.61127 0.13897 0.0
C209 C 0.61387 0.6084 0.10469 0.0
C210 C 0.63793 0.58991 0.08679 0.0
C211 C 0.66614 0.5738 0.10247 0.0
C212 C 0.67068 0.57622 0.13616 0.0
H213 H 0.616 0.72004 0.14373 0.0
C214 C 0.57974 0.69414 0.13543 0.0
H215 H 0.52709 0.62049 0.13178 0.0
H216 H 0.65642 0.61265 0.25515 0.0
H217 H 0.61273 0.64341 0.28569 0.0
H218 H 0.55879 0.66736 0.25794 0.0
H219 H 0.54875 0.6613 0.1994 0.0
C220 C 0.56295 0.64703 0.1403 0.0
C221 C 0.59316 0.6299 0.1572 0.0
C222 C 0.59759 0.63243 0.1915 0.0
C223 C 0.62741 0.61706 0.20759 0.0
C224 C 0.6329 0.6221 0.24175 0.0
C225 C 0.60829 0.64005 0.25958 0.0
C226 C 0.57802 0.65367 0.24395 0.0
C227 C 0.57267 0.65009 0.21032 0.0
H228 H 0.10522 0.61663 0.38481 0.0
C229 C 0.11788 0.65501 0.38595 0.0
H230 H 0.10273 0.71061 0.37404 0.0
H231 H 0.9653 0.55112 0.26392 0.0
H232 H 0.04108 0.5721 0.23778 0.0
H233 H 0.11907 0.62503 0.26514 0.0
H234 H 0.12178 0.6572 0.31883 0.0
C235 C 0.09106 0.67248 0.37253 0.0
C236 C 0.04414 0.64035 0.35597 0.0
C237 C 0.04324 0.62194 0.32453 0.0
C238 C 0.99825 0.59169 0.30865 0.0
C239 C 0.99841 0.57407 0.27717 0.0
C240 C 0.04166 0.58592 0.26184 0.0
C241 C 0.08557 0.6157 0.27725 0.0
C242 C 0.08659 0.63374 0.30816 0.0
H243 H 0.88887 0.60385 0.3026 0.0
C244 C 0.87832 0.56655 0.29759 0.0
H245 H 0.89755 0.51224 0.30178 0.0
H246 H 0.03342 0.67001 0.41595 0.0
H247 H 0.95769 0.64751 0.44277 0.0
H248 H 0.87963 0.59263 0.41617 0.0
H249 H 0.87675 0.56048 0.36252 0.0
C250 C 0.90742 0.54931 0.30701 0.0
C251 C 0.9543 0.5803 0.32409 0.0
C252 C 0.95523 0.59801 0.35582 0.0
C253 C 1.00024 0.62867 0.37153 0.0
C254 C 1.00021 0.64641 0.40299 0.0
C255 C 0.95703 0.63371 0.41869 0.0
C256 C 0.91308 0.60289 0.40369 0.0
C257 C 0.91196 0.58499 0.37272 0.0
H258 H 0.54952 0.32737 0.49277 0.0
C259 C 0.57283 0.32086 0.50903 0.0
H260 H 0.6411 0.32556 0.51509 0.0
H261 H 0.59792 0.33699 0.35589 0.0
H262 H 0.53432 0.25435 0.3616 0.0
H263 H 0.51741 0.21423 0.41481 0.0
H264 H 0.56322 0.25711 0.46276 0.0
C265 C 0.61698 0.33123 0.4991 0.0
C266 C 0.63393 0.35179 0.4662 0.0
C267 C 0.60898 0.3252 0.43801 0.0
C268 C 0.62085 0.34735 0.40698 0.0
C269 C 0.59238 0.32126 0.37976 0.0
C270 C 0.5554 0.27383 0.38273 0.0
C271 C 0.54572 0.25132 0.41271 0.0
C272 C 0.57204 0.27651 0.44009 0.0
H273 H 0.69203 0.37037 0.35108 0.0
C274 C 0.68949 0.40276 0.34759 0.0
H275 H 0.67193 0.45218 0.36863 0.0
H276 H 0.69118 0.41151 0.51491 0.0
H277 H 0.75903 0.49214 0.50881 0.0
H278 H 0.78306 0.52882 0.45468 0.0
H279 H 0.73907 0.48539 0.40638 0.0
C280 C 0.67295 0.41891 0.37162 0.0
C281 C 0.66 0.39497 0.40389 0.0
C282 C 0.6867 0.42052 0.43188 0.0
C283 C 0.67346 0.39903 0.46306 0.0
C284 C 0.7 0.42588 0.49063 0.0
C285 C 0.73903 0.47222 0.48748 0.0
C286 C 0.75253 0.4929 0.45701 0.0
C287 C 0.72683 0.46757 0.42947 0.0
H288 H 0.29227 0.66391 0.50934 0.0
C289 C 0.26807 0.67878 0.51017 0.0
H290 H 0.22396 0.69497 0.53939 0.0
H291 H 0.26155 0.53584 0.62347 0.0
H292 H 0.22106 0.4802 0.57902 0.0
H293 H 0.19419 0.50575 0.53023 0.0
H294 H 0.20896 0.5874 0.52525 0.0
C295 C 0.24687 0.67866 0.53819 0.0
C296 C 0.25794 0.66115 0.56891 0.0
C297 C 0.2464 0.61242 0.57214 0.0
C298 C 0.25895 0.59679 0.60116 0.0
C299 C 0.25042 0.54895 0.60274 0.0
C300 C 0.22756 0.5167 0.57727 0.0
C301 C 0.21267 0.53116 0.54975 0.0
C302 C 0.22179 0.57835 0.54709 0.0
H303 H 0.21377 0.5637 0.66652 0.0
C304 C 0.25021 0.57809 0.67637 0.0
H305 H 0.32438 0.62654 0.66915 0.0
H306 H 0.28664 0.75735 0.5705 0.0
H307 H 0.32377 0.81179 0.61601 0.0
H308 H 0.34101 0.78336 0.66743 0.0
H309 H 0.32134 0.70022 0.67365 0.0
C310 C 0.28775 0.61136 0.65955 0.0
C311 C 0.27978 0.62896 0.62781 0.0
C312 C 0.29123 0.67758 0.62462 0.0
C313 C 0.28056 0.69377 0.5951 0.0
C314 C 0.29314 0.74279 0.59249 0.0
C315 C 0.31467 0.77455 0.61839 0.0
C316 C 0.32438 0.75854 0.64735 0.0
C317 C 0.31289 0.71069 0.65058 0.0
H318 H 0.70017 0.22016 0.8197 0.0
C319 C 0.69489 0.24208 0.83756 0.0
H320 H 0.66687 0.28849 0.84633 0.0
H321 H 0.66809 0.35256 0.70178 0.0
H322 H 0.72366 0.42764 0.72838 0.0
H323 H 0.74936 0.42896 0.78521 0.0
H324 H 0.71907 0.35529 0.81596 0.0
C325 C 0.6712 0.26547 0.82889 0.0
C326 C 0.65472 0.26426 0.79461 0.0
C327 C 0.67354 0.30765 0.77672 0.0
C328 C 0.65969 0.30676 0.74362 0.0
C329 C 0.678 0.35087 0.72673 0.0
C330 C 0.70991 0.39434 0.74173 0.0
C331 C 0.72432 0.39509 0.77374 0.0
C332 C 0.70652 0.35243 0.79113 0.0
H333 H 0.53796 0.22889 0.70553 0.0
C334 C 0.5647 0.24478 0.68654 0.0
H335 H 0.63874 0.27897 0.67527 0.0
H336 H 0.60476 0.17541 0.82293 0.0
H337 H 0.55394 0.09961 0.7954 0.0
H338 H 0.53937 0.09692 0.73633 0.0
H339 H 0.57409 0.17017 0.70475 0.0
C340 C 0.61166 0.26212 0.69393 0.0
C341 C 0.62788 0.26237 0.72816 0.0
C342 C 0.61031 0.21879 0.7458 0.0
C343 C 0.6219 0.21997 0.77936 0.0
C344 C 0.5998 0.17637 0.79701 0.0
C345 C 0.57013 0.1326 0.78156 0.0
C346 C 0.5617 0.13111 0.74835 0.0
C347 C 0.58148 0.17355 0.73056 0.0
H348 H 0.37158 0.55801 0.85175 0.0
C349 C 0.35444 0.57689 0.84084 0.0
H350 H 0.33857 0.63334 0.84615 0.0
H351 H 0.38534 0.58685 0.99624 0.0
H352 H 0.31237 0.50985 0.98948 0.0
H353 H 0.26745 0.48768 0.93739 0.0
H354 H 0.296 0.54178 0.89159 0.0
C355 C 0.35545 0.61401 0.85673 0.0
C356 C 0.37914 0.62943 0.88928 0.0
C357 C 0.36036 0.59834 0.91637 0.0
C358 C 0.38453 0.61236 0.947 0.0
C359 C 0.36705 0.57914 0.97293 0.0
C360 C 0.32538 0.53461 0.96931 0.0
C361 C 0.30023 0.52203 0.93995 0.0
C362 C 0.31731 0.55334 0.91373 0.0
H363 H 0.38824 0.67195 1.00548 0.0
C364 C 0.4259 0.68132 1.00847 0.0
H365 H 0.4874 0.68623 0.986 0.0
H366 H 0.42402 0.69766 0.84259 0.0
H367 H 0.49442 0.77658 0.8501 0.0
H368 H 0.53364 0.80279 0.90386 0.0
H369 H 0.50308 0.75027 0.95041 0.0
C370 C 0.44927 0.67526 0.98355 0.0
C371 C 0.42556 0.65874 0.95108 0.0
C372 C 0.44369 0.69017 0.92415 0.0
C373 C 0.42059 0.67539 0.89322 0.0
C374 C 0.43984 0.70726 0.86668 0.0
C375 C 0.48026 0.75266 0.87064 0.0
C376 C 0.50238 0.7674 0.90091 0.0
C377 C 0.48447 0.73676 0.92743 0.0
H378 H 0.79472 0.36994 0.01146 0.0
C379 C 0.76058 0.33821 1.00518 0.0
H380 H 0.68994 0.28947 0.02055 0.0
H381 H 0.75505 0.33579 0.16834 0.0
H382 H 0.74266 0.25505 0.16283 0.0
H383 H 0.72374 0.21453 0.10949 0.0
H384 H 0.71768 0.2548 0.0613 0.0
C385 C 0.72333 0.32267 0.02564 0.0
C386 C 0.72974 0.34569 0.05808 0.0
C387 C 0.73164 0.32106 0.08623 0.0
C388 C 0.74137 0.34399 0.11714 0.0
C389 C 0.74589 0.31953 0.14448 0.0
C390 C 0.73931 0.27325 0.14162 0.0
C391 C 0.72876 0.25048 0.11159 0.0
C392 C 0.72525 0.27402 0.08411 0.0
H393 H 0.69026 0.3658 0.17197 0.0
C394 C 0.72419 0.39901 0.17573 0.0
H395 H 0.79057 0.44955 0.15534 0.0
H396 H 0.72442 0.40121 1.0094 0.0
H397 H 0.73492 0.48138 0.01491 0.0
H398 H 0.75082 0.52092 0.06851 0.0
H399 H 0.75647 0.48069 0.11686 0.0
C400 C 0.75735 0.41547 0.1522 0.0
C401 C 0.74758 0.39099 0.11999 0.0
C402 C 0.74478 0.41523 0.09187 0.0
C403 C 0.73577 0.39253 0.06091 0.0
C404 C 0.73214 0.41717 0.03338 0.0
C405 C 0.73779 0.46308 0.03623 0.0
C406 C 0.74672 0.48534 0.0664 0.0
C407 C 0.75005 0.46184 0.09397 0.0
H408 H 0.37361 0.75973 0.35048 0.0
C409 C 0.33994 0.76001 0.34631 0.0
H410 H 0.29181 0.76198 0.31143 0.0
H411 H 0.44171 0.85067 0.19836 0.0
H412 H 0.42771 0.91674 0.21115 0.0
H413 H 0.38055 0.91354 0.2591 0.0
H414 H 0.34678 0.84406 0.29441 0.0
C415 C 0.32505 0.76096 0.31583 0.0
C416 C 0.35424 0.76281 0.28731 0.0
C417 C 0.37418 0.80392 0.26711 0.0
C418 C 0.40205 0.8061 0.23977 0.0
C419 C 0.42081 0.84731 0.2197 0.0
C420 C 0.41298 0.8855 0.22672 0.0
C421 C 0.38638 0.88368 0.25369 0.0
C422 C 0.36713 0.84349 0.27373 0.0
H423 H 0.38083 0.71106 0.17976 0.0
C424 C 0.41844 0.73921 0.17863 0.0
H425 H 0.47597 0.79868 0.20245 0.0
H426 H 0.31608 0.67581 0.31839 0.0
H427 H 0.33357 0.61161 0.30731 0.0
H428 H 0.38841 0.61885 0.26315 0.0
H429 H 0.42502 0.68982 0.22932 0.0
C430 C 0.43875 0.76969 0.20375 0.0
C431 C 0.4103 0.76733 0.23282 0.0
C432 C 0.39125 0.72662 0.25344 0.0
C433 C 0.36196 0.7237 0.28012 0.0
C434 C 0.34055 0.6811 0.29884 0.0
C435 C 0.34997 0.64373 0.29258 0.0
C436 C 0.38066 0.64771 0.26764 0.0
C437 C 0.40116 0.68855 0.24823 0.0
loop_
_geom_bond_atom_site_label_1
_geom_bond_atom_site_label_2
_geom_bond_distance
_geom_bond_site_symmetry_2
_ccdc_geom_bond_type
In0 O1 2.294 . S
In0 O2 2.326 . S
In0 O6 2.266 . S
In0 O7 2.326 . S
In0 O8 2.266 . S
In0 O9 2.326 . S
In0 O11 2.294 . S
In0 O12 2.326 . S
O1 In0 2.294 . S
O1 C10 1.240 . S
O2 In0 2.326 . S
O2 C10 1.252 . S
C3 O6 1.252 . S
C3 O7 1.260 . S
C4 O11 1.240 . S
C4 O12 1.252 . S
C5 O8 1.252 . S
C5 O9 1.260 . S
O6 In0 2.266 . S
O6 C3 1.252 . S
O7 In0 2.326 . S
O7 C3 1.260 . S
O8 In0 2.266 . S
O8 C5 1.252 . S
O9 In0 2.326 . S
O9 C5 1.260 . S
C10 O1 1.240 . S
C10 O2 1.252 . S
O11 In0 2.294 . S
O11 C4 1.240 . S
O12 In0 2.326 . S
O12 C4 1.252 . S
In13 O14 2.294 . S
In13 O15 2.326 . S
In13 O19 2.266 . S
In13 O20 2.326 . S
In13 O21 2.266 . S
In13 O22 2.326 . S
In13 O24 2.294 . S
In13 O25 2.326 . S
O14 In13 2.294 . S
O14 C23 1.240 . S
O15 In13 2.326 . S
O15 C23 1.252 . S
C16 O19 1.252 . S
C16 O20 1.260 . S
C17 O24 1.240 . S
C17 O25 1.252 . S
C18 O21 1.252 . S
C18 O22 1.260 . S
O19 In13 2.266 . S
O19 C16 1.252 . S
O20 In13 2.326 . S
O20 C16 1.260 . S
O21 In13 2.266 . S
O21 C18 1.252 . S
O22 In13 2.326 . S
O22 C18 1.260 . S
C23 O14 1.240 . S
C23 O15 1.252 . S
O24 In13 2.294 . S
O24 C17 1.240 . S
O25 In13 2.326 . S
O25 C17 1.252 . S
In26 O27 2.294 . S
In26 O28 2.326 . S
In26 O32 2.266 . S
In26 O33 2.326 . S
In26 O34 2.266 . S
In26 O35 2.326 . S
In26 O37 2.294 . S
In26 O38 2.326 . S
O27 In26 2.294 . S
O27 C36 1.240 . S
O28 In26 2.326 . S
O28 C36 1.252 . S
C29 O32 1.252 . S
C29 O33 1.260 . S
C30 O37 1.240 . S
C30 O38 1.252 . S
C31 O34 1.252 . S
C31 O35 1.260 . S
O32 In26 2.266 . S
O32 C29 1.252 . S
O33 In26 2.326 . S
O33 C29 1.260 . S
O34 In26 2.266 . S
O34 C31 1.252 . S
O35 In26 2.326 . S
O35 C31 1.260 . S
C36 O27 1.240 . S
C36 O28 1.252 . S
O37 In26 2.294 . S
O37 C30 1.240 . S
O38 In26 2.326 . S
O38 C30 1.252 . S
In39 O40 2.294 . S
In39 O41 2.326 . S
In39 O45 2.266 . S
In39 O46 2.326 . S
In39 O47 2.266 . S
In39 O48 2.326 . S
In39 O50 2.294 . S
In39 O51 2.326 . S
O40 In39 2.294 . S
O40 C49 1.240 . S
O41 In39 2.326 . S
O41 C49 1.252 . S
C42 O45 1.252 . S
C42 O46 1.260 . S
C43 O50 1.240 . S
C43 O51 1.252 . S
C44 O47 1.252 . S
C44 O48 1.260 . S
O45 In39 2.266 . S
O45 C42 1.252 . S
O46 In39 2.326 . S
O46 C42 1.260 . S
O47 In39 2.266 . S
O47 C44 1.252 . S
O48 In39 2.326 . S
O48 C44 1.260 . S
C49 O40 1.240 . S
C49 O41 1.252 . S
O50 In39 2.294 . S
O50 C43 1.240 . S
O51 In39 2.326 . S
O51 C43 1.252 . S
In52 O53 2.294 . S
In52 O54 2.326 . S
In52 O58 2.266 . S
In52 O59 2.326 . S
In52 O60 2.266 . S
In52 O61 2.326 . S
In52 O63 2.294 . S
In52 O64 2.326 . S
O53 In52 2.294 . S
O53 C62 1.240 . S
O54 In52 2.326 . S
O54 C62 1.252 . S
C55 O58 1.252 . S
C55 O59 1.260 . S
C56 O63 1.240 . S
C56 O64 1.252 . S
C57 O60 1.252 . S
C57 O61 1.260 . S
O58 In52 2.266 . S
O58 C55 1.252 . S
O59 In52 2.326 . S
O59 C55 1.260 . S
O60 In52 2.266 . S
O60 C57 1.252 . S
O61 In52 2.326 . S
O61 C57 1.260 . S
C62 O53 1.240 . S
C62 O54 1.252 . S
O63 In52 2.294 . S
O63 C56 1.240 . S
O64 In52 2.326 . S
O64 C56 1.252 . S
In65 O66 2.294 . S
In65 O67 2.326 . S
In65 O71 2.266 . S
In65 O72 2.326 . S
In65 O73 2.266 . S
In65 O74 2.326 . S
In65 O76 2.294 . S
In65 O77 2.326 . S
O66 In65 2.294 . S
O66 C75 1.240 . S
O67 In65 2.326 . S
O67 C75 1.252 . S
C68 O71 1.252 . S
C68 O72 1.260 . S
C69 O76 1.240 . S
C69 O77 1.252 . S
C70 O73 1.252 . S
C70 O74 1.260 . S
O71 In65 2.266 . S
O71 C68 1.252 . S
O72 In65 2.326 . S
O72 C68 1.260 . S
O73 In65 2.266 . S
O73 C70 1.252 . S
O74 In65 2.326 . S
O74 C70 1.260 . S
C75 O66 1.240 . S
C75 O67 1.252 . S
O76 In65 2.294 . S
O76 C69 1.240 . S
O77 In65 2.326 . S
O77 C69 1.252 . S
H78 C79 0.951 . S
C79 H78 0.951 . S
C79 C85 1.265 . S
H80 C85 0.950 . S
H81 C89 0.949 . S
H82 C90 0.950 . S
H83 C91 0.951 . S
H84 C92 0.951 . S
C85 C79 1.265 . S
C85 H80 0.950 . S
C85 C86 1.478 . S
C86 C85 1.478 . S
C86 C87 1.397 . S
C86 C103 1.394 . S
C87 C86 1.397 . S
C87 C88 1.438 1_545 S
C87 C92 1.429 . S
C88 C87 1.438 1_565 S
C88 C89 1.428 . S
C88 C101 1.394 . S
C89 H81 0.949 . S
C89 C88 1.428 . S
C89 C90 1.345 1_565 S
C90 H82 0.950 . S
C90 C89 1.345 1_545 S
C90 C91 1.424 . S
C91 H83 0.951 . S
C91 C90 1.424 . S
C91 C92 1.347 . S
C92 H84 0.951 . S
C92 C87 1.429 . S
C92 C91 1.347 . S
H93 C94 0.951 . S
C94 H93 0.951 . S
C94 C100 1.265 . S
H95 C100 0.950 . S
H96 C104 0.949 . S
H97 C105 0.950 . S
H98 C106 0.951 . S
H99 C107 0.951 . S
C100 C94 1.265 . S
C100 H95 0.950 . S
C100 C101 1.478 . S
C101 C88 1.394 . S
C101 C100 1.478 . S
C101 C102 1.397 . S
C102 C101 1.397 . S
C102 C103 1.438 1_565 S
C102 C107 1.429 . S
C103 C86 1.394 . S
C103 C102 1.438 1_545 S
C103 C104 1.428 . S
C104 H96 0.949 . S
C104 C103 1.428 . S
C104 C105 1.345 1_545 S
C105 H97 0.950 . S
C105 C104 1.345 1_565 S
C105 C106 1.424 . S
C106 H98 0.951 . S
C106 C105 1.424 . S
C106 C107 1.347 . S
C107 H99 0.951 . S
C107 C102 1.429 . S
C107 C106 1.347 . S
H108 C109 0.951 . S
C109 H108 0.951 . S
C109 C115 1.265 . S
H110 C115 0.950 . S
H111 C119 0.949 . S
H112 C120 0.950 . S
H113 C121 0.951 . S
H114 C122 0.951 . S
C115 C109 1.265 . S
C115 H110 0.950 . S
C115 C116 1.478 . S
C116 C115 1.478 . S
C116 C117 1.397 . S
C116 C133 1.394 . S
C117 C116 1.397 . S
C117 C118 1.438 . S
C117 C122 1.429 . S
C118 C117 1.438 . S
C118 C119 1.428 . S
C118 C131 1.394 . S
C119 H111 0.949 . S
C119 C118 1.428 . S
C119 C120 1.345 . S
C120 H112 0.950 . S
C120 C119 1.345 . S
C120 C121 1.424 . S
C121 H113 0.951 . S
C121 C120 1.424 . S
C121 C122 1.347 . S
C122 H114 0.951 . S
C122 C117 1.429 . S
C122 C121 1.347 . S
H123 C124 0.951 . S
C124 H123 0.951 . S
C124 C130 1.265 . S
H125 C130 0.950 . S
H126 C134 0.949 . S
H127 C135 0.950 . S
H128 C136 0.951 . S
H129 C137 0.951 . S
C130 C124 1.265 . S
C130 H125 0.950 . S
C130 C131 1.478 . S
C131 C118 1.394 . S
C131 C130 1.478 . S
C131 C132 1.397 . S
C132 C131 1.397 . S
C132 C133 1.438 . S
C132 C137 1.429 . S
C133 C116 1.394 . S
C133 C132 1.438 . S
C133 C134 1.428 . S
C134 H126 0.949 . S
C134 C133 1.428 . S
C134 C135 1.345 . S
C135 H127 0.950 . S
C135 C134 1.345 . S
C135 C136 1.424 . S
C136 H128 0.951 . S
C136 C135 1.424 . S
C136 C137 1.347 . S
C137 H129 0.951 . S
C137 C132 1.429 . S
C137 C136 1.347 . S
H138 C139 0.951 . S
C139 H138 0.951 . S
C139 C145 1.265 . S
H140 C145 0.950 . S
H141 C149 0.949 . S
H142 C150 0.950 . S
H143 C151 0.951 . S
H144 C152 0.951 . S
C145 C139 1.265 . S
C145 H140 0.950 . S
C145 C146 1.478 . S
C146 C145 1.478 . S
C146 C147 1.397 . S
C146 C163 1.394 . S
C147 C146 1.397 . S
C147 C148 1.438 1_655 S
C147 C152 1.429 . S
C148 C147 1.438 1_455 S
C148 C149 1.428 . S
C148 C161 1.394 . S
C149 H141 0.949 . S
C149 C148 1.428 . S
C149 C150 1.345 . S
C150 H142 0.950 . S
C150 C149 1.345 . S
C150 C151 1.424 . S
C151 H143 0.951 . S
C151 C150 1.424 . S
C151 C152 1.347 1_455 S
C152 H144 0.951 . S
C152 C147 1.429 . S
C152 C151 1.347 1_655 S
H153 C154 0.951 . S
C154 H153 0.951 . S
C154 C160 1.265 . S
H155 C160 0.950 . S
H156 C164 0.949 . S
H157 C165 0.950 . S
H158 C166 0.966 . S
H159 C167 0.951 . S
C160 C154 1.265 . S
C160 H155 0.950 . S
C160 C161 1.478 . S
C161 C148 1.394 . S
C161 C160 1.478 . S
C161 C162 1.397 . S
C162 C161 1.397 . S
C162 C163 1.438 1_455 S
C162 C167 1.429 . S
C163 C146 1.394 . S
C163 C162 1.438 1_655 S
C163 C164 1.428 . S
C164 H156 0.949 . S
C164 C163 1.428 . S
C164 C165 1.345 . S
C165 H157 0.950 . S
C165 C164 1.345 . S
C165 C166 1.424 . S
C166 H158 0.966 . S
C166 C165 1.424 . S
C166 C167 1.347 1_655 S
C167 H159 0.951 . S
C167 C162 1.429 . S
C167 C166 1.347 1_455 S
H168 C169 0.951 . S
C169 H168 0.951 . S
C169 C175 1.265 . S
H170 C175 0.950 . S
H171 C179 0.949 . S
H172 C180 0.950 . S
H173 C181 0.951 . S
H174 C182 0.951 . S
C175 C169 1.265 . S
C175 H170 0.950 . S
C175 C176 1.478 . S
C176 C175 1.478 . S
C176 C177 1.397 1_554 S
C176 C193 1.394 . S
C177 C176 1.397 1_556 S
C177 C178 1.438 1_565 S
C177 C182 1.429 . S
C178 C177 1.438 1_545 S
C178 C179 1.428 . S
C178 C191 1.394 . S
C179 H171 0.949 . S
C179 C178 1.428 . S
C179 C180 1.345 1_545 S
C180 H172 0.950 . S
C180 C179 1.345 1_565 S
C180 C181 1.424 . S
C181 H173 0.951 . S
C181 C180 1.424 . S
C181 C182 1.347 . S
C182 H174 0.951 . S
C182 C177 1.429 . S
C182 C181 1.347 . S
H183 C184 0.951 . S
C184 H183 0.951 . S
C184 C190 1.265 . S
H185 C190 0.950 . S
H186 C194 0.949 . S
H187 C195 0.950 . S
H188 C196 0.951 . S
H189 C197 0.951 . S
C190 C184 1.265 . S
C190 H185 0.950 . S
C190 C191 1.478 . S
C191 C178 1.394 . S
C191 C190 1.478 . S
C191 C192 1.397 1_556 S
C192 C191 1.397 1_554 S
C192 C193 1.438 1_545 S
C192 C197 1.429 . S
C193 C176 1.394 . S
C193 C192 1.438 1_565 S
C193 C194 1.428 . S
C194 H186 0.949 . S
C194 C193 1.428 . S
C194 C195 1.345 1_565 S
C195 H187 0.950 . S
C195 C194 1.345 1_545 S
C195 C196 1.424 . S
C196 H188 0.951 . S
C196 C195 1.424 . S
C196 C197 1.347 . S
C197 H189 0.951 . S
C197 C192 1.429 . S
C197 C196 1.347 . S
H198 C199 0.951 . S
C199 H198 0.951 . S
C199 C205 1.265 . S
H200 C205 0.950 . S
H201 C209 0.949 . S
H202 C210 0.950 . S
H203 C211 0.951 . S
H204 C212 0.951 . S
C205 C199 1.265 . S
C205 H200 0.950 . S
C205 C206 1.478 . S
C206 C205 1.478 . S
C206 C207 1.397 . S
C206 C223 1.394 . S
C207 C206 1.397 . S
C207 C208 1.438 . S
C207 C212 1.429 . S
C208 C207 1.438 . S
C208 C209 1.428 . S
C208 C221 1.394 . S
C209 H201 0.949 . S
C209 C208 1.428 . S
C209 C210 1.345 . S
C210 H202 0.950 . S
C210 C209 1.345 . S
C210 C211 1.424 . S
C211 H203 0.951 . S
C211 C210 1.424 . S
C211 C212 1.347 . S
C212 H204 0.951 . S
C212 C207 1.429 . S
C212 C211 1.347 . S
H213 C214 0.951 . S
C214 H213 0.951 . S
C214 C220 1.265 . S
H215 C220 0.950 . S
H216 C224 0.949 . S
H217 C225 0.950 . S
H218 C226 0.951 . S
H219 C227 0.951 . S
C220 C214 1.265 . S
C220 H215 0.950 . S
C220 C221 1.478 . S
C221 C208 1.394 . S
C221 C220 1.478 . S
C221 C222 1.397 . S
C222 C221 1.397 . S
C222 C223 1.438 . S
C222 C227 1.429 . S
C223 C206 1.394 . S
C223 C222 1.438 . S
C223 C224 1.428 . S
C224 H216 0.949 . S
C224 C223 1.428 . S
C224 C225 1.345 . S
C225 H217 0.950 . S
C225 C224 1.345 . S
C225 C226 1.424 . S
C226 H218 0.951 . S
C226 C225 1.424 . S
C226 C227 1.347 . S
C227 H219 0.951 . S
C227 C222 1.429 . S
C227 C226 1.347 . S
H228 C229 0.951 . S
C229 H228 0.951 . S
C229 C235 1.265 . S
H230 C235 0.950 . S
H231 C239 0.949 . S
H232 C240 0.950 . S
H233 C241 0.951 . S
H234 C242 0.951 . S
C235 C229 1.265 . S
C235 H230 0.950 . S
C235 C236 1.478 . S
C236 C235 1.478 . S
C236 C237 1.397 . S
C236 C253 1.394 . S
C237 C236 1.397 . S
C237 C238 1.438 1_455 S
C237 C242 1.429 . S
C238 C237 1.438 1_655 S
C238 C239 1.428 . S
C238 C251 1.394 . S
C239 H231 0.949 . S
C239 C238 1.428 . S
C239 C240 1.345 1_655 S
C240 H232 0.950 . S
C240 C239 1.345 1_455 S
C240 C241 1.424 . S
C241 H233 0.951 . S
C241 C240 1.424 . S
C241 C242 1.347 . S
C242 H234 0.951 . S
C242 C237 1.429 . S
C242 C241 1.347 . S
H243 C244 0.951 . S
C244 H243 0.951 . S
C244 C250 1.265 . S
H245 C250 0.950 . S
H246 C254 0.949 . S
H247 C255 0.950 . S
H248 C256 0.951 . S
H249 C257 0.951 . S
C250 C244 1.265 . S
C250 H245 0.950 . S
C250 C251 1.478 . S
C251 C238 1.394 . S
C251 C250 1.478 . S
C251 C252 1.397 . S
C252 C251 1.397 . S
C252 C253 1.438 1_655 S
C252 C257 1.429 . S
C253 C236 1.394 . S
C253 C252 1.438 1_455 S
C253 C254 1.428 . S
C254 H246 0.949 . S
C254 C253 1.428 . S
C254 C255 1.345 1_455 S
C255 H247 0.950 . S
C255 C254 1.345 1_655 S
C255 C256 1.424 . S
C256 H248 0.951 . S
C256 C255 1.424 . S
C256 C257 1.347 . S
C257 H249 0.951 . S
C257 C252 1.429 . S
C257 C256 1.347 . S
H258 C259 0.951 . S
C259 H258 0.951 . S
C259 C265 1.265 . S
H260 C265 0.950 . S
H261 C269 0.949 . S
H262 C270 0.950 . S
H263 C271 0.951 . S
H264 C272 0.951 . S
C265 C259 1.265 . S
C265 H260 0.950 . S
C265 C266 1.478 . S
C266 C265 1.478 . S
C266 C267 1.397 . S
C266 C283 1.394 . S
C267 C266 1.397 . S
C267 C268 1.438 . S
C267 C272 1.429 . S
C268 C267 1.438 . S
C268 C269 1.428 . S
C268 C281 1.394 . S
C269 H261 0.949 . S
C269 C268 1.428 . S
C269 C270 1.345 . S
C270 H262 0.950 . S
C270 C269 1.345 . S
C270 C271 1.424 . S
C271 H263 0.951 . S
C271 C270 1.424 . S
C271 C272 1.347 . S
C272 H264 0.951 . S
C272 C267 1.429 . S
C272 C271 1.347 . S
H273 C274 0.951 . S
C274 H273 0.951 . S
C274 C280 1.265 . S
H275 C280 0.950 . S
H276 C284 0.949 . S
H277 C285 0.950 . S
H278 C286 0.951 . S
H279 C287 0.951 . S
C280 C274 1.265 . S
C280 H275 0.950 . S
C280 C281 1.478 . S
C281 C268 1.394 . S
C281 C280 1.478 . S
C281 C282 1.397 . S
C282 C281 1.397 . S
C282 C283 1.438 . S
C282 C287 1.429 . S
C283 C266 1.394 . S
C283 C282 1.438 . S
C283 C284 1.428 . S
C284 H276 0.949 . S
C284 C283 1.428 . S
C284 C285 1.345 . S
C285 H277 0.950 . S
C285 C284 1.345 . S
C285 C286 1.424 . S
C286 H278 0.951 . S
C286 C285 1.424 . S
C286 C287 1.347 . S
C287 H279 0.951 . S
C287 C282 1.429 . S
C287 C286 1.347 . S
H288 C289 0.951 . S
C289 H288 0.951 . S
C289 C295 1.265 . S
H290 C295 0.950 . S
H291 C299 0.949 . S
H292 C300 0.950 . S
H293 C301 0.951 . S
H294 C302 0.951 . S
C295 C289 1.265 . S
C295 H290 0.950 . S
C295 C296 1.478 . S
C296 C295 1.478 . S
C296 C297 1.397 . S
C296 C313 1.394 . S
C297 C296 1.397 . S
C297 C298 1.438 . S
C297 C302 1.429 . S
C298 C297 1.438 . S
C298 C299 1.428 . S
C298 C311 1.394 . S
C299 H291 0.949 . S
C299 C298 1.428 . S
C299 C300 1.345 . S
C300 H292 0.950 . S
C300 C299 1.345 . S
C300 C301 1.424 . S
C301 H293 0.951 . S
C301 C300 1.424 . S
C301 C302 1.347 . S
C302 H294 0.951 . S
C302 C297 1.429 . S
C302 C301 1.347 . S
H303 C304 0.951 . S
C304 H303 0.951 . S
C304 C310 1.265 . S
H305 C310 0.950 . S
H306 C314 0.949 . S
H307 C315 0.950 . S
H308 C316 0.951 . S
H309 C317 0.951 . S
C310 C304 1.265 . S
C310 H305 0.950 . S
C310 C311 1.478 . S
C311 C298 1.394 . S
C311 C310 1.478 . S
C311 C312 1.397 . S
C312 C311 1.397 . S
C312 C313 1.438 . S
C312 C317 1.429 . S
C313 C296 1.394 . S
C313 C312 1.438 . S
C313 C314 1.428 . S
C314 H306 0.949 . S
C314 C313 1.428 . S
C314 C315 1.345 . S
C315 H307 0.950 . S
C315 C314 1.345 . S
C315 C316 1.424 . S
C316 H308 0.951 . S
C316 C315 1.424 . S
C316 C317 1.347 . S
C317 H309 0.951 . S
C317 C312 1.429 . S
C317 C316 1.347 . S
H318 C319 0.951 . S
C319 H318 0.951 . S
C319 C325 1.265 . S
H320 C325 0.950 . S
H321 C329 0.949 . S
H322 C330 0.950 . S
H323 C331 0.951 . S
H324 C332 0.951 . S
C325 C319 1.265 . S
C325 H320 0.950 . S
C325 C326 1.478 . S
C326 C325 1.478 . S
C326 C327 1.397 . S
C326 C343 1.394 . S
C327 C326 1.397 . S
C327 C328 1.438 . S
C327 C332 1.429 . S
C328 C327 1.438 . S
C328 C329 1.428 . S
C328 C341 1.394 . S
C329 H321 0.949 . S
C329 C328 1.428 . S
C329 C330 1.345 . S
C330 H322 0.950 . S
C330 C329 1.345 . S
C330 C331 1.424 . S
C331 H323 0.951 . S
C331 C330 1.424 . S
C331 C332 1.347 . S
C332 H324 0.951 . S
C332 C327 1.429 . S
C332 C331 1.347 . S
H333 C334 0.951 . S
C334 H333 0.951 . S
C334 C340 1.265 . S
H335 C340 0.950 . S
H336 C344 0.949 . S
H337 C345 0.950 . S
H338 C346 0.951 . S
H339 C347 0.951 . S
C340 C334 1.265 . S
C340 H335 0.950 . S
C340 C341 1.478 . S
C341 C328 1.394 . S
C341 C340 1.478 . S
C341 C342 1.397 . S
C342 C341 1.397 . S
C342 C343 1.438 . S
C342 C347 1.429 . S
C343 C326 1.394 . S
C343 C342 1.438 . S
C343 C344 1.428 . S
C344 H336 0.949 . S
C344 C343 1.428 . S
C344 C345 1.345 . S
C345 H337 0.950 . S
C345 C344 1.345 . S
C345 C346 1.424 . S
C346 H338 0.951 . S
C346 C345 1.424 . S
C346 C347 1.347 . S
C347 H339 0.951 . S
C347 C342 1.429 . S
C347 C346 1.347 . S
H348 C349 0.951 . S
C349 H348 0.951 . S
C349 C355 1.265 . S
H350 C355 0.950 . S
H351 C359 0.949 . S
H352 C360 0.950 . S
H353 C361 0.951 . S
H354 C362 0.951 . S
C355 C349 1.265 . S
C355 H350 0.950 . S
C355 C356 1.478 . S
C356 C355 1.478 . S
C356 C357 1.397 . S
C356 C373 1.394 . S
C357 C356 1.397 . S
C357 C358 1.438 . S
C357 C362 1.429 . S
C358 C357 1.438 . S
C358 C359 1.428 . S
C358 C371 1.394 . S
C359 H351 0.949 . S
C359 C358 1.428 . S
C359 C360 1.345 . S
C360 H352 0.950 . S
C360 C359 1.345 . S
C360 C361 1.424 . S
C361 H353 0.951 . S
C361 C360 1.424 . S
C361 C362 1.347 . S
C362 H354 0.951 . S
C362 C357 1.429 . S
C362 C361 1.347 . S
H363 C364 0.951 . S
C364 H363 0.951 . S
C364 C370 1.265 . S
H365 C370 0.950 . S
H366 C374 0.949 . S
H367 C375 0.950 . S
H368 C376 0.951 . S
H369 C377 0.951 . S
C370 C364 1.265 . S
C370 H365 0.950 . S
C370 C371 1.478 . S
C371 C358 1.394 . S
C371 C370 1.478 . S
C371 C372 1.397 . S
C372 C371 1.397 . S
C372 C373 1.438 . S
C372 C377 1.429 . S
C373 C356 1.394 . S
C373 C372 1.438 . S
C373 C374 1.428 . S
C374 H366 0.949 . S
C374 C373 1.428 . S
C374 C375 1.345 . S
C375 H367 0.950 . S
C375 C374 1.345 . S
C375 C376 1.424 . S
C376 H368 0.951 . S
C376 C375 1.424 . S
C376 C377 1.347 . S
C377 H369 0.951 . S
C377 C372 1.429 . S
C377 C376 1.347 . S
H378 C379 0.951 . S
C379 H378 0.951 . S
C379 C385 1.265 . S
H380 C385 0.950 . S
H381 C389 0.949 . S
H382 C390 0.950 . S
H383 C391 0.951 . S
H384 C392 0.951 . S
C385 C379 1.265 . S
C385 H380 0.950 . S
C385 C386 1.478 . S
C386 C385 1.478 . S
C386 C387 1.397 . S
C386 C403 1.394 . S
C387 C386 1.397 . S
C387 C388 1.438 . S
C387 C392 1.429 . S
C388 C387 1.438 . S
C388 C389 1.428 . S
C388 C401 1.394 . S
C389 H381 0.949 . S
C389 C388 1.428 . S
C389 C390 1.345 . S
C390 H382 0.950 . S
C390 C389 1.345 . S
C390 C391 1.424 . S
C391 H383 0.951 . S
C391 C390 1.424 . S
C391 C392 1.347 . S
C392 H384 0.951 . S
C392 C387 1.429 . S
C392 C391 1.347 . S
H393 C394 0.951 . S
C394 H393 0.951 . S
C394 C400 1.265 . S
H395 C400 0.950 . S
H396 C404 0.949 . S
H397 C405 0.950 . S
H398 C406 0.951 . S
H399 C407 0.951 . S
C400 C394 1.265 . S
C400 H395 0.950 . S
C400 C401 1.478 . S
C401 C388 1.394 . S
C401 C400 1.478 . S
C401 C402 1.397 . S
C402 C401 1.397 . S
C402 C403 1.438 . S
C402 C407 1.429 . S
C403 C386 1.394 . S
C403 C402 1.438 . S
C403 C404 1.428 . S
C404 H396 0.949 . S
C404 C403 1.428 . S
C404 C405 1.345 . S
C405 H397 0.950 . S
C405 C404 1.345 . S
C405 C406 1.424 . S
C406 H398 0.951 . S
C406 C405 1.424 . S
C406 C407 1.347 . S
C407 H399 0.951 . S
C407 C402 1.429 . S
C407 C406 1.347 . S
H408 C409 0.951 . S
C409 H408 0.951 . S
C409 C415 1.265 . S
H410 C415 0.950 . S
H411 C419 0.949 . S
H412 C420 0.950 . S
H413 C421 0.951 . S
H414 C422 0.951 . S
C415 C409 1.265 . S
C415 H410 0.950 . S
C415 C416 1.478 . S
C416 C415 1.478 . S
C416 C417 1.397 . S
C416 C433 1.394 . S
C417 C416 1.397 . S
C417 C418 1.438 . S
C417 C422 1.429 . S
C418 C417 1.438 . S
C418 C419 1.428 . S
C418 C431 1.394 . S
C419 H411 0.949 . S
C419 C418 1.428 . S
C419 C420 1.345 . S
C420 H412 0.950 . S
C420 C419 1.345 . S
C420 C421 1.424 . S
C421 H413 0.951 . S
C421 C420 1.424 . S
C421 C422 1.347 . S
C422 H414 0.951 . S
C422 C417 1.429 . S
C422 C421 1.347 . S
H423 C424 0.951 . S
C424 H423 0.951 . S
C424 C430 1.265 . S
H425 C430 0.950 . S
H426 C434 0.949 . S
H427 C435 0.950 . S
H428 C436 0.951 . S
H429 C437 0.951 . S
C430 C424 1.265 . S
C430 H425 0.950 . S
C430 C431 1.478 . S
C431 C418 1.394 . S
C431 C430 1.478 . S
C431 C432 1.397 . S
C432 C431 1.397 . S
C432 C433 1.438 . S
C432 C437 1.429 . S
C433 C416 1.394 . S
C433 C432 1.438 . S
C433 C434 1.428 . S
C434 H426 0.949 . S
C434 C433 1.428 . S
C434 C435 1.345 . S
C435 H427 0.950 . S
C435 C434 1.345 . S
C435 C436 1.424 . S
C436 H428 0.951 . S
C436 C435 1.424 . S
C436 C437 1.347 . S
C437 H429 0.951 . S
C437 C432 1.429 . S
C437 C436 1.347 . S
C79 C4 1.611 . S
C94 C68 1.602 . S
C109 C5 1.612 . S
C124 C23 1.600 . S
C139 C30 1.604 . S
C154 C16 1.612 . S
C169 C43 1.613 . S
C184 C31 1.603 . S
C199 C56 1.614 . S
C214 C44 1.604 . S
C229 C75 1.614 . S
C244 C57 1.607 . S
C259 C10 1.449 . S
C274 C55 1.444 . S
C289 C70 1.447 . S
C304 C17 1.454 . S
C319 C36 1.443 . S
C334 C3 1.444 . S
C349 C18 1.450 . S
C364 C49 1.442 1_556 S
C379 C29 1.447 1_554 S
C394 C62 1.439 . S
C409 C69 1.450 . S
C424 C42 1.451 . S
