# Generated by pormake.
# Topology eci, (8)-cn, num edge types: 1
# Building blocks:
#     Node 0, Type 0, BuildingBlock: TAGTUT_clean_sbu_3, # of connection points: 8
#     Node 1, Type 0, BuildingBlock: TAGTUT_clean_sbu_3, # of connection points: 8
#     Node 2, Type 0, BuildingBlock: TAGTUT_clean_sbu_3, # of connection points: 8
#     Node 3, Type 0, BuildingBlock: TAGTUT_clean_sbu_3, # of connection points: 8
#     Edge 4, Type (0, 0), BuildingBlock: OJICUG_clean_linker_0, # of connection points: 2
#     Edge 5, Type (0, 0), BuildingBlock: OJICUG_clean_linker_0, # of connection points: 2
#     Edge 6, Type (0, 0), BuildingBlock: OJICUG_clean_linker_0, # of connection points: 2
#     Edge 7, Type (0, 0), BuildingBlock: OJICUG_clean_linker_0, # of connection points: 2
#     Edge 8, Type (0, 0), BuildingBlock: OJICUG_clean_linker_0, # of connection points: 2
#     Edge 9, Type (0, 0), BuildingBlock: OJICUG_clean_linker_0, # of connection points: 2
#     Edge 10, Type (0, 0), BuildingBlock: OJICUG_clean_linker_0, # of connection points: 2
#     Edge 11, Type (0, 0), BuildingBlock: OJICUG_clean_linker_0, # of connection points: 2
#     Edge 12, Type (0, 0), BuildingBlock: OJICUG_clean_linker_0, # of connection points: 2
#     Edge 13, Type (0, 0), BuildingBlock: OJICUG_clean_linker_0, # of connection points: 2
#     Edge 14, Type (0, 0), BuildingBlock: OJICUG_clean_linker_0, # of connection points: 2
#     Edge 15, Type (0, 0), BuildingBlock: OJICUG_clean_linker_0, # of connection points: 2
#     Edge 16, Type (0, 0), BuildingBlock: OJICUG_clean_linker_0, # of connection points: 2
#     Edge 17, Type (0, 0), BuildingBlock: OJICUG_clean_linker_0, # of connection points: 2
#     Edge 18, Type (0, 0), BuildingBlock: OJICUG_clean_linker_0, # of connection points: 2
#     Edge 19, Type (0, 0), BuildingBlock: OJICUG_clean_linker_0, # of connection points: 2
# Relax obj value: 0.322
# Max RMSD: 0.269
# Mean RMSD: 0.265
data_MOF--net-eci--node1-TAGTUT_clean_sbu_3--edge1-OJICUG_clean_linker_0
_symmetry_space_group_name_H-M    P1
_symmetry_Int_Tables_number       1
_symmetry_cell_setting            triclinic
loop_
_symmetry_equiv_pos_as_xyz
'x, y, z'
_cell_length_a     24.324352
_cell_length_b     24.988061
_cell_length_c     12.064782
_cell_angle_alpha  91.745611
_cell_angle_beta   90.417583
_cell_angle_gamma 90.541359
loop_
_atom_site_label
_atom_site_type_symbol
_atom_site_fract_x
_atom_site_fract_y
_atom_site_fract_z
_atom_type_partial_charge
C0 C 0.73024 0.88944 0.08795 0.0
C1 C 0.60838 0.7385 0.96397 0.0
C2 C 0.75746 0.63211 0.05704 0.0
Mg3 Mg 0.85351 0.90934 0.07184 0.0
Mg4 Mg 0.92811 0.85733 0.8785 0.0
O5 O 0.88275 0.84229 -0.00343 0.0
Mg6 Mg 0.81234 0.80102 -0.02649 0.0
O7 O 0.73925 0.76663 0.96601 0.0
Mg8 Mg 0.71983 0.76134 0.12823 0.0
Mg9 Mg 0.72296 0.70768 0.87383 0.0
C10 C 0.90196 0.73304 0.83391 0.0
O11 O 0.80559 0.81194 0.78139 0.0
O12 O 0.94248 0.93003 0.10884 0.0
O13 O 0.76189 0.73513 0.72737 0.0
O14 O 0.85826 0.96294 0.9252 0.0
O15 O 0.9954 0.88709 -0.01788 0.0
O16 O 0.89595 0.92041 0.78196 0.0
O17 O 0.81199 0.78308 0.16302 0.0
O18 O 0.84858 0.86067 0.22363 0.0
C19 C 0.82938 0.81432 0.24257 0.0
C20 C 0.98937 0.91665 0.0698 0.0
O21 O 0.86495 0.72851 0.90976 0.0
O22 O 0.62949 0.74923 0.0606 0.0
O23 O 0.92458 0.77779 0.80989 0.0
O24 O 0.74198 0.66845 0.12743 0.0
O25 O 0.63663 0.71917 0.88348 0.0
O26 O 0.75569 0.63975 0.9532 0.0
O27 O 0.76921 0.87709 0.02315 0.0
O28 O 0.70326 0.8534 0.13813 0.0
C29 C 0.87384 0.96189 0.82514 0.0
C30 C 0.78862 0.77787 0.7054 0.0
C31 C 0.6065 0.23208 0.29873 0.0
C32 C 0.76362 0.11228 0.20119 0.0
C33 C 0.87641 0.24903 0.30391 0.0
Mg34 Mg 0.59028 0.35663 0.3074 0.0
Mg35 Mg 0.64893 0.43542 0.12692 0.0
O36 O 0.65821 0.38395 0.23614 0.0
Mg37 Mg 0.70157 0.31654 0.21467 0.0
O38 O 0.73798 0.2454 0.2049 0.0
Mg39 Mg 0.73944 0.22185 0.36267 0.0
Mg40 Mg 0.7955 0.22434 0.11456 0.0
C41 C 0.76913 0.41458 0.1162 0.0
O42 O 0.69505 0.31146 0.02036 0.0
O43 O 0.58116 0.44418 0.36322 0.0
O44 O 0.76971 0.26366 0.9686 0.0
O45 O 0.53452 0.36888 0.16007 0.0
O46 O 0.63201 0.49684 0.25304 0.0
O47 O 0.57661 0.41536 0.03125 0.0
O48 O 0.71832 0.31156 0.40443 0.0
O49 O 0.63929 0.3457 0.46097 0.0
C50 C 0.68635 0.32709 0.48248 0.0
C51 C 0.60324 0.48942 0.34023 0.0
O52 O 0.775 0.37785 0.18856 0.0
O53 O 0.75174 0.13345 0.2964 0.0
O54 O 0.72679 0.41424 0.05355 0.0
O55 O 0.83708 0.23861 0.37145 0.0
O56 O 0.78118 0.14019 0.1214 0.0
O57 O 0.86837 0.2489 0.19949 0.0
O58 O 0.61914 0.27302 0.24364 0.0
O59 O 0.64377 0.20641 0.35038 0.0
C60 C 0.53473 0.39017 0.06599 0.0
C61 C 0.72824 0.29266 0.94577 0.0
C62 C 0.17813 0.14823 0.22564 0.0
C63 C 0.12432 -0.00101 0.4165 0.0
C64 C 0.02304 0.08945 0.63997 0.0
Mg65 Mg 0.23918 0.24815 0.34663 0.0
Mg66 Mg 0.297 0.24508 0.59516 0.0
O67 O 0.23862 0.22467 0.50356 0.0
Mg68 Mg 0.19653 0.15587 0.49693 0.0
O69 O 0.14494 0.09129 0.48154 0.0
Mg70 Mg 0.07634 0.12344 0.39269 0.0
Mg71 Mg 0.14283 0.04289 0.61245 0.0
C72 C 0.2252 0.1825 0.7655 0.0
O73 O 0.26686 0.09301 0.52673 0.0
O74 O 0.25692 0.33589 0.41049 0.0
O75 O 0.22251 0.06726 0.67559 0.0
O76 O 0.33592 0.22946 0.33757 0.0
O77 O 0.28699 0.32949 0.58575 0.0
O78 O 0.36841 0.21924 0.50974 0.0
O79 O 0.11887 0.20029 0.46684 0.0
O80 O 0.14502 0.26716 0.36207 0.0
C81 C 0.10752 0.24239 0.41504 0.0
C82 C 0.27071 0.35736 0.50484 0.0
O83 O 0.19077 0.16515 0.69025 0.0
O84 O 0.1301 0.05025 0.43089 0.0
O85 O 0.2693 0.20838 0.74327 0.0
O86 O 0.02392 0.10842 0.54311 0.0
O87 O 0.13579 0.97152 0.50072 0.0
O88 O 0.06443 0.06643 0.68389 0.0
O89 O 0.21183 0.15903 0.3055 0.0
O90 O 0.12847 0.13535 0.24381 0.0
C91 C 0.37556 0.21908 0.40515 0.0
C92 C 0.26183 0.06075 0.60765 0.0
C93 C 0.33086 0.67017 0.46616 0.0
C94 C 0.50112 0.60075 0.65844 0.0
C95 C 0.39004 0.52284 0.87991 0.0
Mg96 Mg 0.21539 0.70828 0.56812 0.0
Mg97 Mg 0.20433 0.75731 0.82658 0.0
O98 O 0.23131 0.70382 0.73266 0.0
Mg99 Mg 0.30786 0.67855 0.7354 0.0
O100 O 0.38337 0.64677 0.72526 0.0
Mg101 Mg 0.36596 0.57944 0.63771 0.0
Mg102 Mg 0.42768 0.63872 0.85284 0.0
C103 C 0.27289 0.69443 0.00266 0.0
O104 O 0.35622 0.75586 0.797 0.0
O105 O 0.12169 0.71011 0.61669 0.0
O106 O 0.3904 0.70813 0.93307 0.0
O107 O 0.22999 0.80312 0.57682 0.0
O108 O 0.12103 0.73424 0.79812 0.0
O109 O 0.23277 0.82935 0.75536 0.0
O110 O 0.27552 0.59781 0.6774 0.0
O111 O 0.20863 0.6145 0.55707 0.0
C112 C 0.23873 0.58148 0.60892 0.0
C113 C 0.09712 0.71519 0.71059 0.0
O114 O 0.29545 0.66439 0.92677 0.0
O115 O 0.45823 0.57824 0.61448 0.0
O116 O 0.2414 0.73339 -0.02049 0.0
O117 O 0.37469 0.52349 0.77941 0.0
O118 O 0.50072 0.62801 0.7506 0.0
O119 O 0.40859 0.56476 0.93008 0.0
O120 O 0.3091 0.6973 0.54609 0.0
O121 O 0.35779 0.62815 0.48569 0.0
C122 C 0.23932 0.83917 0.65321 0.0
C123 C 0.38825 0.75197 0.88233 0.0
C124 C 0.78844 0.75894 0.39199 0.0
C125 C 0.82189 0.80162 0.36042 0.0
H126 H 0.75121 0.71836 0.5255 0.0
C127 C 0.84577 0.8356 0.44356 0.0
H128 H 0.7694 0.73223 0.33029 0.0
C129 C 0.83513 0.82811 0.55542 0.0
C130 C 0.80056 0.78633 0.58708 0.0
H131 H 0.87226 0.86879 0.42237 0.0
H132 H 0.85383 0.8552 0.61676 0.0
C133 C 0.77787 0.75137 0.50415 0.0
C134 C 0.66598 0.34408 0.68243 0.0
C135 C 0.70012 0.32069 0.60056 0.0
H136 H 0.64781 0.35364 0.85499 0.0
C137 C 0.74488 0.29007 0.63341 0.0
H138 H 0.63133 0.36857 0.66006 0.0
C139 C 0.75425 0.28163 0.74582 0.0
C140 C 0.71907 0.30374 0.82751 0.0
H141 H 0.77188 0.27172 0.57253 0.0
H142 H 0.78877 0.25703 0.76828 0.0
C143 C 0.67529 0.33564 0.79454 0.0
C144 C 0.25115 0.19154 0.96695 0.0
C145 C 0.21467 0.17194 0.88329 0.0
H146 H 0.26865 0.19923 0.14133 0.0
C147 C 0.1683 0.14233 0.9135 0.0
H148 H 0.28762 0.21426 0.94645 0.0
C149 C 0.15781 0.13368 0.02473 0.0
C150 C 0.19331 0.15454 0.10864 0.0
H151 H 0.13976 0.12617 0.85149 0.0
H152 H 0.12124 0.11096 0.04483 0.0
C153 C 0.24059 0.18282 0.07871 0.0
C154 C 0.32727 0.65129 0.15291 0.0
C155 C 0.28699 0.68768 0.12158 0.0
H156 H 0.37356 0.61847 0.28459 0.0
C157 C 0.26251 0.72035 0.20487 0.0
H158 H 0.34747 0.62599 0.0915 0.0
C159 C 0.27763 0.71631 0.31664 0.0
C160 C 0.31756 0.67948 0.34783 0.0
H161 H 0.23152 0.74927 0.18394 0.0
H162 H 0.25748 0.74142 0.37838 0.0
C163 C 0.34246 0.64739 0.2642 0.0
C164 C 0.46275 0.79024 -0.00453 0.0
C165 C 0.44136 0.77993 0.88801 0.0
H166 H 0.53134 0.78171 0.10605 0.0
C167 C 0.47799 0.76693 0.80246 0.0
H168 H 0.43524 0.80012 0.06319 0.0
C169 C 0.53236 0.75413 0.82754 0.0
C170 C 0.5516 0.75589 0.93822 0.0
H171 H 0.46281 0.75842 0.71901 0.0
H172 H 0.55832 0.74003 0.76042 0.0
C173 C 0.51727 0.77756 0.02082 0.0
C174 C 0.7381 0.01857 0.25948 0.0
C175 C 0.75078 0.05497 0.17618 0.0
H176 H 0.72039 0.9364 0.29687 0.0
C177 C 0.74847 0.03689 0.06472 0.0
H178 H 0.73883 0.03141 0.34602 0.0
C179 C 0.73636 0.98372 0.03712 0.0
C180 C 0.72672 0.94666 0.1198 0.0
H181 H 0.75667 0.0637 -0.00222 0.0
H182 H 0.73719 0.97088 0.95049 0.0
C183 C 0.72644 0.96455 0.23143 0.0
C184 C 0.47303 0.18987 0.43444 0.0
C185 C 0.43315 0.21289 0.36547 0.0
H186 H 0.55868 0.1772 0.46737 0.0
C187 C 0.45073 0.23653 0.26756 0.0
H188 H 0.461 0.17105 0.51037 0.0
C189 C 0.50699 0.24043 0.24356 0.0
C190 C 0.54701 0.22041 0.31629 0.0
H191 H 0.42136 0.25479 0.21275 0.0
H192 H 0.51926 0.26071 0.16954 0.0
C193 C 0.52918 0.19331 0.40987 0.0
C194 C 0.2855 0.92564 0.7101 0.0
C195 C 0.25965 0.89384 0.6262 0.0
H196 H 0.30999 0.00429 0.76639 0.0
C197 C 0.2509 0.9165 0.52217 0.0
H198 H 0.29471 0.90932 0.79024 0.0
C199 C 0.26111 0.97155 0.50785 0.0
C200 C 0.28009 0.00448 0.59733 0.0
H201 H 0.23199 0.89299 0.45506 0.0
H202 H 0.24803 -0.01068 0.43135 0.0
C203 C 0.29571 0.98005 0.69569 0.0
C204 C 0.94456 0.6921 0.67274 0.0
C205 C 0.93081 0.68685 0.78554 0.0
H206 H 0.01005 0.71162 0.56127 0.0
C207 C 0.97106 0.66712 0.85636 0.0
H208 H 0.91341 0.7044 0.6143 0.0
C209 C 0.02628 0.67287 0.82784 0.0
C210 C 0.04082 0.69382 0.72474 0.0
H211 H 0.96129 0.6594 0.94196 0.0
H212 H 0.05738 0.66577 0.89034 0.0
C213 C 0.99994 0.69806 0.64313 0.0
C214 C 0.81619 0.49235 0.04119 0.0
C215 C 0.79258 0.46887 0.13389 0.0
H216 H 0.82325 0.56217 0.94403 0.0
C217 C 0.76787 0.50269 0.21444 0.0
H218 H 0.83453 0.46735 -0.02328 0.0
C219 C 0.75991 0.55733 0.19452 0.0
C220 C 0.77682 0.57892 0.09383 0.0
H221 H 0.74813 0.4856 0.28559 0.0
H222 H 0.73614 0.58116 0.25299 0.0
C223 C 0.80827 0.5466 0.02114 0.0
C224 C 0.95211 0.23671 0.445 0.0
C225 C 0.93426 0.25683 0.34363 0.0
H226 H 0.02101 0.21732 0.54761 0.0
C227 C 0.97391 0.27897 0.27288 0.0
H228 H 0.92295 0.21943 0.50149 0.0
C229 C 0.03012 0.27771 0.29912 0.0
C230 C 0.04821 0.25387 0.39643 0.0
H231 H 0.96169 0.29534 0.19442 0.0
H232 H 0.05944 0.29259 0.24007 0.0
C233 C 0.00842 0.23514 0.47087 0.0
C234 C 0.24261 0.44957 0.44474 0.0
C235 C 0.26138 0.41524 0.5273 0.0
H236 H 0.2196 0.52999 0.40565 0.0
C237 C 0.2673 0.43569 0.63654 0.0
H238 H 0.23693 0.43487 0.36002 0.0
C239 C 0.2559 0.48886 0.66253 0.0
C240 C 0.23908 0.52373 0.58018 0.0
H241 H 0.28066 0.41064 0.70311 0.0
H242 H 0.26173 0.50317 0.74757 0.0
C243 C 0.23169 0.50365 0.47099 0.0
C244 C 0.09284 0.92033 0.29771 0.0
C245 C 0.09718 0.97594 0.31665 0.0
H246 H 0.05553 0.85704 0.19792 0.0
C247 C 0.07422 0.01033 0.23946 0.0
H248 H 0.11073 0.89291 0.35539 0.0
C249 C 0.04433 -0.0099 0.1492 0.0
C250 C 0.03674 0.93496 0.13455 0.0
H251 H 0.07616 0.05303 0.25182 0.0
H252 H 0.02341 0.01767 0.09587 0.0
C253 C 0.06249 0.89986 0.20676 0.0
C254 C 0.5748 0.58098 0.40087 0.0
C255 C 0.5986 0.53202 0.42544 0.0
H256 H 0.52584 0.64538 0.46458 0.0
C257 C 0.6072 0.51883 0.53669 0.0
H258 H 0.56818 0.59187 0.3156 0.0
C259 C 0.584 0.54978 0.62179 0.0
C260 C 0.55147 0.59345 0.59546 0.0
H261 H 0.62647 0.48138 0.55696 0.0
H262 H 0.5842 0.5347 0.7051 0.0
C263 C 0.5513 0.61184 0.4863 0.0
C264 C 0.93029 0.05101 0.61678 0.0
C265 C 0.96883 0.07831 0.68593 0.0
H266 H 0.86756 -0.00974 0.60875 0.0
C267 C 0.96097 0.08038 0.80054 0.0
H268 H 0.93561 0.04908 0.52763 0.0
C269 C 0.91974 0.04915 0.84634 0.0
C270 C 0.88874 0.01324 0.77793 0.0
H271 H 0.99014 0.1014 0.85492 0.0
H272 H 0.91864 0.04671 0.93585 0.0
C273 C 0.89101 0.01754 0.66276 0.0
C274 C 0.47623 0.40375 0.9007 0.0
C275 C 0.48154 0.40218 0.01596 0.0
H276 H 0.43804 0.44214 0.76549 0.0
C277 C 0.44256 0.42813 0.08385 0.0
H278 H 0.50593 0.38403 0.84727 0.0
C279 C 0.40554 0.4636 0.03787 0.0
C280 C 0.40571 0.47109 0.92348 0.0
H281 H 0.44606 0.42742 0.17342 0.0
H282 H 0.38155 0.48938 0.09233 0.0
C283 C 0.43725 0.43708 0.85438 0.0
loop_
_geom_bond_atom_site_label_1
_geom_bond_atom_site_label_2
_geom_bond_distance
_geom_bond_site_symmetry_2
_ccdc_geom_bond_type
C0 O27 1.312 . S
C0 O28 1.208 . S
C1 O22 1.339 . S
C1 O25 1.244 . S
C2 O24 1.264 . S
C2 O26 1.273 1_554 S
Mg3 O5 1.936 . S
Mg3 O12 2.081 . S
Mg3 O14 2.023 1_554 S
Mg3 O18 2.031 . S
Mg3 O27 2.291 . S
Mg4 O5 1.963 1_556 S
Mg4 O15 1.942 1_656 S
Mg4 O16 1.955 . S
Mg4 O23 1.986 . S
O5 Mg3 1.936 . S
O5 Mg4 1.963 1_554 S
O5 Mg6 1.915 1_554 S
Mg6 O5 1.915 1_556 S
Mg6 O7 1.915 . S
Mg6 O11 2.013 . S
Mg6 O17 2.114 1_556 S
Mg6 O21 2.013 . S
Mg6 O27 2.114 1_556 S
O7 Mg6 1.915 . S
O7 Mg8 1.936 1_556 S
O7 Mg9 1.963 . S
Mg8 O7 1.936 1_554 S
Mg8 O17 2.291 . S
Mg8 O22 2.076 1_554 S
Mg8 O24 2.023 . S
Mg8 O28 2.031 . S
Mg9 O7 1.963 . S
Mg9 O13 1.986 . S
Mg9 O25 1.942 . S
Mg9 O26 1.955 . S
C10 O21 1.191 . S
C10 O23 1.307 . S
O11 Mg6 2.013 . S
O11 C30 1.191 . S
O12 Mg3 2.081 . S
O12 C20 1.331 1_655 S
O13 Mg9 1.986 . S
O13 C30 1.307 . S
O14 Mg3 2.023 1_556 S
O14 C29 1.264 . S
O15 Mg4 1.942 1_454 S
O15 C20 1.244 . S
O16 Mg4 1.955 . S
O16 C29 1.273 . S
O17 Mg6 2.114 1_554 S
O17 Mg8 2.291 . S
O17 C19 1.312 . S
O18 Mg3 2.031 . S
O18 C19 1.208 . S
C19 O17 1.312 . S
C19 O18 1.208 . S
C20 O12 1.331 1_455 S
C20 O15 1.244 . S
O21 Mg6 2.013 . S
O21 C10 1.191 . S
O22 C1 1.339 . S
O22 Mg8 2.076 1_556 S
O23 Mg4 1.986 . S
O23 C10 1.307 . S
O24 C2 1.264 . S
O24 Mg8 2.023 . S
O25 C1 1.244 . S
O25 Mg9 1.942 . S
O26 C2 1.273 1_556 S
O26 Mg9 1.955 . S
O27 C0 1.312 . S
O27 Mg3 2.291 . S
O27 Mg6 2.114 1_554 S
O28 C0 1.208 . S
O28 Mg8 2.031 . S
C29 O14 1.264 . S
C29 O16 1.273 . S
C30 O11 1.191 . S
C30 O13 1.307 . S
C31 O58 1.312 . S
C31 O59 1.208 . S
C32 O53 1.331 . S
C32 O56 1.244 . S
C33 O55 1.264 . S
C33 O57 1.273 . S
Mg34 O36 1.936 . S
Mg34 O43 2.081 . S
Mg34 O45 2.023 . S
Mg34 O49 2.031 . S
Mg34 O58 2.291 . S
Mg35 O36 1.963 . S
Mg35 O46 1.942 . S
Mg35 O47 1.955 . S
Mg35 O54 1.986 . S
O36 Mg34 1.936 . S
O36 Mg35 1.963 . S
O36 Mg37 1.915 . S
Mg37 O36 1.915 . S
Mg37 O38 1.915 . S
Mg37 O42 2.013 . S
Mg37 O48 2.114 . S
Mg37 O52 2.013 . S
Mg37 O58 2.114 . S
O38 Mg37 1.915 . S
O38 Mg39 1.936 . S
O38 Mg40 1.963 . S
Mg39 O38 1.936 . S
Mg39 O48 2.291 . S
Mg39 O53 2.081 . S
Mg39 O55 2.023 . S
Mg39 O59 2.031 . S
Mg40 O38 1.963 . S
Mg40 O44 1.986 1_554 S
Mg40 O56 1.942 . S
Mg40 O57 1.955 . S
C41 O52 1.191 . S
C41 O54 1.307 . S
O42 Mg37 2.013 . S
O42 C61 1.191 1_554 S
O43 Mg34 2.081 . S
O43 C51 1.331 . S
O44 Mg40 1.986 1_556 S
O44 C61 1.307 . S
O45 Mg34 2.023 . S
O45 C60 1.264 . S
O46 Mg35 1.942 . S
O46 C51 1.244 . S
O47 Mg35 1.955 . S
O47 C60 1.273 . S
O48 Mg37 2.114 . S
O48 Mg39 2.291 . S
O48 C50 1.312 . S
O49 Mg34 2.031 . S
O49 C50 1.208 . S
C50 O48 1.312 . S
C50 O49 1.208 . S
C51 O43 1.331 . S
C51 O46 1.244 . S
O52 Mg37 2.013 . S
O52 C41 1.191 . S
O53 C32 1.331 . S
O53 Mg39 2.081 . S
O54 Mg35 1.986 . S
O54 C41 1.307 . S
O55 C33 1.264 . S
O55 Mg39 2.023 . S
O56 C32 1.244 . S
O56 Mg40 1.942 . S
O57 C33 1.273 . S
O57 Mg40 1.955 . S
O58 C31 1.312 . S
O58 Mg34 2.291 . S
O58 Mg37 2.114 . S
O59 C31 1.208 . S
O59 Mg39 2.031 . S
C60 O45 1.264 . S
C60 O47 1.273 . S
C61 O42 1.191 1_556 S
C61 O44 1.307 . S
C62 O89 1.312 . S
C62 O90 1.208 . S
C63 O84 1.331 1_565 S
C63 O87 1.244 . S
C64 O86 1.264 . S
C64 O88 1.273 . S
Mg65 O67 1.936 . S
Mg65 O74 2.081 . S
Mg65 O76 2.023 . S
Mg65 O80 2.031 . S
Mg65 O89 2.291 . S
Mg66 O67 1.963 . S
Mg66 O77 1.942 . S
Mg66 O78 1.955 . S
Mg66 O85 1.986 . S
O67 Mg65 1.936 . S
O67 Mg66 1.963 . S
O67 Mg68 1.915 . S
Mg68 O67 1.915 . S
Mg68 O69 1.915 . S
Mg68 O73 2.013 . S
Mg68 O79 2.114 . S
Mg68 O83 2.013 . S
Mg68 O89 2.114 . S
O69 Mg68 1.915 . S
O69 Mg70 1.936 . S
O69 Mg71 1.963 . S
Mg70 O69 1.936 . S
Mg70 O79 2.291 . S
Mg70 O84 2.081 . S
Mg70 O86 2.023 . S
Mg70 O90 2.031 . S
Mg71 O69 1.963 . S
Mg71 O75 1.986 . S
Mg71 O87 1.942 1_545 S
Mg71 O88 1.955 . S
C72 O83 1.191 . S
C72 O85 1.307 . S
O73 Mg68 2.013 . S
O73 C92 1.191 . S
O74 Mg65 2.081 . S
O74 C82 1.331 . S
O75 Mg71 1.986 . S
O75 C92 1.307 . S
O76 Mg65 2.023 . S
O76 C91 1.264 . S
O77 Mg66 1.942 . S
O77 C82 1.244 . S
O78 Mg66 1.955 . S
O78 C91 1.273 . S
O79 Mg68 2.114 . S
O79 Mg70 2.291 . S
O79 C81 1.312 . S
O80 Mg65 2.031 . S
O80 C81 1.208 . S
C81 O79 1.312 . S
C81 O80 1.208 . S
C82 O74 1.331 . S
C82 O77 1.244 . S
O83 Mg68 2.013 . S
O83 C72 1.191 . S
O84 C63 1.331 1_545 S
O84 Mg70 2.081 . S
O85 Mg66 1.986 . S
O85 C72 1.307 . S
O86 C64 1.264 . S
O86 Mg70 2.023 . S
O87 C63 1.244 . S
O87 Mg71 1.942 1_565 S
O88 C64 1.273 . S
O88 Mg71 1.955 . S
O89 C62 1.312 . S
O89 Mg65 2.291 . S
O89 Mg68 2.114 . S
O90 C62 1.208 . S
O90 Mg70 2.031 . S
C91 O76 1.264 . S
C91 O78 1.273 . S
C92 O73 1.191 . S
C92 O75 1.307 . S
C93 O120 1.312 . S
C93 O121 1.208 . S
C94 O115 1.331 . S
C94 O118 1.244 . S
C95 O117 1.264 . S
C95 O119 1.273 . S
Mg96 O98 1.936 . S
Mg96 O105 2.081 . S
Mg96 O107 2.023 . S
Mg96 O111 2.031 . S
Mg96 O120 2.291 . S
Mg97 O98 1.963 . S
Mg97 O108 1.942 . S
Mg97 O109 1.955 . S
Mg97 O116 1.986 1_556 S
O98 Mg96 1.936 . S
O98 Mg97 1.963 . S
O98 Mg99 1.915 . S
Mg99 O98 1.915 . S
Mg99 O100 1.915 . S
Mg99 O104 2.013 . S
Mg99 O110 2.114 . S
Mg99 O114 2.013 . S
Mg99 O120 2.114 . S
O100 Mg99 1.915 . S
O100 Mg101 1.936 . S
O100 Mg102 1.963 . S
Mg101 O100 1.936 . S
Mg101 O110 2.291 . S
Mg101 O115 2.081 . S
Mg101 O117 2.023 . S
Mg101 O121 2.031 . S
Mg102 O100 1.963 . S
Mg102 O106 1.986 . S
Mg102 O118 1.942 . S
Mg102 O119 1.955 . S
C103 O114 1.191 1_554 S
C103 O116 1.307 . S
O104 Mg99 2.013 . S
O104 C123 1.191 . S
O105 Mg96 2.081 . S
O105 C113 1.331 . S
O106 Mg102 1.986 . S
O106 C123 1.307 . S
O107 Mg96 2.023 . S
O107 C122 1.264 . S
O108 Mg97 1.942 . S
O108 C113 1.244 . S
O109 Mg97 1.955 . S
O109 C122 1.273 . S
O110 Mg99 2.114 . S
O110 Mg101 2.291 . S
O110 C112 1.312 . S
O111 Mg96 2.031 . S
O111 C112 1.208 . S
C112 O110 1.312 . S
C112 O111 1.208 . S
C113 O105 1.331 . S
C113 O108 1.244 . S
O114 Mg99 2.013 . S
O114 C103 1.191 1_556 S
O115 C94 1.331 . S
O115 Mg101 2.081 . S
O116 Mg97 1.986 1_554 S
O116 C103 1.307 . S
O117 C95 1.264 . S
O117 Mg101 2.023 . S
O118 C94 1.244 . S
O118 Mg102 1.942 . S
O119 C95 1.273 . S
O119 Mg102 1.955 . S
O120 C93 1.312 . S
O120 Mg96 2.291 . S
O120 Mg99 2.114 . S
O121 C93 1.208 . S
O121 Mg101 2.031 . S
C122 O107 1.264 . S
C122 O109 1.273 . S
C123 O104 1.191 . S
C123 O106 1.307 . S
C124 C125 1.387 . S
C124 H128 0.950 . S
C124 C133 1.390 . S
C125 C124 1.387 . S
C125 C127 1.387 . S
H126 C133 0.950 . S
C127 C125 1.387 . S
C127 C129 1.390 . S
C127 H131 0.950 . S
H128 C124 0.950 . S
C129 C127 1.390 . S
C129 C130 1.387 . S
C129 H132 0.950 . S
C130 C129 1.387 . S
C130 C133 1.387 . S
H131 C127 0.950 . S
H132 C129 0.950 . S
C133 C124 1.390 . S
C133 H126 0.950 . S
C133 C130 1.387 . S
C134 C135 1.387 . S
C134 H138 0.950 . S
C134 C143 1.390 . S
C135 C134 1.387 . S
C135 C137 1.387 . S
H136 C143 0.950 . S
C137 C135 1.387 . S
C137 C139 1.390 . S
C137 H141 0.950 . S
H138 C134 0.950 . S
C139 C137 1.390 . S
C139 C140 1.387 . S
C139 H142 0.950 . S
C140 C139 1.387 . S
C140 C143 1.387 . S
H141 C137 0.950 . S
H142 C139 0.950 . S
C143 C134 1.390 . S
C143 H136 0.950 . S
C143 C140 1.387 . S
C144 C145 1.387 . S
C144 H148 0.950 . S
C144 C153 1.390 1_556 S
C145 C144 1.387 . S
C145 C147 1.387 . S
H146 C153 0.950 . S
C147 C145 1.387 . S
C147 C149 1.390 1_556 S
C147 H151 0.950 . S
H148 C144 0.950 . S
C149 C147 1.390 1_554 S
C149 C150 1.387 . S
C149 H152 0.950 . S
C150 C149 1.387 . S
C150 C153 1.387 . S
H151 C147 0.950 . S
H152 C149 0.950 . S
C153 C144 1.390 1_554 S
C153 H146 0.950 . S
C153 C150 1.387 . S
C154 C155 1.387 . S
C154 H158 0.950 . S
C154 C163 1.390 . S
C155 C154 1.387 . S
C155 C157 1.387 . S
H156 C163 0.950 . S
C157 C155 1.387 . S
C157 C159 1.390 . S
C157 H161 0.950 . S
H158 C154 0.950 . S
C159 C157 1.390 . S
C159 C160 1.387 . S
C159 H162 0.950 . S
C160 C159 1.387 . S
C160 C163 1.387 . S
H161 C157 0.950 . S
H162 C159 0.950 . S
C163 C154 1.390 . S
C163 H156 0.950 . S
C163 C160 1.387 . S
C164 C165 1.387 . S
C164 H168 0.950 . S
C164 C173 1.390 . S
C165 C164 1.387 . S
C165 C167 1.387 . S
H166 C173 0.950 . S
C167 C165 1.387 . S
C167 C169 1.390 . S
C167 H171 0.950 . S
H168 C164 0.950 . S
C169 C167 1.390 . S
C169 C170 1.387 . S
C169 H172 0.950 . S
C170 C169 1.387 . S
C170 C173 1.387 . S
H171 C167 0.950 . S
H172 C169 0.950 . S
C173 C164 1.390 . S
C173 H166 0.950 . S
C173 C170 1.387 . S
C174 C175 1.387 . S
C174 H178 0.950 . S
C174 C183 1.390 . S
C175 C174 1.387 . S
C175 C177 1.387 . S
H176 C183 0.950 1_565 S
C177 C175 1.387 . S
C177 C179 1.390 . S
C177 H181 0.950 . S
H178 C174 0.950 . S
C179 C177 1.390 . S
C179 C180 1.387 1_545 S
C179 H182 0.941 1_544 S
C180 C179 1.387 1_565 S
C180 C183 1.387 1_565 S
H181 C177 0.950 . S
H182 C179 0.941 1_566 S
C183 C174 1.390 . S
C183 H176 0.950 1_545 S
C183 C180 1.387 1_545 S
C184 C185 1.387 . S
C184 H188 0.950 . S
C184 C193 1.390 . S
C185 C184 1.387 . S
C185 C187 1.387 . S
H186 C193 0.950 . S
C187 C185 1.387 . S
C187 C189 1.390 . S
C187 H191 0.950 . S
H188 C184 0.950 . S
C189 C187 1.390 . S
C189 C190 1.387 . S
C189 H192 0.950 . S
C190 C189 1.387 . S
C190 C193 1.387 . S
H191 C187 0.950 . S
H192 C189 0.950 . S
C193 C184 1.390 . S
C193 H186 0.950 . S
C193 C190 1.387 . S
C194 C195 1.387 . S
C194 H198 0.950 . S
C194 C203 1.390 . S
C195 C194 1.387 . S
C195 C197 1.387 . S
H196 C203 0.950 . S
C197 C195 1.387 . S
C197 C199 1.390 . S
C197 H201 0.950 . S
H198 C194 0.950 . S
C199 C197 1.390 . S
C199 C200 1.387 1_565 S
C199 H202 0.950 . S
C200 C199 1.387 1_545 S
C200 C203 1.387 1_545 S
H201 C197 0.950 . S
H202 C199 0.950 . S
C203 C194 1.390 . S
C203 H196 0.950 . S
C203 C200 1.387 1_565 S
C204 C205 1.387 1_455 S
C204 H208 0.950 1_455 S
C204 C213 1.390 . S
C205 C204 1.387 1_655 S
C205 C207 1.387 1_656 S
H206 C213 0.950 . S
C207 C205 1.387 1_454 S
C207 C209 1.390 . S
C207 H211 0.950 . S
H208 C204 0.950 1_655 S
C209 C207 1.390 . S
C209 C210 1.387 1_554 S
C209 H212 0.950 . S
C210 C209 1.387 1_556 S
C210 C213 1.387 . S
H211 C207 0.950 . S
H212 C209 0.950 . S
C213 C204 1.390 . S
C213 H206 0.950 . S
C213 C210 1.387 . S
C214 C215 1.387 . S
C214 H218 0.950 . S
C214 C223 1.390 . S
C215 C214 1.387 . S
C215 C217 1.387 . S
H216 C223 0.950 1_556 S
C217 C215 1.387 . S
C217 C219 1.390 . S
C217 H221 0.950 . S
H218 C214 0.950 . S
C219 C217 1.390 . S
C219 C220 1.387 . S
C219 H222 0.950 . S
C220 C219 1.387 . S
C220 C223 1.387 . S
H221 C217 0.950 . S
H222 C219 0.950 . S
C223 C214 1.390 . S
C223 H216 0.950 1_554 S
C223 C220 1.387 . S
C224 C225 1.387 . S
C224 H228 0.950 . S
C224 C233 1.390 . S
C225 C224 1.387 . S
C225 C227 1.387 . S
H226 C233 0.950 . S
C227 C225 1.387 . S
C227 C229 1.390 . S
C227 H231 0.950 . S
H228 C224 0.950 . S
C229 C227 1.390 . S
C229 C230 1.387 1_655 S
C229 H232 0.950 . S
C230 C229 1.387 1_455 S
C230 C233 1.387 1_455 S
H231 C227 0.950 . S
H232 C229 0.950 . S
C233 C224 1.390 . S
C233 H226 0.950 . S
C233 C230 1.387 1_655 S
C234 C235 1.387 . S
C234 H238 0.950 . S
C234 C243 1.390 . S
C235 C234 1.387 . S
C235 C237 1.387 . S
H236 C243 0.950 . S
C237 C235 1.387 . S
C237 C239 1.390 . S
C237 H241 0.950 . S
H238 C234 0.950 . S
C239 C237 1.390 . S
C239 C240 1.387 . S
C239 H242 0.950 . S
C240 C239 1.387 . S
C240 C243 1.387 . S
H241 C237 0.950 . S
H242 C239 0.950 . S
C243 C234 1.390 . S
C243 H236 0.950 . S
C243 C240 1.387 . S
C244 C245 1.387 . S
C244 H248 0.950 . S
C244 C253 1.390 . S
C245 C244 1.387 . S
C245 C247 1.387 1_565 S
H246 C253 0.950 . S
C247 C245 1.387 1_545 S
C247 C249 1.390 1_545 S
C247 H251 0.950 . S
H248 C244 0.950 . S
C249 C247 1.390 1_565 S
C249 C250 1.387 . S
C249 H252 0.950 1_455 S
C250 C249 1.387 . S
C250 C253 1.387 . S
H251 C247 0.950 . S
H252 C249 0.950 1_655 S
C253 C244 1.390 . S
C253 H246 0.950 . S
C253 C250 1.387 . S
C254 C255 1.387 . S
C254 H258 0.950 . S
C254 C263 1.390 . S
C255 C254 1.387 . S
C255 C257 1.387 . S
H256 C263 0.950 . S
C257 C255 1.387 . S
C257 C259 1.390 . S
C257 H261 0.950 . S
H258 C254 0.950 . S
C259 C257 1.390 . S
C259 C260 1.387 . S
C259 H262 0.950 . S
C260 C259 1.387 . S
C260 C263 1.387 . S
H261 C257 0.950 . S
H262 C259 0.950 . S
C263 C254 1.390 . S
C263 H256 0.950 . S
C263 C260 1.387 . S
C264 C265 1.387 . S
C264 H268 0.950 1_655 S
C264 C273 1.390 1_545 S
C265 C264 1.387 . S
C265 C267 1.387 . S
H266 C273 0.950 . S
C267 C265 1.387 . S
C267 C269 1.390 . S
C267 H271 0.950 . S
H268 C264 0.950 1_455 S
C269 C267 1.390 . S
C269 C270 1.387 . S
C269 H272 0.950 . S
C270 C269 1.387 . S
C270 C273 1.387 1_545 S
H271 C267 0.950 . S
H272 C269 0.950 . S
C273 C264 1.390 1_565 S
C273 H266 0.950 . S
C273 C270 1.387 1_565 S
C274 C275 1.387 1_556 S
C274 H278 0.950 . S
C274 C283 1.390 . S
C275 C274 1.387 1_554 S
C275 C277 1.387 . S
H276 C283 0.950 . S
C277 C275 1.387 . S
C277 C279 1.390 . S
C277 H281 0.950 . S
H278 C274 0.950 . S
C279 C277 1.390 . S
C279 C280 1.387 1_554 S
C279 H282 0.950 . S
C280 C279 1.387 1_556 S
C280 C283 1.387 . S
H281 C277 0.950 . S
H282 C279 0.950 . S
C283 C274 1.390 . S
C283 H276 0.950 . S
C283 C280 1.387 . S
C125 C19 1.384 . S
C130 C30 1.410 . S
C135 C50 1.389 . S
C140 C61 1.411 . S
C145 C72 1.408 . S
C150 C62 1.385 . S
C155 C103 1.412 . S
C160 C93 1.387 . S
C165 C123 1.454 . S
C170 C1 1.693 . S
C175 C32 1.811 . S
C180 C0 1.721 . S
C185 C91 2.029 . S
C190 C31 1.955 . S
C195 C122 1.909 . S
C200 C92 1.669 . S
C205 C10 1.456 . S
C210 C113 1.693 . S
C215 C41 1.671 . S
C220 C2 1.908 . S
C225 C33 2.031 . S
C230 C81 1.953 . S
C235 C82 1.810 . S
C240 C112 1.724 . S
C245 C63 0.558 . S
C250 C20 0.562 . S
C255 C51 0.561 . S
C260 C94 0.560 . S
C265 C64 0.772 1_655 S
C270 C29 0.768 1_545 S
C275 C60 0.769 . S
C280 C95 0.773 . S
