# Generated by pormake.
# Topology ecf, (8)-cn, num edge types: 1
# Building blocks:
#     Node 0, Type 0, BuildingBlock: VETTIZ_charged_sbu_0, # of connection points: 8
#     Node 1, Type 0, BuildingBlock: VETTIZ_charged_sbu_0, # of connection points: 8
#     Node 2, Type 0, BuildingBlock: VETTIZ_charged_sbu_0, # of connection points: 8
#     Node 3, Type 0, BuildingBlock: VETTIZ_charged_sbu_0, # of connection points: 8
#     Node 4, Type 0, BuildingBlock: VETTIZ_charged_sbu_0, # of connection points: 8
#     Node 5, Type 0, BuildingBlock: VETTIZ_charged_sbu_0, # of connection points: 8
#     Edge 6, Type (0, 0), BuildingBlock: AJUNOK_clean_linker_0, # of connection points: 2
#     Edge 7, Type (0, 0), BuildingBlock: AJUNOK_clean_linker_0, # of connection points: 2
#     Edge 8, Type (0, 0), BuildingBlock: AJUNOK_clean_linker_0, # of connection points: 2
#     Edge 9, Type (0, 0), BuildingBlock: AJUNOK_clean_linker_0, # of connection points: 2
#     Edge 10, Type (0, 0), BuildingBlock: AJUNOK_clean_linker_0, # of connection points: 2
#     Edge 11, Type (0, 0), BuildingBlock: AJUNOK_clean_linker_0, # of connection points: 2
#     Edge 12, Type (0, 0), BuildingBlock: AJUNOK_clean_linker_0, # of connection points: 2
#     Edge 13, Type (0, 0), BuildingBlock: AJUNOK_clean_linker_0, # of connection points: 2
#     Edge 14, Type (0, 0), BuildingBlock: AJUNOK_clean_linker_0, # of connection points: 2
#     Edge 15, Type (0, 0), BuildingBlock: AJUNOK_clean_linker_0, # of connection points: 2
#     Edge 16, Type (0, 0), BuildingBlock: AJUNOK_clean_linker_0, # of connection points: 2
#     Edge 17, Type (0, 0), BuildingBlock: AJUNOK_clean_linker_0, # of connection points: 2
#     Edge 18, Type (0, 0), BuildingBlock: AJUNOK_clean_linker_0, # of connection points: 2
#     Edge 19, Type (0, 0), BuildingBlock: AJUNOK_clean_linker_0, # of connection points: 2
#     Edge 20, Type (0, 0), BuildingBlock: AJUNOK_clean_linker_0, # of connection points: 2
#     Edge 21, Type (0, 0), BuildingBlock: AJUNOK_clean_linker_0, # of connection points: 2
#     Edge 22, Type (0, 0), BuildingBlock: AJUNOK_clean_linker_0, # of connection points: 2
#     Edge 23, Type (0, 0), BuildingBlock: AJUNOK_clean_linker_0, # of connection points: 2
#     Edge 24, Type (0, 0), BuildingBlock: AJUNOK_clean_linker_0, # of connection points: 2
#     Edge 25, Type (0, 0), BuildingBlock: AJUNOK_clean_linker_0, # of connection points: 2
#     Edge 26, Type (0, 0), BuildingBlock: AJUNOK_clean_linker_0, # of connection points: 2
#     Edge 27, Type (0, 0), BuildingBlock: AJUNOK_clean_linker_0, # of connection points: 2
#     Edge 28, Type (0, 0), BuildingBlock: AJUNOK_clean_linker_0, # of connection points: 2
#     Edge 29, Type (0, 0), BuildingBlock: AJUNOK_clean_linker_0, # of connection points: 2
# Relax obj value: 0.148
# Max RMSD: 0.140
# Mean RMSD: 0.140
data_MOF--net-ecf--node1-VETTIZ_charged_sbu_0--edge1-AJUNOK_clean_linker_0
_symmetry_space_group_name_H-M    P1
_symmetry_Int_Tables_number       1
_symmetry_cell_setting            triclinic
loop_
_symmetry_equiv_pos_as_xyz
'x, y, z'
_cell_length_a     25.369411
_cell_length_b     26.022861
_cell_length_c     20.430247
_cell_angle_alpha  88.62311
_cell_angle_beta   91.343815
_cell_angle_gamma 119.68193
loop_
_atom_site_label
_atom_site_type_symbol
_atom_site_fract_x
_atom_site_fract_y
_atom_site_fract_z
_atom_type_partial_charge
Fe0 Fe 0.16128 0.27906 0.21363 0.0
O1 O 0.19881 0.29769 0.30304 0.0
Fe2 Fe 0.20196 0.41628 0.15149 0.0
Fe3 Fe 0.17406 0.23966 0.37342 0.0
O4 O 0.16442 0.35639 0.22157 0.0
O5 O 0.16579 0.36049 0.22754 0.0
O6 O 0.19989 0.30097 0.30802 0.0
Fe7 Fe 0.20371 0.37719 0.31842 0.0
C8 C 0.05955 0.18916 0.29017 0.0
O9 O 0.16683 0.20252 0.21731 0.0
O10 O 0.2195 0.2149 0.31447 0.0
O11 O 0.28887 0.41601 0.28031 0.0
O12 O 0.28235 0.47003 0.19875 0.0
O13 O 0.23953 0.37256 0.09952 0.0
O14 O 0.24748 0.31728 0.17694 0.0
O15 O 0.24908 0.29939 0.42199 0.0
O16 O 0.24735 0.38655 0.41193 0.0
C17 C 0.26127 0.3402 0.12055 0.0
O18 O 0.20303 0.45596 0.31205 0.0
O19 O 0.17093 0.4612 0.20583 0.0
O20 O 0.07483 0.23353 0.25172 0.0
O21 O 0.09815 0.18228 0.32419 0.0
C22 C 0.20108 0.19203 0.25731 0.0
C23 C 0.26816 0.3534 0.43743 0.0
C24 C 0.09797 0.29855 0.409 0.0
O25 O 0.12246 0.2671 0.42437 0.0
O26 O 0.11811 0.33758 0.36267 0.0
C27 C 0.31118 0.46319 0.24659 0.0
O28 O 0.12274 0.36074 0.1049 0.0
O29 O 0.11793 0.27065 0.1202 0.0
C30 C 0.18286 0.4779 0.26649 0.0
C31 C 0.09896 0.30498 0.0931 0.0
Fe32 Fe 0.90974 0.11062 0.6925 0.0
O33 O 0.88012 0.15247 0.74404 0.0
Fe34 Fe 0.81399 0.17251 0.71136 0.0
Fe35 Fe 0.84852 0.12238 0.83311 0.0
O36 O 0.88144 0.15796 0.73993 0.0
O37 O 0.78123 0.14021 0.80157 0.0
O38 O 0.78168 0.13699 0.80693 0.0
Fe39 Fe 0.75723 0.17779 0.8685 0.0
C40 C 0.8286 0.01118 0.78749 0.0
O41 O 0.97998 0.14833 0.75997 0.0
O42 O 0.92309 0.1136 0.85336 0.0
O43 O 0.79865 0.25883 0.82071 0.0
O44 O 0.85984 0.26019 0.74201 0.0
O45 O 0.86131 0.20393 0.61926 0.0
O46 O 0.93884 0.18112 0.62828 0.0
O47 O 0.89912 0.20649 0.86462 0.0
O48 O 0.83296 0.20533 0.93273 0.0
C49 C 0.91276 0.20809 0.60049 0.0
O50 O 0.68909 0.15635 0.79848 0.0
O51 O 0.73715 0.18164 0.69685 0.0
O52 O 0.87669 0.03794 0.75416 0.0
O53 O 0.79951 0.0368 0.80297 0.0
C54 C 0.9739 0.13971 0.82309 0.0
C55 C 0.88754 0.22017 0.91881 0.0
C56 C 0.75424 0.07423 0.9439 0.0
O57 O 0.8082 0.09075 0.92342 0.0
O58 O 0.72164 0.09688 0.92106 0.0
C59 C 0.83859 0.28587 0.77695 0.0
O60 O 0.76334 0.08723 0.67684 0.0
O61 O 0.83151 0.06606 0.63589 0.0
C62 C 0.69126 0.16693 0.73534 0.0
C63 C 0.77689 0.05442 0.64423 0.0
Fe64 Fe 0.73026 0.84871 0.24804 0.0
O65 O 0.7148 0.86643 0.33797 0.0
Fe66 Fe 0.58224 0.76348 0.18859 0.0
Fe67 Fe 0.77434 0.88419 0.40896 0.0
O68 O 0.64521 0.78168 0.2566 0.0
O69 O 0.63986 0.77991 0.26167 0.0
O70 O 0.70969 0.86378 0.34343 0.0
Fe71 Fe 0.6259 0.79579 0.35373 0.0
C72 C 0.81433 0.81785 0.31884 0.0
O73 O 0.81741 0.92605 0.25315 0.0
O74 O 0.81436 0.9598 0.35553 0.0
O75 O 0.58889 0.84734 0.3221 0.0
O76 O 0.53382 0.79661 0.23564 0.0
O77 O 0.6301 0.84258 0.13724 0.0
O78 O 0.70056 0.90362 0.20693 0.0
O79 O 0.72096 0.9053 0.46051 0.0
O80 O 0.62451 0.8253 0.4502 0.0
C81 C 0.6694 0.8945 0.1544 0.0
O82 O 0.53977 0.72013 0.34956 0.0
O83 O 0.53345 0.68788 0.24335 0.0
O84 O 0.76573 0.79651 0.28448 0.0
O85 O 0.82697 0.85913 0.35869 0.0
C86 C 0.83761 0.96668 0.29825 0.0
C87 C 0.66531 0.8741 0.47811 0.0
C88 C 0.69572 0.75076 0.4361 0.0
O89 O 0.73328 0.80266 0.45537 0.0
O90 O 0.65784 0.74099 0.38952 0.0
C91 C 0.54443 0.83248 0.28218 0.0
O92 O 0.63528 0.73708 0.14083 0.0
O93 O 0.73301 0.81497 0.15585 0.0
C94 C 0.51679 0.68049 0.30395 0.0
C95 C 0.69299 0.7654 0.12871 0.0
Fe96 Fe 0.82877 0.74706 0.70937 0.0
O97 O 0.81195 0.68713 0.77503 0.0
Fe98 Fe 0.80891 0.60761 0.74986 0.0
Fe99 Fe 0.8533 0.70239 0.86146 0.0
O100 O 0.80704 0.68138 0.7712 0.0
O101 O 0.84863 0.62097 0.83948 0.0
O102 O 0.85311 0.62687 0.84448 0.0
Fe103 Fe 0.8191 0.56317 0.91318 0.0
C104 C 0.95449 0.80096 0.78432 0.0
O105 O 0.79297 0.77786 0.77658 0.0
O106 O 0.8441 0.77779 0.87087 0.0
O107 O 0.73247 0.51144 0.87402 0.0
O108 O 0.72141 0.55581 0.78447 0.0
O109 O 0.76595 0.60676 0.658 0.0
O110 O 0.74785 0.68471 0.66923 0.0
O111 O 0.76849 0.65458 0.89813 0.0
O112 O 0.78723 0.60575 0.97415 0.0
C113 C 0.73952 0.63747 0.64018 0.0
O114 O 0.84677 0.51963 0.85126 0.0
O115 O 0.81874 0.53019 0.74505 0.0
O116 O 0.91541 0.80563 0.74744 0.0
O117 O 0.93938 0.75608 0.8225 0.0
C118 C 0.81126 0.79416 0.83594 0.0
C119 C 0.7622 0.63568 0.95596 0.0
C120 C 0.91926 0.67208 0.975 0.0
O121 O 0.89742 0.7054 0.95224 0.0
O122 O 0.90144 0.6186 0.95614 0.0
C123 C 0.69943 0.51547 0.82844 0.0
O124 O 0.89381 0.65866 0.70637 0.0
O125 O 0.86773 0.71622 0.64802 0.0
C126 C 0.83913 0.50648 0.78946 0.0
C127 C 0.90318 0.69578 0.65937 0.0
Fe128 Fe 0.16645 0.91048 0.19915 0.0
O129 O 0.19803 0.88587 0.27312 0.0
Fe130 Fe 0.21358 0.81588 0.26207 0.0
Fe131 Fe 0.15932 0.86495 0.36051 0.0
O132 O 0.20235 0.88543 0.26946 0.0
O133 O 0.17889 0.79667 0.35312 0.0
O134 O 0.17575 0.79793 0.35741 0.0
Fe135 Fe 0.21778 0.78238 0.43152 0.0
C136 C 0.17709 0.98232 0.31496 0.0
O137 O 0.08257 0.87899 0.23927 0.0
O138 O 0.0721 0.81569 0.32018 0.0
O139 O 0.19556 0.70814 0.37914 0.0
O140 O 0.2188 0.73911 0.27018 0.0
O141 O 0.12637 0.7668 0.22092 0.0
O142 O 0.13478 0.835 0.14744 0.0
O143 O 0.12154 0.83355 0.45224 0.0
O144 O 0.13498 0.75374 0.47535 0.0
C145 C 0.10773 0.78248 0.16952 0.0
O146 O 0.30203 0.81563 0.38857 0.0
O147 O 0.30183 0.8637 0.29693 0.0
O148 O 0.19374 0.98045 0.25626 0.0
O149 O 0.14955 0.93852 0.35535 0.0
C150 C 0.04952 0.83823 0.27971 0.0
C151 C 0.10762 0.78411 0.48284 0.0
C152 C 0.25602 0.91238 0.45993 0.0
O153 O 0.24324 0.91861 0.40113 0.0
O154 O 0.24436 0.86149 0.48121 0.0
C155 C 0.20389 0.70085 0.3183 0.0
O156 O 0.25051 0.84811 0.16692 0.0
O157 O 0.24769 0.93534 0.15956 0.0
C158 C 0.32907 0.84768 0.33879 0.0
C159 C 0.26669 0.90037 0.14107 0.0
Fe160 Fe 0.21929 0.14596 0.70742 0.0
O161 O 0.28597 0.17065 0.76896 0.0
Fe162 Fe 0.37421 0.19808 0.73831 0.0
Fe163 Fe 0.28261 0.12592 0.85077 0.0
O164 O 0.29138 0.17844 0.76615 0.0
O165 O 0.37117 0.1523 0.82041 0.0
O166 O 0.3657 0.14501 0.82429 0.0
Fe167 Fe 0.43476 0.18171 0.8887 0.0
C168 C 0.17939 0.15098 0.84577 0.0
O169 O 0.17263 0.05993 0.74384 0.0
O170 O 0.23644 0.04317 0.80568 0.0
O171 O 0.47848 0.16557 0.81454 0.0
O172 O 0.45929 0.20729 0.72119 0.0
O173 O 0.33665 0.11932 0.68659 0.0
O174 O 0.25669 0.11799 0.63661 0.0
O175 O 0.292 0.07957 0.93322 0.0
O176 O 0.39033 0.09794 0.92734 0.0
C177 C 0.29486 0.09957 0.64263 0.0
O178 O 0.47832 0.26638 0.85381 0.0
O179 O 0.41772 0.28069 0.78462 0.0
O180 O 0.18431 0.16775 0.7846 0.0
O181 O 0.20014 0.1185 0.8716 0.0
C182 C 0.1855 0.0245 0.77502 0.0
C183 C 0.33501 0.06684 0.9465 0.0
C184 C 0.35127 0.2234 0.94674 0.0
O185 O 0.31809 0.20546 0.89625 0.0
O186 O 0.39059 0.20696 0.95855 0.0
C187 C 0.48666 0.18316 0.75338 0.0
O188 O 0.36466 0.24571 0.65659 0.0
O189 O 0.26765 0.23 0.66837 0.0
C190 C 0.46586 0.30057 0.82035 0.0
C191 C 0.32229 0.25996 0.64612 0.0
C192 C 0.22075 0.56734 0.33259 0.0
C193 C 0.18186 0.53154 0.28253 0.0
C194 C 0.22803 0.62285 0.34314 0.0
C195 C 0.19675 0.64396 0.30398 0.0
H196 H 0.24762 0.55359 0.36235 0.0
H197 H 0.25905 0.64986 0.38146 0.0
S198 S 0.08311 0.56475 0.17376 0.0
N199 N 0.1069 0.51863 0.19809 0.0
N200 N 0.12153 0.6246 0.21833 0.0
C201 C 0.15605 0.60833 0.25561 0.0
C202 C 0.14818 0.5514 0.24494 0.0
C203 C 0.58777 0.22619 0.70416 0.0
C204 C 0.53245 0.17592 0.71976 0.0
C205 C 0.64021 0.22171 0.6986 0.0
C206 C 0.63783 0.16698 0.70809 0.0
H207 H 0.59199 0.26972 0.70433 0.0
H208 H 0.68348 0.26197 0.69558 0.0
S209 S 0.50119 0.02139 0.73472 0.0
N210 N 0.47602 0.06906 0.73297 0.0
N211 N 0.57491 0.06082 0.72192 0.0
C212 C 0.58143 0.1157 0.71444 0.0
C213 C 0.52833 0.12018 0.72048 0.0
C214 C 0.35868 0.56896 0.27381 0.0
C215 C 0.36213 0.51663 0.27441 0.0
C216 C 0.40741 0.62208 0.29511 0.0
C217 C 0.46164 0.62482 0.31621 0.0
H218 H 0.3189 0.56947 0.25424 0.0
H219 H 0.40485 0.66228 0.28858 0.0
S220 S 0.49094 0.49931 0.33574 0.0
N221 N 0.42077 0.46913 0.30635 0.0
N222 N 0.51458 0.57064 0.34298 0.0
C223 C 0.46417 0.57224 0.32209 0.0
C224 C 0.41376 0.51757 0.30186 0.0
C225 C 0.88572 0.38896 0.81655 0.0
C226 C 0.85646 0.34913 0.76564 0.0
C227 C 0.88458 0.44224 0.81957 0.0
C228 C 0.85214 0.45763 0.77304 0.0
H229 H 0.90627 0.37704 0.85689 0.0
H230 H 0.90624 0.46971 0.86173 0.0
S231 S 0.77578 0.37207 0.62394 0.0
N232 N 0.80132 0.33193 0.66237 0.0
N233 N 0.79677 0.43101 0.66934 0.0
C234 C 0.82704 0.4204 0.71869 0.0
C235 C 0.82949 0.36637 0.71493 0.0
C236 C 0.4278 0.85336 0.37452 0.0
C237 C 0.39124 0.85786 0.32408 0.0
C238 C 0.48024 0.85006 0.36075 0.0
C239 C 0.49769 0.84973 0.29585 0.0
H240 H 0.41437 0.84976 0.42511 0.0
H241 H 0.50492 0.84375 0.40123 0.0
S242 S 0.42239 0.86737 0.14593 0.0
N243 N 0.38059 0.86786 0.20639 0.0
N244 N 0.47757 0.85984 0.18091 0.0
C245 C 0.46377 0.85768 0.24515 0.0
C246 C 0.41113 0.86232 0.25914 0.0
C247 C 0.54645 0.38679 0.88099 0.0
C248 C 0.51422 0.36447 0.82163 0.0
C249 C 0.6044 0.43735 0.88287 0.0
C250 C 0.6333 0.46885 0.82549 0.0
H251 H 0.52841 0.3624 0.92635 0.0
H252 H 0.6279 0.45025 0.92969 0.0
S253 S 0.56593 0.43361 0.65769 0.0
N254 N 0.51371 0.38111 0.7043 0.0
N255 N 0.62197 0.47699 0.70758 0.0
C256 C 0.59956 0.45007 0.76618 0.0
C257 C 0.5403 0.39787 0.76431 0.0
C258 C 0.13893 0.08817 0.26562 0.0
C259 C 0.19752 0.13593 0.25579 0.0
C260 C 0.13059 0.04012 0.30383 0.0
C261 C 0.18094 0.03697 0.32797 0.0
H262 H 0.09913 0.09015 0.24863 0.0
H263 H 0.08521 0.00239 0.3079 0.0
S264 S 0.34273 0.15082 0.31732 0.0
N265 N 0.30599 0.17837 0.27494 0.0
N266 N 0.28999 0.08571 0.34502 0.0
C267 C 0.23928 0.08511 0.32083 0.0
C268 C 0.24794 0.13357 0.2815 0.0
C269 C 0.03069 0.10794 0.89591 0.0
C270 C 0.02731 0.15376 0.862 0.0
C271 C 0.08705 0.11239 0.90755 0.0
C272 C 0.13907 0.16233 0.88413 0.0
H273 H 0.9903 0.066 0.90516 0.0
H274 H 0.08846 0.07285 0.92263 0.0
S275 S 0.15282 0.30384 0.82582 0.0
N276 N 0.07906 0.25736 0.82931 0.0
N277 N 0.18593 0.26633 0.853 0.0
C278 C 0.13636 0.21365 0.86812 0.0
C279 C 0.07932 0.20878 0.85485 0.0
C280 C 0.96234 0.1153 0.23437 0.0
C281 C 0.99788 0.13811 0.29158 0.0
C282 C 0.91093 0.05812 0.23453 0.0
C283 C 0.89527 0.02251 0.2916 0.0
H284 H 0.97535 0.14088 0.18926 0.0
H285 H 0.88329 0.04206 0.1905 0.0
S286 S 0.97488 0.06255 0.45347 0.0
N287 N 0.01137 0.1222 0.40718 0.0
N288 N 0.92168 0.01348 0.40537 0.0
C289 C 0.9316 0.04513 0.34838 0.0
C290 C 0.98064 0.10347 0.34914 0.0
C291 C 0.8672 0.95278 0.84747 0.0
C292 C 0.81723 0.95648 0.82175 0.0
C293 C 0.86207 0.89838 0.86522 0.0
C294 C 0.80719 0.84592 0.85526 0.0
H295 H 0.91173 0.99162 0.84873 0.0
H296 H 0.90315 0.89704 0.87778 0.0
S297 S 0.66009 0.83311 0.80381 0.0
N298 N 0.70878 0.90486 0.79998 0.0
N299 N 0.69941 0.80139 0.83001 0.0
C300 C 0.75514 0.84972 0.838 0.0
C301 C 0.76016 0.90549 0.8215 0.0
C302 C 0.91424 0.86291 0.26698 0.0
C303 C 0.86691 0.81278 0.29698 0.0
C304 C 0.97162 0.86885 0.26016 0.0
C305 C 0.98526 0.82527 0.28389 0.0
H306 H 0.90784 0.89958 0.25149 0.0
H307 H 0.0064 0.90979 0.23853 0.0
S308 S 0.8746 0.68141 0.35879 0.0
N309 N 0.83494 0.71536 0.34429 0.0
N310 N 0.94409 0.72711 0.33309 0.0
C311 C 0.9374 0.77317 0.31092 0.0
C312 C 0.87799 0.76677 0.31701 0.0
C313 C 0.1059 0.92945 0.72349 0.0
C314 C 0.13478 0.96134 0.7807 0.0
C315 C 0.04936 0.87631 0.72546 0.0
C316 C 0.01875 0.85211 0.7848 0.0
H317 H 0.12597 0.94721 0.67622 0.0
H318 H 0.02846 0.8549 0.67971 0.0
S319 S 0.07057 0.92109 0.94771 0.0
N320 N 0.12512 0.96644 0.89793 0.0
N321 N 0.02075 0.8662 0.90198 0.0
C322 C 0.04741 0.88298 0.8425 0.0
C323 C 0.10469 0.93755 0.84037 0.0
C324 C 0.28217 0.31528 1.00839 0.0
C325 C 0.29404 0.31977 0.07622 0.0
C326 C 0.30374 0.28691 0.96753 0.0
C327 C 0.33867 0.26147 0.99176 0.0
H328 H 0.25343 0.33124 0.98692 0.0
H329 H 0.29115 0.28344 0.91614 0.0
S330 S 0.39147 0.26995 0.16393 0.0
N331 N 0.34935 0.30213 0.16472 0.0
N332 N 0.38982 0.2494 0.0877 0.0
C333 C 0.35441 0.26919 0.05874 0.0
C334 C 0.332 0.29786 0.10076 0.0
C335 C 0.93932 0.21852 0.48173 0.0
C336 C 0.94781 0.24539 0.54321 0.0
C337 C 0.98649 0.23963 0.43538 0.0
C338 C 0.04441 0.28834 0.44851 0.0
H339 H 0.8979 0.17751 0.47183 0.0
H340 H 0.97888 0.21497 0.39091 0.0
S341 S 0.08996 0.37604 0.60034 0.0
N342 N 0.01844 0.32532 0.61266 0.0
N343 N 0.10633 0.36443 0.52627 0.0
C344 C 0.05232 0.31773 0.50783 0.0
C345 C 1.00431 0.2965 0.55478 0.0
C346 C 0.6586 0.97098 0.08488 0.0
C347 C 0.69129 0.9421 0.10351 0.0
C348 C 0.6786 0.01359 1.03333 0.0
C349 C 0.73136 0.02793 0.99774 0.0
H350 H 0.61745 0.96065 0.11035 0.0
H351 H 0.65258 0.03535 1.02141 0.0
S352 S 0.82828 0.95808 1.02382 0.0
N353 N 0.77628 0.92789 0.08084 0.0
N354 N 0.81251 0.00439 0.98306 0.0
C355 C 0.76293 -0.00278 1.01529 0.0
C356 C 0.74325 0.95529 0.06828 0.0
C357 C 0.75911 0.66437 0.52482 0.0
C358 C 0.71531 0.63387 0.5731 0.0
C359 C 0.75053 0.69916 0.47685 0.0
C360 C 0.69611 0.7009 0.47205 0.0
H361 H 0.80388 0.66915 0.53034 0.0
H362 H 0.78876 0.72919 0.44741 0.0
S363 S 0.56188 0.61781 0.57689 0.0
N364 N 0.6124 0.60093 0.60748 0.0
N365 N 0.59412 0.66173 0.51299 0.0
C366 C 0.64856 0.66353 0.51361 0.0
C367 C 0.65838 0.63034 0.56461 0.0
C368 C 0.96299 0.73284 0.0752 0.0
C369 C 0.96463 0.69455 1.02914 0.0
C370 C 0.00631 0.75587 0.12575 0.0
C371 C 0.053 0.74163 0.13241 0.0
H372 H 0.92878 0.74619 0.07146 0.0
H373 H 0.00538 0.78809 0.15737 0.0
S374 S 0.07895 0.64513 1.02336 0.0
N375 N 0.0169 0.64311 0.99343 0.0
N376 N 0.09933 0.68827 0.08788 0.0
C377 C 0.05446 0.70239 0.08779 0.0
C378 C 0.01001 0.67838 1.03634 0.0
C379 C 0.26489 0.0502 0.53326 0.0
C380 C 0.29013 0.05372 0.59617 0.0
C381 C 0.25654 0.00589 0.4895 0.0
C382 C 0.27209 0.96214 0.50631 0.0
H383 H 0.25094 0.08177 0.51762 0.0
H384 H 0.23554 0.0049 0.44264 0.0
S385 S 0.33956 0.95085 0.66545 0.0
N386 N 0.33132 0.00953 0.67318 0.0
N387 N 0.31446 0.92566 0.59113 0.0
C388 C 0.29784 0.96526 0.569 0.0
C389 C 0.30725 0.01116 0.61357 0.0
C390 C 0.77394 0.68843 0.06144 0.0
C391 C 0.74117 0.66377 1.00312 0.0
C392 C 0.76053 0.72434 0.10045 0.0
C393 C 0.71346 0.73603 0.0827 0.0
H394 H 0.81122 0.68137 0.07601 0.0
H395 H 0.78608 0.74182 0.1455 0.0
S396 S 0.61447 0.68199 0.93495 0.0
N397 N 0.66026 0.6542 0.92954 0.0
N398 N 0.63431 0.72016 1.00326 0.0
C399 C 0.68037 0.71134 1.02481 0.0
C400 C 0.69439 0.67561 0.98497 0.0
C401 C 0.04925 0.72177 0.57978 0.0
C402 C 0.05525 0.76031 0.52715 0.0
C403 C 0.99964 0.69999 0.6223 0.0
C404 C 0.95425 0.71562 0.61311 0.0
H405 H 0.08357 0.70918 0.58883 0.0
H406 H 0.99729 0.6714 0.66293 0.0
S407 S 0.94742 0.81257 0.47896 0.0
N408 N 0.01024 0.81071 0.4662 0.0
N409 N 0.91805 0.77079 0.54453 0.0
C410 C 0.95943 0.75322 0.55922 0.0
C411 C 0.00965 0.77528 0.51672 0.0
C412 C 0.36518 0.02122 1.03814 0.0
C413 C 0.32285 0.01511 0.98872 0.0
C414 C 0.35353 0.97463 0.08212 0.0
C415 C 0.29866 0.92069 0.07891 0.0
H416 H 0.40575 0.06354 1.04568 0.0
H417 H 0.38332 0.98392 0.12443 0.0
S418 S 0.18431 0.87554 0.94478 0.0
N419 N 0.23243 0.94599 0.92854 0.0
N420 N 0.2102 0.85871 1.01213 0.0
C421 C 0.26144 0.91107 1.02325 0.0
C422 C 0.2728 0.95862 0.97874 0.0
C423 C 0.29394 0.33548 0.60836 0.0
C424 C 0.33208 0.31053 0.60182 0.0
C425 C 0.28307 0.36513 0.55589 0.0
C426 C 0.30969 0.37057 0.49489 0.0
H427 H 0.26699 0.32642 0.65193 0.0
H428 H 0.24639 0.37484 0.56011 0.0
S429 S 0.42914 0.33278 0.45946 0.0
N430 N 0.40857 0.3079 0.53504 0.0
N431 N 0.38889 0.36452 0.43702 0.0
C432 C 0.35723 0.35716 0.49249 0.0
C433 C 0.36771 0.32607 0.54554 0.0
C434 C 0.02809 0.32022 1.01728 0.0
C435 C 0.0447 0.28073 0.0481 0.0
C436 C 0.97522 0.30015 0.9787 0.0
C437 C 0.93608 0.23972 0.9695 0.0
H438 H 0.05626 0.36759 1.02251 0.0
H439 H 0.96573 0.3323 0.95458 0.0
S440 S 0.95758 0.11729 1.03675 0.0
N441 N 0.01704 0.1777 0.06459 0.0
N442 N 0.91746 0.14011 0.99277 0.0
C443 C 0.95176 0.19956 0.99936 0.0
C444 C 0.00599 0.21997 1.0384 0.0
C445 C 0.72404 0.94492 0.62994 0.0
C446 C 0.72723 -0.00055 0.61539 0.0
C447 C 0.68626 0.89429 0.59337 0.0
C448 C 0.65408 0.89768 0.53773 0.0
H449 H 0.75401 0.9423 0.66686 0.0
H450 H 0.69106 0.85546 0.60141 0.0
S451 S 0.63513 0.02592 0.49024 0.0
N452 N 0.68389 0.05009 0.5524 0.0
N453 N 0.61692 0.95619 0.4801 0.0
C454 C 0.64972 0.9493 0.52955 0.0
C455 C 0.68652 0.00043 0.5683 0.0
loop_
_geom_bond_atom_site_label_1
_geom_bond_atom_site_label_2
_geom_bond_distance
_geom_bond_site_symmetry_2
_ccdc_geom_bond_type
Fe0 O1 1.886 . S
Fe0 O4 1.715 . S
Fe0 O9 2.077 . S
Fe0 O14 1.935 . S
Fe0 O20 2.077 . S
Fe0 O29 1.935 . S
O1 Fe0 1.886 . S
O1 Fe3 1.715 . S
Fe2 O4 1.886 . S
Fe2 O5 1.715 . S
Fe2 O12 1.935 . S
Fe2 O13 2.077 . S
Fe2 O19 1.935 . S
Fe2 O28 2.077 . S
Fe3 O1 1.715 . S
Fe3 O6 1.886 . S
Fe3 O10 1.935 . S
Fe3 O15 2.077 . S
Fe3 O21 1.935 . S
Fe3 O25 2.077 . S
O4 Fe0 1.715 . S
O4 Fe2 1.886 . S
O5 Fe2 1.715 . S
O5 Fe7 1.886 . S
O6 Fe3 1.886 . S
O6 Fe7 1.715 . S
Fe7 O5 1.886 . S
Fe7 O6 1.715 . S
Fe7 O11 2.077 . S
Fe7 O16 1.935 . S
Fe7 O18 2.077 . S
Fe7 O26 1.935 . S
C8 O20 1.381 . S
C8 O21 1.421 . S
O9 Fe0 2.077 . S
O9 C22 1.381 . S
O10 Fe3 1.935 . S
O10 C22 1.421 . S
O11 Fe7 2.077 . S
O11 C27 1.381 . S
O12 Fe2 1.935 . S
O12 C27 1.421 . S
O13 Fe2 2.077 . S
O13 C17 1.381 . S
O14 Fe0 1.935 . S
O14 C17 1.421 . S
O15 Fe3 2.077 . S
O15 C23 1.381 . S
O16 Fe7 1.935 . S
O16 C23 1.421 . S
C17 O13 1.381 . S
C17 O14 1.421 . S
O18 Fe7 2.077 . S
O18 C30 1.381 . S
O19 Fe2 1.935 . S
O19 C30 1.421 . S
O20 Fe0 2.077 . S
O20 C8 1.381 . S
O21 Fe3 1.935 . S
O21 C8 1.421 . S
C22 O9 1.381 . S
C22 O10 1.421 . S
C23 O15 1.381 . S
C23 O16 1.421 . S
C24 O25 1.381 . S
C24 O26 1.421 . S
O25 Fe3 2.077 . S
O25 C24 1.381 . S
O26 Fe7 1.935 . S
O26 C24 1.421 . S
C27 O11 1.381 . S
C27 O12 1.421 . S
O28 Fe2 2.077 . S
O28 C31 1.381 . S
O29 Fe0 1.935 . S
O29 C31 1.421 . S
C30 O18 1.381 . S
C30 O19 1.421 . S
C31 O28 1.381 . S
C31 O29 1.421 . S
Fe32 O33 1.886 . S
Fe32 O36 1.715 . S
Fe32 O41 2.077 . S
Fe32 O46 1.935 . S
Fe32 O52 2.077 . S
Fe32 O61 1.935 . S
O33 Fe32 1.886 . S
O33 Fe35 1.715 . S
Fe34 O36 1.886 . S
Fe34 O37 1.715 . S
Fe34 O44 1.935 . S
Fe34 O45 2.077 . S
Fe34 O51 1.935 . S
Fe34 O60 2.077 . S
Fe35 O33 1.715 . S
Fe35 O38 1.886 . S
Fe35 O42 1.935 . S
Fe35 O47 2.077 . S
Fe35 O53 1.935 . S
Fe35 O57 2.077 . S
O36 Fe32 1.715 . S
O36 Fe34 1.886 . S
O37 Fe34 1.715 . S
O37 Fe39 1.886 . S
O38 Fe35 1.886 . S
O38 Fe39 1.715 . S
Fe39 O37 1.886 . S
Fe39 O38 1.715 . S
Fe39 O43 2.077 . S
Fe39 O48 1.935 . S
Fe39 O50 2.077 . S
Fe39 O58 1.935 . S
C40 O52 1.381 . S
C40 O53 1.421 . S
O41 Fe32 2.077 . S
O41 C54 1.381 . S
O42 Fe35 1.935 . S
O42 C54 1.421 . S
O43 Fe39 2.077 . S
O43 C59 1.381 . S
O44 Fe34 1.935 . S
O44 C59 1.421 . S
O45 Fe34 2.077 . S
O45 C49 1.381 . S
O46 Fe32 1.935 . S
O46 C49 1.421 . S
O47 Fe35 2.077 . S
O47 C55 1.381 . S
O48 Fe39 1.935 . S
O48 C55 1.421 . S
C49 O45 1.381 . S
C49 O46 1.421 . S
O50 Fe39 2.077 . S
O50 C62 1.381 . S
O51 Fe34 1.935 . S
O51 C62 1.421 . S
O52 Fe32 2.077 . S
O52 C40 1.381 . S
O53 Fe35 1.935 . S
O53 C40 1.421 . S
C54 O41 1.381 . S
C54 O42 1.421 . S
C55 O47 1.381 . S
C55 O48 1.421 . S
C56 O57 1.381 . S
C56 O58 1.421 . S
O57 Fe35 2.077 . S
O57 C56 1.381 . S
O58 Fe39 1.935 . S
O58 C56 1.421 . S
C59 O43 1.381 . S
C59 O44 1.421 . S
O60 Fe34 2.077 . S
O60 C63 1.381 . S
O61 Fe32 1.935 . S
O61 C63 1.421 . S
C62 O50 1.381 . S
C62 O51 1.421 . S
C63 O60 1.381 . S
C63 O61 1.421 . S
Fe64 O65 1.886 . S
Fe64 O68 1.715 . S
Fe64 O73 2.077 . S
Fe64 O78 1.935 . S
Fe64 O84 2.077 . S
Fe64 O93 1.935 . S
O65 Fe64 1.886 . S
O65 Fe67 1.715 . S
Fe66 O68 1.886 . S
Fe66 O69 1.715 . S
Fe66 O76 1.935 . S
Fe66 O77 2.077 . S
Fe66 O83 1.935 . S
Fe66 O92 2.077 . S
Fe67 O65 1.715 . S
Fe67 O70 1.886 . S
Fe67 O74 1.935 . S
Fe67 O79 2.077 . S
Fe67 O85 1.935 . S
Fe67 O89 2.077 . S
O68 Fe64 1.715 . S
O68 Fe66 1.886 . S
O69 Fe66 1.715 . S
O69 Fe71 1.886 . S
O70 Fe67 1.886 . S
O70 Fe71 1.715 . S
Fe71 O69 1.886 . S
Fe71 O70 1.715 . S
Fe71 O75 2.077 . S
Fe71 O80 1.935 . S
Fe71 O82 2.077 . S
Fe71 O90 1.935 . S
C72 O84 1.381 . S
C72 O85 1.421 . S
O73 Fe64 2.077 . S
O73 C86 1.381 . S
O74 Fe67 1.935 . S
O74 C86 1.421 . S
O75 Fe71 2.077 . S
O75 C91 1.381 . S
O76 Fe66 1.935 . S
O76 C91 1.421 . S
O77 Fe66 2.077 . S
O77 C81 1.381 . S
O78 Fe64 1.935 . S
O78 C81 1.421 . S
O79 Fe67 2.077 . S
O79 C87 1.381 . S
O80 Fe71 1.935 . S
O80 C87 1.421 . S
C81 O77 1.381 . S
C81 O78 1.421 . S
O82 Fe71 2.077 . S
O82 C94 1.381 . S
O83 Fe66 1.935 . S
O83 C94 1.421 . S
O84 Fe64 2.077 . S
O84 C72 1.381 . S
O85 Fe67 1.935 . S
O85 C72 1.421 . S
C86 O73 1.381 . S
C86 O74 1.421 . S
C87 O79 1.381 . S
C87 O80 1.421 . S
C88 O89 1.381 . S
C88 O90 1.421 . S
O89 Fe67 2.077 . S
O89 C88 1.381 . S
O90 Fe71 1.935 . S
O90 C88 1.421 . S
C91 O75 1.381 . S
C91 O76 1.421 . S
O92 Fe66 2.077 . S
O92 C95 1.381 . S
O93 Fe64 1.935 . S
O93 C95 1.421 . S
C94 O82 1.381 . S
C94 O83 1.421 . S
C95 O92 1.381 . S
C95 O93 1.421 . S
Fe96 O97 1.886 . S
Fe96 O100 1.715 . S
Fe96 O105 2.077 . S
Fe96 O110 1.935 . S
Fe96 O116 2.077 . S
Fe96 O125 1.935 . S
O97 Fe96 1.886 . S
O97 Fe99 1.715 . S
Fe98 O100 1.886 . S
Fe98 O101 1.715 . S
Fe98 O108 1.935 . S
Fe98 O109 2.077 . S
Fe98 O115 1.935 . S
Fe98 O124 2.077 . S
Fe99 O97 1.715 . S
Fe99 O102 1.886 . S
Fe99 O106 1.935 . S
Fe99 O111 2.077 . S
Fe99 O117 1.935 . S
Fe99 O121 2.077 . S
O100 Fe96 1.715 . S
O100 Fe98 1.886 . S
O101 Fe98 1.715 . S
O101 Fe103 1.886 . S
O102 Fe99 1.886 . S
O102 Fe103 1.715 . S
Fe103 O101 1.886 . S
Fe103 O102 1.715 . S
Fe103 O107 2.077 . S
Fe103 O112 1.935 . S
Fe103 O114 2.077 . S
Fe103 O122 1.935 . S
C104 O116 1.381 . S
C104 O117 1.421 . S
O105 Fe96 2.077 . S
O105 C118 1.381 . S
O106 Fe99 1.935 . S
O106 C118 1.421 . S
O107 Fe103 2.077 . S
O107 C123 1.381 . S
O108 Fe98 1.935 . S
O108 C123 1.421 . S
O109 Fe98 2.077 . S
O109 C113 1.381 . S
O110 Fe96 1.935 . S
O110 C113 1.421 . S
O111 Fe99 2.077 . S
O111 C119 1.381 . S
O112 Fe103 1.935 . S
O112 C119 1.421 . S
C113 O109 1.381 . S
C113 O110 1.421 . S
O114 Fe103 2.077 . S
O114 C126 1.381 . S
O115 Fe98 1.935 . S
O115 C126 1.421 . S
O116 Fe96 2.077 . S
O116 C104 1.381 . S
O117 Fe99 1.935 . S
O117 C104 1.421 . S
C118 O105 1.381 . S
C118 O106 1.421 . S
C119 O111 1.381 . S
C119 O112 1.421 . S
C120 O121 1.381 . S
C120 O122 1.421 . S
O121 Fe99 2.077 . S
O121 C120 1.381 . S
O122 Fe103 1.935 . S
O122 C120 1.421 . S
C123 O107 1.381 . S
C123 O108 1.421 . S
O124 Fe98 2.077 . S
O124 C127 1.381 . S
O125 Fe96 1.935 . S
O125 C127 1.421 . S
C126 O114 1.381 . S
C126 O115 1.421 . S
C127 O124 1.381 . S
C127 O125 1.421 . S
Fe128 O129 1.886 . S
Fe128 O132 1.715 . S
Fe128 O137 2.077 . S
Fe128 O142 1.935 . S
Fe128 O148 2.077 . S
Fe128 O157 1.935 . S
O129 Fe128 1.886 . S
O129 Fe131 1.715 . S
Fe130 O132 1.886 . S
Fe130 O133 1.715 . S
Fe130 O140 1.935 . S
Fe130 O141 2.077 . S
Fe130 O147 1.935 . S
Fe130 O156 2.077 . S
Fe131 O129 1.715 . S
Fe131 O134 1.886 . S
Fe131 O138 1.935 . S
Fe131 O143 2.077 . S
Fe131 O149 1.935 . S
Fe131 O153 2.077 . S
O132 Fe128 1.715 . S
O132 Fe130 1.886 . S
O133 Fe130 1.715 . S
O133 Fe135 1.886 . S
O134 Fe131 1.886 . S
O134 Fe135 1.715 . S
Fe135 O133 1.886 . S
Fe135 O134 1.715 . S
Fe135 O139 2.077 . S
Fe135 O144 1.935 . S
Fe135 O146 2.077 . S
Fe135 O154 1.935 . S
C136 O148 1.381 . S
C136 O149 1.421 . S
O137 Fe128 2.077 . S
O137 C150 1.381 . S
O138 Fe131 1.935 . S
O138 C150 1.421 . S
O139 Fe135 2.077 . S
O139 C155 1.381 . S
O140 Fe130 1.935 . S
O140 C155 1.421 . S
O141 Fe130 2.077 . S
O141 C145 1.381 . S
O142 Fe128 1.935 . S
O142 C145 1.421 . S
O143 Fe131 2.077 . S
O143 C151 1.381 . S
O144 Fe135 1.935 . S
O144 C151 1.421 . S
C145 O141 1.381 . S
C145 O142 1.421 . S
O146 Fe135 2.077 . S
O146 C158 1.381 . S
O147 Fe130 1.935 . S
O147 C158 1.421 . S
O148 Fe128 2.077 . S
O148 C136 1.381 . S
O149 Fe131 1.935 . S
O149 C136 1.421 . S
C150 O137 1.381 . S
C150 O138 1.421 . S
C151 O143 1.381 . S
C151 O144 1.421 . S
C152 O153 1.381 . S
C152 O154 1.421 . S
O153 Fe131 2.077 . S
O153 C152 1.381 . S
O154 Fe135 1.935 . S
O154 C152 1.421 . S
C155 O139 1.381 . S
C155 O140 1.421 . S
O156 Fe130 2.077 . S
O156 C159 1.381 . S
O157 Fe128 1.935 . S
O157 C159 1.421 . S
C158 O146 1.381 . S
C158 O147 1.421 . S
C159 O156 1.381 . S
C159 O157 1.421 . S
Fe160 O161 1.886 . S
Fe160 O164 1.715 . S
Fe160 O169 2.077 . S
Fe160 O174 1.935 . S
Fe160 O180 2.077 . S
Fe160 O189 1.935 . S
O161 Fe160 1.886 . S
O161 Fe163 1.715 . S
Fe162 O164 1.886 . S
Fe162 O165 1.715 . S
Fe162 O172 1.935 . S
Fe162 O173 2.077 . S
Fe162 O179 1.935 . S
Fe162 O188 2.077 . S
Fe163 O161 1.715 . S
Fe163 O166 1.886 . S
Fe163 O170 1.935 . S
Fe163 O175 2.077 . S
Fe163 O181 1.935 . S
Fe163 O185 2.077 . S
O164 Fe160 1.715 . S
O164 Fe162 1.886 . S
O165 Fe162 1.715 . S
O165 Fe167 1.886 . S
O166 Fe163 1.886 . S
O166 Fe167 1.715 . S
Fe167 O165 1.886 . S
Fe167 O166 1.715 . S
Fe167 O171 2.077 . S
Fe167 O176 1.935 . S
Fe167 O178 2.077 . S
Fe167 O186 1.935 . S
C168 O180 1.381 . S
C168 O181 1.421 . S
O169 Fe160 2.077 . S
O169 C182 1.381 . S
O170 Fe163 1.935 . S
O170 C182 1.421 . S
O171 Fe167 2.077 . S
O171 C187 1.381 . S
O172 Fe162 1.935 . S
O172 C187 1.421 . S
O173 Fe162 2.077 . S
O173 C177 1.381 . S
O174 Fe160 1.935 . S
O174 C177 1.421 . S
O175 Fe163 2.077 . S
O175 C183 1.381 . S
O176 Fe167 1.935 . S
O176 C183 1.421 . S
C177 O173 1.381 . S
C177 O174 1.421 . S
O178 Fe167 2.077 . S
O178 C190 1.381 . S
O179 Fe162 1.935 . S
O179 C190 1.421 . S
O180 Fe160 2.077 . S
O180 C168 1.381 . S
O181 Fe163 1.935 . S
O181 C168 1.421 . S
C182 O169 1.381 . S
C182 O170 1.421 . S
C183 O175 1.381 . S
C183 O176 1.421 . S
C184 O185 1.381 . S
C184 O186 1.421 . S
O185 Fe163 2.077 . S
O185 C184 1.381 . S
O186 Fe167 1.935 . S
O186 C184 1.421 . S
C187 O171 1.381 . S
C187 O172 1.421 . S
O188 Fe162 2.077 . S
O188 C191 1.381 . S
O189 Fe160 1.935 . S
O189 C191 1.421 . S
C190 O178 1.381 . S
C190 O179 1.421 . S
C191 O188 1.381 . S
C191 O189 1.421 . S
C192 C193 1.369 . S
C192 C194 1.419 . S
C192 H196 0.930 . S
C193 C192 1.369 . S
C193 C202 1.429 . S
C194 C192 1.419 . S
C194 C195 1.363 . S
C194 H197 0.929 . S
C195 C194 1.363 . S
C195 C201 1.428 . S
H196 C192 0.930 . S
H197 C194 0.929 . S
S198 N199 1.613 . S
S198 N200 1.610 . S
N199 S198 1.613 . S
N199 C202 1.350 . S
N200 S198 1.610 . S
N200 C201 1.351 . S
C201 C195 1.428 . S
C201 N200 1.351 . S
C201 C202 1.434 . S
C202 C193 1.429 . S
C202 N199 1.350 . S
C202 C201 1.434 . S
C203 C204 1.369 . S
C203 C205 1.419 . S
C203 H207 0.930 . S
C204 C203 1.369 . S
C204 C213 1.429 . S
C205 C203 1.419 . S
C205 C206 1.363 . S
C205 H208 0.929 . S
C206 C205 1.363 . S
C206 C212 1.428 . S
H207 C203 0.930 . S
H208 C205 0.929 . S
S209 N210 1.613 . S
S209 N211 1.610 . S
N210 S209 1.613 . S
N210 C213 1.350 . S
N211 S209 1.610 . S
N211 C212 1.351 . S
C212 C206 1.428 . S
C212 N211 1.351 . S
C212 C213 1.434 . S
C213 C204 1.429 . S
C213 N210 1.350 . S
C213 C212 1.434 . S
C214 C215 1.369 . S
C214 C216 1.419 . S
C214 H218 0.930 . S
C215 C214 1.369 . S
C215 C224 1.429 . S
C216 C214 1.419 . S
C216 C217 1.363 . S
C216 H219 0.929 . S
C217 C216 1.363 . S
C217 C223 1.428 . S
H218 C214 0.930 . S
H219 C216 0.929 . S
S220 N221 1.613 . S
S220 N222 1.610 . S
N221 S220 1.613 . S
N221 C224 1.350 . S
N222 S220 1.610 . S
N222 C223 1.351 . S
C223 C217 1.428 . S
C223 N222 1.351 . S
C223 C224 1.434 . S
C224 C215 1.429 . S
C224 N221 1.350 . S
C224 C223 1.434 . S
C225 C226 1.369 . S
C225 C227 1.419 . S
C225 H229 0.930 . S
C226 C225 1.369 . S
C226 C235 1.429 . S
C227 C225 1.419 . S
C227 C228 1.363 . S
C227 H230 0.929 . S
C228 C227 1.363 . S
C228 C234 1.428 . S
H229 C225 0.930 . S
H230 C227 0.929 . S
S231 N232 1.613 . S
S231 N233 1.610 . S
N232 S231 1.613 . S
N232 C235 1.350 . S
N233 S231 1.610 . S
N233 C234 1.351 . S
C234 C228 1.428 . S
C234 N233 1.351 . S
C234 C235 1.434 . S
C235 C226 1.429 . S
C235 N232 1.350 . S
C235 C234 1.434 . S
C236 C237 1.369 . S
C236 C238 1.419 . S
C236 H240 0.930 . S
C237 C236 1.369 . S
C237 C246 1.429 . S
C238 C236 1.419 . S
C238 C239 1.363 . S
C238 H241 0.929 . S
C239 C238 1.363 . S
C239 C245 1.428 . S
H240 C236 0.930 . S
H241 C238 0.929 . S
S242 N243 1.613 . S
S242 N244 1.610 . S
N243 S242 1.613 . S
N243 C246 1.350 . S
N244 S242 1.610 . S
N244 C245 1.351 . S
C245 C239 1.428 . S
C245 N244 1.351 . S
C245 C246 1.434 . S
C246 C237 1.429 . S
C246 N243 1.350 . S
C246 C245 1.434 . S
C247 C248 1.369 . S
C247 C249 1.419 . S
C247 H251 0.930 . S
C248 C247 1.369 . S
C248 C257 1.429 . S
C249 C247 1.419 . S
C249 C250 1.363 . S
C249 H252 0.929 . S
C250 C249 1.363 . S
C250 C256 1.428 . S
H251 C247 0.930 . S
H252 C249 0.929 . S
S253 N254 1.613 . S
S253 N255 1.610 . S
N254 S253 1.613 . S
N254 C257 1.350 . S
N255 S253 1.610 . S
N255 C256 1.351 . S
C256 C250 1.428 . S
C256 N255 1.351 . S
C256 C257 1.434 . S
C257 C248 1.429 . S
C257 N254 1.350 . S
C257 C256 1.434 . S
C258 C259 1.369 . S
C258 C260 1.419 . S
C258 H262 0.930 . S
C259 C258 1.369 . S
C259 C268 1.429 . S
C260 C258 1.419 . S
C260 C261 1.363 . S
C260 H263 0.929 . S
C261 C260 1.363 . S
C261 C267 1.428 . S
H262 C258 0.930 . S
H263 C260 0.929 . S
S264 N265 1.613 . S
S264 N266 1.610 . S
N265 S264 1.613 . S
N265 C268 1.350 . S
N266 S264 1.610 . S
N266 C267 1.351 . S
C267 C261 1.428 . S
C267 N266 1.351 . S
C267 C268 1.434 . S
C268 C259 1.429 . S
C268 N265 1.350 . S
C268 C267 1.434 . S
C269 C270 1.369 . S
C269 C271 1.419 . S
C269 H273 0.930 . S
C270 C269 1.369 . S
C270 C279 1.429 . S
C271 C269 1.419 . S
C271 C272 1.363 . S
C271 H274 0.929 . S
C272 C271 1.363 . S
C272 C278 1.428 . S
H273 C269 0.930 . S
H274 C271 0.929 . S
S275 N276 1.613 . S
S275 N277 1.610 . S
N276 S275 1.613 . S
N276 C279 1.350 . S
N277 S275 1.610 . S
N277 C278 1.351 . S
C278 C272 1.428 . S
C278 N277 1.351 . S
C278 C279 1.434 . S
C279 C270 1.429 . S
C279 N276 1.350 . S
C279 C278 1.434 . S
C280 C281 1.369 . S
C280 C282 1.419 . S
C280 H284 0.930 . S
C281 C280 1.369 . S
C281 C290 1.429 . S
C282 C280 1.419 . S
C282 C283 1.363 . S
C282 H285 0.929 . S
C283 C282 1.363 . S
C283 C289 1.428 . S
H284 C280 0.930 . S
H285 C282 0.929 . S
S286 N287 1.613 . S
S286 N288 1.610 . S
N287 S286 1.613 . S
N287 C290 1.350 . S
N288 S286 1.610 . S
N288 C289 1.351 . S
C289 C283 1.428 . S
C289 N288 1.351 . S
C289 C290 1.434 . S
C290 C281 1.429 . S
C290 N287 1.350 . S
C290 C289 1.434 . S
C291 C292 1.369 . S
C291 C293 1.419 . S
C291 H295 0.930 . S
C292 C291 1.369 . S
C292 C301 1.429 . S
C293 C291 1.419 . S
C293 C294 1.363 . S
C293 H296 0.929 . S
C294 C293 1.363 . S
C294 C300 1.428 . S
H295 C291 0.930 . S
H296 C293 0.929 . S
S297 N298 1.613 . S
S297 N299 1.610 . S
N298 S297 1.613 . S
N298 C301 1.350 . S
N299 S297 1.610 . S
N299 C300 1.351 . S
C300 C294 1.428 . S
C300 N299 1.351 . S
C300 C301 1.434 . S
C301 C292 1.429 . S
C301 N298 1.350 . S
C301 C300 1.434 . S
C302 C303 1.369 . S
C302 C304 1.419 . S
C302 H306 0.930 . S
C303 C302 1.369 . S
C303 C312 1.429 . S
C304 C302 1.419 . S
C304 C305 1.363 . S
C304 H307 0.929 . S
C305 C304 1.363 . S
C305 C311 1.428 . S
H306 C302 0.930 . S
H307 C304 0.929 . S
S308 N309 1.613 . S
S308 N310 1.610 . S
N309 S308 1.613 . S
N309 C312 1.350 . S
N310 S308 1.610 . S
N310 C311 1.351 . S
C311 C305 1.428 . S
C311 N310 1.351 . S
C311 C312 1.434 . S
C312 C303 1.429 . S
C312 N309 1.350 . S
C312 C311 1.434 . S
C313 C314 1.369 . S
C313 C315 1.419 . S
C313 H317 0.930 . S
C314 C313 1.369 . S
C314 C323 1.429 . S
C315 C313 1.419 . S
C315 C316 1.363 . S
C315 H318 0.929 . S
C316 C315 1.363 . S
C316 C322 1.428 . S
H317 C313 0.930 . S
H318 C315 0.929 . S
S319 N320 1.613 1_565 S
S319 N321 1.610 1_455 S
N320 S319 1.613 1_545 S
N320 C323 1.350 1_545 S
N321 S319 1.610 1_655 S
N321 C322 1.351 1_655 S
C322 C316 1.428 . S
C322 N321 1.351 1_455 S
C322 C323 1.434 . S
C323 C314 1.429 . S
C323 N320 1.350 1_565 S
C323 C322 1.434 . S
C324 C325 1.369 1_556 S
C324 C326 1.419 . S
C324 H328 0.930 . S
C325 C324 1.369 1_554 S
C325 C334 1.429 . S
C326 C324 1.419 . S
C326 C327 1.363 . S
C326 H329 0.929 . S
C327 C326 1.363 . S
C327 C333 1.428 1_556 S
H328 C324 0.930 . S
H329 C326 0.929 . S
S330 N331 1.613 . S
S330 N332 1.610 . S
N331 S330 1.613 . S
N331 C334 1.350 . S
N332 S330 1.610 . S
N332 C333 1.351 . S
C333 C327 1.428 1_554 S
C333 N332 1.351 . S
C333 C334 1.434 . S
C334 C325 1.429 . S
C334 N331 1.350 . S
C334 C333 1.434 . S
C335 C336 1.369 . S
C335 C337 1.419 . S
C335 H339 0.930 . S
C336 C335 1.369 . S
C336 C345 1.429 1_655 S
C337 C335 1.419 . S
C337 C338 1.363 1_655 S
C337 H340 0.929 . S
C338 C337 1.363 1_455 S
C338 C344 1.428 . S
H339 C335 0.930 . S
H340 C337 0.929 . S
S341 N342 1.613 . S
S341 N343 1.610 . S
N342 S341 1.613 . S
N342 C345 1.350 . S
N343 S341 1.610 . S
N343 C344 1.351 . S
C344 C338 1.428 . S
C344 N343 1.351 . S
C344 C345 1.434 . S
C345 C336 1.429 1_455 S
C345 N342 1.350 . S
C345 C344 1.434 . S
C346 C347 1.369 1_545 S
C346 C348 1.419 1_554 S
C346 H350 0.930 . S
C347 C346 1.369 1_565 S
C347 C356 1.429 . S
C348 C346 1.419 1_556 S
C348 C349 1.363 . S
C348 H351 0.929 . S
C349 C348 1.363 . S
C349 C355 1.428 1_545 S
H350 C346 0.930 . S
H351 C348 0.929 . S
S352 N353 1.613 1_556 S
S352 N354 1.610 . S
N353 S352 1.613 1_554 S
N353 C356 1.350 . S
N354 S352 1.610 . S
N354 C355 1.351 . S
C355 C349 1.428 1_565 S
C355 N354 1.351 . S
C355 C356 1.434 1_556 S
C356 C347 1.429 . S
C356 N353 1.350 . S
C356 C355 1.434 1_554 S
C357 C358 1.369 . S
C357 C359 1.419 . S
C357 H361 0.930 . S
C358 C357 1.369 . S
C358 C367 1.429 . S
C359 C357 1.419 . S
C359 C360 1.363 . S
C359 H362 0.929 . S
C360 C359 1.363 . S
C360 C366 1.428 . S
H361 C357 0.930 . S
H362 C359 0.929 . S
S363 N364 1.613 . S
S363 N365 1.610 . S
N364 S363 1.613 . S
N364 C367 1.350 . S
N365 S363 1.610 . S
N365 C366 1.351 . S
C366 C360 1.428 . S
C366 N365 1.351 . S
C366 C367 1.434 . S
C367 C358 1.429 . S
C367 N364 1.350 . S
C367 C366 1.434 . S
C368 C369 1.369 . S
C368 C370 1.419 1_556 S
C368 H372 0.930 . S
C369 C368 1.369 . S
C369 C378 1.429 1_655 S
C370 C368 1.419 1_554 S
C370 C371 1.363 1_655 S
C370 H373 0.929 . S
C371 C370 1.363 1_455 S
C371 C377 1.441 . S
H372 C368 0.930 . S
H373 C370 0.929 . S
S374 N375 1.613 . S
S374 N376 1.610 . S
N375 S374 1.613 . S
N375 C378 1.350 . S
N376 S374 1.610 . S
N376 C377 1.350 1_556 S
C377 C371 1.441 . S
C377 N376 1.350 1_554 S
C377 C378 1.422 1_554 S
C378 C369 1.429 1_455 S
C378 N375 1.350 . S
C378 C377 1.422 1_556 S
C379 C380 1.369 . S
C379 C381 1.419 1_545 S
C379 H383 0.930 . S
C380 C379 1.369 . S
C380 C389 1.429 . S
C381 C379 1.419 1_565 S
C381 C382 1.363 . S
C381 H384 0.929 . S
C382 C381 1.363 . S
C382 C388 1.428 . S
H383 C379 0.930 . S
H384 C381 0.929 . S
S385 N386 1.613 . S
S385 N387 1.610 1_545 S
N386 S385 1.613 . S
N386 C389 1.350 . S
N387 S385 1.610 1_565 S
N387 C388 1.351 . S
C388 C382 1.428 . S
C388 N387 1.351 . S
C388 C389 1.434 1_565 S
C389 C380 1.429 . S
C389 N386 1.350 . S
C389 C388 1.434 1_545 S
C390 C391 1.369 . S
C390 C392 1.419 1_556 S
C390 H394 0.930 . S
C391 C390 1.369 . S
C391 C400 1.429 . S
C392 C390 1.419 1_554 S
C392 C393 1.363 . S
C392 H395 0.929 . S
C393 C392 1.363 . S
C393 C399 1.428 . S
H394 C390 0.930 . S
H395 C392 0.929 . S
S396 N397 1.613 . S
S396 N398 1.610 . S
N397 S396 1.613 . S
N397 C400 1.350 . S
N398 S396 1.610 . S
N398 C399 1.351 1_556 S
C399 C393 1.428 . S
C399 N398 1.351 1_554 S
C399 C400 1.434 1_554 S
C400 C391 1.429 . S
C400 N397 1.350 . S
C400 C399 1.434 1_556 S
C401 C402 1.369 . S
C401 C403 1.419 1_455 S
C401 H405 0.930 . S
C402 C401 1.369 . S
C402 C411 1.429 . S
C403 C401 1.419 1_655 S
C403 C404 1.363 . S
C403 H406 0.929 . S
C404 C403 1.363 . S
C404 C410 1.428 . S
H405 C401 0.930 . S
H406 C403 0.929 . S
S407 N408 1.613 1_655 S
S407 N409 1.610 . S
N408 S407 1.613 1_455 S
N408 C411 1.350 . S
N409 S407 1.610 . S
N409 C410 1.351 . S
C410 C404 1.428 . S
C410 N409 1.351 . S
C410 C411 1.434 1_655 S
C411 C402 1.429 . S
C411 N408 1.350 . S
C411 C410 1.434 1_455 S
C412 C413 1.369 . S
C412 C414 1.421 1_556 S
C412 H416 0.930 . S
C413 C412 1.369 . S
C413 C422 1.429 1_545 S
C414 C412 1.421 1_554 S
C414 C415 1.358 1_545 S
C414 H417 0.931 . S
C415 C414 1.358 1_565 S
C415 C421 1.428 . S
H416 C412 0.930 . S
H417 C414 0.931 . S
S418 N419 1.613 . S
S418 N420 1.610 1_556 S
N419 S418 1.613 . S
N419 C422 1.350 . S
N420 S418 1.610 1_554 S
N420 C421 1.351 . S
C421 C415 1.428 . S
C421 N420 1.351 . S
C421 C422 1.434 1_554 S
C422 C413 1.429 1_565 S
C422 N419 1.350 . S
C422 C421 1.434 1_556 S
C423 C424 1.369 . S
C423 C425 1.419 . S
C423 H427 0.930 . S
C424 C423 1.369 . S
C424 C433 1.429 . S
C425 C423 1.419 . S
C425 C426 1.363 . S
C425 H428 0.929 . S
C426 C425 1.363 . S
C426 C432 1.428 . S
H427 C423 0.930 . S
H428 C425 0.929 . S
S429 N430 1.613 . S
S429 N431 1.610 . S
N430 S429 1.613 . S
N430 C433 1.350 . S
N431 S429 1.610 . S
N431 C432 1.351 . S
C432 C426 1.428 . S
C432 N431 1.351 . S
C432 C433 1.434 . S
C433 C424 1.429 . S
C433 N430 1.350 . S
C433 C432 1.434 . S
C434 C435 1.369 . S
C434 C436 1.419 1_554 S
C434 H438 0.930 . S
C435 C434 1.369 . S
C435 C444 1.429 1_455 S
C436 C434 1.419 1_556 S
C436 C437 1.363 1_455 S
C436 H439 0.929 . S
C437 C436 1.363 1_655 S
C437 C443 1.428 . S
H438 C434 0.930 . S
H439 C436 0.929 . S
S440 N441 1.613 . S
S440 N442 1.610 1_554 S
N441 S440 1.613 . S
N441 C444 1.350 . S
N442 S440 1.610 1_556 S
N442 C443 1.351 . S
C443 C437 1.428 . S
C443 N442 1.351 . S
C443 C444 1.434 1_556 S
C444 C435 1.429 1_655 S
C444 N441 1.350 . S
C444 C443 1.434 1_554 S
C445 C446 1.369 1_565 S
C445 C447 1.419 . S
C445 H449 0.930 . S
C446 C445 1.369 1_545 S
C446 C455 1.429 . S
C447 C445 1.419 . S
C447 C448 1.363 . S
C447 H450 0.929 . S
C448 C447 1.363 . S
C448 C454 1.428 1_565 S
H449 C445 0.930 . S
H450 C447 0.929 . S
S451 N452 1.613 . S
S451 N453 1.610 . S
N452 S451 1.613 . S
N452 C455 1.350 . S
N453 S451 1.610 . S
N453 C454 1.351 . S
C454 C448 1.428 1_545 S
C454 N453 1.351 . S
C454 C455 1.434 . S
C455 C446 1.429 . S
C455 N452 1.350 . S
C455 C454 1.434 . S
C193 C30 1.210 . S
C195 C155 1.211 . S
C204 C187 1.215 . S
C206 C62 1.215 . S
C215 C27 1.215 . S
C217 C94 1.214 . S
C226 C59 1.210 . S
C228 C126 1.210 . S
C237 C158 1.212 . S
C239 C91 1.212 . S
C248 C190 1.205 . S
C250 C123 1.207 . S
C259 C22 1.099 . S
C261 C136 1.098 1_545 S
C270 C54 1.095 1_455 S
C272 C168 1.095 . S
C281 C8 1.089 1_655 S
C283 C86 1.090 1_545 S
C292 C40 1.100 1_565 S
C294 C118 1.098 . S
C303 C72 1.099 . S
C305 C150 1.098 1_655 S
C314 C182 1.088 1_565 S
C316 C104 1.089 1_455 S
C325 C17 1.546 . S
C327 C184 1.565 . S
C336 C49 1.546 . S
C338 C24 1.565 . S
C347 C81 1.537 . S
C349 C56 1.565 . S
C358 C113 1.543 . S
C360 C88 1.563 . S
C369 C120 1.570 . S
C371 C145 1.544 . S
C380 C177 1.545 . S
C382 C152 1.570 . S
C391 C119 1.571 . S
C393 C95 1.542 . S
C402 C151 1.563 . S
C404 C127 1.538 . S
C413 C183 1.571 . S
C415 C159 1.543 . S
C424 C191 1.546 . S
C426 C23 1.569 . S
C435 C31 1.538 . S
C437 C55 1.563 . S
C446 C63 1.542 . S
C448 C87 1.570 . S
