# Generated by pormake.
# Topology whj, (6)-cn, num edge types: 1
# Building blocks:
#     Node 0, Type 0, BuildingBlock: IZENUY_clean_sbu_0, # of connection points: 6
#     Node 1, Type 0, BuildingBlock: IZENUY_clean_sbu_0, # of connection points: 6
#     Node 2, Type 0, BuildingBlock: IZENUY_clean_sbu_0, # of connection points: 6
#     Node 3, Type 0, BuildingBlock: IZENUY_clean_sbu_0, # of connection points: 6
#     Node 4, Type 0, BuildingBlock: IZENUY_clean_sbu_0, # of connection points: 6
#     Node 5, Type 0, BuildingBlock: IZENUY_clean_sbu_0, # of connection points: 6
#     Node 6, Type 0, BuildingBlock: IZENUY_clean_sbu_0, # of connection points: 6
#     Node 7, Type 0, BuildingBlock: IZENUY_clean_sbu_0, # of connection points: 6
#     Node 8, Type 0, BuildingBlock: IZENUY_clean_sbu_0, # of connection points: 6
#     Node 9, Type 0, BuildingBlock: IZENUY_clean_sbu_0, # of connection points: 6
#     Node 10, Type 0, BuildingBlock: IZENUY_clean_sbu_0, # of connection points: 6
#     Node 11, Type 0, BuildingBlock: IZENUY_clean_sbu_0, # of connection points: 6
#     Node 12, Type 0, BuildingBlock: IZENUY_clean_sbu_0, # of connection points: 6
#     Node 13, Type 0, BuildingBlock: IZENUY_clean_sbu_0, # of connection points: 6
#     Node 14, Type 0, BuildingBlock: IZENUY_clean_sbu_0, # of connection points: 6
#     Node 15, Type 0, BuildingBlock: IZENUY_clean_sbu_0, # of connection points: 6
#     Edge 16, Type (0, 0), BuildingBlock: EZIPEK_clean_linker_0, # of connection points: 2
#     Edge 17, Type (0, 0), BuildingBlock: EZIPEK_clean_linker_0, # of connection points: 2
#     Edge 18, Type (0, 0), BuildingBlock: EZIPEK_clean_linker_0, # of connection points: 2
#     Edge 19, Type (0, 0), BuildingBlock: EZIPEK_clean_linker_0, # of connection points: 2
#     Edge 20, Type (0, 0), BuildingBlock: EZIPEK_clean_linker_0, # of connection points: 2
#     Edge 21, Type (0, 0), BuildingBlock: EZIPEK_clean_linker_0, # of connection points: 2
#     Edge 22, Type (0, 0), BuildingBlock: EZIPEK_clean_linker_0, # of connection points: 2
#     Edge 23, Type (0, 0), BuildingBlock: EZIPEK_clean_linker_0, # of connection points: 2
#     Edge 24, Type (0, 0), BuildingBlock: EZIPEK_clean_linker_0, # of connection points: 2
#     Edge 25, Type (0, 0), BuildingBlock: EZIPEK_clean_linker_0, # of connection points: 2
#     Edge 26, Type (0, 0), BuildingBlock: EZIPEK_clean_linker_0, # of connection points: 2
#     Edge 27, Type (0, 0), BuildingBlock: EZIPEK_clean_linker_0, # of connection points: 2
#     Edge 28, Type (0, 0), BuildingBlock: EZIPEK_clean_linker_0, # of connection points: 2
#     Edge 29, Type (0, 0), BuildingBlock: EZIPEK_clean_linker_0, # of connection points: 2
#     Edge 30, Type (0, 0), BuildingBlock: EZIPEK_clean_linker_0, # of connection points: 2
#     Edge 31, Type (0, 0), BuildingBlock: EZIPEK_clean_linker_0, # of connection points: 2
#     Edge 32, Type (0, 0), BuildingBlock: EZIPEK_clean_linker_0, # of connection points: 2
#     Edge 33, Type (0, 0), BuildingBlock: EZIPEK_clean_linker_0, # of connection points: 2
#     Edge 34, Type (0, 0), BuildingBlock: EZIPEK_clean_linker_0, # of connection points: 2
#     Edge 35, Type (0, 0), BuildingBlock: EZIPEK_clean_linker_0, # of connection points: 2
#     Edge 36, Type (0, 0), BuildingBlock: EZIPEK_clean_linker_0, # of connection points: 2
#     Edge 37, Type (0, 0), BuildingBlock: EZIPEK_clean_linker_0, # of connection points: 2
#     Edge 38, Type (0, 0), BuildingBlock: EZIPEK_clean_linker_0, # of connection points: 2
#     Edge 39, Type (0, 0), BuildingBlock: EZIPEK_clean_linker_0, # of connection points: 2
#     Edge 40, Type (0, 0), BuildingBlock: EZIPEK_clean_linker_0, # of connection points: 2
#     Edge 41, Type (0, 0), BuildingBlock: EZIPEK_clean_linker_0, # of connection points: 2
#     Edge 42, Type (0, 0), BuildingBlock: EZIPEK_clean_linker_0, # of connection points: 2
#     Edge 43, Type (0, 0), BuildingBlock: EZIPEK_clean_linker_0, # of connection points: 2
#     Edge 44, Type (0, 0), BuildingBlock: EZIPEK_clean_linker_0, # of connection points: 2
#     Edge 45, Type (0, 0), BuildingBlock: EZIPEK_clean_linker_0, # of connection points: 2
#     Edge 46, Type (0, 0), BuildingBlock: EZIPEK_clean_linker_0, # of connection points: 2
#     Edge 47, Type (0, 0), BuildingBlock: EZIPEK_clean_linker_0, # of connection points: 2
#     Edge 48, Type (0, 0), BuildingBlock: EZIPEK_clean_linker_0, # of connection points: 2
#     Edge 49, Type (0, 0), BuildingBlock: EZIPEK_clean_linker_0, # of connection points: 2
#     Edge 50, Type (0, 0), BuildingBlock: EZIPEK_clean_linker_0, # of connection points: 2
#     Edge 51, Type (0, 0), BuildingBlock: EZIPEK_clean_linker_0, # of connection points: 2
#     Edge 52, Type (0, 0), BuildingBlock: EZIPEK_clean_linker_0, # of connection points: 2
#     Edge 53, Type (0, 0), BuildingBlock: EZIPEK_clean_linker_0, # of connection points: 2
#     Edge 54, Type (0, 0), BuildingBlock: EZIPEK_clean_linker_0, # of connection points: 2
#     Edge 55, Type (0, 0), BuildingBlock: EZIPEK_clean_linker_0, # of connection points: 2
#     Edge 56, Type (0, 0), BuildingBlock: EZIPEK_clean_linker_0, # of connection points: 2
#     Edge 57, Type (0, 0), BuildingBlock: EZIPEK_clean_linker_0, # of connection points: 2
#     Edge 58, Type (0, 0), BuildingBlock: EZIPEK_clean_linker_0, # of connection points: 2
#     Edge 59, Type (0, 0), BuildingBlock: EZIPEK_clean_linker_0, # of connection points: 2
#     Edge 60, Type (0, 0), BuildingBlock: EZIPEK_clean_linker_0, # of connection points: 2
#     Edge 61, Type (0, 0), BuildingBlock: EZIPEK_clean_linker_0, # of connection points: 2
#     Edge 62, Type (0, 0), BuildingBlock: EZIPEK_clean_linker_0, # of connection points: 2
#     Edge 63, Type (0, 0), BuildingBlock: EZIPEK_clean_linker_0, # of connection points: 2
# Relax obj value: 0.269
# Max RMSD: 0.261
# Mean RMSD: 0.261
data_MOF--net-whj--node1-IZENUY_clean_sbu_0--edge1-EZIPEK_clean_linker_0
_symmetry_space_group_name_H-M    P1
_symmetry_Int_Tables_number       1
_symmetry_cell_setting            triclinic
loop_
_symmetry_equiv_pos_as_xyz
'x, y, z'
_cell_length_a     27.271025
_cell_length_b     27.292884
_cell_length_c     35.027443
_cell_angle_alpha  89.826286
_cell_angle_beta   89.919854
_cell_angle_gamma 90.035822
loop_
_atom_site_label
_atom_site_type_symbol
_atom_site_fract_x
_atom_site_fract_y
_atom_site_fract_z
_atom_type_partial_charge
Fe0 Fe 0.70059 1.00285 0.07975 0.0
Fe1 Fe 0.61933 0.06035 0.12015 0.0
O2 O 0.68188 0.05479 0.10672 0.0
Fe3 Fe 0.72334 0.10187 0.12001 0.0
O4 O 0.74503 0.11175 0.07124 0.0
O5 O 0.74381 0.03626 0.04953 0.0
O6 O 0.65537 1.01507 0.04243 0.0
C7 C 0.61037 1.0199 0.04901 0.0
C8 C 0.78114 1.01414 0.12788 0.0
O9 O 0.59506 0.02401 0.08231 0.0
C10 C 0.66417 0.10366 0.18351 0.0
O11 O 0.65894 0.96031 0.10562 0.0
O12 O 0.62375 1.0055 0.15017 0.0
O13 O 0.77453 0.06006 0.1301 0.0
O14 O 0.74893 0.98634 0.11339 0.0
C15 C 0.6376 0.15249 0.09236 0.0
O16 O 0.6286 0.09952 0.16124 0.0
O17 O 0.70685 0.09649 0.17087 0.0
C18 C 0.63293 0.96372 0.13582 0.0
O19 O 0.61246 0.11373 0.08959 0.0
O20 O 0.67813 0.1517 0.11062 0.0
C21 C 0.75614 0.08065 0.04593 0.0
Fe22 Fe 0.44059 0.72285 0.12102 0.0
Fe23 Fe 0.54092 0.69688 0.08364 0.0
O24 O 0.48841 0.68017 0.11143 0.0
Fe25 Fe 0.48327 0.61853 0.12799 0.0
O26 O 0.42885 0.60888 0.09936 0.0
O27 O 0.39093 0.67799 0.11208 0.0
O28 O 0.43311 0.74066 0.0713 0.0
C29 C 0.46496 0.75101 0.04651 0.0
C30 C 0.43615 0.6693 0.1877 0.0
O31 O 0.50939 0.74025 0.05208 0.0
C32 C 0.58056 0.62949 0.14046 0.0
O33 O 0.48341 0.77367 0.13029 0.0
O34 O 0.55772 0.746 0.11633 0.0
O35 O 0.44644 0.63095 0.16986 0.0
O36 O 0.44099 0.71076 0.1723 0.0
C37 C 0.51916 0.60674 0.05559 0.0
O38 O 0.58341 0.65464 0.10967 0.0
O39 O 0.53919 0.62387 0.15665 0.0
C40 C 0.52971 0.77942 0.12912 0.0
O41 O 0.52669 0.65095 0.04763 0.0
O42 O 0.51759 0.59278 0.08952 0.0
C43 C 0.39065 0.63492 0.09812 0.0
Fe44 Fe 0.81502 0.43218 0.12098 0.0
Fe45 Fe 0.84026 0.53271 0.08626 0.0
O46 O 0.85841 0.4792 0.11168 0.0
Fe47 Fe 0.91988 0.47273 0.12854 0.0
O48 O 0.92217 0.40572 0.12005 0.0
O49 O 0.85141 0.38889 0.09329 0.0
O50 O 0.78047 0.44217 0.07726 0.0
C51 C 0.78772 0.46428 0.04592 0.0
C52 C 0.87293 0.43121 0.18879 0.0
O53 O 0.81892 0.4987 0.04423 0.0
C54 C 0.90107 0.5758 0.13754 0.0
O55 O 0.77479 0.4744 0.14813 0.0
O56 O 0.77774 0.53442 0.1059 0.0
O57 O 0.90011 0.4656 0.17753 0.0
O58 O 0.84231 0.41157 0.16645 0.0
C59 C 0.93878 0.51469 0.05988 0.0
O60 O 0.85778 0.5707 0.12636 0.0
O61 O 0.92956 0.53903 0.13774 0.0
C62 C 0.75779 0.51446 0.13473 0.0
O63 O 0.90067 0.54141 0.0621 0.0
O64 O 0.94516 0.47894 0.08177 0.0
C65 C 0.89685 0.38083 0.0966 0.0
Fe66 Fe 1.00439 0.84602 0.08085 0.0
Fe67 Fe 0.06217 0.92139 0.12654 0.0
O68 O 0.05433 0.85985 0.11151 0.0
Fe69 Fe 0.09787 0.81509 0.12631 0.0
O70 O 0.11059 0.79468 0.07784 0.0
O71 O 0.03831 0.80331 0.05073 0.0
O72 O 1.0224 0.89249 0.04601 0.0
C73 C 0.02805 0.93672 0.05428 0.0
C74 C 1.00589 0.76249 0.1271 0.0
O75 O 0.02944 0.94975 0.08818 0.0
C76 C 0.09962 0.87236 0.19064 0.0
O77 O 0.96205 0.88793 0.10637 0.0
O78 O 1.00537 0.91866 0.15418 0.0
O79 O 0.0519 0.76564 0.13283 0.0
O80 O 0.98214 0.79696 0.11149 0.0
C81 C 0.15327 0.89665 0.09943 0.0
O82 O 0.09832 0.90855 0.16865 0.0
O83 O 0.09026 0.83034 0.17742 0.0
C84 C 0.96434 0.91135 0.13785 0.0
O85 O 0.11718 0.92571 0.0979 0.0
O86 O 0.15075 0.85781 0.11983 0.0
C87 C 0.08202 0.78826 0.05003 0.0
Fe88 Fe 0.20049 0.03694 0.44448 0.0
Fe89 Fe 0.12862 0.9707 0.40001 0.0
O90 O 0.18906 0.98525 0.41512 0.0
Fe91 Fe 0.23793 0.94535 0.40249 0.0
O92 O 0.27639 0.95819 0.44447 0.0
O93 O 0.22857 0.99947 0.48219 0.0
O94 O 0.14236 0.03247 0.4707 0.0
C95 C 0.10986 0.9994 0.47316 0.0
C96 C 0.28257 0.03448 0.39248 0.0
O97 O 0.10605 0.96776 0.44767 0.0
C98 C 0.17536 0.94071 0.3367 0.0
O99 O 0.17247 0.0798 0.41058 0.0
O100 O 0.10898 0.03479 0.39436 0.0
O101 O 0.2695 0.99467 0.37629 0.0
O102 O 0.2606 0.04974 0.42231 0.0
C103 C 0.16416 0.88246 0.42796 0.0
O104 O 0.14634 0.97156 0.35075 0.0
O105 O 0.20993 0.92382 0.35708 0.0
C106 C 0.12924 0.07634 0.39754 0.0
O107 O 0.13678 0.904 0.40413 0.0
O108 O 0.20868 0.89566 0.43034 0.0
C109 C 0.26504 0.97148 0.47779 0.0
Fe110 Fe 0.51169 0.20101 0.44295 0.0
Fe111 Fe 0.5693 0.12465 0.39634 0.0
O112 O 0.56169 0.18543 0.41298 0.0
Fe113 Fe 0.60618 0.23056 0.40131 0.0
O114 O 0.59849 0.26658 0.44533 0.0
O115 O 0.55353 0.21996 0.48167 0.0
O116 O 0.50689 0.14102 0.46681 0.0
C117 C 0.53596 0.10503 0.46762 0.0
C118 C 0.52282 0.28414 0.39318 0.0
O119 O 0.56913 0.09981 0.44342 0.0
C120 C 0.60348 0.17187 0.33388 0.0
O121 O 0.46672 0.18199 0.40714 0.0
O122 O 0.50302 0.11369 0.39036 0.0
O123 O 0.56096 0.2682 0.37663 0.0
O124 O 0.50672 0.26404 0.42359 0.0
C125 C 0.66259 0.15077 0.42248 0.0
O126 O 0.57096 0.14419 0.34745 0.0
O127 O 0.6237 0.20367 0.35487 0.0
C128 C 0.46518 0.14088 0.39034 0.0
O129 O 0.63669 0.1248 0.40048 0.0
O130 O 0.65236 0.19549 0.42656 0.0
C131 C 0.58579 0.2531 0.47845 0.0
Fe132 Fe 0.43 0.56146 0.39983 0.0
Fe133 Fe 0.32712 0.60536 0.40399 0.0
O134 O 0.368 0.55726 0.41475 0.0
Fe135 Fe 0.34826 0.50599 0.44244 0.0
O136 O 0.39268 0.5198 0.47979 0.0
O137 O 0.45418 0.52731 0.43982 0.0
O138 O 0.43956 0.61609 0.42829 0.0
C139 C 0.41371 0.65438 0.4273 0.0
C140 C 0.41633 0.46484 0.388 0.0
O141 O 0.37312 0.65416 0.40972 0.0
C142 C 0.26874 0.51702 0.39543 0.0
O143 O 0.4183 0.59773 0.35689 0.0
O144 O 0.33817 0.60147 0.35279 0.0
O145 O 0.3913 0.46285 0.41875 0.0
O146 O 0.42407 0.50566 0.37171 0.0
C147 C 0.29571 0.58489 0.47688 0.0
O148 O 0.2739 0.56354 0.39692 0.0
O149 O 0.30229 0.48899 0.4075 0.0
C150 C 0.38006 0.60673 0.33794 0.0
O151 O 0.31409 0.61535 0.45416 0.0
O152 O 0.30152 0.53941 0.47105 0.0
C153 C 0.438 0.52344 0.4732 0.0
Fe154 Fe 0.98928 0.42978 0.39867 0.0
Fe155 Fe 0.94298 0.32825 0.40604 0.0
O156 O 0.99187 0.36871 0.41585 0.0
Fe157 Fe 0.0418 0.35033 0.44523 0.0
O158 O 0.02763 0.39785 0.48011 0.0
O159 O 0.02433 0.45588 0.43724 0.0
O160 O 0.9347 0.44174 0.4273 0.0
C161 C 0.89639 0.41565 0.42778 0.0
C162 C 0.08555 0.41238 0.38728 0.0
O163 O 0.89549 0.37594 0.40915 0.0
C164 C 0.03026 0.26696 0.40244 0.0
O165 O 0.95283 0.41644 0.35645 0.0
O166 O 0.9483 0.33636 0.35427 0.0
O167 O 0.08652 0.39014 0.41945 0.0
O168 O 0.04497 0.42049 0.37076 0.0
C169 C 0.96015 0.30377 0.48128 0.0
O170 O 0.98372 0.27324 0.40255 0.0
O171 O 0.05879 0.30083 0.41313 0.0
C172 C 0.943 0.37781 0.33837 0.0
O173 O 0.93088 0.31884 0.4564 0.0
O174 O 1.00605 0.3077 0.47596 0.0
C175 C 0.02477 0.44252 0.47143 0.0
Fe176 Fe 0.31219 0.93165 0.90435 0.0
Fe177 Fe 0.41726 0.97101 0.90179 0.0
O178 O 0.35552 0.9774 0.91622 0.0
Fe179 Fe 0.33803 0.02946 0.94252 0.0
O180 O 0.31779 0.9924 0.98273 0.0
O181 O 0.27567 0.93912 0.94873 0.0
O182 O 0.34676 0.88556 0.93053 0.0
C183 C 0.39117 0.87485 0.92528 0.0
C184 C 0.2566 1.01447 0.89302 0.0
O185 O 0.41729 0.90328 0.90517 0.0
C186 C 0.40169 0.07445 0.8949 0.0
O187 O 0.34289 0.91531 0.85824 0.0
O188 O 0.40021 0.97146 0.85222 0.0
O189 O 0.27573 0.03257 0.92274 0.0
O190 O 0.27357 0.97553 0.87829 0.0
C191 C 0.4321 1.00527 0.97225 0.0
O192 O 0.43004 0.03775 0.89761 0.0
O193 O 0.35716 0.06927 0.90337 0.0
C194 C 0.37543 0.93722 0.83818 0.0
O195 O 0.43731 0.96994 0.94995 0.0
O196 O 0.39752 0.03575 0.96763 0.0
C197 C 0.28657 0.95832 0.98071 0.0
Fe198 Fe 0.55518 0.42467 0.90033 0.0
Fe199 Fe 0.49425 0.34701 0.94086 0.0
O200 O 0.5476 0.36314 0.91531 0.0
Fe201 Fe 0.5933 0.31896 0.90402 0.0
O202 O 0.64469 0.36359 0.91214 0.0
O203 O 0.60715 0.43121 0.93133 0.0
O204 O 0.51805 0.45184 0.93769 0.0
C205 C 0.50784 0.43679 0.97064 0.0
C206 C 0.59841 0.37451 0.839 0.0
O207 O 0.506 0.39174 0.97794 0.0
C208 C 0.50247 0.26471 0.89762 0.0
O209 O 0.50191 0.42026 0.8693 0.0
O210 O 0.45384 0.39021 0.91417 0.0
O211 O 0.58876 0.33259 0.85255 0.0
O212 O 0.59527 0.41132 0.86028 0.0
C213 C 0.57136 0.29245 0.97862 0.0
O214 O 0.47751 0.30182 0.90574 0.0
O215 O 0.54924 0.26694 0.89764 0.0
C216 C 0.45947 0.41441 0.8832 0.0
O217 O 0.5265 0.30188 0.97208 0.0
O218 O 0.6025 0.30135 0.95314 0.0
C219 C 0.6443 0.40369 0.93121 0.0
Fe220 Fe 0.23101 0.60752 0.90145 0.0
Fe221 Fe 0.12507 0.5682 0.89723 0.0
O222 O 0.18692 0.56106 0.9122 0.0
Fe223 Fe 0.20518 0.50816 0.93819 0.0
O224 O 0.22652 0.54462 0.97861 0.0
O225 O 0.26961 0.59658 0.9443 0.0
O226 O 0.19754 0.65119 0.92998 0.0
C227 C 0.15218 0.65971 0.92904 0.0
C228 C 0.28463 0.52523 0.88659 0.0
O229 O 0.12399 0.63472 0.90778 0.0
C230 C 0.14372 0.46515 0.88555 0.0
O231 O 0.20071 0.62967 0.85716 0.0
O232 O 0.14208 0.57642 0.84773 0.0
O233 O 0.26686 0.50649 0.91681 0.0
O234 O 0.26752 0.56483 0.87293 0.0
C235 C 0.10845 0.52591 0.9664 0.0
O236 O 0.11554 0.5023 0.88647 0.0
O237 O 0.1858 0.46782 0.90023 0.0
C238 C 0.16814 0.61113 0.8358 0.0
O239 O 0.10136 0.56115 0.94431 0.0
O240 O 0.14622 0.49917 0.96366 0.0
C241 C 0.25871 0.57795 0.97647 0.0
Fe242 Fe 0.04689 0.19782 0.93858 0.0
Fe243 Fe 0.94788 0.22814 0.90235 0.0
O244 O 0.99281 0.18283 0.91311 0.0
Fe245 Fe 0.98291 0.12132 0.89934 0.0
O246 O 1.01677 0.09431 0.93793 0.0
O247 O 0.03248 0.15491 0.97689 0.0
O248 O 1.01823 0.2459 0.96838 0.0
C249 C 0.97378 0.2558 0.97555 0.0
C250 C 0.08016 0.12628 0.88397 0.0
O251 O 0.94044 0.24475 0.95226 0.0
C252 C 0.94126 0.17324 0.83728 0.0
O253 O 0.0649 0.24138 0.90207 0.0
O254 O 0.99366 0.27809 0.89498 0.0
O255 O 0.0379 0.12075 0.86947 0.0
O256 O 0.08556 0.15203 0.91388 0.0
C257 C 0.893 0.14661 0.92929 0.0
O258 O 0.95042 0.21518 0.85088 0.0
O259 O 0.94576 0.13548 0.8577 0.0
C260 C 0.04037 0.27878 0.89294 0.0
O261 O 0.89485 0.18597 0.90971 0.0
O262 O 0.92949 0.11821 0.92985 0.0
C263 C 0.02523 0.11008 0.9707 0.0
Fe264 Fe 0.92338 0.07628 0.62627 0.0
Fe265 Fe 0.84885 1.01795 0.58047 0.0
O266 O 0.86173 0.0682 0.61061 0.0
Fe267 Fe 0.81439 0.10981 0.62484 0.0
O268 O 0.85489 0.16457 0.61784 0.0
O269 O 0.92696 0.13375 0.60105 0.0
O270 O 0.95135 0.04829 0.58497 0.0
C271 C 0.93654 0.04628 0.55108 0.0
C272 C 0.87098 0.11174 0.69004 0.0
O273 O 0.89184 0.03885 0.5442 0.0
C274 C 0.76821 1.01421 0.62731 0.0
O275 O 0.92345 1.01711 0.65168 0.0
O276 O 0.89481 0.97714 0.60211 0.0
O277 O 0.82921 0.10376 0.67584 0.0
O278 O 0.90897 0.10768 0.67013 0.0
C279 C 0.78419 0.09216 0.55053 0.0
O280 O 0.80617 0.99351 0.61493 0.0
O281 O 0.76668 0.06085 0.63079 0.0
C282 C 0.917 0.97705 0.63396 0.0
O283 O 0.80018 0.04866 0.55253 0.0
O284 O 0.79317 0.12187 0.57683 0.0
C285 C 0.89635 0.16839 0.60075 0.0
Fe286 Fe 0.5437 0.83689 0.58711 0.0
Fe287 Fe 0.44501 0.81117 0.62375 0.0
O288 O 0.49114 0.85504 0.61316 0.0
Fe289 Fe 0.48453 0.91705 0.62818 0.0
O290 O 0.48909 0.93993 0.58035 0.0
O291 O 0.55279 0.8966 0.5625 0.0
O292 O 0.50687 0.8172 0.54622 0.0
C293 C 0.4734 0.78498 0.54835 0.0
C294 C 0.58797 0.89805 0.63733 0.0
O295 O 0.45476 0.77413 0.58039 0.0
C296 C 0.44419 0.87225 0.68982 0.0
O297 O 0.54525 0.77445 0.60656 0.0
O298 O 0.4879 0.77269 0.6509 0.0
O299 O 0.55118 0.92674 0.63641 0.0
O300 O 0.58306 0.85439 0.62669 0.0
C301 C 0.39225 0.89239 0.59879 0.0
O302 O 0.42556 0.83959 0.6688 0.0
O303 O 0.47807 0.89957 0.6776 0.0
C304 C 0.52688 0.75541 0.6363 0.0
O305 O 0.4008 0.84692 0.59653 0.0
O306 O 0.41757 0.91897 0.62088 0.0
C307 C 0.52463 0.93314 0.55842 0.0
Fe308 Fe 0.63071 0.46698 0.6279 0.0
Fe309 Fe 0.70493 0.53641 0.58822 0.0
O310 O 0.69201 0.4822 0.61499 0.0
Fe311 Fe 0.74046 0.44099 0.62741 0.0
O312 O 0.71222 0.39272 0.59844 0.0
O313 O 0.63778 0.40087 0.62064 0.0
O314 O 0.60937 0.46953 0.57967 0.0
C315 C 0.61332 0.50514 0.55718 0.0
C316 C 0.67597 0.43348 0.69152 0.0
O317 O 0.64836 0.53517 0.5599 0.0
C318 C 0.78623 0.52857 0.6412 0.0
O319 O 0.61195 0.52997 0.63686 0.0
O320 O 0.67491 0.57701 0.62302 0.0
O321 O 0.71148 0.41762 0.67179 0.0
O322 O 0.64604 0.4632 0.67733 0.0
C323 C 0.76958 0.47189 0.55367 0.0
O324 O 0.76445 0.54717 0.61239 0.0
O325 O 0.77211 0.48797 0.65549 0.0
C326 C 0.63124 0.57188 0.63536 0.0
O327 O 0.73411 0.50128 0.54983 0.0
O328 O 0.77985 0.45525 0.58622 0.0
C329 C 0.66772 0.37935 0.59887 0.0
Fe330 Fe 1.00076 0.7051 0.58675 0.0
Fe331 Fe 0.1019 0.73295 0.62043 0.0
O332 O 0.05553 0.68859 0.61092 0.0
Fe333 Fe 0.06356 0.62658 0.62595 0.0
O334 O 0.0266 0.60009 0.58859 0.0
O335 O 1.01209 0.66064 0.54885 0.0
O336 O 0.02924 0.75237 0.55522 0.0
C337 C 0.07362 0.76365 0.54849 0.0
C338 C 0.96718 0.63615 0.64368 0.0
O339 O 0.10704 0.7522 0.57152 0.0
C340 C 0.11016 0.67756 0.68563 0.0
O341 O 0.98564 0.74976 0.62322 0.0
O342 O 0.05803 0.78383 0.62991 0.0
O343 O 1.00981 0.62959 0.65738 0.0
O344 O 0.96172 0.66102 0.61321 0.0
C345 C 0.15275 0.64777 0.59241 0.0
O346 O 0.10192 0.71926 0.67153 0.0
O347 O 0.10335 0.63939 0.66645 0.0
C348 C 1.01142 0.78638 0.63203 0.0
O349 O 0.15302 0.68923 0.60953 0.0
O350 O 0.11599 0.61971 0.59445 0.0
C351 C 1.01665 0.61543 0.55576 0.0
C352 C 0.60533 0.11155 0.2383 0.0
C353 C 0.65311 0.12074 0.2234 0.0
C354 C 0.67191 0.16329 0.28343 0.0
C355 C 0.62136 0.16128 0.29431 0.0
N356 N 0.5383 0.14823 0.27238 0.0
N357 N 0.72748 0.16928 0.22981 0.0
C358 C 0.58752 0.14056 0.26842 0.0
C359 C 0.68534 0.15078 0.24522 0.0
N360 N 0.57752 0.07345 0.22545 0.0
N361 N 0.70772 0.17417 0.30926 0.0
H362 H 0.73769 0.16447 0.20147 0.0
H363 H 0.74933 0.19452 0.24425 0.0
H364 H 0.70129 0.18019 0.33811 0.0
H365 H 0.74492 0.17151 0.30262 0.0
H366 H 0.5436 0.06457 0.23745 0.0
H367 H 0.59138 0.04677 0.20728 0.0
H368 H 0.51293 0.13541 0.25248 0.0
H369 H 0.52381 0.17229 0.29257 0.0
C370 C 0.43733 0.6829 0.25885 0.0
C371 C 0.4141 0.66332 0.22621 0.0
C372 C 0.36339 0.60996 0.26691 0.0
C373 C 0.38611 0.63004 0.29968 0.0
N374 N 0.432 0.69739 0.32667 0.0
N375 N 0.34448 0.62069 0.1999 0.0
C376 C 0.41908 0.67029 0.29558 0.0
C377 C 0.37357 0.63093 0.23056 0.0
N378 N 0.47837 0.71128 0.25511 0.0
N379 N 0.33453 0.56916 0.26994 0.0
H380 H 0.34996 0.63696 0.17329 0.0
H381 H 0.31199 0.60073 0.20195 0.0
H382 H 0.32664 0.55204 0.29586 0.0
H383 H 0.32174 0.54987 0.24635 0.0
H384 H 0.50014 0.72142 0.2782 0.0
H385 H 0.49291 0.72167 0.22877 0.0
H386 H 0.45241 0.7296 0.32485 0.0
H387 H 0.41734 0.69099 0.35363 0.0
C388 C 0.88225 0.42269 0.29685 0.0
C389 C 0.91709 0.3839 0.30087 0.0
C390 C 0.90533 0.36555 0.23301 0.0
C391 C 0.88086 0.41107 0.22784 0.0
N392 N 0.84687 0.48431 0.25537 0.0
N393 N 0.96515 0.32072 0.27026 0.0
C394 C 0.86966 0.44009 0.25995 0.0
C395 C 0.92916 0.3554 0.26836 0.0
N396 N 0.8591 0.4413 0.32818 0.0
N397 N 0.90532 0.33172 0.2045 0.0
H398 H 0.98468 0.31294 0.29507 0.0
H399 H 0.97865 0.30278 0.24622 0.0
H400 H 0.88585 0.33691 0.17929 0.0
H401 H 0.91926 0.29642 0.2079 0.0
H402 H 0.83072 0.46676 0.32657 0.0
H403 H 0.86351 0.42641 0.35525 0.0
H404 H 0.8433 0.50963 0.27742 0.0
H405 H 0.83399 0.49679 0.22903 0.0
C406 C 0.13601 0.95106 0.27311 0.0
C407 C 0.16233 0.92005 0.2982 0.0
C408 C 0.14973 0.853 0.25171 0.0
C409 C 0.11607 0.88273 0.23088 0.0
N410 N 0.06419 0.95454 0.23394 0.0
N411 N 0.18375 0.83564 0.31402 0.0
C412 C 0.10511 0.92998 0.2455 0.0
C413 C 0.16649 0.86922 0.2884 0.0
N414 N 0.14058 1.00081 0.27517 0.0
N415 N 0.16734 0.81049 0.23658 0.0
H416 H 0.19463 0.8441 0.34162 0.0
H417 H 0.18244 0.79804 0.30893 0.0
H418 H 0.15709 0.79723 0.20997 0.0
H419 H 0.19567 0.79068 0.24929 0.0
H420 H 0.12364 0.02428 0.25566 0.0
H421 H 0.16592 1.01785 0.29309 0.0
H422 H 0.05384 0.98814 0.24557 0.0
H423 H 0.03754 0.93793 0.21715 0.0
C424 C 0.44118 0.90032 0.79589 0.0
C425 C 0.39175 0.91687 0.80067 0.0
C426 C 0.37388 0.89412 0.73418 0.0
C427 C 0.42421 0.88142 0.72875 0.0
N428 N 0.50542 0.87032 0.75405 0.0
N429 N 0.3127 0.93466 0.77356 0.0
C430 C 0.45748 0.88351 0.75968 0.0
C431 C 0.35834 0.91437 0.76975 0.0
N432 N 0.47273 0.89943 0.82617 0.0
N433 N 0.34081 0.88744 0.70534 0.0
H434 H 0.30012 0.95016 0.79892 0.0
H435 H 0.28845 0.93992 0.75102 0.0
H436 H 0.35028 0.87666 0.67789 0.0
H437 H 0.30302 0.88956 0.70907 0.0
H438 H 0.50522 0.87948 0.82669 0.0
H439 H 0.4666 0.9176 0.85158 0.0
H440 H 0.53385 0.87885 0.77267 0.0
H441 H 0.51749 0.8518 0.72978 0.0
C442 C 0.64949 0.35129 0.77923 0.0
C443 C 0.61752 0.38368 0.7993 0.0
C444 C 0.64175 0.44918 0.75559 0.0
C445 C 0.66502 0.41556 0.73098 0.0
N446 N 0.68224 0.33003 0.71715 0.0
N447 N 0.5702 0.45871 0.79419 0.0
C448 C 0.66672 0.36514 0.74204 0.0
C449 C 0.60973 0.43124 0.78375 0.0
N450 N 0.66524 0.30861 0.79546 0.0
N451 N 0.64929 0.49843 0.75172 0.0
H452 H 0.54184 0.44433 0.81062 0.0
H453 H 0.56235 0.4926 0.78174 0.0
H454 H 0.67476 0.51292 0.73245 0.0
H455 H 0.63445 0.52379 0.77074 0.0
H456 H 0.69209 0.28673 0.78289 0.0
H457 H 0.65568 0.2974 0.82285 0.0
H458 H 0.67911 0.29269 0.72307 0.0
H459 H 0.69395 0.33748 0.68948 0.0
C460 C 0.10659 0.6526 0.79222 0.0
C461 C 0.15517 0.6346 0.79836 0.0
C462 C 0.17691 0.65966 0.73284 0.0
C463 C 0.12707 0.67137 0.72562 0.0
N464 N 0.04346 0.67635 0.74708 0.0
N465 N 0.23578 0.61756 0.77332 0.0
C466 C 0.09179 0.66762 0.75507 0.0
C467 C 0.19039 0.63786 0.76847 0.0
N468 N 0.0747 0.65683 0.82209 0.0
N469 N 0.21129 0.66957 0.70546 0.0
H470 H 0.24684 0.60093 0.79871 0.0
H471 H 0.26132 0.61379 0.75142 0.0
H472 H 0.20224 0.68543 0.67926 0.0
H473 H 0.24889 0.6663 0.70981 0.0
H474 H 0.04151 0.67556 0.82046 0.0
H475 H 0.08281 0.64527 0.84953 0.0
H476 H 1.01485 0.66716 0.76548 0.0
H477 H 0.03154 0.69035 0.72095 0.0
C478 C 0.94493 0.12493 0.77775 0.0
C479 C 0.92366 0.16487 0.7974 0.0
C480 C 0.86109 0.16978 0.7467 0.0
C481 C 0.87922 0.12538 0.73076 0.0
N482 N 0.9282 0.05305 0.7403 0.0
N483 N 0.85525 0.22068 0.80338 0.0
C484 C 0.91766 0.10041 0.74954 0.0
C485 C 0.87986 0.18623 0.78272 0.0
N486 N 0.99209 0.11138 0.78516 0.0
N487 N 0.82755 0.19709 0.72714 0.0
H488 H 0.86785 0.23382 0.82947 0.0
H489 H 0.82064 0.23355 0.79577 0.0
H490 H 0.81244 0.18584 0.70131 0.0
H491 H 0.8172 0.23222 0.73549 0.0
H492 H 1.01021 0.0841 0.76986 0.0
H493 H 1.01469 0.13235 0.80265 0.0
H494 H 0.95432 0.03232 0.75487 0.0
H495 H 0.9063 0.03316 0.72149 0.0
C496 C 0.55407 0.0537 1.00189 0.0
C497 C 0.57252 1.01164 0.02042 0.0
C498 C 0.49262 0.97154 0.01664 0.0
C499 C 0.47382 1.01376 0.9981 0.0
N500 N 0.48234 0.09947 0.98225 0.0
N501 N 0.56326 0.92971 0.0437 0.0
C502 C 0.5033 0.05627 0.99321 0.0
C503 C 0.54287 0.96989 0.02664 0.0
N504 N 0.58543 0.09132 0.99346 0.0
N505 N 0.46168 0.93321 0.02417 0.0
H506 H 0.60096 0.92694 0.0484 0.0
H507 H 0.54382 0.89932 0.05297 0.0
H508 H 0.42389 0.93555 0.01968 0.0
H509 H 0.47239 0.89976 0.03548 0.0
H510 H 0.5758 0.12217 0.97766 0.0
H511 H 0.6228 0.08944 0.99979 0.0
H512 H 0.50117 0.13249 0.97989 0.0
H513 H 0.44462 0.10388 0.98017 0.0
C514 C 0.47666 0.56125 1.00429 0.0
C515 C 0.51893 0.56783 0.02722 0.0
C516 C 0.53367 0.48028 0.02763 0.0
C517 C 0.49816 0.47438 0.99933 0.0
N518 N 0.42899 0.50544 0.96491 0.0
N519 N 0.593 0.53572 0.0544 0.0
C520 C 0.46727 0.51398 0.98899 0.0
C521 C 0.54957 0.52784 0.03622 0.0
N522 N 0.44547 0.59962 0.99822 0.0
N523 N 0.54962 0.44085 0.0479 0.0
H524 H 0.6063 0.57091 0.05985 0.0
H525 H 0.61694 0.5076 0.06115 0.0
H526 H 0.53574 0.40575 0.04317 0.0
H527 H 0.57119 0.44444 0.07225 0.0
H528 H 0.41173 0.59677 0.98461 0.0
H529 H 0.45348 0.63496 1.0075 0.0
H530 H 0.40568 0.53246 0.95461 0.0
H531 H 0.42012 0.47005 0.95601 0.0
C532 C 0.07055 0.529 0.03093 0.0
C533 C 0.06757 0.51426 0.99247 0.0
C534 C 0.97778 0.51357 0.99576 0.0
C535 C 0.9805 0.52683 0.03448 0.0
N536 N 0.0274 0.56009 0.08628 0.0
N537 N 1.02039 0.4802 0.9411 0.0
C538 C 0.0265 0.53789 0.05147 0.0
C539 C 1.0216 0.503 0.97569 0.0
N540 N 0.11547 0.53348 0.04777 0.0
N541 N 0.93336 0.51318 0.97797 0.0
H542 H 0.05226 0.4675 0.92816 0.0
H543 H 0.98841 0.46867 0.92768 0.0
H544 H 0.90176 0.525 0.99189 0.0
H545 H 0.92865 0.50698 0.9489 0.0
H546 H 0.12068 0.54043 0.07666 0.0
H547 H 0.14801 0.52625 0.03314 0.0
H548 H 0.05905 0.5721 0.09989 0.0
H549 H 0.99537 0.57188 0.09941 0.0
C550 C 0.98595 0.0556 0.01635 0.0
C551 C 0.03019 0.07251 0.99988 0.0
C552 C 0.06918 0.99286 1.00985 0.0
C553 C 0.02484 0.97602 0.02626 0.0
N554 N 0.9403 0.98694 0.04288 0.0
N555 N 0.11434 0.06101 0.98182 0.0
C556 C 0.9828 1.0062 0.02853 0.0
C557 C 0.0722 0.04216 0.99721 0.0
N558 N 0.9468 0.08678 0.01876 0.0
N559 N 0.10815 0.96155 1.00709 0.0
H560 H 0.11762 0.09802 0.97465 0.0
H561 H 0.14618 0.04119 0.97676 0.0
H562 H 0.10608 0.92509 0.01592 0.0
H563 H 0.14186 0.97044 0.99513 0.0
H564 H 0.91231 0.07726 0.0289 0.0
H565 H 0.94928 0.12361 1.01095 0.0
H566 H 0.90864 1.00678 0.04799 0.0
H567 H 0.93652 0.94972 0.04915 0.0
C568 C 0.02377 0.97743 0.49297 0.0
C569 C 0.06692 1.006 0.49887 0.0
C570 C 1.01793 0.06978 0.52824 0.0
C571 C 0.97499 0.04178 0.52181 0.0
N572 N 0.93562 0.97771 0.48613 0.0
N573 N 0.10547 0.06749 0.5377 0.0
C574 C 0.97736 0.99828 0.50042 0.0
C575 C 0.06423 0.04896 0.52102 0.0
N576 N 0.0272 0.92918 0.48329 0.0
N577 N 1.0139 0.11671 0.54098 0.0
H578 H 0.13891 0.04891 0.53692 0.0
H579 H 0.10499 0.09691 0.55658 0.0
H580 H 0.97982 0.13327 0.54404 0.0
H581 H 0.04361 0.14052 0.54342 0.0
H582 H 0.99717 0.90563 0.4821 0.0
H583 H 0.06057 0.91106 0.48202 0.0
H584 H 0.93586 0.94793 0.4676 0.0
H585 H 0.90147 0.99453 0.48825 0.0
C586 C 0.49936 0.02451 0.4825 0.0
C587 C 0.52903 0.06431 0.49425 0.0
C588 C 0.5639 1.01434 0.54512 0.0
C589 C 0.53622 0.9736 0.53187 0.0
N590 N 0.48921 0.93635 0.48205 0.0
N591 N 0.5931 0.09718 0.53379 0.0
C592 C 0.50744 0.97767 0.49866 0.0
C593 C 0.56236 0.05926 0.52481 0.0
N594 N 0.46289 0.0318 0.45645 0.0
N595 N 0.59116 1.01007 0.57742 0.0
H596 H 0.59081 0.13153 0.52072 0.0
H597 H 0.62201 0.09439 0.55302 0.0
H598 H 0.59732 0.97627 0.58976 0.0
H599 H 0.60702 0.03932 0.59187 0.0
H600 H 0.43752 1.00494 0.44902 0.0
H601 H 0.45466 0.06643 0.44571 0.0
H602 H 0.47076 0.93633 0.45603 0.0
H603 H 0.4978 0.9015 0.49241 0.0
C604 C 0.55085 0.47157 0.51342 0.0
C605 C 0.57136 0.51359 0.53105 0.0
C606 C 0.49528 0.55926 0.51908 0.0
C607 C 0.47505 0.51658 0.50274 0.0
N608 N 0.47812 0.43045 0.4898 0.0
N609 N 0.56708 0.60106 0.5434 0.0
C610 C 0.50124 0.47207 0.50187 0.0
C611 C 0.54484 0.55871 0.5318 0.0
N612 N 0.58018 0.43216 0.50604 0.0
N613 N 0.46639 0.60002 0.52238 0.0
H614 H 0.60362 0.60362 0.55128 0.0
H615 H 0.55067 0.63538 0.54269 0.0
H616 H 0.42973 0.60021 0.51381 0.0
H617 H 0.47673 0.63226 0.53587 0.0
H618 H 0.56904 0.40106 0.4913 0.0
H619 H 0.61771 0.43319 0.51135 0.0
H620 H 0.49366 0.39565 0.49079 0.0
H621 H 0.44121 0.43034 0.48194 0.0
C622 C 0.9736 0.54186 0.53272 0.0
C623 C 1.01105 0.57723 0.52684 0.0
C624 C 0.06313 0.51616 0.49678 0.0
C625 C 0.02469 0.4817 0.49973 0.0
N626 N 0.94367 0.45927 0.52073 0.0
N627 N 0.08509 0.60195 0.49588 0.0
C628 C 0.97992 0.49373 0.51804 0.0
C629 C 0.05386 0.56542 0.50639 0.0
N630 N 0.93257 0.55485 0.55274 0.0
N631 N 0.10836 0.50128 0.48467 0.0
H632 H 0.07488 0.63848 0.49858 0.0
H633 H 0.11779 0.59655 0.4813 0.0
H634 H 0.11566 0.46485 0.47761 0.0
H635 H 0.13937 0.5235 0.48554 0.0
H636 H 0.90501 0.53071 0.56099 0.0
H637 H 0.92637 0.59091 0.56136 0.0
H638 H 0.90921 0.4656 0.53234 0.0
H639 H 0.94823 0.42342 0.51115 0.0
C640 C 0.62704 0.87422 0.15501 0.0
C641 C 0.60321 0.91933 0.14692 0.0
C642 C 0.52788 0.87376 0.13163 0.0
C643 C 0.5518 0.82832 0.13999 0.0
N644 N 0.61709 0.78983 0.17526 0.0
N645 N 0.52522 0.96137 0.14231 0.0
C646 C 0.59929 0.82996 0.15656 0.0
C647 C 0.55164 0.9189 0.14076 0.0
N648 N 0.67643 0.87339 0.16078 0.0
N649 N 0.4846 0.87488 0.11197 0.0
H650 H 0.54033 0.99522 0.14897 0.0
H651 H 0.48703 0.96204 0.14181 0.0
H652 H 0.46848 0.84456 0.09929 0.0
H653 H 0.46765 0.90728 0.10348 0.0
H654 H 0.69667 0.84106 0.1625 0.0
H655 H 0.69717 0.90534 0.16175 0.0
H656 H 0.65011 0.78995 0.1902 0.0
H657 H 0.59564 0.75872 0.17998 0.0
C658 C 0.62141 0.54511 0.14972 0.0
C659 C 0.62427 0.59763 0.15127 0.0
C660 C 0.71438 0.59039 0.15787 0.0
C661 C 0.71208 0.53942 0.15003 0.0
N662 N 0.66332 0.46604 0.15081 0.0
N663 N 0.67414 0.66977 0.15841 0.0
C664 C 0.66551 0.51606 0.14998 0.0
C665 C 0.67103 0.6199 0.15632 0.0
N666 N 0.57692 0.52282 0.145 0.0
N667 N 0.75829 0.61 0.16866 0.0
H668 H 0.64324 0.69204 0.16015 0.0
H669 H 0.70691 0.68922 0.15685 0.0
H670 H 0.78919 0.58816 0.17293 0.0
H671 H 0.76295 0.64597 0.17771 0.0
H672 H 0.5725 0.48634 0.13728 0.0
H673 H 0.54353 0.54075 0.14738 0.0
H674 H 0.63129 0.44605 0.155 0.0
H675 H 0.69433 0.4439 0.15045 0.0
C676 C 0.95324 0.69511 0.10063 0.0
C677 C 0.97982 0.71416 0.13204 0.0
C678 C 0.95401 0.64146 0.16926 0.0
C679 C 0.92253 0.62661 0.13888 0.0
N680 N 0.88187 0.65225 0.07975 0.0
N681 N 1.00043 0.70781 0.19869 0.0
C682 C 0.91832 0.65765 0.10623 0.0
C683 C 0.97894 0.68789 0.16717 0.0
N684 N 0.96386 0.70987 0.06434 0.0
N685 N 0.95976 0.61149 0.2002 0.0
H686 H 1.01852 0.74148 0.19799 0.0
H687 H 0.99709 0.69288 0.22596 0.0
H688 H 0.93933 0.5795 0.20397 0.0
H689 H 0.98615 0.61731 0.22117 0.0
H690 H 0.94901 0.69328 0.04017 0.0
H691 H 0.993 0.73276 0.05825 0.0
H692 H 0.87617 0.67789 0.05805 0.0
H693 H 0.85355 0.62699 0.08095 0.0
C694 C 0.87567 0.91843 0.15805 0.0
C695 C 0.92048 0.94159 0.14818 0.0
C696 C 0.87511 1.01565 0.12952 0.0
C697 C 0.82985 0.99248 0.13943 0.0
N698 N 0.79126 0.93018 0.17778 0.0
N699 N 0.96308 1.01841 0.13891 0.0
C700 C 0.83141 0.94627 0.1582 0.0
C701 C 0.92027 0.9924 0.13919 0.0
N702 N 0.87524 0.8697 0.16692 0.0
N703 N 0.87578 0.05774 0.10822 0.0
H704 H 0.99672 1.00331 0.14643 0.0
H705 H 0.96433 0.05638 0.13594 0.0
H706 H 0.84485 0.07379 0.09629 0.0
H707 H 0.90796 0.07385 0.09823 0.0
H708 H 0.84298 0.84963 0.17021 0.0
H709 H 0.90737 0.8491 0.16919 0.0
H710 H 0.79109 0.8983 0.19422 0.0
H711 H 0.76049 0.95237 0.18148 0.0
C712 C 0.11632 0.16234 0.36991 0.0
C713 C 0.09878 0.12229 0.39233 0.0
C714 C 0.03588 0.17647 0.41968 0.0
C715 C 0.0518 0.21636 0.39658 0.0
N716 N 0.10193 0.24443 0.34437 0.0
N717 N 0.02966 0.08941 0.42852 0.0
C718 C 0.09066 0.20842 0.37011 0.0
C719 C 0.05453 0.12855 0.41356 0.0
N720 N 0.15707 0.15593 0.34782 0.0
N721 N 1.00603 0.18469 0.4502 0.0
H722 H 0.04043 0.05316 0.42634 0.0
H723 H 0.99442 0.09251 0.43985 0.0
H724 H 0.99521 0.21945 0.45802 0.0
H725 H 0.99732 0.15813 0.47052 0.0
H726 H 0.17594 0.1845 0.33462 0.0
H727 H 0.17258 0.12148 0.34336 0.0
H728 H 0.12692 0.24014 0.32216 0.0
H729 H 0.08309 0.27767 0.34331 0.0
C730 C 0.37029 0.14266 0.38292 0.0
C731 C 0.41638 0.11878 0.37749 0.0
C732 C 0.37324 0.03967 0.37262 0.0
C733 C 0.32751 0.06276 0.38018 0.0
N734 N 0.28159 0.13792 0.37768 0.0
N735 N 0.45326 0.05059 0.34419 0.0
C736 C 0.32586 0.11487 0.38075 0.0
C737 C 0.41522 0.06919 0.36491 0.0
N738 N 0.36819 0.19177 0.3897 0.0
N739 N 0.37821 0.98999 0.37497 0.0
H740 H 0.48154 0.07274 0.33382 0.0
H741 H 0.45259 1.01548 0.33253 0.0
H742 H 0.34972 0.96633 0.38213 0.0
H743 H 0.41229 0.97279 0.3734 0.0
H744 H 0.33725 0.20914 0.4007 0.0
H745 H 0.39693 0.21542 0.38356 0.0
H746 H 0.27761 0.17562 0.37427 0.0
H747 H 0.24902 0.11854 0.37415 0.0
C748 C 0.42422 0.37607 0.36841 0.0
C749 C 0.44713 0.42108 0.37821 0.0
C750 C 0.52431 0.37674 0.39037 0.0
C751 C 0.50077 0.33188 0.38131 0.0
N752 N 0.43489 0.29139 0.34898 0.0
N753 N 0.52348 0.46529 0.38708 0.0
C754 C 0.45271 0.33243 0.36625 0.0
C755 C 0.49867 0.42184 0.38527 0.0
N756 N 0.37488 0.37473 0.36218 0.0
N757 N 0.57044 0.37634 0.40553 0.0
H758 H 0.5072 0.49928 0.38302 0.0
H759 H 0.56155 0.46764 0.38846 0.0
H760 H 0.59181 0.34484 0.40721 0.0
H761 H 0.5867 0.40677 0.41817 0.0
H762 H 0.35501 0.34233 0.35938 0.0
H763 H 0.35356 0.40632 0.36188 0.0
H764 H 0.40164 0.29041 0.3344 0.0
H765 H 0.45603 0.25973 0.34596 0.0
C766 C 0.12972 0.49343 0.38352 0.0
C767 C 0.12979 0.44214 0.37667 0.0
C768 C 0.21887 0.44733 0.36673 0.0
C769 C 0.22008 0.4942 0.3844 0.0
N770 N 0.17318 0.55792 0.41548 0.0
N771 N 0.17588 0.36979 0.36088 0.0
C772 C 0.17451 0.5168 0.39362 0.0
C773 C 0.17489 0.41892 0.36791 0.0
N774 N 0.08713 0.51966 0.38207 0.0
N775 N 0.25887 0.43106 0.34716 0.0
H776 H 0.144 0.3487 0.3595 0.0
H777 H 0.20842 0.35005 0.35826 0.0
H778 H 0.28922 0.45355 0.34237 0.0
H779 H 0.25908 0.39854 0.33164 0.0
H780 H 0.08623 0.55777 0.38366 0.0
H781 H 0.05359 0.50462 0.37431 0.0
H782 H 0.14095 0.57606 0.42253 0.0
H783 H 0.20289 0.56893 0.43171 0.0
C784 C 0.46095 0.13592 0.86483 0.0
C785 C 0.4235 0.12512 0.89217 0.0
C786 C 0.43941 0.20444 0.92305 0.0
C787 C 0.47549 0.21655 0.89492 0.0
N788 N 0.51356 0.19724 0.83482 0.0
N789 N 0.37052 0.15633 0.94288 0.0
C790 C 0.48449 0.18306 0.86471 0.0
C791 C 0.4103 0.16169 0.91931 0.0
N792 N 0.47366 0.10131 0.83851 0.0
N793 N 0.43484 0.23138 0.95576 0.0
H794 H 0.35323 0.12364 0.94971 0.0
H795 H 0.35382 0.1862 0.95611 0.0
H796 H 0.45192 0.26443 0.96084 0.0
H797 H 0.41639 0.21875 0.97996 0.0
H798 H 0.50484 0.10368 0.82142 0.0
H799 H 0.45371 0.06913 0.83449 0.0
H800 H 0.51786 0.17695 0.80994 0.0
H801 H 0.53023 0.23159 0.83337 0.0
C802 C 0.37644 0.52581 0.87575 0.0
C803 C 0.33036 0.50248 0.87115 0.0
C804 C 0.37156 0.42327 0.86213 0.0
C805 C 0.41753 0.44563 0.8697 0.0
N806 N 0.4648 0.52117 0.87011 0.0
N807 N 0.28573 0.43447 0.8456 0.0
C808 C 0.42044 0.49789 0.87157 0.0
C809 C 0.3286 0.45284 0.8596 0.0
N810 N 0.37832 0.57376 0.88684 0.0
N811 N 0.36882 0.37354 0.8584 0.0
H812 H 0.25449 0.45626 0.84257 0.0
H813 H 0.28252 0.39976 0.83361 0.0
H814 H 0.39994 0.35133 0.8574 0.0
H815 H 0.33584 0.3543 0.85768 0.0
H816 H 0.4102 0.59096 0.89618 0.0
H817 H 0.34738 0.5959 0.88905 0.0
H818 H 0.46838 0.55901 0.86745 0.0
H819 H 0.49821 0.50333 0.86743 0.0
C820 C 0.0527 0.36175 0.85891 0.0
C821 C 0.0679 0.32611 0.88634 0.0
C822 C 0.14332 0.37328 0.89531 0.0
C823 C 0.12304 0.41473 0.87659 0.0
N824 N 0.05947 0.44543 0.83509 0.0
N825 N 0.12328 0.30926 0.93928 0.0
C826 C 0.07777 0.40814 0.85681 0.0
C827 C 0.11195 0.33499 0.90697 0.0
N828 N 1.01627 0.35064 0.83366 0.0
N829 N 0.19256 0.36896 0.90119 0.0
H830 H 0.09932 0.28486 0.95244 0.0
H831 H 0.1538 0.31771 0.95597 0.0
H832 H 0.21796 0.39206 0.88821 0.0
H833 H 0.20813 0.33771 0.91339 0.0
H834 H 1.00645 0.37331 0.81097 0.0
H835 H 0.99914 0.31652 0.83296 0.0
H836 H 0.0238 0.44578 0.82449 0.0
H837 H 0.08027 0.47617 0.82785 0.0
C838 C 0.21173 0.08591 0.86407 0.0
C839 C 0.2101 0.03749 0.87892 0.0
C840 C 0.11986 0.04235 0.88075 0.0
C841 C 0.12228 0.09365 0.873 0.0
N842 N 0.17039 0.16417 0.85567 0.0
N843 N 0.16257 0.96981 0.90325 0.0
C844 C 0.16825 0.11519 0.86371 0.0
C845 C 0.16407 1.01542 0.88704 0.0
N846 N 0.25508 0.10363 0.8501 0.0
N847 N 0.07551 1.01915 0.88253 0.0
H848 H 0.19362 0.9481 0.90689 0.0
H849 H 0.13107 0.95466 0.9153 0.0
H850 H 0.04222 0.03671 0.87801 0.0
H851 H 0.07178 0.98125 0.88446 0.0
H852 H 0.25858 0.13715 0.83611 0.0
H853 H 0.28689 0.08241 0.84934 0.0
H854 H 0.20298 0.18385 0.85342 0.0
H855 H 0.13897 0.18566 0.85261 0.0
C856 C 0.98867 0.92248 0.65788 0.0
C857 C 0.93893 0.9287 0.64626 0.0
C858 C 0.93753 0.84362 0.62511 0.0
C859 C 0.98579 0.83488 0.63953 0.0
N860 N 0.0491 0.86493 0.68196 0.0
N861 N 0.86208 0.88722 0.63641 0.0
C862 C 1.00896 0.87393 0.65983 0.0
C863 C 0.91206 0.88623 0.63654 0.0
N864 N 1.01748 0.96208 0.66559 0.0
N865 N 0.91721 0.81501 0.59735 0.0
H866 H 0.8426 0.91748 0.6464 0.0
H867 H 0.84098 0.85607 0.63106 0.0
H868 H 0.9369 0.78959 0.58145 0.0
H869 H 0.883 0.8227 0.58546 0.0
H870 H 0.05521 0.95917 0.66976 0.0
H871 H 1.00463 0.99793 0.66552 0.0
H872 H 0.06492 0.89158 0.69929 0.0
H873 H 0.0624 0.82971 0.68695 0.0
C874 C 0.67179 0.914 0.60822 0.0
C875 C 0.63886 0.91983 0.6397 0.0
C876 C 0.69282 0.98544 0.66515 0.0
C877 C 0.72309 0.98246 0.63207 0.0
N878 N 0.74394 0.93857 0.57389 0.0
N879 N 0.61781 0.96099 0.69805 0.0
C880 C 0.71324 0.94523 0.60439 0.0
C881 C 0.64964 0.95542 0.6682 0.0
N882 N 0.66103 0.88253 0.57899 0.0
N883 N 0.70711 1.01454 0.69484 0.0
H884 H 0.58892 0.93671 0.70315 0.0
H885 H 0.61882 0.99023 0.71703 0.0
H886 H 0.73911 0.0354 0.69433 0.0
H887 H 0.68984 1.01508 0.72132 0.0
H888 H 0.67439 0.88697 0.55131 0.0
H889 H 0.63886 0.85181 0.58115 0.0
H890 H 0.74712 0.90541 0.55943 0.0
H891 H 0.7664 0.96565 0.56255 0.0
C892 C 0.59559 0.70358 0.66203 0.0
C893 C 0.54686 0.7066 0.64805 0.0
C894 C 0.54827 0.61808 0.63417 0.0
C895 C 0.59949 0.6162 0.64415 0.0
N896 N 0.66262 0.65171 0.68305 0.0
N897 N 0.47541 0.66706 0.62246 0.0
C898 C 0.62051 0.65755 0.66252 0.0
C899 C 0.52238 0.66356 0.63594 0.0
N900 N 0.61861 0.74531 0.67389 0.0
N901 N 0.52335 0.57695 0.62315 0.0
H902 H 0.45371 0.69804 0.62614 0.0
H903 H 0.45802 0.64012 0.60646 0.0
H904 H 0.53901 0.54493 0.61316 0.0
H905 H 0.48532 0.57402 0.6243 0.0
H906 H 0.65605 0.74735 0.67944 0.0
H907 H 0.60018 0.77862 0.67669 0.0
H908 H 0.67834 0.67915 0.6996 0.0
H909 H 0.6781 0.61729 0.68756 0.0
C910 C 0.87829 0.62995 0.66349 0.0
C911 C 0.92377 0.60605 0.65661 0.0
C912 C 0.87943 0.52776 0.64831 0.0
C913 C 0.83373 0.55213 0.65364 0.0
N914 N 0.79092 0.62285 0.67665 0.0
N915 N 0.96797 0.52921 0.65397 0.0
C916 C 0.83374 0.6022 0.66457 0.0
C917 C 0.92446 0.55401 0.65309 0.0
N918 N 0.87769 0.67966 0.66805 0.0
N919 N 0.88024 0.4803 0.63596 0.0
H920 H 1.0019 0.546 0.65708 0.0
H921 H 0.97029 0.49119 0.65574 0.0
H922 H 0.84922 0.45832 0.63426 0.0
H923 H 0.91151 0.46336 0.62516 0.0
H924 H 0.8458 0.70059 0.66818 0.0
H925 H 0.90976 0.70032 0.67049 0.0
H926 H 0.78822 0.65795 0.68798 0.0
H927 H 0.75868 0.60254 0.67874 0.0
C928 C 0.56823 0.20549 0.06514 0.0
C929 C 0.61904 0.19887 0.07314 0.0
C930 C 0.63874 0.26323 0.02632 0.0
C931 C 0.58788 0.26685 0.01539 0.0
N932 N 0.50628 0.26193 0.04288 0.0
N933 N 0.69465 0.24461 0.07798 0.0
C934 C 0.55292 0.24399 0.04011 0.0
C935 C 0.65207 0.23472 0.05894 0.0
N936 N 0.53399 0.17708 0.08309 0.0
N937 N 0.67507 0.2873 1.00691 0.0
H938 H 0.70239 0.23065 0.10495 0.0
H939 H 0.71807 0.27329 0.07058 0.0
H940 H 0.66999 0.31382 0.98618 0.0
H941 H 0.71219 0.28058 1.01148 0.0
H942 H 0.49778 0.17462 0.07375 0.0
H943 H 0.54178 0.15631 0.10736 0.0
H944 H 0.48025 0.24806 0.06183 0.0
H945 H 0.4961 0.29587 0.03188 0.0
C946 C 0.28474 0.63824 0.02822 0.0
C947 C 0.28833 0.59085 1.01132 0.0
C948 C 0.34598 0.56701 0.06238 0.0
C949 C 0.34689 0.61616 0.0758 0.0
N950 N 0.29569 0.687 0.08515 0.0
N951 N 0.32551 0.51061 1.01139 0.0
C952 C 0.30992 0.64856 0.06285 0.0
C953 C 0.31925 0.55508 0.02856 0.0
N954 N 0.25882 0.67446 1.01063 0.0
N955 N 0.36733 0.53105 0.08388 0.0
H956 H 0.30744 0.50055 0.98643 0.0
H957 H 0.35176 0.48517 0.0199 0.0
H958 H 0.38141 0.5379 0.11102 0.0
H959 H 0.365 0.49387 0.07763 0.0
H960 H 0.2598 0.711 0.01913 0.0
H961 H 0.24035 0.66904 0.98529 0.0
H962 H 0.26623 0.70976 0.07852 0.0
H963 H 0.30759 0.69106 0.11321 0.0
C964 C 0.94365 0.3037 0.07625 0.0
C965 C 0.9219 0.34958 0.06696 0.0
C966 C 0.94758 0.33786 1.00008 0.0
C967 C 0.96097 0.28889 1.00808 0.0
N968 N 0.97016 0.22364 0.05386 0.0
N969 N 0.90047 0.40851 0.01812 0.0
C970 C 0.95884 0.2714 0.04629 0.0
C971 C 0.92316 0.36602 0.02835 0.0
N972 N 0.95084 0.29141 0.11355 0.0
N973 N 0.96012 0.35843 0.96582 0.0
H974 H 0.88464 0.43227 0.03763 0.0
H975 H 0.89475 0.4183 0.98978 0.0
H976 H 0.97998 0.33965 0.94518 0.0
H977 H 0.95619 0.39556 0.9597 0.0
H978 H 0.97009 0.26043 0.12232 0.0
H979 H 0.94202 0.31515 0.13562 0.0
H980 H 0.96384 0.20689 0.08016 0.0
H981 H 0.98324 0.19993 0.03294 0.0
C982 C 0.26098 0.89337 0.02824 0.0
C983 C 0.25951 0.94294 0.016 0.0
C984 C 0.2078 0.9615 0.07142 0.0
C985 C 0.19863 0.91071 0.0773 0.0
N986 N 0.22038 0.82689 0.06085 0.0
N987 N 0.22823 0.02482 0.02568 0.0
C988 C 0.22663 0.87611 0.05591 0.0
C989 C 0.23258 0.97741 0.03783 0.0
N990 N 0.29736 0.86341 0.01529 0.0
N991 N 0.19353 0.99452 0.09845 0.0
H992 H 0.24427 0.03791 1.00063 0.0
H993 H 0.20466 0.04988 0.03856 0.0
H994 H 0.1781 0.98357 0.12441 0.0
H995 H 0.20254 0.0316 0.09714 0.0
H996 H 0.30324 0.82813 0.02578 0.0
H997 H 0.32564 0.87645 0.99808 0.0
H998 H 0.23364 0.80118 0.04145 0.0
H999 H 0.20189 0.81128 0.08372 0.0
C1000 C 0.14253 0.86415 0.49743 0.0
C1001 C 0.14066 0.84999 0.45822 0.0
C1002 C 0.08654 0.78077 0.47716 0.0
C1003 C 0.08831 0.79637 0.51586 0.0
N1004 N 0.10457 0.86144 0.55985 0.0
N1005 N 0.10618 0.79701 0.41032 0.0
C1006 C 0.11287 0.84024 0.52508 0.0
C1007 C 0.11092 0.80904 0.44796 0.0
N1008 N 0.17076 0.90255 0.50843 0.0
N1009 N 0.06319 0.73796 0.46859 0.0
H1010 H 0.12636 0.81409 0.38875 0.0
H1011 H 0.08107 0.77149 0.40015 0.0
H1012 H 0.04286 0.71852 0.48877 0.0
H1013 H 0.06537 0.72068 0.44221 0.0
H1014 H 0.18104 0.90912 0.53661 0.0
H1015 H 0.18353 0.92772 0.48898 0.0
H1016 H 0.1168 0.8963 0.56723 0.0
H1017 H 0.08009 0.84679 0.57969 0.0
C1018 C 0.71787 0.07425 0.50199 0.0
C1019 C 0.75338 0.10757 0.51665 0.0
C1020 C 0.73928 0.16084 0.46071 0.0
C1021 C 0.70203 0.12911 0.44749 0.0
N1022 N 0.67135 0.04597 0.44753 0.0
N1023 N 0.78478 0.19124 0.51431 0.0
C1024 C 0.69591 0.08282 0.46561 0.0
C1025 C 0.76081 0.15321 0.49723 0.0
N1026 N 0.70124 0.03694 0.52468 0.0
N1027 N 0.7555 0.19754 0.43725 0.0
H1028 H 0.79867 0.19042 0.54179 0.0
H1029 H 0.78586 0.22646 0.50277 0.0
H1030 H 0.74207 0.202 0.40954 0.0
H1031 H 0.78567 0.21956 0.44339 0.0
H1032 H 0.67232 1.01392 0.51732 0.0
H1033 H 0.71134 0.03358 0.55323 0.0
H1034 H 0.6691 1.01039 0.4582 0.0
H1035 H 0.65978 0.04837 0.41933 0.0
C1036 C 0.49484 0.73168 0.49131 0.0
C1037 C 0.45861 0.75606 0.51369 0.0
C1038 C 0.39505 0.7281 0.46864 0.0
C1039 C 0.43001 0.69858 0.44962 0.0
N1040 N 0.51459 0.68831 0.43265 0.0
N1041 N 0.37183 0.76798 0.52686 0.0
C1042 C 0.48047 0.70518 0.458 0.0
C1043 C 0.40811 0.75158 0.50328 0.0
N1044 N 0.54233 0.72986 0.50373 0.0
N1045 N 0.35021 0.73673 0.45254 0.0
H1046 H 0.37815 0.78677 0.55191 0.0
H1047 H 0.33499 0.75902 0.52322 0.0
H1048 H 0.34217 0.72832 0.4243 0.0
H1049 H 0.32383 0.75958 0.46449 0.0
H1050 H 0.56922 0.7081 0.49125 0.0
H1051 H 0.55421 0.74603 0.52898 0.0
H1052 H 0.55198 0.69546 0.43472 0.0
H1053 H 0.50462 0.67221 0.40679 0.0
C1054 C 0.83078 0.39401 0.47601 0.0
C1055 C 0.85414 0.43005 0.45312 0.0
C1056 C 0.81917 0.49437 0.49453 0.0
C1057 C 0.80059 0.45765 0.51981 0.0
N1058 N 0.80366 0.37154 0.53873 0.0
N1059 N 0.85765 0.51421 0.4335 0.0
C1060 C 0.81092 0.40732 0.51192 0.0
C1061 C 0.84459 0.4803 0.46044 0.0
N1062 N 0.82455 0.34731 0.46285 0.0
N1063 N 0.81677 0.54256 0.505 0.0
H1064 H 0.87324 0.50419 0.40743 0.0
H1065 H 0.84847 0.55115 0.43479 0.0
H1066 H 0.80194 0.55412 0.53088 0.0
H1067 H 0.83387 0.5709 0.49019 0.0
H1068 H 0.80597 0.32021 0.47805 0.0
H1069 H 0.83025 0.33731 0.43459 0.0
H1070 H 0.81731 0.33609 0.53567 0.0
H1071 H 0.78901 0.37722 0.56558 0.0
C1072 C 0.40364 0.76403 0.99257 0.0
C1073 C 0.44942 0.77619 1.0099 0.0
C1074 C 0.46455 0.832 0.95567 0.0
C1075 C 0.41387 0.83185 0.94645 0.0
N1076 N 0.33767 0.78718 0.94974 0.0
N1077 N 0.52395 0.82512 1.00616 0.0
C1078 C 0.38412 0.79459 0.96303 0.0
C1079 C 0.48037 0.81063 0.99071 0.0
N1080 N 0.38053 0.72129 1.00213 0.0
N1081 N 0.49808 0.84999 0.93029 0.0
H1082 H 0.53569 0.81543 0.03336 0.0
H1083 H 0.54578 0.85223 0.99384 0.0
H1084 H 0.48883 0.85883 0.9023 0.0
H1085 H 0.53582 0.84776 0.9346 0.0
H1086 H 0.35046 0.70765 0.9873 0.0
H1087 H 0.39492 0.69612 0.02147 0.0
H1088 H 0.31152 0.76643 0.96429 0.0
H1089 H 0.32547 0.80201 0.92398 0.0
C1090 C 0.7296 0.43603 0.94653 0.0
C1091 C 0.6841 0.41626 0.95877 0.0
C1092 C 0.70407 0.43788 0.02482 0.0
C1093 C 0.75195 0.45325 0.01388 0.0
N1094 N 0.81145 0.46314 0.96315 0.0
N1095 N 0.63087 0.39246 1.01051 0.0
C1096 C 0.76505 0.45151 0.97432 0.0
C1097 C 0.6727 0.41493 0.99822 0.0
N1098 N 0.73822 0.44163 0.90833 0.0
N1099 N 0.68695 0.44857 0.06048 0.0
H1100 H 0.60317 0.38132 0.9922 0.0
H1101 H 0.626 0.3804 0.03849 0.0
H1102 H 0.70228 0.47641 0.07682 0.0
H1103 H 0.65463 0.43502 0.07211 0.0
H1104 H 0.76786 0.46107 0.89722 0.0
H1105 H 0.71373 0.42934 0.88758 0.0
H1106 H 0.82522 0.45647 0.93593 0.0
H1107 H 0.83721 0.47716 0.98179 0.0
C1108 C 0.10095 0.77335 0.97985 0.0
C1109 C 0.0979 0.7557 0.01811 0.0
C1110 C 0.1302 0.67635 0.99749 0.0
C1111 C 0.13108 0.69269 0.95888 0.0
N1112 N 0.11108 0.75434 0.9123 0.0
N1113 N 0.09754 0.68633 0.06099 0.0
C1114 C 0.1143 0.74049 0.94972 0.0
C1115 C 0.10926 0.70614 0.02624 0.0
N1116 N 0.09292 0.82187 0.97259 0.0
N1117 N 0.15034 0.63236 1.00717 0.0
H1118 H 0.08117 0.70623 0.08281 0.0
H1119 H 0.09933 0.64893 0.06688 0.0
H1120 H 0.1625 0.60739 0.98707 0.0
H1121 H 0.15875 0.62268 0.03521 0.0
H1122 H 0.09953 0.83846 0.94629 0.0
H1123 H 0.0827 0.84649 0.99382 0.0
H1124 H 0.09471 0.78678 0.90323 0.0
H1125 H 0.12187 0.73155 0.88994 0.0
C1126 C 0.78011 0.14466 0.99637 0.0
C1127 C 0.78526 0.09642 1.01127 0.0
C1128 C 0.84114 0.07987 0.95779 0.0
C1129 C 0.84796 0.13083 0.9513 0.0
N1130 N 0.82116 0.21347 0.96736 0.0
N1131 N 0.82851 1.01856 1.00619 0.0
C1132 C 0.81646 0.16391 0.9711 0.0
C1133 C 0.81747 0.06376 0.99175 0.0
N1134 N 0.73892 0.17119 1.00398 0.0
N1135 N 0.85702 0.04675 0.93139 0.0
H1136 H 0.81871 1.00688 0.03343 0.0
H1137 H 0.85376 0.99526 0.99319 0.0
H1138 H 0.87153 0.05762 0.90509 0.0
H1139 H 0.84967 1.00934 0.93356 0.0
H1140 H 0.7313 0.20385 0.98977 0.0
H1141 H 0.70936 0.15703 0.01938 0.0
H1142 H 0.8023 0.23783 0.98497 0.0
H1143 H 0.8451 0.23063 0.94857 0.0
C1144 C 0.94768 0.284 0.55207 0.0
C1145 C 0.93991 0.27225 0.51284 0.0
C1146 C 0.89994 0.19567 0.53228 0.0
C1147 C 0.90539 0.20779 0.5715 0.0
N1148 N 0.92876 0.26632 0.61902 0.0
N1149 N 0.8972 0.22112 0.46672 0.0
C1150 C 0.92737 0.25308 0.58148 0.0
C1151 C 0.912 0.22992 0.50342 0.0
N1152 N 0.97459 0.32453 0.56116 0.0
N1153 N 0.88581 0.14961 0.52212 0.0
H1154 H 0.90926 0.24023 0.44283 0.0
H1155 H 0.87063 0.19512 0.45994 0.0
H1156 H 0.87361 0.12432 0.54194 0.0
H1157 H 0.88928 0.13557 0.49461 0.0
H1158 H 0.9859 0.33295 0.58872 0.0
H1159 H 0.98767 0.34898 0.54063 0.0
H1160 H 0.9405 0.30041 0.62859 0.0
H1161 H 0.91457 0.244 0.64063 0.0
C1162 C 0.36264 0.89942 0.53139 0.0
C1163 C 0.3591 0.91555 0.56955 0.0
C1164 C 0.2982 0.97618 0.54744 0.0
C1165 C 0.295 0.95212 0.51113 0.0
N1166 N 0.31496 0.87644 0.47755 0.0
N1167 N 0.31687 0.9667 0.615 0.0
C1168 C 0.3243 0.90941 0.50578 0.0
C1169 C 0.32475 0.95314 0.57806 0.0
N1170 N 0.40379 0.87651 0.51862 0.0
N1171 N 0.27915 1.02193 0.55257 0.0
H1172 H 0.33539 0.95068 0.63784 0.0
H1173 H 0.28883 0.99053 0.62297 0.0
H1174 H 0.2639 0.04274 0.53072 0.0
H1175 H 0.28433 0.04185 0.57758 0.0
H1176 H 0.40868 0.86668 0.49009 0.0
H1177 H 0.43517 0.87414 0.5353 0.0
H1178 H 0.33543 0.84449 0.47428 0.0
H1179 H 0.28292 0.87653 0.46175 0.0
C1180 C 0.66779 0.3415 0.53279 0.0
C1181 C 0.64875 0.34236 0.57043 0.0
C1182 C 0.58386 0.2856 0.54854 0.0
C1183 C 0.60815 0.27947 0.51258 0.0
N1184 N 0.6867 0.28924 0.48046 0.0
N1185 N 0.59474 0.3032 0.61597 0.0
C1186 C 0.65436 0.30328 0.50794 0.0
C1187 C 0.60871 0.31055 0.57898 0.0
N1188 N 0.69547 0.37913 0.51895 0.0
N1189 N 0.53647 0.27086 0.55363 0.0
H1190 H 0.61357 0.31846 0.63895 0.0
H1191 H 0.56836 0.27737 0.6238 0.0
H1192 H 0.51486 0.25616 0.53212 0.0
H1193 H 0.51667 0.2788 0.57833 0.0
H1194 H 0.70689 0.38091 0.49053 0.0
H1195 H 0.69944 0.41186 0.5336 0.0
H1196 H 0.72151 0.30467 0.47786 0.0
H1197 H 0.68193 0.25775 0.46464 0.0
C1198 C 0.2291 0.59882 0.57386 0.0
C1199 C 0.19292 0.63427 0.56464 0.0
C1200 C 0.22493 0.63849 0.49857 0.0
C1201 C 0.26183 0.60332 0.50774 0.0
N1202 N 0.30554 0.55857 0.55641 0.0
N1203 N 0.15701 0.68802 0.51853 0.0
C1204 C 0.26558 0.58568 0.54605 0.0
C1205 C 0.192 0.65463 0.52736 0.0
N1206 N 0.22804 0.57707 0.60903 0.0
N1207 N 0.21794 0.65372 0.4616 0.0
H1208 H 0.12337 0.68683 0.53217 0.0
H1209 H 0.16079 0.7142 0.49706 0.0
H1210 H 0.2392 0.6434 0.43841 0.0
H1211 H 0.18776 0.67382 0.45241 0.0
H1212 H 0.24943 0.54696 0.61644 0.0
H1213 H 0.20336 0.58754 0.6303 0.0
H1214 H 0.31326 0.54839 0.58442 0.0
H1215 H 0.33377 0.5501 0.53747 0.0
loop_
_geom_bond_atom_site_label_1
_geom_bond_atom_site_label_2
_geom_bond_distance
_geom_bond_site_symmetry_2
_ccdc_geom_bond_type
Fe0 O2 1.918 1_565 S
Fe0 O5 1.997 1_565 S
Fe0 O6 2.002 . S
Fe0 O11 1.976 . S
Fe0 O14 1.996 . S
Fe1 O2 1.918 . S
Fe1 O9 1.997 . S
Fe1 O12 1.996 1_545 S
Fe1 O16 1.976 . S
Fe1 O19 2.002 . S
O2 Fe0 1.918 1_545 S
O2 Fe1 1.918 . S
O2 Fe3 1.918 . S
Fe3 O2 1.918 . S
Fe3 O4 2.002 . S
Fe3 O13 1.976 . S
Fe3 O17 1.996 . S
Fe3 O20 1.997 . S
O4 Fe3 2.002 . S
O4 C21 1.295 . S
O5 Fe0 1.997 1_545 S
O5 C21 1.235 . S
O6 Fe0 2.002 . S
O6 C7 1.295 1_565 S
C7 O6 1.295 1_545 S
C7 O9 1.235 . S
C8 O13 1.287 1_565 S
C8 O14 1.255 . S
O9 Fe1 1.997 . S
O9 C7 1.235 . S
C10 O16 1.287 . S
C10 O17 1.255 . S
O11 Fe0 1.976 . S
O11 C18 1.287 . S
O12 Fe1 1.996 1_565 S
O12 C18 1.255 . S
O13 Fe3 1.976 . S
O13 C8 1.287 1_545 S
O14 Fe0 1.996 . S
O14 C8 1.255 . S
C15 O19 1.295 . S
C15 O20 1.235 . S
O16 Fe1 1.976 . S
O16 C10 1.287 . S
O17 Fe3 1.996 . S
O17 C10 1.255 . S
C18 O11 1.287 . S
C18 O12 1.255 . S
O19 Fe1 2.002 . S
O19 C15 1.295 . S
O20 Fe3 1.997 . S
O20 C15 1.235 . S
C21 O4 1.295 . S
C21 O5 1.235 . S
Fe22 O24 1.918 . S
Fe22 O27 1.997 . S
Fe22 O28 2.002 . S
Fe22 O33 1.976 . S
Fe22 O36 1.996 . S
Fe23 O24 1.918 . S
Fe23 O31 1.997 . S
Fe23 O34 1.996 . S
Fe23 O38 1.976 . S
Fe23 O41 2.002 . S
O24 Fe22 1.918 . S
O24 Fe23 1.918 . S
O24 Fe25 1.918 . S
Fe25 O24 1.918 . S
Fe25 O26 2.002 . S
Fe25 O35 1.976 . S
Fe25 O39 1.996 . S
Fe25 O42 1.997 . S
O26 Fe25 2.002 . S
O26 C43 1.295 . S
O27 Fe22 1.997 . S
O27 C43 1.235 . S
O28 Fe22 2.002 . S
O28 C29 1.295 . S
C29 O28 1.295 . S
C29 O31 1.235 . S
C30 O35 1.287 . S
C30 O36 1.255 . S
O31 Fe23 1.997 . S
O31 C29 1.235 . S
C32 O38 1.287 . S
C32 O39 1.255 . S
O33 Fe22 1.976 . S
O33 C40 1.287 . S
O34 Fe23 1.996 . S
O34 C40 1.255 . S
O35 Fe25 1.976 . S
O35 C30 1.287 . S
O36 Fe22 1.996 . S
O36 C30 1.255 . S
C37 O41 1.295 . S
C37 O42 1.235 . S
O38 Fe23 1.976 . S
O38 C32 1.287 . S
O39 Fe25 1.996 . S
O39 C32 1.255 . S
C40 O33 1.287 . S
C40 O34 1.255 . S
O41 Fe23 2.002 . S
O41 C37 1.295 . S
O42 Fe25 1.997 . S
O42 C37 1.235 . S
C43 O26 1.295 . S
C43 O27 1.235 . S
Fe44 O46 1.918 . S
Fe44 O49 1.997 . S
Fe44 O50 2.002 . S
Fe44 O55 1.976 . S
Fe44 O58 1.996 . S
Fe45 O46 1.918 . S
Fe45 O53 1.997 . S
Fe45 O56 1.996 . S
Fe45 O60 1.976 . S
Fe45 O63 2.002 . S
O46 Fe44 1.918 . S
O46 Fe45 1.918 . S
O46 Fe47 1.918 . S
Fe47 O46 1.918 . S
Fe47 O48 2.002 . S
Fe47 O57 1.976 . S
Fe47 O61 1.996 . S
Fe47 O64 1.997 . S
O48 Fe47 2.002 . S
O48 C65 1.295 . S
O49 Fe44 1.997 . S
O49 C65 1.235 . S
O50 Fe44 2.002 . S
O50 C51 1.295 . S
C51 O50 1.295 . S
C51 O53 1.235 . S
C52 O57 1.287 . S
C52 O58 1.255 . S
O53 Fe45 1.997 . S
O53 C51 1.235 . S
C54 O60 1.287 . S
C54 O61 1.255 . S
O55 Fe44 1.976 . S
O55 C62 1.287 . S
O56 Fe45 1.996 . S
O56 C62 1.255 . S
O57 Fe47 1.976 . S
O57 C52 1.287 . S
O58 Fe44 1.996 . S
O58 C52 1.255 . S
C59 O63 1.295 . S
C59 O64 1.235 . S
O60 Fe45 1.976 . S
O60 C54 1.287 . S
O61 Fe47 1.996 . S
O61 C54 1.255 . S
C62 O55 1.287 . S
C62 O56 1.255 . S
O63 Fe45 2.002 . S
O63 C59 1.295 . S
O64 Fe47 1.997 . S
O64 C59 1.235 . S
C65 O48 1.295 . S
C65 O49 1.235 . S
Fe66 O68 1.918 1_655 S
Fe66 O71 1.997 1_655 S
Fe66 O72 2.002 . S
Fe66 O77 1.976 . S
Fe66 O80 1.996 . S
Fe67 O68 1.918 . S
Fe67 O75 1.997 . S
Fe67 O78 1.996 1_455 S
Fe67 O82 1.976 . S
Fe67 O85 2.002 . S
O68 Fe66 1.918 1_455 S
O68 Fe67 1.918 . S
O68 Fe69 1.918 . S
Fe69 O68 1.918 . S
Fe69 O70 2.002 . S
Fe69 O79 1.976 . S
Fe69 O83 1.996 . S
Fe69 O86 1.997 . S
O70 Fe69 2.002 . S
O70 C87 1.295 . S
O71 Fe66 1.997 1_455 S
O71 C87 1.235 . S
O72 Fe66 2.002 . S
O72 C73 1.295 1_655 S
C73 O72 1.295 1_455 S
C73 O75 1.235 . S
C74 O79 1.287 1_655 S
C74 O80 1.255 . S
O75 Fe67 1.997 . S
O75 C73 1.235 . S
C76 O82 1.287 . S
C76 O83 1.255 . S
O77 Fe66 1.976 . S
O77 C84 1.287 . S
O78 Fe67 1.996 1_655 S
O78 C84 1.255 . S
O79 Fe69 1.976 . S
O79 C74 1.287 1_455 S
O80 Fe66 1.996 . S
O80 C74 1.255 . S
C81 O85 1.295 . S
C81 O86 1.235 . S
O82 Fe67 1.976 . S
O82 C76 1.287 . S
O83 Fe69 1.996 . S
O83 C76 1.255 . S
C84 O77 1.287 . S
C84 O78 1.255 . S
O85 Fe67 2.002 . S
O85 C81 1.295 . S
O86 Fe69 1.997 . S
O86 C81 1.235 . S
C87 O70 1.295 . S
C87 O71 1.235 . S
Fe88 O90 1.918 1_545 S
Fe88 O93 1.997 1_545 S
Fe88 O94 2.002 . S
Fe88 O99 1.976 . S
Fe88 O102 1.996 . S
Fe89 O90 1.918 . S
Fe89 O97 1.997 . S
Fe89 O100 1.996 1_565 S
Fe89 O104 1.976 . S
Fe89 O107 2.002 . S
O90 Fe88 1.918 1_565 S
O90 Fe89 1.918 . S
O90 Fe91 1.918 . S
Fe91 O90 1.918 . S
Fe91 O92 2.002 . S
Fe91 O101 1.976 . S
Fe91 O105 1.996 . S
Fe91 O108 1.997 . S
O92 Fe91 2.002 . S
O92 C109 1.295 . S
O93 Fe88 1.997 1_565 S
O93 C109 1.235 . S
O94 Fe88 2.002 . S
O94 C95 1.295 1_545 S
C95 O94 1.295 1_565 S
C95 O97 1.235 . S
C96 O101 1.287 1_545 S
C96 O102 1.255 . S
O97 Fe89 1.997 . S
O97 C95 1.235 . S
C98 O104 1.287 . S
C98 O105 1.255 . S
O99 Fe88 1.976 . S
O99 C106 1.287 . S
O100 Fe89 1.996 1_545 S
O100 C106 1.255 . S
O101 Fe91 1.976 . S
O101 C96 1.287 1_565 S
O102 Fe88 1.996 . S
O102 C96 1.255 . S
C103 O107 1.295 . S
C103 O108 1.235 . S
O104 Fe89 1.976 . S
O104 C98 1.287 . S
O105 Fe91 1.996 . S
O105 C98 1.255 . S
C106 O99 1.287 . S
C106 O100 1.255 . S
O107 Fe89 2.002 . S
O107 C103 1.295 . S
O108 Fe91 1.997 . S
O108 C103 1.235 . S
C109 O92 1.295 . S
C109 O93 1.235 . S
Fe110 O112 1.918 . S
Fe110 O115 1.997 . S
Fe110 O116 2.002 . S
Fe110 O121 1.976 . S
Fe110 O124 1.996 . S
Fe111 O112 1.918 . S
Fe111 O119 1.997 . S
Fe111 O122 1.996 . S
Fe111 O126 1.976 . S
Fe111 O129 2.002 . S
O112 Fe110 1.918 . S
O112 Fe111 1.918 . S
O112 Fe113 1.918 . S
Fe113 O112 1.918 . S
Fe113 O114 2.002 . S
Fe113 O123 1.976 . S
Fe113 O127 1.996 . S
Fe113 O130 1.997 . S
O114 Fe113 2.002 . S
O114 C131 1.295 . S
O115 Fe110 1.997 . S
O115 C131 1.235 . S
O116 Fe110 2.002 . S
O116 C117 1.295 . S
C117 O116 1.295 . S
C117 O119 1.235 . S
C118 O123 1.287 . S
C118 O124 1.255 . S
O119 Fe111 1.997 . S
O119 C117 1.235 . S
C120 O126 1.287 . S
C120 O127 1.255 . S
O121 Fe110 1.976 . S
O121 C128 1.287 . S
O122 Fe111 1.996 . S
O122 C128 1.255 . S
O123 Fe113 1.976 . S
O123 C118 1.287 . S
O124 Fe110 1.996 . S
O124 C118 1.255 . S
C125 O129 1.295 . S
C125 O130 1.235 . S
O126 Fe111 1.976 . S
O126 C120 1.287 . S
O127 Fe113 1.996 . S
O127 C120 1.255 . S
C128 O121 1.287 . S
C128 O122 1.255 . S
O129 Fe111 2.002 . S
O129 C125 1.295 . S
O130 Fe113 1.997 . S
O130 C125 1.235 . S
C131 O114 1.295 . S
C131 O115 1.235 . S
Fe132 O134 1.918 . S
Fe132 O137 1.997 . S
Fe132 O138 2.002 . S
Fe132 O143 1.976 . S
Fe132 O146 1.996 . S
Fe133 O134 1.918 . S
Fe133 O141 1.997 . S
Fe133 O144 1.996 . S
Fe133 O148 1.976 . S
Fe133 O151 2.002 . S
O134 Fe132 1.918 . S
O134 Fe133 1.918 . S
O134 Fe135 1.918 . S
Fe135 O134 1.918 . S
Fe135 O136 2.002 . S
Fe135 O145 1.976 . S
Fe135 O149 1.996 . S
Fe135 O152 1.997 . S
O136 Fe135 2.002 . S
O136 C153 1.295 . S
O137 Fe132 1.997 . S
O137 C153 1.235 . S
O138 Fe132 2.002 . S
O138 C139 1.295 . S
C139 O138 1.295 . S
C139 O141 1.235 . S
C140 O145 1.287 . S
C140 O146 1.255 . S
O141 Fe133 1.997 . S
O141 C139 1.235 . S
C142 O148 1.287 . S
C142 O149 1.255 . S
O143 Fe132 1.976 . S
O143 C150 1.287 . S
O144 Fe133 1.996 . S
O144 C150 1.255 . S
O145 Fe135 1.976 . S
O145 C140 1.287 . S
O146 Fe132 1.996 . S
O146 C140 1.255 . S
C147 O151 1.295 . S
C147 O152 1.235 . S
O148 Fe133 1.976 . S
O148 C142 1.287 . S
O149 Fe135 1.996 . S
O149 C142 1.255 . S
C150 O143 1.287 . S
C150 O144 1.255 . S
O151 Fe133 2.002 . S
O151 C147 1.295 . S
O152 Fe135 1.997 . S
O152 C147 1.235 . S
C153 O136 1.295 . S
C153 O137 1.235 . S
Fe154 O156 1.918 . S
Fe154 O159 1.997 . S
Fe154 O160 2.002 . S
Fe154 O165 1.976 . S
Fe154 O168 1.996 1_655 S
Fe155 O156 1.918 . S
Fe155 O163 1.997 . S
Fe155 O166 1.996 . S
Fe155 O170 1.976 . S
Fe155 O173 2.002 . S
O156 Fe154 1.918 . S
O156 Fe155 1.918 . S
O156 Fe157 1.918 1_655 S
Fe157 O156 1.918 1_455 S
Fe157 O158 2.002 . S
Fe157 O167 1.976 . S
Fe157 O171 1.996 . S
Fe157 O174 1.997 1_455 S
O158 Fe157 2.002 . S
O158 C175 1.295 1_455 S
O159 Fe154 1.997 . S
O159 C175 1.235 . S
O160 Fe154 2.002 . S
O160 C161 1.295 . S
C161 O160 1.295 . S
C161 O163 1.235 . S
C162 O167 1.287 . S
C162 O168 1.255 . S
O163 Fe155 1.997 . S
O163 C161 1.235 . S
C164 O170 1.287 1_455 S
C164 O171 1.255 . S
O165 Fe154 1.976 . S
O165 C172 1.287 . S
O166 Fe155 1.996 . S
O166 C172 1.255 . S
O167 Fe157 1.976 . S
O167 C162 1.287 . S
O168 Fe154 1.996 1_455 S
O168 C162 1.255 . S
C169 O173 1.295 . S
C169 O174 1.235 . S
O170 Fe155 1.976 . S
O170 C164 1.287 1_655 S
O171 Fe157 1.996 . S
O171 C164 1.255 . S
C172 O165 1.287 . S
C172 O166 1.255 . S
O173 Fe155 2.002 . S
O173 C169 1.295 . S
O174 Fe157 1.997 1_655 S
O174 C169 1.235 . S
C175 O158 1.295 1_655 S
C175 O159 1.235 . S
Fe176 O178 1.918 . S
Fe176 O181 1.997 . S
Fe176 O182 2.002 . S
Fe176 O187 1.976 . S
Fe176 O190 1.996 . S
Fe177 O178 1.918 . S
Fe177 O185 1.997 . S
Fe177 O188 1.996 . S
Fe177 O192 1.976 1_565 S
Fe177 O195 2.002 . S
O178 Fe176 1.918 . S
O178 Fe177 1.918 . S
O178 Fe179 1.918 1_565 S
Fe179 O178 1.918 1_545 S
Fe179 O180 2.002 1_545 S
Fe179 O189 1.976 . S
Fe179 O193 1.996 . S
Fe179 O196 1.997 . S
O180 Fe179 2.002 1_565 S
O180 C197 1.295 . S
O181 Fe176 1.997 . S
O181 C197 1.235 . S
O182 Fe176 2.002 . S
O182 C183 1.295 . S
C183 O182 1.295 . S
C183 O185 1.235 . S
C184 O189 1.287 . S
C184 O190 1.255 1_545 S
O185 Fe177 1.997 . S
O185 C183 1.235 . S
C186 O192 1.287 . S
C186 O193 1.255 . S
O187 Fe176 1.976 . S
O187 C194 1.287 . S
O188 Fe177 1.996 . S
O188 C194 1.255 . S
O189 Fe179 1.976 . S
O189 C184 1.287 . S
O190 Fe176 1.996 . S
O190 C184 1.255 1_565 S
C191 O195 1.295 . S
C191 O196 1.235 1_565 S
O192 Fe177 1.976 1_545 S
O192 C186 1.287 . S
O193 Fe179 1.996 . S
O193 C186 1.255 . S
C194 O187 1.287 . S
C194 O188 1.255 . S
O195 Fe177 2.002 . S
O195 C191 1.295 . S
O196 Fe179 1.997 . S
O196 C191 1.235 1_545 S
C197 O180 1.295 . S
C197 O181 1.235 . S
Fe198 O200 1.918 . S
Fe198 O203 1.997 . S
Fe198 O204 2.002 . S
Fe198 O209 1.976 . S
Fe198 O212 1.996 . S
Fe199 O200 1.918 . S
Fe199 O207 1.997 . S
Fe199 O210 1.996 . S
Fe199 O214 1.976 . S
Fe199 O217 2.002 . S
O200 Fe198 1.918 . S
O200 Fe199 1.918 . S
O200 Fe201 1.918 . S
Fe201 O200 1.918 . S
Fe201 O202 2.002 . S
Fe201 O211 1.976 . S
Fe201 O215 1.996 . S
Fe201 O218 1.997 . S
O202 Fe201 2.002 . S
O202 C219 1.295 . S
O203 Fe198 1.997 . S
O203 C219 1.235 . S
O204 Fe198 2.002 . S
O204 C205 1.295 . S
C205 O204 1.295 . S
C205 O207 1.235 . S
C206 O211 1.287 . S
C206 O212 1.255 . S
O207 Fe199 1.997 . S
O207 C205 1.235 . S
C208 O214 1.287 . S
C208 O215 1.255 . S
O209 Fe198 1.976 . S
O209 C216 1.287 . S
O210 Fe199 1.996 . S
O210 C216 1.255 . S
O211 Fe201 1.976 . S
O211 C206 1.287 . S
O212 Fe198 1.996 . S
O212 C206 1.255 . S
C213 O217 1.295 . S
C213 O218 1.235 . S
O214 Fe199 1.976 . S
O214 C208 1.287 . S
O215 Fe201 1.996 . S
O215 C208 1.255 . S
C216 O209 1.287 . S
C216 O210 1.255 . S
O217 Fe199 2.002 . S
O217 C213 1.295 . S
O218 Fe201 1.997 . S
O218 C213 1.235 . S
C219 O202 1.295 . S
C219 O203 1.235 . S
Fe220 O222 1.918 . S
Fe220 O225 1.997 . S
Fe220 O226 2.002 . S
Fe220 O231 1.976 . S
Fe220 O234 1.996 . S
Fe221 O222 1.918 . S
Fe221 O229 1.997 . S
Fe221 O232 1.996 . S
Fe221 O236 1.976 . S
Fe221 O239 2.002 . S
O222 Fe220 1.918 . S
O222 Fe221 1.918 . S
O222 Fe223 1.918 . S
Fe223 O222 1.918 . S
Fe223 O224 2.002 . S
Fe223 O233 1.976 . S
Fe223 O237 1.996 . S
Fe223 O240 1.997 . S
O224 Fe223 2.002 . S
O224 C241 1.295 . S
O225 Fe220 1.997 . S
O225 C241 1.235 . S
O226 Fe220 2.002 . S
O226 C227 1.295 . S
C227 O226 1.295 . S
C227 O229 1.235 . S
C228 O233 1.287 . S
C228 O234 1.255 . S
O229 Fe221 1.997 . S
O229 C227 1.235 . S
C230 O236 1.287 . S
C230 O237 1.255 . S
O231 Fe220 1.976 . S
O231 C238 1.287 . S
O232 Fe221 1.996 . S
O232 C238 1.255 . S
O233 Fe223 1.976 . S
O233 C228 1.287 . S
O234 Fe220 1.996 . S
O234 C228 1.255 . S
C235 O239 1.295 . S
C235 O240 1.235 . S
O236 Fe221 1.976 . S
O236 C230 1.287 . S
O237 Fe223 1.996 . S
O237 C230 1.255 . S
C238 O231 1.287 . S
C238 O232 1.255 . S
O239 Fe221 2.002 . S
O239 C235 1.295 . S
O240 Fe223 1.997 . S
O240 C235 1.235 . S
C241 O224 1.295 . S
C241 O225 1.235 . S
Fe242 O244 1.918 1_455 S
Fe242 O247 1.997 . S
Fe242 O248 2.002 1_455 S
Fe242 O253 1.976 . S
Fe242 O256 1.996 . S
Fe243 O244 1.918 . S
Fe243 O251 1.997 . S
Fe243 O254 1.996 . S
Fe243 O258 1.976 . S
Fe243 O261 2.002 . S
O244 Fe242 1.918 1_655 S
O244 Fe243 1.918 . S
O244 Fe245 1.918 . S
Fe245 O244 1.918 . S
Fe245 O246 2.002 . S
Fe245 O255 1.976 1_655 S
Fe245 O259 1.996 . S
Fe245 O262 1.997 . S
O246 Fe245 2.002 . S
O246 C263 1.295 . S
O247 Fe242 1.997 . S
O247 C263 1.235 1_455 S
O248 Fe242 2.002 1_655 S
O248 C249 1.295 . S
C249 O248 1.295 . S
C249 O251 1.235 . S
C250 O255 1.287 . S
C250 O256 1.255 . S
O251 Fe243 1.997 . S
O251 C249 1.235 . S
C252 O258 1.287 . S
C252 O259 1.255 . S
O253 Fe242 1.976 . S
O253 C260 1.287 . S
O254 Fe243 1.996 . S
O254 C260 1.255 1_655 S
O255 Fe245 1.976 1_455 S
O255 C250 1.287 . S
O256 Fe242 1.996 . S
O256 C250 1.255 . S
C257 O261 1.295 . S
C257 O262 1.235 . S
O258 Fe243 1.976 . S
O258 C252 1.287 . S
O259 Fe245 1.996 . S
O259 C252 1.255 . S
C260 O253 1.287 . S
C260 O254 1.255 1_455 S
O261 Fe243 2.002 . S
O261 C257 1.295 . S
O262 Fe245 1.997 . S
O262 C257 1.235 . S
C263 O246 1.295 . S
C263 O247 1.235 1_655 S
Fe264 O266 1.918 . S
Fe264 O269 1.997 . S
Fe264 O270 2.002 . S
Fe264 O275 1.976 1_545 S
Fe264 O278 1.996 . S
Fe265 O266 1.918 1_565 S
Fe265 O273 1.997 . S
Fe265 O276 1.996 . S
Fe265 O280 1.976 . S
Fe265 O283 2.002 1_565 S
O266 Fe264 1.918 . S
O266 Fe265 1.918 1_545 S
O266 Fe267 1.918 . S
Fe267 O266 1.918 . S
Fe267 O268 2.002 . S
Fe267 O277 1.976 . S
Fe267 O281 1.996 . S
Fe267 O284 1.997 . S
O268 Fe267 2.002 . S
O268 C285 1.295 . S
O269 Fe264 1.997 . S
O269 C285 1.235 . S
O270 Fe264 2.002 . S
O270 C271 1.295 . S
C271 O270 1.295 . S
C271 O273 1.235 1_545 S
C272 O277 1.287 . S
C272 O278 1.255 . S
O273 Fe265 1.997 . S
O273 C271 1.235 1_565 S
C274 O280 1.287 . S
C274 O281 1.255 1_565 S
O275 Fe264 1.976 1_565 S
O275 C282 1.287 . S
O276 Fe265 1.996 . S
O276 C282 1.255 . S
O277 Fe267 1.976 . S
O277 C272 1.287 . S
O278 Fe264 1.996 . S
O278 C272 1.255 . S
C279 O283 1.295 . S
C279 O284 1.235 . S
O280 Fe265 1.976 . S
O280 C274 1.287 . S
O281 Fe267 1.996 . S
O281 C274 1.255 1_545 S
C282 O275 1.287 . S
C282 O276 1.255 . S
O283 Fe265 2.002 1_545 S
O283 C279 1.295 . S
O284 Fe267 1.997 . S
O284 C279 1.235 . S
C285 O268 1.295 . S
C285 O269 1.235 . S
Fe286 O288 1.918 . S
Fe286 O291 1.997 . S
Fe286 O292 2.002 . S
Fe286 O297 1.976 . S
Fe286 O300 1.996 . S
Fe287 O288 1.918 . S
Fe287 O295 1.997 . S
Fe287 O298 1.996 . S
Fe287 O302 1.976 . S
Fe287 O305 2.002 . S
O288 Fe286 1.918 . S
O288 Fe287 1.918 . S
O288 Fe289 1.918 . S
Fe289 O288 1.918 . S
Fe289 O290 2.002 . S
Fe289 O299 1.976 . S
Fe289 O303 1.996 . S
Fe289 O306 1.997 . S
O290 Fe289 2.002 . S
O290 C307 1.295 . S
O291 Fe286 1.997 . S
O291 C307 1.235 . S
O292 Fe286 2.002 . S
O292 C293 1.295 . S
C293 O292 1.295 . S
C293 O295 1.235 . S
C294 O299 1.287 . S
C294 O300 1.255 . S
O295 Fe287 1.997 . S
O295 C293 1.235 . S
C296 O302 1.287 . S
C296 O303 1.255 . S
O297 Fe286 1.976 . S
O297 C304 1.287 . S
O298 Fe287 1.996 . S
O298 C304 1.255 . S
O299 Fe289 1.976 . S
O299 C294 1.287 . S
O300 Fe286 1.996 . S
O300 C294 1.255 . S
C301 O305 1.295 . S
C301 O306 1.235 . S
O302 Fe287 1.976 . S
O302 C296 1.287 . S
O303 Fe289 1.996 . S
O303 C296 1.255 . S
C304 O297 1.287 . S
C304 O298 1.255 . S
O305 Fe287 2.002 . S
O305 C301 1.295 . S
O306 Fe289 1.997 . S
O306 C301 1.235 . S
C307 O290 1.295 . S
C307 O291 1.235 . S
Fe308 O310 1.918 . S
Fe308 O313 1.997 . S
Fe308 O314 2.002 . S
Fe308 O319 1.976 . S
Fe308 O322 1.996 . S
Fe309 O310 1.918 . S
Fe309 O317 1.997 . S
Fe309 O320 1.996 . S
Fe309 O324 1.976 . S
Fe309 O327 2.002 . S
O310 Fe308 1.918 . S
O310 Fe309 1.918 . S
O310 Fe311 1.918 . S
Fe311 O310 1.918 . S
Fe311 O312 2.002 . S
Fe311 O321 1.976 . S
Fe311 O325 1.996 . S
Fe311 O328 1.997 . S
O312 Fe311 2.002 . S
O312 C329 1.295 . S
O313 Fe308 1.997 . S
O313 C329 1.235 . S
O314 Fe308 2.002 . S
O314 C315 1.295 . S
C315 O314 1.295 . S
C315 O317 1.235 . S
C316 O321 1.287 . S
C316 O322 1.255 . S
O317 Fe309 1.997 . S
O317 C315 1.235 . S
C318 O324 1.287 . S
C318 O325 1.255 . S
O319 Fe308 1.976 . S
O319 C326 1.287 . S
O320 Fe309 1.996 . S
O320 C326 1.255 . S
O321 Fe311 1.976 . S
O321 C316 1.287 . S
O322 Fe308 1.996 . S
O322 C316 1.255 . S
C323 O327 1.295 . S
C323 O328 1.235 . S
O324 Fe309 1.976 . S
O324 C318 1.287 . S
O325 Fe311 1.996 . S
O325 C318 1.255 . S
C326 O319 1.287 . S
C326 O320 1.255 . S
O327 Fe309 2.002 . S
O327 C323 1.295 . S
O328 Fe311 1.997 . S
O328 C323 1.235 . S
C329 O312 1.295 . S
C329 O313 1.235 . S
Fe330 O332 1.918 1_655 S
Fe330 O335 1.997 . S
Fe330 O336 2.002 1_655 S
Fe330 O341 1.976 . S
Fe330 O344 1.996 . S
Fe331 O332 1.918 . S
Fe331 O339 1.997 . S
Fe331 O342 1.996 . S
Fe331 O346 1.976 . S
Fe331 O349 2.002 . S
O332 Fe330 1.918 1_455 S
O332 Fe331 1.918 . S
O332 Fe333 1.918 . S
Fe333 O332 1.918 . S
Fe333 O334 2.002 . S
Fe333 O343 1.976 1_455 S
Fe333 O347 1.996 . S
Fe333 O350 1.997 . S
O334 Fe333 2.002 . S
O334 C351 1.295 . S
O335 Fe330 1.997 . S
O335 C351 1.235 1_655 S
O336 Fe330 2.002 1_455 S
O336 C337 1.295 . S
C337 O336 1.295 . S
C337 O339 1.235 . S
C338 O343 1.287 . S
C338 O344 1.255 . S
O339 Fe331 1.997 . S
O339 C337 1.235 . S
C340 O346 1.287 . S
C340 O347 1.255 . S
O341 Fe330 1.976 . S
O341 C348 1.287 . S
O342 Fe331 1.996 . S
O342 C348 1.255 1_455 S
O343 Fe333 1.976 1_655 S
O343 C338 1.287 . S
O344 Fe330 1.996 . S
O344 C338 1.255 . S
C345 O349 1.295 . S
C345 O350 1.235 . S
O346 Fe331 1.976 . S
O346 C340 1.287 . S
O347 Fe333 1.996 . S
O347 C340 1.255 . S
C348 O341 1.287 . S
C348 O342 1.255 1_655 S
O349 Fe331 2.002 . S
O349 C345 1.295 . S
O350 Fe333 1.997 . S
O350 C345 1.235 . S
C351 O334 1.295 . S
C351 O335 1.235 1_455 S
C352 C353 1.363 . S
C352 C358 1.379 . S
C352 N360 1.356 . S
C353 C352 1.363 . S
C353 C359 1.363 . S
C354 C355 1.363 . S
C354 C359 1.379 . S
C354 N361 1.356 . S
C355 C354 1.363 . S
C355 C358 1.363 . S
N356 C358 1.356 . S
N356 H368 0.984 . S
N356 H369 0.985 . S
N357 C359 1.356 . S
N357 H362 0.984 . S
N357 H363 0.985 . S
C358 C352 1.379 . S
C358 C355 1.363 . S
C358 N356 1.356 . S
C359 C353 1.363 . S
C359 C354 1.379 . S
C359 N357 1.356 . S
N360 C352 1.356 . S
N360 H366 0.984 1_545 S
N360 H367 0.984 . S
N361 C354 1.356 . S
N361 H364 0.984 . S
N361 H365 0.985 . S
H362 N357 0.984 . S
H363 N357 0.985 . S
H364 N361 0.984 . S
H365 N361 0.985 . S
H366 N360 0.984 1_565 S
H367 N360 0.984 . S
H368 N356 0.984 . S
H369 N356 0.985 . S
C370 C371 1.363 . S
C370 C376 1.379 . S
C370 N378 1.356 . S
C371 C370 1.363 . S
C371 C377 1.363 . S
C372 C373 1.363 . S
C372 C377 1.379 . S
C372 N379 1.356 . S
C373 C372 1.363 . S
C373 C376 1.363 . S
N374 C376 1.356 . S
N374 H386 0.984 . S
N374 H387 0.985 . S
N375 C377 1.356 . S
N375 H380 0.984 . S
N375 H381 0.985 . S
C376 C370 1.379 . S
C376 C373 1.363 . S
C376 N374 1.356 . S
C377 C371 1.363 . S
C377 C372 1.379 . S
C377 N375 1.356 . S
N378 C370 1.356 . S
N378 H384 0.984 . S
N378 H385 0.984 . S
N379 C372 1.356 . S
N379 H382 0.984 . S
N379 H383 0.985 . S
H380 N375 0.984 . S
H381 N375 0.985 . S
H382 N379 0.984 . S
H383 N379 0.985 . S
H384 N378 0.984 . S
H385 N378 0.984 . S
H386 N374 0.984 . S
H387 N374 0.985 . S
C388 C389 1.363 . S
C388 C394 1.379 . S
C388 N396 1.356 . S
C389 C388 1.363 . S
C389 C395 1.363 . S
C390 C391 1.363 . S
C390 C395 1.379 . S
C390 N397 1.356 . S
C391 C390 1.363 . S
C391 C394 1.363 . S
N392 C394 1.356 . S
N392 H404 0.984 . S
N392 H405 0.985 . S
N393 C395 1.356 . S
N393 H398 0.984 . S
N393 H399 0.985 . S
C394 C388 1.379 . S
C394 C391 1.363 . S
C394 N392 1.356 . S
C395 C389 1.363 . S
C395 C390 1.379 . S
C395 N393 1.356 . S
N396 C388 1.356 . S
N396 H402 0.984 . S
N396 H403 0.984 . S
N397 C390 1.356 . S
N397 H400 0.984 . S
N397 H401 0.985 . S
H398 N393 0.984 . S
H399 N393 0.985 . S
H400 N397 0.984 . S
H401 N397 0.985 . S
H402 N396 0.984 . S
H403 N396 0.984 . S
H404 N392 0.984 . S
H405 N392 0.985 . S
C406 C407 1.363 . S
C406 C412 1.379 . S
C406 N414 1.356 . S
C407 C406 1.363 . S
C407 C413 1.363 . S
C408 C409 1.363 . S
C408 C413 1.379 . S
C408 N415 1.356 . S
C409 C408 1.363 . S
C409 C412 1.363 . S
N410 C412 1.356 . S
N410 H422 0.984 . S
N410 H423 0.985 . S
N411 C413 1.356 . S
N411 H416 0.984 . S
N411 H417 0.985 . S
C412 C406 1.379 . S
C412 C409 1.363 . S
C412 N410 1.356 . S
C413 C407 1.363 . S
C413 C408 1.379 . S
C413 N411 1.356 . S
N414 C406 1.356 . S
N414 H420 0.984 1_565 S
N414 H421 0.984 . S
N415 C408 1.356 . S
N415 H418 0.984 . S
N415 H419 0.985 . S
H416 N411 0.984 . S
H417 N411 0.985 . S
H418 N415 0.984 . S
H419 N415 0.985 . S
H420 N414 0.984 1_545 S
H421 N414 0.984 . S
H422 N410 0.984 . S
H423 N410 0.985 . S
C424 C425 1.363 . S
C424 C430 1.379 . S
C424 N432 1.356 . S
C425 C424 1.363 . S
C425 C431 1.363 . S
C426 C427 1.363 . S
C426 C431 1.379 . S
C426 N433 1.356 . S
C427 C426 1.363 . S
C427 C430 1.363 . S
N428 C430 1.356 . S
N428 H440 0.984 . S
N428 H441 0.985 . S
N429 C431 1.356 . S
N429 H434 0.984 . S
N429 H435 0.985 . S
C430 C424 1.379 . S
C430 C427 1.363 . S
C430 N428 1.356 . S
C431 C425 1.363 . S
C431 C426 1.379 . S
C431 N429 1.356 . S
N432 C424 1.356 . S
N432 H438 0.984 . S
N432 H439 0.984 . S
N433 C426 1.356 . S
N433 H436 0.984 . S
N433 H437 0.985 . S
H434 N429 0.984 . S
H435 N429 0.985 . S
H436 N433 0.984 . S
H437 N433 0.985 . S
H438 N432 0.984 . S
H439 N432 0.984 . S
H440 N428 0.984 . S
H441 N428 0.985 . S
C442 C443 1.363 . S
C442 C448 1.379 . S
C442 N450 1.356 . S
C443 C442 1.363 . S
C443 C449 1.363 . S
C444 C445 1.363 . S
C444 C449 1.379 . S
C444 N451 1.356 . S
C445 C444 1.363 . S
C445 C448 1.363 . S
N446 C448 1.356 . S
N446 H458 0.984 . S
N446 H459 0.985 . S
N447 C449 1.356 . S
N447 H452 0.984 . S
N447 H453 0.985 . S
C448 C442 1.379 . S
C448 C445 1.363 . S
C448 N446 1.356 . S
C449 C443 1.363 . S
C449 C444 1.379 . S
C449 N447 1.356 . S
N450 C442 1.356 . S
N450 H456 0.984 . S
N450 H457 0.984 . S
N451 C444 1.356 . S
N451 H454 0.984 . S
N451 H455 0.985 . S
H452 N447 0.984 . S
H453 N447 0.985 . S
H454 N451 0.984 . S
H455 N451 0.985 . S
H456 N450 0.984 . S
H457 N450 0.984 . S
H458 N446 0.984 . S
H459 N446 0.985 . S
C460 C461 1.363 . S
C460 C466 1.379 . S
C460 N468 1.356 . S
C461 C460 1.363 . S
C461 C467 1.363 . S
C462 C463 1.363 . S
C462 C467 1.379 . S
C462 N469 1.356 . S
C463 C462 1.363 . S
C463 C466 1.363 . S
N464 C466 1.356 . S
N464 H476 0.984 1_455 S
N464 H477 0.985 . S
N465 C467 1.356 . S
N465 H470 0.984 . S
N465 H471 0.985 . S
C466 C460 1.379 . S
C466 C463 1.363 . S
C466 N464 1.356 . S
C467 C461 1.363 . S
C467 C462 1.379 . S
C467 N465 1.356 . S
N468 C460 1.356 . S
N468 H474 0.984 . S
N468 H475 0.984 . S
N469 C462 1.356 . S
N469 H472 0.984 . S
N469 H473 0.985 . S
H470 N465 0.984 . S
H471 N465 0.985 . S
H472 N469 0.984 . S
H473 N469 0.985 . S
H474 N468 0.984 . S
H475 N468 0.984 . S
H476 N464 0.984 1_655 S
H477 N464 0.985 . S
C478 C479 1.363 . S
C478 C484 1.379 . S
C478 N486 1.356 . S
C479 C478 1.363 . S
C479 C485 1.363 . S
C480 C481 1.363 . S
C480 C485 1.379 . S
C480 N487 1.356 . S
C481 C480 1.363 . S
C481 C484 1.363 . S
N482 C484 1.356 . S
N482 H494 0.984 1_545 S
N482 H495 0.985 . S
N483 C485 1.356 . S
N483 H488 0.984 . S
N483 H489 0.985 . S
C484 C478 1.379 . S
C484 C481 1.363 . S
C484 N482 1.356 . S
C485 C479 1.363 . S
C485 C480 1.379 . S
C485 N483 1.356 . S
N486 C478 1.356 . S
N486 H492 0.984 . S
N486 H493 0.984 . S
N487 C480 1.356 . S
N487 H490 0.984 . S
N487 H491 0.985 . S
H488 N483 0.984 . S
H489 N483 0.985 . S
H490 N487 0.984 . S
H491 N487 0.985 . S
H492 N486 0.984 . S
H493 N486 0.984 . S
H494 N482 0.984 1_565 S
H495 N482 0.985 . S
C496 C497 1.363 . S
C496 C502 1.379 1_554 S
C496 N504 1.356 . S
C497 C496 1.363 . S
C497 C503 1.363 1_545 S
C498 C499 1.363 . S
C498 C503 1.379 1_556 S
C498 N505 1.356 . S
C499 C498 1.363 . S
C499 C502 1.363 1_565 S
N500 C502 1.356 . S
N500 H512 0.984 . S
N500 H513 0.985 . S
N501 C503 1.356 . S
N501 H506 0.984 . S
N501 H507 0.985 . S
C502 C496 1.379 1_556 S
C502 C499 1.363 1_545 S
C502 N500 1.356 . S
C503 C497 1.363 1_565 S
C503 C498 1.379 1_554 S
C503 N501 1.356 . S
N504 C496 1.356 . S
N504 H510 0.984 . S
N504 H511 0.984 . S
N505 C498 1.356 . S
N505 H508 0.984 . S
N505 H509 0.985 . S
H506 N501 0.984 . S
H507 N501 0.985 . S
H508 N505 0.984 . S
H509 N505 0.985 . S
H510 N504 0.984 . S
H511 N504 0.984 . S
H512 N500 0.984 . S
H513 N500 0.985 . S
C514 C515 1.363 1_556 S
C514 C520 1.379 . S
C514 N522 1.356 . S
C515 C514 1.363 1_554 S
C515 C521 1.363 . S
C516 C517 1.363 1_554 S
C516 C521 1.379 . S
C516 N523 1.356 . S
C517 C516 1.363 1_556 S
C517 C520 1.363 . S
N518 C520 1.356 . S
N518 H530 0.984 . S
N518 H531 0.985 . S
N519 C521 1.356 . S
N519 H524 0.984 . S
N519 H525 0.985 . S
C520 C514 1.379 . S
C520 C517 1.363 . S
C520 N518 1.356 . S
C521 C515 1.363 . S
C521 C516 1.379 . S
C521 N519 1.356 . S
N522 C514 1.356 . S
N522 H528 0.984 . S
N522 H529 0.984 . S
N523 C516 1.356 . S
N523 H526 0.984 . S
N523 H527 0.985 . S
H524 N519 0.984 . S
H525 N519 0.985 . S
H526 N523 0.984 . S
H527 N523 0.985 . S
H528 N522 0.984 . S
H529 N522 0.984 . S
H530 N518 0.984 . S
H531 N518 0.985 . S
C532 C533 1.363 1_554 S
C532 C538 1.379 1_455 S
C532 N540 1.356 . S
C533 C532 1.363 1_556 S
C533 C539 1.363 . S
C534 C535 1.363 1_556 S
C534 C539 1.379 1_655 S
C534 N541 1.356 . S
C535 C534 1.363 1_554 S
C535 C538 1.363 . S
N536 C538 1.356 . S
N536 H548 0.984 . S
N536 H549 0.985 . S
N537 C539 1.356 . S
N537 H542 0.984 . S
N537 H543 0.985 . S
C538 C532 1.379 1_655 S
C538 C535 1.363 . S
C538 N536 1.356 . S
C539 C533 1.363 . S
C539 C534 1.379 1_455 S
C539 N537 1.356 . S
N540 C532 1.356 . S
N540 H546 0.984 . S
N540 H547 0.984 . S
N541 C534 1.356 . S
N541 H544 0.984 . S
N541 H545 0.985 . S
H542 N537 0.984 . S
H543 N537 0.985 . S
H544 N541 0.984 . S
H545 N541 0.985 . S
H546 N540 0.984 . S
H547 N540 0.984 . S
H548 N536 0.984 . S
H549 N536 0.985 . S
C550 C551 1.363 . S
C550 C556 1.379 1_545 S
C550 N558 1.356 . S
C551 C550 1.363 . S
C551 C557 1.363 1_656 S
C552 C553 1.363 . S
C552 C557 1.379 1_565 S
C552 N559 1.356 . S
C553 C552 1.363 . S
C553 C556 1.363 1_454 S
N554 C556 1.356 . S
N554 H566 0.984 . S
N554 H567 0.985 . S
N555 C557 1.356 . S
N555 H560 0.984 . S
N555 H561 0.985 . S
C556 C550 1.379 1_565 S
C556 C553 1.363 1_656 S
C556 N554 1.356 . S
C557 C551 1.363 1_454 S
C557 C552 1.379 1_545 S
C557 N555 1.356 . S
N558 C550 1.356 . S
N558 H564 0.984 . S
N558 H565 0.984 . S
N559 C552 1.356 . S
N559 H562 0.984 . S
N559 H563 0.985 . S
H560 N555 0.984 . S
H561 N555 0.985 . S
H562 N559 0.984 . S
H563 N559 0.985 . S
H564 N558 0.984 . S
H565 N558 0.984 . S
H566 N554 0.984 . S
H567 N554 0.985 . S
C568 C569 1.363 . S
C568 C574 1.379 1_455 S
C568 N576 1.356 . S
C569 C568 1.363 . S
C569 C575 1.363 1_565 S
C570 C571 1.363 . S
C570 C575 1.379 1_655 S
C570 N577 1.356 . S
C571 C570 1.363 . S
C571 C574 1.363 1_545 S
N572 C574 1.356 . S
N572 H584 0.984 . S
N572 H585 0.985 . S
N573 C575 1.356 . S
N573 H578 0.984 . S
N573 H579 0.985 . S
C574 C568 1.379 1_655 S
C574 C571 1.363 1_565 S
C574 N572 1.356 . S
C575 C569 1.363 1_545 S
C575 C570 1.379 1_455 S
C575 N573 1.356 . S
N576 C568 1.356 . S
N576 H582 0.984 . S
N576 H583 0.984 . S
N577 C570 1.356 . S
N577 H580 0.984 . S
N577 H581 0.985 . S
H578 N573 0.984 . S
H579 N573 0.985 . S
H580 N577 0.984 . S
H581 N577 0.985 . S
H582 N576 0.984 . S
H583 N576 0.984 . S
H584 N572 0.984 . S
H585 N572 0.985 . S
C586 C587 1.363 . S
C586 C592 1.379 1_545 S
C586 N594 1.356 . S
C587 C586 1.363 . S
C587 C593 1.363 . S
C588 C589 1.363 . S
C588 C593 1.379 1_565 S
C588 N595 1.356 . S
C589 C588 1.363 . S
C589 C592 1.363 . S
N590 C592 1.356 . S
N590 H602 0.984 . S
N590 H603 0.985 . S
N591 C593 1.356 . S
N591 H596 0.984 . S
N591 H597 0.985 . S
C592 C586 1.379 1_565 S
C592 C589 1.363 . S
C592 N590 1.356 . S
C593 C587 1.363 . S
C593 C588 1.379 1_545 S
C593 N591 1.356 . S
N594 C586 1.356 . S
N594 H600 0.984 . S
N594 H601 0.984 . S
N595 C588 1.356 . S
N595 H598 0.984 . S
N595 H599 0.985 . S
H596 N591 0.984 . S
H597 N591 0.985 . S
H598 N595 0.984 . S
H599 N595 0.985 . S
H600 N594 0.984 . S
H601 N594 0.984 . S
H602 N590 0.984 . S
H603 N590 0.985 . S
C604 C605 1.363 . S
C604 C610 1.379 . S
C604 N612 1.356 . S
C605 C604 1.363 . S
C605 C611 1.363 . S
C606 C607 1.363 . S
C606 C611 1.379 . S
C606 N613 1.356 . S
C607 C606 1.363 . S
C607 C610 1.363 . S
N608 C610 1.356 . S
N608 H620 0.984 . S
N608 H621 0.985 . S
N609 C611 1.356 . S
N609 H614 0.984 . S
N609 H615 0.985 . S
C610 C604 1.379 . S
C610 C607 1.363 . S
C610 N608 1.356 . S
C611 C605 1.363 . S
C611 C606 1.379 . S
C611 N609 1.356 . S
N612 C604 1.356 . S
N612 H618 0.984 . S
N612 H619 0.984 . S
N613 C606 1.356 . S
N613 H616 0.984 . S
N613 H617 0.985 . S
H614 N609 0.984 . S
H615 N609 0.985 . S
H616 N613 0.984 . S
H617 N613 0.985 . S
H618 N612 0.984 . S
H619 N612 0.984 . S
H620 N608 0.984 . S
H621 N608 0.985 . S
C622 C623 1.363 1_655 S
C622 C628 1.379 . S
C622 N630 1.356 . S
C623 C622 1.363 1_455 S
C623 C629 1.363 . S
C624 C625 1.363 1_455 S
C624 C629 1.379 . S
C624 N631 1.356 . S
C625 C624 1.363 1_655 S
C625 C628 1.363 . S
N626 C628 1.356 . S
N626 H638 0.984 . S
N626 H639 0.985 . S
N627 C629 1.356 . S
N627 H632 0.984 . S
N627 H633 0.985 . S
C628 C622 1.379 . S
C628 C625 1.363 . S
C628 N626 1.356 . S
C629 C623 1.363 . S
C629 C624 1.379 . S
C629 N627 1.356 . S
N630 C622 1.356 . S
N630 H636 0.984 . S
N630 H637 0.984 . S
N631 C624 1.356 . S
N631 H634 0.984 . S
N631 H635 0.985 . S
H632 N627 0.984 . S
H633 N627 0.985 . S
H634 N631 0.984 . S
H635 N631 0.985 . S
H636 N630 0.984 . S
H637 N630 0.984 . S
H638 N626 0.984 . S
H639 N626 0.985 . S
C640 C641 1.363 . S
C640 C646 1.379 . S
C640 N648 1.356 . S
C641 C640 1.363 . S
C641 C647 1.363 . S
C642 C643 1.363 . S
C642 C647 1.379 . S
C642 N649 1.356 . S
C643 C642 1.363 . S
C643 C646 1.363 . S
N644 C646 1.356 . S
N644 H656 0.984 . S
N644 H657 0.985 . S
N645 C647 1.356 . S
N645 H650 0.984 . S
N645 H651 0.985 . S
C646 C640 1.379 . S
C646 C643 1.363 . S
C646 N644 1.356 . S
C647 C641 1.363 . S
C647 C642 1.379 . S
C647 N645 1.356 . S
N648 C640 1.356 . S
N648 H654 0.984 . S
N648 H655 0.984 . S
N649 C642 1.356 . S
N649 H652 0.984 . S
N649 H653 0.985 . S
H650 N645 0.984 . S
H651 N645 0.985 . S
H652 N649 0.984 . S
H653 N649 0.985 . S
H654 N648 0.984 . S
H655 N648 0.984 . S
H656 N644 0.984 . S
H657 N644 0.985 . S
C658 C659 1.363 . S
C658 C664 1.379 . S
C658 N666 1.356 . S
C659 C658 1.363 . S
C659 C665 1.363 . S
C660 C661 1.363 . S
C660 C665 1.379 . S
C660 N667 1.356 . S
C661 C660 1.363 . S
C661 C664 1.363 . S
N662 C664 1.356 . S
N662 H674 0.984 . S
N662 H675 0.985 . S
N663 C665 1.356 . S
N663 H668 0.984 . S
N663 H669 0.985 . S
C664 C658 1.379 . S
C664 C661 1.363 . S
C664 N662 1.356 . S
C665 C659 1.363 . S
C665 C660 1.379 . S
C665 N663 1.356 . S
N666 C658 1.356 . S
N666 H672 0.984 . S
N666 H673 0.984 . S
N667 C660 1.356 . S
N667 H670 0.984 . S
N667 H671 0.985 . S
H668 N663 0.984 . S
H669 N663 0.985 . S
H670 N667 0.984 . S
H671 N667 0.985 . S
H672 N666 0.984 . S
H673 N666 0.984 . S
H674 N662 0.984 . S
H675 N662 0.985 . S
C676 C677 1.363 . S
C676 C682 1.379 . S
C676 N684 1.356 . S
C677 C676 1.363 . S
C677 C683 1.363 . S
C678 C679 1.363 . S
C678 C683 1.379 . S
C678 N685 1.356 . S
C679 C678 1.363 . S
C679 C682 1.363 . S
N680 C682 1.356 . S
N680 H692 0.984 . S
N680 H693 0.985 . S
N681 C683 1.356 1_455 S
N681 H686 0.984 . S
N681 H687 0.985 . S
C682 C676 1.379 . S
C682 C679 1.363 . S
C682 N680 1.356 . S
C683 C677 1.363 . S
C683 C678 1.379 . S
C683 N681 1.356 1_655 S
N684 C676 1.356 . S
N684 H690 0.984 . S
N684 H691 0.984 . S
N685 C678 1.356 . S
N685 H688 0.984 . S
N685 H689 0.985 . S
H686 N681 0.984 . S
H687 N681 0.985 . S
H688 N685 0.984 . S
H689 N685 0.985 . S
H690 N684 0.984 . S
H691 N684 0.984 . S
H692 N680 0.984 . S
H693 N680 0.985 . S
C694 C695 1.363 . S
C694 C700 1.379 . S
C694 N702 1.356 . S
C695 C694 1.363 . S
C695 C701 1.363 . S
C696 C697 1.363 . S
C696 C701 1.379 . S
C696 N703 1.356 1_565 S
C697 C696 1.363 . S
C697 C700 1.363 . S
N698 C700 1.356 . S
N698 H710 0.984 . S
N698 H711 0.985 . S
N699 C701 1.356 . S
N699 H704 0.984 . S
N699 H705 0.985 . S
C700 C694 1.379 . S
C700 C697 1.363 . S
C700 N698 1.356 . S
C701 C695 1.363 . S
C701 C696 1.379 . S
C701 N699 1.356 . S
N702 C694 1.356 . S
N702 H708 0.984 . S
N702 H709 0.984 . S
N703 C696 1.356 1_545 S
N703 H706 0.984 . S
N703 H707 0.985 . S
H704 N699 0.984 . S
H705 N699 0.985 . S
H706 N703 0.984 . S
H707 N703 0.985 . S
H708 N702 0.984 . S
H709 N702 0.984 . S
H710 N698 0.984 . S
H711 N698 0.985 . S
C712 C713 1.363 . S
C712 C718 1.379 . S
C712 N720 1.356 . S
C713 C712 1.363 . S
C713 C719 1.363 . S
C714 C715 1.363 . S
C714 C719 1.379 . S
C714 N721 1.356 1_455 S
C715 C714 1.363 . S
C715 C718 1.363 . S
N716 C718 1.356 . S
N716 H728 0.984 . S
N716 H729 0.985 . S
N717 C719 1.356 . S
N717 H722 0.984 . S
N717 H723 0.985 . S
C718 C712 1.379 . S
C718 C715 1.363 . S
C718 N716 1.356 . S
C719 C713 1.363 . S
C719 C714 1.379 . S
C719 N717 1.356 . S
N720 C712 1.356 . S
N720 H726 0.984 . S
N720 H727 0.984 . S
N721 C714 1.356 1_655 S
N721 H724 0.984 . S
N721 H725 0.985 . S
H722 N717 0.984 . S
H723 N717 0.985 . S
H724 N721 0.984 . S
H725 N721 0.985 . S
H726 N720 0.984 . S
H727 N720 0.984 . S
H728 N716 0.984 . S
H729 N716 0.985 . S
C730 C731 1.363 . S
C730 C736 1.379 . S
C730 N738 1.356 . S
C731 C730 1.363 . S
C731 C737 1.363 . S
C732 C733 1.363 . S
C732 C737 1.379 . S
C732 N739 1.356 1_545 S
C733 C732 1.363 . S
C733 C736 1.363 . S
N734 C736 1.356 . S
N734 H746 0.984 . S
N734 H747 0.985 . S
N735 C737 1.356 . S
N735 H740 0.984 . S
N735 H741 0.985 1_545 S
C736 C730 1.379 . S
C736 C733 1.363 . S
C736 N734 1.356 . S
C737 C731 1.363 . S
C737 C732 1.379 . S
C737 N735 1.356 . S
N738 C730 1.356 . S
N738 H744 0.984 . S
N738 H745 0.984 . S
N739 C732 1.356 1_565 S
N739 H742 0.984 . S
N739 H743 0.985 . S
H740 N735 0.984 . S
H741 N735 0.985 1_565 S
H742 N739 0.984 . S
H743 N739 0.985 . S
H744 N738 0.984 . S
H745 N738 0.984 . S
H746 N734 0.984 . S
H747 N734 0.985 . S
C748 C749 1.363 . S
C748 C754 1.379 . S
C748 N756 1.356 . S
C749 C748 1.363 . S
C749 C755 1.363 . S
C750 C751 1.363 . S
C750 C755 1.379 . S
C750 N757 1.356 . S
C751 C750 1.363 . S
C751 C754 1.363 . S
N752 C754 1.356 . S
N752 H764 0.984 . S
N752 H765 0.985 . S
N753 C755 1.356 . S
N753 H758 0.984 . S
N753 H759 0.985 . S
C754 C748 1.379 . S
C754 C751 1.363 . S
C754 N752 1.356 . S
C755 C749 1.363 . S
C755 C750 1.379 . S
C755 N753 1.356 . S
N756 C748 1.356 . S
N756 H762 0.984 . S
N756 H763 0.984 . S
N757 C750 1.356 . S
N757 H760 0.984 . S
N757 H761 0.985 . S
H758 N753 0.984 . S
H759 N753 0.985 . S
H760 N757 0.984 . S
H761 N757 0.985 . S
H762 N756 0.984 . S
H763 N756 0.984 . S
H764 N752 0.984 . S
H765 N752 0.985 . S
C766 C767 1.363 . S
C766 C772 1.379 . S
C766 N774 1.356 . S
C767 C766 1.363 . S
C767 C773 1.363 . S
C768 C769 1.363 . S
C768 C773 1.379 . S
C768 N775 1.356 . S
C769 C768 1.363 . S
C769 C772 1.363 . S
N770 C772 1.356 . S
N770 H782 0.984 . S
N770 H783 0.985 . S
N771 C773 1.356 . S
N771 H776 0.984 . S
N771 H777 0.985 . S
C772 C766 1.379 . S
C772 C769 1.363 . S
C772 N770 1.356 . S
C773 C767 1.363 . S
C773 C768 1.379 . S
C773 N771 1.356 . S
N774 C766 1.356 . S
N774 H780 0.984 . S
N774 H781 0.984 . S
N775 C768 1.356 . S
N775 H778 0.984 . S
N775 H779 0.985 . S
H776 N771 0.984 . S
H777 N771 0.985 . S
H778 N775 0.984 . S
H779 N775 0.985 . S
H780 N774 0.984 . S
H781 N774 0.984 . S
H782 N770 0.984 . S
H783 N770 0.985 . S
C784 C785 1.363 . S
C784 C790 1.379 . S
C784 N792 1.356 . S
C785 C784 1.363 . S
C785 C791 1.363 . S
C786 C787 1.363 . S
C786 C791 1.379 . S
C786 N793 1.356 . S
C787 C786 1.363 . S
C787 C790 1.363 . S
N788 C790 1.356 . S
N788 H800 0.984 . S
N788 H801 0.985 . S
N789 C791 1.356 . S
N789 H794 0.984 . S
N789 H795 0.985 . S
C790 C784 1.379 . S
C790 C787 1.363 . S
C790 N788 1.356 . S
C791 C785 1.363 . S
C791 C786 1.379 . S
C791 N789 1.356 . S
N792 C784 1.356 . S
N792 H798 0.984 . S
N792 H799 0.984 . S
N793 C786 1.356 . S
N793 H796 0.984 . S
N793 H797 0.985 . S
H794 N789 0.984 . S
H795 N789 0.985 . S
H796 N793 0.984 . S
H797 N793 0.985 . S
H798 N792 0.984 . S
H799 N792 0.984 . S
H800 N788 0.984 . S
H801 N788 0.985 . S
C802 C803 1.363 . S
C802 C808 1.379 . S
C802 N810 1.356 . S
C803 C802 1.363 . S
C803 C809 1.363 . S
C804 C805 1.363 . S
C804 C809 1.379 . S
C804 N811 1.356 . S
C805 C804 1.363 . S
C805 C808 1.363 . S
N806 C808 1.356 . S
N806 H818 0.984 . S
N806 H819 0.985 . S
N807 C809 1.356 . S
N807 H812 0.984 . S
N807 H813 0.985 . S
C808 C802 1.379 . S
C808 C805 1.363 . S
C808 N806 1.356 . S
C809 C803 1.363 . S
C809 C804 1.379 . S
C809 N807 1.356 . S
N810 C802 1.356 . S
N810 H816 0.984 . S
N810 H817 0.984 . S
N811 C804 1.356 . S
N811 H814 0.984 . S
N811 H815 0.985 . S
H812 N807 0.984 . S
H813 N807 0.985 . S
H814 N811 0.984 . S
H815 N811 0.985 . S
H816 N810 0.984 . S
H817 N810 0.984 . S
H818 N806 0.984 . S
H819 N806 0.985 . S
C820 C821 1.363 . S
C820 C826 1.379 . S
C820 N828 1.356 . S
C821 C820 1.363 . S
C821 C827 1.363 . S
C822 C823 1.363 . S
C822 C827 1.379 . S
C822 N829 1.356 . S
C823 C822 1.363 . S
C823 C826 1.363 . S
N824 C826 1.356 . S
N824 H836 0.984 . S
N824 H837 0.985 . S
N825 C827 1.356 1_655 S
N825 H830 0.984 . S
N825 H831 0.985 . S
C826 C820 1.379 . S
C826 C823 1.363 . S
C826 N824 1.356 . S
C827 C821 1.363 . S
C827 C822 1.379 . S
C827 N825 1.356 1_455 S
N828 C820 1.356 . S
N828 H834 0.984 . S
N828 H835 0.984 . S
N829 C822 1.356 . S
N829 H832 0.984 . S
N829 H833 0.985 . S
H830 N825 0.984 . S
H831 N825 0.985 . S
H832 N829 0.984 . S
H833 N829 0.985 . S
H834 N828 0.984 . S
H835 N828 0.984 . S
H836 N824 0.984 . S
H837 N824 0.985 . S
C838 C839 1.363 . S
C838 C844 1.379 . S
C838 N846 1.356 . S
C839 C838 1.363 . S
C839 C845 1.363 . S
C840 C841 1.363 . S
C840 C845 1.379 . S
C840 N847 1.356 . S
C841 C840 1.363 . S
C841 C844 1.363 . S
N842 C844 1.356 . S
N842 H854 0.984 . S
N842 H855 0.985 . S
N843 C845 1.356 . S
N843 H848 0.984 . S
N843 H849 0.985 . S
C844 C838 1.379 . S
C844 C841 1.363 . S
C844 N842 1.356 . S
C845 C839 1.363 . S
C845 C840 1.379 . S
C845 N843 1.356 . S
N846 C838 1.356 . S
N846 H852 0.984 . S
N846 H853 0.984 . S
N847 C840 1.356 . S
N847 H850 0.984 . S
N847 H851 0.985 . S
H848 N843 0.984 . S
H849 N843 0.985 . S
H850 N847 0.984 . S
H851 N847 0.985 . S
H852 N846 0.984 . S
H853 N846 0.984 . S
H854 N842 0.984 . S
H855 N842 0.985 . S
C856 C857 1.363 . S
C856 C862 1.379 . S
C856 N864 1.356 . S
C857 C856 1.363 . S
C857 C863 1.363 . S
C858 C859 1.363 . S
C858 C863 1.379 . S
C858 N865 1.356 . S
C859 C858 1.363 . S
C859 C862 1.363 . S
N860 C862 1.356 1_455 S
N860 H872 0.984 . S
N860 H873 0.985 . S
N861 C863 1.356 . S
N861 H866 0.984 . S
N861 H867 0.985 . S
C862 C856 1.379 . S
C862 C859 1.363 . S
C862 N860 1.356 1_655 S
C863 C857 1.363 . S
C863 C858 1.379 . S
C863 N861 1.356 . S
N864 C856 1.356 . S
N864 H870 0.984 . S
N864 H871 0.984 . S
N865 C858 1.356 . S
N865 H868 0.984 . S
N865 H869 0.985 . S
H866 N861 0.984 . S
H867 N861 0.985 . S
H868 N865 0.984 . S
H869 N865 0.985 . S
H870 N864 0.984 . S
H871 N864 0.984 . S
H872 N860 0.984 . S
H873 N860 0.985 . S
C874 C875 1.363 . S
C874 C880 1.379 . S
C874 N882 1.356 . S
C875 C874 1.363 . S
C875 C881 1.363 . S
C876 C877 1.363 . S
C876 C881 1.379 . S
C876 N883 1.356 . S
C877 C876 1.363 . S
C877 C880 1.363 . S
N878 C880 1.356 . S
N878 H890 0.984 . S
N878 H891 0.985 . S
N879 C881 1.356 . S
N879 H884 0.984 . S
N879 H885 0.985 . S
C880 C874 1.379 . S
C880 C877 1.363 . S
C880 N878 1.356 . S
C881 C875 1.363 . S
C881 C876 1.379 . S
C881 N879 1.356 . S
N882 C874 1.356 . S
N882 H888 0.984 . S
N882 H889 0.984 . S
N883 C876 1.356 . S
N883 H886 0.984 1_565 S
N883 H887 0.985 1_565 S
H884 N879 0.984 . S
H885 N879 0.985 . S
H886 N883 0.984 1_545 S
H887 N883 0.985 1_545 S
H888 N882 0.984 . S
H889 N882 0.984 . S
H890 N878 0.984 . S
H891 N878 0.985 . S
C892 C893 1.363 . S
C892 C898 1.379 . S
C892 N900 1.356 . S
C893 C892 1.363 . S
C893 C899 1.363 . S
C894 C895 1.363 . S
C894 C899 1.379 . S
C894 N901 1.356 . S
C895 C894 1.363 . S
C895 C898 1.363 . S
N896 C898 1.356 . S
N896 H908 0.984 . S
N896 H909 0.985 . S
N897 C899 1.356 . S
N897 H902 0.984 . S
N897 H903 0.985 . S
C898 C892 1.379 . S
C898 C895 1.363 . S
C898 N896 1.356 . S
C899 C893 1.363 . S
C899 C894 1.379 . S
C899 N897 1.356 . S
N900 C892 1.356 . S
N900 H906 0.984 . S
N900 H907 0.984 . S
N901 C894 1.356 . S
N901 H904 0.984 . S
N901 H905 0.985 . S
H902 N897 0.984 . S
H903 N897 0.985 . S
H904 N901 0.984 . S
H905 N901 0.985 . S
H906 N900 0.984 . S
H907 N900 0.984 . S
H908 N896 0.984 . S
H909 N896 0.985 . S
C910 C911 1.363 . S
C910 C916 1.379 . S
C910 N918 1.356 . S
C911 C910 1.363 . S
C911 C917 1.363 . S
C912 C913 1.363 . S
C912 C917 1.379 . S
C912 N919 1.356 . S
C913 C912 1.363 . S
C913 C916 1.363 . S
N914 C916 1.356 . S
N914 H926 0.984 . S
N914 H927 0.985 . S
N915 C917 1.356 . S
N915 H920 0.984 . S
N915 H921 0.985 . S
C916 C910 1.379 . S
C916 C913 1.363 . S
C916 N914 1.356 . S
C917 C911 1.363 . S
C917 C912 1.379 . S
C917 N915 1.356 . S
N918 C910 1.356 . S
N918 H924 0.984 . S
N918 H925 0.984 . S
N919 C912 1.356 . S
N919 H922 0.984 . S
N919 H923 0.985 . S
H920 N915 0.984 . S
H921 N915 0.985 . S
H922 N919 0.984 . S
H923 N919 0.985 . S
H924 N918 0.984 . S
H925 N918 0.984 . S
H926 N914 0.984 . S
H927 N914 0.985 . S
C928 C929 1.363 . S
C928 C934 1.379 . S
C928 N936 1.356 . S
C929 C928 1.363 . S
C929 C935 1.363 . S
C930 C931 1.363 . S
C930 C935 1.379 . S
C930 N937 1.356 1_554 S
C931 C930 1.363 . S
C931 C934 1.363 . S
N932 C934 1.356 . S
N932 H944 0.984 . S
N932 H945 0.978 1_554 S
N933 C935 1.356 . S
N933 H938 0.984 . S
N933 H939 0.985 . S
C934 C928 1.379 . S
C934 C931 1.363 . S
C934 N932 1.356 . S
C935 C929 1.363 . S
C935 C930 1.379 . S
C935 N933 1.356 . S
N936 C928 1.356 . S
N936 H942 0.984 . S
N936 H943 0.984 . S
N937 C930 1.356 1_556 S
N937 H940 0.984 . S
N937 H941 0.985 . S
H938 N933 0.984 . S
H939 N933 0.985 . S
H940 N937 0.984 . S
H941 N937 0.985 . S
H942 N936 0.984 . S
H943 N936 0.984 . S
H944 N932 0.984 . S
H945 N932 0.978 1_556 S
C946 C947 1.363 . S
C946 C952 1.379 . S
C946 N954 1.356 1_554 S
C947 C946 1.363 . S
C947 C953 1.363 . S
C948 C949 1.363 . S
C948 C953 1.379 . S
C948 N955 1.356 . S
C949 C948 1.363 . S
C949 C952 1.363 . S
N950 C952 1.356 . S
N950 H962 0.984 . S
N950 H963 0.985 . S
N951 C953 1.356 . S
N951 H956 0.984 1_554 S
N951 H957 0.985 . S
C952 C946 1.379 . S
C952 C949 1.363 . S
C952 N950 1.356 . S
C953 C947 1.363 . S
C953 C948 1.379 . S
C953 N951 1.356 . S
N954 C946 1.356 1_556 S
N954 H960 0.984 . S
N954 H961 0.984 . S
N955 C948 1.356 . S
N955 H958 0.984 . S
N955 H959 0.985 . S
H956 N951 0.984 1_556 S
H957 N951 0.985 . S
H958 N955 0.984 . S
H959 N955 0.985 . S
H960 N954 0.984 . S
H961 N954 0.984 . S
H962 N950 0.984 . S
H963 N950 0.985 . S
C964 C965 1.363 . S
C964 C970 1.379 . S
C964 N972 1.356 . S
C965 C964 1.363 . S
C965 C971 1.363 . S
C966 C967 1.361 1_556 S
C966 C971 1.362 1_556 S
C966 N973 1.377 . S
C967 C966 1.361 1_554 S
C967 C970 1.363 . S
N968 C970 1.356 . S
N968 H980 0.984 . S
N968 H981 0.985 . S
N969 C971 1.356 . S
N969 H974 0.984 . S
N969 H975 0.985 . S
C970 C964 1.379 . S
C970 C967 1.363 . S
C970 N968 1.356 . S
C971 C965 1.363 . S
C971 C966 1.362 1_554 S
C971 N969 1.356 . S
N972 C964 1.356 . S
N972 H978 0.984 . S
N972 H979 0.984 . S
N973 C966 1.377 . S
N973 H976 0.984 . S
N973 H977 0.985 . S
H974 N969 0.984 . S
H975 N969 0.985 . S
H976 N973 0.984 . S
H977 N973 0.985 . S
H978 N972 0.984 . S
H979 N972 0.984 . S
H980 N968 0.984 . S
H981 N968 0.985 . S
C982 C983 1.363 . S
C982 C988 1.379 . S
C982 N990 1.356 . S
C983 C982 1.363 . S
C983 C989 1.363 . S
C984 C985 1.363 . S
C984 C989 1.379 . S
C984 N991 1.356 . S
C985 C984 1.363 . S
C985 C988 1.363 . S
N986 C988 1.356 . S
N986 H998 0.984 . S
N986 H999 0.985 . S
N987 C989 1.356 1_556 S
N987 H992 0.984 . S
N987 H993 0.985 . S
C988 C982 1.379 . S
C988 C985 1.363 . S
C988 N986 1.356 . S
C989 C983 1.363 . S
C989 C984 1.379 . S
C989 N987 1.356 1_554 S
N990 C982 1.356 . S
N990 H996 0.984 . S
N990 H997 0.984 1_554 S
N991 C984 1.356 . S
N991 H994 0.984 . S
N991 H995 0.985 . S
H992 N987 0.984 . S
H993 N987 0.985 . S
H994 N991 0.984 . S
H995 N991 0.985 . S
H996 N990 0.984 . S
H997 N990 0.984 1_556 S
H998 N986 0.984 . S
H999 N986 0.985 . S
C1000 C1001 1.363 . S
C1000 C1006 1.379 . S
C1000 N1008 1.356 . S
C1001 C1000 1.363 . S
C1001 C1007 1.363 . S
C1002 C1003 1.363 . S
C1002 C1007 1.379 . S
C1002 N1009 1.356 . S
C1003 C1002 1.363 . S
C1003 C1006 1.363 . S
N1004 C1006 1.356 . S
N1004 H1016 0.984 . S
N1004 H1017 0.985 . S
N1005 C1007 1.356 . S
N1005 H1010 0.984 . S
N1005 H1011 0.985 . S
C1006 C1000 1.379 . S
C1006 C1003 1.363 . S
C1006 N1004 1.356 . S
C1007 C1001 1.363 . S
C1007 C1002 1.379 . S
C1007 N1005 1.356 . S
N1008 C1000 1.356 . S
N1008 H1014 0.984 . S
N1008 H1015 0.984 . S
N1009 C1002 1.356 . S
N1009 H1012 0.984 . S
N1009 H1013 0.985 . S
H1010 N1005 0.984 . S
H1011 N1005 0.985 . S
H1012 N1009 0.984 . S
H1013 N1009 0.985 . S
H1014 N1008 0.984 . S
H1015 N1008 0.984 . S
H1016 N1004 0.984 . S
H1017 N1004 0.985 . S
C1018 C1019 1.363 . S
C1018 C1024 1.379 . S
C1018 N1026 1.356 . S
C1019 C1018 1.363 . S
C1019 C1025 1.363 . S
C1020 C1021 1.363 . S
C1020 C1025 1.379 . S
C1020 N1027 1.356 . S
C1021 C1020 1.363 . S
C1021 C1024 1.363 . S
N1022 C1024 1.356 . S
N1022 H1034 0.984 1_545 S
N1022 H1035 0.985 . S
N1023 C1025 1.356 . S
N1023 H1028 0.984 . S
N1023 H1029 0.985 . S
C1024 C1018 1.379 . S
C1024 C1021 1.363 . S
C1024 N1022 1.356 . S
C1025 C1019 1.363 . S
C1025 C1020 1.379 . S
C1025 N1023 1.356 . S
N1026 C1018 1.356 . S
N1026 H1032 0.984 1_545 S
N1026 H1033 0.984 . S
N1027 C1020 1.356 . S
N1027 H1030 0.984 . S
N1027 H1031 0.985 . S
H1028 N1023 0.984 . S
H1029 N1023 0.985 . S
H1030 N1027 0.984 . S
H1031 N1027 0.985 . S
H1032 N1026 0.984 1_565 S
H1033 N1026 0.984 . S
H1034 N1022 0.984 1_565 S
H1035 N1022 0.985 . S
C1036 C1037 1.363 . S
C1036 C1042 1.379 . S
C1036 N1044 1.356 . S
C1037 C1036 1.363 . S
C1037 C1043 1.363 . S
C1038 C1039 1.363 . S
C1038 C1043 1.379 . S
C1038 N1045 1.356 . S
C1039 C1038 1.363 . S
C1039 C1042 1.363 . S
N1040 C1042 1.356 . S
N1040 H1052 0.984 . S
N1040 H1053 0.985 . S
N1041 C1043 1.356 . S
N1041 H1046 0.984 . S
N1041 H1047 0.985 . S
C1042 C1036 1.379 . S
C1042 C1039 1.363 . S
C1042 N1040 1.356 . S
C1043 C1037 1.363 . S
C1043 C1038 1.379 . S
C1043 N1041 1.356 . S
N1044 C1036 1.356 . S
N1044 H1050 0.984 . S
N1044 H1051 0.984 . S
N1045 C1038 1.356 . S
N1045 H1048 0.984 . S
N1045 H1049 0.985 . S
H1046 N1041 0.984 . S
H1047 N1041 0.985 . S
H1048 N1045 0.984 . S
H1049 N1045 0.985 . S
H1050 N1044 0.984 . S
H1051 N1044 0.984 . S
H1052 N1040 0.984 . S
H1053 N1040 0.985 . S
C1054 C1055 1.363 . S
C1054 C1060 1.379 . S
C1054 N1062 1.356 . S
C1055 C1054 1.363 . S
C1055 C1061 1.363 . S
C1056 C1057 1.363 . S
C1056 C1061 1.379 . S
C1056 N1063 1.356 . S
C1057 C1056 1.363 . S
C1057 C1060 1.363 . S
N1058 C1060 1.356 . S
N1058 H1070 0.984 . S
N1058 H1071 0.985 . S
N1059 C1061 1.356 . S
N1059 H1064 0.984 . S
N1059 H1065 0.985 . S
C1060 C1054 1.379 . S
C1060 C1057 1.363 . S
C1060 N1058 1.356 . S
C1061 C1055 1.363 . S
C1061 C1056 1.379 . S
C1061 N1059 1.356 . S
N1062 C1054 1.356 . S
N1062 H1068 0.984 . S
N1062 H1069 0.984 . S
N1063 C1056 1.356 . S
N1063 H1066 0.984 . S
N1063 H1067 0.985 . S
H1064 N1059 0.984 . S
H1065 N1059 0.985 . S
H1066 N1063 0.984 . S
H1067 N1063 0.985 . S
H1068 N1062 0.984 . S
H1069 N1062 0.984 . S
H1070 N1058 0.984 . S
H1071 N1058 0.985 . S
C1072 C1073 1.363 . S
C1072 C1078 1.379 . S
C1072 N1080 1.356 . S
C1073 C1072 1.363 . S
C1073 C1079 1.363 . S
C1074 C1075 1.363 . S
C1074 C1079 1.379 . S
C1074 N1081 1.356 . S
C1075 C1074 1.363 . S
C1075 C1078 1.363 . S
N1076 C1078 1.356 . S
N1076 H1088 0.984 . S
N1076 H1089 0.985 . S
N1077 C1079 1.356 1_554 S
N1077 H1082 0.984 . S
N1077 H1083 0.985 . S
C1078 C1072 1.379 . S
C1078 C1075 1.363 . S
C1078 N1076 1.356 . S
C1079 C1073 1.363 . S
C1079 C1074 1.379 . S
C1079 N1077 1.356 1_556 S
N1080 C1072 1.356 . S
N1080 H1086 0.984 . S
N1080 H1087 0.984 1_556 S
N1081 C1074 1.356 . S
N1081 H1084 0.984 . S
N1081 H1085 0.985 . S
H1082 N1077 0.984 . S
H1083 N1077 0.985 . S
H1084 N1081 0.984 . S
H1085 N1081 0.985 . S
H1086 N1080 0.984 . S
H1087 N1080 0.984 1_554 S
H1088 N1076 0.984 . S
H1089 N1076 0.985 . S
C1090 C1091 1.363 . S
C1090 C1096 1.379 . S
C1090 N1098 1.356 . S
C1091 C1090 1.363 . S
C1091 C1097 1.363 . S
C1092 C1093 1.363 1_554 S
C1092 C1097 1.379 1_554 S
C1092 N1099 1.356 . S
C1093 C1092 1.363 1_556 S
C1093 C1096 1.363 . S
N1094 C1096 1.356 . S
N1094 H1106 0.984 . S
N1094 H1107 0.985 . S
N1095 C1097 1.356 . S
N1095 H1100 0.984 . S
N1095 H1101 0.985 . S
C1096 C1090 1.379 . S
C1096 C1093 1.363 . S
C1096 N1094 1.356 . S
C1097 C1091 1.363 . S
C1097 C1092 1.379 1_556 S
C1097 N1095 1.356 . S
N1098 C1090 1.356 . S
N1098 H1104 0.984 . S
N1098 H1105 0.984 . S
N1099 C1092 1.356 . S
N1099 H1102 0.984 . S
N1099 H1103 0.985 . S
H1100 N1095 0.984 . S
H1101 N1095 0.985 . S
H1102 N1099 0.984 . S
H1103 N1099 0.985 . S
H1104 N1098 0.984 . S
H1105 N1098 0.984 . S
H1106 N1094 0.984 . S
H1107 N1094 0.985 . S
C1108 C1109 1.363 . S
C1108 C1114 1.379 . S
C1108 N1116 1.356 . S
C1109 C1108 1.363 . S
C1109 C1115 1.364 . S
C1110 C1111 1.363 . S
C1110 C1115 1.391 . S
C1110 N1117 1.356 . S
C1111 C1110 1.363 . S
C1111 C1114 1.363 . S
N1112 C1114 1.356 . S
N1112 H1124 0.984 . S
N1112 H1125 0.985 . S
N1113 C1115 1.341 1_554 S
N1113 H1118 0.984 . S
N1113 H1119 0.985 . S
C1114 C1108 1.379 . S
C1114 C1111 1.363 . S
C1114 N1112 1.356 . S
C1115 C1109 1.364 . S
C1115 C1110 1.391 . S
C1115 N1113 1.341 1_556 S
N1116 C1108 1.356 . S
N1116 H1122 0.984 1_455 S
N1116 H1123 0.984 . S
N1117 C1110 1.356 . S
N1117 H1120 0.984 . S
N1117 H1121 0.985 . S
H1118 N1113 0.984 . S
H1119 N1113 0.985 . S
H1120 N1117 0.984 . S
H1121 N1117 0.985 . S
H1122 N1116 0.984 1_655 S
H1123 N1116 0.984 . S
H1124 N1112 0.984 . S
H1125 N1112 0.985 . S
C1126 C1127 1.363 . S
C1126 C1132 1.379 . S
C1126 N1134 1.356 . S
C1127 C1126 1.363 . S
C1127 C1133 1.363 . S
C1128 C1129 1.363 . S
C1128 C1133 1.379 . S
C1128 N1135 1.356 . S
C1129 C1128 1.363 . S
C1129 C1132 1.363 . S
N1130 C1132 1.356 . S
N1130 H1142 0.984 . S
N1130 H1143 0.985 . S
N1131 C1133 1.356 1_554 S
N1131 H1136 0.984 . S
N1131 H1137 0.985 . S
C1132 C1126 1.379 . S
C1132 C1129 1.363 . S
C1132 N1130 1.356 . S
C1133 C1127 1.363 . S
C1133 C1128 1.379 . S
C1133 N1131 1.356 1_556 S
N1134 C1126 1.356 . S
N1134 H1140 0.984 . S
N1134 H1141 0.984 1_556 S
N1135 C1128 1.356 . S
N1135 H1138 0.984 . S
N1135 H1139 0.985 . S
H1136 N1131 0.984 . S
H1137 N1131 0.985 . S
H1138 N1135 0.984 . S
H1139 N1135 0.985 . S
H1140 N1134 0.984 . S
H1141 N1134 0.984 1_554 S
H1142 N1130 0.984 . S
H1143 N1130 0.985 . S
C1144 C1145 1.363 . S
C1144 C1150 1.379 . S
C1144 N1152 1.356 . S
C1145 C1144 1.363 . S
C1145 C1151 1.363 . S
C1146 C1147 1.363 . S
C1146 C1151 1.379 . S
C1146 N1153 1.356 . S
C1147 C1146 1.363 . S
C1147 C1150 1.363 . S
N1148 C1150 1.356 . S
N1148 H1160 0.984 . S
N1148 H1161 0.985 . S
N1149 C1151 1.356 . S
N1149 H1154 0.984 . S
N1149 H1155 0.985 . S
C1150 C1144 1.379 . S
C1150 C1147 1.363 . S
C1150 N1148 1.356 . S
C1151 C1145 1.363 . S
C1151 C1146 1.379 . S
C1151 N1149 1.356 . S
N1152 C1144 1.356 . S
N1152 H1158 0.984 . S
N1152 H1159 0.984 . S
N1153 C1146 1.356 . S
N1153 H1156 0.984 . S
N1153 H1157 0.985 . S
H1154 N1149 0.984 . S
H1155 N1149 0.985 . S
H1156 N1153 0.984 . S
H1157 N1153 0.985 . S
H1158 N1152 0.984 . S
H1159 N1152 0.984 . S
H1160 N1148 0.984 . S
H1161 N1148 0.985 . S
C1162 C1163 1.363 . S
C1162 C1168 1.379 . S
C1162 N1170 1.356 . S
C1163 C1162 1.363 . S
C1163 C1169 1.363 . S
C1164 C1165 1.363 . S
C1164 C1169 1.379 . S
C1164 N1171 1.356 . S
C1165 C1164 1.363 . S
C1165 C1168 1.363 . S
N1166 C1168 1.356 . S
N1166 H1178 0.984 . S
N1166 H1179 0.985 . S
N1167 C1169 1.356 . S
N1167 H1172 0.984 . S
N1167 H1173 0.985 1_565 S
C1168 C1162 1.379 . S
C1168 C1165 1.363 . S
C1168 N1166 1.356 . S
C1169 C1163 1.363 . S
C1169 C1164 1.379 . S
C1169 N1167 1.356 . S
N1170 C1162 1.356 . S
N1170 H1176 0.984 . S
N1170 H1177 0.984 . S
N1171 C1164 1.356 . S
N1171 H1174 0.984 . S
N1171 H1175 0.985 1_565 S
H1172 N1167 0.984 . S
H1173 N1167 0.985 1_545 S
H1174 N1171 0.984 . S
H1175 N1171 0.985 1_545 S
H1176 N1170 0.984 . S
H1177 N1170 0.984 . S
H1178 N1166 0.984 . S
H1179 N1166 0.985 . S
C1180 C1181 1.363 . S
C1180 C1186 1.379 . S
C1180 N1188 1.356 . S
C1181 C1180 1.363 . S
C1181 C1187 1.363 . S
C1182 C1183 1.363 . S
C1182 C1187 1.379 . S
C1182 N1189 1.356 . S
C1183 C1182 1.363 . S
C1183 C1186 1.363 . S
N1184 C1186 1.356 . S
N1184 H1196 0.984 . S
N1184 H1197 0.985 . S
N1185 C1187 1.356 . S
N1185 H1190 0.984 . S
N1185 H1191 0.985 . S
C1186 C1180 1.379 . S
C1186 C1183 1.363 . S
C1186 N1184 1.356 . S
C1187 C1181 1.363 . S
C1187 C1182 1.379 . S
C1187 N1185 1.356 . S
N1188 C1180 1.356 . S
N1188 H1194 0.984 . S
N1188 H1195 0.984 . S
N1189 C1182 1.356 . S
N1189 H1192 0.984 . S
N1189 H1193 0.985 . S
H1190 N1185 0.984 . S
H1191 N1185 0.985 . S
H1192 N1189 0.984 . S
H1193 N1189 0.985 . S
H1194 N1188 0.984 . S
H1195 N1188 0.984 . S
H1196 N1184 0.984 . S
H1197 N1184 0.985 . S
C1198 C1199 1.363 . S
C1198 C1204 1.379 . S
C1198 N1206 1.356 . S
C1199 C1198 1.363 . S
C1199 C1205 1.363 . S
C1200 C1201 1.363 . S
C1200 C1205 1.379 . S
C1200 N1207 1.356 . S
C1201 C1200 1.363 . S
C1201 C1204 1.363 . S
N1202 C1204 1.356 . S
N1202 H1214 0.984 . S
N1202 H1215 0.985 . S
N1203 C1205 1.356 . S
N1203 H1208 0.984 . S
N1203 H1209 0.985 . S
C1204 C1198 1.379 . S
C1204 C1201 1.363 . S
C1204 N1202 1.356 . S
C1205 C1199 1.363 . S
C1205 C1200 1.379 . S
C1205 N1203 1.356 . S
N1206 C1198 1.356 . S
N1206 H1212 0.984 . S
N1206 H1213 0.984 . S
N1207 C1200 1.356 . S
N1207 H1210 0.984 . S
N1207 H1211 0.985 . S
H1208 N1203 0.984 . S
H1209 N1203 0.985 . S
H1210 N1207 0.984 . S
H1211 N1207 0.985 . S
H1212 N1206 0.984 . S
H1213 N1206 0.984 . S
H1214 N1202 0.984 . S
H1215 N1202 0.985 . S
C353 C10 1.409 . S
C355 C120 1.409 . S
C371 C30 1.409 . S
C373 C150 1.409 . S
C389 C172 1.409 . S
C391 C52 1.409 . S
C407 C98 1.409 . S
C409 C76 1.409 . S
C425 C194 1.403 . S
C427 C296 1.403 . S
C443 C206 1.403 . S
C445 C316 1.403 . S
C461 C238 1.403 . S
C463 C340 1.403 . S
C479 C252 1.403 . S
C481 C272 1.403 . S
C497 C7 1.085 . S
C499 C191 1.075 . S
C515 C37 1.085 . S
C517 C205 1.075 . S
C533 C235 1.075 . S
C535 C59 1.085 . S
C551 C263 1.075 . S
C553 C73 1.085 . S
C569 C95 1.085 . S
C571 C271 1.075 . S
C587 C117 1.085 . S
C589 C307 1.075 . S
C605 C315 1.075 . S
C607 C153 1.085 . S
C623 C351 1.075 . S
C625 C175 1.085 . S
C641 C18 1.601 . S
C643 C40 1.568 . S
C659 C32 1.601 . S
C661 C62 1.568 . S
C677 C74 1.568 . S
C679 C54 1.601 . S
C695 C84 1.601 . S
C697 C8 1.568 . S
C713 C106 1.601 . S
C715 C164 1.568 . S
C731 C128 1.601 . S
C733 C96 1.568 . S
C749 C140 1.601 . S
C751 C118 1.568 . S
C767 C162 1.601 . S
C769 C142 1.568 . S
C785 C186 1.591 . S
C787 C208 1.566 . S
C803 C228 1.566 . S
C805 C216 1.591 . S
C821 C260 1.566 . S
C823 C230 1.591 . S
C839 C184 1.566 . S
C841 C250 1.591 . S
C857 C282 1.591 . S
C859 C348 1.566 . S
C875 C294 1.591 . S
C877 C274 1.566 . S
C893 C304 1.566 . S
C895 C326 1.591 . S
C911 C338 1.591 . S
C913 C318 1.566 . S
C929 C15 1.632 . S
C931 C213 1.683 1_554 S
C947 C241 1.683 1_554 S
C949 C43 1.632 . S
C965 C65 1.632 . S
C967 C249 1.683 1_554 S
C983 C197 1.683 1_554 S
C985 C81 1.632 . S
C1001 C103 1.632 . S
C1003 C337 1.683 . S
C1019 C279 1.683 . S
C1021 C125 1.632 . S
C1037 C293 1.683 . S
C1039 C139 1.632 . S
C1055 C161 1.632 . S
C1057 C323 1.683 . S
C1073 C29 1.685 1_556 S
C1075 C183 1.631 . S
C1091 C219 1.631 . S
C1093 C51 1.685 1_556 S
C1109 C87 1.685 1_556 S
C1111 C227 1.631 . S
C1127 C21 1.685 1_556 S
C1129 C257 1.631 . S
C1145 C169 1.685 . S
C1147 C285 1.631 . S
C1163 C301 1.631 . S
C1165 C109 1.685 . S
C1181 C329 1.631 . S
C1183 C131 1.685 . S
C1199 C345 1.631 . S
C1201 C147 1.685 . S
