# Generated by pormake.
# Topology sxa, (6)-cn, num edge types: 1
# Building blocks:
#     Node 0, Type 0, BuildingBlock: MIFKUJ_clean_sbu_0, # of connection points: 6
#     Node 1, Type 0, BuildingBlock: MIFKUJ_clean_sbu_0, # of connection points: 6
#     Node 2, Type 0, BuildingBlock: MIFKUJ_clean_sbu_0, # of connection points: 6
#     Node 3, Type 0, BuildingBlock: MIFKUJ_clean_sbu_0, # of connection points: 6
#     Edge 4, Type (0, 0), BuildingBlock: FUNLAD_clean_linker_1, # of connection points: 2
#     Edge 5, Type (0, 0), BuildingBlock: FUNLAD_clean_linker_1, # of connection points: 2
#     Edge 6, Type (0, 0), BuildingBlock: FUNLAD_clean_linker_1, # of connection points: 2
#     Edge 7, Type (0, 0), BuildingBlock: FUNLAD_clean_linker_1, # of connection points: 2
#     Edge 8, Type (0, 0), BuildingBlock: FUNLAD_clean_linker_1, # of connection points: 2
#     Edge 9, Type (0, 0), BuildingBlock: FUNLAD_clean_linker_1, # of connection points: 2
#     Edge 10, Type (0, 0), BuildingBlock: FUNLAD_clean_linker_1, # of connection points: 2
#     Edge 11, Type (0, 0), BuildingBlock: FUNLAD_clean_linker_1, # of connection points: 2
#     Edge 12, Type (0, 0), BuildingBlock: FUNLAD_clean_linker_1, # of connection points: 2
#     Edge 13, Type (0, 0), BuildingBlock: FUNLAD_clean_linker_1, # of connection points: 2
#     Edge 14, Type (0, 0), BuildingBlock: FUNLAD_clean_linker_1, # of connection points: 2
#     Edge 15, Type (0, 0), BuildingBlock: FUNLAD_clean_linker_1, # of connection points: 2
# Relax obj value: 0.125
# Max RMSD: 0.251
# Mean RMSD: 0.251
data_MOF--net-sxa--node1-MIFKUJ_clean_sbu_0--edge1-FUNLAD_clean_linker_1
_symmetry_space_group_name_H-M    P1
_symmetry_Int_Tables_number       1
_symmetry_cell_setting            triclinic
loop_
_symmetry_equiv_pos_as_xyz
'x, y, z'
_cell_length_a     32.390757
_cell_length_b     27.554785
_cell_length_c     14.998935
_cell_angle_alpha  97.859123
_cell_angle_beta   90.743117
_cell_angle_gamma 90.04105
loop_
_atom_site_label
_atom_site_type_symbol
_atom_site_fract_x
_atom_site_fract_y
_atom_site_fract_z
_atom_type_partial_charge
Zn0 Zn 0.95768 0.75059 0.22686 0.0
Zn1 Zn 0.08067 0.74328 0.15782 0.0
C2 C 0.89664 0.7362 0.35592 0.0
O3 O 0.88904 0.69869 0.2938 0.0
C4 C 0.08269 0.74616 0.96543 0.0
O5 O 0.04717 0.76901 0.97568 0.0
O6 O 0.91082 0.74308 0.13888 0.0
O7 O 0.98613 0.81139 0.19445 0.0
O8 O 0.05247 0.80909 0.15856 0.0
C9 C 0.88236 0.77479 0.14746 0.0
O10 O 0.8858 0.81314 0.20968 0.0
O11 O 0.92803 0.76306 0.34745 0.0
C12 C 0.1655 0.72792 0.21475 0.0
O13 O 0.16664 0.70365 0.13323 0.0
O14 O 0.13173 0.74803 0.24292 0.0
O15 O 0.04865 0.68054 0.16035 0.0
O16 O 0.98315 0.68312 0.20286 0.0
O17 O 0.10154 0.73278 0.03277 0.0
C18 C 0.01849 0.83199 0.17037 0.0
C19 C 0.01526 0.65924 0.17628 0.0
Zn20 Zn 0.43514 0.29992 0.20485 0.0
Zn21 Zn 0.54753 0.31679 0.22597 0.0
C22 C 0.40039 0.27627 0.36024 0.0
O23 O 0.4027 0.23386 0.30843 0.0
C24 C 0.61193 0.36551 0.14686 0.0
O25 O 0.61421 0.3911 0.22739 0.0
O26 O 0.37955 0.28607 0.15219 0.0
O27 O 0.45643 0.35698 0.14757 0.0
O28 O 0.50823 0.37538 0.24221 0.0
C29 C 0.35025 0.31478 0.17793 0.0
O30 O 0.35798 0.35644 0.2293 0.0
O31 O 0.4197 0.31267 0.33674 0.0
C32 C 0.61037 0.28141 0.3409 0.0
O33 O 0.60645 0.24164 0.28229 0.0
O34 O 0.58625 0.31735 0.33507 0.0
O35 O 0.53094 0.246 0.17654 0.0
O36 O 0.46308 0.23641 0.16807 0.0
O37 O 0.58413 0.33315 0.12965 0.0
C38 C 0.48551 0.38571 0.17768 0.0
C39 C 0.49915 0.21927 0.15733 0.0
Zn40 Zn 0.94466 0.21789 0.83033 0.0
Zn41 Zn 0.05311 0.23677 0.77665 0.0
C42 C 0.88701 0.25088 0.70535 0.0
O43 O 0.88697 0.28852 0.76938 0.0
C44 C 0.06659 0.25534 0.97193 0.0
O45 O 0.04286 0.21729 0.9776 0.0
O46 O 0.90179 0.2173 0.92292 0.0
O47 O 0.97843 0.15759 0.84148 0.0
O48 O 0.04239 0.16498 0.7931 0.0
C49 C 0.86828 0.1943 0.90446 0.0
O50 O 0.86344 0.1669 0.82617 0.0
O51 O 0.91222 0.21596 0.71165 0.0
C52 C 0.13284 0.21403 0.70524 0.0
O53 O 0.13063 0.18328 0.76453 0.0
O54 O 0.10171 0.24064 0.69324 0.0
O55 O 0.00809 0.28287 0.7468 0.0
O56 O 0.9713 0.28321 0.86797 0.0
O57 O 0.07411 0.2685 0.89596 0.0
C58 C 0.01415 0.13997 0.82411 0.0
C59 C 0.99261 0.30628 0.81735 0.0
Zn60 Zn 0.44576 0.7889 0.85381 0.0
Zn61 Zn 0.53192 0.7689 0.75717 0.0
C62 C 0.39024 0.81348 0.71996 0.0
O63 O 0.38604 0.84987 0.78543 0.0
C64 C 0.58715 0.739 0.883 0.0
O65 O 0.58722 0.70028 0.82117 0.0
O66 O 0.39689 0.80123 0.93233 0.0
O67 O 0.47058 0.72749 0.88726 0.0
O68 O 0.49772 0.70532 0.75462 0.0
C69 C 0.37049 0.76694 0.92263 0.0
O70 O 0.38025 0.72474 0.8758 0.0
O71 O 0.41822 0.78158 0.72744 0.0
C72 C 0.6101 0.78154 0.67575 0.0
O73 O 0.61192 0.81796 0.74212 0.0
O74 O 0.57742 0.75558 0.66441 0.0
O75 O 0.51147 0.83928 0.75104 0.0
O76 O 0.48079 0.84841 0.88207 0.0
O77 O 0.56291 0.77411 0.87385 0.0
C78 C 0.48474 0.69422 0.82916 0.0
C79 C 0.50126 0.86641 0.82306 0.0
H80 H 0.02503 0.37643 0.80675 0.0
C81 C 0.00502 0.35779 0.84879 0.0
H82 H 0.9737 0.36217 0.97233 0.0
H83 H 0.0768 0.53027 0.195 0.0
H84 H 0.10313 0.45938 0.25766 0.0
H85 H 0.08472 0.37564 0.18857 0.0
H86 H 0.04018 0.36215 0.05595 0.0
C87 C 0.99256 0.38134 0.92887 0.0
C88 C 0.00593 0.43219 0.96587 0.0
C89 C 0.0315 0.43971 0.04426 0.0
C90 C 0.04186 0.4881 0.08475 0.0
C91 C 0.0679 0.49431 0.16202 0.0
C92 C 0.0832 0.45399 0.19861 0.0
C93 C 0.07285 0.40682 0.15967 0.0
C94 C 0.04728 0.39957 0.08355 0.0
H95 H 0.98335 0.58783 0.17031 0.0
C96 C 0.01098 0.60558 0.14982 0.0
H97 H 0.06323 0.59746 0.06582 0.0
H98 H 0.95386 0.43165 0.82027 0.0
H99 H 0.92811 0.50251 0.75773 0.0
H100 H 0.94744 0.58615 0.82582 0.0
H101 H 0.99233 0.59946 0.95764 0.0
C102 C 0.03648 0.57992 0.09067 0.0
C103 C 0.02608 0.52909 0.04802 0.0
C104 C 0.0008 0.5217 0.96926 0.0
C105 C 0.99041 0.47331 0.92863 0.0
C106 C 0.96365 0.46737 0.8525 0.0
C107 C 0.94846 0.50779 0.81609 0.0
C108 C 0.95929 0.55489 0.85452 0.0
C109 C 0.98508 0.562 0.93022 0.0
H110 H 0.50932 0.46162 0.18192 0.0
C111 C 0.4907 0.43332 0.14284 0.0
H112 H 0.45501 0.41341 0.02505 0.0
H113 H 0.40074 0.61957 0.93922 0.0
H114 H 0.33588 0.58506 0.97962 0.0
H115 H 0.33421 0.50738 0.04398 0.0
H116 H 0.39728 0.46365 0.0681 0.0
C117 C 0.47371 0.44179 0.06373 0.0
C118 C 0.47587 0.4904 0.02932 0.0
C119 C 0.43866 0.5159 0.01604 0.0
C120 C 0.43966 0.56128 0.98046 0.0
C121 C 0.40189 0.58546 0.96738 0.0
C122 C 0.36438 0.56599 0.98997 0.0
C123 C 0.36344 0.52221 0.02603 0.0
C124 C 0.39997 0.49735 0.03914 0.0
H125 H 0.49646 0.614 0.79822 0.0
C126 C 0.48713 0.64306 0.85037 0.0
H127 H 0.46838 0.66159 0.98506 0.0
H128 H 0.55266 0.44899 0.03462 0.0
H129 H 0.61764 0.48542 1.00021 0.0
H130 H 0.61963 0.56681 0.94922 0.0
H131 H 0.55651 0.61171 0.93012 0.0
C132 C 0.47837 0.63251 0.93354 0.0
C133 C 0.47783 0.58179 0.95883 0.0
C134 C 0.51509 0.55638 0.97182 0.0
C135 C 0.51407 0.51025 1.00532 0.0
C136 C 0.55164 0.48487 0.01322 0.0
C137 C 0.5892 0.50524 0.99305 0.0
C138 C 0.59031 0.55099 0.96404 0.0
C139 C 0.55381 0.57637 0.95322 0.0
H140 H 0.5303 0.9346 0.78825 0.0
C141 C 0.51423 0.91866 0.8404 0.0
H142 H 0.49286 0.92918 0.97401 0.0
H143 H 0.59309 0.10572 0.15777 0.0
H144 H 0.63114 0.03932 0.21159 0.0
H145 H 0.61967 0.95359 0.1435 0.0
H146 H 0.57003 0.93365 0.02112 0.0
C147 C 0.50725 0.94595 0.92068 0.0
C148 C 0.52099 0.99793 0.94543 0.0
C149 C 0.55073 1.0093 0.01561 0.0
C150 C 0.55765 0.05884 0.05449 0.0
C151 C 0.58678 0.06878 0.12581 0.0
C152 C 0.60884 0.03103 0.15724 0.0
C153 C 0.60235 0.98275 0.11895 0.0
C154 C 0.57366 0.97179 0.04905 0.0
H155 H 0.47457 0.14555 0.11257 0.0
C156 C 0.50262 0.16751 0.11599 0.0
H157 H 0.56499 0.1687 0.0759 0.0
H158 H 0.46359 0.9901 0.80811 0.0
H159 H 0.43012 0.05696 0.7465 0.0
H160 H 0.44556 0.14286 0.8076 0.0
H161 H 0.49405 0.16232 0.93215 0.0
C162 C 0.53643 0.14787 0.07413 0.0
C163 C 0.53476 0.09709 0.02336 0.0
C164 C 0.50805 0.08617 0.94731 0.0
C165 C 0.50049 0.03656 0.90948 0.0
C166 C 0.47149 0.02693 0.83779 0.0
C167 C 0.45193 0.06503 0.80185 0.0
C168 C 0.46053 0.1134 0.83642 0.0
C169 C 0.48819 0.12405 0.9083 0.0
H170 H 0.9852 0.90061 0.15545 0.0
C171 C 0.01396 0.88103 0.14053 0.0
H172 H 0.06949 0.879 0.06749 0.0
H173 H 0.95176 1.00843 0.82457 0.0
H174 H 0.91386 0.93245 0.78464 0.0
H175 H 0.93018 0.85971 0.8576 0.0
H176 H 0.98411 0.86251 0.97142 0.0
C177 C 0.04083 0.89832 0.08426 0.0
C178 C 0.03147 0.94213 0.03808 0.0
C179 C 0.00024 0.93969 0.97014 0.0
C180 C 0.99131 0.98149 0.92666 0.0
C181 C 0.95972 0.97794 0.85988 0.0
C182 C 0.93783 0.93449 0.836 0.0
C183 C 0.94699 0.89354 0.87715 0.0
C184 C 0.97789 0.89581 0.94305 0.0
H185 H 0.05498 0.07598 0.83298 0.0
C186 C 0.02516 0.09184 0.85233 0.0
H187 H 0.97168 0.08614 0.92945 0.0
H188 H 0.09521 0.95829 0.15934 0.0
H189 H 0.13389 0.03392 0.19775 0.0
H190 H 0.11756 0.10679 0.12506 0.0
H191 H 0.06291 0.10446 0.01296 0.0
C192 C 0.00151 0.0705 0.90965 0.0
C193 C 0.01412 0.02554 0.94923 0.0
C194 C 0.04609 0.0276 0.01554 0.0
C195 C 0.05502 0.98574 0.05902 0.0
C196 C 0.08711 0.98894 0.12457 0.0
C197 C 0.10949 0.03214 0.14738 0.0
C198 C 0.10033 0.07316 0.10637 0.0
C199 C 0.06894 0.07121 0.04158 0.0
H200 H 0.32972 0.82828 0.66296 0.0
C201 C 0.35775 0.80709 0.64872 0.0
H202 H 0.38776 0.75549 0.55527 0.0
H203 H 0.22239 0.66384 0.37258 0.0
H204 H 0.25883 0.59323 0.41282 0.0
H205 H 0.32525 0.6027 0.49549 0.0
H206 H 0.35551 0.68281 0.53886 0.0
C207 C 0.36012 0.77722 0.57002 0.0
C208 C 0.32379 0.77087 0.5054 0.0
C209 C 0.30701 0.72345 0.47771 0.0
C210 C 0.26886 0.71785 0.42828 0.0
C211 C 0.25186 0.67025 0.40672 0.0
C212 C 0.27229 0.62931 0.43025 0.0
C213 C 0.30965 0.63465 0.47693 0.0
C214 C 0.32678 0.68102 0.50118 0.0
H215 H 0.23179 0.7159 0.23759 0.0
C216 C 0.20416 0.73206 0.26954 0.0
H217 H 0.18018 0.77243 0.387 0.0
H218 H 0.353 0.86501 0.52186 0.0
H219 H 0.31762 0.93557 0.47751 0.0
H220 H 0.24951 0.92669 0.40154 0.0
H221 H 0.21681 0.84709 0.36781 0.0
C222 C 0.20707 0.75457 0.35486 0.0
C223 C 0.24775 0.75959 0.4047 0.0
C224 C 0.26566 0.80668 0.42814 0.0
C225 C 0.30417 0.81215 0.47583 0.0
C226 C 0.32272 0.85916 0.49107 0.0
C227 C 0.30299 0.89991 0.46479 0.0
C228 C 0.26471 0.89489 0.42178 0.0
C229 C 0.24623 0.84893 0.40309 0.0
H230 H 0.19742 0.19484 0.67293 0.0
C231 C 0.17228 0.21886 0.65861 0.0
H232 H 0.15423 0.27617 0.58595 0.0
H233 H 0.36021 0.28838 0.60483 0.0
H234 H 0.35015 0.32289 0.76051 0.0
H235 H 0.28048 0.3289 0.82544 0.0
H236 H 0.22047 0.29913 0.73562 0.0
C237 C 0.17898 0.25233 0.60298 0.0
C238 C 0.22009 0.25592 0.56031 0.0
C239 C 0.25471 0.27523 0.61254 0.0
C240 C 0.29477 0.27368 0.57391 0.0
C241 C 0.32898 0.29031 0.62949 0.0
C242 C 0.32366 0.30998 0.71922 0.0
C243 C 0.28444 0.31325 0.75586 0.0
C244 C 0.25028 0.2959 0.70364 0.0
H245 H 0.35871 0.32192 0.45328 0.0
C246 C 0.36657 0.2845 0.42627 0.0
H247 H 0.34911 0.21019 0.41164 0.0
H248 H 0.16012 0.21834 0.44049 0.0
H249 H 0.16935 0.18767 0.28252 0.0
H250 H 0.23772 0.19 0.21275 0.0
H251 H 0.29752 0.22149 0.30098 0.0
C252 C 0.34175 0.24729 0.44163 0.0
C253 C 0.29987 0.25464 0.48194 0.0
C254 C 0.26472 0.23812 0.42845 0.0
C255 C 0.22498 0.23821 0.4679 0.0
C256 C 0.19092 0.21944 0.41373 0.0
C257 C 0.19577 0.20173 0.32298 0.0
C258 C 0.23428 0.20292 0.28374 0.0
C259 C 0.2684 0.22099 0.33535 0.0
H260 H 0.85311 0.2124 0.58673 0.0
C261 C 0.85419 0.24578 0.63457 0.0
H262 H 0.82414 0.31181 0.68331 0.0
H263 H 0.72919 0.25935 0.28572 0.0
H264 H 0.79604 0.2673 0.21867 0.0
H265 H 0.85915 0.27823 0.3133 0.0
H266 H 0.85568 0.28094 0.47525 0.0
C267 C 0.82395 0.27938 0.63311 0.0
C268 C 0.7863 0.27108 0.57376 0.0
C269 C 0.78883 0.26967 0.47902 0.0
C270 C 0.75229 0.26384 0.42441 0.0
C271 C 0.75582 0.26314 0.33019 0.0
C272 C 0.79404 0.26793 0.29085 0.0
C273 C 0.82955 0.27405 0.34412 0.0
C274 C 0.82715 0.27522 0.4371 0.0
H275 H 0.64735 0.31996 0.45443 0.0
C276 C 0.64514 0.28654 0.40687 0.0
H277 H 0.67415 0.22023 0.35528 0.0
H278 H 0.77003 0.27204 0.75223 0.0
H279 H 0.70316 0.26413 0.81936 0.0
H280 H 0.64019 0.25252 0.72466 0.0
H281 H 0.64373 0.2493 0.56277 0.0
C282 C 0.67521 0.2526 0.4056 0.0
C283 C 0.71307 0.25998 0.46433 0.0
C284 C 0.71056 0.26117 0.559 0.0
C285 C 0.74706 0.26715 0.61359 0.0
C286 C 0.74344 0.26809 0.70782 0.0
C287 C 0.70522 0.26329 0.74718 0.0
C288 C 0.66978 0.2568 0.69387 0.0
C289 C 0.67225 0.25539 0.60089 0.0
H290 H 0.87219 0.783 0.47603 0.0
C291 C 0.86554 0.75154 0.42589 0.0
H292 H 0.82046 0.70055 0.36971 0.0
H293 H 0.72576 0.75368 0.75307 0.0
H294 H 0.78387 0.71638 0.82098 0.0
H295 H 0.84652 0.69311 0.73343 0.0
H296 H 0.8515 0.70758 0.57784 0.0
C297 C 0.82794 0.73028 0.42285 0.0
C298 C 0.79307 0.75025 0.48083 0.0
C299 C 0.79071 0.74167 0.5717 0.0
C300 C 0.75454 0.75517 0.62227 0.0
C301 C 0.75274 0.74522 0.71232 0.0
C302 C 0.78578 0.72343 0.75186 0.0
C303 C 0.82103 0.71031 0.70254 0.0
C304 C 0.82352 0.71891 0.61332 0.0
H305 H 0.6434 0.73987 0.56194 0.0
C306 C 0.64642 0.76902 0.61829 0.0
H307 H 0.6869 0.81924 0.69434 0.0
H308 H 0.78952 0.77724 0.31254 0.0
H309 H 0.73233 0.81744 0.2462 0.0
H310 H 0.6697 0.84045 0.33324 0.0
H311 H 0.66373 0.82366 0.48693 0.0
C312 C 0.68316 0.79152 0.63594 0.0
C313 C 0.72071 0.77712 0.58194 0.0
C314 C 0.72371 0.78734 0.49209 0.0
C315 C 0.75988 0.77392 0.44169 0.0
C316 C 0.76232 0.7854 0.35274 0.0
C317 C 0.72991 0.80882 0.31418 0.0
C318 C 0.69465 0.82187 0.36327 0.0
C319 C 0.69152 0.81169 0.45137 0.0
H320 H 0.31948 0.81784 0.9593 0.0
C321 C 0.3271 0.77946 0.93977 0.0
H322 H 0.30444 0.70844 0.89587 0.0
H323 H 0.13828 0.84251 0.03385 0.0
H324 H 0.17125 0.85822 0.18053 0.0
H325 H 0.24191 0.82881 0.2047 0.0
H326 H 0.27965 0.7836 0.08262 0.0
C327 C 0.29688 0.74656 0.91825 0.0
C328 C 0.25371 0.76266 0.90628 0.0
C329 C 0.23176 0.78814 0.9794 0.0
C330 C 0.1906 0.8036 0.96594 0.0
C331 C 0.16937 0.82922 0.04001 0.0
C332 C 0.18799 0.83865 0.12481 0.0
C333 C 0.22776 0.82222 0.13843 0.0
C334 C 0.24934 0.79679 0.06719 0.0
H335 H 0.12381 0.71429 0.86337 0.0
C336 C 0.10684 0.74786 0.88472 0.0
H337 H 0.10904 0.82443 0.90053 0.0
H338 H 0.28773 0.71666 0.74977 0.0
H339 H 0.25273 0.69709 0.60629 0.0
H340 H 0.1814 0.72423 0.58332 0.0
H341 H 0.14336 0.76857 0.70789 0.0
C342 C 0.12506 0.79064 0.8763 0.0
C343 C 0.17084 0.791 0.88077 0.0
C344 C 0.19329 0.76755 0.80711 0.0
C345 C 0.23472 0.75303 0.81978 0.0
C346 C 0.256 0.72833 0.745 0.0
C347 C 0.23649 0.71745 0.66141 0.0
C348 C 0.19614 0.7323 0.64888 0.0
C349 C 0.17465 0.7573 0.72072 0.0
H350 H 0.10546 0.31254 0.04293 0.0
C351 C 0.09231 0.27665 0.04795 0.0
H352 H 0.10134 0.21035 0.10115 0.0
H353 H 0.2783 0.29407 0.99958 0.0
H354 H 0.2643 0.23573 0.86662 0.0
H355 H 0.20099 0.18572 0.85411 0.0
H356 H 0.14981 0.19619 0.97254 0.0
C357 C 0.11115 0.24811 0.10132 0.0
C358 C 0.15425 0.26121 0.12786 0.0
C359 C 0.18502 0.25132 0.06169 0.0
C360 C 0.2232 0.2765 0.07266 0.0
C361 C 0.25052 0.27226 0.9988 0.0
C362 C 0.24248 0.23964 0.92113 0.0
C363 C 0.20663 0.21175 0.91378 0.0
C364 C 0.17772 0.218 0.98228 0.0
H365 H 0.30393 0.25822 0.13779 0.0
C366 C 0.30804 0.29709 0.16111 0.0
H367 H 0.27878 0.36507 0.19818 0.0
H368 H 0.10264 0.28399 0.269 0.0
H369 H 0.1199 0.33295 0.41249 0.0
H370 H 0.1897 0.36806 0.44124 0.0
H371 H 0.24215 0.35609 0.32634 0.0
C372 C 0.27506 0.32641 0.17291 0.0
C373 C 0.23287 0.30582 0.15581 0.0
C374 C 0.20303 0.31268 0.22494 0.0
C375 C 0.16319 0.2913 0.20973 0.0
C376 C 0.13332 0.29966 0.27794 0.0
C377 C 0.14292 0.32737 0.36042 0.0
C378 C 0.18223 0.34716 0.37658 0.0
C379 C 0.21205 0.34008 0.30989 0.0
H380 H 0.64265 0.34917 0.01739 0.0
C381 C 0.64796 0.36059 0.08896 0.0
H382 H 0.68934 0.35855 0.19802 0.0
H383 H 0.75266 0.15755 0.98588 0.0
H384 H 0.70015 0.12675 0.07801 0.0
H385 H 0.6533 0.18341 0.16857 0.0
H386 H 0.65888 0.27142 0.16844 0.0
C387 C 0.68481 0.35239 0.12536 0.0
C388 C 0.71384 0.31895 0.07274 0.0
C389 C 0.7103 0.26772 0.07473 0.0
C390 C 0.73714 0.23498 0.02264 0.0
C391 C 0.733 0.18399 0.02481 0.0
C392 C 0.70299 0.16583 0.07717 0.0
C393 C 0.67657 0.1978 0.12816 0.0
C394 C 0.68004 0.24816 0.12724 0.0
H395 H 0.83793 0.22403 0.02991 0.0
C396 C 0.83264 0.21032 0.95915 0.0
H397 H 0.79247 0.21064 0.84718 0.0
H398 H 0.72753 0.41485 0.05337 0.0
H399 H 0.77965 0.44544 0.95974 0.0
H400 H 0.82707 0.3885 0.87042 0.0
H401 H 0.82242 0.30084 0.87388 0.0
C402 C 0.79701 0.22004 0.91939 0.0
C403 C 0.76737 0.25363 0.96948 0.0
C404 C 0.77075 0.30477 0.96695 0.0
C405 C 0.74373 0.33754 0.0186 0.0
C406 C 0.74744 0.38843 0.01509 0.0
C407 C 0.77722 0.40643 0.96183 0.0
C408 C 0.80392 0.3744 0.91158 0.0
C409 C 0.80095 0.32417 0.91416 0.0
H410 H 0.84274 0.73296 0.04409 0.0
C411 C 0.84362 0.76407 0.09724 0.0
H412 H 0.80884 0.81932 0.17418 0.0
H413 H 0.66982 0.80326 0.86676 0.0
H414 H 0.7026 0.87923 0.84301 0.0
H415 H 0.76623 0.90761 0.92633 0.0
H416 H 0.79731 0.85987 0.03385 0.0
C417 C 0.80876 0.78808 0.12144 0.0
C418 C 0.76909 0.7724 0.07672 0.0
C419 C 0.7507 0.80152 0.01653 0.0
C420 C 0.7137 0.78556 0.96991 0.0
C421 C 0.69706 0.81426 0.90663 0.0
C422 C 0.71584 0.85784 0.89159 0.0
C423 C 0.75168 0.87376 0.93834 0.0
C424 C 0.76914 0.84602 0.99995 0.0
H425 H 0.61916 0.77899 1.00106 0.0
C426 C 0.62104 0.74752 0.94895 0.0
H427 H 0.65968 0.69254 0.88247 0.0
H428 H 0.79536 0.70935 0.19257 0.0
H429 H 0.76164 0.63432 0.21934 0.0
H430 H 0.69697 0.60689 0.13903 0.0
H431 H 0.66559 0.65475 0.03187 0.0
C432 C 0.65684 0.72349 0.93532 0.0
C433 C 0.69475 0.74107 0.98577 0.0
C434 C 0.71279 0.7124 0.04721 0.0
C435 C 0.75006 0.7281 0.09303 0.0
C436 C 0.76722 0.69909 0.1552 0.0
C437 C 0.74812 0.6559 0.17138 0.0
C438 C 0.71171 0.64048 0.12622 0.0
C439 C 0.69409 0.66824 0.06478 0.0
loop_
_geom_bond_atom_site_label_1
_geom_bond_atom_site_label_2
_geom_bond_distance
_geom_bond_site_symmetry_2
_ccdc_geom_bond_type
Zn0 O6 1.969 . S
Zn0 O7 1.965 . S
Zn0 O11 2.024 . S
Zn0 O16 1.969 . S
Zn1 O8 1.969 . S
Zn1 O14 1.969 . S
Zn1 O15 1.965 . S
Zn1 O17 2.024 . S
C2 O3 1.229 . S
C2 O11 1.058 . S
O3 C2 1.229 . S
C4 O5 1.229 . S
C4 O17 1.058 . S
O5 C4 1.229 . S
O6 Zn0 1.969 . S
O6 C9 1.267 . S
O7 Zn0 1.965 . S
O7 C18 1.260 1_655 S
O8 Zn1 1.969 . S
O8 C18 1.258 . S
C9 O6 1.267 . S
C9 O10 1.228 . S
O10 C9 1.228 . S
O11 Zn0 2.024 . S
O11 C2 1.058 . S
C12 O13 1.228 . S
C12 O14 1.267 . S
O13 C12 1.228 . S
O14 Zn1 1.969 . S
O14 C12 1.267 . S
O15 Zn1 1.965 . S
O15 C19 1.260 . S
O16 Zn0 1.969 . S
O16 C19 1.258 1_655 S
O17 Zn1 2.024 . S
O17 C4 1.058 . S
C18 O7 1.260 1_455 S
C18 O8 1.258 . S
C19 O15 1.260 . S
C19 O16 1.258 1_455 S
Zn20 O26 1.969 . S
Zn20 O27 1.965 . S
Zn20 O31 2.024 . S
Zn20 O36 1.969 . S
Zn21 O28 1.969 . S
Zn21 O34 1.969 . S
Zn21 O35 1.965 . S
Zn21 O37 2.024 . S
C22 O23 1.229 . S
C22 O31 1.058 . S
O23 C22 1.229 . S
C24 O25 1.229 . S
C24 O37 1.058 . S
O25 C24 1.229 . S
O26 Zn20 1.969 . S
O26 C29 1.267 . S
O27 Zn20 1.965 . S
O27 C38 1.260 . S
O28 Zn21 1.969 . S
O28 C38 1.258 . S
C29 O26 1.267 . S
C29 O30 1.228 . S
O30 C29 1.228 . S
O31 Zn20 2.024 . S
O31 C22 1.058 . S
C32 O33 1.228 . S
C32 O34 1.267 . S
O33 C32 1.228 . S
O34 Zn21 1.969 . S
O34 C32 1.267 . S
O35 Zn21 1.965 . S
O35 C39 1.260 . S
O36 Zn20 1.969 . S
O36 C39 1.258 . S
O37 Zn21 2.024 . S
O37 C24 1.058 . S
C38 O27 1.260 . S
C38 O28 1.258 . S
C39 O35 1.260 . S
C39 O36 1.258 . S
Zn40 O46 1.969 . S
Zn40 O47 1.965 . S
Zn40 O51 2.024 . S
Zn40 O56 1.969 . S
Zn41 O48 1.969 . S
Zn41 O54 1.969 . S
Zn41 O55 1.965 . S
Zn41 O57 2.024 . S
C42 O43 1.229 . S
C42 O51 1.058 . S
O43 C42 1.229 . S
C44 O45 1.229 . S
C44 O57 1.058 . S
O45 C44 1.229 . S
O46 Zn40 1.969 . S
O46 C49 1.267 . S
O47 Zn40 1.965 . S
O47 C58 1.260 1_655 S
O48 Zn41 1.969 . S
O48 C58 1.258 . S
C49 O46 1.267 . S
C49 O50 1.228 . S
O50 C49 1.228 . S
O51 Zn40 2.024 . S
O51 C42 1.058 . S
C52 O53 1.228 . S
C52 O54 1.267 . S
O53 C52 1.228 . S
O54 Zn41 1.969 . S
O54 C52 1.267 . S
O55 Zn41 1.965 . S
O55 C59 1.260 . S
O56 Zn40 1.969 . S
O56 C59 1.258 1_655 S
O57 Zn41 2.024 . S
O57 C44 1.058 . S
C58 O47 1.260 1_455 S
C58 O48 1.258 . S
C59 O55 1.260 . S
C59 O56 1.258 1_455 S
Zn60 O66 1.969 . S
Zn60 O67 1.965 . S
Zn60 O71 2.024 . S
Zn60 O76 1.969 . S
Zn61 O68 1.969 . S
Zn61 O74 1.969 . S
Zn61 O75 1.965 . S
Zn61 O77 2.024 . S
C62 O63 1.229 . S
C62 O71 1.058 . S
O63 C62 1.229 . S
C64 O65 1.229 . S
C64 O77 1.058 . S
O65 C64 1.229 . S
O66 Zn60 1.969 . S
O66 C69 1.267 . S
O67 Zn60 1.965 . S
O67 C78 1.260 . S
O68 Zn61 1.969 . S
O68 C78 1.258 . S
C69 O66 1.267 . S
C69 O70 1.228 . S
O70 C69 1.228 . S
O71 Zn60 2.024 . S
O71 C62 1.058 . S
C72 O73 1.228 . S
C72 O74 1.267 . S
O73 C72 1.228 . S
O74 Zn61 1.969 . S
O74 C72 1.267 . S
O75 Zn61 1.965 . S
O75 C79 1.260 . S
O76 Zn60 1.969 . S
O76 C79 1.258 . S
O77 Zn61 2.024 . S
O77 C64 1.058 . S
C78 O67 1.260 . S
C78 O68 1.258 . S
C79 O75 1.260 . S
C79 O76 1.258 . S
H80 C81 0.951 . S
C81 H80 0.951 . S
C81 C87 1.265 1_455 S
H82 C87 0.950 . S
H83 C91 0.949 . S
H84 C92 0.950 . S
H85 C93 0.951 . S
H86 C94 0.951 . S
C87 C81 1.265 1_655 S
C87 H82 0.950 . S
C87 C88 1.478 . S
C88 C87 1.478 . S
C88 C89 1.397 1_556 S
C88 C105 1.394 1_655 S
C89 C88 1.397 1_554 S
C89 C90 1.438 . S
C89 C94 1.429 . S
C90 C89 1.438 . S
C90 C91 1.428 . S
C90 C103 1.394 1_655 S
C91 H83 0.949 . S
C91 C90 1.428 . S
C91 C92 1.345 . S
C92 H84 0.950 . S
C92 C91 1.345 . S
C92 C93 1.424 . S
C93 H85 0.951 . S
C93 C92 1.424 . S
C93 C94 1.347 . S
C94 H86 0.951 . S
C94 C89 1.429 . S
C94 C93 1.347 . S
H95 C96 0.951 1_655 S
C96 H95 0.951 1_455 S
C96 C102 1.265 . S
H97 C102 0.950 . S
H98 C106 0.949 . S
H99 C107 0.950 . S
H100 C108 0.951 . S
H101 C109 0.951 . S
C102 C96 1.265 . S
C102 H97 0.950 . S
C102 C103 1.478 . S
C103 C90 1.394 1_455 S
C103 C102 1.478 . S
C103 C104 1.397 1_554 S
C104 C103 1.397 1_556 S
C104 C105 1.438 . S
C104 C109 1.429 . S
C105 C88 1.394 1_455 S
C105 C104 1.438 . S
C105 C106 1.428 . S
C106 H98 0.949 . S
C106 C105 1.428 . S
C106 C107 1.345 . S
C107 H99 0.950 . S
C107 C106 1.345 . S
C107 C108 1.424 . S
C108 H100 0.951 . S
C108 C107 1.424 . S
C108 C109 1.347 . S
C109 H101 0.951 . S
C109 C104 1.429 . S
C109 C108 1.347 . S
H110 C111 0.951 . S
C111 H110 0.951 . S
C111 C117 1.265 . S
H112 C117 0.950 . S
H113 C121 0.949 1_556 S
H114 C122 0.950 . S
H115 C123 0.951 . S
H116 C124 0.951 . S
C117 C111 1.265 . S
C117 H112 0.950 . S
C117 C118 1.478 . S
C118 C117 1.478 . S
C118 C119 1.397 . S
C118 C135 1.394 1_554 S
C119 C118 1.397 . S
C119 C120 1.438 . S
C119 C124 1.429 . S
C120 C119 1.438 . S
C120 C121 1.428 . S
C120 C133 1.394 1_554 S
C121 H113 0.949 1_554 S
C121 C120 1.428 . S
C121 C122 1.345 . S
C122 H114 0.950 . S
C122 C121 1.345 . S
C122 C123 1.424 . S
C123 H115 0.951 . S
C123 C122 1.424 . S
C123 C124 1.347 . S
C124 H116 0.951 . S
C124 C119 1.429 . S
C124 C123 1.347 . S
H125 C126 0.951 . S
C126 H125 0.951 . S
C126 C132 1.265 . S
H127 C132 0.950 . S
H128 C136 0.949 1_554 S
H129 C137 0.950 . S
H130 C138 0.951 . S
H131 C139 0.951 . S
C132 C126 1.265 . S
C132 H127 0.950 . S
C132 C133 1.478 . S
C133 C120 1.394 1_556 S
C133 C132 1.478 . S
C133 C134 1.397 . S
C134 C133 1.397 . S
C134 C135 1.438 . S
C134 C139 1.429 . S
C135 C118 1.394 1_556 S
C135 C134 1.438 . S
C135 C136 1.428 . S
C136 H128 0.949 1_556 S
C136 C135 1.428 . S
C136 C137 1.345 . S
C137 H129 0.950 . S
C137 C136 1.345 . S
C137 C138 1.424 . S
C138 H130 0.951 . S
C138 C137 1.424 . S
C138 C139 1.347 . S
C139 H131 0.951 . S
C139 C134 1.429 . S
C139 C138 1.347 . S
H140 C141 0.951 . S
C141 H140 0.951 . S
C141 C147 1.265 . S
H142 C147 0.950 . S
H143 C151 0.949 . S
H144 C152 0.950 . S
H145 C153 0.951 . S
H146 C154 0.951 . S
C147 C141 1.265 . S
C147 H142 0.950 . S
C147 C148 1.478 . S
C148 C147 1.478 . S
C148 C149 1.397 1_556 S
C148 C165 1.394 . S
C149 C148 1.397 1_554 S
C149 C150 1.438 1_565 S
C149 C154 1.429 . S
C150 C149 1.438 1_545 S
C150 C151 1.428 . S
C150 C163 1.394 . S
C151 H143 0.949 . S
C151 C150 1.428 . S
C151 C152 1.345 1_545 S
C152 H144 0.950 . S
C152 C151 1.345 1_565 S
C152 C153 1.424 . S
C153 H145 0.951 . S
C153 C152 1.424 . S
C153 C154 1.347 . S
C154 H146 0.951 . S
C154 C149 1.429 . S
C154 C153 1.347 . S
H155 C156 0.951 . S
C156 H155 0.951 . S
C156 C162 1.265 . S
H157 C162 0.950 . S
H158 C166 0.949 . S
H159 C167 0.950 . S
H160 C168 0.951 . S
H161 C169 0.951 . S
C162 C156 1.265 . S
C162 H157 0.950 . S
C162 C163 1.478 . S
C163 C150 1.394 . S
C163 C162 1.478 . S
C163 C164 1.397 1_554 S
C164 C163 1.397 1_556 S
C164 C165 1.438 1_545 S
C164 C169 1.429 . S
C165 C148 1.394 . S
C165 C164 1.438 1_565 S
C165 C166 1.428 . S
C166 H158 0.949 . S
C166 C165 1.428 . S
C166 C167 1.345 1_565 S
C167 H159 0.950 . S
C167 C166 1.345 1_545 S
C167 C168 1.424 . S
C168 H160 0.951 . S
C168 C167 1.424 . S
C168 C169 1.347 . S
C169 H161 0.951 . S
C169 C164 1.429 . S
C169 C168 1.347 . S
H170 C171 0.951 . S
C171 H170 0.951 . S
C171 C177 1.265 1_655 S
H172 C177 0.950 . S
H173 C181 0.949 1_645 S
H174 C182 0.950 . S
H175 C183 0.951 . S
H176 C184 0.951 . S
C177 C171 1.265 1_455 S
C177 H172 0.950 . S
C177 C178 1.478 . S
C178 C177 1.478 . S
C178 C179 1.397 1_554 S
C178 C195 1.394 1_465 S
C179 C178 1.397 1_556 S
C179 C180 1.434 1_455 S
C179 C184 1.429 . S
C180 C179 1.434 1_655 S
C180 C181 1.427 1_655 S
C180 C193 1.399 1_565 S
C181 H173 0.949 1_465 S
C181 C180 1.427 1_455 S
C181 C182 1.345 . S
C182 H174 0.950 . S
C182 C181 1.345 . S
C182 C183 1.424 . S
C183 H175 0.951 . S
C183 C182 1.424 . S
C183 C184 1.347 . S
C184 H176 0.951 . S
C184 C179 1.429 . S
C184 C183 1.347 . S
H185 C186 0.951 . S
C186 H185 0.951 . S
C186 C192 1.265 1_455 S
H187 C192 0.950 . S
H188 C196 0.949 1_565 S
H189 C197 0.950 . S
H190 C198 0.951 . S
H191 C199 0.951 . S
C192 C186 1.265 1_655 S
C192 H187 0.950 . S
C192 C193 1.478 . S
C193 C180 1.399 1_545 S
C193 C192 1.478 . S
C193 C194 1.397 1_556 S
C194 C193 1.397 1_554 S
C194 C195 1.438 . S
C194 C199 1.429 . S
C195 C178 1.394 1_645 S
C195 C194 1.438 . S
C195 C196 1.428 . S
C196 H188 0.949 1_545 S
C196 C195 1.428 . S
C196 C197 1.345 . S
C197 H189 0.950 . S
C197 C196 1.345 . S
C197 C198 1.424 . S
C198 H190 0.951 . S
C198 C197 1.424 . S
C198 C199 1.347 . S
C199 H191 0.951 . S
C199 C194 1.429 . S
C199 C198 1.347 . S
H200 C201 0.951 . S
C201 H200 0.951 . S
C201 C207 1.265 . S
H202 C207 0.950 . S
H203 C211 0.949 . S
H204 C212 0.950 . S
H205 C213 0.951 . S
H206 C214 0.951 . S
C207 C201 1.265 . S
C207 H202 0.950 . S
C207 C208 1.478 . S
C208 C207 1.478 . S
C208 C209 1.397 . S
C208 C225 1.394 . S
C209 C208 1.397 . S
C209 C210 1.438 . S
C209 C214 1.429 . S
C210 C209 1.438 . S
C210 C211 1.428 . S
C210 C223 1.394 . S
C211 H203 0.949 . S
C211 C210 1.428 . S
C211 C212 1.345 . S
C212 H204 0.950 . S
C212 C211 1.345 . S
C212 C213 1.424 . S
C213 H205 0.951 . S
C213 C212 1.424 . S
C213 C214 1.347 . S
C214 H206 0.951 . S
C214 C209 1.429 . S
C214 C213 1.347 . S
H215 C216 0.951 . S
C216 H215 0.951 . S
C216 C222 1.265 . S
H217 C222 0.950 . S
H218 C226 0.949 . S
H219 C227 0.950 . S
H220 C228 0.951 . S
H221 C229 0.951 . S
C222 C216 1.265 . S
C222 H217 0.950 . S
C222 C223 1.478 . S
C223 C210 1.394 . S
C223 C222 1.478 . S
C223 C224 1.397 . S
C224 C223 1.397 . S
C224 C225 1.438 . S
C224 C229 1.429 . S
C225 C208 1.394 . S
C225 C224 1.438 . S
C225 C226 1.428 . S
C226 H218 0.949 . S
C226 C225 1.428 . S
C226 C227 1.345 . S
C227 H219 0.950 . S
C227 C226 1.345 . S
C227 C228 1.424 . S
C228 H220 0.951 . S
C228 C227 1.424 . S
C228 C229 1.347 . S
C229 H221 0.951 . S
C229 C224 1.429 . S
C229 C228 1.347 . S
H230 C231 0.951 . S
C231 H230 0.951 . S
C231 C237 1.265 . S
H232 C237 0.950 . S
H233 C241 0.949 . S
H234 C242 0.950 . S
H235 C243 0.951 . S
H236 C244 0.951 . S
C237 C231 1.265 . S
C237 H232 0.950 . S
C237 C238 1.478 . S
C238 C237 1.478 . S
C238 C239 1.397 . S
C238 C255 1.394 . S
C239 C238 1.397 . S
C239 C240 1.438 . S
C239 C244 1.429 . S
C240 C239 1.438 . S
C240 C241 1.428 . S
C240 C253 1.394 . S
C241 H233 0.949 . S
C241 C240 1.428 . S
C241 C242 1.345 . S
C242 H234 0.950 . S
C242 C241 1.345 . S
C242 C243 1.424 . S
C243 H235 0.951 . S
C243 C242 1.424 . S
C243 C244 1.347 . S
C244 H236 0.951 . S
C244 C239 1.429 . S
C244 C243 1.347 . S
H245 C246 0.951 . S
C246 H245 0.951 . S
C246 C252 1.265 . S
H247 C252 0.950 . S
H248 C256 0.949 . S
H249 C257 0.950 . S
H250 C258 0.951 . S
H251 C259 0.951 . S
C252 C246 1.265 . S
C252 H247 0.950 . S
C252 C253 1.478 . S
C253 C240 1.394 . S
C253 C252 1.478 . S
C253 C254 1.397 . S
C254 C253 1.397 . S
C254 C255 1.438 . S
C254 C259 1.429 . S
C255 C238 1.394 . S
C255 C254 1.438 . S
C255 C256 1.428 . S
C256 H248 0.949 . S
C256 C255 1.428 . S
C256 C257 1.345 . S
C257 H249 0.950 . S
C257 C256 1.345 . S
C257 C258 1.424 . S
C258 H250 0.951 . S
C258 C257 1.424 . S
C258 C259 1.347 . S
C259 H251 0.951 . S
C259 C254 1.429 . S
C259 C258 1.347 . S
H260 C261 0.951 . S
C261 H260 0.951 . S
C261 C267 1.265 . S
H262 C267 0.950 . S
H263 C271 0.949 . S
H264 C272 0.950 . S
H265 C273 0.951 . S
H266 C274 0.951 . S
C267 C261 1.265 . S
C267 H262 0.950 . S
C267 C268 1.478 . S
C268 C267 1.478 . S
C268 C269 1.397 . S
C268 C285 1.394 . S
C269 C268 1.397 . S
C269 C270 1.438 . S
C269 C274 1.429 . S
C270 C269 1.438 . S
C270 C271 1.428 . S
C270 C283 1.394 . S
C271 H263 0.949 . S
C271 C270 1.428 . S
C271 C272 1.345 . S
C272 H264 0.950 . S
C272 C271 1.345 . S
C272 C273 1.424 . S
C273 H265 0.951 . S
C273 C272 1.424 . S
C273 C274 1.347 . S
C274 H266 0.951 . S
C274 C269 1.429 . S
C274 C273 1.347 . S
H275 C276 0.951 . S
C276 H275 0.951 . S
C276 C282 1.265 . S
H277 C282 0.950 . S
H278 C286 0.949 . S
H279 C287 0.950 . S
H280 C288 0.951 . S
H281 C289 0.951 . S
C282 C276 1.265 . S
C282 H277 0.950 . S
C282 C283 1.478 . S
C283 C270 1.394 . S
C283 C282 1.478 . S
C283 C284 1.397 . S
C284 C283 1.397 . S
C284 C285 1.438 . S
C284 C289 1.429 . S
C285 C268 1.394 . S
C285 C284 1.438 . S
C285 C286 1.428 . S
C286 H278 0.949 . S
C286 C285 1.428 . S
C286 C287 1.345 . S
C287 H279 0.950 . S
C287 C286 1.345 . S
C287 C288 1.424 . S
C288 H280 0.951 . S
C288 C287 1.424 . S
C288 C289 1.347 . S
C289 H281 0.951 . S
C289 C284 1.429 . S
C289 C288 1.347 . S
H290 C291 0.951 . S
C291 H290 0.951 . S
C291 C297 1.265 . S
H292 C297 0.950 . S
H293 C301 0.949 . S
H294 C302 0.950 . S
H295 C303 0.951 . S
H296 C304 0.951 . S
C297 C291 1.265 . S
C297 H292 0.950 . S
C297 C298 1.478 . S
C298 C297 1.478 . S
C298 C299 1.397 . S
C298 C315 1.394 . S
C299 C298 1.397 . S
C299 C300 1.438 . S
C299 C304 1.429 . S
C300 C299 1.438 . S
C300 C301 1.428 . S
C300 C313 1.394 . S
C301 H293 0.949 . S
C301 C300 1.428 . S
C301 C302 1.345 . S
C302 H294 0.950 . S
C302 C301 1.345 . S
C302 C303 1.424 . S
C303 H295 0.951 . S
C303 C302 1.424 . S
C303 C304 1.347 . S
C304 H296 0.951 . S
C304 C299 1.429 . S
C304 C303 1.347 . S
H305 C306 0.951 . S
C306 H305 0.951 . S
C306 C312 1.265 . S
H307 C312 0.950 . S
H308 C316 0.949 . S
H309 C317 0.950 . S
H310 C318 0.951 . S
H311 C319 0.951 . S
C312 C306 1.265 . S
C312 H307 0.950 . S
C312 C313 1.478 . S
C313 C300 1.394 . S
C313 C312 1.478 . S
C313 C314 1.397 . S
C314 C313 1.397 . S
C314 C315 1.438 . S
C314 C319 1.429 . S
C315 C298 1.394 . S
C315 C314 1.438 . S
C315 C316 1.428 . S
C316 H308 0.949 . S
C316 C315 1.428 . S
C316 C317 1.345 . S
C317 H309 0.950 . S
C317 C316 1.345 . S
C317 C318 1.424 . S
C318 H310 0.951 . S
C318 C317 1.424 . S
C318 C319 1.347 . S
C319 H311 0.951 . S
C319 C314 1.429 . S
C319 C318 1.347 . S
H320 C321 0.951 . S
C321 H320 0.951 . S
C321 C327 1.265 1_556 S
H322 C327 0.950 . S
H323 C331 0.949 . S
H324 C332 0.950 . S
H325 C333 0.951 . S
H326 C334 0.951 . S
C327 C321 1.265 1_554 S
C327 H322 0.950 . S
C327 C328 1.478 . S
C328 C327 1.478 . S
C328 C329 1.397 . S
C328 C345 1.394 1_554 S
C329 C328 1.397 . S
C329 C330 1.438 . S
C329 C334 1.429 . S
C330 C329 1.438 . S
C330 C331 1.428 . S
C330 C343 1.394 1_554 S
C331 H323 0.949 . S
C331 C330 1.428 . S
C331 C332 1.345 . S
C332 H324 0.950 . S
C332 C331 1.345 . S
C332 C333 1.424 . S
C333 H325 0.951 . S
C333 C332 1.424 . S
C333 C334 1.347 . S
C334 H326 0.951 . S
C334 C329 1.429 . S
C334 C333 1.347 . S
H335 C336 0.951 . S
C336 H335 0.951 . S
C336 C342 1.265 1_554 S
H337 C342 0.950 . S
H338 C346 0.949 . S
H339 C347 0.950 . S
H340 C348 0.951 . S
H341 C349 0.951 . S
C342 C336 1.265 1_556 S
C342 H337 0.950 . S
C342 C343 1.478 . S
C343 C330 1.394 1_556 S
C343 C342 1.478 . S
C343 C344 1.397 . S
C344 C343 1.397 . S
C344 C345 1.438 . S
C344 C349 1.429 . S
C345 C328 1.394 1_556 S
C345 C344 1.438 . S
C345 C346 1.428 . S
C346 H338 0.949 . S
C346 C345 1.428 . S
C346 C347 1.345 . S
C347 H339 0.950 . S
C347 C346 1.345 . S
C347 C348 1.424 . S
C348 H340 0.951 . S
C348 C347 1.424 . S
C348 C349 1.347 . S
C349 H341 0.951 . S
C349 C344 1.429 . S
C349 C348 1.347 . S
H350 C351 0.951 1_554 S
C351 H350 0.951 1_556 S
C351 C357 1.265 . S
H352 C357 0.950 . S
H353 C361 0.949 . S
H354 C362 0.950 . S
H355 C363 0.951 . S
H356 C364 0.951 . S
C357 C351 1.265 . S
C357 H352 0.950 . S
C357 C358 1.478 . S
C358 C357 1.478 . S
C358 C359 1.397 . S
C358 C375 1.394 1_556 S
C359 C358 1.397 . S
C359 C360 1.438 . S
C359 C364 1.429 . S
C360 C359 1.438 . S
C360 C361 1.428 . S
C360 C373 1.394 1_556 S
C361 H353 0.949 . S
C361 C360 1.428 . S
C361 C362 1.345 . S
C362 H354 0.950 . S
C362 C361 1.345 . S
C362 C363 1.424 . S
C363 H355 0.951 . S
C363 C362 1.424 . S
C363 C364 1.347 . S
C364 H356 0.951 . S
C364 C359 1.429 . S
C364 C363 1.347 . S
H365 C366 0.951 . S
C366 H365 0.951 . S
C366 C372 1.265 1_556 S
H367 C372 0.950 . S
H368 C376 0.949 . S
H369 C377 0.950 . S
H370 C378 0.951 . S
H371 C379 0.951 . S
C372 C366 1.265 1_554 S
C372 H367 0.950 . S
C372 C373 1.478 . S
C373 C360 1.394 1_554 S
C373 C372 1.478 . S
C373 C374 1.397 . S
C374 C373 1.397 . S
C374 C375 1.438 . S
C374 C379 1.429 . S
C375 C358 1.394 1_554 S
C375 C374 1.438 . S
C375 C376 1.428 . S
C376 H368 0.949 . S
C376 C375 1.428 . S
C376 C377 1.345 . S
C377 H369 0.950 . S
C377 C376 1.345 . S
C377 C378 1.424 . S
C378 H370 0.951 . S
C378 C377 1.424 . S
C378 C379 1.347 . S
C379 H371 0.951 . S
C379 C374 1.429 . S
C379 C378 1.347 . S
H380 C381 0.951 1_556 S
C381 H380 0.951 1_554 S
C381 C387 1.265 . S
H382 C387 0.950 . S
H383 C391 0.949 . S
H384 C392 0.950 . S
H385 C393 0.951 . S
H386 C394 0.951 . S
C387 C381 1.265 . S
C387 H382 0.950 . S
C387 C388 1.478 . S
C388 C387 1.478 . S
C388 C389 1.397 . S
C388 C405 1.394 1_554 S
C389 C388 1.397 . S
C389 C390 1.438 . S
C389 C394 1.429 . S
C390 C389 1.438 . S
C390 C391 1.428 . S
C390 C403 1.394 1_554 S
C391 H383 0.949 . S
C391 C390 1.428 . S
C391 C392 1.345 . S
C392 H384 0.950 . S
C392 C391 1.345 . S
C392 C393 1.424 . S
C393 H385 0.951 . S
C393 C392 1.424 . S
C393 C394 1.347 . S
C394 H386 0.951 . S
C394 C389 1.429 . S
C394 C393 1.347 . S
H395 C396 0.951 . S
C396 H395 0.951 . S
C396 C402 1.265 1_554 S
H397 C402 0.950 . S
H398 C406 0.949 . S
H399 C407 0.950 . S
H400 C408 0.951 . S
H401 C409 0.951 . S
C402 C396 1.265 1_556 S
C402 H397 0.950 . S
C402 C403 1.478 . S
C403 C390 1.394 1_556 S
C403 C402 1.478 . S
C403 C404 1.397 . S
C404 C403 1.397 . S
C404 C405 1.438 . S
C404 C409 1.429 . S
C405 C388 1.394 1_556 S
C405 C404 1.438 . S
C405 C406 1.428 . S
C406 H398 0.949 . S
C406 C405 1.428 . S
C406 C407 1.345 . S
C407 H399 0.950 . S
C407 C406 1.345 . S
C407 C408 1.424 . S
C408 H400 0.951 . S
C408 C407 1.424 . S
C408 C409 1.347 . S
C409 H401 0.951 . S
C409 C404 1.429 . S
C409 C408 1.347 . S
H410 C411 0.951 . S
C411 H410 0.951 . S
C411 C417 1.265 1_556 S
H412 C417 0.950 . S
H413 C421 0.949 . S
H414 C422 0.950 . S
H415 C423 0.951 . S
H416 C424 0.951 . S
C417 C411 1.265 1_554 S
C417 H412 0.950 . S
C417 C418 1.478 . S
C418 C417 1.478 . S
C418 C419 1.394 1_554 S
C418 C435 1.397 . S
C419 C418 1.394 1_556 S
C419 C420 1.438 . S
C419 C424 1.429 . S
C420 C419 1.438 . S
C420 C421 1.428 . S
C420 C433 1.394 . S
C421 H413 0.949 . S
C421 C420 1.428 . S
C421 C422 1.345 . S
C422 H414 0.950 . S
C422 C421 1.345 . S
C422 C423 1.424 . S
C423 H415 0.951 . S
C423 C422 1.424 . S
C423 C424 1.347 . S
C424 H416 0.951 . S
C424 C419 1.429 . S
C424 C423 1.347 . S
H425 C426 0.951 1_554 S
C426 H425 0.951 1_556 S
C426 C432 1.265 . S
H427 C432 0.950 . S
H428 C436 0.949 . S
H429 C437 0.950 . S
H430 C438 0.951 . S
H431 C439 0.951 . S
C432 C426 1.265 . S
C432 H427 0.950 . S
C432 C433 1.478 . S
C433 C420 1.394 . S
C433 C432 1.478 . S
C433 C434 1.397 1_556 S
C434 C433 1.397 1_554 S
C434 C435 1.438 . S
C434 C439 1.429 . S
C435 C418 1.397 . S
C435 C434 1.438 . S
C435 C436 1.428 . S
C436 H428 0.949 . S
C436 C435 1.428 . S
C436 C437 1.345 . S
C437 H429 0.950 . S
C437 C436 1.345 . S
C437 C438 1.424 . S
C438 H430 0.951 . S
C438 C437 1.424 . S
C438 C439 1.347 . S
C439 H431 0.951 . S
C439 C434 1.429 . S
C439 C438 1.347 . S
C81 C59 1.800 . S
C96 C19 1.753 . S
C111 C38 2.190 . S
C126 C78 2.218 . S
C141 C79 1.809 . S
C156 C39 1.760 . S
C171 C18 2.205 1_655 S
C186 C58 2.166 . S
C201 C62 1.382 . S
C216 C12 1.451 . S
C231 C52 1.452 . S
C246 C22 1.384 . S
C261 C42 1.381 . S
C276 C32 1.450 . S
C291 C2 1.382 . S
C306 C72 1.451 . S
C321 C69 0.726 . S
C336 C4 0.676 . S
C351 C44 0.904 . S
C366 C29 0.918 1_556 S
C381 C24 0.950 . S
C396 C49 0.960 1_554 S
C411 C9 0.913 1_556 S
C426 C64 0.897 . S
