# Generated by pormake.
# Topology wmt, (6)-cn, num edge types: 1
# Building blocks:
#     Node 0, Type 0, BuildingBlock: BETGAK_clean_sbu_0, # of connection points: 6
#     Node 1, Type 0, BuildingBlock: BETGAK_clean_sbu_0, # of connection points: 6
#     Node 2, Type 0, BuildingBlock: BETGAK_clean_sbu_0, # of connection points: 6
#     Node 3, Type 0, BuildingBlock: BETGAK_clean_sbu_0, # of connection points: 6
#     Node 4, Type 0, BuildingBlock: BETGAK_clean_sbu_0, # of connection points: 6
#     Node 5, Type 0, BuildingBlock: BETGAK_clean_sbu_0, # of connection points: 6
#     Node 6, Type 0, BuildingBlock: BETGAK_clean_sbu_0, # of connection points: 6
#     Node 7, Type 0, BuildingBlock: BETGAK_clean_sbu_0, # of connection points: 6
#     Node 8, Type 0, BuildingBlock: BETGAK_clean_sbu_0, # of connection points: 6
#     Node 9, Type 0, BuildingBlock: BETGAK_clean_sbu_0, # of connection points: 6
#     Node 10, Type 0, BuildingBlock: BETGAK_clean_sbu_0, # of connection points: 6
#     Node 11, Type 0, BuildingBlock: BETGAK_clean_sbu_0, # of connection points: 6
#     Node 12, Type 0, BuildingBlock: BETGAK_clean_sbu_0, # of connection points: 6
#     Node 13, Type 0, BuildingBlock: BETGAK_clean_sbu_0, # of connection points: 6
#     Node 14, Type 0, BuildingBlock: BETGAK_clean_sbu_0, # of connection points: 6
#     Node 15, Type 0, BuildingBlock: BETGAK_clean_sbu_0, # of connection points: 6
#     Node 16, Type 0, BuildingBlock: BETGAK_clean_sbu_0, # of connection points: 6
#     Node 17, Type 0, BuildingBlock: BETGAK_clean_sbu_0, # of connection points: 6
#     Node 18, Type 0, BuildingBlock: BETGAK_clean_sbu_0, # of connection points: 6
#     Node 19, Type 0, BuildingBlock: BETGAK_clean_sbu_0, # of connection points: 6
#     Node 20, Type 0, BuildingBlock: BETGAK_clean_sbu_0, # of connection points: 6
#     Node 21, Type 0, BuildingBlock: BETGAK_clean_sbu_0, # of connection points: 6
#     Node 22, Type 0, BuildingBlock: BETGAK_clean_sbu_0, # of connection points: 6
#     Node 23, Type 0, BuildingBlock: BETGAK_clean_sbu_0, # of connection points: 6
#     Node 24, Type 0, BuildingBlock: BETGAK_clean_sbu_0, # of connection points: 6
#     Node 25, Type 0, BuildingBlock: BETGAK_clean_sbu_0, # of connection points: 6
#     Node 26, Type 0, BuildingBlock: BETGAK_clean_sbu_0, # of connection points: 6
#     Node 27, Type 0, BuildingBlock: BETGAK_clean_sbu_0, # of connection points: 6
#     Node 28, Type 0, BuildingBlock: BETGAK_clean_sbu_0, # of connection points: 6
#     Node 29, Type 0, BuildingBlock: BETGAK_clean_sbu_0, # of connection points: 6
#     Node 30, Type 0, BuildingBlock: BETGAK_clean_sbu_0, # of connection points: 6
#     Node 31, Type 0, BuildingBlock: BETGAK_clean_sbu_0, # of connection points: 6
#     Node 32, Type 0, BuildingBlock: BETGAK_clean_sbu_0, # of connection points: 6
#     Node 33, Type 0, BuildingBlock: BETGAK_clean_sbu_0, # of connection points: 6
#     Node 34, Type 0, BuildingBlock: BETGAK_clean_sbu_0, # of connection points: 6
#     Node 35, Type 0, BuildingBlock: BETGAK_clean_sbu_0, # of connection points: 6
#     Edge 36, Type (0, 0), BuildingBlock: OJICUG_clean_linker_0, # of connection points: 2
#     Edge 37, Type (0, 0), BuildingBlock: OJICUG_clean_linker_0, # of connection points: 2
#     Edge 38, Type (0, 0), BuildingBlock: OJICUG_clean_linker_0, # of connection points: 2
#     Edge 39, Type (0, 0), BuildingBlock: OJICUG_clean_linker_0, # of connection points: 2
#     Edge 40, Type (0, 0), BuildingBlock: OJICUG_clean_linker_0, # of connection points: 2
#     Edge 41, Type (0, 0), BuildingBlock: OJICUG_clean_linker_0, # of connection points: 2
#     Edge 42, Type (0, 0), BuildingBlock: OJICUG_clean_linker_0, # of connection points: 2
#     Edge 43, Type (0, 0), BuildingBlock: OJICUG_clean_linker_0, # of connection points: 2
#     Edge 44, Type (0, 0), BuildingBlock: OJICUG_clean_linker_0, # of connection points: 2
#     Edge 45, Type (0, 0), BuildingBlock: OJICUG_clean_linker_0, # of connection points: 2
#     Edge 46, Type (0, 0), BuildingBlock: OJICUG_clean_linker_0, # of connection points: 2
#     Edge 47, Type (0, 0), BuildingBlock: OJICUG_clean_linker_0, # of connection points: 2
#     Edge 48, Type (0, 0), BuildingBlock: OJICUG_clean_linker_0, # of connection points: 2
#     Edge 49, Type (0, 0), BuildingBlock: OJICUG_clean_linker_0, # of connection points: 2
#     Edge 50, Type (0, 0), BuildingBlock: OJICUG_clean_linker_0, # of connection points: 2
#     Edge 51, Type (0, 0), BuildingBlock: OJICUG_clean_linker_0, # of connection points: 2
#     Edge 52, Type (0, 0), BuildingBlock: OJICUG_clean_linker_0, # of connection points: 2
#     Edge 53, Type (0, 0), BuildingBlock: OJICUG_clean_linker_0, # of connection points: 2
#     Edge 54, Type (0, 0), BuildingBlock: OJICUG_clean_linker_0, # of connection points: 2
#     Edge 55, Type (0, 0), BuildingBlock: OJICUG_clean_linker_0, # of connection points: 2
#     Edge 56, Type (0, 0), BuildingBlock: OJICUG_clean_linker_0, # of connection points: 2
#     Edge 57, Type (0, 0), BuildingBlock: OJICUG_clean_linker_0, # of connection points: 2
#     Edge 58, Type (0, 0), BuildingBlock: OJICUG_clean_linker_0, # of connection points: 2
#     Edge 59, Type (0, 0), BuildingBlock: OJICUG_clean_linker_0, # of connection points: 2
#     Edge 60, Type (0, 0), BuildingBlock: OJICUG_clean_linker_0, # of connection points: 2
#     Edge 61, Type (0, 0), BuildingBlock: OJICUG_clean_linker_0, # of connection points: 2
#     Edge 62, Type (0, 0), BuildingBlock: OJICUG_clean_linker_0, # of connection points: 2
#     Edge 63, Type (0, 0), BuildingBlock: OJICUG_clean_linker_0, # of connection points: 2
#     Edge 64, Type (0, 0), BuildingBlock: OJICUG_clean_linker_0, # of connection points: 2
#     Edge 65, Type (0, 0), BuildingBlock: OJICUG_clean_linker_0, # of connection points: 2
#     Edge 66, Type (0, 0), BuildingBlock: OJICUG_clean_linker_0, # of connection points: 2
#     Edge 67, Type (0, 0), BuildingBlock: OJICUG_clean_linker_0, # of connection points: 2
#     Edge 68, Type (0, 0), BuildingBlock: OJICUG_clean_linker_0, # of connection points: 2
#     Edge 69, Type (0, 0), BuildingBlock: OJICUG_clean_linker_0, # of connection points: 2
#     Edge 70, Type (0, 0), BuildingBlock: OJICUG_clean_linker_0, # of connection points: 2
#     Edge 71, Type (0, 0), BuildingBlock: OJICUG_clean_linker_0, # of connection points: 2
#     Edge 72, Type (0, 0), BuildingBlock: OJICUG_clean_linker_0, # of connection points: 2
#     Edge 73, Type (0, 0), BuildingBlock: OJICUG_clean_linker_0, # of connection points: 2
#     Edge 74, Type (0, 0), BuildingBlock: OJICUG_clean_linker_0, # of connection points: 2
#     Edge 75, Type (0, 0), BuildingBlock: OJICUG_clean_linker_0, # of connection points: 2
#     Edge 76, Type (0, 0), BuildingBlock: OJICUG_clean_linker_0, # of connection points: 2
#     Edge 77, Type (0, 0), BuildingBlock: OJICUG_clean_linker_0, # of connection points: 2
#     Edge 78, Type (0, 0), BuildingBlock: OJICUG_clean_linker_0, # of connection points: 2
#     Edge 79, Type (0, 0), BuildingBlock: OJICUG_clean_linker_0, # of connection points: 2
#     Edge 80, Type (0, 0), BuildingBlock: OJICUG_clean_linker_0, # of connection points: 2
#     Edge 81, Type (0, 0), BuildingBlock: OJICUG_clean_linker_0, # of connection points: 2
#     Edge 82, Type (0, 0), BuildingBlock: OJICUG_clean_linker_0, # of connection points: 2
#     Edge 83, Type (0, 0), BuildingBlock: OJICUG_clean_linker_0, # of connection points: 2
#     Edge 84, Type (0, 0), BuildingBlock: OJICUG_clean_linker_0, # of connection points: 2
#     Edge 85, Type (0, 0), BuildingBlock: OJICUG_clean_linker_0, # of connection points: 2
#     Edge 86, Type (0, 0), BuildingBlock: OJICUG_clean_linker_0, # of connection points: 2
#     Edge 87, Type (0, 0), BuildingBlock: OJICUG_clean_linker_0, # of connection points: 2
#     Edge 88, Type (0, 0), BuildingBlock: OJICUG_clean_linker_0, # of connection points: 2
#     Edge 89, Type (0, 0), BuildingBlock: OJICUG_clean_linker_0, # of connection points: 2
#     Edge 90, Type (0, 0), BuildingBlock: OJICUG_clean_linker_0, # of connection points: 2
#     Edge 91, Type (0, 0), BuildingBlock: OJICUG_clean_linker_0, # of connection points: 2
#     Edge 92, Type (0, 0), BuildingBlock: OJICUG_clean_linker_0, # of connection points: 2
#     Edge 93, Type (0, 0), BuildingBlock: OJICUG_clean_linker_0, # of connection points: 2
#     Edge 94, Type (0, 0), BuildingBlock: OJICUG_clean_linker_0, # of connection points: 2
#     Edge 95, Type (0, 0), BuildingBlock: OJICUG_clean_linker_0, # of connection points: 2
#     Edge 96, Type (0, 0), BuildingBlock: OJICUG_clean_linker_0, # of connection points: 2
#     Edge 97, Type (0, 0), BuildingBlock: OJICUG_clean_linker_0, # of connection points: 2
#     Edge 98, Type (0, 0), BuildingBlock: OJICUG_clean_linker_0, # of connection points: 2
#     Edge 99, Type (0, 0), BuildingBlock: OJICUG_clean_linker_0, # of connection points: 2
#     Edge 100, Type (0, 0), BuildingBlock: OJICUG_clean_linker_0, # of connection points: 2
#     Edge 101, Type (0, 0), BuildingBlock: OJICUG_clean_linker_0, # of connection points: 2
#     Edge 102, Type (0, 0), BuildingBlock: OJICUG_clean_linker_0, # of connection points: 2
#     Edge 103, Type (0, 0), BuildingBlock: OJICUG_clean_linker_0, # of connection points: 2
#     Edge 104, Type (0, 0), BuildingBlock: OJICUG_clean_linker_0, # of connection points: 2
#     Edge 105, Type (0, 0), BuildingBlock: OJICUG_clean_linker_0, # of connection points: 2
#     Edge 106, Type (0, 0), BuildingBlock: OJICUG_clean_linker_0, # of connection points: 2
#     Edge 107, Type (0, 0), BuildingBlock: OJICUG_clean_linker_0, # of connection points: 2
#     Edge 108, Type (0, 0), BuildingBlock: OJICUG_clean_linker_0, # of connection points: 2
#     Edge 109, Type (0, 0), BuildingBlock: OJICUG_clean_linker_0, # of connection points: 2
#     Edge 110, Type (0, 0), BuildingBlock: OJICUG_clean_linker_0, # of connection points: 2
#     Edge 111, Type (0, 0), BuildingBlock: OJICUG_clean_linker_0, # of connection points: 2
#     Edge 112, Type (0, 0), BuildingBlock: OJICUG_clean_linker_0, # of connection points: 2
#     Edge 113, Type (0, 0), BuildingBlock: OJICUG_clean_linker_0, # of connection points: 2
#     Edge 114, Type (0, 0), BuildingBlock: OJICUG_clean_linker_0, # of connection points: 2
#     Edge 115, Type (0, 0), BuildingBlock: OJICUG_clean_linker_0, # of connection points: 2
#     Edge 116, Type (0, 0), BuildingBlock: OJICUG_clean_linker_0, # of connection points: 2
#     Edge 117, Type (0, 0), BuildingBlock: OJICUG_clean_linker_0, # of connection points: 2
#     Edge 118, Type (0, 0), BuildingBlock: OJICUG_clean_linker_0, # of connection points: 2
#     Edge 119, Type (0, 0), BuildingBlock: OJICUG_clean_linker_0, # of connection points: 2
#     Edge 120, Type (0, 0), BuildingBlock: OJICUG_clean_linker_0, # of connection points: 2
#     Edge 121, Type (0, 0), BuildingBlock: OJICUG_clean_linker_0, # of connection points: 2
#     Edge 122, Type (0, 0), BuildingBlock: OJICUG_clean_linker_0, # of connection points: 2
#     Edge 123, Type (0, 0), BuildingBlock: OJICUG_clean_linker_0, # of connection points: 2
#     Edge 124, Type (0, 0), BuildingBlock: OJICUG_clean_linker_0, # of connection points: 2
#     Edge 125, Type (0, 0), BuildingBlock: OJICUG_clean_linker_0, # of connection points: 2
#     Edge 126, Type (0, 0), BuildingBlock: OJICUG_clean_linker_0, # of connection points: 2
#     Edge 127, Type (0, 0), BuildingBlock: OJICUG_clean_linker_0, # of connection points: 2
#     Edge 128, Type (0, 0), BuildingBlock: OJICUG_clean_linker_0, # of connection points: 2
#     Edge 129, Type (0, 0), BuildingBlock: OJICUG_clean_linker_0, # of connection points: 2
#     Edge 130, Type (0, 0), BuildingBlock: OJICUG_clean_linker_0, # of connection points: 2
#     Edge 131, Type (0, 0), BuildingBlock: OJICUG_clean_linker_0, # of connection points: 2
#     Edge 132, Type (0, 0), BuildingBlock: OJICUG_clean_linker_0, # of connection points: 2
#     Edge 133, Type (0, 0), BuildingBlock: OJICUG_clean_linker_0, # of connection points: 2
#     Edge 134, Type (0, 0), BuildingBlock: OJICUG_clean_linker_0, # of connection points: 2
#     Edge 135, Type (0, 0), BuildingBlock: OJICUG_clean_linker_0, # of connection points: 2
#     Edge 136, Type (0, 0), BuildingBlock: OJICUG_clean_linker_0, # of connection points: 2
#     Edge 137, Type (0, 0), BuildingBlock: OJICUG_clean_linker_0, # of connection points: 2
#     Edge 138, Type (0, 0), BuildingBlock: OJICUG_clean_linker_0, # of connection points: 2
#     Edge 139, Type (0, 0), BuildingBlock: OJICUG_clean_linker_0, # of connection points: 2
#     Edge 140, Type (0, 0), BuildingBlock: OJICUG_clean_linker_0, # of connection points: 2
#     Edge 141, Type (0, 0), BuildingBlock: OJICUG_clean_linker_0, # of connection points: 2
#     Edge 142, Type (0, 0), BuildingBlock: OJICUG_clean_linker_0, # of connection points: 2
#     Edge 143, Type (0, 0), BuildingBlock: OJICUG_clean_linker_0, # of connection points: 2
# Relax obj value: 0.485
# Max RMSD: 0.206
# Mean RMSD: 0.206
data_MOF--net-wmt--node1-BETGAK_clean_sbu_0--edge1-OJICUG_clean_linker_0
_symmetry_space_group_name_H-M    P1
_symmetry_Int_Tables_number       1
_symmetry_cell_setting            triclinic
loop_
_symmetry_equiv_pos_as_xyz
'x, y, z'
_cell_length_a     59.274201
_cell_length_b     59.240545
_cell_length_c     26.593625
_cell_angle_alpha  89.948643
_cell_angle_beta   90.059311
_cell_angle_gamma 120.0104
loop_
_atom_site_label
_atom_site_type_symbol
_atom_site_fract_x
_atom_site_fract_y
_atom_site_fract_z
_atom_type_partial_charge
La0 La 0.0649 0.47244 0.21182 0.0
La1 La 0.01766 0.4277 0.16429 0.0
C2 C 0.09102 0.51055 0.27038 0.0
C3 C 0.08516 0.51949 0.31882 0.0
C4 C 0.10545 0.5357 0.35162 0.0
C5 C 0.10041 0.5454 0.39597 0.0
C6 C 0.07486 0.53928 0.40899 0.0
C7 C 0.05451 0.52284 0.37607 0.0
C8 C 0.05957 0.51306 0.33177 0.0
C9 C 0.07707 0.4437 0.15122 0.0
C10 C 0.01995 0.42789 0.28379 0.0
C11 C 0.98796 0.38904 0.11118 0.0
C12 C 0.99239 0.38001 1.06308 0.0
C13 C 0.98452 0.35364 1.05623 0.0
C14 C 0.99227 0.34571 1.01333 0.0
C15 C 0.00857 0.36419 0.97761 0.0
C16 C 0.01522 0.39037 0.98375 0.0
C17 C 0.00728 0.39816 1.02602 0.0
C18 C 0.00972 0.46555 0.19732 0.0
C19 C 0.0562 0.47842 0.09678 0.0
O20 O 0.09223 0.489 0.27118 0.0
O21 O 0.07839 0.51153 0.23078 0.0
O22 O 0.09285 0.4674 0.16644 0.0
O23 O 0.05652 0.43506 0.17886 0.0
O24 O 0.04186 0.4504 0.27863 0.0
O25 O 0.00749 0.41409 0.24335 0.0
O26 O 0.98788 0.4111 0.11031 0.0
O27 O 0.00199 0.38814 0.14814 0.0
O28 O 0.99245 0.44088 0.19822 0.0
O29 O 0.02988 0.46668 0.18036 0.0
O30 O 0.03802 0.45312 0.098 0.0
O31 O 0.06792 0.4911 0.13881 0.0
H32 H 0.12536 0.54117 0.3426 0.0
H33 H 0.11673 0.55819 0.41962 0.0
H34 H 0.03454 0.51728 0.38473 0.0
H35 H 0.04345 0.50059 0.30736 0.0
H36 H 0.97296 0.33935 0.08459 0.0
H37 H 0.98586 0.32527 1.00861 0.0
H38 H 0.02655 0.40501 0.95582 0.0
H39 H 0.01337 0.41854 1.03014 0.0
La40 La 0.53163 0.59051 0.20793 0.0
La41 La 0.57545 0.58545 0.16256 0.0
C42 C 0.49328 0.57946 0.26503 0.0
C43 C 0.48368 0.56517 0.31422 0.0
C44 C 0.49803 0.57425 0.35926 0.0
C45 C 0.4885 0.56035 0.40472 0.0
C46 C 0.46434 0.53684 0.40674 0.0
C47 C 0.45015 0.5278 0.3615 0.0
C48 C 0.45962 0.54173 0.3162 0.0
C49 C 0.56168 0.6307 0.14696 0.0
C50 C 0.57402 0.58827 0.28213 0.0
C51 C 0.61567 0.59186 0.11819 0.0
C52 C 0.63203 0.60748 0.07651 0.0
C53 C 0.64001 0.596 1.04004 0.0
C54 C 0.65222 0.60976 0.99642 0.0
C55 C 0.6569 0.6354 0.9891 0.0
C56 C 0.65085 0.64726 1.02818 0.0
C57 C 0.6382 0.63335 1.07087 0.0
C58 C 0.53632 0.54061 0.19758 0.0
C59 C 0.52658 0.57535 0.09321 0.0
O60 O 0.51482 0.60226 0.26488 0.0
O61 O 0.49224 0.5653 0.22633 0.0
O62 O 0.5381 0.62381 0.16138 0.0
O63 O 0.56967 0.61834 0.17524 0.0
O64 O 0.55275 0.58986 0.27608 0.0
O65 O 0.58728 0.58777 0.24246 0.0
O66 O 0.59207 0.57362 0.10611 0.0
O67 O 0.61598 0.60489 0.1582 0.0
O68 O 0.56034 0.54618 0.19451 0.0
O69 O 0.53623 0.55996 0.17937 0.0
O70 O 0.55174 0.58202 0.09473 0.0
O71 O 0.51375 0.57455 0.13485 0.0
H72 H 0.51672 0.59209 0.35948 0.0
H73 H 0.50032 0.56792 0.43826 0.0
H74 H 0.43138 0.51007 0.3611 0.0
H75 H 0.44799 0.53412 0.28243 0.0
H76 H 0.6354 0.57592 1.04387 0.0
H77 H 0.65594 0.59933 0.96728 0.0
H78 H 0.65403 0.6667 1.02452 0.0
H79 H 0.63172 0.64239 0.09781 0.0
La80 La 0.40504 0.9355 0.20993 0.0
La81 La 0.40703 0.98292 0.16574 0.0
C82 C 0.41783 0.90911 0.26608 0.0
C83 C 0.43263 0.91477 0.31469 0.0
C84 C 0.42809 0.89443 0.34785 0.0
C85 C 0.44264 0.89934 0.39256 0.0
C86 C 0.46234 0.9248 0.40563 0.0
C87 C 0.46671 0.94519 0.37234 0.0
C88 C 0.45206 0.94027 0.32773 0.0
C89 C 0.36339 0.92351 0.1514 0.0
C90 C 0.40727 0.98005 0.28495 0.0
C91 C 0.39797 0.01632 0.12724 0.0
C92 C 0.38356 0.01854 0.0854 0.0
C93 C 0.36806 0.99664 1.05622 0.0
C94 C 0.3572 0.99916 1.01202 0.0
C95 C 0.36277 0.02398 0.99527 0.0
C96 C 0.37686 0.0457 1.02652 0.0
C97 C 0.38702 0.04292 1.07191 0.0
C98 C 0.4536 0.99065 0.1948 0.0
C99 C 0.41845 0.94588 0.09354 0.0
O100 O 0.39475 0.90714 0.26725 0.0
O101 O 0.43124 0.92245 0.22688 0.0
O102 O 0.37197 0.90791 0.16416 0.0
O103 O 0.37539 0.94382 0.17989 0.0
O104 O 0.40672 0.95764 0.27875 0.0
O105 O 0.406 0.99287 0.24541 0.0
O106 O 0.41796 0.01372 0.11496 0.0
O107 O 0.38369 -6e-05 0.16246 0.0
O108 O 0.44625 0.00786 0.19726 0.0
O109 O 0.4341 0.97065 0.17869 0.0
O110 O 0.41119 0.96399 0.09615 0.0
O111 O 0.41987 0.93386 0.13494 0.0
H112 H 0.41342 0.87458 0.33889 0.0
H113 H 0.43871 0.88298 0.41646 0.0
H114 H 0.48131 0.9651 0.38098 0.0
H115 H 0.45606 0.95646 0.30319 0.0
H116 H 0.36605 0.97802 1.06578 0.0
H117 H 0.34699 0.98206 0.98844 0.0
H118 H 0.38182 0.06499 1.01385 0.0
H119 H 0.39905 0.06 0.09456 0.0
La120 La 0.47459 0.07109 0.56464 0.0
La121 La 0.43196 0.0226 0.60889 0.0
C122 C 0.51188 0.09881 0.50578 0.0
C123 C 0.52072 0.09251 0.45774 0.0
C124 C 0.53656 0.11235 0.42384 0.0
C125 C 0.54568 0.10666 0.37943 0.0
C126 C 0.53929 0.08088 0.36751 0.0
C127 C 0.52328 0.06101 0.40164 0.0
C128 C 0.51412 0.06673 0.44598 0.0
C129 C 0.44431 0.08079 0.62572 0.0
C130 C 0.43129 0.02592 0.49103 0.0
C131 C 0.39442 0.98852 0.65835 0.0
C132 C 0.38612 0.98837 0.70967 0.0
C133 C 0.3603 0.98165 0.71865 0.0
C134 C 0.35384 0.98911 0.76334 0.0
C135 C 0.37317 0.00332 0.79936 0.0
C136 C 0.39834 0.00717 0.79244 0.0
C137 C 0.4048 -0.00017 0.74777 0.0
C138 C 0.47131 0.01756 0.57432 0.0
C139 C 0.48082 0.06144 0.67917 0.0
O140 O 0.48952 0.09839 0.50502 0.0
O141 O 0.51417 0.08747 0.54619 0.0
O142 O 0.46788 0.09757 0.61154 0.0
O143 O 0.43652 0.06069 0.59696 0.0
O144 O 0.45387 0.0477 0.49682 0.0
O145 O 0.41733 0.01356 0.53102 0.0
O146 O 0.41656 0.98892 0.65318 0.0
O147 O 0.39291 0.00562 0.62943 0.0
O148 O 0.4469 0.00027 0.56927 0.0
O149 O 0.47152 0.03676 0.59402 0.0
O150 O 0.45587 0.04245 0.67706 0.0
O151 O 0.49337 0.07396 0.63757 0.0
H152 H 0.54211 0.13239 0.43192 0.0
H153 H 0.55819 0.12264 0.35483 0.0
H154 H 0.51751 0.0409 0.39388 0.0
H155 H 0.50195 0.05094 0.47129 0.0
H156 H 0.34553 0.97214 0.68999 0.0
H157 H 0.33403 0.98476 0.76832 0.0
H158 H 0.41333 0.01654 0.8208 0.0
H159 H 0.42472 0.00446 0.74204 0.0
La160 La 0.93283 0.40521 0.56733 0.0
La161 La 0.98063 0.40857 0.61262 0.0
C162 C 0.90569 0.41667 0.51042 0.0
C163 C 0.91103 0.431 0.46147 0.0
C164 C 0.89042 0.42705 0.42968 0.0
C165 C 0.89514 0.44136 0.38473 0.0
C166 C 0.92067 0.46019 0.37018 0.0
C167 C 0.94132 0.46386 0.40202 0.0
C168 C 0.93658 0.44948 0.44686 0.0
C169 C 0.92106 0.36456 0.62838 0.0
C170 C 0.97694 0.40631 0.49284 0.0
C171 C 0.01456 0.40194 0.65646 0.0
C172 C 0.01616 0.387 0.69831 0.0
C173 C 0.03716 0.38243 0.70147 0.0
C174 C 0.03949 0.36928 0.74298 0.0
C175 C 0.02032 0.35985 0.78047 0.0
C176 C 0.99868 0.36344 0.77558 0.0
C177 C 0.99692 0.37736 0.73532 0.0
C178 C 0.98755 0.45456 0.58104 0.0
C179 C 0.94287 0.41964 0.6828 0.0
O180 O 0.90438 0.39387 0.51 0.0
O181 O 0.91895 0.43061 0.54921 0.0
O182 O 0.90527 0.37249 0.61337 0.0
O183 O 0.94158 0.37629 0.6003 0.0
O184 O 0.95473 0.40613 0.49891 0.0
O185 O 0.98996 0.4056 0.53279 0.0
O186 O 0.00977 0.42065 0.66775 0.0
O187 O 0.0006 0.38801 0.61854 0.0
O188 O 0.005 0.44754 0.57945 0.0
O189 O 0.9678 0.43507 0.5978 0.0
O190 O 0.96072 0.41209 0.681 0.0
O191 O 0.93122 0.42114 0.64101 0.0
H192 H 0.87053 0.41308 0.43994 0.0
H193 H 0.87862 0.43801 0.3619 0.0
H194 H 0.96128 0.47776 0.39214 0.0
H195 H 0.95295 0.45298 0.4704 0.0
H196 H 0.05217 0.38983 0.67284 0.0
H197 H 0.05658 0.36733 0.74684 0.0
H198 H 0.98411 0.35725 0.80495 0.0
H199 H 0.98103 0.38142 0.73401 0.0
La200 La 0.58957 0.52224 0.57057 0.0
La201 La 0.58883 0.5701 0.61072 0.0
C202 C 0.57422 0.4825 0.51501 0.0
C203 C 0.55735 0.47315 0.46842 0.0
C204 C 0.5675 0.47038 0.42252 0.0
C205 C 0.55188 0.46145 0.3789 0.0
C206 C 0.52539 0.45481 0.37943 0.0
C207 C 0.51518 0.45739 0.42556 0.0
C208 C 0.53086 0.46645 0.46915 0.0
C209 C 0.63045 0.55179 0.63037 0.0
C210 C 0.59181 0.56627 0.49256 0.0
C211 C 0.59942 0.61204 0.65365 0.0
C212 C 0.61063 0.62353 0.70218 0.0
C213 C 0.60552 0.60725 0.74382 0.0
C214 C 0.6198 0.61707 0.78746 0.0
C215 C 0.63918 0.64335 0.79028 0.0
C216 C 0.64312 0.66026 0.75019 0.0
C217 C 0.62888 0.65025 0.70583 0.0
C218 C 0.54275 0.53174 0.57903 0.0
C219 C 0.57408 0.52097 0.68489 0.0
O220 O 0.59748 0.50333 0.51115 0.0
O221 O 0.56282 0.48269 0.55703 0.0
O222 O 0.6227 0.52776 0.61736 0.0
O223 O 0.61881 0.55996 0.60063 0.0
O224 O 0.58991 0.54332 0.50087 0.0
O225 O 0.59374 0.58147 0.53072 0.0
O226 O 0.57635 0.59105 0.65483 0.0
O227 O 0.61542 0.60946 0.62347 0.0
O228 O 0.55027 0.55642 0.57619 0.0
O229 O 0.56181 0.53115 0.5972 0.0
O230 O 0.58144 0.54626 0.68029 0.0
O231 O 0.57322 0.50678 0.64519 0.0
H232 H 0.58764 0.47509 0.42031 0.0
H233 H 0.56061 0.45945 0.34469 0.0
H234 H 0.49511 0.45286 0.4279 0.0
H235 H 0.52211 0.46825 0.50346 0.0
H236 H 0.59128 0.58668 0.74202 0.0
H237 H 0.61609 0.60398 0.81887 0.0
H238 H 0.65776 0.68072 0.75249 0.0
H239 H 0.63289 0.66303 0.67382 0.0
La240 La 0.9782 0.57143 0.11473 0.0
La241 La 0.93145 0.52564 1.06731 0.0
C242 C 0.00704 0.61118 0.16609 0.0
C243 C 0.00393 0.61969 0.21579 0.0
C244 C 0.01271 0.64606 0.22499 0.0
C245 C 0.00525 0.65348 0.26888 0.0
C246 C 0.98894 0.63456 0.30396 0.0
C247 C 0.98228 0.60846 0.2963 0.0
C248 C 0.98951 0.60111 0.25251 0.0
C249 C 0.98724 0.53409 0.08331 0.0
C250 C 0.94064 0.52046 0.18275 0.0
C251 C 0.90578 0.48713 1.00957 0.0
C252 C 0.91156 0.47774 0.96139 0.0
C253 C 0.91708 0.49195 0.91616 0.0
C254 C 0.92251 0.48267 0.87162 0.0
C255 C 0.92267 0.4589 0.87078 0.0
C256 C 0.91731 0.44485 0.91621 0.0
C257 C 0.91177 0.45407 0.96062 0.0
C258 C 0.91854 0.55406 0.12725 0.0
C259 C 0.97648 0.57019 0.99516 0.0
O260 O 0.0093 0.5903 0.16522 0.0
O261 O 0.99052 0.6103 0.13226 0.0
O262 O 0.00425 0.55885 0.0826 0.0
O263 O 0.96672 0.53251 0.09943 0.0
O264 O 0.95858 0.54586 0.18134 0.0
O265 O 0.92899 0.50756 0.14082 0.0
O266 O 0.90404 0.50841 1.00851 0.0
O267 O 0.91843 0.48643 1.0494 0.0
O268 O 0.90304 0.53025 0.1123 0.0
O269 O 0.93904 0.56275 0.09949 0.0
O270 O 0.95481 0.54742 1.00044 0.0
O271 O 0.98841 0.58451 1.03543 0.0
H272 H 0.0246 0.66079 0.19767 0.0
H273 H 0.01172 0.67387 0.27448 0.0
H274 H 0.97118 0.59347 0.32379 0.0
H275 H 0.98311 0.58075 0.24683 0.0
H276 H 0.91728 0.51032 0.91507 0.0
H277 H 0.92688 0.49435 0.83785 0.0
H278 H 0.91688 0.42637 0.91736 0.0
H279 H 0.90757 0.44256 0.99461 0.0
La280 La 0.41705 0.39804 0.11381 0.0
La281 La 0.46841 0.40955 0.0745 0.0
C282 C 0.3687 0.37257 0.13041 0.0
C283 C 0.35157 0.36179 0.17413 0.0
C284 C 0.33524 0.37162 0.18746 0.0
C285 C 0.32276 0.36532 0.23395 0.0
C286 C 0.32671 0.34934 0.26758 0.0
C287 C 0.34054 0.33721 0.2514 0.0
C288 C 0.35255 0.3431 0.20479 0.0
C289 C 0.4497 0.44746 0.11704 0.0
C290 C 0.46537 0.41902 0.19022 0.0
C291 C 0.50959 0.42729 1.02257 0.0
C292 C 0.51838 0.44099 0.97307 0.0
C293 C 0.53442 0.43602 0.9416 0.0
C294 C 0.5433 0.44901 0.89529 0.0
C295 C 0.53649 0.4675 0.87902 0.0
C296 C 0.5203 0.47239 0.91065 0.0
C297 C 0.51128 0.45924 0.95687 0.0
C298 C 0.44518 0.36633 0.13368 0.0
C299 C 0.4258 0.40427 0.99381 0.0
O300 O 0.38232 0.39798 0.12865 0.0
O301 O 0.38263 0.36187 0.11812 0.0
O302 O 0.42968 0.43521 0.14666 0.0
O303 O 0.4492 0.43206 0.08229 0.0
O304 O 0.43922 0.40452 0.1863 0.0
O305 O 0.48041 0.42623 0.14948 0.0
O306 O 0.49096 0.4028 1.02158 0.0
O307 O 0.50623 0.44014 1.05916 0.0
O308 O 0.46999 0.381 0.12587 0.0
O309 O 0.43439 0.3744 0.10209 0.0
O310 O 0.44675 0.40229 1.00225 0.0
O311 O 0.41207 0.40471 1.03278 0.0
H312 H 0.33366 0.3856 0.16358 0.0
H313 H 0.31276 0.37542 0.24599 0.0
H314 H 0.34473 0.32556 0.27685 0.0
H315 H 0.36411 0.33445 0.19471 0.0
H316 H 0.54026 0.42213 0.953 0.0
H317 H 0.55591 0.44482 0.87257 0.0
H318 H 0.51427 0.48615 0.89941 0.0
H319 H 0.49874 0.46339 0.97994 0.0
La320 La 0.58841 0.02017 0.10949 0.0
La321 La 0.59373 0.06928 1.06598 0.0
C322 C 0.59562 0.9867 0.15315 0.0
C323 C 0.60758 0.9855 0.20001 0.0
C324 C 0.6232 0.97387 0.20114 0.0
C325 C 0.63786 0.9762 0.24398 0.0
C326 C 0.63716 0.9906 0.28506 0.0
C327 C 0.62047 0.001 0.28452 0.0
C328 C 0.60566 0.99831 0.24244 0.0
C329 C 0.5436 0.01458 0.07563 0.0
C330 C 0.57682 0.05788 0.1801 0.0
C331 C 0.58399 0.09735 1.00825 0.0
C332 C 0.56959 0.0919 0.95928 0.0
C333 C 0.57527 0.11213 0.925 0.0
C334 C 0.56107 0.10733 0.87985 0.0
C335 C 0.5406 0.08212 0.86759 0.0
C336 C 0.53516 0.06183 0.90194 0.0
C337 C 0.54945 0.06662 0.94692 0.0
C338 C 0.63317 0.07848 0.12853 0.0
C339 C 0.59144 0.02453 0.99073 0.0
O340 O 0.57412 0.98775 0.15712 0.0
O341 O 0.61194 0.00365 0.1208 0.0
O342 O 0.55042 0.99695 1.07269 0.0
O343 O 0.56285 0.03412 0.094 0.0
O344 O 0.58236 0.03856 0.1778 0.0
O345 O 0.57744 0.07107 0.13898 0.0
O346 O 0.6063 0.09763 1.00817 0.0
O347 O 0.56989 0.08495 1.04754 0.0
O348 O 0.62664 0.09553 0.1147 0.0
O349 O 0.62109 0.05881 0.09871 0.0
O350 O 0.59212 0.04701 0.99719 0.0
O351 O 0.59184 0.01118 1.03025 0.0
H352 H 0.62464 0.96373 0.1685 0.0
H353 H 0.65016 0.96749 0.24459 0.0
H354 H 0.61884 0.0112 0.31689 0.0
H355 H 0.59326 0.0069 0.24269 0.0
H356 H 0.59056 0.1318 0.93339 0.0
H357 H 0.56584 0.12359 0.855 0.0
H358 H 0.51994 0.04208 0.89391 0.0
H359 H 0.54461 0.05052 0.97231 0.0
La360 La 0.57231 0.98201 0.66417 0.0
La361 La 0.52646 0.93532 0.70967 0.0
C362 C 0.61318 0.01219 0.61719 0.0
C363 C 0.62431 0.00964 0.57054 0.0
C364 C 0.65086 0.02576 0.56046 0.0
C365 C 0.66165 0.02154 0.51733 0.0
C366 C 0.64584 0.0011 0.48438 0.0
C367 C 0.61913 0.98554 0.49452 0.0
C368 C 0.60851 0.98977 0.53718 0.0
C369 C 0.53505 0.99134 0.69466 0.0
C370 C 0.52209 0.94501 0.5942 0.0
C371 C 0.48769 0.90958 0.76709 0.0
C372 C 0.47856 0.91543 0.81548 0.0
C373 C 0.46227 0.89512 0.8482 0.0
C374 C 0.45243 0.90012 0.89249 0.0
C375 C 0.45848 0.92566 0.90563 0.0
C376 C 0.47499 0.94604 0.87277 0.0
C377 C 0.48491 0.94102 0.82853 0.0
C378 C 0.55539 0.92257 0.65034 0.0
C379 C 0.57006 0.97992 0.78333 0.0
O380 O 0.59133 0.01248 0.61251 0.0
O381 O 0.61205 0.99639 0.65278 0.0
O382 O 0.55983 0.00798 0.69693 0.0
O383 O 0.53335 0.9708 0.67825 0.0
O384 O 0.54751 0.96288 0.59632 0.0
O385 O 0.50891 0.93323 0.63581 0.0
O386 O 0.50889 0.90774 0.76842 0.0
O387 O 0.48738 0.92257 0.72748 0.0
O388 O 0.53129 0.90721 0.66386 0.0
O389 O 0.56392 0.94283 0.67885 0.0
O390 O 0.54757 0.95811 0.77736 0.0
O391 O 0.58457 0.99211 0.74361 0.0
H392 H 0.66324 0.04121 0.58624 0.0
H393 H 0.68221 0.03416 0.50973 0.0
H394 H 0.60609 0.97049 0.46873 0.0
H395 H 0.58793 0.97731 0.54424 0.0
H396 H 0.45683 0.8752 0.83919 0.0
H397 H 0.4396 0.88375 0.91599 0.0
H398 H 0.48054 0.96601 0.88145 0.0
H399 H 0.49744 0.95719 0.80426 0.0
La400 La 0.01774 0.59144 0.66731 0.0
La401 La 0.06536 0.59375 0.71209 0.0
C402 C 0.98493 0.60073 0.62683 0.0
C403 C 0.98238 0.61455 0.58415 0.0
C404 C 0.00121 0.62391 0.54638 0.0
C405 C 0.99858 0.6369 0.50542 0.0
C406 C 0.97648 0.63973 0.50069 0.0
C407 C 0.9576 0.63031 0.53866 0.0
C408 C 0.96073 0.61805 0.58073 0.0
C409 C 0.00998 0.54507 0.69783 0.0
C410 C 0.05458 0.57929 0.59627 0.0
C411 C 0.09234 0.58188 0.76844 0.0
C412 C 0.08698 0.56768 0.81755 0.0
C413 C 0.10757 0.57124 0.849 0.0
C414 C 0.10275 0.55704 0.89413 0.0
C415 C 0.07714 0.53872 0.90918 0.0
C416 C 0.05652 0.53546 0.87769 0.0
C417 C 0.06136 0.54973 0.83269 0.0
C418 C 0.07722 0.63446 0.65107 0.0
C419 C 0.02111 0.59225 0.7871 0.0
O420 O 0.98703 0.58025 0.61631 0.0
O421 O 0.00152 0.61553 0.6613 0.0
O422 O 0.99268 0.55234 0.69917 0.0
O423 O 0.03007 0.56447 0.68164 0.0
O424 O 0.03655 0.58663 0.59839 0.0
O425 O 0.06661 0.57806 0.63781 0.0
O426 O 0.09409 0.60488 0.76877 0.0
O427 O 0.07875 0.56792 0.72992 0.0
O428 O 0.09297 0.62637 0.66548 0.0
O429 O 0.05701 0.62285 0.67982 0.0
O430 O 0.0435 0.59279 0.78084 0.0
O431 O 0.0081 0.59316 0.74735 0.0
H432 H 0.01739 0.62032 0.54769 0.0
H433 H 0.01291 0.64301 0.47558 0.0
H434 H 0.94011 0.63152 0.53475 0.0
H435 H 0.94594 0.61066 0.6098 0.0
H436 H 0.12751 0.58482 0.83834 0.0
H437 H 0.11925 0.56006 0.91669 0.0
H438 H 0.03651 0.52198 0.88796 0.0
H439 H 0.045 0.54654 0.80943 0.0
La440 La 0.40747 0.42743 0.66475 0.0
La441 La 0.40735 0.47387 0.71086 0.0
C442 C 0.39652 0.38807 0.61173 0.0
C443 C 0.38448 0.38105 0.56218 0.0
C444 C 0.37841 0.35757 0.53859 0.0
C445 C 0.36517 0.35113 0.49246 0.0
C446 C 0.35765 0.36804 0.47018 0.0
C447 C 0.36452 0.39165 0.49424 0.0
C448 C 0.37802 0.39813 0.53902 0.0
C449 C 0.45392 0.4641 0.69771 0.0
C450 C 0.42345 0.47921 0.59672 0.0
C451 C 0.41994 0.51219 0.7686 0.0
C452 C 0.43542 0.52127 0.81641 0.0
C453 C 0.42553 0.50839 0.86254 0.0
C454 C 0.44059 0.51701 0.90672 0.0
C455 C 0.46602 0.53884 0.9063 0.0
C456 C 0.47586 0.55165 0.86006 0.0
C457 C 0.46079 0.54306 0.81595 0.0
C458 C 0.36639 0.44647 0.64945 0.0
C459 C 0.40684 0.42891 0.78413 0.0
O460 O 0.4195 0.40909 0.61248 0.0
O461 O 0.3813 0.38846 0.64697 0.0
O462 O 0.44577 0.43924 0.69817 0.0
O463 O 0.43531 0.46599 0.68087 0.0
O464 O 0.41511 0.45366 0.59841 0.0
O465 O 0.42486 0.49225 0.63847 0.0
O466 O 0.39703 0.49077 0.76989 0.0
O467 O 0.43305 0.5132 0.72823 0.0
O468 O 0.37545 0.47045 0.66387 0.0
O469 O 0.37731 0.43708 0.67806 0.0
O470 O 0.40883 0.45208 0.77813 0.0
O471 O 0.40376 0.41416 0.74416 0.0
H472 H 0.38353 0.3442 0.55598 0.0
H473 H 0.36101 0.33307 0.47448 0.0
H474 H 0.35921 0.40532 0.47934 0.0
H475 H 0.38261 0.41629 0.55639 0.0
H476 H 0.40615 0.49155 0.86462 0.0
H477 H 0.43233 0.50633 0.94123 0.0
H478 H 0.49512 0.56869 0.85801 0.0
H479 H 0.46904 0.55356 0.78124 0.0
La480 La 0.73667 0.80774 0.54836 0.0
La481 La 0.68889 0.76275 0.50366 0.0
C482 C 0.76361 0.8462 0.60559 0.0
C483 C 0.75782 0.85551 0.65369 0.0
C484 C 0.77806 0.87153 0.68677 0.0
C485 C 0.773 0.88132 0.73101 0.0
C486 C 0.74749 0.87549 0.74366 0.0
C487 C 0.7272 0.85928 0.7104 0.0
C488 C 0.73228 0.84941 0.66623 0.0
C489 C 0.7478 0.77817 0.4875 0.0
C490 C 0.69208 0.76437 0.6224 0.0
C491 C 0.6575 0.72206 0.45779 0.0
C492 C 0.65915 0.71071 0.41069 0.0
C493 C 0.64547 0.68363 0.40391 0.0
C494 C 0.6501 0.67284 0.36132 0.0
C495 C 0.66841 0.68919 0.32554 0.0
C496 C 0.68116 0.71634 0.33193 0.0
C497 C 0.67668 0.72696 0.37422 0.0
C498 C 0.68143 0.80109 0.53605 0.0
C499 C 0.72616 0.81237 0.43353 0.0
O500 O 0.76437 0.82441 0.60708 0.0
O501 O 0.75121 0.84722 0.56566 0.0
O502 O 0.76384 0.80207 0.50134 0.0
O503 O 0.7278 0.77003 0.51653 0.0
O504 O 0.71393 0.78684 0.61638 0.0
O505 O 0.67957 0.75009 0.58275 0.0
O506 O 0.65737 0.74406 0.45401 0.0
O507 O 0.67387 0.72307 0.49201 0.0
O508 O 0.66418 0.77647 0.53805 0.0
O509 O 0.70134 0.80192 0.51854 0.0
O510 O 0.70819 0.78701 0.43562 0.0
O511 O 0.73809 0.82552 0.47507 0.0
H512 H 0.79794 0.87674 0.67811 0.0
H513 H 0.78929 0.89392 0.75491 0.0
H514 H 0.70726 0.85391 0.71874 0.0
H515 H 0.71618 0.83708 0.64164 0.0
H516 H 0.63159 0.67089 0.43174 0.0
H517 H 0.63939 0.65189 0.35625 0.0
H518 H 0.6944 0.72959 0.30385 0.0
H519 H 0.6873 0.74788 0.37867 0.0
La520 La 0.19084 0.92251 0.53962 0.0
La521 La 0.23824 0.92249 0.4958 0.0
C522 C 0.15227 0.90753 0.59802 0.0
C523 C 0.14388 0.89064 0.64438 0.0
C524 C 0.13281 0.89666 0.68525 0.0
C525 C 0.12444 0.8808 0.72854 0.0
C526 C 0.12665 0.85818 0.73246 0.0
C527 C 0.13767 0.8521 0.69137 0.0
C528 C 0.14634 0.86818 0.64824 0.0
C529 C 0.22003 0.96444 0.48153 0.0
C530 C 0.23502 0.92296 0.61458 0.0
C531 C 0.2785 0.93375 0.44566 0.0
C532 C 0.2874 0.94618 0.39671 0.0
C533 C 0.31388 0.95908 0.384 0.0
C534 C 0.32235 0.97397 0.33991 0.0
C535 C 0.30431 0.97611 0.30882 0.0
C536 C 0.2777 0.9617 0.32047 0.0
C537 C 0.26941 0.94703 0.36394 0.0
C538 C 0.20039 0.87599 0.5267 0.0
C539 C 0.18777 0.90819 0.42498 0.0
O540 O 0.17335 0.93062 0.60122 0.0
O541 O 0.15154 0.89602 0.55553 0.0
O542 O 0.19593 0.95587 0.49509 0.0
O543 O 0.22852 0.95254 0.50975 0.0
O544 O 0.21212 0.92123 0.60725 0.0
O545 O 0.25027 0.92575 0.57572 0.0
O546 O 0.25741 0.91079 0.44492 0.0
O547 O 0.27745 0.94886 0.48031 0.0
O548 O 0.22506 0.88331 0.52707 0.0
O549 O 0.19949 0.89513 0.50993 0.0
O550 O 0.2132 0.9162 0.42845 0.0
O551 O 0.17388 0.90657 0.46559 0.0
H552 H 0.13056 0.9137 0.68369 0.0
H553 H 0.11592 0.88617 0.75895 0.0
H554 H 0.14012 0.83517 0.69294 0.0
H555 H 0.15508 0.86302 0.61793 0.0
H556 H 0.32798 0.9583 0.40879 0.0
H557 H 0.34294 0.98431 0.33097 0.0
H558 H 0.26308 0.96171 0.29601 0.0
H559 H 0.24893 0.93691 0.37222 0.0
La560 La 0.07385 0.26709 0.5469 0.0
La561 La 0.07745 0.31483 0.50188 0.0
C562 C 0.08566 0.24048 0.60471 0.0
C563 C 0.10056 0.24628 0.65324 0.0
C564 C 0.09664 0.22597 0.68589 0.0
C565 C 0.11147 0.231 0.73025 0.0
C566 C 0.13086 0.25657 0.74352 0.0
C567 C 0.1346 0.27694 0.71073 0.0
C568 C 0.11967 0.27189 0.66643 0.0
C569 C 0.03329 0.25577 0.48523 0.0
C570 C 0.07504 0.31156 0.62084 0.0
C571 C 0.06933 0.34694 0.45552 0.0
C572 C 0.0538 0.34419 0.41131 0.0
C573 C 0.04967 0.32512 0.37587 0.0
C574 C 0.03373 0.32106 0.33501 0.0
C575 C 0.02152 0.33598 0.3287 0.0
C576 C 0.0256 0.35514 0.36435 0.0
C577 C 0.04149 0.35901 0.40602 0.0
C578 C 0.12304 0.32201 0.53491 0.0
C579 C 0.08906 0.27707 0.43195 0.0
O580 O 0.06291 0.23927 0.60551 0.0
O581 O 0.09921 0.25318 0.56516 0.0
O582 O 0.04117 0.23983 0.49978 0.0
O583 O 0.04504 0.276 0.51399 0.0
O584 O 0.07457 0.28917 0.6151 0.0
O585 O 0.07456 0.32463 0.5809 0.0
O586 O 0.08989 0.34456 0.44798 0.0
O587 O 0.05565 0.33331 0.49401 0.0
O588 O 0.1157 0.33924 0.53709 0.0
O589 O 0.10395 0.30216 0.51719 0.0
O590 O 0.08224 0.29545 0.43388 0.0
O591 O 0.08972 0.26486 0.47358 0.0
H592 H 0.08226 0.20603 0.67676 0.0
H593 H 0.10803 0.21463 0.7537 0.0
H594 H 0.14893 0.29693 0.71949 0.0
H595 H 0.12324 0.28806 0.6422 0.0
H596 H 0.05876 0.31329 0.37961 0.0
H597 H 0.03191 0.30688 0.30722 0.0
H598 H 0.01688 0.36729 0.35951 0.0
H599 H 0.04429 0.37357 0.43378 0.0
La600 La 0.13986 0.40073 0.90214 0.0
La601 La 0.09496 0.35301 0.94725 0.0
C602 C 0.17823 0.42783 0.845 0.0
C603 C 0.18743 0.42226 0.7966 0.0
C604 C 0.20272 0.44259 0.76309 0.0
C605 C 0.21235 0.43776 0.71842 0.0
C606 C 0.20708 0.41241 0.70586 0.0
C607 C 0.19156 0.39203 0.73949 0.0
C608 C 0.18183 0.39687 0.78406 0.0
C609 C 0.11038 0.41222 0.96204 0.0
C610 C 0.09687 0.35587 0.8282 0.0
C611 C 0.05463 0.32132 0.99407 0.0
C612 C 0.04282 0.32275 1.0408 0.0
C613 C 0.01614 0.30631 1.04913 0.0
C614 C 0.00462 0.30936 0.09241 0.0
C615 C 0.0198 0.32903 0.12723 0.0
C616 C 0.04667 0.34494 0.11881 0.0
C617 C 0.05802 0.34184 0.076 0.0
C618 C 0.13355 0.34567 0.91592 0.0
C619 C 0.14436 0.39106 1.01733 0.0
O620 O 0.15649 0.42866 0.84384 0.0
O621 O 0.17925 0.41517 0.88455 0.0
O622 O 0.13419 0.42819 0.94783 0.0
O623 O 0.10212 0.39192 0.93372 0.0
O624 O 0.11924 0.37778 0.83434 0.0
O625 O 0.08248 0.34341 0.86786 0.0
O626 O 0.07706 0.3222 0.99859 0.0
O627 O 0.05498 0.33691 0.95885 0.0
O628 O 0.10898 0.32832 0.91381 0.0
O629 O 0.13424 0.36561 0.93299 0.0
O630 O 0.11913 0.37275 1.01516 0.0
O631 O 0.15751 0.403 0.97582 0.0
H632 H 0.20748 0.46236 0.77172 0.0
H633 H 0.2244 0.45409 0.69412 0.0
H634 H 0.18665 0.3722 0.73116 0.0
H635 H 0.17001 0.38071 0.80894 0.0
H636 H 0.0042 0.29152 1.02186 0.0
H637 H 0.98393 0.29658 0.09844 0.0
H638 H 0.05923 0.35946 0.14593 0.0
H639 H 0.07868 0.35459 1.07026 0.0
La640 La 0.60201 0.73899 0.90321 0.0
La641 La 0.65006 0.74297 0.94764 0.0
C642 C 0.57428 0.74912 0.84509 0.0
C643 C 0.57984 0.76366 0.79623 0.0
C644 C 0.55945 0.75962 0.7637 0.0
C645 C 0.56439 0.77416 0.71894 0.0
C646 C 0.58996 0.79333 0.70523 0.0
C647 C 0.61039 0.79709 0.73781 0.0
C648 C 0.60542 0.7825 0.78248 0.0
C649 C 0.59199 0.69809 0.9631 0.0
C650 C 0.6472 0.74166 0.82902 0.0
C651 C 0.68218 0.73464 0.99329 0.0
C652 C 0.68058 0.72035 1.03852 0.0
C653 C 0.69934 0.71318 1.0484 0.0
C654 C 0.69692 0.69841 0.09101 0.0
C655 C 0.67579 0.69092 0.12396 0.0
C656 C 0.65693 0.698 0.11305 0.0
C657 C 0.65921 0.7124 1.07044 0.0
C658 C 0.65674 0.78868 0.91581 0.0
C659 C 0.61226 0.75438 1.0179 0.0
O660 O 0.57392 0.72676 0.84494 0.0
O661 O 0.58668 0.76312 0.88446 0.0
O662 O 0.57581 0.70617 0.95183 0.0
O663 O 0.61169 0.71048 0.93362 0.0
O664 O 0.62489 0.74133 0.83506 0.0
O665 O 0.66009 0.74061 0.8687 0.0
O666 O 0.68035 0.75556 1.00005 0.0
O667 O 0.66732 0.72001 0.9567 0.0
O668 O 0.67425 0.78168 0.91375 0.0
O669 O 0.63696 0.76931 0.93312 0.0
O670 O 0.63041 0.74725 1.01591 0.0
O671 O 0.60016 0.75524 0.97628 0.0
H672 H 0.53953 0.7454 0.77325 0.0
H673 H 0.548 0.77071 0.6956 0.0
H674 H 0.63039 0.81123 0.72868 0.0
H675 H 0.62165 0.78614 0.80659 0.0
H676 H 0.71566 0.71886 1.02318 0.0
H677 H 0.71167 0.69317 0.09859 0.0
H678 H 0.64079 0.69322 0.1382 0.0
H679 H 0.64437 0.71746 1.06264 0.0
La680 La 0.25288 0.86473 0.90632 0.0
La681 La 0.2578 0.91369 0.94716 0.0
C682 C 0.23753 0.8243 0.85257 0.0
C683 C 0.22427 0.81548 0.80255 0.0
C684 C 0.22613 0.79618 0.77521 0.0
C685 C 0.213 0.78689 0.72905 0.0
C686 C 0.19741 0.7965 0.70874 0.0
C687 C 0.19578 0.81606 0.73616 0.0
C688 C 0.20908 0.82547 0.78221 0.0
C689 C 0.29457 0.89082 0.96785 0.0
C690 C 0.25736 0.90695 0.82668 0.0
C691 C 0.27605 0.96082 0.97006 0.0
C692 C 0.28089 0.97375 1.01838 0.0
C693 C 0.27098 0.95826 1.06133 0.0
C694 C 0.28018 0.96902 0.10818 0.0
C695 C 0.2997 0.99521 0.11237 0.0
C696 C 0.30849 0.01123 1.06997 0.0
C697 C 0.29859 0.00057 1.02281 0.0
C698 C 0.21 0.87692 0.94435 0.0
C699 C 0.24042 0.86505 1.02146 0.0
O700 O 0.26161 0.84384 0.85276 0.0
O701 O 0.22379 0.82646 0.88891 0.0
O702 O 0.28296 0.86608 0.95753 0.0
O703 O 0.28521 0.90066 0.93686 0.0
O704 O 0.26136 0.8873 0.83564 0.0
O705 O 0.25404 0.91931 0.86508 0.0
O706 O 0.25159 0.94517 0.95907 0.0
O707 O 0.29031 0.95002 0.96178 0.0
O708 O 0.21928 0.89586 0.97679 0.0
O709 O 0.22727 0.88051 0.9114 0.0
O710 O 0.25206 0.89118 1.01858 0.0
O711 O 0.23573 0.85062 0.98033 0.0
H712 H 0.23758 0.78802 0.78986 0.0
H713 H 0.21465 0.77169 0.70979 0.0
H714 H 0.18439 0.82435 0.72183 0.0
H715 H 0.20737 0.8405 0.80207 0.0
H716 H 0.2573 0.93754 1.05844 0.0
H717 H 0.27322 0.95653 0.14105 0.0
H718 H 0.32368 0.0314 0.07313 0.0
H719 H 0.30584 0.01291 0.98992 0.0
La720 La 0.64979 0.90569 0.45133 0.0
La721 La 0.60282 0.8613 0.40359 0.0
C722 C 0.6795 0.94404 0.50515 0.0
C723 C 0.67488 0.95295 0.55323 0.0
C724 C 0.68196 0.97913 0.55957 0.0
C725 C 0.67363 0.98681 0.60198 0.0
C726 C 0.65758 0.96827 0.63788 0.0
C727 C 0.65191 0.94234 0.63248 0.0
C728 C 0.6604 0.93479 0.59061 0.0
C729 C 0.65804 0.86804 0.41891 0.0
C730 C 0.61121 0.85484 0.51863 0.0
C731 C 0.57667 0.82322 0.34501 0.0
C732 C 0.58221 0.81367 0.2967 0.0
C733 C 0.58737 0.82763 0.25122 0.0
C734 C 0.59251 0.81814 0.20659 0.0
C735 C 0.59274 0.7944 0.20587 0.0
C736 C 0.5877 0.78058 0.25154 0.0
C737 C 0.58245 0.79001 0.29602 0.0
C738 C 0.59044 0.88992 0.46444 0.0
C739 C 0.64814 0.9055 0.33148 0.0
O740 O 0.67933 0.92186 0.50582 0.0
O741 O 0.66582 0.94529 0.46787 0.0
O742 O 0.67514 0.89273 0.41755 0.0
O743 O 0.63768 0.86666 0.43543 0.0
O744 O 0.62938 0.88015 0.51763 0.0
O745 O 0.59961 0.84234 0.4764 0.0
O746 O 0.57554 0.84484 0.34429 0.0
O747 O 0.58899 0.82202 0.3849 0.0
O748 O 0.5748 0.8662 0.44924 0.0
O749 O 0.61098 0.89861 0.43668 0.0
O750 O 0.6261 0.88308 0.33662 0.0
O751 O 0.66042 0.91929 0.37212 0.0
H752 H 0.69326 0.99345 0.53106 0.0
H753 H 0.67939 0.00713 0.60604 0.0
H754 H 0.6409 0.92768 0.66059 0.0
H755 H 0.65497 0.91455 0.58695 0.0
H756 H 0.5875 0.84596 0.25 0.0
H757 H 0.59661 0.82965 0.17265 0.0
H758 H 0.58731 0.76212 0.25285 0.0
H759 H 0.57849 0.77864 0.33016 0.0
La760 La 0.09017 0.74053 0.44747 0.0
La761 La 0.13754 0.74082 0.40225 0.0
C762 C 0.05 0.72861 0.49823 0.0
C763 C 0.04264 0.71849 0.54936 0.0
C764 C 0.01704 0.69905 0.56028 0.0
C765 C 0.01148 0.68551 0.60585 0.0
C766 C 0.03161 0.69124 0.64027 0.0
C767 C 0.0566 0.71238 0.63098 0.0
C768 C 0.06204 0.72582 0.58595 0.0
C769 C 0.12733 0.78694 0.41495 0.0
C770 C 0.141 0.75574 0.5175 0.0
C771 C 0.17655 0.756 0.34481 0.0
C772 C 0.18534 0.77247 0.29807 0.0
C773 C 0.19938 0.76788 0.26091 0.0
C774 C 0.20846 0.78361 0.21756 0.0
C775 C 0.20391 0.80461 0.20983 0.0
C776 C 0.18989 0.80927 0.2473 0.0
C777 C 0.18062 0.79336 0.29059 0.0
C778 C 0.10926 0.69938 0.46182 0.0
C779 C 0.09203 0.73848 0.32834 0.0
O780 O 0.06972 0.75241 0.49458 0.0
O781 O 0.05203 0.71268 0.46683 0.0
O782 O 0.10258 0.7793 0.41519 0.0
O783 O 0.12881 0.76815 0.43205 0.0
O784 O 0.11552 0.74774 0.51483 0.0
O785 O 0.15452 0.75694 0.47648 0.0
O786 O 0.15567 0.73278 0.34168 0.0
O787 O 0.17665 0.76788 0.38636 0.0
O788 O 0.1332 0.70788 0.4473 0.0
O789 O 0.10047 0.71098 0.43361 0.0
O790 O 0.11513 0.74041 0.33459 0.0
O791 O 0.07742 0.73638 0.3679 0.0
H792 H 0.00165 0.69368 0.53296 0.0
H793 H 0.99186 0.66995 0.61324 0.0
H794 H 0.07223 0.71808 0.65798 0.0
H795 H 0.08171 0.74125 0.57906 0.0
H796 H 0.2035 0.75213 0.26552 0.0
H797 H 0.21939 0.77942 0.19022 0.0
H798 H 0.18563 0.82493 0.2428 0.0
H799 H 0.16974 0.79744 0.31827 0.0
La800 La 0.25978 0.35566 0.4475 0.0
La801 La 0.26028 0.40262 0.40203 0.0
C802 C 0.27071 0.32621 0.49651 0.0
C803 C 0.28152 0.32854 0.54683 0.0
C804 C 0.27211 0.33691 0.58678 0.0
C805 C 0.28599 0.34504 0.63136 0.0
C806 C 0.30957 0.34509 0.63671 0.0
C807 C 0.31778 0.33454 0.59844 0.0
C808 C 0.30382 0.32639 0.55349 0.0
C809 C 0.21324 0.34659 0.41692 0.0
C810 C 0.24648 0.39249 0.51761 0.0
C811 C 0.24783 0.42891 0.34517 0.0
C812 C 0.23302 0.42306 0.29684 0.0
C813 C 0.23704 0.44335 0.26408 0.0
C814 C 0.22257 0.43819 0.21932 0.0
C815 C 0.20353 0.41253 0.20595 0.0
C816 C 0.19968 0.3922 0.23887 0.0
C817 C 0.21424 0.39738 0.28355 0.0
C818 C 0.3018 0.41533 0.46071 0.0
C819 C 0.25966 0.35809 0.32861 0.0
O820 O 0.2473 0.32323 0.49446 0.0
O821 O 0.28667 0.34363 0.4643 0.0
O822 O 0.2212 0.3298 0.41481 0.0
O823 O 0.23211 0.36704 0.43355 0.0
O824 O 0.25416 0.3747 0.51545 0.0
O825 O 0.24481 0.4042 0.47607 0.0
O826 O 0.27071 0.43042 0.34381 0.0
O827 O 0.23436 0.41593 0.38465 0.0
O828 O 0.29343 0.43093 0.447 0.0
O829 O 0.28998 0.39498 0.43256 0.0
O830 O 0.25791 0.37934 0.33465 0.0
O831 O 0.263 0.34641 0.36813 0.0
H832 H 0.25475 0.33844 0.58287 0.0
H833 H 0.27856 0.35198 0.66117 0.0
H834 H 0.33545 0.33362 0.60248 0.0
H835 H 0.31107 0.31962 0.52311 0.0
H836 H 0.25126 0.46332 0.27335 0.0
H837 H 0.22603 0.45446 0.19557 0.0
H838 H 0.18558 0.37216 0.22987 0.0
H839 H 0.21071 0.38126 0.3079 0.0
La840 La 0.23988 0.3153 1.00292 0.0
La841 La 0.19516 0.26749 1.0477 0.0
C842 C 0.2814 0.34915 0.96236 0.0
C843 C 0.29746 0.35321 0.91853 0.0
C844 C 0.32094 0.37678 0.91307 0.0
C845 C 0.33589 0.38137 0.86981 0.0
C846 C 0.32779 0.36204 0.83284 0.0
C847 C 0.3046 0.33814 0.83947 0.0
C848 C 0.28927 0.334 0.8816 0.0
C849 C 0.20073 0.32214 1.03271 0.0
C850 C 0.19143 0.27726 0.93132 0.0
C851 C 0.15649 0.24046 0.10434 0.0
C852 C 0.14741 0.24612 0.15286 0.0
C853 C 0.13145 0.22578 0.18581 0.0
C854 C 0.12197 0.23077 0.23057 0.0
C855 C 0.12808 0.25631 0.24383 0.0
C856 C 0.14428 0.27669 0.21074 0.0
C857 C 0.15383 0.27169 0.16608 0.0
C858 C 0.22572 0.25656 0.99016 0.0
C859 C 0.23723 0.31256 0.12218 0.0
O860 O 0.25863 0.34695 0.95373 0.0
O861 O 0.2801 0.33176 0.99445 0.0
O862 O 0.22521 0.33957 1.0356 0.0
O863 O 0.20031 0.30226 1.01602 0.0
O864 O 0.21664 0.29578 0.9338 0.0
O865 O 0.17824 0.2651 0.9728 0.0
O866 O 0.17803 0.23927 0.10542 0.0
O867 O 0.15575 0.25335 1.06491 0.0
O868 O 0.20171 0.24033 1.00287 0.0
O869 O 0.23338 0.2768 1.01832 0.0
O870 O 0.21534 0.2902 0.11609 0.0
O871 O 0.25138 0.32529 0.08256 0.0
H872 H 0.32722 0.39188 0.94141 0.0
H873 H 0.353 0.40024 0.86414 0.0
H874 H 0.29738 0.32335 0.81038 0.0
H875 H 0.27063 0.31626 0.8845 0.0
H876 H 0.12604 0.20589 0.17668 0.0
H877 H 0.10938 0.21442 0.25435 0.0
H878 H 0.14987 0.29666 0.21956 0.0
H879 H 0.16615 0.28787 0.14165 0.0
La880 La 0.6894 0.92695 1.00182 0.0
La881 La 0.73629 0.9279 1.04782 0.0
C882 C 0.65774 0.93755 0.96011 0.0
C883 C 0.65434 0.95071 0.91692 0.0
C884 C 0.63256 0.95411 0.91476 0.0
C885 C 0.62857 0.96592 0.87293 0.0
C886 C 0.64665 0.97491 0.83357 0.0
C887 C 0.66886 0.97216 0.83681 0.0
C888 C 0.67237 0.95965 0.87772 0.0
C889 C 0.6806 0.88012 1.03103 0.0
C890 C 0.72656 0.91484 0.93125 0.0
C891 C 0.76218 0.91438 0.10339 0.0
C892 C 0.757 0.89988 0.1523 0.0
C893 C 0.75172 0.90902 0.19715 0.0
C894 C 0.74651 0.89474 0.24227 0.0
C895 C 0.74633 0.87082 0.24406 0.0
C896 C 0.75156 0.86173 0.19902 0.0
C897 C 0.75685 0.87605 0.15403 0.0
C898 C 0.74904 0.96946 0.98865 0.0
C899 C 0.69219 0.92726 0.12224 0.0
O900 O 0.65859 0.91627 0.95097 0.0
O901 O 0.67537 0.95266 0.99289 0.0
O902 O 0.66356 0.88776 1.03241 0.0
O903 O 0.70103 0.89941 1.01555 0.0
O904 O 0.70858 0.92227 0.93327 0.0
O905 O 0.73825 0.91322 0.97292 0.0
O906 O 0.76504 0.93787 0.10384 0.0
O907 O 0.74815 0.90072 1.06501 0.0
O908 O 0.76456 0.96106 1.00296 0.0
O909 O 0.7286 0.95755 1.0166 0.0
O910 O 0.7143 0.92716 0.11627 0.0
O911 O 0.67952 0.92861 0.08215 0.0
H912 H 0.61831 0.94698 0.94479 0.0
H913 H 0.611 0.96712 0.87031 0.0
H914 H 0.68255 0.97793 0.80588 0.0
H915 H 0.68858 0.95609 0.87786 0.0
H916 H 0.75149 0.92717 0.19747 0.0
H917 H 0.74225 0.90235 0.2757 0.0
H918 H 0.75198 0.84368 0.19858 0.0
H919 H 0.76085 0.86841 0.12031 0.0
La920 La 0.06901 0.74787 0.9955 0.0
La921 La 0.07872 0.79927 1.03501 0.0
C922 C 0.0467 0.70003 0.97458 0.0
C923 C 0.04535 0.68479 0.93075 0.0
C924 C 0.02277 0.66085 0.92172 0.0
C925 C 0.01764 0.65008 0.87371 0.0
C926 C 0.03574 0.66272 0.83521 0.0
C927 C 0.05988 0.68493 0.84636 0.0
C928 C 0.0645 0.69611 0.89371 0.0
C929 C 0.11802 0.78149 0.99916 0.0
C930 C 0.09155 0.79748 0.92081 0.0
C931 C 0.09542 0.84034 0.08705 0.0
C932 C 0.10816 0.84919 0.1374 0.0
C933 C 0.10538 0.86796 0.16467 0.0
C934 C 0.11791 0.87719 0.21132 0.0
C935 C 0.1338 0.86806 0.23204 0.0
C936 C 0.13634 0.84902 0.20476 0.0
C937 C 0.12358 0.83961 0.1583 0.0
C938 C 0.03676 0.77509 0.97356 0.0
C939 C 0.07058 0.75606 0.11649 0.0
O940 O 0.06936 0.71265 0.99675 0.0
O941 O 0.03613 0.71465 0.96824 0.0
O942 O 0.1076 0.76235 0.9671 0.0
O943 O 0.10102 0.77976 1.03103 0.0
O944 O 0.07833 0.77127 0.92384 0.0
O945 O 0.09706 0.81217 0.96176 0.0
O946 O 0.07093 0.82164 0.08654 0.0
O947 O 0.10905 0.83702 1.05197 0.0
O948 O 0.05009 0.79993 0.98237 0.0
O949 O 0.04469 0.76446 1.00579 0.0
O950 O 0.07093 0.77812 0.10715 0.0
O951 O 0.06998 0.74127 0.07833 0.0
H952 H 0.00825 0.65149 0.95047 0.0
H953 H 0.99892 0.63304 0.86587 0.0
H954 H 0.07409 0.69539 0.81718 0.0
H955 H 0.08206 0.71466 0.90007 0.0
H956 H 0.09366 0.87572 0.14962 0.0
H957 H 0.11556 0.89195 0.23069 0.0
H958 H 0.14802 0.84115 0.21956 0.0
H959 H 0.12587 0.82488 0.13864 0.0
La960 La 0.38915 0.1349 0.87397 0.0
La961 La 0.34715 0.08528 0.83171 0.0
C962 C 0.4124 0.17549 0.92786 0.0
C963 C 0.40737 0.18451 0.97732 0.0
C964 C 0.40549 0.17155 1.02294 0.0
C965 C 0.40152 0.1809 1.06893 0.0
C966 C 0.39929 0.20355 1.07101 0.0
C967 C 0.4008 0.21622 1.02511 0.0
C968 C 0.40481 0.20689 0.9792 0.0
C969 C 0.40748 0.11138 0.81134 0.0
C970 C 0.35173 0.09177 0.95285 0.0
C971 C 0.32087 0.03788 0.80791 0.0
C972 C 0.31868 0.02424 0.76117 0.0
C973 C 0.33745 0.03698 0.72388 0.0
C974 C 0.33564 0.0247 0.67859 0.0
C975 C 0.31428 -0.00012 0.66886 0.0
C976 C 0.29509 0.98734 0.70577 0.0
C977 C 0.29744 0.99933 0.75224 0.0
C978 C 0.33325 0.12005 0.83697 0.0
C979 C 0.37681 0.13446 0.75868 0.0
O980 O 0.41799 0.15662 0.9282 0.0
O981 O 0.39672 0.17283 0.89068 0.0
O982 O 0.41892 0.13602 0.82244 0.0
O983 O 0.38814 0.10031 0.84183 0.0
O984 O 0.37524 0.11181 0.94429 0.0
O985 O 0.33649 0.07924 0.91375 0.0
O986 O 0.31183 0.0539 0.80599 0.0
O987 O 0.34382 0.04858 0.82915 0.0
O988 O 0.32438 0.10146 0.8039 0.0
O989 O 0.34758 0.11697 0.86911 0.0
O990 O 0.36427 0.1083 0.76102 0.0
O991 O 0.38493 0.14873 0.80034 0.0
H992 H 0.40718 0.15418 1.02326 0.0
H993 H 0.40002 0.17018 0.10293 0.0
H994 H 0.3995 0.2338 1.02463 0.0
H995 H 0.40617 0.21741 0.94494 0.0
H996 H 0.35299 0.05683 0.72919 0.0
H997 H 0.35011 0.03536 0.6499 0.0
H998 H 0.27814 0.96878 0.69808 0.0
H999 H 0.2825 0.9895 0.78054 0.0
La1000 La 0.85851 0.25914 0.8785 0.0
La1001 La 0.90396 0.25761 0.83242 0.0
C1002 C 0.82024 0.24696 0.93644 0.0
C1003 C 0.81162 0.23219 0.98501 0.0
C1004 C 0.7965 0.237 1.0193 0.0
C1005 C 0.78739 0.22249 1.06411 0.0
C1006 C 0.79303 0.20258 0.07602 0.0
C1007 C 0.80839 0.19796 1.04162 0.0
C1008 C 0.81761 0.21258 0.99693 0.0
C1009 C 0.88756 0.30049 0.81881 0.0
C1010 C 0.90234 0.25809 0.95168 0.0
C1011 C 0.94481 0.26909 0.78472 0.0
C1012 C 0.95551 0.28259 0.73745 0.0
C1013 C 0.98252 0.29681 0.72992 0.0
C1014 C 0.99261 0.31181 0.68648 0.0
C1015 C 0.97566 0.31279 0.65074 0.0
C1016 C 0.94863 0.29785 0.65814 0.0
C1017 C 0.93868 0.28298 0.70112 0.0
C1018 C 0.86622 0.21121 0.86363 0.0
C1019 C 0.85373 0.24481 0.76317 0.0
O1020 O 0.84161 0.26986 0.93717 0.0
O1021 O 0.81938 0.23341 0.89684 0.0
O1022 O 0.86362 0.29219 0.83277 0.0
O1023 O 0.89595 0.28857 0.84711 0.0
O1024 O 0.87987 0.25751 0.94598 0.0
O1025 O 0.91654 0.25996 0.91172 0.0
O1026 O 0.9234 0.24642 0.78118 0.0
O1027 O 0.94331 0.28375 0.81983 0.0
O1028 O 0.89093 0.21882 0.86463 0.0
O1029 O 0.86493 0.23027 0.84711 0.0
O1030 O 0.87907 0.25211 0.765 0.0
O1031 O 0.84069 0.2436 0.80485 0.0
H1032 H 0.79146 0.25186 1.01117 0.0
H1033 H 0.77545 0.22659 0.08902 0.0
H1034 H 0.81356 0.18318 1.04944 0.0
H1035 H 0.82931 0.20842 0.97147 0.0
H1036 H 0.99575 0.29647 0.75764 0.0
H1037 H 0.01349 0.32249 0.6807 0.0
H1038 H 0.93499 0.29723 0.63025 0.0
H1039 H 0.9178 0.27209 0.70612 0.0
La1040 La 0.73799 0.59798 0.87732 0.0
La1041 La 0.74094 0.64532 0.83123 0.0
C1042 C 0.74924 0.57116 0.93565 0.0
C1043 C 0.76386 0.57685 0.98436 0.0
C1044 C 0.75959 0.55648 1.01713 0.0
C1045 C 0.77414 0.56141 1.06179 0.0
C1046 C 0.79357 0.58694 0.07515 0.0
C1047 C 0.79766 0.60737 1.04224 0.0
C1048 C 0.78301 0.60241 0.99766 0.0
C1049 C 0.69692 0.58576 0.81653 0.0
C1050 C 0.73912 0.64282 0.95063 0.0
C1051 C 0.73342 0.6769 0.78044 0.0
C1052 C 0.71561 0.6719 0.73871 0.0
C1053 C 0.71843 0.69168 0.70608 0.0
C1054 C 0.7027 0.68525 0.66315 0.0
C1055 C 0.68383 0.65903 0.65345 0.0
C1056 C 0.67998 0.63997 0.68874 0.0
C1057 C 0.69631 0.6462 0.72981 0.0
C1058 C 0.78696 0.65315 0.86389 0.0
C1059 C 0.75305 0.60751 0.76271 0.0
O1060 O 0.7266 0.5702 0.93603 0.0
O1061 O 0.76304 0.58382 0.89631 0.0
O1062 O 0.7058 0.57046 0.82933 0.0
O1063 O 0.70865 0.6062 0.8449 0.0
O1064 O 0.73922 0.62068 0.94502 0.0
O1065 O 0.738 0.65548 0.9104 0.0
O1066 O 0.75209 0.67185 0.7711 0.0
O1067 O 0.72192 0.66677 0.82315 0.0
O1068 O 0.77965 0.67041 0.86446 0.0
O1069 O 0.76779 0.63311 0.84701 0.0
O1070 O 0.7452 0.62511 0.76404 0.0
O1071 O 0.75447 0.59603 0.80471 0.0
H1072 H 0.74514 0.53658 1.00789 0.0
H1073 H 0.77046 0.54502 0.08541 0.0
H1074 H 0.81205 0.62732 1.05114 0.0
H1075 H 0.78681 0.61861 0.9733 0.0
H1076 H 0.73347 0.71171 0.71243 0.0
H1077 H 0.7064 0.70049 0.63635 0.0
H1078 H 0.66516 0.62 0.68294 0.0
H1079 H 0.69462 0.63087 0.75397 0.0
La1080 La 0.80412 0.73089 0.2335 0.0
La1081 La 0.75965 0.68345 0.27898 0.0
C1082 C 0.84267 0.75756 0.17617 0.0
C1083 C 0.85177 0.75211 0.12737 0.0
C1084 C 0.86721 0.77256 0.09416 0.0
C1085 C 0.87699 0.76791 1.04941 0.0
C1086 C 0.87173 0.7426 1.03639 0.0
C1087 C 0.85601 0.72209 1.06967 0.0
C1088 C 0.84613 0.72675 0.11431 0.0
C1089 C 0.77602 0.74329 0.29556 0.0
C1090 C 0.76073 0.68673 0.15928 0.0
C1091 C 0.7195 0.64977 0.32414 0.0
C1092 C 0.70376 0.64896 0.36673 0.0
C1093 C 0.678 0.62848 0.37123 0.0
C1094 C 0.66336 0.62697 0.4135 0.0
C1095 C 0.67415 0.64651 0.45023 0.0
C1096 C 0.69951 0.66765 0.44403 0.0
C1097 C 0.7144 0.66854 0.40312 0.0
C1098 C 0.79798 0.67584 0.24639 0.0
C1099 C 0.80899 0.7209 0.34876 0.0
O1100 O 0.82125 0.75899 0.17548 0.0
O1101 O 0.84332 0.74447 0.21531 0.0
O1102 O 0.79966 0.75881 0.27989 0.0
O1103 O 0.76677 0.72272 0.26739 0.0
O1104 O 0.78287 0.70887 0.16521 0.0
O1105 O 0.74694 0.67397 0.19934 0.0
O1106 O 0.74305 0.65441 0.3344 0.0
O1107 O 0.7192 0.66347 0.28602 0.0
O1108 O 0.77339 0.65881 0.24423 0.0
O1109 O 0.79877 0.69576 0.26368 0.0
O1110 O 0.78362 0.70296 0.3471 0.0
O1111 O 0.82197 0.73265 0.30694 0.0
H1112 H 0.87204 0.79231 0.10314 0.0
H1113 H 0.88917 0.78435 1.02548 0.0
H1114 H 0.85107 0.70228 1.06105 0.0
H1115 H 0.83422 0.71048 0.13889 0.0
H1116 H 0.6696 0.61323 0.34311 0.0
H1117 H 0.64415 0.61023 0.41853 0.0
H1118 H 0.70856 0.68242 0.47293 0.0
H1119 H 0.7345 0.68403 0.40074 0.0
La1120 La 0.26955 0.07684 0.24068 0.0
La1121 La 0.31666 0.07687 0.28476 0.0
C1122 C 0.24569 0.09202 0.18325 0.0
C1123 C 0.2537 0.10876 0.13675 0.0
C1124 C 0.23718 0.10132 0.09463 0.0
C1125 C 0.24421 0.11703 1.05118 0.0
C1126 C 0.26802 0.14088 1.04831 0.0
C1127 C 0.28454 0.14836 0.09068 0.0
C1128 C 0.27758 0.13251 0.13404 0.0
C1129 C 0.25636 0.03513 0.29968 0.0
C1130 C 0.31277 0.07556 0.16544 0.0
C1131 C 0.34556 0.06576 0.33549 0.0
C1132 C 0.34132 0.05227 0.38356 0.0
C1133 C 0.34957 0.03409 0.39028 0.0
C1134 C 0.34206 0.01834 0.43315 0.0
C1135 C 0.32578 0.0203 0.46923 0.0
C1136 C 0.31877 0.03957 0.46323 0.0
C1137 C 0.32643 0.05532 0.42088 0.0
C1138 C 0.32566 0.12356 0.25408 0.0
C1139 C 0.28094 0.09126 0.35572 0.0
O1140 O 0.24341 0.06883 0.17991 0.0
O1141 O 0.25703 0.10361 0.22532 0.0
O1142 O 0.24103 0.04385 0.28556 0.0
O1143 O 0.2768 0.04668 0.2715 0.0
O1144 O 0.29133 0.07689 0.17243 0.0
O1145 O 0.32559 0.07368 0.20477 0.0
O1146 O 0.34698 0.08852 0.33707 0.0
O1147 O 0.33046 0.05117 0.29916 0.0
O1148 O 0.34271 0.11586 0.25297 0.0
O1149 O 0.3055 0.10447 0.27064 0.0
O1150 O 0.29808 0.08288 0.35257 0.0
O1151 O 0.26879 0.09291 0.31485 0.0
H1152 H 0.21866 0.08329 0.09536 0.0
H1153 H 0.23071 0.11057 1.01989 0.0
H1154 H 0.30315 0.16628 0.09007 0.0
H1155 H 0.29098 0.13891 0.16549 0.0
H1156 H 0.36124 0.03163 0.36184 0.0
H1157 H 0.34861 0.00438 0.43744 0.0
H1158 H 0.30744 0.04272 0.49136 0.0
H1159 H 0.32011 0.06943 0.41696 0.0
La1160 La 0.92694 0.19368 0.23454 0.0
La1161 La 0.9217 0.23685 0.27845 0.0
C1162 C 0.91634 0.15542 0.17732 0.0
C1163 C 0.90135 0.14599 0.12903 0.0
C1164 C 0.90607 0.13039 0.09578 0.0
C1165 C 0.89129 0.12045 1.05142 0.0
C1166 C 0.87119 0.12569 1.03885 0.0
C1167 C 0.86664 0.14151 1.07226 0.0
C1168 C 0.88151 0.15154 0.11651 0.0
C1169 C 0.96705 0.22327 0.29654 0.0
C1170 C 0.92473 0.23612 0.15953 0.0
C1171 C 0.92697 0.27639 0.32362 0.0
C1172 C 0.94166 0.29041 0.36772 0.0
C1173 C 0.94692 0.27696 0.40475 0.0
C1174 C 0.96229 0.29026 0.44544 0.0
C1175 C 0.97254 0.31727 0.45008 0.0
C1176 C 0.96716 0.33082 0.41308 0.0
C1177 C 0.95201 0.31742 0.37146 0.0
C1178 C 0.87663 0.19725 0.24558 0.0
C1179 C 0.91164 0.18847 0.34945 0.0
O1180 O 0.93865 0.17745 0.17615 0.0
O1181 O 0.90272 0.15408 0.21708 0.0
O1182 O 0.95974 0.19968 0.2815 0.0
O1183 O 0.95514 0.23168 0.26787 0.0
O1184 O 0.92539 0.21432 0.16578 0.0
O1185 O 0.92513 0.2497 0.19929 0.0
O1186 O 0.90752 0.2528 0.33158 0.0
O1187 O 0.94145 0.27727 0.28594 0.0
O1188 O 0.88334 0.22163 0.24253 0.0
O1189 O 0.89606 0.19736 0.26373 0.0
O1190 O 0.91804 0.21354 0.34712 0.0
O1191 O 0.91113 0.17558 0.30799 0.0
H1192 H 0.92106 0.12562 0.10438 0.0
H1193 H 0.89537 0.10817 1.0274 0.0
H1194 H 0.85172 0.14643 1.06399 0.0
H1195 H 0.87735 0.16354 0.14121 0.0
H1196 H 0.93924 0.25614 0.40225 0.0
H1197 H 0.96523 0.27909 0.47437 0.0
H1198 H 0.97448 0.35155 0.41667 0.0
H1199 H 0.94827 0.32802 0.34251 0.0
La1200 La 0.32584 0.25257 0.7903 0.0
La1201 La 0.28336 0.2034 0.74566 0.0
C1202 C 0.35239 0.29792 0.82421 0.0
C1203 C 0.35456 0.30485 0.87734 0.0
C1204 C 0.35045 0.28559 0.91263 0.0
C1205 C 0.33967 0.28529 0.95897 0.0
C1206 C 0.3325 0.304 0.97025 0.0
C1207 C 0.34081 0.32568 0.93852 0.0
C1208 C 0.3521 0.32618 0.89217 0.0
C1209 C 0.3384 0.21673 0.78598 0.0
C1210 C 0.29437 0.20235 0.86098 0.0
C1211 C 0.25868 0.1634 0.69058 0.0
C1212 C 0.26244 0.15427 0.64044 0.0
C1213 C 0.24069 0.13604 0.61281 0.0
C1214 C 0.2437 0.12621 0.56666 0.0
C1215 C 0.26863 0.1342 0.54668 0.0
C1216 C 0.29044 0.15273 0.57432 0.0
C1217 C 0.28739 0.16269 0.62038 0.0
C1218 C 0.26546 0.2274 0.80744 0.0
C1219 C 0.32194 0.24766 0.66939 0.0
O1220 O 0.36254 0.28363 0.81131 0.0
O1221 O 0.32877 0.28852 0.80641 0.0
O1222 O 0.34706 0.23507 0.8195 0.0
O1223 O 0.32478 0.22036 0.75299 0.0
O1224 O 0.30764 0.22851 0.85945 0.0
O1225 O 0.28608 0.1884 0.81899 0.0
O1226 O 0.25418 0.18297 0.69102 0.0
O1227 O 0.27478 0.16551 0.72653 0.0
O1228 O 0.25351 0.20284 0.79576 0.0
O1229 O 0.28517 0.23832 0.77778 0.0
O1230 O 0.29872 0.22695 0.67653 0.0
O1231 O 0.3366 0.26042 0.70889 0.0
H1232 H 0.35283 0.26918 0.90263 0.0
H1233 H 0.33514 0.26926 0.98435 0.0
H1234 H 0.33683 0.34111 0.94765 0.0
H1235 H 0.35662 0.34188 0.86624 0.0
H1236 H 0.22123 0.1291 0.62728 0.0
H1237 H 0.22638 0.11184 0.54718 0.0
H1238 H 0.30996 0.15975 0.56016 0.0
H1239 H 0.30458 0.17688 0.64047 0.0
La1240 La 0.76071 0.07186 0.78167 0.0
La1241 La 0.80702 0.07179 0.73506 0.0
C1242 C 0.7184 0.06012 0.82435 0.0
C1243 C 0.70277 0.04672 0.86834 0.0
C1244 C 0.67738 0.04259 0.87243 0.0
C1245 C 0.66267 0.03097 0.91553 0.0
C1246 C 0.67308 0.02283 0.95402 0.0
C1247 C 0.69814 0.02612 0.94883 0.0
C1248 C 0.7131 0.03853 0.90673 0.0
C1249 C 0.79802 0.11886 0.75162 0.0
C1250 C 0.81071 0.08524 0.85146 0.0
C1251 C 0.84603 0.08525 0.67834 0.0
C1252 C 0.8547 0.09978 0.62953 0.0
C1253 C 0.87121 0.09597 0.59713 0.0
C1254 C 0.88042 0.11032 0.55218 0.0
C1255 C 0.8735 0.12907 0.53819 0.0
C1256 C 0.85675 0.13269 0.57071 0.0
C1257 C 0.84745 0.11823 0.61557 0.0
C1258 C 0.77885 0.03014 0.79449 0.0
C1259 C 0.76304 0.07218 0.66144 0.0
O1260 O 0.74023 0.08188 0.83273 0.0
O1261 O 0.72116 0.04531 0.79122 0.0
O1262 O 0.77326 0.11091 0.75114 0.0
O1263 O 0.79965 0.09984 0.7672 0.0
O1264 O 0.78517 0.07727 0.84977 0.0
O1265 O 0.82397 0.08707 0.80961 0.0
O1266 O 0.82522 0.06192 0.67754 0.0
O1267 O 0.84591 0.09875 0.71723 0.0
O1268 O 0.8028 0.03889 0.78003 0.0
O1269 O 0.76998 0.04177 0.76655 0.0
O1270 O 0.78548 0.07269 0.66715 0.0
O1271 O 0.74888 0.07026 0.70158 0.0
H1272 H 0.66927 0.0491 0.84303 0.0
H1273 H 0.64373 0.02925 0.91976 0.0
H1274 H 0.70689 0.02087 0.97913 0.0
H1275 H 0.73304 0.04263 0.905 0.0
H1276 H 0.87726 0.08203 0.60688 0.0
H1277 H 0.89346 0.10704 0.52882 0.0
H1278 H 0.85056 0.14655 0.56128 0.0
H1279 H 0.83468 0.12162 0.63957 0.0
La1280 La 0.92455 0.68484 0.7802 0.0
La1281 La 0.92595 0.73159 0.73311 0.0
C1282 C 0.93495 0.65577 0.83212 0.0
C1283 C 0.94796 0.66126 0.88056 0.0
C1284 C 0.94893 0.64208 0.90948 0.0
C1285 C 0.9612 0.64865 0.9565 0.0
C1286 C 0.97358 0.67474 0.97386 0.0
C1287 C 0.97197 0.6934 0.94397 0.0
C1288 C 0.95882 0.68656 0.89881 0.0
C1289 C 0.87809 0.67608 0.74984 0.0
C1290 C 0.91206 0.72293 0.84863 0.0
C1291 C 0.91415 0.75794 0.67479 0.0
C1292 C 0.89928 0.75209 0.62643 0.0
C1293 C 0.90365 0.77233 0.59323 0.0
C1294 C 0.88897 0.76726 0.54874 0.0
C1295 C 0.86934 0.74172 0.53604 0.0
C1296 C 0.86515 0.72142 0.56937 0.0
C1297 C 0.87993 0.72652 0.61378 0.0
C1298 C 0.96801 0.74415 0.79081 0.0
C1299 C 0.92361 0.68562 0.66131 0.0
O1300 O 0.91245 0.65483 0.83327 0.0
O1301 O 0.94976 0.67049 0.79534 0.0
O1302 O 0.88568 0.65897 0.74873 0.0
O1303 O 0.89719 0.69659 0.76571 0.0
O1304 O 0.91928 0.70483 0.84702 0.0
O1305 O 0.91077 0.73456 0.80668 0.0
O1306 O 0.9368 0.75894 0.67381 0.0
O1307 O 0.90059 0.74542 0.71449 0.0
O1308 O 0.95915 0.75955 0.77855 0.0
O1309 O 0.9557 0.72369 0.76305 0.0
O1310 O 0.92317 0.70763 0.66643 0.0
O1311 O 0.92602 0.67367 0.70141 0.0
H1312 H 0.93993 0.62215 0.89622 0.0
H1313 H 0.96076 0.6332 0.9789 0.0
H1314 H 0.98069 0.71352 0.95472 0.0
H1315 H 0.95711 0.70115 0.87777 0.0
H1316 H 0.91828 0.79223 0.602 0.0
H1317 H 0.89272 0.78353 0.52472 0.0
H1318 H 0.8506 0.70146 0.56093 0.0
H1319 H 0.87608 0.71042 0.63849 0.0
La1320 La 0.90145 0.64349 0.33599 0.0
La1321 La 0.85659 0.59581 0.3792 0.0
C1322 C 0.94335 0.67755 0.29723 0.0
C1323 C 0.96031 0.68 0.25613 0.0
C1324 C 0.98509 0.70211 0.25265 0.0
C1325 C 0.00078 0.70518 0.21128 0.0
C1326 C 0.992 0.68571 0.17441 0.0
C1327 C 0.9677 0.66288 0.18004 0.0
C1328 C 0.95171 0.66038 0.22002 0.0
C1329 C 0.86281 0.65097 0.36697 0.0
C1330 C 0.85309 0.60692 0.26366 0.0
C1331 C 0.81789 0.56842 0.43524 0.0
C1332 C 0.80891 0.57432 0.48352 0.0
C1333 C 0.79365 0.55429 0.51758 0.0
C1334 C 0.78454 0.55962 0.56242 0.0
C1335 C 0.79034 0.58519 0.57452 0.0
C1336 C 0.80581 0.60525 0.54031 0.0
C1337 C 0.81501 0.59992 0.49562 0.0
C1338 C 0.88586 0.58431 0.3187 0.0
C1339 C 0.89882 0.63983 0.45506 0.0
O1340 O 0.92047 0.67419 0.2847 0.0
O1341 O 0.94188 0.66165 0.33279 0.0
O1342 O 0.88737 0.66802 0.36988 0.0
O1343 O 0.86207 0.63107 0.34966 0.0
O1344 O 0.87846 0.62491 0.26632 0.0
O1345 O 0.8397 0.59481 0.30497 0.0
O1346 O 0.83954 0.56744 0.43661 0.0
O1347 O 0.81701 0.58108 0.39557 0.0
O1348 O 0.86195 0.56851 0.33251 0.0
O1349 O 0.89435 0.6044 0.34778 0.0
O1350 O 0.87657 0.6179 0.44838 0.0
O1351 O 0.91319 0.65243 0.41567 0.0
H1352 H 0.9918 0.71741 0.28066 0.0
H1353 H 0.01889 0.72324 0.20649 0.0
H1354 H 0.95995 0.64805 0.15103 0.0
H1355 H 0.93218 0.6438 0.22155 0.0
H1356 H 0.78856 0.53439 0.50933 0.0
H1357 H 0.77252 0.54353 0.58723 0.0
H1358 H 0.81112 0.62523 0.5483 0.0
H1359 H 0.82686 0.61587 0.47034 0.0
La1360 La 0.35272 0.25867 0.33995 0.0
La1361 La 0.40142 0.25985 0.37975 0.0
C1362 C 0.31837 0.26611 0.30044 0.0
C1363 C 0.31133 0.27171 0.25161 0.0
C1364 C 0.29103 0.27734 0.24749 0.0
C1365 C 0.28423 0.28263 0.20042 0.0
C1366 C 0.29745 0.28178 0.15768 0.0
C1367 C 0.31761 0.27595 0.16208 0.0
C1368 C 0.32444 0.27085 0.20874 0.0
C1369 C 0.34593 0.21272 0.37154 0.0
C1370 C 0.38695 0.24471 0.26467 0.0
C1371 C 0.42588 0.2447 0.43556 0.0
C1372 C 0.41787 0.22774 0.4819 0.0
C1373 C 0.43436 0.23502 0.52408 0.0
C1374 C 0.42719 0.21926 0.56755 0.0
C1375 C 0.40328 0.19551 0.57043 0.0
C1376 C 0.3868 0.18817 0.528 0.0
C1377 C 0.39388 0.20408 0.48465 0.0
C1378 C 0.41261 0.30089 0.32101 0.0
C1379 C 0.36034 0.26294 0.45794 0.0
O1380 O 0.31672 0.24333 0.30397 0.0
O1381 O 0.33981 0.2847 0.32082 0.0
O1382 O 0.32873 0.22004 0.37538 0.0
O1383 O 0.36515 0.23179 0.35254 0.0
O1384 O 0.36935 0.2525 0.26935 0.0
O1385 O 0.40012 0.24352 0.30452 0.0
O1386 O 0.42814 0.26787 0.43945 0.0
O1387 O 0.41454 0.23336 0.39331 0.0
O1388 O 0.42892 0.29314 0.3339 0.0
O1389 O 0.39273 0.28909 0.35049 0.0
O1390 O 0.38072 0.25994 0.44961 0.0
O1391 O 0.34748 0.26543 0.41964 0.0
H1392 H 0.28059 0.27777 0.28055 0.0
H1393 H 0.26884 0.28726 0.19722 0.0
H1394 H 0.32823 0.27556 0.12922 0.0
H1395 H 0.33984 0.26613 0.21131 0.0
H1396 H 0.45293 0.25299 0.52345 0.0
H1397 H 0.44065 0.22565 0.5989 0.0
H1398 H 0.3681 0.17034 0.5286 0.0
H1399 H 0.38043 0.19783 0.45332 0.0
La1400 La 0.74074 0.09214 0.33293 0.0
La1401 La 0.73886 0.13728 0.37836 0.0
C1402 C 0.73125 0.05192 0.28401 0.0
C1403 C 0.71306 0.03884 0.24287 0.0
C1404 C 0.7161 0.02228 0.20951 0.0
C1405 C 0.70032 0.01311 0.16663 0.0
C1406 C 0.68137 0.02036 0.15755 0.0
C1407 C 0.67725 0.03508 0.19337 0.0
C1408 C 0.69337 0.04479 0.23484 0.0
C1409 C 0.78727 0.1298 0.36444 0.0
C1410 C 0.75453 0.1425 0.26389 0.0
C1411 C 0.75001 0.17559 0.43576 0.0
C1412 C 0.76449 0.18471 0.48452 0.0
C1413 C 0.76006 0.20084 0.51683 0.0
C1414 C 0.77448 0.2106 0.56159 0.0
C1415 C 0.7939 0.2046 0.57543 0.0
C1416 C 0.79811 0.18819 0.54303 0.0
C1417 C 0.7836 0.17836 0.49838 0.0
C1418 C 0.69781 0.10888 0.31698 0.0
C1419 C 0.74013 0.09387 0.45263 0.0
O1420 O 0.75042 0.07524 0.27333 0.0
O1421 O 0.72021 0.05157 0.32676 0.0
O1422 O 0.77962 0.10512 0.36461 0.0
O1423 O 0.76815 0.13108 0.3485 0.0
O1424 O 0.74618 0.1169 0.26532 0.0
O1425 O 0.75598 0.15546 0.3058 0.0
O1426 O 0.72738 0.1539 0.43633 0.0
O1427 O 0.76392 0.17659 0.39672 0.0
O1428 O 0.70712 0.13315 0.32947 0.0
O1429 O 0.70912 0.09997 0.34602 0.0
O1430 O 0.74036 0.11617 0.44659 0.0
O1431 O 0.73849 0.07975 0.41263 0.0
H1432 H 0.7314 0.01759 0.21522 0.0
H1433 H 0.70408 0.00188 0.13923 0.0
H1434 H 0.66234 0.0401 0.18753 0.0
H1435 H 0.69127 0.0578 0.25999 0.0
H1436 H 0.74561 0.20622 0.50714 0.0
H1437 H 0.77071 0.22333 0.58487 0.0
H1438 H 0.8125 0.1827 0.55236 0.0
H1439 H 0.78749 0.16592 0.4744 0.0
C1440 C 0.07462 0.40135 1.03314 0.0
C1441 C 0.09913 0.41787 1.00999 0.0
H1442 H 0.04782 0.39559 0.09458 0.0
C1443 C 0.11504 0.44176 1.0349 0.0
H1444 H 0.06155 0.38271 1.01624 0.0
C1445 C 0.10742 0.44893 0.0796 0.0
C1446 C 0.08318 0.43291 0.1032 0.0
H1447 H 0.13404 0.45543 1.01983 0.0
H1448 H 0.12104 0.46768 0.09575 0.0
C1449 C 0.06673 0.40876 0.07873 0.0
C1450 C 0.57668 0.68676 1.05408 0.0
C1451 C 0.58907 0.68283 1.01228 0.0
H1452 H 0.55966 0.67481 0.12763 0.0
C1453 C 0.5947 0.66228 1.01751 0.0
H1454 H 0.57134 0.70175 1.05237 0.0
C1455 C 0.5875 0.64619 1.06181 0.0
C1456 C 0.57489 0.65023 0.10333 0.0
H1457 H 0.60307 0.65747 0.98613 0.0
H1458 H 0.59018 0.62945 1.06196 0.0
C1459 C 0.56992 0.6711 0.09802 0.0
C1460 C 0.34538 0.89945 1.06873 0.0
C1461 C 0.34674 0.91832 0.10318 0.0
H1462 H 0.32906 0.87684 1.00161 0.0
C1463 C 0.33119 0.9296 0.09077 0.0
H1464 H 0.35659 0.88989 0.07572 0.0
C1465 C 0.31537 0.9223 1.04594 0.0
C1466 C 0.31397 0.90297 1.01219 0.0
H1467 H 0.33081 0.9437 0.11609 0.0
H1468 H 0.30343 0.93104 1.03912 0.0
C1469 C 0.32946 0.89193 1.0252 0.0
C1470 C 0.4121 0.06745 0.70344 0.0
C1471 C 0.43148 0.08635 0.67119 0.0
H1472 H 0.38943 0.05963 0.77215 0.0
C1473 C 0.44169 0.11258 0.68622 0.0
H1474 H 0.40374 0.04698 0.69468 0.0
C1475 C 0.43349 0.11976 0.73038 0.0
C1476 C 0.41455 0.10127 0.76336 0.0
H1477 H 0.45666 0.12806 0.66369 0.0
H1478 H 0.44243 0.14034 0.73886 0.0
C1479 C 0.40394 0.07478 0.74866 0.0
C1480 C 0.93127 0.34038 0.70198 0.0
C1481 C 0.91467 0.34743 0.67627 0.0
H1482 H 0.93706 0.32113 0.76677 0.0
C1483 C 0.89006 0.3386 0.69884 0.0
H1484 H 0.95022 0.34626 0.68643 0.0
C1485 C 0.88237 0.32399 0.74385 0.0
C1486 C 0.89865 0.31699 0.77033 0.0
H1487 H 0.87622 0.34312 0.68163 0.0
H1488 H 0.86309 0.3181 0.75803 0.0
C1489 C 0.92354 0.32566 0.74833 0.0
C1490 C 0.64152 0.57331 0.71976 0.0
C1491 C 0.64879 0.56493 0.67572 0.0
H1492 H 0.6499 0.58616 0.79743 0.0
C1493 C 0.6722 0.56421 0.6796 0.0
H1494 H 0.62343 0.57337 0.72037 0.0
C1495 C 0.68766 0.57185 0.72403 0.0
C1496 C 0.68089 0.58088 0.76766 0.0
H1497 H 0.67833 0.55689 0.64828 0.0
H1498 H 0.70483 0.56987 0.7245 0.0
C1499 C 0.65709 0.58102 0.76458 0.0
C1500 C 0.88001 0.55622 0.24245 0.0
C1501 C 0.89676 0.57898 0.26991 0.0
H1502 H 0.87332 0.53143 0.17914 0.0
C1503 C 0.92189 0.59471 0.24863 0.0
H1504 H 0.86048 0.54317 0.256 0.0
C1505 C 0.92952 0.58783 0.20215 0.0
C1506 C 0.91239 0.5647 0.1754 0.0
H1507 H 0.93567 0.61231 0.26781 0.0
H1508 H 0.94883 0.60054 0.18754 0.0
C1509 C 0.88751 0.54936 0.19719 0.0
C1510 C 0.44433 0.33897 0.26681 0.0
C1511 C 0.41826 0.31948 0.276 0.0
H1512 H 0.47256 0.36843 0.21798 0.0
C1513 C 0.40023 0.31588 0.23726 0.0
H1514 H 0.45919 0.34242 0.29439 0.0
C1515 C 0.4083 0.33065 0.19122 0.0
C1516 C 0.43454 0.35018 0.18258 0.0
H1517 H 0.38013 0.30082 0.24138 0.0
H1518 H 0.39417 0.32604 0.16155 0.0
C1519 C 0.45215 0.35394 0.222 0.0
C1520 C 0.6426 0.06745 0.21882 0.0
C1521 C 0.65092 0.08295 0.17456 0.0
H1522 H 0.65019 0.06227 0.29682 0.0
C1523 C 0.67489 0.1065 0.17882 0.0
H1524 H 0.62395 0.04989 0.21907 0.0
C1525 C 0.68992 0.11386 0.22378 0.0
C1526 C 0.68223 0.09805 0.26753 0.0
H1527 H 0.6818 0.11994 0.14739 0.0
H1528 H 0.70747 0.1327 0.22456 0.0
C1529 C 0.65787 0.07468 0.26407 0.0
C1530 C 0.55858 0.88606 0.5322 0.0
C1531 C 0.58373 0.90112 0.51123 0.0
H1532 H 0.53084 0.88057 0.5892 0.0
C1533 C 0.60055 0.92454 0.53754 0.0
H1534 H 0.54462 0.8679 0.51453 0.0
C1535 C 0.59224 0.93214 0.58237 0.0
C1536 C 0.56686 0.9166 0.60296 0.0
H1537 H 0.62014 0.93696 0.5238 0.0
H1538 H 0.60569 0.95021 0.60068 0.0
C1539 C 0.55051 0.89346 0.57615 0.0
C1540 C 0.06675 0.65953 0.57964 0.0
C1541 C 0.08306 0.65133 0.60295 0.0
H1542 H 0.06103 0.68039 0.51791 0.0
C1543 C 0.10692 0.65911 0.5781 0.0
H1544 H 0.04828 0.65436 0.59674 0.0
C1545 C 0.11424 0.67395 0.53338 0.0
C1546 C 0.09834 0.68232 0.50964 0.0
H1547 H 0.12045 0.65362 0.59331 0.0
H1548 H 0.13296 0.67901 0.51732 0.0
C1549 C 0.07419 0.67469 0.53392 0.0
C1550 C 0.34834 0.45462 0.5691 0.0
C1551 C 0.35013 0.43633 0.60061 0.0
H1552 H 0.3331 0.46265 0.50255 0.0
C1553 C 0.33606 0.41008 0.58404 0.0
H1554 H 0.35859 0.47508 0.57905 0.0
C1555 C 0.3207 0.40266 0.53879 0.0
C1556 C 0.31925 0.42129 0.50755 0.0
H1557 H 0.33738 0.39533 0.60521 0.0
H1558 H 0.31018 0.3824 0.52819 0.0
C1559 C 0.33352 0.44738 0.52426 0.0
C1560 C 0.78199 0.77478 0.36598 0.0
C1561 C 0.76582 0.75009 0.34387 0.0
H1562 H 0.78932 0.80212 0.42505 0.0
C1563 C 0.74238 0.73381 0.3705 0.0
H1564 H 0.80023 0.78843 0.34817 0.0
C1565 C 0.73594 0.74189 0.41703 0.0
C1566 C 0.75258 0.76681 0.43861 0.0
H1567 H 0.72903 0.71479 0.35566 0.0
H1568 H 0.71798 0.72859 0.43599 0.0
C1569 C 0.77564 0.7828 0.41129 0.0
C1570 C 0.25718 0.99232 0.41448 0.0
C1571 C 0.23181 0.98252 0.43506 0.0
H1572 H 0.28543 0.01628 0.35733 0.0
C1573 C 0.21575 0.99001 0.40914 0.0
H1574 H 0.27044 0.98718 0.43203 0.0
C1575 C 0.2241 0.00617 0.36608 0.0
C1576 C 0.24928 0.01634 0.34524 0.0
H1577 H 0.1961 0.98328 0.42221 0.0
H1578 H 0.21036 0.01088 0.34906 0.0
C1579 C 0.2658 0.00902 0.37072 0.0
C1580 C 0.99515 0.21991 0.36504 0.0
C1581 C 0.98485 0.23474 0.3437 0.0
H1582 H 0.0172 0.2145 0.42266 0.0
C1583 C 0.99104 0.258 0.37027 0.0
H1584 H 0.99137 0.2019 0.34727 0.0
C1585 C 0.00641 0.26549 0.41598 0.0
C1586 C 0.01644 0.25012 0.43686 0.0
H1587 H 0.98391 0.27034 0.35605 0.0
H1588 H 0.01032 0.28322 0.43491 0.0
C1589 C 0.01027 0.22727 0.40953 0.0
C1590 C 0.23294 0.22035 0.87601 0.0
C1591 C 0.25712 0.23755 0.85335 0.0
H1592 H 0.20497 0.21252 0.93402 0.0
C1593 C 0.2719 0.26214 0.87748 0.0
H1594 H 0.22062 0.2012 0.85999 0.0
C1595 C 0.26261 0.26879 0.92194 0.0
C1596 C 0.23821 0.25125 0.94398 0.0
H1597 H 0.29069 0.27621 0.86267 0.0
H1598 H 0.27461 0.28761 0.93917 0.0
C1599 C 0.22382 0.22695 0.91949 0.0
C1600 C 0.78543 0.00755 0.86939 0.0
C1601 C 0.76867 0.0142 0.84374 0.0
H1602 H 0.7927 0.98931 0.93184 0.0
C1603 C 0.74427 0.00597 0.86734 0.0
H1604 H 0.80438 0.01308 0.85384 0.0
C1605 C 0.7376 0.99242 0.91497 0.0
C1606 C 0.7546 0.9856 0.93972 0.0
H1607 H 0.73038 0.01003 0.8491 0.0
H1608 H 0.71918 0.98725 0.93236 0.0
C1609 C 0.77863 0.99371 0.91531 0.0
C1610 C 4e-05 0.77259 0.91991 0.0
C1611 C 0.01767 0.76359 0.92885 0.0
H1612 H 0.97109 0.77331 0.87238 0.0
C1613 C 0.01878 0.74729 0.89073 0.0
H1614 H 0.99869 0.78559 0.9468 0.0
C1615 C 0.0028 0.74033 0.84639 0.0
C1616 C 0.98494 0.7493 0.83829 0.0
H1617 H 0.03234 0.74025 0.89421 0.0
H1618 H 0.00464 0.72812 0.81833 0.0
C1619 C 0.98413 0.76557 0.87636 0.0
C1620 C 0.04113 0.37437 0.90921 0.0
C1621 C 0.0173 0.35655 0.9319 0.0
H1622 H 0.06186 0.38817 0.84025 0.0
C1623 C 0.00015 0.3337 0.90583 0.0
H1624 H 0.05532 0.39166 0.92889 0.0
C1625 C 0.00445 0.33148 0.85507 0.0
C1626 C 0.02521 0.35237 0.83013 0.0
H1627 H 0.98188 0.31919 0.92224 0.0
H1628 H 0.98933 0.31577 0.83374 0.0
C1629 C 0.04522 0.37211 0.85848 0.0
C1630 C 0.65172 0.6626 0.9226 0.0
C1631 C 0.66264 0.64729 0.93818 0.0
H1632 H 0.63685 0.67456 0.86108 0.0
C1633 C 0.67353 0.63859 0.90163 0.0
H1634 H 0.64301 0.66986 0.94878 0.0
C1635 C 0.66838 0.64003 0.85125 0.0
C1636 C 0.65437 0.65215 0.83645 0.0
H1637 H 0.68324 0.62788 0.91172 0.0
H1638 H 0.67296 0.62927 0.82455 0.0
C1639 C 0.648 0.66536 0.87185 0.0
C1640 C 0.38343 0.04382 0.9148 0.0
C1641 C 0.36052 0.02731 0.94111 0.0
H1642 H 0.40554 0.049 0.8485 0.0
C1643 C 0.3394 0.00752 0.91492 0.0
H1644 H 0.4 0.05971 0.93351 0.0
C1645 C 0.34294 0.0002 0.8675 0.0
C1646 C 0.36737 0.01393 0.84433 0.0
H1647 H 0.32146 0.99513 0.93382 0.0
H1648 H 0.32719 0.98254 0.85144 0.0
C1649 C 0.38688 0.0371 0.86658 0.0
C1650 C 0.99598 0.66508 0.37528 0.0
C1651 C 0.97981 0.64161 0.34992 0.0
H1652 H 0.00546 0.6842 0.44638 0.0
C1653 C 0.95624 0.62319 0.37271 0.0
H1654 H 0.01394 0.68013 0.35883 0.0
C1655 C 0.95168 0.62574 0.42302 0.0
C1656 C 0.97095 0.64639 0.4509 0.0
H1657 H 0.94253 0.60549 0.35352 0.0
H1658 H 0.93543 0.60942 0.44159 0.0
C1659 C 0.99109 0.66764 0.42552 0.0
C1660 C 0.31875 0.33154 0.35499 0.0
C1661 C 0.32508 0.35242 0.32203 0.0
H1662 H 0.3237 0.31995 0.42838 0.0
C1663 C 0.33798 0.3779 0.34071 0.0
H1664 H 0.30862 0.31166 0.34141 0.0
C1665 C 0.34787 0.38277 0.38904 0.0
C1666 C 0.34399 0.36218 0.42103 0.0
H1667 H 0.34353 0.39449 0.3162 0.0
H1668 H 0.36038 0.40299 0.39908 0.0
C1669 C 0.32804 0.33638 0.40434 0.0
C1670 C 0.64356 0.9711 0.3609 0.0
C1671 C 0.65155 0.99329 0.33127 0.0
H1672 H 0.63413 0.95619 0.43521 0.0
C1673 C 0.66553 0.01809 0.35313 0.0
H1674 H 0.63237 0.9518 0.34469 0.0
C1675 C 0.66821 0.02071 0.40489 0.0
C1676 C 0.65543 0.99846 0.43511 0.0
H1677 H 0.67082 0.03537 0.33119 0.0
H1678 H 0.67627 0.04007 0.42074 0.0
C1679 C 0.64486 0.97366 0.41289 0.0
C1680 C 0.6497 0.66258 0.24942 0.0
C1681 C 0.67181 0.67907 0.27767 0.0
H1682 H 0.63332 0.65395 0.17657 0.0
C1683 C 0.69627 0.69186 0.25418 0.0
H1684 H 0.63056 0.65248 0.26653 0.0
C1685 C 0.69812 0.69173 0.20235 0.0
C1686 C 0.67531 0.67975 0.17356 0.0
H1687 H 0.71368 0.70451 0.27525 0.0
H1688 H 0.71694 0.70443 0.18542 0.0
C1689 C 0.65137 0.66327 0.19736 0.0
C1690 C 0.29841 0.0105 0.19641 0.0
C1691 C 0.31168 0.00398 0.16139 0.0
H1692 H 0.28553 0.0063 0.27195 0.0
C1693 C 0.32831 0.99502 0.17764 0.0
H1694 H 0.28506 0.01689 0.18418 0.0
C1695 C 0.32878 0.989 0.22811 0.0
C1696 C 0.31212 0.99152 0.26209 0.0
H1697 H 0.33749 0.98873 0.15032 0.0
H1698 H 0.33931 0.97916 0.23879 0.0
C1699 C 0.29841 0.004 0.2465 0.0
C1700 C 0.0187 0.35711 0.25132 0.0
C1701 C 0.00905 0.33436 0.28013 0.0
H1702 H 0.03102 0.37318 0.17843 0.0
C1703 C 0.99509 0.31001 0.2564 0.0
H1704 H 0.02968 0.37616 0.2686 0.0
C1705 C 0.99468 0.30828 0.20433 0.0
C1706 C 0.00912 0.33097 0.17587 0.0
H1707 H 0.98807 0.29223 0.27788 0.0
H1708 H 0.98668 0.28915 0.18746 0.0
C1709 C 0.01931 0.3554 0.19934 0.0
C1710 C 0.62478 0.95723 0.70647 0.0
C1711 C 0.64809 0.97569 0.68292 0.0
H1712 H 0.60487 0.94358 0.77635 0.0
C1713 C 0.66406 0.99948 0.70739 0.0
H1714 H 0.61117 0.93929 0.6878 0.0
C1715 C 0.65951 0.00228 0.75771 0.0
C1716 C 0.64006 0.98098 0.78409 0.0
H1717 H 0.68175 0.01463 0.69028 0.0
H1718 H 0.67375 0.01917 0.77781 0.0
C1719 C 0.62069 0.95997 0.75703 0.0
C1720 C 0.0467 0.66936 0.69978 0.0
C1721 C 0.02742 0.67527 0.68544 0.0
H1722 H 0.06296 0.65779 0.759 0.0
C1723 C 0.00624 0.66861 0.71754 0.0
H1724 H 0.06329 0.67433 0.67599 0.0
C1725 C 0.00655 0.65983 0.76613 0.0
C1726 C 0.02792 0.65752 0.78229 0.0
H1727 H 0.99103 0.6728 0.7072 0.0
H1728 H 0.99194 0.65819 0.79266 0.0
C1729 C 0.04649 0.65976 0.74732 0.0
C1730 C 0.33417 0.38485 0.75398 0.0
C1731 C 0.33922 0.36806 0.78252 0.0
H1732 H 0.31921 0.38971 0.68488 0.0
C1733 C 0.34335 0.34947 0.75806 0.0
H1734 H 0.33147 0.39974 0.77195 0.0
C1735 C 0.33592 0.34325 0.70807 0.0
C1736 C 0.32522 0.35638 0.6824 0.0
H1737 H 0.34818 0.33701 0.77936 0.0
H1738 H 0.33575 0.32642 0.69179 0.0
C1739 C 0.3266 0.37867 0.70423 0.0
C1740 C 0.29023 0.99094 0.58962 0.0
C1741 C 0.31026 0.99056 0.61677 0.0
H1742 H 0.2794 0.00063 0.52009 0.0
C1743 C 0.33129 0.99154 0.5908 0.0
H1744 H 0.27355 0.98976 0.60878 0.0
C1745 C 0.33522 0.99862 0.54031 0.0
C1746 C 0.31766 0.00412 0.5153 0.0
H1747 H 0.34659 0.99073 0.61114 0.0
H1748 H 0.35348 0.00278 0.52324 0.0
C1749 C 0.29396 0.9978 0.53902 0.0
C1750 C 0.97238 0.33991 0.52699 0.0
C1751 C 0.98458 0.3294 0.49807 0.0
H1752 H 0.95935 0.34203 0.60035 0.0
C1753 C 0.00101 0.3219 0.52148 0.0
H1754 H 0.95955 0.3458 0.50977 0.0
C1755 C 0.0017 0.3206 0.57357 0.0
C1756 C 0.98518 0.32604 0.6022 0.0
H1757 H 0.0095 0.31269 0.49965 0.0
H1758 H 0.01175 0.3114 0.59034 0.0
C1759 C 0.97214 0.33758 0.57894 0.0
C1760 C 0.66906 0.62805 0.58129 0.0
C1761 C 0.67143 0.65075 0.60357 0.0
H1762 H 0.66564 0.60778 0.51304 0.0
C1763 C 0.66527 0.66686 0.5751 0.0
H1764 H 0.6736 0.61503 0.60182 0.0
C1765 C 0.66096 0.66258 0.52363 0.0
C1766 C 0.6628 0.64233 0.5005 0.0
H1767 H 0.66604 0.68395 0.59154 0.0
H1768 H 0.65955 0.67686 0.50109 0.0
C1769 C 0.66418 0.6236 0.53019 0.0
C1770 C 0.29551 0.27388 1.02478 0.0
C1771 C 0.31511 0.2995 1.01331 0.0
H1772 H 0.27186 0.24789 0.08263 0.0
C1773 C 0.31905 0.31985 1.04562 0.0
H1774 H 0.29095 0.25789 0.99931 0.0
C1775 C 0.3067 0.31397 0.09229 0.0
C1776 C 0.292 0.28794 0.1076 0.0
H1777 H 0.33326 0.33992 1.03704 0.0
H1778 H 0.31168 0.32942 0.11898 0.0
C1779 C 0.28378 0.26815 1.07175 0.0
C1780 C 0.66522 0.03831 1.0332 0.0
C1781 C 0.66161 0.01705 1.00434 0.0
H1782 H 0.67529 0.05634 0.105 0.0
C1783 C 0.65711 0.99414 1.02838 0.0
H1784 H 0.66866 0.05621 1.0153 0.0
C1785 C 0.66138 0.99413 0.07986 0.0
C1786 C 0.66938 0.01698 0.10759 0.0
H1787 H 0.65324 0.97736 1.00661 0.0
H1788 H 0.66043 0.97709 0.09705 0.0
C1789 C 0.66935 0.03841 0.08461 0.0
C1790 C 0.99603 0.66722 1.0474 0.0
C1791 C 0.98707 0.68249 1.02344 0.0
H1792 H 0.00821 0.65842 0.11636 0.0
C1793 C 0.99047 0.70502 1.04849 0.0
H1794 H 0.99503 0.65038 1.02968 0.0
C1795 C 0.99923 0.71003 0.09772 0.0
C1796 C 0.00297 0.69171 0.12381 0.0
H1797 H 0.98414 0.71775 1.03292 0.0
H1798 H 0.99838 0.72557 0.11757 0.0
C1799 C 0.00448 0.67222 0.09701 0.0
C1800 C 0.0519 0.49678 0.9599 0.0
C1801 C 0.07199 0.52306 0.95712 0.0
H1802 H 0.03127 0.46227 1.00492 0.0
C1803 C 0.08708 0.53419 1.00074 0.0
H1804 H 0.03996 0.48724 0.92729 0.0
C1805 C 0.08216 0.51968 1.04545 0.0
C1806 C 0.06206 0.49344 1.04821 0.0
H1807 H 0.1025 0.55437 1.00077 0.0
H1808 H 0.0941 0.52921 0.07809 0.0
C1809 C 0.04706 0.48224 1.00458 0.0
C1810 C 0.48452 0.55704 1.0444 0.0
C1811 C 0.51161 0.56672 1.04475 0.0
H1812 H 0.44923 0.54108 1.00152 0.0
C1813 C 0.5237 0.56725 0.99885 0.0
H1814 H 0.47435 0.55623 0.07876 0.0
C1815 C 0.50907 0.55832 0.95409 0.0
C1816 C 0.4819 0.54846 0.95392 0.0
H1817 H 0.54446 0.57444 0.99746 0.0
H1818 H 0.51905 0.55877 0.9197 0.0
C1819 C 0.46994 0.54806 0.99989 0.0
C1820 C 0.43499 0.92113 1.04212 0.0
C1821 C 0.42763 0.94037 1.04451 0.0
H1822 H 0.45053 0.90174 0.99821 0.0
C1823 C 0.43043 0.95477 1.00038 0.0
H1824 H 0.43341 0.90966 0.07504 0.0
C1825 C 0.44041 0.95016 0.95567 0.0
C1826 C 0.44779 0.93088 0.9534 0.0
H1827 H 0.42514 0.96982 1.00042 0.0
H1828 H 0.44207 0.96159 0.92265 0.0
C1829 C 0.4448 0.91646 0.99758 0.0
C1830 C 0.4836 0.05456 0.7731 0.0
C1831 C 0.49575 0.06728 0.72793 0.0
H1832 H 0.48775 0.04917 0.8518 0.0
C1833 C 0.52276 0.08511 0.72945 0.0
H1834 H 0.4629 0.04088 0.77396 0.0
C1835 C 0.53712 0.08995 0.77433 0.0
C1836 C 0.52506 0.07705 0.81947 0.0
H1837 H 0.53304 0.09524 0.69567 0.0
H1838 H 0.55789 0.10351 0.7733 0.0
C1839 C 0.49799 0.05928 0.81799 0.0
C1840 C 0.92284 0.44187 0.73153 0.0
C1841 C 0.93739 0.42896 0.7314 0.0
H1842 H 0.90678 0.46113 0.77438 0.0
C1843 C 0.94714 0.426 0.77776 0.0
H1844 H 0.91507 0.44477 0.69679 0.0
C1845 C 0.94238 0.43556 0.82273 0.0
C1846 C 0.92792 0.44862 0.82276 0.0
H1847 H 0.95852 0.41631 0.77938 0.0
H1848 H 0.95044 0.43305 0.85745 0.0
C1849 C 0.91826 0.45158 0.77627 0.0
C1850 C 0.5478 0.46817 0.78673 0.0
C1851 C 0.54614 0.48141 0.82931 0.0
H1852 H 0.55762 0.4699 0.70872 0.0
C1853 C 0.55395 0.50803 0.8238 0.0
H1854 H 0.54167 0.44764 0.7889 0.0
C1855 C 0.56324 0.52094 0.77743 0.0
C1856 C 0.56484 0.50762 0.73491 0.0
H1857 H 0.55326 0.51906 0.85561 0.0
H1858 H 0.56908 0.54138 0.77497 0.0
C1859 C 0.55691 0.48101 0.7404 0.0
C1860 C 0.91551 0.47902 0.23388 0.0
C1861 C 0.93509 0.50548 0.23134 0.0
H1862 H 0.89582 0.44418 0.27828 0.0
C1863 C 0.94984 0.51691 0.27513 0.0
H1864 H 0.90378 0.46931 0.20113 0.0
C1865 C 0.94525 0.50237 0.31976 0.0
C1866 C 0.92566 0.47587 0.32231 0.0
H1867 H 0.96522 0.53708 0.27497 0.0
H1868 H 0.95697 0.51206 0.35253 0.0
C1869 C 0.91083 0.46453 0.27851 0.0
C1870 C 0.48225 0.42647 0.33206 0.0
C1871 C 0.50897 0.44591 0.33186 0.0
H1872 H 0.44743 0.40254 0.28843 0.0
C1873 C 0.52016 0.45688 0.28507 0.0
H1874 H 0.47274 0.41738 0.36708 0.0
C1875 C 0.5057 0.44839 0.24034 0.0
C1876 C 0.47927 0.42851 0.24004 0.0
H1877 H 0.5403 0.4723 0.28278 0.0
H1878 H 0.51553 0.45758 0.20559 0.0
C1879 C 0.46762 0.41788 0.28683 0.0
C1880 C 0.56045 0.08307 0.23025 0.0
C1881 C 0.56774 0.06378 0.22863 0.0
H1882 H 0.54562 0.10322 0.2738 0.0
C1883 C 0.56558 0.05007 0.27337 0.0
H1884 H 0.56156 0.094 0.19678 0.0
C1885 C 0.55637 0.05547 0.31812 0.0
C1886 C 0.54911 0.07484 0.3197 0.0
H1887 H 0.57097 0.03509 0.27389 0.0
H1888 H 0.55527 0.04464 0.35172 0.0
C1889 C 0.55135 0.0885 0.27485 0.0
C1890 C 0.51923 0.95345 0.50087 0.0
C1891 C 0.50735 0.93951 0.54525 0.0
H1892 H 0.5148 0.95988 0.42275 0.0
C1893 C 0.48062 0.9207 0.54294 0.0
H1894 H 0.5397 0.96813 0.50084 0.0
C1895 C 0.46628 0.91598 0.49811 0.0
C1896 C 0.47801 0.92996 0.4537 0.0
H1897 H 0.47055 0.9096 0.57607 0.0
H1898 H 0.44573 0.90159 0.49867 0.0
C1899 C 0.5048 0.94882 0.45595 0.0
C1900 C 0.08375 0.55249 0.50103 0.0
C1901 C 0.0696 0.54987 0.45667 0.0
H1902 H 0.09028 0.5636 0.57864 0.0
C1903 C 0.05056 0.55755 0.4586 0.0
H1904 H 0.09827 0.54651 0.50179 0.0
C1905 C 0.04592 0.5675 0.50324 0.0
C1906 C 0.06005 0.56996 0.54754 0.0
H1907 H 0.03937 0.55617 0.42537 0.0
H1908 H 0.03109 0.57308 0.50305 0.0
C1909 C 0.07904 0.56228 0.54552 0.0
C1910 C 0.43986 0.49444 0.45664 0.0
C1911 C 0.45387 0.52197 0.45556 0.0
H1912 H 0.41946 0.45952 0.50099 0.0
C1913 C 0.45749 0.53512 0.50168 0.0
H1914 H 0.43683 0.48342 0.42237 0.0
C1915 C 0.44743 0.52132 0.54697 0.0
C1916 C 0.4335 0.49384 0.54797 0.0
H1917 H 0.46783 0.55621 0.50283 0.0
H1918 H 0.45078 0.53231 0.58139 0.0
C1919 C 0.42994 0.48063 0.50202 0.0
C1920 C 0.75068 0.86851 0.33882 0.0
C1921 C 0.74108 0.85562 0.29256 0.0
H1922 H 0.75382 0.86531 0.41853 0.0
C1923 C 0.72661 0.82809 0.29324 0.0
H1924 H 0.76216 0.88957 0.34021 0.0
C1925 C 0.72183 0.81403 0.33857 0.0
C1926 C 0.73154 0.82701 0.3847 0.0
H1927 H 0.71857 0.81732 0.25874 0.0
H1928 H 0.7105 0.79296 0.33736 0.0
C1929 C 0.74607 0.85448 0.38397 0.0
C1930 C 0.17351 0.88385 0.2887 0.0
C1931 C 0.14771 0.87849 0.28152 0.0
H1932 H 0.20634 0.89761 0.33844 0.0
C1933 C 0.13544 0.88341 0.32203 0.0
H1934 H 0.1838 0.8806 0.25851 0.0
C1935 C 0.1484 0.89314 0.36817 0.0
C1936 C 0.17422 0.89863 0.37522 0.0
H1937 H 0.11554 0.87933 0.31843 0.0
H1938 H 0.1381 0.89635 0.3984 0.0
C1939 C 0.18658 0.89389 0.33463 0.0
C1940 C 0.11013 0.28068 0.29403 0.0
C1941 C 0.11771 0.26157 0.29183 0.0
H1942 H 0.09497 0.30035 0.3388 0.0
C1943 C 0.11525 0.24745 0.33619 0.0
H1944 H 0.11137 0.29184 0.26084 0.0
C1945 C 0.10574 0.25231 0.38096 0.0
C1946 C 0.0982 0.27139 0.3832 0.0
H1947 H 0.12114 0.23286 0.33673 0.0
H1948 H 0.10453 0.24112 0.4141 0.0
C1949 C 0.10048 0.28546 0.33887 0.0
C1950 C 0.19977 0.42112 0.11359 0.0
C1951 C 0.18802 0.40708 0.15789 0.0
H1952 H 0.19558 0.42723 1.03552 0.0
C1953 C 0.16137 0.38788 0.15558 0.0
H1954 H 0.22024 0.43578 0.11325 0.0
C1955 C 0.14706 0.38294 0.11055 0.0
C1956 C 0.15895 0.39691 1.06627 0.0
H1957 H 0.15143 0.3768 0.18881 0.0
H1958 H 0.12669 0.36798 0.11043 0.0
C1959 C 0.18554 0.4161 1.06865 0.0
C1960 C 0.6168 0.76108 0.11279 0.0
C1961 C 0.60693 0.76391 1.06646 0.0
H1962 H 0.62036 0.76839 0.19239 0.0
C1963 C 0.59238 0.77683 1.06662 0.0
H1964 H 0.62814 0.75135 0.11441 0.0
C1965 C 0.58797 0.78671 0.11135 0.0
C1966 C 0.59778 0.78391 0.15782 0.0
H1967 H 0.58451 0.7796 1.03191 0.0
H1968 H 0.5765 0.79628 0.10947 0.0
C1969 C 0.6122 0.77081 0.15773 0.0
C1970 C 0.22355 0.84815 0.16197 0.0
C1971 C 0.21312 0.8208 0.16218 0.0
H1972 H 0.24069 0.88375 0.11835 0.0
C1973 C 0.21168 0.80873 0.11583 0.0
H1974 H 0.22509 0.8583 0.19677 0.0
C1975 C 0.22052 0.82323 1.07125 0.0
C1976 C 0.23135 0.85056 1.07075 0.0
H1977 H 0.20337 0.7878 0.11371 0.0
H1978 H 0.21878 0.81271 1.03685 0.0
C1979 C 0.23267 0.86284 0.11694 0.0
C1980 C 0.6149 0.83582 0.65558 0.0
C1981 C 0.59523 0.80932 0.65756 0.0
H1982 H 0.63525 0.87075 0.61153 0.0
C1983 C 0.58064 0.7983 0.61333 0.0
H1984 H 0.62646 0.84532 0.68861 0.0
C1985 C 0.58562 0.81308 0.56894 0.0
C1986 C 0.60529 0.83953 0.56699 0.0
H1987 H 0.56558 0.77797 0.61256 0.0
H1988 H 0.57406 0.80359 0.53589 0.0
C1989 C 0.61981 0.85063 0.61118 0.0
C1990 C 0.14402 0.77221 0.60697 0.0
C1991 C 0.15516 0.76564 0.56679 0.0
H1992 H 0.14818 0.78687 0.68231 0.0
C1993 C 0.18046 0.76958 0.57371 0.0
H1994 H 0.12486 0.76998 0.60317 0.0
C1995 C 0.19401 0.77945 0.61934 0.0
C1996 C 0.18289 0.78604 0.65961 0.0
H1997 H 0.18989 0.765 0.54378 0.0
H1998 H 0.21347 0.7823 0.62268 0.0
C1999 C 0.15765 0.7823 0.65245 0.0
C2000 C 0.23618 0.38463 0.61123 0.0
C2001 C 0.23728 0.39792 0.56649 0.0
H2002 H 0.22607 0.37867 0.68968 0.0
C2003 C 0.22846 0.41604 0.56837 0.0
H2004 H 0.24273 0.37056 0.61162 0.0
C2005 C 0.21885 0.42069 0.61316 0.0
C2006 C 0.21756 0.40734 0.65791 0.0
H2007 H 0.22873 0.42662 0.53493 0.0
H2008 H 0.21197 0.43452 0.61236 0.0
C2009 C 0.2264 0.38919 0.65613 0.0
C2010 C 0.17342 0.2813 0.79355 0.0
C2011 C 0.14682 0.26184 0.79128 0.0
H2012 H 0.20836 0.30121 0.83826 0.0
C2013 C 0.13554 0.24734 0.83543 0.0
H2014 H 0.18309 0.29279 0.76055 0.0
C2015 C 0.1501 0.25213 0.87998 0.0
C2016 C 0.17663 0.27156 0.88235 0.0
H2017 H 0.11515 0.23249 0.83606 0.0
H2018 H 0.14032 0.24062 0.91291 0.0
C2019 C 0.18808 0.28602 0.83823 0.0
C2020 C 0.71843 0.90367 0.83785 0.0
C2021 C 0.73229 0.90581 0.88239 0.0
H2022 H 0.71222 0.8927 0.75978 0.0
C2023 C 0.75122 0.89804 0.88047 0.0
H2024 H 0.70366 0.90933 0.83755 0.0
C2025 C 0.75609 0.88842 0.83591 0.0
C2026 C 0.74217 0.88605 0.79135 0.0
H2027 H 0.76226 0.89913 0.91375 0.0
H2028 H 0.77053 0.88233 0.83681 0.0
C2029 C 0.72323 0.89388 0.79315 0.0
C2030 C 0.11551 0.83947 0.87183 0.0
C2031 C 0.1011 0.81192 0.87147 0.0
H2032 H 0.13473 0.87508 0.82995 0.0
C2033 C 0.09593 0.79946 0.82426 0.0
H2034 H 0.12038 0.85014 0.90693 0.0
C2035 C 0.10454 0.8142 0.77915 0.0
C2036 C 0.11827 0.84181 0.77995 0.0
H2037 H 0.085 0.77839 0.82208 0.0
H2038 H 0.09988 0.80397 0.74357 0.0
C2039 C 0.12378 0.85402 0.82723 0.0
C2040 C 0.37632 0.13677 0.66207 0.0
C2041 C 0.38243 0.14911 0.70945 0.0
H2042 H 0.37794 0.14136 0.58139 0.0
C2043 C 0.39471 0.1766 0.71002 0.0
H2044 H 0.36688 0.11573 0.65972 0.0
C2045 C 0.40114 0.19123 0.66543 0.0
C2046 C 0.39549 0.17913 0.61798 0.0
H2047 H 0.39957 0.18712 0.74529 0.0
H2048 H 0.41043 0.21224 0.66833 0.0
C2049 C 0.38264 0.15155 0.61703 0.0
C2050 C 0.85073 0.23312 0.67032 0.0
C2051 C 0.83892 0.23549 0.71444 0.0
H2052 H 0.84621 0.22182 0.59252 0.0
C2053 C 0.81225 0.22774 0.71211 0.0
H2054 H 0.87115 0.23875 0.67034 0.0
C2055 C 0.79787 0.21793 0.66742 0.0
C2056 C 0.80955 0.21534 0.62329 0.0
H2057 H 0.80226 0.22903 0.7451 0.0
H2058 H 0.77735 0.21189 0.66784 0.0
C2059 C 0.83628 0.22315 0.62557 0.0
C2060 C 0.77937 0.57783 0.66765 0.0
C2061 C 0.78044 0.59085 0.62256 0.0
H2062 H 0.77017 0.57278 0.74627 0.0
C2063 C 0.772 0.6093 0.62405 0.0
H2064 H 0.78597 0.56377 0.66861 0.0
C2065 C 0.76281 0.6145 0.66901 0.0
C2066 C 0.76193 0.60155 0.71407 0.0
H2067 H 0.77218 0.61958 0.59024 0.0
H2068 H 0.75652 0.62879 0.66842 0.0
C2069 C 0.77036 0.58312 0.71254 0.0
C2070 C 0.82673 0.71761 0.48663 0.0
C2071 C 0.85354 0.7364 0.4883 0.0
H2072 H 0.79166 0.69821 0.44236 0.0
C2073 C 0.86516 0.75017 0.44367 0.0
H2074 H 0.81686 0.70673 0.52009 0.0
C2075 C 0.85065 0.74532 0.3991 0.0
C2076 C 0.8239 0.72657 0.39737 0.0
H2077 H 0.88573 0.76449 0.44277 0.0
H2078 H 0.86061 0.75624 0.36573 0.0
C2079 C 0.81214 0.71284 0.44196 0.0
C2080 C 0.29456 0.10654 0.4456 0.0
C2081 C 0.2773 0.10145 0.40508 0.0
H2082 H 0.30553 0.12065 0.52115 0.0
C2083 C 0.25727 0.10741 0.41159 0.0
H2084 H 0.31049 0.10266 0.44213 0.0
C2085 C 0.25445 0.11789 0.45714 0.0
C2086 C 0.27175 0.12306 0.49769 0.0
H2087 H 0.24369 0.10404 0.38135 0.0
H2088 H 0.23889 0.12235 0.46019 0.0
C2089 C 0.29189 0.11723 0.491 0.0
C2090 C 0.88654 0.13304 0.44604 0.0
C2091 C 0.88363 0.14461 0.49003 0.0
H2092 H 0.89742 0.13742 0.36824 0.0
C2093 C 0.89055 0.17112 0.48734 0.0
H2094 H 0.88115 0.11268 0.44592 0.0
C2095 C 0.90003 0.18548 0.44234 0.0
C2096 C 0.90275 0.17378 0.39838 0.0
H2097 H 0.88895 0.18096 0.52026 0.0
H2098 H 0.90503 0.20574 0.442 0.0
C2099 C 0.89585 0.14732 0.4011 0.0
C2100 C 0.27614 0.16001 0.90892 0.0
C2101 C 0.28855 0.18748 0.90986 0.0
H2102 H 0.26045 0.12427 0.95026 0.0
C2103 C 0.29482 0.19974 0.9573 0.0
H2104 H 0.27118 0.14959 0.87352 0.0
C2105 C 0.28853 0.18487 1.00215 0.0
C2106 C 0.27563 0.1573 1.00091 0.0
H2107 H 0.30436 0.22077 0.95985 0.0
H2108 H 0.29334 0.195 1.03786 0.0
C2109 C 0.26979 0.14528 0.95336 0.0
C2110 C 0.82839 0.10645 0.98949 0.0
C2111 C 0.8553 0.11488 0.99116 0.0
H2112 H 0.79323 0.09027 0.94529 0.0
C2113 C 0.86696 0.11286 0.94649 0.0
H2114 H 0.81846 0.10733 1.02293 0.0
C2115 C 0.85244 0.103 0.90196 0.0
C2116 C 0.8256 0.09461 0.9002 0.0
H2117 H 0.88759 0.11941 0.94549 0.0
H2118 H 0.86247 0.10218 0.8686 0.0
C2119 C 0.81378 0.09641 0.94484 0.0
C2120 C 0.90105 0.71485 0.94194 0.0
C2121 C 0.90277 0.72852 0.89734 0.0
H2122 H 0.89023 0.70845 1.02002 0.0
C2123 C 0.89436 0.74696 0.89925 0.0
H2124 H 0.90725 0.70048 0.9423 0.0
C2125 C 0.88451 0.75152 0.94392 0.0
C2126 C 0.88254 0.73773 0.98851 0.0
H2127 H 0.89512 0.75783 0.86592 0.0
H2128 H 0.87795 0.76559 0.94311 0.0
C2129 C 0.89104 0.71931 0.98665 0.0
C2130 C 0.85034 0.61576 0.17052 0.0
C2131 C 0.83849 0.60154 0.21463 0.0
H2132 H 0.84588 0.62245 0.09255 0.0
C2133 C 0.81184 0.58251 0.2121 0.0
H2134 H 0.87075 0.63062 0.17072 0.0
C2135 C 0.79753 0.57786 0.16732 0.0
C2136 C 0.80922 0.5921 0.12315 0.0
H2137 H 0.80178 0.57119 0.24505 0.0
H2138 H 0.77703 0.5633 0.16771 0.0
C2139 C 0.83594 0.61118 0.1256 0.0
C2140 C 0.38057 0.22615 0.12464 0.0
C2141 C 0.39598 0.21417 0.12063 0.0
H2142 H 0.36561 0.24504 0.17215 0.0
C2143 C 0.40851 0.21274 0.16464 0.0
H2144 H 0.37026 0.22745 0.09213 0.0
C2145 C 0.4058 0.22286 0.2107 0.0
C2146 C 0.39038 0.23477 0.21472 0.0
H2147 H 0.42084 0.2041 0.16353 0.0
H2148 H 0.41577 0.22117 0.24336 0.0
C2149 C 0.37777 0.2362 0.17086 0.0
C2150 C 0.78195 0.19881 0.16914 0.0
C2151 C 0.78302 0.18691 0.12403 0.0
H2152 H 0.77245 0.19453 0.2476 0.0
C2153 C 0.77436 0.15995 0.12545 0.0
H2154 H 0.78872 0.2195 0.17021 0.0
C2155 C 0.76488 0.14545 0.1703 0.0
C2156 C 0.76392 0.15746 0.21534 0.0
H2157 H 0.77454 0.14988 0.09163 0.0
H2158 H 0.75837 0.12481 0.16964 0.0
C2159 C 0.77266 0.18439 0.2139 0.0
C2160 C 0.02511 0.42705 0.37994 0.0
C2161 C 0.00872 0.4194 0.33702 0.0
H2162 H 0.02851 0.42837 0.461 0.0
C2163 C 0.98162 0.40584 0.34654 0.0
H2164 H 0.04605 0.43763 0.37503 0.0
C2165 C 0.97148 0.40122 0.39642 0.0
C2166 C 0.9879 0.40912 0.43934 0.0
H2167 H 0.96811 0.39975 0.31528 0.0
H2168 H 0.95057 0.3916 0.40134 0.0
C2169 C 0.01497 0.42166 0.42977 0.0
C2170 C 0.58085 0.59154 0.42747 0.0
C2171 C 0.58983 0.57401 0.43846 0.0
H2172 H 0.5686 0.60942 0.3711 0.0
C2173 C 0.59522 0.56265 0.39668 0.0
H2174 H 0.57623 0.60067 0.45791 0.0
C2175 C 0.59163 0.5684 0.34638 0.0
C2176 C 0.58163 0.58508 0.33553 0.0
H2177 H 0.60208 0.54902 0.40285 0.0
H2178 H 0.59562 0.55879 0.3159 0.0
C2179 C 0.57644 0.59659 0.37725 0.0
C2180 C 0.42516 0.01904 0.34558 0.0
C2181 C 0.41126 0.99178 0.33774 0.0
H2182 H 0.44272 0.05096 0.39843 0.0
C2183 C 0.40291 0.976 0.38138 0.0
H2184 H 0.43229 0.03206 0.31355 0.0
C2185 C 0.40821 0.98696 0.43051 0.0
C2186 C 0.42291 0.01421 0.43834 0.0
H2187 H 0.39231 0.95498 0.37761 0.0
H2188 H 0.4016 0.97393 0.46256 0.0
C2189 C 0.43124 0.02997 0.39469 0.0
C2190 C 0.97208 0.57059 0.89873 0.0
C2191 C 0.98813 0.57846 0.94212 0.0
H2192 H 0.96933 0.56924 0.81759 0.0
C2193 C 0.01532 0.59215 0.93338 0.0
H2194 H 0.95111 0.55993 0.90301 0.0
C2195 C 0.02587 0.59682 0.8838 0.0
C2196 C 0.00979 0.58887 0.84042 0.0
H2197 H 0.02858 0.59841 0.96505 0.0
H2198 H 0.04683 0.60669 0.87948 0.0
C2199 C 0.98263 0.57602 0.84921 0.0
C2200 C 0.41864 0.40277 0.84717 0.0
C2201 C 0.40978 0.42059 0.83766 0.0
H2202 H 0.43115 0.38414 0.90193 0.0
C2203 C 0.40549 0.43202 0.88072 0.0
H2204 H 0.42257 0.39359 0.81585 0.0
C2205 C 0.4095 0.42583 0.93044 0.0
C2206 C 0.41913 0.40869 0.93998 0.0
H2207 H 0.39879 0.44587 0.87608 0.0
H2208 H 0.40589 0.43533 0.96165 0.0
C2209 C 0.42366 0.39734 0.89703 0.0
C2210 C 0.57416 0.98603 0.929 0.0
C2211 C 0.58803 0.01322 0.9376 0.0
H2212 H 0.55721 0.9545 0.87534 0.0
C2213 C 0.59695 0.0293 0.89433 0.0
H2214 H 0.56659 0.97278 0.96063 0.0
C2215 C 0.59243 0.01867 0.8449 0.0
C2216 C 0.57781 0.99148 0.83632 0.0
H2217 H 0.60754 0.05028 0.89866 0.0
H2218 H 0.59958 0.03189 0.81319 0.0
C2219 C 0.56869 0.97546 0.87961 0.0
C2220 C 0.68592 0.75899 0.76791 0.0
C2221 C 0.65872 0.74525 0.77618 0.0
H2222 H 0.71756 0.77614 0.7145 0.0
C2223 C 0.64272 0.73669 0.73284 0.0
H2224 H 0.69908 0.76625 0.79971 0.0
C2225 C 0.65343 0.74169 0.68354 0.0
C2226 C 0.68061 0.75627 0.67526 0.0
H2227 H 0.62173 0.72619 0.73697 0.0
H2228 H 0.64025 0.73495 0.65172 0.0
C2229 C 0.6966 0.76476 0.71862 0.0
C2230 C 0.26592 0.90855 0.73108 0.0
C2231 C 0.25364 0.91314 0.77236 0.0
H2232 H 0.27071 0.90871 0.65032 0.0
C2233 C 0.23589 0.92169 0.76058 0.0
H2234 H 0.27953 0.90174 0.73792 0.0
C2235 C 0.2301 0.92479 0.7101 0.0
C2236 C 0.2425 0.92045 0.66869 0.0
H2237 H 0.22564 0.92515 0.79057 0.0
H2238 H 0.21582 0.93078 0.70356 0.0
C2239 C 0.26081 0.91255 0.68042 0.0
C2240 C 0.09965 0.36052 0.73195 0.0
C2241 C 0.08907 0.34457 0.77505 0.0
H2242 H 0.10286 0.3632 0.651 0.0
C2243 C 0.07262 0.31761 0.76618 0.0
H2244 H 0.11249 0.38131 0.7364 0.0
C2245 C 0.06777 0.30703 0.71671 0.0
C2246 C 0.07834 0.32303 0.6737 0.0
H2247 H 0.0642 0.30442 0.79772 0.0
H2248 H 0.05577 0.28613 0.71216 0.0
C2249 C 0.094 0.35008 0.68248 0.0
C2250 C 0.65383 0.91169 0.1851 0.0
C2251 C 0.68096 0.92424 0.1758 0.0
H2252 H 0.62251 0.89581 0.23943 0.0
C2253 C 0.69715 0.93206 0.21909 0.0
H2254 H 0.6404 0.90503 0.15369 0.0
C2255 C 0.68679 0.92736 0.26891 0.0
C2256 C 0.65964 0.91388 0.27816 0.0
H2257 H 0.71808 0.94172 0.21453 0.0
H2258 H 0.70019 0.93342 0.30035 0.0
C2259 C 0.64347 0.90629 0.23488 0.0
C2260 C 0.08761 0.72784 0.23367 0.0
C2261 C 0.08364 0.74062 0.27479 0.0
H2262 H 0.0858 0.72153 0.15334 0.0
C2263 C 0.07407 0.75757 0.26299 0.0
H2264 H 0.0952 0.71485 0.2405 0.0
C2265 C 0.06962 0.76224 0.2124 0.0
C2266 C 0.07344 0.74935 0.17117 0.0
H2267 H 0.07108 0.76821 0.29286 0.0
H2268 H 0.06319 0.77616 0.20561 0.0
C2269 C 0.08217 0.73171 0.18322 0.0
C2270 C 0.25736 0.35147 0.18305 0.0
C2271 C 0.24482 0.32427 0.17499 0.0
H2272 H 0.27093 0.38315 0.2362 0.0
C2273 C 0.23785 0.30842 0.21854 0.0
H2274 H 0.26269 0.36452 0.15114 0.0
C2275 C 0.24387 0.31927 0.26773 0.0
C2276 C 0.25581 0.34644 0.27579 0.0
H2277 H 0.22773 0.28742 0.21462 0.0
H2278 H 0.23816 0.30621 0.29967 0.0
C2279 C 0.26206 0.36222 0.23226 0.0
C2280 C 0.30563 0.06922 1.06954 0.0
C2281 C 0.32283 0.07759 0.11131 0.0
H2282 H 0.30064 0.06587 0.9888 0.0
C2283 C 0.34968 0.08968 0.09983 0.0
H2284 H 0.28484 0.05996 0.0759 0.0
C2285 C 0.35886 0.09392 1.04923 0.0
C2286 C 0.34167 0.08536 1.00742 0.0
H2287 H 0.36381 0.09683 0.13008 0.0
H2288 H 0.37969 0.10416 1.0429 0.0
C2289 C 0.31478 0.07257 1.01901 0.0
C2290 C 0.92522 0.24237 1.0136 0.0
C2291 C 0.91054 0.25485 1.00477 0.0
H2292 H 0.94071 0.22635 1.06763 0.0
C2293 C 0.90193 0.26233 1.04799 0.0
H2294 H 0.93208 0.23594 0.982 0.0
C2295 C 0.9076 0.2575 0.09751 0.0
C2296 C 0.92141 0.24414 0.10635 0.0
H2297 H 0.89048 0.27182 1.04358 0.0
H2298 H 0.90018 0.26337 0.12906 0.0
C2299 C 0.93015 0.23676 1.06316 0.0
C2300 C 0.75533 0.6813 1.01303 0.0
C2301 C 0.74209 0.65414 1.00389 0.0
H2302 H 0.77187 0.71264 1.06733 0.0
C2303 C 0.73364 0.63792 1.04705 0.0
H2304 H 0.76249 0.69471 0.98158 0.0
C2305 C 0.73838 0.6483 0.09675 0.0
C2306 C 0.75257 0.67545 0.10592 0.0
H2307 H 0.7235 0.61695 1.04246 0.0
H2308 H 0.73179 0.63489 0.12821 0.0
C2309 C 0.76082 0.69168 1.06274 0.0
C2310 C 0.32446 0.25251 0.52351 0.0
C2311 C 0.35095 0.26168 0.51212 0.0
H2312 H 0.29465 0.24063 0.58039 0.0
C2313 C 0.36799 0.26783 0.55369 0.0
H2314 H 0.31047 0.24726 0.49325 0.0
C2315 C 0.35897 0.26478 0.60416 0.0
C2316 C 0.33232 0.25465 0.61551 0.0
H2317 H 0.38848 0.2748 0.54724 0.0
H2318 H 0.37282 0.26932 0.63444 0.0
C2319 C 0.31531 0.24867 0.57395 0.0
C2320 C 0.76311 0.06767 0.56469 0.0
C2321 C 0.75475 0.07536 0.60808 0.0
H2322 H 0.76454 0.06631 0.48348 0.0
C2323 C 0.74019 0.08797 0.59906 0.0
H2324 H 0.77447 0.05808 0.56908 0.0
C2325 C 0.73516 0.09347 0.54937 0.0
C2326 C 0.7436 0.08585 0.50601 0.0
H2327 H 0.7335 0.09459 0.63061 0.0
H2328 H 0.72471 0.104 0.54494 0.0
C2329 C 0.7573 0.07237 0.51503 0.0
C2330 C 0.90244 0.64649 0.60093 0.0
C2331 C 0.91927 0.67345 0.60891 0.0
H2332 H 0.88232 0.61505 0.54779 0.0
C2333 C 0.92996 0.68898 0.56543 0.0
H2334 H 0.89339 0.63376 0.63286 0.0
C2335 C 0.92426 0.67806 0.51629 0.0
C2336 C 0.90678 0.65122 0.50814 0.0
H2337 H 0.94278 0.70981 0.56937 0.0
H2338 H 0.93297 0.69093 0.48442 0.0
C2339 C 0.89594 0.63572 0.55169 0.0
C2340 C 0.97845 0.47458 0.15091 0.0
C2341 C 0.0028 0.48395 0.17423 0.0
H2342 H 0.95521 0.48264 0.10066 0.0
C2343 C 0.02277 0.50949 0.16351 0.0
H2344 H 0.96283 0.45479 0.15714 0.0
C2345 C 0.01862 0.52521 0.12993 0.0
C2346 C 0.99427 0.51581 0.10659 0.0
H2347 H 0.04192 0.51705 0.17998 0.0
H2348 H 0.03422 0.54501 0.1237 0.0
C2349 C 0.97434 0.49026 0.11723 0.0
C2350 C 0.51801 0.5055 0.13311 0.0
C2351 C 0.51567 0.51505 0.18025 0.0
H2352 H 0.49855 0.47751 0.07412 0.0
C2353 C 0.49161 0.50317 0.20446 0.0
H2354 H 0.53621 0.51531 0.11256 0.0
C2355 C 0.47032 0.48171 0.18263 0.0
C2356 C 0.47249 0.47178 0.13568 0.0
H2357 H 0.48912 0.51085 0.23969 0.0
H2358 H 0.45205 0.47286 0.20296 0.0
C2359 C 0.4965 0.48411 0.11079 0.0
C2360 C 0.51363 0.02754 0.11448 0.0
C2361 C 0.5184 0.00751 0.09953 0.0
H2362 H 0.49059 0.03851 0.15894 0.0
C2363 C 0.5027 0.9824 0.11951 0.0
H2364 H 0.52574 0.04721 0.1006 0.0
C2365 C 0.48314 0.97762 0.15427 0.0
C2366 C 0.47844 0.99766 0.16939 0.0
H2367 H 0.50615 0.96662 0.10991 0.0
H2368 H 0.47117 0.95798 0.16835 0.0
C2369 C 0.49402 0.02274 0.14918 0.0
C2370 C 0.49267 0.97971 0.6553 0.0
C2371 C 0.51779 0.99922 0.66975 0.0
H2372 H 0.45892 0.96947 0.61066 0.0
C2373 C 0.52814 0.02421 0.64861 0.0
H2374 H 0.48435 0.96014 0.67023 0.0
C2375 C 0.51382 0.02939 0.61335 0.0
C2376 C 0.48876 0.00982 0.59869 0.0
H2377 H 0.54765 0.03957 0.65794 0.0
H2378 H 0.52198 0.04902 0.59875 0.0
C2379 C 0.47844 0.98484 0.61985 0.0
C2380 C 0.01904 0.49542 0.62617 0.0
C2381 C 0.99418 0.47962 0.60528 0.0
H2382 H 0.04291 0.5273 0.67483 0.0
C2383 C 0.97397 0.48435 0.61886 0.0
H2384 H 0.03494 0.49198 0.61765 0.0
C2385 C 0.97838 0.50417 0.65281 0.0
C2386 C 0.00324 0.51997 0.67367 0.0
H2387 H 0.95448 0.47219 0.60427 0.0
H2388 H 0.9625 0.50762 0.66134 0.0
C2389 C 0.02343 0.51518 0.66018 0.0
C2390 C 0.51138 0.48781 0.61149 0.0
C2391 C 0.51774 0.51379 0.60345 0.0
H2392 H 0.48745 0.45198 0.65031 0.0
C2393 C 0.50462 0.5238 0.63144 0.0
H2394 H 0.52168 0.47978 0.59176 0.0
C2395 C 0.48573 0.50819 0.66665 0.0
C2396 C 0.47919 0.48211 0.67425 0.0
H2397 H 0.50961 0.54398 0.62764 0.0
H2398 H 0.47546 0.51623 0.68665 0.0
C2399 C 0.49244 0.47217 0.64654 0.0
C2400 C 0.6898 0.85968 0.46542 0.0
C2401 C 0.66521 0.85002 0.44292 0.0
H2402 H 0.71353 0.85224 0.51572 0.0
C2403 C 0.64532 0.82469 0.45524 0.0
H2404 H 0.70542 0.87932 0.45786 0.0
C2405 C 0.64972 0.80952 0.48974 0.0
C2406 C 0.6743 0.81917 0.51223 0.0
H2407 H 0.62601 0.8169 0.43935 0.0
H2408 H 0.6341 0.78987 0.49725 0.0
C2409 C 0.69421 0.84449 0.49989 0.0
C2410 C 0.19017 0.83881 0.46974 0.0
C2411 C 0.18147 0.85095 0.50374 0.0
H2412 H 0.17988 0.81041 0.41165 0.0
C2413 C 0.15498 0.84364 0.50362 0.0
H2414 H 0.21063 0.84469 0.46729 0.0
C2415 C 0.13752 0.82456 0.47059 0.0
C2416 C 0.14619 0.8123 0.43683 0.0
H2417 H 0.14785 0.85316 0.52826 0.0
H2418 H 0.11706 0.81866 0.47308 0.0
C2419 C 0.17272 0.81981 0.43657 0.0
C2420 C 0.18238 0.35869 0.45377 0.0
C2421 C 0.18802 0.33901 0.44101 0.0
H2422 H 0.15881 0.36954 0.49654 0.0
C2423 C 0.17332 0.31429 0.46321 0.0
H2424 H 0.1937 0.37807 0.43805 0.0
C2425 C 0.15371 0.30957 0.49783 0.0
C2426 C 0.14819 0.32933 0.51078 0.0
H2427 H 0.17753 0.29885 0.45527 0.0
H2428 H 0.14226 0.29015 0.51335 0.0
C2429 C 0.16292 0.35403 0.48858 0.0
C2430 C 0.15775 0.3089 0.99369 0.0
C2431 C 0.1826 0.32901 1.00815 0.0
H2432 H 0.12327 0.29781 0.95054 0.0
C2433 C 0.19185 0.35405 0.98798 0.0
H2434 H 0.15031 0.28927 1.0077 0.0
C2435 C 0.1767 0.35875 0.9539 0.0
C2436 C 0.15179 0.33867 0.93967 0.0
H2437 H 0.21114 0.36986 0.99717 0.0
H2438 H 0.18416 0.37837 0.93987 0.0
C2439 C 0.14258 0.31361 0.95968 0.0
C2440 C 0.69356 0.85004 0.99245 0.0
C2441 C 0.67355 0.85494 1.00678 0.0
H2442 H 0.70454 0.82649 0.94976 0.0
C2443 C 0.64843 0.83897 0.98714 0.0
H2444 H 0.71322 0.86224 1.00616 0.0
C2445 C 0.64358 0.81881 0.9537 0.0
C2446 C 0.66362 0.81395 0.93938 0.0
H2447 H 0.63266 0.8425 0.99637 0.0
H2448 H 0.62389 0.80648 0.94012 0.0
C2449 C 0.68874 0.82998 0.9589 0.0
C2450 C 0.1535 0.80793 0.93838 0.0
C2451 C 0.14253 0.80527 0.98667 0.0
H2452 H 0.18296 0.83315 0.88603 0.0
C2453 C 0.15403 0.82601 1.02037 0.0
H2454 H 0.14482 0.79219 0.91131 0.0
C2455 C 0.17572 0.84931 1.00569 0.0
C2456 C 0.1865 0.85218 0.95717 0.0
H2457 H 0.14618 0.82428 1.0578 0.0
H2458 H 0.18418 0.86504 1.03282 0.0
C2459 C 0.17524 0.83131 0.92361 0.0
C2460 C 0.34469 0.18838 0.84641 0.0
C2461 C 0.3375 0.19205 0.79772 0.0
H2462 H 0.34798 0.16228 0.8979 0.0
C2463 C 0.32848 0.17179 0.7629 0.0
H2464 H 0.35151 0.20367 0.87444 0.0
C2465 C 0.32645 0.14814 0.77666 0.0
C2466 C 0.33373 0.14452 0.82529 0.0
H2467 H 0.32319 0.17427 0.72518 0.0
H2468 H 0.31968 0.13285 0.74865 0.0
C2469 C 0.34263 0.16473 0.86018 0.0
C2470 C 0.82254 0.18025 0.8284 0.0
C2471 C 0.84789 0.18575 0.84076 0.0
H2472 H 0.78731 0.15582 0.78803 0.0
C2473 C 0.85716 0.17013 0.81999 0.0
H2474 H 0.81502 0.19225 0.84299 0.0
C2475 C 0.84159 0.1498 0.78718 0.0
C2476 C 0.81623 0.14427 0.77483 0.0
H2477 H 0.87678 0.17414 0.82761 0.0
H2478 H 0.84917 0.13788 0.77252 0.0
C2479 C 0.80693 0.15986 0.79567 0.0
C2480 C 0.83747 0.64439 0.79521 0.0
C2481 C 0.85286 0.66908 0.77336 0.0
H2482 H 0.80559 0.62059 0.84402 0.0
C2483 C 0.84757 0.6891 0.78539 0.0
H2484 H 0.84137 0.62868 0.78786 0.0
C2485 C 0.82768 0.68472 0.81894 0.0
C2486 C 0.81224 0.66002 0.84071 0.0
H2487 H 0.85941 0.70847 0.76995 0.0
H2488 H 0.82383 0.70046 0.8263 0.0
C2489 C 0.81749 0.63998 0.82867 0.0
C2490 C 0.82019 0.63863 0.32769 0.0
C2491 C 0.8452 0.6584 0.34206 0.0
H2492 H 0.78622 0.62794 0.28328 0.0
C2493 C 0.85521 0.68332 0.32078 0.0
H2494 H 0.81219 0.61908 0.34257 0.0
C2495 C 0.84067 0.68819 0.28552 0.0
C2496 C 0.81564 0.66842 0.27118 0.0
H2497 H 0.87465 0.69887 0.32991 0.0
H2498 H 0.84868 0.70774 0.27064 0.0
C2499 C 0.80566 0.64349 0.29242 0.0
C2500 C 0.3159 0.17411 0.31979 0.0
C2501 C 0.33899 0.18755 0.34785 0.0
H2502 H 0.29451 0.14456 0.2651 0.0
C2503 C 0.35868 0.18123 0.34058 0.0
H2504 H 0.30067 0.17905 0.32299 0.0
C2505 C 0.35554 0.16213 0.30603 0.0
C2506 C 0.33244 0.14863 0.27807 0.0
H2507 H 0.37695 0.19167 0.36051 0.0
H2508 H 0.37085 0.15729 0.30272 0.0
C2509 C 0.31274 0.15497 0.28523 0.0
C2510 C 0.83682 0.18852 0.29333 0.0
C2511 C 0.85172 0.17902 0.27016 0.0
H2512 H 0.80612 0.18099 0.34474 0.0
C2513 C 0.8467 0.15383 0.28254 0.0
H2514 H 0.84062 0.2081 0.28597 0.0
C2515 C 0.82733 0.13852 0.31729 0.0
C2516 C 0.81236 0.14799 0.34028 0.0
H2517 H 0.85835 0.14626 0.26639 0.0
H2518 H 0.82351 0.11894 0.3247 0.0
C2519 C 0.81759 0.17329 0.3283 0.0
loop_
_geom_bond_atom_site_label_1
_geom_bond_atom_site_label_2
_geom_bond_distance
_geom_bond_site_symmetry_2
_ccdc_geom_bond_type
La0 C2 2.928 . S
La0 O20 2.521 . S
La0 O21 2.628 . S
La0 O22 2.554 . S
La0 O23 2.757 . S
La0 O24 2.470 . S
La0 O29 2.482 . S
La0 O31 2.503 . S
La1 C11 2.928 1_554 S
La1 O23 2.482 . S
La1 O25 2.503 . S
La1 O26 2.521 . S
La1 O27 2.628 . S
La1 O28 2.554 . S
La1 O29 2.757 . S
La1 O30 2.470 . S
C2 La0 2.928 . S
C2 C3 1.503 . S
C2 O20 1.261 . S
C2 O21 1.243 . S
C3 C2 1.503 . S
C3 C4 1.394 . S
C3 C8 1.373 . S
C4 C3 1.394 . S
C4 C5 1.380 . S
C4 H32 0.930 . S
C5 C4 1.380 . S
C5 C6 1.376 . S
C5 H33 0.930 . S
C6 C5 1.376 . S
C6 C7 1.370 . S
C7 C6 1.370 . S
C7 C8 1.396 . S
C7 H34 0.929 . S
C8 C3 1.373 . S
C8 C7 1.396 . S
C8 H35 0.929 . S
C9 O22 1.240 . S
C9 O23 1.289 . S
C10 O24 1.258 . S
C10 O25 1.256 . S
C11 La1 2.928 1_556 S
C11 C12 1.503 . S
C11 O26 1.261 1_556 S
C11 O27 1.243 1_556 S
C12 C11 1.503 . S
C12 C13 1.347 1_455 S
C12 C17 1.373 . S
C13 C12 1.347 1_655 S
C13 C14 1.388 . S
C13 H36 0.972 . S
C14 C13 1.388 . S
C14 C15 1.376 1_655 S
C14 H37 0.930 . S
C15 C14 1.376 1_455 S
C15 C16 1.370 . S
C16 C15 1.370 . S
C16 C17 1.396 . S
C16 H38 0.929 . S
C17 C12 1.373 . S
C17 C16 1.396 . S
C17 H39 0.929 . S
C18 O28 1.240 . S
C18 O29 1.289 . S
C19 O30 1.258 . S
C19 O31 1.256 . S
O20 La0 2.521 . S
O20 C2 1.261 . S
O21 La0 2.628 . S
O21 C2 1.243 . S
O22 La0 2.554 . S
O22 C9 1.240 . S
O23 La0 2.757 . S
O23 La1 2.482 . S
O23 C9 1.289 . S
O24 La0 2.470 . S
O24 C10 1.258 . S
O25 La1 2.503 . S
O25 C10 1.256 . S
O26 La1 2.521 . S
O26 C11 1.261 1_554 S
O27 La1 2.628 . S
O27 C11 1.243 1_554 S
O28 La1 2.554 . S
O28 C18 1.240 . S
O29 La0 2.482 . S
O29 La1 2.757 . S
O29 C18 1.289 . S
O30 La1 2.470 . S
O30 C19 1.258 . S
O31 La0 2.503 . S
O31 C19 1.256 . S
H32 C4 0.930 . S
H33 C5 0.930 . S
H34 C7 0.929 . S
H35 C8 0.929 . S
H36 C13 0.972 . S
H37 C14 0.930 . S
H38 C16 0.929 . S
H39 C17 0.929 . S
La40 C42 2.928 . S
La40 O60 2.521 . S
La40 O61 2.628 . S
La40 O62 2.554 . S
La40 O63 2.757 . S
La40 O64 2.470 . S
La40 O69 2.482 . S
La40 O71 2.503 . S
La41 C51 2.928 1_554 S
La41 O63 2.482 . S
La41 O65 2.503 . S
La41 O66 2.521 . S
La41 O67 2.628 . S
La41 O68 2.554 . S
La41 O69 2.757 . S
La41 O70 2.470 . S
C42 La40 2.928 . S
C42 C43 1.503 . S
C42 O60 1.261 . S
C42 O61 1.243 . S
C43 C42 1.503 . S
C43 C44 1.394 . S
C43 C48 1.373 . S
C44 C43 1.394 . S
C44 C45 1.380 . S
C44 H72 0.930 . S
C45 C44 1.380 . S
C45 C46 1.376 . S
C45 H73 0.930 . S
C46 C45 1.376 . S
C46 C47 1.370 . S
C47 C46 1.370 . S
C47 C48 1.396 . S
C47 H74 0.929 . S
C48 C43 1.373 . S
C48 C47 1.396 . S
C48 H75 0.929 . S
C49 O62 1.240 . S
C49 O63 1.289 . S
C50 O64 1.258 . S
C50 O65 1.256 . S
C51 La41 2.928 1_556 S
C51 C52 1.503 . S
C51 O66 1.261 1_556 S
C51 O67 1.243 1_556 S
C52 C51 1.503 . S
C52 C53 1.394 . S
C52 C57 1.373 . S
C53 C52 1.394 . S
C53 C54 1.380 . S
C53 H76 0.930 . S
C54 C53 1.380 . S
C54 C55 1.376 . S
C54 H77 0.930 . S
C55 C54 1.376 . S
C55 C56 1.370 . S
C56 C55 1.370 . S
C56 C57 1.396 . S
C56 H78 0.929 . S
C57 C52 1.373 . S
C57 C56 1.396 . S
C57 H79 0.929 . S
C58 O68 1.240 . S
C58 O69 1.289 . S
C59 O70 1.258 . S
C59 O71 1.256 . S
O60 La40 2.521 . S
O60 C42 1.261 . S
O61 La40 2.628 . S
O61 C42 1.243 . S
O62 La40 2.554 . S
O62 C49 1.240 . S
O63 La40 2.757 . S
O63 La41 2.482 . S
O63 C49 1.289 . S
O64 La40 2.470 . S
O64 C50 1.258 . S
O65 La41 2.503 . S
O65 C50 1.256 . S
O66 La41 2.521 . S
O66 C51 1.261 1_554 S
O67 La41 2.628 . S
O67 C51 1.243 1_554 S
O68 La41 2.554 . S
O68 C58 1.240 . S
O69 La40 2.482 . S
O69 La41 2.757 . S
O69 C58 1.289 . S
O70 La41 2.470 . S
O70 C59 1.258 . S
O71 La40 2.503 . S
O71 C59 1.256 . S
H72 C44 0.930 . S
H73 C45 0.930 . S
H74 C47 0.929 . S
H75 C48 0.929 . S
H76 C53 0.930 . S
H77 C54 0.930 . S
H78 C56 0.929 . S
H79 C57 0.929 . S
La80 C82 2.928 . S
La80 O100 2.521 . S
La80 O101 2.628 . S
La80 O102 2.554 . S
La80 O103 2.757 . S
La80 O104 2.470 . S
La80 O109 2.482 . S
La80 O111 2.503 . S
La81 C91 2.928 1_554 S
La81 O103 2.482 . S
La81 O105 2.503 . S
La81 O106 2.521 . S
La81 O107 2.628 . S
La81 O108 2.554 . S
La81 O109 2.757 . S
La81 O110 2.470 . S
C82 La80 2.928 . S
C82 C83 1.503 . S
C82 O100 1.261 . S
C82 O101 1.243 . S
C83 C82 1.503 . S
C83 C84 1.394 . S
C83 C88 1.373 . S
C84 C83 1.394 . S
C84 C85 1.380 . S
C84 H112 0.930 . S
C85 C84 1.380 . S
C85 C86 1.376 . S
C85 H113 0.930 . S
C86 C85 1.376 . S
C86 C87 1.370 . S
C87 C86 1.370 . S
C87 C88 1.396 . S
C87 H114 0.929 . S
C88 C83 1.373 . S
C88 C87 1.396 . S
C88 H115 0.929 . S
C89 O102 1.240 . S
C89 O103 1.289 . S
C90 O104 1.258 . S
C90 O105 1.256 . S
C91 La81 2.928 1_556 S
C91 C92 1.503 . S
C91 O106 1.261 1_556 S
C91 O107 1.243 1_556 S
C92 C91 1.503 . S
C92 C93 1.394 1_565 S
C92 C97 1.373 . S
C93 C92 1.394 1_545 S
C93 C94 1.380 . S
C93 H116 0.930 . S
C94 C93 1.380 . S
C94 C95 1.376 1_545 S
C94 H117 0.930 . S
C95 C94 1.376 1_565 S
C95 C96 1.370 . S
C96 C95 1.370 . S
C96 C97 1.396 . S
C96 H118 0.929 . S
C97 C92 1.373 . S
C97 C96 1.396 . S
C97 H119 0.929 . S
C98 O108 1.240 . S
C98 O109 1.289 . S
C99 O110 1.258 . S
C99 O111 1.256 . S
O100 La80 2.521 . S
O100 C82 1.261 . S
O101 La80 2.628 . S
O101 C82 1.243 . S
O102 La80 2.554 . S
O102 C89 1.240 . S
O103 La80 2.757 . S
O103 La81 2.482 . S
O103 C89 1.289 . S
O104 La80 2.470 . S
O104 C90 1.258 . S
O105 La81 2.503 . S
O105 C90 1.256 . S
O106 La81 2.521 . S
O106 C91 1.261 1_554 S
O107 La81 2.628 . S
O107 C91 1.243 1_554 S
O108 La81 2.554 . S
O108 C98 1.240 . S
O109 La80 2.482 . S
O109 La81 2.757 . S
O109 C98 1.289 . S
O110 La81 2.470 . S
O110 C99 1.258 . S
O111 La80 2.503 . S
O111 C99 1.256 . S
H112 C84 0.930 . S
H113 C85 0.930 . S
H114 C87 0.929 . S
H115 C88 0.929 . S
H116 C93 0.930 . S
H117 C94 0.930 . S
H118 C96 0.929 . S
H119 C97 0.929 . S
La120 C122 2.928 . S
La120 O140 2.521 . S
La120 O141 2.628 . S
La120 O142 2.554 . S
La120 O143 2.757 . S
La120 O144 2.470 . S
La120 O149 2.482 . S
La120 O151 2.503 . S
La121 C131 2.928 . S
La121 O143 2.482 . S
La121 O145 2.503 . S
La121 O146 2.521 . S
La121 O147 2.628 . S
La121 O148 2.554 . S
La121 O149 2.757 . S
La121 O150 2.470 . S
C122 La120 2.928 . S
C122 C123 1.503 . S
C122 O140 1.261 . S
C122 O141 1.243 . S
C123 C122 1.503 . S
C123 C124 1.394 . S
C123 C128 1.373 . S
C124 C123 1.394 . S
C124 C125 1.380 . S
C124 H152 0.930 . S
C125 C124 1.380 . S
C125 C126 1.376 . S
C125 H153 0.930 . S
C126 C125 1.376 . S
C126 C127 1.370 . S
C127 C126 1.370 . S
C127 C128 1.396 . S
C127 H154 0.929 . S
C128 C123 1.373 . S
C128 C127 1.396 . S
C128 H155 0.929 . S
C129 O142 1.240 . S
C129 O143 1.289 . S
C130 O144 1.258 . S
C130 O145 1.256 . S
C131 La121 2.928 . S
C131 C132 1.503 . S
C131 O146 1.261 . S
C131 O147 1.243 . S
C132 C131 1.503 . S
C132 C133 1.346 1_545 S
C132 C137 1.373 . S
C133 C132 1.346 1_565 S
C133 C134 1.388 . S
C133 H156 0.972 . S
C134 C133 1.388 . S
C134 C135 1.376 1_565 S
C134 H157 0.930 . S
C135 C134 1.376 1_545 S
C135 C136 1.370 . S
C136 C135 1.370 . S
C136 C137 1.396 . S
C136 H158 0.929 . S
C137 C132 1.373 . S
C137 C136 1.396 . S
C137 H159 0.929 . S
C138 O148 1.240 . S
C138 O149 1.289 . S
C139 O150 1.258 . S
C139 O151 1.256 . S
O140 La120 2.521 . S
O140 C122 1.261 . S
O141 La120 2.628 . S
O141 C122 1.243 . S
O142 La120 2.554 . S
O142 C129 1.240 . S
O143 La120 2.757 . S
O143 La121 2.482 . S
O143 C129 1.289 . S
O144 La120 2.470 . S
O144 C130 1.258 . S
O145 La121 2.503 . S
O145 C130 1.256 . S
O146 La121 2.521 . S
O146 C131 1.261 . S
O147 La121 2.628 . S
O147 C131 1.243 . S
O148 La121 2.554 . S
O148 C138 1.240 . S
O149 La120 2.482 . S
O149 La121 2.757 . S
O149 C138 1.289 . S
O150 La121 2.470 . S
O150 C139 1.258 . S
O151 La120 2.503 . S
O151 C139 1.256 . S
H152 C124 0.930 . S
H153 C125 0.930 . S
H154 C127 0.929 . S
H155 C128 0.929 . S
H156 C133 0.972 . S
H157 C134 0.930 . S
H158 C136 0.929 . S
H159 C137 0.929 . S
La160 C162 2.928 . S
La160 O180 2.521 . S
La160 O181 2.628 . S
La160 O182 2.554 . S
La160 O183 2.757 . S
La160 O184 2.470 . S
La160 O189 2.482 . S
La160 O191 2.503 . S
La161 C171 2.928 . S
La161 O183 2.482 . S
La161 O185 2.503 . S
La161 O186 2.521 . S
La161 O187 2.628 . S
La161 O188 2.554 . S
La161 O189 2.757 . S
La161 O190 2.470 . S
C162 La160 2.928 . S
C162 C163 1.503 . S
C162 O180 1.261 . S
C162 O181 1.243 . S
C163 C162 1.503 . S
C163 C164 1.394 . S
C163 C168 1.373 . S
C164 C163 1.394 . S
C164 C165 1.380 . S
C164 H192 0.930 . S
C165 C164 1.380 . S
C165 C166 1.376 . S
C165 H193 0.930 . S
C166 C165 1.376 . S
C166 C167 1.370 . S
C167 C166 1.370 . S
C167 C168 1.396 . S
C167 H194 0.929 . S
C168 C163 1.373 . S
C168 C167 1.396 . S
C168 H195 0.929 . S
C169 O182 1.240 . S
C169 O183 1.289 . S
C170 O184 1.258 . S
C170 O185 1.256 . S
C171 La161 2.928 . S
C171 C172 1.503 . S
C171 O186 1.261 . S
C171 O187 1.243 . S
C172 C171 1.503 . S
C172 C173 1.394 1_655 S
C172 C177 1.373 . S
C173 C172 1.394 1_455 S
C173 C174 1.380 . S
C173 H196 0.930 . S
C174 C173 1.380 . S
C174 C175 1.376 1_455 S
C174 H197 0.930 . S
C175 C174 1.376 1_655 S
C175 C176 1.370 . S
C176 C175 1.370 . S
C176 C177 1.396 . S
C176 H198 0.929 . S
C177 C172 1.373 . S
C177 C176 1.396 . S
C177 H199 0.929 . S
C178 O188 1.240 . S
C178 O189 1.289 . S
C179 O190 1.258 . S
C179 O191 1.256 . S
O180 La160 2.521 . S
O180 C162 1.261 . S
O181 La160 2.628 . S
O181 C162 1.243 . S
O182 La160 2.554 . S
O182 C169 1.240 . S
O183 La160 2.757 . S
O183 La161 2.482 . S
O183 C169 1.289 . S
O184 La160 2.470 . S
O184 C170 1.258 . S
O185 La161 2.503 . S
O185 C170 1.256 . S
O186 La161 2.521 . S
O186 C171 1.261 . S
O187 La161 2.628 . S
O187 C171 1.243 . S
O188 La161 2.554 . S
O188 C178 1.240 . S
O189 La160 2.482 . S
O189 La161 2.757 . S
O189 C178 1.289 . S
O190 La161 2.470 . S
O190 C179 1.258 . S
O191 La160 2.503 . S
O191 C179 1.256 . S
H192 C164 0.930 . S
H193 C165 0.930 . S
H194 C167 0.929 . S
H195 C168 0.929 . S
H196 C173 0.930 . S
H197 C174 0.930 . S
H198 C176 0.929 . S
H199 C177 0.929 . S
La200 C202 2.928 . S
La200 O220 2.521 . S
La200 O221 2.628 . S
La200 O222 2.554 . S
La200 O223 2.757 . S
La200 O224 2.470 . S
La200 O229 2.482 . S
La200 O231 2.503 . S
La201 C211 2.928 . S
La201 O223 2.482 . S
La201 O225 2.503 . S
La201 O226 2.521 . S
La201 O227 2.628 . S
La201 O228 2.554 . S
La201 O229 2.757 . S
La201 O230 2.470 . S
C202 La200 2.928 . S
C202 C203 1.503 . S
C202 O220 1.261 . S
C202 O221 1.243 . S
C203 C202 1.503 . S
C203 C204 1.394 . S
C203 C208 1.373 . S
C204 C203 1.394 . S
C204 C205 1.380 . S
C204 H232 0.930 . S
C205 C204 1.380 . S
C205 C206 1.376 . S
C205 H233 0.930 . S
C206 C205 1.376 . S
C206 C207 1.370 . S
C207 C206 1.370 . S
C207 C208 1.396 . S
C207 H234 0.929 . S
C208 C203 1.373 . S
C208 C207 1.396 . S
C208 H235 0.929 . S
C209 O222 1.240 . S
C209 O223 1.289 . S
C210 O224 1.258 . S
C210 O225 1.256 . S
C211 La201 2.928 . S
C211 C212 1.503 . S
C211 O226 1.261 . S
C211 O227 1.243 . S
C212 C211 1.503 . S
C212 C213 1.394 . S
C212 C217 1.373 . S
C213 C212 1.394 . S
C213 C214 1.380 . S
C213 H236 0.930 . S
C214 C213 1.380 . S
C214 C215 1.376 . S
C214 H237 0.930 . S
C215 C214 1.376 . S
C215 C216 1.370 . S
C216 C215 1.370 . S
C216 C217 1.396 . S
C216 H238 0.929 . S
C217 C212 1.373 . S
C217 C216 1.396 . S
C217 H239 0.929 . S
C218 O228 1.240 . S
C218 O229 1.289 . S
C219 O230 1.258 . S
C219 O231 1.256 . S
O220 La200 2.521 . S
O220 C202 1.261 . S
O221 La200 2.628 . S
O221 C202 1.243 . S
O222 La200 2.554 . S
O222 C209 1.240 . S
O223 La200 2.757 . S
O223 La201 2.482 . S
O223 C209 1.289 . S
O224 La200 2.470 . S
O224 C210 1.258 . S
O225 La201 2.503 . S
O225 C210 1.256 . S
O226 La201 2.521 . S
O226 C211 1.261 . S
O227 La201 2.628 . S
O227 C211 1.243 . S
O228 La201 2.554 . S
O228 C218 1.240 . S
O229 La200 2.482 . S
O229 La201 2.757 . S
O229 C218 1.289 . S
O230 La201 2.470 . S
O230 C219 1.258 . S
O231 La200 2.503 . S
O231 C219 1.256 . S
H232 C204 0.930 . S
H233 C205 0.930 . S
H234 C207 0.929 . S
H235 C208 0.929 . S
H236 C213 0.930 . S
H237 C214 0.930 . S
H238 C216 0.929 . S
H239 C217 0.929 . S
La240 C242 2.928 . S
La240 O260 2.521 . S
La240 O261 2.628 . S
La240 O262 2.554 . S
La240 O263 2.757 . S
La240 O264 2.470 . S
La240 O269 2.482 . S
La240 O271 2.503 1_554 S
La241 C251 2.928 . S
La241 O263 2.482 1_556 S
La241 O265 2.503 1_556 S
La241 O266 2.521 . S
La241 O267 2.628 . S
La241 O268 2.554 1_556 S
La241 O269 2.757 1_556 S
La241 O270 2.470 . S
C242 La240 2.928 . S
C242 C243 1.503 . S
C242 O260 1.261 . S
C242 O261 1.243 . S
C243 C242 1.503 . S
C243 C244 1.346 1_655 S
C243 C248 1.373 . S
C244 C243 1.346 1_455 S
C244 C245 1.388 . S
C244 H272 0.973 . S
C245 C244 1.388 . S
C245 C246 1.376 1_455 S
C245 H273 0.930 . S
C246 C245 1.376 1_655 S
C246 C247 1.370 . S
C247 C246 1.370 . S
C247 C248 1.396 . S
C247 H274 0.929 . S
C248 C243 1.373 . S
C248 C247 1.396 . S
C248 H275 0.929 . S
C249 O262 1.240 . S
C249 O263 1.289 . S
C250 O264 1.258 . S
C250 O265 1.256 . S
C251 La241 2.928 . S
C251 C252 1.503 . S
C251 O266 1.261 . S
C251 O267 1.243 . S
C252 C251 1.503 . S
C252 C253 1.394 . S
C252 C257 1.373 . S
C253 C252 1.394 . S
C253 C254 1.380 . S
C253 H276 0.930 . S
C254 C253 1.380 . S
C254 C255 1.376 . S
C254 H277 0.930 . S
C255 C254 1.376 . S
C255 C256 1.370 . S
C256 C255 1.370 . S
C256 C257 1.396 . S
C256 H278 0.929 . S
C257 C252 1.373 . S
C257 C256 1.396 . S
C257 H279 0.929 . S
C258 O268 1.240 . S
C258 O269 1.289 . S
C259 O270 1.258 . S
C259 O271 1.256 . S
O260 La240 2.521 . S
O260 C242 1.261 . S
O261 La240 2.628 . S
O261 C242 1.243 . S
O262 La240 2.554 . S
O262 C249 1.240 . S
O263 La240 2.757 . S
O263 La241 2.482 1_554 S
O263 C249 1.289 . S
O264 La240 2.470 . S
O264 C250 1.258 . S
O265 La241 2.503 1_554 S
O265 C250 1.256 . S
O266 La241 2.521 . S
O266 C251 1.261 . S
O267 La241 2.628 . S
O267 C251 1.243 . S
O268 La241 2.554 1_554 S
O268 C258 1.240 . S
O269 La240 2.482 . S
O269 La241 2.757 1_554 S
O269 C258 1.289 . S
O270 La241 2.470 . S
O270 C259 1.258 . S
O271 La240 2.503 1_556 S
O271 C259 1.256 . S
H272 C244 0.973 . S
H273 C245 0.930 . S
H274 C247 0.929 . S
H275 C248 0.929 . S
H276 C253 0.930 . S
H277 C254 0.930 . S
H278 C256 0.929 . S
H279 C257 0.929 . S
La280 C282 2.928 . S
La280 O300 2.521 . S
La280 O301 2.628 . S
La280 O302 2.554 . S
La280 O303 2.757 . S
La280 O304 2.470 . S
La280 O309 2.482 . S
La280 O311 2.503 1_554 S
La281 C291 2.928 . S
La281 O303 2.482 1_556 S
La281 O305 2.503 1_556 S
La281 O306 2.521 . S
La281 O307 2.628 . S
La281 O308 2.554 1_556 S
La281 O309 2.757 1_556 S
La281 O310 2.470 . S
C282 La280 2.928 . S
C282 C283 1.503 . S
C282 O300 1.261 . S
C282 O301 1.243 . S
C283 C282 1.503 . S
C283 C284 1.394 . S
C283 C288 1.373 . S
C284 C283 1.394 . S
C284 C285 1.380 . S
C284 H312 0.930 . S
C285 C284 1.380 . S
C285 C286 1.376 . S
C285 H313 0.930 . S
C286 C285 1.376 . S
C286 C287 1.370 . S
C287 C286 1.370 . S
C287 C288 1.396 . S
C287 H314 0.929 . S
C288 C283 1.373 . S
C288 C287 1.396 . S
C288 H315 0.929 . S
C289 O302 1.240 . S
C289 O303 1.289 . S
C290 O304 1.258 . S
C290 O305 1.256 . S
C291 La281 2.928 . S
C291 C292 1.503 . S
C291 O306 1.261 . S
C291 O307 1.243 . S
C292 C291 1.503 . S
C292 C293 1.394 . S
C292 C297 1.373 . S
C293 C292 1.394 . S
C293 C294 1.380 . S
C293 H316 0.930 . S
C294 C293 1.380 . S
C294 C295 1.376 . S
C294 H317 0.930 . S
C295 C294 1.376 . S
C295 C296 1.370 . S
C296 C295 1.370 . S
C296 C297 1.396 . S
C296 H318 0.929 . S
C297 C292 1.373 . S
C297 C296 1.396 . S
C297 H319 0.929 . S
C298 O308 1.240 . S
C298 O309 1.289 . S
C299 O310 1.258 . S
C299 O311 1.256 . S
O300 La280 2.521 . S
O300 C282 1.261 . S
O301 La280 2.628 . S
O301 C282 1.243 . S
O302 La280 2.554 . S
O302 C289 1.240 . S
O303 La280 2.757 . S
O303 La281 2.482 1_554 S
O303 C289 1.289 . S
O304 La280 2.470 . S
O304 C290 1.258 . S
O305 La281 2.503 1_554 S
O305 C290 1.256 . S
O306 La281 2.521 . S
O306 C291 1.261 . S
O307 La281 2.628 . S
O307 C291 1.243 . S
O308 La281 2.554 1_554 S
O308 C298 1.240 . S
O309 La280 2.482 . S
O309 La281 2.757 1_554 S
O309 C298 1.289 . S
O310 La281 2.470 . S
O310 C299 1.258 . S
O311 La280 2.503 1_556 S
O311 C299 1.256 . S
H312 C284 0.930 . S
H313 C285 0.930 . S
H314 C287 0.929 . S
H315 C288 0.929 . S
H316 C293 0.930 . S
H317 C294 0.930 . S
H318 C296 0.929 . S
H319 C297 0.929 . S
La320 C322 2.928 . S
La320 O340 2.521 . S
La320 O341 2.628 . S
La320 O342 2.554 . S
La320 O343 2.757 . S
La320 O344 2.470 . S
La320 O349 2.482 . S
La320 O351 2.503 1_554 S
La321 C331 2.928 . S
La321 O343 2.482 1_556 S
La321 O345 2.503 1_556 S
La321 O346 2.521 . S
La321 O347 2.628 . S
La321 O348 2.554 1_556 S
La321 O349 2.757 1_556 S
La321 O350 2.470 . S
C322 La320 2.928 . S
C322 C323 1.503 . S
C322 O340 1.261 . S
C322 O341 1.243 . S
C323 C322 1.503 . S
C323 C324 1.394 1_545 S
C323 C328 1.373 . S
C324 C323 1.394 1_565 S
C324 C325 1.380 . S
C324 H352 0.930 . S
C325 C324 1.380 . S
C325 C326 1.376 1_565 S
C325 H353 0.930 . S
C326 C325 1.376 1_545 S
C326 C327 1.370 . S
C327 C326 1.370 . S
C327 C328 1.396 . S
C327 H354 0.929 . S
C328 C323 1.373 . S
C328 C327 1.396 . S
C328 H355 0.929 . S
C329 O342 1.240 . S
C329 O343 1.289 . S
C330 O344 1.258 . S
C330 O345 1.256 . S
C331 La321 2.928 . S
C331 C332 1.503 . S
C331 O346 1.261 . S
C331 O347 1.243 . S
C332 C331 1.503 . S
C332 C333 1.394 . S
C332 C337 1.373 . S
C333 C332 1.394 . S
C333 C334 1.380 . S
C333 H356 0.930 . S
C334 C333 1.380 . S
C334 C335 1.376 . S
C334 H357 0.930 . S
C335 C334 1.376 . S
C335 C336 1.370 . S
C336 C335 1.370 . S
C336 C337 1.396 . S
C336 H358 0.929 . S
C337 C332 1.373 . S
C337 C336 1.396 . S
C337 H359 0.929 . S
C338 O348 1.240 . S
C338 O349 1.289 . S
C339 O350 1.258 . S
C339 O351 1.256 . S
O340 La320 2.521 . S
O340 C322 1.261 . S
O341 La320 2.628 . S
O341 C322 1.243 . S
O342 La320 2.554 . S
O342 C329 1.240 . S
O343 La320 2.757 . S
O343 La321 2.482 1_554 S
O343 C329 1.289 . S
O344 La320 2.470 . S
O344 C330 1.258 . S
O345 La321 2.503 1_554 S
O345 C330 1.256 . S
O346 La321 2.521 . S
O346 C331 1.261 . S
O347 La321 2.628 . S
O347 C331 1.243 . S
O348 La321 2.554 1_554 S
O348 C338 1.240 . S
O349 La320 2.482 . S
O349 La321 2.757 1_554 S
O349 C338 1.289 . S
O350 La321 2.470 . S
O350 C339 1.258 . S
O351 La320 2.503 1_556 S
O351 C339 1.256 . S
H352 C324 0.930 . S
H353 C325 0.930 . S
H354 C327 0.929 . S
H355 C328 0.929 . S
H356 C333 0.930 . S
H357 C334 0.930 . S
H358 C336 0.929 . S
H359 C337 0.929 . S
La360 C362 2.928 . S
La360 O380 2.521 . S
La360 O381 2.628 . S
La360 O382 2.554 . S
La360 O383 2.757 . S
La360 O384 2.470 . S
La360 O389 2.482 . S
La360 O391 2.503 . S
La361 C371 2.928 . S
La361 O383 2.482 . S
La361 O385 2.503 . S
La361 O386 2.521 . S
La361 O387 2.628 . S
La361 O388 2.554 . S
La361 O389 2.757 . S
La361 O390 2.470 . S
C362 La360 2.928 . S
C362 C363 1.503 . S
C362 O380 1.261 . S
C362 O381 1.243 . S
C363 C362 1.503 . S
C363 C364 1.347 1_565 S
C363 C368 1.373 . S
C364 C363 1.347 1_545 S
C364 C365 1.388 . S
C364 H392 0.972 . S
C365 C364 1.388 . S
C365 C366 1.376 1_545 S
C365 H393 0.930 . S
C366 C365 1.376 1_565 S
C366 C367 1.370 . S
C367 C366 1.370 . S
C367 C368 1.396 . S
C367 H394 0.929 . S
C368 C363 1.373 . S
C368 C367 1.396 . S
C368 H395 0.929 . S
C369 O382 1.240 . S
C369 O383 1.289 . S
C370 O384 1.258 . S
C370 O385 1.256 . S
C371 La361 2.928 . S
C371 C372 1.503 . S
C371 O386 1.261 . S
C371 O387 1.243 . S
C372 C371 1.503 . S
C372 C373 1.394 . S
C372 C377 1.373 . S
C373 C372 1.394 . S
C373 C374 1.380 . S
C373 H396 0.930 . S
C374 C373 1.380 . S
C374 C375 1.376 . S
C374 H397 0.930 . S
C375 C374 1.376 . S
C375 C376 1.370 . S
C376 C375 1.370 . S
C376 C377 1.396 . S
C376 H398 0.929 . S
C377 C372 1.373 . S
C377 C376 1.396 . S
C377 H399 0.929 . S
C378 O388 1.240 . S
C378 O389 1.289 . S
C379 O390 1.258 . S
C379 O391 1.256 . S
O380 La360 2.521 . S
O380 C362 1.261 . S
O381 La360 2.628 . S
O381 C362 1.243 . S
O382 La360 2.554 . S
O382 C369 1.240 . S
O383 La360 2.757 . S
O383 La361 2.482 . S
O383 C369 1.289 . S
O384 La360 2.470 . S
O384 C370 1.258 . S
O385 La361 2.503 . S
O385 C370 1.256 . S
O386 La361 2.521 . S
O386 C371 1.261 . S
O387 La361 2.628 . S
O387 C371 1.243 . S
O388 La361 2.554 . S
O388 C378 1.240 . S
O389 La360 2.482 . S
O389 La361 2.757 . S
O389 C378 1.289 . S
O390 La361 2.470 . S
O390 C379 1.258 . S
O391 La360 2.503 . S
O391 C379 1.256 . S
H392 C364 0.972 . S
H393 C365 0.930 . S
H394 C367 0.929 . S
H395 C368 0.929 . S
H396 C373 0.930 . S
H397 C374 0.930 . S
H398 C376 0.929 . S
H399 C377 0.929 . S
La400 C402 2.928 . S
La400 O420 2.521 . S
La400 O421 2.628 . S
La400 O422 2.554 . S
La400 O423 2.757 . S
La400 O424 2.470 . S
La400 O429 2.482 . S
La400 O431 2.503 . S
La401 C411 2.928 . S
La401 O423 2.482 . S
La401 O425 2.503 . S
La401 O426 2.521 . S
La401 O427 2.628 . S
La401 O428 2.554 . S
La401 O429 2.757 . S
La401 O430 2.470 . S
C402 La400 2.928 . S
C402 C403 1.503 . S
C402 O420 1.261 . S
C402 O421 1.243 . S
C403 C402 1.503 . S
C403 C404 1.359 1_455 S
C403 C408 1.373 . S
C404 C403 1.359 1_655 S
C404 C405 1.396 . S
C404 H432 0.952 . S
C405 C404 1.396 . S
C405 C406 1.376 1_655 S
C405 H433 0.930 . S
C406 C405 1.376 1_455 S
C406 C407 1.370 . S
C407 C406 1.370 . S
C407 C408 1.396 . S
C407 H434 0.929 . S
C408 C403 1.373 . S
C408 C407 1.396 . S
C408 H435 0.929 . S
C409 O422 1.240 . S
C409 O423 1.289 . S
C410 O424 1.258 . S
C410 O425 1.256 . S
C411 La401 2.928 . S
C411 C412 1.503 . S
C411 O426 1.261 . S
C411 O427 1.243 . S
C412 C411 1.503 . S
C412 C413 1.394 . S
C412 C417 1.373 . S
C413 C412 1.394 . S
C413 C414 1.380 . S
C413 H436 0.930 . S
C414 C413 1.380 . S
C414 C415 1.376 . S
C414 H437 0.930 . S
C415 C414 1.376 . S
C415 C416 1.370 . S
C416 C415 1.370 . S
C416 C417 1.396 . S
C416 H438 0.929 . S
C417 C412 1.373 . S
C417 C416 1.396 . S
C417 H439 0.929 . S
C418 O428 1.240 . S
C418 O429 1.289 . S
C419 O430 1.258 . S
C419 O431 1.256 . S
O420 La400 2.521 . S
O420 C402 1.261 . S
O421 La400 2.628 . S
O421 C402 1.243 . S
O422 La400 2.554 . S
O422 C409 1.240 . S
O423 La400 2.757 . S
O423 La401 2.482 . S
O423 C409 1.289 . S
O424 La400 2.470 . S
O424 C410 1.258 . S
O425 La401 2.503 . S
O425 C410 1.256 . S
O426 La401 2.521 . S
O426 C411 1.261 . S
O427 La401 2.628 . S
O427 C411 1.243 . S
O428 La401 2.554 . S
O428 C418 1.240 . S
O429 La400 2.482 . S
O429 La401 2.757 . S
O429 C418 1.289 . S
O430 La401 2.470 . S
O430 C419 1.258 . S
O431 La400 2.503 . S
O431 C419 1.256 . S
H432 C404 0.952 . S
H433 C405 0.930 . S
H434 C407 0.929 . S
H435 C408 0.929 . S
H436 C413 0.930 . S
H437 C414 0.930 . S
H438 C416 0.929 . S
H439 C417 0.929 . S
La440 C442 2.928 . S
La440 O460 2.521 . S
La440 O461 2.628 . S
La440 O462 2.554 . S
La440 O463 2.757 . S
La440 O464 2.470 . S
La440 O469 2.482 . S
La440 O471 2.503 . S
La441 C451 2.928 . S
La441 O463 2.482 . S
La441 O465 2.503 . S
La441 O466 2.521 . S
La441 O467 2.628 . S
La441 O468 2.554 . S
La441 O469 2.757 . S
La441 O470 2.470 . S
C442 La440 2.928 . S
C442 C443 1.503 . S
C442 O460 1.261 . S
C442 O461 1.243 . S
C443 C442 1.503 . S
C443 C444 1.394 . S
C443 C448 1.373 . S
C444 C443 1.394 . S
C444 C445 1.380 . S
C444 H472 0.930 . S
C445 C444 1.380 . S
C445 C446 1.376 . S
C445 H473 0.930 . S
C446 C445 1.376 . S
C446 C447 1.370 . S
C447 C446 1.370 . S
C447 C448 1.396 . S
C447 H474 0.929 . S
C448 C443 1.373 . S
C448 C447 1.396 . S
C448 H475 0.929 . S
C449 O462 1.240 . S
C449 O463 1.289 . S
C450 O464 1.258 . S
C450 O465 1.256 . S
C451 La441 2.928 . S
C451 C452 1.503 . S
C451 O466 1.261 . S
C451 O467 1.243 . S
C452 C451 1.503 . S
C452 C453 1.394 . S
C452 C457 1.373 . S
C453 C452 1.394 . S
C453 C454 1.380 . S
C453 H476 0.930 . S
C454 C453 1.380 . S
C454 C455 1.376 . S
C454 H477 0.930 . S
C455 C454 1.376 . S
C455 C456 1.370 . S
C456 C455 1.370 . S
C456 C457 1.396 . S
C456 H478 0.929 . S
C457 C452 1.373 . S
C457 C456 1.396 . S
C457 H479 0.929 . S
C458 O468 1.240 . S
C458 O469 1.289 . S
C459 O470 1.258 . S
C459 O471 1.256 . S
O460 La440 2.521 . S
O460 C442 1.261 . S
O461 La440 2.628 . S
O461 C442 1.243 . S
O462 La440 2.554 . S
O462 C449 1.240 . S
O463 La440 2.757 . S
O463 La441 2.482 . S
O463 C449 1.289 . S
O464 La440 2.470 . S
O464 C450 1.258 . S
O465 La441 2.503 . S
O465 C450 1.256 . S
O466 La441 2.521 . S
O466 C451 1.261 . S
O467 La441 2.628 . S
O467 C451 1.243 . S
O468 La441 2.554 . S
O468 C458 1.240 . S
O469 La440 2.482 . S
O469 La441 2.757 . S
O469 C458 1.289 . S
O470 La441 2.470 . S
O470 C459 1.258 . S
O471 La440 2.503 . S
O471 C459 1.256 . S
H472 C444 0.930 . S
H473 C445 0.930 . S
H474 C447 0.929 . S
H475 C448 0.929 . S
H476 C453 0.930 . S
H477 C454 0.930 . S
H478 C456 0.929 . S
H479 C457 0.929 . S
La480 C482 2.928 . S
La480 O500 2.521 . S
La480 O501 2.628 . S
La480 O502 2.554 . S
La480 O503 2.757 . S
La480 O504 2.470 . S
La480 O509 2.482 . S
La480 O511 2.503 . S
La481 C491 2.928 . S
La481 O503 2.482 . S
La481 O505 2.503 . S
La481 O506 2.521 . S
La481 O507 2.628 . S
La481 O508 2.554 . S
La481 O509 2.757 . S
La481 O510 2.470 . S
C482 La480 2.928 . S
C482 C483 1.503 . S
C482 O500 1.261 . S
C482 O501 1.243 . S
C483 C482 1.503 . S
C483 C484 1.394 . S
C483 C488 1.373 . S
C484 C483 1.394 . S
C484 C485 1.380 . S
C484 H512 0.930 . S
C485 C484 1.380 . S
C485 C486 1.376 . S
C485 H513 0.930 . S
C486 C485 1.376 . S
C486 C487 1.370 . S
C487 C486 1.370 . S
C487 C488 1.396 . S
C487 H514 0.929 . S
C488 C483 1.373 . S
C488 C487 1.396 . S
C488 H515 0.929 . S
C489 O502 1.240 . S
C489 O503 1.289 . S
C490 O504 1.258 . S
C490 O505 1.256 . S
C491 La481 2.928 . S
C491 C492 1.503 . S
C491 O506 1.261 . S
C491 O507 1.243 . S
C492 C491 1.503 . S
C492 C493 1.394 . S
C492 C497 1.373 . S
C493 C492 1.394 . S
C493 C494 1.380 . S
C493 H516 0.930 . S
C494 C493 1.380 . S
C494 C495 1.376 . S
C494 H517 0.930 . S
C495 C494 1.376 . S
C495 C496 1.370 . S
C496 C495 1.370 . S
C496 C497 1.396 . S
C496 H518 0.929 . S
C497 C492 1.373 . S
C497 C496 1.396 . S
C497 H519 0.929 . S
C498 O508 1.240 . S
C498 O509 1.289 . S
C499 O510 1.258 . S
C499 O511 1.256 . S
O500 La480 2.521 . S
O500 C482 1.261 . S
O501 La480 2.628 . S
O501 C482 1.243 . S
O502 La480 2.554 . S
O502 C489 1.240 . S
O503 La480 2.757 . S
O503 La481 2.482 . S
O503 C489 1.289 . S
O504 La480 2.470 . S
O504 C490 1.258 . S
O505 La481 2.503 . S
O505 C490 1.256 . S
O506 La481 2.521 . S
O506 C491 1.261 . S
O507 La481 2.628 . S
O507 C491 1.243 . S
O508 La481 2.554 . S
O508 C498 1.240 . S
O509 La480 2.482 . S
O509 La481 2.757 . S
O509 C498 1.289 . S
O510 La481 2.470 . S
O510 C499 1.258 . S
O511 La480 2.503 . S
O511 C499 1.256 . S
H512 C484 0.930 . S
H513 C485 0.930 . S
H514 C487 0.929 . S
H515 C488 0.929 . S
H516 C493 0.930 . S
H517 C494 0.930 . S
H518 C496 0.929 . S
H519 C497 0.929 . S
La520 C522 2.928 . S
La520 O540 2.521 . S
La520 O541 2.628 . S
La520 O542 2.554 . S
La520 O543 2.757 . S
La520 O544 2.470 . S
La520 O549 2.482 . S
La520 O551 2.503 . S
La521 C531 2.928 . S
La521 O543 2.482 . S
La521 O545 2.503 . S
La521 O546 2.521 . S
La521 O547 2.628 . S
La521 O548 2.554 . S
La521 O549 2.757 . S
La521 O550 2.470 . S
C522 La520 2.928 . S
C522 C523 1.503 . S
C522 O540 1.261 . S
C522 O541 1.243 . S
C523 C522 1.503 . S
C523 C524 1.394 . S
C523 C528 1.373 . S
C524 C523 1.394 . S
C524 C525 1.380 . S
C524 H552 0.930 . S
C525 C524 1.380 . S
C525 C526 1.376 . S
C525 H553 0.930 . S
C526 C525 1.376 . S
C526 C527 1.370 . S
C527 C526 1.370 . S
C527 C528 1.396 . S
C527 H554 0.929 . S
C528 C523 1.373 . S
C528 C527 1.396 . S
C528 H555 0.929 . S
C529 O542 1.240 . S
C529 O543 1.289 . S
C530 O544 1.258 . S
C530 O545 1.256 . S
C531 La521 2.928 . S
C531 C532 1.503 . S
C531 O546 1.261 . S
C531 O547 1.243 . S
C532 C531 1.503 . S
C532 C533 1.394 . S
C532 C537 1.373 . S
C533 C532 1.394 . S
C533 C534 1.380 . S
C533 H556 0.930 . S
C534 C533 1.380 . S
C534 C535 1.376 . S
C534 H557 0.930 . S
C535 C534 1.376 . S
C535 C536 1.370 . S
C536 C535 1.370 . S
C536 C537 1.396 . S
C536 H558 0.929 . S
C537 C532 1.373 . S
C537 C536 1.396 . S
C537 H559 0.929 . S
C538 O548 1.240 . S
C538 O549 1.289 . S
C539 O550 1.258 . S
C539 O551 1.256 . S
O540 La520 2.521 . S
O540 C522 1.261 . S
O541 La520 2.628 . S
O541 C522 1.243 . S
O542 La520 2.554 . S
O542 C529 1.240 . S
O543 La520 2.757 . S
O543 La521 2.482 . S
O543 C529 1.289 . S
O544 La520 2.470 . S
O544 C530 1.258 . S
O545 La521 2.503 . S
O545 C530 1.256 . S
O546 La521 2.521 . S
O546 C531 1.261 . S
O547 La521 2.628 . S
O547 C531 1.243 . S
O548 La521 2.554 . S
O548 C538 1.240 . S
O549 La520 2.482 . S
O549 La521 2.757 . S
O549 C538 1.289 . S
O550 La521 2.470 . S
O550 C539 1.258 . S
O551 La520 2.503 . S
O551 C539 1.256 . S
H552 C524 0.930 . S
H553 C525 0.930 . S
H554 C527 0.929 . S
H555 C528 0.929 . S
H556 C533 0.930 . S
H557 C534 0.930 . S
H558 C536 0.929 . S
H559 C537 0.929 . S
La560 C562 2.928 . S
La560 O580 2.521 . S
La560 O581 2.628 . S
La560 O582 2.554 . S
La560 O583 2.757 . S
La560 O584 2.470 . S
La560 O589 2.482 . S
La560 O591 2.503 . S
La561 C571 2.928 . S
La561 O583 2.482 . S
La561 O585 2.503 . S
La561 O586 2.521 . S
La561 O587 2.628 . S
La561 O588 2.554 . S
La561 O589 2.757 . S
La561 O590 2.470 . S
C562 La560 2.928 . S
C562 C563 1.503 . S
C562 O580 1.261 . S
C562 O581 1.243 . S
C563 C562 1.503 . S
C563 C564 1.394 . S
C563 C568 1.373 . S
C564 C563 1.394 . S
C564 C565 1.380 . S
C564 H592 0.930 . S
C565 C564 1.380 . S
C565 C566 1.376 . S
C565 H593 0.930 . S
C566 C565 1.376 . S
C566 C567 1.370 . S
C567 C566 1.370 . S
C567 C568 1.396 . S
C567 H594 0.929 . S
C568 C563 1.373 . S
C568 C567 1.396 . S
C568 H595 0.929 . S
C569 O582 1.240 . S
C569 O583 1.289 . S
C570 O584 1.258 . S
C570 O585 1.256 . S
C571 La561 2.928 . S
C571 C572 1.503 . S
C571 O586 1.261 . S
C571 O587 1.243 . S
C572 C571 1.503 . S
C572 C573 1.394 . S
C572 C577 1.373 . S
C573 C572 1.394 . S
C573 C574 1.380 . S
C573 H596 0.930 . S
C574 C573 1.380 . S
C574 C575 1.376 . S
C574 H597 0.930 . S
C575 C574 1.376 . S
C575 C576 1.370 . S
C576 C575 1.370 . S
C576 C577 1.396 . S
C576 H598 0.929 . S
C577 C572 1.373 . S
C577 C576 1.396 . S
C577 H599 0.929 . S
C578 O588 1.240 . S
C578 O589 1.289 . S
C579 O590 1.258 . S
C579 O591 1.256 . S
O580 La560 2.521 . S
O580 C562 1.261 . S
O581 La560 2.628 . S
O581 C562 1.243 . S
O582 La560 2.554 . S
O582 C569 1.240 . S
O583 La560 2.757 . S
O583 La561 2.482 . S
O583 C569 1.289 . S
O584 La560 2.470 . S
O584 C570 1.258 . S
O585 La561 2.503 . S
O585 C570 1.256 . S
O586 La561 2.521 . S
O586 C571 1.261 . S
O587 La561 2.628 . S
O587 C571 1.243 . S
O588 La561 2.554 . S
O588 C578 1.240 . S
O589 La560 2.482 . S
O589 La561 2.757 . S
O589 C578 1.289 . S
O590 La561 2.470 . S
O590 C579 1.258 . S
O591 La560 2.503 . S
O591 C579 1.256 . S
H592 C564 0.930 . S
H593 C565 0.930 . S
H594 C567 0.929 . S
H595 C568 0.929 . S
H596 C573 0.930 . S
H597 C574 0.930 . S
H598 C576 0.929 . S
H599 C577 0.929 . S
La600 C602 2.928 . S
La600 O620 2.521 . S
La600 O621 2.628 . S
La600 O622 2.554 . S
La600 O623 2.757 . S
La600 O624 2.470 . S
La600 O629 2.482 . S
La600 O631 2.503 . S
La601 C611 2.928 . S
La601 O623 2.482 . S
La601 O625 2.503 . S
La601 O626 2.521 . S
La601 O627 2.628 . S
La601 O628 2.554 . S
La601 O629 2.757 . S
La601 O630 2.470 . S
C602 La600 2.928 . S
C602 C603 1.503 . S
C602 O620 1.261 . S
C602 O621 1.243 . S
C603 C602 1.503 . S
C603 C604 1.394 . S
C603 C608 1.373 . S
C604 C603 1.394 . S
C604 C605 1.380 . S
C604 H632 0.930 . S
C605 C604 1.380 . S
C605 C606 1.376 . S
C605 H633 0.930 . S
C606 C605 1.376 . S
C606 C607 1.370 . S
C607 C606 1.370 . S
C607 C608 1.396 . S
C607 H634 0.929 . S
C608 C603 1.373 . S
C608 C607 1.396 . S
C608 H635 0.929 . S
C609 O622 1.240 . S
C609 O623 1.289 . S
C610 O624 1.258 . S
C610 O625 1.256 . S
C611 La601 2.928 . S
C611 C612 1.503 1_556 S
C611 O626 1.261 . S
C611 O627 1.243 . S
C612 C611 1.503 1_554 S
C612 C613 1.394 . S
C612 C617 1.373 . S
C613 C612 1.394 . S
C613 C614 1.380 . S
C613 H636 0.930 . S
C614 C613 1.380 . S
C614 C615 1.376 . S
C614 H637 0.930 . S
C615 C614 1.376 . S
C615 C616 1.370 . S
C616 C615 1.370 . S
C616 C617 1.396 . S
C616 H638 0.929 . S
C617 C612 1.373 . S
C617 C616 1.396 . S
C617 H639 0.929 . S
C618 O628 1.240 . S
C618 O629 1.289 . S
C619 O630 1.258 . S
C619 O631 1.256 . S
O620 La600 2.521 . S
O620 C602 1.261 . S
O621 La600 2.628 . S
O621 C602 1.243 . S
O622 La600 2.554 . S
O622 C609 1.240 . S
O623 La600 2.757 . S
O623 La601 2.482 . S
O623 C609 1.289 . S
O624 La600 2.470 . S
O624 C610 1.258 . S
O625 La601 2.503 . S
O625 C610 1.256 . S
O626 La601 2.521 . S
O626 C611 1.261 . S
O627 La601 2.628 . S
O627 C611 1.243 . S
O628 La601 2.554 . S
O628 C618 1.240 . S
O629 La600 2.482 . S
O629 La601 2.757 . S
O629 C618 1.289 . S
O630 La601 2.470 . S
O630 C619 1.258 . S
O631 La600 2.503 . S
O631 C619 1.256 . S
H632 C604 0.930 . S
H633 C605 0.930 . S
H634 C607 0.929 . S
H635 C608 0.929 . S
H636 C613 0.930 . S
H637 C614 0.930 . S
H638 C616 0.929 . S
H639 C617 0.929 . S
La640 C642 2.928 . S
La640 O660 2.521 . S
La640 O661 2.628 . S
La640 O662 2.554 . S
La640 O663 2.757 . S
La640 O664 2.470 . S
La640 O669 2.482 . S
La640 O671 2.503 . S
La641 C651 2.928 . S
La641 O663 2.482 . S
La641 O665 2.503 . S
La641 O666 2.521 . S
La641 O667 2.628 . S
La641 O668 2.554 . S
La641 O669 2.757 . S
La641 O670 2.470 . S
C642 La640 2.928 . S
C642 C643 1.503 . S
C642 O660 1.261 . S
C642 O661 1.243 . S
C643 C642 1.503 . S
C643 C644 1.394 . S
C643 C648 1.373 . S
C644 C643 1.394 . S
C644 C645 1.380 . S
C644 H672 0.930 . S
C645 C644 1.380 . S
C645 C646 1.376 . S
C645 H673 0.930 . S
C646 C645 1.376 . S
C646 C647 1.370 . S
C647 C646 1.370 . S
C647 C648 1.396 . S
C647 H674 0.929 . S
C648 C643 1.373 . S
C648 C647 1.396 . S
C648 H675 0.929 . S
C649 O662 1.240 . S
C649 O663 1.289 . S
C650 O664 1.258 . S
C650 O665 1.256 . S
C651 La641 2.928 . S
C651 C652 1.503 1_556 S
C651 O666 1.261 . S
C651 O667 1.243 . S
C652 C651 1.503 1_554 S
C652 C653 1.394 . S
C652 C657 1.373 . S
C653 C652 1.394 . S
C653 C654 1.380 . S
C653 H676 0.930 . S
C654 C653 1.380 . S
C654 C655 1.376 . S
C654 H677 0.930 . S
C655 C654 1.376 . S
C655 C656 1.370 . S
C656 C655 1.370 . S
C656 C657 1.396 . S
C656 H678 0.929 . S
C657 C652 1.373 . S
C657 C656 1.396 . S
C657 H679 0.929 . S
C658 O668 1.240 . S
C658 O669 1.289 . S
C659 O670 1.258 . S
C659 O671 1.256 . S
O660 La640 2.521 . S
O660 C642 1.261 . S
O661 La640 2.628 . S
O661 C642 1.243 . S
O662 La640 2.554 . S
O662 C649 1.240 . S
O663 La640 2.757 . S
O663 La641 2.482 . S
O663 C649 1.289 . S
O664 La640 2.470 . S
O664 C650 1.258 . S
O665 La641 2.503 . S
O665 C650 1.256 . S
O666 La641 2.521 . S
O666 C651 1.261 . S
O667 La641 2.628 . S
O667 C651 1.243 . S
O668 La641 2.554 . S
O668 C658 1.240 . S
O669 La640 2.482 . S
O669 La641 2.757 . S
O669 C658 1.289 . S
O670 La641 2.470 . S
O670 C659 1.258 . S
O671 La640 2.503 . S
O671 C659 1.256 . S
H672 C644 0.930 . S
H673 C645 0.930 . S
H674 C647 0.929 . S
H675 C648 0.929 . S
H676 C653 0.930 . S
H677 C654 0.930 . S
H678 C656 0.929 . S
H679 C657 0.929 . S
La680 C682 2.928 . S
La680 O700 2.521 . S
La680 O701 2.628 . S
La680 O702 2.554 . S
La680 O703 2.757 . S
La680 O704 2.470 . S
La680 O709 2.482 . S
La680 O711 2.503 . S
La681 C691 2.928 . S
La681 O703 2.482 . S
La681 O705 2.503 . S
La681 O706 2.521 . S
La681 O707 2.628 . S
La681 O708 2.554 . S
La681 O709 2.757 . S
La681 O710 2.470 . S
C682 La680 2.928 . S
C682 C683 1.503 . S
C682 O700 1.261 . S
C682 O701 1.243 . S
C683 C682 1.503 . S
C683 C684 1.394 . S
C683 C688 1.373 . S
C684 C683 1.394 . S
C684 C685 1.380 . S
C684 H712 0.930 . S
C685 C684 1.380 . S
C685 C686 1.376 . S
C685 H713 0.930 . S
C686 C685 1.376 . S
C686 C687 1.370 . S
C687 C686 1.370 . S
C687 C688 1.396 . S
C687 H714 0.929 . S
C688 C683 1.373 . S
C688 C687 1.396 . S
C688 H715 0.929 . S
C689 O702 1.240 . S
C689 O703 1.289 . S
C690 O704 1.258 . S
C690 O705 1.256 . S
C691 La681 2.928 . S
C691 C692 1.503 1_556 S
C691 O706 1.261 . S
C691 O707 1.243 . S
C692 C691 1.503 1_554 S
C692 C693 1.394 . S
C692 C697 1.373 . S
C693 C692 1.394 . S
C693 C694 1.380 . S
C693 H716 0.930 . S
C694 C693 1.380 . S
C694 C695 1.376 . S
C694 H717 0.930 . S
C695 C694 1.376 . S
C695 C696 1.370 . S
C696 C695 1.370 . S
C696 C697 1.396 . S
C696 H718 0.929 . S
C697 C692 1.373 . S
C697 C696 1.396 . S
C697 H719 0.929 . S
C698 O708 1.240 . S
C698 O709 1.289 . S
C699 O710 1.258 . S
C699 O711 1.256 . S
O700 La680 2.521 . S
O700 C682 1.261 . S
O701 La680 2.628 . S
O701 C682 1.243 . S
O702 La680 2.554 . S
O702 C689 1.240 . S
O703 La680 2.757 . S
O703 La681 2.482 . S
O703 C689 1.289 . S
O704 La680 2.470 . S
O704 C690 1.258 . S
O705 La681 2.503 . S
O705 C690 1.256 . S
O706 La681 2.521 . S
O706 C691 1.261 . S
O707 La681 2.628 . S
O707 C691 1.243 . S
O708 La681 2.554 . S
O708 C698 1.240 . S
O709 La680 2.482 . S
O709 La681 2.757 . S
O709 C698 1.289 . S
O710 La681 2.470 . S
O710 C699 1.258 . S
O711 La680 2.503 . S
O711 C699 1.256 . S
H712 C684 0.930 . S
H713 C685 0.930 . S
H714 C687 0.929 . S
H715 C688 0.929 . S
H716 C693 0.930 . S
H717 C694 0.930 . S
H718 C696 0.929 . S
H719 C697 0.929 . S
La720 C722 2.928 . S
La720 O740 2.521 . S
La720 O741 2.628 . S
La720 O742 2.554 . S
La720 O743 2.757 . S
La720 O744 2.470 . S
La720 O749 2.482 . S
La720 O751 2.503 . S
La721 C731 2.928 . S
La721 O743 2.482 . S
La721 O745 2.503 . S
La721 O746 2.521 . S
La721 O747 2.628 . S
La721 O748 2.554 . S
La721 O749 2.757 . S
La721 O750 2.470 . S
C722 La720 2.928 . S
C722 C723 1.503 . S
C722 O740 1.261 . S
C722 O741 1.243 . S
C723 C722 1.503 . S
C723 C724 1.394 . S
C723 C728 1.373 . S
C724 C723 1.394 . S
C724 C725 1.380 . S
C724 H752 0.930 . S
C725 C724 1.380 . S
C725 C726 1.376 . S
C725 H753 0.930 . S
C726 C725 1.376 . S
C726 C727 1.370 . S
C727 C726 1.370 . S
C727 C728 1.396 . S
C727 H754 0.929 . S
C728 C723 1.373 . S
C728 C727 1.396 . S
C728 H755 0.929 . S
C729 O742 1.240 . S
C729 O743 1.289 . S
C730 O744 1.258 . S
C730 O745 1.256 . S
C731 La721 2.928 . S
C731 C732 1.503 . S
C731 O746 1.261 . S
C731 O747 1.243 . S
C732 C731 1.503 . S
C732 C733 1.394 . S
C732 C737 1.373 . S
C733 C732 1.394 . S
C733 C734 1.380 . S
C733 H756 0.930 . S
C734 C733 1.380 . S
C734 C735 1.376 . S
C734 H757 0.930 . S
C735 C734 1.376 . S
C735 C736 1.370 . S
C736 C735 1.370 . S
C736 C737 1.396 . S
C736 H758 0.929 . S
C737 C732 1.373 . S
C737 C736 1.396 . S
C737 H759 0.929 . S
C738 O748 1.240 . S
C738 O749 1.289 . S
C739 O750 1.258 . S
C739 O751 1.256 . S
O740 La720 2.521 . S
O740 C722 1.261 . S
O741 La720 2.628 . S
O741 C722 1.243 . S
O742 La720 2.554 . S
O742 C729 1.240 . S
O743 La720 2.757 . S
O743 La721 2.482 . S
O743 C729 1.289 . S
O744 La720 2.470 . S
O744 C730 1.258 . S
O745 La721 2.503 . S
O745 C730 1.256 . S
O746 La721 2.521 . S
O746 C731 1.261 . S
O747 La721 2.628 . S
O747 C731 1.243 . S
O748 La721 2.554 . S
O748 C738 1.240 . S
O749 La720 2.482 . S
O749 La721 2.757 . S
O749 C738 1.289 . S
O750 La721 2.470 . S
O750 C739 1.258 . S
O751 La720 2.503 . S
O751 C739 1.256 . S
H752 C724 0.930 . S
H753 C725 0.930 . S
H754 C727 0.929 . S
H755 C728 0.929 . S
H756 C733 0.930 . S
H757 C734 0.930 . S
H758 C736 0.929 . S
H759 C737 0.929 . S
La760 C762 2.928 . S
La760 O780 2.521 . S
La760 O781 2.628 . S
La760 O782 2.554 . S
La760 O783 2.757 . S
La760 O784 2.470 . S
La760 O789 2.482 . S
La760 O791 2.503 . S
La761 C771 2.928 . S
La761 O783 2.482 . S
La761 O785 2.503 . S
La761 O786 2.521 . S
La761 O787 2.628 . S
La761 O788 2.554 . S
La761 O789 2.757 . S
La761 O790 2.470 . S
C762 La760 2.928 . S
C762 C763 1.503 . S
C762 O780 1.261 . S
C762 O781 1.243 . S
C763 C762 1.503 . S
C763 C764 1.394 . S
C763 C768 1.373 . S
C764 C763 1.394 . S
C764 C765 1.380 . S
C764 H792 0.930 . S
C765 C764 1.380 . S
C765 C766 1.376 . S
C765 H793 0.930 . S
C766 C765 1.376 . S
C766 C767 1.370 . S
C767 C766 1.370 . S
C767 C768 1.396 . S
C767 H794 0.929 . S
C768 C763 1.373 . S
C768 C767 1.396 . S
C768 H795 0.929 . S
C769 O782 1.240 . S
C769 O783 1.289 . S
C770 O784 1.258 . S
C770 O785 1.256 . S
C771 La761 2.928 . S
C771 C772 1.503 . S
C771 O786 1.261 . S
C771 O787 1.243 . S
C772 C771 1.503 . S
C772 C773 1.394 . S
C772 C777 1.373 . S
C773 C772 1.394 . S
C773 C774 1.380 . S
C773 H796 0.930 . S
C774 C773 1.380 . S
C774 C775 1.376 . S
C774 H797 0.930 . S
C775 C774 1.376 . S
C775 C776 1.370 . S
C776 C775 1.370 . S
C776 C777 1.396 . S
C776 H798 0.929 . S
C777 C772 1.373 . S
C777 C776 1.396 . S
C777 H799 0.929 . S
C778 O788 1.240 . S
C778 O789 1.289 . S
C779 O790 1.258 . S
C779 O791 1.256 . S
O780 La760 2.521 . S
O780 C762 1.261 . S
O781 La760 2.628 . S
O781 C762 1.243 . S
O782 La760 2.554 . S
O782 C769 1.240 . S
O783 La760 2.757 . S
O783 La761 2.482 . S
O783 C769 1.289 . S
O784 La760 2.470 . S
O784 C770 1.258 . S
O785 La761 2.503 . S
O785 C770 1.256 . S
O786 La761 2.521 . S
O786 C771 1.261 . S
O787 La761 2.628 . S
O787 C771 1.243 . S
O788 La761 2.554 . S
O788 C778 1.240 . S
O789 La760 2.482 . S
O789 La761 2.757 . S
O789 C778 1.289 . S
O790 La761 2.470 . S
O790 C779 1.258 . S
O791 La760 2.503 . S
O791 C779 1.256 . S
H792 C764 0.930 . S
H793 C765 0.930 . S
H794 C767 0.929 . S
H795 C768 0.929 . S
H796 C773 0.930 . S
H797 C774 0.930 . S
H798 C776 0.929 . S
H799 C777 0.929 . S
La800 C802 2.928 . S
La800 O820 2.521 . S
La800 O821 2.628 . S
La800 O822 2.554 . S
La800 O823 2.757 . S
La800 O824 2.470 . S
La800 O829 2.482 . S
La800 O831 2.503 . S
La801 C811 2.928 . S
La801 O823 2.482 . S
La801 O825 2.503 . S
La801 O826 2.521 . S
La801 O827 2.628 . S
La801 O828 2.554 . S
La801 O829 2.757 . S
La801 O830 2.470 . S
C802 La800 2.928 . S
C802 C803 1.503 . S
C802 O820 1.261 . S
C802 O821 1.243 . S
C803 C802 1.503 . S
C803 C804 1.394 . S
C803 C808 1.373 . S
C804 C803 1.394 . S
C804 C805 1.380 . S
C804 H832 0.930 . S
C805 C804 1.380 . S
C805 C806 1.376 . S
C805 H833 0.930 . S
C806 C805 1.376 . S
C806 C807 1.370 . S
C807 C806 1.370 . S
C807 C808 1.396 . S
C807 H834 0.929 . S
C808 C803 1.373 . S
C808 C807 1.396 . S
C808 H835 0.929 . S
C809 O822 1.240 . S
C809 O823 1.289 . S
C810 O824 1.258 . S
C810 O825 1.256 . S
C811 La801 2.928 . S
C811 C812 1.503 . S
C811 O826 1.261 . S
C811 O827 1.243 . S
C812 C811 1.503 . S
C812 C813 1.394 . S
C812 C817 1.373 . S
C813 C812 1.394 . S
C813 C814 1.380 . S
C813 H836 0.930 . S
C814 C813 1.380 . S
C814 C815 1.376 . S
C814 H837 0.930 . S
C815 C814 1.376 . S
C815 C816 1.370 . S
C816 C815 1.370 . S
C816 C817 1.396 . S
C816 H838 0.929 . S
C817 C812 1.373 . S
C817 C816 1.396 . S
C817 H839 0.929 . S
C818 O828 1.240 . S
C818 O829 1.289 . S
C819 O830 1.258 . S
C819 O831 1.256 . S
O820 La800 2.521 . S
O820 C802 1.261 . S
O821 La800 2.628 . S
O821 C802 1.243 . S
O822 La800 2.554 . S
O822 C809 1.240 . S
O823 La800 2.757 . S
O823 La801 2.482 . S
O823 C809 1.289 . S
O824 La800 2.470 . S
O824 C810 1.258 . S
O825 La801 2.503 . S
O825 C810 1.256 . S
O826 La801 2.521 . S
O826 C811 1.261 . S
O827 La801 2.628 . S
O827 C811 1.243 . S
O828 La801 2.554 . S
O828 C818 1.240 . S
O829 La800 2.482 . S
O829 La801 2.757 . S
O829 C818 1.289 . S
O830 La801 2.470 . S
O830 C819 1.258 . S
O831 La800 2.503 . S
O831 C819 1.256 . S
H832 C804 0.930 . S
H833 C805 0.930 . S
H834 C807 0.929 . S
H835 C808 0.929 . S
H836 C813 0.930 . S
H837 C814 0.930 . S
H838 C816 0.929 . S
H839 C817 0.929 . S
La840 C842 2.928 . S
La840 O860 2.521 . S
La840 O861 2.628 . S
La840 O862 2.554 . S
La840 O863 2.757 . S
La840 O864 2.470 . S
La840 O869 2.482 . S
La840 O871 2.503 . S
La841 C851 2.928 1_556 S
La841 O863 2.482 . S
La841 O865 2.503 . S
La841 O866 2.521 1_556 S
La841 O867 2.628 1_556 S
La841 O868 2.554 . S
La841 O869 2.757 . S
La841 O870 2.470 1_556 S
C842 La840 2.928 . S
C842 C843 1.503 . S
C842 O860 1.261 . S
C842 O861 1.243 . S
C843 C842 1.503 . S
C843 C844 1.394 . S
C843 C848 1.373 . S
C844 C843 1.394 . S
C844 C845 1.380 . S
C844 H872 0.930 . S
C845 C844 1.380 . S
C845 C846 1.376 . S
C845 H873 0.930 . S
C846 C845 1.376 . S
C846 C847 1.370 . S
C847 C846 1.370 . S
C847 C848 1.396 . S
C847 H874 0.929 . S
C848 C843 1.373 . S
C848 C847 1.396 . S
C848 H875 0.929 . S
C849 O862 1.240 . S
C849 O863 1.289 . S
C850 O864 1.258 . S
C850 O865 1.256 . S
C851 La841 2.928 1_554 S
C851 C852 1.503 . S
C851 O866 1.261 . S
C851 O867 1.243 . S
C852 C851 1.503 . S
C852 C853 1.394 . S
C852 C857 1.373 . S
C853 C852 1.394 . S
C853 C854 1.380 . S
C853 H876 0.930 . S
C854 C853 1.380 . S
C854 C855 1.376 . S
C854 H877 0.930 . S
C855 C854 1.376 . S
C855 C856 1.370 . S
C856 C855 1.370 . S
C856 C857 1.396 . S
C856 H878 0.929 . S
C857 C852 1.373 . S
C857 C856 1.396 . S
C857 H879 0.929 . S
C858 O868 1.240 . S
C858 O869 1.289 . S
C859 O870 1.258 . S
C859 O871 1.256 1_554 S
O860 La840 2.521 . S
O860 C842 1.261 . S
O861 La840 2.628 . S
O861 C842 1.243 . S
O862 La840 2.554 . S
O862 C849 1.240 . S
O863 La840 2.757 . S
O863 La841 2.482 . S
O863 C849 1.289 . S
O864 La840 2.470 . S
O864 C850 1.258 . S
O865 La841 2.503 . S
O865 C850 1.256 . S
O866 La841 2.521 1_554 S
O866 C851 1.261 . S
O867 La841 2.628 1_554 S
O867 C851 1.243 . S
O868 La841 2.554 . S
O868 C858 1.240 . S
O869 La840 2.482 . S
O869 La841 2.757 . S
O869 C858 1.289 . S
O870 La841 2.470 1_554 S
O870 C859 1.258 . S
O871 La840 2.503 . S
O871 C859 1.256 1_556 S
H872 C844 0.930 . S
H873 C845 0.930 . S
H874 C847 0.929 . S
H875 C848 0.929 . S
H876 C853 0.930 . S
H877 C854 0.930 . S
H878 C856 0.929 . S
H879 C857 0.929 . S
La880 C882 2.928 . S
La880 O900 2.521 . S
La880 O901 2.628 . S
La880 O902 2.554 . S
La880 O903 2.757 . S
La880 O904 2.470 . S
La880 O909 2.482 . S
La880 O911 2.503 . S
La881 C891 2.928 1_556 S
La881 O903 2.482 . S
La881 O905 2.503 . S
La881 O906 2.521 1_556 S
La881 O907 2.628 1_556 S
La881 O908 2.554 . S
La881 O909 2.757 . S
La881 O910 2.470 1_556 S
C882 La880 2.928 . S
C882 C883 1.503 . S
C882 O900 1.261 . S
C882 O901 1.243 . S
C883 C882 1.503 . S
C883 C884 1.394 . S
C883 C888 1.373 . S
C884 C883 1.394 . S
C884 C885 1.380 . S
C884 H912 0.930 . S
C885 C884 1.380 . S
C885 C886 1.376 . S
C885 H913 0.930 . S
C886 C885 1.376 . S
C886 C887 1.370 . S
C887 C886 1.370 . S
C887 C888 1.396 . S
C887 H914 0.929 . S
C888 C883 1.373 . S
C888 C887 1.396 . S
C888 H915 0.929 . S
C889 O902 1.240 . S
C889 O903 1.289 . S
C890 O904 1.258 . S
C890 O905 1.256 . S
C891 La881 2.928 1_554 S
C891 C892 1.503 . S
C891 O906 1.261 . S
C891 O907 1.243 . S
C892 C891 1.503 . S
C892 C893 1.394 . S
C892 C897 1.373 . S
C893 C892 1.394 . S
C893 C894 1.380 . S
C893 H916 0.930 . S
C894 C893 1.380 . S
C894 C895 1.376 . S
C894 H917 0.930 . S
C895 C894 1.376 . S
C895 C896 1.370 . S
C896 C895 1.370 . S
C896 C897 1.396 . S
C896 H918 0.929 . S
C897 C892 1.373 . S
C897 C896 1.396 . S
C897 H919 0.929 . S
C898 O908 1.240 . S
C898 O909 1.289 . S
C899 O910 1.258 . S
C899 O911 1.256 1_554 S
O900 La880 2.521 . S
O900 C882 1.261 . S
O901 La880 2.628 . S
O901 C882 1.243 . S
O902 La880 2.554 . S
O902 C889 1.240 . S
O903 La880 2.757 . S
O903 La881 2.482 . S
O903 C889 1.289 . S
O904 La880 2.470 . S
O904 C890 1.258 . S
O905 La881 2.503 . S
O905 C890 1.256 . S
O906 La881 2.521 1_554 S
O906 C891 1.261 . S
O907 La881 2.628 1_554 S
O907 C891 1.243 . S
O908 La881 2.554 . S
O908 C898 1.240 . S
O909 La880 2.482 . S
O909 La881 2.757 . S
O909 C898 1.289 . S
O910 La881 2.470 1_554 S
O910 C899 1.258 . S
O911 La880 2.503 . S
O911 C899 1.256 1_556 S
H912 C884 0.930 . S
H913 C885 0.930 . S
H914 C887 0.929 . S
H915 C888 0.929 . S
H916 C893 0.930 . S
H917 C894 0.930 . S
H918 C896 0.929 . S
H919 C897 0.929 . S
La920 C922 2.928 . S
La920 O940 2.521 . S
La920 O941 2.628 . S
La920 O942 2.554 . S
La920 O943 2.757 . S
La920 O944 2.470 . S
La920 O949 2.482 . S
La920 O951 2.503 . S
La921 C931 2.928 1_556 S
La921 O943 2.482 . S
La921 O945 2.503 . S
La921 O946 2.521 1_556 S
La921 O947 2.628 1_556 S
La921 O948 2.554 . S
La921 O949 2.757 . S
La921 O950 2.470 1_556 S
C922 La920 2.928 . S
C922 C923 1.503 . S
C922 O940 1.261 . S
C922 O941 1.243 . S
C923 C922 1.503 . S
C923 C924 1.394 . S
C923 C928 1.373 . S
C924 C923 1.394 . S
C924 C925 1.380 . S
C924 H952 0.930 . S
C925 C924 1.380 . S
C925 C926 1.376 . S
C925 H953 0.930 . S
C926 C925 1.376 . S
C926 C927 1.370 . S
C927 C926 1.370 . S
C927 C928 1.396 . S
C927 H954 0.929 . S
C928 C923 1.373 . S
C928 C927 1.396 . S
C928 H955 0.929 . S
C929 O942 1.240 . S
C929 O943 1.289 . S
C930 O944 1.258 . S
C930 O945 1.256 . S
C931 La921 2.928 1_554 S
C931 C932 1.503 . S
C931 O946 1.261 . S
C931 O947 1.243 . S
C932 C931 1.503 . S
C932 C933 1.394 . S
C932 C937 1.373 . S
C933 C932 1.394 . S
C933 C934 1.380 . S
C933 H956 0.930 . S
C934 C933 1.380 . S
C934 C935 1.376 . S
C934 H957 0.930 . S
C935 C934 1.376 . S
C935 C936 1.370 . S
C936 C935 1.370 . S
C936 C937 1.396 . S
C936 H958 0.929 . S
C937 C932 1.373 . S
C937 C936 1.396 . S
C937 H959 0.929 . S
C938 O948 1.240 . S
C938 O949 1.289 . S
C939 O950 1.258 . S
C939 O951 1.256 1_554 S
O940 La920 2.521 . S
O940 C922 1.261 . S
O941 La920 2.628 . S
O941 C922 1.243 . S
O942 La920 2.554 . S
O942 C929 1.240 . S
O943 La920 2.757 . S
O943 La921 2.482 . S
O943 C929 1.289 . S
O944 La920 2.470 . S
O944 C930 1.258 . S
O945 La921 2.503 . S
O945 C930 1.256 . S
O946 La921 2.521 1_554 S
O946 C931 1.261 . S
O947 La921 2.628 1_554 S
O947 C931 1.243 . S
O948 La921 2.554 . S
O948 C938 1.240 . S
O949 La920 2.482 . S
O949 La921 2.757 . S
O949 C938 1.289 . S
O950 La921 2.470 1_554 S
O950 C939 1.258 . S
O951 La920 2.503 . S
O951 C939 1.256 1_556 S
H952 C924 0.930 . S
H953 C925 0.930 . S
H954 C927 0.929 . S
H955 C928 0.929 . S
H956 C933 0.930 . S
H957 C934 0.930 . S
H958 C936 0.929 . S
H959 C937 0.929 . S
La960 C962 2.928 . S
La960 O980 2.521 . S
La960 O981 2.628 . S
La960 O982 2.554 . S
La960 O983 2.757 . S
La960 O984 2.470 . S
La960 O989 2.482 . S
La960 O991 2.503 . S
La961 C971 2.928 . S
La961 O983 2.482 . S
La961 O985 2.503 . S
La961 O986 2.521 . S
La961 O987 2.628 . S
La961 O988 2.554 . S
La961 O989 2.757 . S
La961 O990 2.470 . S
C962 La960 2.928 . S
C962 C963 1.503 . S
C962 O980 1.261 . S
C962 O981 1.243 . S
C963 C962 1.503 . S
C963 C964 1.394 . S
C963 C968 1.373 . S
C964 C963 1.394 . S
C964 C965 1.380 1_556 S
C964 H992 0.930 . S
C965 C964 1.380 1_554 S
C965 C966 1.376 . S
C965 H993 0.930 . S
C966 C965 1.376 . S
C966 C967 1.370 . S
C967 C966 1.370 . S
C967 C968 1.396 1_554 S
C967 H994 0.929 . S
C968 C963 1.373 . S
C968 C967 1.396 1_556 S
C968 H995 0.929 . S
C969 O982 1.240 . S
C969 O983 1.289 . S
C970 O984 1.258 . S
C970 O985 1.256 . S
C971 La961 2.928 . S
C971 C972 1.503 . S
C971 O986 1.261 . S
C971 O987 1.243 . S
C972 C971 1.503 . S
C972 C973 1.394 . S
C972 C977 1.373 . S
C973 C972 1.394 . S
C973 C974 1.380 . S
C973 H996 0.930 . S
C974 C973 1.380 . S
C974 C975 1.376 . S
C974 H997 0.930 . S
C975 C974 1.376 . S
C975 C976 1.370 . S
C976 C975 1.370 . S
C976 C977 1.396 . S
C976 H998 0.929 . S
C977 C972 1.373 . S
C977 C976 1.396 . S
C977 H999 0.929 . S
C978 O988 1.240 . S
C978 O989 1.289 . S
C979 O990 1.258 . S
C979 O991 1.256 . S
O980 La960 2.521 . S
O980 C962 1.261 . S
O981 La960 2.628 . S
O981 C962 1.243 . S
O982 La960 2.554 . S
O982 C969 1.240 . S
O983 La960 2.757 . S
O983 La961 2.482 . S
O983 C969 1.289 . S
O984 La960 2.470 . S
O984 C970 1.258 . S
O985 La961 2.503 . S
O985 C970 1.256 . S
O986 La961 2.521 . S
O986 C971 1.261 . S
O987 La961 2.628 . S
O987 C971 1.243 . S
O988 La961 2.554 . S
O988 C978 1.240 . S
O989 La960 2.482 . S
O989 La961 2.757 . S
O989 C978 1.289 . S
O990 La961 2.470 . S
O990 C979 1.258 . S
O991 La960 2.503 . S
O991 C979 1.256 . S
H992 C964 0.930 . S
H993 C965 0.930 . S
H994 C967 0.929 . S
H995 C968 0.929 . S
H996 C973 0.930 . S
H997 C974 0.930 . S
H998 C976 0.929 . S
H999 C977 0.929 . S
La1000 C1002 2.928 . S
La1000 O1020 2.521 . S
La1000 O1021 2.628 . S
La1000 O1022 2.554 . S
La1000 O1023 2.757 . S
La1000 O1024 2.470 . S
La1000 O1029 2.482 . S
La1000 O1031 2.503 . S
La1001 C1011 2.928 . S
La1001 O1023 2.482 . S
La1001 O1025 2.503 . S
La1001 O1026 2.521 . S
La1001 O1027 2.628 . S
La1001 O1028 2.554 . S
La1001 O1029 2.757 . S
La1001 O1030 2.470 . S
C1002 La1000 2.928 . S
C1002 C1003 1.503 . S
C1002 O1020 1.261 . S
C1002 O1021 1.243 . S
C1003 C1002 1.503 . S
C1003 C1004 1.394 . S
C1003 C1008 1.373 . S
C1004 C1003 1.394 . S
C1004 C1005 1.380 1_556 S
C1004 H1032 0.930 . S
C1005 C1004 1.380 1_554 S
C1005 C1006 1.376 . S
C1005 H1033 0.930 . S
C1006 C1005 1.376 . S
C1006 C1007 1.370 . S
C1007 C1006 1.370 . S
C1007 C1008 1.396 1_554 S
C1007 H1034 0.929 . S
C1008 C1003 1.373 . S
C1008 C1007 1.396 1_556 S
C1008 H1035 0.929 . S
C1009 O1022 1.240 . S
C1009 O1023 1.289 . S
C1010 O1024 1.258 . S
C1010 O1025 1.256 . S
C1011 La1001 2.928 . S
C1011 C1012 1.503 . S
C1011 O1026 1.261 . S
C1011 O1027 1.243 . S
C1012 C1011 1.503 . S
C1012 C1013 1.394 . S
C1012 C1017 1.373 . S
C1013 C1012 1.394 . S
C1013 C1014 1.380 . S
C1013 H1036 0.930 . S
C1014 C1013 1.380 . S
C1014 C1015 1.376 . S
C1014 H1037 0.930 . S
C1015 C1014 1.376 . S
C1015 C1016 1.370 . S
C1016 C1015 1.370 . S
C1016 C1017 1.396 . S
C1016 H1038 0.929 . S
C1017 C1012 1.373 . S
C1017 C1016 1.396 . S
C1017 H1039 0.929 . S
C1018 O1028 1.240 . S
C1018 O1029 1.289 . S
C1019 O1030 1.258 . S
C1019 O1031 1.256 . S
O1020 La1000 2.521 . S
O1020 C1002 1.261 . S
O1021 La1000 2.628 . S
O1021 C1002 1.243 . S
O1022 La1000 2.554 . S
O1022 C1009 1.240 . S
O1023 La1000 2.757 . S
O1023 La1001 2.482 . S
O1023 C1009 1.289 . S
O1024 La1000 2.470 . S
O1024 C1010 1.258 . S
O1025 La1001 2.503 . S
O1025 C1010 1.256 . S
O1026 La1001 2.521 . S
O1026 C1011 1.261 . S
O1027 La1001 2.628 . S
O1027 C1011 1.243 . S
O1028 La1001 2.554 . S
O1028 C1018 1.240 . S
O1029 La1000 2.482 . S
O1029 La1001 2.757 . S
O1029 C1018 1.289 . S
O1030 La1001 2.470 . S
O1030 C1019 1.258 . S
O1031 La1000 2.503 . S
O1031 C1019 1.256 . S
H1032 C1004 0.930 . S
H1033 C1005 0.930 . S
H1034 C1007 0.929 . S
H1035 C1008 0.929 . S
H1036 C1013 0.930 . S
H1037 C1014 0.930 . S
H1038 C1016 0.929 . S
H1039 C1017 0.929 . S
La1040 C1042 2.928 . S
La1040 O1060 2.521 . S
La1040 O1061 2.628 . S
La1040 O1062 2.554 . S
La1040 O1063 2.757 . S
La1040 O1064 2.470 . S
La1040 O1069 2.482 . S
La1040 O1071 2.503 . S
La1041 C1051 2.928 . S
La1041 O1063 2.482 . S
La1041 O1065 2.503 . S
La1041 O1066 2.521 . S
La1041 O1067 2.628 . S
La1041 O1068 2.554 . S
La1041 O1069 2.757 . S
La1041 O1070 2.470 . S
C1042 La1040 2.928 . S
C1042 C1043 1.503 . S
C1042 O1060 1.261 . S
C1042 O1061 1.243 . S
C1043 C1042 1.503 . S
C1043 C1044 1.394 . S
C1043 C1048 1.373 . S
C1044 C1043 1.394 . S
C1044 C1045 1.380 1_556 S
C1044 H1072 0.930 . S
C1045 C1044 1.380 1_554 S
C1045 C1046 1.376 . S
C1045 H1073 0.930 . S
C1046 C1045 1.376 . S
C1046 C1047 1.370 . S
C1047 C1046 1.370 . S
C1047 C1048 1.396 1_554 S
C1047 H1074 0.929 . S
C1048 C1043 1.373 . S
C1048 C1047 1.396 1_556 S
C1048 H1075 0.929 . S
C1049 O1062 1.240 . S
C1049 O1063 1.289 . S
C1050 O1064 1.258 . S
C1050 O1065 1.256 . S
C1051 La1041 2.928 . S
C1051 C1052 1.503 . S
C1051 O1066 1.261 . S
C1051 O1067 1.243 . S
C1052 C1051 1.503 . S
C1052 C1053 1.394 . S
C1052 C1057 1.373 . S
C1053 C1052 1.394 . S
C1053 C1054 1.380 . S
C1053 H1076 0.930 . S
C1054 C1053 1.380 . S
C1054 C1055 1.376 . S
C1054 H1077 0.930 . S
C1055 C1054 1.376 . S
C1055 C1056 1.370 . S
C1056 C1055 1.370 . S
C1056 C1057 1.396 . S
C1056 H1078 0.929 . S
C1057 C1052 1.373 . S
C1057 C1056 1.396 . S
C1057 H1079 0.929 . S
C1058 O1068 1.240 . S
C1058 O1069 1.289 . S
C1059 O1070 1.258 . S
C1059 O1071 1.256 . S
O1060 La1040 2.521 . S
O1060 C1042 1.261 . S
O1061 La1040 2.628 . S
O1061 C1042 1.243 . S
O1062 La1040 2.554 . S
O1062 C1049 1.240 . S
O1063 La1040 2.757 . S
O1063 La1041 2.482 . S
O1063 C1049 1.289 . S
O1064 La1040 2.470 . S
O1064 C1050 1.258 . S
O1065 La1041 2.503 . S
O1065 C1050 1.256 . S
O1066 La1041 2.521 . S
O1066 C1051 1.261 . S
O1067 La1041 2.628 . S
O1067 C1051 1.243 . S
O1068 La1041 2.554 . S
O1068 C1058 1.240 . S
O1069 La1040 2.482 . S
O1069 La1041 2.757 . S
O1069 C1058 1.289 . S
O1070 La1041 2.470 . S
O1070 C1059 1.258 . S
O1071 La1040 2.503 . S
O1071 C1059 1.256 . S
H1072 C1044 0.930 . S
H1073 C1045 0.930 . S
H1074 C1047 0.929 . S
H1075 C1048 0.929 . S
H1076 C1053 0.930 . S
H1077 C1054 0.930 . S
H1078 C1056 0.929 . S
H1079 C1057 0.929 . S
La1080 C1082 2.928 . S
La1080 O1100 2.521 . S
La1080 O1101 2.628 . S
La1080 O1102 2.554 . S
La1080 O1103 2.757 . S
La1080 O1104 2.470 . S
La1080 O1109 2.482 . S
La1080 O1111 2.503 . S
La1081 C1091 2.928 . S
La1081 O1103 2.482 . S
La1081 O1105 2.503 . S
La1081 O1106 2.521 . S
La1081 O1107 2.628 . S
La1081 O1108 2.554 . S
La1081 O1109 2.757 . S
La1081 O1110 2.470 . S
C1082 La1080 2.928 . S
C1082 C1083 1.503 . S
C1082 O1100 1.261 . S
C1082 O1101 1.243 . S
C1083 C1082 1.503 . S
C1083 C1084 1.394 . S
C1083 C1088 1.373 1_554 S
C1084 C1083 1.394 . S
C1084 C1085 1.380 1_554 S
C1084 H1112 0.930 . S
C1085 C1084 1.380 1_556 S
C1085 C1086 1.376 . S
C1085 H1113 0.930 . S
C1086 C1085 1.376 . S
C1086 C1087 1.370 . S
C1087 C1086 1.370 . S
C1087 C1088 1.396 . S
C1087 H1114 0.929 . S
C1088 C1083 1.373 1_556 S
C1088 C1087 1.396 . S
C1088 H1115 0.932 . S
C1089 O1102 1.240 . S
C1089 O1103 1.289 . S
C1090 O1104 1.258 . S
C1090 O1105 1.256 . S
C1091 La1081 2.928 . S
C1091 C1092 1.503 . S
C1091 O1106 1.261 . S
C1091 O1107 1.243 . S
C1092 C1091 1.503 . S
C1092 C1093 1.394 . S
C1092 C1097 1.373 . S
C1093 C1092 1.394 . S
C1093 C1094 1.380 . S
C1093 H1116 0.930 . S
C1094 C1093 1.380 . S
C1094 C1095 1.376 . S
C1094 H1117 0.930 . S
C1095 C1094 1.376 . S
C1095 C1096 1.370 . S
C1096 C1095 1.370 . S
C1096 C1097 1.396 . S
C1096 H1118 0.929 . S
C1097 C1092 1.373 . S
C1097 C1096 1.396 . S
C1097 H1119 0.929 . S
C1098 O1108 1.240 . S
C1098 O1109 1.289 . S
C1099 O1110 1.258 . S
C1099 O1111 1.256 . S
O1100 La1080 2.521 . S
O1100 C1082 1.261 . S
O1101 La1080 2.628 . S
O1101 C1082 1.243 . S
O1102 La1080 2.554 . S
O1102 C1089 1.240 . S
O1103 La1080 2.757 . S
O1103 La1081 2.482 . S
O1103 C1089 1.289 . S
O1104 La1080 2.470 . S
O1104 C1090 1.258 . S
O1105 La1081 2.503 . S
O1105 C1090 1.256 . S
O1106 La1081 2.521 . S
O1106 C1091 1.261 . S
O1107 La1081 2.628 . S
O1107 C1091 1.243 . S
O1108 La1081 2.554 . S
O1108 C1098 1.240 . S
O1109 La1080 2.482 . S
O1109 La1081 2.757 . S
O1109 C1098 1.289 . S
O1110 La1081 2.470 . S
O1110 C1099 1.258 . S
O1111 La1080 2.503 . S
O1111 C1099 1.256 . S
H1112 C1084 0.930 . S
H1113 C1085 0.930 . S
H1114 C1087 0.929 . S
H1115 C1088 0.932 . S
H1116 C1093 0.930 . S
H1117 C1094 0.930 . S
H1118 C1096 0.929 . S
H1119 C1097 0.929 . S
La1120 C1122 2.928 . S
La1120 O1140 2.521 . S
La1120 O1141 2.628 . S
La1120 O1142 2.554 . S
La1120 O1143 2.757 . S
La1120 O1144 2.470 . S
La1120 O1149 2.482 . S
La1120 O1151 2.503 . S
La1121 C1131 2.928 . S
La1121 O1143 2.482 . S
La1121 O1145 2.503 . S
La1121 O1146 2.521 . S
La1121 O1147 2.628 . S
La1121 O1148 2.554 . S
La1121 O1149 2.757 . S
La1121 O1150 2.470 . S
C1122 La1120 2.928 . S
C1122 C1123 1.503 . S
C1122 O1140 1.261 . S
C1122 O1141 1.243 . S
C1123 C1122 1.503 . S
C1123 C1124 1.394 . S
C1123 C1128 1.373 1_554 S
C1124 C1123 1.394 . S
C1124 C1125 1.380 1_554 S
C1124 H1152 0.930 . S
C1125 C1124 1.380 1_556 S
C1125 C1126 1.376 . S
C1125 H1153 0.930 . S
C1126 C1125 1.376 . S
C1126 C1127 1.370 . S
C1127 C1126 1.370 . S
C1127 C1128 1.396 . S
C1127 H1154 0.929 . S
C1128 C1123 1.373 1_556 S
C1128 C1127 1.396 . S
C1128 H1155 0.932 . S
C1129 O1142 1.240 . S
C1129 O1143 1.289 . S
C1130 O1144 1.258 . S
C1130 O1145 1.256 . S
C1131 La1121 2.928 . S
C1131 C1132 1.503 . S
C1131 O1146 1.261 . S
C1131 O1147 1.243 . S
C1132 C1131 1.503 . S
C1132 C1133 1.394 . S
C1132 C1137 1.373 . S
C1133 C1132 1.394 . S
C1133 C1134 1.380 . S
C1133 H1156 0.930 . S
C1134 C1133 1.380 . S
C1134 C1135 1.376 . S
C1134 H1157 0.930 . S
C1135 C1134 1.376 . S
C1135 C1136 1.370 . S
C1136 C1135 1.370 . S
C1136 C1137 1.396 . S
C1136 H1158 0.929 . S
C1137 C1132 1.373 . S
C1137 C1136 1.396 . S
C1137 H1159 0.929 . S
C1138 O1148 1.240 . S
C1138 O1149 1.289 . S
C1139 O1150 1.258 . S
C1139 O1151 1.256 . S
O1140 La1120 2.521 . S
O1140 C1122 1.261 . S
O1141 La1120 2.628 . S
O1141 C1122 1.243 . S
O1142 La1120 2.554 . S
O1142 C1129 1.240 . S
O1143 La1120 2.757 . S
O1143 La1121 2.482 . S
O1143 C1129 1.289 . S
O1144 La1120 2.470 . S
O1144 C1130 1.258 . S
O1145 La1121 2.503 . S
O1145 C1130 1.256 . S
O1146 La1121 2.521 . S
O1146 C1131 1.261 . S
O1147 La1121 2.628 . S
O1147 C1131 1.243 . S
O1148 La1121 2.554 . S
O1148 C1138 1.240 . S
O1149 La1120 2.482 . S
O1149 La1121 2.757 . S
O1149 C1138 1.289 . S
O1150 La1121 2.470 . S
O1150 C1139 1.258 . S
O1151 La1120 2.503 . S
O1151 C1139 1.256 . S
H1152 C1124 0.930 . S
H1153 C1125 0.930 . S
H1154 C1127 0.929 . S
H1155 C1128 0.932 . S
H1156 C1133 0.930 . S
H1157 C1134 0.930 . S
H1158 C1136 0.929 . S
H1159 C1137 0.929 . S
La1160 C1162 2.928 . S
La1160 O1180 2.521 . S
La1160 O1181 2.628 . S
La1160 O1182 2.554 . S
La1160 O1183 2.757 . S
La1160 O1184 2.470 . S
La1160 O1189 2.482 . S
La1160 O1191 2.503 . S
La1161 C1171 2.928 . S
La1161 O1183 2.482 . S
La1161 O1185 2.503 . S
La1161 O1186 2.521 . S
La1161 O1187 2.628 . S
La1161 O1188 2.554 . S
La1161 O1189 2.757 . S
La1161 O1190 2.470 . S
C1162 La1160 2.928 . S
C1162 C1163 1.503 . S
C1162 O1180 1.261 . S
C1162 O1181 1.243 . S
C1163 C1162 1.503 . S
C1163 C1164 1.394 . S
C1163 C1168 1.373 1_554 S
C1164 C1163 1.394 . S
C1164 C1165 1.380 1_554 S
C1164 H1192 0.930 . S
C1165 C1164 1.380 1_556 S
C1165 C1166 1.376 . S
C1165 H1193 0.930 . S
C1166 C1165 1.376 . S
C1166 C1167 1.370 . S
C1167 C1166 1.370 . S
C1167 C1168 1.396 . S
C1167 H1194 0.929 . S
C1168 C1163 1.373 1_556 S
C1168 C1167 1.396 . S
C1168 H1195 0.932 . S
C1169 O1182 1.240 . S
C1169 O1183 1.289 . S
C1170 O1184 1.258 . S
C1170 O1185 1.256 . S
C1171 La1161 2.928 . S
C1171 C1172 1.503 . S
C1171 O1186 1.261 . S
C1171 O1187 1.243 . S
C1172 C1171 1.503 . S
C1172 C1173 1.394 . S
C1172 C1177 1.373 . S
C1173 C1172 1.394 . S
C1173 C1174 1.380 . S
C1173 H1196 0.930 . S
C1174 C1173 1.380 . S
C1174 C1175 1.376 . S
C1174 H1197 0.930 . S
C1175 C1174 1.376 . S
C1175 C1176 1.370 . S
C1176 C1175 1.370 . S
C1176 C1177 1.396 . S
C1176 H1198 0.929 . S
C1177 C1172 1.373 . S
C1177 C1176 1.396 . S
C1177 H1199 0.929 . S
C1178 O1188 1.240 . S
C1178 O1189 1.289 . S
C1179 O1190 1.258 . S
C1179 O1191 1.256 . S
O1180 La1160 2.521 . S
O1180 C1162 1.261 . S
O1181 La1160 2.628 . S
O1181 C1162 1.243 . S
O1182 La1160 2.554 . S
O1182 C1169 1.240 . S
O1183 La1160 2.757 . S
O1183 La1161 2.482 . S
O1183 C1169 1.289 . S
O1184 La1160 2.470 . S
O1184 C1170 1.258 . S
O1185 La1161 2.503 . S
O1185 C1170 1.256 . S
O1186 La1161 2.521 . S
O1186 C1171 1.261 . S
O1187 La1161 2.628 . S
O1187 C1171 1.243 . S
O1188 La1161 2.554 . S
O1188 C1178 1.240 . S
O1189 La1160 2.482 . S
O1189 La1161 2.757 . S
O1189 C1178 1.289 . S
O1190 La1161 2.470 . S
O1190 C1179 1.258 . S
O1191 La1160 2.503 . S
O1191 C1179 1.256 . S
H1192 C1164 0.930 . S
H1193 C1165 0.930 . S
H1194 C1167 0.929 . S
H1195 C1168 0.932 . S
H1196 C1173 0.930 . S
H1197 C1174 0.930 . S
H1198 C1176 0.929 . S
H1199 C1177 0.929 . S
La1200 C1202 2.928 . S
La1200 O1220 2.521 . S
La1200 O1221 2.628 . S
La1200 O1222 2.554 . S
La1200 O1223 2.757 . S
La1200 O1224 2.470 . S
La1200 O1229 2.482 . S
La1200 O1231 2.503 . S
La1201 C1211 2.928 . S
La1201 O1223 2.482 . S
La1201 O1225 2.503 . S
La1201 O1226 2.521 . S
La1201 O1227 2.628 . S
La1201 O1228 2.554 . S
La1201 O1229 2.757 . S
La1201 O1230 2.470 . S
C1202 La1200 2.928 . S
C1202 C1203 1.503 . S
C1202 O1220 1.261 . S
C1202 O1221 1.243 . S
C1203 C1202 1.503 . S
C1203 C1204 1.394 . S
C1203 C1208 1.373 . S
C1204 C1203 1.394 . S
C1204 C1205 1.380 . S
C1204 H1232 0.930 . S
C1205 C1204 1.380 . S
C1205 C1206 1.376 . S
C1205 H1233 0.930 . S
C1206 C1205 1.376 . S
C1206 C1207 1.370 . S
C1207 C1206 1.370 . S
C1207 C1208 1.396 . S
C1207 H1234 0.929 . S
C1208 C1203 1.373 . S
C1208 C1207 1.396 . S
C1208 H1235 0.929 . S
C1209 O1222 1.240 . S
C1209 O1223 1.289 . S
C1210 O1224 1.258 . S
C1210 O1225 1.256 . S
C1211 La1201 2.928 . S
C1211 C1212 1.503 . S
C1211 O1226 1.261 . S
C1211 O1227 1.243 . S
C1212 C1211 1.503 . S
C1212 C1213 1.394 . S
C1212 C1217 1.373 . S
C1213 C1212 1.394 . S
C1213 C1214 1.380 . S
C1213 H1236 0.930 . S
C1214 C1213 1.380 . S
C1214 C1215 1.376 . S
C1214 H1237 0.930 . S
C1215 C1214 1.376 . S
C1215 C1216 1.370 . S
C1216 C1215 1.370 . S
C1216 C1217 1.396 . S
C1216 H1238 0.929 . S
C1217 C1212 1.373 . S
C1217 C1216 1.396 . S
C1217 H1239 0.929 . S
C1218 O1228 1.240 . S
C1218 O1229 1.289 . S
C1219 O1230 1.258 . S
C1219 O1231 1.256 . S
O1220 La1200 2.521 . S
O1220 C1202 1.261 . S
O1221 La1200 2.628 . S
O1221 C1202 1.243 . S
O1222 La1200 2.554 . S
O1222 C1209 1.240 . S
O1223 La1200 2.757 . S
O1223 La1201 2.482 . S
O1223 C1209 1.289 . S
O1224 La1200 2.470 . S
O1224 C1210 1.258 . S
O1225 La1201 2.503 . S
O1225 C1210 1.256 . S
O1226 La1201 2.521 . S
O1226 C1211 1.261 . S
O1227 La1201 2.628 . S
O1227 C1211 1.243 . S
O1228 La1201 2.554 . S
O1228 C1218 1.240 . S
O1229 La1200 2.482 . S
O1229 La1201 2.757 . S
O1229 C1218 1.289 . S
O1230 La1201 2.470 . S
O1230 C1219 1.258 . S
O1231 La1200 2.503 . S
O1231 C1219 1.256 . S
H1232 C1204 0.930 . S
H1233 C1205 0.930 . S
H1234 C1207 0.929 . S
H1235 C1208 0.929 . S
H1236 C1213 0.930 . S
H1237 C1214 0.930 . S
H1238 C1216 0.929 . S
H1239 C1217 0.929 . S
La1240 C1242 2.928 . S
La1240 O1260 2.521 . S
La1240 O1261 2.628 . S
La1240 O1262 2.554 . S
La1240 O1263 2.757 . S
La1240 O1264 2.470 . S
La1240 O1269 2.482 . S
La1240 O1271 2.503 . S
La1241 C1251 2.928 . S
La1241 O1263 2.482 . S
La1241 O1265 2.503 . S
La1241 O1266 2.521 . S
La1241 O1267 2.628 . S
La1241 O1268 2.554 . S
La1241 O1269 2.757 . S
La1241 O1270 2.470 . S
C1242 La1240 2.928 . S
C1242 C1243 1.503 . S
C1242 O1260 1.261 . S
C1242 O1261 1.243 . S
C1243 C1242 1.503 . S
C1243 C1244 1.394 . S
C1243 C1248 1.373 . S
C1244 C1243 1.394 . S
C1244 C1245 1.380 . S
C1244 H1272 0.930 . S
C1245 C1244 1.380 . S
C1245 C1246 1.376 . S
C1245 H1273 0.930 . S
C1246 C1245 1.376 . S
C1246 C1247 1.370 . S
C1247 C1246 1.370 . S
C1247 C1248 1.396 . S
C1247 H1274 0.929 . S
C1248 C1243 1.373 . S
C1248 C1247 1.396 . S
C1248 H1275 0.929 . S
C1249 O1262 1.240 . S
C1249 O1263 1.289 . S
C1250 O1264 1.258 . S
C1250 O1265 1.256 . S
C1251 La1241 2.928 . S
C1251 C1252 1.503 . S
C1251 O1266 1.261 . S
C1251 O1267 1.243 . S
C1252 C1251 1.503 . S
C1252 C1253 1.394 . S
C1252 C1257 1.373 . S
C1253 C1252 1.394 . S
C1253 C1254 1.380 . S
C1253 H1276 0.930 . S
C1254 C1253 1.380 . S
C1254 C1255 1.376 . S
C1254 H1277 0.930 . S
C1255 C1254 1.376 . S
C1255 C1256 1.370 . S
C1256 C1255 1.370 . S
C1256 C1257 1.396 . S
C1256 H1278 0.929 . S
C1257 C1252 1.373 . S
C1257 C1256 1.396 . S
C1257 H1279 0.929 . S
C1258 O1268 1.240 . S
C1258 O1269 1.289 . S
C1259 O1270 1.258 . S
C1259 O1271 1.256 . S
O1260 La1240 2.521 . S
O1260 C1242 1.261 . S
O1261 La1240 2.628 . S
O1261 C1242 1.243 . S
O1262 La1240 2.554 . S
O1262 C1249 1.240 . S
O1263 La1240 2.757 . S
O1263 La1241 2.482 . S
O1263 C1249 1.289 . S
O1264 La1240 2.470 . S
O1264 C1250 1.258 . S
O1265 La1241 2.503 . S
O1265 C1250 1.256 . S
O1266 La1241 2.521 . S
O1266 C1251 1.261 . S
O1267 La1241 2.628 . S
O1267 C1251 1.243 . S
O1268 La1241 2.554 . S
O1268 C1258 1.240 . S
O1269 La1240 2.482 . S
O1269 La1241 2.757 . S
O1269 C1258 1.289 . S
O1270 La1241 2.470 . S
O1270 C1259 1.258 . S
O1271 La1240 2.503 . S
O1271 C1259 1.256 . S
H1272 C1244 0.930 . S
H1273 C1245 0.930 . S
H1274 C1247 0.929 . S
H1275 C1248 0.929 . S
H1276 C1253 0.930 . S
H1277 C1254 0.930 . S
H1278 C1256 0.929 . S
H1279 C1257 0.929 . S
La1280 C1282 2.928 . S
La1280 O1300 2.521 . S
La1280 O1301 2.628 . S
La1280 O1302 2.554 . S
La1280 O1303 2.757 . S
La1280 O1304 2.470 . S
La1280 O1309 2.482 . S
La1280 O1311 2.503 . S
La1281 C1291 2.928 . S
La1281 O1303 2.482 . S
La1281 O1305 2.503 . S
La1281 O1306 2.521 . S
La1281 O1307 2.628 . S
La1281 O1308 2.554 . S
La1281 O1309 2.757 . S
La1281 O1310 2.470 . S
C1282 La1280 2.928 . S
C1282 C1283 1.503 . S
C1282 O1300 1.261 . S
C1282 O1301 1.243 . S
C1283 C1282 1.503 . S
C1283 C1284 1.394 . S
C1283 C1288 1.373 . S
C1284 C1283 1.394 . S
C1284 C1285 1.380 . S
C1284 H1312 0.930 . S
C1285 C1284 1.380 . S
C1285 C1286 1.376 . S
C1285 H1313 0.930 . S
C1286 C1285 1.376 . S
C1286 C1287 1.370 . S
C1287 C1286 1.370 . S
C1287 C1288 1.396 . S
C1287 H1314 0.929 . S
C1288 C1283 1.373 . S
C1288 C1287 1.396 . S
C1288 H1315 0.929 . S
C1289 O1302 1.240 . S
C1289 O1303 1.289 . S
C1290 O1304 1.258 . S
C1290 O1305 1.256 . S
C1291 La1281 2.928 . S
C1291 C1292 1.503 . S
C1291 O1306 1.261 . S
C1291 O1307 1.243 . S
C1292 C1291 1.503 . S
C1292 C1293 1.394 . S
C1292 C1297 1.373 . S
C1293 C1292 1.394 . S
C1293 C1294 1.380 . S
C1293 H1316 0.930 . S
C1294 C1293 1.380 . S
C1294 C1295 1.376 . S
C1294 H1317 0.930 . S
C1295 C1294 1.376 . S
C1295 C1296 1.370 . S
C1296 C1295 1.370 . S
C1296 C1297 1.396 . S
C1296 H1318 0.929 . S
C1297 C1292 1.373 . S
C1297 C1296 1.396 . S
C1297 H1319 0.929 . S
C1298 O1308 1.240 . S
C1298 O1309 1.289 . S
C1299 O1310 1.258 . S
C1299 O1311 1.256 . S
O1300 La1280 2.521 . S
O1300 C1282 1.261 . S
O1301 La1280 2.628 . S
O1301 C1282 1.243 . S
O1302 La1280 2.554 . S
O1302 C1289 1.240 . S
O1303 La1280 2.757 . S
O1303 La1281 2.482 . S
O1303 C1289 1.289 . S
O1304 La1280 2.470 . S
O1304 C1290 1.258 . S
O1305 La1281 2.503 . S
O1305 C1290 1.256 . S
O1306 La1281 2.521 . S
O1306 C1291 1.261 . S
O1307 La1281 2.628 . S
O1307 C1291 1.243 . S
O1308 La1281 2.554 . S
O1308 C1298 1.240 . S
O1309 La1280 2.482 . S
O1309 La1281 2.757 . S
O1309 C1298 1.289 . S
O1310 La1281 2.470 . S
O1310 C1299 1.258 . S
O1311 La1280 2.503 . S
O1311 C1299 1.256 . S
H1312 C1284 0.930 . S
H1313 C1285 0.930 . S
H1314 C1287 0.929 . S
H1315 C1288 0.929 . S
H1316 C1293 0.930 . S
H1317 C1294 0.930 . S
H1318 C1296 0.929 . S
H1319 C1297 0.929 . S
La1320 C1322 2.928 . S
La1320 O1340 2.521 . S
La1320 O1341 2.628 . S
La1320 O1342 2.554 . S
La1320 O1343 2.757 . S
La1320 O1344 2.470 . S
La1320 O1349 2.482 . S
La1320 O1351 2.503 . S
La1321 C1331 2.928 . S
La1321 O1343 2.482 . S
La1321 O1345 2.503 . S
La1321 O1346 2.521 . S
La1321 O1347 2.628 . S
La1321 O1348 2.554 . S
La1321 O1349 2.757 . S
La1321 O1350 2.470 . S
C1322 La1320 2.928 . S
C1322 C1323 1.503 . S
C1322 O1340 1.261 . S
C1322 O1341 1.243 . S
C1323 C1322 1.503 . S
C1323 C1324 1.394 . S
C1323 C1328 1.373 . S
C1324 C1323 1.394 . S
C1324 C1325 1.380 . S
C1324 H1352 0.930 . S
C1325 C1324 1.380 . S
C1325 C1326 1.376 . S
C1325 H1353 0.930 . S
C1326 C1325 1.376 . S
C1326 C1327 1.370 . S
C1327 C1326 1.370 . S
C1327 C1328 1.396 . S
C1327 H1354 0.929 . S
C1328 C1323 1.373 . S
C1328 C1327 1.396 . S
C1328 H1355 0.929 . S
C1329 O1342 1.240 . S
C1329 O1343 1.289 . S
C1330 O1344 1.258 . S
C1330 O1345 1.256 . S
C1331 La1321 2.928 . S
C1331 C1332 1.503 . S
C1331 O1346 1.261 . S
C1331 O1347 1.243 . S
C1332 C1331 1.503 . S
C1332 C1333 1.394 . S
C1332 C1337 1.373 . S
C1333 C1332 1.394 . S
C1333 C1334 1.380 . S
C1333 H1356 0.930 . S
C1334 C1333 1.380 . S
C1334 C1335 1.376 . S
C1334 H1357 0.930 . S
C1335 C1334 1.376 . S
C1335 C1336 1.370 . S
C1336 C1335 1.370 . S
C1336 C1337 1.396 . S
C1336 H1358 0.929 . S
C1337 C1332 1.373 . S
C1337 C1336 1.396 . S
C1337 H1359 0.929 . S
C1338 O1348 1.240 . S
C1338 O1349 1.289 . S
C1339 O1350 1.258 . S
C1339 O1351 1.256 . S
O1340 La1320 2.521 . S
O1340 C1322 1.261 . S
O1341 La1320 2.628 . S
O1341 C1322 1.243 . S
O1342 La1320 2.554 . S
O1342 C1329 1.240 . S
O1343 La1320 2.757 . S
O1343 La1321 2.482 . S
O1343 C1329 1.289 . S
O1344 La1320 2.470 . S
O1344 C1330 1.258 . S
O1345 La1321 2.503 . S
O1345 C1330 1.256 . S
O1346 La1321 2.521 . S
O1346 C1331 1.261 . S
O1347 La1321 2.628 . S
O1347 C1331 1.243 . S
O1348 La1321 2.554 . S
O1348 C1338 1.240 . S
O1349 La1320 2.482 . S
O1349 La1321 2.757 . S
O1349 C1338 1.289 . S
O1350 La1321 2.470 . S
O1350 C1339 1.258 . S
O1351 La1320 2.503 . S
O1351 C1339 1.256 . S
H1352 C1324 0.930 . S
H1353 C1325 0.930 . S
H1354 C1327 0.929 . S
H1355 C1328 0.929 . S
H1356 C1333 0.930 . S
H1357 C1334 0.930 . S
H1358 C1336 0.929 . S
H1359 C1337 0.929 . S
La1360 C1362 2.928 . S
La1360 O1380 2.521 . S
La1360 O1381 2.628 . S
La1360 O1382 2.554 . S
La1360 O1383 2.757 . S
La1360 O1384 2.470 . S
La1360 O1389 2.482 . S
La1360 O1391 2.503 . S
La1361 C1371 2.928 . S
La1361 O1383 2.482 . S
La1361 O1385 2.503 . S
La1361 O1386 2.521 . S
La1361 O1387 2.628 . S
La1361 O1388 2.554 . S
La1361 O1389 2.757 . S
La1361 O1390 2.470 . S
C1362 La1360 2.928 . S
C1362 C1363 1.503 . S
C1362 O1380 1.261 . S
C1362 O1381 1.243 . S
C1363 C1362 1.503 . S
C1363 C1364 1.394 . S
C1363 C1368 1.373 . S
C1364 C1363 1.394 . S
C1364 C1365 1.380 . S
C1364 H1392 0.930 . S
C1365 C1364 1.380 . S
C1365 C1366 1.376 . S
C1365 H1393 0.930 . S
C1366 C1365 1.376 . S
C1366 C1367 1.370 . S
C1367 C1366 1.370 . S
C1367 C1368 1.396 . S
C1367 H1394 0.929 . S
C1368 C1363 1.373 . S
C1368 C1367 1.396 . S
C1368 H1395 0.929 . S
C1369 O1382 1.240 . S
C1369 O1383 1.289 . S
C1370 O1384 1.258 . S
C1370 O1385 1.256 . S
C1371 La1361 2.928 . S
C1371 C1372 1.503 . S
C1371 O1386 1.261 . S
C1371 O1387 1.243 . S
C1372 C1371 1.503 . S
C1372 C1373 1.394 . S
C1372 C1377 1.373 . S
C1373 C1372 1.394 . S
C1373 C1374 1.380 . S
C1373 H1396 0.930 . S
C1374 C1373 1.380 . S
C1374 C1375 1.376 . S
C1374 H1397 0.930 . S
C1375 C1374 1.376 . S
C1375 C1376 1.370 . S
C1376 C1375 1.370 . S
C1376 C1377 1.396 . S
C1376 H1398 0.929 . S
C1377 C1372 1.373 . S
C1377 C1376 1.396 . S
C1377 H1399 0.929 . S
C1378 O1388 1.240 . S
C1378 O1389 1.289 . S
C1379 O1390 1.258 . S
C1379 O1391 1.256 . S
O1380 La1360 2.521 . S
O1380 C1362 1.261 . S
O1381 La1360 2.628 . S
O1381 C1362 1.243 . S
O1382 La1360 2.554 . S
O1382 C1369 1.240 . S
O1383 La1360 2.757 . S
O1383 La1361 2.482 . S
O1383 C1369 1.289 . S
O1384 La1360 2.470 . S
O1384 C1370 1.258 . S
O1385 La1361 2.503 . S
O1385 C1370 1.256 . S
O1386 La1361 2.521 . S
O1386 C1371 1.261 . S
O1387 La1361 2.628 . S
O1387 C1371 1.243 . S
O1388 La1361 2.554 . S
O1388 C1378 1.240 . S
O1389 La1360 2.482 . S
O1389 La1361 2.757 . S
O1389 C1378 1.289 . S
O1390 La1361 2.470 . S
O1390 C1379 1.258 . S
O1391 La1360 2.503 . S
O1391 C1379 1.256 . S
H1392 C1364 0.930 . S
H1393 C1365 0.930 . S
H1394 C1367 0.929 . S
H1395 C1368 0.929 . S
H1396 C1373 0.930 . S
H1397 C1374 0.930 . S
H1398 C1376 0.929 . S
H1399 C1377 0.929 . S
La1400 C1402 2.928 . S
La1400 O1420 2.521 . S
La1400 O1421 2.628 . S
La1400 O1422 2.554 . S
La1400 O1423 2.757 . S
La1400 O1424 2.470 . S
La1400 O1429 2.482 . S
La1400 O1431 2.503 . S
La1401 C1411 2.928 . S
La1401 O1423 2.482 . S
La1401 O1425 2.503 . S
La1401 O1426 2.521 . S
La1401 O1427 2.628 . S
La1401 O1428 2.554 . S
La1401 O1429 2.757 . S
La1401 O1430 2.470 . S
C1402 La1400 2.928 . S
C1402 C1403 1.503 . S
C1402 O1420 1.261 . S
C1402 O1421 1.243 . S
C1403 C1402 1.503 . S
C1403 C1404 1.394 . S
C1403 C1408 1.373 . S
C1404 C1403 1.394 . S
C1404 C1405 1.380 . S
C1404 H1432 0.930 . S
C1405 C1404 1.380 . S
C1405 C1406 1.376 . S
C1405 H1433 0.930 . S
C1406 C1405 1.376 . S
C1406 C1407 1.370 . S
C1407 C1406 1.370 . S
C1407 C1408 1.396 . S
C1407 H1434 0.929 . S
C1408 C1403 1.373 . S
C1408 C1407 1.396 . S
C1408 H1435 0.929 . S
C1409 O1422 1.240 . S
C1409 O1423 1.289 . S
C1410 O1424 1.258 . S
C1410 O1425 1.256 . S
C1411 La1401 2.928 . S
C1411 C1412 1.503 . S
C1411 O1426 1.261 . S
C1411 O1427 1.243 . S
C1412 C1411 1.503 . S
C1412 C1413 1.394 . S
C1412 C1417 1.373 . S
C1413 C1412 1.394 . S
C1413 C1414 1.380 . S
C1413 H1436 0.930 . S
C1414 C1413 1.380 . S
C1414 C1415 1.376 . S
C1414 H1437 0.930 . S
C1415 C1414 1.376 . S
C1415 C1416 1.370 . S
C1416 C1415 1.370 . S
C1416 C1417 1.396 . S
C1416 H1438 0.929 . S
C1417 C1412 1.373 . S
C1417 C1416 1.396 . S
C1417 H1439 0.929 . S
C1418 O1428 1.240 . S
C1418 O1429 1.289 . S
C1419 O1430 1.258 . S
C1419 O1431 1.256 . S
O1420 La1400 2.521 . S
O1420 C1402 1.261 . S
O1421 La1400 2.628 . S
O1421 C1402 1.243 . S
O1422 La1400 2.554 . S
O1422 C1409 1.240 . S
O1423 La1400 2.757 . S
O1423 La1401 2.482 . S
O1423 C1409 1.289 . S
O1424 La1400 2.470 . S
O1424 C1410 1.258 . S
O1425 La1401 2.503 . S
O1425 C1410 1.256 . S
O1426 La1401 2.521 . S
O1426 C1411 1.261 . S
O1427 La1401 2.628 . S
O1427 C1411 1.243 . S
O1428 La1401 2.554 . S
O1428 C1418 1.240 . S
O1429 La1400 2.482 . S
O1429 La1401 2.757 . S
O1429 C1418 1.289 . S
O1430 La1401 2.470 . S
O1430 C1419 1.258 . S
O1431 La1400 2.503 . S
O1431 C1419 1.256 . S
H1432 C1404 0.930 . S
H1433 C1405 0.930 . S
H1434 C1407 0.929 . S
H1435 C1408 0.929 . S
H1436 C1413 0.930 . S
H1437 C1414 0.930 . S
H1438 C1416 0.929 . S
H1439 C1417 0.929 . S
C1440 C1441 1.387 . S
C1440 H1444 0.950 . S
C1440 C1449 1.390 1_556 S
C1441 C1440 1.387 . S
C1441 C1443 1.387 . S
H1442 C1449 0.950 . S
C1443 C1441 1.387 . S
C1443 C1445 1.390 1_556 S
C1443 H1447 0.950 . S
H1444 C1440 0.950 . S
C1445 C1443 1.390 1_554 S
C1445 C1446 1.387 . S
C1445 H1448 0.950 . S
C1446 C1445 1.387 . S
C1446 C1449 1.387 . S
H1447 C1443 0.950 . S
H1448 C1445 0.950 . S
C1449 C1440 1.390 1_554 S
C1449 H1442 0.950 . S
C1449 C1446 1.387 . S
C1450 C1451 1.387 . S
C1450 H1454 0.950 . S
C1450 C1459 1.390 1_556 S
C1451 C1450 1.387 . S
C1451 C1453 1.387 . S
H1452 C1459 0.950 . S
C1453 C1451 1.387 . S
C1453 C1455 1.390 1_556 S
C1453 H1457 0.950 . S
H1454 C1450 0.950 . S
C1455 C1453 1.390 1_554 S
C1455 C1456 1.387 . S
C1455 H1458 0.950 . S
C1456 C1455 1.387 . S
C1456 C1459 1.387 . S
H1457 C1453 0.950 . S
H1458 C1455 0.950 . S
C1459 C1450 1.390 1_554 S
C1459 H1452 0.950 . S
C1459 C1456 1.387 . S
C1460 C1461 1.387 . S
C1460 H1464 0.950 . S
C1460 C1469 1.390 1_554 S
C1461 C1460 1.387 . S
C1461 C1463 1.403 . S
H1462 C1469 0.950 . S
C1463 C1461 1.403 . S
C1463 C1465 1.366 1_554 S
C1463 H1467 0.959 . S
H1464 C1460 0.950 . S
C1465 C1463 1.366 1_556 S
C1465 C1466 1.387 . S
C1465 H1468 0.950 . S
C1466 C1465 1.387 . S
C1466 C1469 1.387 . S
H1467 C1463 0.959 . S
H1468 C1465 0.950 . S
C1469 C1460 1.390 1_556 S
C1469 H1462 0.950 . S
C1469 C1466 1.387 . S
C1470 C1471 1.387 . S
C1470 H1474 0.950 . S
C1470 C1479 1.390 . S
C1471 C1470 1.387 . S
C1471 C1473 1.387 . S
H1472 C1479 0.950 . S
C1473 C1471 1.387 . S
C1473 C1475 1.390 . S
C1473 H1477 0.950 . S
H1474 C1470 0.950 . S
C1475 C1473 1.390 . S
C1475 C1476 1.387 . S
C1475 H1478 0.950 . S
C1476 C1475 1.387 . S
C1476 C1479 1.387 . S
H1477 C1473 0.950 . S
H1478 C1475 0.950 . S
C1479 C1470 1.390 . S
C1479 H1472 0.950 . S
C1479 C1476 1.387 . S
C1480 C1481 1.387 . S
C1480 H1484 0.950 . S
C1480 C1489 1.390 . S
C1481 C1480 1.387 . S
C1481 C1483 1.387 . S
H1482 C1489 0.950 . S
C1483 C1481 1.387 . S
C1483 C1485 1.390 . S
C1483 H1487 0.950 . S
H1484 C1480 0.950 . S
C1485 C1483 1.390 . S
C1485 C1486 1.387 . S
C1485 H1488 0.950 . S
C1486 C1485 1.387 . S
C1486 C1489 1.387 . S
H1487 C1483 0.950 . S
H1488 C1485 0.950 . S
C1489 C1480 1.390 . S
C1489 H1482 0.950 . S
C1489 C1486 1.387 . S
C1490 C1491 1.387 . S
C1490 H1494 0.950 . S
C1490 C1499 1.390 . S
C1491 C1490 1.387 . S
C1491 C1493 1.387 . S
H1492 C1499 0.950 . S
C1493 C1491 1.387 . S
C1493 C1495 1.390 . S
C1493 H1497 0.950 . S
H1494 C1490 0.950 . S
C1495 C1493 1.390 . S
C1495 C1496 1.387 . S
C1495 H1498 0.950 . S
C1496 C1495 1.387 . S
C1496 C1499 1.387 . S
H1497 C1493 0.950 . S
H1498 C1495 0.950 . S
C1499 C1490 1.390 . S
C1499 H1492 0.950 . S
C1499 C1496 1.387 . S
C1500 C1501 1.387 . S
C1500 H1504 0.950 . S
C1500 C1509 1.390 . S
C1501 C1500 1.387 . S
C1501 C1503 1.387 . S
H1502 C1509 0.950 . S
C1503 C1501 1.387 . S
C1503 C1505 1.390 . S
C1503 H1507 0.950 . S
H1504 C1500 0.950 . S
C1505 C1503 1.390 . S
C1505 C1506 1.387 . S
C1505 H1508 0.950 . S
C1506 C1505 1.387 . S
C1506 C1509 1.387 . S
H1507 C1503 0.950 . S
H1508 C1505 0.950 . S
C1509 C1500 1.390 . S
C1509 H1502 0.950 . S
C1509 C1506 1.387 . S
C1510 C1511 1.387 . S
C1510 H1514 0.950 . S
C1510 C1519 1.390 . S
C1511 C1510 1.387 . S
C1511 C1513 1.387 . S
H1512 C1519 0.950 . S
C1513 C1511 1.387 . S
C1513 C1515 1.390 . S
C1513 H1517 0.950 . S
H1514 C1510 0.950 . S
C1515 C1513 1.390 . S
C1515 C1516 1.387 . S
C1515 H1518 0.950 . S
C1516 C1515 1.387 . S
C1516 C1519 1.387 . S
H1517 C1513 0.950 . S
H1518 C1515 0.950 . S
C1519 C1510 1.390 . S
C1519 H1512 0.950 . S
C1519 C1516 1.387 . S
C1520 C1521 1.387 . S
C1520 H1524 0.950 . S
C1520 C1529 1.390 . S
C1521 C1520 1.387 . S
C1521 C1523 1.387 . S
H1522 C1529 0.950 . S
C1523 C1521 1.387 . S
C1523 C1525 1.390 . S
C1523 H1527 0.950 . S
H1524 C1520 0.950 . S
C1525 C1523 1.390 . S
C1525 C1526 1.387 . S
C1525 H1528 0.950 . S
C1526 C1525 1.387 . S
C1526 C1529 1.387 . S
H1527 C1523 0.950 . S
H1528 C1525 0.950 . S
C1529 C1520 1.390 . S
C1529 H1522 0.950 . S
C1529 C1526 1.387 . S
C1530 C1531 1.387 . S
C1530 H1534 0.950 . S
C1530 C1539 1.390 . S
C1531 C1530 1.387 . S
C1531 C1533 1.387 . S
H1532 C1539 0.950 . S
C1533 C1531 1.387 . S
C1533 C1535 1.390 . S
C1533 H1537 0.950 . S
H1534 C1530 0.950 . S
C1535 C1533 1.390 . S
C1535 C1536 1.387 . S
C1535 H1538 0.950 . S
C1536 C1535 1.387 . S
C1536 C1539 1.387 . S
H1537 C1533 0.950 . S
H1538 C1535 0.950 . S
C1539 C1530 1.390 . S
C1539 H1532 0.950 . S
C1539 C1536 1.387 . S
C1540 C1541 1.387 . S
C1540 H1544 0.950 . S
C1540 C1549 1.390 . S
C1541 C1540 1.387 . S
C1541 C1543 1.387 . S
H1542 C1549 0.950 . S
C1543 C1541 1.387 . S
C1543 C1545 1.390 . S
C1543 H1547 0.950 . S
H1544 C1540 0.950 . S
C1545 C1543 1.390 . S
C1545 C1546 1.387 . S
C1545 H1548 0.950 . S
C1546 C1545 1.387 . S
C1546 C1549 1.387 . S
H1547 C1543 0.950 . S
H1548 C1545 0.950 . S
C1549 C1540 1.390 . S
C1549 H1542 0.950 . S
C1549 C1546 1.387 . S
C1550 C1551 1.387 . S
C1550 H1554 0.950 . S
C1550 C1559 1.390 . S
C1551 C1550 1.387 . S
C1551 C1553 1.387 . S
H1552 C1559 0.950 . S
C1553 C1551 1.387 . S
C1553 C1555 1.390 . S
C1553 H1557 0.950 . S
H1554 C1550 0.950 . S
C1555 C1553 1.390 . S
C1555 C1556 1.387 . S
C1555 H1558 0.950 . S
C1556 C1555 1.387 . S
C1556 C1559 1.387 . S
H1557 C1553 0.950 . S
H1558 C1555 0.950 . S
C1559 C1550 1.390 . S
C1559 H1552 0.950 . S
C1559 C1556 1.387 . S
C1560 C1561 1.387 . S
C1560 H1564 0.950 . S
C1560 C1569 1.390 . S
C1561 C1560 1.387 . S
C1561 C1563 1.387 . S
H1562 C1569 0.950 . S
C1563 C1561 1.387 . S
C1563 C1565 1.390 . S
C1563 H1567 0.950 . S
H1564 C1560 0.950 . S
C1565 C1563 1.390 . S
C1565 C1566 1.387 . S
C1565 H1568 0.950 . S
C1566 C1565 1.387 . S
C1566 C1569 1.387 . S
H1567 C1563 0.950 . S
H1568 C1565 0.950 . S
C1569 C1560 1.390 . S
C1569 H1562 0.950 . S
C1569 C1566 1.387 . S
C1570 C1571 1.387 . S
C1570 H1574 0.950 . S
C1570 C1579 1.390 1_565 S
C1571 C1570 1.387 . S
C1571 C1573 1.387 . S
H1572 C1579 0.950 . S
C1573 C1571 1.387 . S
C1573 C1575 1.390 1_565 S
C1573 H1577 0.950 . S
H1574 C1570 0.950 . S
C1575 C1573 1.390 1_545 S
C1575 C1576 1.387 . S
C1575 H1578 0.950 . S
C1576 C1575 1.387 . S
C1576 C1579 1.387 . S
H1577 C1573 0.950 . S
H1578 C1575 0.950 . S
C1579 C1570 1.390 1_545 S
C1579 H1572 0.950 . S
C1579 C1576 1.387 . S
C1580 C1581 1.387 . S
C1580 H1584 0.950 . S
C1580 C1589 1.390 . S
C1581 C1580 1.387 . S
C1581 C1583 1.387 1_655 S
H1582 C1589 0.950 . S
C1583 C1581 1.387 1_455 S
C1583 C1585 1.390 . S
C1583 H1587 0.950 . S
H1584 C1580 0.950 . S
C1585 C1583 1.390 . S
C1585 C1586 1.387 . S
C1585 H1588 0.950 . S
C1586 C1585 1.387 . S
C1586 C1589 1.387 1_455 S
H1587 C1583 0.950 . S
H1588 C1585 0.950 . S
C1589 C1580 1.390 . S
C1589 H1582 0.950 . S
C1589 C1586 1.387 1_655 S
C1590 C1591 1.387 . S
C1590 H1594 0.950 . S
C1590 C1599 1.390 . S
C1591 C1590 1.387 . S
C1591 C1593 1.387 . S
H1592 C1599 0.950 . S
C1593 C1591 1.387 . S
C1593 C1595 1.390 . S
C1593 H1597 0.950 . S
H1594 C1590 0.950 . S
C1595 C1593 1.390 . S
C1595 C1596 1.387 . S
C1595 H1598 0.950 . S
C1596 C1595 1.387 . S
C1596 C1599 1.387 . S
H1597 C1593 0.950 . S
H1598 C1595 0.950 . S
C1599 C1590 1.390 . S
C1599 H1592 0.950 . S
C1599 C1596 1.387 . S
C1600 C1601 1.387 . S
C1600 H1604 0.950 . S
C1600 C1609 1.390 1_545 S
C1601 C1600 1.387 . S
C1601 C1603 1.387 . S
H1602 C1609 0.950 . S
C1603 C1601 1.387 . S
C1603 C1605 1.390 1_545 S
C1603 H1607 0.950 . S
H1604 C1600 0.950 . S
C1605 C1603 1.390 1_565 S
C1605 C1606 1.387 . S
C1605 H1608 0.950 . S
C1606 C1605 1.387 . S
C1606 C1609 1.387 . S
H1607 C1603 0.950 . S
H1608 C1605 0.950 . S
C1609 C1600 1.390 1_565 S
C1609 H1602 0.950 . S
C1609 C1606 1.387 . S
C1610 C1611 1.387 . S
C1610 H1614 0.950 . S
C1610 C1619 1.390 . S
C1611 C1610 1.387 . S
C1611 C1613 1.387 1_455 S
H1612 C1619 0.950 . S
C1613 C1611 1.387 1_655 S
C1613 C1615 1.390 . S
C1613 H1617 0.950 . S
H1614 C1610 0.950 . S
C1615 C1613 1.390 . S
C1615 C1616 1.387 . S
C1615 H1618 0.950 . S
C1616 C1615 1.387 . S
C1616 C1619 1.387 1_655 S
H1617 C1613 0.950 . S
H1618 C1615 0.950 . S
C1619 C1610 1.390 . S
C1619 H1612 0.950 . S
C1619 C1616 1.387 1_455 S
C1620 C1621 1.387 . S
C1620 H1624 0.950 . S
C1620 C1629 1.393 . S
C1621 C1620 1.387 . S
C1621 C1623 1.387 1_455 S
H1622 C1629 0.953 . S
C1623 C1621 1.387 1_655 S
C1623 C1625 1.391 . S
C1623 H1627 0.953 . S
H1624 C1620 0.950 . S
C1625 C1623 1.391 . S
C1625 C1626 1.387 . S
C1625 H1628 0.950 . S
C1626 C1625 1.387 . S
C1626 C1629 1.387 1_655 S
H1627 C1623 0.953 . S
H1628 C1625 0.950 . S
C1629 C1620 1.393 . S
C1629 H1622 0.953 . S
C1629 C1626 1.387 1_455 S
C1630 C1631 1.387 . S
C1630 H1634 0.950 . S
C1630 C1639 1.390 . S
C1631 C1630 1.387 . S
C1631 C1633 1.387 . S
H1632 C1639 0.950 . S
C1633 C1631 1.387 . S
C1633 C1635 1.390 . S
C1633 H1637 0.950 . S
H1634 C1630 0.950 . S
C1635 C1633 1.390 . S
C1635 C1636 1.387 . S
C1635 H1638 0.950 . S
C1636 C1635 1.387 . S
C1636 C1639 1.387 . S
H1637 C1633 0.950 . S
H1638 C1635 0.950 . S
C1639 C1630 1.390 . S
C1639 H1632 0.950 . S
C1639 C1636 1.387 . S
C1640 C1641 1.387 . S
C1640 H1644 0.950 . S
C1640 C1649 1.390 1_565 S
C1641 C1640 1.387 . S
C1641 C1643 1.387 . S
H1642 C1649 0.950 . S
C1643 C1641 1.387 . S
C1643 C1645 1.390 1_565 S
C1643 H1647 0.950 . S
H1644 C1640 0.950 . S
C1645 C1643 1.390 1_545 S
C1645 C1646 1.387 . S
C1645 H1648 0.950 . S
C1646 C1645 1.387 . S
C1646 C1649 1.387 . S
H1647 C1643 0.950 . S
H1648 C1645 0.950 . S
C1649 C1640 1.390 1_545 S
C1649 H1642 0.950 . S
C1649 C1646 1.387 . S
C1650 C1651 1.387 1_455 S
C1650 H1654 0.950 . S
C1650 C1659 1.390 . S
C1651 C1650 1.387 1_655 S
C1651 C1653 1.387 . S
H1652 C1659 0.950 . S
C1653 C1651 1.387 . S
C1653 C1655 1.390 . S
C1653 H1657 0.950 . S
H1654 C1650 0.950 . S
C1655 C1653 1.390 . S
C1655 C1656 1.387 1_655 S
C1655 H1658 0.950 . S
C1656 C1655 1.387 1_455 S
C1656 C1659 1.387 . S
H1657 C1653 0.950 . S
H1658 C1655 0.950 . S
C1659 C1650 1.390 . S
C1659 H1652 0.950 . S
C1659 C1656 1.387 . S
C1660 C1661 1.387 . S
C1660 H1664 0.950 . S
C1660 C1669 1.390 . S
C1661 C1660 1.387 . S
C1661 C1663 1.387 . S
H1662 C1669 0.950 . S
C1663 C1661 1.387 . S
C1663 C1665 1.390 . S
C1663 H1667 0.950 . S
H1664 C1660 0.950 . S
C1665 C1663 1.390 . S
C1665 C1666 1.387 . S
C1665 H1668 0.950 . S
C1666 C1665 1.387 . S
C1666 C1669 1.387 . S
H1667 C1663 0.950 . S
H1668 C1665 0.950 . S
C1669 C1660 1.390 . S
C1669 H1662 0.950 . S
C1669 C1666 1.387 . S
C1670 C1671 1.387 . S
C1670 H1674 0.950 . S
C1670 C1679 1.390 1_545 S
C1671 C1670 1.387 . S
C1671 C1673 1.387 . S
H1672 C1679 0.950 . S
C1673 C1671 1.387 . S
C1673 C1675 1.390 1_545 S
C1673 H1677 0.950 . S
H1674 C1670 0.950 . S
C1675 C1673 1.390 1_565 S
C1675 C1676 1.387 . S
C1675 H1678 0.950 . S
C1676 C1675 1.387 . S
C1676 C1679 1.387 . S
H1677 C1673 0.950 . S
H1678 C1675 0.950 . S
C1679 C1670 1.390 1_565 S
C1679 H1672 0.950 . S
C1679 C1676 1.387 . S
C1680 C1681 1.387 . S
C1680 H1684 0.950 . S
C1680 C1689 1.390 . S
C1681 C1680 1.387 . S
C1681 C1683 1.387 . S
H1682 C1689 0.950 . S
C1683 C1681 1.387 . S
C1683 C1685 1.390 . S
C1683 H1687 0.950 . S
H1684 C1680 0.950 . S
C1685 C1683 1.390 . S
C1685 C1686 1.387 . S
C1685 H1688 0.950 . S
C1686 C1685 1.387 . S
C1686 C1689 1.387 . S
H1687 C1683 0.950 . S
H1688 C1685 0.950 . S
C1689 C1680 1.390 . S
C1689 H1682 0.950 . S
C1689 C1686 1.387 . S
C1690 C1691 1.387 . S
C1690 H1694 0.950 . S
C1690 C1699 1.390 . S
C1691 C1690 1.387 . S
C1691 C1693 1.387 . S
H1692 C1699 0.950 . S
C1693 C1691 1.387 . S
C1693 C1695 1.390 . S
C1693 H1697 0.950 . S
H1694 C1690 0.950 . S
C1695 C1693 1.390 . S
C1695 C1696 1.387 . S
C1695 H1698 0.950 . S
C1696 C1695 1.387 . S
C1696 C1699 1.387 . S
H1697 C1693 0.950 . S
H1698 C1695 0.950 . S
C1699 C1690 1.390 . S
C1699 H1692 0.950 . S
C1699 C1696 1.387 . S
C1700 C1701 1.387 . S
C1700 H1704 0.950 . S
C1700 C1709 1.390 . S
C1701 C1700 1.387 . S
C1701 C1703 1.387 . S
H1702 C1709 0.950 . S
C1703 C1701 1.387 . S
C1703 C1705 1.390 . S
C1703 H1707 0.950 . S
H1704 C1700 0.950 . S
C1705 C1703 1.390 . S
C1705 C1706 1.387 . S
C1705 H1708 0.950 . S
C1706 C1705 1.387 . S
C1706 C1709 1.387 . S
H1707 C1703 0.950 . S
H1708 C1705 0.950 . S
C1709 C1700 1.390 . S
C1709 H1702 0.950 . S
C1709 C1706 1.387 . S
C1710 C1711 1.387 . S
C1710 H1714 0.950 . S
C1710 C1719 1.390 . S
C1711 C1710 1.387 . S
C1711 C1713 1.387 . S
H1712 C1719 0.950 . S
C1713 C1711 1.387 . S
C1713 C1715 1.390 . S
C1713 H1717 0.950 . S
H1714 C1710 0.950 . S
C1715 C1713 1.390 . S
C1715 C1716 1.387 . S
C1715 H1718 0.950 . S
C1716 C1715 1.387 . S
C1716 C1719 1.387 . S
H1717 C1713 0.950 . S
H1718 C1715 0.950 . S
C1719 C1710 1.390 . S
C1719 H1712 0.950 . S
C1719 C1716 1.387 . S
C1720 C1721 1.387 . S
C1720 H1724 0.950 . S
C1720 C1729 1.390 . S
C1721 C1720 1.387 . S
C1721 C1723 1.387 . S
H1722 C1729 0.950 . S
C1723 C1721 1.387 . S
C1723 C1725 1.390 . S
C1723 H1727 0.950 . S
H1724 C1720 0.950 . S
C1725 C1723 1.390 . S
C1725 C1726 1.387 . S
C1725 H1728 0.950 . S
C1726 C1725 1.387 . S
C1726 C1729 1.387 . S
H1727 C1723 0.950 . S
H1728 C1725 0.950 . S
C1729 C1720 1.390 . S
C1729 H1722 0.950 . S
C1729 C1726 1.387 . S
C1730 C1731 1.387 . S
C1730 H1734 0.950 . S
C1730 C1739 1.390 . S
C1731 C1730 1.387 . S
C1731 C1733 1.387 . S
H1732 C1739 0.950 . S
C1733 C1731 1.387 . S
C1733 C1735 1.390 . S
C1733 H1737 0.950 . S
H1734 C1730 0.950 . S
C1735 C1733 1.390 . S
C1735 C1736 1.387 . S
C1735 H1738 0.950 . S
C1736 C1735 1.387 . S
C1736 C1739 1.387 . S
H1737 C1733 0.950 . S
H1738 C1735 0.950 . S
C1739 C1730 1.390 . S
C1739 H1732 0.950 . S
C1739 C1736 1.387 . S
C1740 C1741 1.387 . S
C1740 H1744 0.950 . S
C1740 C1749 1.390 . S
C1741 C1740 1.387 . S
C1741 C1743 1.387 . S
H1742 C1749 0.950 . S
C1743 C1741 1.387 . S
C1743 C1745 1.390 . S
C1743 H1747 0.950 . S
H1744 C1740 0.950 . S
C1745 C1743 1.390 . S
C1745 C1746 1.387 . S
C1745 H1748 0.950 . S
C1746 C1745 1.387 . S
C1746 C1749 1.387 . S
H1747 C1743 0.950 . S
H1748 C1745 0.950 . S
C1749 C1740 1.390 . S
C1749 H1742 0.950 . S
C1749 C1746 1.387 . S
C1750 C1751 1.387 . S
C1750 H1754 0.950 . S
C1750 C1759 1.390 . S
C1751 C1750 1.387 . S
C1751 C1753 1.387 . S
H1752 C1759 0.950 . S
C1753 C1751 1.387 . S
C1753 C1755 1.390 . S
C1753 H1757 0.950 . S
H1754 C1750 0.950 . S
C1755 C1753 1.390 . S
C1755 C1756 1.387 . S
C1755 H1758 0.950 . S
C1756 C1755 1.387 . S
C1756 C1759 1.387 . S
H1757 C1753 0.950 . S
H1758 C1755 0.950 . S
C1759 C1750 1.390 . S
C1759 H1752 0.950 . S
C1759 C1756 1.387 . S
C1760 C1761 1.387 . S
C1760 H1764 0.950 . S
C1760 C1769 1.390 . S
C1761 C1760 1.387 . S
C1761 C1763 1.387 . S
H1762 C1769 0.950 . S
C1763 C1761 1.387 . S
C1763 C1765 1.390 . S
C1763 H1767 0.950 . S
H1764 C1760 0.950 . S
C1765 C1763 1.390 . S
C1765 C1766 1.387 . S
C1765 H1768 0.950 . S
C1766 C1765 1.387 . S
C1766 C1769 1.387 . S
H1767 C1763 0.950 . S
H1768 C1765 0.950 . S
C1769 C1760 1.390 . S
C1769 H1762 0.950 . S
C1769 C1766 1.387 . S
C1770 C1771 1.387 . S
C1770 H1774 0.950 . S
C1770 C1779 1.390 1_556 S
C1771 C1770 1.387 . S
C1771 C1773 1.387 . S
H1772 C1779 0.950 . S
C1773 C1771 1.387 . S
C1773 C1775 1.390 . S
C1773 H1777 0.950 . S
H1774 C1770 0.950 . S
C1775 C1773 1.390 . S
C1775 C1776 1.387 1_556 S
C1775 H1778 0.950 . S
C1776 C1775 1.387 1_554 S
C1776 C1779 1.387 . S
H1777 C1773 0.950 . S
H1778 C1775 0.950 . S
C1779 C1770 1.390 1_554 S
C1779 H1772 0.950 . S
C1779 C1776 1.387 . S
C1780 C1781 1.387 . S
C1780 H1784 0.950 . S
C1780 C1789 1.390 . S
C1781 C1780 1.387 . S
C1781 C1783 1.387 . S
H1782 C1789 0.950 . S
C1783 C1781 1.387 . S
C1783 C1785 1.390 1_556 S
C1783 H1787 0.950 . S
H1784 C1780 0.950 . S
C1785 C1783 1.390 1_554 S
C1785 C1786 1.387 . S
C1785 H1788 0.950 . S
C1786 C1785 1.387 . S
C1786 C1789 1.387 1_554 S
H1787 C1783 0.950 . S
H1788 C1785 0.950 . S
C1789 C1780 1.390 . S
C1789 H1782 0.950 . S
C1789 C1786 1.387 1_556 S
C1790 C1791 1.387 . S
C1790 H1794 0.950 . S
C1790 C1799 1.390 1_556 S
C1791 C1790 1.387 . S
C1791 C1793 1.387 . S
H1792 C1799 0.950 . S
C1793 C1791 1.387 . S
C1793 C1795 1.390 1_556 S
C1793 H1797 0.950 . S
H1794 C1790 0.950 . S
C1795 C1793 1.390 1_554 S
C1795 C1796 1.387 . S
C1795 H1798 0.950 . S
C1796 C1795 1.387 . S
C1796 C1799 1.387 . S
H1797 C1793 0.950 . S
H1798 C1795 0.950 . S
C1799 C1790 1.390 1_554 S
C1799 H1792 0.950 . S
C1799 C1796 1.387 . S
C1800 C1801 1.387 . S
C1800 H1804 0.950 . S
C1800 C1809 1.390 . S
C1801 C1800 1.387 . S
C1801 C1803 1.387 . S
H1802 C1809 0.950 . S
C1803 C1801 1.387 . S
C1803 C1805 1.390 . S
C1803 H1807 0.950 . S
H1804 C1800 0.950 . S
C1805 C1803 1.390 . S
C1805 C1806 1.387 . S
C1805 H1808 0.950 . S
C1806 C1805 1.387 . S
C1806 C1809 1.387 . S
H1807 C1803 0.950 . S
H1808 C1805 0.950 . S
C1809 C1800 1.390 . S
C1809 H1802 0.950 . S
C1809 C1806 1.387 . S
C1810 C1811 1.387 . S
C1810 H1814 0.950 1_556 S
C1810 C1819 1.390 . S
C1811 C1810 1.387 . S
C1811 C1813 1.387 . S
H1812 C1819 0.950 . S
C1813 C1811 1.387 . S
C1813 C1815 1.390 . S
C1813 H1817 0.950 . S
H1814 C1810 0.950 1_554 S
C1815 C1813 1.390 . S
C1815 C1816 1.387 . S
C1815 H1818 0.950 . S
C1816 C1815 1.387 . S
C1816 C1819 1.387 . S
H1817 C1813 0.950 . S
H1818 C1815 0.950 . S
C1819 C1810 1.390 . S
C1819 H1812 0.950 . S
C1819 C1816 1.387 . S
C1820 C1821 1.387 . S
C1820 H1824 0.950 1_556 S
C1820 C1829 1.390 . S
C1821 C1820 1.387 . S
C1821 C1823 1.387 . S
H1822 C1829 0.950 . S
C1823 C1821 1.387 . S
C1823 C1825 1.390 . S
C1823 H1827 0.950 . S
H1824 C1820 0.950 1_554 S
C1825 C1823 1.390 . S
C1825 C1826 1.387 . S
C1825 H1828 0.950 . S
C1826 C1825 1.387 . S
C1826 C1829 1.387 . S
H1827 C1823 0.950 . S
H1828 C1825 0.950 . S
C1829 C1820 1.390 . S
C1829 H1822 0.950 . S
C1829 C1826 1.387 . S
C1830 C1831 1.387 . S
C1830 H1834 0.950 . S
C1830 C1839 1.390 . S
C1831 C1830 1.387 . S
C1831 C1833 1.387 . S
H1832 C1839 0.950 . S
C1833 C1831 1.387 . S
C1833 C1835 1.390 . S
C1833 H1837 0.950 . S
H1834 C1830 0.950 . S
C1835 C1833 1.390 . S
C1835 C1836 1.387 . S
C1835 H1838 0.950 . S
C1836 C1835 1.387 . S
C1836 C1839 1.387 . S
H1837 C1833 0.950 . S
H1838 C1835 0.950 . S
C1839 C1830 1.390 . S
C1839 H1832 0.950 . S
C1839 C1836 1.387 . S
C1840 C1841 1.387 . S
C1840 H1844 0.950 . S
C1840 C1849 1.390 . S
C1841 C1840 1.387 . S
C1841 C1843 1.387 . S
H1842 C1849 0.950 . S
C1843 C1841 1.387 . S
C1843 C1845 1.390 . S
C1843 H1847 0.950 . S
H1844 C1840 0.950 . S
C1845 C1843 1.390 . S
C1845 C1846 1.387 . S
C1845 H1848 0.950 . S
C1846 C1845 1.387 . S
C1846 C1849 1.387 . S
H1847 C1843 0.950 . S
H1848 C1845 0.950 . S
C1849 C1840 1.390 . S
C1849 H1842 0.950 . S
C1849 C1846 1.387 . S
C1850 C1851 1.387 . S
C1850 H1854 0.950 . S
C1850 C1859 1.390 . S
C1851 C1850 1.387 . S
C1851 C1853 1.387 . S
H1852 C1859 0.950 . S
C1853 C1851 1.387 . S
C1853 C1855 1.390 . S
C1853 H1857 0.950 . S
H1854 C1850 0.950 . S
C1855 C1853 1.390 . S
C1855 C1856 1.387 . S
C1855 H1858 0.950 . S
C1856 C1855 1.387 . S
C1856 C1859 1.387 . S
H1857 C1853 0.950 . S
H1858 C1855 0.950 . S
C1859 C1850 1.390 . S
C1859 H1852 0.950 . S
C1859 C1856 1.387 . S
C1860 C1861 1.387 . S
C1860 H1864 0.950 . S
C1860 C1869 1.390 . S
C1861 C1860 1.387 . S
C1861 C1863 1.387 . S
H1862 C1869 0.950 . S
C1863 C1861 1.387 . S
C1863 C1865 1.390 . S
C1863 H1867 0.950 . S
H1864 C1860 0.950 . S
C1865 C1863 1.390 . S
C1865 C1866 1.387 . S
C1865 H1868 0.950 . S
C1866 C1865 1.387 . S
C1866 C1869 1.387 . S
H1867 C1863 0.950 . S
H1868 C1865 0.950 . S
C1869 C1860 1.390 . S
C1869 H1862 0.950 . S
C1869 C1866 1.387 . S
C1870 C1871 1.387 . S
C1870 H1874 0.950 . S
C1870 C1879 1.390 . S
C1871 C1870 1.387 . S
C1871 C1873 1.387 . S
H1872 C1879 0.950 . S
C1873 C1871 1.387 . S
C1873 C1875 1.390 . S
C1873 H1877 0.950 . S
H1874 C1870 0.950 . S
C1875 C1873 1.390 . S
C1875 C1876 1.387 . S
C1875 H1878 0.950 . S
C1876 C1875 1.387 . S
C1876 C1879 1.387 . S
H1877 C1873 0.950 . S
H1878 C1875 0.950 . S
C1879 C1870 1.390 . S
C1879 H1872 0.950 . S
C1879 C1876 1.387 . S
C1880 C1881 1.387 . S
C1880 H1884 0.950 . S
C1880 C1889 1.390 . S
C1881 C1880 1.387 . S
C1881 C1883 1.387 . S
H1882 C1889 0.950 . S
C1883 C1881 1.387 . S
C1883 C1885 1.390 . S
C1883 H1887 0.950 . S
H1884 C1880 0.950 . S
C1885 C1883 1.390 . S
C1885 C1886 1.387 . S
C1885 H1888 0.950 . S
C1886 C1885 1.387 . S
C1886 C1889 1.387 . S
H1887 C1883 0.950 . S
H1888 C1885 0.950 . S
C1889 C1880 1.390 . S
C1889 H1882 0.950 . S
C1889 C1886 1.387 . S
C1890 C1891 1.387 . S
C1890 H1894 0.950 . S
C1890 C1899 1.390 . S
C1891 C1890 1.387 . S
C1891 C1893 1.387 . S
H1892 C1899 0.950 . S
C1893 C1891 1.387 . S
C1893 C1895 1.390 . S
C1893 H1897 0.950 . S
H1894 C1890 0.950 . S
C1895 C1893 1.390 . S
C1895 C1896 1.387 . S
C1895 H1898 0.950 . S
C1896 C1895 1.387 . S
C1896 C1899 1.387 . S
H1897 C1893 0.950 . S
H1898 C1895 0.950 . S
C1899 C1890 1.390 . S
C1899 H1892 0.950 . S
C1899 C1896 1.387 . S
C1900 C1901 1.387 . S
C1900 H1904 0.950 . S
C1900 C1909 1.390 . S
C1901 C1900 1.387 . S
C1901 C1903 1.387 . S
H1902 C1909 0.950 . S
C1903 C1901 1.387 . S
C1903 C1905 1.390 . S
C1903 H1907 0.950 . S
H1904 C1900 0.950 . S
C1905 C1903 1.390 . S
C1905 C1906 1.387 . S
C1905 H1908 0.950 . S
C1906 C1905 1.387 . S
C1906 C1909 1.387 . S
H1907 C1903 0.950 . S
H1908 C1905 0.950 . S
C1909 C1900 1.390 . S
C1909 H1902 0.950 . S
C1909 C1906 1.387 . S
C1910 C1911 1.387 . S
C1910 H1914 0.950 . S
C1910 C1919 1.390 . S
C1911 C1910 1.387 . S
C1911 C1913 1.387 . S
H1912 C1919 0.950 . S
C1913 C1911 1.387 . S
C1913 C1915 1.390 . S
C1913 H1917 0.950 . S
H1914 C1910 0.950 . S
C1915 C1913 1.390 . S
C1915 C1916 1.387 . S
C1915 H1918 0.950 . S
C1916 C1915 1.387 . S
C1916 C1919 1.387 . S
H1917 C1913 0.950 . S
H1918 C1915 0.950 . S
C1919 C1910 1.390 . S
C1919 H1912 0.950 . S
C1919 C1916 1.387 . S
C1920 C1921 1.387 . S
C1920 H1924 0.950 . S
C1920 C1929 1.390 . S
C1921 C1920 1.387 . S
C1921 C1923 1.387 . S
H1922 C1929 0.950 . S
C1923 C1921 1.387 . S
C1923 C1925 1.390 . S
C1923 H1927 0.950 . S
H1924 C1920 0.950 . S
C1925 C1923 1.390 . S
C1925 C1926 1.387 . S
C1925 H1928 0.950 . S
C1926 C1925 1.387 . S
C1926 C1929 1.387 . S
H1927 C1923 0.950 . S
H1928 C1925 0.950 . S
C1929 C1920 1.390 . S
C1929 H1922 0.950 . S
C1929 C1926 1.387 . S
C1930 C1931 1.387 . S
C1930 H1934 0.950 . S
C1930 C1939 1.390 . S
C1931 C1930 1.387 . S
C1931 C1933 1.387 . S
H1932 C1939 0.950 . S
C1933 C1931 1.387 . S
C1933 C1935 1.390 . S
C1933 H1937 0.950 . S
H1934 C1930 0.950 . S
C1935 C1933 1.390 . S
C1935 C1936 1.387 . S
C1935 H1938 0.950 . S
C1936 C1935 1.387 . S
C1936 C1939 1.387 . S
H1937 C1933 0.950 . S
H1938 C1935 0.950 . S
C1939 C1930 1.390 . S
C1939 H1932 0.950 . S
C1939 C1936 1.387 . S
C1940 C1941 1.387 . S
C1940 H1944 0.950 . S
C1940 C1949 1.390 . S
C1941 C1940 1.387 . S
C1941 C1943 1.387 . S
H1942 C1949 0.950 . S
C1943 C1941 1.387 . S
C1943 C1945 1.390 . S
C1943 H1947 0.950 . S
H1944 C1940 0.950 . S
C1945 C1943 1.390 . S
C1945 C1946 1.387 . S
C1945 H1948 0.950 . S
C1946 C1945 1.387 . S
C1946 C1949 1.387 . S
H1947 C1943 0.950 . S
H1948 C1945 0.950 . S
C1949 C1940 1.390 . S
C1949 H1942 0.950 . S
C1949 C1946 1.387 . S
C1950 C1951 1.387 . S
C1950 H1954 0.950 . S
C1950 C1959 1.390 1_554 S
C1951 C1950 1.387 . S
C1951 C1953 1.387 . S
H1952 C1959 0.950 . S
C1953 C1951 1.387 . S
C1953 C1955 1.390 . S
C1953 H1957 0.950 . S
H1954 C1950 0.950 . S
C1955 C1953 1.390 . S
C1955 C1956 1.387 1_554 S
C1955 H1958 0.950 . S
C1956 C1955 1.387 1_556 S
C1956 C1959 1.387 . S
H1957 C1953 0.950 . S
H1958 C1955 0.950 . S
C1959 C1950 1.390 1_556 S
C1959 H1952 0.950 . S
C1959 C1956 1.387 . S
C1960 C1961 1.387 1_554 S
C1960 H1964 0.950 . S
C1960 C1969 1.390 . S
C1961 C1960 1.387 1_556 S
C1961 C1963 1.387 . S
H1962 C1969 0.950 . S
C1963 C1961 1.387 . S
C1963 C1965 1.390 1_556 S
C1963 H1967 0.950 . S
H1964 C1960 0.950 . S
C1965 C1963 1.390 1_554 S
C1965 C1966 1.387 . S
C1965 H1968 0.950 . S
C1966 C1965 1.387 . S
C1966 C1969 1.387 . S
H1967 C1963 0.950 . S
H1968 C1965 0.950 . S
C1969 C1960 1.390 . S
C1969 H1962 0.950 . S
C1969 C1966 1.387 . S
C1970 C1971 1.387 . S
C1970 H1974 0.950 . S
C1970 C1979 1.390 . S
C1971 C1970 1.387 . S
C1971 C1973 1.387 . S
H1972 C1979 0.950 . S
C1973 C1971 1.387 . S
C1973 C1975 1.390 1_554 S
C1973 H1977 0.950 . S
H1974 C1970 0.950 . S
C1975 C1973 1.390 1_556 S
C1975 C1976 1.387 . S
C1975 H1978 0.950 . S
C1976 C1975 1.387 . S
C1976 C1979 1.387 1_556 S
H1977 C1973 0.950 . S
H1978 C1975 0.950 . S
C1979 C1970 1.390 . S
C1979 H1972 0.950 . S
C1979 C1976 1.387 1_554 S
C1980 C1981 1.387 . S
C1980 H1984 0.950 . S
C1980 C1989 1.390 . S
C1981 C1980 1.387 . S
C1981 C1983 1.387 . S
H1982 C1989 0.950 . S
C1983 C1981 1.387 . S
C1983 C1985 1.390 . S
C1983 H1987 0.950 . S
H1984 C1980 0.950 . S
C1985 C1983 1.390 . S
C1985 C1986 1.387 . S
C1985 H1988 0.950 . S
C1986 C1985 1.387 . S
C1986 C1989 1.387 . S
H1987 C1983 0.950 . S
H1988 C1985 0.950 . S
C1989 C1980 1.390 . S
C1989 H1982 0.950 . S
C1989 C1986 1.387 . S
C1990 C1991 1.387 . S
C1990 H1994 0.950 . S
C1990 C1999 1.390 . S
C1991 C1990 1.387 . S
C1991 C1993 1.387 . S
H1992 C1999 0.950 . S
C1993 C1991 1.387 . S
C1993 C1995 1.390 . S
C1993 H1997 0.950 . S
H1994 C1990 0.950 . S
C1995 C1993 1.390 . S
C1995 C1996 1.387 . S
C1995 H1998 0.950 . S
C1996 C1995 1.387 . S
C1996 C1999 1.387 . S
H1997 C1993 0.950 . S
H1998 C1995 0.950 . S
C1999 C1990 1.390 . S
C1999 H1992 0.950 . S
C1999 C1996 1.387 . S
C2000 C2001 1.387 . S
C2000 H2004 0.950 . S
C2000 C2009 1.390 . S
C2001 C2000 1.387 . S
C2001 C2003 1.387 . S
H2002 C2009 0.950 . S
C2003 C2001 1.387 . S
C2003 C2005 1.390 . S
C2003 H2007 0.950 . S
H2004 C2000 0.950 . S
C2005 C2003 1.390 . S
C2005 C2006 1.387 . S
C2005 H2008 0.950 . S
C2006 C2005 1.387 . S
C2006 C2009 1.387 . S
H2007 C2003 0.950 . S
H2008 C2005 0.950 . S
C2009 C2000 1.390 . S
C2009 H2002 0.950 . S
C2009 C2006 1.387 . S
C2010 C2011 1.387 . S
C2010 H2014 0.950 . S
C2010 C2019 1.390 . S
C2011 C2010 1.387 . S
C2011 C2013 1.387 . S
H2012 C2019 0.950 . S
C2013 C2011 1.387 . S
C2013 C2015 1.390 . S
C2013 H2017 0.950 . S
H2014 C2010 0.950 . S
C2015 C2013 1.390 . S
C2015 C2016 1.387 . S
C2015 H2018 0.950 . S
C2016 C2015 1.387 . S
C2016 C2019 1.387 . S
H2017 C2013 0.950 . S
H2018 C2015 0.950 . S
C2019 C2010 1.390 . S
C2019 H2012 0.950 . S
C2019 C2016 1.387 . S
C2020 C2021 1.387 . S
C2020 H2024 0.950 . S
C2020 C2029 1.390 . S
C2021 C2020 1.387 . S
C2021 C2023 1.387 . S
H2022 C2029 0.950 . S
C2023 C2021 1.387 . S
C2023 C2025 1.390 . S
C2023 H2027 0.950 . S
H2024 C2020 0.950 . S
C2025 C2023 1.390 . S
C2025 C2026 1.387 . S
C2025 H2028 0.950 . S
C2026 C2025 1.387 . S
C2026 C2029 1.387 . S
H2027 C2023 0.950 . S
H2028 C2025 0.950 . S
C2029 C2020 1.390 . S
C2029 H2022 0.950 . S
C2029 C2026 1.387 . S
C2030 C2031 1.387 . S
C2030 H2034 0.950 . S
C2030 C2039 1.390 . S
C2031 C2030 1.387 . S
C2031 C2033 1.387 . S
H2032 C2039 0.950 . S
C2033 C2031 1.387 . S
C2033 C2035 1.390 . S
C2033 H2037 0.950 . S
H2034 C2030 0.950 . S
C2035 C2033 1.390 . S
C2035 C2036 1.387 . S
C2035 H2038 0.950 . S
C2036 C2035 1.387 . S
C2036 C2039 1.387 . S
H2037 C2033 0.950 . S
H2038 C2035 0.950 . S
C2039 C2030 1.390 . S
C2039 H2032 0.950 . S
C2039 C2036 1.387 . S
C2040 C2041 1.387 . S
C2040 H2044 0.950 . S
C2040 C2049 1.390 . S
C2041 C2040 1.387 . S
C2041 C2043 1.387 . S
H2042 C2049 0.950 . S
C2043 C2041 1.387 . S
C2043 C2045 1.390 . S
C2043 H2047 0.950 . S
H2044 C2040 0.950 . S
C2045 C2043 1.390 . S
C2045 C2046 1.387 . S
C2045 H2048 0.950 . S
C2046 C2045 1.387 . S
C2046 C2049 1.387 . S
H2047 C2043 0.950 . S
H2048 C2045 0.950 . S
C2049 C2040 1.390 . S
C2049 H2042 0.950 . S
C2049 C2046 1.387 . S
C2050 C2051 1.387 . S
C2050 H2054 0.950 . S
C2050 C2059 1.390 . S
C2051 C2050 1.387 . S
C2051 C2053 1.387 . S
H2052 C2059 0.950 . S
C2053 C2051 1.387 . S
C2053 C2055 1.390 . S
C2053 H2057 0.950 . S
H2054 C2050 0.950 . S
C2055 C2053 1.390 . S
C2055 C2056 1.387 . S
C2055 H2058 0.950 . S
C2056 C2055 1.387 . S
C2056 C2059 1.387 . S
H2057 C2053 0.950 . S
H2058 C2055 0.950 . S
C2059 C2050 1.390 . S
C2059 H2052 0.950 . S
C2059 C2056 1.387 . S
C2060 C2061 1.387 . S
C2060 H2064 0.950 . S
C2060 C2069 1.390 . S
C2061 C2060 1.387 . S
C2061 C2063 1.387 . S
H2062 C2069 0.950 . S
C2063 C2061 1.387 . S
C2063 C2065 1.390 . S
C2063 H2067 0.950 . S
H2064 C2060 0.950 . S
C2065 C2063 1.390 . S
C2065 C2066 1.387 . S
C2065 H2068 0.950 . S
C2066 C2065 1.387 . S
C2066 C2069 1.387 . S
H2067 C2063 0.950 . S
H2068 C2065 0.950 . S
C2069 C2060 1.390 . S
C2069 H2062 0.950 . S
C2069 C2066 1.387 . S
C2070 C2071 1.387 . S
C2070 H2074 0.950 . S
C2070 C2079 1.390 . S
C2071 C2070 1.387 . S
C2071 C2073 1.387 . S
H2072 C2079 0.950 . S
C2073 C2071 1.387 . S
C2073 C2075 1.390 . S
C2073 H2077 0.950 . S
H2074 C2070 0.950 . S
C2075 C2073 1.390 . S
C2075 C2076 1.387 . S
C2075 H2078 0.950 . S
C2076 C2075 1.387 . S
C2076 C2079 1.387 . S
H2077 C2073 0.950 . S
H2078 C2075 0.950 . S
C2079 C2070 1.390 . S
C2079 H2072 0.950 . S
C2079 C2076 1.387 . S
C2080 C2081 1.387 . S
C2080 H2084 0.950 . S
C2080 C2089 1.390 . S
C2081 C2080 1.387 . S
C2081 C2083 1.387 . S
H2082 C2089 0.950 . S
C2083 C2081 1.387 . S
C2083 C2085 1.390 . S
C2083 H2087 0.950 . S
H2084 C2080 0.950 . S
C2085 C2083 1.390 . S
C2085 C2086 1.387 . S
C2085 H2088 0.950 . S
C2086 C2085 1.387 . S
C2086 C2089 1.387 . S
H2087 C2083 0.950 . S
H2088 C2085 0.950 . S
C2089 C2080 1.390 . S
C2089 H2082 0.950 . S
C2089 C2086 1.387 . S
C2090 C2091 1.387 . S
C2090 H2094 0.950 . S
C2090 C2099 1.390 . S
C2091 C2090 1.387 . S
C2091 C2093 1.387 . S
H2092 C2099 0.950 . S
C2093 C2091 1.387 . S
C2093 C2095 1.390 . S
C2093 H2097 0.950 . S
H2094 C2090 0.950 . S
C2095 C2093 1.390 . S
C2095 C2096 1.387 . S
C2095 H2098 0.950 . S
C2096 C2095 1.387 . S
C2096 C2099 1.387 . S
H2097 C2093 0.950 . S
H2098 C2095 0.950 . S
C2099 C2090 1.390 . S
C2099 H2092 0.950 . S
C2099 C2096 1.387 . S
C2100 C2101 1.387 . S
C2100 H2104 0.950 . S
C2100 C2109 1.390 . S
C2101 C2100 1.387 . S
C2101 C2103 1.387 . S
H2102 C2109 0.950 . S
C2103 C2101 1.387 . S
C2103 C2105 1.390 . S
C2103 H2107 0.950 . S
H2104 C2100 0.950 . S
C2105 C2103 1.390 . S
C2105 C2106 1.387 . S
C2105 H2108 0.950 . S
C2106 C2105 1.387 . S
C2106 C2109 1.387 . S
H2107 C2103 0.950 . S
H2108 C2105 0.950 . S
C2109 C2100 1.390 . S
C2109 H2102 0.950 . S
C2109 C2106 1.387 . S
C2110 C2111 1.387 . S
C2110 H2114 0.950 . S
C2110 C2119 1.390 . S
C2111 C2110 1.387 . S
C2111 C2113 1.387 . S
H2112 C2119 0.950 . S
C2113 C2111 1.387 . S
C2113 C2115 1.390 . S
C2113 H2117 0.950 . S
H2114 C2110 0.950 . S
C2115 C2113 1.390 . S
C2115 C2116 1.387 . S
C2115 H2118 0.950 . S
C2116 C2115 1.387 . S
C2116 C2119 1.387 . S
H2117 C2113 0.950 . S
H2118 C2115 0.950 . S
C2119 C2110 1.390 . S
C2119 H2112 0.950 . S
C2119 C2116 1.387 . S
C2120 C2121 1.387 . S
C2120 H2124 0.950 . S
C2120 C2129 1.390 . S
C2121 C2120 1.387 . S
C2121 C2123 1.387 . S
H2122 C2129 0.950 . S
C2123 C2121 1.387 . S
C2123 C2125 1.390 . S
C2123 H2127 0.950 . S
H2124 C2120 0.950 . S
C2125 C2123 1.390 . S
C2125 C2126 1.387 . S
C2125 H2128 0.950 . S
C2126 C2125 1.387 . S
C2126 C2129 1.387 . S
H2127 C2123 0.950 . S
H2128 C2125 0.950 . S
C2129 C2120 1.390 . S
C2129 H2122 0.950 . S
C2129 C2126 1.387 . S
C2130 C2131 1.387 . S
C2130 H2134 0.950 . S
C2130 C2139 1.390 . S
C2131 C2130 1.387 . S
C2131 C2133 1.387 . S
H2132 C2139 0.950 . S
C2133 C2131 1.387 . S
C2133 C2135 1.390 . S
C2133 H2137 0.950 . S
H2134 C2130 0.950 . S
C2135 C2133 1.390 . S
C2135 C2136 1.387 . S
C2135 H2138 0.950 . S
C2136 C2135 1.387 . S
C2136 C2139 1.387 . S
H2137 C2133 0.950 . S
H2138 C2135 0.950 . S
C2139 C2130 1.390 . S
C2139 H2132 0.950 . S
C2139 C2136 1.387 . S
C2140 C2141 1.387 . S
C2140 H2144 0.950 . S
C2140 C2149 1.390 . S
C2141 C2140 1.387 . S
C2141 C2143 1.387 . S
H2142 C2149 0.950 . S
C2143 C2141 1.387 . S
C2143 C2145 1.390 . S
C2143 H2147 0.950 . S
H2144 C2140 0.950 . S
C2145 C2143 1.390 . S
C2145 C2146 1.387 . S
C2145 H2148 0.950 . S
C2146 C2145 1.387 . S
C2146 C2149 1.387 . S
H2147 C2143 0.950 . S
H2148 C2145 0.950 . S
C2149 C2140 1.390 . S
C2149 H2142 0.950 . S
C2149 C2146 1.387 . S
C2150 C2151 1.387 . S
C2150 H2154 0.950 . S
C2150 C2159 1.390 . S
C2151 C2150 1.387 . S
C2151 C2153 1.387 . S
H2152 C2159 0.950 . S
C2153 C2151 1.387 . S
C2153 C2155 1.390 . S
C2153 H2157 0.950 . S
H2154 C2150 0.950 . S
C2155 C2153 1.390 . S
C2155 C2156 1.387 . S
C2155 H2158 0.950 . S
C2156 C2155 1.387 . S
C2156 C2159 1.387 . S
H2157 C2153 0.950 . S
H2158 C2155 0.950 . S
C2159 C2150 1.390 . S
C2159 H2152 0.950 . S
C2159 C2156 1.387 . S
C2160 C2161 1.387 . S
C2160 H2164 0.950 . S
C2160 C2169 1.390 . S
C2161 C2160 1.387 . S
C2161 C2163 1.387 1_455 S
H2162 C2169 0.950 . S
C2163 C2161 1.387 1_655 S
C2163 C2165 1.390 . S
C2163 H2167 0.950 . S
H2164 C2160 0.950 . S
C2165 C2163 1.390 . S
C2165 C2166 1.387 . S
C2165 H2168 0.950 . S
C2166 C2165 1.387 . S
C2166 C2169 1.387 1_655 S
H2167 C2163 0.950 . S
H2168 C2165 0.950 . S
C2169 C2160 1.390 . S
C2169 H2162 0.950 . S
C2169 C2166 1.387 1_455 S
C2170 C2171 1.387 . S
C2170 H2174 0.950 . S
C2170 C2179 1.390 . S
C2171 C2170 1.387 . S
C2171 C2173 1.387 . S
H2172 C2179 0.950 . S
C2173 C2171 1.387 . S
C2173 C2175 1.390 . S
C2173 H2177 0.950 . S
H2174 C2170 0.950 . S
C2175 C2173 1.390 . S
C2175 C2176 1.387 . S
C2175 H2178 0.950 . S
C2176 C2175 1.387 . S
C2176 C2179 1.387 . S
H2177 C2173 0.950 . S
H2178 C2175 0.950 . S
C2179 C2170 1.390 . S
C2179 H2172 0.950 . S
C2179 C2176 1.387 . S
C2180 C2181 1.387 . S
C2180 H2184 0.950 . S
C2180 C2189 1.390 1_565 S
C2181 C2180 1.387 . S
C2181 C2183 1.387 . S
H2182 C2189 0.950 . S
C2183 C2181 1.387 . S
C2183 C2185 1.390 1_565 S
C2183 H2187 0.950 . S
H2184 C2180 0.950 . S
C2185 C2183 1.390 1_545 S
C2185 C2186 1.387 . S
C2185 H2188 0.950 . S
C2186 C2185 1.387 . S
C2186 C2189 1.387 . S
H2187 C2183 0.950 . S
H2188 C2185 0.950 . S
C2189 C2180 1.390 1_545 S
C2189 H2182 0.950 . S
C2189 C2186 1.387 . S
C2190 C2191 1.387 . S
C2190 H2194 0.950 . S
C2190 C2199 1.390 1_655 S
C2191 C2190 1.387 . S
C2191 C2193 1.387 . S
H2192 C2199 0.950 . S
C2193 C2191 1.387 . S
C2193 C2195 1.390 1_655 S
C2193 H2197 0.950 . S
H2194 C2190 0.950 . S
C2195 C2193 1.390 1_455 S
C2195 C2196 1.387 . S
C2195 H2198 0.950 . S
C2196 C2195 1.387 . S
C2196 C2199 1.387 . S
H2197 C2193 0.950 . S
H2198 C2195 0.950 . S
C2199 C2190 1.390 1_455 S
C2199 H2192 0.950 . S
C2199 C2196 1.387 . S
C2200 C2201 1.387 . S
C2200 H2204 0.950 . S
C2200 C2209 1.390 . S
C2201 C2200 1.387 . S
C2201 C2203 1.387 . S
H2202 C2209 0.950 . S
C2203 C2201 1.387 . S
C2203 C2205 1.390 . S
C2203 H2207 0.950 . S
H2204 C2200 0.950 . S
C2205 C2203 1.390 . S
C2205 C2206 1.387 . S
C2205 H2208 0.950 . S
C2206 C2205 1.387 . S
C2206 C2209 1.387 . S
H2207 C2203 0.950 . S
H2208 C2205 0.950 . S
C2209 C2200 1.390 . S
C2209 H2202 0.950 . S
C2209 C2206 1.387 . S
C2210 C2211 1.387 . S
C2210 H2214 0.950 . S
C2210 C2219 1.390 1_545 S
C2211 C2210 1.387 . S
C2211 C2213 1.387 . S
H2212 C2219 0.950 . S
C2213 C2211 1.387 . S
C2213 C2215 1.390 1_545 S
C2213 H2217 0.950 . S
H2214 C2210 0.950 . S
C2215 C2213 1.390 1_565 S
C2215 C2216 1.387 . S
C2215 H2218 0.950 . S
C2216 C2215 1.387 . S
C2216 C2219 1.387 . S
H2217 C2213 0.950 . S
H2218 C2215 0.950 . S
C2219 C2210 1.390 1_565 S
C2219 H2212 0.950 . S
C2219 C2216 1.387 . S
C2220 C2221 1.387 . S
C2220 H2224 0.950 . S
C2220 C2229 1.390 . S
C2221 C2220 1.387 . S
C2221 C2223 1.387 . S
H2222 C2229 0.950 . S
C2223 C2221 1.387 . S
C2223 C2225 1.390 . S
C2223 H2227 0.950 . S
H2224 C2220 0.950 . S
C2225 C2223 1.390 . S
C2225 C2226 1.387 . S
C2225 H2228 0.950 . S
C2226 C2225 1.387 . S
C2226 C2229 1.387 . S
H2227 C2223 0.950 . S
H2228 C2225 0.950 . S
C2229 C2220 1.390 . S
C2229 H2222 0.950 . S
C2229 C2226 1.387 . S
C2230 C2231 1.387 . S
C2230 H2234 0.950 . S
C2230 C2239 1.390 . S
C2231 C2230 1.387 . S
C2231 C2233 1.387 . S
H2232 C2239 0.950 . S
C2233 C2231 1.387 . S
C2233 C2235 1.390 . S
C2233 H2237 0.950 . S
H2234 C2230 0.950 . S
C2235 C2233 1.390 . S
C2235 C2236 1.387 . S
C2235 H2238 0.950 . S
C2236 C2235 1.387 . S
C2236 C2239 1.387 . S
H2237 C2233 0.950 . S
H2238 C2235 0.950 . S
C2239 C2230 1.390 . S
C2239 H2232 0.950 . S
C2239 C2236 1.387 . S
C2240 C2241 1.387 . S
C2240 H2244 0.950 . S
C2240 C2249 1.390 . S
C2241 C2240 1.387 . S
C2241 C2243 1.387 . S
H2242 C2249 0.950 . S
C2243 C2241 1.387 . S
C2243 C2245 1.390 . S
C2243 H2247 0.950 . S
H2244 C2240 0.950 . S
C2245 C2243 1.390 . S
C2245 C2246 1.387 . S
C2245 H2248 0.950 . S
C2246 C2245 1.387 . S
C2246 C2249 1.387 . S
H2247 C2243 0.950 . S
H2248 C2245 0.950 . S
C2249 C2240 1.390 . S
C2249 H2242 0.950 . S
C2249 C2246 1.387 . S
C2250 C2251 1.387 . S
C2250 H2254 0.950 . S
C2250 C2259 1.390 . S
C2251 C2250 1.387 . S
C2251 C2253 1.387 . S
H2252 C2259 0.950 . S
C2253 C2251 1.387 . S
C2253 C2255 1.390 . S
C2253 H2257 0.950 . S
H2254 C2250 0.950 . S
C2255 C2253 1.390 . S
C2255 C2256 1.387 . S
C2255 H2258 0.950 . S
C2256 C2255 1.387 . S
C2256 C2259 1.387 . S
H2257 C2253 0.950 . S
H2258 C2255 0.950 . S
C2259 C2250 1.390 . S
C2259 H2252 0.950 . S
C2259 C2256 1.387 . S
C2260 C2261 1.387 . S
C2260 H2264 0.950 . S
C2260 C2269 1.390 . S
C2261 C2260 1.387 . S
C2261 C2263 1.387 . S
H2262 C2269 0.950 . S
C2263 C2261 1.387 . S
C2263 C2265 1.390 . S
C2263 H2267 0.950 . S
H2264 C2260 0.950 . S
C2265 C2263 1.390 . S
C2265 C2266 1.387 . S
C2265 H2268 0.950 . S
C2266 C2265 1.387 . S
C2266 C2269 1.387 . S
H2267 C2263 0.950 . S
H2268 C2265 0.950 . S
C2269 C2260 1.390 . S
C2269 H2262 0.950 . S
C2269 C2266 1.387 . S
C2270 C2271 1.387 . S
C2270 H2274 0.950 . S
C2270 C2279 1.390 . S
C2271 C2270 1.387 . S
C2271 C2273 1.387 . S
H2272 C2279 0.950 . S
C2273 C2271 1.387 . S
C2273 C2275 1.390 . S
C2273 H2277 0.950 . S
H2274 C2270 0.950 . S
C2275 C2273 1.390 . S
C2275 C2276 1.387 . S
C2275 H2278 0.950 . S
C2276 C2275 1.387 . S
C2276 C2279 1.387 . S
H2277 C2273 0.950 . S
H2278 C2275 0.950 . S
C2279 C2270 1.390 . S
C2279 H2272 0.950 . S
C2279 C2276 1.387 . S
C2280 C2281 1.387 1_556 S
C2280 H2284 0.950 . S
C2280 C2289 1.390 . S
C2281 C2280 1.387 1_554 S
C2281 C2283 1.387 . S
H2282 C2289 0.950 . S
C2283 C2281 1.387 . S
C2283 C2285 1.390 1_554 S
C2283 H2287 0.950 . S
H2284 C2280 0.950 . S
C2285 C2283 1.390 1_556 S
C2285 C2286 1.387 . S
C2285 H2288 0.950 . S
C2286 C2285 1.387 . S
C2286 C2289 1.387 . S
H2287 C2283 0.950 . S
H2288 C2285 0.950 . S
C2289 C2280 1.390 . S
C2289 H2282 0.950 . S
C2289 C2286 1.387 . S
C2290 C2291 1.387 . S
C2290 H2294 0.950 . S
C2290 C2299 1.390 . S
C2291 C2290 1.387 . S
C2291 C2293 1.387 . S
H2292 C2299 0.950 . S
C2293 C2291 1.387 . S
C2293 C2295 1.390 1_556 S
C2293 H2297 0.950 . S
H2294 C2290 0.950 . S
C2295 C2293 1.390 1_554 S
C2295 C2296 1.387 . S
C2295 H2298 0.950 . S
C2296 C2295 1.387 . S
C2296 C2299 1.387 1_554 S
H2297 C2293 0.950 . S
H2298 C2295 0.950 . S
C2299 C2290 1.390 . S
C2299 H2292 0.950 . S
C2299 C2296 1.387 1_556 S
C2300 C2301 1.387 . S
C2300 H2304 0.950 . S
C2300 C2309 1.390 1_556 S
C2301 C2300 1.387 . S
C2301 C2303 1.387 . S
H2302 C2309 0.950 . S
C2303 C2301 1.387 . S
C2303 C2305 1.390 1_556 S
C2303 H2307 0.950 . S
H2304 C2300 0.950 . S
C2305 C2303 1.390 1_554 S
C2305 C2306 1.387 . S
C2305 H2308 0.950 . S
C2306 C2305 1.387 . S
C2306 C2309 1.387 . S
H2307 C2303 0.950 . S
H2308 C2305 0.950 . S
C2309 C2300 1.390 1_554 S
C2309 H2302 0.950 . S
C2309 C2306 1.387 . S
C2310 C2311 1.387 . S
C2310 H2314 0.950 . S
C2310 C2319 1.390 . S
C2311 C2310 1.387 . S
C2311 C2313 1.387 . S
H2312 C2319 0.950 . S
C2313 C2311 1.387 . S
C2313 C2315 1.390 . S
C2313 H2317 0.950 . S
H2314 C2310 0.950 . S
C2315 C2313 1.390 . S
C2315 C2316 1.387 . S
C2315 H2318 0.950 . S
C2316 C2315 1.387 . S
C2316 C2319 1.387 . S
H2317 C2313 0.950 . S
H2318 C2315 0.950 . S
C2319 C2310 1.390 . S
C2319 H2312 0.950 . S
C2319 C2316 1.387 . S
C2320 C2321 1.387 . S
C2320 H2324 0.950 . S
C2320 C2329 1.390 . S
C2321 C2320 1.387 . S
C2321 C2323 1.387 . S
H2322 C2329 0.950 . S
C2323 C2321 1.387 . S
C2323 C2325 1.390 . S
C2323 H2327 0.950 . S
H2324 C2320 0.950 . S
C2325 C2323 1.390 . S
C2325 C2326 1.387 . S
C2325 H2328 0.950 . S
C2326 C2325 1.387 . S
C2326 C2329 1.387 . S
H2327 C2323 0.950 . S
H2328 C2325 0.950 . S
C2329 C2320 1.390 . S
C2329 H2322 0.950 . S
C2329 C2326 1.387 . S
C2330 C2331 1.387 . S
C2330 H2334 0.950 . S
C2330 C2339 1.390 . S
C2331 C2330 1.387 . S
C2331 C2333 1.387 . S
H2332 C2339 0.950 . S
C2333 C2331 1.387 . S
C2333 C2335 1.390 . S
C2333 H2337 0.950 . S
H2334 C2330 0.950 . S
C2335 C2333 1.390 . S
C2335 C2336 1.387 . S
C2335 H2338 0.950 . S
C2336 C2335 1.387 . S
C2336 C2339 1.387 . S
H2337 C2333 0.950 . S
H2338 C2335 0.950 . S
C2339 C2330 1.390 . S
C2339 H2332 0.950 . S
C2339 C2336 1.387 . S
C2340 C2341 1.387 1_655 S
C2340 H2344 0.950 . S
C2340 C2349 1.390 . S
C2341 C2340 1.387 1_455 S
C2341 C2343 1.387 . S
H2342 C2349 0.950 . S
C2343 C2341 1.387 . S
C2343 C2345 1.390 . S
C2343 H2347 0.950 . S
H2344 C2340 0.950 . S
C2345 C2343 1.390 . S
C2345 C2346 1.387 1_455 S
C2345 H2348 0.950 . S
C2346 C2345 1.387 1_655 S
C2346 C2349 1.387 . S
H2347 C2343 0.950 . S
H2348 C2345 0.950 . S
C2349 C2340 1.390 . S
C2349 H2342 0.950 . S
C2349 C2346 1.387 . S
C2350 C2351 1.387 . S
C2350 H2354 0.950 . S
C2350 C2359 1.390 . S
C2351 C2350 1.387 . S
C2351 C2353 1.387 . S
H2352 C2359 0.950 . S
C2353 C2351 1.387 . S
C2353 C2355 1.390 . S
C2353 H2357 0.950 . S
H2354 C2350 0.950 . S
C2355 C2353 1.390 . S
C2355 C2356 1.387 . S
C2355 H2358 0.950 . S
C2356 C2355 1.387 . S
C2356 C2359 1.387 . S
H2357 C2353 0.950 . S
H2358 C2355 0.950 . S
C2359 C2350 1.390 . S
C2359 H2352 0.950 . S
C2359 C2356 1.387 . S
C2360 C2361 1.387 1_565 S
C2360 H2364 0.950 1_554 S
C2360 C2369 1.390 . S
C2361 C2360 1.387 1_545 S
C2361 C2363 1.387 . S
H2362 C2369 0.950 . S
C2363 C2361 1.387 . S
C2363 C2365 1.390 . S
C2363 H2367 0.950 . S
H2364 C2360 0.950 1_556 S
C2365 C2363 1.390 . S
C2365 C2366 1.387 1_545 S
C2365 H2368 0.950 . S
C2366 C2365 1.387 1_565 S
C2366 C2369 1.387 . S
H2367 C2363 0.950 . S
H2368 C2365 0.950 . S
C2369 C2360 1.390 . S
C2369 H2362 0.950 . S
C2369 C2366 1.387 . S
C2370 C2371 1.387 . S
C2370 H2374 0.950 . S
C2370 C2379 1.390 1_565 S
C2371 C2370 1.387 . S
C2371 C2373 1.387 . S
H2372 C2379 0.950 . S
C2373 C2371 1.387 . S
C2373 C2375 1.390 1_565 S
C2373 H2377 0.950 . S
H2374 C2370 0.950 . S
C2375 C2373 1.390 1_545 S
C2375 C2376 1.387 . S
C2375 H2378 0.950 . S
C2376 C2375 1.387 . S
C2376 C2379 1.387 . S
H2377 C2373 0.950 . S
H2378 C2375 0.950 . S
C2379 C2370 1.390 1_545 S
C2379 H2372 0.950 . S
C2379 C2376 1.387 . S
C2380 C2381 1.387 1_455 S
C2380 H2384 0.950 . S
C2380 C2389 1.390 . S
C2381 C2380 1.387 1_655 S
C2381 C2383 1.387 . S
H2382 C2389 0.950 . S
C2383 C2381 1.387 . S
C2383 C2385 1.390 . S
C2383 H2387 0.950 . S
H2384 C2380 0.950 . S
C2385 C2383 1.390 . S
C2385 C2386 1.387 1_655 S
C2385 H2388 0.950 . S
C2386 C2385 1.387 1_455 S
C2386 C2389 1.387 . S
H2387 C2383 0.950 . S
H2388 C2385 0.950 . S
C2389 C2380 1.390 . S
C2389 H2382 0.950 . S
C2389 C2386 1.387 . S
C2390 C2391 1.387 . S
C2390 H2394 0.950 . S
C2390 C2399 1.390 . S
C2391 C2390 1.387 . S
C2391 C2393 1.387 . S
H2392 C2399 0.950 . S
C2393 C2391 1.387 . S
C2393 C2395 1.390 . S
C2393 H2397 0.950 . S
H2394 C2390 0.950 . S
C2395 C2393 1.390 . S
C2395 C2396 1.387 . S
C2395 H2398 0.950 . S
C2396 C2395 1.387 . S
C2396 C2399 1.387 . S
H2397 C2393 0.950 . S
H2398 C2395 0.950 . S
C2399 C2390 1.390 . S
C2399 H2392 0.950 . S
C2399 C2396 1.387 . S
C2400 C2401 1.387 . S
C2400 H2404 0.950 . S
C2400 C2409 1.390 . S
C2401 C2400 1.387 . S
C2401 C2403 1.387 . S
H2402 C2409 0.950 . S
C2403 C2401 1.387 . S
C2403 C2405 1.390 . S
C2403 H2407 0.950 . S
H2404 C2400 0.950 . S
C2405 C2403 1.390 . S
C2405 C2406 1.387 . S
C2405 H2408 0.950 . S
C2406 C2405 1.387 . S
C2406 C2409 1.387 . S
H2407 C2403 0.950 . S
H2408 C2405 0.950 . S
C2409 C2400 1.390 . S
C2409 H2402 0.950 . S
C2409 C2406 1.387 . S
C2410 C2411 1.387 . S
C2410 H2414 0.950 . S
C2410 C2419 1.390 . S
C2411 C2410 1.387 . S
C2411 C2413 1.387 . S
H2412 C2419 0.950 . S
C2413 C2411 1.387 . S
C2413 C2415 1.390 . S
C2413 H2417 0.950 . S
H2414 C2410 0.950 . S
C2415 C2413 1.390 . S
C2415 C2416 1.387 . S
C2415 H2418 0.950 . S
C2416 C2415 1.387 . S
C2416 C2419 1.387 . S
H2417 C2413 0.950 . S
H2418 C2415 0.950 . S
C2419 C2410 1.390 . S
C2419 H2412 0.950 . S
C2419 C2416 1.387 . S
C2420 C2421 1.387 . S
C2420 H2424 0.950 . S
C2420 C2429 1.390 . S
C2421 C2420 1.387 . S
C2421 C2423 1.387 . S
H2422 C2429 0.950 . S
C2423 C2421 1.387 . S
C2423 C2425 1.390 . S
C2423 H2427 0.950 . S
H2424 C2420 0.950 . S
C2425 C2423 1.390 . S
C2425 C2426 1.387 . S
C2425 H2428 0.950 . S
C2426 C2425 1.387 . S
C2426 C2429 1.387 . S
H2427 C2423 0.950 . S
H2428 C2425 0.950 . S
C2429 C2420 1.390 . S
C2429 H2422 0.950 . S
C2429 C2426 1.387 . S
C2430 C2431 1.387 . S
C2430 H2434 0.950 . S
C2430 C2439 1.390 . S
C2431 C2430 1.387 . S
C2431 C2433 1.387 . S
H2432 C2439 0.950 . S
C2433 C2431 1.387 . S
C2433 C2435 1.390 . S
C2433 H2437 0.950 . S
H2434 C2430 0.950 . S
C2435 C2433 1.390 . S
C2435 C2436 1.387 . S
C2435 H2438 0.950 . S
C2436 C2435 1.387 . S
C2436 C2439 1.387 . S
H2437 C2433 0.950 . S
H2438 C2435 0.950 . S
C2439 C2430 1.390 . S
C2439 H2432 0.950 . S
C2439 C2436 1.387 . S
C2440 C2441 1.387 . S
C2440 H2444 0.950 . S
C2440 C2449 1.390 . S
C2441 C2440 1.387 . S
C2441 C2443 1.387 . S
H2442 C2449 0.950 . S
C2443 C2441 1.387 . S
C2443 C2445 1.390 . S
C2443 H2447 0.950 . S
H2444 C2440 0.950 . S
C2445 C2443 1.390 . S
C2445 C2446 1.387 . S
C2445 H2448 0.950 . S
C2446 C2445 1.387 . S
C2446 C2449 1.387 . S
H2447 C2443 0.950 . S
H2448 C2445 0.950 . S
C2449 C2440 1.390 . S
C2449 H2442 0.950 . S
C2449 C2446 1.387 . S
C2450 C2451 1.387 . S
C2450 H2454 0.950 . S
C2450 C2459 1.390 . S
C2451 C2450 1.387 . S
C2451 C2453 1.387 . S
H2452 C2459 0.950 . S
C2453 C2451 1.387 . S
C2453 C2455 1.390 . S
C2453 H2457 0.950 . S
H2454 C2450 0.950 . S
C2455 C2453 1.390 . S
C2455 C2456 1.387 . S
C2455 H2458 0.950 . S
C2456 C2455 1.387 . S
C2456 C2459 1.387 . S
H2457 C2453 0.950 . S
H2458 C2455 0.950 . S
C2459 C2450 1.390 . S
C2459 H2452 0.950 . S
C2459 C2456 1.387 . S
C2460 C2461 1.387 . S
C2460 H2464 0.950 . S
C2460 C2469 1.390 . S
C2461 C2460 1.387 . S
C2461 C2463 1.387 . S
H2462 C2469 0.950 . S
C2463 C2461 1.387 . S
C2463 C2465 1.390 . S
C2463 H2467 0.950 . S
H2464 C2460 0.950 . S
C2465 C2463 1.390 . S
C2465 C2466 1.387 . S
C2465 H2468 0.950 . S
C2466 C2465 1.387 . S
C2466 C2469 1.387 . S
H2467 C2463 0.950 . S
H2468 C2465 0.950 . S
C2469 C2460 1.390 . S
C2469 H2462 0.950 . S
C2469 C2466 1.387 . S
C2470 C2471 1.387 . S
C2470 H2474 0.950 . S
C2470 C2479 1.390 . S
C2471 C2470 1.387 . S
C2471 C2473 1.387 . S
H2472 C2479 0.950 . S
C2473 C2471 1.387 . S
C2473 C2475 1.390 . S
C2473 H2477 0.950 . S
H2474 C2470 0.950 . S
C2475 C2473 1.390 . S
C2475 C2476 1.387 . S
C2475 H2478 0.950 . S
C2476 C2475 1.387 . S
C2476 C2479 1.387 . S
H2477 C2473 0.950 . S
H2478 C2475 0.950 . S
C2479 C2470 1.390 . S
C2479 H2472 0.950 . S
C2479 C2476 1.387 . S
C2480 C2481 1.387 . S
C2480 H2484 0.950 . S
C2480 C2489 1.390 . S
C2481 C2480 1.387 . S
C2481 C2483 1.387 . S
H2482 C2489 0.950 . S
C2483 C2481 1.387 . S
C2483 C2485 1.390 . S
C2483 H2487 0.950 . S
H2484 C2480 0.950 . S
C2485 C2483 1.390 . S
C2485 C2486 1.387 . S
C2485 H2488 0.950 . S
C2486 C2485 1.387 . S
C2486 C2489 1.387 . S
H2487 C2483 0.950 . S
H2488 C2485 0.950 . S
C2489 C2480 1.390 . S
C2489 H2482 0.950 . S
C2489 C2486 1.387 . S
C2490 C2491 1.387 . S
C2490 H2494 0.950 . S
C2490 C2499 1.390 . S
C2491 C2490 1.387 . S
C2491 C2493 1.387 . S
H2492 C2499 0.950 . S
C2493 C2491 1.387 . S
C2493 C2495 1.390 . S
C2493 H2497 0.950 . S
H2494 C2490 0.950 . S
C2495 C2493 1.390 . S
C2495 C2496 1.387 . S
C2495 H2498 0.950 . S
C2496 C2495 1.387 . S
C2496 C2499 1.387 . S
H2497 C2493 0.950 . S
H2498 C2495 0.950 . S
C2499 C2490 1.390 . S
C2499 H2492 0.950 . S
C2499 C2496 1.387 . S
C2500 C2501 1.387 . S
C2500 H2504 0.950 . S
C2500 C2509 1.390 . S
C2501 C2500 1.387 . S
C2501 C2503 1.387 . S
H2502 C2509 0.950 . S
C2503 C2501 1.387 . S
C2503 C2505 1.390 . S
C2503 H2507 0.950 . S
H2504 C2500 0.950 . S
C2505 C2503 1.390 . S
C2505 C2506 1.387 . S
C2505 H2508 0.950 . S
C2506 C2505 1.387 . S
C2506 C2509 1.387 . S
H2507 C2503 0.950 . S
H2508 C2505 0.950 . S
C2509 C2500 1.390 . S
C2509 H2502 0.950 . S
C2509 C2506 1.387 . S
C2510 C2511 1.387 . S
C2510 H2514 0.950 . S
C2510 C2519 1.390 . S
C2511 C2510 1.387 . S
C2511 C2513 1.387 . S
H2512 C2519 0.950 . S
C2513 C2511 1.387 . S
C2513 C2515 1.390 . S
C2513 H2517 0.950 . S
H2514 C2510 0.950 . S
C2515 C2513 1.390 . S
C2515 C2516 1.387 . S
C2515 H2518 0.950 . S
C2516 C2515 1.387 . S
C2516 C2519 1.387 . S
H2517 C2513 0.950 . S
H2518 C2515 0.950 . S
C2519 C2510 1.390 . S
C2519 H2512 0.950 . S
C2519 C2516 1.387 . S
C1441 C609 2.597 . S
C1446 C9 2.597 . S
C1451 C649 2.595 . S
C1456 C49 2.595 . S
C1461 C89 2.595 . S
C1466 C689 2.596 . S
C1471 C129 2.597 . S
C1476 C969 2.596 . S
C1481 C169 2.598 . S
C1486 C1009 2.598 . S
C1491 C209 2.597 . S
C1496 C1049 2.598 . S
C1501 C1338 2.597 . S
C1506 C258 2.597 . S
C1511 C1378 2.598 . S
C1516 C298 2.598 . S
C1521 C338 2.595 . S
C1526 C1418 2.595 . S
C1531 C738 2.597 . S
C1536 C378 2.597 . S
C1541 C418 2.595 . S
C1546 C778 2.595 . S
C1551 C458 2.597 . S
C1556 C818 2.598 . S
C1561 C1089 2.594 . S
C1566 C489 2.594 . S
C1571 C529 2.598 . S
C1576 C1129 2.597 . S
C1581 C1169 2.596 . S
C1586 C569 2.595 . S
C1591 C1218 2.596 . S
C1596 C858 2.597 . S
C1601 C1258 2.598 . S
C1606 C898 2.598 . S
C1611 C938 2.598 . S
C1616 C1298 2.598 . S
C1621 C15 0.399 . S
C1626 C175 0.402 . S
C1631 C55 0.401 . S
C1636 C215 0.406 . S
C1641 C95 0.408 . S
C1646 C135 0.408 . S
C1651 C246 0.400 . S
C1656 C406 0.405 . S
C1661 C286 0.403 . S
C1666 C446 0.399 . S
C1671 C326 0.400 . S
C1676 C366 0.400 . S
C1681 C495 0.409 . S
C1686 C655 0.406 . S
C1691 C695 0.409 . S
C1696 C535 0.406 . S
C1701 C575 0.408 . S
C1706 C615 0.408 . S
C1711 C726 0.409 . S
C1716 C886 0.407 . S
C1721 C766 0.404 . S
C1726 C926 0.408 . S
C1731 C846 0.408 . S
C1736 C806 0.409 . S
C1741 C975 0.405 . S
C1746 C1135 0.401 . S
C1751 C1175 0.408 . S
C1756 C1015 0.407 . S
C1761 C1055 0.401 . S
C1766 C1095 0.399 . S
C1771 C1206 0.408 . S
C1776 C1366 0.407 . S
C1781 C1246 0.406 . S
C1786 C1406 0.409 . S
C1791 C1286 0.401 . S
C1796 C1326 0.399 . S
C1801 C415 1.687 . S
C1806 C19 1.786 1_556 S
C1811 C59 1.786 1_556 S
C1816 C455 1.688 . S
C1821 C99 1.785 1_556 S
C1826 C375 1.687 . S
C1831 C139 1.786 . S
C1836 C335 1.687 . S
C1841 C179 1.786 . S
C1846 C255 1.687 . S
C1851 C295 1.685 . S
C1856 C219 1.784 . S
C1861 C250 1.786 . S
C1866 C166 1.685 . S
C1871 C206 1.688 . S
C1876 C290 1.786 . S
C1881 C330 1.787 . S
C1886 C126 1.687 . S
C1891 C370 1.784 . S
C1896 C86 1.685 . S
C1901 C6 1.683 . S
C1906 C410 1.785 . S
C1911 C46 1.688 . S
C1916 C450 1.786 . S
C1921 C895 1.687 . S
C1926 C499 1.786 . S
C1931 C935 1.688 . S
C1936 C539 1.786 . S
C1941 C855 1.685 . S
C1946 C579 1.786 . S
C1951 C815 1.685 . S
C1956 C619 1.784 . S
C1961 C659 1.785 . S
C1966 C735 1.683 . S
C1971 C775 1.685 . S
C1976 C699 1.787 . S
C1981 C646 1.683 . S
C1986 C730 1.784 . S
C1991 C770 1.785 . S
C1996 C686 1.687 . S
C2001 C810 1.786 . S
C2006 C606 1.687 . S
C2011 C566 1.683 . S
C2016 C850 1.784 . S
C2021 C890 1.784 . S
C2026 C486 1.684 . S
C2031 C930 1.786 . S
C2036 C526 1.688 . S
C2041 C979 1.786 . S
C2046 C1375 1.687 . S
C2051 C1019 1.786 . S
C2056 C1415 1.688 . S
C2061 C1335 1.685 . S
C2066 C1059 1.784 . S
C2071 C1295 1.687 . S
C2076 C1099 1.786 . S
C2081 C1139 1.786 . S
C2086 C1215 1.687 . S
C2091 C1255 1.684 . S
C2096 C1179 1.785 . S
C2101 C1210 1.786 . S
C2106 C1126 1.687 . S
C2111 C1166 1.684 . S
C2116 C1250 1.785 . S
C2121 C1290 1.784 . S
C2126 C1086 1.685 . S
C2131 C1330 1.784 . S
C2136 C1046 1.686 . S
C2141 C966 1.687 . S
C2146 C1370 1.786 . S
C2151 C1006 1.687 . S
C2156 C1410 1.787 . S
C2161 C10 3.367 . S
C2166 C170 3.367 . S
C2171 C210 3.366 . S
C2176 C50 3.366 . S
C2181 C90 3.366 . S
C2186 C130 3.366 . S
C2191 C259 3.367 . S
C2196 C419 3.367 . S
C2201 C459 3.367 . S
C2206 C299 3.366 . S
C2211 C339 3.366 . S
C2216 C379 3.366 . S
C2221 C650 3.367 . S
C2226 C490 3.367 . S
C2231 C690 3.366 . S
C2236 C530 3.366 . S
C2241 C610 3.367 . S
C2246 C570 3.367 . S
C2251 C899 3.366 . S
C2256 C739 3.366 . S
C2261 C779 3.366 . S
C2266 C939 3.366 . S
C2271 C859 3.366 . S
C2276 C819 3.366 . S
C2281 C1130 3.367 . S
C2286 C970 3.366 . S
C2291 C1010 3.366 . S
C2296 C1170 3.366 . S
C2301 C1050 3.366 . S
C2306 C1090 3.366 . S
C2311 C1379 3.366 . S
C2316 C1219 3.366 . S
C2321 C1259 3.366 . S
C2326 C1419 3.367 . S
C2331 C1299 3.366 . S
C2336 C1339 3.366 . S
C2341 C18 1.398 . S
C2346 C249 1.398 . S
C2351 C58 1.398 . S
C2356 C289 1.398 . S
C2361 C329 1.402 . S
C2366 C98 1.402 . S
C2371 C369 1.400 . S
C2376 C138 1.400 . S
C2381 C178 1.398 . S
C2386 C409 1.398 . S
C2391 C218 1.403 . S
C2396 C449 1.403 . S
C2401 C729 1.402 . S
C2406 C498 1.402 . S
C2411 C538 1.401 . S
C2416 C769 1.401 . S
C2421 C809 1.398 . S
C2426 C578 1.398 . S
C2431 C849 1.401 . S
C2436 C618 1.401 . S
C2441 C889 1.402 . S
C2446 C658 1.402 . S
C2451 C929 1.403 . S
C2456 C698 1.403 . S
C2461 C1209 1.402 . S
C2466 C978 1.402 . S
C2471 C1018 1.401 . S
C2476 C1249 1.401 . S
C2481 C1289 1.400 . S
C2486 C1058 1.400 . S
C2491 C1329 1.397 . S
C2496 C1098 1.397 . S
C2501 C1369 1.399 . S
C2506 C1138 1.399 . S
C2511 C1178 1.398 . S
C2516 C1409 1.398 . S
