# Generated by pormake.
# Topology wjf, (4)-cn, num edge types: 1
# Building blocks:
#     Node 0, Type 0, BuildingBlock: ICAMEG_clean_sbu_1, # of connection points: 4
#     Node 1, Type 0, BuildingBlock: ICAMEG_clean_sbu_1, # of connection points: 4
#     Node 2, Type 0, BuildingBlock: ICAMEG_clean_sbu_1, # of connection points: 4
#     Node 3, Type 0, BuildingBlock: ICAMEG_clean_sbu_1, # of connection points: 4
#     Node 4, Type 0, BuildingBlock: ICAMEG_clean_sbu_1, # of connection points: 4
#     Node 5, Type 0, BuildingBlock: ICAMEG_clean_sbu_1, # of connection points: 4
#     Node 6, Type 0, BuildingBlock: ICAMEG_clean_sbu_1, # of connection points: 4
#     Node 7, Type 0, BuildingBlock: ICAMEG_clean_sbu_1, # of connection points: 4
#     Node 8, Type 0, BuildingBlock: ICAMEG_clean_sbu_1, # of connection points: 4
#     Node 9, Type 0, BuildingBlock: ICAMEG_clean_sbu_1, # of connection points: 4
#     Node 10, Type 0, BuildingBlock: ICAMEG_clean_sbu_1, # of connection points: 4
#     Node 11, Type 0, BuildingBlock: ICAMEG_clean_sbu_1, # of connection points: 4
#     Edge 12, Type (0, 0), BuildingBlock: KIFKEQ_clean_linker_1, # of connection points: 2
#     Edge 13, Type (0, 0), BuildingBlock: KIFKEQ_clean_linker_1, # of connection points: 2
#     Edge 14, Type (0, 0), BuildingBlock: KIFKEQ_clean_linker_1, # of connection points: 2
#     Edge 15, Type (0, 0), BuildingBlock: KIFKEQ_clean_linker_1, # of connection points: 2
#     Edge 16, Type (0, 0), BuildingBlock: KIFKEQ_clean_linker_1, # of connection points: 2
#     Edge 17, Type (0, 0), BuildingBlock: KIFKEQ_clean_linker_1, # of connection points: 2
#     Edge 18, Type (0, 0), BuildingBlock: KIFKEQ_clean_linker_1, # of connection points: 2
#     Edge 19, Type (0, 0), BuildingBlock: KIFKEQ_clean_linker_1, # of connection points: 2
#     Edge 20, Type (0, 0), BuildingBlock: KIFKEQ_clean_linker_1, # of connection points: 2
#     Edge 21, Type (0, 0), BuildingBlock: KIFKEQ_clean_linker_1, # of connection points: 2
#     Edge 22, Type (0, 0), BuildingBlock: KIFKEQ_clean_linker_1, # of connection points: 2
#     Edge 23, Type (0, 0), BuildingBlock: KIFKEQ_clean_linker_1, # of connection points: 2
#     Edge 24, Type (0, 0), BuildingBlock: KIFKEQ_clean_linker_1, # of connection points: 2
#     Edge 25, Type (0, 0), BuildingBlock: KIFKEQ_clean_linker_1, # of connection points: 2
#     Edge 26, Type (0, 0), BuildingBlock: KIFKEQ_clean_linker_1, # of connection points: 2
#     Edge 27, Type (0, 0), BuildingBlock: KIFKEQ_clean_linker_1, # of connection points: 2
#     Edge 28, Type (0, 0), BuildingBlock: KIFKEQ_clean_linker_1, # of connection points: 2
#     Edge 29, Type (0, 0), BuildingBlock: KIFKEQ_clean_linker_1, # of connection points: 2
#     Edge 30, Type (0, 0), BuildingBlock: KIFKEQ_clean_linker_1, # of connection points: 2
#     Edge 31, Type (0, 0), BuildingBlock: KIFKEQ_clean_linker_1, # of connection points: 2
#     Edge 32, Type (0, 0), BuildingBlock: KIFKEQ_clean_linker_1, # of connection points: 2
#     Edge 33, Type (0, 0), BuildingBlock: KIFKEQ_clean_linker_1, # of connection points: 2
#     Edge 34, Type (0, 0), BuildingBlock: KIFKEQ_clean_linker_1, # of connection points: 2
#     Edge 35, Type (0, 0), BuildingBlock: KIFKEQ_clean_linker_1, # of connection points: 2
# Relax obj value: 0.055
# Max RMSD: 0.073
# Mean RMSD: 0.073
data_MOF--net-wjf--node1-ICAMEG_clean_sbu_1--edge1-KIFKEQ_clean_linker_1
_symmetry_space_group_name_H-M    P1
_symmetry_Int_Tables_number       1
_symmetry_cell_setting            triclinic
loop_
_symmetry_equiv_pos_as_xyz
'x, y, z'
_cell_length_a     55.540683
_cell_length_b     55.537799
_cell_length_c     30.625711
_cell_angle_alpha  89.982154
_cell_angle_beta   90.01012
_cell_angle_gamma 119.9655
loop_
_atom_site_label
_atom_site_type_symbol
_atom_site_fract_x
_atom_site_fract_y
_atom_site_fract_z
_atom_type_partial_charge
Co0 Co 0.35439 0.37214 0.07936 0.0
Co1 Co 0.34332 0.42464 0.04276 0.0
O2 O 0.33493 0.39331 0.08111 0.0
C3 C 0.36325 0.39209 0.17041 0.0
O4 O 0.37174 0.41709 0.15482 0.0
C5 C 0.28297 0.38697 0.02642 0.0
O6 O 0.28783 0.36637 0.02031 0.0
O7 O 0.34236 0.40309 0.9901 0.0
O8 O 0.3544 0.37236 0.01433 0.0
H9 H 0.39312 0.49193 0.92075 0.0
H10 H 0.30288 0.35149 0.13156 0.0
O11 O 0.35486 0.37144 0.14465 0.0
H12 H 0.28269 0.27783 0.02375 0.0
H13 H 0.37366 0.29708 0.12962 0.0
H14 H 0.40076 0.37502 0.02722 0.0
H15 H 0.32871 0.32033 0.02577 0.0
H16 H 0.34924 0.32395 0.13005 0.0
O17 O 0.30276 0.41111 0.03606 0.0
H18 H 0.38275 0.45274 0.96995 0.0
H19 H 0.3205 0.46296 0.03362 0.0
H20 H 0.42558 0.34857 0.02543 0.0
H21 H 0.25663 0.30921 0.13095 0.0
H22 H 0.41206 0.30929 0.07691 0.0
H23 H 0.24629 0.27204 0.07668 0.0
O24 O 0.39145 0.40684 0.07956 0.0
H25 H 0.30777 0.43905 0.18555 0.0
H26 H 0.38281 0.48149 0.07627 0.0
H27 H 0.38503 0.50803 0.14215 0.0
H28 H 0.34729 0.48682 0.19732 0.0
H29 H 0.30652 0.41314 0.11934 0.0
H30 H 0.33003 0.50211 0.98488 0.0
H31 H 0.36665 0.5169 0.92806 0.0
O32 O 0.38393 0.43918 0.04877 0.0
C33 C 0.34867 0.3842 0.98365 0.0
C34 C 0.37717 0.48574 0.94547 0.0
C35 C 0.34174 0.49143 0.98142 0.0
N36 N 0.35119 0.4557 0.00481 0.0
C37 C 0.37126 0.46361 0.97349 0.0
C38 C 0.33639 0.4692 0.00886 0.0
C39 C 0.36229 0.49972 0.94956 0.0
C40 C 0.29859 0.33531 0.10808 0.0
N41 N 0.3185 0.33833 0.07886 0.0
C42 C 0.27234 0.31146 0.10779 0.0
C43 C 0.26654 0.29063 0.07729 0.0
C44 C 0.28695 0.29387 0.04757 0.0
C45 C 0.31295 0.31802 0.04879 0.0
C46 C 0.37971 0.31412 0.10697 0.0
C47 C 0.39464 0.35784 0.04953 0.0
C48 C 0.366 0.32944 0.10712 0.0
N49 N 0.37344 0.35088 0.07845 0.0
C50 C 0.40883 0.34299 0.04845 0.0
C51 C 0.40125 0.32097 0.07737 0.0
C52 C 0.40003 0.43126 0.06465 0.0
C53 C 0.32431 0.44854 0.1617 0.0
C54 C 0.36637 0.47207 0.10019 0.0
C55 C 0.3677 0.48723 0.13738 0.0
C56 C 0.34651 0.47533 0.16831 0.0
N57 N 0.34451 0.44582 0.09389 0.0
C58 C 0.32367 0.43401 0.12409 0.0
Co59 Co 0.98372 0.35077 0.40943 0.0
Co60 Co 0.92064 0.33992 0.37061 0.0
O61 O 0.943 0.33079 0.40917 0.0
C62 C 0.97045 0.35688 0.50031 0.0
O63 O 0.9537 0.36504 0.48457 0.0
C64 C 0.89833 0.27954 0.35407 0.0
O65 O 0.92362 0.28335 0.35569 0.0
O66 O 0.94228 0.34006 0.31877 0.0
O67 O 0.98496 0.35284 0.34443 0.0
H68 H 0.90565 0.39274 0.2506 0.0
H69 H 0.95291 0.29791 0.45851 0.0
O70 O 0.98354 0.34942 0.47462 0.0
H71 H 0.00841 0.28144 0.34944 0.0
H72 H 0.07723 0.36925 0.4625 0.0
H73 H 0.02795 0.39944 0.36221 0.0
H74 H 0.01106 0.32704 0.35418 0.0
H75 H 0.02599 0.34434 0.46015 0.0
O76 O 0.89394 0.29966 0.36054 0.0
H77 H 0.93344 0.3811 0.30003 0.0
H78 H 0.85973 0.31731 0.35863 0.0
H79 H 0.07921 0.42481 0.36322 0.0
H80 H 0.94982 0.25207 0.45518 0.0
H81 H 0.10419 0.40973 0.41364 0.0
H82 H 0.97765 0.24359 0.40024 0.0
O83 O 0.98555 0.38752 0.41195 0.0
H84 H 0.86778 0.30047 0.51003 0.0
H85 H 0.90209 0.37826 0.40552 0.0
H86 H 0.87627 0.37857 0.47079 0.0
H87 H 0.85887 0.33943 0.52356 0.0
H88 H 0.89395 0.30115 0.4445 0.0
H89 H 0.83115 0.32809 0.30957 0.0
H90 H 0.85412 0.36613 0.25519 0.0
O91 O 0.94635 0.38043 0.37937 0.0
C92 C 0.96773 0.34714 0.31327 0.0
C93 C 0.8954 0.37617 0.27424 0.0
C94 C 0.85358 0.33986 0.30731 0.0
N95 N 0.89823 0.3487 0.33238 0.0
C96 C 0.91102 0.36954 0.30239 0.0
C97 C 0.86988 0.33382 0.33493 0.0
C98 C 0.86649 0.36122 0.27681 0.0
C99 C 0.96527 0.29445 0.4348 0.0
N100 N 0.98222 0.31515 0.4067 0.0
C101 C 0.96336 0.26842 0.43294 0.0
C102 C 0.97894 0.26366 0.40207 0.0
C103 C 0.99619 0.28489 0.37353 0.0
C104 C 0.99755 0.31064 0.37629 0.0
C105 C 0.06659 0.37596 0.44027 0.0
C106 C 0.03868 0.39261 0.38394 0.0
C107 C 0.03758 0.36196 0.43882 0.0
N108 N 0.02401 0.37023 0.41066 0.0
C109 C 0.0677 0.40712 0.38451 0.0
C110 C 0.0817 0.39867 0.41285 0.0
C111 C 0.96989 0.39626 0.3969 0.0
C112 C 0.87521 0.31761 0.48724 0.0
C113 C 0.89471 0.36123 0.42841 0.0
C114 C 0.88002 0.36147 0.46526 0.0
C115 C 0.87025 0.3395 0.49484 0.0
N116 N 0.89947 0.33967 0.42116 0.0
C117 C 0.88996 0.31806 0.45001 0.0
Co118 Co 0.62892 0.98281 0.74752 0.0
Co119 Co 0.57761 0.91774 0.71495 0.0
O120 O 0.60982 0.94221 0.75076 0.0
C121 C 0.61411 0.9715 0.84022 0.0
O122 O 0.58946 0.95191 0.82748 0.0
C123 C 0.6161 0.89619 0.6965 0.0
O124 O 0.63594 0.92164 0.68789 0.0
O125 O 0.59744 0.93755 0.6607 0.0
O126 O 0.62515 0.98159 0.68292 0.0
H127 H 0.50638 0.89561 0.59747 0.0
H128 H 0.65505 0.95541 0.79534 0.0
O129 O 0.63299 0.98533 0.81227 0.0
H130 H 0.72107 0.00928 0.67814 0.0
H131 H 0.70313 0.07952 0.78911 0.0
H132 H 0.61961 0.02379 0.69934 0.0
H133 H 0.67735 0.01011 0.68686 0.0
H134 H 0.67892 0.02829 0.79138 0.0
O135 O 0.59213 0.89151 0.70816 0.0
H136 H 0.54662 0.92631 0.64353 0.0
H137 H 0.54058 0.85623 0.70958 0.0
H138 H 0.64331 0.07496 0.69575 0.0
H139 H 0.69866 0.95416 0.78803 0.0
H140 H 0.6854 0.10318 0.74087 0.0
H141 H 0.73198 0.98119 0.72901 0.0
O142 O 0.59322 0.98277 0.75318 0.0
H143 H 0.56863 0.87094 0.85928 0.0
H144 H 0.52143 0.89965 0.75233 0.0
H145 H 0.49719 0.87627 0.82025 0.0
H146 H 0.5208 0.8617 0.87427 0.0
H147 H 0.59223 0.89466 0.79112 0.0
H148 H 0.50043 0.82477 0.66399 0.0
H149 H 0.48301 0.84444 0.60757 0.0
O150 O 0.56188 0.94299 0.72112 0.0
C151 C 0.614 0.96327 0.65314 0.0
C152 C 0.51373 0.88679 0.62203 0.0
C153 C 0.51041 0.84703 0.65932 0.0
N154 N 0.54581 0.89309 0.67941 0.0
C155 C 0.53646 0.90407 0.64828 0.0
C156 C 0.5332 0.86495 0.68497 0.0
C157 C 0.50064 0.85808 0.62769 0.0
C158 C 0.66957 0.96741 0.76983 0.0
N159 N 0.66375 0.98293 0.74173 0.0
C160 C 0.69417 0.96654 0.76574 0.0
C161 C 0.71285 0.98168 0.73258 0.0
C162 C 0.70673 0.99743 0.70401 0.0
C163 C 0.68191 0.99778 0.70905 0.0
C164 C 0.68488 0.06746 0.76917 0.0
C165 C 0.63806 0.03593 0.71875 0.0
C166 C 0.67107 0.03845 0.77035 0.0
N167 N 0.64809 0.02308 0.74507 0.0
C168 C 0.65132 0.0649 0.71673 0.0
C169 C 0.67492 0.08072 0.74209 0.0
C170 C 0.56891 0.96646 0.73846 0.0
C171 C 0.55811 0.87714 0.83596 0.0
C172 C 0.5319 0.8935 0.77574 0.0
C173 C 0.51803 0.88019 0.81409 0.0
C174 C 0.53128 0.87199 0.84437 0.0
N175 N 0.55821 0.89847 0.76772 0.0
C176 C 0.57132 0.89047 0.79723 0.0
Co177 Co 0.64935 0.63411 0.07949 0.0
Co178 Co 0.66187 0.58177 0.04673 0.0
O179 O 0.66951 0.61363 0.0834 0.0
C180 C 0.64081 0.61486 0.1706 0.0
O181 O 0.63615 0.59075 0.15569 0.0
C182 C 0.72219 0.61997 0.02963 0.0
O183 O 0.71707 0.64019 0.02138 0.0
O184 O 0.66227 0.60208 0.99272 0.0
O185 O 0.65056 0.63348 0.0147 0.0
H186 H 0.6133 0.51184 0.92744 0.0
H187 H 0.69993 0.65587 0.13424 0.0
O188 O 0.64734 0.63505 0.14452 0.0
H189 H 0.72087 0.72866 0.02435 0.0
H190 H 0.62747 0.70832 0.12422 0.0
H191 H 0.60354 0.62991 0.02428 0.0
H192 H 0.67524 0.68565 0.02518 0.0
H193 H 0.65265 0.68226 0.12787 0.0
O194 O 0.70258 0.59601 0.04052 0.0
H195 H 0.62273 0.55167 0.97446 0.0
H196 H 0.68598 0.54441 0.04078 0.0
H197 H 0.57799 0.65556 0.01923 0.0
H198 H 0.74577 0.69868 0.13484 0.0
H199 H 0.58992 0.69508 0.06946 0.0
H200 H 0.75649 0.73541 0.07954 0.0
O201 O 0.61266 0.59906 0.07916 0.0
H202 H 0.6983 0.5712 0.19139 0.0
H203 H 0.62332 0.52532 0.0827 0.0
H204 H 0.62172 0.5004 0.15026 0.0
H205 H 0.65942 0.52335 0.20516 0.0
H206 H 0.69894 0.59546 0.12354 0.0
H207 H 0.67739 0.50465 0.99425 0.0
H208 H 0.64075 0.48805 0.9372 0.0
O209 O 0.6211 0.5664 0.05236 0.0
C210 C 0.6562 0.62102 0.98498 0.0
C211 C 0.62927 0.51882 0.95227 0.0
C212 C 0.66526 0.51481 0.98973 0.0
N213 N 0.65475 0.55023 0.01052 0.0
C214 C 0.63465 0.54132 0.97907 0.0
C215 C 0.67008 0.53738 0.01591 0.0
C216 C 0.64469 0.5055 0.95774 0.0
C217 C 0.70438 0.67186 0.11028 0.0
N218 N 0.68491 0.66832 0.07982 0.0
C219 C 0.7304 0.69601 0.11069 0.0
C220 C 0.73641 0.71659 0.07961 0.0
C221 C 0.71644 0.71281 0.04862 0.0
C222 C 0.69067 0.68838 0.04918 0.0
C223 C 0.62212 0.69118 0.1021 0.0
C224 C 0.60896 0.6472 0.04607 0.0
C225 C 0.63626 0.67631 0.10408 0.0
N226 N 0.6297 0.65472 0.0761 0.0
C227 C 0.59437 0.66159 0.04314 0.0
C228 C 0.60105 0.68374 0.07136 0.0
C229 C 0.60459 0.57434 0.06625 0.0
C230 C 0.68178 0.56095 0.16767 0.0
C231 C 0.63975 0.53549 0.10648 0.0
C232 C 0.63877 0.52124 0.14463 0.0
C233 C 0.65994 0.53412 0.17541 0.0
N234 N 0.66124 0.5618 0.09913 0.0
C235 C 0.68209 0.57455 0.12912 0.0
Co236 Co 0.01858 0.64639 0.41033 0.0
Co237 Co 0.08174 0.65726 0.37225 0.0
O238 O 0.05928 0.6663 0.41066 0.0
C239 C 0.03118 0.64034 0.50171 0.0
O240 O 0.04773 0.63175 0.48663 0.0
C241 C 0.10451 0.71773 0.35637 0.0
O242 O 0.07917 0.71383 0.35641 0.0
O243 O 0.06062 0.65783 0.32014 0.0
O244 O 0.01767 0.64422 0.34535 0.0
H245 H 0.09721 0.60526 0.25149 0.0
H246 H 0.04924 0.69936 0.45912 0.0
O247 O 0.01841 0.64789 0.4755 0.0
H248 H 0.99428 0.71565 0.34872 0.0
H249 H 0.9248 0.62805 0.46171 0.0
H250 H 0.97458 0.59767 0.3629 0.0
H251 H 0.99151 0.67002 0.3542 0.0
H252 H 0.97605 0.65292 0.46007 0.0
O253 O 0.10878 0.69757 0.36331 0.0
H254 H 0.06924 0.61674 0.30075 0.0
H255 H 0.14267 0.67947 0.3615 0.0
H256 H 0.92332 0.57233 0.36321 0.0
H257 H 0.05244 0.74524 0.45504 0.0
H258 H 0.89809 0.5875 0.4129 0.0
H259 H 0.02489 0.75363 0.39944 0.0
O260 O 0.01674 0.60965 0.41335 0.0
H261 H 0.13348 0.69498 0.51304 0.0
H262 H 0.09955 0.61823 0.4067 0.0
H263 H 0.12466 0.61701 0.47229 0.0
H264 H 0.14188 0.65562 0.52598 0.0
H265 H 0.10802 0.69521 0.44716 0.0
H266 H 0.17145 0.66885 0.31264 0.0
H267 H 0.1487 0.63143 0.25727 0.0
O268 O 0.0557 0.6167 0.37998 0.0
C269 C 0.0351 0.65039 0.31436 0.0
C270 C 0.10736 0.62156 0.27557 0.0
C271 C 0.14903 0.65728 0.30985 0.0
N272 N 0.10429 0.64861 0.33415 0.0
C273 C 0.09163 0.62811 0.30361 0.0
C274 C 0.13263 0.66324 0.33735 0.0
C275 C 0.13625 0.63627 0.2788 0.0
C276 C 0.03699 0.70278 0.43512 0.0
N277 N 0.02013 0.68202 0.40706 0.0
C278 C 0.03897 0.72883 0.43284 0.0
C279 C 0.02354 0.73354 0.40159 0.0
C280 C 0.00638 0.71225 0.3731 0.0
C281 C 0.00495 0.68648 0.37629 0.0
C282 C 0.93555 0.62129 0.43981 0.0
C283 C 0.96375 0.60454 0.38432 0.0
C284 C 0.96457 0.63528 0.43876 0.0
N285 N 0.97828 0.62696 0.41101 0.0
C286 C 0.93472 0.59004 0.38448 0.0
C287 C 0.92058 0.59855 0.41241 0.0
C288 C 0.03225 0.60088 0.39779 0.0
C289 C 0.12613 0.67806 0.48984 0.0
C290 C 0.10685 0.63503 0.42999 0.0
C291 C 0.12114 0.63428 0.46702 0.0
C292 C 0.13081 0.65596 0.49711 0.0
N293 N 0.10238 0.65681 0.42306 0.0
C294 C 0.11179 0.67813 0.45242 0.0
Co295 Co 0.36807 0.0171 0.74913 0.0
Co296 Co 0.42202 0.08101 0.71655 0.0
O297 O 0.3898 0.05763 0.75304 0.0
C298 C 0.38711 0.02609 0.84055 0.0
O299 O 0.4122 0.04295 0.82563 0.0
C300 C 0.38494 0.10426 0.69928 0.0
O301 O 0.36435 0.07889 0.69269 0.0
O302 O 0.40163 0.0615 0.66244 0.0
O303 O 0.3691 0.01882 0.68423 0.0
H304 H 0.49202 0.09999 0.59831 0.0
H305 H 0.34766 0.04751 0.80308 0.0
O306 O 0.36664 0.01446 0.81433 0.0
H307 H 0.27502 0.99775 0.69215 0.0
H308 H 0.29119 0.9224 0.79397 0.0
H309 H 0.37057 0.9743 0.69456 0.0
H310 H 0.31694 0.99316 0.69403 0.0
H311 H 0.3189 0.97357 0.79739 0.0
O312 O 0.40893 0.10842 0.70966 0.0
H313 H 0.45158 0.0706 0.64492 0.0
H314 H 0.4609 0.14215 0.71049 0.0
H315 H 0.34328 0.92316 0.68978 0.0
H316 H 0.30594 0.0525 0.80264 0.0
H317 H 0.30326 0.89687 0.73974 0.0
H318 H 0.2693 0.02757 0.74679 0.0
O319 O 0.40231 0.01387 0.74925 0.0
H320 H 0.43353 0.12856 0.86088 0.0
H321 H 0.4779 0.09712 0.75315 0.0
H322 H 0.50297 0.12004 0.82079 0.0
H323 H 0.48079 0.13599 0.87518 0.0
H324 H 0.40909 0.1053 0.79296 0.0
H325 H 0.50131 0.17234 0.66434 0.0
H326 H 0.51718 0.15125 0.60788 0.0
O327 O 0.43605 0.0545 0.72269 0.0
C328 C 0.38216 0.03678 0.65455 0.0
C329 C 0.48535 0.10942 0.62288 0.0
C330 C 0.49054 0.15003 0.6599 0.0
N331 N 0.45401 0.10463 0.68057 0.0
C332 C 0.46252 0.09288 0.64944 0.0
C333 C 0.46761 0.13283 0.68586 0.0
C334 C 0.49944 0.13818 0.62824 0.0
C335 C 0.33169 0.03642 0.77891 0.0
N336 N 0.33467 0.01998 0.74873 0.0
C337 C 0.30817 0.0394 0.77872 0.0
C338 C 0.28763 0.02543 0.74734 0.0
C339 C 0.29083 0.00871 0.71666 0.0
C340 C 0.31465 0.00625 0.71781 0.0
C341 C 0.30854 0.93363 0.77197 0.0
C342 C 0.35308 0.96301 0.71623 0.0
C343 C 0.32434 0.96259 0.77382 0.0
N344 N 0.34619 0.9769 0.74597 0.0
C345 C 0.33775 0.93406 0.71346 0.0
C346 C 0.31532 0.91932 0.74153 0.0
C347 C 0.42723 0.02985 0.73648 0.0
C348 C 0.44344 0.12176 0.83738 0.0
C349 C 0.46806 0.1039 0.77672 0.0
C350 C 0.48239 0.11694 0.81492 0.0
C351 C 0.46994 0.12589 0.84541 0.0
N352 N 0.44209 0.09996 0.76905 0.0
C353 C 0.42974 0.10867 0.7988 0.0
Co354 Co 0.63157 0.64678 0.57996 0.0
Co355 Co 0.57968 0.6596 0.61394 0.0
O356 O 0.61125 0.66711 0.57659 0.0
C357 C 0.61267 0.63903 0.4886 0.0
O358 O 0.58844 0.63421 0.50324 0.0
C359 C 0.61795 0.72003 0.62989 0.0
O360 O 0.63827 0.71499 0.6377 0.0
O361 O 0.60052 0.66038 0.6675 0.0
O362 O 0.63091 0.64753 0.64478 0.0
H363 H 0.51091 0.61161 0.7349 0.0
H364 H 0.65363 0.69781 0.52625 0.0
O365 O 0.63266 0.64528 0.51493 0.0
H366 H 0.72624 0.71747 0.63585 0.0
H367 H 0.70543 0.62461 0.53422 0.0
H368 H 0.62692 0.60037 0.63411 0.0
H369 H 0.68308 0.67198 0.63434 0.0
H370 H 0.67971 0.65016 0.53138 0.0
O371 O 0.59389 0.70033 0.61967 0.0
H372 H 0.55033 0.62086 0.68701 0.0
H373 H 0.54225 0.6836 0.62057 0.0
H374 H 0.65223 0.57445 0.63834 0.0
H375 H 0.69658 0.74354 0.52633 0.0
H376 H 0.69179 0.58653 0.58813 0.0
H377 H 0.73322 0.75361 0.58149 0.0
O378 O 0.59638 0.61023 0.57973 0.0
H379 H 0.56764 0.69514 0.46941 0.0
H380 H 0.52293 0.62074 0.57932 0.0
H381 H 0.49734 0.61871 0.51235 0.0
H382 H 0.5197 0.65612 0.45684 0.0
H383 H 0.59258 0.69621 0.5367 0.0
H384 H 0.5029 0.67519 0.66797 0.0
H385 H 0.48692 0.63889 0.72553 0.0
O386 O 0.56432 0.61878 0.60878 0.0
C387 C 0.6191 0.65375 0.6748 0.0
C388 C 0.51763 0.62742 0.70986 0.0
C389 C 0.51316 0.66313 0.67233 0.0
N390 N 0.54846 0.65261 0.65084 0.0
C391 C 0.53988 0.6327 0.68257 0.0
C392 C 0.53549 0.66785 0.64565 0.0
C393 C 0.50419 0.64276 0.70461 0.0
C394 C 0.66958 0.70199 0.55015 0.0
N395 N 0.6659 0.68223 0.58015 0.0
C396 C 0.69381 0.72794 0.55012 0.0
C397 C 0.71434 0.73359 0.58112 0.0
C398 C 0.71043 0.71333 0.61164 0.0
C399 C 0.68591 0.68763 0.61071 0.0
C400 C 0.68827 0.61919 0.55633 0.0
C401 C 0.64423 0.60586 0.61234 0.0
C402 C 0.67359 0.63354 0.55481 0.0
N403 N 0.65197 0.62689 0.58277 0.0
C404 C 0.65843 0.59106 0.6148 0.0
C405 C 0.6806 0.59783 0.58659 0.0
C406 C 0.5719 0.60223 0.59376 0.0
C407 C 0.55765 0.67875 0.4934 0.0
C408 C 0.53285 0.63704 0.55527 0.0
C409 C 0.51822 0.63582 0.51745 0.0
C410 C 0.53077 0.65683 0.48634 0.0
N411 N 0.55921 0.65861 0.56197 0.0
C412 C 0.57163 0.6793 0.53164 0.0
Co413 Co 0.98426 0.6314 0.90886 0.0
Co414 Co 0.91994 0.57951 0.94339 0.0
O415 O 0.94366 0.61128 0.90637 0.0
C416 C 0.97332 0.6136 0.81716 0.0
O417 O 0.95594 0.58857 0.83181 0.0
C418 C 0.89789 0.61767 0.96063 0.0
O419 O 0.92337 0.63785 0.96793 0.0
O420 O 0.94007 0.60025 -0.00312 0.0
O421 O 0.98365 0.6293 0.97379 0.0
H422 H 0.89997 0.51009 0.06306 0.0
H423 H 0.95519 0.65498 0.85878 0.0
O424 O 0.98589 0.63375 0.8437 0.0
H425 H 0.00868 0.72458 0.97199 0.0
H426 H 0.07962 0.70634 0.86283 0.0
H427 H 0.02668 0.62506 0.95835 0.0
H428 H 0.01085 0.6814 0.96639 0.0
H429 H 0.02835 0.6807 0.86166 0.0
O430 O 0.89331 0.59357 0.94999 0.0
H431 H 0.9298 0.54991 0.01561 0.0
H432 H 0.85863 0.54185 0.95043 0.0
H433 H 0.07792 0.65022 0.96086 0.0
H434 H 0.95259 0.69799 0.86298 0.0
H435 H 0.10474 0.69119 0.91285 0.0
H436 H 0.97942 0.73311 0.91998 0.0
O437 O 0.98546 0.59619 0.906 0.0
H438 H 0.87194 0.56794 0.79946 0.0
H439 H 0.90219 0.52295 0.90803 0.0
H440 H 0.87849 0.49759 0.841 0.0
H441 H 0.86313 0.52009 0.78618 0.0
H442 H 0.89597 0.59265 0.86678 0.0
H443 H 0.82802 0.50211 -0.00257 0.0
H444 H 0.84869 0.48591 0.05411 0.0
O445 O 0.94565 0.56436 0.93746 0.0
C446 C 0.96561 0.61784 0.00394 0.0
C447 C 0.89072 0.51691 0.0384 0.0
C448 C 0.85033 0.51245 0.00161 0.0
N449 N 0.89598 0.54807 0.9801 0.0
C450 C 0.90751 0.53939 0.01136 0.0
C451 C 0.86777 0.53501 0.97516 0.0
C452 C 0.86195 0.50336 0.03339 0.0
C453 C 0.96711 0.67028 0.88342 0.0
N454 N 0.98326 0.66576 0.91214 0.0
C455 C 0.96548 0.69454 0.88575 0.0
C456 C 0.9805 0.71423 0.91778 0.0
C457 C 0.99691 0.70944 0.94698 0.0
C458 C 0.99801 0.68493 0.94371 0.0
C459 C 0.06817 0.68859 0.88403 0.0
C460 C 0.03821 0.64303 0.93768 0.0
C461 C 0.03914 0.67398 0.88349 0.0
N462 N 0.02455 0.65165 0.91037 0.0
C463 C 0.06721 0.65712 0.9391 0.0
C464 C 0.08225 0.68008 0.91211 0.0
C465 C 0.96942 0.57185 0.92089 0.0
C466 C 0.87848 0.5579 0.82314 0.0
C467 C 0.89569 0.53293 0.88426 0.0
C468 C 0.8822 0.51843 0.84642 0.0
C469 C 0.87358 0.53106 0.81569 0.0
N470 N 0.9004 0.55923 0.89137 0.0
C471 C 0.89201 0.57175 0.86138 0.0
Co472 Co 0.35161 0.9829 0.24853 0.0
Co473 Co 0.3424 0.92003 0.28593 0.0
O474 O 0.33256 0.9422 0.2481 0.0
C475 C 0.3593 0.97065 0.15759 0.0
O476 O 0.36761 0.95403 0.17337 0.0
C477 C 0.28214 0.89742 0.30401 0.0
O478 O 0.28564 0.92256 0.3015 0.0
O479 O 0.34335 0.94168 0.33832 0.0
O480 O 0.35247 0.98349 0.31355 0.0
H481 H 0.39732 0.90563 0.40306 0.0
H482 H 0.29969 0.95124 0.19752 0.0
O483 O 0.35129 0.9833 0.18322 0.0
H484 H 0.27957 0.00469 0.3055 0.0
H485 H 0.36868 0.07607 0.19612 0.0
H486 H 0.39829 0.0274 0.29875 0.0
H487 H 0.32583 0.00875 0.30259 0.0
H488 H 0.34498 0.02485 0.19718 0.0
O489 O 0.30236 0.89318 0.29752 0.0
H490 H 0.38476 0.93317 0.35469 0.0
H491 H 0.32027 0.85919 0.29786 0.0
H492 H 0.42243 0.07865 0.29903 0.0
H493 H 0.2532 0.94674 0.19901 0.0
H494 H 0.40763 0.10331 0.24743 0.0
H495 H 0.24288 0.97353 0.2534 0.0
O496 O 0.38901 0.98594 0.24729 0.0
H497 H 0.30096 0.86676 0.1475 0.0
H498 H 0.38048 0.90186 0.24873 0.0
H499 H 0.37993 0.87598 0.18298 0.0
H500 H 0.33993 0.85818 0.13186 0.0
H501 H 0.30249 0.89297 0.21347 0.0
H502 H 0.33197 0.83085 0.34587 0.0
H503 H 0.37083 0.85408 0.39882 0.0
O504 O 0.38259 0.94591 0.27571 0.0
C505 C 0.34851 0.96653 0.34446 0.0
C506 C 0.38041 0.89527 0.38003 0.0
C507 C 0.34371 0.85329 0.34796 0.0
N508 N 0.35195 0.89782 0.32326 0.0
C509 C 0.37325 0.91075 0.35247 0.0
C510 C 0.33714 0.86945 0.32092 0.0
C511 C 0.36551 0.86634 0.37766 0.0
C512 C 0.29542 0.96315 0.22101 0.0
N513 N 0.31547 0.9803 0.24983 0.0
C514 C 0.26903 0.96044 0.22182 0.0
C515 C 0.26325 0.97544 0.25238 0.0
C516 C 0.28381 0.99291 0.28165 0.0
C517 C 0.30995 0.99507 0.27993 0.0
C518 C 0.37528 0.06556 0.21881 0.0
C519 C 0.39163 0.03799 0.27639 0.0
C520 C 0.36197 0.03657 0.21951 0.0
N521 N 0.37011 0.02316 0.24824 0.0
C522 C 0.40542 0.06701 0.27661 0.0
C523 C 0.39713 0.08083 0.24762 0.0
C524 C 0.39813 0.97011 0.26015 0.0
C525 C 0.31848 0.87435 0.16957 0.0
C526 C 0.36305 0.89428 0.22657 0.0
C527 C 0.36282 0.87957 0.18944 0.0
C528 C 0.34036 0.86958 0.16079 0.0
N529 N 0.34148 0.89883 0.235 0.0
C530 C 0.31941 0.88912 0.20705 0.0
Co531 Co 0.3685 0.35259 0.57911 0.0
Co532 Co 0.42116 0.34084 0.61268 0.0
O533 O 0.38947 0.33298 0.57552 0.0
C534 C 0.38826 0.36277 0.48805 0.0
O535 O 0.41314 0.37049 0.50344 0.0
C536 C 0.38346 0.28045 0.62925 0.0
O537 O 0.36312 0.2854 0.6374 0.0
O538 O 0.40037 0.33987 0.6664 0.0
O539 O 0.36902 0.35158 0.64405 0.0
H540 H 0.49016 0.38951 0.73311 0.0
H541 H 0.34746 0.30191 0.52472 0.0
O542 O 0.36762 0.35416 0.51388 0.0
H543 H 0.27427 0.28029 0.63413 0.0
H544 H 0.29346 0.37295 0.53303 0.0
H545 H 0.37173 0.39814 0.63391 0.0
H546 H 0.31691 0.32623 0.63319 0.0
H547 H 0.32024 0.34847 0.52998 0.0
O548 O 0.40738 0.30018 0.61845 0.0
H549 H 0.45045 0.37979 0.68556 0.0
H550 H 0.4591 0.31744 0.619 0.0
H551 H 0.34538 0.42299 0.63833 0.0
H552 H 0.30503 0.25577 0.52422 0.0
H553 H 0.30592 0.41042 0.58764 0.0
H554 H 0.26811 0.2447 0.57929 0.0
O555 O 0.40328 0.38961 0.57971 0.0
H556 H 0.4333 0.30581 0.46781 0.0
H557 H 0.47769 0.38017 0.5778 0.0
H558 H 0.50324 0.38254 0.51061 0.0
H559 H 0.48104 0.34515 0.45507 0.0
H560 H 0.40839 0.30439 0.53532 0.0
H561 H 0.49875 0.32633 0.66605 0.0
H562 H 0.51459 0.36268 0.7235 0.0
O563 O 0.43597 0.38154 0.60755 0.0
C564 C 0.38138 0.3459 0.67395 0.0
C565 C 0.4835 0.37368 0.70811 0.0
C566 C 0.4883 0.3382 0.67052 0.0
N567 N 0.45259 0.34821 0.64935 0.0
C568 C 0.46108 0.36813 0.68102 0.0
C569 C 0.46579 0.33321 0.64404 0.0
C570 C 0.49719 0.3586 0.70273 0.0
C571 C 0.33138 0.29731 0.54857 0.0
N572 N 0.3346 0.31676 0.57884 0.0
C573 C 0.30745 0.27112 0.54823 0.0
C574 C 0.28675 0.26491 0.57917 0.0
C575 C 0.29021 0.28487 0.60996 0.0
C576 C 0.31443 0.31082 0.60935 0.0
C577 C 0.31058 0.37858 0.55535 0.0
C578 C 0.35449 0.39245 0.61191 0.0
C579 C 0.32585 0.36484 0.55371 0.0
N580 N 0.34738 0.37174 0.58196 0.0
C581 C 0.33969 0.40664 0.61449 0.0
C582 C 0.31757 0.3996 0.586 0.0
C583 C 0.4279 0.3979 0.59339 0.0
C584 C 0.44321 0.3222 0.49181 0.0
C585 C 0.46785 0.36387 0.55374 0.0
C586 C 0.48245 0.36529 0.51579 0.0
C587 C 0.46999 0.34429 0.48466 0.0
N588 N 0.4416 0.34211 0.56055 0.0
C589 C 0.42925 0.32145 0.53016 0.0
Co590 Co 0.01761 0.3701 0.90797 0.0
Co591 Co 0.08184 0.42241 0.94177 0.0
O592 O 0.05818 0.39059 0.90485 0.0
C593 C 0.0278 0.38749 0.81598 0.0
O594 O 0.04485 0.41273 0.83018 0.0
C595 C 0.10495 0.38509 0.9583 0.0
O596 O 0.07974 0.36475 0.96685 0.0
O597 O 0.0623 0.40139 0.99541 0.0
O598 O 0.01857 0.37243 0.97287 0.0
H599 H 0.10172 0.49136 0.0621 0.0
H600 H 0.04689 0.34685 0.85768 0.0
O601 O 0.01564 0.36747 0.84287 0.0
H602 H 0.99452 0.27742 0.97172 0.0
H603 H 0.92232 0.29428 0.86345 0.0
H604 H 0.97516 0.37605 0.95802 0.0
H605 H 0.99177 0.32029 0.96598 0.0
H606 H 0.97358 0.3204 0.86149 0.0
O607 O 0.10899 0.40894 0.94728 0.0
H608 H 0.07195 0.45146 0.01477 0.0
H609 H 0.14308 0.46076 0.94782 0.0
H610 H 0.92393 0.35041 0.96132 0.0
H611 H 0.05005 0.30415 0.86202 0.0
H612 H 0.89717 0.30919 0.9138 0.0
H613 H 0.02379 0.26912 0.91944 0.0
O614 O 0.01598 0.40509 0.905 0.0
H615 H 0.12885 0.43501 0.79664 0.0
H616 H 0.0985 0.47888 0.907 0.0
H617 H 0.12141 0.50456 0.83978 0.0
H618 H 0.13681 0.48263 0.78405 0.0
H619 H 0.1056 0.40996 0.86418 0.0
H620 H 0.17363 0.5006 0.99468 0.0
H621 H 0.15295 0.51621 0.05219 0.0
O622 O 0.0556 0.43699 0.93685 0.0
C623 C 0.0368 0.3838 0.00278 0.0
C624 C 0.11097 0.4848 0.03707 0.0
C625 C 0.15133 0.48996 -0.00073 0.0
N626 N 0.10575 0.45392 0.97837 0.0
C627 C 0.09422 0.46227 0.0101 0.0
C628 C 0.13393 0.46735 0.97291 0.0
C629 C 0.13971 0.49872 0.03152 0.0
C630 C 0.03522 0.33158 0.88251 0.0
N631 N 0.01905 0.33597 0.91138 0.0
C632 C 0.03717 0.3075 0.88491 0.0
C633 C 0.02245 0.28787 0.91717 0.0
C634 C 0.00604 0.29252 0.94654 0.0
C635 C 0.00461 0.31686 0.94318 0.0
C636 C 0.93375 0.31214 0.88444 0.0
C637 C 0.96366 0.35798 0.93755 0.0
C638 C 0.96277 0.32702 0.88345 0.0
N639 N 0.97733 0.3495 0.91006 0.0
C640 C 0.93465 0.34362 0.93942 0.0
C641 C 0.91965 0.32051 0.9127 0.0
C642 C 0.03181 0.42939 0.92026 0.0
C643 C 0.12229 0.44481 0.82072 0.0
C644 C 0.10502 0.46914 0.88285 0.0
C645 C 0.11806 0.48382 0.84489 0.0
C646 C 0.12672 0.47151 0.81365 0.0
N647 N 0.10078 0.44297 0.88957 0.0
C648 C 0.1092 0.43077 0.85909 0.0
Co649 Co 0.64652 0.0158 0.24803 0.0
Co650 Co 0.65921 0.0802 0.28332 0.0
O651 O 0.66782 0.05655 0.24679 0.0
C652 C 0.64377 0.02876 0.15574 0.0
O653 O 0.6387 0.04824 0.16913 0.0
C654 C 0.71928 0.10152 0.30168 0.0
O655 O 0.71498 0.07604 0.30153 0.0
O656 O 0.65801 0.05912 0.33664 0.0
O657 O 0.64348 0.01574 0.3127 0.0
H658 H 0.60682 0.09903 0.3994 0.0
H659 H 0.70023 0.04413 0.20085 0.0
O660 O 0.64858 0.0145 0.1832 0.0
H661 H 0.71229 0.98875 0.31564 0.0
H662 H 0.62518 0.92014 0.20176 0.0
H663 H 0.59613 0.97367 0.29455 0.0
H664 H 0.66767 0.98785 0.3074 0.0
H665 H 0.65183 0.97139 0.20188 0.0
O666 O 0.69955 0.10629 0.29379 0.0
H667 H 0.61782 0.06966 0.35259 0.0
H668 H 0.68314 0.14151 0.29221 0.0
H669 H 0.56901 0.92244 0.29575 0.0
H670 H 0.74513 0.04544 0.20766 0.0
H671 H 0.58351 0.89532 0.2491 0.0
H672 H 0.75139 0.01767 0.26548 0.0
O673 O 0.61067 0.01553 0.24241 0.0
H674 H 0.70085 0.13053 0.14278 0.0
H675 H 0.62217 0.09934 0.24486 0.0
H676 H 0.62314 0.12441 0.17782 0.0
H677 H 0.66272 0.14023 0.12626 0.0
H678 H 0.6989 0.10514 0.21003 0.0
H679 H 0.67302 0.17166 0.33863 0.0
H680 H 0.63453 0.15042 0.39257 0.0
O681 O 0.61859 0.05521 0.27415 0.0
C682 C 0.64965 0.03345 0.34318 0.0
C683 C 0.62359 0.10853 0.37593 0.0
C684 C 0.66076 0.14929 0.34186 0.0
N685 N 0.65096 0.10384 0.31949 0.0
C686 C 0.62986 0.09201 0.34926 0.0
C687 C 0.66643 0.13211 0.31573 0.0
C688 C 0.63916 0.13736 0.37211 0.0
C689 C 0.70273 0.03179 0.22581 0.0
N690 N 0.68133 0.01585 0.25356 0.0
C691 C 0.72823 0.0327 0.22963 0.0
C692 C 0.73174 0.01715 0.26213 0.0
C693 C 0.70982 0.00093 0.2903 0.0
C694 C 0.68462 0.00057 0.28556 0.0
C695 C 0.6187 0.93172 0.22235 0.0
C696 C 0.6027 0.96201 0.27446 0.0
C697 C 0.63369 0.96074 0.22252 0.0
N698 N 0.62572 0.97549 0.2486 0.0
C699 C 0.5872 0.93301 0.27514 0.0
C700 C 0.59533 0.91781 0.24892 0.0
C701 C 0.60246 0.03183 0.25647 0.0
C702 C 0.68352 0.1238 0.16504 0.0
C703 C 0.6394 0.10604 0.22251 0.0
C704 C 0.63988 0.1203 0.18466 0.0
C705 C 0.6621 0.1292 0.15576 0.0
N706 N 0.66049 0.10083 0.2314 0.0
C707 C 0.68236 0.10951 0.20324 0.0
H708 H 0.39284 0.43154 0.23213 0.0
H709 H 0.3386 0.34311 0.2152 0.0
H710 H 0.39879 0.42396 0.30913 0.0
H711 H 0.34444 0.33568 0.29213 0.0
H712 H 0.33935 0.34065 0.44315 0.0
H713 H 0.33256 0.34795 0.36654 0.0
H714 H 0.42127 0.39973 0.3504 0.0
H715 H 0.4282 0.39234 0.42701 0.0
C716 C 0.382 0.41055 0.24491 0.0
C717 C 0.3653 0.38792 0.21761 0.0
C718 C 0.38558 0.40621 0.28884 0.0
C719 C 0.37218 0.37923 0.30642 0.0
C720 C 0.35491 0.3567 0.27942 0.0
C721 C 0.35165 0.36097 0.2354 0.0
C722 C 0.35743 0.35347 0.42322 0.0
C723 C 0.38432 0.36592 0.4411 0.0
C724 C 0.35352 0.35759 0.37938 0.0
C725 C 0.37638 0.37452 0.35271 0.0
C726 C 0.40328 0.38682 0.37044 0.0
C727 C 0.40723 0.3824 0.41415 0.0
H728 H 0.95981 0.38606 0.56164 0.0
H729 H 0.99544 0.33297 0.54532 0.0
H730 H 0.97417 0.39317 0.63823 0.0
H731 H 0.00954 0.33997 0.62192 0.0
H732 H 0.00141 0.33765 0.77369 0.0
H733 H 0.98634 0.32909 0.69756 0.0
H734 H 0.02203 0.41731 0.67679 0.0
H735 H 0.03736 0.42602 0.75286 0.0
C736 C 0.97039 0.37566 0.57451 0.0
C737 C 0.97657 0.35902 0.54749 0.0
C738 C 0.97879 0.37992 0.61818 0.0
C739 C 0.99311 0.36727 0.63575 0.0
C740 C 0.99846 0.34989 0.60915 0.0
C741 C 0.99043 0.34595 0.56535 0.0
C742 C 0.00622 0.35524 0.75281 0.0
C743 C 0.02056 0.38252 0.76922 0.0
C744 C 0.99762 0.35031 0.70928 0.0
C745 C 0.00285 0.37253 0.68154 0.0
C746 C 0.01747 0.39981 0.69774 0.0
C747 C 0.02643 0.40479 0.74112 0.0
H748 H 0.65604 0.01955 0.87408 0.0
H749 H 0.58416 0.94159 0.91105 0.0
H750 H 0.66388 0.03389 0.95043 0.0
H751 H 0.59231 0.956 0.9877 0.0
H752 H 0.63825 0.98123 0.12073 0.0
H753 H 0.63141 0.96725 0.04429 0.0
H754 H 0.63658 0.04491 0.00871 0.0
H755 H 0.64319 0.059 0.08558 0.0
C756 C 0.64204 0.00538 0.89853 0.0
C757 C 0.61948 0.9794 0.88665 0.0
C758 C 0.64644 0.01372 0.94213 0.0
C759 C 0.62865 0.99608 0.97472 0.0
C760 C 0.60638 0.9699 0.96304 0.0
C761 C 0.60169 0.96171 0.91929 0.0
C762 C 0.63811 0.99545 0.09665 0.0
C763 C 0.64127 0.02125 0.10912 0.0
C764 C 0.63399 0.98731 0.05298 0.0
C765 C 0.63336 0.00496 0.02085 0.0
C766 C 0.6371 0.03101 0.03303 0.0
C767 C 0.6408 0.03901 0.0769 0.0
H768 H 0.63338 0.65521 0.20781 0.0
H769 H 0.63909 0.58227 0.23876 0.0
H770 H 0.62578 0.66056 0.28481 0.0
H771 H 0.63175 0.58792 0.31606 0.0
H772 H 0.65332 0.63202 0.45177 0.0
H773 H 0.65961 0.62555 0.37472 0.0
H774 H 0.5874 0.63205 0.34246 0.0
H775 H 0.5808 0.63827 0.4199 0.0
C776 C 0.63315 0.6404 0.23109 0.0
C777 C 0.63691 0.61834 0.21733 0.0
C778 C 0.62858 0.64337 0.27505 0.0
C779 C 0.62812 0.62462 0.30617 0.0
C780 C 0.63213 0.60271 0.29258 0.0
C781 C 0.63625 0.59945 0.24845 0.0
C782 C 0.6388 0.63214 0.42828 0.0
C783 C 0.61658 0.63571 0.44181 0.0
C784 C 0.64231 0.62823 0.38427 0.0
C785 C 0.62395 0.62824 0.35284 0.0
C786 C 0.60189 0.63208 0.36618 0.0
C787 C 0.59808 0.63554 0.41038 0.0
H788 H 0.96282 0.57431 0.755 0.0
H789 H 0.00069 0.66305 0.77382 0.0
H790 H 0.97828 0.58207 0.67899 0.0
H791 H 0.01589 0.67067 0.69771 0.0
H792 H 0.04078 0.61104 0.56425 0.0
H793 H 0.02628 0.60492 0.64077 0.0
H794 H 0.99281 0.65956 0.62185 0.0
H795 H 0.00703 0.66557 0.54534 0.0
C796 C 0.97419 0.59543 0.74282 0.0
C797 C 0.98057 0.61807 0.77036 0.0
C798 C 0.98323 0.59985 0.69948 0.0
C799 C 0.99843 0.62696 0.68272 0.0
C800 C 0.00415 0.64956 0.70987 0.0
C801 C 0.99547 0.64518 0.75338 0.0
C802 C 0.03058 0.62197 0.57653 0.0
C803 C 0.02497 0.63872 0.54881 0.0
C804 C 0.02211 0.61828 0.62017 0.0
C805 C 0.00827 0.63162 0.63698 0.0
C806 C 0.0035 0.64911 0.60967 0.0
C807 C 0.01159 0.65248 0.56592 0.0
H808 H 0.38849 0.96003 0.09615 0.0
H809 H 0.33537 0.99561 0.11249 0.0
H810 H 0.39504 0.97378 0.01926 0.0
H811 H 0.34183 0.00913 0.03565 0.0
H812 H 0.33781 0.99996 0.88447 0.0
H813 H 0.33018 0.98547 0.96089 0.0
H814 H 0.41858 0.02071 0.97874 0.0
H815 H 0.42635 0.03542 0.90233 0.0
C816 C 0.378 0.97051 0.08325 0.0
C817 C 0.36146 0.97679 0.11036 0.0
C818 C 0.38193 0.97856 0.03939 0.0
C819 C 0.36906 0.99265 0.02169 0.0
C820 C 0.3519 0.9982 0.04846 0.0
C821 C 0.34828 0.99052 0.09243 0.0
C822 C 0.35564 0.00476 0.90474 0.0
C823 C 0.38269 0.01884 0.8874 0.0
C824 C 0.35125 0.99651 0.94846 0.0
C825 C 0.37378 0.00183 0.97555 0.0
C826 C 0.40084 0.01608 0.95836 0.0
C827 C 0.40528 0.02469 0.91477 0.0
H828 H 0.15841 0.42156 0.93595 0.0
H829 H 0.10716 0.34082 0.99475 0.0
H830 H 0.19971 0.41899 0.95286 0.0
H831 H 0.1491 0.33842 0.01201 0.0
H832 H 0.23595 0.34092 0.99506 0.0
H833 H 0.19123 0.3375 0.97712 0.0
H834 H 0.22222 0.42113 0.0243 0.0
H835 H 0.26642 0.42468 0.04187 0.0
C836 C 0.15589 0.40314 0.95232 0.0
C837 C 0.12945 0.38156 0.96459 0.0
C838 C 0.17964 0.40174 0.96214 0.0
C839 C 0.17766 0.37874 0.98447 0.0
C840 C 0.1512 0.35642 0.99483 0.0
C841 C 0.12724 0.35784 0.98503 0.0
C842 C 0.23306 0.35844 0.00193 0.0
C843 C 0.25491 0.38321 0.0193 0.0
C844 C 0.20747 0.35644 0.99175 0.0
C845 C 0.20346 0.37923 -0.00139 0.0
C846 C 0.22491 0.40344 0.01772 0.0
C847 C 0.25025 0.40542 0.02794 0.0
H848 H 0.892 0.22763 0.36784 0.0
H849 H 0.85041 0.26957 0.31599 0.0
H850 H 0.84953 0.18259 0.35627 0.0
H851 H 0.80895 0.22526 0.30306 0.0
H852 H 0.72971 0.15033 0.33682 0.0
H853 H 0.77421 0.19152 0.34962 0.0
H854 H 0.81625 0.14888 0.30236 0.0
H855 H 0.77096 0.10669 0.29088 0.0
C856 C 0.87396 0.22718 0.35346 0.0
C857 C 0.87428 0.25206 0.3436 0.0
C858 C 0.84972 0.20146 0.34672 0.0
C859 C 0.82564 0.20036 0.32968 0.0
C860 C 0.82676 0.22532 0.31762 0.0
C861 C 0.85062 0.25078 0.32486 0.0
C862 C 0.74839 0.14961 0.32922 0.0
C863 C 0.74686 0.12544 0.31216 0.0
C864 C 0.77397 0.17332 0.33637 0.0
C865 C 0.79883 0.17378 0.32594 0.0
C866 C 0.79746 0.14921 0.31061 0.0
C867 C 0.7716 0.12513 0.30394 0.0
H868 H 0.6616 0.8955 0.66168 0.0
H869 H 0.58 0.84218 0.71634 0.0
H870 H 0.66536 0.85429 0.64424 0.0
H871 H 0.58388 0.80168 0.69905 0.0
H872 H 0.58134 0.73709 0.60882 0.0
H873 H 0.58428 0.78112 0.62556 0.0
H874 H 0.6658 0.8114 0.68126 0.0
H875 H 0.66298 0.76678 0.66435 0.0
C876 C 0.64466 0.87513 0.67039 0.0
C877 C 0.62033 0.87213 0.68979 0.0
C878 C 0.64686 0.85161 0.6605 0.0
C879 C 0.6247 0.82483 0.66963 0.0
C880 C 0.60104 0.82204 0.69082 0.0
C881 C 0.59889 0.84534 0.70081 0.0
C882 C 0.60004 0.75307 0.62441 0.0
C883 C 0.62176 0.7482 0.6359 0.0
C884 C 0.60166 0.77832 0.63407 0.0
C885 C 0.62504 0.79947 0.65541 0.0
C886 C 0.64751 0.79536 0.66488 0.0
C887 C 0.64585 0.76985 0.65529 0.0
H888 H 0.76846 0.66438 0.9929 0.0
H889 H 0.73961 0.58386 0.05215 0.0
H890 H 0.81287 0.66694 0.97537 0.0
H891 H 0.78346 0.58654 0.03483 0.0
H892 H 0.84361 0.58066 0.94399 0.0
H893 H 0.8032 0.58458 0.96179 0.0
H894 H 0.85624 0.66752 0.01116 0.0
H895 H 0.89733 0.66373 0.99312 0.0
C896 C 0.77168 0.64745 0.00266 0.0
C897 C 0.75031 0.62372 0.02327 0.0
C898 C 0.79708 0.64896 0.99269 0.0
C899 C 0.80136 0.6267 0.00304 0.0
C900 C 0.78051 0.60373 0.0256 0.0
C901 C 0.75537 0.60226 0.03561 0.0
C902 C 0.84687 0.59987 0.95842 0.0
C903 C 0.87377 0.62174 0.96771 0.0
C904 C 0.82363 0.60205 0.96874 0.0
C905 C 0.82657 0.62616 0.98855 0.0
C906 C 0.85342 0.64868 -0.00402 0.0
C907 C 0.87688 0.64645 0.98575 0.0
H908 H 0.1544 0.72839 0.32523 0.0
H909 H 0.10936 0.76934 0.36581 0.0
H910 H 0.19559 0.77297 0.31313 0.0
H911 H 0.15151 0.8147 0.35507 0.0
H912 H 0.22999 0.89013 0.28924 0.0
H913 H 0.18529 0.84747 0.30159 0.0
H914 H 0.22881 0.80873 0.35836 0.0
H915 H 0.27285 0.85039 0.34452 0.0
C916 C 0.15337 0.74701 0.33191 0.0
C917 C 0.12875 0.74536 0.34711 0.0
C918 C 0.17709 0.77265 0.32517 0.0
C919 C 0.17711 0.79748 0.33414 0.0
C920 C 0.15219 0.79596 0.34791 0.0
C921 C 0.12812 0.77005 0.35419 0.0
C922 C 0.2298 0.87246 0.3046 0.0
C923 C 0.25484 0.87333 0.31518 0.0
C924 C 0.20426 0.84811 0.31179 0.0
C925 C 0.2035 0.82446 0.33006 0.0
C926 C 0.22861 0.82617 0.34287 0.0
C927 C 0.25391 0.85014 0.33514 0.0
H928 H 0.42304 0.15857 0.7135 0.0
H929 H 0.33891 0.10538 0.66818 0.0
H930 H 0.41961 0.19923 0.69544 0.0
H931 H 0.33562 0.14668 0.64973 0.0
H932 H 0.33927 0.23421 0.66628 0.0
H933 H 0.33686 0.18992 0.68398 0.0
H934 H 0.41713 0.21936 0.62407 0.0
H935 H 0.41971 0.26318 0.60675 0.0
C936 C 0.40372 0.15549 0.69981 0.0
C937 C 0.38137 0.12865 0.69175 0.0
C938 C 0.40182 0.17887 0.68929 0.0
C939 C 0.37753 0.17614 0.67046 0.0
C940 C 0.35462 0.14937 0.66414 0.0
C941 C 0.35655 0.12577 0.6746 0.0
C942 C 0.35621 0.23103 0.65649 0.0
C943 C 0.37986 0.2524 0.63573 0.0
C944 C 0.35479 0.20569 0.66655 0.0
C945 C 0.37704 0.20143 0.65611 0.0
C946 C 0.39995 0.22228 0.63343 0.0
C947 C 0.40136 0.2474 0.62338 0.0
H948 H 0.33918 0.35361 0.70312 0.0
H949 H 0.40705 0.34308 0.74882 0.0
H950 H 0.32916 0.36056 0.77774 0.0
H951 H 0.39735 0.35074 0.82355 0.0
H952 H 0.35829 0.34278 0.95662 0.0
H953 H 0.36397 0.33103 0.88237 0.0
H954 H 0.35006 0.39602 0.83323 0.0
H955 H 0.34369 0.40742 0.90754 0.0
C956 C 0.35192 0.35264 0.72905 0.0
C957 C 0.374 0.34783 0.71983 0.0
C958 C 0.34627 0.35684 0.77187 0.0
C959 C 0.36257 0.35645 0.8066 0.0
C960 C 0.38419 0.3509 0.7976 0.0
C961 C 0.38981 0.34659 0.75469 0.0
C962 C 0.35619 0.35447 0.93005 0.0
C963 C 0.35051 0.37609 0.93819 0.0
C964 C 0.35966 0.34782 0.88742 0.0
C965 C 0.3576 0.36265 0.85184 0.0
C966 C 0.35144 0.38394 0.85987 0.0
C967 C 0.34789 0.39056 0.90254 0.0
H968 H 0.93881 0.3197 0.24031 0.0
H969 H 0.02056 0.3812 0.28475 0.0
H970 H 0.95611 0.32581 0.16574 0.0
H971 H 0.03753 0.3888 0.21018 0.0
H972 H 0.06691 0.38497 0.07446 0.0
H973 H 0.05039 0.37306 0.14955 0.0
H974 H 0.96897 0.35667 0.10864 0.0
H975 H 0.98504 0.36676 0.03395 0.0
C976 C 0.96045 0.33467 0.23401 0.0
C977 C 0.9783 0.35003 0.26826 0.0
C978 C 0.97039 0.33837 0.19121 0.0
C979 C 0.99824 0.35807 0.18154 0.0
C980 C 0.01612 0.37311 0.21615 0.0
C981 C 0.00633 0.36891 0.25902 0.0
C982 C 0.04546 0.37863 0.08172 0.0
C983 C 0.02726 0.37671 0.04837 0.0
C984 C 0.03597 0.37194 0.12478 0.0
C985 C 0.00824 0.36381 0.13548 0.0
C986 C 0.99021 0.36209 0.10184 0.0
C987 C 0.99951 0.36814 0.05885 0.0
H988 H 0.62895 0.01476 0.62288 0.0
H989 H 0.61312 0.93394 0.58065 0.0
H990 H 0.6384 0.03137 0.54838 0.0
H991 H 0.62428 0.95104 0.50572 0.0
H992 H 0.67619 0.06264 0.41664 0.0
H993 H 0.66977 0.04518 0.49123 0.0
H994 H 0.60719 0.96377 0.44616 0.0
H995 H 0.61493 0.98087 0.37176 0.0
C996 C 0.62789 0.00062 0.59763 0.0
C997 C 0.62024 0.97302 0.60757 0.0
C998 C 0.63357 0.01025 0.5548 0.0
C999 C 0.63232 0.99268 0.52079 0.0
C1000 C 0.625 0.96508 0.53088 0.0
C1001 C 0.61873 0.95526 0.5738 0.0
C1002 C 0.66118 0.04101 0.42283 0.0
C1003 C 0.64605 0.02316 0.38844 0.0
C1004 C 0.65734 0.03097 0.46559 0.0
C1005 C 0.63781 0.00301 0.47498 0.0
C1006 C 0.6228 0.98523 0.44032 0.0
C1007 C 0.62707 0.99512 0.39756 0.0
H1008 H 0.59526 0.6587 0.7503 0.0
H1009 H 0.66046 0.64444 0.70287 0.0
H1010 H 0.60617 0.65221 0.82498 0.0
H1011 H 0.67169 0.6387 0.7773 0.0
H1012 H 0.65898 0.59523 0.91028 0.0
H1013 H 0.65138 0.60493 0.83548 0.0
H1014 H 0.64146 0.67309 0.88106 0.0
H1015 H 0.64834 0.6631 0.9557 0.0
C1016 C 0.61214 0.65457 0.75575 0.0
C1017 C 0.6269 0.65204 0.72048 0.0
C1018 C 0.61847 0.65095 0.79858 0.0
C1019 C 0.63974 0.64481 0.80706 0.0
C1020 C 0.6549 0.64294 0.77186 0.0
C1021 C 0.64854 0.64646 0.72913 0.0
C1022 C 0.65545 0.61245 0.90433 0.0
C1023 C 0.6542 0.62829 0.93911 0.0
C1024 C 0.65116 0.61807 0.86142 0.0
C1025 C 0.64565 0.6397 0.85235 0.0
C1026 C 0.64517 0.65599 0.887 0.0
C1027 C 0.64935 0.65034 0.92982 0.0
H1028 H 0.98257 0.61602 0.28509 0.0
H1029 H 0.06409 0.67894 0.24205 0.0
H1030 H 0.96568 0.60951 0.21057 0.0
H1031 H 0.04684 0.67391 0.16757 0.0
H1032 H 0.93574 0.61545 0.07663 0.0
H1033 H 0.95249 0.62628 0.1517 0.0
H1034 H 0.0341 0.64442 0.10867 0.0
H1035 H 0.01778 0.63543 0.03402 0.0
C1036 C 0.99677 0.62882 0.25968 0.0
C1037 C 0.02471 0.64784 0.2693 0.0
C1038 C 0.98702 0.62527 0.21685 0.0
C1039 C 0.00482 0.6411 0.18265 0.0
C1040 C 0.03261 0.6608 0.19269 0.0
C1041 C 0.04253 0.66387 0.23545 0.0
C1042 C 0.95729 0.62197 0.0834 0.0
C1043 C 0.97544 0.62465 0.04947 0.0
C1044 C 0.96692 0.62802 0.12646 0.0
C1045 C 0.99474 0.63624 0.1366 0.0
C1046 C 0.01277 0.63885 0.10236 0.0
C1047 C 0.00332 0.63344 0.05937 0.0
H1048 H 0.34466 0.93867 0.42036 0.0
H1049 H 0.35848 0.01772 0.37163 0.0
H1050 H 0.35148 0.95646 0.49463 0.0
H1051 H 0.36474 0.0352 0.44603 0.0
H1052 H 0.4083 0.06554 0.58008 0.0
H1053 H 0.39861 0.04862 0.50505 0.0
H1054 H 0.32988 0.97076 0.54987 0.0
H1055 H 0.33979 0.98726 0.62469 0.0
C1056 C 0.34884 0.95972 0.42543 0.0
C1057 C 0.35102 0.97672 0.38989 0.0
C1058 C 0.35264 0.96988 0.46808 0.0
C1059 C 0.35866 0.99726 0.47624 0.0
C1060 C 0.36047 0.01414 0.4408 0.0
C1061 C 0.35669 0.004 0.39814 0.0
C1062 C 0.39096 0.04491 0.57392 0.0
C1063 C 0.37494 0.02775 0.60855 0.0
C1064 C 0.38534 0.03525 0.53087 0.0
C1065 C 0.36359 0.00825 0.52154 0.0
C1066 C 0.34709 0.99146 0.55603 0.0
C1067 C 0.3527 0.00105 0.59897 0.0
H1068 H 0.44271 0.42422 0.09502 0.0
H1069 H 0.42567 0.48549 0.03814 0.0
H1070 H 0.49212 0.45893 0.09792 0.0
H1071 H 0.47479 0.51976 0.04075 0.0
H1072 H 0.57974 0.51931 0.04432 0.0
H1073 H 0.53061 0.48484 0.0461 0.0
H1074 H 0.51193 0.54688 0.09374 0.0
H1075 H 0.56127 0.58172 0.09164 0.0
C1076 C 0.44942 0.445 0.08315 0.0
C1077 C 0.43012 0.45199 0.06644 0.0
C1078 C 0.47774 0.46485 0.08468 0.0
C1079 C 0.48732 0.49211 0.06971 0.0
C1080 C 0.46803 0.49908 0.05318 0.0
C1081 C 0.43982 0.47929 0.05146 0.0
C1082 C 0.56527 0.52572 0.05538 0.0
C1083 C 0.57456 0.5534 0.06785 0.0
C1084 C 0.53707 0.50583 0.05663 0.0
C1085 C 0.5174 0.5131 0.07016 0.0
C1086 C 0.5266 0.54071 0.08279 0.0
C1087 C 0.55488 0.56064 0.08173 0.0
H1088 H 0.06112 0.57506 0.37352 0.0
H1089 H 0.9825 0.55849 0.42836 0.0
H1090 H 0.04612 0.52588 0.37689 0.0
H1091 H 0.96759 0.50902 0.43174 0.0
H1092 H 0.94074 0.42203 0.37395 0.0
H1093 H 0.9557 0.4712 0.37773 0.0
H1094 H 0.03469 0.48808 0.4307 0.0
H1095 H 0.01981 0.43863 0.4269 0.0
C1096 C 0.0407 0.56101 0.38662 0.0
C1097 C 0.02303 0.57084 0.40071 0.0
C1098 C 0.03219 0.53279 0.38876 0.0
C1099 C 0.00574 0.51361 0.4047 0.0
C1100 C 0.98805 0.52334 0.41902 0.0
C1101 C 0.99664 0.55168 0.4172 0.0
C1102 C 0.96125 0.43609 0.38672 0.0
C1103 C 0.97906 0.42627 0.40014 0.0
C1104 C 0.96974 0.4643 0.3891 0.0
C1105 C 0.99631 0.48348 0.40461 0.0
C1106 C 0.01413 0.47376 0.4183 0.0
C1107 C 0.00556 0.44543 0.41624 0.0
H1108 H 0.57525 0.01569 0.76917 0.0
H1109 H 0.5143 0.93688 0.71355 0.0
H1110 H 0.54047 0.03021 0.77137 0.0
H1111 H 0.47979 0.95164 0.71537 0.0
H1112 H 0.41827 0.97863 0.76276 0.0
H1113 H 0.45224 0.96292 0.76618 0.0
H1114 H 0.51576 0.04261 0.71758 0.0
H1115 H 0.48225 0.05843 0.71448 0.0
C1116 C 0.55447 0.00142 0.75754 0.0
C1117 C 0.54766 0.97512 0.74112 0.0
C1118 C 0.53457 0.00981 0.75862 0.0
C1119 C 0.5074 0.99209 0.74344 0.0
C1120 C 0.50044 0.96564 0.72776 0.0
C1121 C 0.52034 0.95727 0.72651 0.0
C1122 C 0.43949 0.99282 0.75289 0.0
C1123 C 0.44747 0.01984 0.73848 0.0
C1124 C 0.45892 0.98377 0.75471 0.0
C1125 C 0.48672 0.00159 0.74238 0.0
C1126 C 0.49463 0.02855 0.72802 0.0
C1127 C 0.47528 0.03754 0.72601 0.0
H1128 H 0.57845 0.55891 0.56547 0.0
H1129 H 0.51735 0.57747 0.61853 0.0
H1130 H 0.54334 0.50967 0.56306 0.0
H1131 H 0.4826 0.52843 0.61645 0.0
H1132 H 0.48253 0.42298 0.61752 0.0
H1133 H 0.51697 0.47205 0.61562 0.0
H1134 H 0.45554 0.49051 0.56431 0.0
H1135 H 0.42066 0.44112 0.56652 0.0
C1136 C 0.55761 0.55256 0.5766 0.0
C1137 C 0.55081 0.57224 0.59215 0.0
C1138 C 0.53751 0.52434 0.57536 0.0
C1139 C 0.51018 0.51518 0.58949 0.0
C1140 C 0.50335 0.53485 0.60474 0.0
C1141 C 0.5234 0.563 0.60616 0.0
C1142 C 0.47623 0.43737 0.60565 0.0
C1143 C 0.44872 0.42798 0.59209 0.0
C1144 C 0.49612 0.46555 0.60433 0.0
C1145 C 0.48904 0.48515 0.58963 0.0
C1146 C 0.46156 0.47589 0.57612 0.0
C1147 C 0.44161 0.44759 0.57725 0.0
H1148 H 0.94 0.51705 0.94464 0.0
H1149 H 0.01946 0.57907 0.89235 0.0
H1150 H 0.95494 0.48274 0.94218 0.0
H1151 H 0.03425 0.54444 0.88971 0.0
H1152 H 0.06076 0.48395 0.94514 0.0
H1153 H 0.04564 0.5181 0.94294 0.0
H1154 H 0.96672 0.45652 0.88914 0.0
H1155 H 0.98172 0.42202 0.8915 0.0
C1156 C 0.9606 0.52339 0.93235 0.0
C1157 C 0.97852 0.55091 0.91867 0.0
C1158 C 0.96907 0.50361 0.93073 0.0
C1159 C 0.99573 0.51086 0.91569 0.0
C1160 C 0.01365 0.5383 0.90183 0.0
C1161 C 0.00512 0.5581 0.90319 0.0
C1162 C 0.04021 0.47759 0.93261 0.0
C1163 C 0.02248 0.45015 0.91842 0.0
C1164 C 0.03162 0.49729 0.93115 0.0
C1165 C 0.00504 0.49004 0.91574 0.0
C1166 C 0.98727 0.46265 0.9015 0.0
C1167 C 0.99591 0.44293 0.9027 0.0
H1168 H 0.57749 0.06178 0.27937 0.0
H1169 H 0.55973 0.98264 0.22514 0.0
H1170 H 0.52841 0.04734 0.27635 0.0
H1171 H 0.51048 0.96839 0.2218 0.0
H1172 H 0.4245 0.94131 0.28115 0.0
H1173 H 0.47359 0.9566 0.27606 0.0
H1174 H 0.48957 0.03581 0.22533 0.0
H1175 H 0.44006 0.0206 0.23069 0.0
C1176 C 0.56321 0.04139 0.26639 0.0
C1177 C 0.57264 0.02333 0.25264 0.0
C1178 C 0.53504 0.03321 0.26442 0.0
C1179 C 0.51558 0.00674 0.24888 0.0
C1180 C 0.52499 0.98884 0.23437 0.0
C1181 C 0.55322 0.99705 0.23614 0.0
C1182 C 0.43831 0.96197 0.26864 0.0
C1183 C 0.4282 0.97972 0.25631 0.0
C1184 C 0.46652 0.97064 0.26546 0.0
C1185 C 0.48544 0.99733 0.25007 0.0
C1186 C 0.47546 0.01515 0.23757 0.0
C1187 C 0.4471 0.00641 0.24054 0.0
loop_
_geom_bond_atom_site_label_1
_geom_bond_atom_site_label_2
_geom_bond_distance
_geom_bond_site_symmetry_2
_ccdc_geom_bond_type
Co0 O2 2.143 . S
Co0 O8 2.074 . S
Co0 O11 2.093 . S
Co0 O24 2.097 . S
Co0 N41 2.151 . S
Co0 N49 2.214 . S
Co1 O2 2.160 . S
Co1 O7 2.058 1_554 S
Co1 O17 2.057 . S
Co1 O32 2.037 . S
Co1 N36 2.145 1_554 S
Co1 N57 2.257 . S
O2 Co0 2.143 . S
O2 Co1 2.160 . S
C3 O4 1.278 . S
C3 O11 1.224 . S
O4 C3 1.278 . S
C5 O6 1.245 . S
C5 O17 1.232 . S
O6 C5 1.245 . S
O7 Co1 2.058 1_556 S
O7 C33 1.269 . S
O8 Co0 2.074 . S
O8 C33 1.257 1_554 S
H9 C34 0.930 . S
H10 C40 0.930 . S
O11 Co0 2.093 . S
O11 C3 1.224 . S
H12 C44 0.929 . S
H13 C46 0.930 . S
H14 C47 0.930 . S
H15 C45 0.929 . S
H16 C48 0.928 . S
O17 Co1 2.057 . S
O17 C5 1.232 . S
H18 C37 0.929 . S
H19 C38 0.929 . S
H20 C50 0.931 . S
H21 C42 0.929 . S
H22 C51 0.930 . S
H23 C43 0.931 . S
O24 Co0 2.097 . S
O24 C52 1.214 . S
H25 C53 0.929 . S
H26 C54 0.929 . S
H27 C55 0.930 . S
H28 C56 0.929 . S
H29 C58 0.930 . S
H30 C35 0.930 . S
H31 C39 0.930 . S
O32 Co1 2.037 . S
O32 C52 1.234 . S
C33 O7 1.269 . S
C33 O8 1.257 1_556 S
C34 H9 0.930 . S
C34 C37 1.388 . S
C34 C39 1.418 . S
C35 H30 0.930 . S
C35 C38 1.404 . S
C35 C39 1.353 . S
N36 Co1 2.145 1_556 S
N36 C37 1.397 . S
N36 C38 1.334 . S
C37 H18 0.929 . S
C37 C34 1.388 . S
C37 N36 1.397 . S
C38 H19 0.929 . S
C38 C35 1.404 . S
C38 N36 1.334 . S
C39 H31 0.930 . S
C39 C34 1.418 . S
C39 C35 1.353 . S
C40 H10 0.930 . S
C40 N41 1.330 . S
C40 C42 1.446 . S
N41 Co0 2.151 . S
N41 C40 1.330 . S
N41 C45 1.418 . S
C42 H21 0.929 . S
C42 C40 1.446 . S
C42 C43 1.332 . S
C43 H23 0.931 . S
C43 C42 1.332 . S
C43 C44 1.267 . S
C44 H12 0.929 . S
C44 C43 1.267 . S
C44 C45 1.251 . S
C45 H15 0.929 . S
C45 N41 1.418 . S
C45 C44 1.251 . S
C46 H13 0.930 . S
C46 C48 1.406 . S
C46 C51 1.261 . S
C47 H14 0.930 . S
C47 N49 1.325 . S
C47 C50 1.357 . S
C48 H16 0.928 . S
C48 C46 1.406 . S
C48 N49 1.261 . S
N49 Co0 2.214 . S
N49 C47 1.325 . S
N49 C48 1.261 . S
C50 H20 0.931 . S
C50 C47 1.357 . S
C50 C51 1.312 . S
C51 H22 0.930 . S
C51 C46 1.261 . S
C51 C50 1.312 . S
C52 O24 1.214 . S
C52 O32 1.234 . S
C53 H25 0.929 . S
C53 C56 1.391 . S
C53 C58 1.391 . S
C54 H26 0.929 . S
C54 C55 1.390 . S
C54 N57 1.391 . S
C55 H27 0.930 . S
C55 C54 1.390 . S
C55 C56 1.392 . S
C56 H28 0.929 . S
C56 C53 1.391 . S
C56 C55 1.392 . S
N57 Co1 2.257 . S
N57 C54 1.391 . S
N57 C58 1.388 . S
C58 H29 0.930 . S
C58 C53 1.391 . S
C58 N57 1.388 . S
Co59 O61 2.143 . S
Co59 O67 2.074 . S
Co59 O70 2.094 . S
Co59 O83 2.097 . S
Co59 N100 2.151 1_655 S
Co59 N108 2.214 1_655 S
Co60 O61 2.160 . S
Co60 O66 2.058 . S
Co60 O76 2.057 . S
Co60 O91 2.037 . S
Co60 N95 2.145 . S
Co60 N116 2.257 . S
O61 Co59 2.143 . S
O61 Co60 2.160 . S
C62 O63 1.278 . S
C62 O70 1.242 . S
O63 C62 1.278 . S
C64 O65 1.245 . S
C64 O76 1.232 . S
O65 C64 1.245 . S
O66 Co60 2.058 . S
O66 C92 1.269 . S
O67 Co59 2.074 . S
O67 C92 1.257 . S
H68 C93 0.930 . S
H69 C99 0.904 1_655 S
O70 Co59 2.094 . S
O70 C62 1.242 . S
H71 C103 0.929 . S
H72 C105 0.930 . S
H73 C106 0.930 . S
H74 C104 0.929 . S
H75 C107 0.928 . S
O76 Co60 2.057 . S
O76 C64 1.232 . S
H77 C96 0.929 . S
H78 C97 0.929 . S
H79 C109 0.931 . S
H80 C101 0.929 . S
H81 C110 0.930 . S
H82 C102 0.931 . S
O83 Co59 2.097 . S
O83 C111 1.214 . S
H84 C112 0.929 . S
H85 C113 0.929 . S
H86 C114 0.930 . S
H87 C115 0.929 . S
H88 C117 0.930 . S
H89 C94 0.930 . S
H90 C98 0.930 . S
O91 Co60 2.037 . S
O91 C111 1.234 . S
C92 O66 1.269 . S
C92 O67 1.257 . S
C93 H68 0.930 . S
C93 C96 1.388 . S
C93 C98 1.418 . S
C94 H89 0.930 . S
C94 C97 1.404 . S
C94 C98 1.353 . S
N95 Co60 2.145 . S
N95 C96 1.397 . S
N95 C97 1.334 . S
C96 H77 0.929 . S
C96 C93 1.388 . S
C96 N95 1.397 . S
C97 H78 0.929 . S
C97 C94 1.404 . S
C97 N95 1.334 . S
C98 H90 0.930 . S
C98 C93 1.418 . S
C98 C94 1.353 . S
C99 H69 0.904 1_455 S
C99 N100 1.328 . S
C99 C101 1.474 . S
N100 Co59 2.151 1_455 S
N100 C99 1.328 . S
N100 C104 1.418 . S
C101 H80 0.929 . S
C101 C99 1.474 . S
C101 C102 1.332 . S
C102 H82 0.931 . S
C102 C101 1.332 . S
C102 C103 1.267 . S
C103 H71 0.929 . S
C103 C102 1.267 . S
C103 C104 1.251 . S
C104 H74 0.929 . S
C104 N100 1.418 . S
C104 C103 1.251 . S
C105 H72 0.930 . S
C105 C107 1.406 . S
C105 C110 1.261 . S
C106 H73 0.930 . S
C106 N108 1.325 . S
C106 C109 1.357 . S
C107 H75 0.928 . S
C107 C105 1.406 . S
C107 N108 1.261 . S
N108 Co59 2.214 1_455 S
N108 C106 1.325 . S
N108 C107 1.261 . S
C109 H79 0.931 . S
C109 C106 1.357 . S
C109 C110 1.312 . S
C110 H81 0.930 . S
C110 C105 1.261 . S
C110 C109 1.312 . S
C111 O83 1.214 . S
C111 O91 1.234 . S
C112 H84 0.929 . S
C112 C115 1.391 . S
C112 C117 1.391 . S
C113 H85 0.929 . S
C113 C114 1.390 . S
C113 N116 1.391 . S
C114 H86 0.930 . S
C114 C113 1.390 . S
C114 C115 1.392 . S
C115 H87 0.929 . S
C115 C112 1.391 . S
C115 C114 1.392 . S
N116 Co60 2.257 . S
N116 C113 1.391 . S
N116 C117 1.388 . S
C117 H88 0.930 . S
C117 C112 1.391 . S
C117 N116 1.388 . S
Co118 O120 2.143 . S
Co118 O126 2.074 . S
Co118 O129 2.092 . S
Co118 O142 2.097 . S
Co118 N159 2.151 1_565 S
Co118 N167 2.214 1_565 S
Co119 O120 2.160 . S
Co119 O125 2.058 . S
Co119 O135 2.057 . S
Co119 O150 2.037 . S
Co119 N154 2.145 . S
Co119 N175 2.257 . S
O120 Co118 2.143 . S
O120 Co119 2.160 . S
C121 O122 1.278 . S
C121 O129 1.245 . S
O122 C121 1.278 . S
C123 O124 1.245 . S
C123 O135 1.232 . S
O124 C123 1.245 . S
O125 Co119 2.058 . S
O125 C151 1.269 . S
O126 Co118 2.074 . S
O126 C151 1.257 . S
H127 C152 0.930 . S
H128 C158 0.915 1_565 S
O129 Co118 2.092 . S
O129 C121 1.245 . S
H130 C162 0.929 . S
H131 C164 0.930 . S
H132 C165 0.930 . S
H133 C163 0.929 . S
H134 C166 0.928 . S
O135 Co119 2.057 . S
O135 C123 1.232 . S
H136 C155 0.929 . S
H137 C156 0.929 . S
H138 C168 0.931 . S
H139 C160 0.929 . S
H140 C169 0.930 . S
H141 C161 0.931 . S
O142 Co118 2.097 . S
O142 C170 1.214 . S
H143 C171 0.929 . S
H144 C172 0.929 . S
H145 C173 0.930 . S
H146 C174 0.929 . S
H147 C176 0.930 . S
H148 C153 0.930 . S
H149 C157 0.930 . S
O150 Co119 2.037 . S
O150 C170 1.234 . S
C151 O125 1.269 . S
C151 O126 1.257 . S
C152 H127 0.930 . S
C152 C155 1.388 . S
C152 C157 1.418 . S
C153 H148 0.930 . S
C153 C156 1.404 . S
C153 C157 1.353 . S
N154 Co119 2.145 . S
N154 C155 1.397 . S
N154 C156 1.334 . S
C155 H136 0.929 . S
C155 C152 1.388 . S
C155 N154 1.397 . S
C156 H137 0.929 . S
C156 C153 1.404 . S
C156 N154 1.334 . S
C157 H149 0.930 . S
C157 C152 1.418 . S
C157 C153 1.353 . S
C158 H128 0.915 1_545 S
C158 N159 1.353 . S
C158 C160 1.438 . S
N159 Co118 2.151 1_545 S
N159 C158 1.353 . S
N159 C163 1.418 . S
C160 H139 0.929 . S
C160 C158 1.438 . S
C160 C161 1.332 . S
C161 H141 0.931 . S
C161 C160 1.332 . S
C161 C162 1.267 . S
C162 H130 0.929 . S
C162 C161 1.267 . S
C162 C163 1.251 . S
C163 H133 0.929 . S
C163 N159 1.418 . S
C163 C162 1.251 . S
C164 H131 0.930 . S
C164 C166 1.406 . S
C164 C169 1.261 . S
C165 H132 0.930 . S
C165 N167 1.325 . S
C165 C168 1.357 . S
C166 H134 0.928 . S
C166 C164 1.406 . S
C166 N167 1.261 . S
N167 Co118 2.214 1_545 S
N167 C165 1.325 . S
N167 C166 1.261 . S
C168 H138 0.931 . S
C168 C165 1.357 . S
C168 C169 1.312 . S
C169 H140 0.930 . S
C169 C164 1.261 . S
C169 C168 1.312 . S
C170 O142 1.214 . S
C170 O150 1.234 . S
C171 H143 0.929 . S
C171 C174 1.391 . S
C171 C176 1.391 . S
C172 H144 0.929 . S
C172 C173 1.390 . S
C172 N175 1.391 . S
C173 H145 0.930 . S
C173 C172 1.390 . S
C173 C174 1.392 . S
C174 H146 0.929 . S
C174 C171 1.391 . S
C174 C173 1.392 . S
N175 Co119 2.257 . S
N175 C172 1.391 . S
N175 C176 1.388 . S
C176 H147 0.930 . S
C176 C171 1.391 . S
C176 N175 1.388 . S
Co177 O179 2.143 . S
Co177 O185 2.074 . S
Co177 O188 2.093 . S
Co177 O201 2.097 . S
Co177 N218 2.151 . S
Co177 N226 2.214 . S
Co178 O179 2.160 . S
Co178 O184 2.058 1_554 S
Co178 O194 2.057 . S
Co178 O209 2.037 . S
Co178 N213 2.145 1_554 S
Co178 N234 2.257 . S
O179 Co177 2.143 . S
O179 Co178 2.160 . S
C180 O181 1.278 . S
C180 O188 1.224 . S
O181 C180 1.278 . S
C182 O183 1.245 . S
C182 O194 1.232 . S
O183 C182 1.245 . S
O184 Co178 2.058 1_556 S
O184 C210 1.269 . S
O185 Co177 2.074 . S
O185 C210 1.257 1_554 S
H186 C211 0.930 . S
H187 C217 0.930 . S
O188 Co177 2.093 . S
O188 C180 1.224 . S
H189 C221 0.929 . S
H190 C223 0.930 . S
H191 C224 0.930 . S
H192 C222 0.929 . S
H193 C225 0.928 . S
O194 Co178 2.057 . S
O194 C182 1.232 . S
H195 C214 0.929 . S
H196 C215 0.929 . S
H197 C227 0.931 . S
H198 C219 0.929 . S
H199 C228 0.930 . S
H200 C220 0.931 . S
O201 Co177 2.097 . S
O201 C229 1.214 . S
H202 C230 0.929 . S
H203 C231 0.929 . S
H204 C232 0.930 . S
H205 C233 0.929 . S
H206 C235 0.930 . S
H207 C212 0.930 . S
H208 C216 0.930 . S
O209 Co178 2.037 . S
O209 C229 1.234 . S
C210 O184 1.269 . S
C210 O185 1.257 1_556 S
C211 H186 0.930 . S
C211 C214 1.388 . S
C211 C216 1.418 . S
C212 H207 0.930 . S
C212 C215 1.404 . S
C212 C216 1.353 . S
N213 Co178 2.145 1_556 S
N213 C214 1.397 . S
N213 C215 1.334 . S
C214 H195 0.929 . S
C214 C211 1.388 . S
C214 N213 1.397 . S
C215 H196 0.929 . S
C215 C212 1.404 . S
C215 N213 1.334 . S
C216 H208 0.930 . S
C216 C211 1.418 . S
C216 C212 1.353 . S
C217 H187 0.930 . S
C217 N218 1.330 . S
C217 C219 1.446 . S
N218 Co177 2.151 . S
N218 C217 1.330 . S
N218 C222 1.418 . S
C219 H198 0.929 . S
C219 C217 1.446 . S
C219 C220 1.332 . S
C220 H200 0.931 . S
C220 C219 1.332 . S
C220 C221 1.267 . S
C221 H189 0.929 . S
C221 C220 1.267 . S
C221 C222 1.251 . S
C222 H192 0.929 . S
C222 N218 1.418 . S
C222 C221 1.251 . S
C223 H190 0.930 . S
C223 C225 1.406 . S
C223 C228 1.261 . S
C224 H191 0.930 . S
C224 N226 1.325 . S
C224 C227 1.357 . S
C225 H193 0.928 . S
C225 C223 1.406 . S
C225 N226 1.261 . S
N226 Co177 2.214 . S
N226 C224 1.325 . S
N226 C225 1.261 . S
C227 H197 0.931 . S
C227 C224 1.357 . S
C227 C228 1.312 . S
C228 H199 0.930 . S
C228 C223 1.261 . S
C228 C227 1.312 . S
C229 O201 1.214 . S
C229 O209 1.234 . S
C230 H202 0.929 . S
C230 C233 1.391 . S
C230 C235 1.391 . S
C231 H203 0.929 . S
C231 C232 1.390 . S
C231 N234 1.391 . S
C232 H204 0.930 . S
C232 C231 1.390 . S
C232 C233 1.392 . S
C233 H205 0.929 . S
C233 C230 1.391 . S
C233 C232 1.392 . S
N234 Co178 2.257 . S
N234 C231 1.391 . S
N234 C235 1.388 . S
C235 H206 0.930 . S
C235 C230 1.391 . S
C235 N234 1.388 . S
Co236 O238 2.143 . S
Co236 O244 2.074 . S
Co236 O247 2.094 . S
Co236 O260 2.097 . S
Co236 N277 2.151 1_455 S
Co236 N285 2.214 1_455 S
Co237 O238 2.160 . S
Co237 O243 2.058 . S
Co237 O253 2.057 . S
Co237 O268 2.037 . S
Co237 N272 2.145 . S
Co237 N293 2.257 . S
O238 Co236 2.143 . S
O238 Co237 2.160 . S
C239 O240 1.278 . S
C239 O247 1.242 . S
O240 C239 1.278 . S
C241 O242 1.245 . S
C241 O253 1.232 . S
O242 C241 1.245 . S
O243 Co237 2.058 . S
O243 C269 1.269 . S
O244 Co236 2.074 . S
O244 C269 1.257 . S
H245 C270 0.930 . S
H246 C276 0.904 1_455 S
O247 Co236 2.094 . S
O247 C239 1.242 . S
H248 C280 0.929 . S
H249 C282 0.930 . S
H250 C283 0.930 . S
H251 C281 0.929 . S
H252 C284 0.928 . S
O253 Co237 2.057 . S
O253 C241 1.232 . S
H254 C273 0.929 . S
H255 C274 0.929 . S
H256 C286 0.931 . S
H257 C278 0.929 . S
H258 C287 0.930 . S
H259 C279 0.931 . S
O260 Co236 2.097 . S
O260 C288 1.214 . S
H261 C289 0.929 . S
H262 C290 0.929 . S
H263 C291 0.930 . S
H264 C292 0.929 . S
H265 C294 0.930 . S
H266 C271 0.930 . S
H267 C275 0.930 . S
O268 Co237 2.037 . S
O268 C288 1.234 . S
C269 O243 1.269 . S
C269 O244 1.257 . S
C270 H245 0.930 . S
C270 C273 1.388 . S
C270 C275 1.418 . S
C271 H266 0.930 . S
C271 C274 1.404 . S
C271 C275 1.353 . S
N272 Co237 2.145 . S
N272 C273 1.397 . S
N272 C274 1.334 . S
C273 H254 0.929 . S
C273 C270 1.388 . S
C273 N272 1.397 . S
C274 H255 0.929 . S
C274 C271 1.404 . S
C274 N272 1.334 . S
C275 H267 0.930 . S
C275 C270 1.418 . S
C275 C271 1.353 . S
C276 H246 0.904 1_655 S
C276 N277 1.328 . S
C276 C278 1.474 . S
N277 Co236 2.151 1_655 S
N277 C276 1.328 . S
N277 C281 1.418 . S
C278 H257 0.929 . S
C278 C276 1.474 . S
C278 C279 1.332 . S
C279 H259 0.931 . S
C279 C278 1.332 . S
C279 C280 1.267 . S
C280 H248 0.929 . S
C280 C279 1.267 . S
C280 C281 1.251 . S
C281 H251 0.929 . S
C281 N277 1.418 . S
C281 C280 1.251 . S
C282 H249 0.930 . S
C282 C284 1.406 . S
C282 C287 1.261 . S
C283 H250 0.930 . S
C283 N285 1.325 . S
C283 C286 1.357 . S
C284 H252 0.928 . S
C284 C282 1.406 . S
C284 N285 1.261 . S
N285 Co236 2.214 1_655 S
N285 C283 1.325 . S
N285 C284 1.261 . S
C286 H256 0.931 . S
C286 C283 1.357 . S
C286 C287 1.312 . S
C287 H258 0.930 . S
C287 C282 1.261 . S
C287 C286 1.312 . S
C288 O260 1.214 . S
C288 O268 1.234 . S
C289 H261 0.929 . S
C289 C292 1.391 . S
C289 C294 1.391 . S
C290 H262 0.929 . S
C290 C291 1.390 . S
C290 N293 1.391 . S
C291 H263 0.930 . S
C291 C290 1.390 . S
C291 C292 1.392 . S
C292 H264 0.929 . S
C292 C289 1.391 . S
C292 C291 1.392 . S
N293 Co237 2.257 . S
N293 C290 1.391 . S
N293 C294 1.388 . S
C294 H265 0.930 . S
C294 C289 1.391 . S
C294 N293 1.388 . S
Co295 O297 2.143 . S
Co295 O303 2.074 . S
Co295 O306 2.092 . S
Co295 O319 2.097 . S
Co295 N336 2.151 1_545 S
Co295 N344 2.214 1_545 S
Co296 O297 2.160 . S
Co296 O302 2.058 . S
Co296 O312 2.057 . S
Co296 O327 2.037 . S
Co296 N331 2.145 . S
Co296 N352 2.257 . S
O297 Co295 2.143 . S
O297 Co296 2.160 . S
C298 O299 1.278 . S
C298 O306 1.245 . S
O299 C298 1.278 . S
C300 O301 1.245 . S
C300 O312 1.232 . S
O301 C300 1.245 . S
O302 Co296 2.058 . S
O302 C328 1.269 . S
O303 Co295 2.074 . S
O303 C328 1.257 . S
H304 C329 0.930 . S
H305 C335 0.915 1_545 S
O306 Co295 2.092 . S
O306 C298 1.245 . S
H307 C339 0.929 . S
H308 C341 0.930 . S
H309 C342 0.930 . S
H310 C340 0.929 . S
H311 C343 0.928 . S
O312 Co296 2.057 . S
O312 C300 1.232 . S
H313 C332 0.929 . S
H314 C333 0.929 . S
H315 C345 0.931 . S
H316 C337 0.929 . S
H317 C346 0.930 . S
H318 C338 0.931 . S
O319 Co295 2.097 . S
O319 C347 1.214 . S
H320 C348 0.929 . S
H321 C349 0.929 . S
H322 C350 0.930 . S
H323 C351 0.929 . S
H324 C353 0.930 . S
H325 C330 0.930 . S
H326 C334 0.930 . S
O327 Co296 2.037 . S
O327 C347 1.234 . S
C328 O302 1.269 . S
C328 O303 1.257 . S
C329 H304 0.930 . S
C329 C332 1.388 . S
C329 C334 1.418 . S
C330 H325 0.930 . S
C330 C333 1.404 . S
C330 C334 1.353 . S
N331 Co296 2.145 . S
N331 C332 1.397 . S
N331 C333 1.334 . S
C332 H313 0.929 . S
C332 C329 1.388 . S
C332 N331 1.397 . S
C333 H314 0.929 . S
C333 C330 1.404 . S
C333 N331 1.334 . S
C334 H326 0.930 . S
C334 C329 1.418 . S
C334 C330 1.353 . S
C335 H305 0.915 1_565 S
C335 N336 1.353 . S
C335 C337 1.438 . S
N336 Co295 2.151 1_565 S
N336 C335 1.353 . S
N336 C340 1.418 . S
C337 H316 0.929 . S
C337 C335 1.438 . S
C337 C338 1.332 . S
C338 H318 0.931 . S
C338 C337 1.332 . S
C338 C339 1.267 . S
C339 H307 0.929 . S
C339 C338 1.267 . S
C339 C340 1.251 . S
C340 H310 0.929 . S
C340 N336 1.418 . S
C340 C339 1.251 . S
C341 H308 0.930 . S
C341 C343 1.406 . S
C341 C346 1.261 . S
C342 H309 0.930 . S
C342 N344 1.325 . S
C342 C345 1.357 . S
C343 H311 0.928 . S
C343 C341 1.406 . S
C343 N344 1.261 . S
N344 Co295 2.214 1_565 S
N344 C342 1.325 . S
N344 C343 1.261 . S
C345 H315 0.931 . S
C345 C342 1.357 . S
C345 C346 1.312 . S
C346 H317 0.930 . S
C346 C341 1.261 . S
C346 C345 1.312 . S
C347 O319 1.214 . S
C347 O327 1.234 . S
C348 H320 0.929 . S
C348 C351 1.391 . S
C348 C353 1.391 . S
C349 H321 0.929 . S
C349 C350 1.390 . S
C349 N352 1.391 . S
C350 H322 0.930 . S
C350 C349 1.390 . S
C350 C351 1.392 . S
C351 H323 0.929 . S
C351 C348 1.391 . S
C351 C350 1.392 . S
N352 Co296 2.257 . S
N352 C349 1.391 . S
N352 C353 1.388 . S
C353 H324 0.930 . S
C353 C348 1.391 . S
C353 N352 1.388 . S
Co354 O356 2.143 . S
Co354 O362 2.074 . S
Co354 O365 2.093 . S
Co354 O378 2.097 . S
Co354 N395 2.151 . S
Co354 N403 2.214 . S
Co355 O356 2.160 . S
Co355 O361 2.058 . S
Co355 O371 2.057 . S
Co355 O386 2.037 . S
Co355 N390 2.145 . S
Co355 N411 2.257 . S
O356 Co354 2.143 . S
O356 Co355 2.160 . S
C357 O358 1.278 . S
C357 O365 1.224 . S
O358 C357 1.278 . S
C359 O360 1.245 . S
C359 O371 1.232 . S
O360 C359 1.245 . S
O361 Co355 2.058 . S
O361 C387 1.269 . S
O362 Co354 2.074 . S
O362 C387 1.257 . S
H363 C388 0.930 . S
H364 C394 0.930 . S
O365 Co354 2.093 . S
O365 C357 1.224 . S
H366 C398 0.929 . S
H367 C400 0.930 . S
H368 C401 0.930 . S
H369 C399 0.929 . S
H370 C402 0.928 . S
O371 Co355 2.057 . S
O371 C359 1.232 . S
H372 C391 0.929 . S
H373 C392 0.929 . S
H374 C404 0.931 . S
H375 C396 0.929 . S
H376 C405 0.930 . S
H377 C397 0.931 . S
O378 Co354 2.097 . S
O378 C406 1.214 . S
H379 C407 0.929 . S
H380 C408 0.929 . S
H381 C409 0.930 . S
H382 C410 0.929 . S
H383 C412 0.930 . S
H384 C389 0.930 . S
H385 C393 0.930 . S
O386 Co355 2.037 . S
O386 C406 1.234 . S
C387 O361 1.269 . S
C387 O362 1.257 . S
C388 H363 0.930 . S
C388 C391 1.388 . S
C388 C393 1.418 . S
C389 H384 0.930 . S
C389 C392 1.404 . S
C389 C393 1.353 . S
N390 Co355 2.145 . S
N390 C391 1.397 . S
N390 C392 1.334 . S
C391 H372 0.929 . S
C391 C388 1.388 . S
C391 N390 1.397 . S
C392 H373 0.929 . S
C392 C389 1.404 . S
C392 N390 1.334 . S
C393 H385 0.930 . S
C393 C388 1.418 . S
C393 C389 1.353 . S
C394 H364 0.930 . S
C394 N395 1.330 . S
C394 C396 1.446 . S
N395 Co354 2.151 . S
N395 C394 1.330 . S
N395 C399 1.418 . S
C396 H375 0.929 . S
C396 C394 1.446 . S
C396 C397 1.332 . S
C397 H377 0.931 . S
C397 C396 1.332 . S
C397 C398 1.267 . S
C398 H366 0.929 . S
C398 C397 1.267 . S
C398 C399 1.251 . S
C399 H369 0.929 . S
C399 N395 1.418 . S
C399 C398 1.251 . S
C400 H367 0.930 . S
C400 C402 1.406 . S
C400 C405 1.261 . S
C401 H368 0.930 . S
C401 N403 1.325 . S
C401 C404 1.357 . S
C402 H370 0.928 . S
C402 C400 1.406 . S
C402 N403 1.261 . S
N403 Co354 2.214 . S
N403 C401 1.325 . S
N403 C402 1.261 . S
C404 H374 0.931 . S
C404 C401 1.357 . S
C404 C405 1.312 . S
C405 H376 0.930 . S
C405 C400 1.261 . S
C405 C404 1.312 . S
C406 O378 1.214 . S
C406 O386 1.234 . S
C407 H379 0.929 . S
C407 C410 1.391 . S
C407 C412 1.391 . S
C408 H380 0.929 . S
C408 C409 1.390 . S
C408 N411 1.391 . S
C409 H381 0.930 . S
C409 C408 1.390 . S
C409 C410 1.392 . S
C410 H382 0.929 . S
C410 C407 1.391 . S
C410 C409 1.392 . S
N411 Co355 2.257 . S
N411 C408 1.391 . S
N411 C412 1.388 . S
C412 H383 0.930 . S
C412 C407 1.391 . S
C412 N411 1.388 . S
Co413 O415 2.143 . S
Co413 O421 2.074 . S
Co413 O424 2.092 . S
Co413 O437 2.097 . S
Co413 N454 2.151 1_655 S
Co413 N462 2.214 1_655 S
Co414 O415 2.160 . S
Co414 O420 2.058 1_556 S
Co414 O430 2.057 . S
Co414 O445 2.037 . S
Co414 N449 2.145 1_556 S
Co414 N470 2.257 . S
O415 Co413 2.143 . S
O415 Co414 2.160 . S
C416 O417 1.278 . S
C416 O424 1.245 . S
O417 C416 1.278 . S
C418 O419 1.245 . S
C418 O430 1.232 . S
O419 C418 1.245 . S
O420 Co414 2.058 1_554 S
O420 C446 1.269 . S
O421 Co413 2.074 . S
O421 C446 1.257 1_556 S
H422 C447 0.930 . S
H423 C453 0.915 1_655 S
O424 Co413 2.092 . S
O424 C416 1.245 . S
H425 C457 0.929 . S
H426 C459 0.930 . S
H427 C460 0.930 . S
H428 C458 0.929 . S
H429 C461 0.928 . S
O430 Co414 2.057 . S
O430 C418 1.232 . S
H431 C450 0.929 . S
H432 C451 0.929 . S
H433 C463 0.931 . S
H434 C455 0.929 . S
H435 C464 0.930 . S
H436 C456 0.931 . S
O437 Co413 2.097 . S
O437 C465 1.214 . S
H438 C466 0.929 . S
H439 C467 0.929 . S
H440 C468 0.930 . S
H441 C469 0.929 . S
H442 C471 0.930 . S
H443 C448 0.930 . S
H444 C452 0.930 . S
O445 Co414 2.037 . S
O445 C465 1.234 . S
C446 O420 1.269 . S
C446 O421 1.257 1_554 S
C447 H422 0.930 . S
C447 C450 1.388 . S
C447 C452 1.418 . S
C448 H443 0.930 . S
C448 C451 1.404 . S
C448 C452 1.353 . S
N449 Co414 2.145 1_554 S
N449 C450 1.397 . S
N449 C451 1.334 . S
C450 H431 0.929 . S
C450 C447 1.388 . S
C450 N449 1.397 . S
C451 H432 0.929 . S
C451 C448 1.404 . S
C451 N449 1.334 . S
C452 H444 0.930 . S
C452 C447 1.418 . S
C452 C448 1.353 . S
C453 H423 0.915 1_455 S
C453 N454 1.353 . S
C453 C455 1.438 . S
N454 Co413 2.151 1_455 S
N454 C453 1.353 . S
N454 C458 1.418 . S
C455 H434 0.929 . S
C455 C453 1.438 . S
C455 C456 1.332 . S
C456 H436 0.931 . S
C456 C455 1.332 . S
C456 C457 1.267 . S
C457 H425 0.929 . S
C457 C456 1.267 . S
C457 C458 1.251 . S
C458 H428 0.929 . S
C458 N454 1.418 . S
C458 C457 1.251 . S
C459 H426 0.930 . S
C459 C461 1.406 . S
C459 C464 1.261 . S
C460 H427 0.930 . S
C460 N462 1.325 . S
C460 C463 1.357 . S
C461 H429 0.928 . S
C461 C459 1.406 . S
C461 N462 1.261 . S
N462 Co413 2.214 1_455 S
N462 C460 1.325 . S
N462 C461 1.261 . S
C463 H433 0.931 . S
C463 C460 1.357 . S
C463 C464 1.312 . S
C464 H435 0.930 . S
C464 C459 1.261 . S
C464 C463 1.312 . S
C465 O437 1.214 . S
C465 O445 1.234 . S
C466 H438 0.929 . S
C466 C469 1.391 . S
C466 C471 1.391 . S
C467 H439 0.929 . S
C467 C468 1.390 . S
C467 N470 1.391 . S
C468 H440 0.930 . S
C468 C467 1.390 . S
C468 C469 1.392 . S
C469 H441 0.929 . S
C469 C466 1.391 . S
C469 C468 1.392 . S
N470 Co414 2.257 . S
N470 C467 1.391 . S
N470 C471 1.388 . S
C471 H442 0.930 . S
C471 C466 1.391 . S
C471 N470 1.388 . S
Co472 O474 2.143 . S
Co472 O480 2.074 . S
Co472 O483 2.094 . S
Co472 O496 2.097 . S
Co472 N513 2.151 1_565 S
Co472 N521 2.214 1_565 S
Co473 O474 2.160 . S
Co473 O479 2.058 . S
Co473 O489 2.057 . S
Co473 O504 2.037 . S
Co473 N508 2.145 . S
Co473 N529 2.257 . S
O474 Co472 2.143 . S
O474 Co473 2.160 . S
C475 O476 1.278 . S
C475 O483 1.242 . S
O476 C475 1.278 . S
C477 O478 1.245 . S
C477 O489 1.232 . S
O478 C477 1.245 . S
O479 Co473 2.058 . S
O479 C505 1.269 . S
O480 Co472 2.074 . S
O480 C505 1.257 . S
H481 C506 0.930 . S
H482 C512 0.904 1_565 S
O483 Co472 2.094 . S
O483 C475 1.242 . S
H484 C516 0.929 . S
H485 C518 0.930 . S
H486 C519 0.930 . S
H487 C517 0.929 . S
H488 C520 0.928 . S
O489 Co473 2.057 . S
O489 C477 1.232 . S
H490 C509 0.929 . S
H491 C510 0.929 . S
H492 C522 0.931 . S
H493 C514 0.929 . S
H494 C523 0.930 . S
H495 C515 0.931 . S
O496 Co472 2.097 . S
O496 C524 1.214 . S
H497 C525 0.929 . S
H498 C526 0.929 . S
H499 C527 0.930 . S
H500 C528 0.929 . S
H501 C530 0.930 . S
H502 C507 0.930 . S
H503 C511 0.930 . S
O504 Co473 2.037 . S
O504 C524 1.234 . S
C505 O479 1.269 . S
C505 O480 1.257 . S
C506 H481 0.930 . S
C506 C509 1.388 . S
C506 C511 1.418 . S
C507 H502 0.930 . S
C507 C510 1.404 . S
C507 C511 1.353 . S
N508 Co473 2.145 . S
N508 C509 1.397 . S
N508 C510 1.334 . S
C509 H490 0.929 . S
C509 C506 1.388 . S
C509 N508 1.397 . S
C510 H491 0.929 . S
C510 C507 1.404 . S
C510 N508 1.334 . S
C511 H503 0.930 . S
C511 C506 1.418 . S
C511 C507 1.353 . S
C512 H482 0.904 1_545 S
C512 N513 1.328 . S
C512 C514 1.474 . S
N513 Co472 2.151 1_545 S
N513 C512 1.328 . S
N513 C517 1.418 . S
C514 H493 0.929 . S
C514 C512 1.474 . S
C514 C515 1.332 . S
C515 H495 0.931 . S
C515 C514 1.332 . S
C515 C516 1.267 . S
C516 H484 0.929 . S
C516 C515 1.267 . S
C516 C517 1.251 . S
C517 H487 0.929 . S
C517 N513 1.418 . S
C517 C516 1.251 . S
C518 H485 0.930 . S
C518 C520 1.406 . S
C518 C523 1.261 . S
C519 H486 0.930 . S
C519 N521 1.325 . S
C519 C522 1.357 . S
C520 H488 0.928 . S
C520 C518 1.406 . S
C520 N521 1.261 . S
N521 Co472 2.214 1_545 S
N521 C519 1.325 . S
N521 C520 1.261 . S
C522 H492 0.931 . S
C522 C519 1.357 . S
C522 C523 1.312 . S
C523 H494 0.930 . S
C523 C518 1.261 . S
C523 C522 1.312 . S
C524 O496 1.214 . S
C524 O504 1.234 . S
C525 H497 0.929 . S
C525 C528 1.391 . S
C525 C530 1.391 . S
C526 H498 0.929 . S
C526 C527 1.390 . S
C526 N529 1.391 . S
C527 H499 0.930 . S
C527 C526 1.390 . S
C527 C528 1.392 . S
C528 H500 0.929 . S
C528 C525 1.391 . S
C528 C527 1.392 . S
N529 Co473 2.257 . S
N529 C526 1.391 . S
N529 C530 1.388 . S
C530 H501 0.930 . S
C530 C525 1.391 . S
C530 N529 1.388 . S
Co531 O533 2.143 . S
Co531 O539 2.074 . S
Co531 O542 2.093 . S
Co531 O555 2.097 . S
Co531 N572 2.151 . S
Co531 N580 2.214 . S
Co532 O533 2.160 . S
Co532 O538 2.058 . S
Co532 O548 2.057 . S
Co532 O563 2.037 . S
Co532 N567 2.145 . S
Co532 N588 2.257 . S
O533 Co531 2.143 . S
O533 Co532 2.160 . S
C534 O535 1.278 . S
C534 O542 1.224 . S
O535 C534 1.278 . S
C536 O537 1.245 . S
C536 O548 1.232 . S
O537 C536 1.245 . S
O538 Co532 2.058 . S
O538 C564 1.269 . S
O539 Co531 2.074 . S
O539 C564 1.257 . S
H540 C565 0.930 . S
H541 C571 0.930 . S
O542 Co531 2.093 . S
O542 C534 1.224 . S
H543 C575 0.929 . S
H544 C577 0.930 . S
H545 C578 0.930 . S
H546 C576 0.929 . S
H547 C579 0.928 . S
O548 Co532 2.057 . S
O548 C536 1.232 . S
H549 C568 0.929 . S
H550 C569 0.929 . S
H551 C581 0.931 . S
H552 C573 0.929 . S
H553 C582 0.930 . S
H554 C574 0.931 . S
O555 Co531 2.097 . S
O555 C583 1.214 . S
H556 C584 0.929 . S
H557 C585 0.929 . S
H558 C586 0.930 . S
H559 C587 0.929 . S
H560 C589 0.930 . S
H561 C566 0.930 . S
H562 C570 0.930 . S
O563 Co532 2.037 . S
O563 C583 1.234 . S
C564 O538 1.269 . S
C564 O539 1.257 . S
C565 H540 0.930 . S
C565 C568 1.388 . S
C565 C570 1.418 . S
C566 H561 0.930 . S
C566 C569 1.404 . S
C566 C570 1.353 . S
N567 Co532 2.145 . S
N567 C568 1.397 . S
N567 C569 1.334 . S
C568 H549 0.929 . S
C568 C565 1.388 . S
C568 N567 1.397 . S
C569 H550 0.929 . S
C569 C566 1.404 . S
C569 N567 1.334 . S
C570 H562 0.930 . S
C570 C565 1.418 . S
C570 C566 1.353 . S
C571 H541 0.930 . S
C571 N572 1.330 . S
C571 C573 1.446 . S
N572 Co531 2.151 . S
N572 C571 1.330 . S
N572 C576 1.418 . S
C573 H552 0.929 . S
C573 C571 1.446 . S
C573 C574 1.332 . S
C574 H554 0.931 . S
C574 C573 1.332 . S
C574 C575 1.267 . S
C575 H543 0.929 . S
C575 C574 1.267 . S
C575 C576 1.251 . S
C576 H546 0.929 . S
C576 N572 1.418 . S
C576 C575 1.251 . S
C577 H544 0.930 . S
C577 C579 1.406 . S
C577 C582 1.261 . S
C578 H545 0.930 . S
C578 N580 1.325 . S
C578 C581 1.357 . S
C579 H547 0.928 . S
C579 C577 1.406 . S
C579 N580 1.261 . S
N580 Co531 2.214 . S
N580 C578 1.325 . S
N580 C579 1.261 . S
C581 H551 0.931 . S
C581 C578 1.357 . S
C581 C582 1.312 . S
C582 H553 0.930 . S
C582 C577 1.261 . S
C582 C581 1.312 . S
C583 O555 1.214 . S
C583 O563 1.234 . S
C584 H556 0.929 . S
C584 C587 1.391 . S
C584 C589 1.391 . S
C585 H557 0.929 . S
C585 C586 1.390 . S
C585 N588 1.391 . S
C586 H558 0.930 . S
C586 C585 1.390 . S
C586 C587 1.392 . S
C587 H559 0.929 . S
C587 C584 1.391 . S
C587 C586 1.392 . S
N588 Co532 2.257 . S
N588 C585 1.391 . S
N588 C589 1.388 . S
C589 H560 0.930 . S
C589 C584 1.391 . S
C589 N588 1.388 . S
Co590 O592 2.143 . S
Co590 O598 2.074 . S
Co590 O601 2.092 . S
Co590 O614 2.097 . S
Co590 N631 2.151 1_455 S
Co590 N639 2.214 1_455 S
Co591 O592 2.160 . S
Co591 O597 2.058 1_556 S
Co591 O607 2.057 . S
Co591 O622 2.037 . S
Co591 N626 2.145 1_556 S
Co591 N647 2.257 . S
O592 Co590 2.143 . S
O592 Co591 2.160 . S
C593 O594 1.278 . S
C593 O601 1.245 . S
O594 C593 1.278 . S
C595 O596 1.245 . S
C595 O607 1.232 . S
O596 C595 1.245 . S
O597 Co591 2.058 1_554 S
O597 C623 1.269 . S
O598 Co590 2.074 . S
O598 C623 1.257 1_556 S
H599 C624 0.930 . S
H600 C630 0.915 1_455 S
O601 Co590 2.092 . S
O601 C593 1.245 . S
H602 C634 0.929 . S
H603 C636 0.930 . S
H604 C637 0.930 . S
H605 C635 0.929 . S
H606 C638 0.928 . S
O607 Co591 2.057 . S
O607 C595 1.232 . S
H608 C627 0.929 . S
H609 C628 0.929 . S
H610 C640 0.931 . S
H611 C632 0.929 . S
H612 C641 0.930 . S
H613 C633 0.931 . S
O614 Co590 2.097 . S
O614 C642 1.214 . S
H615 C643 0.929 . S
H616 C644 0.929 . S
H617 C645 0.930 . S
H618 C646 0.929 . S
H619 C648 0.930 . S
H620 C625 0.930 . S
H621 C629 0.930 . S
O622 Co591 2.037 . S
O622 C642 1.234 . S
C623 O597 1.269 . S
C623 O598 1.257 1_554 S
C624 H599 0.930 . S
C624 C627 1.388 . S
C624 C629 1.418 . S
C625 H620 0.930 . S
C625 C628 1.404 . S
C625 C629 1.353 . S
N626 Co591 2.145 1_554 S
N626 C627 1.397 . S
N626 C628 1.334 . S
C627 H608 0.929 . S
C627 C624 1.388 . S
C627 N626 1.397 . S
C628 H609 0.929 . S
C628 C625 1.404 . S
C628 N626 1.334 . S
C629 H621 0.930 . S
C629 C624 1.418 . S
C629 C625 1.353 . S
C630 H600 0.915 1_655 S
C630 N631 1.353 . S
C630 C632 1.438 . S
N631 Co590 2.151 1_655 S
N631 C630 1.353 . S
N631 C635 1.418 . S
C632 H611 0.929 . S
C632 C630 1.438 . S
C632 C633 1.332 . S
C633 H613 0.931 . S
C633 C632 1.332 . S
C633 C634 1.267 . S
C634 H602 0.929 . S
C634 C633 1.267 . S
C634 C635 1.251 . S
C635 H605 0.929 . S
C635 N631 1.418 . S
C635 C634 1.251 . S
C636 H603 0.930 . S
C636 C638 1.406 . S
C636 C641 1.261 . S
C637 H604 0.930 . S
C637 N639 1.325 . S
C637 C640 1.357 . S
C638 H606 0.928 . S
C638 C636 1.406 . S
C638 N639 1.261 . S
N639 Co590 2.214 1_655 S
N639 C637 1.325 . S
N639 C638 1.261 . S
C640 H610 0.931 . S
C640 C637 1.357 . S
C640 C641 1.312 . S
C641 H612 0.930 . S
C641 C636 1.261 . S
C641 C640 1.312 . S
C642 O614 1.214 . S
C642 O622 1.234 . S
C643 H615 0.929 . S
C643 C646 1.391 . S
C643 C648 1.391 . S
C644 H616 0.929 . S
C644 C645 1.390 . S
C644 N647 1.391 . S
C645 H617 0.930 . S
C645 C644 1.390 . S
C645 C646 1.392 . S
C646 H618 0.929 . S
C646 C643 1.391 . S
C646 C645 1.392 . S
N647 Co591 2.257 . S
N647 C644 1.391 . S
N647 C648 1.388 . S
C648 H619 0.930 . S
C648 C643 1.391 . S
C648 N647 1.388 . S
Co649 O651 2.143 . S
Co649 O657 2.074 . S
Co649 O660 2.094 . S
Co649 O673 2.097 . S
Co649 N690 2.151 1_545 S
Co649 N698 2.214 1_545 S
Co650 O651 2.160 . S
Co650 O656 2.058 . S
Co650 O666 2.057 . S
Co650 O681 2.037 . S
Co650 N685 2.145 . S
Co650 N706 2.257 . S
O651 Co649 2.143 . S
O651 Co650 2.160 . S
C652 O653 1.278 . S
C652 O660 1.242 . S
O653 C652 1.278 . S
C654 O655 1.245 . S
C654 O666 1.232 . S
O655 C654 1.245 . S
O656 Co650 2.058 . S
O656 C682 1.269 . S
O657 Co649 2.074 . S
O657 C682 1.257 . S
H658 C683 0.930 . S
H659 C689 0.904 1_545 S
O660 Co649 2.094 . S
O660 C652 1.242 . S
H661 C693 0.929 . S
H662 C695 0.930 . S
H663 C696 0.930 . S
H664 C694 0.929 . S
H665 C697 0.928 . S
O666 Co650 2.057 . S
O666 C654 1.232 . S
H667 C686 0.929 . S
H668 C687 0.929 . S
H669 C699 0.931 . S
H670 C691 0.929 . S
H671 C700 0.930 . S
H672 C692 0.931 . S
O673 Co649 2.097 . S
O673 C701 1.214 . S
H674 C702 0.929 . S
H675 C703 0.929 . S
H676 C704 0.930 . S
H677 C705 0.929 . S
H678 C707 0.930 . S
H679 C684 0.930 . S
H680 C688 0.930 . S
O681 Co650 2.037 . S
O681 C701 1.234 . S
C682 O656 1.269 . S
C682 O657 1.257 . S
C683 H658 0.930 . S
C683 C686 1.388 . S
C683 C688 1.418 . S
C684 H679 0.930 . S
C684 C687 1.404 . S
C684 C688 1.353 . S
N685 Co650 2.145 . S
N685 C686 1.397 . S
N685 C687 1.334 . S
C686 H667 0.929 . S
C686 C683 1.388 . S
C686 N685 1.397 . S
C687 H668 0.929 . S
C687 C684 1.404 . S
C687 N685 1.334 . S
C688 H680 0.930 . S
C688 C683 1.418 . S
C688 C684 1.353 . S
C689 H659 0.904 1_565 S
C689 N690 1.328 . S
C689 C691 1.474 . S
N690 Co649 2.151 1_565 S
N690 C689 1.328 . S
N690 C694 1.418 . S
C691 H670 0.929 . S
C691 C689 1.474 . S
C691 C692 1.332 . S
C692 H672 0.931 . S
C692 C691 1.332 . S
C692 C693 1.267 . S
C693 H661 0.929 . S
C693 C692 1.267 . S
C693 C694 1.251 . S
C694 H664 0.929 . S
C694 N690 1.418 . S
C694 C693 1.251 . S
C695 H662 0.930 . S
C695 C697 1.406 . S
C695 C700 1.261 . S
C696 H663 0.930 . S
C696 N698 1.325 . S
C696 C699 1.357 . S
C697 H665 0.928 . S
C697 C695 1.406 . S
C697 N698 1.261 . S
N698 Co649 2.214 1_565 S
N698 C696 1.325 . S
N698 C697 1.261 . S
C699 H669 0.931 . S
C699 C696 1.357 . S
C699 C700 1.312 . S
C700 H671 0.930 . S
C700 C695 1.261 . S
C700 C699 1.312 . S
C701 O673 1.214 . S
C701 O681 1.234 . S
C702 H674 0.929 . S
C702 C705 1.391 . S
C702 C707 1.391 . S
C703 H675 0.929 . S
C703 C704 1.390 . S
C703 N706 1.391 . S
C704 H676 0.930 . S
C704 C703 1.390 . S
C704 C705 1.392 . S
C705 H677 0.929 . S
C705 C702 1.391 . S
C705 C704 1.392 . S
N706 Co650 2.257 . S
N706 C703 1.391 . S
N706 C707 1.388 . S
C707 H678 0.930 . S
C707 C702 1.391 . S
C707 N706 1.388 . S
H708 C716 0.950 . S
H709 C721 0.950 . S
H710 C718 0.950 . S
H711 C720 0.950 . S
H712 C722 0.950 . S
H713 C724 0.950 . S
H714 C726 0.950 . S
H715 C727 0.950 . S
C716 H708 0.950 . S
C716 C717 1.386 . S
C716 C718 1.391 . S
C717 C716 1.386 . S
C717 C721 1.393 . S
C718 H710 0.950 . S
C718 C716 1.391 . S
C718 C719 1.400 . S
C719 C718 1.400 . S
C719 C720 1.398 . S
C719 C725 1.491 . S
C720 H711 0.950 . S
C720 C719 1.398 . S
C720 C721 1.391 . S
C721 H709 0.950 . S
C721 C717 1.393 . S
C721 C720 1.391 . S
C722 H712 0.950 . S
C722 C723 1.386 . S
C722 C724 1.391 . S
C723 C722 1.386 . S
C723 C727 1.393 . S
C724 H713 0.950 . S
C724 C722 1.391 . S
C724 C725 1.400 . S
C725 C719 1.491 . S
C725 C724 1.400 . S
C725 C726 1.398 . S
C726 H714 0.950 . S
C726 C725 1.398 . S
C726 C727 1.391 . S
C727 H715 0.950 . S
C727 C723 1.393 . S
C727 C726 1.391 . S
H728 C736 0.950 . S
H729 C741 0.950 . S
H730 C738 0.950 . S
H731 C740 0.950 . S
H732 C742 0.950 . S
H733 C744 0.950 . S
H734 C746 0.950 . S
H735 C747 0.950 . S
C736 H728 0.950 . S
C736 C737 1.386 . S
C736 C738 1.391 . S
C737 C736 1.386 . S
C737 C741 1.393 . S
C738 H730 0.950 . S
C738 C736 1.391 . S
C738 C739 1.400 . S
C739 C738 1.400 . S
C739 C740 1.398 . S
C739 C745 1.491 1_655 S
C740 H731 0.950 . S
C740 C739 1.398 . S
C740 C741 1.391 . S
C741 H729 0.950 . S
C741 C737 1.393 . S
C741 C740 1.391 . S
C742 H732 0.950 . S
C742 C743 1.386 . S
C742 C744 1.391 . S
C743 C742 1.386 . S
C743 C747 1.393 . S
C744 H733 0.950 . S
C744 C742 1.391 . S
C744 C745 1.400 . S
C745 C739 1.491 1_455 S
C745 C744 1.400 . S
C745 C746 1.398 . S
C746 H734 0.950 . S
C746 C745 1.398 . S
C746 C747 1.391 . S
C747 H735 0.950 . S
C747 C743 1.393 . S
C747 C746 1.391 . S
H748 C756 0.950 1_545 S
H749 C761 0.950 . S
H750 C758 0.950 . S
H751 C760 0.950 . S
H752 C762 0.950 1_565 S
H753 C764 0.950 . S
H754 C766 0.950 . S
H755 C767 0.950 . S
C756 H748 0.950 1_565 S
C756 C757 1.386 . S
C756 C758 1.391 1_565 S
C757 C756 1.386 . S
C757 C761 1.393 . S
C758 H750 0.950 . S
C758 C756 1.391 1_545 S
C758 C759 1.400 1_545 S
C759 C758 1.400 1_565 S
C759 C760 1.398 . S
C759 C765 1.491 1_566 S
C760 H751 0.950 . S
C760 C759 1.398 . S
C760 C761 1.391 . S
C761 H749 0.950 . S
C761 C757 1.393 . S
C761 C760 1.391 . S
C762 H752 0.950 1_545 S
C762 C763 1.386 . S
C762 C764 1.391 1_545 S
C763 C762 1.386 . S
C763 C767 1.393 . S
C764 H753 0.950 . S
C764 C762 1.391 1_565 S
C764 C765 1.400 1_565 S
C765 C759 1.491 1_544 S
C765 C764 1.400 1_545 S
C765 C766 1.398 . S
C766 H754 0.950 . S
C766 C765 1.398 . S
C766 C767 1.391 . S
C767 H755 0.950 . S
C767 C763 1.393 . S
C767 C766 1.391 . S
H768 C776 0.950 . S
H769 C781 0.950 . S
H770 C778 0.950 . S
H771 C780 0.950 . S
H772 C782 0.950 . S
H773 C784 0.950 . S
H774 C786 0.950 . S
H775 C787 0.950 . S
C776 H768 0.950 . S
C776 C777 1.386 . S
C776 C778 1.391 . S
C777 C776 1.386 . S
C777 C781 1.393 . S
C778 H770 0.950 . S
C778 C776 1.391 . S
C778 C779 1.400 . S
C779 C778 1.400 . S
C779 C780 1.398 . S
C779 C785 1.491 . S
C780 H771 0.950 . S
C780 C779 1.398 . S
C780 C781 1.391 . S
C781 H769 0.950 . S
C781 C777 1.393 . S
C781 C780 1.391 . S
C782 H772 0.950 . S
C782 C783 1.386 . S
C782 C784 1.391 . S
C783 C782 1.386 . S
C783 C787 1.393 . S
C784 H773 0.950 . S
C784 C782 1.391 . S
C784 C785 1.400 . S
C785 C779 1.491 . S
C785 C784 1.400 . S
C785 C786 1.398 . S
C786 H774 0.950 . S
C786 C785 1.398 . S
C786 C787 1.391 . S
C787 H775 0.950 . S
C787 C783 1.393 . S
C787 C786 1.391 . S
H788 C796 0.950 . S
H789 C801 0.950 . S
H790 C798 0.950 . S
H791 C800 0.966 . S
H792 C802 0.950 . S
H793 C804 0.950 . S
H794 C806 0.966 . S
H795 C807 0.950 . S
C796 H788 0.950 . S
C796 C797 1.386 . S
C796 C798 1.391 . S
C797 C796 1.386 . S
C797 C801 1.393 . S
C798 H790 0.950 . S
C798 C796 1.391 . S
C798 C799 1.400 . S
C799 C798 1.400 . S
C799 C800 1.398 . S
C799 C805 1.491 1_655 S
C800 H791 0.966 . S
C800 C799 1.398 . S
C800 C801 1.391 . S
C801 H789 0.950 . S
C801 C797 1.393 . S
C801 C800 1.391 . S
C802 H792 0.950 . S
C802 C803 1.386 . S
C802 C804 1.391 . S
C803 C802 1.386 . S
C803 C807 1.393 . S
C804 H793 0.950 . S
C804 C802 1.391 . S
C804 C805 1.400 . S
C805 C799 1.491 1_455 S
C805 C804 1.400 . S
C805 C806 1.398 . S
C806 H794 0.966 . S
C806 C805 1.398 . S
C806 C807 1.391 . S
C807 H795 0.950 . S
C807 C803 1.393 . S
C807 C806 1.391 . S
H808 C816 0.950 . S
H809 C821 0.950 . S
H810 C818 0.950 . S
H811 C820 0.976 . S
H812 C822 0.950 . S
H813 C824 0.950 . S
H814 C826 0.976 . S
H815 C827 0.950 . S
C816 H808 0.950 . S
C816 C817 1.386 . S
C816 C818 1.391 . S
C817 C816 1.386 . S
C817 C821 1.393 . S
C818 H810 0.950 . S
C818 C816 1.391 . S
C818 C819 1.400 . S
C819 C818 1.400 . S
C819 C820 1.398 . S
C819 C825 1.491 1_564 S
C820 H811 0.976 . S
C820 C819 1.398 . S
C820 C821 1.391 . S
C821 H809 0.950 . S
C821 C817 1.393 . S
C821 C820 1.391 . S
C822 H812 0.950 . S
C822 C823 1.386 . S
C822 C824 1.391 . S
C823 C822 1.386 . S
C823 C827 1.393 . S
C824 H813 0.950 . S
C824 C822 1.391 . S
C824 C825 1.400 . S
C825 C819 1.491 1_546 S
C825 C824 1.400 . S
C825 C826 1.398 . S
C826 H814 0.976 . S
C826 C825 1.398 . S
C826 C827 1.391 . S
C827 H815 0.950 . S
C827 C823 1.393 . S
C827 C826 1.391 . S
H828 C836 0.950 . S
H829 C841 0.950 . S
H830 C838 0.950 . S
H831 C840 0.950 . S
H832 C842 0.950 . S
H833 C844 0.950 . S
H834 C846 0.950 . S
H835 C847 0.950 . S
C836 H828 0.950 . S
C836 C837 1.386 . S
C836 C838 1.391 . S
C837 C836 1.386 . S
C837 C841 1.393 . S
C838 H830 0.950 . S
C838 C836 1.391 . S
C838 C839 1.400 . S
C839 C838 1.400 . S
C839 C840 1.398 . S
C839 C845 1.491 1_556 S
C840 H831 0.950 . S
C840 C839 1.398 . S
C840 C841 1.391 . S
C841 H829 0.950 . S
C841 C837 1.393 . S
C841 C840 1.391 . S
C842 H832 0.950 . S
C842 C843 1.386 . S
C842 C844 1.391 . S
C843 C842 1.386 . S
C843 C847 1.393 . S
C844 H833 0.950 . S
C844 C842 1.391 . S
C844 C845 1.400 . S
C845 C839 1.491 1_554 S
C845 C844 1.400 . S
C845 C846 1.398 . S
C846 H834 0.950 . S
C846 C845 1.398 . S
C846 C847 1.391 . S
C847 H835 0.950 . S
C847 C843 1.393 . S
C847 C846 1.391 . S
H848 C856 0.950 . S
H849 C861 0.950 . S
H850 C858 0.950 . S
H851 C860 0.950 . S
H852 C862 0.950 . S
H853 C864 0.950 . S
H854 C866 0.950 . S
H855 C867 0.950 . S
C856 H848 0.950 . S
C856 C857 1.386 . S
C856 C858 1.391 . S
C857 C856 1.386 . S
C857 C861 1.393 . S
C858 H850 0.950 . S
C858 C856 1.391 . S
C858 C859 1.400 . S
C859 C858 1.400 . S
C859 C860 1.398 . S
C859 C865 1.491 . S
C860 H851 0.950 . S
C860 C859 1.398 . S
C860 C861 1.391 . S
C861 H849 0.950 . S
C861 C857 1.393 . S
C861 C860 1.391 . S
C862 H852 0.950 . S
C862 C863 1.386 . S
C862 C864 1.391 . S
C863 C862 1.386 . S
C863 C867 1.393 . S
C864 H853 0.950 . S
C864 C862 1.391 . S
C864 C865 1.400 . S
C865 C859 1.491 . S
C865 C864 1.400 . S
C865 C866 1.398 . S
C866 H854 0.950 . S
C866 C865 1.398 . S
C866 C867 1.391 . S
C867 H855 0.950 . S
C867 C863 1.393 . S
C867 C866 1.391 . S
H868 C876 0.950 . S
H869 C881 0.950 . S
H870 C878 0.950 . S
H871 C880 0.950 . S
H872 C882 0.950 . S
H873 C884 0.950 . S
H874 C886 0.950 . S
H875 C887 0.950 . S
C876 H868 0.950 . S
C876 C877 1.386 . S
C876 C878 1.391 . S
C877 C876 1.386 . S
C877 C881 1.393 . S
C878 H870 0.950 . S
C878 C876 1.391 . S
C878 C879 1.400 . S
C879 C878 1.400 . S
C879 C880 1.398 . S
C879 C885 1.491 . S
C880 H871 0.950 . S
C880 C879 1.398 . S
C880 C881 1.391 . S
C881 H869 0.950 . S
C881 C877 1.393 . S
C881 C880 1.391 . S
C882 H872 0.950 . S
C882 C883 1.386 . S
C882 C884 1.391 . S
C883 C882 1.386 . S
C883 C887 1.393 . S
C884 H873 0.950 . S
C884 C882 1.391 . S
C884 C885 1.400 . S
C885 C879 1.491 . S
C885 C884 1.400 . S
C885 C886 1.398 . S
C886 H874 0.950 . S
C886 C885 1.398 . S
C886 C887 1.391 . S
C887 H875 0.950 . S
C887 C883 1.393 . S
C887 C886 1.391 . S
H888 C896 0.950 . S
H889 C901 0.950 . S
H890 C898 0.950 . S
H891 C900 0.950 . S
H892 C902 0.950 . S
H893 C904 0.950 . S
H894 C906 0.950 . S
H895 C907 0.950 . S
C896 H888 0.950 . S
C896 C897 1.386 . S
C896 C898 1.391 . S
C897 C896 1.386 . S
C897 C901 1.393 . S
C898 H890 0.950 . S
C898 C896 1.391 . S
C898 C899 1.400 . S
C899 C898 1.400 . S
C899 C900 1.398 . S
C899 C905 1.491 1_554 S
C900 H891 0.950 . S
C900 C899 1.398 . S
C900 C901 1.391 . S
C901 H889 0.950 . S
C901 C897 1.393 . S
C901 C900 1.391 . S
C902 H892 0.950 . S
C902 C903 1.386 . S
C902 C904 1.391 . S
C903 C902 1.386 . S
C903 C907 1.393 . S
C904 H893 0.950 . S
C904 C902 1.391 . S
C904 C905 1.400 . S
C905 C899 1.491 1_556 S
C905 C904 1.400 . S
C905 C906 1.398 . S
C906 H894 0.950 . S
C906 C905 1.398 . S
C906 C907 1.391 . S
C907 H895 0.950 . S
C907 C903 1.393 . S
C907 C906 1.391 . S
H908 C916 0.950 . S
H909 C921 0.950 . S
H910 C918 0.950 . S
H911 C920 0.950 . S
H912 C922 0.950 . S
H913 C924 0.950 . S
H914 C926 0.950 . S
H915 C927 0.950 . S
C916 H908 0.950 . S
C916 C917 1.386 . S
C916 C918 1.391 . S
C917 C916 1.386 . S
C917 C921 1.393 . S
C918 H910 0.950 . S
C918 C916 1.391 . S
C918 C919 1.400 . S
C919 C918 1.400 . S
C919 C920 1.398 . S
C919 C925 1.491 . S
C920 H911 0.950 . S
C920 C919 1.398 . S
C920 C921 1.391 . S
C921 H909 0.950 . S
C921 C917 1.393 . S
C921 C920 1.391 . S
C922 H912 0.950 . S
C922 C923 1.386 . S
C922 C924 1.391 . S
C923 C922 1.386 . S
C923 C927 1.393 . S
C924 H913 0.950 . S
C924 C922 1.391 . S
C924 C925 1.400 . S
C925 C919 1.491 . S
C925 C924 1.400 . S
C925 C926 1.398 . S
C926 H914 0.950 . S
C926 C925 1.398 . S
C926 C927 1.391 . S
C927 H915 0.950 . S
C927 C923 1.393 . S
C927 C926 1.391 . S
H928 C936 0.950 . S
H929 C941 0.950 . S
H930 C938 0.950 . S
H931 C940 0.950 . S
H932 C942 0.950 . S
H933 C944 0.950 . S
H934 C946 0.950 . S
H935 C947 0.950 . S
C936 H928 0.950 . S
C936 C937 1.386 . S
C936 C938 1.391 . S
C937 C936 1.386 . S
C937 C941 1.393 . S
C938 H930 0.950 . S
C938 C936 1.391 . S
C938 C939 1.400 . S
C939 C938 1.400 . S
C939 C940 1.398 . S
C939 C945 1.491 . S
C940 H931 0.950 . S
C940 C939 1.398 . S
C940 C941 1.391 . S
C941 H929 0.950 . S
C941 C937 1.393 . S
C941 C940 1.391 . S
C942 H932 0.950 . S
C942 C943 1.386 . S
C942 C944 1.391 . S
C943 C942 1.386 . S
C943 C947 1.393 . S
C944 H933 0.950 . S
C944 C942 1.391 . S
C944 C945 1.400 . S
C945 C939 1.491 . S
C945 C944 1.400 . S
C945 C946 1.398 . S
C946 H934 0.950 . S
C946 C945 1.398 . S
C946 C947 1.391 . S
C947 H935 0.950 . S
C947 C943 1.393 . S
C947 C946 1.391 . S
H948 C956 0.950 . S
H949 C961 0.950 . S
H950 C958 0.950 . S
H951 C960 0.950 . S
H952 C962 0.950 . S
H953 C964 0.950 . S
H954 C966 0.950 . S
H955 C967 0.950 . S
C956 H948 0.950 . S
C956 C957 1.386 . S
C956 C958 1.391 . S
C957 C956 1.386 . S
C957 C961 1.393 . S
C958 H950 0.950 . S
C958 C956 1.391 . S
C958 C959 1.400 . S
C959 C958 1.400 . S
C959 C960 1.398 . S
C959 C965 1.491 . S
C960 H951 0.950 . S
C960 C959 1.398 . S
C960 C961 1.391 . S
C961 H949 0.950 . S
C961 C957 1.393 . S
C961 C960 1.391 . S
C962 H952 0.950 . S
C962 C963 1.386 . S
C962 C964 1.391 . S
C963 C962 1.386 . S
C963 C967 1.393 . S
C964 H953 0.950 . S
C964 C962 1.391 . S
C964 C965 1.400 . S
C965 C959 1.491 . S
C965 C964 1.400 . S
C965 C966 1.398 . S
C966 H954 0.950 . S
C966 C965 1.398 . S
C966 C967 1.391 . S
C967 H955 0.950 . S
C967 C963 1.393 . S
C967 C966 1.391 . S
H968 C976 0.950 . S
H969 C981 0.950 . S
H970 C978 0.950 . S
H971 C980 0.950 . S
H972 C982 0.950 . S
H973 C984 0.950 . S
H974 C986 0.950 . S
H975 C987 0.950 . S
C976 H968 0.950 . S
C976 C977 1.386 . S
C976 C978 1.391 . S
C977 C976 1.386 . S
C977 C981 1.393 1_655 S
C978 H970 0.950 . S
C978 C976 1.391 . S
C978 C979 1.400 . S
C979 C978 1.400 . S
C979 C980 1.398 1_655 S
C979 C985 1.491 1_655 S
C980 H971 0.950 . S
C980 C979 1.398 1_455 S
C980 C981 1.391 . S
C981 H969 0.950 . S
C981 C977 1.393 1_455 S
C981 C980 1.391 . S
C982 H972 0.950 . S
C982 C983 1.386 . S
C982 C984 1.391 . S
C983 C982 1.386 . S
C983 C987 1.393 1_455 S
C984 H973 0.950 . S
C984 C982 1.391 . S
C984 C985 1.400 . S
C985 C979 1.491 1_455 S
C985 C984 1.400 . S
C985 C986 1.398 1_455 S
C986 H974 0.950 . S
C986 C985 1.398 1_655 S
C986 C987 1.391 . S
C987 H975 0.950 . S
C987 C983 1.393 1_655 S
C987 C986 1.391 . S
H988 C996 0.950 . S
H989 C1001 0.950 . S
H990 C998 0.950 . S
H991 C1000 0.950 . S
H992 C1002 0.950 . S
H993 C1004 0.950 . S
H994 C1006 0.950 . S
H995 C1007 0.950 . S
C996 H988 0.950 . S
C996 C997 1.386 . S
C996 C998 1.391 . S
C997 C996 1.386 . S
C997 C1001 1.393 . S
C998 H990 0.950 . S
C998 C996 1.391 . S
C998 C999 1.400 . S
C999 C998 1.400 . S
C999 C1000 1.398 1_565 S
C999 C1005 1.491 1_565 S
C1000 H991 0.950 . S
C1000 C999 1.398 1_545 S
C1000 C1001 1.391 1_545 S
C1001 H989 0.950 . S
C1001 C997 1.393 . S
C1001 C1000 1.391 1_565 S
C1002 H992 0.950 . S
C1002 C1003 1.386 . S
C1002 C1004 1.391 . S
C1003 C1002 1.386 . S
C1003 C1007 1.393 . S
C1004 H993 0.950 . S
C1004 C1002 1.391 . S
C1004 C1005 1.400 . S
C1005 C999 1.491 1_545 S
C1005 C1004 1.400 . S
C1005 C1006 1.398 1_545 S
C1006 H994 0.950 . S
C1006 C1005 1.398 1_565 S
C1006 C1007 1.391 1_565 S
C1007 H995 0.950 . S
C1007 C1003 1.393 . S
C1007 C1006 1.391 1_545 S
H1008 C1016 0.950 . S
H1009 C1021 0.950 . S
H1010 C1018 0.950 . S
H1011 C1020 0.950 . S
H1012 C1022 0.950 . S
H1013 C1024 0.950 . S
H1014 C1026 0.950 . S
H1015 C1027 0.950 . S
C1016 H1008 0.950 . S
C1016 C1017 1.386 . S
C1016 C1018 1.391 . S
C1017 C1016 1.386 . S
C1017 C1021 1.393 . S
C1018 H1010 0.950 . S
C1018 C1016 1.391 . S
C1018 C1019 1.400 . S
C1019 C1018 1.400 . S
C1019 C1020 1.398 . S
C1019 C1025 1.491 . S
C1020 H1011 0.950 . S
C1020 C1019 1.398 . S
C1020 C1021 1.391 . S
C1021 H1009 0.950 . S
C1021 C1017 1.393 . S
C1021 C1020 1.391 . S
C1022 H1012 0.950 . S
C1022 C1023 1.386 . S
C1022 C1024 1.391 . S
C1023 C1022 1.386 . S
C1023 C1027 1.393 . S
C1024 H1013 0.950 . S
C1024 C1022 1.391 . S
C1024 C1025 1.400 . S
C1025 C1019 1.491 . S
C1025 C1024 1.400 . S
C1025 C1026 1.398 . S
C1026 H1014 0.950 . S
C1026 C1025 1.398 . S
C1026 C1027 1.391 . S
C1027 H1015 0.950 . S
C1027 C1023 1.393 . S
C1027 C1026 1.391 . S
H1028 C1036 0.950 . S
H1029 C1041 0.950 . S
H1030 C1038 0.950 . S
H1031 C1040 0.950 1_655 S
H1032 C1042 0.950 . S
H1033 C1044 0.950 . S
H1034 C1046 0.950 1_455 S
H1035 C1047 0.950 . S
C1036 H1028 0.950 . S
C1036 C1037 1.386 . S
C1036 C1038 1.391 . S
C1037 C1036 1.386 . S
C1037 C1041 1.393 . S
C1038 H1030 0.950 . S
C1038 C1036 1.391 . S
C1038 C1039 1.400 . S
C1039 C1038 1.400 . S
C1039 C1040 1.398 . S
C1039 C1045 1.491 1_455 S
C1040 H1031 0.950 1_455 S
C1040 C1039 1.398 . S
C1040 C1041 1.391 . S
C1041 H1029 0.950 . S
C1041 C1037 1.393 . S
C1041 C1040 1.391 . S
C1042 H1032 0.950 . S
C1042 C1043 1.386 . S
C1042 C1044 1.391 . S
C1043 C1042 1.386 . S
C1043 C1047 1.393 . S
C1044 H1033 0.950 . S
C1044 C1042 1.391 . S
C1044 C1045 1.400 . S
C1045 C1039 1.491 1_655 S
C1045 C1044 1.400 . S
C1045 C1046 1.398 . S
C1046 H1034 0.950 1_655 S
C1046 C1045 1.398 . S
C1046 C1047 1.391 . S
C1047 H1035 0.950 . S
C1047 C1043 1.393 . S
C1047 C1046 1.391 . S
H1048 C1056 0.950 . S
H1049 C1061 0.950 1_545 S
H1050 C1058 0.950 . S
H1051 C1060 0.950 . S
H1052 C1062 0.950 . S
H1053 C1064 0.950 . S
H1054 C1066 0.950 . S
H1055 C1067 0.950 1_565 S
C1056 H1048 0.950 . S
C1056 C1057 1.386 . S
C1056 C1058 1.391 . S
C1057 C1056 1.386 . S
C1057 C1061 1.393 . S
C1058 H1050 0.950 . S
C1058 C1056 1.391 . S
C1058 C1059 1.400 . S
C1059 C1058 1.400 . S
C1059 C1060 1.398 1_565 S
C1059 C1065 1.491 1_565 S
C1060 H1051 0.950 . S
C1060 C1059 1.398 1_545 S
C1060 C1061 1.391 1_545 S
C1061 H1049 0.950 1_565 S
C1061 C1057 1.393 . S
C1061 C1060 1.391 1_565 S
C1062 H1052 0.950 . S
C1062 C1063 1.386 . S
C1062 C1064 1.391 . S
C1063 C1062 1.386 . S
C1063 C1067 1.393 . S
C1064 H1053 0.950 . S
C1064 C1062 1.391 . S
C1064 C1065 1.400 . S
C1065 C1059 1.491 1_545 S
C1065 C1064 1.400 . S
C1065 C1066 1.398 1_545 S
C1066 H1054 0.950 . S
C1066 C1065 1.398 1_565 S
C1066 C1067 1.391 1_565 S
C1067 H1055 0.950 1_545 S
C1067 C1063 1.393 . S
C1067 C1066 1.391 1_545 S
H1068 C1076 0.950 . S
H1069 C1081 0.950 1_556 S
H1070 C1078 0.950 . S
H1071 C1080 0.950 1_556 S
H1072 C1082 0.950 1_556 S
H1073 C1084 0.950 1_556 S
H1074 C1086 0.950 . S
H1075 C1087 0.950 . S
C1076 H1068 0.950 . S
C1076 C1077 1.386 . S
C1076 C1078 1.391 . S
C1077 C1076 1.386 . S
C1077 C1081 1.393 . S
C1078 H1070 0.950 . S
C1078 C1076 1.391 . S
C1078 C1079 1.400 . S
C1079 C1078 1.400 . S
C1079 C1080 1.398 . S
C1079 C1085 1.491 . S
C1080 H1071 0.950 1_554 S
C1080 C1079 1.398 . S
C1080 C1081 1.391 . S
C1081 H1069 0.950 1_554 S
C1081 C1077 1.393 . S
C1081 C1080 1.391 . S
C1082 H1072 0.950 1_554 S
C1082 C1083 1.386 . S
C1082 C1084 1.391 . S
C1083 C1082 1.386 . S
C1083 C1087 1.393 . S
C1084 H1073 0.950 1_554 S
C1084 C1082 1.391 . S
C1084 C1085 1.400 . S
C1085 C1079 1.491 . S
C1085 C1084 1.400 . S
C1085 C1086 1.398 . S
C1086 H1074 0.950 . S
C1086 C1085 1.398 . S
C1086 C1087 1.391 . S
C1087 H1075 0.950 . S
C1087 C1083 1.393 . S
C1087 C1086 1.391 . S
H1088 C1096 0.950 . S
H1089 C1101 0.950 . S
H1090 C1098 0.950 . S
H1091 C1100 0.950 . S
H1092 C1102 0.950 . S
H1093 C1104 0.950 . S
H1094 C1106 0.950 . S
H1095 C1107 0.950 . S
C1096 H1088 0.950 . S
C1096 C1097 1.386 . S
C1096 C1098 1.391 . S
C1097 C1096 1.386 . S
C1097 C1101 1.393 1_455 S
C1098 H1090 0.950 . S
C1098 C1096 1.391 . S
C1098 C1099 1.400 . S
C1099 C1098 1.400 . S
C1099 C1100 1.398 1_455 S
C1099 C1105 1.491 1_455 S
C1100 H1091 0.950 . S
C1100 C1099 1.398 1_655 S
C1100 C1101 1.391 . S
C1101 H1089 0.950 . S
C1101 C1097 1.393 1_655 S
C1101 C1100 1.391 . S
C1102 H1092 0.950 . S
C1102 C1103 1.386 . S
C1102 C1104 1.391 . S
C1103 C1102 1.386 . S
C1103 C1107 1.393 1_655 S
C1104 H1093 0.950 . S
C1104 C1102 1.391 . S
C1104 C1105 1.400 . S
C1105 C1099 1.491 1_655 S
C1105 C1104 1.400 . S
C1105 C1106 1.398 1_655 S
C1106 H1094 0.950 . S
C1106 C1105 1.398 1_455 S
C1106 C1107 1.391 . S
C1107 H1095 0.950 . S
C1107 C1103 1.393 1_455 S
C1107 C1106 1.391 . S
H1108 C1116 0.950 . S
H1109 C1121 0.950 . S
H1110 C1118 0.950 . S
H1111 C1120 0.950 . S
H1112 C1122 0.950 . S
H1113 C1124 0.950 . S
H1114 C1126 0.950 . S
H1115 C1127 0.950 . S
C1116 H1108 0.950 . S
C1116 C1117 1.386 1_545 S
C1116 C1118 1.391 . S
C1117 C1116 1.386 1_565 S
C1117 C1121 1.393 . S
C1118 H1110 0.950 . S
C1118 C1116 1.391 . S
C1118 C1119 1.400 1_545 S
C1119 C1118 1.400 1_565 S
C1119 C1120 1.398 . S
C1119 C1125 1.491 1_565 S
C1120 H1111 0.950 . S
C1120 C1119 1.398 . S
C1120 C1121 1.391 . S
C1121 H1109 0.950 . S
C1121 C1117 1.393 . S
C1121 C1120 1.391 . S
C1122 H1112 0.950 . S
C1122 C1123 1.386 1_565 S
C1122 C1124 1.391 . S
C1123 C1122 1.386 1_545 S
C1123 C1127 1.393 . S
C1124 H1113 0.950 . S
C1124 C1122 1.391 . S
C1124 C1125 1.400 1_565 S
C1125 C1119 1.491 1_545 S
C1125 C1124 1.400 1_545 S
C1125 C1126 1.398 . S
C1126 H1114 0.950 . S
C1126 C1125 1.398 . S
C1126 C1127 1.391 . S
C1127 H1115 0.950 . S
C1127 C1123 1.393 . S
C1127 C1126 1.391 . S
H1128 C1136 0.950 . S
H1129 C1141 0.950 . S
H1130 C1138 0.950 . S
H1131 C1140 0.950 . S
H1132 C1142 0.950 . S
H1133 C1144 0.950 . S
H1134 C1146 0.950 . S
H1135 C1147 0.950 . S
C1136 H1128 0.950 . S
C1136 C1137 1.386 . S
C1136 C1138 1.391 . S
C1137 C1136 1.386 . S
C1137 C1141 1.393 . S
C1138 H1130 0.950 . S
C1138 C1136 1.391 . S
C1138 C1139 1.400 . S
C1139 C1138 1.400 . S
C1139 C1140 1.398 . S
C1139 C1145 1.491 . S
C1140 H1131 0.950 . S
C1140 C1139 1.398 . S
C1140 C1141 1.391 . S
C1141 H1129 0.950 . S
C1141 C1137 1.393 . S
C1141 C1140 1.391 . S
C1142 H1132 0.950 . S
C1142 C1143 1.386 . S
C1142 C1144 1.391 . S
C1143 C1142 1.386 . S
C1143 C1147 1.393 . S
C1144 H1133 0.950 . S
C1144 C1142 1.391 . S
C1144 C1145 1.400 . S
C1145 C1139 1.491 . S
C1145 C1144 1.400 . S
C1145 C1146 1.398 . S
C1146 H1134 0.950 . S
C1146 C1145 1.398 . S
C1146 C1147 1.391 . S
C1147 H1135 0.950 . S
C1147 C1143 1.393 . S
C1147 C1146 1.391 . S
H1148 C1156 0.950 . S
H1149 C1161 0.950 . S
H1150 C1158 0.950 . S
H1151 C1160 0.950 . S
H1152 C1162 0.950 . S
H1153 C1164 0.950 . S
H1154 C1166 0.950 . S
H1155 C1167 0.950 . S
C1156 H1148 0.950 . S
C1156 C1157 1.386 . S
C1156 C1158 1.391 . S
C1157 C1156 1.386 . S
C1157 C1161 1.393 1_655 S
C1158 H1150 0.950 . S
C1158 C1156 1.391 . S
C1158 C1159 1.400 . S
C1159 C1158 1.400 . S
C1159 C1160 1.398 1_655 S
C1159 C1165 1.491 1_655 S
C1160 H1151 0.950 . S
C1160 C1159 1.398 1_455 S
C1160 C1161 1.391 . S
C1161 H1149 0.950 . S
C1161 C1157 1.393 1_455 S
C1161 C1160 1.391 . S
C1162 H1152 0.950 . S
C1162 C1163 1.386 . S
C1162 C1164 1.391 . S
C1163 C1162 1.386 . S
C1163 C1167 1.393 1_455 S
C1164 H1153 0.950 . S
C1164 C1162 1.391 . S
C1164 C1165 1.400 . S
C1165 C1159 1.491 1_455 S
C1165 C1164 1.400 . S
C1165 C1166 1.398 1_455 S
C1166 H1154 0.950 . S
C1166 C1165 1.398 1_655 S
C1166 C1167 1.391 . S
C1167 H1155 0.950 . S
C1167 C1163 1.393 1_655 S
C1167 C1166 1.391 . S
H1168 C1176 0.950 . S
H1169 C1181 0.950 . S
H1170 C1178 0.950 . S
H1171 C1180 0.950 . S
H1172 C1182 0.950 . S
H1173 C1184 0.950 . S
H1174 C1186 0.950 . S
H1175 C1187 0.950 . S
C1176 H1168 0.950 . S
C1176 C1177 1.386 . S
C1176 C1178 1.391 . S
C1177 C1176 1.386 . S
C1177 C1181 1.393 1_545 S
C1178 H1170 0.950 . S
C1178 C1176 1.391 . S
C1178 C1179 1.400 . S
C1179 C1178 1.400 . S
C1179 C1180 1.398 1_545 S
C1179 C1185 1.491 1_545 S
C1180 H1171 0.950 . S
C1180 C1179 1.398 1_565 S
C1180 C1181 1.391 . S
C1181 H1169 0.950 . S
C1181 C1177 1.393 1_565 S
C1181 C1180 1.391 . S
C1182 H1172 0.950 . S
C1182 C1183 1.386 . S
C1182 C1184 1.391 . S
C1183 C1182 1.386 . S
C1183 C1187 1.393 1_565 S
C1184 H1173 0.950 . S
C1184 C1182 1.391 . S
C1184 C1185 1.400 . S
C1185 C1179 1.491 1_565 S
C1185 C1184 1.400 . S
C1185 C1186 1.398 1_565 S
C1186 H1174 0.950 . S
C1186 C1185 1.398 1_545 S
C1186 C1187 1.391 . S
C1187 H1175 0.950 . S
C1187 C1183 1.393 1_545 S
C1187 C1186 1.391 . S
C717 C3 1.584 . S
C723 C534 1.588 . S
C737 C62 1.587 . S
C743 C593 1.585 . S
C757 C121 1.579 . S
C763 C652 1.587 . S
C777 C180 1.576 . S
C783 C357 1.593 . S
C797 C416 1.582 . S
C803 C239 1.584 . S
C817 C475 1.588 . S
C823 C298 1.584 . S
C837 C595 1.592 . S
C843 C5 1.591 . S
C857 C64 1.599 . S
C863 C654 1.600 . S
C877 C123 1.597 . S
C883 C359 1.599 . S
C897 C182 1.602 . S
C903 C418 1.602 . S
C917 C241 1.592 . S
C923 C477 1.593 . S
C937 C300 1.592 . S
C943 C536 1.592 . S
C957 C564 0.868 . S
C963 C33 0.859 . S
C977 C92 0.863 . S
C983 C623 0.875 . S
C997 C151 0.882 . S
C1003 C682 0.883 . S
C1017 C387 0.860 . S
C1023 C210 0.870 . S
C1037 C269 0.883 . S
C1043 C446 0.882 . S
C1057 C505 0.859 . S
C1063 C328 0.866 . S
C1077 C52 1.598 . S
C1083 C229 1.597 . S
C1097 C288 1.592 . S
C1103 C111 1.597 . S
C1117 C170 1.598 . S
C1123 C347 1.594 . S
C1137 C406 1.596 . S
C1143 C583 1.598 . S
C1157 C465 1.595 . S
C1163 C642 1.599 . S
C1177 C701 1.594 . S
C1183 C524 1.598 . S
