# Generated by pormake.
# Topology sst, (4)-cn, num edge types: 1
# Building blocks:
#     Node 0, Type 0, BuildingBlock: NAWXER_clean_sbu_0, # of connection points: 4
#     Node 1, Type 0, BuildingBlock: NAWXER_clean_sbu_0, # of connection points: 4
#     Node 2, Type 0, BuildingBlock: NAWXER_clean_sbu_0, # of connection points: 4
#     Node 3, Type 0, BuildingBlock: NAWXER_clean_sbu_0, # of connection points: 4
#     Node 4, Type 0, BuildingBlock: NAWXER_clean_sbu_0, # of connection points: 4
#     Node 5, Type 0, BuildingBlock: NAWXER_clean_sbu_0, # of connection points: 4
#     Node 6, Type 0, BuildingBlock: NAWXER_clean_sbu_0, # of connection points: 4
#     Node 7, Type 0, BuildingBlock: NAWXER_clean_sbu_0, # of connection points: 4
#     Node 8, Type 0, BuildingBlock: NAWXER_clean_sbu_0, # of connection points: 4
#     Node 9, Type 0, BuildingBlock: NAWXER_clean_sbu_0, # of connection points: 4
#     Node 10, Type 0, BuildingBlock: NAWXER_clean_sbu_0, # of connection points: 4
#     Node 11, Type 0, BuildingBlock: NAWXER_clean_sbu_0, # of connection points: 4
#     Node 12, Type 0, BuildingBlock: NAWXER_clean_sbu_0, # of connection points: 4
#     Node 13, Type 0, BuildingBlock: NAWXER_clean_sbu_0, # of connection points: 4
#     Node 14, Type 0, BuildingBlock: NAWXER_clean_sbu_0, # of connection points: 4
#     Node 15, Type 0, BuildingBlock: NAWXER_clean_sbu_0, # of connection points: 4
#     Node 16, Type 0, BuildingBlock: NAWXER_clean_sbu_0, # of connection points: 4
#     Node 17, Type 0, BuildingBlock: NAWXER_clean_sbu_0, # of connection points: 4
#     Node 18, Type 0, BuildingBlock: NAWXER_clean_sbu_0, # of connection points: 4
#     Node 19, Type 0, BuildingBlock: NAWXER_clean_sbu_0, # of connection points: 4
#     Node 20, Type 0, BuildingBlock: NAWXER_clean_sbu_0, # of connection points: 4
#     Node 21, Type 0, BuildingBlock: NAWXER_clean_sbu_0, # of connection points: 4
#     Node 22, Type 0, BuildingBlock: NAWXER_clean_sbu_0, # of connection points: 4
#     Node 23, Type 0, BuildingBlock: NAWXER_clean_sbu_0, # of connection points: 4
#     Node 24, Type 0, BuildingBlock: NAWXER_clean_sbu_0, # of connection points: 4
#     Node 25, Type 0, BuildingBlock: NAWXER_clean_sbu_0, # of connection points: 4
#     Node 26, Type 0, BuildingBlock: NAWXER_clean_sbu_0, # of connection points: 4
#     Node 27, Type 0, BuildingBlock: NAWXER_clean_sbu_0, # of connection points: 4
#     Node 28, Type 0, BuildingBlock: NAWXER_clean_sbu_0, # of connection points: 4
#     Node 29, Type 0, BuildingBlock: NAWXER_clean_sbu_0, # of connection points: 4
#     Node 30, Type 0, BuildingBlock: NAWXER_clean_sbu_0, # of connection points: 4
#     Node 31, Type 0, BuildingBlock: NAWXER_clean_sbu_0, # of connection points: 4
#     Node 32, Type 0, BuildingBlock: NAWXER_clean_sbu_0, # of connection points: 4
#     Node 33, Type 0, BuildingBlock: NAWXER_clean_sbu_0, # of connection points: 4
#     Node 34, Type 0, BuildingBlock: NAWXER_clean_sbu_0, # of connection points: 4
#     Node 35, Type 0, BuildingBlock: NAWXER_clean_sbu_0, # of connection points: 4
#     Node 36, Type 0, BuildingBlock: NAWXER_clean_sbu_0, # of connection points: 4
#     Node 37, Type 0, BuildingBlock: NAWXER_clean_sbu_0, # of connection points: 4
#     Node 38, Type 0, BuildingBlock: NAWXER_clean_sbu_0, # of connection points: 4
#     Node 39, Type 0, BuildingBlock: NAWXER_clean_sbu_0, # of connection points: 4
#     Node 40, Type 0, BuildingBlock: NAWXER_clean_sbu_0, # of connection points: 4
#     Node 41, Type 0, BuildingBlock: NAWXER_clean_sbu_0, # of connection points: 4
#     Node 42, Type 0, BuildingBlock: NAWXER_clean_sbu_0, # of connection points: 4
#     Node 43, Type 0, BuildingBlock: NAWXER_clean_sbu_0, # of connection points: 4
#     Node 44, Type 0, BuildingBlock: NAWXER_clean_sbu_0, # of connection points: 4
#     Node 45, Type 0, BuildingBlock: NAWXER_clean_sbu_0, # of connection points: 4
#     Node 46, Type 0, BuildingBlock: NAWXER_clean_sbu_0, # of connection points: 4
#     Node 47, Type 0, BuildingBlock: NAWXER_clean_sbu_0, # of connection points: 4
#     Edge 48, Type (0, 0), BuildingBlock: XIVTED_clean_linker_0, # of connection points: 2
#     Edge 49, Type (0, 0), BuildingBlock: XIVTED_clean_linker_0, # of connection points: 2
#     Edge 50, Type (0, 0), BuildingBlock: XIVTED_clean_linker_0, # of connection points: 2
#     Edge 51, Type (0, 0), BuildingBlock: XIVTED_clean_linker_0, # of connection points: 2
#     Edge 52, Type (0, 0), BuildingBlock: XIVTED_clean_linker_0, # of connection points: 2
#     Edge 53, Type (0, 0), BuildingBlock: XIVTED_clean_linker_0, # of connection points: 2
#     Edge 54, Type (0, 0), BuildingBlock: XIVTED_clean_linker_0, # of connection points: 2
#     Edge 55, Type (0, 0), BuildingBlock: XIVTED_clean_linker_0, # of connection points: 2
#     Edge 56, Type (0, 0), BuildingBlock: XIVTED_clean_linker_0, # of connection points: 2
#     Edge 57, Type (0, 0), BuildingBlock: XIVTED_clean_linker_0, # of connection points: 2
#     Edge 58, Type (0, 0), BuildingBlock: XIVTED_clean_linker_0, # of connection points: 2
#     Edge 59, Type (0, 0), BuildingBlock: XIVTED_clean_linker_0, # of connection points: 2
#     Edge 60, Type (0, 0), BuildingBlock: XIVTED_clean_linker_0, # of connection points: 2
#     Edge 61, Type (0, 0), BuildingBlock: XIVTED_clean_linker_0, # of connection points: 2
#     Edge 62, Type (0, 0), BuildingBlock: XIVTED_clean_linker_0, # of connection points: 2
#     Edge 63, Type (0, 0), BuildingBlock: XIVTED_clean_linker_0, # of connection points: 2
#     Edge 64, Type (0, 0), BuildingBlock: XIVTED_clean_linker_0, # of connection points: 2
#     Edge 65, Type (0, 0), BuildingBlock: XIVTED_clean_linker_0, # of connection points: 2
#     Edge 66, Type (0, 0), BuildingBlock: XIVTED_clean_linker_0, # of connection points: 2
#     Edge 67, Type (0, 0), BuildingBlock: XIVTED_clean_linker_0, # of connection points: 2
#     Edge 68, Type (0, 0), BuildingBlock: XIVTED_clean_linker_0, # of connection points: 2
#     Edge 69, Type (0, 0), BuildingBlock: XIVTED_clean_linker_0, # of connection points: 2
#     Edge 70, Type (0, 0), BuildingBlock: XIVTED_clean_linker_0, # of connection points: 2
#     Edge 71, Type (0, 0), BuildingBlock: XIVTED_clean_linker_0, # of connection points: 2
#     Edge 72, Type (0, 0), BuildingBlock: XIVTED_clean_linker_0, # of connection points: 2
#     Edge 73, Type (0, 0), BuildingBlock: XIVTED_clean_linker_0, # of connection points: 2
#     Edge 74, Type (0, 0), BuildingBlock: XIVTED_clean_linker_0, # of connection points: 2
#     Edge 75, Type (0, 0), BuildingBlock: XIVTED_clean_linker_0, # of connection points: 2
#     Edge 76, Type (0, 0), BuildingBlock: XIVTED_clean_linker_0, # of connection points: 2
#     Edge 77, Type (0, 0), BuildingBlock: XIVTED_clean_linker_0, # of connection points: 2
#     Edge 78, Type (0, 0), BuildingBlock: XIVTED_clean_linker_0, # of connection points: 2
#     Edge 79, Type (0, 0), BuildingBlock: XIVTED_clean_linker_0, # of connection points: 2
#     Edge 80, Type (0, 0), BuildingBlock: XIVTED_clean_linker_0, # of connection points: 2
#     Edge 81, Type (0, 0), BuildingBlock: XIVTED_clean_linker_0, # of connection points: 2
#     Edge 82, Type (0, 0), BuildingBlock: XIVTED_clean_linker_0, # of connection points: 2
#     Edge 83, Type (0, 0), BuildingBlock: XIVTED_clean_linker_0, # of connection points: 2
#     Edge 84, Type (0, 0), BuildingBlock: XIVTED_clean_linker_0, # of connection points: 2
#     Edge 85, Type (0, 0), BuildingBlock: XIVTED_clean_linker_0, # of connection points: 2
#     Edge 86, Type (0, 0), BuildingBlock: XIVTED_clean_linker_0, # of connection points: 2
#     Edge 87, Type (0, 0), BuildingBlock: XIVTED_clean_linker_0, # of connection points: 2
#     Edge 88, Type (0, 0), BuildingBlock: XIVTED_clean_linker_0, # of connection points: 2
#     Edge 89, Type (0, 0), BuildingBlock: XIVTED_clean_linker_0, # of connection points: 2
#     Edge 90, Type (0, 0), BuildingBlock: XIVTED_clean_linker_0, # of connection points: 2
#     Edge 91, Type (0, 0), BuildingBlock: XIVTED_clean_linker_0, # of connection points: 2
#     Edge 92, Type (0, 0), BuildingBlock: XIVTED_clean_linker_0, # of connection points: 2
#     Edge 93, Type (0, 0), BuildingBlock: XIVTED_clean_linker_0, # of connection points: 2
#     Edge 94, Type (0, 0), BuildingBlock: XIVTED_clean_linker_0, # of connection points: 2
#     Edge 95, Type (0, 0), BuildingBlock: XIVTED_clean_linker_0, # of connection points: 2
#     Edge 96, Type (0, 0), BuildingBlock: XIVTED_clean_linker_0, # of connection points: 2
#     Edge 97, Type (0, 0), BuildingBlock: XIVTED_clean_linker_0, # of connection points: 2
#     Edge 98, Type (0, 0), BuildingBlock: XIVTED_clean_linker_0, # of connection points: 2
#     Edge 99, Type (0, 0), BuildingBlock: XIVTED_clean_linker_0, # of connection points: 2
#     Edge 100, Type (0, 0), BuildingBlock: XIVTED_clean_linker_0, # of connection points: 2
#     Edge 101, Type (0, 0), BuildingBlock: XIVTED_clean_linker_0, # of connection points: 2
#     Edge 102, Type (0, 0), BuildingBlock: XIVTED_clean_linker_0, # of connection points: 2
#     Edge 103, Type (0, 0), BuildingBlock: XIVTED_clean_linker_0, # of connection points: 2
#     Edge 104, Type (0, 0), BuildingBlock: XIVTED_clean_linker_0, # of connection points: 2
#     Edge 105, Type (0, 0), BuildingBlock: XIVTED_clean_linker_0, # of connection points: 2
#     Edge 106, Type (0, 0), BuildingBlock: XIVTED_clean_linker_0, # of connection points: 2
#     Edge 107, Type (0, 0), BuildingBlock: XIVTED_clean_linker_0, # of connection points: 2
#     Edge 108, Type (0, 0), BuildingBlock: XIVTED_clean_linker_0, # of connection points: 2
#     Edge 109, Type (0, 0), BuildingBlock: XIVTED_clean_linker_0, # of connection points: 2
#     Edge 110, Type (0, 0), BuildingBlock: XIVTED_clean_linker_0, # of connection points: 2
#     Edge 111, Type (0, 0), BuildingBlock: XIVTED_clean_linker_0, # of connection points: 2
#     Edge 112, Type (0, 0), BuildingBlock: XIVTED_clean_linker_0, # of connection points: 2
#     Edge 113, Type (0, 0), BuildingBlock: XIVTED_clean_linker_0, # of connection points: 2
#     Edge 114, Type (0, 0), BuildingBlock: XIVTED_clean_linker_0, # of connection points: 2
#     Edge 115, Type (0, 0), BuildingBlock: XIVTED_clean_linker_0, # of connection points: 2
#     Edge 116, Type (0, 0), BuildingBlock: XIVTED_clean_linker_0, # of connection points: 2
#     Edge 117, Type (0, 0), BuildingBlock: XIVTED_clean_linker_0, # of connection points: 2
#     Edge 118, Type (0, 0), BuildingBlock: XIVTED_clean_linker_0, # of connection points: 2
#     Edge 119, Type (0, 0), BuildingBlock: XIVTED_clean_linker_0, # of connection points: 2
#     Edge 120, Type (0, 0), BuildingBlock: XIVTED_clean_linker_0, # of connection points: 2
#     Edge 121, Type (0, 0), BuildingBlock: XIVTED_clean_linker_0, # of connection points: 2
#     Edge 122, Type (0, 0), BuildingBlock: XIVTED_clean_linker_0, # of connection points: 2
#     Edge 123, Type (0, 0), BuildingBlock: XIVTED_clean_linker_0, # of connection points: 2
#     Edge 124, Type (0, 0), BuildingBlock: XIVTED_clean_linker_0, # of connection points: 2
#     Edge 125, Type (0, 0), BuildingBlock: XIVTED_clean_linker_0, # of connection points: 2
#     Edge 126, Type (0, 0), BuildingBlock: XIVTED_clean_linker_0, # of connection points: 2
#     Edge 127, Type (0, 0), BuildingBlock: XIVTED_clean_linker_0, # of connection points: 2
#     Edge 128, Type (0, 0), BuildingBlock: XIVTED_clean_linker_0, # of connection points: 2
#     Edge 129, Type (0, 0), BuildingBlock: XIVTED_clean_linker_0, # of connection points: 2
#     Edge 130, Type (0, 0), BuildingBlock: XIVTED_clean_linker_0, # of connection points: 2
#     Edge 131, Type (0, 0), BuildingBlock: XIVTED_clean_linker_0, # of connection points: 2
#     Edge 132, Type (0, 0), BuildingBlock: XIVTED_clean_linker_0, # of connection points: 2
#     Edge 133, Type (0, 0), BuildingBlock: XIVTED_clean_linker_0, # of connection points: 2
#     Edge 134, Type (0, 0), BuildingBlock: XIVTED_clean_linker_0, # of connection points: 2
#     Edge 135, Type (0, 0), BuildingBlock: XIVTED_clean_linker_0, # of connection points: 2
#     Edge 136, Type (0, 0), BuildingBlock: XIVTED_clean_linker_0, # of connection points: 2
#     Edge 137, Type (0, 0), BuildingBlock: XIVTED_clean_linker_0, # of connection points: 2
#     Edge 138, Type (0, 0), BuildingBlock: XIVTED_clean_linker_0, # of connection points: 2
#     Edge 139, Type (0, 0), BuildingBlock: XIVTED_clean_linker_0, # of connection points: 2
#     Edge 140, Type (0, 0), BuildingBlock: XIVTED_clean_linker_0, # of connection points: 2
#     Edge 141, Type (0, 0), BuildingBlock: XIVTED_clean_linker_0, # of connection points: 2
#     Edge 142, Type (0, 0), BuildingBlock: XIVTED_clean_linker_0, # of connection points: 2
#     Edge 143, Type (0, 0), BuildingBlock: XIVTED_clean_linker_0, # of connection points: 2
# Relax obj value: 0.000
# Max RMSD: 0.000
# Mean RMSD: 0.000
data_MOF--net-sst--node1-NAWXER_clean_sbu_0--edge1-XIVTED_clean_linker_0
_symmetry_space_group_name_H-M    P1
_symmetry_Int_Tables_number       1
_symmetry_cell_setting            triclinic
loop_
_symmetry_equiv_pos_as_xyz
'x, y, z'
_cell_length_a     59.017921
_cell_length_b     59.085427
_cell_length_c     58.977607
_cell_angle_alpha  97.193109
_cell_angle_beta   97.166914
_cell_angle_gamma 97.275229
loop_
_atom_site_label
_atom_site_type_symbol
_atom_site_fract_x
_atom_site_fract_y
_atom_site_fract_z
_atom_type_partial_charge
C0 C 0.14977 0.20551 0.37993 0.0
C1 C 0.13856 0.12226 0.38336 0.0
O2 O 0.14502 0.19301 0.36005 0.0
Zn3 Zn 0.13759 0.15709 0.34562 0.0
O4 O 0.15015 0.19593 0.39813 0.0
Zn5 Zn 0.14311 0.16426 0.38279 0.0
O6 O 0.1733 0.16201 0.36705 0.0
O7 O 0.16408 0.15348 0.32916 0.0
O8 O 0.14256 0.13841 0.40039 0.0
O9 O 0.13633 0.12732 0.36278 0.0
O10 O 0.10608 0.15414 0.3293 0.0
O11 O 0.10816 0.16173 0.36714 0.0
C12 C 0.17933 0.15798 0.34701 0.0
C13 C 0.09609 0.15782 0.34705 0.0
C14 C 0.89487 0.1856 0.38891 0.0
C15 C 0.88441 0.10215 0.37908 0.0
O16 O 0.89085 0.17637 0.36768 0.0
Zn17 Zn 0.88274 0.14271 0.3477 0.0
O18 O 0.8951 0.1731 0.40497 0.0
Zn19 Zn 0.88868 0.14422 0.38452 0.0
O20 O 0.91882 0.14484 0.36769 0.0
O21 O 0.9089 0.14311 0.33009 0.0
O22 O 0.88772 0.11629 0.39765 0.0
O23 O 0.88201 0.1097 0.35957 0.0
O24 O 0.85106 0.14401 0.33316 0.0
O25 O 0.85412 0.14556 0.37091 0.0
C26 C 0.92454 0.14447 0.34739 0.0
C27 C 0.84182 0.14596 0.35156 0.0
C28 C 0.89875 0.93661 0.38897 0.0
C29 C 0.88845 0.8541 0.3931 0.0
O30 O 0.89694 0.92054 0.37207 0.0
Zn31 Zn 0.89414 0.89506 0.39 0.0
O32 O 0.89849 0.9316 0.40945 0.0
Zn33 Zn 0.89509 0.90243 0.42698 0.0
O34 O 0.92538 0.90605 0.44671 0.0
O35 O 0.92737 0.89787 0.40958 0.0
O36 O 0.88967 0.86658 0.41278 0.0
O37 O 0.89044 0.86357 0.37508 0.0
O38 O 0.8614 0.89725 0.40126 0.0
O39 O 0.86602 0.90617 0.43921 0.0
C40 C 0.93734 0.90189 0.43053 0.0
C41 C 0.85278 0.90178 0.41991 0.0
C42 C 0.14035 0.95524 0.40067 0.0
C43 C 0.14939 0.87383 0.40198 0.0
O44 O 0.13766 0.93944 0.38337 0.0
Zn45 Zn 0.14365 0.91422 0.4004 0.0
O46 O 0.14521 0.95015 0.42106 0.0
Zn47 Zn 0.15088 0.92042 0.43739 0.0
O48 O 0.18282 0.92916 0.45237 0.0
O49 O 0.17925 0.92457 0.41427 0.0
O50 O 0.15229 0.88574 0.42213 0.0
O51 O 0.14367 0.88333 0.38433 0.0
O52 O 0.1141 0.90989 0.41758 0.0
O53 O 0.12479 0.91744 0.45522 0.0
C54 C 0.19198 0.92965 0.43396 0.0
C55 C 0.10882 0.91165 0.43809 0.0
C56 C 0.12034 0.91093 0.63239 0.0
C57 C 0.09386 0.82774 0.62542 0.0
O58 O 0.11476 0.89692 0.61368 0.0
Zn59 Zn 0.10788 0.86891 0.62739 0.0
O60 O 0.12045 0.90321 0.65175 0.0
Zn61 Zn 0.11315 0.87127 0.66466 0.0
O62 O 0.1438 0.86662 0.67938 0.0
O63 O 0.14082 0.86244 0.64141 0.0
O64 O 0.09962 0.83781 0.64626 0.0
O65 O 0.09592 0.83922 0.60871 0.0
O66 O 0.07926 0.87656 0.64415 0.0
O67 O 0.08751 0.87757 0.68187 0.0
C68 C 0.1526 0.86191 0.66101 0.0
C69 C 0.07328 0.87955 0.66433 0.0
C70 C 0.12979 0.16573 0.63841 0.0
C71 C 0.13365 0.08261 0.6355 0.0
O72 O 0.13011 0.15478 0.61836 0.0
Zn73 Zn 0.13066 0.12119 0.60155 0.0
O74 O 0.13042 0.15507 0.65591 0.0
Zn75 Zn 0.13228 0.12451 0.63915 0.0
O76 O 0.16463 0.12919 0.62697 0.0
O77 O 0.16 0.12555 0.5889 0.0
O78 O 0.13411 0.09675 0.65382 0.0
O79 O 0.13246 0.09 0.61592 0.0
O80 O 0.09968 0.11508 0.58288 0.0
O81 O 0.09893 0.11672 0.62037 0.0
C82 C 0.17334 0.12929 0.60814 0.0
C83 C 0.08825 0.11366 0.59976 0.0
C84 C 0.87541 0.15962 0.58482 0.0
C85 C 0.86376 0.07449 0.57562 0.0
O86 O 0.8675 0.14622 0.56609 0.0
Zn87 Zn 0.86954 0.1167 0.57812 0.0
O88 O 0.88079 0.151 0.60326 0.0
Zn89 Zn 0.88068 0.11853 0.6148 0.0
O90 O 0.91308 0.11818 0.62534 0.0
O91 O 0.90578 0.11721 0.58757 0.0
O92 O 0.87076 0.08482 0.59616 0.0
O93 O 0.86123 0.08616 0.55892 0.0
O94 O 0.84264 0.11511 0.59929 0.0
O95 O 0.85779 0.11898 0.63605 0.0
C96 C 0.92021 0.11753 0.60579 0.0
C97 C 0.84012 0.11595 0.62063 0.0
C98 C 0.8586 0.91108 0.6005 0.0
C99 C 0.86687 0.8324 0.61403 0.0
O100 O 0.85999 0.89396 0.58565 0.0
Zn101 Zn 0.86256 0.87142 0.60683 0.0
O102 O 0.85948 0.90849 0.62187 0.0
Zn103 Zn 0.8629 0.88147 0.64278 0.0
O104 O 0.89206 0.89158 0.66314 0.0
O105 O 0.89613 0.88283 0.62654 0.0
O106 O 0.86566 0.84591 0.63249 0.0
O107 O 0.86591 0.84011 0.5948 0.0
O108 O 0.82904 0.86686 0.61847 0.0
O109 O 0.83442 0.87925 0.6559 0.0
C110 C 0.90511 0.88966 0.64762 0.0
C111 C 0.82084 0.87052 0.63757 0.0
C112 C 0.40548 0.1556 0.14732 0.0
C113 C 0.40151 0.07092 0.13129 0.0
O114 O 0.42243 0.14477 0.15209 0.0
Zn115 Zn 0.40636 0.11367 0.13806 0.0
O116 O 0.38636 0.1444 0.1367 0.0
Zn117 Zn 0.37037 0.11066 0.12305 0.0
O118 O 0.3461 0.10688 0.14277 0.0
O119 O 0.3816 0.10863 0.16095 0.0
O120 O 0.38311 0.07883 0.1242 0.0
O121 O 0.41966 0.08495 0.13995 0.0
O122 O 0.40126 0.11605 0.1018 0.0
O123 O 0.36379 0.11259 0.09036 0.0
C124 C 0.35979 0.10622 0.16111 0.0
C125 C 0.38436 0.11556 0.08571 0.0
C126 C 0.93791 0.41336 0.14148 0.0
C127 C 0.85418 0.41668 0.13859 0.0
O128 O 0.92434 0.39426 0.13626 0.0
Zn129 Zn 0.88912 0.38018 0.13098 0.0
O130 O 0.92959 0.43222 0.14505 0.0
Zn131 Zn 0.89684 0.41775 0.14086 0.0
O132 O 0.89856 0.39838 0.16875 0.0
O133 O 0.88872 0.36115 0.1563 0.0
O134 O 0.8699 0.43399 0.14504 0.0
O135 O 0.85981 0.39674 0.13312 0.0
O136 O 0.88533 0.36824 0.09787 0.0
O137 O 0.89201 0.40625 0.10475 0.0
C138 C 0.89549 0.37757 0.1729 0.0
C139 C 0.88808 0.38761 0.09036 0.0
C140 C 0.62361 0.91806 0.12758 0.0
C141 C 0.62522 0.83434 0.11606 0.0
O142 O 0.64167 0.90831 0.1278 0.0
Zn143 Zn 0.62633 0.87629 0.12416 0.0
O144 O 0.60389 0.9057 0.12588 0.0
Zn145 Zn 0.58897 0.87068 0.12191 0.0
O146 O 0.57636 0.86872 0.15113 0.0
O147 O 0.61441 0.87306 0.15616 0.0
O148 O 0.60501 0.8401 0.11643 0.0
O149 O 0.64289 0.84985 0.12029 0.0
O150 O 0.60743 0.87335 0.09056 0.0
O151 O 0.56982 0.8689 0.09155 0.0
C152 C 0.59539 0.87037 0.16445 0.0
C153 C 0.58674 0.87079 0.08007 0.0
C154 C 0.15682 0.57857 0.13108 0.0
C155 C 0.07362 0.57699 0.13159 0.0
O156 O 0.14212 0.56086 0.13117 0.0
Zn157 Zn 0.11529 0.57691 0.13105 0.0
O158 O 0.15034 0.59852 0.13176 0.0
Zn159 Zn 0.1191 0.6134 0.13297 0.0
O160 O 0.1245 0.63301 0.16241 0.0
O161 O 0.12174 0.59594 0.16557 0.0
O162 O 0.08478 0.59723 0.13268 0.0
O163 O 0.08434 0.55964 0.12976 0.0
O164 O 0.11423 0.58968 0.09809 0.0
O165 O 0.11729 0.62757 0.10537 0.0
C166 C 0.12472 0.61709 0.17501 0.0
C167 C 0.11534 0.60937 0.09087 0.0
C168 C 0.39964 0.92561 0.91089 0.0
C169 C 0.41487 0.84533 0.89681 0.0
O170 O 0.4194 0.91907 0.91074 0.0
Zn171 Zn 0.40937 0.88586 0.90656 0.0
O172 O 0.38177 0.9105 0.90968 0.0
Zn173 Zn 0.37308 0.87378 0.90556 0.0
O174 O 0.36292 0.86713 0.93473 0.0
O175 O 0.40026 0.87917 0.939 0.0
O176 O 0.3938 0.84761 0.89822 0.0
O177 O 0.4303 0.86305 0.90081 0.0
O178 O 0.3885 0.88219 0.87372 0.0
O179 O 0.35227 0.86869 0.87619 0.0
C180 C 0.38234 0.87187 0.94765 0.0
C181 C 0.36756 0.87582 0.86422 0.0
C182 C 0.19307 0.40235 0.87878 0.0
C183 C 0.10865 0.38882 0.87436 0.0
O184 O 0.18434 0.38198 0.8812 0.0
Zn185 Zn 0.15201 0.36179 0.88125 0.0
O186 O 0.18008 0.41776 0.87603 0.0
Zn187 Zn 0.1511 0.39791 0.87743 0.0
O188 O 0.15466 0.39102 0.91222 0.0
O189 O 0.15469 0.35371 0.91249 0.0
O190 O 0.12072 0.40814 0.87372 0.0
O191 O 0.11866 0.37118 0.87703 0.0
O192 O 0.15056 0.33933 0.85335 0.0
O193 O 0.14986 0.37521 0.8464 0.0
C194 C 0.15564 0.37388 0.92347 0.0
C195 C 0.14994 0.35392 0.83918 0.0
C196 C 0.67546 0.19429 0.86139 0.0
C197 C 0.67223 0.11048 0.86238 0.0
O198 O 0.6932 0.18404 0.86392 0.0
Zn199 Zn 0.67628 0.15298 0.8639 0.0
O200 O 0.65543 0.18319 0.86157 0.0
Zn201 Zn 0.63897 0.14937 0.86257 0.0
O202 O 0.62661 0.15136 0.89159 0.0
O203 O 0.66466 0.15526 0.8965 0.0
O204 O 0.65288 0.11815 0.86169 0.0
O205 O 0.69075 0.12452 0.86361 0.0
O206 O 0.65649 0.14907 0.83046 0.0
O207 O 0.61909 0.14488 0.83302 0.0
C208 C 0.64569 0.15412 0.905 0.0
C209 C 0.63547 0.14693 0.82089 0.0
C210 C 0.94186 0.67314 0.88676 0.0
C211 C 0.86069 0.67651 0.89488 0.0
O212 O 0.9295 0.65322 0.88387 0.0
Zn213 Zn 0.89423 0.63891 0.88404 0.0
O214 O 0.93238 0.69109 0.89086 0.0
Zn215 Zn 0.90098 0.67569 0.88985 0.0
O216 O 0.90316 0.65915 0.92059 0.0
O217 O 0.89614 0.62149 0.90991 0.0
O218 O 0.87601 0.69372 0.89483 0.0
O219 O 0.86554 0.656 0.89102 0.0
O220 O 0.88392 0.62307 0.8527 0.0
O221 O 0.89108 0.6608 0.85425 0.0
C222 C 0.90064 0.63866 0.92592 0.0
C223 C 0.88474 0.64075 0.8424 0.0
C224 C 0.17957 0.36502 0.13966 0.0
C225 C 0.10122 0.38598 0.134 0.0
O226 O 0.1613 0.35133 0.14049 0.0
Zn227 Zn 0.13981 0.37393 0.13727 0.0
O228 O 0.17852 0.38634 0.13846 0.0
Zn229 Zn 0.15394 0.40964 0.13711 0.0
O230 O 0.16234 0.42961 0.16728 0.0
O231 O 0.14633 0.39441 0.17001 0.0
O232 O 0.1172 0.40297 0.13458 0.0
O233 O 0.1065 0.36578 0.13463 0.0
O234 O 0.14407 0.38313 0.10411 0.0
O235 O 0.15801 0.42005 0.10733 0.0
C236 C 0.15464 0.41491 0.17954 0.0
C237 C 0.15113 0.40063 0.09472 0.0
C238 C 0.19438 0.6608 0.90337 0.0
C239 C 0.11142 0.66804 0.88896 0.0
O240 O 0.18095 0.64167 0.89702 0.0
Zn241 Zn 0.14525 0.62905 0.88774 0.0
O242 O 0.18574 0.67951 0.90518 0.0
Zn243 Zn 0.15303 0.66602 0.896 0.0
O244 O 0.14617 0.64806 0.92419 0.0
O245 O 0.13883 0.61065 0.91216 0.0
O246 O 0.12776 0.68477 0.89548 0.0
O247 O 0.11618 0.64741 0.88561 0.0
O248 O 0.14374 0.61468 0.85598 0.0
O249 O 0.15047 0.65271 0.85993 0.0
C250 C 0.14087 0.62745 0.92841 0.0
C251 C 0.1469 0.6331 0.84697 0.0
C252 C 0.37271 0.16874 0.88109 0.0
C253 C 0.37709 0.08519 0.87935 0.0
O254 O 0.39302 0.16314 0.88321 0.0
Zn255 Zn 0.40995 0.13358 0.88207 0.0
O256 O 0.35524 0.15298 0.87659 0.0
Zn257 Zn 0.37207 0.12602 0.87758 0.0
O258 O 0.38885 0.13261 0.91208 0.0
O259 O 0.42681 0.13845 0.91409 0.0
O260 O 0.35817 0.09362 0.8775 0.0
O261 O 0.39619 0.09854 0.88066 0.0
O262 O 0.42385 0.13321 0.85307 0.0
O263 O 0.38607 0.12349 0.84618 0.0
C264 C 0.40885 0.13682 0.92418 0.0
C265 C 0.4055 0.1265 0.83869 0.0
C266 C 0.93812 0.37191 0.87907 0.0
C267 C 0.85357 0.368 0.87186 0.0
O268 O 0.92411 0.35311 0.87441 0.0
Zn269 Zn 0.89546 0.36714 0.87491 0.0
O270 O 0.93027 0.39106 0.88214 0.0
Zn271 Zn 0.89947 0.40514 0.88186 0.0
O272 O 0.90145 0.419 0.91462 0.0
O273 O 0.89804 0.38106 0.90994 0.0
O274 O 0.8652 0.38821 0.87555 0.0
O275 O 0.86387 0.35026 0.87041 0.0
O276 O 0.89563 0.38397 0.84523 0.0
O277 O 0.90139 0.42184 0.85491 0.0
C278 C 0.89998 0.4002 0.92328 0.0
C279 C 0.8983 0.40417 0.8394 0.0
C280 C 0.64963 0.94516 0.88829 0.0
C281 C 0.64232 0.86111 0.88275 0.0
O282 O 0.66553 0.93306 0.89266 0.0
Zn283 Zn 0.64617 0.90308 0.88747 0.0
O284 O 0.62861 0.93528 0.88366 0.0
Zn285 Zn 0.60979 0.90111 0.87944 0.0
O286 O 0.59082 0.90105 0.90426 0.0
O287 O 0.62779 0.902 0.91649 0.0
O288 O 0.62274 0.86832 0.87899 0.0
O289 O 0.66064 0.87562 0.88844 0.0
O290 O 0.63278 0.89942 0.85132 0.0
O291 O 0.59493 0.89862 0.84788 0.0
C292 C 0.6069 0.90096 0.9207 0.0
C293 C 0.61322 0.89803 0.8386 0.0
C294 C 0.90578 0.58235 0.13426 0.0
C295 C 0.82422 0.59129 0.11706 0.0
O296 O 0.8889 0.56612 0.12865 0.0
Zn297 Zn 0.86465 0.58573 0.12502 0.0
O298 O 0.90203 0.60333 0.13558 0.0
Zn299 Zn 0.87402 0.62241 0.13058 0.0
O300 O 0.87481 0.63961 0.16111 0.0
O301 O 0.86395 0.60224 0.15954 0.0
O302 O 0.83795 0.6104 0.12133 0.0
O303 O 0.8323 0.57231 0.11712 0.0
O304 O 0.87203 0.60074 0.09479 0.0
O305 O 0.88139 0.6383 0.10498 0.0
C306 C 0.86783 0.62262 0.17099 0.0
C307 C 0.87836 0.62076 0.08946 0.0
C308 C 0.379 0.90409 0.15353 0.0
C309 C 0.36668 0.82097 0.16059 0.0
O310 O 0.39721 0.89444 0.15604 0.0
Zn311 Zn 0.4076 0.86169 0.1588 0.0
O312 O 0.35924 0.892 0.15227 0.0
Zn313 Zn 0.3704 0.86239 0.15577 0.0
O314 O 0.38869 0.87006 0.18991 0.0
O315 O 0.4258 0.8676 0.18976 0.0
O316 O 0.35057 0.8331 0.15689 0.0
O317 O 0.38769 0.82996 0.16134 0.0
O318 O 0.42048 0.85596 0.12955 0.0
O319 O 0.38287 0.85596 0.12402 0.0
C320 C 0.40909 0.87146 0.20081 0.0
C321 C 0.40169 0.85416 0.11577 0.0
C322 C 0.61973 0.16781 0.11001 0.0
C323 C 0.62229 0.08425 0.10703 0.0
O324 O 0.63991 0.16195 0.11108 0.0
Zn325 Zn 0.65646 0.13228 0.11233 0.0
O326 O 0.60233 0.15261 0.10986 0.0
Zn327 Zn 0.61902 0.12563 0.10915 0.0
O328 O 0.63645 0.12862 0.14301 0.0
O329 O 0.67407 0.1372 0.14344 0.0
O330 O 0.60396 0.09366 0.1059 0.0
O331 O 0.64196 0.09687 0.10903 0.0
O332 O 0.67107 0.1331 0.0846 0.0
O333 O 0.63294 0.12632 0.07765 0.0
C334 C 0.65692 0.13267 0.15406 0.0
C335 C 0.65247 0.12949 0.07031 0.0
C336 C 0.64323 0.69141 0.88237 0.0
C337 C 0.6457 0.6082 0.87676 0.0
O338 O 0.6374 0.67646 0.86441 0.0
Zn339 Zn 0.64336 0.64974 0.87919 0.0
O340 O 0.64939 0.68489 0.90186 0.0
Zn341 Zn 0.65364 0.65333 0.91544 0.0
O342 O 0.68583 0.65943 0.92848 0.0
O343 O 0.68007 0.65781 0.89054 0.0
O344 O 0.65071 0.61874 0.89754 0.0
O345 O 0.64036 0.61962 0.86048 0.0
O346 O 0.61557 0.64602 0.89942 0.0
O347 O 0.63058 0.65153 0.93619 0.0
C348 C 0.69388 0.66111 0.90964 0.0
C349 C 0.61294 0.64731 0.92079 0.0
C350 C 0.4129 0.6786 0.89572 0.0
C351 C 0.39735 0.59607 0.90258 0.0
O352 O 0.4078 0.66207 0.87908 0.0
Zn353 Zn 0.40307 0.63709 0.89769 0.0
O354 O 0.41267 0.6744 0.91648 0.0
Zn355 Zn 0.406 0.64588 0.93472 0.0
O356 O 0.43638 0.64824 0.95384 0.0
O357 O 0.43645 0.63813 0.91646 0.0
O358 O 0.39986 0.60934 0.92198 0.0
O359 O 0.39748 0.60495 0.88397 0.0
O360 O 0.37149 0.6418 0.90975 0.0
O361 O 0.37758 0.65204 0.94748 0.0
C362 C 0.44716 0.64229 0.93712 0.0
C363 C 0.36373 0.64764 0.92861 0.0
C364 C 0.40142 0.42553 0.89745 0.0
C365 C 0.38714 0.34044 0.89258 0.0
O366 O 0.39967 0.41423 0.87719 0.0
Zn367 Zn 0.39427 0.37987 0.85983 0.0
O368 O 0.40057 0.41456 0.91469 0.0
Zn369 Zn 0.3962 0.38316 0.89716 0.0
O370 O 0.4283 0.38123 0.88494 0.0
O371 O 0.4231 0.37774 0.84694 0.0
O372 O 0.39156 0.35476 0.91116 0.0
O373 O 0.38775 0.34788 0.87312 0.0
O374 O 0.36457 0.38061 0.84085 0.0
O375 O 0.36299 0.38247 0.87834 0.0
C376 C 0.43658 0.37919 0.86585 0.0
C377 C 0.35297 0.38182 0.8577 0.0
C378 C 0.65096 0.43708 0.85094 0.0
C379 C 0.65456 0.35353 0.83936 0.0
O380 O 0.65014 0.42464 0.8315 0.0
Zn381 Zn 0.65047 0.39479 0.84288 0.0
O382 O 0.65164 0.42753 0.86932 0.0
Zn383 Zn 0.65156 0.39427 0.87975 0.0
O384 O 0.68137 0.39706 0.89941 0.0
O385 O 0.68401 0.39902 0.86259 0.0
O386 O 0.65399 0.36243 0.86012 0.0
O387 O 0.65188 0.3656 0.82301 0.0
O388 O 0.61751 0.38898 0.85374 0.0
O389 O 0.622 0.38872 0.89135 0.0
C390 C 0.69369 0.3989 0.88325 0.0
C391 C 0.60871 0.38709 0.8723 0.0
C392 C 0.62954 0.41706 0.08784 0.0
C393 C 0.63278 0.33654 0.09871 0.0
O394 O 0.62889 0.40022 0.07193 0.0
Zn395 Zn 0.63396 0.37721 0.09245 0.0
O396 O 0.6337 0.41403 0.10903 0.0
Zn397 Zn 0.63987 0.38681 0.12895 0.0
O398 O 0.67164 0.39597 0.14417 0.0
O399 O 0.66962 0.38691 0.10657 0.0
O400 O 0.63611 0.35028 0.11784 0.0
O401 O 0.63156 0.34483 0.07978 0.0
O402 O 0.60354 0.37726 0.10951 0.0
O403 O 0.61463 0.38796 0.14695 0.0
C404 C 0.68175 0.39387 0.12639 0.0
C405 C 0.59849 0.38172 0.13 0.0
C406 C 0.62255 0.66366 0.09048 0.0
C407 C 0.60671 0.57899 0.0788 0.0
O408 O 0.61635 0.65051 0.07132 0.0
Zn409 Zn 0.6138 0.62121 0.0834 0.0
O410 O 0.62452 0.65487 0.1093 0.0
Zn411 Zn 0.61988 0.62155 0.12011 0.0
O412 O 0.6505 0.61875 0.13511 0.0
O413 O 0.64863 0.61952 0.09757 0.0
O414 O 0.61094 0.58835 0.09996 0.0
O415 O 0.60676 0.59161 0.06282 0.0
O416 O 0.58371 0.62212 0.10036 0.0
O417 O 0.59424 0.62298 0.13772 0.0
C418 C 0.66034 0.61826 0.11708 0.0
C419 C 0.57846 0.62281 0.12087 0.0
C420 C 0.36676 0.65376 0.17079 0.0
C421 C 0.37856 0.57357 0.17742 0.0
O422 O 0.36536 0.64107 0.15126 0.0
Zn423 Zn 0.36873 0.60643 0.13843 0.0
O424 O 0.37157 0.64519 0.18924 0.0
Zn425 Zn 0.37329 0.61373 0.17508 0.0
O426 O 0.40476 0.61753 0.15984 0.0
O427 O 0.39505 0.60985 0.12207 0.0
O428 O 0.3787 0.58951 0.19413 0.0
O429 O 0.37506 0.57799 0.15662 0.0
O430 O 0.3386 0.59565 0.12099 0.0
O431 O 0.33827 0.60152 0.15868 0.0
C432 C 0.41062 0.61546 0.13953 0.0
C433 C 0.32749 0.5953 0.13811 0.0
C434 C 0.39396 0.40724 0.18449 0.0
C435 C 0.39554 0.32372 0.18225 0.0
O436 O 0.3911 0.39556 0.16429 0.0
Zn437 Zn 0.38858 0.36111 0.14793 0.0
O438 O 0.39627 0.39684 0.20212 0.0
Zn439 Zn 0.39448 0.3655 0.18505 0.0
O440 O 0.42497 0.36857 0.16851 0.0
O441 O 0.41446 0.36291 0.13075 0.0
O442 O 0.39888 0.33835 0.20056 0.0
O443 O 0.3914 0.3304 0.16253 0.0
O444 O 0.35745 0.35528 0.1318 0.0
O445 O 0.35866 0.35815 0.16963 0.0
C446 C 0.43036 0.36713 0.14802 0.0
C447 C 0.34694 0.35476 0.14933 0.0
C448 C 0.87443 0.66652 0.62729 0.0
C449 C 0.87376 0.58351 0.62466 0.0
O450 O 0.89162 0.65576 0.62554 0.0
Zn451 Zn 0.87521 0.62528 0.6262 0.0
O452 O 0.85454 0.65543 0.6283 0.0
Zn453 Zn 0.83846 0.62071 0.62708 0.0
O454 O 0.82757 0.62139 0.65731 0.0
O455 O 0.86554 0.62793 0.66 0.0
O456 O 0.85377 0.58973 0.62516 0.0
O457 O 0.89125 0.59866 0.62517 0.0
O458 O 0.85435 0.61926 0.59346 0.0
O459 O 0.81746 0.61648 0.59747 0.0
C460 C 0.8473 0.62598 0.66973 0.0
C461 C 0.83313 0.61644 0.58444 0.0
C462 C 0.3991 0.83469 0.64732 0.0
C463 C 0.31667 0.84307 0.64658 0.0
O464 O 0.38239 0.81815 0.64309 0.0
Zn465 Zn 0.3574 0.83734 0.64557 0.0
O466 O 0.39483 0.8554 0.65165 0.0
Zn467 Zn 0.3665 0.87413 0.65385 0.0
O468 O 0.37226 0.88869 0.68564 0.0
O469 O 0.36219 0.85093 0.68177 0.0
O470 O 0.33058 0.86204 0.65105 0.0
O471 O 0.32447 0.82429 0.64109 0.0
O472 O 0.3605 0.85528 0.61651 0.0
O473 O 0.36915 0.89253 0.62894 0.0
C474 C 0.36739 0.87054 0.69469 0.0
C475 C 0.3653 0.87598 0.61231 0.0
C476 C 0.09731 0.40974 0.63563 0.0
C477 C 0.10476 0.3274 0.62268 0.0
O478 O 0.11816 0.40548 0.63719 0.0
Zn479 Zn 0.13658 0.37683 0.6335 0.0
O480 O 0.08077 0.39309 0.6308 0.0
Zn481 Zn 0.09981 0.36823 0.62807 0.0
O482 O 0.11634 0.36869 0.66286 0.0
O483 O 0.15387 0.37834 0.66397 0.0
O484 O 0.08588 0.33579 0.62177 0.0
O485 O 0.12398 0.34092 0.62625 0.0
O486 O 0.15269 0.38243 0.60776 0.0
O487 O 0.11502 0.37414 0.59746 0.0
C488 C 0.1368 0.37224 0.67416 0.0
C489 C 0.13525 0.37965 0.59215 0.0
C490 C 0.67363 0.11394 0.62342 0.0
C491 C 0.59184 0.12111 0.60367 0.0
O492 O 0.65701 0.09739 0.61812 0.0
Zn493 Zn 0.6324 0.11592 0.61209 0.0
O494 O 0.66969 0.1347 0.62287 0.0
Zn495 Zn 0.64144 0.15287 0.61526 0.0
O496 O 0.6418 0.17191 0.64476 0.0
O497 O 0.63134 0.13464 0.64503 0.0
O498 O 0.60546 0.14026 0.60698 0.0
O499 O 0.60015 0.10229 0.6045 0.0
O500 O 0.6394 0.12835 0.58118 0.0
O501 O 0.6483 0.16622 0.58794 0.0
C502 C 0.63481 0.15542 0.65533 0.0
C503 C 0.64525 0.14749 0.57397 0.0
C504 C 0.89854 0.43576 0.38608 0.0
C505 C 0.90112 0.35443 0.39107 0.0
O506 O 0.91882 0.43014 0.386 0.0
Zn507 Zn 0.93525 0.40004 0.38676 0.0
O508 O 0.88161 0.42046 0.38704 0.0
Zn509 Zn 0.89856 0.39466 0.3882 0.0
O510 O 0.92002 0.40336 0.42072 0.0
O511 O 0.95677 0.40673 0.41595 0.0
O512 O 0.88322 0.36436 0.39147 0.0
O513 O 0.92049 0.36598 0.38918 0.0
O514 O 0.9455 0.3959 0.35632 0.0
O515 O 0.90764 0.3889 0.35424 0.0
C516 C 0.94139 0.40713 0.42931 0.0
C517 C 0.92571 0.38978 0.34422 0.0
C518 C 0.68325 0.9119 0.38818 0.0
C519 C 0.60197 0.9234 0.38596 0.0
O520 O 0.66921 0.89299 0.38388 0.0
Zn521 Zn 0.63284 0.88218 0.37879 0.0
O522 O 0.67525 0.93093 0.38966 0.0
Zn523 Zn 0.64229 0.91867 0.38479 0.0
O524 O 0.63899 0.90215 0.41504 0.0
O525 O 0.62918 0.86468 0.40423 0.0
O526 O 0.61916 0.93933 0.38841 0.0
O527 O 0.60514 0.90227 0.38195 0.0
O528 O 0.62577 0.86648 0.34739 0.0
O529 O 0.63332 0.90417 0.34869 0.0
C530 C 0.63368 0.88188 0.42021 0.0
C531 C 0.62727 0.88401 0.33692 0.0
C532 C 0.16644 0.70617 0.39429 0.0
C533 C 0.17852 0.62546 0.39609 0.0
O534 O 0.18557 0.69857 0.39807 0.0
Zn535 Zn 0.17354 0.66572 0.39497 0.0
O536 O 0.14762 0.69203 0.39077 0.0
Zn537 Zn 0.13699 0.65597 0.38894 0.0
O538 O 0.11985 0.65344 0.41475 0.0
O539 O 0.15738 0.66278 0.42549 0.0
O540 O 0.15731 0.62853 0.39245 0.0
O541 O 0.1944 0.64262 0.39797 0.0
O542 O 0.15864 0.65672 0.35915 0.0
O543 O 0.12092 0.64801 0.35779 0.0
C544 C 0.13707 0.65765 0.4307 0.0
C545 C 0.13851 0.6504 0.34741 0.0
C546 C 0.42976 0.14426 0.37662 0.0
C547 C 0.34645 0.14339 0.37226 0.0
O548 O 0.41876 0.12366 0.37287 0.0
Zn549 Zn 0.38351 0.1074 0.37056 0.0
O550 O 0.41871 0.16106 0.38064 0.0
Zn551 Zn 0.38793 0.14381 0.37714 0.0
O552 O 0.38615 0.12736 0.40748 0.0
O553 O 0.38273 0.08994 0.39661 0.0
O554 O 0.36213 0.16081 0.37762 0.0
O555 O 0.3521 0.12303 0.36975 0.0
O556 O 0.37798 0.09093 0.33927 0.0
O557 O 0.38155 0.12881 0.34117 0.0
C558 C 0.38403 0.10678 0.41259 0.0
C559 C 0.37761 0.10871 0.32912 0.0
C560 C 0.6488 0.84282 0.6294 0.0
C561 C 0.56371 0.83453 0.62131 0.0
O562 O 0.63513 0.82383 0.62598 0.0
Zn563 Zn 0.60624 0.83714 0.62361 0.0
O564 O 0.64052 0.86186 0.62965 0.0
Zn565 Zn 0.60767 0.87374 0.62555 0.0
O566 O 0.60887 0.89321 0.65466 0.0
O567 O 0.6088 0.85624 0.65772 0.0
O568 O 0.57391 0.8552 0.62259 0.0
O569 O 0.57571 0.81806 0.62085 0.0
O570 O 0.60654 0.84976 0.59107 0.0
O571 O 0.60786 0.88749 0.59757 0.0
C572 C 0.60943 0.87716 0.66714 0.0
C573 C 0.60746 0.86924 0.58353 0.0
C574 C 0.68383 0.18074 0.36581 0.0
C575 C 0.59897 0.16839 0.36105 0.0
O576 O 0.67464 0.15977 0.36473 0.0
Zn577 Zn 0.64155 0.13962 0.36168 0.0
O578 O 0.67129 0.1968 0.36585 0.0
Zn579 Zn 0.64175 0.17653 0.36349 0.0
O580 O 0.64513 0.16401 0.39586 0.0
O581 O 0.64428 0.12622 0.39016 0.0
O582 O 0.61163 0.18775 0.36227 0.0
O583 O 0.6084 0.15001 0.3605 0.0
O584 O 0.64066 0.12122 0.33162 0.0
O585 O 0.64179 0.15851 0.33007 0.0
C586 C 0.64587 0.14494 0.40394 0.0
C587 C 0.64201 0.13804 0.32007 0.0
C588 C 0.87493 0.68349 0.39106 0.0
C589 C 0.87612 0.60068 0.3817 0.0
O590 O 0.89238 0.67301 0.3938 0.0
Zn591 Zn 0.87601 0.64218 0.38659 0.0
O592 O 0.85463 0.67193 0.38557 0.0
Zn593 Zn 0.83922 0.63632 0.37802 0.0
O594 O 0.81995 0.63303 0.40265 0.0
O595 O 0.85734 0.63799 0.415 0.0
O596 O 0.85566 0.60589 0.37814 0.0
O597 O 0.8933 0.61663 0.38667 0.0
O598 O 0.86378 0.64075 0.35091 0.0
O599 O 0.82576 0.6335 0.34541 0.0
C600 C 0.83645 0.63443 0.41912 0.0
C601 C 0.84465 0.63739 0.33729 0.0
C602 C 0.44153 0.93446 0.41817 0.0
C603 C 0.35767 0.9318 0.41422 0.0
O604 O 0.43025 0.91408 0.4156 0.0
Zn605 Zn 0.3955 0.89731 0.41093 0.0
O606 O 0.43065 0.95175 0.41897 0.0
Zn607 Zn 0.39966 0.93399 0.41487 0.0
O608 O 0.39905 0.9188 0.44655 0.0
O609 O 0.3953 0.88099 0.43716 0.0
O610 O 0.37239 0.94963 0.41474 0.0
O611 O 0.36419 0.91185 0.41237 0.0
O612 O 0.39274 0.87987 0.3803 0.0
O613 O 0.39725 0.9174 0.37988 0.0
C614 C 0.39697 0.89853 0.4525 0.0
C615 C 0.39512 0.89683 0.36909 0.0
C616 C 0.1933 0.46094 0.40537 0.0
C617 C 0.18639 0.37654 0.38858 0.0
O618 O 0.21016 0.44945 0.40551 0.0
Zn619 Zn 0.19142 0.41892 0.39705 0.0
O620 O 0.17258 0.4504 0.40033 0.0
Zn621 Zn 0.15436 0.41647 0.39043 0.0
O622 O 0.13637 0.41267 0.41564 0.0
O623 O 0.17388 0.41526 0.42643 0.0
O624 O 0.1672 0.38451 0.38627 0.0
O625 O 0.20519 0.39031 0.39474 0.0
O626 O 0.17755 0.4208 0.362 0.0
O627 O 0.13964 0.41791 0.35934 0.0
C628 C 0.15324 0.41277 0.4314 0.0
C629 C 0.15786 0.42044 0.34987 0.0
C630 C 0.42684 0.13238 0.62079 0.0
C631 C 0.3451 0.13918 0.62367 0.0
O632 O 0.41373 0.11348 0.62113 0.0
Zn633 Zn 0.37883 0.10057 0.62214 0.0
O634 O 0.41839 0.15124 0.62179 0.0
Zn635 Zn 0.38662 0.13782 0.6234 0.0
O636 O 0.39003 0.12626 0.65646 0.0
O637 O 0.38097 0.08842 0.65185 0.0
O638 O 0.361 0.1559 0.62368 0.0
O639 O 0.35 0.11866 0.62344 0.0
O640 O 0.37145 0.08141 0.59117 0.0
O641 O 0.378 0.11879 0.58992 0.0
C642 C 0.3876 0.10744 0.6652 0.0
C643 C 0.37281 0.09814 0.57943 0.0
C644 C 0.88669 0.41564 0.62376 0.0
C645 C 0.88937 0.33251 0.61328 0.0
O646 O 0.90692 0.41043 0.62921 0.0
Zn647 Zn 0.92361 0.38013 0.63092 0.0
O648 O 0.86964 0.39965 0.61737 0.0
Zn649 Zn 0.88727 0.37428 0.61957 0.0
O650 O 0.89656 0.37753 0.65626 0.0
O651 O 0.93451 0.38379 0.66417 0.0
O652 O 0.87198 0.34293 0.60983 0.0
O653 O 0.90918 0.34431 0.62131 0.0
O654 O 0.94522 0.38486 0.60843 0.0
O655 O 0.90849 0.38029 0.59341 0.0
C656 C 0.9149 0.3816 0.67116 0.0
C657 C 0.92986 0.38437 0.5911 0.0
C658 C 0.0878 0.66001 0.62881 0.0
C659 C 0.08987 0.57724 0.62902 0.0
O660 O 0.10824 0.65456 0.6307 0.0
Zn661 Zn 0.1247 0.62436 0.63286 0.0
O662 O 0.07056 0.64463 0.62857 0.0
Zn663 Zn 0.08799 0.61877 0.62948 0.0
O664 O 0.10545 0.62518 0.66455 0.0
O665 O 0.14294 0.62991 0.66322 0.0
O666 O 0.07197 0.58717 0.62701 0.0
O667 O 0.10981 0.58933 0.63101 0.0
O668 O 0.14022 0.62436 0.60591 0.0
O669 O 0.10227 0.61931 0.59742 0.0
C670 C 0.12628 0.62887 0.67496 0.0
C671 C 0.12229 0.62197 0.59092 0.0
H672 H 0.13118 0.97351 0.36034 0.0
H673 H 0.14453 0.10386 0.42407 0.0
H674 H 0.14539 0.99253 0.43436 0.0
H675 H 0.12957 0.08443 0.35014 0.0
H676 H 0.14375 0.06305 0.42838 0.0
H677 H 0.12942 0.01403 0.35634 0.0
C678 C 0.13386 0.98616 0.37575 0.0
C679 C 0.13849 0.97955 0.3977 0.0
C680 C 0.14056 0.06774 0.41122 0.0
C681 C 0.13655 0.02603 0.39328 0.0
C682 C 0.14098 0.09105 0.40877 0.0
C683 C 0.13718 0.09766 0.38672 0.0
C684 C 0.13634 0.05091 0.39149 0.0
C685 C 0.13267 0.08024 0.3675 0.0
C686 C 0.13286 0.00931 0.37347 0.0
C687 C 0.14181 0.99676 0.41706 0.0
N688 N 0.13244 0.05775 0.37033 0.0
N689 N 0.14083 0.01915 0.41439 0.0
H690 H 0.07167 0.16865 0.38192 0.0
H691 H 0.94561 0.14153 0.30763 0.0
H692 H 0.06243 0.14562 0.3085 0.0
H693 H 0.96057 0.15204 0.38207 0.0
H694 H 0.98751 0.1455 0.30586 0.0
H695 H 0.03031 0.16595 0.38049 0.0
C696 C 0.06094 0.16302 0.36539 0.0
C697 C 0.07067 0.15718 0.34532 0.0
C698 C 0.98146 0.14689 0.3225 0.0
C699 C 0.02263 0.15391 0.34357 0.0
C700 C 0.9576 0.14465 0.32353 0.0
C701 C 0.94947 0.14642 0.34502 0.0
C702 C 0.99714 0.15113 0.34311 0.0
C703 C 0.96582 0.15047 0.36507 0.0
C704 C 0.03716 0.16143 0.3646 0.0
C705 C 0.05567 0.15022 0.32442 0.0
N706 N 0.98867 0.15271 0.36358 0.0
N707 N 0.03232 0.14868 0.32407 0.0
H708 H 0.88892 0.9548 0.34854 0.0
H709 H 0.89127 0.08095 0.41738 0.0
H710 H 0.90931 0.97406 0.42204 0.0
H711 H 0.88014 0.06701 0.34287 0.0
H712 H 0.89614 0.0409 0.41879 0.0
H713 H 0.88512 0.99529 0.34527 0.0
C714 C 0.89289 0.96755 0.36389 0.0
C715 C 0.89926 0.96102 0.38561 0.0
C716 C 0.89261 0.04653 0.40209 0.0
C717 C 0.89465 1.00702 0.38207 0.0
C718 C 0.88968 0.06942 0.40128 0.0
C719 C 0.88532 0.07739 0.37998 0.0
C720 C 0.89113 0.03134 0.38145 0.0
C721 C 0.88348 0.06159 0.35969 0.0
C722 C 0.89058 0.99058 0.36204 0.0
C723 C 0.90411 0.9782 0.40496 0.0
N724 N 0.88643 0.03928 0.36091 0.0
N725 N 0.90156 1.0003 0.40273 0.0
H726 H 0.9624 0.87941 0.40223 0.0
H727 H 0.08699 0.92719 0.47495 0.0
H728 H 0.96976 0.92174 0.4686 0.0
H729 H 0.07398 0.88674 0.40728 0.0
H730 H 0.04494 0.92305 0.47587 0.0
H731 H 1.00368 0.87943 0.40672 0.0
C732 C 0.97275 0.88876 0.41786 0.0
C733 C 0.96252 0.90084 0.43493 0.0
C734 C 0.0514 0.91494 0.46097 0.0
C735 C 1.01052 0.90108 0.44021 0.0
C736 C 0.07537 0.9172 0.46048 0.0
C737 C 0.08403 0.90746 0.44091 0.0
C738 C 0.03615 0.90272 0.44183 0.0
C739 C 0.06818 0.89479 0.42262 0.0
C740 C 0.99647 0.88873 0.42045 0.0
C741 C 0.97693 0.91227 0.45497 0.0
N742 N 0.0452 0.8929 0.42353 0.0
N743 N 1.0003 0.91233 0.45697 0.0
H744 H 0.12024 0.93491 0.59518 0.0
H745 H 0.13577 0.05894 0.67311 0.0
H746 H 0.13091 0.94474 0.66973 0.0
H747 H 0.13175 0.04899 0.59884 0.0
H748 H 0.13454 0.01718 0.67244 0.0
H749 H 0.12517 0.97684 0.59626 0.0
C750 C 0.1238 0.94584 0.61176 0.0
C751 C 0.12509 0.93622 0.63237 0.0
C752 C 0.13403 0.0242 0.65632 0.0
C753 C 0.13053 0.98427 0.63377 0.0
C754 C 0.13472 0.04805 0.65671 0.0
C755 C 0.1338 0.05756 0.63603 0.0
C756 C 0.13231 0.00977 0.63509 0.0
C757 C 0.13245 0.04253 0.61526 0.0
C758 C 0.12656 0.9698 0.61238 0.0
C759 C 0.1297 0.95132 0.65336 0.0
N760 N 0.13166 0.01947 0.61533 0.0
N761 N 0.13212 0.97452 0.65352 0.0
H762 H 0.94191 0.12251 0.56787 0.0
H763 H 0.06185 0.09462 0.62862 0.0
H764 H 0.95451 0.10952 0.63844 0.0
H765 H 0.05657 0.1242 0.56522 0.0
H766 H 0.02076 0.09444 0.62903 0.0
H767 H 0.98218 0.11897 0.56398 0.0
C768 C 0.95313 0.11894 0.58258 0.0
C769 C 0.94479 0.11634 0.60358 0.0
C770 C 0.02845 0.10085 0.61491 0.0
C771 C 0.99082 0.112 0.59904 0.0
C772 C 0.05194 0.10085 0.61457 0.0
C773 C 0.06273 0.10968 0.59696 0.0
C774 C 0.0154 0.10977 0.59753 0.0
C775 C 0.04893 0.11723 0.57909 0.0
C776 C 0.97611 0.11692 0.58029 0.0
C777 C 0.96016 0.11176 0.62199 0.0
N778 N 0.02592 0.11731 0.57994 0.0
N779 N 0.98236 0.10966 0.61925 0.0
H780 H 0.87569 0.04064 0.54419 0.0
H781 H 0.84298 0.94651 0.62494 0.0
H782 H 0.83801 0.05118 0.60177 0.0
H783 H 0.86796 0.92787 0.56044 0.0
H784 H 0.84008 0.98475 0.61496 0.0
H785 H 0.87143 0.999 0.54724 0.0
C786 C 0.86599 0.03408 0.55699 0.0
C787 C 0.85729 0.04925 0.57284 0.0
C788 C 0.84608 0.97236 0.60282 0.0
C789 C 0.85274 1.00219 0.57675 0.0
C790 C 0.84784 0.95047 0.6086 0.0
C791 C 0.85588 0.93398 0.59359 0.0
C792 C 0.85271 0.97816 0.58196 0.0
C793 C 0.8617 0.9401 0.57252 0.0
C794 C 0.86372 0.01042 0.55887 0.0
C795 C 0.84515 0.04004 0.58934 0.0
N796 N 0.86026 0.96183 0.56742 0.0
N797 N 0.84344 0.01725 0.59099 0.0
H798 H 0.04597 0.87364 0.69894 0.0
H799 H 0.9362 0.90253 0.61983 0.0
H800 H 0.04715 0.89926 0.63366 0.0
H801 H 0.93196 0.88526 0.68823 0.0
H802 H 0.97782 0.90398 0.62681 0.0
H803 H 1.00532 0.88011 0.69778 0.0
C804 C 0.03783 0.88088 0.68458 0.0
C805 C 0.04986 0.88556 0.6662 0.0
C806 C 0.96796 0.90007 0.64049 0.0
C807 C 1.00368 0.89297 0.66474 0.0
C808 C 0.94411 0.89927 0.63647 0.0
C809 C 0.93058 0.89366 0.65341 0.0
C810 C 0.97856 0.89482 0.66152 0.0
C811 C 0.94182 0.88972 0.67472 0.0
C812 C 0.01466 0.88452 0.68389 0.0
C813 C 0.0385 0.89496 0.64803 0.0
N814 N 0.96518 0.89004 0.67808 0.0
N815 N 0.01615 0.89817 0.64771 0.0
H816 H 0.35401 0.12394 0.0497 0.0
H817 H 0.44203 0.12541 0.95694 0.0
H818 H 0.42546 0.11634 0.06812 0.0
H819 H 0.37671 0.15116 0.94913 0.0
H820 H 0.43736 0.12121 0.99733 0.0
H821 H 0.36227 0.13181 0.01172 0.0
C822 C 0.37143 0.12382 0.04574 0.0
C823 C 0.38903 0.11945 0.06219 0.0
C824 C 0.42425 0.12807 0.98678 0.0
C825 C 0.39873 0.12856 0.01851 0.0
C826 C 0.42703 0.13065 0.96383 0.0
C827 C 0.40965 0.13846 0.94959 0.0
C828 C 0.40393 0.13321 0.99529 0.0
C829 C 0.39042 0.14478 0.95935 0.0
C830 C 0.37621 0.12847 0.02405 0.0
C831 C 0.41134 0.11965 0.056 0.0
N832 N 0.38799 0.14179 0.98137 0.0
N833 N 0.41555 0.12403 0.03463 0.0
H834 H 0.90142 0.36255 0.94534 0.0
H835 H 0.88848 0.42649 0.06969 0.0
H836 H 0.89676 0.43526 0.9584 0.0
H837 H 0.88822 0.35309 0.05414 0.0
H838 H 0.8917 0.43026 0.02949 0.0
H839 H 0.89756 0.35938 0.9853 0.0
C840 C 0.89967 0.37798 0.95662 0.0
C841 C 0.89936 0.39927 0.94831 0.0
C842 C 0.89085 0.41331 0.0348 0.0
C843 C 0.8948 0.39556 0.99461 0.0
C844 C 0.88897 0.41108 0.05781 0.0
C845 C 0.88813 0.38938 0.06544 0.0
C846 C 0.89201 0.39374 0.01913 0.0
C847 C 0.88877 0.37013 0.04911 0.0
C848 C 0.8974 0.37606 0.97955 0.0
C849 C 0.89715 0.41853 0.96399 0.0
N850 N 0.89078 0.37279 0.02679 0.0
N851 N 0.8949 0.4162 0.98639 0.0
H852 H 0.63716 0.89389 0.95687 0.0
H853 H 0.55387 0.88851 0.0521 0.0
H854 H 0.56517 0.89935 0.938 0.0
H855 H 0.61397 0.85402 0.05076 0.0
H856 H 0.55654 0.89573 0.01199 0.0
H857 H 0.62897 0.88442 0.99409 0.0
C858 C 0.61959 0.89329 0.96058 0.0
C859 C 0.60183 0.89736 0.94414 0.0
C860 C 0.56882 0.88624 0.02047 0.0
C861 C 0.59224 0.88626 0.98711 0.0
C862 C 0.56719 0.88196 0.0432 0.0
C863 C 0.58389 0.87088 0.0548 0.0
C864 C 0.58736 0.87953 0.00965 0.0
C865 C 0.60094 0.86294 0.04261 0.0
C866 C 0.61488 0.88767 0.98186 0.0
C867 C 0.57939 0.89628 0.95015 0.0
N868 N 0.6024 0.86767 0.02093 0.0
N869 N 0.57519 0.89087 0.97124 0.0
H870 H 0.14145 0.66061 0.965 0.0
H871 H 0.11395 0.57416 0.05526 0.0
H872 H 0.12991 0.58667 0.94585 0.0
H873 H 0.1194 0.64824 0.06999 0.0
H874 H 0.11919 0.57771 0.01522 0.0
H875 H 0.13347 0.65571 1.00356 0.0
C876 C 0.13728 0.64326 0.96889 0.0
C877 C 0.13642 0.624 0.95205 0.0
C878 C 0.11908 0.59315 0.0272 0.0
C879 C 0.12712 0.61827 0.99662 0.0
C880 C 0.11603 0.59116 0.05006 0.0
C881 C 0.1163 0.61095 0.0661 0.0
C882 C 0.12252 0.6151 0.02034 0.0
C883 C 0.11911 0.63249 0.05833 0.0
C884 C 0.13263 0.64049 0.99101 0.0
C885 C 0.13082 0.602 0.95827 0.0
N886 N 0.12222 0.63397 0.0361 0.0
N887 N 0.12643 0.59972 0.9801 0.0
H888 H 0.43692 0.86511 0.09042 0.0
H889 H 0.34921 0.8544 0.97242 0.0
H890 H 0.36414 0.83986 0.08312 0.0
H891 H 0.42182 0.88032 0.97898 0.0
H892 H 0.35487 0.84721 0.01261 0.0
H893 H 0.4326 0.86811 0.04893 0.0
C894 C 0.42017 0.85979 0.08005 0.0
C895 C 0.40087 0.85236 0.09032 0.0
C896 C 0.36957 0.85446 1.00524 0.0
C897 C 0.39566 0.8561 0.043 0.0
C898 C 0.3663 0.85866 0.9823 0.0
C899 C 0.385 0.86808 0.97225 0.0
C900 C 0.39171 0.85972 0.01832 0.0
C901 C 0.40683 0.87311 0.98594 0.0
C902 C 0.41764 0.86169 0.05641 0.0
C903 C 0.37949 0.84588 0.07603 0.0
N904 N 0.40956 0.8689 0.00821 0.0
N905 N 0.37745 0.84805 0.05324 0.0
H906 H 0.16323 0.41532 0.95165 0.0
H907 H 0.1412 0.36019 0.06527 0.0
H908 H 0.15077 0.34205 0.95357 0.0
H909 H 0.16352 0.43286 0.06646 0.0
H910 H 0.14362 0.3537 0.02423 0.0
H911 H 0.16284 0.42232 0.99326 0.0
C912 C 0.16051 0.40065 0.96082 0.0
C913 C 0.15694 0.37801 0.94899 0.0
C914 C 0.14802 0.37108 0.03339 0.0
C915 C 0.15635 0.38602 0.99682 0.0
C916 C 0.14655 0.37489 0.05691 0.0
C917 C 0.15211 0.39719 0.06947 0.0
C918 C 0.15498 0.38969 0.02204 0.0
C919 C 0.15903 0.41541 0.05753 0.0
C920 C 0.16031 0.40471 0.98463 0.0
C921 C 0.15361 0.35977 0.9619 0.0
N922 N 0.16021 0.41126 0.03445 0.0
N923 N 0.15326 0.36419 0.98507 0.0
H924 H 0.61624 0.11706 0.03585 0.0
H925 H 0.68342 0.16465 0.93824 0.0
H926 H 0.68828 0.14632 0.04835 0.0
H927 H 0.61008 0.14126 0.92869 0.0
H928 H 0.68578 0.15807 0.97841 0.0
H929 H 0.61433 0.12451 0.99613 0.0
C930 C 0.63177 0.12489 0.03019 0.0
C931 C 0.65247 0.13116 0.04553 0.0
C932 C 0.66915 0.15453 0.96759 0.0
C933 C 0.65026 0.13999 0.99989 0.0
C934 C 0.66773 0.15837 0.94466 0.0
C935 C 0.64649 0.1534 0.93003 0.0
C936 C 0.64921 0.14553 0.97599 0.0
C937 C 0.62678 0.14537 0.93933 0.0
C938 C 0.6306 0.12925 1.00748 0.0
C939 C 0.672 0.14114 0.03711 0.0
N940 N 0.62866 0.14151 0.96169 0.0
N941 N 0.67039 0.14536 0.01484 0.0
H942 H 0.91067 0.67185 0.96389 0.0
H943 H 0.87351 0.58656 0.05251 0.0
H944 H 0.88998 0.59858 0.94421 0.0
H945 H 0.89302 0.66005 0.07157 0.0
H946 H 0.88092 0.59034 0.01324 0.0
H947 H 0.90637 0.66744 1.00375 0.0
C948 C 0.90544 0.65476 0.96795 0.0
C949 C 0.90063 0.63555 0.95055 0.0
C950 C 0.88361 0.60565 0.026 0.0
C951 C 0.89542 0.63043 0.9964 0.0
C952 C 0.87933 0.60353 0.04847 0.0
C953 C 0.88256 0.62304 0.06545 0.0
C954 C 0.89121 0.62745 0.02033 0.0
C955 C 0.89021 0.64453 0.0591 0.0
C956 C 0.9029 0.65228 0.99078 0.0
C957 C 0.89391 0.61387 0.95699 0.0
N958 N 0.89424 0.64615 0.03708 0.0
N959 N 0.89138 0.61193 0.97935 0.0
H960 H 0.08428 0.4264 0.12893 0.0
H961 H 0.95877 0.37817 0.1545 0.0
H962 H 0.06331 0.35649 0.14022 0.0
H963 H 0.97394 0.44499 0.1331 0.0
H964 H 0.99837 0.37198 0.15275 0.0
H965 H 0.04527 0.43487 0.1325 0.0
C966 C 0.07145 0.41276 0.13203 0.0
C967 C 0.07713 0.39064 0.13427 0.0
C968 C 0.99321 0.38806 0.14848 0.0
C969 C 0.03247 0.40042 0.13865 0.0
C970 C 0.97056 0.39169 0.14956 0.0
C971 C 0.96295 0.41206 0.14368 0.0
C972 C 1.00866 0.40489 0.14142 0.0
C973 C 0.97911 0.42906 0.13778 0.0
C974 C 0.04919 0.41768 0.13411 0.0
C975 C 0.05977 0.37373 0.13828 0.0
N976 N 1.00125 0.42501 0.1366 0.0
N977 N 0.0383 0.37902 0.14043 0.0
H978 H 0.07521 0.6374 0.86614 0.0
H979 H 0.97594 0.71097 0.89933 0.0
H980 H 0.0912 0.70597 0.90451 0.0
H981 H 0.96515 0.6388 0.87111 0.0
H982 H 0.0176 0.71184 0.89806 0.0
H983 H 0.03444 0.6403 0.86392 0.0
C984 C 0.07015 0.6532 0.87406 0.0
C985 C 0.08676 0.67138 0.88577 0.0
C986 C 1.00603 0.69588 0.89209 0.0
C987 C 0.03954 0.67476 0.8834 0.0
C988 C 0.98227 0.69537 0.89276 0.0
C989 C 0.96698 0.67474 0.88542 0.0
C990 C 0.01447 0.67568 0.88382 0.0
C991 C 0.97618 0.65507 0.8771 0.0
C992 C 0.04674 0.65482 0.8728 0.0
C993 C 0.079 0.69151 0.89537 0.0
N994 N 0.9992 0.65606 0.87655 0.0
N995 N 0.05589 0.6926 0.89415 0.0
H996 H 0.36028 0.9453 0.91392 0.0
H997 H 0.41294 0.06197 0.87238 0.0
H998 H 0.43116 0.96119 0.90301 0.0
H999 H 0.34483 0.05253 0.89229 0.0
H1000 H 0.41845 0.02394 0.88144 0.0
H1001 H 0.35349 0.98356 0.90544 0.0
C1002 C 0.37453 0.95692 0.91003 0.0
C1003 C 0.39638 0.94992 0.90919 0.0
C1004 C 0.40223 0.03003 0.8838 0.0
C1005 C 0.38851 0.99373 0.89904 0.0
C1006 C 0.39898 0.05179 0.8785 0.0
C1007 C 0.37839 0.06061 0.88168 0.0
C1008 C 0.3848 0.01667 0.8924 0.0
C1009 C 0.36093 0.04642 0.88948 0.0
C1010 C 0.37056 0.97875 0.90509 0.0
C1011 C 0.41409 0.96578 0.90398 0.0
N1012 N 0.36457 0.02516 0.8947 0.0
N1013 N 0.40971 0.98681 0.89896 0.0
H1014 H 0.0786 0.34874 0.86528 0.0
H1015 H 0.97062 0.40909 0.8949 0.0
H1016 H 0.08075 0.42242 0.88063 0.0
H1017 H 0.96348 0.33764 0.86469 0.0
H1018 H 0.01154 0.41315 0.89246 0.0
H1019 H 0.03714 0.34363 0.86662 0.0
C1020 C 0.07033 0.3639 0.86881 0.0
C1021 C 0.08322 0.3861 0.87298 0.0
C1022 C 1.00112 0.39655 0.88636 0.0
C1023 C 0.0357 0.38023 0.87475 0.0
C1024 C 0.97766 0.39412 0.88782 0.0
C1025 C 0.96343 0.37296 0.87981 0.0
C1026 C 1.01075 0.37769 0.87693 0.0
C1027 C 0.97376 0.35423 0.87108 0.0
C1028 C 0.04663 0.36091 0.86956 0.0
C1029 C 0.07152 0.40504 0.87729 0.0
N1030 N 0.99686 0.35705 0.86981 0.0
N1031 N 0.04844 0.40164 0.87824 0.0
H1032 H 0.63686 0.07658 0.84546 0.0
H1033 H 0.69221 0.97276 0.89478 0.0
H1034 H 0.70652 0.08732 0.88131 0.0
H1035 H 0.61934 0.97419 0.87622 0.0
H1036 H 0.69999 0.01286 0.88706 0.0
H1037 H 0.63284 0.03667 0.85196 0.0
C1038 C 0.65147 0.07045 0.85455 0.0
C1039 C 0.672 0.08543 0.86305 0.0
C1040 C 0.68234 1.00433 0.88483 0.0
C1041 C 0.66734 0.03938 0.87093 0.0
C1042 C 0.67786 0.9815 0.8893 0.0
C1043 C 0.65506 0.97 0.88613 0.0
C1044 C 0.66391 0.01553 0.87688 0.0
C1045 C 0.63719 0.98219 0.87892 0.0
C1046 C 0.6491 0.04761 0.85838 0.0
C1047 C 0.69041 0.07634 0.87444 0.0
N1048 N 0.64202 1.00411 0.87444 0.0
N1049 N 0.6876 0.05386 0.87827 0.0
H1050 H 0.04016 0.53824 0.12071 0.0
H1051 H 0.94214 0.61086 0.15943 0.0
H1052 H 0.05025 0.61073 0.14763 0.0
H1053 H 0.92469 0.5441 0.11758 0.0
H1054 H 0.98275 0.60712 0.16111 0.0
H1055 H 0.9987 0.53666 0.1241 0.0
C1056 C 0.03372 0.55373 0.12739 0.0
C1057 C 0.04868 0.5747 0.13369 0.0
C1058 C 0.97014 0.59315 0.15162 0.0
C1059 C 1.00168 0.57292 0.13791 0.0
C1060 C 0.94688 0.59526 0.15073 0.0
C1061 C 0.93 0.5779 0.1381 0.0
C1062 C 0.97684 0.57362 0.1396 0.0
C1063 C 0.9372 0.55791 0.12746 0.0
C1064 C 1.01012 0.55282 0.1293 0.0
C1065 C 0.03944 0.59423 0.14229 0.0
N1066 N 0.96018 0.55641 0.12819 0.0
N1067 N 0.01668 0.59283 0.14413 0.0
H1068 H 0.36587 0.0376 0.11146 0.0
H1069 H 0.41802 0.93515 0.16644 0.0
H1070 H 0.43275 0.0467 0.15321 0.0
H1071 H 0.347 0.92985 0.13541 0.0
H1072 H 0.42445 0.9752 0.15991 0.0
H1073 H 0.36003 0.99734 0.11728 0.0
C1074 C 0.37952 0.0311 0.12166 0.0
C1075 C 0.39987 0.04571 0.13193 0.0
C1076 C 0.40743 0.96537 0.1546 0.0
C1077 C 0.39304 0.99934 0.13884 0.0
C1078 C 0.40368 0.94244 0.15833 0.0
C1079 C 0.38189 0.92902 0.1514 0.0
C1080 C 0.38934 0.97509 0.14365 0.0
C1081 C 0.36403 0.93953 0.14111 0.0
C1082 C 0.37604 1.00806 0.12509 0.0
C1083 C 0.41685 0.03613 0.14489 0.0
N1084 N 0.36819 0.96192 0.13741 0.0
N1085 N 0.41301 0.01357 0.14805 0.0
H1086 H 0.65788 0.05932 0.1038 0.0
H1087 H 0.58855 0.94344 0.13222 0.0
H1088 H 0.58614 0.05223 0.11344 0.0
H1089 H 0.6598 0.9499 0.12088 0.0
H1090 H 0.58775 0.98342 0.12644 0.0
H1091 H 0.65884 0.01945 0.10993 0.0
C1092 C 0.64221 0.04933 0.10703 0.0
C1093 C 0.62186 0.05924 0.10813 0.0
C1094 C 0.60361 0.97619 0.12531 0.0
C1095 C 0.623 0.01336 0.11544 0.0
C1096 C 0.60416 0.95332 0.12871 0.0
C1097 C 0.6243 0.94318 0.12697 0.0
C1098 C 0.62335 0.98919 0.12007 0.0
C1099 C 0.64393 0.95697 0.12246 0.0
C1100 C 0.64284 0.02652 0.11062 0.0
C1101 C 0.60217 0.04533 0.11233 0.0
N1102 N 0.64292 0.97923 0.11904 0.0
N1103 N 0.60327 0.02314 0.11595 0.0
H1104 H 0.64453 0.4646 0.81646 0.0
H1105 H 0.65518 0.57932 0.9082 0.0
H1106 H 0.65705 0.46755 0.89054 0.0
H1107 H 0.63817 0.57945 0.83488 0.0
H1108 H 0.65695 0.53826 0.90106 0.0
H1109 H 0.64328 0.50645 0.82178 0.0
C1110 C 0.6471 0.47399 0.83378 0.0
C1111 C 0.65085 0.46244 0.85306 0.0
C1112 C 0.6528 0.54715 0.88644 0.0
C1113 C 0.64942 0.51019 0.85926 0.0
C1114 C 0.65178 0.57073 0.89053 0.0
C1115 C 0.64648 0.58298 0.87214 0.0
C1116 C 0.64853 0.53546 0.86373 0.0
C1117 C 0.64228 0.57072 0.84962 0.0
C1118 C 0.64632 0.49785 0.83681 0.0
C1119 C 0.65402 0.47553 0.8751 0.0
N1120 N 0.6434 0.54763 0.84603 0.0
N1121 N 0.65322 0.49854 0.87754 0.0
H1122 H 0.598 0.66302 0.96167 0.0
H1123 H 0.46685 0.61073 0.91252 0.0
H1124 H 0.57402 0.62455 0.89397 0.0
H1125 H 0.48353 0.66722 0.96848 0.0
H1126 H 0.50771 0.60948 0.91183 0.0
H1127 H 0.55778 0.65949 0.96976 0.0
C1128 C 0.58435 0.65363 0.94864 0.0
C1129 C 0.58932 0.64417 0.92705 0.0
C1130 C 0.50257 0.62207 0.92443 0.0
C1131 C 0.54364 0.63989 0.93627 0.0
C1132 C 0.4792 0.62275 0.9249 0.0
C1133 C 0.47181 0.63934 0.94036 0.0
C1134 C 0.51892 0.63823 0.9394 0.0
C1135 C 0.48857 0.65421 0.95626 0.0
C1136 C 0.56146 0.65172 0.95325 0.0
C1137 C 0.57101 0.63229 0.91076 0.0
N1138 N 0.51149 0.65355 0.95517 0.0
N1139 N 0.54909 0.63049 0.91572 0.0
H1140 H 0.40804 0.45247 0.86402 0.0
H1141 H 0.39535 0.57156 0.93908 0.0
H1142 H 0.39722 0.45693 0.9354 0.0
H1143 H 0.39763 0.56278 0.86568 0.0
H1144 H 0.39709 0.53035 0.93892 0.0
H1145 H 0.40631 0.49341 0.86551 0.0
C1146 C 0.40543 0.46207 0.88014 0.0
C1147 C 0.40269 0.45105 0.89963 0.0
C1148 C 0.39709 0.53742 0.92284 0.0
C1149 C 0.40053 0.49847 0.90134 0.0
C1150 C 0.39604 0.56097 0.92287 0.0
C1151 C 0.39634 0.57075 0.90233 0.0
C1152 C 0.39861 0.52349 0.90214 0.0
C1153 C 0.3973 0.55609 0.88192 0.0
C1154 C 0.40435 0.48556 0.88092 0.0
C1155 C 0.39947 0.46464 0.91998 0.0
N1156 N 0.3985 0.5333 0.88239 0.0
N1157 N 0.3984 0.48764 0.92029 0.0
H1158 H 0.46867 0.3806 0.90377 0.0
H1159 H 0.57641 0.38149 0.8338 0.0
H1160 H 0.46217 0.37704 0.82963 0.0
H1161 H 0.58263 0.38562 0.90796 0.0
H1162 H 0.53462 0.37834 0.8318 0.0
H1163 H 0.51012 0.38105 0.90535 0.0
C1164 C 0.47592 0.37987 0.88775 0.0
C1165 C 0.46179 0.37885 0.86649 0.0
C1166 C 0.54507 0.37985 0.84852 0.0
C1167 C 0.50962 0.37938 0.86828 0.0
C1168 C 0.56901 0.38165 0.84971 0.0
C1169 C 0.58318 0.38391 0.87113 0.0
C1170 C 0.53504 0.38035 0.86888 0.0
C1171 C 0.57246 0.38393 0.89109 0.0
C1172 C 0.49968 0.38012 0.88871 0.0
C1173 C 0.47233 0.37787 0.84639 0.0
N1174 N 0.54906 0.38226 0.88947 0.0
N1175 N 0.4956 0.37822 0.84779 0.0
H1176 H 0.58507 0.54951 0.1032 0.0
H1177 H 0.63054 0.43624 0.04723 0.0
H1178 H 0.62179 0.55078 0.04449 0.0
H1179 H 0.61484 0.44949 0.1168 0.0
H1180 H 0.62076 0.4746 0.04069 0.0
H1181 H 0.58741 0.5086 0.10199 0.0
C1182 C 0.59327 0.541 0.08973 0.0
C1183 C 0.60343 0.55356 0.07406 0.0
C1184 C 0.61943 0.46893 0.0573 0.0
C1185 C 0.6068 0.50667 0.07295 0.0
C1186 C 0.62499 0.44712 0.06104 0.0
C1187 C 0.62375 0.43975 0.08268 0.0
C1188 C 0.61212 0.48306 0.07517 0.0
C1189 C 0.61639 0.45448 0.09994 0.0
C1190 C 0.59475 0.51766 0.08914 0.0
C1191 C 0.6137 0.54164 0.05686 0.0
N1192 N 0.61084 0.47527 0.09579 0.0
N1193 N 0.61549 0.51882 0.05696 0.0
H1194 H 0.56011 0.62523 0.16173 0.0
H1195 H 0.42955 0.6138 0.09923 0.0
H1196 H 0.54094 0.62089 0.08807 0.0
H1197 H 0.44831 0.62363 0.17329 0.0
H1198 H 0.47043 0.61668 0.09498 0.0
H1199 H 0.5194 0.62483 0.16656 0.0
C1200 C 0.54739 0.62424 0.14659 0.0
C1201 C 0.55402 0.62305 0.12446 0.0
C1202 C 0.46563 0.6183 0.11218 0.0
C1203 C 0.50737 0.62254 0.12985 0.0
C1204 C 0.44225 0.61668 0.11461 0.0
C1205 C 0.43541 0.61844 0.13665 0.0
C1206 C 0.48239 0.62161 0.13191 0.0
C1207 C 0.45273 0.62217 0.15595 0.0
C1208 C 0.52414 0.62403 0.14935 0.0
C1209 C 0.53672 0.62182 0.10548 0.0
N1210 N 0.47537 0.62352 0.15313 0.0
N1211 N 0.51427 0.62153 0.10861 0.0
H1212 H 0.40318 0.43358 0.15159 0.0
H1213 H 0.37924 0.55338 0.21761 0.0
H1214 H 0.38657 0.43886 0.2211 0.0
H1215 H 0.38739 0.53971 0.14566 0.0
H1216 H 0.38506 0.51333 0.22167 0.0
H1217 H 0.40137 0.47421 0.15182 0.0
C1218 C 0.39915 0.44333 0.16702 0.0
C1219 C 0.39473 0.43263 0.18626 0.0
C1220 C 0.38561 0.51924 0.20508 0.0
C1221 C 0.39243 0.4798 0.18659 0.0
C1222 C 0.38234 0.54206 0.20274 0.0
C1223 C 0.38268 0.54994 0.18122 0.0
C1224 C 0.38946 0.5044 0.18579 0.0
C1225 C 0.38676 0.53452 0.16256 0.0
C1226 C 0.39811 0.46668 0.16714 0.0
C1227 C 0.39001 0.44641 0.20586 0.0
N1228 N 0.38995 0.51267 0.16531 0.0
N1229 N 0.38877 0.46933 0.20547 0.0
H1230 H 0.58014 0.38884 0.17059 0.0
H1231 H 0.44902 0.36314 0.10751 0.0
H1232 H 0.56065 0.37048 0.09689 0.0
H1233 H 0.46802 0.37761 0.18152 0.0
H1234 H 0.48999 0.36703 0.10324 0.0
H1235 H 0.53918 0.38588 0.17501 0.0
C1236 C 0.56729 0.38417 0.15536 0.0
C1237 C 0.57389 0.37987 0.13335 0.0
C1238 C 0.48518 0.36937 0.12042 0.0
C1239 C 0.527 0.37652 0.13826 0.0
C1240 C 0.46178 0.36719 0.12285 0.0
C1241 C 0.45503 0.37 0.14489 0.0
C1242 C 0.50198 0.37445 0.14017 0.0
C1243 C 0.47237 0.37524 0.16417 0.0
C1244 C 0.5439 0.3825 0.15788 0.0
C1245 C 0.55644 0.37392 0.11422 0.0
N1246 N 0.49501 0.37727 0.16136 0.0
N1247 N 0.53386 0.37244 0.11712 0.0
H1248 H 0.79657 0.63583 0.43972 0.0
H1249 H 0.85704 0.59551 0.55408 0.0
H1250 H 0.86718 0.62316 0.45236 0.0
H1251 H 0.79845 0.63207 0.55677 0.0
H1252 H 0.85476 0.59761 0.51303 0.0
H1253 H 0.79183 0.62838 0.47937 0.0
C1254 C 0.811 0.63147 0.45074 0.0
C1255 C 0.83236 0.63029 0.44272 0.0
C1256 C 0.84221 0.60505 0.52244 0.0
C1257 C 0.82691 0.62133 0.48756 0.0
C1258 C 0.84343 0.60373 0.5459 0.0
C1259 C 0.82808 0.61386 0.55892 0.0
C1260 C 0.82564 0.61679 0.51167 0.0
C1261 C 0.81061 0.62405 0.54731 0.0
C1262 C 0.80828 0.62725 0.47329 0.0
C1263 C 0.85045 0.62453 0.45772 0.0
N1264 N 0.81003 0.62556 0.52429 0.0
N1265 N 0.84726 0.62022 0.4792 0.0
H1266 H 0.35891 0.84387 0.57369 0.0
H1267 H 0.40014 0.93229 0.48967 0.0
H1268 H 0.37929 0.91677 0.59649 0.0
H1269 H 0.38704 0.85838 0.47046 0.0
H1270 H 0.3919 0.9274 0.52852 0.0
H1271 H 0.36749 0.84946 0.53531 0.0
C1272 C 0.36502 0.86114 0.57062 0.0
C1273 C 0.36839 0.87989 0.58845 0.0
C1274 C 0.39095 0.91225 0.51584 0.0
C1275 C 0.3785 0.88637 0.5443 0.0
C1276 C 0.39574 0.91501 0.49365 0.0
C1277 C 0.39429 0.8957 0.4767 0.0
C1278 C 0.38453 0.89004 0.52115 0.0
C1279 C 0.38843 0.87376 0.48291 0.0
C1280 C 0.37004 0.86428 0.54865 0.0
C1281 C 0.37639 0.90182 0.5833 0.0
N1282 N 0.38366 0.87156 0.50456 0.0
N1283 N 0.38122 0.90445 0.5617 0.0
H1284 H 0.11223 0.40221 0.44839 0.0
H1285 H 0.17532 0.39164 0.57464 0.0
H1286 H 0.18608 0.41428 0.46871 0.0
H1287 H 0.1014 0.3776 0.55517 0.0
H1288 H 0.17929 0.40022 0.53578 0.0
H1289 H 0.10751 0.39386 0.48742 0.0
C1290 C 0.12742 0.40325 0.46105 0.0
C1291 C 0.14958 0.40894 0.45519 0.0
C1292 C 0.16218 0.39522 0.53996 0.0
C1293 C 0.14433 0.39928 0.49983 0.0
C1294 C 0.15991 0.39025 0.56218 0.0
C1295 C 0.138 0.38385 0.56826 0.0
C1296 C 0.1424 0.39385 0.52357 0.0
C1297 C 0.11866 0.38242 0.5513 0.0
C1298 C 0.12473 0.3984 0.48331 0.0
C1299 C 0.16864 0.40994 0.47233 0.0
N1300 N 0.12131 0.38742 0.52978 0.0
N1301 N 0.16557 0.40513 0.49376 0.0
H1302 H 0.64315 0.10986 0.54152 0.0
H1303 H 0.65324 0.18265 0.43709 0.0
H1304 H 0.65316 0.18428 0.55012 0.0
H1305 H 0.64382 0.10823 0.42857 0.0
H1306 H 0.65521 0.18353 0.47863 0.0
H1307 H 0.64533 0.10903 0.50053 0.0
C1308 C 0.64588 0.12609 0.53481 0.0
C1309 C 0.64782 0.14722 0.54931 0.0
C1310 C 0.6528 0.167 0.46773 0.0
C1311 C 0.65031 0.1463 0.50216 0.0
C1312 C 0.65164 0.16644 0.44395 0.0
C1313 C 0.6482 0.14528 0.42925 0.0
C1314 C 0.65043 0.14627 0.47702 0.0
C1315 C 0.64642 0.12491 0.43922 0.0
C1316 C 0.64715 0.12556 0.51135 0.0
C1317 C 0.65151 0.16762 0.5396 0.0
N1318 N 0.64744 0.12591 0.4625 0.0
N1319 N 0.65251 0.16665 0.51658 0.0
H1320 H 0.97473 0.38941 0.45627 0.0
H1321 H 0.90371 0.40486 0.56141 0.0
H1322 H 0.91972 0.43063 0.46008 0.0
H1323 H 0.96904 0.3792 0.57006 0.0
H1324 H 0.91104 0.41476 0.52419 0.0
H1325 H 0.97569 0.3867 0.49783 0.0
C1326 C 0.96342 0.3985 0.466 0.0
C1327 C 0.94701 0.41016 0.45476 0.0
C1328 C 0.92397 0.40709 0.53411 0.0
C1329 C 0.94767 0.40675 0.50183 0.0
C1330 C 0.91968 0.40124 0.55541 0.0
C1331 C 0.93565 0.39091 0.5688 0.0
C1332 C 0.94429 0.40231 0.52561 0.0
C1333 C 0.95623 0.38706 0.56021 0.0
C1334 C 0.96383 0.39678 0.48963 0.0
C1335 C 0.9325 0.42131 0.46803 0.0
N1336 N 0.95986 0.39247 0.53893 0.0
N1337 N 0.933 0.41911 0.49068 0.0
H1338 H 0.60509 0.83342 0.54851 0.0
H1339 H 0.64094 0.91581 0.45728 0.0
H1340 H 0.61553 0.90776 0.56254 0.0
H1341 H 0.62019 0.8424 0.43859 0.0
H1342 H 0.63387 0.91249 0.49653 0.0
H1343 H 0.61188 0.83581 0.50874 0.0
C1344 C 0.60865 0.85026 0.54321 0.0
C1345 C 0.60974 0.87044 0.55894 0.0
C1346 C 0.63088 0.89707 0.4839 0.0
C1347 C 0.61779 0.87325 0.51347 0.0
C1348 C 0.63503 0.89891 0.46143 0.0
C1349 C 0.63113 0.87933 0.4445 0.0
C1350 C 0.62281 0.87548 0.48971 0.0
C1351 C 0.62345 0.85794 0.45105 0.0
C1352 C 0.61257 0.85158 0.5205 0.0
C1353 C 0.61446 0.89175 0.55106 0.0
N1354 N 0.61951 0.85658 0.47316 0.0
N1355 N 0.61842 0.89258 0.52894 0.0
H1356 H 0.08746 0.61749 0.55456 0.0
H1357 H 0.17075 0.66424 0.46814 0.0
H1358 H 0.16149 0.6339 0.57185 0.0
H1359 H 0.09757 0.64245 0.44815 0.0
H1360 H 0.16722 0.65452 0.50661 0.0
H1361 H 0.09056 0.62678 0.51574 0.0
C1362 C 0.10441 0.62281 0.55015 0.0
C1363 C 0.12426 0.6249 0.56658 0.0
C1364 C 0.1519 0.65193 0.49387 0.0
C1365 C 0.12786 0.63591 0.52212 0.0
C1366 C 0.15386 0.65761 0.47187 0.0
C1367 C 0.13441 0.65418 0.45479 0.0
C1368 C 0.13032 0.64272 0.49899 0.0
C1369 C 0.11302 0.64546 0.46075 0.0
C1370 C 0.10614 0.62822 0.52797 0.0
C1371 C 0.14572 0.63196 0.55981 0.0
N1372 N 0.11157 0.63997 0.48233 0.0
N1373 N 0.14692 0.63732 0.53818 0.0
H1374 H 0.35569 0.12724 0.55233 0.0
H1375 H 0.38445 0.06653 0.43223 0.0
H1376 H 0.38301 0.06275 0.5482 0.0
H1377 H 0.37781 0.13849 0.44813 0.0
H1378 H 0.37901 0.06145 0.47218 0.0
H1379 H 0.35705 0.12744 0.5114 0.0
C1380 C 0.36171 0.11288 0.54268 0.0
C1381 C 0.36944 0.09504 0.5538 0.0
C1382 C 0.37879 0.0783 0.46682 0.0
C1383 C 0.37146 0.09539 0.50656 0.0
C1384 C 0.3819 0.08124 0.44406 0.0
C1385 C 0.38167 0.10302 0.43675 0.0
C1386 C 0.37504 0.09719 0.4822 0.0
C1387 C 0.37825 0.12141 0.45286 0.0
C1388 C 0.36263 0.1131 0.51927 0.0
C1389 C 0.37683 0.07681 0.54029 0.0
N1390 N 0.37499 0.11804 0.47464 0.0
N1391 N 0.37791 0.07755 0.51734 0.0
H1392 H 0.43734 0.86611 0.66196 0.0
H1393 H 0.53448 0.79419 0.62388 0.0
H1394 H 0.41666 0.79578 0.62896 0.0
H1395 H 0.53527 0.86717 0.62231 0.0
H1396 H 0.49378 0.7914 0.63086 0.0
H1397 H 0.47653 0.86352 0.65489 0.0
C1398 C 0.44102 0.84997 0.65334 0.0
C1399 C 0.42345 0.83123 0.64576 0.0
C1400 C 0.50298 0.80789 0.62876 0.0
C1401 C 0.46885 0.82824 0.63747 0.0
C1402 C 0.52613 0.80951 0.62473 0.0
C1403 C 0.53849 0.83099 0.62268 0.0
C1404 C 0.49244 0.82795 0.63112 0.0
C1405 C 0.52673 0.85025 0.62397 0.0
C1406 C 0.4635 0.84857 0.64922 0.0
C1407 C 0.42963 0.81069 0.63501 0.0
N1408 N 0.50463 0.84829 0.62834 0.0
N1409 N 0.45188 0.80974 0.63103 0.0
H1410 H 0.45814 0.11209 0.36759 0.0
H1411 H 0.57216 0.20295 0.36982 0.0
H1412 H 0.45868 0.18565 0.38148 0.0
H1413 H 0.56799 0.12907 0.35407 0.0
H1414 H 0.53084 0.19781 0.37379 0.0
H1415 H 0.49874 0.11871 0.36292 0.0
C1416 C 0.4668 0.12967 0.36977 0.0
C1417 C 0.45487 0.14831 0.37497 0.0
C1418 C 0.53903 0.18278 0.36937 0.0
C1419 C 0.50171 0.15611 0.36945 0.0
C1420 C 0.56258 0.18571 0.36699 0.0
C1421 C 0.57367 0.16643 0.36166 0.0
C1422 C 0.52653 0.16042 0.36639 0.0
C1423 C 0.56035 0.14449 0.35831 0.0
C1424 C 0.49006 0.13347 0.36702 0.0
C1425 C 0.46716 0.17073 0.37752 0.0
N1426 N 0.53765 0.14213 0.36079 0.0
N1427 N 0.48988 0.17401 0.37471 0.0
H1428 H 0.84269 0.56303 0.37443 0.0
H1429 H 0.93177 0.47262 0.38709 0.0
H1430 H 0.91668 0.58246 0.38752 0.0
H1431 H 0.85798 0.45426 0.38259 0.0
H1432 H 0.92644 0.51257 0.38513 0.0
H1433 H 0.84791 0.52283 0.37499 0.0
C1434 C 0.86007 0.55886 0.37732 0.0
C1435 C 0.8793 0.57619 0.38098 0.0
C1436 C 0.9114 0.49983 0.38458 0.0
C1437 C 0.88536 0.53009 0.3817 0.0
C1438 C 0.91441 0.47697 0.38568 0.0
C1439 C 0.89527 0.46003 0.38502 0.0
C1440 C 0.88909 0.50588 0.38272 0.0
C1441 C 0.87322 0.46675 0.3832 0.0
C1442 C 0.86301 0.53587 0.3777 0.0
C1443 C 0.90137 0.56969 0.38465 0.0
N1444 N 0.87074 0.48917 0.38209 0.0
N1445 N 0.90379 0.54715 0.38494 0.0
H1446 H 0.46944 0.90301 0.42801 0.0
H1447 H 0.58665 0.96556 0.39688 0.0
H1448 H 0.47115 0.97082 0.40769 0.0
H1449 H 0.56389 0.89209 0.38464 0.0
H1450 H 0.54825 0.97133 0.40728 0.0
H1451 H 0.50907 0.90286 0.42101 0.0
C1452 C 0.47826 0.91804 0.42231 0.0
C1453 C 0.46681 0.93681 0.41808 0.0
C1454 C 0.55183 0.95405 0.40216 0.0
C1455 C 0.5124 0.9366 0.40973 0.0
C1456 C 0.57363 0.95072 0.39618 0.0
C1457 C 0.57861 0.92829 0.38997 0.0
C1458 C 0.53527 0.93477 0.40233 0.0
C1459 C 0.56108 0.90971 0.38939 0.0
C1460 C 0.50089 0.91788 0.4182 0.0
C1461 C 0.47934 0.95596 0.41106 0.0
N1462 N 0.54042 0.91337 0.39569 0.0
N1463 N 0.50151 0.9553 0.40684 0.0
H1464 H 0.14921 0.59115 0.40745 0.0
H1465 H 0.2282 0.49216 0.39484 0.0
H1466 H 0.21927 0.60668 0.39383 0.0
H1467 H 0.16518 0.48758 0.42502 0.0
H1468 H 0.22743 0.5339 0.39507 0.0
H1469 H 0.15613 0.55283 0.41359 0.0
C1470 C 0.16614 0.58646 0.40565 0.0
C1471 C 0.18362 0.60217 0.39988 0.0
C1472 C 0.21406 0.52376 0.40202 0.0
C1473 C 0.1918 0.55773 0.40706 0.0
C1474 C 0.21458 0.50003 0.40203 0.0
C1475 C 0.19657 0.48641 0.40969 0.0
C1476 C 0.1954 0.53366 0.40969 0.0
C1477 C 0.17923 0.49736 0.41865 0.0
C1478 C 0.17015 0.5645 0.40936 0.0
C1479 C 0.20529 0.59506 0.39817 0.0
N1480 N 0.17898 0.52017 0.41819 0.0
N1481 N 0.20874 0.57319 0.40152 0.0
H1482 H 0.44922 0.09503 0.62246 0.0
H1483 H 0.56934 0.15787 0.59707 0.0
H1484 H 0.46014 0.16658 0.61252 0.0
H1485 H 0.55716 0.08638 0.60685 0.0
H1486 H 0.52905 0.16095 0.60036 0.0
H1487 H 0.48835 0.09159 0.61556 0.0
C1488 C 0.45987 0.11013 0.61889 0.0
C1489 C 0.45129 0.13119 0.61807 0.0
C1490 C 0.53511 0.14454 0.60159 0.0
C1491 C 0.49645 0.1272 0.60997 0.0
C1492 C 0.55812 0.14269 0.59962 0.0
C1493 C 0.56672 0.12182 0.60184 0.0
C1494 C 0.52052 0.12541 0.6059 0.0
C1495 C 0.55131 0.10278 0.60502 0.0
C1496 C 0.48229 0.10807 0.61487 0.0
C1497 C 0.46604 0.15006 0.61341 0.0
N1498 N 0.52901 0.10509 0.60715 0.0
N1499 N 0.48794 0.14761 0.60951 0.0
H1500 H 0.84673 0.43458 0.61493 0.0
H1501 H 0.91344 0.56357 0.62802 0.0
H1502 H 0.92057 0.45279 0.63311 0.0
H1503 H 0.8392 0.54705 0.61948 0.0
H1504 H 0.91637 0.5226 0.62769 0.0
H1505 H 0.84349 0.4755 0.61462 0.0
C1506 C 0.86222 0.44715 0.61892 0.0
C1507 C 0.88393 0.44022 0.6241 0.0
C1508 C 0.89944 0.52796 0.62588 0.0
C1509 C 0.88039 0.48697 0.6236 0.0
C1510 C 0.89777 0.55135 0.626 0.0
C1511 C 0.87606 0.55879 0.62384 0.0
C1512 C 0.87925 0.51188 0.62346 0.0
C1513 C 0.85632 0.54214 0.62129 0.0
C1514 C 0.86038 0.47049 0.61872 0.0
C1515 C 0.90344 0.45728 0.62908 0.0
N1516 N 0.85839 0.5195 0.62117 0.0
N1517 N 0.90121 0.4798 0.62865 0.0
H1518 H 0.05139 0.5434 0.62121 0.0
H1519 H 0.12782 0.44698 0.65611 0.0
H1520 H 0.12538 0.55393 0.64048 0.0
H1521 H 0.05817 0.42831 0.6206 0.0
H1522 H 0.12419 0.48734 0.65577 0.0
H1523 H 0.05092 0.50217 0.62486 0.0
C1524 C 0.06748 0.53711 0.62617 0.0
C1525 C 0.08847 0.55219 0.63045 0.0
C1526 C 0.10959 0.47452 0.64809 0.0
C1527 C 0.08798 0.50539 0.63495 0.0
C1528 C 0.11163 0.45138 0.64835 0.0
C1529 C 0.09337 0.43417 0.63812 0.0
C1530 C 0.08916 0.48079 0.6374 0.0
C1531 C 0.0727 0.44105 0.62863 0.0
C1532 C 0.06718 0.51363 0.62825 0.0
C1533 C 0.10877 0.54308 0.63686 0.0
N1534 N 0.0712 0.46389 0.62829 0.0
N1535 N 0.10797 0.52044 0.63896 0.0
H1536 H 0.14063 0.23152 0.34586 0.0
H1537 H 0.21176 0.34998 0.41404 0.0
H1538 H 0.17343 0.237 0.41634 0.0
H1539 H 0.15813 0.34573 0.35626 0.0
H1540 H 0.20403 0.30769 0.41205 0.0
H1541 H 0.15251 0.27268 0.34672 0.0
C1542 C 0.15029 0.24141 0.36158 0.0
C1543 C 0.15589 0.23079 0.38112 0.0
C1544 C 0.1942 0.31607 0.39967 0.0
C1545 C 0.16989 0.27806 0.38208 0.0
C1546 C 0.1988 0.34009 0.40061 0.0
C1547 C 0.18559 0.35125 0.38523 0.0
C1548 C 0.17657 0.30329 0.383 0.0
C1549 C 0.16869 0.33776 0.36843 0.0
C1550 C 0.1571 0.26493 0.36203 0.0
C1551 C 0.16852 0.24454 0.40097 0.0
N1552 N 0.16468 0.31455 0.36777 0.0
N1553 N 0.1752 0.26749 0.40093 0.0
H1554 H 0.81218 0.15907 0.31684 0.0
H1555 H 0.71755 0.18007 0.40095 0.0
H1556 H 0.81731 0.14608 0.38759 0.0
H1557 H 0.70591 0.1872 0.32885 0.0
H1558 H 0.75685 0.17303 0.39696 0.0
H1559 H 0.77484 0.17258 0.32072 0.0
C1560 C 0.80538 0.15878 0.33304 0.0
C1561 C 0.81795 0.15137 0.35189 0.0
C1562 C 0.74597 0.17663 0.38205 0.0
C1563 C 0.77567 0.16729 0.35661 0.0
C1564 C 0.72369 0.18108 0.38448 0.0
C1565 C 0.70881 0.18484 0.36537 0.0
C1566 C 0.7533 0.17539 0.36017 0.0
C1567 C 0.71719 0.18502 0.34413 0.0
C1568 C 0.7842 0.16671 0.33532 0.0
C1569 C 0.80838 0.15164 0.37256 0.0
N1570 N 0.73884 0.18008 0.342 0.0
N1571 N 0.78798 0.15951 0.37435 0.0
H1572 H 0.86488 0.82848 0.42003 0.0
H1573 H 0.91191 0.71216 0.38218 0.0
H1574 H 0.9053 0.8225 0.36404 0.0
H1575 H 0.84431 0.7122 0.40284 0.0
H1576 H 0.91481 0.75396 0.38177 0.0
H1577 H 0.86173 0.78672 0.4199 0.0
C1578 C 0.87302 0.81832 0.40766 0.0
C1579 C 0.88529 0.82883 0.39195 0.0
C1580 C 0.89941 0.74474 0.38644 0.0
C1581 C 0.88222 0.78136 0.39212 0.0
C1582 C 0.89783 0.72102 0.38691 0.0
C1583 C 0.87785 0.7088 0.3926 0.0
C1584 C 0.88113 0.75629 0.39226 0.0
C1585 C 0.85998 0.72102 0.39832 0.0
C1586 C 0.87119 0.79457 0.40759 0.0
C1587 C 0.89552 0.81495 0.37627 0.0
N1588 N 0.8621 0.74415 0.39818 0.0
N1589 N 0.894 0.79187 0.37692 0.0
H1590 H 0.21477 0.95236 0.4043 0.0
H1591 H 0.32992 0.90237 0.43413 0.0
H1592 H 0.22644 0.91794 0.46408 0.0
H1593 H 0.33107 0.96563 0.40455 0.0
H1594 H 0.29067 0.90525 0.44201 0.0
H1595 H 0.25611 0.95573 0.40135 0.0
C1596 C 0.22613 0.94581 0.41701 0.0
C1597 C 0.21723 0.93485 0.43447 0.0
C1598 C 0.29953 0.91855 0.43389 0.0
C1599 C 0.26431 0.9381 0.43078 0.0
C1600 C 0.32184 0.91682 0.42914 0.0
C1601 C 0.33371 0.93369 0.41844 0.0
C1602 C 0.28867 0.937 0.42744 0.0
C1603 C 0.32249 0.95222 0.41273 0.0
C1604 C 0.24967 0.94778 0.41532 0.0
C1605 C 0.23265 0.92664 0.45047 0.0
N1606 N 0.30042 0.95322 0.41701 0.0
N1607 N 0.2554 0.92804 0.44798 0.0
H1608 H 0.07004 0.80213 0.65228 0.0
H1609 H 0.11431 0.68823 0.60669 0.0
H1610 H 0.10206 0.79606 0.59038 0.0
H1611 H 0.05458 0.68575 0.64214 0.0
H1612 H 0.1111 0.72816 0.60179 0.0
H1613 H 0.06436 0.76008 0.64994 0.0
C1614 C 0.0755 0.79188 0.63795 0.0
C1615 C 0.08662 0.80253 0.62153 0.0
C1616 C 0.09854 0.71885 0.61044 0.0
C1617 C 0.08069 0.75455 0.61911 0.0
C1618 C 0.10047 0.69614 0.61344 0.0
C1619 C 0.08482 0.68379 0.62508 0.0
C1620 C 0.08116 0.72958 0.61962 0.0
C1621 C 0.06703 0.69474 0.63315 0.0
C1622 C 0.07222 0.76791 0.63662 0.0
C1623 C 0.09334 0.7885 0.60333 0.0
N1624 N 0.06591 0.71722 0.63063 0.0
N1625 N 0.0907 0.76521 0.60286 0.0
H1626 H 0.20056 0.13943 0.57447 0.0
H1627 H 0.31578 0.12161 0.65064 0.0
H1628 H 0.2045 0.1281 0.64569 0.0
H1629 H 0.31892 0.16272 0.59541 0.0
H1630 H 0.2741 0.12124 0.64674 0.0
H1631 H 0.24317 0.14533 0.579 0.0
C1632 C 0.2103 0.13819 0.59098 0.0
C1633 C 0.19888 0.13317 0.60968 0.0
C1634 C 0.28385 0.13064 0.63563 0.0
C1635 C 0.24729 0.13978 0.6149 0.0
C1636 C 0.30764 0.13091 0.63793 0.0
C1637 C 0.32073 0.14246 0.62354 0.0
C1638 C 0.27285 0.14148 0.61836 0.0
C1639 C 0.30936 0.15397 0.60709 0.0
C1640 C 0.23455 0.14172 0.59359 0.0
C1641 C 0.2124 0.13193 0.63074 0.0
N1642 N 0.28592 0.15294 0.60469 0.0
N1643 N 0.23574 0.135 0.63268 0.0
H1644 H 0.90718 0.19013 0.61423 0.0
H1645 H 0.85263 0.30241 0.58837 0.0
H1646 H 0.85099 0.18714 0.55916 0.0
H1647 H 0.92099 0.30438 0.62511 0.0
H1648 H 0.84979 0.26034 0.5791 0.0
H1649 H 0.91082 0.23202 0.61985 0.0
C1650 C 0.89566 0.19833 0.60318 0.0
C1651 C 0.87872 0.18509 0.5862 0.0
C1652 C 0.86542 0.27004 0.5891 0.0
C1653 C 0.88261 0.23334 0.59282 0.0
C1654 C 0.86701 0.29403 0.59454 0.0
C1655 C 0.88706 0.307 0.60765 0.0
C1656 C 0.88387 0.2589 0.5971 0.0
C1657 C 0.9052 0.29518 0.615 0.0
C1658 C 0.89779 0.22231 0.60639 0.0
C1659 C 0.86436 0.19672 0.57235 0.0
N1660 N 0.9031 0.27187 0.60977 0.0
N1661 N 0.86644 0.22023 0.57614 0.0
H1662 H 0.67508 0.8116 0.61114 0.0
H1663 H 0.79553 0.88599 0.67071 0.0
H1664 H 0.68033 0.87647 0.65541 0.0
H1665 H 0.78889 0.84142 0.60571 0.0
H1666 H 0.75382 0.87698 0.67053 0.0
H1667 H 0.71754 0.81658 0.61429 0.0
C1668 C 0.68516 0.82666 0.62178 0.0
C1669 C 0.67421 0.8437 0.63294 0.0
C1670 C 0.76154 0.86911 0.65636 0.0
C1671 C 0.72249 0.84941 0.63674 0.0
C1672 C 0.78534 0.87421 0.65647 0.0
C1673 C 0.79571 0.86461 0.6381 0.0
C1674 C 0.748 0.85399 0.63796 0.0
C1675 C 0.78159 0.8494 0.62012 0.0
C1676 C 0.70931 0.82958 0.62344 0.0
C1677 C 0.68807 0.863 0.64638 0.0
N1678 N 0.75847 0.84452 0.62051 0.0
N1679 N 0.71143 0.8653 0.64794 0.0
H1680 H 0.36115 0.06818 0.18181 0.0
H1681 H 0.36678 0.14275 0.30431 0.0
H1682 H 0.34314 0.13676 0.19093 0.0
H1683 H 0.37264 0.07018 0.29618 0.0
H1684 H 0.35544 0.13981 0.26285 0.0
H1685 H 0.36125 0.06683 0.22314 0.0
C1686 C 0.35625 0.08258 0.19245 0.0
C1687 C 0.35168 0.10244 0.18303 0.0
C1688 C 0.35906 0.12447 0.27007 0.0
C1689 C 0.35298 0.10158 0.23043 0.0
C1690 C 0.36577 0.12615 0.2938 0.0
C1691 C 0.37099 0.10672 0.30378 0.0
C1692 C 0.35776 0.10323 0.25599 0.0
C1693 C 0.36897 0.08564 0.28922 0.0
C1694 C 0.35661 0.08194 0.21607 0.0
C1695 C 0.34624 0.12097 0.19754 0.0
N1696 N 0.36273 0.08451 0.26603 0.0
N1697 N 0.3474 0.12024 0.22062 0.0
H1698 H 0.88745 0.36724 0.31552 0.0
H1699 H 0.93447 0.3968 0.20091 0.0
H1700 H 0.95741 0.39854 0.31459 0.0
H1701 H 0.87173 0.35031 0.19964 0.0
H1702 H 0.94371 0.39622 0.2423 0.0
H1703 H 0.88167 0.35979 0.2734 0.0
C1704 C 0.90168 0.37247 0.30647 0.0
C1705 C 0.92292 0.38378 0.31869 0.0
C1706 C 0.92807 0.38585 0.23303 0.0
C1707 C 0.91629 0.37529 0.27022 0.0
C1708 C 0.92278 0.38617 0.20939 0.0
C1709 C 0.90228 0.37362 0.19691 0.0
C1710 C 0.9125 0.37327 0.24453 0.0
C1711 C 0.88776 0.36011 0.20865 0.0
C1712 C 0.89836 0.36807 0.28237 0.0
C1713 C 0.94074 0.38988 0.30595 0.0
N1714 N 0.89297 0.36058 0.23194 0.0
N1715 N 0.93693 0.3858 0.28243 0.0
H1716 H 0.62227 0.84638 0.1901 0.0
H1717 H 0.61212 0.9157 0.31066 0.0
H1718 H 0.57187 0.8928 0.19573 0.0
H1719 H 0.62808 0.84614 0.30514 0.0
H1720 H 0.6013 0.91063 0.26856 0.0
H1721 H 0.62831 0.84847 0.23222 0.0
C1722 C 0.61225 0.85678 0.20026 0.0
C1723 C 0.59642 0.8693 0.18948 0.0
C1724 C 0.60709 0.89648 0.27662 0.0
C1725 C 0.60382 0.87238 0.23769 0.0
C1726 C 0.61346 0.8994 0.30059 0.0
C1727 C 0.62113 0.88134 0.31144 0.0
C1728 C 0.60893 0.87555 0.26331 0.0
C1729 C 0.62228 0.86052 0.29753 0.0
C1730 C 0.61572 0.85798 0.22425 0.0
C1731 C 0.58401 0.88268 0.2034 0.0
N1732 N 0.61653 0.85829 0.27418 0.0
N1733 N 0.58826 0.88419 0.22687 0.0
H1734 H 0.14548 0.59359 0.20669 0.0
H1735 H 0.10221 0.65614 0.31587 0.0
H1736 H 0.11039 0.65282 0.20103 0.0
H1737 H 0.16938 0.63412 0.32114 0.0
H1738 H 0.09928 0.6489 0.2735 0.0
H1739 H 0.14907 0.60212 0.24892 0.0
C1740 C 0.13855 0.60839 0.21436 0.0
C1741 C 0.12773 0.62261 0.20043 0.0
C1742 C 0.11463 0.6457 0.28403 0.0
C1743 C 0.13126 0.63204 0.24848 0.0
C1744 C 0.11625 0.64968 0.3081 0.0
C1745 C 0.13609 0.64575 0.32195 0.0
C1746 C 0.13266 0.63711 0.27385 0.0
C1747 C 0.15386 0.63749 0.31106 0.0
C1748 C 0.14066 0.61325 0.23838 0.0
C1749 C 0.11904 0.64158 0.21121 0.0
N1750 N 0.15163 0.63319 0.28764 0.0
N1751 N 0.12073 0.6456 0.23465 0.0
H1752 H 0.38407 0.91018 0.8421 0.0
H1753 H 0.3503 0.83619 0.71761 0.0
H1754 H 0.34001 0.84459 0.83011 0.0
H1755 H 0.38019 0.90795 0.72865 0.0
H1756 H 0.34635 0.83875 0.75852 0.0
H1757 H 0.38189 0.91 0.80053 0.0
C1758 C 0.37358 0.89589 0.8306 0.0
C1759 C 0.36222 0.87734 0.83945 0.0
C1760 C 0.35369 0.85396 0.75199 0.0
C1761 C 0.36011 0.87672 0.79179 0.0
C1762 C 0.35616 0.85249 0.72865 0.0
C1763 C 0.36581 0.87187 0.71968 0.0
C1764 C 0.36111 0.8749 0.7666 0.0
C1765 C 0.3728 0.89255 0.7348 0.0
C1766 C 0.37239 0.89577 0.80688 0.0
C1767 C 0.34888 0.85927 0.82391 0.0
N1768 N 0.37043 0.89348 0.75754 0.0
N1769 N 0.34847 0.85922 0.80074 0.0
H1770 H 0.11562 0.33019 0.80627 0.0
H1771 H 0.1771 0.379 0.70478 0.0
H1772 H 0.18506 0.36616 0.81617 0.0
H1773 H 0.10443 0.35331 0.69832 0.0
H1774 H 0.18213 0.36899 0.744 0.0
H1775 H 0.11339 0.3317 0.7646 0.0
C1776 C 0.13069 0.33754 0.79948 0.0
C1777 C 0.15067 0.34771 0.81443 0.0
C1778 C 0.1651 0.36551 0.73395 0.0
C1779 C 0.14804 0.3504 0.76722 0.0
C1780 C 0.1622 0.37134 0.7116 0.0
C1781 C 0.14027 0.36726 0.69829 0.0
C1782 C 0.14597 0.35538 0.74302 0.0
C1783 C 0.12163 0.35705 0.708 0.0
C1784 C 0.12932 0.33876 0.77581 0.0
C1785 C 0.16949 0.3578 0.80502 0.0
N1786 N 0.1249 0.3515 0.72972 0.0
N1787 N 0.16767 0.35908 0.78204 0.0
H1788 H 0.65571 0.18986 0.69008 0.0
H1789 H 0.5976 0.13017 0.78782 0.0
H1790 H 0.60377 0.12962 0.67516 0.0
H1791 H 0.66381 0.17341 0.79923 0.0
H1792 H 0.59327 0.13665 0.74709 0.0
H1793 H 0.65192 0.19138 0.73124 0.0
C1794 C 0.64323 0.17727 0.69544 0.0
C1795 C 0.63039 0.15934 0.67941 0.0
C1796 C 0.60863 0.1448 0.75867 0.0
C1797 C 0.62594 0.1609 0.72605 0.0
C1798 C 0.6111 0.14105 0.78178 0.0
C1799 C 0.63132 0.15075 0.79663 0.0
C1800 C 0.62632 0.1587 0.75075 0.0
C1801 C 0.64821 0.16504 0.78815 0.0
C1802 C 0.64114 0.17804 0.71885 0.0
C1803 C 0.61436 0.14344 0.68714 0.0
N1804 N 0.64536 0.16851 0.76579 0.0
N1805 N 0.61273 0.14445 0.70995 0.0
H1806 H 0.89612 0.67243 0.81434 0.0
H1807 H 0.82004 0.60503 0.69827 0.0
H1808 H 0.85841 0.60457 0.81252 0.0
H1809 H 0.88124 0.65376 0.69939 0.0
H1810 H 0.82813 0.60837 0.74076 0.0
H1811 H 0.88516 0.66949 0.77265 0.0
C1812 C 0.88549 0.65689 0.80518 0.0
C1813 C 0.8783 0.63866 0.81697 0.0
C1814 C 0.83965 0.61837 0.73161 0.0
C1815 C 0.86538 0.63533 0.7691 0.0
C1816 C 0.83494 0.61663 0.70745 0.0
C1817 C 0.85001 0.62911 0.69532 0.0
C1818 C 0.85924 0.63308 0.7436 0.0
C1819 C 0.86923 0.64373 0.70803 0.0
C1820 C 0.87927 0.65523 0.78135 0.0
C1821 C 0.86451 0.61895 0.8041 0.0
N1822 N 0.87321 0.64538 0.7314 0.0
N1823 N 0.85838 0.61784 0.78085 0.0
H1824 H 0.20715 0.37244 0.10756 0.0
H1825 H 0.31904 0.34596 0.18204 0.0
H1826 H 0.20329 0.34045 0.16898 0.0
H1827 H 0.31643 0.35547 0.11043 0.0
H1828 H 0.27693 0.34325 0.17792 0.0
H1829 H 0.2471 0.36549 0.10815 0.0
C1830 C 0.2147 0.36355 0.12097 0.0
C1831 C 0.20201 0.35692 0.13821 0.0
C1832 C 0.28557 0.34565 0.16305 0.0
C1833 C 0.24798 0.34949 0.13944 0.0
C1834 C 0.30962 0.34732 0.1654 0.0
C1835 C 0.32135 0.35119 0.14659 0.0
C1836 C 0.27315 0.3482 0.14185 0.0
C1837 C 0.30819 0.3526 0.12542 0.0
C1838 C 0.2375 0.3596 0.12133 0.0
C1839 C 0.21253 0.34561 0.15529 0.0
N1840 N 0.28486 0.3514 0.12372 0.0
N1841 N 0.23511 0.34258 0.15572 0.0
H1842 H 0.22895 0.69467 0.92755 0.0
H1843 H 0.32924 0.62207 0.89807 0.0
H1844 H 0.21746 0.62544 0.89068 0.0
H1845 H 0.34124 0.67665 0.95589 0.0
H1846 H 0.2885 0.62604 0.89295 0.0
H1847 H 0.27044 0.69159 0.93592 0.0
C1848 C 0.23511 0.67892 0.92115 0.0
C1849 C 0.21965 0.6603 0.90835 0.0
C1850 C 0.29991 0.6371 0.9069 0.0
C1851 C 0.26685 0.65673 0.91778 0.0
C1852 C 0.32324 0.63484 0.90983 0.0
C1853 C 0.33868 0.64899 0.92749 0.0
C1854 C 0.29174 0.65394 0.92145 0.0
C1855 C 0.32985 0.66525 0.9422 0.0
C1856 C 0.25871 0.67713 0.92607 0.0
C1857 C 0.22859 0.64025 0.90064 0.0
N1858 N 0.30693 0.66747 0.93872 0.0
N1859 N 0.25147 0.63908 0.90535 0.0
H1860 H 0.39891 0.20093 0.91367 0.0
H1861 H 0.36331 0.30823 0.85771 0.0
H1862 H 0.34233 0.19327 0.85821 0.0
H1863 H 0.39769 0.31505 0.92769 0.0
H1864 H 0.35615 0.2664 0.85673 0.0
H1865 H 0.39941 0.24265 0.91852 0.0
C1866 C 0.3864 0.20807 0.90263 0.0
C1867 C 0.37058 0.19362 0.88545 0.0
C1868 C 0.36505 0.27703 0.87238 0.0
C1869 C 0.37138 0.2416 0.89065 0.0
C1870 C 0.36928 0.30094 0.87294 0.0
C1871 C 0.38131 0.31522 0.89279 0.0
C1872 C 0.37329 0.26715 0.89163 0.0
C1873 C 0.38839 0.30475 0.91204 0.0
C1874 C 0.38668 0.23191 0.90546 0.0
C1875 C 0.35473 0.20379 0.87171 0.0
N1876 N 0.38457 0.28135 0.91087 0.0
N1877 N 0.35578 0.22723 0.87435 0.0
H1878 H 0.82603 0.38776 0.843 0.0
H1879 H 0.7173 0.37344 0.91167 0.0
H1880 H 0.82479 0.34747 0.89895 0.0
H1881 H 0.72605 0.41852 0.86034 0.0
H1882 H 0.75582 0.3627 0.9079 0.0
H1883 H 0.78738 0.39602 0.84764 0.0
C1884 C 0.81721 0.38006 0.85583 0.0
C1885 C 0.82836 0.36663 0.87034 0.0
C1886 C 0.74939 0.37519 0.89775 0.0
C1887 C 0.78441 0.37693 0.87667 0.0
C1888 C 0.72761 0.38162 0.90019 0.0
C1889 C 0.71857 0.397 0.88638 0.0
C1890 C 0.762 0.38421 0.88136 0.0
C1891 C 0.73237 0.40663 0.87133 0.0
C1892 C 0.79528 0.38508 0.85877 0.0
C1893 C 0.81647 0.3575 0.8871 0.0
N1894 N 0.75322 0.39995 0.86912 0.0
N1895 N 0.79514 0.36301 0.88999 0.0
H1896 H 0.66824 0.72707 0.91252 0.0
H1897 H 0.60978 0.82601 0.85962 0.0
H1898 H 0.61992 0.7126 0.84949 0.0
H1899 H 0.6768 0.83903 0.90136 0.0
H1900 H 0.6107 0.78451 0.85792 0.0
H1901 H 0.66905 0.76828 0.91116 0.0
C1902 C 0.65775 0.73257 0.89839 0.0
C1903 C 0.6439 0.71636 0.88113 0.0
C1904 C 0.62526 0.79647 0.86731 0.0
C1905 C 0.64468 0.76361 0.87959 0.0
C1906 C 0.62472 0.82014 0.86839 0.0
C1907 C 0.64323 0.83602 0.88073 0.0
C1908 C 0.64422 0.78858 0.87903 0.0
C1909 C 0.66219 0.82742 0.89163 0.0
C1910 C 0.65835 0.7561 0.89757 0.0
C1911 C 0.63085 0.72451 0.86313 0.0
N1912 N 0.66209 0.80429 0.89074 0.0
N1913 N 0.63136 0.74761 0.86295 0.0
H1914 H 0.79008 0.56278 0.13145 0.0
H1915 H 0.68967 0.63227 0.08797 0.0
H1916 H 0.80178 0.62263 0.09715 0.0
H1917 H 0.68635 0.59613 0.14693 0.0
H1918 H 0.72894 0.62388 0.08642 0.0
H1919 H 0.74966 0.56915 0.13194 0.0
C1920 C 0.78399 0.57692 0.12359 0.0
C1921 C 0.79917 0.59217 0.11417 0.0
C1922 C 0.71968 0.61787 0.09977 0.0
C1923 C 0.75338 0.5996 0.11482 0.0
C1924 C 0.69729 0.62267 0.1007 0.0
C1925 C 0.68481 0.61501 0.11771 0.0
C1926 C 0.7296 0.60489 0.11567 0.0
C1927 C 0.69551 0.60258 0.13372 0.0
C1928 C 0.7611 0.58071 0.12415 0.0
C1929 C 0.7906 0.61048 0.10458 0.0
N1930 N 0.71728 0.59771 0.1322 0.0
N1931 N 0.76829 0.61365 0.1051 0.0
H1932 H 0.34416 0.6732 0.1366 0.0
H1933 H 0.39101 0.80153 0.19285 0.0
H1934 H 0.38068 0.69005 0.20597 0.0
H1935 H 0.33297 0.78558 0.13853 0.0
H1936 H 0.3879 0.76083 0.19757 0.0
H1937 H 0.3403 0.7139 0.13626 0.0
C1938 C 0.35128 0.68545 0.15184 0.0
C1939 C 0.36295 0.67819 0.17131 0.0
C1940 C 0.37561 0.76619 0.18482 0.0
C1941 C 0.3587 0.72493 0.17089 0.0
C1942 C 0.37739 0.78941 0.18209 0.0
C1943 C 0.36223 0.79689 0.16524 0.0
C1944 C 0.3589 0.75007 0.17021 0.0
C1945 C 0.3449 0.78051 0.15179 0.0
C1946 C 0.34893 0.70867 0.15164 0.0
C1947 C 0.37161 0.69484 0.19059 0.0
N1948 N 0.34394 0.75775 0.15429 0.0
N1949 N 0.3696 0.71746 0.18977 0.0
H1950 H 0.6369 0.30189 0.06441 0.0
H1951 H 0.59383 0.19791 0.13113 0.0
H1952 H 0.61965 0.31355 0.13349 0.0
H1953 H 0.64095 0.19224 0.08111 0.0
H1954 H 0.59503 0.23925 0.12741 0.0
H1955 H 0.63062 0.26022 0.06565 0.0
C1956 C 0.63175 0.2957 0.07979 0.0
C1957 C 0.62908 0.31125 0.09897 0.0
C1958 C 0.6049 0.2288 0.11713 0.0
C1959 C 0.62138 0.26363 0.1003 0.0
C1960 C 0.60407 0.20528 0.11913 0.0
C1961 C 0.6174 0.1918 0.1065 0.0
C1962 C 0.61872 0.23858 0.10201 0.0
C1963 C 0.63056 0.20215 0.0913 0.0
C1964 C 0.62816 0.27195 0.08049 0.0
C1965 C 0.62223 0.3022 0.11843 0.0
N1966 N 0.63085 0.22485 0.08943 0.0
N1967 N 0.61855 0.27901 0.11858 0.0
H1968 H 0.85096 0.69597 0.65046 0.0
H1969 H 0.88172 0.80081 0.58277 0.0
H1970 H 0.90188 0.69388 0.60405 0.0
H1971 H 0.85815 0.80873 0.64935 0.0
H1972 H 0.88629 0.76066 0.58714 0.0
H1973 H 0.85061 0.73673 0.64755 0.0
C1974 C 0.86225 0.70422 0.63981 0.0
C1975 C 0.87651 0.69165 0.62752 0.0
C1976 C 0.88025 0.77133 0.60077 0.0
C1977 C 0.87584 0.73816 0.62369 0.0
C1978 C 0.87746 0.79411 0.59823 0.0
C1979 C 0.86947 0.80808 0.61569 0.0
C1980 C 0.87459 0.76249 0.62071 0.0
C1981 C 0.86438 0.79862 0.63545 0.0
C1982 C 0.86205 0.72746 0.63816 0.0
C1983 C 0.89079 0.70311 0.61394 0.0
N1984 N 0.86685 0.77641 0.63732 0.0
N1985 N 0.88988 0.72576 0.61212 0.0
H1986 H 0.16815 0.83374 0.62822 0.0
H1987 H 0.3001 0.87513 0.67457 0.0
H1988 H 0.1908 0.87608 0.69419 0.0
H1989 H 0.2777 0.81219 0.62719 0.0
H1990 H 0.26021 0.87712 0.68043 0.0
H1991 H 0.2078 0.8266 0.6262 0.0
C1992 C 0.18148 0.8414 0.64241 0.0
C1993 C 0.17619 0.85566 0.66138 0.0
C1994 C 0.26397 0.86279 0.66885 0.0
C1995 C 0.22175 0.84779 0.65892 0.0
C1996 C 0.28675 0.86171 0.6653 0.0
C1997 C 0.29226 0.84356 0.65013 0.0
C1998 C 0.24633 0.84585 0.65684 0.0
C1999 C 0.27422 0.82651 0.63895 0.0
C2000 C 0.20409 0.83723 0.64124 0.0
C2001 C 0.19411 0.86496 0.67929 0.0
N2002 N 0.25199 0.82824 0.64229 0.0
N2003 N 0.21617 0.86116 0.67746 0.0
H2004 H 0.07452 0.29509 0.63794 0.0
H2005 H 0.15415 0.19648 0.61759 0.0
H2006 H 0.13774 0.30346 0.6083 0.0
H2007 H 0.10084 0.19074 0.66112 0.0
H2008 H 0.14679 0.23532 0.61285 0.0
H2009 H 0.08117 0.2558 0.64406 0.0
C2010 C 0.08948 0.28848 0.63225 0.0
C2011 C 0.10556 0.30247 0.62249 0.0
C2012 C 0.13681 0.22581 0.6237 0.0
C2013 C 0.11349 0.25801 0.62985 0.0
C2014 C 0.14116 0.20368 0.62655 0.0
C2015 C 0.12826 0.19056 0.63996 0.0
C2016 C 0.11909 0.2349 0.63399 0.0
C2017 C 0.11141 0.20053 0.65095 0.0
C2018 C 0.09344 0.26623 0.63606 0.0
C2019 C 0.1249 0.29327 0.61586 0.0
N2020 N 0.1071 0.22211 0.64753 0.0
N2021 N 0.12831 0.27172 0.61968 0.0
H2022 H 0.69311 0.07578 0.60906 0.0
H2023 H 0.82247 0.13632 0.65793 0.0
H2024 H 0.70918 0.14317 0.64984 0.0
H2025 H 0.80402 0.08659 0.5962 0.0
H2026 H 0.7815 0.13234 0.6635 0.0
H2027 H 0.73453 0.07283 0.61299 0.0
C2028 C 0.70529 0.08971 0.61925 0.0
C2029 C 0.69778 0.10987 0.62887 0.0
C2030 C 0.78657 0.1221 0.64894 0.0
C2031 C 0.74495 0.10661 0.63348 0.0
C2032 C 0.80987 0.12431 0.64583 0.0
C2033 C 0.81646 0.11203 0.62642 0.0
C2034 C 0.77002 0.10715 0.63277 0.0
C2035 C 0.79953 0.09667 0.61119 0.0
C2036 C 0.72889 0.08808 0.62138 0.0
C2037 C 0.71431 0.12745 0.64186 0.0
N2038 N 0.7771 0.09471 0.61464 0.0
N2039 N 0.73713 0.12549 0.64366 0.0
H2040 H 0.93308 0.32784 0.37952 0.0
H2041 H 0.87697 0.21319 0.42098 0.0
H2042 H 0.86818 0.32485 0.40655 0.0
H2043 H 0.92025 0.21478 0.36728 0.0
H2044 H 0.87862 0.25543 0.42373 0.0
H2045 H 0.93345 0.28744 0.3828 0.0
C2046 C 0.91885 0.31867 0.38619 0.0
C2047 C 0.90046 0.32969 0.39265 0.0
C2048 C 0.88791 0.24644 0.41158 0.0
C2049 C 0.90092 0.28326 0.39653 0.0
C2050 C 0.88721 0.22254 0.41021 0.0
C2051 C 0.89856 0.21077 0.39393 0.0
C2052 C 0.90042 0.25833 0.39688 0.0
C2053 C 0.91128 0.22336 0.38003 0.0
C2054 C 0.9191 0.29557 0.38804 0.0
C2055 C 0.88254 0.31687 0.40117 0.0
N2056 N 0.91188 0.24647 0.38183 0.0
N2057 N 0.8832 0.29418 0.40291 0.0
H2058 H 0.82886 0.92897 0.44716 0.0
H2059 H 0.70586 0.87635 0.37435 0.0
H2060 H 0.81943 0.87637 0.38774 0.0
H2061 H 0.71793 0.94496 0.41262 0.0
H2062 H 0.74674 0.87344 0.38375 0.0
H2063 H 0.78735 0.93218 0.43981 0.0
C2064 C 0.81802 0.91787 0.43284 0.0
C2065 C 0.82758 0.90237 0.41804 0.0
C2066 C 0.74051 0.88919 0.39005 0.0
C2067 C 0.78039 0.90596 0.40956 0.0
C2068 C 0.71715 0.89088 0.38467 0.0
C2069 C 0.70844 0.91099 0.39257 0.0
C2070 C 0.7554 0.90758 0.40381 0.0
C2071 C 0.72395 0.92923 0.40596 0.0
C2072 C 0.79445 0.91988 0.42852 0.0
C2073 C 0.81282 0.88861 0.39954 0.0
N2074 N 0.74668 0.92704 0.41131 0.0
N2075 N 0.79005 0.89068 0.39589 0.0
H2076 H 0.13238 0.72537 0.3715 0.0
H2077 H 0.17576 0.8533 0.43241 0.0
H2078 H 0.19785 0.74357 0.41567 0.0
H2079 H 0.13211 0.83871 0.36644 0.0
H2080 H 0.18156 0.81279 0.42921 0.0
H2081 H 0.12944 0.76634 0.37189 0.0
C2082 C 0.14618 0.73801 0.38127 0.0
C2083 C 0.16537 0.73103 0.39365 0.0
C2084 C 0.17082 0.81849 0.41539 0.0
C2085 C 0.16192 0.778 0.39437 0.0
C2086 C 0.16737 0.84156 0.41724 0.0
C2087 C 0.15333 0.84939 0.39969 0.0
C2088 C 0.15977 0.80293 0.39608 0.0
C2089 C 0.14308 0.83343 0.38035 0.0
C2090 C 0.14452 0.76138 0.38137 0.0
C2091 C 0.18279 0.74818 0.40585 0.0
N2092 N 0.14627 0.81089 0.37918 0.0
N2093 N 0.18052 0.77089 0.40616 0.0
H2094 H 0.31062 0.11112 0.35033 0.0
H2095 H 0.21374 0.18943 0.37114 0.0
H2096 H 0.32644 0.18247 0.38136 0.0
H2097 H 0.20119 0.12795 0.32097 0.0
H2098 H 0.25503 0.18723 0.37518 0.0
H2099 H 0.27039 0.11638 0.34029 0.0
C2100 C 0.30562 0.12788 0.35516 0.0
C2101 C 0.32192 0.14635 0.36693 0.0
C2102 C 0.24336 0.1744 0.363 0.0
C2103 C 0.27585 0.15247 0.35529 0.0
C2104 C 0.21982 0.17567 0.36065 0.0
C2105 C 0.20415 0.15883 0.34569 0.0
C2106 C 0.2513 0.15583 0.3507 0.0
C2107 C 0.2128 0.14134 0.33254 0.0
C2108 C 0.28268 0.1309 0.3492 0.0
C2109 C 0.31447 0.16773 0.37243 0.0
N2110 N 0.23585 0.14005 0.33563 0.0
N2111 N 0.29194 0.17015 0.36673 0.0
H2112 H 0.59298 0.91209 0.69261 0.0
H2113 H 0.64402 0.88019 0.81359 0.0
H2114 H 0.62825 0.85305 0.69904 0.0
H2115 H 0.58095 0.91012 0.80614 0.0
H2116 H 0.64346 0.87632 0.77183 0.0
H2117 H 0.59336 0.91786 0.73478 0.0
C2118 C 0.60097 0.90052 0.70291 0.0
C2119 C 0.61058 0.88206 0.69242 0.0
C2120 C 0.62974 0.88373 0.77934 0.0
C2121 C 0.61123 0.88864 0.74023 0.0
C2122 C 0.63006 0.88601 0.80314 0.0
C2123 C 0.61244 0.89542 0.81329 0.0
C2124 C 0.61192 0.89131 0.76555 0.0
C2125 C 0.59475 0.90261 0.79892 0.0
C2126 C 0.60101 0.9037 0.72684 0.0
C2127 C 0.62056 0.86742 0.70645 0.0
N2128 N 0.595 0.90056 0.77569 0.0
N2129 N 0.62076 0.87112 0.72964 0.0
H2130 H 0.15707 0.59928 0.81485 0.0
H2131 H 0.10046 0.64724 0.7058 0.0
H2132 H 0.1326 0.66524 0.82142 0.0
H2133 H 0.16144 0.61452 0.70195 0.0
H2134 H 0.10651 0.64862 0.74791 0.0
H2135 H 0.15348 0.59897 0.7727 0.0
C2136 C 0.15094 0.61364 0.80743 0.0
C2137 C 0.1452 0.63235 0.82161 0.0
C2138 C 0.1186 0.64124 0.73782 0.0
C2139 C 0.14063 0.63184 0.77371 0.0
C2140 C 0.11516 0.64041 0.71385 0.0
C2141 C 0.13057 0.6309 0.70044 0.0
C2142 C 0.13718 0.63184 0.74839 0.0
C2143 C 0.14931 0.62222 0.71173 0.0
C2144 C 0.14902 0.6135 0.78348 0.0
C2145 C 0.13737 0.65055 0.81114 0.0
N2146 N 0.15195 0.62262 0.73507 0.0
N2147 N 0.13505 0.64972 0.78782 0.0
H2148 H 0.37519 0.0957 0.80773 0.0
H2149 H 0.41426 0.14186 0.696 0.0
H2150 H 0.43587 0.14586 0.81173 0.0
H2151 H 0.37279 0.07565 0.6928 0.0
H2152 H 0.42115 0.1449 0.73811 0.0
H2153 H 0.37284 0.08928 0.76575 0.0
C2154 C 0.38814 0.10532 0.79977 0.0
C2155 C 0.40573 0.12144 0.81334 0.0
C2156 C 0.4107 0.12963 0.72821 0.0
C2157 C 0.40289 0.11432 0.76495 0.0
C2158 C 0.40663 0.12789 0.70413 0.0
C2159 C 0.39278 0.10849 0.69074 0.0
C2160 C 0.40052 0.11205 0.73921 0.0
C2161 C 0.38356 0.0909 0.70235 0.0
C2162 C 0.38681 0.10155 0.77575 0.0
C2163 C 0.42208 0.13323 0.80199 0.0
N2164 N 0.38735 0.09323 0.72589 0.0
N2165 N 0.42008 0.12968 0.77843 0.0
H2166 H 0.877 0.36891 0.69126 0.0
H2167 H 0.92899 0.43163 0.81915 0.0
H2168 H 0.9472 0.40332 0.70804 0.0
H2169 H 0.86949 0.37898 0.80336 0.0
H2170 H 0.93348 0.42707 0.77781 0.0
H2171 H 0.87193 0.37733 0.73167 0.0
C2172 C 0.89144 0.37815 0.70347 0.0
C2173 C 0.91263 0.38525 0.69617 0.0
C2174 C 0.91928 0.41678 0.78342 0.0
C2175 C 0.90676 0.39536 0.74276 0.0
C2176 C 0.91653 0.41962 0.80691 0.0
C2177 C 0.89873 0.40579 0.8146 0.0
C2178 C 0.90392 0.40023 0.76761 0.0
C2179 C 0.88338 0.39006 0.79812 0.0
C2180 C 0.8885 0.38301 0.7266 0.0
C2181 C 0.93064 0.39728 0.7129 0.0
N2182 N 0.88633 0.38771 0.77552 0.0
N2183 N 0.92728 0.40206 0.73541 0.0
H2184 H 0.66358 0.17053 0.29849 0.0
H2185 H 0.63331 0.10027 0.17383 0.0
H2186 H 0.63232 0.09919 0.28715 0.0
H2187 H 0.68626 0.15954 0.19016 0.0
H2188 H 0.63286 0.09905 0.21497 0.0
H2189 H 0.6717 0.16685 0.25889 0.0
C2190 C 0.65829 0.15406 0.28759 0.0
C2191 C 0.64685 0.1352 0.296 0.0
C2192 C 0.64485 0.11211 0.20963 0.0
C2193 C 0.6563 0.13092 0.25053 0.0
C2194 C 0.64508 0.11288 0.18619 0.0
C2195 C 0.6597 0.1302 0.17872 0.0
C2196 C 0.65897 0.12911 0.22577 0.0
C2197 C 0.67474 0.14596 0.1953 0.0
C2198 C 0.66321 0.15194 0.26504 0.0
C2199 C 0.64095 0.11419 0.28126 0.0
N2200 N 0.67369 0.14531 0.21815 0.0
N2201 N 0.64546 0.11268 0.25907 0.0
H2202 H 0.87683 0.66251 0.31796 0.0
H2203 H 0.8408 0.59324 0.19211 0.0
H2204 H 0.81463 0.61332 0.29998 0.0
H2205 H 0.88335 0.65979 0.20485 0.0
H2206 H 0.83272 0.59867 0.23193 0.0
H2207 H 0.88096 0.66056 0.2771 0.0
C2208 C 0.86391 0.65142 0.30535 0.0
C2209 C 0.84538 0.63798 0.31237 0.0
C2210 C 0.84372 0.61213 0.22599 0.0
C2211 C 0.85028 0.63539 0.26552 0.0
C2212 C 0.84852 0.60899 0.2033 0.0
C2213 C 0.86294 0.62604 0.19516 0.0
C2214 C 0.85373 0.63229 0.24085 0.0
C2215 C 0.8722 0.64619 0.2104 0.0
C2216 C 0.86627 0.65037 0.28203 0.0
C2217 C 0.82911 0.62402 0.29529 0.0
N2218 N 0.86763 0.64866 0.23259 0.0
N2219 N 0.83212 0.62281 0.27264 0.0
H2220 H 0.43212 0.85048 0.234 0.0
H2221 H 0.39054 0.92745 0.33838 0.0
H2222 H 0.39157 0.90527 0.22494 0.0
H2223 H 0.40584 0.85857 0.34324 0.0
H2224 H 0.39715 0.92269 0.2981 0.0
H2225 H 0.42973 0.85677 0.27578 0.0
C2226 C 0.42327 0.8642 0.24092 0.0
C2227 C 0.41214 0.87749 0.22616 0.0
C2228 C 0.39901 0.90858 0.30795 0.0
C2229 C 0.40911 0.88458 0.27346 0.0
C2230 C 0.39517 0.91126 0.33094 0.0
C2231 C 0.39742 0.89331 0.34418 0.0
C2232 C 0.40551 0.88792 0.29809 0.0
C2233 C 0.40363 0.87276 0.3336 0.0
C2234 C 0.42164 0.86757 0.26462 0.0
C2235 C 0.40044 0.89471 0.23581 0.0
N2236 N 0.40758 0.87065 0.31119 0.0
N2237 N 0.39924 0.89776 0.2588 0.0
H2238 H 0.19343 0.43478 0.32698 0.0
H2239 H 0.12015 0.4003 0.20252 0.0
H2240 H 0.11994 0.41226 0.31615 0.0
H2241 H 0.18702 0.44206 0.2133 0.0
H2242 H 0.11994 0.40474 0.24412 0.0
H2243 H 0.19189 0.4375 0.2858 0.0
C2244 C 0.17693 0.43045 0.31596 0.0
C2245 C 0.15678 0.42307 0.32506 0.0
C2246 C 0.13457 0.4132 0.23749 0.0
C2247 C 0.15498 0.42614 0.27779 0.0
C2248 C 0.13473 0.41066 0.21373 0.0
C2249 C 0.15369 0.42076 0.20449 0.0
C2250 C 0.15375 0.42558 0.25235 0.0
C2251 C 0.17204 0.43408 0.21975 0.0
C2252 C 0.17608 0.43216 0.29246 0.0
C2253 C 0.13591 0.41794 0.30994 0.0
N2254 N 0.17179 0.43582 0.24302 0.0
N2255 N 0.1356 0.41934 0.28704 0.0
H2256 H 0.71536 0.67866 0.87589 0.0
H2257 H 0.83862 0.65459 0.92493 0.0
H2258 H 0.72944 0.65737 0.943 0.0
H2259 H 0.8303 0.70398 0.8777 0.0
H2260 H 0.79842 0.65437 0.93106 0.0
H2261 H 0.75692 0.68687 0.87498 0.0
C2262 C 0.7272 0.67576 0.89047 0.0
C2263 C 0.71895 0.66709 0.90948 0.0
C2264 C 0.80542 0.66554 0.91963 0.0
C2265 C 0.76644 0.67638 0.90844 0.0
C2266 C 0.82831 0.66564 0.91609 0.0
C2267 C 0.83763 0.67932 0.90079 0.0
C2268 C 0.79154 0.67873 0.90727 0.0
C2269 C 0.82368 0.69332 0.88973 0.0
C2270 C 0.75089 0.68063 0.88999 0.0
C2271 C 0.73506 0.66394 0.92798 0.0
N2272 N 0.8011 0.69237 0.89286 0.0
N2273 N 0.75805 0.66828 0.92686 0.0
H2274 H 0.70826 0.38707 0.09212 0.0
H2275 H 0.82994 0.44102 0.16824 0.0
H2276 H 0.7135 0.41406 0.16435 0.0
H2277 H 0.82169 0.39566 0.10366 0.0
H2278 H 0.78745 0.43766 0.16548 0.0
H2279 H 0.74993 0.39623 0.09456 0.0
C2280 C 0.71816 0.39495 0.10854 0.0
C2281 C 0.70726 0.3996 0.1281 0.0
C2282 C 0.79504 0.42869 0.15183 0.0
C2283 C 0.75538 0.41034 0.13099 0.0
C2284 C 0.81922 0.43081 0.1533 0.0
C2285 C 0.82926 0.4186 0.13614 0.0
C2286 C 0.78104 0.41458 0.13292 0.0
C2287 C 0.81464 0.4053 0.1173 0.0
C2288 C 0.74204 0.4002 0.10992 0.0
C2289 C 0.72116 0.40998 0.14887 0.0
N2290 N 0.79139 0.40365 0.11622 0.0
N2291 N 0.74452 0.41499 0.14979 0.0
H2292 H 0.64967 0.69489 0.12409 0.0
H2293 H 0.59401 0.80168 0.08821 0.0
H2294 H 0.60428 0.69032 0.05992 0.0
H2295 H 0.66097 0.8109 0.12968 0.0
H2296 H 0.59598 0.76051 0.07942 0.0
H2297 H 0.65299 0.73699 0.12823 0.0
C2298 C 0.64056 0.70277 0.11076 0.0
C2299 C 0.62657 0.68908 0.09167 0.0
C2300 C 0.61034 0.77154 0.09028 0.0
C2301 C 0.63002 0.73722 0.09654 0.0
C2302 C 0.60918 0.79502 0.09544 0.0
C2303 C 0.62731 0.8097 0.10983 0.0
C2304 C 0.62953 0.76248 0.09999 0.0
C2305 C 0.64664 0.80017 0.11851 0.0
C2306 C 0.64255 0.72679 0.11311 0.0
C2307 C 0.61526 0.70021 0.07487 0.0
N2308 N 0.6471 0.77706 0.11375 0.0
N2309 N 0.61693 0.72362 0.07788 0.0
H2310 H 0.18394 0.54985 0.15118 0.0
H2311 H 0.29678 0.59767 0.09997 0.0
H2312 H 0.18527 0.60337 0.10771 0.0
H2313 H 0.30058 0.57805 0.16824 0.0
H2314 H 0.25452 0.59005 0.09604 0.0
H2315 H 0.22582 0.55053 0.15108 0.0
C2316 C 0.19299 0.56144 0.14136 0.0
C2317 C 0.1813 0.57671 0.12959 0.0
C2318 C 0.26468 0.5872 0.11176 0.0
C2319 C 0.22865 0.57728 0.12908 0.0
C2320 C 0.28874 0.59145 0.11398 0.0
C2321 C 0.30215 0.58869 0.13454 0.0
C2322 C 0.25402 0.57967 0.13002 0.0
C2323 C 0.29083 0.58064 0.1522 0.0
C2324 C 0.21678 0.5619 0.1414 0.0
C2325 C 0.19375 0.5915 0.1172 0.0
N2326 N 0.26739 0.57639 0.14954 0.0
N2327 N 0.21673 0.59139 0.11721 0.0
H2328 H 0.43708 0.18638 0.17968 0.0
H2329 H 0.36398 0.28951 0.1588 0.0
H2330 H 0.37558 0.18244 0.13047 0.0
H2331 H 0.4281 0.30153 0.2052 0.0
H2332 H 0.36714 0.24877 0.15212 0.0
H2333 H 0.43449 0.22752 0.19181 0.0
C2334 C 0.42322 0.19413 0.17132 0.0
C2335 C 0.40647 0.18084 0.15409 0.0
C2336 C 0.38054 0.26009 0.16397 0.0
C2337 C 0.40322 0.22745 0.16804 0.0
C2338 C 0.37859 0.28338 0.16792 0.0
C2339 C 0.39574 0.29882 0.1826 0.0
C2340 C 0.40007 0.25196 0.17443 0.0
C2341 C 0.41439 0.29003 0.19392 0.0
C2342 C 0.42166 0.21751 0.17836 0.0
C2343 C 0.38881 0.19175 0.14396 0.0
N2344 N 0.41625 0.26711 0.18939 0.0
N2345 N 0.38768 0.21419 0.1511 0.0
H2346 H 0.32135 0.35594 0.87584 0.0
H2347 H 0.2156 0.4241 0.84744 0.0
H2348 H 0.3286 0.4111 0.83474 0.0
H2349 H 0.22649 0.38724 0.90556 0.0
H2350 H 0.25476 0.41893 0.83897 0.0
H2351 H 0.28278 0.36387 0.881 0.0
C2352 C 0.31449 0.36941 0.86741 0.0
C2353 C 0.32802 0.38281 0.85479 0.0
C2354 C 0.24865 0.41243 0.85382 0.0
C2355 C 0.28411 0.39273 0.86137 0.0
C2356 C 0.22652 0.41567 0.85885 0.0
C2357 C 0.21794 0.4061 0.87726 0.0
C2358 C 0.26186 0.39936 0.86719 0.0
C2359 C 0.23247 0.39484 0.89119 0.0
C2360 C 0.2926 0.37419 0.87063 0.0
C2361 C 0.31846 0.40021 0.84435 0.0
N2362 N 0.25353 0.39157 0.88572 0.0
N2363 N 0.29702 0.40489 0.84806 0.0
H2364 H 0.71014 0.23187 0.87353 0.0
H2365 H 0.63423 0.31501 0.80867 0.0
H2366 H 0.64303 0.20963 0.83322 0.0
H2367 H 0.6907 0.33968 0.86347 0.0
H2368 H 0.6428 0.27543 0.8103 0.0
H2369 H 0.70848 0.27094 0.86332 0.0
C2370 C 0.69522 0.23516 0.86244 0.0
C2371 C 0.67649 0.21768 0.85468 0.0
C2372 C 0.65355 0.2896 0.82168 0.0
C2373 C 0.6746 0.26187 0.8426 0.0
C2374 C 0.64875 0.31212 0.82058 0.0
C2375 C 0.66166 0.33044 0.83607 0.0
C2376 C 0.67145 0.28559 0.83826 0.0
C2377 C 0.6802 0.32587 0.85138 0.0
C2378 C 0.69424 0.25737 0.8566 0.0
C2379 C 0.65762 0.22276 0.84011 0.0
N2380 N 0.68444 0.30392 0.85223 0.0
N2381 N 0.65712 0.24433 0.83464 0.0
H2382 H 0.44023 0.71343 0.92496 0.0
H2383 H 0.3902 0.81122 0.86509 0.0
H2384 H 0.39849 0.699 0.85798 0.0
H2385 H 0.45113 0.82567 0.91603 0.0
H2386 H 0.39416 0.7703 0.86081 0.0
H2387 H 0.44575 0.75438 0.92119 0.0
C2388 C 0.43242 0.71888 0.90931 0.0
C2389 C 0.41867 0.70282 0.89184 0.0
C2390 C 0.40697 0.7824 0.87259 0.0
C2391 C 0.4247 0.74981 0.88756 0.0
C2392 C 0.40472 0.80576 0.87504 0.0
C2393 C 0.42034 0.82177 0.89099 0.0
C2394 C 0.42462 0.77485 0.88665 0.0
C2395 C 0.43881 0.81386 0.90347 0.0
C2396 C 0.43569 0.74227 0.90713 0.0
C2397 C 0.40917 0.71082 0.87187 0.0
N2398 N 0.44018 0.79084 0.9014 0.0
N2399 N 0.412 0.73383 0.87045 0.0
loop_
_geom_bond_atom_site_label_1
_geom_bond_atom_site_label_2
_geom_bond_distance
_geom_bond_site_symmetry_2
_ccdc_geom_bond_type
C0 O2 1.247 . S
C0 O4 1.258 . S
C1 O8 1.247 . S
C1 O9 1.258 . S
O2 C0 1.247 . S
O2 Zn3 2.028 . S
Zn3 O2 2.028 . S
Zn3 O7 2.035 . S
Zn3 O9 2.035 . S
Zn3 O10 2.028 . S
O4 C0 1.258 . S
O4 Zn5 2.035 . S
Zn5 O4 2.035 . S
Zn5 O6 2.028 . S
Zn5 O8 2.028 . S
Zn5 O11 2.035 . S
O6 Zn5 2.028 . S
O6 C12 1.247 . S
O7 Zn3 2.035 . S
O7 C12 1.258 . S
O8 C1 1.247 . S
O8 Zn5 2.028 . S
O9 C1 1.258 . S
O9 Zn3 2.035 . S
O10 Zn3 2.028 . S
O10 C13 1.247 . S
O11 Zn5 2.035 . S
O11 C13 1.258 . S
C12 O6 1.247 . S
C12 O7 1.258 . S
C13 O10 1.247 . S
C13 O11 1.258 . S
C14 O16 1.247 . S
C14 O18 1.258 . S
C15 O22 1.247 . S
C15 O23 1.258 . S
O16 C14 1.247 . S
O16 Zn17 2.028 . S
Zn17 O16 2.028 . S
Zn17 O21 2.035 . S
Zn17 O23 2.035 . S
Zn17 O24 2.028 . S
O18 C14 1.258 . S
O18 Zn19 2.035 . S
Zn19 O18 2.035 . S
Zn19 O20 2.028 . S
Zn19 O22 2.028 . S
Zn19 O25 2.035 . S
O20 Zn19 2.028 . S
O20 C26 1.247 . S
O21 Zn17 2.035 . S
O21 C26 1.258 . S
O22 C15 1.247 . S
O22 Zn19 2.028 . S
O23 C15 1.258 . S
O23 Zn17 2.035 . S
O24 Zn17 2.028 . S
O24 C27 1.247 . S
O25 Zn19 2.035 . S
O25 C27 1.258 . S
C26 O20 1.247 . S
C26 O21 1.258 . S
C27 O24 1.247 . S
C27 O25 1.258 . S
C28 O30 1.247 . S
C28 O32 1.258 . S
C29 O36 1.247 . S
C29 O37 1.258 . S
O30 C28 1.247 . S
O30 Zn31 2.028 . S
Zn31 O30 2.028 . S
Zn31 O35 2.035 . S
Zn31 O37 2.035 . S
Zn31 O38 2.028 . S
O32 C28 1.258 . S
O32 Zn33 2.035 . S
Zn33 O32 2.035 . S
Zn33 O34 2.028 . S
Zn33 O36 2.028 . S
Zn33 O39 2.035 . S
O34 Zn33 2.028 . S
O34 C40 1.247 . S
O35 Zn31 2.035 . S
O35 C40 1.258 . S
O36 C29 1.247 . S
O36 Zn33 2.028 . S
O37 C29 1.258 . S
O37 Zn31 2.035 . S
O38 Zn31 2.028 . S
O38 C41 1.247 . S
O39 Zn33 2.035 . S
O39 C41 1.258 . S
C40 O34 1.247 . S
C40 O35 1.258 . S
C41 O38 1.247 . S
C41 O39 1.258 . S
C42 O44 1.247 . S
C42 O46 1.258 . S
C43 O50 1.247 . S
C43 O51 1.258 . S
O44 C42 1.247 . S
O44 Zn45 2.028 . S
Zn45 O44 2.028 . S
Zn45 O49 2.035 . S
Zn45 O51 2.035 . S
Zn45 O52 2.028 . S
O46 C42 1.258 . S
O46 Zn47 2.035 . S
Zn47 O46 2.035 . S
Zn47 O48 2.028 . S
Zn47 O50 2.028 . S
Zn47 O53 2.035 . S
O48 Zn47 2.028 . S
O48 C54 1.247 . S
O49 Zn45 2.035 . S
O49 C54 1.258 . S
O50 C43 1.247 . S
O50 Zn47 2.028 . S
O51 C43 1.258 . S
O51 Zn45 2.035 . S
O52 Zn45 2.028 . S
O52 C55 1.247 . S
O53 Zn47 2.035 . S
O53 C55 1.258 . S
C54 O48 1.247 . S
C54 O49 1.258 . S
C55 O52 1.247 . S
C55 O53 1.258 . S
C56 O58 1.247 . S
C56 O60 1.258 . S
C57 O64 1.247 . S
C57 O65 1.258 . S
O58 C56 1.247 . S
O58 Zn59 2.028 . S
Zn59 O58 2.028 . S
Zn59 O63 2.035 . S
Zn59 O65 2.035 . S
Zn59 O66 2.028 . S
O60 C56 1.258 . S
O60 Zn61 2.035 . S
Zn61 O60 2.035 . S
Zn61 O62 2.028 . S
Zn61 O64 2.028 . S
Zn61 O67 2.035 . S
O62 Zn61 2.028 . S
O62 C68 1.247 . S
O63 Zn59 2.035 . S
O63 C68 1.258 . S
O64 C57 1.247 . S
O64 Zn61 2.028 . S
O65 C57 1.258 . S
O65 Zn59 2.035 . S
O66 Zn59 2.028 . S
O66 C69 1.247 . S
O67 Zn61 2.035 . S
O67 C69 1.258 . S
C68 O62 1.247 . S
C68 O63 1.258 . S
C69 O66 1.247 . S
C69 O67 1.258 . S
C70 O72 1.247 . S
C70 O74 1.258 . S
C71 O78 1.247 . S
C71 O79 1.258 . S
O72 C70 1.247 . S
O72 Zn73 2.028 . S
Zn73 O72 2.028 . S
Zn73 O77 2.035 . S
Zn73 O79 2.035 . S
Zn73 O80 2.028 . S
O74 C70 1.258 . S
O74 Zn75 2.035 . S
Zn75 O74 2.035 . S
Zn75 O76 2.028 . S
Zn75 O78 2.028 . S
Zn75 O81 2.035 . S
O76 Zn75 2.028 . S
O76 C82 1.247 . S
O77 Zn73 2.035 . S
O77 C82 1.258 . S
O78 C71 1.247 . S
O78 Zn75 2.028 . S
O79 C71 1.258 . S
O79 Zn73 2.035 . S
O80 Zn73 2.028 . S
O80 C83 1.247 . S
O81 Zn75 2.035 . S
O81 C83 1.258 . S
C82 O76 1.247 . S
C82 O77 1.258 . S
C83 O80 1.247 . S
C83 O81 1.258 . S
C84 O86 1.247 . S
C84 O88 1.258 . S
C85 O92 1.247 . S
C85 O93 1.258 . S
O86 C84 1.247 . S
O86 Zn87 2.028 . S
Zn87 O86 2.028 . S
Zn87 O91 2.035 . S
Zn87 O93 2.035 . S
Zn87 O94 2.028 . S
O88 C84 1.258 . S
O88 Zn89 2.035 . S
Zn89 O88 2.035 . S
Zn89 O90 2.028 . S
Zn89 O92 2.028 . S
Zn89 O95 2.035 . S
O90 Zn89 2.028 . S
O90 C96 1.247 . S
O91 Zn87 2.035 . S
O91 C96 1.258 . S
O92 C85 1.247 . S
O92 Zn89 2.028 . S
O93 C85 1.258 . S
O93 Zn87 2.035 . S
O94 Zn87 2.028 . S
O94 C97 1.247 . S
O95 Zn89 2.035 . S
O95 C97 1.258 . S
C96 O90 1.247 . S
C96 O91 1.258 . S
C97 O94 1.247 . S
C97 O95 1.258 . S
C98 O100 1.247 . S
C98 O102 1.258 . S
C99 O106 1.247 . S
C99 O107 1.258 . S
O100 C98 1.247 . S
O100 Zn101 2.028 . S
Zn101 O100 2.028 . S
Zn101 O105 2.035 . S
Zn101 O107 2.035 . S
Zn101 O108 2.028 . S
O102 C98 1.258 . S
O102 Zn103 2.035 . S
Zn103 O102 2.035 . S
Zn103 O104 2.028 . S
Zn103 O106 2.028 . S
Zn103 O109 2.035 . S
O104 Zn103 2.028 . S
O104 C110 1.247 . S
O105 Zn101 2.035 . S
O105 C110 1.258 . S
O106 C99 1.247 . S
O106 Zn103 2.028 . S
O107 C99 1.258 . S
O107 Zn101 2.035 . S
O108 Zn101 2.028 . S
O108 C111 1.247 . S
O109 Zn103 2.035 . S
O109 C111 1.258 . S
C110 O104 1.247 . S
C110 O105 1.258 . S
C111 O108 1.247 . S
C111 O109 1.258 . S
C112 O114 1.247 . S
C112 O116 1.258 . S
C113 O120 1.247 . S
C113 O121 1.258 . S
O114 C112 1.247 . S
O114 Zn115 2.028 . S
Zn115 O114 2.028 . S
Zn115 O119 2.035 . S
Zn115 O121 2.035 . S
Zn115 O122 2.028 . S
O116 C112 1.258 . S
O116 Zn117 2.035 . S
Zn117 O116 2.035 . S
Zn117 O118 2.028 . S
Zn117 O120 2.028 . S
Zn117 O123 2.035 . S
O118 Zn117 2.028 . S
O118 C124 1.247 . S
O119 Zn115 2.035 . S
O119 C124 1.258 . S
O120 C113 1.247 . S
O120 Zn117 2.028 . S
O121 C113 1.258 . S
O121 Zn115 2.035 . S
O122 Zn115 2.028 . S
O122 C125 1.247 . S
O123 Zn117 2.035 . S
O123 C125 1.258 . S
C124 O118 1.247 . S
C124 O119 1.258 . S
C125 O122 1.247 . S
C125 O123 1.258 . S
C126 O128 1.247 . S
C126 O130 1.258 . S
C127 O134 1.247 . S
C127 O135 1.258 . S
O128 C126 1.247 . S
O128 Zn129 2.028 . S
Zn129 O128 2.028 . S
Zn129 O133 2.035 . S
Zn129 O135 2.035 . S
Zn129 O136 2.028 . S
O130 C126 1.258 . S
O130 Zn131 2.035 . S
Zn131 O130 2.035 . S
Zn131 O132 2.028 . S
Zn131 O134 2.028 . S
Zn131 O137 2.035 . S
O132 Zn131 2.028 . S
O132 C138 1.247 . S
O133 Zn129 2.035 . S
O133 C138 1.258 . S
O134 C127 1.247 . S
O134 Zn131 2.028 . S
O135 C127 1.258 . S
O135 Zn129 2.035 . S
O136 Zn129 2.028 . S
O136 C139 1.247 . S
O137 Zn131 2.035 . S
O137 C139 1.258 . S
C138 O132 1.247 . S
C138 O133 1.258 . S
C139 O136 1.247 . S
C139 O137 1.258 . S
C140 O142 1.247 . S
C140 O144 1.258 . S
C141 O148 1.247 . S
C141 O149 1.258 . S
O142 C140 1.247 . S
O142 Zn143 2.028 . S
Zn143 O142 2.028 . S
Zn143 O147 2.035 . S
Zn143 O149 2.035 . S
Zn143 O150 2.028 . S
O144 C140 1.258 . S
O144 Zn145 2.035 . S
Zn145 O144 2.035 . S
Zn145 O146 2.028 . S
Zn145 O148 2.028 . S
Zn145 O151 2.035 . S
O146 Zn145 2.028 . S
O146 C152 1.247 . S
O147 Zn143 2.035 . S
O147 C152 1.258 . S
O148 C141 1.247 . S
O148 Zn145 2.028 . S
O149 C141 1.258 . S
O149 Zn143 2.035 . S
O150 Zn143 2.028 . S
O150 C153 1.247 . S
O151 Zn145 2.035 . S
O151 C153 1.258 . S
C152 O146 1.247 . S
C152 O147 1.258 . S
C153 O150 1.247 . S
C153 O151 1.258 . S
C154 O156 1.247 . S
C154 O158 1.258 . S
C155 O162 1.247 . S
C155 O163 1.258 . S
O156 C154 1.247 . S
O156 Zn157 2.028 . S
Zn157 O156 2.028 . S
Zn157 O161 2.035 . S
Zn157 O163 2.035 . S
Zn157 O164 2.028 . S
O158 C154 1.258 . S
O158 Zn159 2.035 . S
Zn159 O158 2.035 . S
Zn159 O160 2.028 . S
Zn159 O162 2.028 . S
Zn159 O165 2.035 . S
O160 Zn159 2.028 . S
O160 C166 1.247 . S
O161 Zn157 2.035 . S
O161 C166 1.258 . S
O162 C155 1.247 . S
O162 Zn159 2.028 . S
O163 C155 1.258 . S
O163 Zn157 2.035 . S
O164 Zn157 2.028 . S
O164 C167 1.247 . S
O165 Zn159 2.035 . S
O165 C167 1.258 . S
C166 O160 1.247 . S
C166 O161 1.258 . S
C167 O164 1.247 . S
C167 O165 1.258 . S
C168 O170 1.247 . S
C168 O172 1.258 . S
C169 O176 1.247 . S
C169 O177 1.258 . S
O170 C168 1.247 . S
O170 Zn171 2.028 . S
Zn171 O170 2.028 . S
Zn171 O175 2.035 . S
Zn171 O177 2.035 . S
Zn171 O178 2.028 . S
O172 C168 1.258 . S
O172 Zn173 2.035 . S
Zn173 O172 2.035 . S
Zn173 O174 2.028 . S
Zn173 O176 2.028 . S
Zn173 O179 2.035 . S
O174 Zn173 2.028 . S
O174 C180 1.247 . S
O175 Zn171 2.035 . S
O175 C180 1.258 . S
O176 C169 1.247 . S
O176 Zn173 2.028 . S
O177 C169 1.258 . S
O177 Zn171 2.035 . S
O178 Zn171 2.028 . S
O178 C181 1.247 . S
O179 Zn173 2.035 . S
O179 C181 1.258 . S
C180 O174 1.247 . S
C180 O175 1.258 . S
C181 O178 1.247 . S
C181 O179 1.258 . S
C182 O184 1.247 . S
C182 O186 1.258 . S
C183 O190 1.247 . S
C183 O191 1.258 . S
O184 C182 1.247 . S
O184 Zn185 2.028 . S
Zn185 O184 2.028 . S
Zn185 O189 2.035 . S
Zn185 O191 2.035 . S
Zn185 O192 2.028 . S
O186 C182 1.258 . S
O186 Zn187 2.035 . S
Zn187 O186 2.035 . S
Zn187 O188 2.028 . S
Zn187 O190 2.028 . S
Zn187 O193 2.035 . S
O188 Zn187 2.028 . S
O188 C194 1.247 . S
O189 Zn185 2.035 . S
O189 C194 1.258 . S
O190 C183 1.247 . S
O190 Zn187 2.028 . S
O191 C183 1.258 . S
O191 Zn185 2.035 . S
O192 Zn185 2.028 . S
O192 C195 1.247 . S
O193 Zn187 2.035 . S
O193 C195 1.258 . S
C194 O188 1.247 . S
C194 O189 1.258 . S
C195 O192 1.247 . S
C195 O193 1.258 . S
C196 O198 1.247 . S
C196 O200 1.258 . S
C197 O204 1.247 . S
C197 O205 1.258 . S
O198 C196 1.247 . S
O198 Zn199 2.028 . S
Zn199 O198 2.028 . S
Zn199 O203 2.035 . S
Zn199 O205 2.035 . S
Zn199 O206 2.028 . S
O200 C196 1.258 . S
O200 Zn201 2.035 . S
Zn201 O200 2.035 . S
Zn201 O202 2.028 . S
Zn201 O204 2.028 . S
Zn201 O207 2.035 . S
O202 Zn201 2.028 . S
O202 C208 1.247 . S
O203 Zn199 2.035 . S
O203 C208 1.258 . S
O204 C197 1.247 . S
O204 Zn201 2.028 . S
O205 C197 1.258 . S
O205 Zn199 2.035 . S
O206 Zn199 2.028 . S
O206 C209 1.247 . S
O207 Zn201 2.035 . S
O207 C209 1.258 . S
C208 O202 1.247 . S
C208 O203 1.258 . S
C209 O206 1.247 . S
C209 O207 1.258 . S
C210 O212 1.247 . S
C210 O214 1.258 . S
C211 O218 1.247 . S
C211 O219 1.258 . S
O212 C210 1.247 . S
O212 Zn213 2.028 . S
Zn213 O212 2.028 . S
Zn213 O217 2.035 . S
Zn213 O219 2.035 . S
Zn213 O220 2.028 . S
O214 C210 1.258 . S
O214 Zn215 2.035 . S
Zn215 O214 2.035 . S
Zn215 O216 2.028 . S
Zn215 O218 2.028 . S
Zn215 O221 2.035 . S
O216 Zn215 2.028 . S
O216 C222 1.247 . S
O217 Zn213 2.035 . S
O217 C222 1.258 . S
O218 C211 1.247 . S
O218 Zn215 2.028 . S
O219 C211 1.258 . S
O219 Zn213 2.035 . S
O220 Zn213 2.028 . S
O220 C223 1.247 . S
O221 Zn215 2.035 . S
O221 C223 1.258 . S
C222 O216 1.247 . S
C222 O217 1.258 . S
C223 O220 1.247 . S
C223 O221 1.258 . S
C224 O226 1.247 . S
C224 O228 1.258 . S
C225 O232 1.247 . S
C225 O233 1.258 . S
O226 C224 1.247 . S
O226 Zn227 2.028 . S
Zn227 O226 2.028 . S
Zn227 O231 2.035 . S
Zn227 O233 2.035 . S
Zn227 O234 2.028 . S
O228 C224 1.258 . S
O228 Zn229 2.035 . S
Zn229 O228 2.035 . S
Zn229 O230 2.028 . S
Zn229 O232 2.028 . S
Zn229 O235 2.035 . S
O230 Zn229 2.028 . S
O230 C236 1.247 . S
O231 Zn227 2.035 . S
O231 C236 1.258 . S
O232 C225 1.247 . S
O232 Zn229 2.028 . S
O233 C225 1.258 . S
O233 Zn227 2.035 . S
O234 Zn227 2.028 . S
O234 C237 1.247 . S
O235 Zn229 2.035 . S
O235 C237 1.258 . S
C236 O230 1.247 . S
C236 O231 1.258 . S
C237 O234 1.247 . S
C237 O235 1.258 . S
C238 O240 1.247 . S
C238 O242 1.258 . S
C239 O246 1.247 . S
C239 O247 1.258 . S
O240 C238 1.247 . S
O240 Zn241 2.028 . S
Zn241 O240 2.028 . S
Zn241 O245 2.035 . S
Zn241 O247 2.035 . S
Zn241 O248 2.028 . S
O242 C238 1.258 . S
O242 Zn243 2.035 . S
Zn243 O242 2.035 . S
Zn243 O244 2.028 . S
Zn243 O246 2.028 . S
Zn243 O249 2.035 . S
O244 Zn243 2.028 . S
O244 C250 1.247 . S
O245 Zn241 2.035 . S
O245 C250 1.258 . S
O246 C239 1.247 . S
O246 Zn243 2.028 . S
O247 C239 1.258 . S
O247 Zn241 2.035 . S
O248 Zn241 2.028 . S
O248 C251 1.247 . S
O249 Zn243 2.035 . S
O249 C251 1.258 . S
C250 O244 1.247 . S
C250 O245 1.258 . S
C251 O248 1.247 . S
C251 O249 1.258 . S
C252 O254 1.247 . S
C252 O256 1.258 . S
C253 O260 1.247 . S
C253 O261 1.258 . S
O254 C252 1.247 . S
O254 Zn255 2.028 . S
Zn255 O254 2.028 . S
Zn255 O259 2.035 . S
Zn255 O261 2.035 . S
Zn255 O262 2.028 . S
O256 C252 1.258 . S
O256 Zn257 2.035 . S
Zn257 O256 2.035 . S
Zn257 O258 2.028 . S
Zn257 O260 2.028 . S
Zn257 O263 2.035 . S
O258 Zn257 2.028 . S
O258 C264 1.247 . S
O259 Zn255 2.035 . S
O259 C264 1.258 . S
O260 C253 1.247 . S
O260 Zn257 2.028 . S
O261 C253 1.258 . S
O261 Zn255 2.035 . S
O262 Zn255 2.028 . S
O262 C265 1.247 . S
O263 Zn257 2.035 . S
O263 C265 1.258 . S
C264 O258 1.247 . S
C264 O259 1.258 . S
C265 O262 1.247 . S
C265 O263 1.258 . S
C266 O268 1.247 . S
C266 O270 1.258 . S
C267 O274 1.247 . S
C267 O275 1.258 . S
O268 C266 1.247 . S
O268 Zn269 2.028 . S
Zn269 O268 2.028 . S
Zn269 O273 2.035 . S
Zn269 O275 2.035 . S
Zn269 O276 2.028 . S
O270 C266 1.258 . S
O270 Zn271 2.035 . S
Zn271 O270 2.035 . S
Zn271 O272 2.028 . S
Zn271 O274 2.028 . S
Zn271 O277 2.035 . S
O272 Zn271 2.028 . S
O272 C278 1.247 . S
O273 Zn269 2.035 . S
O273 C278 1.258 . S
O274 C267 1.247 . S
O274 Zn271 2.028 . S
O275 C267 1.258 . S
O275 Zn269 2.035 . S
O276 Zn269 2.028 . S
O276 C279 1.247 . S
O277 Zn271 2.035 . S
O277 C279 1.258 . S
C278 O272 1.247 . S
C278 O273 1.258 . S
C279 O276 1.247 . S
C279 O277 1.258 . S
C280 O282 1.247 . S
C280 O284 1.258 . S
C281 O288 1.247 . S
C281 O289 1.258 . S
O282 C280 1.247 . S
O282 Zn283 2.028 . S
Zn283 O282 2.028 . S
Zn283 O287 2.035 . S
Zn283 O289 2.035 . S
Zn283 O290 2.028 . S
O284 C280 1.258 . S
O284 Zn285 2.035 . S
Zn285 O284 2.035 . S
Zn285 O286 2.028 . S
Zn285 O288 2.028 . S
Zn285 O291 2.035 . S
O286 Zn285 2.028 . S
O286 C292 1.247 . S
O287 Zn283 2.035 . S
O287 C292 1.258 . S
O288 C281 1.247 . S
O288 Zn285 2.028 . S
O289 C281 1.258 . S
O289 Zn283 2.035 . S
O290 Zn283 2.028 . S
O290 C293 1.247 . S
O291 Zn285 2.035 . S
O291 C293 1.258 . S
C292 O286 1.247 . S
C292 O287 1.258 . S
C293 O290 1.247 . S
C293 O291 1.258 . S
C294 O296 1.247 . S
C294 O298 1.258 . S
C295 O302 1.247 . S
C295 O303 1.258 . S
O296 C294 1.247 . S
O296 Zn297 2.028 . S
Zn297 O296 2.028 . S
Zn297 O301 2.035 . S
Zn297 O303 2.035 . S
Zn297 O304 2.028 . S
O298 C294 1.258 . S
O298 Zn299 2.035 . S
Zn299 O298 2.035 . S
Zn299 O300 2.028 . S
Zn299 O302 2.028 . S
Zn299 O305 2.035 . S
O300 Zn299 2.028 . S
O300 C306 1.247 . S
O301 Zn297 2.035 . S
O301 C306 1.258 . S
O302 C295 1.247 . S
O302 Zn299 2.028 . S
O303 C295 1.258 . S
O303 Zn297 2.035 . S
O304 Zn297 2.028 . S
O304 C307 1.247 . S
O305 Zn299 2.035 . S
O305 C307 1.258 . S
C306 O300 1.247 . S
C306 O301 1.258 . S
C307 O304 1.247 . S
C307 O305 1.258 . S
C308 O310 1.247 . S
C308 O312 1.258 . S
C309 O316 1.247 . S
C309 O317 1.258 . S
O310 C308 1.247 . S
O310 Zn311 2.028 . S
Zn311 O310 2.028 . S
Zn311 O315 2.035 . S
Zn311 O317 2.035 . S
Zn311 O318 2.028 . S
O312 C308 1.258 . S
O312 Zn313 2.035 . S
Zn313 O312 2.035 . S
Zn313 O314 2.028 . S
Zn313 O316 2.028 . S
Zn313 O319 2.035 . S
O314 Zn313 2.028 . S
O314 C320 1.247 . S
O315 Zn311 2.035 . S
O315 C320 1.258 . S
O316 C309 1.247 . S
O316 Zn313 2.028 . S
O317 C309 1.258 . S
O317 Zn311 2.035 . S
O318 Zn311 2.028 . S
O318 C321 1.247 . S
O319 Zn313 2.035 . S
O319 C321 1.258 . S
C320 O314 1.247 . S
C320 O315 1.258 . S
C321 O318 1.247 . S
C321 O319 1.258 . S
C322 O324 1.247 . S
C322 O326 1.258 . S
C323 O330 1.247 . S
C323 O331 1.258 . S
O324 C322 1.247 . S
O324 Zn325 2.028 . S
Zn325 O324 2.028 . S
Zn325 O329 2.035 . S
Zn325 O331 2.035 . S
Zn325 O332 2.028 . S
O326 C322 1.258 . S
O326 Zn327 2.035 . S
Zn327 O326 2.035 . S
Zn327 O328 2.028 . S
Zn327 O330 2.028 . S
Zn327 O333 2.035 . S
O328 Zn327 2.028 . S
O328 C334 1.247 . S
O329 Zn325 2.035 . S
O329 C334 1.258 . S
O330 C323 1.247 . S
O330 Zn327 2.028 . S
O331 C323 1.258 . S
O331 Zn325 2.035 . S
O332 Zn325 2.028 . S
O332 C335 1.247 . S
O333 Zn327 2.035 . S
O333 C335 1.258 . S
C334 O328 1.247 . S
C334 O329 1.258 . S
C335 O332 1.247 . S
C335 O333 1.258 . S
C336 O338 1.247 . S
C336 O340 1.258 . S
C337 O344 1.247 . S
C337 O345 1.258 . S
O338 C336 1.247 . S
O338 Zn339 2.028 . S
Zn339 O338 2.028 . S
Zn339 O343 2.035 . S
Zn339 O345 2.035 . S
Zn339 O346 2.028 . S
O340 C336 1.258 . S
O340 Zn341 2.035 . S
Zn341 O340 2.035 . S
Zn341 O342 2.028 . S
Zn341 O344 2.028 . S
Zn341 O347 2.035 . S
O342 Zn341 2.028 . S
O342 C348 1.247 . S
O343 Zn339 2.035 . S
O343 C348 1.258 . S
O344 C337 1.247 . S
O344 Zn341 2.028 . S
O345 C337 1.258 . S
O345 Zn339 2.035 . S
O346 Zn339 2.028 . S
O346 C349 1.247 . S
O347 Zn341 2.035 . S
O347 C349 1.258 . S
C348 O342 1.247 . S
C348 O343 1.258 . S
C349 O346 1.247 . S
C349 O347 1.258 . S
C350 O352 1.247 . S
C350 O354 1.258 . S
C351 O358 1.247 . S
C351 O359 1.258 . S
O352 C350 1.247 . S
O352 Zn353 2.028 . S
Zn353 O352 2.028 . S
Zn353 O357 2.035 . S
Zn353 O359 2.035 . S
Zn353 O360 2.028 . S
O354 C350 1.258 . S
O354 Zn355 2.035 . S
Zn355 O354 2.035 . S
Zn355 O356 2.028 . S
Zn355 O358 2.028 . S
Zn355 O361 2.035 . S
O356 Zn355 2.028 . S
O356 C362 1.247 . S
O357 Zn353 2.035 . S
O357 C362 1.258 . S
O358 C351 1.247 . S
O358 Zn355 2.028 . S
O359 C351 1.258 . S
O359 Zn353 2.035 . S
O360 Zn353 2.028 . S
O360 C363 1.247 . S
O361 Zn355 2.035 . S
O361 C363 1.258 . S
C362 O356 1.247 . S
C362 O357 1.258 . S
C363 O360 1.247 . S
C363 O361 1.258 . S
C364 O366 1.247 . S
C364 O368 1.258 . S
C365 O372 1.247 . S
C365 O373 1.258 . S
O366 C364 1.247 . S
O366 Zn367 2.028 . S
Zn367 O366 2.028 . S
Zn367 O371 2.035 . S
Zn367 O373 2.035 . S
Zn367 O374 2.028 . S
O368 C364 1.258 . S
O368 Zn369 2.035 . S
Zn369 O368 2.035 . S
Zn369 O370 2.028 . S
Zn369 O372 2.028 . S
Zn369 O375 2.035 . S
O370 Zn369 2.028 . S
O370 C376 1.247 . S
O371 Zn367 2.035 . S
O371 C376 1.258 . S
O372 C365 1.247 . S
O372 Zn369 2.028 . S
O373 C365 1.258 . S
O373 Zn367 2.035 . S
O374 Zn367 2.028 . S
O374 C377 1.247 . S
O375 Zn369 2.035 . S
O375 C377 1.258 . S
C376 O370 1.247 . S
C376 O371 1.258 . S
C377 O374 1.247 . S
C377 O375 1.258 . S
C378 O380 1.247 . S
C378 O382 1.258 . S
C379 O386 1.247 . S
C379 O387 1.258 . S
O380 C378 1.247 . S
O380 Zn381 2.028 . S
Zn381 O380 2.028 . S
Zn381 O385 2.035 . S
Zn381 O387 2.035 . S
Zn381 O388 2.028 . S
O382 C378 1.258 . S
O382 Zn383 2.035 . S
Zn383 O382 2.035 . S
Zn383 O384 2.028 . S
Zn383 O386 2.028 . S
Zn383 O389 2.035 . S
O384 Zn383 2.028 . S
O384 C390 1.247 . S
O385 Zn381 2.035 . S
O385 C390 1.258 . S
O386 C379 1.247 . S
O386 Zn383 2.028 . S
O387 C379 1.258 . S
O387 Zn381 2.035 . S
O388 Zn381 2.028 . S
O388 C391 1.247 . S
O389 Zn383 2.035 . S
O389 C391 1.258 . S
C390 O384 1.247 . S
C390 O385 1.258 . S
C391 O388 1.247 . S
C391 O389 1.258 . S
C392 O394 1.247 . S
C392 O396 1.258 . S
C393 O400 1.247 . S
C393 O401 1.258 . S
O394 C392 1.247 . S
O394 Zn395 2.028 . S
Zn395 O394 2.028 . S
Zn395 O399 2.035 . S
Zn395 O401 2.035 . S
Zn395 O402 2.028 . S
O396 C392 1.258 . S
O396 Zn397 2.035 . S
Zn397 O396 2.035 . S
Zn397 O398 2.028 . S
Zn397 O400 2.028 . S
Zn397 O403 2.035 . S
O398 Zn397 2.028 . S
O398 C404 1.247 . S
O399 Zn395 2.035 . S
O399 C404 1.258 . S
O400 C393 1.247 . S
O400 Zn397 2.028 . S
O401 C393 1.258 . S
O401 Zn395 2.035 . S
O402 Zn395 2.028 . S
O402 C405 1.247 . S
O403 Zn397 2.035 . S
O403 C405 1.258 . S
C404 O398 1.247 . S
C404 O399 1.258 . S
C405 O402 1.247 . S
C405 O403 1.258 . S
C406 O408 1.247 . S
C406 O410 1.258 . S
C407 O414 1.247 . S
C407 O415 1.258 . S
O408 C406 1.247 . S
O408 Zn409 2.028 . S
Zn409 O408 2.028 . S
Zn409 O413 2.035 . S
Zn409 O415 2.035 . S
Zn409 O416 2.028 . S
O410 C406 1.258 . S
O410 Zn411 2.035 . S
Zn411 O410 2.035 . S
Zn411 O412 2.028 . S
Zn411 O414 2.028 . S
Zn411 O417 2.035 . S
O412 Zn411 2.028 . S
O412 C418 1.247 . S
O413 Zn409 2.035 . S
O413 C418 1.258 . S
O414 C407 1.247 . S
O414 Zn411 2.028 . S
O415 C407 1.258 . S
O415 Zn409 2.035 . S
O416 Zn409 2.028 . S
O416 C419 1.247 . S
O417 Zn411 2.035 . S
O417 C419 1.258 . S
C418 O412 1.247 . S
C418 O413 1.258 . S
C419 O416 1.247 . S
C419 O417 1.258 . S
C420 O422 1.247 . S
C420 O424 1.258 . S
C421 O428 1.247 . S
C421 O429 1.258 . S
O422 C420 1.247 . S
O422 Zn423 2.028 . S
Zn423 O422 2.028 . S
Zn423 O427 2.035 . S
Zn423 O429 2.035 . S
Zn423 O430 2.028 . S
O424 C420 1.258 . S
O424 Zn425 2.035 . S
Zn425 O424 2.035 . S
Zn425 O426 2.028 . S
Zn425 O428 2.028 . S
Zn425 O431 2.035 . S
O426 Zn425 2.028 . S
O426 C432 1.247 . S
O427 Zn423 2.035 . S
O427 C432 1.258 . S
O428 C421 1.247 . S
O428 Zn425 2.028 . S
O429 C421 1.258 . S
O429 Zn423 2.035 . S
O430 Zn423 2.028 . S
O430 C433 1.247 . S
O431 Zn425 2.035 . S
O431 C433 1.258 . S
C432 O426 1.247 . S
C432 O427 1.258 . S
C433 O430 1.247 . S
C433 O431 1.258 . S
C434 O436 1.247 . S
C434 O438 1.258 . S
C435 O442 1.247 . S
C435 O443 1.258 . S
O436 C434 1.247 . S
O436 Zn437 2.028 . S
Zn437 O436 2.028 . S
Zn437 O441 2.035 . S
Zn437 O443 2.035 . S
Zn437 O444 2.028 . S
O438 C434 1.258 . S
O438 Zn439 2.035 . S
Zn439 O438 2.035 . S
Zn439 O440 2.028 . S
Zn439 O442 2.028 . S
Zn439 O445 2.035 . S
O440 Zn439 2.028 . S
O440 C446 1.247 . S
O441 Zn437 2.035 . S
O441 C446 1.258 . S
O442 C435 1.247 . S
O442 Zn439 2.028 . S
O443 C435 1.258 . S
O443 Zn437 2.035 . S
O444 Zn437 2.028 . S
O444 C447 1.247 . S
O445 Zn439 2.035 . S
O445 C447 1.258 . S
C446 O440 1.247 . S
C446 O441 1.258 . S
C447 O444 1.247 . S
C447 O445 1.258 . S
C448 O450 1.247 . S
C448 O452 1.258 . S
C449 O456 1.247 . S
C449 O457 1.258 . S
O450 C448 1.247 . S
O450 Zn451 2.028 . S
Zn451 O450 2.028 . S
Zn451 O455 2.035 . S
Zn451 O457 2.035 . S
Zn451 O458 2.028 . S
O452 C448 1.258 . S
O452 Zn453 2.035 . S
Zn453 O452 2.035 . S
Zn453 O454 2.028 . S
Zn453 O456 2.028 . S
Zn453 O459 2.035 . S
O454 Zn453 2.028 . S
O454 C460 1.247 . S
O455 Zn451 2.035 . S
O455 C460 1.258 . S
O456 C449 1.247 . S
O456 Zn453 2.028 . S
O457 C449 1.258 . S
O457 Zn451 2.035 . S
O458 Zn451 2.028 . S
O458 C461 1.247 . S
O459 Zn453 2.035 . S
O459 C461 1.258 . S
C460 O454 1.247 . S
C460 O455 1.258 . S
C461 O458 1.247 . S
C461 O459 1.258 . S
C462 O464 1.247 . S
C462 O466 1.258 . S
C463 O470 1.247 . S
C463 O471 1.258 . S
O464 C462 1.247 . S
O464 Zn465 2.028 . S
Zn465 O464 2.028 . S
Zn465 O469 2.035 . S
Zn465 O471 2.035 . S
Zn465 O472 2.028 . S
O466 C462 1.258 . S
O466 Zn467 2.035 . S
Zn467 O466 2.035 . S
Zn467 O468 2.028 . S
Zn467 O470 2.028 . S
Zn467 O473 2.035 . S
O468 Zn467 2.028 . S
O468 C474 1.247 . S
O469 Zn465 2.035 . S
O469 C474 1.258 . S
O470 C463 1.247 . S
O470 Zn467 2.028 . S
O471 C463 1.258 . S
O471 Zn465 2.035 . S
O472 Zn465 2.028 . S
O472 C475 1.247 . S
O473 Zn467 2.035 . S
O473 C475 1.258 . S
C474 O468 1.247 . S
C474 O469 1.258 . S
C475 O472 1.247 . S
C475 O473 1.258 . S
C476 O478 1.247 . S
C476 O480 1.258 . S
C477 O484 1.247 . S
C477 O485 1.258 . S
O478 C476 1.247 . S
O478 Zn479 2.028 . S
Zn479 O478 2.028 . S
Zn479 O483 2.035 . S
Zn479 O485 2.035 . S
Zn479 O486 2.028 . S
O480 C476 1.258 . S
O480 Zn481 2.035 . S
Zn481 O480 2.035 . S
Zn481 O482 2.028 . S
Zn481 O484 2.028 . S
Zn481 O487 2.035 . S
O482 Zn481 2.028 . S
O482 C488 1.247 . S
O483 Zn479 2.035 . S
O483 C488 1.258 . S
O484 C477 1.247 . S
O484 Zn481 2.028 . S
O485 C477 1.258 . S
O485 Zn479 2.035 . S
O486 Zn479 2.028 . S
O486 C489 1.247 . S
O487 Zn481 2.035 . S
O487 C489 1.258 . S
C488 O482 1.247 . S
C488 O483 1.258 . S
C489 O486 1.247 . S
C489 O487 1.258 . S
C490 O492 1.247 . S
C490 O494 1.258 . S
C491 O498 1.247 . S
C491 O499 1.258 . S
O492 C490 1.247 . S
O492 Zn493 2.028 . S
Zn493 O492 2.028 . S
Zn493 O497 2.035 . S
Zn493 O499 2.035 . S
Zn493 O500 2.028 . S
O494 C490 1.258 . S
O494 Zn495 2.035 . S
Zn495 O494 2.035 . S
Zn495 O496 2.028 . S
Zn495 O498 2.028 . S
Zn495 O501 2.035 . S
O496 Zn495 2.028 . S
O496 C502 1.247 . S
O497 Zn493 2.035 . S
O497 C502 1.258 . S
O498 C491 1.247 . S
O498 Zn495 2.028 . S
O499 C491 1.258 . S
O499 Zn493 2.035 . S
O500 Zn493 2.028 . S
O500 C503 1.247 . S
O501 Zn495 2.035 . S
O501 C503 1.258 . S
C502 O496 1.247 . S
C502 O497 1.258 . S
C503 O500 1.247 . S
C503 O501 1.258 . S
C504 O506 1.247 . S
C504 O508 1.258 . S
C505 O512 1.247 . S
C505 O513 1.258 . S
O506 C504 1.247 . S
O506 Zn507 2.028 . S
Zn507 O506 2.028 . S
Zn507 O511 2.035 . S
Zn507 O513 2.035 . S
Zn507 O514 2.028 . S
O508 C504 1.258 . S
O508 Zn509 2.035 . S
Zn509 O508 2.035 . S
Zn509 O510 2.028 . S
Zn509 O512 2.028 . S
Zn509 O515 2.035 . S
O510 Zn509 2.028 . S
O510 C516 1.247 . S
O511 Zn507 2.035 . S
O511 C516 1.258 . S
O512 C505 1.247 . S
O512 Zn509 2.028 . S
O513 C505 1.258 . S
O513 Zn507 2.035 . S
O514 Zn507 2.028 . S
O514 C517 1.247 . S
O515 Zn509 2.035 . S
O515 C517 1.258 . S
C516 O510 1.247 . S
C516 O511 1.258 . S
C517 O514 1.247 . S
C517 O515 1.258 . S
C518 O520 1.247 . S
C518 O522 1.258 . S
C519 O526 1.247 . S
C519 O527 1.258 . S
O520 C518 1.247 . S
O520 Zn521 2.028 . S
Zn521 O520 2.028 . S
Zn521 O525 2.035 . S
Zn521 O527 2.035 . S
Zn521 O528 2.028 . S
O522 C518 1.258 . S
O522 Zn523 2.035 . S
Zn523 O522 2.035 . S
Zn523 O524 2.028 . S
Zn523 O526 2.028 . S
Zn523 O529 2.035 . S
O524 Zn523 2.028 . S
O524 C530 1.247 . S
O525 Zn521 2.035 . S
O525 C530 1.258 . S
O526 C519 1.247 . S
O526 Zn523 2.028 . S
O527 C519 1.258 . S
O527 Zn521 2.035 . S
O528 Zn521 2.028 . S
O528 C531 1.247 . S
O529 Zn523 2.035 . S
O529 C531 1.258 . S
C530 O524 1.247 . S
C530 O525 1.258 . S
C531 O528 1.247 . S
C531 O529 1.258 . S
C532 O534 1.247 . S
C532 O536 1.258 . S
C533 O540 1.247 . S
C533 O541 1.258 . S
O534 C532 1.247 . S
O534 Zn535 2.028 . S
Zn535 O534 2.028 . S
Zn535 O539 2.035 . S
Zn535 O541 2.035 . S
Zn535 O542 2.028 . S
O536 C532 1.258 . S
O536 Zn537 2.035 . S
Zn537 O536 2.035 . S
Zn537 O538 2.028 . S
Zn537 O540 2.028 . S
Zn537 O543 2.035 . S
O538 Zn537 2.028 . S
O538 C544 1.247 . S
O539 Zn535 2.035 . S
O539 C544 1.258 . S
O540 C533 1.247 . S
O540 Zn537 2.028 . S
O541 C533 1.258 . S
O541 Zn535 2.035 . S
O542 Zn535 2.028 . S
O542 C545 1.247 . S
O543 Zn537 2.035 . S
O543 C545 1.258 . S
C544 O538 1.247 . S
C544 O539 1.258 . S
C545 O542 1.247 . S
C545 O543 1.258 . S
C546 O548 1.247 . S
C546 O550 1.258 . S
C547 O554 1.247 . S
C547 O555 1.258 . S
O548 C546 1.247 . S
O548 Zn549 2.028 . S
Zn549 O548 2.028 . S
Zn549 O553 2.035 . S
Zn549 O555 2.035 . S
Zn549 O556 2.028 . S
O550 C546 1.258 . S
O550 Zn551 2.035 . S
Zn551 O550 2.035 . S
Zn551 O552 2.028 . S
Zn551 O554 2.028 . S
Zn551 O557 2.035 . S
O552 Zn551 2.028 . S
O552 C558 1.247 . S
O553 Zn549 2.035 . S
O553 C558 1.258 . S
O554 C547 1.247 . S
O554 Zn551 2.028 . S
O555 C547 1.258 . S
O555 Zn549 2.035 . S
O556 Zn549 2.028 . S
O556 C559 1.247 . S
O557 Zn551 2.035 . S
O557 C559 1.258 . S
C558 O552 1.247 . S
C558 O553 1.258 . S
C559 O556 1.247 . S
C559 O557 1.258 . S
C560 O562 1.247 . S
C560 O564 1.258 . S
C561 O568 1.247 . S
C561 O569 1.258 . S
O562 C560 1.247 . S
O562 Zn563 2.028 . S
Zn563 O562 2.028 . S
Zn563 O567 2.035 . S
Zn563 O569 2.035 . S
Zn563 O570 2.028 . S
O564 C560 1.258 . S
O564 Zn565 2.035 . S
Zn565 O564 2.035 . S
Zn565 O566 2.028 . S
Zn565 O568 2.028 . S
Zn565 O571 2.035 . S
O566 Zn565 2.028 . S
O566 C572 1.247 . S
O567 Zn563 2.035 . S
O567 C572 1.258 . S
O568 C561 1.247 . S
O568 Zn565 2.028 . S
O569 C561 1.258 . S
O569 Zn563 2.035 . S
O570 Zn563 2.028 . S
O570 C573 1.247 . S
O571 Zn565 2.035 . S
O571 C573 1.258 . S
C572 O566 1.247 . S
C572 O567 1.258 . S
C573 O570 1.247 . S
C573 O571 1.258 . S
C574 O576 1.247 . S
C574 O578 1.258 . S
C575 O582 1.247 . S
C575 O583 1.258 . S
O576 C574 1.247 . S
O576 Zn577 2.028 . S
Zn577 O576 2.028 . S
Zn577 O581 2.035 . S
Zn577 O583 2.035 . S
Zn577 O584 2.028 . S
O578 C574 1.258 . S
O578 Zn579 2.035 . S
Zn579 O578 2.035 . S
Zn579 O580 2.028 . S
Zn579 O582 2.028 . S
Zn579 O585 2.035 . S
O580 Zn579 2.028 . S
O580 C586 1.247 . S
O581 Zn577 2.035 . S
O581 C586 1.258 . S
O582 C575 1.247 . S
O582 Zn579 2.028 . S
O583 C575 1.258 . S
O583 Zn577 2.035 . S
O584 Zn577 2.028 . S
O584 C587 1.247 . S
O585 Zn579 2.035 . S
O585 C587 1.258 . S
C586 O580 1.247 . S
C586 O581 1.258 . S
C587 O584 1.247 . S
C587 O585 1.258 . S
C588 O590 1.247 . S
C588 O592 1.258 . S
C589 O596 1.247 . S
C589 O597 1.258 . S
O590 C588 1.247 . S
O590 Zn591 2.028 . S
Zn591 O590 2.028 . S
Zn591 O595 2.035 . S
Zn591 O597 2.035 . S
Zn591 O598 2.028 . S
O592 C588 1.258 . S
O592 Zn593 2.035 . S
Zn593 O592 2.035 . S
Zn593 O594 2.028 . S
Zn593 O596 2.028 . S
Zn593 O599 2.035 . S
O594 Zn593 2.028 . S
O594 C600 1.247 . S
O595 Zn591 2.035 . S
O595 C600 1.258 . S
O596 C589 1.247 . S
O596 Zn593 2.028 . S
O597 C589 1.258 . S
O597 Zn591 2.035 . S
O598 Zn591 2.028 . S
O598 C601 1.247 . S
O599 Zn593 2.035 . S
O599 C601 1.258 . S
C600 O594 1.247 . S
C600 O595 1.258 . S
C601 O598 1.247 . S
C601 O599 1.258 . S
C602 O604 1.247 . S
C602 O606 1.258 . S
C603 O610 1.247 . S
C603 O611 1.258 . S
O604 C602 1.247 . S
O604 Zn605 2.028 . S
Zn605 O604 2.028 . S
Zn605 O609 2.035 . S
Zn605 O611 2.035 . S
Zn605 O612 2.028 . S
O606 C602 1.258 . S
O606 Zn607 2.035 . S
Zn607 O606 2.035 . S
Zn607 O608 2.028 . S
Zn607 O610 2.028 . S
Zn607 O613 2.035 . S
O608 Zn607 2.028 . S
O608 C614 1.247 . S
O609 Zn605 2.035 . S
O609 C614 1.258 . S
O610 C603 1.247 . S
O610 Zn607 2.028 . S
O611 C603 1.258 . S
O611 Zn605 2.035 . S
O612 Zn605 2.028 . S
O612 C615 1.247 . S
O613 Zn607 2.035 . S
O613 C615 1.258 . S
C614 O608 1.247 . S
C614 O609 1.258 . S
C615 O612 1.247 . S
C615 O613 1.258 . S
C616 O618 1.247 . S
C616 O620 1.258 . S
C617 O624 1.247 . S
C617 O625 1.258 . S
O618 C616 1.247 . S
O618 Zn619 2.028 . S
Zn619 O618 2.028 . S
Zn619 O623 2.035 . S
Zn619 O625 2.035 . S
Zn619 O626 2.028 . S
O620 C616 1.258 . S
O620 Zn621 2.035 . S
Zn621 O620 2.035 . S
Zn621 O622 2.028 . S
Zn621 O624 2.028 . S
Zn621 O627 2.035 . S
O622 Zn621 2.028 . S
O622 C628 1.247 . S
O623 Zn619 2.035 . S
O623 C628 1.258 . S
O624 C617 1.247 . S
O624 Zn621 2.028 . S
O625 C617 1.258 . S
O625 Zn619 2.035 . S
O626 Zn619 2.028 . S
O626 C629 1.247 . S
O627 Zn621 2.035 . S
O627 C629 1.258 . S
C628 O622 1.247 . S
C628 O623 1.258 . S
C629 O626 1.247 . S
C629 O627 1.258 . S
C630 O632 1.247 . S
C630 O634 1.258 . S
C631 O638 1.247 . S
C631 O639 1.258 . S
O632 C630 1.247 . S
O632 Zn633 2.028 . S
Zn633 O632 2.028 . S
Zn633 O637 2.035 . S
Zn633 O639 2.035 . S
Zn633 O640 2.028 . S
O634 C630 1.258 . S
O634 Zn635 2.035 . S
Zn635 O634 2.035 . S
Zn635 O636 2.028 . S
Zn635 O638 2.028 . S
Zn635 O641 2.035 . S
O636 Zn635 2.028 . S
O636 C642 1.247 . S
O637 Zn633 2.035 . S
O637 C642 1.258 . S
O638 C631 1.247 . S
O638 Zn635 2.028 . S
O639 C631 1.258 . S
O639 Zn633 2.035 . S
O640 Zn633 2.028 . S
O640 C643 1.247 . S
O641 Zn635 2.035 . S
O641 C643 1.258 . S
C642 O636 1.247 . S
C642 O637 1.258 . S
C643 O640 1.247 . S
C643 O641 1.258 . S
C644 O646 1.247 . S
C644 O648 1.258 . S
C645 O652 1.247 . S
C645 O653 1.258 . S
O646 C644 1.247 . S
O646 Zn647 2.028 . S
Zn647 O646 2.028 . S
Zn647 O651 2.035 . S
Zn647 O653 2.035 . S
Zn647 O654 2.028 . S
O648 C644 1.258 . S
O648 Zn649 2.035 . S
Zn649 O648 2.035 . S
Zn649 O650 2.028 . S
Zn649 O652 2.028 . S
Zn649 O655 2.035 . S
O650 Zn649 2.028 . S
O650 C656 1.247 . S
O651 Zn647 2.035 . S
O651 C656 1.258 . S
O652 C645 1.247 . S
O652 Zn649 2.028 . S
O653 C645 1.258 . S
O653 Zn647 2.035 . S
O654 Zn647 2.028 . S
O654 C657 1.247 . S
O655 Zn649 2.035 . S
O655 C657 1.258 . S
C656 O650 1.247 . S
C656 O651 1.258 . S
C657 O654 1.247 . S
C657 O655 1.258 . S
C658 O660 1.247 . S
C658 O662 1.258 . S
C659 O666 1.247 . S
C659 O667 1.258 . S
O660 C658 1.247 . S
O660 Zn661 2.028 . S
Zn661 O660 2.028 . S
Zn661 O665 2.035 . S
Zn661 O667 2.035 . S
Zn661 O668 2.028 . S
O662 C658 1.258 . S
O662 Zn663 2.035 . S
Zn663 O662 2.035 . S
Zn663 O664 2.028 . S
Zn663 O666 2.028 . S
Zn663 O669 2.035 . S
O664 Zn663 2.028 . S
O664 C670 1.247 . S
O665 Zn661 2.035 . S
O665 C670 1.258 . S
O666 C659 1.247 . S
O666 Zn663 2.028 . S
O667 C659 1.258 . S
O667 Zn661 2.035 . S
O668 Zn661 2.028 . S
O668 C671 1.247 . S
O669 Zn663 2.035 . S
O669 C671 1.258 . S
C670 O664 1.247 . S
C670 O665 1.258 . S
C671 O668 1.247 . S
C671 O669 1.258 . S
H672 C678 0.930 . S
H673 C682 0.930 . S
H674 C687 0.929 . S
H675 C685 0.929 . S
H676 C680 0.929 . S
H677 C686 0.929 . S
C678 H672 0.930 . S
C678 C679 1.367 . S
C678 C686 1.378 . S
C679 C678 1.367 . S
C679 C687 1.433 . S
C680 H676 0.929 . S
C680 C682 1.378 . S
C680 C684 1.350 . S
C681 C684 1.463 1_565 S
C681 C686 1.350 . S
C681 N689 1.427 . S
C682 H673 0.930 . S
C682 C680 1.378 . S
C682 C683 1.367 . S
C683 C682 1.367 . S
C683 C685 1.433 . S
C684 C680 1.350 . S
C684 C681 1.463 1_545 S
C684 N688 1.427 . S
C685 H675 0.929 . S
C685 C683 1.433 . S
C685 N688 1.384 . S
C686 H677 0.929 . S
C686 C678 1.378 . S
C686 C681 1.350 . S
C687 H674 0.929 . S
C687 C679 1.433 . S
C687 N689 1.384 . S
N688 C684 1.427 . S
N688 C685 1.384 . S
N689 C681 1.427 . S
N689 C687 1.384 . S
H690 C696 0.930 . S
H691 C700 0.930 . S
H692 C705 0.929 . S
H693 C703 0.929 . S
H694 C698 0.929 . S
H695 C704 0.929 . S
C696 H690 0.930 . S
C696 C697 1.367 . S
C696 C704 1.378 . S
C697 C696 1.367 . S
C697 C705 1.433 . S
C698 H694 0.929 . S
C698 C700 1.378 . S
C698 C702 1.350 . S
C699 C702 1.463 1_455 S
C699 C704 1.350 . S
C699 N707 1.427 . S
C700 H691 0.930 . S
C700 C698 1.378 . S
C700 C701 1.367 . S
C701 C700 1.367 . S
C701 C703 1.433 . S
C702 C698 1.350 . S
C702 C699 1.463 1_655 S
C702 N706 1.427 . S
C703 H693 0.929 . S
C703 C701 1.433 . S
C703 N706 1.384 . S
C704 H695 0.929 . S
C704 C696 1.378 . S
C704 C699 1.350 . S
C705 H692 0.929 . S
C705 C697 1.433 . S
C705 N707 1.384 . S
N706 C702 1.427 . S
N706 C703 1.384 . S
N707 C699 1.427 . S
N707 C705 1.384 . S
H708 C714 0.930 . S
H709 C718 0.930 . S
H710 C723 0.929 . S
H711 C721 0.929 . S
H712 C716 0.929 . S
H713 C722 0.929 . S
C714 H708 0.930 . S
C714 C715 1.367 . S
C714 C722 1.378 . S
C715 C714 1.367 . S
C715 C723 1.433 . S
C716 H712 0.929 . S
C716 C718 1.378 . S
C716 C720 1.350 . S
C717 C720 1.463 1_565 S
C717 C722 1.350 . S
C717 N725 1.427 . S
C718 H709 0.930 . S
C718 C716 1.378 . S
C718 C719 1.367 . S
C719 C718 1.367 . S
C719 C721 1.433 . S
C720 C716 1.350 . S
C720 C717 1.463 1_545 S
C720 N724 1.427 . S
C721 H711 0.929 . S
C721 C719 1.433 . S
C721 N724 1.384 . S
C722 H713 0.929 . S
C722 C714 1.378 . S
C722 C717 1.350 . S
C723 H710 0.929 . S
C723 C715 1.433 . S
C723 N725 1.384 . S
N724 C720 1.427 . S
N724 C721 1.384 . S
N725 C717 1.427 . S
N725 C723 1.384 . S
H726 C732 0.930 . S
H727 C736 0.930 . S
H728 C741 0.929 . S
H729 C739 0.929 . S
H730 C734 0.929 . S
H731 C740 0.929 . S
C732 H726 0.930 . S
C732 C733 1.367 . S
C732 C740 1.378 . S
C733 C732 1.367 . S
C733 C741 1.433 . S
C734 H730 0.929 . S
C734 C736 1.378 . S
C734 C738 1.350 . S
C735 C738 1.463 1_655 S
C735 C740 1.350 . S
C735 N743 1.427 . S
C736 H727 0.930 . S
C736 C734 1.378 . S
C736 C737 1.367 . S
C737 C736 1.367 . S
C737 C739 1.433 . S
C738 C734 1.350 . S
C738 C735 1.463 1_455 S
C738 N742 1.427 . S
C739 H729 0.929 . S
C739 C737 1.433 . S
C739 N742 1.384 . S
C740 H731 0.929 . S
C740 C732 1.378 . S
C740 C735 1.350 . S
C741 H728 0.929 . S
C741 C733 1.433 . S
C741 N743 1.384 . S
N742 C738 1.427 . S
N742 C739 1.384 . S
N743 C735 1.427 . S
N743 C741 1.384 . S
H744 C750 0.930 . S
H745 C754 0.930 . S
H746 C759 0.929 . S
H747 C757 0.929 . S
H748 C752 0.929 . S
H749 C758 0.929 . S
C750 H744 0.930 . S
C750 C751 1.367 . S
C750 C758 1.378 . S
C751 C750 1.367 . S
C751 C759 1.433 . S
C752 H748 0.929 . S
C752 C754 1.378 . S
C752 C756 1.350 . S
C753 C756 1.463 1_565 S
C753 C758 1.350 . S
C753 N761 1.427 . S
C754 H745 0.930 . S
C754 C752 1.378 . S
C754 C755 1.367 . S
C755 C754 1.367 . S
C755 C757 1.433 . S
C756 C752 1.350 . S
C756 C753 1.463 1_545 S
C756 N760 1.427 . S
C757 H747 0.929 . S
C757 C755 1.433 . S
C757 N760 1.384 . S
C758 H749 0.929 . S
C758 C750 1.378 . S
C758 C753 1.350 . S
C759 H746 0.929 . S
C759 C751 1.433 . S
C759 N761 1.384 . S
N760 C756 1.427 . S
N760 C757 1.384 . S
N761 C753 1.427 . S
N761 C759 1.384 . S
H762 C768 0.930 . S
H763 C772 0.930 . S
H764 C777 0.929 . S
H765 C775 0.929 . S
H766 C770 0.929 . S
H767 C776 0.929 . S
C768 H762 0.930 . S
C768 C769 1.367 . S
C768 C776 1.378 . S
C769 C768 1.367 . S
C769 C777 1.433 . S
C770 H766 0.929 . S
C770 C772 1.378 . S
C770 C774 1.350 . S
C771 C774 1.463 1_655 S
C771 C776 1.350 . S
C771 N779 1.427 . S
C772 H763 0.930 . S
C772 C770 1.378 . S
C772 C773 1.367 . S
C773 C772 1.367 . S
C773 C775 1.433 . S
C774 C770 1.350 . S
C774 C771 1.463 1_455 S
C774 N778 1.427 . S
C775 H765 0.929 . S
C775 C773 1.433 . S
C775 N778 1.384 . S
C776 H767 0.929 . S
C776 C768 1.378 . S
C776 C771 1.350 . S
C777 H764 0.929 . S
C777 C769 1.433 . S
C777 N779 1.384 . S
N778 C774 1.427 . S
N778 C775 1.384 . S
N779 C771 1.427 . S
N779 C777 1.384 . S
H780 C786 0.930 . S
H781 C790 0.930 . S
H782 C795 0.929 . S
H783 C793 0.929 . S
H784 C788 0.929 . S
H785 C794 0.929 . S
C786 H780 0.930 . S
C786 C787 1.367 . S
C786 C794 1.378 . S
C787 C786 1.367 . S
C787 C795 1.433 . S
C788 H784 0.929 . S
C788 C790 1.378 . S
C788 C792 1.350 . S
C789 C792 1.463 1_545 S
C789 C794 1.350 . S
C789 N797 1.427 . S
C790 H781 0.930 . S
C790 C788 1.378 . S
C790 C791 1.367 . S
C791 C790 1.367 . S
C791 C793 1.433 . S
C792 C788 1.350 . S
C792 C789 1.463 1_565 S
C792 N796 1.427 . S
C793 H783 0.929 . S
C793 C791 1.433 . S
C793 N796 1.384 . S
C794 H785 0.929 . S
C794 C786 1.378 . S
C794 C789 1.350 . S
C795 H782 0.929 . S
C795 C787 1.433 . S
C795 N797 1.384 . S
N796 C792 1.427 . S
N796 C793 1.384 . S
N797 C789 1.427 . S
N797 C795 1.384 . S
H798 C804 0.930 . S
H799 C808 0.930 . S
H800 C813 0.929 . S
H801 C811 0.929 . S
H802 C806 0.929 . S
H803 C812 0.929 . S
C804 H798 0.930 . S
C804 C805 1.367 . S
C804 C812 1.378 . S
C805 C804 1.367 . S
C805 C813 1.433 . S
C806 H802 0.929 . S
C806 C808 1.378 . S
C806 C810 1.350 . S
C807 C810 1.463 1_455 S
C807 C812 1.350 . S
C807 N815 1.427 . S
C808 H799 0.930 . S
C808 C806 1.378 . S
C808 C809 1.367 . S
C809 C808 1.367 . S
C809 C811 1.433 . S
C810 C806 1.350 . S
C810 C807 1.463 1_655 S
C810 N814 1.427 . S
C811 H801 0.929 . S
C811 C809 1.433 . S
C811 N814 1.384 . S
C812 H803 0.929 . S
C812 C804 1.378 . S
C812 C807 1.350 . S
C813 H800 0.929 . S
C813 C805 1.433 . S
C813 N815 1.384 . S
N814 C810 1.427 . S
N814 C811 1.384 . S
N815 C807 1.427 . S
N815 C813 1.384 . S
H816 C822 0.930 . S
H817 C826 0.930 . S
H818 C831 0.929 . S
H819 C829 0.929 . S
H820 C824 0.929 . S
H821 C830 0.929 . S
C822 H816 0.930 . S
C822 C823 1.367 . S
C822 C830 1.378 . S
C823 C822 1.367 . S
C823 C831 1.433 . S
C824 H820 0.929 . S
C824 C826 1.378 . S
C824 C828 1.350 . S
C825 C828 1.463 1_554 S
C825 C830 1.350 . S
C825 N833 1.427 . S
C826 H817 0.930 . S
C826 C824 1.378 . S
C826 C827 1.367 . S
C827 C826 1.367 . S
C827 C829 1.433 . S
C828 C824 1.350 . S
C828 C825 1.463 1_556 S
C828 N832 1.427 . S
C829 H819 0.929 . S
C829 C827 1.433 . S
C829 N832 1.384 . S
C830 H821 0.929 . S
C830 C822 1.378 . S
C830 C825 1.350 . S
C831 H818 0.929 . S
C831 C823 1.433 . S
C831 N833 1.384 . S
N832 C828 1.427 . S
N832 C829 1.384 . S
N833 C825 1.427 . S
N833 C831 1.384 . S
H834 C840 0.930 . S
H835 C844 0.930 . S
H836 C849 0.929 . S
H837 C847 0.929 . S
H838 C842 0.929 . S
H839 C848 0.929 . S
C840 H834 0.930 . S
C840 C841 1.367 . S
C840 C848 1.378 . S
C841 C840 1.367 . S
C841 C849 1.433 . S
C842 H838 0.929 . S
C842 C844 1.378 . S
C842 C846 1.350 . S
C843 C846 1.463 1_556 S
C843 C848 1.350 . S
C843 N851 1.427 . S
C844 H835 0.930 . S
C844 C842 1.378 . S
C844 C845 1.367 . S
C845 C844 1.367 . S
C845 C847 1.433 . S
C846 C842 1.350 . S
C846 C843 1.463 1_554 S
C846 N850 1.427 . S
C847 H837 0.929 . S
C847 C845 1.433 . S
C847 N850 1.384 . S
C848 H839 0.929 . S
C848 C840 1.378 . S
C848 C843 1.350 . S
C849 H836 0.929 . S
C849 C841 1.433 . S
C849 N851 1.384 . S
N850 C846 1.427 . S
N850 C847 1.384 . S
N851 C843 1.427 . S
N851 C849 1.384 . S
H852 C858 0.930 . S
H853 C862 0.930 . S
H854 C867 0.929 . S
H855 C865 0.929 . S
H856 C860 0.929 . S
H857 C866 0.929 . S
C858 H852 0.930 . S
C858 C859 1.367 . S
C858 C866 1.378 . S
C859 C858 1.367 . S
C859 C867 1.433 . S
C860 H856 0.929 . S
C860 C862 1.378 . S
C860 C864 1.350 . S
C861 C864 1.463 1_556 S
C861 C866 1.350 . S
C861 N869 1.427 . S
C862 H853 0.930 . S
C862 C860 1.378 . S
C862 C863 1.367 . S
C863 C862 1.367 . S
C863 C865 1.433 . S
C864 C860 1.350 . S
C864 C861 1.463 1_554 S
C864 N868 1.427 . S
C865 H855 0.929 . S
C865 C863 1.433 . S
C865 N868 1.384 . S
C866 H857 0.929 . S
C866 C858 1.378 . S
C866 C861 1.350 . S
C867 H854 0.929 . S
C867 C859 1.433 . S
C867 N869 1.384 . S
N868 C864 1.427 . S
N868 C865 1.384 . S
N869 C861 1.427 . S
N869 C867 1.384 . S
H870 C876 0.930 . S
H871 C880 0.930 . S
H872 C885 0.929 . S
H873 C883 0.929 . S
H874 C878 0.929 . S
H875 C884 0.929 . S
C876 H870 0.930 . S
C876 C877 1.367 . S
C876 C884 1.378 . S
C877 C876 1.367 . S
C877 C885 1.433 . S
C878 H874 0.929 . S
C878 C880 1.378 . S
C878 C882 1.350 . S
C879 C882 1.463 1_556 S
C879 C884 1.350 . S
C879 N887 1.427 . S
C880 H871 0.930 . S
C880 C878 1.378 . S
C880 C881 1.367 . S
C881 C880 1.367 . S
C881 C883 1.433 . S
C882 C878 1.350 . S
C882 C879 1.463 1_554 S
C882 N886 1.427 . S
C883 H873 0.929 . S
C883 C881 1.433 . S
C883 N886 1.384 . S
C884 H875 0.929 . S
C884 C876 1.378 . S
C884 C879 1.350 . S
C885 H872 0.929 . S
C885 C877 1.433 . S
C885 N887 1.384 . S
N886 C882 1.427 . S
N886 C883 1.384 . S
N887 C879 1.427 . S
N887 C885 1.384 . S
H888 C894 0.930 . S
H889 C898 0.930 . S
H890 C903 0.929 . S
H891 C901 0.929 . S
H892 C896 0.929 . S
H893 C902 0.929 . S
C894 H888 0.930 . S
C894 C895 1.367 . S
C894 C902 1.378 . S
C895 C894 1.367 . S
C895 C903 1.433 . S
C896 H892 0.929 . S
C896 C898 1.378 . S
C896 C900 1.350 . S
C897 C900 1.463 1_554 S
C897 C902 1.350 . S
C897 N905 1.427 . S
C898 H889 0.930 . S
C898 C896 1.378 . S
C898 C899 1.367 . S
C899 C898 1.367 . S
C899 C901 1.433 . S
C900 C896 1.350 . S
C900 C897 1.463 1_556 S
C900 N904 1.427 . S
C901 H891 0.929 . S
C901 C899 1.433 . S
C901 N904 1.384 . S
C902 H893 0.929 . S
C902 C894 1.378 . S
C902 C897 1.350 . S
C903 H890 0.929 . S
C903 C895 1.433 . S
C903 N905 1.384 . S
N904 C900 1.427 . S
N904 C901 1.384 . S
N905 C897 1.427 . S
N905 C903 1.384 . S
H906 C912 0.930 . S
H907 C916 0.930 . S
H908 C921 0.929 . S
H909 C919 0.929 . S
H910 C914 0.929 . S
H911 C920 0.929 . S
C912 H906 0.930 . S
C912 C913 1.367 . S
C912 C920 1.378 . S
C913 C912 1.367 . S
C913 C921 1.433 . S
C914 H910 0.929 . S
C914 C916 1.378 . S
C914 C918 1.350 . S
C915 C918 1.463 1_556 S
C915 C920 1.350 . S
C915 N923 1.427 . S
C916 H907 0.930 . S
C916 C914 1.378 . S
C916 C917 1.367 . S
C917 C916 1.367 . S
C917 C919 1.433 . S
C918 C914 1.350 . S
C918 C915 1.463 1_554 S
C918 N922 1.427 . S
C919 H909 0.929 . S
C919 C917 1.433 . S
C919 N922 1.384 . S
C920 H911 0.929 . S
C920 C912 1.378 . S
C920 C915 1.350 . S
C921 H908 0.929 . S
C921 C913 1.433 . S
C921 N923 1.384 . S
N922 C918 1.427 . S
N922 C919 1.384 . S
N923 C915 1.427 . S
N923 C921 1.384 . S
H924 C930 0.930 . S
H925 C934 0.930 . S
H926 C939 0.929 . S
H927 C937 0.929 . S
H928 C932 0.929 . S
H929 C938 0.929 . S
C930 H924 0.930 . S
C930 C931 1.367 . S
C930 C938 1.378 . S
C931 C930 1.367 . S
C931 C939 1.433 . S
C932 H928 0.929 . S
C932 C934 1.378 . S
C932 C936 1.350 . S
C933 C936 1.463 1_554 S
C933 C938 1.350 . S
C933 N941 1.427 . S
C934 H925 0.930 . S
C934 C932 1.378 . S
C934 C935 1.367 . S
C935 C934 1.367 . S
C935 C937 1.433 . S
C936 C932 1.350 . S
C936 C933 1.463 1_556 S
C936 N940 1.427 . S
C937 H927 0.929 . S
C937 C935 1.433 . S
C937 N940 1.384 . S
C938 H929 0.929 . S
C938 C930 1.378 . S
C938 C933 1.350 . S
C939 H926 0.929 . S
C939 C931 1.433 . S
C939 N941 1.384 . S
N940 C936 1.427 . S
N940 C937 1.384 . S
N941 C933 1.427 . S
N941 C939 1.384 . S
H942 C948 0.930 . S
H943 C952 0.930 . S
H944 C957 0.929 . S
H945 C955 0.929 . S
H946 C950 0.929 . S
H947 C956 0.929 . S
C948 H942 0.930 . S
C948 C949 1.367 . S
C948 C956 1.378 . S
C949 C948 1.367 . S
C949 C957 1.433 . S
C950 H946 0.929 . S
C950 C952 1.378 . S
C950 C954 1.350 . S
C951 C954 1.463 1_556 S
C951 C956 1.350 . S
C951 N959 1.427 . S
C952 H943 0.930 . S
C952 C950 1.378 . S
C952 C953 1.367 . S
C953 C952 1.367 . S
C953 C955 1.433 . S
C954 C950 1.350 . S
C954 C951 1.463 1_554 S
C954 N958 1.427 . S
C955 H945 0.929 . S
C955 C953 1.433 . S
C955 N958 1.384 . S
C956 H947 0.929 . S
C956 C948 1.378 . S
C956 C951 1.350 . S
C957 H944 0.929 . S
C957 C949 1.433 . S
C957 N959 1.384 . S
N958 C954 1.427 . S
N958 C955 1.384 . S
N959 C951 1.427 . S
N959 C957 1.384 . S
H960 C966 0.930 . S
H961 C970 0.930 . S
H962 C975 0.929 . S
H963 C973 0.929 . S
H964 C968 0.929 . S
H965 C974 0.929 . S
C966 H960 0.930 . S
C966 C967 1.367 . S
C966 C974 1.378 . S
C967 C966 1.367 . S
C967 C975 1.433 . S
C968 H964 0.929 . S
C968 C970 1.378 . S
C968 C972 1.350 . S
C969 C972 1.463 1_455 S
C969 C974 1.350 . S
C969 N977 1.427 . S
C970 H961 0.930 . S
C970 C968 1.378 . S
C970 C971 1.367 . S
C971 C970 1.367 . S
C971 C973 1.433 . S
C972 C968 1.350 . S
C972 C969 1.463 1_655 S
C972 N976 1.427 . S
C973 H963 0.929 . S
C973 C971 1.433 . S
C973 N976 1.384 . S
C974 H965 0.929 . S
C974 C966 1.378 . S
C974 C969 1.350 . S
C975 H962 0.929 . S
C975 C967 1.433 . S
C975 N977 1.384 . S
N976 C972 1.427 . S
N976 C973 1.384 . S
N977 C969 1.427 . S
N977 C975 1.384 . S
H978 C984 0.930 . S
H979 C988 0.930 . S
H980 C993 0.929 . S
H981 C991 0.929 . S
H982 C986 0.929 . S
H983 C992 0.929 . S
C984 H978 0.930 . S
C984 C985 1.367 . S
C984 C992 1.378 . S
C985 C984 1.367 . S
C985 C993 1.433 . S
C986 H982 0.929 . S
C986 C988 1.378 . S
C986 C990 1.350 . S
C987 C990 1.463 1_455 S
C987 C992 1.350 . S
C987 N995 1.427 . S
C988 H979 0.930 . S
C988 C986 1.378 . S
C988 C989 1.367 . S
C989 C988 1.367 . S
C989 C991 1.433 . S
C990 C986 1.350 . S
C990 C987 1.463 1_655 S
C990 N994 1.427 . S
C991 H981 0.929 . S
C991 C989 1.433 . S
C991 N994 1.384 . S
C992 H983 0.929 . S
C992 C984 1.378 . S
C992 C987 1.350 . S
C993 H980 0.929 . S
C993 C985 1.433 . S
C993 N995 1.384 . S
N994 C990 1.427 . S
N994 C991 1.384 . S
N995 C987 1.427 . S
N995 C993 1.384 . S
H996 C1002 0.930 . S
H997 C1006 0.930 . S
H998 C1011 0.929 . S
H999 C1009 0.929 . S
H1000 C1004 0.929 . S
H1001 C1010 0.929 . S
C1002 H996 0.930 . S
C1002 C1003 1.367 . S
C1002 C1010 1.378 . S
C1003 C1002 1.367 . S
C1003 C1011 1.433 . S
C1004 H1000 0.929 . S
C1004 C1006 1.378 . S
C1004 C1008 1.350 . S
C1005 C1008 1.463 1_565 S
C1005 C1010 1.350 . S
C1005 N1013 1.427 . S
C1006 H997 0.930 . S
C1006 C1004 1.378 . S
C1006 C1007 1.367 . S
C1007 C1006 1.367 . S
C1007 C1009 1.433 . S
C1008 C1004 1.350 . S
C1008 C1005 1.463 1_545 S
C1008 N1012 1.427 . S
C1009 H999 0.929 . S
C1009 C1007 1.433 . S
C1009 N1012 1.384 . S
C1010 H1001 0.929 . S
C1010 C1002 1.378 . S
C1010 C1005 1.350 . S
C1011 H998 0.929 . S
C1011 C1003 1.433 . S
C1011 N1013 1.384 . S
N1012 C1008 1.427 . S
N1012 C1009 1.384 . S
N1013 C1005 1.427 . S
N1013 C1011 1.384 . S
H1014 C1020 0.930 . S
H1015 C1024 0.930 . S
H1016 C1029 0.929 . S
H1017 C1027 0.929 . S
H1018 C1022 0.929 . S
H1019 C1028 0.929 . S
C1020 H1014 0.930 . S
C1020 C1021 1.367 . S
C1020 C1028 1.378 . S
C1021 C1020 1.367 . S
C1021 C1029 1.433 . S
C1022 H1018 0.929 . S
C1022 C1024 1.378 . S
C1022 C1026 1.350 . S
C1023 C1026 1.463 1_455 S
C1023 C1028 1.350 . S
C1023 N1031 1.427 . S
C1024 H1015 0.930 . S
C1024 C1022 1.378 . S
C1024 C1025 1.367 . S
C1025 C1024 1.367 . S
C1025 C1027 1.433 . S
C1026 C1022 1.350 . S
C1026 C1023 1.463 1_655 S
C1026 N1030 1.427 . S
C1027 H1017 0.929 . S
C1027 C1025 1.433 . S
C1027 N1030 1.384 . S
C1028 H1019 0.929 . S
C1028 C1020 1.378 . S
C1028 C1023 1.350 . S
C1029 H1016 0.929 . S
C1029 C1021 1.433 . S
C1029 N1031 1.384 . S
N1030 C1026 1.427 . S
N1030 C1027 1.384 . S
N1031 C1023 1.427 . S
N1031 C1029 1.384 . S
H1032 C1038 0.930 . S
H1033 C1042 0.930 . S
H1034 C1047 0.929 . S
H1035 C1045 0.929 . S
H1036 C1040 0.929 . S
H1037 C1046 0.929 . S
C1038 H1032 0.930 . S
C1038 C1039 1.367 . S
C1038 C1046 1.378 . S
C1039 C1038 1.367 . S
C1039 C1047 1.433 . S
C1040 H1036 0.929 . S
C1040 C1042 1.378 . S
C1040 C1044 1.350 . S
C1041 C1044 1.463 1_545 S
C1041 C1046 1.350 . S
C1041 N1049 1.427 . S
C1042 H1033 0.930 . S
C1042 C1040 1.378 . S
C1042 C1043 1.367 . S
C1043 C1042 1.367 . S
C1043 C1045 1.433 . S
C1044 C1040 1.350 . S
C1044 C1041 1.463 1_565 S
C1044 N1048 1.427 . S
C1045 H1035 0.929 . S
C1045 C1043 1.433 . S
C1045 N1048 1.384 . S
C1046 H1037 0.929 . S
C1046 C1038 1.378 . S
C1046 C1041 1.350 . S
C1047 H1034 0.929 . S
C1047 C1039 1.433 . S
C1047 N1049 1.384 . S
N1048 C1044 1.427 . S
N1048 C1045 1.384 . S
N1049 C1041 1.427 . S
N1049 C1047 1.384 . S
H1050 C1056 0.930 . S
H1051 C1060 0.930 . S
H1052 C1065 0.929 . S
H1053 C1063 0.929 . S
H1054 C1058 0.929 . S
H1055 C1064 0.929 . S
C1056 H1050 0.930 . S
C1056 C1057 1.367 . S
C1056 C1064 1.378 . S
C1057 C1056 1.367 . S
C1057 C1065 1.433 . S
C1058 H1054 0.929 . S
C1058 C1060 1.378 . S
C1058 C1062 1.350 . S
C1059 C1062 1.463 1_455 S
C1059 C1064 1.350 . S
C1059 N1067 1.427 . S
C1060 H1051 0.930 . S
C1060 C1058 1.378 . S
C1060 C1061 1.367 . S
C1061 C1060 1.367 . S
C1061 C1063 1.433 . S
C1062 C1058 1.350 . S
C1062 C1059 1.463 1_655 S
C1062 N1066 1.427 . S
C1063 H1053 0.929 . S
C1063 C1061 1.433 . S
C1063 N1066 1.384 . S
C1064 H1055 0.929 . S
C1064 C1056 1.378 . S
C1064 C1059 1.350 . S
C1065 H1052 0.929 . S
C1065 C1057 1.433 . S
C1065 N1067 1.384 . S
N1066 C1062 1.427 . S
N1066 C1063 1.384 . S
N1067 C1059 1.427 . S
N1067 C1065 1.384 . S
H1068 C1074 0.930 . S
H1069 C1078 0.930 . S
H1070 C1083 0.929 . S
H1071 C1081 0.929 . S
H1072 C1076 0.929 . S
H1073 C1082 0.929 . S
C1074 H1068 0.930 . S
C1074 C1075 1.367 . S
C1074 C1082 1.378 . S
C1075 C1074 1.367 . S
C1075 C1083 1.433 . S
C1076 H1072 0.929 . S
C1076 C1078 1.378 . S
C1076 C1080 1.350 . S
C1077 C1080 1.463 1_545 S
C1077 C1082 1.350 . S
C1077 N1085 1.427 . S
C1078 H1069 0.930 . S
C1078 C1076 1.378 . S
C1078 C1079 1.367 . S
C1079 C1078 1.367 . S
C1079 C1081 1.433 . S
C1080 C1076 1.350 . S
C1080 C1077 1.463 1_565 S
C1080 N1084 1.427 . S
C1081 H1071 0.929 . S
C1081 C1079 1.433 . S
C1081 N1084 1.384 . S
C1082 H1073 0.929 . S
C1082 C1074 1.378 . S
C1082 C1077 1.350 . S
C1083 H1070 0.929 . S
C1083 C1075 1.433 . S
C1083 N1085 1.384 . S
N1084 C1080 1.427 . S
N1084 C1081 1.384 . S
N1085 C1077 1.427 . S
N1085 C1083 1.384 . S
H1086 C1092 0.930 . S
H1087 C1096 0.930 . S
H1088 C1101 0.929 . S
H1089 C1099 0.929 . S
H1090 C1094 0.929 . S
H1091 C1100 0.929 . S
C1092 H1086 0.930 . S
C1092 C1093 1.367 . S
C1092 C1100 1.378 . S
C1093 C1092 1.367 . S
C1093 C1101 1.433 . S
C1094 H1090 0.929 . S
C1094 C1096 1.378 . S
C1094 C1098 1.350 . S
C1095 C1098 1.463 1_545 S
C1095 C1100 1.350 . S
C1095 N1103 1.427 . S
C1096 H1087 0.930 . S
C1096 C1094 1.378 . S
C1096 C1097 1.367 . S
C1097 C1096 1.367 . S
C1097 C1099 1.433 . S
C1098 C1094 1.350 . S
C1098 C1095 1.463 1_565 S
C1098 N1102 1.427 . S
C1099 H1089 0.929 . S
C1099 C1097 1.433 . S
C1099 N1102 1.384 . S
C1100 H1091 0.929 . S
C1100 C1092 1.378 . S
C1100 C1095 1.350 . S
C1101 H1088 0.929 . S
C1101 C1093 1.433 . S
C1101 N1103 1.384 . S
N1102 C1098 1.427 . S
N1102 C1099 1.384 . S
N1103 C1095 1.427 . S
N1103 C1101 1.384 . S
H1104 C1110 0.930 . S
H1105 C1114 0.930 . S
H1106 C1119 0.929 . S
H1107 C1117 0.929 . S
H1108 C1112 0.929 . S
H1109 C1118 0.929 . S
C1110 H1104 0.930 . S
C1110 C1111 1.367 . S
C1110 C1118 1.378 . S
C1111 C1110 1.367 . S
C1111 C1119 1.433 . S
C1112 H1108 0.929 . S
C1112 C1114 1.378 . S
C1112 C1116 1.350 . S
C1113 C1116 1.463 . S
C1113 C1118 1.350 . S
C1113 N1121 1.427 . S
C1114 H1105 0.930 . S
C1114 C1112 1.378 . S
C1114 C1115 1.367 . S
C1115 C1114 1.367 . S
C1115 C1117 1.433 . S
C1116 C1112 1.350 . S
C1116 C1113 1.463 . S
C1116 N1120 1.427 . S
C1117 H1107 0.929 . S
C1117 C1115 1.433 . S
C1117 N1120 1.384 . S
C1118 H1109 0.929 . S
C1118 C1110 1.378 . S
C1118 C1113 1.350 . S
C1119 H1106 0.929 . S
C1119 C1111 1.433 . S
C1119 N1121 1.384 . S
N1120 C1116 1.427 . S
N1120 C1117 1.384 . S
N1121 C1113 1.427 . S
N1121 C1119 1.384 . S
H1122 C1128 0.930 . S
H1123 C1132 0.930 . S
H1124 C1137 0.929 . S
H1125 C1135 0.929 . S
H1126 C1130 0.929 . S
H1127 C1136 0.929 . S
C1128 H1122 0.930 . S
C1128 C1129 1.367 . S
C1128 C1136 1.378 . S
C1129 C1128 1.367 . S
C1129 C1137 1.433 . S
C1130 H1126 0.929 . S
C1130 C1132 1.378 . S
C1130 C1134 1.350 . S
C1131 C1134 1.463 . S
C1131 C1136 1.350 . S
C1131 N1139 1.427 . S
C1132 H1123 0.930 . S
C1132 C1130 1.378 . S
C1132 C1133 1.367 . S
C1133 C1132 1.367 . S
C1133 C1135 1.433 . S
C1134 C1130 1.350 . S
C1134 C1131 1.463 . S
C1134 N1138 1.427 . S
C1135 H1125 0.929 . S
C1135 C1133 1.433 . S
C1135 N1138 1.384 . S
C1136 H1127 0.929 . S
C1136 C1128 1.378 . S
C1136 C1131 1.350 . S
C1137 H1124 0.929 . S
C1137 C1129 1.433 . S
C1137 N1139 1.384 . S
N1138 C1134 1.427 . S
N1138 C1135 1.384 . S
N1139 C1131 1.427 . S
N1139 C1137 1.384 . S
H1140 C1146 0.930 . S
H1141 C1150 0.930 . S
H1142 C1155 0.929 . S
H1143 C1153 0.929 . S
H1144 C1148 0.929 . S
H1145 C1154 0.929 . S
C1146 H1140 0.930 . S
C1146 C1147 1.367 . S
C1146 C1154 1.378 . S
C1147 C1146 1.367 . S
C1147 C1155 1.433 . S
C1148 H1144 0.929 . S
C1148 C1150 1.378 . S
C1148 C1152 1.350 . S
C1149 C1152 1.463 . S
C1149 C1154 1.350 . S
C1149 N1157 1.427 . S
C1150 H1141 0.930 . S
C1150 C1148 1.378 . S
C1150 C1151 1.367 . S
C1151 C1150 1.367 . S
C1151 C1153 1.433 . S
C1152 C1148 1.350 . S
C1152 C1149 1.463 . S
C1152 N1156 1.427 . S
C1153 H1143 0.929 . S
C1153 C1151 1.433 . S
C1153 N1156 1.384 . S
C1154 H1145 0.929 . S
C1154 C1146 1.378 . S
C1154 C1149 1.350 . S
C1155 H1142 0.929 . S
C1155 C1147 1.433 . S
C1155 N1157 1.384 . S
N1156 C1152 1.427 . S
N1156 C1153 1.384 . S
N1157 C1149 1.427 . S
N1157 C1155 1.384 . S
H1158 C1164 0.930 . S
H1159 C1168 0.930 . S
H1160 C1173 0.929 . S
H1161 C1171 0.929 . S
H1162 C1166 0.929 . S
H1163 C1172 0.929 . S
C1164 H1158 0.930 . S
C1164 C1165 1.367 . S
C1164 C1172 1.378 . S
C1165 C1164 1.367 . S
C1165 C1173 1.433 . S
C1166 H1162 0.929 . S
C1166 C1168 1.378 . S
C1166 C1170 1.350 . S
C1167 C1170 1.463 . S
C1167 C1172 1.350 . S
C1167 N1175 1.427 . S
C1168 H1159 0.930 . S
C1168 C1166 1.378 . S
C1168 C1169 1.367 . S
C1169 C1168 1.367 . S
C1169 C1171 1.433 . S
C1170 C1166 1.350 . S
C1170 C1167 1.463 . S
C1170 N1174 1.427 . S
C1171 H1161 0.929 . S
C1171 C1169 1.433 . S
C1171 N1174 1.384 . S
C1172 H1163 0.929 . S
C1172 C1164 1.378 . S
C1172 C1167 1.350 . S
C1173 H1160 0.929 . S
C1173 C1165 1.433 . S
C1173 N1175 1.384 . S
N1174 C1170 1.427 . S
N1174 C1171 1.384 . S
N1175 C1167 1.427 . S
N1175 C1173 1.384 . S
H1176 C1182 0.930 . S
H1177 C1186 0.930 . S
H1178 C1191 0.929 . S
H1179 C1189 0.929 . S
H1180 C1184 0.929 . S
H1181 C1190 0.929 . S
C1182 H1176 0.930 . S
C1182 C1183 1.367 . S
C1182 C1190 1.378 . S
C1183 C1182 1.367 . S
C1183 C1191 1.433 . S
C1184 H1180 0.929 . S
C1184 C1186 1.378 . S
C1184 C1188 1.350 . S
C1185 C1188 1.463 . S
C1185 C1190 1.350 . S
C1185 N1193 1.427 . S
C1186 H1177 0.930 . S
C1186 C1184 1.378 . S
C1186 C1187 1.367 . S
C1187 C1186 1.367 . S
C1187 C1189 1.433 . S
C1188 C1184 1.350 . S
C1188 C1185 1.463 . S
C1188 N1192 1.427 . S
C1189 H1179 0.929 . S
C1189 C1187 1.433 . S
C1189 N1192 1.384 . S
C1190 H1181 0.929 . S
C1190 C1182 1.378 . S
C1190 C1185 1.350 . S
C1191 H1178 0.929 . S
C1191 C1183 1.433 . S
C1191 N1193 1.384 . S
N1192 C1188 1.427 . S
N1192 C1189 1.384 . S
N1193 C1185 1.427 . S
N1193 C1191 1.384 . S
H1194 C1200 0.930 . S
H1195 C1204 0.930 . S
H1196 C1209 0.929 . S
H1197 C1207 0.929 . S
H1198 C1202 0.929 . S
H1199 C1208 0.929 . S
C1200 H1194 0.930 . S
C1200 C1201 1.367 . S
C1200 C1208 1.378 . S
C1201 C1200 1.367 . S
C1201 C1209 1.433 . S
C1202 H1198 0.929 . S
C1202 C1204 1.378 . S
C1202 C1206 1.350 . S
C1203 C1206 1.463 . S
C1203 C1208 1.350 . S
C1203 N1211 1.427 . S
C1204 H1195 0.930 . S
C1204 C1202 1.378 . S
C1204 C1205 1.367 . S
C1205 C1204 1.367 . S
C1205 C1207 1.433 . S
C1206 C1202 1.350 . S
C1206 C1203 1.463 . S
C1206 N1210 1.427 . S
C1207 H1197 0.929 . S
C1207 C1205 1.433 . S
C1207 N1210 1.384 . S
C1208 H1199 0.929 . S
C1208 C1200 1.378 . S
C1208 C1203 1.350 . S
C1209 H1196 0.929 . S
C1209 C1201 1.433 . S
C1209 N1211 1.384 . S
N1210 C1206 1.427 . S
N1210 C1207 1.384 . S
N1211 C1203 1.427 . S
N1211 C1209 1.384 . S
H1212 C1218 0.930 . S
H1213 C1222 0.930 . S
H1214 C1227 0.929 . S
H1215 C1225 0.929 . S
H1216 C1220 0.929 . S
H1217 C1226 0.929 . S
C1218 H1212 0.930 . S
C1218 C1219 1.367 . S
C1218 C1226 1.378 . S
C1219 C1218 1.367 . S
C1219 C1227 1.433 . S
C1220 H1216 0.929 . S
C1220 C1222 1.378 . S
C1220 C1224 1.350 . S
C1221 C1224 1.463 . S
C1221 C1226 1.350 . S
C1221 N1229 1.427 . S
C1222 H1213 0.930 . S
C1222 C1220 1.378 . S
C1222 C1223 1.367 . S
C1223 C1222 1.367 . S
C1223 C1225 1.433 . S
C1224 C1220 1.350 . S
C1224 C1221 1.463 . S
C1224 N1228 1.427 . S
C1225 H1215 0.929 . S
C1225 C1223 1.433 . S
C1225 N1228 1.384 . S
C1226 H1217 0.929 . S
C1226 C1218 1.378 . S
C1226 C1221 1.350 . S
C1227 H1214 0.929 . S
C1227 C1219 1.433 . S
C1227 N1229 1.384 . S
N1228 C1224 1.427 . S
N1228 C1225 1.384 . S
N1229 C1221 1.427 . S
N1229 C1227 1.384 . S
H1230 C1236 0.930 . S
H1231 C1240 0.930 . S
H1232 C1245 0.929 . S
H1233 C1243 0.929 . S
H1234 C1238 0.929 . S
H1235 C1244 0.929 . S
C1236 H1230 0.930 . S
C1236 C1237 1.367 . S
C1236 C1244 1.378 . S
C1237 C1236 1.367 . S
C1237 C1245 1.433 . S
C1238 H1234 0.929 . S
C1238 C1240 1.378 . S
C1238 C1242 1.350 . S
C1239 C1242 1.463 . S
C1239 C1244 1.350 . S
C1239 N1247 1.427 . S
C1240 H1231 0.930 . S
C1240 C1238 1.378 . S
C1240 C1241 1.367 . S
C1241 C1240 1.367 . S
C1241 C1243 1.433 . S
C1242 C1238 1.350 . S
C1242 C1239 1.463 . S
C1242 N1246 1.427 . S
C1243 H1233 0.929 . S
C1243 C1241 1.433 . S
C1243 N1246 1.384 . S
C1244 H1235 0.929 . S
C1244 C1236 1.378 . S
C1244 C1239 1.350 . S
C1245 H1232 0.929 . S
C1245 C1237 1.433 . S
C1245 N1247 1.384 . S
N1246 C1242 1.427 . S
N1246 C1243 1.384 . S
N1247 C1239 1.427 . S
N1247 C1245 1.384 . S
H1248 C1254 0.930 . S
H1249 C1258 0.930 . S
H1250 C1263 0.929 . S
H1251 C1261 0.929 . S
H1252 C1256 0.929 . S
H1253 C1262 0.929 . S
C1254 H1248 0.930 . S
C1254 C1255 1.367 . S
C1254 C1262 1.378 . S
C1255 C1254 1.367 . S
C1255 C1263 1.433 . S
C1256 H1252 0.929 . S
C1256 C1258 1.378 . S
C1256 C1260 1.350 . S
C1257 C1260 1.463 . S
C1257 C1262 1.350 . S
C1257 N1265 1.427 . S
C1258 H1249 0.930 . S
C1258 C1256 1.378 . S
C1258 C1259 1.367 . S
C1259 C1258 1.367 . S
C1259 C1261 1.433 . S
C1260 C1256 1.350 . S
C1260 C1257 1.463 . S
C1260 N1264 1.427 . S
C1261 H1251 0.929 . S
C1261 C1259 1.433 . S
C1261 N1264 1.384 . S
C1262 H1253 0.929 . S
C1262 C1254 1.378 . S
C1262 C1257 1.350 . S
C1263 H1250 0.929 . S
C1263 C1255 1.433 . S
C1263 N1265 1.384 . S
N1264 C1260 1.427 . S
N1264 C1261 1.384 . S
N1265 C1257 1.427 . S
N1265 C1263 1.384 . S
H1266 C1272 0.930 . S
H1267 C1276 0.930 . S
H1268 C1281 0.929 . S
H1269 C1279 0.929 . S
H1270 C1274 0.929 . S
H1271 C1280 0.929 . S
C1272 H1266 0.930 . S
C1272 C1273 1.367 . S
C1272 C1280 1.378 . S
C1273 C1272 1.367 . S
C1273 C1281 1.433 . S
C1274 H1270 0.929 . S
C1274 C1276 1.378 . S
C1274 C1278 1.350 . S
C1275 C1278 1.463 . S
C1275 C1280 1.350 . S
C1275 N1283 1.427 . S
C1276 H1267 0.930 . S
C1276 C1274 1.378 . S
C1276 C1277 1.367 . S
C1277 C1276 1.367 . S
C1277 C1279 1.433 . S
C1278 C1274 1.350 . S
C1278 C1275 1.463 . S
C1278 N1282 1.427 . S
C1279 H1269 0.929 . S
C1279 C1277 1.433 . S
C1279 N1282 1.384 . S
C1280 H1271 0.929 . S
C1280 C1272 1.378 . S
C1280 C1275 1.350 . S
C1281 H1268 0.929 . S
C1281 C1273 1.433 . S
C1281 N1283 1.384 . S
N1282 C1278 1.427 . S
N1282 C1279 1.384 . S
N1283 C1275 1.427 . S
N1283 C1281 1.384 . S
H1284 C1290 0.930 . S
H1285 C1294 0.930 . S
H1286 C1299 0.929 . S
H1287 C1297 0.929 . S
H1288 C1292 0.929 . S
H1289 C1298 0.929 . S
C1290 H1284 0.930 . S
C1290 C1291 1.367 . S
C1290 C1298 1.378 . S
C1291 C1290 1.367 . S
C1291 C1299 1.433 . S
C1292 H1288 0.929 . S
C1292 C1294 1.378 . S
C1292 C1296 1.350 . S
C1293 C1296 1.463 . S
C1293 C1298 1.350 . S
C1293 N1301 1.427 . S
C1294 H1285 0.930 . S
C1294 C1292 1.378 . S
C1294 C1295 1.367 . S
C1295 C1294 1.367 . S
C1295 C1297 1.433 . S
C1296 C1292 1.350 . S
C1296 C1293 1.463 . S
C1296 N1300 1.427 . S
C1297 H1287 0.929 . S
C1297 C1295 1.433 . S
C1297 N1300 1.384 . S
C1298 H1289 0.929 . S
C1298 C1290 1.378 . S
C1298 C1293 1.350 . S
C1299 H1286 0.929 . S
C1299 C1291 1.433 . S
C1299 N1301 1.384 . S
N1300 C1296 1.427 . S
N1300 C1297 1.384 . S
N1301 C1293 1.427 . S
N1301 C1299 1.384 . S
H1302 C1308 0.930 . S
H1303 C1312 0.930 . S
H1304 C1317 0.929 . S
H1305 C1315 0.929 . S
H1306 C1310 0.929 . S
H1307 C1316 0.929 . S
C1308 H1302 0.930 . S
C1308 C1309 1.367 . S
C1308 C1316 1.378 . S
C1309 C1308 1.367 . S
C1309 C1317 1.433 . S
C1310 H1306 0.929 . S
C1310 C1312 1.378 . S
C1310 C1314 1.350 . S
C1311 C1314 1.463 . S
C1311 C1316 1.350 . S
C1311 N1319 1.427 . S
C1312 H1303 0.930 . S
C1312 C1310 1.378 . S
C1312 C1313 1.367 . S
C1313 C1312 1.367 . S
C1313 C1315 1.433 . S
C1314 C1310 1.350 . S
C1314 C1311 1.463 . S
C1314 N1318 1.427 . S
C1315 H1305 0.929 . S
C1315 C1313 1.433 . S
C1315 N1318 1.384 . S
C1316 H1307 0.929 . S
C1316 C1308 1.378 . S
C1316 C1311 1.350 . S
C1317 H1304 0.929 . S
C1317 C1309 1.433 . S
C1317 N1319 1.384 . S
N1318 C1314 1.427 . S
N1318 C1315 1.384 . S
N1319 C1311 1.427 . S
N1319 C1317 1.384 . S
H1320 C1326 0.930 . S
H1321 C1330 0.930 . S
H1322 C1335 0.929 . S
H1323 C1333 0.929 . S
H1324 C1328 0.929 . S
H1325 C1334 0.929 . S
C1326 H1320 0.930 . S
C1326 C1327 1.367 . S
C1326 C1334 1.378 . S
C1327 C1326 1.367 . S
C1327 C1335 1.433 . S
C1328 H1324 0.929 . S
C1328 C1330 1.378 . S
C1328 C1332 1.350 . S
C1329 C1332 1.463 . S
C1329 C1334 1.350 . S
C1329 N1337 1.427 . S
C1330 H1321 0.930 . S
C1330 C1328 1.378 . S
C1330 C1331 1.367 . S
C1331 C1330 1.367 . S
C1331 C1333 1.433 . S
C1332 C1328 1.350 . S
C1332 C1329 1.463 . S
C1332 N1336 1.427 . S
C1333 H1323 0.929 . S
C1333 C1331 1.433 . S
C1333 N1336 1.384 . S
C1334 H1325 0.929 . S
C1334 C1326 1.378 . S
C1334 C1329 1.350 . S
C1335 H1322 0.929 . S
C1335 C1327 1.433 . S
C1335 N1337 1.384 . S
N1336 C1332 1.427 . S
N1336 C1333 1.384 . S
N1337 C1329 1.427 . S
N1337 C1335 1.384 . S
H1338 C1344 0.930 . S
H1339 C1348 0.930 . S
H1340 C1353 0.929 . S
H1341 C1351 0.929 . S
H1342 C1346 0.929 . S
H1343 C1352 0.929 . S
C1344 H1338 0.930 . S
C1344 C1345 1.367 . S
C1344 C1352 1.378 . S
C1345 C1344 1.367 . S
C1345 C1353 1.433 . S
C1346 H1342 0.929 . S
C1346 C1348 1.378 . S
C1346 C1350 1.350 . S
C1347 C1350 1.463 . S
C1347 C1352 1.350 . S
C1347 N1355 1.427 . S
C1348 H1339 0.930 . S
C1348 C1346 1.378 . S
C1348 C1349 1.367 . S
C1349 C1348 1.367 . S
C1349 C1351 1.433 . S
C1350 C1346 1.350 . S
C1350 C1347 1.463 . S
C1350 N1354 1.427 . S
C1351 H1341 0.929 . S
C1351 C1349 1.433 . S
C1351 N1354 1.384 . S
C1352 H1343 0.929 . S
C1352 C1344 1.378 . S
C1352 C1347 1.350 . S
C1353 H1340 0.929 . S
C1353 C1345 1.433 . S
C1353 N1355 1.384 . S
N1354 C1350 1.427 . S
N1354 C1351 1.384 . S
N1355 C1347 1.427 . S
N1355 C1353 1.384 . S
H1356 C1362 0.930 . S
H1357 C1366 0.930 . S
H1358 C1371 0.929 . S
H1359 C1369 0.929 . S
H1360 C1364 0.929 . S
H1361 C1370 0.929 . S
C1362 H1356 0.930 . S
C1362 C1363 1.367 . S
C1362 C1370 1.378 . S
C1363 C1362 1.367 . S
C1363 C1371 1.433 . S
C1364 H1360 0.929 . S
C1364 C1366 1.378 . S
C1364 C1368 1.350 . S
C1365 C1368 1.463 . S
C1365 C1370 1.350 . S
C1365 N1373 1.427 . S
C1366 H1357 0.930 . S
C1366 C1364 1.378 . S
C1366 C1367 1.367 . S
C1367 C1366 1.367 . S
C1367 C1369 1.433 . S
C1368 C1364 1.350 . S
C1368 C1365 1.463 . S
C1368 N1372 1.427 . S
C1369 H1359 0.929 . S
C1369 C1367 1.433 . S
C1369 N1372 1.384 . S
C1370 H1361 0.929 . S
C1370 C1362 1.378 . S
C1370 C1365 1.350 . S
C1371 H1358 0.929 . S
C1371 C1363 1.433 . S
C1371 N1373 1.384 . S
N1372 C1368 1.427 . S
N1372 C1369 1.384 . S
N1373 C1365 1.427 . S
N1373 C1371 1.384 . S
H1374 C1380 0.930 . S
H1375 C1384 0.930 . S
H1376 C1389 0.929 . S
H1377 C1387 0.929 . S
H1378 C1382 0.929 . S
H1379 C1388 0.929 . S
C1380 H1374 0.930 . S
C1380 C1381 1.367 . S
C1380 C1388 1.378 . S
C1381 C1380 1.367 . S
C1381 C1389 1.433 . S
C1382 H1378 0.929 . S
C1382 C1384 1.378 . S
C1382 C1386 1.350 . S
C1383 C1386 1.463 . S
C1383 C1388 1.350 . S
C1383 N1391 1.427 . S
C1384 H1375 0.930 . S
C1384 C1382 1.378 . S
C1384 C1385 1.367 . S
C1385 C1384 1.367 . S
C1385 C1387 1.433 . S
C1386 C1382 1.350 . S
C1386 C1383 1.463 . S
C1386 N1390 1.427 . S
C1387 H1377 0.929 . S
C1387 C1385 1.433 . S
C1387 N1390 1.384 . S
C1388 H1379 0.929 . S
C1388 C1380 1.378 . S
C1388 C1383 1.350 . S
C1389 H1376 0.929 . S
C1389 C1381 1.433 . S
C1389 N1391 1.384 . S
N1390 C1386 1.427 . S
N1390 C1387 1.384 . S
N1391 C1383 1.427 . S
N1391 C1389 1.384 . S
H1392 C1398 0.930 . S
H1393 C1402 0.930 . S
H1394 C1407 0.929 . S
H1395 C1405 0.929 . S
H1396 C1400 0.929 . S
H1397 C1406 0.929 . S
C1398 H1392 0.930 . S
C1398 C1399 1.367 . S
C1398 C1406 1.378 . S
C1399 C1398 1.367 . S
C1399 C1407 1.433 . S
C1400 H1396 0.929 . S
C1400 C1402 1.378 . S
C1400 C1404 1.350 . S
C1401 C1404 1.463 . S
C1401 C1406 1.350 . S
C1401 N1409 1.427 . S
C1402 H1393 0.930 . S
C1402 C1400 1.378 . S
C1402 C1403 1.367 . S
C1403 C1402 1.367 . S
C1403 C1405 1.433 . S
C1404 C1400 1.350 . S
C1404 C1401 1.463 . S
C1404 N1408 1.427 . S
C1405 H1395 0.929 . S
C1405 C1403 1.433 . S
C1405 N1408 1.384 . S
C1406 H1397 0.929 . S
C1406 C1398 1.378 . S
C1406 C1401 1.350 . S
C1407 H1394 0.929 . S
C1407 C1399 1.433 . S
C1407 N1409 1.384 . S
N1408 C1404 1.427 . S
N1408 C1405 1.384 . S
N1409 C1401 1.427 . S
N1409 C1407 1.384 . S
H1410 C1416 0.930 . S
H1411 C1420 0.930 . S
H1412 C1425 0.929 . S
H1413 C1423 0.929 . S
H1414 C1418 0.929 . S
H1415 C1424 0.929 . S
C1416 H1410 0.930 . S
C1416 C1417 1.367 . S
C1416 C1424 1.378 . S
C1417 C1416 1.367 . S
C1417 C1425 1.433 . S
C1418 H1414 0.929 . S
C1418 C1420 1.378 . S
C1418 C1422 1.350 . S
C1419 C1422 1.463 . S
C1419 C1424 1.350 . S
C1419 N1427 1.427 . S
C1420 H1411 0.930 . S
C1420 C1418 1.378 . S
C1420 C1421 1.367 . S
C1421 C1420 1.367 . S
C1421 C1423 1.433 . S
C1422 C1418 1.350 . S
C1422 C1419 1.463 . S
C1422 N1426 1.427 . S
C1423 H1413 0.929 . S
C1423 C1421 1.433 . S
C1423 N1426 1.384 . S
C1424 H1415 0.929 . S
C1424 C1416 1.378 . S
C1424 C1419 1.350 . S
C1425 H1412 0.929 . S
C1425 C1417 1.433 . S
C1425 N1427 1.384 . S
N1426 C1422 1.427 . S
N1426 C1423 1.384 . S
N1427 C1419 1.427 . S
N1427 C1425 1.384 . S
H1428 C1434 0.930 . S
H1429 C1438 0.930 . S
H1430 C1443 0.929 . S
H1431 C1441 0.929 . S
H1432 C1436 0.929 . S
H1433 C1442 0.929 . S
C1434 H1428 0.930 . S
C1434 C1435 1.367 . S
C1434 C1442 1.378 . S
C1435 C1434 1.367 . S
C1435 C1443 1.433 . S
C1436 H1432 0.929 . S
C1436 C1438 1.378 . S
C1436 C1440 1.350 . S
C1437 C1440 1.463 . S
C1437 C1442 1.350 . S
C1437 N1445 1.427 . S
C1438 H1429 0.930 . S
C1438 C1436 1.378 . S
C1438 C1439 1.367 . S
C1439 C1438 1.367 . S
C1439 C1441 1.433 . S
C1440 C1436 1.350 . S
C1440 C1437 1.463 . S
C1440 N1444 1.427 . S
C1441 H1431 0.929 . S
C1441 C1439 1.433 . S
C1441 N1444 1.384 . S
C1442 H1433 0.929 . S
C1442 C1434 1.378 . S
C1442 C1437 1.350 . S
C1443 H1430 0.929 . S
C1443 C1435 1.433 . S
C1443 N1445 1.384 . S
N1444 C1440 1.427 . S
N1444 C1441 1.384 . S
N1445 C1437 1.427 . S
N1445 C1443 1.384 . S
H1446 C1452 0.930 . S
H1447 C1456 0.930 . S
H1448 C1461 0.929 . S
H1449 C1459 0.929 . S
H1450 C1454 0.929 . S
H1451 C1460 0.929 . S
C1452 H1446 0.930 . S
C1452 C1453 1.367 . S
C1452 C1460 1.378 . S
C1453 C1452 1.367 . S
C1453 C1461 1.433 . S
C1454 H1450 0.929 . S
C1454 C1456 1.378 . S
C1454 C1458 1.350 . S
C1455 C1458 1.463 . S
C1455 C1460 1.350 . S
C1455 N1463 1.427 . S
C1456 H1447 0.930 . S
C1456 C1454 1.378 . S
C1456 C1457 1.367 . S
C1457 C1456 1.367 . S
C1457 C1459 1.433 . S
C1458 C1454 1.350 . S
C1458 C1455 1.463 . S
C1458 N1462 1.427 . S
C1459 H1449 0.929 . S
C1459 C1457 1.433 . S
C1459 N1462 1.384 . S
C1460 H1451 0.929 . S
C1460 C1452 1.378 . S
C1460 C1455 1.350 . S
C1461 H1448 0.929 . S
C1461 C1453 1.433 . S
C1461 N1463 1.384 . S
N1462 C1458 1.427 . S
N1462 C1459 1.384 . S
N1463 C1455 1.427 . S
N1463 C1461 1.384 . S
H1464 C1470 0.930 . S
H1465 C1474 0.930 . S
H1466 C1479 0.929 . S
H1467 C1477 0.929 . S
H1468 C1472 0.929 . S
H1469 C1478 0.929 . S
C1470 H1464 0.930 . S
C1470 C1471 1.367 . S
C1470 C1478 1.378 . S
C1471 C1470 1.367 . S
C1471 C1479 1.433 . S
C1472 H1468 0.929 . S
C1472 C1474 1.378 . S
C1472 C1476 1.350 . S
C1473 C1476 1.463 . S
C1473 C1478 1.350 . S
C1473 N1481 1.427 . S
C1474 H1465 0.930 . S
C1474 C1472 1.378 . S
C1474 C1475 1.367 . S
C1475 C1474 1.367 . S
C1475 C1477 1.433 . S
C1476 C1472 1.350 . S
C1476 C1473 1.463 . S
C1476 N1480 1.427 . S
C1477 H1467 0.929 . S
C1477 C1475 1.433 . S
C1477 N1480 1.384 . S
C1478 H1469 0.929 . S
C1478 C1470 1.378 . S
C1478 C1473 1.350 . S
C1479 H1466 0.929 . S
C1479 C1471 1.433 . S
C1479 N1481 1.384 . S
N1480 C1476 1.427 . S
N1480 C1477 1.384 . S
N1481 C1473 1.427 . S
N1481 C1479 1.384 . S
H1482 C1488 0.930 . S
H1483 C1492 0.930 . S
H1484 C1497 0.929 . S
H1485 C1495 0.929 . S
H1486 C1490 0.929 . S
H1487 C1496 0.929 . S
C1488 H1482 0.930 . S
C1488 C1489 1.367 . S
C1488 C1496 1.378 . S
C1489 C1488 1.367 . S
C1489 C1497 1.433 . S
C1490 H1486 0.929 . S
C1490 C1492 1.378 . S
C1490 C1494 1.350 . S
C1491 C1494 1.463 . S
C1491 C1496 1.350 . S
C1491 N1499 1.427 . S
C1492 H1483 0.930 . S
C1492 C1490 1.378 . S
C1492 C1493 1.367 . S
C1493 C1492 1.367 . S
C1493 C1495 1.433 . S
C1494 C1490 1.350 . S
C1494 C1491 1.463 . S
C1494 N1498 1.427 . S
C1495 H1485 0.929 . S
C1495 C1493 1.433 . S
C1495 N1498 1.384 . S
C1496 H1487 0.929 . S
C1496 C1488 1.378 . S
C1496 C1491 1.350 . S
C1497 H1484 0.929 . S
C1497 C1489 1.433 . S
C1497 N1499 1.384 . S
N1498 C1494 1.427 . S
N1498 C1495 1.384 . S
N1499 C1491 1.427 . S
N1499 C1497 1.384 . S
H1500 C1506 0.930 . S
H1501 C1510 0.930 . S
H1502 C1515 0.929 . S
H1503 C1513 0.929 . S
H1504 C1508 0.929 . S
H1505 C1514 0.929 . S
C1506 H1500 0.930 . S
C1506 C1507 1.367 . S
C1506 C1514 1.378 . S
C1507 C1506 1.367 . S
C1507 C1515 1.433 . S
C1508 H1504 0.929 . S
C1508 C1510 1.378 . S
C1508 C1512 1.350 . S
C1509 C1512 1.463 . S
C1509 C1514 1.350 . S
C1509 N1517 1.427 . S
C1510 H1501 0.930 . S
C1510 C1508 1.378 . S
C1510 C1511 1.367 . S
C1511 C1510 1.367 . S
C1511 C1513 1.433 . S
C1512 C1508 1.350 . S
C1512 C1509 1.463 . S
C1512 N1516 1.427 . S
C1513 H1503 0.929 . S
C1513 C1511 1.433 . S
C1513 N1516 1.384 . S
C1514 H1505 0.929 . S
C1514 C1506 1.378 . S
C1514 C1509 1.350 . S
C1515 H1502 0.929 . S
C1515 C1507 1.433 . S
C1515 N1517 1.384 . S
N1516 C1512 1.427 . S
N1516 C1513 1.384 . S
N1517 C1509 1.427 . S
N1517 C1515 1.384 . S
H1518 C1524 0.930 . S
H1519 C1528 0.930 . S
H1520 C1533 0.929 . S
H1521 C1531 0.929 . S
H1522 C1526 0.929 . S
H1523 C1532 0.929 . S
C1524 H1518 0.930 . S
C1524 C1525 1.367 . S
C1524 C1532 1.378 . S
C1525 C1524 1.367 . S
C1525 C1533 1.433 . S
C1526 H1522 0.929 . S
C1526 C1528 1.378 . S
C1526 C1530 1.350 . S
C1527 C1530 1.463 . S
C1527 C1532 1.350 . S
C1527 N1535 1.427 . S
C1528 H1519 0.930 . S
C1528 C1526 1.378 . S
C1528 C1529 1.367 . S
C1529 C1528 1.367 . S
C1529 C1531 1.433 . S
C1530 C1526 1.350 . S
C1530 C1527 1.463 . S
C1530 N1534 1.427 . S
C1531 H1521 0.929 . S
C1531 C1529 1.433 . S
C1531 N1534 1.384 . S
C1532 H1523 0.929 . S
C1532 C1524 1.378 . S
C1532 C1527 1.350 . S
C1533 H1520 0.929 . S
C1533 C1525 1.433 . S
C1533 N1535 1.384 . S
N1534 C1530 1.427 . S
N1534 C1531 1.384 . S
N1535 C1527 1.427 . S
N1535 C1533 1.384 . S
H1536 C1542 0.930 . S
H1537 C1546 0.930 . S
H1538 C1551 0.929 . S
H1539 C1549 0.929 . S
H1540 C1544 0.929 . S
H1541 C1550 0.929 . S
C1542 H1536 0.930 . S
C1542 C1543 1.367 . S
C1542 C1550 1.378 . S
C1543 C1542 1.367 . S
C1543 C1551 1.433 . S
C1544 H1540 0.929 . S
C1544 C1546 1.378 . S
C1544 C1548 1.350 . S
C1545 C1548 1.463 . S
C1545 C1550 1.350 . S
C1545 N1553 1.427 . S
C1546 H1537 0.930 . S
C1546 C1544 1.378 . S
C1546 C1547 1.367 . S
C1547 C1546 1.367 . S
C1547 C1549 1.433 . S
C1548 C1544 1.350 . S
C1548 C1545 1.463 . S
C1548 N1552 1.427 . S
C1549 H1539 0.929 . S
C1549 C1547 1.433 . S
C1549 N1552 1.384 . S
C1550 H1541 0.929 . S
C1550 C1542 1.378 . S
C1550 C1545 1.350 . S
C1551 H1538 0.929 . S
C1551 C1543 1.433 . S
C1551 N1553 1.384 . S
N1552 C1548 1.427 . S
N1552 C1549 1.384 . S
N1553 C1545 1.427 . S
N1553 C1551 1.384 . S
H1554 C1560 0.930 . S
H1555 C1564 0.930 . S
H1556 C1569 0.929 . S
H1557 C1567 0.929 . S
H1558 C1562 0.929 . S
H1559 C1568 0.929 . S
C1560 H1554 0.930 . S
C1560 C1561 1.367 . S
C1560 C1568 1.378 . S
C1561 C1560 1.367 . S
C1561 C1569 1.433 . S
C1562 H1558 0.929 . S
C1562 C1564 1.378 . S
C1562 C1566 1.350 . S
C1563 C1566 1.463 . S
C1563 C1568 1.350 . S
C1563 N1571 1.427 . S
C1564 H1555 0.930 . S
C1564 C1562 1.378 . S
C1564 C1565 1.367 . S
C1565 C1564 1.367 . S
C1565 C1567 1.433 . S
C1566 C1562 1.350 . S
C1566 C1563 1.463 . S
C1566 N1570 1.427 . S
C1567 H1557 0.929 . S
C1567 C1565 1.433 . S
C1567 N1570 1.384 . S
C1568 H1559 0.929 . S
C1568 C1560 1.378 . S
C1568 C1563 1.350 . S
C1569 H1556 0.929 . S
C1569 C1561 1.433 . S
C1569 N1571 1.384 . S
N1570 C1566 1.427 . S
N1570 C1567 1.384 . S
N1571 C1563 1.427 . S
N1571 C1569 1.384 . S
H1572 C1578 0.930 . S
H1573 C1582 0.930 . S
H1574 C1587 0.929 . S
H1575 C1585 0.929 . S
H1576 C1580 0.929 . S
H1577 C1586 0.929 . S
C1578 H1572 0.930 . S
C1578 C1579 1.367 . S
C1578 C1586 1.378 . S
C1579 C1578 1.367 . S
C1579 C1587 1.433 . S
C1580 H1576 0.929 . S
C1580 C1582 1.378 . S
C1580 C1584 1.350 . S
C1581 C1584 1.463 . S
C1581 C1586 1.350 . S
C1581 N1589 1.427 . S
C1582 H1573 0.930 . S
C1582 C1580 1.378 . S
C1582 C1583 1.367 . S
C1583 C1582 1.367 . S
C1583 C1585 1.433 . S
C1584 C1580 1.350 . S
C1584 C1581 1.463 . S
C1584 N1588 1.427 . S
C1585 H1575 0.929 . S
C1585 C1583 1.433 . S
C1585 N1588 1.384 . S
C1586 H1577 0.929 . S
C1586 C1578 1.378 . S
C1586 C1581 1.350 . S
C1587 H1574 0.929 . S
C1587 C1579 1.433 . S
C1587 N1589 1.384 . S
N1588 C1584 1.427 . S
N1588 C1585 1.384 . S
N1589 C1581 1.427 . S
N1589 C1587 1.384 . S
H1590 C1596 0.930 . S
H1591 C1600 0.930 . S
H1592 C1605 0.929 . S
H1593 C1603 0.929 . S
H1594 C1598 0.929 . S
H1595 C1604 0.929 . S
C1596 H1590 0.930 . S
C1596 C1597 1.367 . S
C1596 C1604 1.378 . S
C1597 C1596 1.367 . S
C1597 C1605 1.433 . S
C1598 H1594 0.929 . S
C1598 C1600 1.378 . S
C1598 C1602 1.350 . S
C1599 C1602 1.463 . S
C1599 C1604 1.350 . S
C1599 N1607 1.427 . S
C1600 H1591 0.930 . S
C1600 C1598 1.378 . S
C1600 C1601 1.367 . S
C1601 C1600 1.367 . S
C1601 C1603 1.433 . S
C1602 C1598 1.350 . S
C1602 C1599 1.463 . S
C1602 N1606 1.427 . S
C1603 H1593 0.929 . S
C1603 C1601 1.433 . S
C1603 N1606 1.384 . S
C1604 H1595 0.929 . S
C1604 C1596 1.378 . S
C1604 C1599 1.350 . S
C1605 H1592 0.929 . S
C1605 C1597 1.433 . S
C1605 N1607 1.384 . S
N1606 C1602 1.427 . S
N1606 C1603 1.384 . S
N1607 C1599 1.427 . S
N1607 C1605 1.384 . S
H1608 C1614 0.930 . S
H1609 C1618 0.930 . S
H1610 C1623 0.929 . S
H1611 C1621 0.929 . S
H1612 C1616 0.929 . S
H1613 C1622 0.929 . S
C1614 H1608 0.930 . S
C1614 C1615 1.367 . S
C1614 C1622 1.378 . S
C1615 C1614 1.367 . S
C1615 C1623 1.433 . S
C1616 H1612 0.929 . S
C1616 C1618 1.378 . S
C1616 C1620 1.350 . S
C1617 C1620 1.463 . S
C1617 C1622 1.350 . S
C1617 N1625 1.427 . S
C1618 H1609 0.930 . S
C1618 C1616 1.378 . S
C1618 C1619 1.367 . S
C1619 C1618 1.367 . S
C1619 C1621 1.433 . S
C1620 C1616 1.350 . S
C1620 C1617 1.463 . S
C1620 N1624 1.427 . S
C1621 H1611 0.929 . S
C1621 C1619 1.433 . S
C1621 N1624 1.384 . S
C1622 H1613 0.929 . S
C1622 C1614 1.378 . S
C1622 C1617 1.350 . S
C1623 H1610 0.929 . S
C1623 C1615 1.433 . S
C1623 N1625 1.384 . S
N1624 C1620 1.427 . S
N1624 C1621 1.384 . S
N1625 C1617 1.427 . S
N1625 C1623 1.384 . S
H1626 C1632 0.930 . S
H1627 C1636 0.930 . S
H1628 C1641 0.929 . S
H1629 C1639 0.929 . S
H1630 C1634 0.929 . S
H1631 C1640 0.929 . S
C1632 H1626 0.930 . S
C1632 C1633 1.367 . S
C1632 C1640 1.378 . S
C1633 C1632 1.367 . S
C1633 C1641 1.433 . S
C1634 H1630 0.929 . S
C1634 C1636 1.378 . S
C1634 C1638 1.350 . S
C1635 C1638 1.463 . S
C1635 C1640 1.350 . S
C1635 N1643 1.427 . S
C1636 H1627 0.930 . S
C1636 C1634 1.378 . S
C1636 C1637 1.367 . S
C1637 C1636 1.367 . S
C1637 C1639 1.433 . S
C1638 C1634 1.350 . S
C1638 C1635 1.463 . S
C1638 N1642 1.427 . S
C1639 H1629 0.929 . S
C1639 C1637 1.433 . S
C1639 N1642 1.384 . S
C1640 H1631 0.929 . S
C1640 C1632 1.378 . S
C1640 C1635 1.350 . S
C1641 H1628 0.929 . S
C1641 C1633 1.433 . S
C1641 N1643 1.384 . S
N1642 C1638 1.427 . S
N1642 C1639 1.384 . S
N1643 C1635 1.427 . S
N1643 C1641 1.384 . S
H1644 C1650 0.930 . S
H1645 C1654 0.930 . S
H1646 C1659 0.929 . S
H1647 C1657 0.929 . S
H1648 C1652 0.929 . S
H1649 C1658 0.929 . S
C1650 H1644 0.930 . S
C1650 C1651 1.367 . S
C1650 C1658 1.378 . S
C1651 C1650 1.367 . S
C1651 C1659 1.433 . S
C1652 H1648 0.929 . S
C1652 C1654 1.378 . S
C1652 C1656 1.350 . S
C1653 C1656 1.463 . S
C1653 C1658 1.350 . S
C1653 N1661 1.427 . S
C1654 H1645 0.930 . S
C1654 C1652 1.378 . S
C1654 C1655 1.367 . S
C1655 C1654 1.367 . S
C1655 C1657 1.433 . S
C1656 C1652 1.350 . S
C1656 C1653 1.463 . S
C1656 N1660 1.427 . S
C1657 H1647 0.929 . S
C1657 C1655 1.433 . S
C1657 N1660 1.384 . S
C1658 H1649 0.929 . S
C1658 C1650 1.378 . S
C1658 C1653 1.350 . S
C1659 H1646 0.929 . S
C1659 C1651 1.433 . S
C1659 N1661 1.384 . S
N1660 C1656 1.427 . S
N1660 C1657 1.384 . S
N1661 C1653 1.427 . S
N1661 C1659 1.384 . S
H1662 C1668 0.930 . S
H1663 C1672 0.930 . S
H1664 C1677 0.929 . S
H1665 C1675 0.929 . S
H1666 C1670 0.929 . S
H1667 C1676 0.929 . S
C1668 H1662 0.930 . S
C1668 C1669 1.367 . S
C1668 C1676 1.378 . S
C1669 C1668 1.367 . S
C1669 C1677 1.433 . S
C1670 H1666 0.929 . S
C1670 C1672 1.378 . S
C1670 C1674 1.350 . S
C1671 C1674 1.463 . S
C1671 C1676 1.350 . S
C1671 N1679 1.427 . S
C1672 H1663 0.930 . S
C1672 C1670 1.378 . S
C1672 C1673 1.367 . S
C1673 C1672 1.367 . S
C1673 C1675 1.433 . S
C1674 C1670 1.350 . S
C1674 C1671 1.463 . S
C1674 N1678 1.427 . S
C1675 H1665 0.929 . S
C1675 C1673 1.433 . S
C1675 N1678 1.384 . S
C1676 H1667 0.929 . S
C1676 C1668 1.378 . S
C1676 C1671 1.350 . S
C1677 H1664 0.929 . S
C1677 C1669 1.433 . S
C1677 N1679 1.384 . S
N1678 C1674 1.427 . S
N1678 C1675 1.384 . S
N1679 C1671 1.427 . S
N1679 C1677 1.384 . S
H1680 C1686 0.930 . S
H1681 C1690 0.930 . S
H1682 C1695 0.929 . S
H1683 C1693 0.929 . S
H1684 C1688 0.929 . S
H1685 C1694 0.929 . S
C1686 H1680 0.930 . S
C1686 C1687 1.367 . S
C1686 C1694 1.378 . S
C1687 C1686 1.367 . S
C1687 C1695 1.433 . S
C1688 H1684 0.929 . S
C1688 C1690 1.378 . S
C1688 C1692 1.350 . S
C1689 C1692 1.463 . S
C1689 C1694 1.350 . S
C1689 N1697 1.427 . S
C1690 H1681 0.930 . S
C1690 C1688 1.378 . S
C1690 C1691 1.367 . S
C1691 C1690 1.367 . S
C1691 C1693 1.433 . S
C1692 C1688 1.350 . S
C1692 C1689 1.463 . S
C1692 N1696 1.427 . S
C1693 H1683 0.929 . S
C1693 C1691 1.433 . S
C1693 N1696 1.384 . S
C1694 H1685 0.929 . S
C1694 C1686 1.378 . S
C1694 C1689 1.350 . S
C1695 H1682 0.929 . S
C1695 C1687 1.433 . S
C1695 N1697 1.384 . S
N1696 C1692 1.427 . S
N1696 C1693 1.384 . S
N1697 C1689 1.427 . S
N1697 C1695 1.384 . S
H1698 C1704 0.930 . S
H1699 C1708 0.930 . S
H1700 C1713 0.929 . S
H1701 C1711 0.929 . S
H1702 C1706 0.929 . S
H1703 C1712 0.929 . S
C1704 H1698 0.930 . S
C1704 C1705 1.367 . S
C1704 C1712 1.378 . S
C1705 C1704 1.367 . S
C1705 C1713 1.433 . S
C1706 H1702 0.929 . S
C1706 C1708 1.378 . S
C1706 C1710 1.350 . S
C1707 C1710 1.463 . S
C1707 C1712 1.350 . S
C1707 N1715 1.427 . S
C1708 H1699 0.930 . S
C1708 C1706 1.378 . S
C1708 C1709 1.367 . S
C1709 C1708 1.367 . S
C1709 C1711 1.433 . S
C1710 C1706 1.350 . S
C1710 C1707 1.463 . S
C1710 N1714 1.427 . S
C1711 H1701 0.929 . S
C1711 C1709 1.433 . S
C1711 N1714 1.384 . S
C1712 H1703 0.929 . S
C1712 C1704 1.378 . S
C1712 C1707 1.350 . S
C1713 H1700 0.929 . S
C1713 C1705 1.433 . S
C1713 N1715 1.384 . S
N1714 C1710 1.427 . S
N1714 C1711 1.384 . S
N1715 C1707 1.427 . S
N1715 C1713 1.384 . S
H1716 C1722 0.930 . S
H1717 C1726 0.930 . S
H1718 C1731 0.929 . S
H1719 C1729 0.929 . S
H1720 C1724 0.929 . S
H1721 C1730 0.929 . S
C1722 H1716 0.930 . S
C1722 C1723 1.367 . S
C1722 C1730 1.378 . S
C1723 C1722 1.367 . S
C1723 C1731 1.433 . S
C1724 H1720 0.929 . S
C1724 C1726 1.378 . S
C1724 C1728 1.350 . S
C1725 C1728 1.463 . S
C1725 C1730 1.350 . S
C1725 N1733 1.427 . S
C1726 H1717 0.930 . S
C1726 C1724 1.378 . S
C1726 C1727 1.367 . S
C1727 C1726 1.367 . S
C1727 C1729 1.433 . S
C1728 C1724 1.350 . S
C1728 C1725 1.463 . S
C1728 N1732 1.427 . S
C1729 H1719 0.929 . S
C1729 C1727 1.433 . S
C1729 N1732 1.384 . S
C1730 H1721 0.929 . S
C1730 C1722 1.378 . S
C1730 C1725 1.350 . S
C1731 H1718 0.929 . S
C1731 C1723 1.433 . S
C1731 N1733 1.384 . S
N1732 C1728 1.427 . S
N1732 C1729 1.384 . S
N1733 C1725 1.427 . S
N1733 C1731 1.384 . S
H1734 C1740 0.930 . S
H1735 C1744 0.930 . S
H1736 C1749 0.929 . S
H1737 C1747 0.929 . S
H1738 C1742 0.929 . S
H1739 C1748 0.929 . S
C1740 H1734 0.930 . S
C1740 C1741 1.367 . S
C1740 C1748 1.378 . S
C1741 C1740 1.367 . S
C1741 C1749 1.433 . S
C1742 H1738 0.929 . S
C1742 C1744 1.378 . S
C1742 C1746 1.350 . S
C1743 C1746 1.463 . S
C1743 C1748 1.350 . S
C1743 N1751 1.427 . S
C1744 H1735 0.930 . S
C1744 C1742 1.378 . S
C1744 C1745 1.367 . S
C1745 C1744 1.367 . S
C1745 C1747 1.433 . S
C1746 C1742 1.350 . S
C1746 C1743 1.463 . S
C1746 N1750 1.427 . S
C1747 H1737 0.929 . S
C1747 C1745 1.433 . S
C1747 N1750 1.384 . S
C1748 H1739 0.929 . S
C1748 C1740 1.378 . S
C1748 C1743 1.350 . S
C1749 H1736 0.929 . S
C1749 C1741 1.433 . S
C1749 N1751 1.384 . S
N1750 C1746 1.427 . S
N1750 C1747 1.384 . S
N1751 C1743 1.427 . S
N1751 C1749 1.384 . S
H1752 C1758 0.930 . S
H1753 C1762 0.930 . S
H1754 C1767 0.929 . S
H1755 C1765 0.929 . S
H1756 C1760 0.929 . S
H1757 C1766 0.929 . S
C1758 H1752 0.930 . S
C1758 C1759 1.367 . S
C1758 C1766 1.378 . S
C1759 C1758 1.367 . S
C1759 C1767 1.433 . S
C1760 H1756 0.929 . S
C1760 C1762 1.378 . S
C1760 C1764 1.350 . S
C1761 C1764 1.463 . S
C1761 C1766 1.350 . S
C1761 N1769 1.427 . S
C1762 H1753 0.930 . S
C1762 C1760 1.378 . S
C1762 C1763 1.367 . S
C1763 C1762 1.367 . S
C1763 C1765 1.433 . S
C1764 C1760 1.350 . S
C1764 C1761 1.463 . S
C1764 N1768 1.427 . S
C1765 H1755 0.929 . S
C1765 C1763 1.433 . S
C1765 N1768 1.384 . S
C1766 H1757 0.929 . S
C1766 C1758 1.378 . S
C1766 C1761 1.350 . S
C1767 H1754 0.929 . S
C1767 C1759 1.433 . S
C1767 N1769 1.384 . S
N1768 C1764 1.427 . S
N1768 C1765 1.384 . S
N1769 C1761 1.427 . S
N1769 C1767 1.384 . S
H1770 C1776 0.930 . S
H1771 C1780 0.930 . S
H1772 C1785 0.929 . S
H1773 C1783 0.929 . S
H1774 C1778 0.929 . S
H1775 C1784 0.929 . S
C1776 H1770 0.930 . S
C1776 C1777 1.367 . S
C1776 C1784 1.378 . S
C1777 C1776 1.367 . S
C1777 C1785 1.433 . S
C1778 H1774 0.929 . S
C1778 C1780 1.378 . S
C1778 C1782 1.350 . S
C1779 C1782 1.463 . S
C1779 C1784 1.350 . S
C1779 N1787 1.427 . S
C1780 H1771 0.930 . S
C1780 C1778 1.378 . S
C1780 C1781 1.367 . S
C1781 C1780 1.367 . S
C1781 C1783 1.433 . S
C1782 C1778 1.350 . S
C1782 C1779 1.463 . S
C1782 N1786 1.427 . S
C1783 H1773 0.929 . S
C1783 C1781 1.433 . S
C1783 N1786 1.384 . S
C1784 H1775 0.929 . S
C1784 C1776 1.378 . S
C1784 C1779 1.350 . S
C1785 H1772 0.929 . S
C1785 C1777 1.433 . S
C1785 N1787 1.384 . S
N1786 C1782 1.427 . S
N1786 C1783 1.384 . S
N1787 C1779 1.427 . S
N1787 C1785 1.384 . S
H1788 C1794 0.930 . S
H1789 C1798 0.930 . S
H1790 C1803 0.929 . S
H1791 C1801 0.929 . S
H1792 C1796 0.929 . S
H1793 C1802 0.929 . S
C1794 H1788 0.930 . S
C1794 C1795 1.367 . S
C1794 C1802 1.378 . S
C1795 C1794 1.367 . S
C1795 C1803 1.433 . S
C1796 H1792 0.929 . S
C1796 C1798 1.378 . S
C1796 C1800 1.350 . S
C1797 C1800 1.463 . S
C1797 C1802 1.350 . S
C1797 N1805 1.427 . S
C1798 H1789 0.930 . S
C1798 C1796 1.378 . S
C1798 C1799 1.367 . S
C1799 C1798 1.367 . S
C1799 C1801 1.433 . S
C1800 C1796 1.350 . S
C1800 C1797 1.463 . S
C1800 N1804 1.427 . S
C1801 H1791 0.929 . S
C1801 C1799 1.433 . S
C1801 N1804 1.384 . S
C1802 H1793 0.929 . S
C1802 C1794 1.378 . S
C1802 C1797 1.350 . S
C1803 H1790 0.929 . S
C1803 C1795 1.433 . S
C1803 N1805 1.384 . S
N1804 C1800 1.427 . S
N1804 C1801 1.384 . S
N1805 C1797 1.427 . S
N1805 C1803 1.384 . S
H1806 C1812 0.930 . S
H1807 C1816 0.930 . S
H1808 C1821 0.929 . S
H1809 C1819 0.929 . S
H1810 C1814 0.929 . S
H1811 C1820 0.929 . S
C1812 H1806 0.930 . S
C1812 C1813 1.367 . S
C1812 C1820 1.378 . S
C1813 C1812 1.367 . S
C1813 C1821 1.433 . S
C1814 H1810 0.929 . S
C1814 C1816 1.378 . S
C1814 C1818 1.350 . S
C1815 C1818 1.463 . S
C1815 C1820 1.350 . S
C1815 N1823 1.427 . S
C1816 H1807 0.930 . S
C1816 C1814 1.378 . S
C1816 C1817 1.367 . S
C1817 C1816 1.367 . S
C1817 C1819 1.433 . S
C1818 C1814 1.350 . S
C1818 C1815 1.463 . S
C1818 N1822 1.427 . S
C1819 H1809 0.929 . S
C1819 C1817 1.433 . S
C1819 N1822 1.384 . S
C1820 H1811 0.929 . S
C1820 C1812 1.378 . S
C1820 C1815 1.350 . S
C1821 H1808 0.929 . S
C1821 C1813 1.433 . S
C1821 N1823 1.384 . S
N1822 C1818 1.427 . S
N1822 C1819 1.384 . S
N1823 C1815 1.427 . S
N1823 C1821 1.384 . S
H1824 C1830 0.930 . S
H1825 C1834 0.930 . S
H1826 C1839 0.929 . S
H1827 C1837 0.929 . S
H1828 C1832 0.929 . S
H1829 C1838 0.929 . S
C1830 H1824 0.930 . S
C1830 C1831 1.367 . S
C1830 C1838 1.378 . S
C1831 C1830 1.367 . S
C1831 C1839 1.433 . S
C1832 H1828 0.929 . S
C1832 C1834 1.378 . S
C1832 C1836 1.350 . S
C1833 C1836 1.463 . S
C1833 C1838 1.350 . S
C1833 N1841 1.427 . S
C1834 H1825 0.930 . S
C1834 C1832 1.378 . S
C1834 C1835 1.367 . S
C1835 C1834 1.367 . S
C1835 C1837 1.433 . S
C1836 C1832 1.350 . S
C1836 C1833 1.463 . S
C1836 N1840 1.427 . S
C1837 H1827 0.929 . S
C1837 C1835 1.433 . S
C1837 N1840 1.384 . S
C1838 H1829 0.929 . S
C1838 C1830 1.378 . S
C1838 C1833 1.350 . S
C1839 H1826 0.929 . S
C1839 C1831 1.433 . S
C1839 N1841 1.384 . S
N1840 C1836 1.427 . S
N1840 C1837 1.384 . S
N1841 C1833 1.427 . S
N1841 C1839 1.384 . S
H1842 C1848 0.930 . S
H1843 C1852 0.930 . S
H1844 C1857 0.929 . S
H1845 C1855 0.929 . S
H1846 C1850 0.929 . S
H1847 C1856 0.929 . S
C1848 H1842 0.930 . S
C1848 C1849 1.367 . S
C1848 C1856 1.378 . S
C1849 C1848 1.367 . S
C1849 C1857 1.433 . S
C1850 H1846 0.929 . S
C1850 C1852 1.378 . S
C1850 C1854 1.350 . S
C1851 C1854 1.463 . S
C1851 C1856 1.350 . S
C1851 N1859 1.427 . S
C1852 H1843 0.930 . S
C1852 C1850 1.378 . S
C1852 C1853 1.367 . S
C1853 C1852 1.367 . S
C1853 C1855 1.433 . S
C1854 C1850 1.350 . S
C1854 C1851 1.463 . S
C1854 N1858 1.427 . S
C1855 H1845 0.929 . S
C1855 C1853 1.433 . S
C1855 N1858 1.384 . S
C1856 H1847 0.929 . S
C1856 C1848 1.378 . S
C1856 C1851 1.350 . S
C1857 H1844 0.929 . S
C1857 C1849 1.433 . S
C1857 N1859 1.384 . S
N1858 C1854 1.427 . S
N1858 C1855 1.384 . S
N1859 C1851 1.427 . S
N1859 C1857 1.384 . S
H1860 C1866 0.930 . S
H1861 C1870 0.930 . S
H1862 C1875 0.929 . S
H1863 C1873 0.929 . S
H1864 C1868 0.929 . S
H1865 C1874 0.929 . S
C1866 H1860 0.930 . S
C1866 C1867 1.367 . S
C1866 C1874 1.378 . S
C1867 C1866 1.367 . S
C1867 C1875 1.433 . S
C1868 H1864 0.929 . S
C1868 C1870 1.378 . S
C1868 C1872 1.350 . S
C1869 C1872 1.463 . S
C1869 C1874 1.350 . S
C1869 N1877 1.427 . S
C1870 H1861 0.930 . S
C1870 C1868 1.378 . S
C1870 C1871 1.367 . S
C1871 C1870 1.367 . S
C1871 C1873 1.433 . S
C1872 C1868 1.350 . S
C1872 C1869 1.463 . S
C1872 N1876 1.427 . S
C1873 H1863 0.929 . S
C1873 C1871 1.433 . S
C1873 N1876 1.384 . S
C1874 H1865 0.929 . S
C1874 C1866 1.378 . S
C1874 C1869 1.350 . S
C1875 H1862 0.929 . S
C1875 C1867 1.433 . S
C1875 N1877 1.384 . S
N1876 C1872 1.427 . S
N1876 C1873 1.384 . S
N1877 C1869 1.427 . S
N1877 C1875 1.384 . S
H1878 C1884 0.930 . S
H1879 C1888 0.930 . S
H1880 C1893 0.929 . S
H1881 C1891 0.929 . S
H1882 C1886 0.929 . S
H1883 C1892 0.929 . S
C1884 H1878 0.930 . S
C1884 C1885 1.367 . S
C1884 C1892 1.378 . S
C1885 C1884 1.367 . S
C1885 C1893 1.433 . S
C1886 H1882 0.929 . S
C1886 C1888 1.378 . S
C1886 C1890 1.350 . S
C1887 C1890 1.463 . S
C1887 C1892 1.350 . S
C1887 N1895 1.427 . S
C1888 H1879 0.930 . S
C1888 C1886 1.378 . S
C1888 C1889 1.367 . S
C1889 C1888 1.367 . S
C1889 C1891 1.433 . S
C1890 C1886 1.350 . S
C1890 C1887 1.463 . S
C1890 N1894 1.427 . S
C1891 H1881 0.929 . S
C1891 C1889 1.433 . S
C1891 N1894 1.384 . S
C1892 H1883 0.929 . S
C1892 C1884 1.378 . S
C1892 C1887 1.350 . S
C1893 H1880 0.929 . S
C1893 C1885 1.433 . S
C1893 N1895 1.384 . S
N1894 C1890 1.427 . S
N1894 C1891 1.384 . S
N1895 C1887 1.427 . S
N1895 C1893 1.384 . S
H1896 C1902 0.930 . S
H1897 C1906 0.930 . S
H1898 C1911 0.929 . S
H1899 C1909 0.929 . S
H1900 C1904 0.929 . S
H1901 C1910 0.929 . S
C1902 H1896 0.930 . S
C1902 C1903 1.367 . S
C1902 C1910 1.378 . S
C1903 C1902 1.367 . S
C1903 C1911 1.433 . S
C1904 H1900 0.929 . S
C1904 C1906 1.378 . S
C1904 C1908 1.350 . S
C1905 C1908 1.463 . S
C1905 C1910 1.350 . S
C1905 N1913 1.427 . S
C1906 H1897 0.930 . S
C1906 C1904 1.378 . S
C1906 C1907 1.367 . S
C1907 C1906 1.367 . S
C1907 C1909 1.433 . S
C1908 C1904 1.350 . S
C1908 C1905 1.463 . S
C1908 N1912 1.427 . S
C1909 H1899 0.929 . S
C1909 C1907 1.433 . S
C1909 N1912 1.384 . S
C1910 H1901 0.929 . S
C1910 C1902 1.378 . S
C1910 C1905 1.350 . S
C1911 H1898 0.929 . S
C1911 C1903 1.433 . S
C1911 N1913 1.384 . S
N1912 C1908 1.427 . S
N1912 C1909 1.384 . S
N1913 C1905 1.427 . S
N1913 C1911 1.384 . S
H1914 C1920 0.930 . S
H1915 C1924 0.930 . S
H1916 C1929 0.929 . S
H1917 C1927 0.929 . S
H1918 C1922 0.929 . S
H1919 C1928 0.929 . S
C1920 H1914 0.930 . S
C1920 C1921 1.367 . S
C1920 C1928 1.378 . S
C1921 C1920 1.367 . S
C1921 C1929 1.433 . S
C1922 H1918 0.929 . S
C1922 C1924 1.378 . S
C1922 C1926 1.350 . S
C1923 C1926 1.463 . S
C1923 C1928 1.350 . S
C1923 N1931 1.427 . S
C1924 H1915 0.930 . S
C1924 C1922 1.378 . S
C1924 C1925 1.367 . S
C1925 C1924 1.367 . S
C1925 C1927 1.433 . S
C1926 C1922 1.350 . S
C1926 C1923 1.463 . S
C1926 N1930 1.427 . S
C1927 H1917 0.929 . S
C1927 C1925 1.433 . S
C1927 N1930 1.384 . S
C1928 H1919 0.929 . S
C1928 C1920 1.378 . S
C1928 C1923 1.350 . S
C1929 H1916 0.929 . S
C1929 C1921 1.433 . S
C1929 N1931 1.384 . S
N1930 C1926 1.427 . S
N1930 C1927 1.384 . S
N1931 C1923 1.427 . S
N1931 C1929 1.384 . S
H1932 C1938 0.930 . S
H1933 C1942 0.930 . S
H1934 C1947 0.929 . S
H1935 C1945 0.929 . S
H1936 C1940 0.929 . S
H1937 C1946 0.929 . S
C1938 H1932 0.930 . S
C1938 C1939 1.367 . S
C1938 C1946 1.378 . S
C1939 C1938 1.367 . S
C1939 C1947 1.433 . S
C1940 H1936 0.929 . S
C1940 C1942 1.378 . S
C1940 C1944 1.350 . S
C1941 C1944 1.463 . S
C1941 C1946 1.350 . S
C1941 N1949 1.427 . S
C1942 H1933 0.930 . S
C1942 C1940 1.378 . S
C1942 C1943 1.367 . S
C1943 C1942 1.367 . S
C1943 C1945 1.433 . S
C1944 C1940 1.350 . S
C1944 C1941 1.463 . S
C1944 N1948 1.427 . S
C1945 H1935 0.929 . S
C1945 C1943 1.433 . S
C1945 N1948 1.384 . S
C1946 H1937 0.929 . S
C1946 C1938 1.378 . S
C1946 C1941 1.350 . S
C1947 H1934 0.929 . S
C1947 C1939 1.433 . S
C1947 N1949 1.384 . S
N1948 C1944 1.427 . S
N1948 C1945 1.384 . S
N1949 C1941 1.427 . S
N1949 C1947 1.384 . S
H1950 C1956 0.930 . S
H1951 C1960 0.930 . S
H1952 C1965 0.929 . S
H1953 C1963 0.929 . S
H1954 C1958 0.929 . S
H1955 C1964 0.929 . S
C1956 H1950 0.930 . S
C1956 C1957 1.367 . S
C1956 C1964 1.378 . S
C1957 C1956 1.367 . S
C1957 C1965 1.433 . S
C1958 H1954 0.929 . S
C1958 C1960 1.378 . S
C1958 C1962 1.350 . S
C1959 C1962 1.463 . S
C1959 C1964 1.350 . S
C1959 N1967 1.427 . S
C1960 H1951 0.930 . S
C1960 C1958 1.378 . S
C1960 C1961 1.367 . S
C1961 C1960 1.367 . S
C1961 C1963 1.433 . S
C1962 C1958 1.350 . S
C1962 C1959 1.463 . S
C1962 N1966 1.427 . S
C1963 H1953 0.929 . S
C1963 C1961 1.433 . S
C1963 N1966 1.384 . S
C1964 H1955 0.929 . S
C1964 C1956 1.378 . S
C1964 C1959 1.350 . S
C1965 H1952 0.929 . S
C1965 C1957 1.433 . S
C1965 N1967 1.384 . S
N1966 C1962 1.427 . S
N1966 C1963 1.384 . S
N1967 C1959 1.427 . S
N1967 C1965 1.384 . S
H1968 C1974 0.930 . S
H1969 C1978 0.930 . S
H1970 C1983 0.929 . S
H1971 C1981 0.929 . S
H1972 C1976 0.929 . S
H1973 C1982 0.929 . S
C1974 H1968 0.930 . S
C1974 C1975 1.367 . S
C1974 C1982 1.378 . S
C1975 C1974 1.367 . S
C1975 C1983 1.433 . S
C1976 H1972 0.929 . S
C1976 C1978 1.378 . S
C1976 C1980 1.350 . S
C1977 C1980 1.463 . S
C1977 C1982 1.350 . S
C1977 N1985 1.427 . S
C1978 H1969 0.930 . S
C1978 C1976 1.378 . S
C1978 C1979 1.367 . S
C1979 C1978 1.367 . S
C1979 C1981 1.433 . S
C1980 C1976 1.350 . S
C1980 C1977 1.463 . S
C1980 N1984 1.427 . S
C1981 H1971 0.929 . S
C1981 C1979 1.433 . S
C1981 N1984 1.384 . S
C1982 H1973 0.929 . S
C1982 C1974 1.378 . S
C1982 C1977 1.350 . S
C1983 H1970 0.929 . S
C1983 C1975 1.433 . S
C1983 N1985 1.384 . S
N1984 C1980 1.427 . S
N1984 C1981 1.384 . S
N1985 C1977 1.427 . S
N1985 C1983 1.384 . S
H1986 C1992 0.930 . S
H1987 C1996 0.930 . S
H1988 C2001 0.929 . S
H1989 C1999 0.929 . S
H1990 C1994 0.929 . S
H1991 C2000 0.929 . S
C1992 H1986 0.930 . S
C1992 C1993 1.367 . S
C1992 C2000 1.378 . S
C1993 C1992 1.367 . S
C1993 C2001 1.433 . S
C1994 H1990 0.929 . S
C1994 C1996 1.378 . S
C1994 C1998 1.350 . S
C1995 C1998 1.463 . S
C1995 C2000 1.350 . S
C1995 N2003 1.427 . S
C1996 H1987 0.930 . S
C1996 C1994 1.378 . S
C1996 C1997 1.367 . S
C1997 C1996 1.367 . S
C1997 C1999 1.433 . S
C1998 C1994 1.350 . S
C1998 C1995 1.463 . S
C1998 N2002 1.427 . S
C1999 H1989 0.929 . S
C1999 C1997 1.433 . S
C1999 N2002 1.384 . S
C2000 H1991 0.929 . S
C2000 C1992 1.378 . S
C2000 C1995 1.350 . S
C2001 H1988 0.929 . S
C2001 C1993 1.433 . S
C2001 N2003 1.384 . S
N2002 C1998 1.427 . S
N2002 C1999 1.384 . S
N2003 C1995 1.427 . S
N2003 C2001 1.384 . S
H2004 C2010 0.930 . S
H2005 C2014 0.930 . S
H2006 C2019 0.929 . S
H2007 C2017 0.929 . S
H2008 C2012 0.929 . S
H2009 C2018 0.929 . S
C2010 H2004 0.930 . S
C2010 C2011 1.367 . S
C2010 C2018 1.378 . S
C2011 C2010 1.367 . S
C2011 C2019 1.433 . S
C2012 H2008 0.929 . S
C2012 C2014 1.378 . S
C2012 C2016 1.350 . S
C2013 C2016 1.463 . S
C2013 C2018 1.350 . S
C2013 N2021 1.427 . S
C2014 H2005 0.930 . S
C2014 C2012 1.378 . S
C2014 C2015 1.367 . S
C2015 C2014 1.367 . S
C2015 C2017 1.433 . S
C2016 C2012 1.350 . S
C2016 C2013 1.463 . S
C2016 N2020 1.427 . S
C2017 H2007 0.929 . S
C2017 C2015 1.433 . S
C2017 N2020 1.384 . S
C2018 H2009 0.929 . S
C2018 C2010 1.378 . S
C2018 C2013 1.350 . S
C2019 H2006 0.929 . S
C2019 C2011 1.433 . S
C2019 N2021 1.384 . S
N2020 C2016 1.427 . S
N2020 C2017 1.384 . S
N2021 C2013 1.427 . S
N2021 C2019 1.384 . S
H2022 C2028 0.930 . S
H2023 C2032 0.930 . S
H2024 C2037 0.929 . S
H2025 C2035 0.929 . S
H2026 C2030 0.929 . S
H2027 C2036 0.929 . S
C2028 H2022 0.930 . S
C2028 C2029 1.367 . S
C2028 C2036 1.378 . S
C2029 C2028 1.367 . S
C2029 C2037 1.433 . S
C2030 H2026 0.929 . S
C2030 C2032 1.378 . S
C2030 C2034 1.350 . S
C2031 C2034 1.463 . S
C2031 C2036 1.350 . S
C2031 N2039 1.427 . S
C2032 H2023 0.930 . S
C2032 C2030 1.378 . S
C2032 C2033 1.367 . S
C2033 C2032 1.367 . S
C2033 C2035 1.433 . S
C2034 C2030 1.350 . S
C2034 C2031 1.463 . S
C2034 N2038 1.427 . S
C2035 H2025 0.929 . S
C2035 C2033 1.433 . S
C2035 N2038 1.384 . S
C2036 H2027 0.929 . S
C2036 C2028 1.378 . S
C2036 C2031 1.350 . S
C2037 H2024 0.929 . S
C2037 C2029 1.433 . S
C2037 N2039 1.384 . S
N2038 C2034 1.427 . S
N2038 C2035 1.384 . S
N2039 C2031 1.427 . S
N2039 C2037 1.384 . S
H2040 C2046 0.930 . S
H2041 C2050 0.930 . S
H2042 C2055 0.929 . S
H2043 C2053 0.929 . S
H2044 C2048 0.929 . S
H2045 C2054 0.929 . S
C2046 H2040 0.930 . S
C2046 C2047 1.367 . S
C2046 C2054 1.378 . S
C2047 C2046 1.367 . S
C2047 C2055 1.433 . S
C2048 H2044 0.929 . S
C2048 C2050 1.378 . S
C2048 C2052 1.350 . S
C2049 C2052 1.463 . S
C2049 C2054 1.350 . S
C2049 N2057 1.427 . S
C2050 H2041 0.930 . S
C2050 C2048 1.378 . S
C2050 C2051 1.367 . S
C2051 C2050 1.367 . S
C2051 C2053 1.433 . S
C2052 C2048 1.350 . S
C2052 C2049 1.463 . S
C2052 N2056 1.427 . S
C2053 H2043 0.929 . S
C2053 C2051 1.433 . S
C2053 N2056 1.384 . S
C2054 H2045 0.929 . S
C2054 C2046 1.378 . S
C2054 C2049 1.350 . S
C2055 H2042 0.929 . S
C2055 C2047 1.433 . S
C2055 N2057 1.384 . S
N2056 C2052 1.427 . S
N2056 C2053 1.384 . S
N2057 C2049 1.427 . S
N2057 C2055 1.384 . S
H2058 C2064 0.930 . S
H2059 C2068 0.930 . S
H2060 C2073 0.929 . S
H2061 C2071 0.929 . S
H2062 C2066 0.929 . S
H2063 C2072 0.929 . S
C2064 H2058 0.930 . S
C2064 C2065 1.367 . S
C2064 C2072 1.378 . S
C2065 C2064 1.367 . S
C2065 C2073 1.433 . S
C2066 H2062 0.929 . S
C2066 C2068 1.378 . S
C2066 C2070 1.350 . S
C2067 C2070 1.463 . S
C2067 C2072 1.350 . S
C2067 N2075 1.427 . S
C2068 H2059 0.930 . S
C2068 C2066 1.378 . S
C2068 C2069 1.367 . S
C2069 C2068 1.367 . S
C2069 C2071 1.433 . S
C2070 C2066 1.350 . S
C2070 C2067 1.463 . S
C2070 N2074 1.427 . S
C2071 H2061 0.929 . S
C2071 C2069 1.433 . S
C2071 N2074 1.384 . S
C2072 H2063 0.929 . S
C2072 C2064 1.378 . S
C2072 C2067 1.350 . S
C2073 H2060 0.929 . S
C2073 C2065 1.433 . S
C2073 N2075 1.384 . S
N2074 C2070 1.427 . S
N2074 C2071 1.384 . S
N2075 C2067 1.427 . S
N2075 C2073 1.384 . S
H2076 C2082 0.930 . S
H2077 C2086 0.930 . S
H2078 C2091 0.929 . S
H2079 C2089 0.929 . S
H2080 C2084 0.929 . S
H2081 C2090 0.929 . S
C2082 H2076 0.930 . S
C2082 C2083 1.367 . S
C2082 C2090 1.378 . S
C2083 C2082 1.367 . S
C2083 C2091 1.433 . S
C2084 H2080 0.929 . S
C2084 C2086 1.378 . S
C2084 C2088 1.350 . S
C2085 C2088 1.463 . S
C2085 C2090 1.350 . S
C2085 N2093 1.427 . S
C2086 H2077 0.930 . S
C2086 C2084 1.378 . S
C2086 C2087 1.367 . S
C2087 C2086 1.367 . S
C2087 C2089 1.433 . S
C2088 C2084 1.350 . S
C2088 C2085 1.463 . S
C2088 N2092 1.427 . S
C2089 H2079 0.929 . S
C2089 C2087 1.433 . S
C2089 N2092 1.384 . S
C2090 H2081 0.929 . S
C2090 C2082 1.378 . S
C2090 C2085 1.350 . S
C2091 H2078 0.929 . S
C2091 C2083 1.433 . S
C2091 N2093 1.384 . S
N2092 C2088 1.427 . S
N2092 C2089 1.384 . S
N2093 C2085 1.427 . S
N2093 C2091 1.384 . S
H2094 C2100 0.930 . S
H2095 C2104 0.930 . S
H2096 C2109 0.929 . S
H2097 C2107 0.929 . S
H2098 C2102 0.929 . S
H2099 C2108 0.929 . S
C2100 H2094 0.930 . S
C2100 C2101 1.367 . S
C2100 C2108 1.378 . S
C2101 C2100 1.367 . S
C2101 C2109 1.433 . S
C2102 H2098 0.929 . S
C2102 C2104 1.378 . S
C2102 C2106 1.350 . S
C2103 C2106 1.463 . S
C2103 C2108 1.350 . S
C2103 N2111 1.427 . S
C2104 H2095 0.930 . S
C2104 C2102 1.378 . S
C2104 C2105 1.367 . S
C2105 C2104 1.367 . S
C2105 C2107 1.433 . S
C2106 C2102 1.350 . S
C2106 C2103 1.463 . S
C2106 N2110 1.427 . S
C2107 H2097 0.929 . S
C2107 C2105 1.433 . S
C2107 N2110 1.384 . S
C2108 H2099 0.929 . S
C2108 C2100 1.378 . S
C2108 C2103 1.350 . S
C2109 H2096 0.929 . S
C2109 C2101 1.433 . S
C2109 N2111 1.384 . S
N2110 C2106 1.427 . S
N2110 C2107 1.384 . S
N2111 C2103 1.427 . S
N2111 C2109 1.384 . S
H2112 C2118 0.930 . S
H2113 C2122 0.930 . S
H2114 C2127 0.929 . S
H2115 C2125 0.929 . S
H2116 C2120 0.929 . S
H2117 C2126 0.929 . S
C2118 H2112 0.930 . S
C2118 C2119 1.367 . S
C2118 C2126 1.378 . S
C2119 C2118 1.367 . S
C2119 C2127 1.433 . S
C2120 H2116 0.929 . S
C2120 C2122 1.378 . S
C2120 C2124 1.350 . S
C2121 C2124 1.463 . S
C2121 C2126 1.350 . S
C2121 N2129 1.427 . S
C2122 H2113 0.930 . S
C2122 C2120 1.378 . S
C2122 C2123 1.367 . S
C2123 C2122 1.367 . S
C2123 C2125 1.433 . S
C2124 C2120 1.350 . S
C2124 C2121 1.463 . S
C2124 N2128 1.427 . S
C2125 H2115 0.929 . S
C2125 C2123 1.433 . S
C2125 N2128 1.384 . S
C2126 H2117 0.929 . S
C2126 C2118 1.378 . S
C2126 C2121 1.350 . S
C2127 H2114 0.929 . S
C2127 C2119 1.433 . S
C2127 N2129 1.384 . S
N2128 C2124 1.427 . S
N2128 C2125 1.384 . S
N2129 C2121 1.427 . S
N2129 C2127 1.384 . S
H2130 C2136 0.930 . S
H2131 C2140 0.930 . S
H2132 C2145 0.929 . S
H2133 C2143 0.929 . S
H2134 C2138 0.929 . S
H2135 C2144 0.929 . S
C2136 H2130 0.930 . S
C2136 C2137 1.367 . S
C2136 C2144 1.378 . S
C2137 C2136 1.367 . S
C2137 C2145 1.433 . S
C2138 H2134 0.929 . S
C2138 C2140 1.378 . S
C2138 C2142 1.350 . S
C2139 C2142 1.463 . S
C2139 C2144 1.350 . S
C2139 N2147 1.427 . S
C2140 H2131 0.930 . S
C2140 C2138 1.378 . S
C2140 C2141 1.367 . S
C2141 C2140 1.367 . S
C2141 C2143 1.433 . S
C2142 C2138 1.350 . S
C2142 C2139 1.463 . S
C2142 N2146 1.427 . S
C2143 H2133 0.929 . S
C2143 C2141 1.433 . S
C2143 N2146 1.384 . S
C2144 H2135 0.929 . S
C2144 C2136 1.378 . S
C2144 C2139 1.350 . S
C2145 H2132 0.929 . S
C2145 C2137 1.433 . S
C2145 N2147 1.384 . S
N2146 C2142 1.427 . S
N2146 C2143 1.384 . S
N2147 C2139 1.427 . S
N2147 C2145 1.384 . S
H2148 C2154 0.930 . S
H2149 C2158 0.930 . S
H2150 C2163 0.929 . S
H2151 C2161 0.929 . S
H2152 C2156 0.929 . S
H2153 C2162 0.929 . S
C2154 H2148 0.930 . S
C2154 C2155 1.367 . S
C2154 C2162 1.378 . S
C2155 C2154 1.367 . S
C2155 C2163 1.433 . S
C2156 H2152 0.929 . S
C2156 C2158 1.378 . S
C2156 C2160 1.350 . S
C2157 C2160 1.463 . S
C2157 C2162 1.350 . S
C2157 N2165 1.427 . S
C2158 H2149 0.930 . S
C2158 C2156 1.378 . S
C2158 C2159 1.367 . S
C2159 C2158 1.367 . S
C2159 C2161 1.433 . S
C2160 C2156 1.350 . S
C2160 C2157 1.463 . S
C2160 N2164 1.427 . S
C2161 H2151 0.929 . S
C2161 C2159 1.433 . S
C2161 N2164 1.384 . S
C2162 H2153 0.929 . S
C2162 C2154 1.378 . S
C2162 C2157 1.350 . S
C2163 H2150 0.929 . S
C2163 C2155 1.433 . S
C2163 N2165 1.384 . S
N2164 C2160 1.427 . S
N2164 C2161 1.384 . S
N2165 C2157 1.427 . S
N2165 C2163 1.384 . S
H2166 C2172 0.930 . S
H2167 C2176 0.930 . S
H2168 C2181 0.929 . S
H2169 C2179 0.929 . S
H2170 C2174 0.929 . S
H2171 C2180 0.929 . S
C2172 H2166 0.930 . S
C2172 C2173 1.367 . S
C2172 C2180 1.378 . S
C2173 C2172 1.367 . S
C2173 C2181 1.433 . S
C2174 H2170 0.929 . S
C2174 C2176 1.378 . S
C2174 C2178 1.350 . S
C2175 C2178 1.463 . S
C2175 C2180 1.350 . S
C2175 N2183 1.427 . S
C2176 H2167 0.930 . S
C2176 C2174 1.378 . S
C2176 C2177 1.367 . S
C2177 C2176 1.367 . S
C2177 C2179 1.433 . S
C2178 C2174 1.350 . S
C2178 C2175 1.463 . S
C2178 N2182 1.427 . S
C2179 H2169 0.929 . S
C2179 C2177 1.433 . S
C2179 N2182 1.384 . S
C2180 H2171 0.929 . S
C2180 C2172 1.378 . S
C2180 C2175 1.350 . S
C2181 H2168 0.929 . S
C2181 C2173 1.433 . S
C2181 N2183 1.384 . S
N2182 C2178 1.427 . S
N2182 C2179 1.384 . S
N2183 C2175 1.427 . S
N2183 C2181 1.384 . S
H2184 C2190 0.930 . S
H2185 C2194 0.930 . S
H2186 C2199 0.929 . S
H2187 C2197 0.929 . S
H2188 C2192 0.929 . S
H2189 C2198 0.929 . S
C2190 H2184 0.930 . S
C2190 C2191 1.367 . S
C2190 C2198 1.378 . S
C2191 C2190 1.367 . S
C2191 C2199 1.433 . S
C2192 H2188 0.929 . S
C2192 C2194 1.378 . S
C2192 C2196 1.350 . S
C2193 C2196 1.463 . S
C2193 C2198 1.350 . S
C2193 N2201 1.427 . S
C2194 H2185 0.930 . S
C2194 C2192 1.378 . S
C2194 C2195 1.367 . S
C2195 C2194 1.367 . S
C2195 C2197 1.433 . S
C2196 C2192 1.350 . S
C2196 C2193 1.463 . S
C2196 N2200 1.427 . S
C2197 H2187 0.929 . S
C2197 C2195 1.433 . S
C2197 N2200 1.384 . S
C2198 H2189 0.929 . S
C2198 C2190 1.378 . S
C2198 C2193 1.350 . S
C2199 H2186 0.929 . S
C2199 C2191 1.433 . S
C2199 N2201 1.384 . S
N2200 C2196 1.427 . S
N2200 C2197 1.384 . S
N2201 C2193 1.427 . S
N2201 C2199 1.384 . S
H2202 C2208 0.930 . S
H2203 C2212 0.930 . S
H2204 C2217 0.929 . S
H2205 C2215 0.929 . S
H2206 C2210 0.929 . S
H2207 C2216 0.929 . S
C2208 H2202 0.930 . S
C2208 C2209 1.367 . S
C2208 C2216 1.378 . S
C2209 C2208 1.367 . S
C2209 C2217 1.433 . S
C2210 H2206 0.929 . S
C2210 C2212 1.378 . S
C2210 C2214 1.350 . S
C2211 C2214 1.463 . S
C2211 C2216 1.350 . S
C2211 N2219 1.427 . S
C2212 H2203 0.930 . S
C2212 C2210 1.378 . S
C2212 C2213 1.367 . S
C2213 C2212 1.367 . S
C2213 C2215 1.433 . S
C2214 C2210 1.350 . S
C2214 C2211 1.463 . S
C2214 N2218 1.427 . S
C2215 H2205 0.929 . S
C2215 C2213 1.433 . S
C2215 N2218 1.384 . S
C2216 H2207 0.929 . S
C2216 C2208 1.378 . S
C2216 C2211 1.350 . S
C2217 H2204 0.929 . S
C2217 C2209 1.433 . S
C2217 N2219 1.384 . S
N2218 C2214 1.427 . S
N2218 C2215 1.384 . S
N2219 C2211 1.427 . S
N2219 C2217 1.384 . S
H2220 C2226 0.930 . S
H2221 C2230 0.930 . S
H2222 C2235 0.929 . S
H2223 C2233 0.929 . S
H2224 C2228 0.929 . S
H2225 C2234 0.929 . S
C2226 H2220 0.930 . S
C2226 C2227 1.367 . S
C2226 C2234 1.378 . S
C2227 C2226 1.367 . S
C2227 C2235 1.433 . S
C2228 H2224 0.929 . S
C2228 C2230 1.378 . S
C2228 C2232 1.350 . S
C2229 C2232 1.463 . S
C2229 C2234 1.350 . S
C2229 N2237 1.427 . S
C2230 H2221 0.930 . S
C2230 C2228 1.378 . S
C2230 C2231 1.367 . S
C2231 C2230 1.367 . S
C2231 C2233 1.433 . S
C2232 C2228 1.350 . S
C2232 C2229 1.463 . S
C2232 N2236 1.427 . S
C2233 H2223 0.929 . S
C2233 C2231 1.433 . S
C2233 N2236 1.384 . S
C2234 H2225 0.929 . S
C2234 C2226 1.378 . S
C2234 C2229 1.350 . S
C2235 H2222 0.929 . S
C2235 C2227 1.433 . S
C2235 N2237 1.384 . S
N2236 C2232 1.427 . S
N2236 C2233 1.384 . S
N2237 C2229 1.427 . S
N2237 C2235 1.384 . S
H2238 C2244 0.930 . S
H2239 C2248 0.930 . S
H2240 C2253 0.929 . S
H2241 C2251 0.929 . S
H2242 C2246 0.929 . S
H2243 C2252 0.929 . S
C2244 H2238 0.930 . S
C2244 C2245 1.367 . S
C2244 C2252 1.378 . S
C2245 C2244 1.367 . S
C2245 C2253 1.433 . S
C2246 H2242 0.929 . S
C2246 C2248 1.378 . S
C2246 C2250 1.350 . S
C2247 C2250 1.463 . S
C2247 C2252 1.350 . S
C2247 N2255 1.427 . S
C2248 H2239 0.930 . S
C2248 C2246 1.378 . S
C2248 C2249 1.367 . S
C2249 C2248 1.367 . S
C2249 C2251 1.433 . S
C2250 C2246 1.350 . S
C2250 C2247 1.463 . S
C2250 N2254 1.427 . S
C2251 H2241 0.929 . S
C2251 C2249 1.433 . S
C2251 N2254 1.384 . S
C2252 H2243 0.929 . S
C2252 C2244 1.378 . S
C2252 C2247 1.350 . S
C2253 H2240 0.929 . S
C2253 C2245 1.433 . S
C2253 N2255 1.384 . S
N2254 C2250 1.427 . S
N2254 C2251 1.384 . S
N2255 C2247 1.427 . S
N2255 C2253 1.384 . S
H2256 C2262 0.930 . S
H2257 C2266 0.930 . S
H2258 C2271 0.929 . S
H2259 C2269 0.929 . S
H2260 C2264 0.929 . S
H2261 C2270 0.929 . S
C2262 H2256 0.930 . S
C2262 C2263 1.367 . S
C2262 C2270 1.378 . S
C2263 C2262 1.367 . S
C2263 C2271 1.433 . S
C2264 H2260 0.929 . S
C2264 C2266 1.378 . S
C2264 C2268 1.350 . S
C2265 C2268 1.463 . S
C2265 C2270 1.350 . S
C2265 N2273 1.427 . S
C2266 H2257 0.930 . S
C2266 C2264 1.378 . S
C2266 C2267 1.367 . S
C2267 C2266 1.367 . S
C2267 C2269 1.433 . S
C2268 C2264 1.350 . S
C2268 C2265 1.463 . S
C2268 N2272 1.427 . S
C2269 H2259 0.929 . S
C2269 C2267 1.433 . S
C2269 N2272 1.384 . S
C2270 H2261 0.929 . S
C2270 C2262 1.378 . S
C2270 C2265 1.350 . S
C2271 H2258 0.929 . S
C2271 C2263 1.433 . S
C2271 N2273 1.384 . S
N2272 C2268 1.427 . S
N2272 C2269 1.384 . S
N2273 C2265 1.427 . S
N2273 C2271 1.384 . S
H2274 C2280 0.930 . S
H2275 C2284 0.930 . S
H2276 C2289 0.929 . S
H2277 C2287 0.929 . S
H2278 C2282 0.929 . S
H2279 C2288 0.929 . S
C2280 H2274 0.930 . S
C2280 C2281 1.367 . S
C2280 C2288 1.378 . S
C2281 C2280 1.367 . S
C2281 C2289 1.433 . S
C2282 H2278 0.929 . S
C2282 C2284 1.378 . S
C2282 C2286 1.350 . S
C2283 C2286 1.463 . S
C2283 C2288 1.350 . S
C2283 N2291 1.427 . S
C2284 H2275 0.930 . S
C2284 C2282 1.378 . S
C2284 C2285 1.367 . S
C2285 C2284 1.367 . S
C2285 C2287 1.433 . S
C2286 C2282 1.350 . S
C2286 C2283 1.463 . S
C2286 N2290 1.427 . S
C2287 H2277 0.929 . S
C2287 C2285 1.433 . S
C2287 N2290 1.384 . S
C2288 H2279 0.929 . S
C2288 C2280 1.378 . S
C2288 C2283 1.350 . S
C2289 H2276 0.929 . S
C2289 C2281 1.433 . S
C2289 N2291 1.384 . S
N2290 C2286 1.427 . S
N2290 C2287 1.384 . S
N2291 C2283 1.427 . S
N2291 C2289 1.384 . S
H2292 C2298 0.930 . S
H2293 C2302 0.930 . S
H2294 C2307 0.929 . S
H2295 C2305 0.929 . S
H2296 C2300 0.929 . S
H2297 C2306 0.929 . S
C2298 H2292 0.930 . S
C2298 C2299 1.367 . S
C2298 C2306 1.378 . S
C2299 C2298 1.367 . S
C2299 C2307 1.433 . S
C2300 H2296 0.929 . S
C2300 C2302 1.378 . S
C2300 C2304 1.350 . S
C2301 C2304 1.463 . S
C2301 C2306 1.350 . S
C2301 N2309 1.427 . S
C2302 H2293 0.930 . S
C2302 C2300 1.378 . S
C2302 C2303 1.367 . S
C2303 C2302 1.367 . S
C2303 C2305 1.433 . S
C2304 C2300 1.350 . S
C2304 C2301 1.463 . S
C2304 N2308 1.427 . S
C2305 H2295 0.929 . S
C2305 C2303 1.433 . S
C2305 N2308 1.384 . S
C2306 H2297 0.929 . S
C2306 C2298 1.378 . S
C2306 C2301 1.350 . S
C2307 H2294 0.929 . S
C2307 C2299 1.433 . S
C2307 N2309 1.384 . S
N2308 C2304 1.427 . S
N2308 C2305 1.384 . S
N2309 C2301 1.427 . S
N2309 C2307 1.384 . S
H2310 C2316 0.930 . S
H2311 C2320 0.930 . S
H2312 C2325 0.929 . S
H2313 C2323 0.929 . S
H2314 C2318 0.929 . S
H2315 C2324 0.929 . S
C2316 H2310 0.930 . S
C2316 C2317 1.367 . S
C2316 C2324 1.378 . S
C2317 C2316 1.367 . S
C2317 C2325 1.433 . S
C2318 H2314 0.929 . S
C2318 C2320 1.378 . S
C2318 C2322 1.350 . S
C2319 C2322 1.463 . S
C2319 C2324 1.350 . S
C2319 N2327 1.427 . S
C2320 H2311 0.930 . S
C2320 C2318 1.378 . S
C2320 C2321 1.367 . S
C2321 C2320 1.367 . S
C2321 C2323 1.433 . S
C2322 C2318 1.350 . S
C2322 C2319 1.463 . S
C2322 N2326 1.427 . S
C2323 H2313 0.929 . S
C2323 C2321 1.433 . S
C2323 N2326 1.384 . S
C2324 H2315 0.929 . S
C2324 C2316 1.378 . S
C2324 C2319 1.350 . S
C2325 H2312 0.929 . S
C2325 C2317 1.433 . S
C2325 N2327 1.384 . S
N2326 C2322 1.427 . S
N2326 C2323 1.384 . S
N2327 C2319 1.427 . S
N2327 C2325 1.384 . S
H2328 C2334 0.930 . S
H2329 C2338 0.930 . S
H2330 C2343 0.929 . S
H2331 C2341 0.929 . S
H2332 C2336 0.929 . S
H2333 C2342 0.929 . S
C2334 H2328 0.930 . S
C2334 C2335 1.367 . S
C2334 C2342 1.378 . S
C2335 C2334 1.367 . S
C2335 C2343 1.433 . S
C2336 H2332 0.929 . S
C2336 C2338 1.378 . S
C2336 C2340 1.350 . S
C2337 C2340 1.463 . S
C2337 C2342 1.350 . S
C2337 N2345 1.427 . S
C2338 H2329 0.930 . S
C2338 C2336 1.378 . S
C2338 C2339 1.367 . S
C2339 C2338 1.367 . S
C2339 C2341 1.433 . S
C2340 C2336 1.350 . S
C2340 C2337 1.463 . S
C2340 N2344 1.427 . S
C2341 H2331 0.929 . S
C2341 C2339 1.433 . S
C2341 N2344 1.384 . S
C2342 H2333 0.929 . S
C2342 C2334 1.378 . S
C2342 C2337 1.350 . S
C2343 H2330 0.929 . S
C2343 C2335 1.433 . S
C2343 N2345 1.384 . S
N2344 C2340 1.427 . S
N2344 C2341 1.384 . S
N2345 C2337 1.427 . S
N2345 C2343 1.384 . S
H2346 C2352 0.930 . S
H2347 C2356 0.930 . S
H2348 C2361 0.929 . S
H2349 C2359 0.929 . S
H2350 C2354 0.929 . S
H2351 C2360 0.929 . S
C2352 H2346 0.930 . S
C2352 C2353 1.367 . S
C2352 C2360 1.378 . S
C2353 C2352 1.367 . S
C2353 C2361 1.433 . S
C2354 H2350 0.929 . S
C2354 C2356 1.378 . S
C2354 C2358 1.350 . S
C2355 C2358 1.463 . S
C2355 C2360 1.350 . S
C2355 N2363 1.427 . S
C2356 H2347 0.930 . S
C2356 C2354 1.378 . S
C2356 C2357 1.367 . S
C2357 C2356 1.367 . S
C2357 C2359 1.433 . S
C2358 C2354 1.350 . S
C2358 C2355 1.463 . S
C2358 N2362 1.427 . S
C2359 H2349 0.929 . S
C2359 C2357 1.433 . S
C2359 N2362 1.384 . S
C2360 H2351 0.929 . S
C2360 C2352 1.378 . S
C2360 C2355 1.350 . S
C2361 H2348 0.929 . S
C2361 C2353 1.433 . S
C2361 N2363 1.384 . S
N2362 C2358 1.427 . S
N2362 C2359 1.384 . S
N2363 C2355 1.427 . S
N2363 C2361 1.384 . S
H2364 C2370 0.930 . S
H2365 C2374 0.930 . S
H2366 C2379 0.929 . S
H2367 C2377 0.929 . S
H2368 C2372 0.929 . S
H2369 C2378 0.929 . S
C2370 H2364 0.930 . S
C2370 C2371 1.367 . S
C2370 C2378 1.378 . S
C2371 C2370 1.367 . S
C2371 C2379 1.433 . S
C2372 H2368 0.929 . S
C2372 C2374 1.378 . S
C2372 C2376 1.350 . S
C2373 C2376 1.463 . S
C2373 C2378 1.350 . S
C2373 N2381 1.427 . S
C2374 H2365 0.930 . S
C2374 C2372 1.378 . S
C2374 C2375 1.367 . S
C2375 C2374 1.367 . S
C2375 C2377 1.433 . S
C2376 C2372 1.350 . S
C2376 C2373 1.463 . S
C2376 N2380 1.427 . S
C2377 H2367 0.929 . S
C2377 C2375 1.433 . S
C2377 N2380 1.384 . S
C2378 H2369 0.929 . S
C2378 C2370 1.378 . S
C2378 C2373 1.350 . S
C2379 H2366 0.929 . S
C2379 C2371 1.433 . S
C2379 N2381 1.384 . S
N2380 C2376 1.427 . S
N2380 C2377 1.384 . S
N2381 C2373 1.427 . S
N2381 C2379 1.384 . S
H2382 C2388 0.930 . S
H2383 C2392 0.930 . S
H2384 C2397 0.929 . S
H2385 C2395 0.929 . S
H2386 C2390 0.929 . S
H2387 C2396 0.929 . S
C2388 H2382 0.930 . S
C2388 C2389 1.367 . S
C2388 C2396 1.378 . S
C2389 C2388 1.367 . S
C2389 C2397 1.433 . S
C2390 H2386 0.929 . S
C2390 C2392 1.378 . S
C2390 C2394 1.350 . S
C2391 C2394 1.463 . S
C2391 C2396 1.350 . S
C2391 N2399 1.427 . S
C2392 H2383 0.930 . S
C2392 C2390 1.378 . S
C2392 C2393 1.367 . S
C2393 C2392 1.367 . S
C2393 C2395 1.433 . S
C2394 C2390 1.350 . S
C2394 C2391 1.463 . S
C2394 N2398 1.427 . S
C2395 H2385 0.929 . S
C2395 C2393 1.433 . S
C2395 N2398 1.384 . S
C2396 H2387 0.929 . S
C2396 C2388 1.378 . S
C2396 C2391 1.350 . S
C2397 H2384 0.929 . S
C2397 C2389 1.433 . S
C2397 N2399 1.384 . S
N2398 C2394 1.427 . S
N2398 C2395 1.384 . S
N2399 C2391 1.427 . S
N2399 C2397 1.384 . S
C679 C42 1.498 . S
C683 C1 1.498 . S
C697 C13 1.497 . S
C701 C26 1.497 . S
C715 C28 1.499 . S
C719 C15 1.499 . S
C733 C40 1.499 . S
C737 C55 1.499 . S
C751 C56 1.499 . S
C755 C71 1.499 . S
C769 C96 1.498 . S
C773 C83 1.498 . S
C787 C85 1.499 . S
C791 C98 1.499 . S
C805 C69 1.498 . S
C809 C110 1.498 . S
C823 C125 1.497 . S
C827 C264 1.497 . S
C841 C278 1.497 . S
C845 C139 1.497 . S
C859 C292 1.499 . S
C863 C153 1.499 . S
C877 C250 1.499 . S
C881 C167 1.499 . S
C895 C321 1.499 . S
C899 C180 1.499 . S
C913 C194 1.499 . S
C917 C237 1.499 . S
C931 C335 1.499 . S
C935 C208 1.499 . S
C949 C222 1.499 . S
C953 C307 1.499 . S
C967 C225 1.498 . S
C971 C126 1.498 . S
C985 C239 1.499 . S
C989 C210 1.499 . S
C1003 C168 1.499 . S
C1007 C253 1.499 . S
C1021 C183 1.499 . S
C1025 C266 1.499 . S
C1039 C197 1.499 . S
C1043 C280 1.499 . S
C1057 C155 1.497 . S
C1061 C294 1.497 . S
C1075 C113 1.498 . S
C1079 C308 1.498 . S
C1093 C323 1.497 . S
C1097 C140 1.497 . S
C1111 C378 1.499 . S
C1115 C337 1.499 . S
C1129 C349 1.499 . S
C1133 C362 1.499 . S
C1147 C364 1.497 . S
C1151 C351 1.497 . S
C1165 C376 1.497 . S
C1169 C391 1.497 . S
C1183 C407 1.497 . S
C1187 C392 1.497 . S
C1201 C419 1.497 . S
C1205 C432 1.497 . S
C1219 C434 1.499 . S
C1223 C421 1.499 . S
C1237 C405 1.497 . S
C1241 C446 1.497 . S
C1255 C600 1.497 . S
C1259 C461 1.497 . S
C1273 C475 1.497 . S
C1277 C614 1.497 . S
C1291 C628 1.499 . S
C1295 C489 1.499 . S
C1309 C503 1.498 . S
C1313 C586 1.498 . S
C1327 C516 1.499 . S
C1331 C657 1.499 . S
C1345 C573 1.498 . S
C1349 C530 1.498 . S
C1363 C671 1.498 . S
C1367 C544 1.498 . S
C1381 C643 1.498 . S
C1385 C558 1.498 . S
C1399 C462 1.497 . S
C1403 C561 1.497 . S
C1417 C546 1.499 . S
C1421 C575 1.499 . S
C1435 C589 1.499 . S
C1439 C504 1.499 . S
C1453 C602 1.499 . S
C1457 C519 1.499 . S
C1471 C533 1.499 . S
C1475 C616 1.499 . S
C1489 C630 1.499 . S
C1493 C491 1.499 . S
C1507 C644 1.499 . S
C1511 C449 1.499 . S
C1525 C659 1.498 . S
C1529 C476 1.498 . S
C1543 C0 1.498 . S
C1547 C617 1.499 . S
C1561 C27 1.499 . S
C1565 C574 1.497 . S
C1579 C29 1.497 . S
C1583 C588 1.499 . S
C1597 C54 1.498 . S
C1601 C603 1.500 . S
C1615 C57 1.498 . S
C1619 C658 1.500 . S
C1633 C82 1.497 . S
C1637 C631 1.499 . S
C1651 C84 1.498 . S
C1655 C645 1.497 . S
C1669 C560 1.499 . S
C1673 C111 1.498 . S
C1687 C124 1.499 . S
C1691 C559 1.498 . S
C1705 C517 1.497 . S
C1709 C138 1.497 . S
C1723 C152 1.499 . S
C1727 C531 1.497 . S
C1741 C166 1.497 . S
C1745 C545 1.499 . S
C1759 C181 1.499 . S
C1763 C474 1.499 . S
C1777 C195 1.498 . S
C1781 C488 1.497 . S
C1795 C502 1.498 . S
C1799 C209 1.499 . S
C1813 C223 1.499 . S
C1817 C460 1.499 . S
C1831 C224 1.499 . S
C1835 C447 1.498 . S
C1849 C238 1.498 . S
C1853 C363 1.497 . S
C1867 C252 1.497 . S
C1871 C365 1.498 . S
C1885 C267 1.497 . S
C1889 C390 1.498 . S
C1903 C336 1.498 . S
C1907 C281 1.497 . S
C1921 C295 1.499 . S
C1925 C418 1.497 . S
C1939 C420 1.498 . S
C1943 C309 1.499 . S
C1957 C393 1.499 . S
C1961 C322 1.497 . S
C1975 C448 1.497 . S
C1979 C99 1.499 . S
C1993 C68 1.499 . S
C1997 C463 1.499 . S
C2011 C477 1.499 . S
C2015 C70 1.498 . S
C2029 C490 1.497 . S
C2033 C97 1.499 . S
C2047 C505 1.497 . S
C2051 C14 1.499 . S
C2065 C41 1.499 . S
C2069 C518 1.498 . S
C2083 C532 1.499 . S
C2087 C43 1.498 . S
C2101 C547 1.497 . S
C2105 C12 1.497 . S
C2119 C572 1.499 . S
C2123 C293 1.497 . S
C2137 C251 1.499 . S
C2141 C670 1.498 . S
C2155 C265 1.497 . S
C2159 C642 1.497 . S
C2173 C656 1.497 . S
C2177 C279 1.499 . S
C2191 C587 1.499 . S
C2195 C334 1.498 . S
C2209 C601 1.499 . S
C2213 C306 1.499 . S
C2227 C320 1.499 . S
C2231 C615 1.497 . S
C2245 C629 1.498 . S
C2249 C236 1.499 . S
C2263 C348 1.497 . S
C2267 C211 1.499 . S
C2281 C404 1.498 . S
C2285 C127 1.499 . S
C2299 C406 1.497 . S
C2303 C141 1.498 . S
C2317 C154 1.497 . S
C2321 C433 1.499 . S
C2335 C112 1.497 . S
C2339 C435 1.498 . S
C2353 C377 1.498 . S
C2357 C182 1.500 . S
C2371 C196 1.497 . S
C2375 C379 1.498 . S
C2389 C350 1.498 . S
C2393 C169 1.497 . S
