# Generated by pormake.
# Topology vmm, (7)-cn, num edge types: 1
# Building blocks:
#     Node 0, Type 0, BuildingBlock: HICVOG_clean_sbu_0, # of connection points: 7
#     Node 1, Type 0, BuildingBlock: HICVOG_clean_sbu_0, # of connection points: 7
#     Node 2, Type 0, BuildingBlock: HICVOG_clean_sbu_0, # of connection points: 7
#     Node 3, Type 0, BuildingBlock: HICVOG_clean_sbu_0, # of connection points: 7
#     Edge 4, Type (0, 0), BuildingBlock: ZUJKAS_clean_linker_0, # of connection points: 2
#     Edge 5, Type (0, 0), BuildingBlock: ZUJKAS_clean_linker_0, # of connection points: 2
#     Edge 6, Type (0, 0), BuildingBlock: ZUJKAS_clean_linker_0, # of connection points: 2
#     Edge 7, Type (0, 0), BuildingBlock: ZUJKAS_clean_linker_0, # of connection points: 2
#     Edge 8, Type (0, 0), BuildingBlock: ZUJKAS_clean_linker_0, # of connection points: 2
#     Edge 9, Type (0, 0), BuildingBlock: ZUJKAS_clean_linker_0, # of connection points: 2
#     Edge 10, Type (0, 0), BuildingBlock: ZUJKAS_clean_linker_0, # of connection points: 2
#     Edge 11, Type (0, 0), BuildingBlock: ZUJKAS_clean_linker_0, # of connection points: 2
#     Edge 12, Type (0, 0), BuildingBlock: ZUJKAS_clean_linker_0, # of connection points: 2
#     Edge 13, Type (0, 0), BuildingBlock: ZUJKAS_clean_linker_0, # of connection points: 2
#     Edge 14, Type (0, 0), BuildingBlock: ZUJKAS_clean_linker_0, # of connection points: 2
#     Edge 15, Type (0, 0), BuildingBlock: ZUJKAS_clean_linker_0, # of connection points: 2
#     Edge 16, Type (0, 0), BuildingBlock: ZUJKAS_clean_linker_0, # of connection points: 2
#     Edge 17, Type (0, 0), BuildingBlock: ZUJKAS_clean_linker_0, # of connection points: 2
# Relax obj value: 0.084
# Max RMSD: 0.162
# Mean RMSD: 0.162
data_MOF--net-vmm--node1-HICVOG_clean_sbu_0--edge1-ZUJKAS_clean_linker_0
_symmetry_space_group_name_H-M    P1
_symmetry_Int_Tables_number       1
_symmetry_cell_setting            triclinic
loop_
_symmetry_equiv_pos_as_xyz
'x, y, z'
_cell_length_a     22.319044
_cell_length_b     56.758564
_cell_length_c     27.622774
_cell_angle_alpha  89.960072
_cell_angle_beta   81.555759
_cell_angle_gamma 90.070837
loop_
_atom_site_label
_atom_site_type_symbol
_atom_site_fract_x
_atom_site_fract_y
_atom_site_fract_z
_atom_type_partial_charge
Zn0 Zn 0.27874 0.1051 0.2392 0.0
C1 C 0.1651 0.07557 0.16088 0.0
N2 N 0.20341 0.05735 0.16089 0.0
C3 C 0.2507 0.0669 0.1787 0.0
N4 N 0.24087 0.08981 0.18976 0.0
N5 N 0.18819 0.0956 0.17684 0.0
C6 C 0.03949 0.12837 0.19333 0.0
O7 O 0.0578 0.13069 0.23616 0.0
O8 O 0.36864 0.10571 0.22067 0.0
Zn9 Zn 0.16602 0.12748 0.16272 0.0
N10 N 0.25911 0.08609 0.29743 0.0
C11 C 0.18159 0.06748 0.35251 0.0
C12 C 0.19951 0.08106 0.31096 0.0
C13 C 0.30195 0.07804 0.32374 0.0
N14 N 0.22407 0.05944 0.37885 0.0
C15 C 0.28415 0.0642 0.36586 0.0
O16 O 0.17838 0.15157 0.21495 0.0
C17 C 0.21121 0.15376 0.24875 0.0
O18 O 0.24778 0.13767 0.25758 0.0
H19 H 0.16626 0.08765 0.28953 0.0
H20 H 0.34881 0.08277 0.31225 0.0
C21 C 0.20067 0.15797 0.07934 0.0
C22 C 0.23511 0.16455 0.03436 0.0
C23 C 0.29156 0.12908 0.0353 0.0
C24 C 0.25716 0.12265 0.07945 0.0
N25 N 0.2126 0.13718 0.10079 0.0
N26 N 0.27983 0.14975 1.01395 0.0
H27 H 0.1654 0.16923 0.09767 0.0
C28 C 0.3973 0.12422 0.20539 0.0
O29 O 0.36738 0.14388 0.20151 0.0
O30 O 0.0785 0.12702 0.15512 0.0
H31 H 0.26594 0.10614 0.09641 0.0
H32 H 0.13427 0.06335 0.36383 0.0
H33 H 0.32729 0.1177 1.018 0.0
Zn34 Zn 0.80248 0.62812 0.37608 0.0
C35 C 0.71675 0.56708 0.36287 0.0
N36 N 0.76366 0.55769 0.38137 0.0
C37 C 0.80201 0.57594 0.38115 0.0
N38 N 0.77935 0.59588 0.36429 0.0
N39 N 0.72667 0.58997 0.3513 0.0
C40 C 0.56931 0.62024 0.34631 0.0
O41 O 0.59938 0.63661 0.36631 0.0
O42 O 0.89005 0.62858 0.3849 0.0
Zn43 Zn 0.68869 0.60489 0.30125 0.0
N44 N 0.75496 0.63871 0.43691 0.0
C45 C 0.67406 0.63153 0.50149 0.0
C46 C 0.70947 0.62453 0.45825 0.0
C47 C 0.767 0.65967 0.45764 0.0
N48 N 0.68583 0.65238 0.52206 0.0
C49 C 0.73155 0.66681 0.50174 0.0
O50 O 0.71899 0.6375 0.28198 0.0
C51 C 0.75666 0.6535 0.28928 0.0
O52 O 0.79082 0.65141 0.32219 0.0
H53 H 0.70068 0.60786 0.44201 0.0
H54 H 0.80311 0.67064 0.43946 0.0
C55 C 0.66726 0.5775 0.21683 0.0
C56 C 0.68568 0.56355 0.17506 0.0
C57 C 0.78784 0.56706 0.18939 0.0
C58 C 0.76928 0.58075 0.23062 0.0
N59 N 0.70957 0.58571 0.24349 0.0
N60 N 0.74585 0.55886 0.1627 0.0
H61 H 0.6203 0.58219 0.22777 0.0
C62 C 0.92921 0.6188 0.35329 0.0
O63 O 0.91166 0.60897 0.31465 0.0
O64 O 0.59826 0.60511 0.31823 0.0
H65 H 0.80214 0.58747 0.2523 0.0
H66 H 0.63754 0.62045 0.5187 0.0
H67 H 0.83524 0.56298 0.17859 0.0
Zn68 Zn 0.6919 0.92449 0.80049 0.0
C69 C 0.80485 0.95487 0.87829 0.0
N70 N 0.76586 0.97285 0.87815 0.0
C71 C 0.71872 0.96292 0.86085 0.0
N72 N 0.72924 0.93999 0.85019 0.0
N73 N 0.78243 0.93458 0.86275 0.0
C74 C 0.93263 0.91202 0.85321 0.0
O75 O 0.91537 0.92155 0.81414 0.0
O76 O 0.60154 0.92416 0.81693 0.0
Zn77 Zn 0.80578 0.90259 0.87641 0.0
N78 N 0.71327 0.94317 0.74198 0.0
C79 C 0.79201 0.96121 0.68712 0.0
C80 C 0.77313 0.94782 0.7288 0.0
C81 C 0.67112 0.95139 0.71519 0.0
N82 N 0.75019 0.96943 0.66032 0.0
C83 C 0.68987 0.96504 0.67297 0.0
O84 O 0.7942 0.87858 0.82389 0.0
C85 C 0.76002 0.87599 0.79111 0.0
O86 O 0.72231 0.89178 0.78297 0.0
H87 H 0.80584 0.94112 0.75061 0.0
H88 H 0.62403 0.94695 0.72643 0.0
C89 C 0.77139 0.87207 0.96001 0.0
C90 C 0.73787 0.86579 1.00558 0.0
C91 C 0.68111 0.90116 1.00436 0.0
C92 C 0.71446 0.90726 0.95957 0.0
N93 N 0.75887 0.89268 0.93815 0.0
N94 N 0.69363 0.88073 0.02623 0.0
H95 H 0.80786 0.86111 0.94249 0.0
C96 C 0.57255 0.90885 0.84467 0.0
O97 O 0.60258 0.89245 0.86456 0.0
O98 O 0.89327 0.90248 0.88508 0.0
H99 H 0.70536 0.92368 0.94244 0.0
H100 H 0.83954 0.96504 0.67607 0.0
H101 H 0.64574 0.91264 0.02183 0.0
Zn102 Zn 0.27686 0.42345 0.73897 0.0
C103 C 0.1644 0.45352 0.65969 0.0
N104 N 0.20324 0.4716 0.65975 0.0
C105 C 0.24968 0.46197 0.67854 0.0
N106 N 0.23889 0.43914 0.69006 0.0
N107 N 0.18639 0.43348 0.67657 0.0
C108 C 0.03668 0.40203 0.69315 0.0
O109 O 0.05466 0.40007 0.73619 0.0
O110 O 0.36678 0.42322 0.72025 0.0
Zn111 Zn 0.16344 0.40169 0.6624 0.0
N112 N 0.25725 0.44204 0.79771 0.0
C113 C 0.17972 0.4601 0.85351 0.0
C114 C 0.19761 0.44679 0.81162 0.0
C115 C 0.30016 0.45009 0.82397 0.0
N116 N 0.22229 0.46815 0.87978 0.0
C117 C 0.28241 0.46366 0.86642 0.0
O118 O 0.17534 0.37739 0.71441 0.0
C119 C 0.20868 0.37484 0.74778 0.0
O120 O 0.24586 0.39073 0.75662 0.0
H121 H 0.1643 0.44021 0.79021 0.0
H122 H 0.34706 0.44557 0.81216 0.0
C123 C 0.19582 0.37195 0.57749 0.0
C124 C 0.22877 0.366 0.53157 0.0
C125 C 0.28724 0.4009 0.53406 0.0
C126 C 0.25451 0.40667 0.57926 0.0
N127 N 0.20942 0.39219 0.60015 0.0
N128 N 0.27358 0.38085 0.51134 0.0
H129 H 0.15896 0.36102 0.59466 0.0
C130 C 0.39642 0.40489 0.70551 0.0
O131 O 0.3676 0.38486 0.70255 0.0
O132 O 0.07592 0.40255 0.65497 0.0
H133 H 0.26459 0.42276 0.59716 0.0
H134 H 0.13237 0.46401 0.86513 0.0
H135 H 0.32306 0.41233 0.51696 0.0
H136 H 0.47029 0.08561 0.19111 0.0
H137 H 0.58092 0.08469 0.18036 0.0
H138 H 0.58548 0.16062 0.1864 0.0
H139 H 0.47481 0.16173 0.19566 0.0
H140 H 0.67386 0.14279 0.11692 0.0
H141 H 0.67232 0.09653 0.29434 0.0
H142 H 0.6331 0.08105 0.25182 0.0
H143 H 0.60486 0.10898 0.27596 0.0
C144 C 0.49488 0.10212 0.18981 0.0
C145 C 0.46397 0.12376 0.19488 0.0
C146 C 0.55802 0.10155 0.18386 0.0
C147 C 0.59121 0.12256 0.18378 0.0
C148 C 0.56059 0.1442 0.18668 0.0
H149 H 0.94573 0.14236 0.26136 0.0
H150 H 0.8377 0.14056 0.25553 0.0
C151 C 0.49742 0.14481 0.19204 0.0
C152 C 0.65761 0.12202 0.18279 0.0
H153 H 0.76779 0.10275 0.24666 0.0
C154 C 0.69456 0.13401 0.14517 0.0
C155 C 0.68419 0.11079 0.22014 0.0
C156 C 0.64662 0.0988 0.26312 0.0
C157 C 0.75756 0.1352 0.14401 0.0
C158 C 0.78418 0.12362 0.18091 0.0
C159 C 0.74722 0.11146 0.21824 0.0
C160 C 0.84989 0.12492 0.18328 0.0
C161 C 0.79466 0.1495 0.10431 0.0
C162 C 0.89251 0.11654 0.14471 0.0
C163 C 0.95437 0.11782 0.14772 0.0
C164 C 0.97438 0.12714 0.18973 0.0
C165 C 0.93158 0.13511 0.22858 0.0
C166 C 0.8699 0.13409 0.22528 0.0
H167 H 0.76612 0.162 0.08677 0.0
H168 H 0.83049 0.15965 0.11908 0.0
H169 H 0.8169 0.13745 0.07555 0.0
H170 H 0.87796 0.10882 0.11253 0.0
H171 H -0.01357 0.11121 0.11753 0.0
H172 H 0.49479 0.58989 0.30696 0.0
H173 H 0.38429 0.58944 0.31955 0.0
H174 H 0.3816 0.64701 0.42169 0.0
H175 H 0.49252 0.64797 0.40848 0.0
H176 H 0.2993 0.58321 0.40221 0.0
H177 H 0.28069 0.67234 0.32185 0.0
H178 H 0.35143 0.65655 0.31647 0.0
H179 H 0.32238 0.67122 0.37267 0.0
C180 C 0.47081 0.60248 0.33216 0.0
C181 C 0.50244 0.61921 0.35621 0.0
C182 C 0.40762 0.60212 0.33944 0.0
C183 C 0.37479 0.61844 0.3709 0.0
C184 C 0.40613 0.63459 0.39642 0.0
H185 H 0.98382 0.64318 0.42012 0.0
H186 H 0.09088 0.64223 0.43066 0.0
C187 C 0.46948 0.63506 0.38896 0.0
C188 C 0.30786 0.61891 0.37541 0.0
H189 H 0.18945 0.65281 0.35133 0.0
C190 C 0.27521 0.59846 0.39135 0.0
C191 C 0.27661 0.63884 0.36113 0.0
C192 C 0.30946 0.66093 0.34166 0.0
C193 C 0.21212 0.59735 0.39288 0.0
C194 C 0.18126 0.61711 0.37769 0.0
C195 C 0.21353 0.63774 0.36305 0.0
C196 C 0.11597 0.61638 0.37386 0.0
C197 C 0.17884 0.57508 0.41048 0.0
C198 C 0.09501 0.60221 0.33829 0.0
C199 C 0.03417 0.60289 0.33178 0.0
C200 C -0.00671 0.61774 0.36085 0.0
C201 C 0.01427 0.63159 0.3971 0.0
C202 C 0.07528 0.63105 0.40326 0.0
H203 H 0.20647 0.56362 0.43119 0.0
H204 H 0.13553 0.57926 0.43416 0.0
H205 H 0.16795 0.56502 0.37845 0.0
H206 H 0.12604 0.59102 0.3148 0.0
H207 H 0.01928 0.59189 0.3038 0.0
H208 H -0.01389 0.88825 0.92147 0.0
H209 H 0.09325 0.88875 0.93176 0.0
H210 H 0.13066 0.93847 0.81308 0.0
H211 H 0.02379 0.93803 0.80227 0.0
H212 H 0.1915 0.87703 0.85093 0.0
H213 H 0.21208 0.96626 0.92965 0.0
H214 H 0.14079 0.95068 0.93406 0.0
H215 H 0.17215 0.96466 0.87769 0.0
C216 C 0.01707 0.89942 0.89776 0.0
C217 C -0.00331 0.91296 0.86076 0.0
C218 C 0.07812 0.89969 0.90378 0.0
C219 C 0.11945 0.91379 0.87346 0.0
C220 C 0.09911 0.9277 0.83719 0.0
H221 H 0.49825 0.93917 0.80521 0.0
H222 H 0.38779 0.93972 0.81809 0.0
C223 C 0.03821 0.92727 0.83083 0.0
C224 C 0.18467 0.91273 0.87716 0.0
H225 H 0.30394 0.94614 0.90119 0.0
C226 C 0.21617 0.89198 0.86251 0.0
C227 C 0.21624 0.93235 0.89218 0.0
C228 C 0.18371 0.95474 0.9097 0.0
C229 C 0.27923 0.89064 0.86038 0.0
C230 C 0.3112 0.91044 0.87445 0.0
C231 C 0.27929 0.93099 0.89048 0.0
C232 C 0.37813 0.91071 0.86953 0.0
C233 C 0.3113 0.86844 0.84087 0.0
C234 C 0.40936 0.89449 0.89494 0.0
C235 C 0.47269 0.89396 0.88731 0.0
C236 C 0.50571 0.90983 0.85451 0.0
C237 C 0.4742 0.92659 0.83048 0.0
C238 C 0.41104 0.927 0.83792 0.0
H239 H 0.282 0.85712 0.82134 0.0
H240 H 0.3532 0.87269 0.81543 0.0
H241 H 0.32426 0.85812 0.87183 0.0
H242 H 0.38475 0.88209 0.9203 0.0
H243 H 0.49566 0.88103 0.90681 0.0
H244 H -0.01403 0.41794 0.61513 0.0
H245 H 0.87796 0.42183 0.60943 0.0
H246 H 0.83339 0.39421 0.75589 0.0
H247 H 0.94101 0.39086 0.76234 0.0
H248 H 0.78994 0.38852 0.61521 0.0
H249 H 0.73355 0.45372 0.76359 0.0
H250 H 0.81064 0.44684 0.73801 0.0
H251 H 0.76962 0.42814 0.78419 0.0
C252 C 0.95307 0.41273 0.64612 0.0
C253 C 0.97178 0.40414 0.68926 0.0
C254 C 0.89149 0.41499 0.64282 0.0
C255 C 0.84776 0.40869 0.68254 0.0
C256 C 0.86642 0.39977 0.7253 0.0
H257 H 0.47646 0.36827 0.69451 0.0
H258 H 0.58695 0.3706 0.6824 0.0
C259 C 0.9279 0.39773 0.72883 0.0
C260 C 0.78248 0.41074 0.67903 0.0
H261 H 0.64986 0.43278 0.73858 0.0
C262 C 0.75931 0.39843 0.64179 0.0
C263 C 0.74285 0.42408 0.71309 0.0
C264 C 0.76553 0.43915 0.75162 0.0
C265 C 0.69704 0.39825 0.63905 0.0
C266 C 0.65697 0.41021 0.67525 0.0
C267 C 0.68052 0.42336 0.71117 0.0
C268 C 0.59033 0.4087 0.67801 0.0
C269 C 0.67495 0.38528 0.59738 0.0
C270 C 0.55548 0.42934 0.68031 0.0
C271 C 0.49238 0.42806 0.68824 0.0
C272 C 0.46297 0.40609 0.69378 0.0
C273 C 0.49787 0.38542 0.69007 0.0
C274 C 0.56104 0.38673 0.68274 0.0
H275 H 0.71089 0.38417 0.56505 0.0
H276 H 0.66236 0.36702 0.60917 0.0
H277 H 0.63462 0.39397 0.58614 0.0
H278 H 0.57715 0.44647 0.67693 0.0
H279 H 0.46669 0.4443 0.69072 0.0
H280 H 0.40618 0.05369 0.33969 0.0
H281 H 0.47484 0.0369 0.39174 0.0
H282 H 0.3304 0.03588 0.51382 0.0
H283 H 0.26145 0.05281 0.46252 0.0
H284 H 0.50823 0.05409 0.48047 0.0
H285 H 0.39153 0.96764 0.5073 0.0
H286 H 0.37768 0.98813 0.46016 0.0
H287 H 0.34288 0.99256 0.52242 0.0
C288 C 0.38897 0.05027 0.37773 0.0
C289 C 0.32801 0.0548 0.39683 0.0
C290 C 0.42833 0.04047 0.40736 0.0
C291 C 0.40747 0.0348 0.45643 0.0
C292 C 0.34714 0.03964 0.47579 0.0
H293 H 0.56803 0.9761 0.69821 0.0
H294 H 0.50038 0.99293 0.64543 0.0
C295 C 0.30783 0.04942 0.44632 0.0
C296 C 0.44875 0.02402 0.48769 0.0
H297 H 0.46807 0.97532 0.55656 0.0
C298 C 0.49972 0.03681 0.49688 0.0
C299 C 0.43737 1.0015 0.50919 0.0
C300 C 0.38472 0.98653 0.499 0.0
C301 C 0.539 0.02789 0.52779 0.0
C302 C 0.52752 1.0054 0.54939 0.0
C303 C 0.47662 0.99259 0.54012 0.0
C304 C 0.56838 0.99471 0.58111 0.0
C305 C 0.59169 0.04284 0.53796 0.0
C306 C 0.62877 0.9897 0.56222 0.0
C307 C 0.66753 0.97988 0.59211 0.0
C308 C 0.64672 0.97462 0.64157 0.0
C309 C 0.58573 0.97938 0.66022 0.0
C310 C 0.54694 0.98922 0.63016 0.0
H311 H 0.58522 0.0617 0.52923 0.0
H312 H 0.59837 0.0414 0.5769 0.0
H313 H 0.63361 0.03664 0.51489 0.0
H314 H 0.64596 0.99334 0.52421 0.0
H315 H 0.71395 0.97632 0.57627 0.0
H316 H 0.26001 0.47486 0.96316 0.0
H317 H 0.32898 0.49198 1.01428 0.0
H318 H 0.4734 0.4908 0.89216 0.0
H319 H 0.40439 0.47441 0.84005 0.0
H320 H 0.43656 0.47444 0.03877 0.0
H321 H 0.47475 0.55917 0.93822 0.0
H322 H 0.41463 0.53912 0.92901 0.0
H323 H 0.49109 0.5334 0.90097 0.0
C324 C 0.30638 0.47828 0.94691 0.0
C325 C 0.32637 0.47306 0.89734 0.0
C326 C 0.34581 0.48801 0.97636 0.0
C327 C 0.40611 0.49294 0.95693 0.0
C328 C 0.42675 0.48747 0.90773 0.0
H329 H 0.70958 0.55197 0.07857 0.0
H330 H 0.64139 0.53468 0.02691 0.0
C331 C 0.38726 0.47773 0.87812 0.0
C332 C 0.44716 0.50367 0.98851 0.0
H333 H 0.53362 0.55233 1.00154 0.0
C334 C 0.45768 0.4915 0.03073 0.0
C335 C 0.47455 0.52595 0.97799 0.0
C336 C 0.46289 0.54032 0.93435 0.0
C337 C 0.49563 0.50082 0.0623 0.0
C338 C 0.52295 0.52311 0.0518 0.0
C339 C 0.51253 0.53526 1.00955 0.0
C340 C 0.56357 0.53392 0.08363 0.0
C341 C 0.50721 0.48649 0.10601 0.0
C342 C 0.54227 0.53954 0.13264 0.0
C343 C 0.58126 0.54939 0.16252 0.0
C344 C 0.64233 0.55401 0.14379 0.0
C345 C 0.66303 0.5486 0.09442 0.0
C346 C 0.62406 0.53878 0.06467 0.0
H347 H 0.49537 0.46763 0.10217 0.0
H348 H 0.55545 0.4877 0.1114 0.0
H349 H 0.47895 0.49343 0.13934 0.0
H350 H 0.49547 0.53626 0.14784 0.0
H351 H 0.56362 0.55286 0.20044 0.0
H352 H 0.90724 0.97698 0.84048 0.0
H353 H 0.97464 0.99739 0.88894 0.0
H354 H 0.88633 0.96268 1.01916 0.0
H355 H 0.8194 0.94203 0.97036 0.0
H356 H 0.91643 0.02802 0.96091 0.0
H357 H 0.06597 0.96501 0.03964 0.0
H358 H 0.0311 0.95826 0.98625 0.0
H359 H -0.01227 0.95629 0.04627 0.0
C360 C 0.90474 0.97271 0.87897 0.0
C361 C 0.8591 0.95771 0.90174 0.0
C362 C 0.94267 0.98458 0.90671 0.0
C363 C 0.93519 0.98169 0.95766 0.0
C364 C 0.89341 0.96495 0.9798 0.0
H365 H 0.0605 0.05448 0.19703 0.0
H366 H -0.00529 0.03427 0.14686 0.0
C367 C 0.85553 0.95298 0.95191 0.0
C368 C 0.96343 0.99878 0.98804 0.0
H369 H 0.05687 1.00341 0.07476 0.0
C370 C 0.94754 0.02269 0.98556 0.0
C371 C 0.0035 0.99173 1.02035 0.0
C372 C 0.02362 0.96647 0.02314 0.0
C373 C 0.97003 0.0397 1.01515 0.0
C374 C 0.00976 0.03263 0.04768 0.0
C375 C 0.02585 1.00874 0.05003 0.0
C376 C 0.03712 0.04967 0.0787 0.0
C377 C 0.95029 0.06501 1.01218 0.0
C378 C 0.08 0.06618 0.05733 0.0
C379 C 0.11699 0.07801 0.08617 0.0
C380 C 0.11142 0.07337 0.13651 0.0
C381 C 0.06451 0.05872 0.15842 0.0
C382 C 0.02755 0.04693 0.12971 0.0
H383 H 0.90942 0.06668 0.99382 0.0
H384 H 0.94053 0.07291 0.04927 0.0
H385 H -0.01258 0.07532 0.99084 0.0
H386 H 0.08863 0.06833 1.01796 0.0
H387 H 0.15409 0.08869 0.06837 0.0
H388 H 0.15841 0.44247 0.5653 0.0
H389 H 0.09406 0.46346 0.51483 0.0
H390 H -0.00726 0.49363 0.64496 0.0
H391 H 0.05669 0.47249 0.69524 0.0
H392 H 0.9225 0.48504 0.56888 0.0
H393 H 0.13432 0.53461 0.5044 0.0
H394 H 0.13832 0.5034 0.49358 0.0
H395 H 0.1279 0.51434 0.55527 0.0
C396 C 0.12014 0.45248 0.58314 0.0
C397 C 0.11182 0.45574 0.63402 0.0
C398 C 0.08419 0.46483 0.55431 0.0
C399 C 0.03998 0.48066 0.57616 0.0
C400 C 0.02702 0.48168 0.62737 0.0
H401 H 0.81175 0.58852 0.47422 0.0
H402 H 0.87774 0.56822 0.5245 0.0
C403 C 0.063 0.46937 0.65612 0.0
C404 C 0.01261 0.49823 0.54623 0.0
H405 H 0.04698 0.54579 0.47104 0.0
C406 C 0.94961 0.49833 0.54753 0.0
C407 C 0.04821 0.51574 0.51887 0.0
C408 C 0.11588 0.51726 0.51812 0.0
C409 C 0.9213 0.51514 0.52126 0.0
C410 C 0.9569 0.53261 0.49382 0.0
C411 C 0.01988 0.53254 0.49253 0.0
C412 C 0.92939 0.54991 0.46348 0.0
C413 C 0.85361 0.51372 0.52206 0.0
C414 C 0.94025 0.54787 0.41237 0.0
C415 C 0.9031 0.55961 0.38377 0.0
C416 C 0.8554 0.57382 0.40588 0.0
C417 C 0.84919 0.57807 0.45637 0.0
C418 C 0.88617 0.56619 0.4851 0.0
H419 H 0.83476 0.49661 0.53687 0.0
H420 H 0.83141 0.52799 0.54558 0.0
H421 H 0.84177 0.5161 0.48469 0.0
H422 H 0.97364 0.53552 0.39499 0.0
H423 H 0.90777 0.55574 0.34499 0.0
H424 H 0.12956 0.19085 0.03739 0.0
H425 H 0.11476 0.22627 0.98997 0.0
H426 H 0.30201 0.22403 0.92392 0.0
H427 H 0.31758 0.18887 0.97111 0.0
H428 H 0.17287 0.27055 0.98565 0.0
H429 H 0.21106 0.22599 0.80544 0.0
H430 H 0.19701 0.20997 0.86249 0.0
H431 H 0.27143 0.22129 0.84071 0.0
C432 C 0.16795 0.19802 1.01341 0.0
C433 C 0.22496 0.18689 1.00833 0.0
C434 C 0.15919 0.21821 0.98599 0.0
C435 C 0.20698 0.22753 0.95271 0.0
C436 C 0.26409 0.21684 0.94849 0.0
H437 H 0.27261 0.36361 0.82181 0.0
H438 H 0.26509 0.32808 0.8719 0.0
C439 C 0.27291 0.19674 0.97573 0.0
C440 C 0.19789 0.24854 0.92249 0.0
H441 H 0.21479 0.26813 0.80424 0.0
C442 C 0.18137 0.26998 0.94598 0.0
C443 C 0.20795 0.24773 0.87069 0.0
C444 C 0.22224 0.22496 0.84328 0.0
C445 C 0.1774 0.29083 0.9191 0.0
C446 C 0.19117 0.29027 0.8674 0.0
C447 C 0.20492 0.26863 0.84387 0.0
C448 C 0.19435 0.31206 0.83721 0.0
C449 C 0.15869 0.31328 0.94636 0.0
C450 C 0.15825 0.31466 0.79994 0.0
C451 C 0.1627 0.335 0.77077 0.0
C452 C 0.20374 0.35305 0.77809 0.0
C453 C 0.24021 0.3502 0.81519 0.0
C454 C 0.23568 0.32993 0.84424 0.0
H455 H 0.13229 0.30959 0.98291 0.0
H456 H 0.19983 0.32328 0.95208 0.0
H457 H 0.13105 0.32458 0.92537 0.0
H458 H 0.12643 0.30099 0.79357 0.0
H459 H 0.134 0.33654 0.74254 0.0
H460 H 0.64793 0.69234 0.56104 0.0
H461 H 0.66326 0.72772 0.60759 0.0
H462 H 0.85299 0.72768 0.54824 0.0
H463 H 0.83828 0.69208 0.50138 0.0
H464 H 0.73882 0.73262 0.67855 0.0
H465 H 0.80082 0.79582 0.52537 0.0
H466 H 0.76576 0.76772 0.51707 0.0
H467 H 0.84482 0.76922 0.52263 0.0
C468 C 0.693 0.69986 0.5575 0.0
C469 C 0.74168 0.68936 0.52694 0.0
C470 C 0.70163 0.72013 0.58422 0.0
C471 C 0.75912 0.73049 0.58113 0.0
C472 C 0.80796 0.72025 0.55047 0.0
H473 H 0.8338 0.83745 0.79611 0.0
H474 H 0.83988 0.80189 0.74527 0.0
C475 C 0.79935 0.6999 0.52351 0.0
C476 C 0.76748 0.7515 0.61152 0.0
H477 H 0.80147 0.81024 0.60538 0.0
C478 C 0.75297 0.74957 0.6626 0.0
C479 C 0.78553 0.77362 0.5906 0.0
C480 C 0.79973 0.77692 0.53591 0.0
C481 C 0.75492 0.7692 0.69328 0.0
C482 C 0.77276 0.79134 0.67238 0.0
C483 C 0.78825 0.79321 0.62134 0.0
C484 C 0.7712 0.81308 0.70248 0.0
C485 C 0.73555 0.76628 0.74764 0.0
C486 C 0.7315 0.83136 0.69471 0.0
C487 C 0.728 0.85167 0.72351 0.0
C488 C 0.76441 0.85426 0.76072 0.0
C489 C 0.80483 0.83602 0.76804 0.0
C490 C 0.80825 0.81564 0.73911 0.0
H491 H 0.71143 0.74935 0.75663 0.0
H492 H 0.7762 0.76657 0.76644 0.0
H493 H 0.70546 0.78095 0.76245 0.0
H494 H 0.70252 0.82978 0.66666 0.0
H495 H 0.69649 0.86533 0.71655 0.0
H496 H 0.78295 0.82283 0.96834 0.0
H497 H 0.79269 0.78641 1.01415 0.0
H498 H 0.72669 0.82222 0.14894 0.0
H499 H 0.71698 0.85862 0.10388 0.0
H500 H 0.85725 0.77535 0.09392 0.0
H501 H 0.60853 0.76668 0.1459 0.0
H502 H 0.64236 0.78645 0.09837 0.0
H503 H 0.63815 0.79462 0.16166 0.0
C504 C 0.77149 0.82315 1.00778 0.0
C505 C 0.74905 0.84379 0.03232 0.0
C506 C 0.77681 0.80222 0.03389 0.0
C507 C 0.7595 0.80152 0.08486 0.0
C508 C 0.73919 0.82224 0.10953 0.0
H509 H 0.82304 0.69388 0.29725 0.0
H510 H 0.82681 0.72931 0.24615 0.0
C511 C 0.73374 0.84306 0.0836 0.0
C512 C 0.76066 0.77907 0.11242 0.0
H513 H 0.66964 0.74112 0.18593 0.0
C514 C 0.81627 0.76776 0.11387 0.0
C515 C 0.70702 0.76904 0.1379 0.0
C516 C 0.64552 0.77967 0.13562 0.0
C517 C 0.8198 0.74695 0.14109 0.0
C518 C 0.76637 0.73743 0.16808 0.0
C519 C 0.71069 0.74853 0.1657 0.0
C520 C 0.76652 0.71568 0.19818 0.0
C521 C 0.88051 0.73516 0.14006 0.0
C522 C 0.73049 0.6964 0.18894 0.0
C523 C 0.72768 0.67627 0.21835 0.0
C524 C 0.76082 0.67492 0.2579 0.0
C525 C 0.79718 0.69424 0.26701 0.0
C526 C 0.79975 0.71446 0.23757 0.0
H527 H 0.91325 0.74089 0.10796 0.0
H528 H 0.89956 0.73997 0.17363 0.0
H529 H 0.87603 0.71569 0.13907 0.0
H530 H 0.70427 0.69694 0.15892 0.0
H531 H 0.69929 0.66178 0.21003 0.0
H532 H 0.24652 0.36011 0.43296 0.0
H533 H 0.23501 0.32432 0.38647 0.0
H534 H 0.17396 0.28681 0.52045 0.0
H535 H 0.18515 0.32266 0.56752 0.0
H536 H 0.29631 0.28335 0.39301 0.0
H537 H 0.04864 0.2673 0.43398 0.0
H538 H 0.08269 0.29516 0.44609 0.0
H539 H 0.08561 0.27073 0.48711 0.0
C540 C 0.23004 0.34434 0.45268 0.0
C541 C 0.2164 0.34441 0.50407 0.0
C542 C 0.22339 0.32388 0.42595 0.0
C543 C 0.20299 0.30292 0.44984 0.0
C544 C 0.18844 0.30291 0.5011 0.0
H545 H 0.27035 0.16337 0.32645 0.0
H546 H 0.26597 0.19922 0.37536 0.0
C547 C 0.19485 0.32348 0.528 0.0
C548 C 0.20123 0.28088 0.421 0.0
H549 H 0.10812 0.23694 0.39149 0.0
C550 C 0.25509 0.27324 0.39263 0.0
C551 C 0.14733 0.26783 0.42008 0.0
C552 C 0.0876 0.27573 0.44806 0.0
C553 C 0.25674 0.25285 0.36377 0.0
C554 C 0.20327 0.23941 0.3639 0.0
C555 C 0.14915 0.24717 0.39174 0.0
C556 C 0.20313 0.2172 0.33549 0.0
C557 C 0.31562 0.24609 0.33276 0.0
C558 C 0.16775 0.21507 0.29766 0.0
C559 C 0.16985 0.19445 0.26956 0.0
C560 C 0.20725 0.17553 0.27896 0.0
C561 C 0.24147 0.17761 0.31772 0.0
C562 C 0.23922 0.19815 0.34574 0.0
H563 H 0.34732 0.26127 0.32662 0.0
H564 H 0.33793 0.23209 0.35173 0.0
H565 H 0.30767 0.23916 0.29666 0.0
H566 H 0.13935 0.22954 0.28929 0.0
H567 H 0.14267 0.19345 0.24021 0.0
H568 H 0.35147 0.09001 0.13659 0.0
H569 H 0.43603 0.07213 0.0837 0.0
H570 H 0.36745 1.00306 0.12696 0.0
H571 H 0.28356 0.02098 0.18172 0.0
H572 H 0.49977 1.00731 0.10593 0.0
H573 H 0.37864 0.04298 0.95962 0.0
H574 H 0.39932 0.06427 1.00241 0.0
H575 H 0.34465 0.04183 0.02304 0.0
C576 C 0.35653 0.07107 0.13762 0.0
C577 C 0.31146 0.05688 0.16408 0.0
C578 C 0.40419 0.06085 0.10635 0.0
C579 C 0.4069 0.03633 0.10057 0.0
C580 C 0.36577 0.02205 0.13077 0.0
H581 H 0.61971 0.93972 0.90531 0.0
H582 H 0.53492 0.95756 0.9579 0.0
C583 C 0.31822 0.03228 0.16231 0.0
C584 C 0.44705 0.02578 0.05891 0.0
H585 H 0.47001 0.02257 0.93396 0.0
C586 C 0.49335 1.01059 0.06835 0.0
C587 C 0.43804 0.03005 1.00995 0.0
C588 C 0.38721 0.04551 0.9979 0.0
C589 C 0.53186 0.99987 0.02994 0.0
C590 C 0.52273 1.00408 0.98096 0.0
C591 C 0.47648 0.0193 0.97154 0.0
C592 C 0.56257 0.99336 0.93929 0.0
C593 C 0.58286 0.98452 0.04208 0.0
C594 C 0.60273 1.00756 0.90805 0.0
C595 C 0.65015 0.99728 0.87641 0.0
C596 C 0.65775 0.97271 0.87563 0.0
C597 C 0.61365 0.95856 0.90325 0.0
C598 C 0.566 0.9688 0.93446 0.0
H599 H 0.59206 0.98745 0.08007 0.0
H600 H 0.57044 0.96573 0.03861 0.0
H601 H 0.62515 0.98792 1.01641 0.0
H602 H 0.60049 0.02658 0.91108 0.0
H603 H 0.68413 1.00859 0.85614 0.0
H604 H 0.34945 0.43873 0.63564 0.0
H605 H 0.43482 0.45665 0.58359 0.0
H606 H 0.36879 0.52564 0.62965 0.0
H607 H 0.28408 0.50764 0.68327 0.0
H608 H 0.40472 0.4849 0.50802 0.0
H609 H 0.55311 0.5335 0.61829 0.0
H610 H 0.50333 0.50999 0.64339 0.0
H611 H 0.4736 0.53895 0.63574 0.0
C612 C 0.35534 0.45761 0.6375 0.0
C613 C 0.31085 0.47178 0.66454 0.0
C614 C 0.4036 0.46788 0.60684 0.0
C615 C 0.40806 0.49246 0.60264 0.0
C616 C 0.36678 0.50663 0.63289 0.0
H617 H 0.61696 0.58953 0.4073 0.0
H618 H 0.53223 0.57103 0.45893 0.0
C619 C 0.31853 0.49634 0.66371 0.0
C620 C 0.44903 0.50312 0.56141 0.0
H621 H 0.56403 0.54262 0.53336 0.0
C622 C 0.43995 0.49738 0.51349 0.0
C623 C 0.49433 0.51955 0.56872 0.0
C624 C 0.5072 0.52576 0.61929 0.0
C625 C 0.4745 0.50794 0.47263 0.0
C626 C 0.51965 0.52444 0.47996 0.0
C627 C 0.52886 0.53011 0.52787 0.0
C628 C 0.55995 0.53544 0.43875 0.0
C629 C 0.46163 0.50174 0.42207 0.0
C630 C 0.60149 0.52162 0.40793 0.0
C631 C 0.64918 0.53229 0.37714 0.0
C632 C 0.65602 0.55689 0.37694 0.0
C633 C 0.61133 0.57069 0.40464 0.0
C634 C 0.56356 0.56006 0.43518 0.0
H635 H 0.41597 0.49377 0.42308 0.0
H636 H 0.46487 0.51756 0.39814 0.0
H637 H 0.49564 0.48875 0.40539 0.0
H638 H 0.60014 0.50258 0.41069 0.0
H639 H 0.68388 0.52126 0.3571 0.0
loop_
_geom_bond_atom_site_label_1
_geom_bond_atom_site_label_2
_geom_bond_distance
_geom_bond_site_symmetry_2
_ccdc_geom_bond_type
Zn0 N4 2.020 . S
Zn0 O8 2.019 . S
Zn0 N10 2.119 . S
Zn0 O18 1.975 . S
C1 N2 1.334 . S
C1 N5 1.336 . S
N2 C1 1.334 . S
N2 C3 1.334 . S
C3 N2 1.334 . S
C3 N4 1.336 . S
N4 Zn0 2.020 . S
N4 C3 1.336 . S
N4 N5 1.354 . S
N5 C1 1.336 . S
N5 N4 1.354 . S
N5 Zn9 2.020 . S
C6 O7 1.244 . S
C6 O30 1.257 . S
O7 C6 1.244 . S
O8 Zn0 2.019 . S
O8 C28 1.257 . S
Zn9 N5 2.020 . S
Zn9 O16 1.975 . S
Zn9 N25 2.119 . S
Zn9 O30 2.019 . S
N10 Zn0 2.119 . S
N10 C12 1.334 . S
N10 C13 1.328 . S
C11 C12 1.391 . S
C11 N14 1.329 . S
C11 H32 0.930 . S
C12 N10 1.334 . S
C12 C11 1.391 . S
C12 H19 0.930 . S
C13 N10 1.328 . S
C13 C15 1.392 . S
C13 H20 0.930 . S
N14 C11 1.329 . S
N14 C15 1.331 . S
C15 C13 1.392 . S
C15 N14 1.331 . S
O16 Zn9 1.975 . S
O16 C17 1.252 . S
C17 O16 1.252 . S
C17 O18 1.252 . S
O18 Zn0 1.975 . S
O18 C17 1.252 . S
H19 C12 0.930 . S
H20 C13 0.930 . S
C21 C22 1.392 . S
C21 N25 1.328 . S
C21 H27 0.930 . S
C22 C21 1.392 . S
C22 N26 1.331 . S
C23 C24 1.391 . S
C23 N26 1.329 . S
C23 H33 0.930 . S
C24 C23 1.391 . S
C24 N25 1.334 . S
C24 H31 0.930 . S
N25 Zn9 2.119 . S
N25 C21 1.328 . S
N25 C24 1.334 . S
N26 C22 1.331 . S
N26 C23 1.329 . S
H27 C21 0.930 . S
C28 O8 1.257 . S
C28 O29 1.244 . S
O29 C28 1.244 . S
O30 C6 1.257 . S
O30 Zn9 2.019 . S
H31 C24 0.930 . S
H32 C11 0.930 . S
H33 C23 0.930 . S
Zn34 N38 2.020 . S
Zn34 O42 2.019 . S
Zn34 N44 2.119 . S
Zn34 O52 1.975 . S
C35 N36 1.334 . S
C35 N39 1.336 . S
N36 C35 1.334 . S
N36 C37 1.334 . S
C37 N36 1.334 . S
C37 N38 1.336 . S
N38 Zn34 2.020 . S
N38 C37 1.336 . S
N38 N39 1.354 . S
N39 C35 1.336 . S
N39 N38 1.354 . S
N39 Zn43 2.020 . S
C40 O41 1.244 . S
C40 O64 1.257 . S
O41 C40 1.244 . S
O42 Zn34 2.019 . S
O42 C62 1.257 . S
Zn43 N39 2.020 . S
Zn43 O50 1.975 . S
Zn43 N59 2.119 . S
Zn43 O64 2.019 . S
N44 Zn34 2.119 . S
N44 C46 1.334 . S
N44 C47 1.328 . S
C45 C46 1.391 . S
C45 N48 1.329 . S
C45 H66 0.930 . S
C46 N44 1.334 . S
C46 C45 1.391 . S
C46 H53 0.930 . S
C47 N44 1.328 . S
C47 C49 1.392 . S
C47 H54 0.930 . S
N48 C45 1.329 . S
N48 C49 1.331 . S
C49 C47 1.392 . S
C49 N48 1.331 . S
O50 Zn43 1.975 . S
O50 C51 1.252 . S
C51 O50 1.252 . S
C51 O52 1.252 . S
O52 Zn34 1.975 . S
O52 C51 1.252 . S
H53 C46 0.930 . S
H54 C47 0.930 . S
C55 C56 1.392 . S
C55 N59 1.328 . S
C55 H61 0.930 . S
C56 C55 1.392 . S
C56 N60 1.331 . S
C57 C58 1.391 . S
C57 N60 1.329 . S
C57 H67 0.930 . S
C58 C57 1.391 . S
C58 N59 1.334 . S
C58 H65 0.930 . S
N59 Zn43 2.119 . S
N59 C55 1.328 . S
N59 C58 1.334 . S
N60 C56 1.331 . S
N60 C57 1.329 . S
H61 C55 0.930 . S
C62 O42 1.257 . S
C62 O63 1.244 . S
O63 C62 1.244 . S
O64 C40 1.257 . S
O64 Zn43 2.019 . S
H65 C58 0.930 . S
H66 C45 0.930 . S
H67 C57 0.930 . S
Zn68 N72 2.020 . S
Zn68 O76 2.019 . S
Zn68 N78 2.119 . S
Zn68 O86 1.975 . S
C69 N70 1.334 . S
C69 N73 1.336 . S
N70 C69 1.334 . S
N70 C71 1.334 . S
C71 N70 1.334 . S
C71 N72 1.336 . S
N72 Zn68 2.020 . S
N72 C71 1.336 . S
N72 N73 1.354 . S
N73 C69 1.336 . S
N73 N72 1.354 . S
N73 Zn77 2.020 . S
C74 O75 1.244 . S
C74 O98 1.257 . S
O75 C74 1.244 . S
O76 Zn68 2.019 . S
O76 C96 1.257 . S
Zn77 N73 2.020 . S
Zn77 O84 1.975 . S
Zn77 N93 2.119 . S
Zn77 O98 2.019 . S
N78 Zn68 2.119 . S
N78 C80 1.334 . S
N78 C81 1.328 . S
C79 C80 1.391 . S
C79 N82 1.329 . S
C79 H100 0.930 . S
C80 N78 1.334 . S
C80 C79 1.391 . S
C80 H87 0.930 . S
C81 N78 1.328 . S
C81 C83 1.392 . S
C81 H88 0.930 . S
N82 C79 1.329 . S
N82 C83 1.331 . S
C83 C81 1.392 . S
C83 N82 1.331 . S
O84 Zn77 1.975 . S
O84 C85 1.252 . S
C85 O84 1.252 . S
C85 O86 1.252 . S
O86 Zn68 1.975 . S
O86 C85 1.252 . S
H87 C80 0.930 . S
H88 C81 0.930 . S
C89 C90 1.392 . S
C89 N93 1.328 . S
C89 H95 0.930 . S
C90 C89 1.392 . S
C90 N94 1.331 . S
C91 C92 1.391 . S
C91 N94 1.329 . S
C91 H101 0.930 . S
C92 C91 1.391 . S
C92 N93 1.334 . S
C92 H99 0.930 . S
N93 Zn77 2.119 . S
N93 C89 1.328 . S
N93 C92 1.334 . S
N94 C90 1.331 . S
N94 C91 1.329 . S
H95 C89 0.930 . S
C96 O76 1.257 . S
C96 O97 1.244 . S
O97 C96 1.244 . S
O98 C74 1.257 . S
O98 Zn77 2.019 . S
H99 C92 0.930 . S
H100 C79 0.930 . S
H101 C91 0.930 . S
Zn102 N106 2.020 . S
Zn102 O110 2.019 . S
Zn102 N112 2.119 . S
Zn102 O120 1.975 . S
C103 N104 1.334 . S
C103 N107 1.336 . S
N104 C103 1.334 . S
N104 C105 1.334 . S
C105 N104 1.334 . S
C105 N106 1.336 . S
N106 Zn102 2.020 . S
N106 C105 1.336 . S
N106 N107 1.354 . S
N107 C103 1.336 . S
N107 N106 1.354 . S
N107 Zn111 2.020 . S
C108 O109 1.244 . S
C108 O132 1.257 . S
O109 C108 1.244 . S
O110 Zn102 2.019 . S
O110 C130 1.257 . S
Zn111 N107 2.020 . S
Zn111 O118 1.975 . S
Zn111 N127 2.119 . S
Zn111 O132 2.019 . S
N112 Zn102 2.119 . S
N112 C114 1.334 . S
N112 C115 1.328 . S
C113 C114 1.391 . S
C113 N116 1.329 . S
C113 H134 0.930 . S
C114 N112 1.334 . S
C114 C113 1.391 . S
C114 H121 0.930 . S
C115 N112 1.328 . S
C115 C117 1.392 . S
C115 H122 0.930 . S
N116 C113 1.329 . S
N116 C117 1.331 . S
C117 C115 1.392 . S
C117 N116 1.331 . S
O118 Zn111 1.975 . S
O118 C119 1.252 . S
C119 O118 1.252 . S
C119 O120 1.252 . S
O120 Zn102 1.975 . S
O120 C119 1.252 . S
H121 C114 0.930 . S
H122 C115 0.930 . S
C123 C124 1.392 . S
C123 N127 1.328 . S
C123 H129 0.930 . S
C124 C123 1.392 . S
C124 N128 1.331 . S
C125 C126 1.391 . S
C125 N128 1.329 . S
C125 H135 0.930 . S
C126 C125 1.391 . S
C126 N127 1.334 . S
C126 H133 0.930 . S
N127 Zn111 2.119 . S
N127 C123 1.328 . S
N127 C126 1.334 . S
N128 C124 1.331 . S
N128 C125 1.329 . S
H129 C123 0.930 . S
C130 O110 1.257 . S
C130 O131 1.244 . S
O131 C130 1.244 . S
O132 C108 1.257 . S
O132 Zn111 2.019 . S
H133 C126 0.930 . S
H134 C113 0.930 . S
H135 C125 0.930 . S
H136 C144 0.929 . S
H137 C146 0.930 . S
H138 C148 0.930 . S
H139 C151 0.929 . S
H140 C154 0.930 . S
H141 C156 0.960 . S
H142 C156 0.960 . S
H143 C156 0.960 . S
C144 H136 0.929 . S
C144 C145 1.377 . S
C144 C146 1.384 . S
C145 C144 1.377 . S
C145 C151 1.390 . S
C146 H137 0.930 . S
C146 C144 1.384 . S
C146 C147 1.372 . S
C147 C146 1.372 . S
C147 C148 1.400 . S
C147 C152 1.490 . S
C148 H138 0.930 . S
C148 C147 1.400 . S
C148 C151 1.386 . S
H149 C165 0.930 . S
H150 C166 0.931 . S
C151 H139 0.929 . S
C151 C145 1.390 . S
C151 C148 1.386 . S
C152 C147 1.490 . S
C152 C154 1.395 . S
C152 C155 1.403 . S
H153 C159 0.930 . S
C154 H140 0.930 . S
C154 C152 1.395 . S
C154 C157 1.403 . S
C155 C152 1.403 . S
C155 C156 1.524 . S
C155 C159 1.400 . S
C156 H141 0.960 . S
C156 H142 0.960 . S
C156 H143 0.960 . S
C156 C155 1.524 . S
C157 C154 1.403 . S
C157 C158 1.392 . S
C157 C161 1.495 . S
C158 C157 1.392 . S
C158 C159 1.385 . S
C158 C160 1.478 . S
C159 H153 0.930 . S
C159 C155 1.400 . S
C159 C158 1.385 . S
C160 C158 1.478 . S
C160 C162 1.381 . S
C160 C166 1.383 . S
C161 C157 1.495 . S
C161 H167 0.959 . S
C161 H168 0.961 . S
C161 H169 0.960 . S
C162 C160 1.381 . S
C162 C163 1.394 . S
C162 H170 0.930 . S
C163 C162 1.394 . S
C163 C164 1.383 . S
C163 H171 0.929 1_655 S
C164 C163 1.383 . S
C164 C165 1.377 . S
C165 H149 0.930 . S
C165 C164 1.377 . S
C165 C166 1.379 . S
C166 H150 0.931 . S
C166 C160 1.383 . S
C166 C165 1.379 . S
H167 C161 0.959 . S
H168 C161 0.961 . S
H169 C161 0.960 . S
H170 C162 0.930 . S
H171 C163 0.929 1_455 S
H172 C180 0.929 . S
H173 C182 0.930 . S
H174 C184 0.930 . S
H175 C187 0.929 . S
H176 C190 0.930 . S
H177 C192 0.960 . S
H178 C192 0.960 . S
H179 C192 0.960 . S
C180 H172 0.929 . S
C180 C181 1.377 . S
C180 C182 1.384 . S
C181 C180 1.377 . S
C181 C187 1.390 . S
C182 H173 0.930 . S
C182 C180 1.384 . S
C182 C183 1.372 . S
C183 C182 1.372 . S
C183 C184 1.400 . S
C183 C188 1.490 . S
C184 H174 0.930 . S
C184 C183 1.400 . S
C184 C187 1.386 . S
H185 C201 0.930 . S
H186 C202 0.931 . S
C187 H175 0.929 . S
C187 C181 1.390 . S
C187 C184 1.386 . S
C188 C183 1.490 . S
C188 C190 1.395 . S
C188 C191 1.403 . S
H189 C195 0.930 . S
C190 H176 0.930 . S
C190 C188 1.395 . S
C190 C193 1.403 . S
C191 C188 1.403 . S
C191 C192 1.524 . S
C191 C195 1.400 . S
C192 H177 0.960 . S
C192 H178 0.960 . S
C192 H179 0.960 . S
C192 C191 1.524 . S
C193 C190 1.403 . S
C193 C194 1.392 . S
C193 C197 1.495 . S
C194 C193 1.392 . S
C194 C195 1.385 . S
C194 C196 1.478 . S
C195 H189 0.930 . S
C195 C191 1.400 . S
C195 C194 1.385 . S
C196 C194 1.478 . S
C196 C198 1.381 . S
C196 C202 1.383 . S
C197 C193 1.495 . S
C197 H203 0.959 . S
C197 H204 0.961 . S
C197 H205 0.960 . S
C198 C196 1.381 . S
C198 C199 1.394 . S
C198 H206 0.930 . S
C199 C198 1.394 . S
C199 C200 1.383 . S
C199 H207 0.929 . S
C200 C199 1.383 . S
C200 C201 1.377 . S
C201 H185 0.930 . S
C201 C200 1.377 . S
C201 C202 1.379 . S
C202 H186 0.931 . S
C202 C196 1.383 . S
C202 C201 1.379 . S
H203 C197 0.959 . S
H204 C197 0.961 . S
H205 C197 0.960 . S
H206 C198 0.930 . S
H207 C199 0.929 . S
H208 C216 0.929 1_655 S
H209 C218 0.930 . S
H210 C220 0.930 . S
H211 C223 0.929 . S
H212 C226 0.930 . S
H213 C228 0.960 . S
H214 C228 0.960 . S
H215 C228 0.960 . S
C216 H208 0.929 1_455 S
C216 C217 1.377 . S
C216 C218 1.384 . S
C217 C216 1.377 . S
C217 C223 1.390 . S
C218 H209 0.930 . S
C218 C216 1.384 . S
C218 C219 1.372 . S
C219 C218 1.372 . S
C219 C220 1.400 . S
C219 C224 1.490 . S
C220 H210 0.930 . S
C220 C219 1.400 . S
C220 C223 1.386 . S
H221 C237 0.930 . S
H222 C238 0.931 . S
C223 H211 0.929 . S
C223 C217 1.390 . S
C223 C220 1.386 . S
C224 C219 1.490 . S
C224 C226 1.395 . S
C224 C227 1.403 . S
H225 C231 0.930 . S
C226 H212 0.930 . S
C226 C224 1.395 . S
C226 C229 1.403 . S
C227 C224 1.403 . S
C227 C228 1.524 . S
C227 C231 1.400 . S
C228 H213 0.960 . S
C228 H214 0.960 . S
C228 H215 0.960 . S
C228 C227 1.524 . S
C229 C226 1.403 . S
C229 C230 1.392 . S
C229 C233 1.495 . S
C230 C229 1.392 . S
C230 C231 1.385 . S
C230 C232 1.478 . S
C231 H225 0.930 . S
C231 C227 1.400 . S
C231 C230 1.385 . S
C232 C230 1.478 . S
C232 C234 1.381 . S
C232 C238 1.383 . S
C233 C229 1.495 . S
C233 H239 0.959 . S
C233 H240 0.961 . S
C233 H241 0.960 . S
C234 C232 1.381 . S
C234 C235 1.394 . S
C234 H242 0.930 . S
C235 C234 1.394 . S
C235 C236 1.383 . S
C235 H243 0.929 . S
C236 C235 1.383 . S
C236 C237 1.377 . S
C237 H221 0.930 . S
C237 C236 1.377 . S
C237 C238 1.379 . S
C238 H222 0.931 . S
C238 C232 1.383 . S
C238 C237 1.379 . S
H239 C233 0.959 . S
H240 C233 0.961 . S
H241 C233 0.960 . S
H242 C234 0.930 . S
H243 C235 0.929 . S
H244 C252 0.929 . S
H245 C254 0.930 . S
H246 C256 0.930 . S
H247 C259 0.929 . S
H248 C262 0.930 . S
H249 C264 0.960 . S
H250 C264 0.960 . S
H251 C264 0.960 . S
C252 H244 0.929 . S
C252 C253 1.377 . S
C252 C254 1.384 . S
C253 C252 1.377 . S
C253 C259 1.390 . S
C254 H245 0.930 . S
C254 C252 1.384 . S
C254 C255 1.372 . S
C255 C254 1.372 . S
C255 C256 1.400 . S
C255 C260 1.490 . S
C256 H246 0.930 . S
C256 C255 1.400 . S
C256 C259 1.386 . S
H257 C273 0.930 . S
H258 C274 0.931 . S
C259 H247 0.929 . S
C259 C253 1.390 . S
C259 C256 1.386 . S
C260 C255 1.490 . S
C260 C262 1.395 . S
C260 C263 1.403 . S
H261 C267 0.930 . S
C262 H248 0.930 . S
C262 C260 1.395 . S
C262 C265 1.403 . S
C263 C260 1.403 . S
C263 C264 1.524 . S
C263 C267 1.400 . S
C264 H249 0.960 . S
C264 H250 0.960 . S
C264 H251 0.960 . S
C264 C263 1.524 . S
C265 C262 1.403 . S
C265 C266 1.392 . S
C265 C269 1.495 . S
C266 C265 1.392 . S
C266 C267 1.385 . S
C266 C268 1.478 . S
C267 H261 0.930 . S
C267 C263 1.400 . S
C267 C266 1.385 . S
C268 C266 1.478 . S
C268 C270 1.381 . S
C268 C274 1.383 . S
C269 C265 1.495 . S
C269 H275 0.959 . S
C269 H276 0.961 . S
C269 H277 0.960 . S
C270 C268 1.381 . S
C270 C271 1.394 . S
C270 H278 0.930 . S
C271 C270 1.394 . S
C271 C272 1.383 . S
C271 H279 0.929 . S
C272 C271 1.383 . S
C272 C273 1.377 . S
C273 H257 0.930 . S
C273 C272 1.377 . S
C273 C274 1.379 . S
C274 H258 0.931 . S
C274 C268 1.383 . S
C274 C273 1.379 . S
H275 C269 0.959 . S
H276 C269 0.961 . S
H277 C269 0.960 . S
H278 C270 0.930 . S
H279 C271 0.929 . S
H280 C288 0.929 . S
H281 C290 0.930 . S
H282 C292 0.930 . S
H283 C295 0.929 . S
H284 C298 0.930 . S
H285 C300 0.960 . S
H286 C300 0.960 . S
H287 C300 0.960 . S
C288 H280 0.929 . S
C288 C289 1.377 . S
C288 C290 1.384 . S
C289 C288 1.377 . S
C289 C295 1.390 . S
C290 H281 0.930 . S
C290 C288 1.384 . S
C290 C291 1.372 . S
C291 C290 1.372 . S
C291 C292 1.400 . S
C291 C296 1.490 . S
C292 H282 0.930 . S
C292 C291 1.400 . S
C292 C295 1.386 . S
H293 C309 0.930 . S
H294 C310 0.931 . S
C295 H283 0.929 . S
C295 C289 1.390 . S
C295 C292 1.386 . S
C296 C291 1.490 . S
C296 C298 1.395 . S
C296 C299 1.403 1_545 S
H297 C303 0.930 . S
C298 H284 0.930 . S
C298 C296 1.395 . S
C298 C301 1.403 . S
C299 C296 1.403 1_565 S
C299 C300 1.524 . S
C299 C303 1.400 . S
C300 H285 0.960 . S
C300 H286 0.960 . S
C300 H287 0.960 . S
C300 C299 1.524 . S
C301 C298 1.403 . S
C301 C302 1.392 1_545 S
C301 C305 1.495 . S
C302 C301 1.392 1_565 S
C302 C303 1.385 . S
C302 C304 1.478 . S
C303 H297 0.930 . S
C303 C299 1.400 . S
C303 C302 1.385 . S
C304 C302 1.478 . S
C304 C306 1.381 . S
C304 C310 1.383 . S
C305 C301 1.495 . S
C305 H311 0.959 . S
C305 H312 0.961 . S
C305 H313 0.960 . S
C306 C304 1.381 . S
C306 C307 1.394 . S
C306 H314 0.930 . S
C307 C306 1.394 . S
C307 C308 1.383 . S
C307 H315 0.929 . S
C308 C307 1.383 . S
C308 C309 1.377 . S
C309 H293 0.930 . S
C309 C308 1.377 . S
C309 C310 1.379 . S
C310 H294 0.931 . S
C310 C304 1.383 . S
C310 C309 1.379 . S
H311 C305 0.959 . S
H312 C305 0.961 . S
H313 C305 0.960 . S
H314 C306 0.930 . S
H315 C307 0.929 . S
H316 C324 0.929 . S
H317 C326 0.930 . S
H318 C328 0.930 . S
H319 C331 0.929 . S
H320 C334 0.930 . S
H321 C336 0.960 . S
H322 C336 0.960 . S
H323 C336 0.960 . S
C324 H316 0.929 . S
C324 C325 1.377 . S
C324 C326 1.384 . S
C325 C324 1.377 . S
C325 C331 1.390 . S
C326 H317 0.930 . S
C326 C324 1.384 . S
C326 C327 1.372 . S
C327 C326 1.372 . S
C327 C328 1.400 . S
C327 C332 1.490 . S
C328 H318 0.930 . S
C328 C327 1.400 . S
C328 C331 1.386 . S
H329 C345 0.930 . S
H330 C346 0.931 . S
C331 H319 0.929 . S
C331 C325 1.390 . S
C331 C328 1.386 . S
C332 C327 1.490 . S
C332 C334 1.395 1_556 S
C332 C335 1.403 . S
H333 C339 0.930 . S
C334 H320 0.930 . S
C334 C332 1.395 1_554 S
C334 C337 1.403 . S
C335 C332 1.403 . S
C335 C336 1.524 . S
C335 C339 1.400 . S
C336 H321 0.960 . S
C336 H322 0.960 . S
C336 H323 0.960 . S
C336 C335 1.524 . S
C337 C334 1.403 . S
C337 C338 1.392 . S
C337 C341 1.495 . S
C338 C337 1.392 . S
C338 C339 1.385 1_554 S
C338 C340 1.478 . S
C339 H333 0.930 . S
C339 C335 1.400 . S
C339 C338 1.385 1_556 S
C340 C338 1.478 . S
C340 C342 1.381 . S
C340 C346 1.383 . S
C341 C337 1.495 . S
C341 H347 0.959 . S
C341 H348 0.961 . S
C341 H349 0.960 . S
C342 C340 1.381 . S
C342 C343 1.394 . S
C342 H350 0.930 . S
C343 C342 1.394 . S
C343 C344 1.383 . S
C343 H351 0.929 . S
C344 C343 1.383 . S
C344 C345 1.377 . S
C345 H329 0.930 . S
C345 C344 1.377 . S
C345 C346 1.379 . S
C346 H330 0.931 . S
C346 C340 1.383 . S
C346 C345 1.379 . S
H347 C341 0.959 . S
H348 C341 0.961 . S
H349 C341 0.960 . S
H350 C342 0.930 . S
H351 C343 0.929 . S
H352 C360 0.929 . S
H353 C362 0.930 . S
H354 C364 0.930 1_554 S
H355 C367 0.929 . S
H356 C370 0.930 . S
H357 C372 0.960 . S
H358 C372 0.957 1_556 S
H359 C372 0.960 1_655 S
C360 H352 0.929 . S
C360 C361 1.377 . S
C360 C362 1.384 . S
C361 C360 1.377 . S
C361 C367 1.390 . S
C362 H353 0.930 . S
C362 C360 1.384 . S
C362 C363 1.372 . S
C363 C362 1.372 . S
C363 C364 1.400 . S
C363 C368 1.490 . S
C364 H354 0.930 1_556 S
C364 C363 1.400 . S
C364 C367 1.386 . S
H365 C381 0.930 . S
H366 C382 0.931 . S
C367 H355 0.929 . S
C367 C361 1.390 . S
C367 C364 1.386 . S
C368 C363 1.490 . S
C368 C370 1.395 1_565 S
C368 C371 1.403 1_656 S
H369 C375 0.930 . S
C370 H356 0.930 . S
C370 C368 1.395 1_545 S
C370 C373 1.403 1_655 S
C371 C368 1.403 1_454 S
C371 C372 1.524 . S
C371 C375 1.400 . S
C372 H357 0.960 . S
C372 H358 0.957 1_554 S
C372 H359 0.960 1_455 S
C372 C371 1.524 . S
C373 C370 1.403 1_455 S
C373 C374 1.393 1_556 S
C373 C377 1.495 1_455 S
C374 C373 1.393 1_554 S
C374 C375 1.385 1_545 S
C374 C376 1.478 . S
C375 H369 0.930 . S
C375 C371 1.400 . S
C375 C374 1.385 1_565 S
C376 C374 1.478 . S
C376 C378 1.381 . S
C376 C382 1.383 . S
C377 C373 1.495 1_655 S
C377 H383 0.959 . S
C377 H384 0.961 . S
C377 H385 0.960 1_655 S
C378 C376 1.381 . S
C378 C379 1.394 . S
C378 H386 0.930 1_554 S
C379 C378 1.394 . S
C379 C380 1.383 . S
C379 H387 0.929 . S
C380 C379 1.383 . S
C380 C381 1.377 . S
C381 H365 0.930 . S
C381 C380 1.377 . S
C381 C382 1.379 . S
C382 H366 0.931 . S
C382 C376 1.383 . S
C382 C381 1.379 . S
H383 C377 0.959 . S
H384 C377 0.961 . S
H385 C377 0.960 1_455 S
H386 C378 0.930 1_556 S
H387 C379 0.929 . S
H388 C396 0.929 . S
H389 C398 0.930 . S
H390 C400 0.930 . S
H391 C403 0.929 . S
H392 C406 0.930 . S
H393 C408 0.960 . S
H394 C408 0.960 . S
H395 C408 0.960 . S
C396 H388 0.929 . S
C396 C397 1.377 . S
C396 C398 1.384 . S
C397 C396 1.377 . S
C397 C403 1.390 . S
C398 H389 0.930 . S
C398 C396 1.384 . S
C398 C399 1.372 . S
C399 C398 1.372 . S
C399 C400 1.400 . S
C399 C404 1.490 . S
C400 H390 0.930 . S
C400 C399 1.400 . S
C400 C403 1.386 . S
H401 C417 0.930 . S
H402 C418 0.931 . S
C403 H391 0.929 . S
C403 C397 1.390 . S
C403 C400 1.386 . S
C404 C399 1.490 . S
C404 C406 1.395 1_455 S
C404 C407 1.403 . S
H405 C411 0.930 . S
C406 H392 0.930 . S
C406 C404 1.395 1_655 S
C406 C409 1.403 . S
C407 C404 1.403 . S
C407 C408 1.524 . S
C407 C411 1.400 . S
C408 H393 0.960 . S
C408 H394 0.960 . S
C408 H395 0.960 . S
C408 C407 1.524 . S
C409 C406 1.403 . S
C409 C410 1.392 . S
C409 C413 1.495 . S
C410 C409 1.392 . S
C410 C411 1.385 1_655 S
C410 C412 1.478 . S
C411 H405 0.930 . S
C411 C407 1.400 . S
C411 C410 1.385 1_455 S
C412 C410 1.478 . S
C412 C414 1.381 . S
C412 C418 1.383 . S
C413 C409 1.495 . S
C413 H419 0.959 . S
C413 H420 0.961 . S
C413 H421 0.960 . S
C414 C412 1.381 . S
C414 C415 1.394 . S
C414 H422 0.930 . S
C415 C414 1.394 . S
C415 C416 1.383 . S
C415 H423 0.929 . S
C416 C415 1.383 . S
C416 C417 1.377 . S
C417 H401 0.930 . S
C417 C416 1.377 . S
C417 C418 1.379 . S
C418 H402 0.931 . S
C418 C412 1.383 . S
C418 C417 1.379 . S
H419 C413 0.959 . S
H420 C413 0.961 . S
H421 C413 0.960 . S
H422 C414 0.930 . S
H423 C415 0.929 . S
H424 C432 0.929 . S
H425 C434 0.930 . S
H426 C436 0.926 1_556 S
H427 C439 0.929 . S
H428 C442 0.930 . S
H429 C444 0.960 . S
H430 C444 0.960 . S
H431 C444 0.960 . S
C432 H424 0.929 . S
C432 C433 1.377 . S
C432 C434 1.384 1_554 S
C433 C432 1.377 . S
C433 C439 1.390 . S
C434 H425 0.930 . S
C434 C432 1.384 1_556 S
C434 C435 1.372 . S
C435 C434 1.372 . S
C435 C436 1.388 1_556 S
C435 C440 1.490 . S
C436 H426 0.926 1_554 S
C436 C435 1.388 1_554 S
C436 C439 1.402 . S
H437 C453 0.930 . S
H438 C454 0.931 . S
C439 H427 0.929 . S
C439 C433 1.390 . S
C439 C436 1.402 . S
C440 C435 1.490 . S
C440 C442 1.395 . S
C440 C443 1.403 . S
H441 C447 0.930 . S
C442 H428 0.930 . S
C442 C440 1.395 . S
C442 C445 1.403 . S
C443 C440 1.403 . S
C443 C444 1.524 . S
C443 C447 1.400 . S
C444 H429 0.960 . S
C444 H430 0.960 . S
C444 H431 0.960 . S
C444 C443 1.524 . S
C445 C442 1.403 . S
C445 C446 1.392 . S
C445 C449 1.495 . S
C446 C445 1.392 . S
C446 C447 1.385 . S
C446 C448 1.478 . S
C447 H441 0.930 . S
C447 C443 1.400 . S
C447 C446 1.385 . S
C448 C446 1.478 . S
C448 C450 1.381 . S
C448 C454 1.383 . S
C449 C445 1.495 . S
C449 H455 0.959 . S
C449 H456 0.961 . S
C449 H457 0.960 . S
C450 C448 1.381 . S
C450 C451 1.394 . S
C450 H458 0.930 . S
C451 C450 1.394 . S
C451 C452 1.383 . S
C451 H459 0.929 . S
C452 C451 1.383 . S
C452 C453 1.377 . S
C453 H437 0.930 . S
C453 C452 1.377 . S
C453 C454 1.379 . S
C454 H438 0.931 . S
C454 C448 1.383 . S
C454 C453 1.379 . S
H455 C449 0.959 . S
H456 C449 0.961 . S
H457 C449 0.960 . S
H458 C450 0.930 . S
H459 C451 0.929 . S
H460 C468 0.929 . S
H461 C470 0.930 . S
H462 C472 0.930 . S
H463 C475 0.929 . S
H464 C478 0.930 . S
H465 C480 0.960 . S
H466 C480 0.960 . S
H467 C480 0.960 . S
C468 H460 0.929 . S
C468 C469 1.377 . S
C468 C470 1.384 . S
C469 C468 1.377 . S
C469 C475 1.390 . S
C470 H461 0.930 . S
C470 C468 1.384 . S
C470 C471 1.372 . S
C471 C470 1.372 . S
C471 C472 1.400 . S
C471 C476 1.490 . S
C472 H462 0.930 . S
C472 C471 1.400 . S
C472 C475 1.386 . S
H473 C489 0.930 . S
H474 C490 0.931 . S
C475 H463 0.929 . S
C475 C469 1.390 . S
C475 C472 1.386 . S
C476 C471 1.490 . S
C476 C478 1.395 . S
C476 C479 1.403 . S
H477 C483 0.930 . S
C478 H464 0.930 . S
C478 C476 1.395 . S
C478 C481 1.403 . S
C479 C476 1.403 . S
C479 C480 1.524 . S
C479 C483 1.400 . S
C480 H465 0.960 . S
C480 H466 0.960 . S
C480 H467 0.960 . S
C480 C479 1.524 . S
C481 C478 1.403 . S
C481 C482 1.392 . S
C481 C485 1.495 . S
C482 C481 1.392 . S
C482 C483 1.385 . S
C482 C484 1.478 . S
C483 H477 0.930 . S
C483 C479 1.400 . S
C483 C482 1.385 . S
C484 C482 1.478 . S
C484 C486 1.381 . S
C484 C490 1.383 . S
C485 C481 1.495 . S
C485 H491 0.959 . S
C485 H492 0.961 . S
C485 H493 0.960 . S
C486 C484 1.381 . S
C486 C487 1.394 . S
C486 H494 0.930 . S
C487 C486 1.394 . S
C487 C488 1.383 . S
C487 H495 0.929 . S
C488 C487 1.383 . S
C488 C489 1.377 . S
C489 H473 0.930 . S
C489 C488 1.377 . S
C489 C490 1.379 . S
C490 H474 0.931 . S
C490 C484 1.383 . S
C490 C489 1.379 . S
H491 C485 0.959 . S
H492 C485 0.961 . S
H493 C485 0.960 . S
H494 C486 0.930 . S
H495 C487 0.929 . S
H496 C504 0.929 . S
H497 C506 0.930 . S
H498 C508 0.930 . S
H499 C511 0.929 . S
H500 C514 0.930 . S
H501 C516 0.960 . S
H502 C516 0.975 . S
H503 C516 0.960 . S
C504 H496 0.929 . S
C504 C505 1.377 . S
C504 C506 1.384 . S
C505 C504 1.377 . S
C505 C511 1.390 . S
C506 H497 0.930 . S
C506 C504 1.384 . S
C506 C507 1.372 1_556 S
C507 C506 1.372 1_554 S
C507 C508 1.400 . S
C507 C512 1.490 . S
C508 H498 0.930 . S
C508 C507 1.400 . S
C508 C511 1.386 1_554 S
H509 C525 0.930 . S
H510 C526 0.931 . S
C511 H499 0.929 . S
C511 C505 1.390 . S
C511 C508 1.386 1_556 S
C512 C507 1.490 . S
C512 C514 1.395 . S
C512 C515 1.403 . S
H513 C519 0.930 . S
C514 H500 0.930 . S
C514 C512 1.395 . S
C514 C517 1.403 . S
C515 C512 1.403 . S
C515 C516 1.524 . S
C515 C519 1.400 . S
C516 H501 0.960 . S
C516 H502 0.975 . S
C516 H503 0.960 . S
C516 C515 1.524 . S
C517 C514 1.403 . S
C517 C518 1.392 . S
C517 C521 1.495 . S
C518 C517 1.392 . S
C518 C519 1.385 . S
C518 C520 1.478 . S
C519 H513 0.930 . S
C519 C515 1.400 . S
C519 C518 1.385 . S
C520 C518 1.478 . S
C520 C522 1.381 . S
C520 C526 1.383 . S
C521 C517 1.495 . S
C521 H527 0.959 . S
C521 H528 0.961 . S
C521 H529 0.960 . S
C522 C520 1.381 . S
C522 C523 1.394 . S
C522 H530 0.930 . S
C523 C522 1.394 . S
C523 C524 1.383 . S
C523 H531 0.929 . S
C524 C523 1.383 . S
C524 C525 1.377 . S
C525 H509 0.930 . S
C525 C524 1.377 . S
C525 C526 1.379 . S
C526 H510 0.931 . S
C526 C520 1.383 . S
C526 C525 1.379 . S
H527 C521 0.959 . S
H528 C521 0.961 . S
H529 C521 0.960 . S
H530 C522 0.930 . S
H531 C523 0.929 . S
H532 C540 0.929 . S
H533 C542 0.930 . S
H534 C544 0.930 . S
H535 C547 0.929 . S
H536 C550 0.930 . S
H537 C552 0.960 . S
H538 C552 0.960 . S
H539 C552 0.960 . S
C540 H532 0.929 . S
C540 C541 1.377 . S
C540 C542 1.384 . S
C541 C540 1.377 . S
C541 C547 1.390 . S
C542 H533 0.930 . S
C542 C540 1.384 . S
C542 C543 1.372 . S
C543 C542 1.372 . S
C543 C544 1.400 . S
C543 C548 1.490 . S
C544 H534 0.930 . S
C544 C543 1.400 . S
C544 C547 1.386 . S
H545 C561 0.930 . S
H546 C562 0.931 . S
C547 H535 0.929 . S
C547 C541 1.390 . S
C547 C544 1.386 . S
C548 C543 1.490 . S
C548 C550 1.395 . S
C548 C551 1.403 . S
H549 C555 0.930 . S
C550 H536 0.930 . S
C550 C548 1.395 . S
C550 C553 1.403 . S
C551 C548 1.403 . S
C551 C552 1.524 . S
C551 C555 1.400 . S
C552 H537 0.960 . S
C552 H538 0.960 . S
C552 H539 0.960 . S
C552 C551 1.524 . S
C553 C550 1.403 . S
C553 C554 1.392 . S
C553 C557 1.495 . S
C554 C553 1.392 . S
C554 C555 1.385 . S
C554 C556 1.478 . S
C555 H549 0.930 . S
C555 C551 1.400 . S
C555 C554 1.385 . S
C556 C554 1.478 . S
C556 C558 1.381 . S
C556 C562 1.383 . S
C557 C553 1.495 . S
C557 H563 0.959 . S
C557 H564 0.961 . S
C557 H565 0.960 . S
C558 C556 1.381 . S
C558 C559 1.394 . S
C558 H566 0.930 . S
C559 C558 1.394 . S
C559 C560 1.383 . S
C559 H567 0.929 . S
C560 C559 1.383 . S
C560 C561 1.377 . S
C561 H545 0.930 . S
C561 C560 1.377 . S
C561 C562 1.379 . S
C562 H546 0.931 . S
C562 C556 1.383 . S
C562 C561 1.379 . S
H563 C557 0.959 . S
H564 C557 0.961 . S
H565 C557 0.960 . S
H566 C558 0.930 . S
H567 C559 0.929 . S
H568 C576 0.929 . S
H569 C578 0.930 . S
H570 C580 0.930 . S
H571 C583 0.929 . S
H572 C586 0.932 . S
H573 C588 0.960 . S
H574 C588 0.960 . S
H575 C588 0.960 . S
C576 H568 0.929 . S
C576 C577 1.377 . S
C576 C578 1.384 . S
C577 C576 1.377 . S
C577 C583 1.390 . S
C578 H569 0.930 . S
C578 C576 1.384 . S
C578 C579 1.372 . S
C579 C578 1.372 . S
C579 C580 1.400 . S
C579 C584 1.490 . S
C580 H570 0.930 . S
C580 C579 1.400 . S
C580 C583 1.386 . S
H581 C597 0.930 . S
H582 C598 0.931 . S
C583 H571 0.929 . S
C583 C577 1.390 . S
C583 C580 1.386 . S
C584 C579 1.490 . S
C584 C586 1.409 . S
C584 C587 1.403 1_554 S
H585 C591 0.930 . S
C586 H572 0.932 . S
C586 C584 1.409 . S
C586 C589 1.388 1_545 S
C587 C584 1.403 1_556 S
C587 C588 1.524 . S
C587 C591 1.400 1_545 S
C588 H573 0.960 . S
C588 H574 0.960 . S
C588 H575 0.960 . S
C588 C587 1.524 . S
C589 C586 1.388 1_565 S
C589 C590 1.392 1_554 S
C589 C593 1.495 . S
C590 C589 1.392 1_556 S
C590 C591 1.385 . S
C590 C592 1.478 . S
C591 H585 0.930 . S
C591 C587 1.400 1_565 S
C591 C590 1.385 . S
C592 C590 1.478 . S
C592 C594 1.381 . S
C592 C598 1.383 . S
C593 C589 1.495 . S
C593 H599 0.959 . S
C593 H600 0.961 . S
C593 H601 0.960 . S
C594 C592 1.381 . S
C594 C595 1.394 . S
C594 H602 0.930 . S
C595 C594 1.394 . S
C595 C596 1.383 . S
C595 H603 0.929 . S
C596 C595 1.383 . S
C596 C597 1.377 . S
C597 H581 0.930 . S
C597 C596 1.377 . S
C597 C598 1.379 . S
C598 H582 0.931 . S
C598 C592 1.383 . S
C598 C597 1.379 . S
H599 C593 0.959 . S
H600 C593 0.961 . S
H601 C593 0.960 . S
H602 C594 0.930 . S
H603 C595 0.929 . S
H604 C612 0.929 . S
H605 C614 0.930 . S
H606 C616 0.930 . S
H607 C619 0.929 . S
H608 C622 0.930 . S
H609 C624 0.960 . S
H610 C624 0.960 . S
H611 C624 0.960 . S
C612 H604 0.929 . S
C612 C613 1.377 . S
C612 C614 1.384 . S
C613 C612 1.377 . S
C613 C619 1.390 . S
C614 H605 0.930 . S
C614 C612 1.384 . S
C614 C615 1.372 . S
C615 C614 1.372 . S
C615 C616 1.400 . S
C615 C620 1.490 . S
C616 H606 0.930 . S
C616 C615 1.400 . S
C616 C619 1.386 . S
H617 C633 0.930 . S
H618 C634 0.931 . S
C619 H607 0.929 . S
C619 C613 1.390 . S
C619 C616 1.386 . S
C620 C615 1.490 . S
C620 C622 1.395 . S
C620 C623 1.403 . S
H621 C627 0.930 . S
C622 H608 0.930 . S
C622 C620 1.395 . S
C622 C625 1.403 . S
C623 C620 1.403 . S
C623 C624 1.524 . S
C623 C627 1.400 . S
C624 H609 0.960 . S
C624 H610 0.960 . S
C624 H611 0.960 . S
C624 C623 1.524 . S
C625 C622 1.403 . S
C625 C626 1.392 . S
C625 C629 1.495 . S
C626 C625 1.392 . S
C626 C627 1.385 . S
C626 C628 1.478 . S
C627 H621 0.930 . S
C627 C623 1.400 . S
C627 C626 1.385 . S
C628 C626 1.478 . S
C628 C630 1.381 . S
C628 C634 1.383 . S
C629 C625 1.495 . S
C629 H635 0.959 . S
C629 H636 0.961 . S
C629 H637 0.960 . S
C630 C628 1.381 . S
C630 C631 1.394 . S
C630 H638 0.930 . S
C631 C630 1.394 . S
C631 C632 1.383 . S
C631 H639 0.929 . S
C632 C631 1.383 . S
C632 C633 1.377 . S
C633 H617 0.930 . S
C633 C632 1.377 . S
C633 C634 1.379 . S
C634 H618 0.931 . S
C634 C628 1.383 . S
C634 C633 1.379 . S
H635 C629 0.959 . S
H636 C629 0.961 . S
H637 C629 0.960 . S
H638 C630 0.930 . S
H639 C631 0.929 . S
C145 C28 1.006 . S
C164 C6 0.992 1_655 S
C181 C40 1.006 . S
C200 C62 0.997 1_455 S
C217 C74 0.998 1_455 S
C236 C96 1.014 . S
C253 C108 1.001 1_655 S
C272 C130 1.015 . S
C289 C15 1.918 . S
C308 C83 1.914 . S
C325 C117 1.916 . S
C344 C56 1.918 . S
C361 C69 1.972 . S
C380 C1 1.988 . S
C397 C103 1.969 . S
C416 C37 1.945 . S
C433 C22 1.580 . S
C452 C119 1.736 . S
C469 C49 1.575 . S
C488 C85 1.740 . S
C505 C90 1.574 . S
C524 C51 1.733 . S
C541 C124 1.580 . S
C560 C17 1.741 . S
C577 C3 1.357 . S
C596 C71 1.318 . S
C613 C105 1.363 . S
C632 C35 1.394 . S
