# Generated by pormake.
# Topology smc, (6)-cn, num edge types: 1
# Building blocks:
#     Node 0, Type 0, BuildingBlock: CUKXOW_clean_sbu_0, # of connection points: 6
#     Node 1, Type 0, BuildingBlock: CUKXOW_clean_sbu_0, # of connection points: 6
#     Node 2, Type 0, BuildingBlock: CUKXOW_clean_sbu_0, # of connection points: 6
#     Node 3, Type 0, BuildingBlock: CUKXOW_clean_sbu_0, # of connection points: 6
#     Node 4, Type 0, BuildingBlock: CUKXOW_clean_sbu_0, # of connection points: 6
#     Node 5, Type 0, BuildingBlock: CUKXOW_clean_sbu_0, # of connection points: 6
#     Node 6, Type 0, BuildingBlock: CUKXOW_clean_sbu_0, # of connection points: 6
#     Node 7, Type 0, BuildingBlock: CUKXOW_clean_sbu_0, # of connection points: 6
#     Node 8, Type 0, BuildingBlock: CUKXOW_clean_sbu_0, # of connection points: 6
#     Edge 9, Type (0, 0), BuildingBlock: XUDNAN_clean_linker_2, # of connection points: 2
#     Edge 10, Type (0, 0), BuildingBlock: XUDNAN_clean_linker_2, # of connection points: 2
#     Edge 11, Type (0, 0), BuildingBlock: XUDNAN_clean_linker_2, # of connection points: 2
#     Edge 12, Type (0, 0), BuildingBlock: XUDNAN_clean_linker_2, # of connection points: 2
#     Edge 13, Type (0, 0), BuildingBlock: XUDNAN_clean_linker_2, # of connection points: 2
#     Edge 14, Type (0, 0), BuildingBlock: XUDNAN_clean_linker_2, # of connection points: 2
#     Edge 15, Type (0, 0), BuildingBlock: XUDNAN_clean_linker_2, # of connection points: 2
#     Edge 16, Type (0, 0), BuildingBlock: XUDNAN_clean_linker_2, # of connection points: 2
#     Edge 17, Type (0, 0), BuildingBlock: XUDNAN_clean_linker_2, # of connection points: 2
#     Edge 18, Type (0, 0), BuildingBlock: XUDNAN_clean_linker_2, # of connection points: 2
#     Edge 19, Type (0, 0), BuildingBlock: XUDNAN_clean_linker_2, # of connection points: 2
#     Edge 20, Type (0, 0), BuildingBlock: XUDNAN_clean_linker_2, # of connection points: 2
#     Edge 21, Type (0, 0), BuildingBlock: XUDNAN_clean_linker_2, # of connection points: 2
#     Edge 22, Type (0, 0), BuildingBlock: XUDNAN_clean_linker_2, # of connection points: 2
#     Edge 23, Type (0, 0), BuildingBlock: XUDNAN_clean_linker_2, # of connection points: 2
#     Edge 24, Type (0, 0), BuildingBlock: XUDNAN_clean_linker_2, # of connection points: 2
#     Edge 25, Type (0, 0), BuildingBlock: XUDNAN_clean_linker_2, # of connection points: 2
#     Edge 26, Type (0, 0), BuildingBlock: XUDNAN_clean_linker_2, # of connection points: 2
#     Edge 27, Type (0, 0), BuildingBlock: XUDNAN_clean_linker_2, # of connection points: 2
#     Edge 28, Type (0, 0), BuildingBlock: XUDNAN_clean_linker_2, # of connection points: 2
#     Edge 29, Type (0, 0), BuildingBlock: XUDNAN_clean_linker_2, # of connection points: 2
#     Edge 30, Type (0, 0), BuildingBlock: XUDNAN_clean_linker_2, # of connection points: 2
#     Edge 31, Type (0, 0), BuildingBlock: XUDNAN_clean_linker_2, # of connection points: 2
#     Edge 32, Type (0, 0), BuildingBlock: XUDNAN_clean_linker_2, # of connection points: 2
#     Edge 33, Type (0, 0), BuildingBlock: XUDNAN_clean_linker_2, # of connection points: 2
#     Edge 34, Type (0, 0), BuildingBlock: XUDNAN_clean_linker_2, # of connection points: 2
#     Edge 35, Type (0, 0), BuildingBlock: XUDNAN_clean_linker_2, # of connection points: 2
# Relax obj value: 0.122
# Max RMSD: 0.269
# Mean RMSD: 0.255
data_MOF--net-smc--node1-CUKXOW_clean_sbu_0--edge1-XUDNAN_clean_linker_2
_symmetry_space_group_name_H-M    P1
_symmetry_Int_Tables_number       1
_symmetry_cell_setting            triclinic
loop_
_symmetry_equiv_pos_as_xyz
'x, y, z'
_cell_length_a     28.480214
_cell_length_b     32.361069
_cell_length_c     40.73964
_cell_angle_alpha  91.103678
_cell_angle_beta   91.068013
_cell_angle_gamma 119.2008
loop_
_atom_site_label
_atom_site_type_symbol
_atom_site_fract_x
_atom_site_fract_y
_atom_site_fract_z
_atom_type_partial_charge
Tb0 Tb 1.01984 0.4224 0.04224 0.0
C1 C 0.08443 0.47242 0.10338 0.0
Tb2 Tb 0.10643 0.5218 0.03455 0.0
O3 O 0.07975 0.39938 0.05536 0.0
O4 O 0.0999 0.45531 1.02495 0.0
O5 O 1.03427 0.44931 0.09214 0.0
C6 C 0.19482 0.6067 0.03604 0.0
O7 O 0.12261 0.50194 0.0839 0.0
C8 C 1.00817 0.5121 0.03381 0.0
C9 C 0.05203 0.45682 0.97 0.0
O10 O 0.15583 0.5929 0.0563 0.0
O11 O 0.18427 0.5725 1.01497 0.0
O12 O 0.04832 0.54332 1.01788 0.0
O13 O 1.02552 0.49018 0.05155 0.0
O14 O 0.09345 0.49689 0.98239 0.0
O15 O 1.01642 0.42463 0.98912 0.0
C16 C 0.91854 0.35147 0.04333 0.0
O17 O 0.9349 0.39077 1.02826 0.0
O18 O 0.95988 0.35096 0.05714 0.0
C19 C 0.11923 0.43337 0.04018 0.0
Tb20 Tb 0.63049 0.61256 1.0249 0.0
C21 C 0.61353 0.53724 0.97084 0.0
Tb22 Tb 0.58082 0.5103 0.04387 0.0
O23 O 0.71665 0.6277 1.0228 0.0
O24 O 0.65679 0.56429 0.03583 0.0
O25 O 0.61008 0.57577 0.97748 0.0
C26 C 0.5438 0.42401 0.06654 0.0
O27 O 0.61007 0.50805 0.99442 0.0
C28 C 0.50828 0.53682 1.02588 0.0
C29 C 0.62601 0.59312 0.09887 0.0
O30 O 0.56957 0.43893 0.03963 0.0
O31 O 0.54048 0.45818 0.08138 0.0
O32 O 0.50678 0.49732 1.01809 0.0
O33 O 0.55208 0.56068 0.04256 0.0
O34 O 0.61779 0.54978 0.09092 0.0
O35 O 0.62431 0.62172 0.07681 0.0
C36 C 0.63779 0.69285 1.00454 0.0
O37 O 0.67258 0.68991 1.02405 0.0
O38 O 0.59905 0.65072 0.99659 0.0
C39 C 0.70649 0.5859 1.03198 0.0
Tb40 Tb 0.44317 0.04052 0.04617 0.0
C41 C 0.46378 0.9824 0.09844 0.0
Tb42 Tb 0.51217 0.9972 1.02822 0.0
O43 O 0.37282 0.97006 0.05104 0.0
O44 O 0.43231 0.98081 1.01827 0.0
O45 O 0.45894 0.02035 0.09359 0.0
C46 C 0.55384 0.94614 1.00318 0.0
O47 O 0.47857 0.96279 0.07474 0.0
C48 C 0.56376 0.07768 0.06281 0.0
C49 C 0.49117 0.05903 0.97547 0.0
O50 O 0.50511 0.92931 1.01315 0.0
O51 O 0.5793 0.99187 1.00728 0.0
O52 O 0.57281 0.04221 0.0652 0.0
O53 O 0.52724 0.06671 0.04095 0.0
O54 O 0.51176 0.03052 0.98142 0.0
O55 O 0.46483 0.06948 0.99773 0.0
C56 C 0.40491 0.09659 0.06542 0.0
O57 O 0.39068 0.07118 0.03824 0.0
O58 O 0.44157 0.09129 0.08106 0.0
C59 C 0.39018 0.94977 1.03063 0.0
Tb60 Tb 0.69231 0.75751 0.36155 0.0
C61 C 0.77385 0.80382 0.42092 0.0
Tb62 Tb 0.78311 0.86204 0.35649 0.0
O63 O 0.74741 0.72771 0.36098 0.0
O64 O 0.7685 0.79379 0.3429 0.0
O65 O 0.72466 0.77011 0.4116 0.0
C66 C 0.85944 0.95321 0.36664 0.0
O67 O 0.80571 0.83892 0.40168 0.0
C68 C 0.68489 0.84748 0.36465 0.0
C69 C 0.72128 0.80455 0.29256 0.0
O70 O 0.82422 0.92627 0.3872 0.0
O71 O 0.8536 0.92793 0.33993 0.0
O72 O 0.72024 0.8806 0.34717 0.0
O73 O 0.70609 0.8253 0.37713 0.0
O74 O 0.76919 0.83796 0.30463 0.0
O75 O 0.68133 0.78009 0.31261 0.0
C76 C 0.59337 0.68334 0.35963 0.0
O77 O 0.62944 0.69245 0.33782 0.0
O78 O 0.61344 0.71523 0.38324 0.0
C79 C 0.78667 0.76701 0.35048 0.0
Tb80 Tb 0.32682 0.91432 0.39595 0.0
C81 C 0.2419 0.91969 0.4383 0.0
Tb82 Tb 0.22847 0.88879 0.3649 0.0
O83 O 0.34246 0.9846 0.4121 0.0
O84 O 0.29964 0.95554 0.36808 0.0
O85 O 0.27632 0.90343 0.43801 0.0
C86 C 0.1462 0.86841 0.32366 0.0
O87 O 0.21851 0.92101 0.41026 0.0
C88 C 0.22739 0.81467 0.39353 0.0
C89 C 0.32489 0.90438 0.3201 0.0
O90 O 0.16571 0.90282 0.34556 0.0
O91 O 0.17203 0.84507 0.32579 0.0
O92 O 0.1903 0.82669 0.39515 0.0
O93 O 0.26542 0.846 0.37737 0.0
O94 O 0.27701 0.90157 0.32123 0.0
O95 O 0.35189 0.90644 0.34728 0.0
C96 C 0.41237 0.91723 0.42502 0.0
O97 O 0.41332 0.94611 0.40311 0.0
O98 O 0.36293 0.88612 0.43029 0.0
C99 C 0.31523 0.99018 0.3885 0.0
Tb100 Tb 0.14895 0.39083 0.37594 0.0
C101 C 0.12743 0.32171 0.4332 0.0
Tb102 Tb 0.1811 0.30992 0.36761 0.0
O103 O 0.06266 0.33718 0.37767 0.0
O104 O 0.11629 0.3212 0.35511 0.0
O105 O 0.14117 0.36613 0.42597 0.0
C106 C 0.20471 0.23881 0.37486 0.0
O107 O 0.13521 0.29286 0.413 0.0
C108 C 0.25969 0.39752 0.37405 0.0
C109 C 0.17402 0.3641 0.30467 0.0
O110 O 0.22104 0.27659 0.3935 0.0
O111 O 0.17359 0.24039 0.35145 0.0
O112 O 0.26261 0.36392 0.35807 0.0
O113 O 0.21504 0.38028 0.38791 0.0
O114 O 0.17254 0.32451 0.31557 0.0
O115 O 0.17023 0.39571 0.32432 0.0
C116 C 0.15874 0.47925 0.38172 0.0
O117 O 0.11422 0.43881 0.38055 0.0
O118 O 0.19805 0.46974 0.37978 0.0
C119 C 0.0686 0.30316 0.36417 0.0
Tb120 Tb 0.364 0.10017 0.70988 0.0
C121 C 0.44054 0.16943 0.76379 0.0
Tb122 Tb 0.43829 0.20592 0.69154 0.0
O123 O 0.43504 0.08926 0.71795 0.0
O124 O 0.43934 0.14134 0.68771 0.0
O125 O 0.39203 0.13305 0.75798 0.0
C126 C 0.51856 0.29299 0.68305 0.0
O127 O 0.46889 0.19864 0.74035 0.0
C128 C 0.33911 0.19021 0.70447 0.0
C129 C 0.36821 0.128 0.63558 0.0
O130 O 0.49878 0.27507 0.71095 0.0
O131 O 0.49403 0.26129 0.65954 0.0
O132 O 0.37789 0.2298 0.6948 0.0
O133 O 0.35948 0.16333 0.70682 0.0
O134 O 0.41066 0.171 0.64211 0.0
O135 O 0.34108 0.09779 0.65861 0.0
C136 C 0.27413 0.02275 0.72563 0.0
O137 O 0.30778 0.02392 0.70394 0.0
O138 O 0.29172 0.0648 0.73861 0.0
C139 C 0.46755 0.1257 0.70109 0.0
Tb140 Tb 0.9703 0.28871 0.67637 0.0
C141 C 0.93465 0.2039 0.63058 0.0
Tb142 Tb 0.93932 0.20182 0.70744 0.0
O143 O 1.03643 0.28334 0.65257 0.0
O144 O 1.01574 0.25956 0.69959 0.0
O145 O 0.92607 0.23934 0.63702 0.0
C146 C 0.92865 0.12729 0.73984 0.0
O147 O 0.94959 0.18597 0.65512 0.0
C148 C 0.8531 0.20866 0.6901 0.0
C149 C 0.98324 0.2965 0.75212 0.0
O150 O 0.95304 0.14166 0.71245 0.0
O151 O 0.91014 0.15494 0.74895 0.0
O152 O 0.85621 0.17017 0.68944 0.0
O153 O 0.89786 0.24218 0.7014 0.0
O154 O 0.96999 0.25084 0.7512 0.0
O155 O 0.98247 0.3185 0.7254 0.0
C156 C 0.97661 0.36514 0.64921 0.0
O157 O 1.01523 0.36419 0.66599 0.0
O158 O 0.93471 0.32347 0.64823 0.0
C159 C 1.04671 0.26339 0.67689 0.0
Tb160 Tb 0.80118 0.72087 0.71897 0.0
C161 C 0.78926 0.63871 0.76268 0.0
Tb162 Tb 0.84027 0.65721 0.69197 0.0
O163 O 0.71828 0.66083 0.7206 0.0
O164 O 0.77101 0.66328 0.68528 0.0
O165 O 0.79433 0.68155 0.76246 0.0
C166 C 0.87468 0.59868 0.67198 0.0
O167 O 0.80168 0.62022 0.73705 0.0
C168 C 0.91671 0.7431 0.70762 0.0
C169 C 0.834 0.72897 0.64465 0.0
O170 O 0.89787 0.63204 0.69424 0.0
O171 O 0.82985 0.59622 0.66165 0.0
O172 O 0.91722 0.71756 0.68309 0.0
O173 O 0.87489 0.71928 0.72393 0.0
O174 O 0.82931 0.68611 0.64625 0.0
O175 O 0.8321 0.75237 0.67134 0.0
C176 C 0.79451 0.79383 0.74434 0.0
O177 O 0.76871 0.76957 0.71796 0.0
O178 O 0.82441 0.77737 0.75605 0.0
C179 C 0.72549 0.63803 0.69638 0.0
H180 H 0.42873 0.5401 0.9871 0.0
H181 H 0.46643 0.51863 0.08663 0.0
H182 H 0.37208 0.49107 0.10143 0.0
H183 H 0.33175 0.58285 1.01206 0.0
H184 H 0.28856 0.55521 0.97629 0.0
H185 H 0.35989 0.57652 0.97425 0.0
H186 H 0.34035 0.49317 0.9539 0.0
H187 H 0.26909 0.47144 0.95642 0.0
H188 H 0.30011 0.44263 0.97828 0.0
H189 H 0.26958 0.45399 0.1031 0.0
H190 H 0.17192 0.42441 0.09429 0.0
H191 H 0.20045 0.47825 0.99591 0.0
C192 C 0.41752 0.53129 1.01231 0.0
C193 C 0.45568 0.53261 0.03591 0.0
C194 C 0.43866 0.51923 0.06835 0.0
C195 C 0.38479 0.50298 0.07689 0.0
C196 C 0.34789 0.50098 0.05295 0.0
C197 C 0.36391 0.51626 1.02155 0.0
C198 C 0.31599 0.51061 1.00057 0.0
C199 C 0.32457 0.55918 0.99018 0.0
C200 C 0.30581 0.4775 0.97052 0.0
C201 C 0.27034 0.48817 1.0246 0.0
C202 C 0.28958 0.48246 0.05461 0.0
C203 C 0.2545 0.45932 0.0799 0.0
C204 C 0.19883 0.44232 0.07463 0.0
C205 C 0.17823 0.4493 0.04459 0.0
C206 C 0.21487 0.47282 1.01933 0.0
H207 H 0.50162 0.85218 0.98726 0.0
H208 H 0.66072 0.97459 0.99927 0.0
H209 H 0.70145 0.92274 0.99308 0.0
H210 H 0.52385 0.77761 0.03353 0.0
H211 H 0.48494 0.72465 1.00841 0.0
H212 H 0.46872 0.77175 1.00764 0.0
H213 H 0.47892 0.77634 0.94461 0.0
H214 H 0.49463 0.7287 0.94502 0.0
H215 H 0.54034 0.78414 0.92717 0.0
H216 H 0.72306 0.85682 0.99702 0.0
H217 H 0.72442 0.7818 1.00536 0.0
H218 H 0.55188 0.70287 0.98689 0.0
C219 C 0.54507 0.86812 0.98751 0.0
C220 C 0.57824 0.91711 0.99366 0.0
C221 C 0.63483 0.93701 0.9943 0.0
C222 C 0.65823 0.90788 0.9908 0.0
C223 C 0.62434 0.85928 0.98597 0.0
C224 C 0.56897 0.83965 0.98358 0.0
C225 C 0.5413 0.78617 0.98104 0.0
C226 C 0.50246 0.76378 1.00934 0.0
C227 C 0.51209 0.76776 0.94745 0.0
C228 C 0.58957 0.77866 0.98421 0.0
C229 C 0.63716 0.82124 0.9868 0.0
C230 C 0.68633 0.82325 0.99397 0.0
C231 C 0.68675 0.78065 0.99882 0.0
C232 C 0.63842 0.73694 0.99615 0.0
C233 C 0.58955 0.73592 0.98811 0.0
H234 H 0.3257 0.88202 0.07242 0.0
H235 H 0.40946 0.90257 0.9813 0.0
H236 H 0.37826 0.81659 0.97663 0.0
H237 H 0.34921 0.7867 0.10223 0.0
H238 H 0.28363 0.75548 0.11965 0.0
H239 H 0.31708 0.81909 0.11736 0.0
H240 H 0.2346 0.81341 0.08521 0.0
H241 H 0.2008 0.75 0.08765 0.0
H242 H 0.21009 0.77677 0.04819 0.0
H243 H 0.33249 0.72796 0.97999 0.0
H244 H 0.27012 0.6431 0.98884 0.0
H245 H 0.21591 0.68094 0.07748 0.0
C246 C 0.33751 0.86832 0.05156 0.0
C247 C 0.3702 0.89857 1.02732 0.0
C248 C 0.3849 0.8797 1.00031 0.0
C249 C 0.36755 0.83108 0.99753 0.0
C250 C 0.3356 0.80205 1.02202 0.0
C251 C 0.32057 0.81996 0.04845 0.0
C252 C 0.28323 0.78099 0.07031 0.0
C253 C 0.30988 0.78587 0.10441 0.0
C254 C 0.22897 0.78025 0.07296 0.0
C255 C 0.27746 0.73812 0.05121 0.0
C256 C 0.30897 0.75102 1.02384 0.0
C257 C 0.30804 0.71741 1.0015 0.0
C258 C 0.27262 0.66939 1.00671 0.0
C259 C 0.23843 0.6558 0.0338 0.0
C260 C 0.24203 0.69049 0.05673 0.0
H261 H 0.39839 0.15352 1.02104 0.0
H262 H 0.39802 0.13088 0.1253 0.0
H263 H 0.41614 0.21256 0.13704 0.0
H264 H 0.50984 0.25116 1.02468 0.0
H265 H 0.49679 0.28337 0.9935 0.0
H266 H 0.46102 0.21993 0.99181 0.0
H267 H 0.36942 0.2184 0.99187 0.0
H268 H 0.40457 0.28224 0.99217 0.0
H269 H 0.35658 0.25137 1.02323 0.0
H270 H 0.45561 0.2999 0.13754 0.0
H271 H 0.51263 0.38525 0.12662 0.0
H272 H 0.49938 0.3515 1.02226 0.0
C273 C 0.39848 0.16499 0.04622 0.0
C274 C 0.39564 0.13628 0.07233 0.0
C275 C 0.39898 0.15258 0.10512 0.0
C276 C 0.40928 0.19885 0.11194 0.0
C277 C 0.41683 0.2281 0.0856 0.0
C278 C 0.41108 0.21163 0.05327 0.0
C279 C 0.43353 0.25189 1.02973 0.0
C280 C 0.47791 0.25153 1.00876 0.0
C281 C 0.38831 0.25092 1.00798 0.0
C282 C 0.45628 0.29342 0.05394 0.0
C283 C 0.44437 0.27921 0.08591 0.0
C284 C 0.46434 0.31151 0.11257 0.0
C285 C 0.49707 0.35961 0.10627 0.0
C286 C 0.51077 0.37413 0.07376 0.0
C287 C 0.48986 0.34081 0.04739 0.0
H288 H 0.66498 0.10631 0.08823 0.0
H289 H 0.56468 0.15907 0.04527 0.0
H290 H 0.64506 0.23753 0.0398 0.0
H291 H 0.76585 0.22062 0.13148 0.0
H292 H 0.82054 0.20952 0.12254 0.0
H293 H 0.7542 0.16066 0.12869 0.0
H294 H 0.75683 0.12424 0.07206 0.0
H295 H 0.82249 0.17335 0.06533 0.0
H296 H 0.76821 0.15869 0.03586 0.0
H297 H 0.73666 0.30517 1.03075 0.0
H298 H 0.83291 0.36069 1.02353 0.0
H299 H 0.87486 0.26449 0.07218 0.0
C300 C 0.65964 0.13487 0.07881 0.0
C301 C 0.60858 0.12672 0.06726 0.0
C302 C 0.60337 0.16469 0.05449 0.0
C303 C 0.64883 0.2093 0.05119 0.0
C304 C 0.69904 0.21539 0.06109 0.0
C305 C 0.70465 0.17951 0.07523 0.0
C306 C 0.76352 0.19399 0.08122 0.0
C307 C 0.77681 0.19635 0.11819 0.0
C308 C 0.77861 0.16058 0.06249 0.0
C309 C 0.79022 0.24291 0.06706 0.0
C310 C 0.75221 0.25465 0.05585 0.0
C311 C 0.76676 0.29671 0.03996 0.0
C312 C 0.82154 0.32782 0.03573 0.0
C313 C 0.86123 0.31679 0.04729 0.0
C314 C 0.84532 0.27383 0.06326 0.0
H315 H 0.98549 0.58106 1.0131 0.0
H316 H 0.91449 0.44873 0.06402 0.0
H317 H 0.82948 0.45198 0.0681 0.0
H318 H 0.92482 0.63555 0.06316 0.0
H319 H 0.91673 0.66722 1.02958 0.0
H320 H 0.97068 0.6532 1.02978 0.0
H321 H 0.93726 0.61081 0.97278 0.0
H322 H 0.88314 0.62458 0.97244 0.0
H323 H 0.86858 0.56399 0.96718 0.0
H324 H 0.74973 0.46957 0.06472 0.0
H325 H 0.68721 0.5019 0.05824 0.0
H326 H 0.81264 0.62586 1.0132 0.0
C327 C 0.95208 0.5526 1.0251 0.0
C328 C 0.95677 0.51406 0.03774 0.0
C329 C 0.91205 0.47819 0.05369 0.0
C330 C 0.86349 0.4799 0.05618 0.0
C331 C 0.86023 0.51829 0.04325 0.0
C332 C 0.90383 0.55436 1.02844 0.0
C333 C 0.89106 0.59275 1.01769 0.0
C334 C 0.92802 0.63998 0.03615 0.0
C335 C 0.89526 0.59834 0.9803 0.0
C336 C 0.83309 0.57248 1.02811 0.0
C337 C 0.81586 0.52934 0.04268 0.0
C338 C 0.76329 0.50348 0.05359 0.0
C339 C 0.72787 0.52212 0.04974 0.0
C340 C 0.74479 0.56659 0.03537 0.0
C341 C 0.79835 0.59194 1.02448 0.0
H342 H 0.87294 0.84975 0.33932 0.0
H343 H 0.8111 0.6982 0.33133 0.0
H344 H 0.8949 0.71168 0.30487 0.0
H345 H 0.95664 0.88241 0.26275 0.0
H346 H 1.00887 0.93508 0.28341 0.0
H347 H 0.93939 0.91353 0.29317 0.0
H348 H 0.96193 0.91066 0.35476 0.0
H349 H 1.0311 0.93325 0.34524 0.0
H350 H 0.99604 0.87834 0.36636 0.0
H351 H 0.98759 0.74096 0.28796 0.0
H352 H 0.08601 0.78103 0.2953 0.0
H353 H 0.08899 0.914 0.31619 0.0
C354 C 0.87689 0.81948 0.33138 0.0
C355 C 0.83644 0.77313 0.3371 0.0
C356 C 0.84244 0.73403 0.32719 0.0
C357 C 0.88915 0.7414 0.31153 0.0
C358 C 0.92865 0.78793 0.30601 0.0
C359 C 0.92315 0.82633 0.31615 0.0
C360 C 0.97477 0.87251 0.31366 0.0
C361 C 0.96959 0.90264 0.28662 0.0
C362 C 0.99196 0.90021 0.34697 0.0
C363 C 1.01184 0.85377 0.30377 0.0
C364 C 0.98379 0.80522 0.2974 0.0
C365 C 1.00993 0.77896 0.2922 0.0
C366 C 0.06584 0.80202 0.29642 0.0
C367 C 0.0941 0.85025 0.30671 0.0
C368 C 0.06762 0.87713 0.30803 0.0
H369 H 0.18001 0.15399 0.33874 0.0
H370 H 0.27149 0.24225 0.42345 0.0
H371 H 0.30774 0.18901 0.43427 0.0
H372 H 0.14831 0.04021 0.37657 0.0
H373 H 0.15485 0.01305 0.33917 0.0
H374 H 0.13401 0.05741 0.33743 0.0
H375 H 0.21233 0.10645 0.29918 0.0
H376 H 0.23358 0.06239 0.30104 0.0
H377 H 0.28031 0.1233 0.31229 0.0
H378 H 0.33749 0.13025 0.4363 0.0
H379 H 0.3567 0.0646 0.4311 0.0
H380 H 0.24676 1.00778 0.34622 0.0
C381 C 0.2074 0.16179 0.35962 0.0
C382 C 0.22284 0.20287 0.38019 0.0
C383 C 0.25886 0.21151 0.40722 0.0
C384 C 0.2799 0.18133 0.41365 0.0
C385 C 0.26464 0.1418 0.39305 0.0
C386 C 0.22893 0.1313 0.36671 0.0
C387 C 0.21991 0.08563 0.34898 0.0
C388 C 0.16075 0.04677 0.35063 0.0
C389 C 0.23759 0.09502 0.31324 0.0
C390 C 0.25681 0.07305 0.36927 0.0
C391 C 0.2819 0.10638 0.3945 0.0
C392 C 0.31808 0.10387 0.41667 0.0
C393 C 0.3289 0.06626 0.41337 0.0
C394 C 0.3037 0.03077 0.38819 0.0
C395 C 0.26707 0.03438 0.36562 0.0
H396 H 0.06932 0.22763 0.33151 0.0
H397 H 0.98367 0.26228 0.40428 0.0
H398 H 0.92646 0.17742 0.41452 0.0
H399 H 0.94928 0.124 0.29752 0.0
H400 H 0.98317 0.09037 0.28935 0.0
H401 H 1.01996 0.15412 0.28893 0.0
H402 H 0.08802 0.15435 0.33146 0.0
H403 H 0.05107 0.0908 0.33337 0.0
H404 H 0.06517 0.12694 0.37035 0.0
H405 H 0.88165 0.09047 0.419 0.0
H406 H 0.84065 1.00426 0.41205 0.0
H407 H 0.9461 0.02126 0.33169 0.0
C408 C 1.03843 0.21715 0.34955 0.0
C409 C 1.03161 0.25167 0.36766 0.0
C410 C 0.99019 0.23666 0.39057 0.0
C411 C 0.95751 0.18847 0.39655 0.0
C412 C 0.96565 0.15539 0.37875 0.0
C413 C 1.00415 0.16876 0.35515 0.0
C414 C 1.00161 0.12525 0.33813 0.0
C415 C 0.98766 0.12333 0.3013 0.0
C416 C 0.05461 0.12429 0.34369 0.0
C417 C 0.95578 0.08548 0.35599 0.0
C418 C 0.93667 0.10415 0.37972 0.0
C419 C 0.89583 0.07542 0.40028 0.0
C420 C 0.87294 0.02629 0.39616 0.0
C421 C 0.88981 1.00573 0.37121 0.0
C422 C 0.93216 0.03586 0.35088 0.0
H423 H 0.28645 0.76739 0.37693 0.0
H424 H 0.13463 0.74372 0.41574 0.0
H425 H 0.10294 0.6584 0.4167 0.0
H426 H 0.23259 0.6609 0.32543 0.0
H427 H 0.2863 0.64798 0.3341 0.0
H428 H 0.29909 0.70829 0.33654 0.0
H429 H 0.33545 0.71697 0.39637 0.0
H430 H 0.3231 0.65679 0.39389 0.0
H431 H 0.29413 0.67513 0.42615 0.0
H432 H 0.08332 0.57459 0.41042 0.0
H433 H 0.0806 0.4978 0.40216 0.0
H434 H 0.24579 0.57038 0.37097 0.0
C435 C 0.24679 0.74427 0.38593 0.0
C436 C 0.2131 0.76315 0.39609 0.0
C437 C 0.16148 0.73102 0.40765 0.0
C438 C 0.14285 0.68205 0.40828 0.0
C439 C 0.1762 0.66453 0.39771 0.0
C440 C 0.22745 0.69448 0.3872 0.0
C441 C 0.2547 0.6653 0.3777 0.0
C442 C 0.26902 0.67097 0.34127 0.0
C443 C 0.30483 0.6794 0.39985 0.0
C444 C 0.21049 0.61464 0.38412 0.0
C445 C 0.16551 0.61544 0.39542 0.0
C446 C 0.11857 0.57364 0.40194 0.0
C447 C 0.11734 0.52992 0.39707 0.0
C448 C 0.16283 0.52742 0.38614 0.0
C449 C 0.21031 0.57077 0.37966 0.0
H450 H 0.31592 0.4739 0.4163 0.0
H451 H 0.28448 0.43078 0.31336 0.0
H452 H 0.35878 0.50756 0.29828 0.0
H453 H 0.37154 0.60848 0.40296 0.0
H454 H 0.42157 0.62345 0.43544 0.0
H455 H 0.35646 0.57135 0.43796 0.0
H456 H 0.40305 0.52047 0.44556 0.0
H457 H 0.46808 0.57188 0.44236 0.0
H458 H 0.44844 0.52132 0.41496 0.0
H459 H 0.44707 0.5765 0.29475 0.0
H460 H 0.54096 0.64006 0.30264 0.0
H461 H 0.51925 0.64274 0.4076 0.0
C462 C 0.32315 0.48201 0.39061 0.0
C463 C 0.29386 0.4472 0.36588 0.0
C464 C 0.30567 0.45757 0.33253 0.0
C465 C 0.34794 0.5011 0.32372 0.0
C466 C 0.3783 0.53388 0.34862 0.0
C467 C 0.36607 0.5255 0.38141 0.0
C468 C 0.40996 0.564 0.40332 0.0
C469 C 0.38861 0.59359 0.42097 0.0
C470 C 0.43377 0.54314 0.42798 0.0
C471 C 0.45039 0.59274 0.37786 0.0
C472 C 0.43063 0.57513 0.34646 0.0
C473 C 0.46246 0.59169 0.31908 0.0
C474 C 0.51589 0.62736 0.32382 0.0
C475 C 0.53686 0.64621 0.35566 0.0
C476 C 0.50357 0.62927 0.38297 0.0
H477 H 0.51246 0.96982 0.40377 0.0
H478 H 0.41457 0.84982 0.46323 0.0
H479 H 0.48347 0.82459 0.46071 0.0
H480 H 0.53565 0.90903 0.3488 0.0
H481 H 0.60372 0.95168 0.33936 0.0
H482 H 0.55961 0.97153 0.35533 0.0
H483 H 0.62621 0.0165 0.40404 0.0
H484 H 0.67217 0.99875 0.38748 0.0
H485 H 0.65132 0.98593 0.42929 0.0
H486 H 0.55042 0.80248 0.44092 0.0
H487 H 0.61544 0.78915 0.40949 0.0
H488 H 0.66219 0.91904 0.35807 0.0
C489 C 0.50703 0.93975 0.41777 0.0
C490 C 0.4588 0.91168 0.43372 0.0
C491 C 0.45186 0.87188 0.45114 0.0
C492 C 0.49068 0.85731 0.44976 0.0
C493 C 0.53571 0.88324 0.43101 0.0
C494 C 0.54456 0.92423 0.41581 0.0
C495 C 0.5899 0.94066 0.3921 0.0
C496 C 0.57103 0.94333 0.35685 0.0
C497 C 0.63775 0.98827 0.40395 0.0
C498 C 0.60293 0.90102 0.39481 0.0
C499 C 0.57239 0.86893 0.41795 0.0
C500 C 0.57527 0.82782 0.42318 0.0
C501 C 0.61145 0.82009 0.40483 0.0
C502 C 0.64293 0.85272 0.38111 0.0
C503 C 0.63826 0.89339 0.37594 0.0
H504 H 0.75539 0.13305 0.70498 0.0
H505 H 0.82895 0.2804 0.67893 0.0
H506 H 0.73905 0.27546 0.6791 0.0
H507 H 0.6323 0.08968 0.6583 0.0
H508 H 0.59103 0.0498 0.68901 0.0
H509 H 0.66072 0.0651 0.68666 0.0
H510 H 0.67702 0.09378 0.74767 0.0
H511 H 0.60729 0.07837 0.75024 0.0
H512 H 0.65939 0.13771 0.76112 0.0
H513 H 0.63819 0.25166 0.67861 0.0
H514 H 0.53949 0.21468 0.68261 0.0
H515 H 0.53214 0.08478 0.71404 0.0
C516 C 0.75274 0.16442 0.69935 0.0
C517 C 0.7996 0.20719 0.69165 0.0
C518 C 0.79401 0.24735 0.68487 0.0
C519 C 0.74291 0.24473 0.68485 0.0
C520 C 0.69756 0.2019 0.69234 0.0
C521 C 0.70229 0.16269 0.70002 0.0
C522 C 0.64775 0.1212 0.70815 0.0
C523 C 0.63204 0.07895 0.68409 0.0
C524 C 0.64789 0.10693 0.74392 0.0
C525 C 0.61108 0.14266 0.7033 0.0
C526 C 0.64058 0.18915 0.69388 0.0
C527 C 0.6152 0.21554 0.68642 0.0
C528 C 0.55882 0.19417 0.68872 0.0
C529 C 0.52764 0.14701 0.69899 0.0
C530 C 0.55459 0.1211 0.70653 0.0
H531 H 0.89034 0.37101 0.62678 0.0
H532 H 0.06108 0.455 0.65021 0.0
H533 H 0.05494 0.52803 0.64511 0.0
H534 H 0.87781 0.46265 0.57233 0.0
H535 H 0.81326 0.44649 0.58922 0.0
H536 H 0.83392 0.40235 0.58342 0.0
H537 H 0.81737 0.382 0.64476 0.0
H538 H 0.79782 0.42643 0.65099 0.0
H539 H 0.85188 0.42824 0.67584 0.0
H540 H 1.02736 0.58737 0.65309 0.0
H541 H 0.98121 0.63086 0.67087 0.0
H542 H 0.82693 0.51013 0.6426 0.0
C543 C 0.92681 0.40492 0.62922 0.0
C544 C 0.97623 0.40787 0.63867 0.0
C545 C 1.02302 0.4524 0.64269 0.0
C546 C 1.01987 0.49395 0.63966 0.0
C547 C 0.96974 0.48997 0.63239 0.0
C548 C 0.92404 0.44657 0.62667 0.0
C549 C 0.87368 0.45135 0.62535 0.0
C550 C 0.84817 0.44005 0.5905 0.0
C551 C 0.83287 0.4202 0.65076 0.0
C552 C 0.8977 0.50346 0.6342 0.0
C553 C 0.95333 0.52524 0.63715 0.0
C554 C 0.98413 0.57128 0.64978 0.0
C555 C 0.95751 0.59544 0.66017 0.0
C556 C 0.90075 0.57355 0.65784 0.0
C557 C 0.87049 0.52764 0.64383 0.0
H558 H 0.66146 0.56609 0.7362 0.0
H559 H 0.71938 0.59692 0.63715 0.0
H560 H 0.67441 0.5113 0.62286 0.0
H561 H 0.68321 0.46748 0.74422 0.0
H562 H 0.62451 0.4334 0.76798 0.0
H563 H 0.65726 0.49713 0.76998 0.0
H564 H 0.56823 0.49506 0.75303 0.0
H565 H 0.53454 0.4313 0.75157 0.0
H566 H 0.53195 0.46269 0.71611 0.0
H567 H 0.62334 0.42265 0.61936 0.0
H568 H 0.56868 0.33626 0.62711 0.0
H569 H 0.55001 0.36354 0.72938 0.0
C570 C 0.66343 0.55463 0.71135 0.0
C571 C 0.69277 0.58762 0.68751 0.0
C572 C 0.69631 0.57176 0.65552 0.0
C573 C 0.67119 0.52336 0.64724 0.0
C574 C 0.64346 0.49146 0.67145 0.0
C575 C 0.63946 0.50635 0.70285 0.0
C576 C 0.60936 0.46472 0.72464 0.0
C577 C 0.64577 0.46576 0.75339 0.0
C578 C 0.55796 0.46337 0.73705 0.0
C579 C 0.59644 0.4242 0.70042 0.0
C580 C 0.61637 0.44035 0.66986 0.0
C581 C 0.60776 0.40945 0.64321 0.0
C582 C 0.57691 0.3606 0.6478 0.0
C583 C 0.55575 0.34354 0.67882 0.0
C584 C 0.56642 0.37573 0.70549 0.0
H585 H 0.77793 0.85269 0.70622 0.0
H586 H 0.82799 0.83838 0.8044 0.0
H587 H 0.85729 0.92275 0.81718 0.0
H588 H 0.88966 0.95374 0.69278 0.0
H589 H 0.85951 0.98099 0.66833 0.0
H590 H 0.82765 0.91763 0.66969 0.0
H591 H 0.73945 0.9135 0.68934 0.0
H592 H 0.77053 0.97701 0.68722 0.0
H593 H 0.74143 0.94846 0.72488 0.0
H594 H 0.89274 1.01098 0.8163 0.0
H595 H 0.93397 0.0954 0.80087 0.0
H596 H 0.87006 0.05077 0.70143 0.0
C597 C 0.7926 0.86684 0.73088 0.0
C598 C 0.7999 0.83942 0.75461 0.0
C599 C 0.82148 0.85917 0.78619 0.0
C600 C 0.83809 0.90688 0.79362 0.0
C601 C 0.83319 0.93397 0.769 0.0
C602 C 0.8108 0.91453 0.73825 0.0
C603 C 0.81862 0.95213 0.71426 0.0
C604 C 0.85078 0.95103 0.68455 0.0
C605 C 0.76427 0.9475 0.7033 0.0
C606 C 0.85082 0.99579 0.73585 0.0
C607 C 0.85749 0.98485 0.76762 0.0
C608 C 0.88743 0.01997 0.79157 0.0
C609 C 0.91097 0.06751 0.78267 0.0
C610 C 0.90569 0.0786 0.74997 0.0
C611 C 0.87514 0.04256 0.72648 0.0
H612 H 1.01004 0.78377 0.67616 0.0
H613 H 0.9338 0.80264 0.76201 0.0
H614 H 1.01901 0.87619 0.77761 0.0
H615 H 0.13871 0.82078 0.71435 0.0
H616 H 0.17485 0.84899 0.67824 0.0
H617 H 0.10786 0.79921 0.67411 0.0
H618 H 0.07718 0.8491 0.63994 0.0
H619 H 0.14416 0.89889 0.64371 0.0
H620 H 0.08765 0.90504 0.65669 0.0
H621 H 0.11379 0.94925 0.78208 0.0
H622 H 0.20729 0.01371 0.77547 0.0
H623 H 0.21961 0.94178 0.68794 0.0
C624 C 1.01093 0.80321 0.69832 0.0
C625 C 0.96534 0.78763 0.71793 0.0
C626 C 0.96833 0.81415 0.74665 0.0
C627 C 1.01654 0.85576 0.75566 0.0
C628 C 0.06103 0.86972 0.73576 0.0
C629 C 0.05835 0.84396 0.70772 0.0
C630 C 0.11112 0.86557 0.69031 0.0
C631 C 0.1345 0.83161 0.68921 0.0
C632 C 0.10462 0.88055 0.65562 0.0
C633 C 0.14448 0.908 0.71279 0.0
C634 C 0.11504 0.9101 0.73884 0.0
C635 C 0.13715 0.94757 0.76196 0.0
C636 C 0.19024 0.98392 0.75805 0.0
C637 C 0.22064 0.98223 0.73142 0.0
C638 C 0.19758 0.94348 0.70884 0.0
H639 H 0.27025 0.19996 0.74673 0.0
H640 H 0.28398 0.16092 0.64661 0.0
H641 H 0.20723 0.17171 0.62936 0.0
H642 H 0.11552 0.14182 0.74226 0.0
H643 H 0.11679 0.18791 0.76845 0.0
H644 H 0.16758 0.17041 0.7738 0.0
H645 H 0.24137 0.25745 0.76752 0.0
H646 H 0.19101 0.27511 0.76131 0.0
H647 H 0.24119 0.28795 0.73097 0.0
H648 H 0.14603 0.20607 0.62107 0.0
H649 H 0.08589 0.24133 0.62382 0.0
H650 H 0.09822 0.24626 0.72975 0.0
C651 C 0.25488 0.1909 0.7216 0.0
C652 C 0.28211 0.17793 0.69818 0.0
C653 C 0.26265 0.16903 0.66516 0.0
C654 C 0.21946 0.1758 0.65506 0.0
C655 C 0.195 0.19056 0.67839 0.0
C656 C 0.21039 0.19612 0.71126 0.0
C657 C 0.17796 0.21356 0.73098 0.0
C658 C 0.14234 0.1762 0.75532 0.0
C659 C 0.21512 0.26135 0.74874 0.0
C660 C 0.14391 0.21901 0.70386 0.0
C661 C 0.15521 0.20618 0.67371 0.0
C662 C 0.13471 0.21398 0.64458 0.0
C663 C 0.10058 0.23391 0.64627 0.0
C664 C 0.08526 0.24441 0.67669 0.0
C665 C 0.10756 0.23698 0.70602 0.0
H666 H 0.2172 0.44776 0.2725 0.0
H667 H 0.11813 0.2958 0.25734 0.0
H668 H 0.09025 0.30825 0.20228 0.0
H669 H 0.13251 0.48152 0.23819 0.0
H670 H 0.18134 0.53293 0.21754 0.0
H671 H 0.20144 0.51301 0.25335 0.0
H672 H 0.2749 0.50642 0.22086 0.0
H673 H 0.25605 0.52764 0.18508 0.0
H674 H 0.25677 0.47229 0.1827 0.0
H675 H 0.05783 0.33712 0.15617 0.0
H676 H 1.03593 0.37898 0.11457 0.0
H677 H 0.16297 0.51386 0.15431 0.0
C678 C 0.19135 0.41708 0.25698 0.0
C679 C 0.17004 0.37067 0.26905 0.0
C680 C 0.13566 0.33144 0.24838 0.0
C681 C 0.11928 0.33828 0.21718 0.0
C682 C 0.13886 0.38452 0.2067 0.0
C683 C 0.17566 0.42329 0.22539 0.0
C684 C 0.18849 0.46925 0.20872 0.0
C685 C 0.17513 0.50103 0.23077 0.0
C686 C 0.24757 0.49545 0.19875 0.0
C687 C 0.1507 0.45031 0.17867 0.0
C688 C 0.12247 0.40129 0.17832 0.0
C689 C 0.08095 0.37534 0.15554 0.0
C690 C 0.06852 0.39975 0.13211 0.0
C691 C 0.09815 0.44991 0.13074 0.0
C692 C 0.14021 0.47557 0.15434 0.0
H693 H 0.63193 0.75185 0.25229 0.0
H694 H 0.80325 0.80075 0.26156 0.0
H695 H 0.79489 0.74531 0.21652 0.0
H696 H 0.5886 0.6313 0.23506 0.0
H697 H 0.53741 0.62252 0.20472 0.0
H698 H 0.55629 0.66724 0.23692 0.0
H699 H 0.57864 0.73187 0.19406 0.0
H700 H 0.55796 0.68709 0.16176 0.0
H701 H 0.62404 0.7384 0.1618 0.0
H702 H 0.76629 0.67893 0.17364 0.0
H703 H 0.72387 0.6206 0.12728 0.0
H704 H 0.57299 0.61894 0.14274 0.0
C705 C 0.66794 0.75187 0.24416 0.0
C706 C 0.71836 0.78116 0.26027 0.0
C707 C 0.76438 0.77954 0.24923 0.0
C708 C 0.75988 0.74752 0.22396 0.0
C709 C 0.70924 0.7178 0.20951 0.0
C710 C 0.66439 0.72081 0.21844 0.0
C711 C 0.61502 0.68606 0.19812 0.0
C712 C 0.57179 0.64963 0.22002 0.0
C713 C 0.59261 0.71243 0.17772 0.0
C714 C 0.63906 0.66293 0.17645 0.0
C715 C 0.69322 0.68094 0.18398 0.0
C716 C 0.72396 0.66474 0.16747 0.0
C717 C 0.69941 0.63107 0.14153 0.0
C718 C 0.64497 0.6145 0.13208 0.0
C719 C 0.6143 0.6301 0.15014 0.0
H720 H 0.38173 0.97676 0.13372 0.0
H721 H 0.50778 0.93842 0.13581 0.0
H722 H 0.48333 0.90993 0.1926 0.0
H723 H 0.39786 0.02044 0.21425 0.0
H724 H 0.32706 0.99715 0.22072 0.0
H725 H 0.35238 1.01094 0.17997 0.0
H726 H 0.28547 0.92518 0.15958 0.0
H727 H 0.25958 0.91106 0.20028 0.0
H728 H 0.28469 0.87601 0.18011 0.0
H729 H 0.45033 0.89454 0.25199 0.0
H730 H 0.40717 0.88634 0.3055 0.0
H731 H 0.29972 0.93091 0.26184 0.0
C732 C 0.40395 0.96194 0.146 0.0
C733 C 0.44703 0.96018 0.13064 0.0
C734 C 0.47463 0.93999 0.14723 0.0
C735 C 0.46105 0.92392 0.17946 0.0
C736 C 0.41907 0.9274 0.19424 0.0
C737 C 0.39034 0.94512 0.17764 0.0
C738 C 0.34746 0.94584 0.19865 0.0
C739 C 0.35678 0.9966 0.20369 0.0
C740 C 0.29095 0.91253 0.18377 0.0
C741 C 0.35733 0.92709 0.23023 0.0
C742 C 0.39882 0.91668 0.22737 0.0
C743 C 0.41723 0.90181 0.25421 0.0
C744 C 0.3926 0.89745 0.28456 0.0
C745 C 0.34966 0.9075 0.28781 0.0
C746 C 0.33176 0.92212 0.26009 0.0
H747 H 0.42393 0.08578 0.94612 0.0
H748 H 0.57124 0.08056 0.93098 0.0
H749 H 0.58111 0.11923 0.87754 0.0
H750 H 0.37433 0.05514 0.86406 0.0
H751 H 0.3434 0.09223 0.864 0.0
H752 H 0.35178 0.06851 0.90184 0.0
H753 H 0.40368 0.15357 0.92767 0.0
H754 H 0.39617 0.1776 0.88963 0.0
H755 H 0.46223 0.19797 0.90793 0.0
H756 H 0.5731 0.15793 0.8247 0.0
H757 H 0.5409 0.18017 0.77465 0.0
H758 H 0.39625 0.1548 0.82397 0.0
C759 C 0.45864 0.09317 0.93176 0.0
C760 C 0.49716 0.08058 0.94287 0.0
C761 C 0.54127 0.08992 0.92295 0.0
C762 C 0.5474 0.11225 0.89272 0.0
C763 C 0.50877 0.12458 0.88264 0.0
C764 C 0.46479 0.11456 0.90144 0.0
C765 C 0.42628 0.12728 0.88412 0.0
C766 C 0.37069 0.08317 0.87815 0.0
C767 C 0.42185 0.16643 0.9035 0.0
C768 C 0.45485 0.14539 0.85228 0.0
C769 C 0.50307 0.14475 0.8521 0.0
C770 C 0.5356 0.15881 0.82476 0.0
C771 C 0.51733 0.17193 0.79654 0.0
C772 C 0.46651 0.1699 0.79569 0.0
C773 C 0.4357 0.15752 0.82421 0.0
H774 H 0.98541 0.36988 0.94089 0.0
H775 H 0.11238 0.51095 0.91914 0.0
H776 H 0.10983 0.48412 0.86137 0.0
H777 H 1.03336 0.30666 0.89168 0.0
H778 H 0.96708 0.26041 0.87894 0.0
H779 H 0.97733 0.29112 0.918 0.0
H780 H 0.90453 0.31368 0.90188 0.0
H781 H 0.89361 0.28264 0.8629 0.0
H782 H 0.91031 0.34403 0.86427 0.0
H783 H 0.09226 0.44168 0.80603 0.0
H784 H 0.06191 0.38786 0.75721 0.0
H785 H 0.9495 0.27292 0.81592 0.0
C786 C 1.0125 0.39556 0.92406 0.0
C787 C 0.04891 0.4429 0.93464 0.0
C788 C 0.08394 0.47475 0.91166 0.0
C789 C 0.08284 0.45971 0.87884 0.0
C790 C 1.04689 0.41262 0.86951 0.0
C791 C 1.01241 0.38104 0.8915 0.0
C792 C 0.97829 0.33211 0.87557 0.0
C793 C 0.98972 0.29542 0.89203 0.0
C794 C 0.91812 0.31726 0.87619 0.0
C795 C 0.99862 0.34097 0.84091 0.0
C796 C 1.03805 0.38774 0.83799 0.0
C797 C 0.06168 0.40503 0.80815 0.0
C798 C 1.04408 0.37411 0.78055 0.0
C799 C 1.00354 0.32611 0.7828 0.0
C800 C 0.98111 0.30917 0.81357 0.0
H801 H 0.71453 0.64505 0.7988 0.0
H802 H 0.80027 0.56578 0.79045 0.0
H803 H 0.75565 0.52203 0.84043 0.0
H804 H 0.72406 0.66148 0.88324 0.0
H805 H 0.65792 0.6552 0.88684 0.0
H806 H 0.69344 0.67592 0.84946 0.0
H807 H 0.61292 0.60824 0.8165 0.0
H808 H 0.57719 0.58695 0.85391 0.0
H809 H 0.5888 0.54766 0.82754 0.0
H810 H 0.70772 0.49447 0.89654 0.0
H811 H 0.6627 0.48612 0.94959 0.0
H812 H 0.60588 0.581 0.91649 0.0
C813 C 0.724 0.61838 0.80731 0.0
C814 C 0.76169 0.60944 0.79112 0.0
C815 C 0.77183 0.57345 0.80268 0.0
C816 C 0.74653 0.54842 0.83098 0.0
C817 C 0.71026 0.55905 0.84679 0.0
C818 C 0.69868 0.59286 0.83483 0.0
C819 C 0.66005 0.5996 0.85621 0.0
C820 C 0.6854 0.65107 0.86974 0.0
C821 C 0.60656 0.58471 0.83742 0.0
C822 C 0.65296 0.5657 0.88305 0.0
C823 C 0.68171 0.54215 0.87738 0.0
C824 C 0.6843 0.51209 0.90073 0.0
C825 C 0.65828 0.50727 0.93077 0.0
C826 C 0.63027 0.53255 0.9372 0.0
C827 C 0.6264 0.56073 0.91238 0.0
H828 H 0.74543 0.72554 0.45762 0.0
H829 H 0.84759 0.87816 0.45964 0.0
H830 H 0.87715 0.87571 0.51675 0.0
H831 H 0.70256 0.71453 0.53945 0.0
H832 H 0.70444 0.66049 0.54628 0.0
H833 H 0.69258 0.67431 0.50543 0.0
H834 H 0.77349 0.66632 0.48495 0.0
H835 H 0.78556 0.65239 0.52578 0.0
H836 H 0.83869 0.7009 0.50503 0.0
H837 H 0.88867 0.85691 0.57551 0.0
H838 H 0.88793 0.82241 0.62941 0.0
H839 H 0.78428 0.68171 0.58723 0.0
C840 C 0.77423 0.75842 0.47003 0.0
C841 C 0.79403 0.8021 0.45432 0.0
C842 C 0.83207 0.84431 0.47122 0.0
C843 C 0.84896 0.84326 0.50367 0.0
C844 C 0.82822 0.79962 0.51859 0.0
C845 C 0.79234 0.75789 0.50212 0.0
C846 C 0.77635 0.71562 0.52357 0.0
C847 C 0.71537 0.68973 0.529 0.0
C848 C 0.79463 0.68182 0.50896 0.0
C849 C 0.80795 0.74012 0.55493 0.0
C850 C 0.83731 0.78862 0.55169 0.0
C851 C 0.86664 0.81893 0.57813 0.0
C852 C 0.86589 0.79911 0.60863 0.0
C853 C 0.8368 0.74948 0.61222 0.0
C854 C 0.80793 0.71971 0.58492 0.0
H855 H 0.28175 0.9216 0.5004 0.0
H856 H 0.21378 0.99005 0.4406 0.0
H857 H 0.24221 0.05391 0.48325 0.0
H858 H 0.24571 0.95186 0.5805 0.0
H859 H 0.30683 0.95965 0.60018 0.0
H860 H 0.27675 0.91826 0.56589 0.0
H861 H 0.36705 0.96109 0.53601 0.0
H862 H 0.39692 1.00351 0.56974 0.0
H863 H 0.39641 0.02352 0.52882 0.0
H864 H 0.28714 0.11539 0.53183 0.0
H865 H 0.33046 0.15986 0.58431 0.0
H866 H 0.3664 0.04933 0.61129 0.0
C867 C 0.27133 0.94922 0.49662 0.0
C868 C 0.24523 0.95044 0.46706 0.0
C869 C 0.23302 0.98771 0.46314 0.0
C870 C 0.24963 0.02458 0.48715 0.0
C871 C 0.27771 0.02342 0.51529 0.0
C872 C 0.28713 0.9859 0.52039 0.0
C873 C 0.31834 0.99272 0.5524 0.0
C874 C 0.28491 0.9533 0.57615 0.0
C875 C 0.3729 0.99536 0.54636 0.0
C876 C 0.32572 0.04015 0.56445 0.0
C877 C 0.30254 0.05779 0.54274 0.0
C878 C 0.30516 0.10163 0.54897 0.0
C879 C 0.33044 0.12703 0.57858 0.0
C880 C 0.35249 0.10837 0.60149 0.0
C881 C 0.35051 0.06473 0.59394 0.0
H882 H 1.00761 0.18252 0.59866 0.0
H883 H 0.87499 0.21032 0.58143 0.0
H884 H 0.90805 0.23908 0.52692 0.0
H885 H 0.10634 0.27174 0.56648 0.0
H886 H 0.13863 0.24798 0.5405 0.0
H887 H 0.10102 0.21473 0.57437 0.0
H888 H 1.0373 0.14188 0.54033 0.0
H889 H 0.07743 0.17024 0.50545 0.0
H890 H 1.00577 0.14793 0.50335 0.0
H891 H 0.97072 0.29002 0.48574 0.0
H892 H 1.04179 0.33276 0.44638 0.0
H893 H 0.12718 0.26087 0.48071 0.0
C894 C 0.98423 0.19244 0.58275 0.0
C895 C 0.93972 0.19581 0.59495 0.0
C896 C 0.90961 0.20812 0.57301 0.0
C897 C 0.92832 0.22498 0.54195 0.0
C898 C 0.97553 0.22651 0.53206 0.0
C899 C 1.00123 0.20756 0.55054 0.0
C900 C 0.05114 0.21375 0.53292 0.0
C901 C 0.10229 0.23869 0.55495 0.0
C902 C 1.04239 0.16559 0.51972 0.0
C903 C 0.05299 0.24466 0.50471 0.0
C904 C 1.00862 0.25124 0.50479 0.0
C905 C 1.00442 0.28343 0.4844 0.0
C906 C 1.04555 0.30823 0.4625 0.0
C907 C 0.08978 0.29992 0.46029 0.0
C908 C 0.09342 0.26746 0.48163 0.0
loop_
_geom_bond_atom_site_label_1
_geom_bond_atom_site_label_2
_geom_bond_distance
_geom_bond_site_symmetry_2
_ccdc_geom_bond_type
Tb0 O3 2.453 1_654 S
Tb0 O4 2.596 1_655 S
Tb0 O5 2.374 . S
Tb0 O13 2.343 . S
Tb0 O15 2.353 1_554 S
Tb0 O17 2.427 1_554 S
Tb0 O18 2.513 . S
C1 O5 1.250 1_455 S
C1 O7 1.263 . S
Tb2 O4 2.343 . S
Tb2 O7 2.353 . S
Tb2 O10 2.427 . S
Tb2 O11 2.513 1_554 S
Tb2 O12 2.453 1_455 S
Tb2 O13 2.596 1_455 S
Tb2 O14 2.374 1_554 S
O3 Tb0 2.453 1_456 S
O3 C19 1.245 1_556 S
O4 Tb0 2.596 1_455 S
O4 Tb2 2.343 . S
O4 C19 1.259 . S
O5 Tb0 2.374 . S
O5 C1 1.250 1_655 S
C6 O10 1.275 1_556 S
C6 O11 1.246 . S
O7 C1 1.263 . S
O7 Tb2 2.353 . S
C8 O12 1.245 . S
C8 O13 1.259 . S
C9 O14 1.250 1_655 S
C9 O15 1.263 . S
O10 Tb2 2.427 . S
O10 C6 1.275 1_554 S
O11 Tb2 2.513 1_556 S
O11 C6 1.246 . S
O12 Tb2 2.453 1_655 S
O12 C8 1.245 . S
O13 Tb0 2.343 . S
O13 Tb2 2.596 1_655 S
O13 C8 1.259 . S
O14 Tb2 2.374 1_556 S
O14 C9 1.250 1_455 S
O15 Tb0 2.353 1_556 S
O15 C9 1.263 . S
C16 O17 1.275 1_554 S
C16 O18 1.246 . S
O17 Tb0 2.427 1_556 S
O17 C16 1.275 1_556 S
O18 Tb0 2.513 . S
O18 C16 1.246 . S
C19 O3 1.245 1_554 S
C19 O4 1.259 . S
Tb20 O23 2.453 . S
Tb20 O24 2.596 . S
Tb20 O25 2.374 1_554 S
Tb20 O33 2.343 . S
Tb20 O35 2.353 . S
Tb20 O37 2.427 . S
Tb20 O38 2.513 1_554 S
C21 O25 1.251 . S
C21 O27 1.263 . S
Tb22 O24 2.343 . S
Tb22 O27 2.353 1_554 S
Tb22 O30 2.427 1_554 S
Tb22 O31 2.513 . S
Tb22 O32 2.453 1_554 S
Tb22 O33 2.596 . S
Tb22 O34 2.374 . S
O23 Tb20 2.453 . S
O23 C39 1.245 . S
O24 Tb20 2.596 . S
O24 Tb22 2.343 . S
O24 C39 1.259 . S
O25 Tb20 2.374 1_556 S
O25 C21 1.251 . S
C26 O30 1.275 1_554 S
C26 O31 1.246 . S
O27 C21 1.263 . S
O27 Tb22 2.353 1_556 S
C28 O32 1.245 1_554 S
C28 O33 1.259 . S
C29 O34 1.250 . S
C29 O35 1.263 . S
O30 Tb22 2.427 1_556 S
O30 C26 1.275 1_556 S
O31 Tb22 2.513 . S
O31 C26 1.246 . S
O32 Tb22 2.453 1_556 S
O32 C28 1.245 1_556 S
O33 Tb20 2.343 . S
O33 Tb22 2.596 . S
O33 C28 1.259 . S
O34 Tb22 2.374 . S
O34 C29 1.250 . S
O35 Tb20 2.353 . S
O35 C29 1.263 . S
C36 O37 1.275 1_556 S
C36 O38 1.246 . S
O37 Tb20 2.427 . S
O37 C36 1.275 1_554 S
O38 Tb20 2.513 1_556 S
O38 C36 1.246 . S
C39 O23 1.245 . S
C39 O24 1.259 . S
Tb40 O43 2.453 1_544 S
Tb40 O44 2.596 1_545 S
Tb40 O45 2.374 . S
Tb40 O53 2.343 . S
Tb40 O55 2.353 1_554 S
Tb40 O57 2.427 1_554 S
Tb40 O58 2.513 . S
C41 O45 1.251 1_565 S
C41 O47 1.263 . S
Tb42 O44 2.343 . S
Tb42 O47 2.353 . S
Tb42 O50 2.427 . S
Tb42 O51 2.513 1_554 S
Tb42 O52 2.453 1_565 S
Tb42 O53 2.596 1_565 S
Tb42 O54 2.381 1_554 S
O43 Tb40 2.453 1_566 S
O43 C59 1.245 1_556 S
O44 Tb40 2.596 1_565 S
O44 Tb42 2.343 . S
O44 C59 1.259 . S
O45 Tb40 2.374 . S
O45 C41 1.251 1_545 S
C46 O50 1.275 1_556 S
C46 O51 1.246 . S
O47 C41 1.263 . S
O47 Tb42 2.353 . S
C48 O52 1.245 . S
C48 O53 1.259 . S
C49 O54 1.235 1_545 S
C49 O55 1.263 . S
O50 Tb42 2.427 . S
O50 C46 1.275 1_554 S
O51 Tb42 2.513 1_556 S
O51 C46 1.246 . S
O52 Tb42 2.453 1_545 S
O52 C48 1.245 . S
O53 Tb40 2.343 . S
O53 Tb42 2.596 1_545 S
O53 C48 1.259 . S
O54 Tb42 2.381 1_556 S
O54 C49 1.235 1_565 S
O55 Tb40 2.353 1_556 S
O55 C49 1.263 . S
C56 O57 1.275 1_554 S
C56 O58 1.246 . S
O57 Tb40 2.427 1_556 S
O57 C56 1.275 1_556 S
O58 Tb40 2.513 . S
O58 C56 1.246 . S
C59 O43 1.245 1_554 S
C59 O44 1.259 . S
Tb60 O63 2.453 . S
Tb60 O64 2.596 . S
Tb60 O65 2.374 . S
Tb60 O73 2.343 . S
Tb60 O75 2.353 . S
Tb60 O77 2.427 . S
Tb60 O78 2.513 . S
C61 O65 1.251 . S
C61 O67 1.263 . S
Tb62 O64 2.343 . S
Tb62 O67 2.353 . S
Tb62 O70 2.427 . S
Tb62 O71 2.513 . S
Tb62 O72 2.453 . S
Tb62 O73 2.596 . S
Tb62 O74 2.374 . S
O63 Tb60 2.453 . S
O63 C79 1.245 . S
O64 Tb60 2.596 . S
O64 Tb62 2.343 . S
O64 C79 1.259 . S
O65 Tb60 2.374 . S
O65 C61 1.251 . S
C66 O70 1.275 . S
C66 O71 1.246 . S
O67 C61 1.263 . S
O67 Tb62 2.353 . S
C68 O72 1.245 . S
C68 O73 1.259 . S
C69 O74 1.250 . S
C69 O75 1.263 . S
O70 Tb62 2.427 . S
O70 C66 1.275 . S
O71 Tb62 2.513 . S
O71 C66 1.246 . S
O72 Tb62 2.453 . S
O72 C68 1.245 . S
O73 Tb60 2.343 . S
O73 Tb62 2.596 . S
O73 C68 1.259 . S
O74 Tb62 2.374 . S
O74 C69 1.250 . S
O75 Tb60 2.353 . S
O75 C69 1.263 . S
C76 O77 1.275 . S
C76 O78 1.246 . S
O77 Tb60 2.427 . S
O77 C76 1.275 . S
O78 Tb60 2.513 . S
O78 C76 1.246 . S
C79 O63 1.245 . S
C79 O64 1.259 . S
Tb80 O83 2.453 . S
Tb80 O84 2.596 . S
Tb80 O85 2.374 . S
Tb80 O93 2.343 . S
Tb80 O95 2.353 . S
Tb80 O97 2.427 . S
Tb80 O98 2.513 . S
C81 O85 1.251 . S
C81 O87 1.263 . S
Tb82 O84 2.343 . S
Tb82 O87 2.353 . S
Tb82 O90 2.427 . S
Tb82 O91 2.513 . S
Tb82 O92 2.453 . S
Tb82 O93 2.596 . S
Tb82 O94 2.374 . S
O83 Tb80 2.453 . S
O83 C99 1.245 . S
O84 Tb80 2.596 . S
O84 Tb82 2.343 . S
O84 C99 1.259 . S
O85 Tb80 2.374 . S
O85 C81 1.251 . S
C86 O90 1.275 . S
C86 O91 1.246 . S
O87 C81 1.263 . S
O87 Tb82 2.353 . S
C88 O92 1.245 . S
C88 O93 1.259 . S
C89 O94 1.250 . S
C89 O95 1.263 . S
O90 Tb82 2.427 . S
O90 C86 1.275 . S
O91 Tb82 2.513 . S
O91 C86 1.246 . S
O92 Tb82 2.453 . S
O92 C88 1.245 . S
O93 Tb80 2.343 . S
O93 Tb82 2.596 . S
O93 C88 1.259 . S
O94 Tb82 2.374 . S
O94 C89 1.250 . S
O95 Tb80 2.353 . S
O95 C89 1.263 . S
C96 O97 1.275 . S
C96 O98 1.246 . S
O97 Tb80 2.427 . S
O97 C96 1.275 . S
O98 Tb80 2.513 . S
O98 C96 1.246 . S
C99 O83 1.245 . S
C99 O84 1.259 . S
Tb100 O103 2.453 . S
Tb100 O104 2.596 . S
Tb100 O105 2.374 . S
Tb100 O113 2.343 . S
Tb100 O115 2.353 . S
Tb100 O117 2.427 . S
Tb100 O118 2.513 . S
C101 O105 1.251 . S
C101 O107 1.263 . S
Tb102 O104 2.343 . S
Tb102 O107 2.353 . S
Tb102 O110 2.427 . S
Tb102 O111 2.513 . S
Tb102 O112 2.453 . S
Tb102 O113 2.596 . S
Tb102 O114 2.374 . S
O103 Tb100 2.453 . S
O103 C119 1.245 . S
O104 Tb100 2.596 . S
O104 Tb102 2.343 . S
O104 C119 1.259 . S
O105 Tb100 2.374 . S
O105 C101 1.251 . S
C106 O110 1.275 . S
C106 O111 1.246 . S
O107 C101 1.263 . S
O107 Tb102 2.353 . S
C108 O112 1.245 . S
C108 O113 1.259 . S
C109 O114 1.250 . S
C109 O115 1.263 . S
O110 Tb102 2.427 . S
O110 C106 1.275 . S
O111 Tb102 2.513 . S
O111 C106 1.246 . S
O112 Tb102 2.453 . S
O112 C108 1.245 . S
O113 Tb100 2.343 . S
O113 Tb102 2.596 . S
O113 C108 1.259 . S
O114 Tb102 2.374 . S
O114 C109 1.250 . S
O115 Tb100 2.353 . S
O115 C109 1.263 . S
C116 O117 1.275 . S
C116 O118 1.246 . S
O117 Tb100 2.427 . S
O117 C116 1.275 . S
O118 Tb100 2.513 . S
O118 C116 1.246 . S
C119 O103 1.245 . S
C119 O104 1.259 . S
Tb120 O123 2.453 . S
Tb120 O124 2.596 . S
Tb120 O125 2.374 . S
Tb120 O133 2.343 . S
Tb120 O135 2.353 . S
Tb120 O137 2.427 . S
Tb120 O138 2.513 . S
C121 O125 1.251 . S
C121 O127 1.263 . S
Tb122 O124 2.343 . S
Tb122 O127 2.353 . S
Tb122 O130 2.427 . S
Tb122 O131 2.513 . S
Tb122 O132 2.453 . S
Tb122 O133 2.596 . S
Tb122 O134 2.374 . S
O123 Tb120 2.453 . S
O123 C139 1.245 . S
O124 Tb120 2.596 . S
O124 Tb122 2.343 . S
O124 C139 1.259 . S
O125 Tb120 2.374 . S
O125 C121 1.251 . S
C126 O130 1.275 . S
C126 O131 1.246 . S
O127 C121 1.263 . S
O127 Tb122 2.353 . S
C128 O132 1.245 . S
C128 O133 1.259 . S
C129 O134 1.250 . S
C129 O135 1.263 . S
O130 Tb122 2.427 . S
O130 C126 1.275 . S
O131 Tb122 2.513 . S
O131 C126 1.246 . S
O132 Tb122 2.453 . S
O132 C128 1.245 . S
O133 Tb120 2.343 . S
O133 Tb122 2.596 . S
O133 C128 1.259 . S
O134 Tb122 2.374 . S
O134 C129 1.250 . S
O135 Tb120 2.353 . S
O135 C129 1.263 . S
C136 O137 1.275 . S
C136 O138 1.246 . S
O137 Tb120 2.427 . S
O137 C136 1.275 . S
O138 Tb120 2.513 . S
O138 C136 1.246 . S
C139 O123 1.245 . S
C139 O124 1.259 . S
Tb140 O143 2.453 . S
Tb140 O144 2.596 . S
Tb140 O145 2.374 . S
Tb140 O153 2.343 . S
Tb140 O155 2.353 . S
Tb140 O157 2.427 . S
Tb140 O158 2.513 . S
C141 O145 1.251 . S
C141 O147 1.263 . S
Tb142 O144 2.343 . S
Tb142 O147 2.353 . S
Tb142 O150 2.427 . S
Tb142 O151 2.513 . S
Tb142 O152 2.453 . S
Tb142 O153 2.596 . S
Tb142 O154 2.374 . S
O143 Tb140 2.453 . S
O143 C159 1.245 . S
O144 Tb140 2.596 . S
O144 Tb142 2.343 . S
O144 C159 1.259 . S
O145 Tb140 2.374 . S
O145 C141 1.251 . S
C146 O150 1.275 . S
C146 O151 1.246 . S
O147 C141 1.263 . S
O147 Tb142 2.353 . S
C148 O152 1.245 . S
C148 O153 1.259 . S
C149 O154 1.250 . S
C149 O155 1.263 . S
O150 Tb142 2.427 . S
O150 C146 1.275 . S
O151 Tb142 2.513 . S
O151 C146 1.246 . S
O152 Tb142 2.453 . S
O152 C148 1.245 . S
O153 Tb140 2.343 . S
O153 Tb142 2.596 . S
O153 C148 1.259 . S
O154 Tb142 2.374 . S
O154 C149 1.250 . S
O155 Tb140 2.353 . S
O155 C149 1.263 . S
C156 O157 1.275 . S
C156 O158 1.246 . S
O157 Tb140 2.427 . S
O157 C156 1.275 . S
O158 Tb140 2.513 . S
O158 C156 1.246 . S
C159 O143 1.245 . S
C159 O144 1.259 . S
Tb160 O163 2.453 . S
Tb160 O164 2.596 . S
Tb160 O165 2.374 . S
Tb160 O173 2.343 . S
Tb160 O175 2.353 . S
Tb160 O177 2.427 . S
Tb160 O178 2.513 . S
C161 O165 1.251 . S
C161 O167 1.263 . S
Tb162 O164 2.343 . S
Tb162 O167 2.353 . S
Tb162 O170 2.427 . S
Tb162 O171 2.513 . S
Tb162 O172 2.453 . S
Tb162 O173 2.596 . S
Tb162 O174 2.374 . S
O163 Tb160 2.453 . S
O163 C179 1.245 . S
O164 Tb160 2.596 . S
O164 Tb162 2.343 . S
O164 C179 1.259 . S
O165 Tb160 2.374 . S
O165 C161 1.251 . S
C166 O170 1.275 . S
C166 O171 1.246 . S
O167 C161 1.263 . S
O167 Tb162 2.353 . S
C168 O172 1.245 . S
C168 O173 1.259 . S
C169 O174 1.250 . S
C169 O175 1.263 . S
O170 Tb162 2.427 . S
O170 C166 1.275 . S
O171 Tb162 2.513 . S
O171 C166 1.246 . S
O172 Tb162 2.453 . S
O172 C168 1.245 . S
O173 Tb160 2.343 . S
O173 Tb162 2.596 . S
O173 C168 1.259 . S
O174 Tb162 2.374 . S
O174 C169 1.250 . S
O175 Tb160 2.353 . S
O175 C169 1.263 . S
C176 O177 1.275 . S
C176 O178 1.246 . S
O177 Tb160 2.427 . S
O177 C176 1.275 . S
O178 Tb160 2.513 . S
O178 C176 1.246 . S
C179 O163 1.245 . S
C179 O164 1.259 . S
H180 C192 0.930 . S
H181 C194 0.930 . S
H182 C195 0.930 . S
H183 C199 0.959 . S
H184 C199 0.959 . S
H185 C199 0.961 . S
H186 C200 0.960 . S
H187 C200 0.961 . S
H188 C200 0.959 . S
H189 C203 0.929 . S
H190 C204 0.931 . S
H191 C206 0.930 . S
C192 H180 0.930 . S
C192 C193 1.399 1_556 S
C192 C197 1.399 . S
C193 C192 1.399 1_554 S
C193 C194 1.376 . S
C194 H181 0.930 . S
C194 C193 1.376 . S
C194 C195 1.388 . S
C195 H182 0.930 . S
C195 C194 1.388 . S
C195 C196 1.390 . S
C196 C195 1.390 . S
C196 C197 1.394 1_554 S
C196 C202 1.465 . S
C197 C192 1.399 . S
C197 C196 1.394 1_556 S
C197 C198 1.516 . S
C198 C197 1.516 . S
C198 C199 1.502 . S
C198 C200 1.561 . S
C198 C201 1.526 . S
C199 H183 0.959 . S
C199 H184 0.959 . S
C199 H185 0.961 . S
C199 C198 1.502 . S
C200 H186 0.960 . S
C200 H187 0.961 . S
C200 H188 0.959 . S
C200 C198 1.561 . S
C201 C198 1.526 . S
C201 C202 1.396 1_556 S
C201 C206 1.390 . S
C202 C196 1.465 . S
C202 C201 1.396 1_554 S
C202 C203 1.399 . S
C203 H189 0.929 . S
C203 C202 1.399 . S
C203 C204 1.385 . S
C204 H190 0.931 . S
C204 C203 1.385 . S
C204 C205 1.389 . S
C205 C204 1.389 . S
C205 C206 1.387 1_554 S
C206 H191 0.930 . S
C206 C201 1.390 . S
C206 C205 1.387 1_556 S
H207 C219 0.930 . S
H208 C221 0.930 . S
H209 C222 0.930 . S
H210 C226 0.959 . S
H211 C226 0.959 . S
H212 C226 0.961 . S
H213 C227 0.960 . S
H214 C227 0.961 . S
H215 C227 0.959 . S
H216 C230 0.929 . S
H217 C231 0.931 . S
H218 C233 0.930 . S
C219 H207 0.930 . S
C219 C220 1.399 . S
C219 C224 1.399 . S
C220 C219 1.399 . S
C220 C221 1.376 1_556 S
C221 H208 0.930 . S
C221 C220 1.376 1_554 S
C221 C222 1.388 . S
C222 H209 0.930 . S
C222 C221 1.388 . S
C222 C223 1.390 . S
C223 C222 1.390 . S
C223 C224 1.394 1_554 S
C223 C229 1.465 . S
C224 C219 1.399 . S
C224 C223 1.394 1_556 S
C224 C225 1.516 . S
C225 C224 1.516 . S
C225 C226 1.502 . S
C225 C227 1.561 . S
C225 C228 1.526 . S
C226 H210 0.959 . S
C226 H211 0.959 . S
C226 H212 0.961 . S
C226 C225 1.502 . S
C227 H213 0.960 . S
C227 H214 0.961 . S
C227 H215 0.959 . S
C227 C225 1.561 . S
C228 C225 1.526 . S
C228 C229 1.396 1_556 S
C228 C233 1.390 . S
C229 C223 1.465 . S
C229 C228 1.396 1_554 S
C229 C230 1.399 . S
C230 H216 0.929 . S
C230 C229 1.399 . S
C230 C231 1.385 . S
C231 H217 0.931 . S
C231 C230 1.385 . S
C231 C232 1.389 1_554 S
C232 C231 1.389 1_556 S
C232 C233 1.387 . S
C233 H218 0.930 . S
C233 C228 1.390 . S
C233 C232 1.387 . S
H234 C246 0.930 . S
H235 C248 0.930 . S
H236 C249 0.930 . S
H237 C253 0.959 . S
H238 C253 0.959 . S
H239 C253 0.961 . S
H240 C254 0.960 . S
H241 C254 0.961 . S
H242 C254 0.959 . S
H243 C257 0.929 . S
H244 C258 0.931 . S
H245 C260 0.930 . S
C246 H234 0.930 . S
C246 C247 1.399 . S
C246 C251 1.399 . S
C247 C246 1.399 . S
C247 C248 1.376 1_554 S
C248 H235 0.930 . S
C248 C247 1.376 1_556 S
C248 C249 1.388 . S
C249 H236 0.930 . S
C249 C248 1.388 . S
C249 C250 1.390 . S
C250 C249 1.390 . S
C250 C251 1.394 1_556 S
C250 C256 1.465 . S
C251 C246 1.399 . S
C251 C250 1.394 1_554 S
C251 C252 1.516 . S
C252 C251 1.516 . S
C252 C253 1.502 . S
C252 C254 1.561 . S
C252 C255 1.526 . S
C253 H237 0.959 . S
C253 H238 0.959 . S
C253 H239 0.961 . S
C253 C252 1.502 . S
C254 H240 0.960 . S
C254 H241 0.961 . S
C254 H242 0.959 . S
C254 C252 1.561 . S
C255 C252 1.526 . S
C255 C256 1.396 1_554 S
C255 C260 1.390 . S
C256 C250 1.465 . S
C256 C255 1.396 1_556 S
C256 C257 1.399 . S
C257 H243 0.929 . S
C257 C256 1.399 . S
C257 C258 1.385 . S
C258 H244 0.931 . S
C258 C257 1.385 . S
C258 C259 1.389 . S
C259 C258 1.389 . S
C259 C260 1.387 1_556 S
C260 H245 0.930 . S
C260 C255 1.390 . S
C260 C259 1.387 1_554 S
H261 C273 0.930 . S
H262 C275 0.930 . S
H263 C276 0.930 . S
H264 C280 0.959 . S
H265 C280 0.959 . S
H266 C280 0.961 . S
H267 C281 0.960 . S
H268 C281 0.961 . S
H269 C281 0.959 . S
H270 C284 0.929 . S
H271 C285 0.931 . S
H272 C287 0.930 . S
C273 H261 0.930 . S
C273 C274 1.399 1_556 S
C273 C278 1.399 . S
C274 C273 1.399 1_554 S
C274 C275 1.376 . S
C275 H262 0.930 . S
C275 C274 1.376 . S
C275 C276 1.388 . S
C276 H263 0.930 . S
C276 C275 1.388 . S
C276 C277 1.390 . S
C277 C276 1.390 . S
C277 C278 1.394 1_554 S
C277 C283 1.465 . S
C278 C273 1.399 . S
C278 C277 1.394 1_556 S
C278 C279 1.516 . S
C279 C278 1.516 . S
C279 C280 1.502 . S
C279 C281 1.561 . S
C279 C282 1.526 . S
C280 H264 0.959 . S
C280 H265 0.959 . S
C280 H266 0.961 . S
C280 C279 1.502 . S
C281 H267 0.960 . S
C281 H268 0.961 . S
C281 H269 0.959 . S
C281 C279 1.561 . S
C282 C279 1.526 . S
C282 C283 1.396 1_556 S
C282 C287 1.390 . S
C283 C277 1.465 . S
C283 C282 1.396 1_554 S
C283 C284 1.399 . S
C284 H270 0.929 . S
C284 C283 1.399 . S
C284 C285 1.385 . S
C285 H271 0.931 . S
C285 C284 1.385 . S
C285 C286 1.389 . S
C286 C285 1.389 . S
C286 C287 1.387 1_554 S
C287 H272 0.930 . S
C287 C282 1.390 . S
C287 C286 1.387 1_556 S
H288 C300 0.930 . S
H289 C302 0.930 . S
H290 C303 0.930 . S
H291 C307 0.959 . S
H292 C307 0.959 . S
H293 C307 0.961 . S
H294 C308 0.960 . S
H295 C308 0.961 . S
H296 C308 0.959 . S
H297 C311 0.929 . S
H298 C312 0.931 . S
H299 C314 0.930 . S
C300 H288 0.930 . S
C300 C301 1.378 1_554 S
C300 C305 1.399 . S
C301 C300 1.378 1_556 S
C301 C302 1.401 . S
C302 H289 0.930 . S
C302 C301 1.401 . S
C302 C303 1.388 . S
C303 H290 0.930 . S
C303 C302 1.388 . S
C303 C304 1.390 . S
C304 C303 1.390 . S
C304 C305 1.394 1_556 S
C304 C310 1.465 . S
C305 C300 1.399 . S
C305 C304 1.394 1_554 S
C305 C306 1.516 . S
C306 C305 1.516 . S
C306 C307 1.502 . S
C306 C308 1.561 . S
C306 C309 1.526 . S
C307 H291 0.959 . S
C307 H292 0.959 . S
C307 H293 0.961 . S
C307 C306 1.502 . S
C308 H294 0.960 . S
C308 H295 0.961 . S
C308 H296 0.959 . S
C308 C306 1.561 . S
C309 C306 1.526 . S
C309 C310 1.396 1_554 S
C309 C314 1.390 . S
C310 C304 1.465 . S
C310 C309 1.396 1_556 S
C310 C311 1.399 . S
C311 H297 0.929 . S
C311 C310 1.399 . S
C311 C312 1.385 . S
C312 H298 0.931 . S
C312 C311 1.385 . S
C312 C313 1.389 1_556 S
C313 C312 1.389 1_554 S
C313 C314 1.387 . S
C314 H299 0.930 . S
C314 C309 1.390 . S
C314 C313 1.387 . S
H315 C327 0.930 . S
H316 C329 0.930 . S
H317 C330 0.930 . S
H318 C334 0.959 . S
H319 C334 0.959 . S
H320 C334 0.961 . S
H321 C335 0.960 . S
H322 C335 0.961 . S
H323 C335 0.959 . S
H324 C338 0.929 . S
H325 C339 0.931 . S
H326 C341 0.930 . S
C327 H315 0.930 . S
C327 C328 1.399 1_556 S
C327 C332 1.399 . S
C328 C327 1.399 1_554 S
C328 C329 1.376 . S
C329 H316 0.930 . S
C329 C328 1.376 . S
C329 C330 1.388 . S
C330 H317 0.930 . S
C330 C329 1.388 . S
C330 C331 1.390 . S
C331 C330 1.390 . S
C331 C332 1.394 1_554 S
C331 C337 1.465 . S
C332 C327 1.399 . S
C332 C331 1.394 1_556 S
C332 C333 1.516 . S
C333 C332 1.516 . S
C333 C334 1.502 . S
C333 C335 1.561 . S
C333 C336 1.526 . S
C334 H318 0.959 . S
C334 H319 0.959 . S
C334 H320 0.961 . S
C334 C333 1.502 . S
C335 H321 0.960 . S
C335 H322 0.961 . S
C335 H323 0.959 . S
C335 C333 1.561 . S
C336 C333 1.526 . S
C336 C337 1.396 1_556 S
C336 C341 1.390 . S
C337 C331 1.465 . S
C337 C336 1.396 1_554 S
C337 C338 1.399 . S
C338 H324 0.929 . S
C338 C337 1.399 . S
C338 C339 1.385 . S
C339 H325 0.931 . S
C339 C338 1.385 . S
C339 C340 1.389 . S
C340 C339 1.389 . S
C340 C341 1.387 1_554 S
C341 H326 0.930 . S
C341 C336 1.390 . S
C341 C340 1.387 1_556 S
H342 C354 0.930 . S
H343 C356 0.930 . S
H344 C357 0.930 . S
H345 C361 0.959 . S
H346 C361 0.959 . S
H347 C361 0.961 . S
H348 C362 0.960 . S
H349 C362 0.961 . S
H350 C362 0.959 . S
H351 C365 0.929 . S
H352 C366 0.931 . S
H353 C368 0.930 . S
C354 H342 0.930 . S
C354 C355 1.399 . S
C354 C359 1.399 . S
C355 C354 1.399 . S
C355 C356 1.376 . S
C356 H343 0.930 . S
C356 C355 1.376 . S
C356 C357 1.388 . S
C357 H344 0.930 . S
C357 C356 1.388 . S
C357 C358 1.390 . S
C358 C357 1.390 . S
C358 C359 1.394 . S
C358 C364 1.465 . S
C359 C354 1.399 . S
C359 C358 1.394 . S
C359 C360 1.516 . S
C360 C359 1.516 . S
C360 C361 1.502 . S
C360 C362 1.561 . S
C360 C363 1.526 . S
C361 H345 0.959 . S
C361 H346 0.959 . S
C361 H347 0.961 . S
C361 C360 1.502 . S
C362 H348 0.960 . S
C362 H349 0.961 . S
C362 H350 0.959 . S
C362 C360 1.561 . S
C363 C360 1.526 . S
C363 C364 1.396 . S
C363 C368 1.390 1_655 S
C364 C358 1.465 . S
C364 C363 1.396 . S
C364 C365 1.399 . S
C365 H351 0.929 . S
C365 C364 1.399 . S
C365 C366 1.385 1_655 S
C366 H352 0.931 . S
C366 C365 1.385 1_455 S
C366 C367 1.389 . S
C367 C366 1.389 . S
C367 C368 1.387 . S
C368 H353 0.930 . S
C368 C363 1.390 1_455 S
C368 C367 1.387 . S
H369 C381 0.930 . S
H370 C383 0.930 . S
H371 C384 0.930 . S
H372 C388 0.959 . S
H373 C388 0.959 . S
H374 C388 0.961 . S
H375 C389 0.960 . S
H376 C389 0.961 . S
H377 C389 0.959 . S
H378 C392 0.929 . S
H379 C393 0.931 . S
H380 C395 0.930 1_565 S
C381 H369 0.930 . S
C381 C382 1.399 . S
C381 C386 1.399 . S
C382 C381 1.399 . S
C382 C383 1.376 . S
C383 H370 0.930 . S
C383 C382 1.376 . S
C383 C384 1.388 . S
C384 H371 0.930 . S
C384 C383 1.388 . S
C384 C385 1.390 . S
C385 C384 1.390 . S
C385 C386 1.394 . S
C385 C391 1.465 . S
C386 C381 1.399 . S
C386 C385 1.394 . S
C386 C387 1.516 . S
C387 C386 1.516 . S
C387 C388 1.502 . S
C387 C389 1.561 . S
C387 C390 1.526 . S
C388 H372 0.959 . S
C388 H373 0.959 . S
C388 H374 0.961 . S
C388 C387 1.502 . S
C389 H375 0.960 . S
C389 H376 0.961 . S
C389 H377 0.959 . S
C389 C387 1.561 . S
C390 C387 1.526 . S
C390 C391 1.396 . S
C390 C395 1.390 . S
C391 C385 1.465 . S
C391 C390 1.396 . S
C391 C392 1.399 . S
C392 H378 0.929 . S
C392 C391 1.399 . S
C392 C393 1.385 . S
C393 H379 0.931 . S
C393 C392 1.385 . S
C393 C394 1.389 . S
C394 C393 1.389 . S
C394 C395 1.387 . S
C395 H380 0.930 1_545 S
C395 C390 1.390 . S
C395 C394 1.387 . S
H396 C408 0.930 . S
H397 C410 0.930 . S
H398 C411 0.930 . S
H399 C415 0.959 . S
H400 C415 0.959 . S
H401 C415 0.961 . S
H402 C416 0.960 . S
H403 C416 0.961 . S
H404 C416 0.959 . S
H405 C419 0.929 . S
H406 C420 0.931 . S
H407 C422 0.930 . S
C408 H396 0.930 . S
C408 C409 1.399 1_655 S
C408 C413 1.399 . S
C409 C408 1.399 1_455 S
C409 C410 1.376 . S
C410 H397 0.930 . S
C410 C409 1.376 . S
C410 C411 1.388 . S
C411 H398 0.930 . S
C411 C410 1.388 . S
C411 C412 1.390 1_455 S
C412 C411 1.390 1_655 S
C412 C413 1.394 . S
C412 C418 1.465 . S
C413 C408 1.399 . S
C413 C412 1.394 . S
C413 C414 1.516 . S
C414 C413 1.516 . S
C414 C415 1.502 . S
C414 C416 1.561 . S
C414 C417 1.526 . S
C415 H399 0.959 . S
C415 H400 0.959 . S
C415 H401 0.961 . S
C415 C414 1.502 . S
C416 H402 0.960 . S
C416 H403 0.961 . S
C416 H404 0.959 . S
C416 C414 1.561 . S
C417 C414 1.526 . S
C417 C418 1.396 . S
C417 C422 1.390 . S
C418 C412 1.465 . S
C418 C417 1.396 . S
C418 C419 1.399 . S
C419 H405 0.929 . S
C419 C418 1.399 . S
C419 C420 1.385 1_545 S
C420 H406 0.931 . S
C420 C419 1.385 1_565 S
C420 C421 1.389 . S
C421 C420 1.389 . S
C421 C422 1.387 1_565 S
C422 H407 0.930 . S
C422 C417 1.390 . S
C422 C421 1.387 1_545 S
H423 C435 0.930 . S
H424 C437 0.930 . S
H425 C438 0.930 . S
H426 C442 0.959 . S
H427 C442 0.959 . S
H428 C442 0.961 . S
H429 C443 0.960 . S
H430 C443 0.961 . S
H431 C443 0.959 . S
H432 C446 0.929 . S
H433 C447 0.931 . S
H434 C449 0.930 . S
C435 H423 0.930 . S
C435 C436 1.399 . S
C435 C440 1.399 . S
C436 C435 1.399 . S
C436 C437 1.376 . S
C437 H424 0.930 . S
C437 C436 1.376 . S
C437 C438 1.388 . S
C438 H425 0.930 . S
C438 C437 1.388 . S
C438 C439 1.390 . S
C439 C438 1.390 . S
C439 C440 1.394 . S
C439 C445 1.465 . S
C440 C435 1.399 . S
C440 C439 1.394 . S
C440 C441 1.516 . S
C441 C440 1.516 . S
C441 C442 1.502 . S
C441 C443 1.561 . S
C441 C444 1.526 . S
C442 H426 0.959 . S
C442 H427 0.959 . S
C442 H428 0.961 . S
C442 C441 1.502 . S
C443 H429 0.960 . S
C443 H430 0.961 . S
C443 H431 0.959 . S
C443 C441 1.561 . S
C444 C441 1.526 . S
C444 C445 1.396 . S
C444 C449 1.390 . S
C445 C439 1.465 . S
C445 C444 1.396 . S
C445 C446 1.399 . S
C446 H432 0.929 . S
C446 C445 1.399 . S
C446 C447 1.385 . S
C447 H433 0.931 . S
C447 C446 1.385 . S
C447 C448 1.389 . S
C448 C447 1.389 . S
C448 C449 1.387 . S
C449 H434 0.930 . S
C449 C444 1.390 . S
C449 C448 1.387 . S
H450 C462 0.930 . S
H451 C464 0.930 . S
H452 C465 0.930 . S
H453 C469 0.959 . S
H454 C469 0.959 . S
H455 C469 0.961 . S
H456 C470 0.960 . S
H457 C470 0.961 . S
H458 C470 0.959 . S
H459 C473 0.929 . S
H460 C474 0.931 . S
H461 C476 0.930 . S
C462 H450 0.930 . S
C462 C463 1.399 . S
C462 C467 1.399 . S
C463 C462 1.399 . S
C463 C464 1.376 . S
C464 H451 0.930 . S
C464 C463 1.376 . S
C464 C465 1.388 . S
C465 H452 0.930 . S
C465 C464 1.388 . S
C465 C466 1.390 . S
C466 C465 1.390 . S
C466 C467 1.394 . S
C466 C472 1.465 . S
C467 C462 1.399 . S
C467 C466 1.394 . S
C467 C468 1.516 . S
C468 C467 1.516 . S
C468 C469 1.502 . S
C468 C470 1.561 . S
C468 C471 1.526 . S
C469 H453 0.959 . S
C469 H454 0.959 . S
C469 H455 0.961 . S
C469 C468 1.502 . S
C470 H456 0.960 . S
C470 H457 0.961 . S
C470 H458 0.959 . S
C470 C468 1.561 . S
C471 C468 1.526 . S
C471 C472 1.396 . S
C471 C476 1.390 . S
C472 C466 1.465 . S
C472 C471 1.396 . S
C472 C473 1.399 . S
C473 H459 0.929 . S
C473 C472 1.399 . S
C473 C474 1.385 . S
C474 H460 0.931 . S
C474 C473 1.385 . S
C474 C475 1.389 . S
C475 C474 1.389 . S
C475 C476 1.387 . S
C476 H461 0.930 . S
C476 C471 1.390 . S
C476 C475 1.387 . S
H477 C489 0.930 . S
H478 C491 0.930 . S
H479 C492 0.930 . S
H480 C496 0.959 . S
H481 C496 0.959 . S
H482 C496 0.961 . S
H483 C497 0.960 . S
H484 C497 0.961 . S
H485 C497 0.959 . S
H486 C500 0.929 . S
H487 C501 0.931 . S
H488 C503 0.930 . S
C489 H477 0.930 . S
C489 C490 1.399 . S
C489 C494 1.399 . S
C490 C489 1.399 . S
C490 C491 1.376 . S
C491 H478 0.930 . S
C491 C490 1.376 . S
C491 C492 1.388 . S
C492 H479 0.930 . S
C492 C491 1.388 . S
C492 C493 1.390 . S
C493 C492 1.390 . S
C493 C494 1.394 . S
C493 C499 1.465 . S
C494 C489 1.399 . S
C494 C493 1.394 . S
C494 C495 1.516 . S
C495 C494 1.516 . S
C495 C496 1.502 . S
C495 C497 1.561 . S
C495 C498 1.526 . S
C496 H480 0.959 . S
C496 H481 0.959 . S
C496 H482 0.961 . S
C496 C495 1.502 . S
C497 H483 0.960 . S
C497 H484 0.961 . S
C497 H485 0.959 . S
C497 C495 1.561 . S
C498 C495 1.526 . S
C498 C499 1.396 . S
C498 C503 1.390 . S
C499 C493 1.465 . S
C499 C498 1.396 . S
C499 C500 1.399 . S
C500 H486 0.929 . S
C500 C499 1.399 . S
C500 C501 1.385 . S
C501 H487 0.931 . S
C501 C500 1.385 . S
C501 C502 1.389 . S
C502 C501 1.389 . S
C502 C503 1.387 . S
C503 H488 0.930 . S
C503 C498 1.390 . S
C503 C502 1.387 . S
H504 C516 0.930 . S
H505 C518 0.930 . S
H506 C519 0.930 . S
H507 C523 0.959 . S
H508 C523 0.959 . S
H509 C523 0.961 . S
H510 C524 0.960 . S
H511 C524 0.961 . S
H512 C524 0.959 . S
H513 C527 0.929 . S
H514 C528 0.931 . S
H515 C530 0.930 . S
C516 H504 0.930 . S
C516 C517 1.399 . S
C516 C521 1.399 . S
C517 C516 1.399 . S
C517 C518 1.376 . S
C518 H505 0.930 . S
C518 C517 1.376 . S
C518 C519 1.388 . S
C519 H506 0.930 . S
C519 C518 1.388 . S
C519 C520 1.390 . S
C520 C519 1.390 . S
C520 C521 1.394 . S
C520 C526 1.465 . S
C521 C516 1.399 . S
C521 C520 1.394 . S
C521 C522 1.516 . S
C522 C521 1.516 . S
C522 C523 1.502 . S
C522 C524 1.561 . S
C522 C525 1.526 . S
C523 H507 0.959 . S
C523 H508 0.959 . S
C523 H509 0.961 . S
C523 C522 1.502 . S
C524 H510 0.960 . S
C524 H511 0.961 . S
C524 H512 0.959 . S
C524 C522 1.561 . S
C525 C522 1.526 . S
C525 C526 1.396 . S
C525 C530 1.390 . S
C526 C520 1.465 . S
C526 C525 1.396 . S
C526 C527 1.399 . S
C527 H513 0.929 . S
C527 C526 1.399 . S
C527 C528 1.385 . S
C528 H514 0.931 . S
C528 C527 1.385 . S
C528 C529 1.389 . S
C529 C528 1.389 . S
C529 C530 1.387 . S
C530 H515 0.930 . S
C530 C525 1.390 . S
C530 C529 1.387 . S
H531 C543 0.930 . S
H532 C545 0.930 . S
H533 C546 0.930 . S
H534 C550 0.959 . S
H535 C550 0.959 . S
H536 C550 0.961 . S
H537 C551 0.960 . S
H538 C551 0.961 . S
H539 C551 0.959 . S
H540 C554 0.929 . S
H541 C555 0.931 . S
H542 C557 0.930 . S
C543 H531 0.930 . S
C543 C544 1.399 . S
C543 C548 1.399 . S
C544 C543 1.399 . S
C544 C545 1.376 . S
C545 H532 0.930 . S
C545 C544 1.376 . S
C545 C546 1.388 . S
C546 H533 0.930 . S
C546 C545 1.388 . S
C546 C547 1.390 . S
C547 C546 1.390 . S
C547 C548 1.394 . S
C547 C553 1.465 . S
C548 C543 1.399 . S
C548 C547 1.394 . S
C548 C549 1.516 . S
C549 C548 1.516 . S
C549 C550 1.502 . S
C549 C551 1.561 . S
C549 C552 1.526 . S
C550 H534 0.959 . S
C550 H535 0.959 . S
C550 H536 0.961 . S
C550 C549 1.502 . S
C551 H537 0.960 . S
C551 H538 0.961 . S
C551 H539 0.959 . S
C551 C549 1.561 . S
C552 C549 1.526 . S
C552 C553 1.396 . S
C552 C557 1.390 . S
C553 C547 1.465 . S
C553 C552 1.396 . S
C553 C554 1.399 . S
C554 H540 0.929 . S
C554 C553 1.399 . S
C554 C555 1.385 . S
C555 H541 0.931 . S
C555 C554 1.385 . S
C555 C556 1.389 . S
C556 C555 1.389 . S
C556 C557 1.387 . S
C557 H542 0.930 . S
C557 C552 1.390 . S
C557 C556 1.387 . S
H558 C570 0.930 . S
H559 C572 0.930 . S
H560 C573 0.930 . S
H561 C577 0.959 . S
H562 C577 0.959 . S
H563 C577 0.961 . S
H564 C578 0.960 . S
H565 C578 0.961 . S
H566 C578 0.959 . S
H567 C581 0.929 . S
H568 C582 0.931 . S
H569 C584 0.930 . S
C570 H558 0.930 . S
C570 C571 1.399 . S
C570 C575 1.399 . S
C571 C570 1.399 . S
C571 C572 1.376 . S
C572 H559 0.930 . S
C572 C571 1.376 . S
C572 C573 1.388 . S
C573 H560 0.930 . S
C573 C572 1.388 . S
C573 C574 1.390 . S
C574 C573 1.390 . S
C574 C575 1.394 . S
C574 C580 1.465 . S
C575 C570 1.399 . S
C575 C574 1.394 . S
C575 C576 1.516 . S
C576 C575 1.516 . S
C576 C577 1.502 . S
C576 C578 1.561 . S
C576 C579 1.526 . S
C577 H561 0.959 . S
C577 H562 0.959 . S
C577 H563 0.961 . S
C577 C576 1.502 . S
C578 H564 0.960 . S
C578 H565 0.961 . S
C578 H566 0.959 . S
C578 C576 1.561 . S
C579 C576 1.526 . S
C579 C580 1.396 . S
C579 C584 1.390 . S
C580 C574 1.465 . S
C580 C579 1.396 . S
C580 C581 1.399 . S
C581 H567 0.929 . S
C581 C580 1.399 . S
C581 C582 1.385 . S
C582 H568 0.931 . S
C582 C581 1.385 . S
C582 C583 1.389 . S
C583 C582 1.389 . S
C583 C584 1.387 . S
C584 H569 0.930 . S
C584 C579 1.390 . S
C584 C583 1.387 . S
H585 C597 0.930 . S
H586 C599 0.930 . S
H587 C600 0.930 . S
H588 C604 0.959 . S
H589 C604 0.959 . S
H590 C604 0.961 . S
H591 C605 0.960 . S
H592 C605 0.961 . S
H593 C605 0.959 . S
H594 C608 0.929 . S
H595 C609 0.931 . S
H596 C611 0.930 . S
C597 H585 0.930 . S
C597 C598 1.399 . S
C597 C602 1.399 . S
C598 C597 1.399 . S
C598 C599 1.376 . S
C599 H586 0.930 . S
C599 C598 1.376 . S
C599 C600 1.388 . S
C600 H587 0.930 . S
C600 C599 1.388 . S
C600 C601 1.390 . S
C601 C600 1.390 . S
C601 C602 1.394 . S
C601 C607 1.465 . S
C602 C597 1.399 . S
C602 C601 1.394 . S
C602 C603 1.516 . S
C603 C602 1.516 . S
C603 C604 1.502 . S
C603 C605 1.561 . S
C603 C606 1.526 . S
C604 H588 0.959 . S
C604 H589 0.959 . S
C604 H590 0.961 . S
C604 C603 1.502 . S
C605 H591 0.960 . S
C605 H592 0.961 . S
C605 H593 0.959 . S
C605 C603 1.561 . S
C606 C603 1.526 . S
C606 C607 1.396 . S
C606 C611 1.390 1_565 S
C607 C601 1.465 . S
C607 C606 1.396 . S
C607 C608 1.399 1_565 S
C608 H594 0.929 . S
C608 C607 1.399 1_545 S
C608 C609 1.385 . S
C609 H595 0.931 . S
C609 C608 1.385 . S
C609 C610 1.389 . S
C610 C609 1.389 . S
C610 C611 1.387 . S
C611 H596 0.930 . S
C611 C606 1.390 1_545 S
C611 C610 1.387 . S
H612 C624 0.930 . S
H613 C626 0.930 . S
H614 C627 0.930 . S
H615 C631 0.959 . S
H616 C631 0.959 . S
H617 C631 0.961 . S
H618 C632 0.960 . S
H619 C632 0.961 . S
H620 C632 0.959 . S
H621 C635 0.929 . S
H622 C636 0.931 . S
H623 C638 0.930 . S
C624 H612 0.930 . S
C624 C625 1.399 . S
C624 C629 1.399 1_655 S
C625 C624 1.399 . S
C625 C626 1.376 . S
C626 H613 0.930 . S
C626 C625 1.376 . S
C626 C627 1.388 . S
C627 H614 0.930 . S
C627 C626 1.388 . S
C627 C628 1.390 1_655 S
C628 C627 1.390 1_455 S
C628 C629 1.394 . S
C628 C634 1.465 . S
C629 C624 1.399 1_455 S
C629 C628 1.394 . S
C629 C630 1.516 . S
C630 C629 1.516 . S
C630 C631 1.502 . S
C630 C632 1.561 . S
C630 C633 1.526 . S
C631 H615 0.959 . S
C631 H616 0.959 . S
C631 H617 0.961 . S
C631 C630 1.502 . S
C632 H618 0.960 . S
C632 H619 0.961 . S
C632 H620 0.959 . S
C632 C630 1.561 . S
C633 C630 1.526 . S
C633 C634 1.396 . S
C633 C638 1.390 . S
C634 C628 1.465 . S
C634 C633 1.396 . S
C634 C635 1.399 . S
C635 H621 0.929 . S
C635 C634 1.399 . S
C635 C636 1.385 . S
C636 H622 0.931 . S
C636 C635 1.385 . S
C636 C637 1.389 . S
C637 C636 1.389 . S
C637 C638 1.387 . S
C638 H623 0.930 . S
C638 C633 1.390 . S
C638 C637 1.387 . S
H639 C651 0.930 . S
H640 C653 0.930 . S
H641 C654 0.930 . S
H642 C658 0.959 . S
H643 C658 0.959 . S
H644 C658 0.961 . S
H645 C659 0.960 . S
H646 C659 0.961 . S
H647 C659 0.959 . S
H648 C662 0.929 . S
H649 C663 0.931 . S
H650 C665 0.930 . S
C651 H639 0.930 . S
C651 C652 1.399 . S
C651 C656 1.399 . S
C652 C651 1.399 . S
C652 C653 1.376 . S
C653 H640 0.930 . S
C653 C652 1.376 . S
C653 C654 1.388 . S
C654 H641 0.930 . S
C654 C653 1.388 . S
C654 C655 1.390 . S
C655 C654 1.390 . S
C655 C656 1.394 . S
C655 C661 1.465 . S
C656 C651 1.399 . S
C656 C655 1.394 . S
C656 C657 1.516 . S
C657 C656 1.516 . S
C657 C658 1.502 . S
C657 C659 1.561 . S
C657 C660 1.526 . S
C658 H642 0.959 . S
C658 H643 0.959 . S
C658 H644 0.961 . S
C658 C657 1.502 . S
C659 H645 0.960 . S
C659 H646 0.961 . S
C659 H647 0.959 . S
C659 C657 1.561 . S
C660 C657 1.526 . S
C660 C661 1.396 . S
C660 C665 1.390 . S
C661 C655 1.465 . S
C661 C660 1.396 . S
C661 C662 1.399 . S
C662 H648 0.929 . S
C662 C661 1.399 . S
C662 C663 1.385 . S
C663 H649 0.931 . S
C663 C662 1.385 . S
C663 C664 1.389 . S
C664 C663 1.389 . S
C664 C665 1.387 . S
C665 H650 0.930 . S
C665 C660 1.390 . S
C665 C664 1.387 . S
H666 C678 0.930 . S
H667 C680 0.930 . S
H668 C681 0.930 . S
H669 C685 0.959 . S
H670 C685 0.959 . S
H671 C685 0.961 . S
H672 C686 0.960 . S
H673 C686 0.961 . S
H674 C686 0.959 . S
H675 C689 0.929 1_655 S
H676 C690 0.931 1_655 S
H677 C692 0.930 . S
C678 H666 0.930 . S
C678 C679 1.399 . S
C678 C683 1.399 . S
C679 C678 1.399 . S
C679 C680 1.376 . S
C680 H667 0.930 . S
C680 C679 1.376 . S
C680 C681 1.388 . S
C681 H668 0.930 . S
C681 C680 1.388 . S
C681 C682 1.390 . S
C682 C681 1.390 . S
C682 C683 1.394 . S
C682 C688 1.465 . S
C683 C678 1.399 . S
C683 C682 1.394 . S
C683 C684 1.516 . S
C684 C683 1.516 . S
C684 C685 1.502 . S
C684 C686 1.561 . S
C684 C687 1.526 . S
C685 H669 0.959 . S
C685 H670 0.959 . S
C685 H671 0.961 . S
C685 C684 1.502 . S
C686 H672 0.960 . S
C686 H673 0.961 . S
C686 H674 0.959 . S
C686 C684 1.561 . S
C687 C684 1.526 . S
C687 C688 1.396 . S
C687 C692 1.390 . S
C688 C682 1.465 . S
C688 C687 1.396 . S
C688 C689 1.399 . S
C689 H675 0.929 1_455 S
C689 C688 1.399 . S
C689 C690 1.385 . S
C690 H676 0.931 1_455 S
C690 C689 1.385 . S
C690 C691 1.389 . S
C691 C690 1.389 . S
C691 C692 1.387 . S
C692 H677 0.930 . S
C692 C687 1.390 . S
C692 C691 1.387 . S
H693 C705 0.930 . S
H694 C707 0.930 . S
H695 C708 0.930 . S
H696 C712 0.959 . S
H697 C712 0.959 . S
H698 C712 0.961 . S
H699 C713 0.960 . S
H700 C713 0.961 . S
H701 C713 0.959 . S
H702 C716 0.929 . S
H703 C717 0.931 . S
H704 C719 0.930 . S
C705 H693 0.930 . S
C705 C706 1.399 . S
C705 C710 1.399 . S
C706 C705 1.399 . S
C706 C707 1.376 . S
C707 H694 0.930 . S
C707 C706 1.376 . S
C707 C708 1.388 . S
C708 H695 0.930 . S
C708 C707 1.388 . S
C708 C709 1.390 . S
C709 C708 1.390 . S
C709 C710 1.394 . S
C709 C715 1.465 . S
C710 C705 1.399 . S
C710 C709 1.394 . S
C710 C711 1.516 . S
C711 C710 1.516 . S
C711 C712 1.502 . S
C711 C713 1.561 . S
C711 C714 1.526 . S
C712 H696 0.959 . S
C712 H697 0.959 . S
C712 H698 0.961 . S
C712 C711 1.502 . S
C713 H699 0.960 . S
C713 H700 0.961 . S
C713 H701 0.959 . S
C713 C711 1.561 . S
C714 C711 1.526 . S
C714 C715 1.396 . S
C714 C719 1.390 . S
C715 C709 1.465 . S
C715 C714 1.396 . S
C715 C716 1.399 . S
C716 H702 0.929 . S
C716 C715 1.399 . S
C716 C717 1.385 . S
C717 H703 0.931 . S
C717 C716 1.385 . S
C717 C718 1.389 . S
C718 C717 1.389 . S
C718 C719 1.387 . S
C719 H704 0.930 . S
C719 C714 1.390 . S
C719 C718 1.387 . S
H720 C732 0.930 . S
H721 C734 0.930 1_545 S
H722 C735 0.930 1_545 S
H723 C739 0.959 . S
H724 C739 0.959 . S
H725 C739 0.961 . S
H726 C740 0.960 . S
H727 C740 0.961 . S
H728 C740 0.959 . S
H729 C743 0.929 . S
H730 C744 0.931 . S
H731 C746 0.930 . S
C732 H720 0.930 . S
C732 C733 1.399 . S
C732 C737 1.399 . S
C733 C732 1.399 . S
C733 C734 1.376 . S
C734 H721 0.930 1_565 S
C734 C733 1.376 . S
C734 C735 1.388 . S
C735 H722 0.930 1_565 S
C735 C734 1.388 . S
C735 C736 1.390 . S
C736 C735 1.390 . S
C736 C737 1.394 . S
C736 C742 1.465 . S
C737 C732 1.399 . S
C737 C736 1.394 . S
C737 C738 1.516 . S
C738 C737 1.516 . S
C738 C739 1.502 . S
C738 C740 1.561 . S
C738 C741 1.526 . S
C739 H723 0.959 . S
C739 H724 0.959 . S
C739 H725 0.961 . S
C739 C738 1.502 . S
C740 H726 0.960 . S
C740 H727 0.961 . S
C740 H728 0.959 . S
C740 C738 1.561 . S
C741 C738 1.526 . S
C741 C742 1.396 . S
C741 C746 1.390 . S
C742 C736 1.465 . S
C742 C741 1.396 . S
C742 C743 1.399 . S
C743 H729 0.929 . S
C743 C742 1.399 . S
C743 C744 1.385 . S
C744 H730 0.931 . S
C744 C743 1.385 . S
C744 C745 1.389 . S
C745 C744 1.389 . S
C745 C746 1.387 . S
C746 H731 0.930 . S
C746 C741 1.390 . S
C746 C745 1.387 . S
H747 C759 0.930 . S
H748 C761 0.930 1_565 S
H749 C762 0.931 1_565 S
H750 C766 0.959 . S
H751 C766 0.959 . S
H752 C766 0.961 . S
H753 C767 0.960 . S
H754 C767 0.961 . S
H755 C767 0.959 . S
H756 C770 0.929 . S
H757 C771 0.931 . S
H758 C773 0.930 . S
C759 H747 0.930 . S
C759 C760 1.399 . S
C759 C764 1.399 . S
C760 C759 1.399 . S
C760 C761 1.376 . S
C761 H748 0.930 1_545 S
C761 C760 1.376 . S
C761 C762 1.388 . S
C762 H749 0.931 1_545 S
C762 C761 1.388 . S
C762 C763 1.390 . S
C763 C762 1.390 . S
C763 C764 1.394 . S
C763 C769 1.465 . S
C764 C759 1.399 . S
C764 C763 1.394 . S
C764 C765 1.516 . S
C765 C764 1.516 . S
C765 C766 1.502 . S
C765 C767 1.561 . S
C765 C768 1.526 . S
C766 H750 0.959 . S
C766 H751 0.959 . S
C766 H752 0.961 . S
C766 C765 1.502 . S
C767 H753 0.960 . S
C767 H754 0.961 . S
C767 H755 0.959 . S
C767 C765 1.561 . S
C768 C765 1.526 . S
C768 C769 1.396 . S
C768 C773 1.390 . S
C769 C763 1.465 . S
C769 C768 1.396 . S
C769 C770 1.399 . S
C770 H756 0.929 . S
C770 C769 1.399 . S
C770 C771 1.385 . S
C771 H757 0.931 . S
C771 C770 1.385 . S
C771 C772 1.389 . S
C772 C771 1.389 . S
C772 C773 1.387 . S
C773 H758 0.930 . S
C773 C768 1.390 . S
C773 C772 1.387 . S
H774 C786 0.930 . S
H775 C788 0.930 . S
H776 C789 0.930 . S
H777 C793 0.959 . S
H778 C793 0.959 . S
H779 C793 0.961 . S
H780 C794 0.960 . S
H781 C794 0.961 . S
H782 C794 0.959 . S
H783 C797 0.929 . S
H784 C798 0.931 . S
H785 C800 0.930 . S
C786 H774 0.930 . S
C786 C787 1.399 . S
C786 C791 1.399 . S
C787 C786 1.399 . S
C787 C788 1.376 . S
C788 H775 0.930 . S
C788 C787 1.376 . S
C788 C789 1.388 . S
C789 H776 0.930 . S
C789 C788 1.388 . S
C789 C790 1.390 . S
C790 C789 1.390 . S
C790 C791 1.394 . S
C790 C796 1.465 . S
C791 C786 1.399 . S
C791 C790 1.394 . S
C791 C792 1.516 . S
C792 C791 1.516 . S
C792 C793 1.502 . S
C792 C794 1.561 . S
C792 C795 1.526 . S
C793 H777 0.959 . S
C793 H778 0.959 . S
C793 H779 0.961 . S
C793 C792 1.502 . S
C794 H780 0.960 . S
C794 H781 0.961 . S
C794 H782 0.959 . S
C794 C792 1.561 . S
C795 C792 1.526 . S
C795 C796 1.396 . S
C795 C800 1.390 . S
C796 C790 1.465 . S
C796 C795 1.396 . S
C796 C797 1.399 . S
C797 H783 0.929 . S
C797 C796 1.399 . S
C797 C798 1.385 . S
C798 H784 0.931 . S
C798 C797 1.385 . S
C798 C799 1.389 . S
C799 C798 1.389 . S
C799 C800 1.387 . S
C800 H785 0.930 . S
C800 C795 1.390 . S
C800 C799 1.387 . S
H801 C813 0.930 . S
H802 C815 0.930 . S
H803 C816 0.930 . S
H804 C820 0.959 . S
H805 C820 0.959 . S
H806 C820 0.961 . S
H807 C821 0.960 . S
H808 C821 0.961 . S
H809 C821 0.959 . S
H810 C824 0.929 . S
H811 C825 0.931 . S
H812 C827 0.930 . S
C813 H801 0.930 . S
C813 C814 1.399 . S
C813 C818 1.399 . S
C814 C813 1.399 . S
C814 C815 1.376 . S
C815 H802 0.930 . S
C815 C814 1.376 . S
C815 C816 1.388 . S
C816 H803 0.930 . S
C816 C815 1.388 . S
C816 C817 1.390 . S
C817 C816 1.390 . S
C817 C818 1.394 . S
C817 C823 1.465 . S
C818 C813 1.399 . S
C818 C817 1.394 . S
C818 C819 1.516 . S
C819 C818 1.516 . S
C819 C820 1.502 . S
C819 C821 1.561 . S
C819 C822 1.526 . S
C820 H804 0.959 . S
C820 H805 0.959 . S
C820 H806 0.961 . S
C820 C819 1.502 . S
C821 H807 0.960 . S
C821 H808 0.961 . S
C821 H809 0.959 . S
C821 C819 1.561 . S
C822 C819 1.526 . S
C822 C823 1.396 . S
C822 C827 1.390 . S
C823 C817 1.465 . S
C823 C822 1.396 . S
C823 C824 1.399 . S
C824 H810 0.929 . S
C824 C823 1.399 . S
C824 C825 1.385 . S
C825 H811 0.931 . S
C825 C824 1.385 . S
C825 C826 1.389 . S
C826 C825 1.389 . S
C826 C827 1.387 . S
C827 H812 0.930 . S
C827 C822 1.390 . S
C827 C826 1.387 . S
H828 C840 0.930 . S
H829 C842 0.930 . S
H830 C843 0.930 . S
H831 C847 0.959 . S
H832 C847 0.959 . S
H833 C847 0.961 . S
H834 C848 0.960 . S
H835 C848 0.961 . S
H836 C848 0.959 . S
H837 C851 0.929 . S
H838 C852 0.931 . S
H839 C854 0.930 . S
C840 H828 0.930 . S
C840 C841 1.399 . S
C840 C845 1.399 . S
C841 C840 1.399 . S
C841 C842 1.376 . S
C842 H829 0.930 . S
C842 C841 1.376 . S
C842 C843 1.388 . S
C843 H830 0.930 . S
C843 C842 1.388 . S
C843 C844 1.390 . S
C844 C843 1.390 . S
C844 C845 1.394 . S
C844 C850 1.465 . S
C845 C840 1.399 . S
C845 C844 1.394 . S
C845 C846 1.516 . S
C846 C845 1.516 . S
C846 C847 1.502 . S
C846 C848 1.561 . S
C846 C849 1.526 . S
C847 H831 0.959 . S
C847 H832 0.959 . S
C847 H833 0.961 . S
C847 C846 1.502 . S
C848 H834 0.960 . S
C848 H835 0.961 . S
C848 H836 0.959 . S
C848 C846 1.561 . S
C849 C846 1.526 . S
C849 C850 1.396 . S
C849 C854 1.390 . S
C850 C844 1.465 . S
C850 C849 1.396 . S
C850 C851 1.399 . S
C851 H837 0.929 . S
C851 C850 1.399 . S
C851 C852 1.385 . S
C852 H838 0.931 . S
C852 C851 1.385 . S
C852 C853 1.389 . S
C853 C852 1.389 . S
C853 C854 1.387 . S
C854 H839 0.930 . S
C854 C849 1.390 . S
C854 C853 1.387 . S
H855 C867 0.930 . S
H856 C869 0.930 . S
H857 C870 0.930 . S
H858 C874 0.959 . S
H859 C874 0.959 . S
H860 C874 0.961 . S
H861 C875 0.960 . S
H862 C875 0.961 . S
H863 C875 0.959 . S
H864 C878 0.929 . S
H865 C879 0.931 . S
H866 C881 0.930 . S
C867 H855 0.930 . S
C867 C868 1.399 . S
C867 C872 1.399 1_565 S
C868 C867 1.399 . S
C868 C869 1.376 . S
C869 H856 0.930 . S
C869 C868 1.376 . S
C869 C870 1.388 . S
C870 H857 0.930 . S
C870 C869 1.388 . S
C870 C871 1.390 . S
C871 C870 1.390 . S
C871 C872 1.394 1_565 S
C871 C877 1.465 1_565 S
C872 C867 1.399 1_545 S
C872 C871 1.394 1_545 S
C872 C873 1.516 . S
C873 C872 1.516 . S
C873 C874 1.502 . S
C873 C875 1.561 . S
C873 C876 1.526 . S
C874 H858 0.959 . S
C874 H859 0.959 . S
C874 H860 0.961 . S
C874 C873 1.502 . S
C875 H861 0.960 . S
C875 H862 0.961 . S
C875 H863 0.959 . S
C875 C873 1.561 . S
C876 C873 1.526 . S
C876 C877 1.396 . S
C876 C881 1.390 . S
C877 C871 1.465 1_545 S
C877 C876 1.396 . S
C877 C878 1.399 . S
C878 H864 0.929 . S
C878 C877 1.399 . S
C878 C879 1.385 . S
C879 H865 0.931 . S
C879 C878 1.385 . S
C879 C880 1.389 . S
C880 C879 1.389 . S
C880 C881 1.387 . S
C881 H866 0.930 . S
C881 C876 1.390 . S
C881 C880 1.387 . S
H882 C894 0.930 . S
H883 C896 0.930 . S
H884 C897 0.930 . S
H885 C901 0.959 . S
H886 C901 0.959 . S
H887 C901 0.961 . S
H888 C902 0.960 . S
H889 C902 0.961 . S
H890 C902 0.959 . S
H891 C905 0.929 . S
H892 C906 0.931 . S
H893 C908 0.930 . S
C894 H882 0.930 . S
C894 C895 1.399 . S
C894 C899 1.399 . S
C895 C894 1.399 . S
C895 C896 1.376 . S
C896 H883 0.930 . S
C896 C895 1.376 . S
C896 C897 1.388 . S
C897 H884 0.930 . S
C897 C896 1.388 . S
C897 C898 1.390 . S
C898 C897 1.390 . S
C898 C899 1.394 . S
C898 C904 1.465 1_655 S
C899 C894 1.399 . S
C899 C898 1.394 . S
C899 C900 1.516 1_655 S
C900 C899 1.516 1_455 S
C900 C901 1.502 . S
C900 C902 1.561 1_455 S
C900 C903 1.526 . S
C901 H885 0.959 . S
C901 H886 0.959 . S
C901 H887 0.961 . S
C901 C900 1.502 . S
C902 H888 0.960 . S
C902 H889 0.961 . S
C902 H890 0.959 . S
C902 C900 1.561 1_655 S
C903 C900 1.526 . S
C903 C904 1.396 . S
C903 C908 1.390 . S
C904 C898 1.465 1_455 S
C904 C903 1.396 . S
C904 C905 1.399 . S
C905 H891 0.929 . S
C905 C904 1.399 . S
C905 C906 1.385 . S
C906 H892 0.931 . S
C906 C905 1.385 . S
C906 C907 1.389 . S
C907 C906 1.389 . S
C907 C908 1.387 . S
C908 H893 0.930 . S
C908 C903 1.390 . S
C908 C907 1.387 . S
C193 C28 1.692 . S
C205 C19 1.832 . S
C220 C46 0.755 . S
C232 C36 0.829 . S
C247 C59 1.540 . S
C259 C6 1.463 . S
C274 C56 1.070 . S
C286 C26 0.985 . S
C301 C48 1.197 1_556 S
C313 C16 1.332 . S
C328 C8 1.925 . S
C340 C39 2.056 . S
C355 C79 1.082 . S
C367 C86 1.072 . S
C382 C106 1.538 . S
C394 C99 1.603 1_545 S
C409 C119 1.646 . S
C421 C66 1.566 . S
C436 C88 1.664 . S
C448 C116 1.847 . S
C463 C108 1.173 . S
C475 C76 1.267 . S
C490 C96 1.312 . S
C502 C68 1.120 . S
C517 C148 1.743 . S
C529 C139 1.824 . S
C544 C156 0.833 . S
C556 C166 0.799 . S
C571 C179 1.532 . S
C583 C126 1.442 . S
C598 C176 1.045 . S
C610 C146 1.012 . S
C625 C168 1.255 . S
C637 C136 1.340 1_565 S
C652 C128 1.865 . S
C664 C159 2.044 1_455 S
C679 C109 2.132 . S
C691 C1 2.192 . S
C706 C69 2.225 . S
C718 C29 2.289 . S
C733 C41 2.221 . S
C745 C89 2.087 . S
C760 C49 2.174 . S
C772 C121 2.186 . S
C787 C9 2.237 . S
C799 C149 2.218 . S
C814 C161 2.153 . S
C826 C21 2.173 . S
C841 C61 2.221 . S
C853 C169 2.169 . S
C868 C81 2.272 . S
C880 C129 2.165 . S
C895 C141 2.093 . S
C907 C101 2.094 . S
