# Generated by pormake.
# Topology umc, (4)-cn, num edge types: 1
# Building blocks:
#     Node 0, Type 0, BuildingBlock: MUDLON_clean_sbu_0, # of connection points: 4
#     Node 1, Type 0, BuildingBlock: MUDLON_clean_sbu_0, # of connection points: 4
#     Node 2, Type 0, BuildingBlock: MUDLON_clean_sbu_0, # of connection points: 4
#     Node 3, Type 0, BuildingBlock: MUDLON_clean_sbu_0, # of connection points: 4
#     Node 4, Type 0, BuildingBlock: MUDLON_clean_sbu_0, # of connection points: 4
#     Node 5, Type 0, BuildingBlock: MUDLON_clean_sbu_0, # of connection points: 4
#     Node 6, Type 0, BuildingBlock: MUDLON_clean_sbu_0, # of connection points: 4
#     Node 7, Type 0, BuildingBlock: MUDLON_clean_sbu_0, # of connection points: 4
#     Node 8, Type 0, BuildingBlock: MUDLON_clean_sbu_0, # of connection points: 4
#     Node 9, Type 0, BuildingBlock: MUDLON_clean_sbu_0, # of connection points: 4
#     Node 10, Type 0, BuildingBlock: MUDLON_clean_sbu_0, # of connection points: 4
#     Node 11, Type 0, BuildingBlock: MUDLON_clean_sbu_0, # of connection points: 4
#     Node 12, Type 0, BuildingBlock: MUDLON_clean_sbu_0, # of connection points: 4
#     Node 13, Type 0, BuildingBlock: MUDLON_clean_sbu_0, # of connection points: 4
#     Node 14, Type 0, BuildingBlock: MUDLON_clean_sbu_0, # of connection points: 4
#     Node 15, Type 0, BuildingBlock: MUDLON_clean_sbu_0, # of connection points: 4
#     Edge 16, Type (0, 0), BuildingBlock: XIVTED_clean_linker_0, # of connection points: 2
#     Edge 17, Type (0, 0), BuildingBlock: XIVTED_clean_linker_0, # of connection points: 2
#     Edge 18, Type (0, 0), BuildingBlock: XIVTED_clean_linker_0, # of connection points: 2
#     Edge 19, Type (0, 0), BuildingBlock: XIVTED_clean_linker_0, # of connection points: 2
#     Edge 20, Type (0, 0), BuildingBlock: XIVTED_clean_linker_0, # of connection points: 2
#     Edge 21, Type (0, 0), BuildingBlock: XIVTED_clean_linker_0, # of connection points: 2
#     Edge 22, Type (0, 0), BuildingBlock: XIVTED_clean_linker_0, # of connection points: 2
#     Edge 23, Type (0, 0), BuildingBlock: XIVTED_clean_linker_0, # of connection points: 2
#     Edge 24, Type (0, 0), BuildingBlock: XIVTED_clean_linker_0, # of connection points: 2
#     Edge 25, Type (0, 0), BuildingBlock: XIVTED_clean_linker_0, # of connection points: 2
#     Edge 26, Type (0, 0), BuildingBlock: XIVTED_clean_linker_0, # of connection points: 2
#     Edge 27, Type (0, 0), BuildingBlock: XIVTED_clean_linker_0, # of connection points: 2
#     Edge 28, Type (0, 0), BuildingBlock: XIVTED_clean_linker_0, # of connection points: 2
#     Edge 29, Type (0, 0), BuildingBlock: XIVTED_clean_linker_0, # of connection points: 2
#     Edge 30, Type (0, 0), BuildingBlock: XIVTED_clean_linker_0, # of connection points: 2
#     Edge 31, Type (0, 0), BuildingBlock: XIVTED_clean_linker_0, # of connection points: 2
#     Edge 32, Type (0, 0), BuildingBlock: XIVTED_clean_linker_0, # of connection points: 2
#     Edge 33, Type (0, 0), BuildingBlock: XIVTED_clean_linker_0, # of connection points: 2
#     Edge 34, Type (0, 0), BuildingBlock: XIVTED_clean_linker_0, # of connection points: 2
#     Edge 35, Type (0, 0), BuildingBlock: XIVTED_clean_linker_0, # of connection points: 2
#     Edge 36, Type (0, 0), BuildingBlock: XIVTED_clean_linker_0, # of connection points: 2
#     Edge 37, Type (0, 0), BuildingBlock: XIVTED_clean_linker_0, # of connection points: 2
#     Edge 38, Type (0, 0), BuildingBlock: XIVTED_clean_linker_0, # of connection points: 2
#     Edge 39, Type (0, 0), BuildingBlock: XIVTED_clean_linker_0, # of connection points: 2
#     Edge 40, Type (0, 0), BuildingBlock: XIVTED_clean_linker_0, # of connection points: 2
#     Edge 41, Type (0, 0), BuildingBlock: XIVTED_clean_linker_0, # of connection points: 2
#     Edge 42, Type (0, 0), BuildingBlock: XIVTED_clean_linker_0, # of connection points: 2
#     Edge 43, Type (0, 0), BuildingBlock: XIVTED_clean_linker_0, # of connection points: 2
#     Edge 44, Type (0, 0), BuildingBlock: XIVTED_clean_linker_0, # of connection points: 2
#     Edge 45, Type (0, 0), BuildingBlock: XIVTED_clean_linker_0, # of connection points: 2
#     Edge 46, Type (0, 0), BuildingBlock: XIVTED_clean_linker_0, # of connection points: 2
#     Edge 47, Type (0, 0), BuildingBlock: XIVTED_clean_linker_0, # of connection points: 2
# Relax obj value: 0.000
# Max RMSD: 0.076
# Mean RMSD: 0.076
data_MOF--net-umc--node1-MUDLON_clean_sbu_0--edge1-XIVTED_clean_linker_0
_symmetry_space_group_name_H-M    P1
_symmetry_Int_Tables_number       1
_symmetry_cell_setting            triclinic
loop_
_symmetry_equiv_pos_as_xyz
'x, y, z'
_cell_length_a     59.036851
_cell_length_b     14.983999
_cell_length_c     60.601562
_cell_angle_alpha  90.054427
_cell_angle_beta   89.934131
_cell_angle_gamma 89.989356
loop_
_atom_site_label
_atom_site_type_symbol
_atom_site_fract_x
_atom_site_fract_y
_atom_site_fract_z
_atom_type_partial_charge
Mg0 Mg 0.38153 0.98419 0.39572 0.0
C1 C 0.39073 0.86468 0.43549 0.0
O2 O 0.41169 0.88741 0.43096 0.0
C3 C 0.37711 0.01252 0.34861 0.0
O4 O 0.38022 0.09172 0.35744 0.0
C5 C 0.33581 0.05175 0.40161 0.0
O6 O 0.33387 0.9649 0.39921 0.0
O7 O 0.35559 0.08579 0.4012 0.0
O8 O 0.37504 0.88812 0.42229 0.0
O9 O 0.41716 0.0241 0.39722 0.0
C10 C 0.43064 0.96494 0.38969 0.0
O11 O 0.422 0.89067 0.38179 0.0
O12 O 0.37637 0.94503 0.36139 0.0
Mg13 Mg 0.64945 -0.00258 0.396 0.0
C14 C 0.64065 0.1093 0.43712 0.0
O15 O 0.62 0.08036 0.43354 0.0
C16 C 0.65429 0.96876 0.34898 0.0
O17 O 0.6518 0.8896 0.35798 0.0
C18 C 0.69521 0.93056 0.40125 0.0
O19 O 0.69695 0.01755 0.39907 0.0
O20 O 0.67549 0.89595 0.40102 0.0
O21 O 0.65601 0.09227 0.42292 0.0
O22 O 0.61382 0.95754 0.39738 0.0
C23 C 0.60039 0.0188 0.39094 0.0
O24 O 0.60909 0.09487 0.38426 0.0
O25 O 0.65447 0.03684 0.36163 0.0
Mg26 Mg 0.38161 -0.006 0.13581 0.0
C27 C 0.37131 0.05116 0.09071 0.0
O28 O 0.36776 0.96466 0.09073 0.0
C29 C 0.37825 0.97047 0.18295 0.0
O30 O 0.38044 0.89053 0.17426 0.0
C31 C 0.33497 0.93243 0.12844 0.0
O32 O 0.33377 0.01976 0.12691 0.0
O33 O 0.35417 0.89647 0.13214 0.0
O34 O 0.3775 0.08892 0.10856 0.0
O35 O 0.41691 0.95105 0.13309 0.0
C36 C 0.43047 0.01732 0.13328 0.0
O37 O 0.42183 0.09796 0.13477 0.0
O38 O 0.37802 0.03753 0.17002 0.0
Mg39 Mg 0.64943 0.98564 0.13615 0.0
C40 C 0.67005 0.88715 0.09664 0.0
O41 O 0.68767 0.93647 0.1017 0.0
C42 C 0.65127 0.01424 0.18336 0.0
O43 O 0.64808 0.09285 0.17428 0.0
C44 C 0.6951 0.06192 0.13954 0.0
O45 O 0.69637 0.98465 0.1497 0.0
O46 O 0.67608 0.08561 0.1315 0.0
O47 O 0.653 0.88712 0.10955 0.0
O48 O 0.61405 0.02744 0.13325 0.0
C49 C 0.60052 0.96128 0.13438 0.0
O50 O 0.60917 0.88112 0.13691 0.0
O51 O 0.6527 0.94632 0.17074 0.0
Mg52 Mg 0.65203 0.00109 0.63629 0.0
C53 C 0.67181 0.09407 0.59561 0.0
O54 O 0.68894 0.04107 0.5999 0.0
C55 C 0.65384 0.97558 0.68353 0.0
O56 O 0.65103 0.89633 0.67463 0.0
C57 C 0.69802 0.92909 0.63939 0.0
O58 O 0.6994 0.01034 0.64747 0.0
O59 O 0.67882 0.90135 0.63264 0.0
O60 O 0.6554 0.09782 0.60926 0.0
O61 O 0.61692 0.95685 0.63341 0.0
C62 C 0.60312 0.02225 0.63409 0.0
O63 O 0.61142 0.10317 0.63623 0.0
O64 O 0.65502 0.04296 0.67073 0.0
Mg65 Mg 0.38448 0.97835 0.63431 0.0
C66 C 0.36367 0.8822 0.59456 0.0
O67 O 0.34632 0.93318 0.59948 0.0
C68 C 0.38267 0.00505 0.68137 0.0
O69 O 0.38603 0.08366 0.67234 0.0
C70 C 0.33889 0.05424 0.63776 0.0
O71 O 0.33714 0.97365 0.64614 0.0
O72 O 0.35815 0.07989 0.63066 0.0
O73 O 0.38068 0.88103 0.60748 0.0
O74 O 0.41975 0.02086 0.63157 0.0
C75 C 0.43346 0.95521 0.6323 0.0
O76 O 0.42506 0.87439 0.63425 0.0
O77 O 0.38116 0.9373 0.66871 0.0
Mg78 Mg 0.65107 0.98528 0.89637 0.0
C79 C 0.64189 0.87305 0.93741 0.0
O80 O 0.6211 0.89901 0.93323 0.0
C81 C 0.65537 0.01184 0.84932 0.0
O82 O 0.65214 0.09096 0.85816 0.0
C83 C 0.69623 0.05834 0.90453 0.0
O84 O 0.69872 0.97148 0.90622 0.0
O85 O 0.67648 0.08934 0.90091 0.0
O86 O 0.6575 0.89204 0.92365 0.0
O87 O 0.61551 0.02539 0.89749 0.0
C88 C 0.60201 0.96482 0.89079 0.0
O89 O 0.61059 0.88862 0.884 0.0
O90 O 0.65625 0.94439 0.86211 0.0
Mg91 Mg 0.3834 0.00705 0.89403 0.0
C92 C 0.39152 0.13083 0.93359 0.0
O93 O 0.41284 0.11602 0.92862 0.0
C94 C 0.3793 0.97679 0.84709 0.0
O95 O 0.3822 0.89808 0.85621 0.0
C96 C 0.33824 0.9337 0.90217 0.0
O97 O 0.33557 0.02068 0.9031 0.0
O98 O 0.35808 0.90278 0.89896 0.0
O99 O 0.37618 0.10214 0.92064 0.0
O100 O 0.41896 0.96801 0.89616 0.0
C101 C 0.43258 0.02652 0.88863 0.0
O102 O 0.42415 0.10045 0.88037 0.0
O103 O 0.37859 0.04513 0.85962 0.0
Mg104 Mg 0.88308 0.4932 0.39623 0.0
C105 C 0.89 0.35081 0.43316 0.0
O106 O 0.91054 0.34191 0.42508 0.0
C107 C 0.87808 0.52123 0.34911 0.0
O108 O 0.88089 0.60052 0.35799 0.0
C109 C 0.83739 0.56077 0.40072 0.0
O110 O 0.83566 0.474 0.39801 0.0
O111 O 0.85713 0.59521 0.40109 0.0
O112 O 0.87573 0.39941 0.423 0.0
O113 O 0.91872 0.53346 0.39748 0.0
C114 C 0.93118 0.53482 0.41462 0.0
O115 O 0.92192 0.5223 0.43409 0.0
O116 O 0.87789 0.45349 0.36185 0.0
Mg117 Mg 0.14917 0.49652 0.39997 0.0
C118 C 0.14172 0.62325 0.43856 0.0
O119 O 0.12045 0.60728 0.43362 0.0
C120 C 0.15473 0.46266 0.35276 0.0
O121 O 0.15261 0.38355 0.36187 0.0
C122 C 0.19458 0.42681 0.40487 0.0
O123 O 0.19658 0.51329 0.40184 0.0
O124 O 0.17472 0.39342 0.40546 0.0
O125 O 0.15714 0.59415 0.42572 0.0
O126 O 0.11322 0.46252 0.40383 0.0
C127 C 0.09977 0.50483 0.39114 0.0
O128 O 0.10844 0.55836 0.3762 0.0
O129 O 0.15431 0.53119 0.36525 0.0
Mg130 Mg 0.88306 0.49656 0.13653 0.0
C131 C 0.89193 0.59872 0.09418 0.0
O132 O 0.91192 0.56255 0.09726 0.0
C133 C 0.87791 0.47017 0.18354 0.0
O134 O 0.8814 0.39112 0.17476 0.0
C135 C 0.8381 0.42264 0.1279 0.0
O136 O 0.83562 0.50951 0.12619 0.0
O137 O 0.85783 0.39172 0.13172 0.0
O138 O 0.87682 0.58918 0.10904 0.0
O139 O 0.91889 0.4593 0.13605 0.0
C140 C 0.93197 0.52324 0.14155 0.0
O141 O 0.92284 0.60039 0.14681 0.0
O142 O 0.8772 0.53759 0.17072 0.0
Mg143 Mg 0.15076 0.48778 0.14011 0.0
C144 C 0.14387 0.37559 0.09865 0.0
O145 O 0.12261 0.39287 0.10331 0.0
C146 C 0.15266 0.51035 0.1872 0.0
O147 O 0.14788 0.58839 0.17848 0.0
C148 C 0.18545 0.61722 0.12013 0.0
O149 O 0.17828 0.58396 0.10133 0.0
O150 O 0.1756 0.595 0.13797 0.0
O151 O 0.15914 0.39955 0.11228 0.0
O152 O 0.11489 0.52376 0.13816 0.0
C153 C 0.10162 0.46248 0.14494 0.0
O154 O 0.11055 0.38794 0.15233 0.0
O155 O 0.15527 0.44397 0.17424 0.0
Mg156 Mg 0.15205 0.50287 0.63787 0.0
C157 C 0.17187 0.59663 0.59735 0.0
O158 O 0.18886 0.54271 0.60146 0.0
C159 C 0.15388 0.47566 0.68518 0.0
O160 O 0.1515 0.39636 0.67619 0.0
C161 C 0.19788 0.42791 0.64043 0.0
O162 O 0.19979 0.50868 0.6487 0.0
O163 O 0.17847 0.40194 0.63385 0.0
O164 O 0.15552 0.60061 0.61106 0.0
O165 O 0.11693 0.45961 0.63472 0.0
C166 C 0.10323 0.52529 0.63551 0.0
O167 O 0.11163 0.60592 0.63795 0.0
O168 O 0.15489 0.54331 0.67245 0.0
Mg169 Mg 0.88485 0.48164 0.63458 0.0
C170 C 0.86527 0.3921 0.59344 0.0
O171 O 0.84854 0.44706 0.59778 0.0
C172 C 0.88333 0.50786 0.68176 0.0
O173 O 0.88604 0.58671 0.67265 0.0
C174 C 0.83886 0.55346 0.63789 0.0
O175 O 0.83742 0.47148 0.64546 0.0
O176 O 0.85809 0.58175 0.63136 0.0
O177 O 0.88155 0.38601 0.60715 0.0
O178 O 0.91992 0.52599 0.63189 0.0
C179 C 0.93364 0.46033 0.6324 0.0
O180 O 0.92523 0.37941 0.63412 0.0
O181 O 0.88203 0.43994 0.6691 0.0
Mg182 Mg 0.15129 0.48561 0.89839 0.0
C183 C 0.17221 0.3954 0.93879 0.0
O184 O 0.18923 0.44777 0.93365 0.0
C185 C 0.15246 0.5108 0.8511 0.0
O186 O 0.14911 0.58973 0.86 0.0
C187 C 0.19657 0.56386 0.89415 0.0
O188 O 0.19808 0.48513 0.88468 0.0
O189 O 0.17749 0.58773 0.90209 0.0
O190 O 0.1554 0.39047 0.92567 0.0
O191 O 0.11587 0.52613 0.9012 0.0
C192 C 0.10258 0.4591 0.90073 0.0
O193 O 0.11152 0.37905 0.899 0.0
O194 O 0.15433 0.44371 0.86391 0.0
Mg195 Mg 0.88422 0.49775 0.89493 0.0
C196 C 0.86391 0.59255 0.93508 0.0
O197 O 0.84687 0.5392 0.93071 0.0
C198 C 0.88279 0.46714 0.84766 0.0
O199 O 0.88547 0.38862 0.85695 0.0
C200 C 0.83871 0.42091 0.89168 0.0
O201 O 0.8373 0.49848 0.88167 0.0
O202 O 0.85779 0.39722 0.89955 0.0
O203 O 0.88038 0.5965 0.9215 0.0
O204 O 0.91953 0.45657 0.89837 0.0
C205 C 0.93288 0.52337 0.89762 0.0
O206 O 0.92405 0.60322 0.89509 0.0
O207 O 0.88143 0.53556 0.86014 0.0
H208 H 0.41995 0.80061 0.46668 0.0
H209 H 0.33044 0.86991 0.56325 0.0
H210 H 0.34905 0.85471 0.4557 0.0
H211 H 0.40105 0.80985 0.57412 0.0
H212 H 0.33546 0.83729 0.52408 0.0
H213 H 0.41194 0.77635 0.50573 0.0
C214 C 0.4026 0.8058 0.47239 0.0
C215 C 0.38521 0.83113 0.45789 0.0
C216 C 0.34979 0.82979 0.53506 0.0
C217 C 0.37595 0.80458 0.5028 0.0
C218 C 0.34692 0.84825 0.55749 0.0
C219 C 0.36543 0.84405 0.572 0.0
C220 C 0.37137 0.80763 0.52697 0.0
C221 C 0.38633 0.81477 0.56356 0.0
C222 C 0.39805 0.79208 0.49475 0.0
C223 C 0.36304 0.83598 0.46626 0.0
N224 N 0.38881 0.79914 0.54156 0.0
N225 N 0.35912 0.82436 0.48821 0.0
H226 H 0.7041 0.1046 0.56328 0.0
H227 H 0.61191 0.16885 0.46929 0.0
H228 H 0.63393 0.16648 0.5762 0.0
H229 H 0.68283 0.12343 0.45612 0.0
H230 H 0.62083 0.19321 0.50814 0.0
H231 H 0.69797 0.13613 0.52423 0.0
C232 C 0.68748 0.12645 0.55799 0.0
C233 C 0.66942 0.13158 0.57306 0.0
C234 C 0.63453 0.1794 0.49673 0.0
C235 C 0.6622 0.16665 0.52815 0.0
C236 C 0.62944 0.16562 0.47449 0.0
C237 C 0.6466 0.14285 0.45943 0.0
C238 C 0.65692 0.16936 0.50412 0.0
C239 C 0.66902 0.14035 0.46713 0.0
C240 C 0.68398 0.14429 0.53563 0.0
C241 C 0.64833 0.16096 0.5652 0.0
N242 N 0.67348 0.15185 0.48899 0.0
N243 N 0.64521 0.17592 0.54326 0.0
H244 H 0.33915 0.03073 0.05945 0.0
H245 H 0.41955 0.19948 0.96541 0.0
H246 H 0.40036 0.1764 0.07355 0.0
H247 H 0.35004 0.12332 0.95402 0.0
H248 H 0.41148 0.2104 1.0049 0.0
H249 H 0.3409 0.08167 0.02127 0.0
C250 C 0.3527 0.07534 0.05454 0.0
C251 C 0.36968 0.09928 0.06956 0.0
C252 C 0.39787 0.19323 0.99372 0.0
C253 C 0.37227 0.15564 0.02565 0.0
C254 C 0.40246 0.18697 0.97113 0.0
C255 C 0.38556 0.15881 0.95637 0.0
C256 C 0.37631 0.1699 1.00166 0.0
C257 C 0.36368 0.1443 0.96476 0.0
C258 C 0.35372 0.10438 0.03273 0.0
C259 C 0.38689 0.15692 0.06243 0.0
N260 N 0.35982 0.14823 0.98686 0.0
N261 N 0.38805 0.18161 0.04081 0.0
H262 H 0.6127 0.81199 0.96899 0.0
H263 H 0.70303 0.87591 0.06493 0.0
H264 H 0.68369 0.86178 0.9573 0.0
H265 H 0.63243 0.8168 0.0763 0.0
H266 H 0.69766 0.84533 0.0257 0.0
H267 H 0.62089 0.78784 1.00799 0.0
C268 C 0.6301 0.8163 0.97455 0.0
C269 C 0.64748 0.84018 0.95985 0.0
C270 C 0.68341 0.8376 0.0368 0.0
C271 C 0.65696 0.81381 1.00472 0.0
C272 C 0.68647 0.85487 0.05927 0.0
C273 C 0.66808 0.85028 0.07396 0.0
C274 C 0.66174 0.81621 0.02885 0.0
C275 C 0.64708 0.82196 0.06562 0.0
C276 C 0.63476 0.80264 0.99688 0.0
C277 C 0.66972 0.84401 0.96801 0.0
N278 N 0.64441 0.80742 0.0436 0.0
N279 N 0.67376 0.83249 0.98995 0.0
H280 H 0.83208 0.37838 0.5623 0.0
H281 H 0.91955 0.2862 0.46437 0.0
H282 H 0.90281 0.3203 0.57293 0.0
H283 H 0.84931 0.35632 0.45497 0.0
H284 H 0.91245 0.27118 0.50401 0.0
H285 H 0.83679 0.34299 0.52329 0.0
C286 C 0.84855 0.35671 0.55651 0.0
C287 C 0.86713 0.3534 0.57093 0.0
C288 C 0.89852 0.28845 0.49322 0.0
C289 C 0.87276 0.31389 0.52598 0.0
C290 C 0.90252 0.29661 0.47053 0.0
C291 C 0.88507 0.32368 0.45627 0.0
C292 C 0.87689 0.30745 0.50175 0.0
C293 C 0.86337 0.33627 0.4653 0.0
C294 C 0.85125 0.3367 0.53416 0.0
C295 C 0.88802 0.32416 0.56244 0.0
N296 N 0.85998 0.32907 0.48742 0.0
N297 N 0.89035 0.30685 0.54046 0.0
H298 H 0.20432 0.6089 0.56525 0.0
H299 H 0.11305 0.68574 0.47065 0.0
H300 H 0.13406 0.66986 0.57796 0.0
H301 H 0.18365 0.62983 0.45823 0.0
H302 H 0.12172 0.70662 0.50971 0.0
H303 H 0.19844 0.64274 0.52629 0.0
C304 C 0.18773 0.63099 0.55993 0.0
C305 C 0.16958 0.63528 0.57491 0.0
C306 C 0.1354 0.69121 0.49841 0.0
C307 C 0.16264 0.67301 0.53009 0.0
C308 C 0.13047 0.67948 0.47603 0.0
C309 C 0.14758 0.65462 0.46111 0.0
C310 C 0.15759 0.67741 0.50602 0.0
C311 C 0.16985 0.64816 0.46911 0.0
C312 C 0.18437 0.65014 0.53762 0.0
C313 C 0.14852 0.66505 0.56702 0.0
N314 N 0.17414 0.65807 0.49104 0.0
N315 N 0.14555 0.68134 0.54511 0.0
H316 H 0.90147 0.66849 0.95428 0.0
H317 H 0.84973 0.62294 0.07583 0.0
H318 H 0.83194 0.59832 0.96785 0.0
H319 H 0.921 0.65006 0.06153 0.0
H320 H 0.84138 0.6494 0.03675 0.0
H321 H 0.90709 0.69793 0.9936 0.0
C322 C 0.88723 0.66112 0.96542 0.0
C323 C 0.86628 0.62948 0.95773 0.0
C324 C 0.85882 0.65106 0.04225 0.0
C325 C 0.87269 0.66218 1.0029 0.0
C326 C 0.86359 0.63653 0.0646 0.0
C327 C 0.88613 0.6331 0.07193 0.0
C328 C 0.87671 0.66259 0.02716 0.0
C329 C 0.90339 0.65093 0.05657 0.0
C330 C 0.8905 0.67746 0.98793 0.0
C331 C 0.84847 0.62143 0.97303 0.0
N332 N 0.89835 0.66388 0.03493 0.0
N333 N 0.85216 0.63646 0.99487 0.0
H334 H 0.1157 0.3085 0.06694 0.0
H335 H 0.20508 0.3924 0.97062 0.0
H336 H 0.18563 0.37817 0.07837 0.0
H337 H 0.13528 0.32011 0.95936 0.0
H338 H 0.19994 0.36281 1.00992 0.0
H339 H 0.12417 0.28791 0.02784 0.0
C340 C 0.13295 0.31804 0.06131 0.0
C341 C 0.14991 0.34619 0.07598 0.0
C342 C 0.18582 0.35207 0.99883 0.0
C343 C 0.15969 0.32376 0.03099 0.0
C344 C 0.18876 0.36876 0.97632 0.0
C345 C 0.1705 0.35995 0.96163 0.0
C346 C 0.16442 0.32693 1.00683 0.0
C347 C 0.14981 0.32843 0.97004 0.0
C348 C 0.13776 0.30641 0.03891 0.0
C349 C 0.17198 0.35683 0.06769 0.0
N350 N 0.14725 0.31438 0.9921 0.0
N351 N 0.17614 0.3469 0.04571 0.0
H352 H 0.5754 0.8649 0.39612 0.0
H353 H 0.45553 0.11687 0.39798 0.0
H354 H 0.56846 0.14975 0.3881 0.0
H355 H 0.46265 0.83546 0.38438 0.0
H356 H 0.49699 0.1296 0.39936 0.0
H357 H 0.53393 0.8519 0.39683 0.0
C358 C 0.56519 0.92461 0.39459 0.0
C359 C 0.57542 0.0084 0.39192 0.0
C360 C 0.48942 0.06512 0.39608 0.0
C361 C 0.52807 -0.00576 0.39291 0.0
C362 C 0.46578 0.05784 0.39534 0.0
C363 C 0.4556 0.97515 0.39093 0.0
C364 C 0.50293 0.98895 0.3927 0.0
C365 C 0.46974 0.90076 0.38767 0.0
C366 C 0.54154 0.91719 0.39493 0.0
C367 C 0.56133 0.08365 0.39001 0.0
N368 N 0.49263 0.90935 0.38868 0.0
N369 N 0.53843 0.07483 0.39061 0.0
H370 H 0.45552 0.86168 0.13264 0.0
H371 H 0.57547 0.11641 0.1314 0.0
H372 H 0.46252 0.1484 0.13189 0.0
H373 H 0.56847 0.83 0.13473 0.0
H374 H 0.53406 0.12955 0.13028 0.0
H375 H 0.49693 0.84828 0.1321 0.0
C376 C 0.46572 0.92173 0.1323 0.0
C377 C 0.45547 0.00621 0.13236 0.0
C378 C 0.54162 0.06382 0.13122 0.0
C379 C 0.5029 0.99156 0.13176 0.0
C380 C 0.56527 0.05636 0.13184 0.0
C381 C 0.57552 0.97206 0.13321 0.0
C382 C 0.52811 0.98643 0.13194 0.0
C383 C 0.56139 0.8965 0.13374 0.0
C384 C 0.48938 0.91413 0.13201 0.0
C385 C 0.46961 0.08177 0.13191 0.0
N386 N 0.53849 0.90548 0.13313 0.0
N387 N 0.49251 0.07265 0.13166 0.0
H388 H 0.57882 0.86522 0.63178 0.0
H389 H 0.45786 0.11205 0.63082 0.0
H390 H 0.57053 0.15137 0.63352 0.0
H391 H 0.46601 0.8258 0.63192 0.0
H392 H 0.49919 0.12798 0.63042 0.0
H393 H 0.5375 0.84913 0.63047 0.0
C394 C 0.56835 0.92459 0.63183 0.0
C395 C 0.57821 0.0097 0.63282 0.0
C396 C 0.49191 0.06167 0.63071 0.0
C397 C 0.5309 0.99194 0.63132 0.0
C398 C 0.4683 0.05262 0.63091 0.0
C399 C 0.4584 0.96754 0.63146 0.0
C400 C 0.50574 0.9851 0.63102 0.0
C401 C 0.47283 0.89283 0.63157 0.0
C402 C 0.54475 0.91544 0.6311 0.0
C403 C 0.56375 0.08432 0.63284 0.0
N404 N 0.4957 0.90336 0.63138 0.0
N405 N 0.5409 0.0737 0.63213 0.0
H406 H 0.5775 0.11974 0.89604 0.0
H407 H 0.45695 0.87383 0.89724 0.0
H408 H 0.56974 0.83539 0.88753 0.0
H409 H 0.46495 0.1546 0.88344 0.0
H410 H 0.49834 0.85916 0.89884 0.0
H411 H 0.53608 0.13478 0.89657 0.0
C412 C 0.56711 0.06056 0.89436 0.0
C413 C 0.5771 0.97632 0.89161 0.0
C414 C 0.49098 0.92393 0.89548 0.0
C415 C 0.52982 0.99281 0.8924 0.0
C416 C 0.46739 0.93233 0.89462 0.0
C417 C 0.45748 0.01539 0.89008 0.0
C418 C 0.50472 -0.00062 0.89209 0.0
C419 C 0.47184 0.08907 0.88682 0.0
C420 C 0.5435 0.06915 0.8946 0.0
C421 C 0.5628 0.90179 0.88951 0.0
N422 N 0.49469 0.0794 0.88796 0.0
N423 N 0.53993 0.91173 0.89001 0.0
H424 H 0.96356 0.49995 0.44602 0.0
H425 H 0.06749 0.56198 0.36241 0.0
H426 H 0.95596 0.57089 0.37742 0.0
H427 H 0.0752 0.44502 0.427 0.0
H428 H 0.02677 0.5719 0.36848 0.0
H429 H 1.00459 0.48877 0.44048 0.0
C430 C 0.9705 0.51415 0.42986 0.0
C431 C 0.95622 0.53652 0.41216 0.0
C432 C 0.03729 0.5436 0.38132 0.0
C433 C 1.00321 0.523 0.40569 0.0
C434 C 0.0606 0.53776 0.37786 0.0
C435 C 0.07484 0.50252 0.39421 0.0
C436 C 0.02798 0.51481 0.40142 0.0
C437 C 0.06486 0.47215 0.41388 0.0
C438 C 0.99393 0.50705 0.42668 0.0
C439 C 0.96624 0.55342 0.39155 0.0
N440 N 0.04205 0.47953 0.417 0.0
N441 N 0.98904 0.5463 0.38891 0.0
H442 H 0.07007 0.33114 0.15004 0.0
H443 H 0.96338 0.65636 0.14388 0.0
H444 H 0.07614 0.61311 0.13682 0.0
H445 H 0.95766 0.3701 0.13829 0.0
H446 H 1.00456 0.64232 0.14379 0.0
H447 H 0.02893 0.3448 0.14829 0.0
C448 C 0.06276 0.39612 0.14678 0.0
C449 C 0.07663 0.47125 0.14363 0.0
C450 C 0.99433 0.58257 0.1425 0.0
C451 C 0.02935 0.48721 0.14169 0.0
C452 C 0.97077 0.59037 0.14264 0.0
C453 C 0.95699 0.51415 0.14115 0.0
C454 C 1.0043 0.49779 0.14114 0.0
C455 C 0.9676 0.4306 0.13946 0.0
C456 C 0.03923 0.40367 0.1457 0.0
C457 C 0.06613 0.55346 0.13935 0.0
N458 N 0.99063 0.42461 0.13964 0.0
N459 N 0.04311 0.55935 0.13864 0.0
H460 H 0.95808 0.61716 0.6317 0.0
H461 H 0.07883 0.36891 0.63232 0.0
H462 H 0.96611 0.3308 0.63146 0.0
H463 H 0.07079 0.65503 0.63526 0.0
H464 H 0.03752 0.35353 0.63059 0.0
H465 H 0.99943 0.6328 0.63156 0.0
C466 C 0.9685 0.55766 0.63154 0.0
C467 C 0.95857 0.47261 0.63165 0.0
C468 C 0.04482 0.41968 0.63159 0.0
C469 C 1.00589 0.48984 0.63152 0.0
C470 C 0.06841 0.42843 0.63256 0.0
C471 C 0.07833 0.5133 0.634 0.0
C472 C 0.03105 0.49637 0.63203 0.0
C473 C 0.06395 0.58815 0.63423 0.0
C474 C 0.99212 0.56655 0.6315 0.0
C475 C 0.97296 0.3978 0.63146 0.0
N476 N 0.04111 0.57792 0.63329 0.0
N477 N 0.99582 0.40816 0.63143 0.0
H478 H 0.07098 0.32627 0.90179 0.0
H479 H 0.96449 0.65614 0.8983 0.0
H480 H 0.07701 0.61335 0.90139 0.0
H481 H 0.95835 0.36923 0.9005 0.0
H482 H 1.00554 0.64157 0.90002 0.0
H483 H 0.02988 0.34086 0.90195 0.0
C484 C 0.06368 0.3926 0.90178 0.0
C485 C 0.07756 0.46882 0.90152 0.0
C486 C 0.99527 0.58171 0.90018 0.0
C487 C 0.03022 0.48582 0.90167 0.0
C488 C 0.97175 0.58985 0.89918 0.0
C489 C 0.95786 0.51366 0.8992 0.0
C490 C 1.00515 0.49668 0.90116 0.0
C491 C 0.96835 0.42976 0.90042 0.0
C492 C 0.04014 0.40075 0.90188 0.0
C493 C 0.06703 0.55278 0.90158 0.0
N494 N 0.99136 0.42353 0.9013 0.0
N495 N 0.044 0.55901 0.90159 0.0
H496 H 0.23839 0.48402 0.40635 0.0
H497 H 0.29208 -0.00602 0.40455 0.0
H498 H 0.19827 0.24324 0.40688 0.0
H499 H 0.33206 0.23512 0.40393 0.0
H500 H 0.25776 0.0838 0.40691 0.0
H501 H 0.27271 0.39396 0.40703 0.0
C502 C 0.23675 0.41204 0.40669 0.0
C503 C 0.21532 0.37119 0.40647 0.0
C504 C 0.274 0.11724 0.40634 0.0
C505 C 0.25484 0.26724 0.4072 0.0
C506 C 0.29369 0.06596 0.40498 0.0
C507 C 0.31508 0.10702 0.40396 0.0
C508 C 0.27557 0.21063 0.40664 0.0
C509 C 0.31598 0.20056 0.40465 0.0
C510 C 0.25644 0.36062 0.40708 0.0
C511 C 0.21439 0.27763 0.40702 0.0
N512 N 0.29651 0.24917 0.40587 0.0
N513 N 0.23387 0.22883 0.40727 0.0
H514 H 0.73883 0.98961 0.40388 0.0
H515 H 0.79372 0.50163 0.40208 0.0
H516 H 0.69938 0.74715 0.40249 0.0
H517 H 0.83321 0.74399 0.40339 0.0
H518 H 0.75917 0.59023 0.40361 0.0
H519 H 0.77338 0.90088 0.40511 0.0
C520 C 0.73739 0.91755 0.4039 0.0
C521 C 0.71608 0.87582 0.403 0.0
C522 C 0.77535 0.62422 0.40363 0.0
C523 C 0.75585 0.77346 0.40437 0.0
C524 C 0.79517 0.57364 0.40275 0.0
C525 C 0.81649 0.61539 0.40253 0.0
C526 C 0.77672 0.71763 0.40425 0.0
C527 C 0.81719 0.70892 0.4035 0.0
C528 C 0.7572 0.8669 0.40461 0.0
C529 C 0.7154 0.78222 0.40315 0.0
N530 N 0.79759 0.75688 0.40425 0.0
N531 N 0.73499 0.73422 0.40374 0.0
H532 H 0.20537 0.71541 0.08726 0.0
H533 H 0.32356 0.77451 0.14862 0.0
H534 H 0.21499 0.63105 0.15466 0.0
H535 H 0.29871 0.97088 0.10264 0.0
H536 H 0.28678 0.69723 0.14645 0.0
H537 H 0.24257 0.78885 0.08837 0.0
C538 C 0.21524 0.71276 0.1023 0.0
C539 C 0.20699 0.6678 0.12095 0.0
C540 C 0.28953 0.75698 0.13677 0.0
C541 C 0.2497 0.74893 0.12208 0.0
C542 C 0.31049 0.8005 0.13786 0.0
C543 C 0.31407 0.87918 0.12585 0.0
C544 C 0.27234 0.79136 0.12316 0.0
C545 C 0.29654 0.91065 0.11228 0.0
C546 C 0.23643 0.75444 0.1029 0.0
C547 C 0.22057 0.6659 0.13999 0.0
N548 N 0.27648 0.86645 0.1112 0.0
N549 N 0.24135 0.70509 0.14 0.0
H550 H 0.69971 0.22853 0.1207 0.0
H551 H 0.83453 0.24456 0.13863 0.0
H552 H 0.7382 0.0177 0.15144 0.0
H553 H 0.79515 0.469 0.1159 0.0
H554 H 0.79976 0.15538 0.14026 0.0
H555 H 0.73486 0.31388 0.11606 0.0
C556 C 0.7155 0.2002 0.12647 0.0
C557 C 0.71595 0.11597 0.13656 0.0
C558 C 0.79876 0.22407 0.13482 0.0
C559 C 0.75625 0.21282 0.13117 0.0
C560 C 0.81864 0.27483 0.13379 0.0
C561 C 0.81777 0.36452 0.12723 0.0
C562 C 0.77788 0.26315 0.12916 0.0
C563 C 0.79664 0.40029 0.1212 0.0
C564 C 0.73558 0.24886 0.1238 0.0
C565 C 0.73696 0.08249 0.14366 0.0
N566 N 0.77758 0.34969 0.12237 0.0
N567 N 0.7562 0.13086 0.14083 0.0
H568 H 0.74178 0.98464 0.64335 0.0
H569 H 0.79506 0.4971 0.64037 0.0
H570 H 0.70173 0.74875 0.63121 0.0
H571 H 0.83527 0.73519 0.63197 0.0
H572 H 0.76075 0.58775 0.63914 0.0
H573 H 0.7761 0.89431 0.64136 0.0
C574 C 0.74018 0.91372 0.64025 0.0
C575 C 0.71879 0.8741 0.63753 0.0
C576 C 0.77705 0.6202 0.63745 0.0
C577 C 0.75818 0.77014 0.63533 0.0
C578 C 0.79669 0.56858 0.63825 0.0
C579 C 0.81811 0.60871 0.63636 0.0
C580 C 0.77876 0.71303 0.63506 0.0
C581 C 0.81912 0.70151 0.63347 0.0
C582 C 0.75983 0.8623 0.63902 0.0
C583 C 0.71784 0.78203 0.6334 0.0
N584 N 0.79971 0.75067 0.6331 0.0
N585 N 0.73726 0.733 0.6326 0.0
H586 H 0.20041 0.24736 0.63237 0.0
H587 H 0.33622 0.2352 0.63028 0.0
H588 H 0.24201 0.48014 0.64316 0.0
H589 H 0.29486 0.00208 0.64144 0.0
H590 H 0.30169 0.32658 0.62922 0.0
H591 H 0.2349 0.15628 0.62994 0.0
C592 C 0.21676 0.27932 0.63412 0.0
C593 C 0.21832 0.37131 0.63813 0.0
C594 C 0.30023 0.25534 0.63184 0.0
C595 C 0.25776 0.268 0.63518 0.0
C596 C 0.31991 0.20323 0.63238 0.0
C597 C 0.31843 0.11105 0.63611 0.0
C598 C 0.27896 0.21468 0.63474 0.0
C599 C 0.29683 0.07305 0.63872 0.0
C600 C 0.23642 0.22738 0.63279 0.0
C601 C 0.23998 0.4093 0.64025 0.0
N602 N 0.27797 0.1249 0.63796 0.0
N603 N 0.25882 0.3576 0.63871 0.0
H604 H 0.69952 0.23655 0.89397 0.0
H605 H 0.83448 0.25402 0.91036 0.0
H606 H 0.73937 0.01203 0.91589 0.0
H607 H 0.79546 0.46468 0.88017 0.0
H608 H 0.79948 0.16808 0.91529 0.0
H609 H 0.73418 0.32616 0.89202 0.0
C610 C 0.7155 0.20634 0.89856 0.0
C611 C 0.71653 0.11653 0.90499 0.0
C612 C 0.79861 0.23319 0.9076 0.0
C613 C 0.75629 0.21839 0.90269 0.0
C614 C 0.8186 0.28217 0.90477 0.0
C615 C 0.81796 0.36653 0.89476 0.0
C616 C 0.77783 0.26904 0.90048 0.0
C617 C 0.79684 0.3998 0.88789 0.0
C618 C 0.73531 0.25735 0.89735 0.0
C619 C 0.73775 0.08084 0.9107 0.0
N620 N 0.77768 0.3511 0.89088 0.0
N621 N 0.75676 0.1317 0.90936 0.0
H622 H 0.20053 0.7337 0.91129 0.0
H623 H 0.3353 0.75379 0.89331 0.0
H624 H 0.23981 0.52008 0.88254 0.0
H625 H 0.29501 0.98044 0.91322 0.0
H626 H 0.30084 0.66266 0.89251 0.0
H627 H 0.23534 0.82182 0.91497 0.0
C628 C 0.21643 0.70535 0.90575 0.0
C629 C 0.21719 0.61951 0.89651 0.0
C630 C 0.29957 0.7323 0.89714 0.0
C631 C 0.2571 0.71952 0.9008 0.0
C632 C 0.31927 0.78419 0.89769 0.0
C633 C 0.31805 0.87498 0.90323 0.0
C634 C 0.27853 0.77136 0.90227 0.0
C635 C 0.29677 0.91086 0.90872 0.0
C636 C 0.2363 0.75559 0.90787 0.0
C637 C 0.23832 0.58607 0.88968 0.0
N638 N 0.27788 0.85912 0.90804 0.0
N639 N 0.25738 0.636 0.89197 0.0
H640 H 0.37415 0.85963 0.3234 0.0
H641 H 0.37628 0.12425 0.20803 0.0
H642 H 0.37645 0.14679 0.31824 0.0
H643 H 0.37637 0.83701 0.21344 0.0
H644 H 0.3746 0.13443 0.24842 0.0
H645 H 0.37313 0.85005 0.28302 0.0
C646 C 0.37434 0.92059 0.31381 0.0
C647 C 0.37547 0.00403 0.32426 0.0
C648 C 0.37494 0.06919 0.24073 0.0
C649 C 0.37437 -0.00623 0.27804 0.0
C650 C 0.37588 0.06344 0.21767 0.0
C651 C 0.37656 0.97974 0.20729 0.0
C652 C 0.37464 0.9907 0.25349 0.0
C653 C 0.37597 0.90309 0.22066 0.0
C654 C 0.37379 0.91518 0.29075 0.0
C655 C 0.37568 0.08089 0.31095 0.0
N656 N 0.37509 0.91042 0.24298 0.0
N657 N 0.37519 0.07389 0.2886 0.0
H658 H 0.6508 0.15037 0.21327 0.0
H659 H 0.65735 0.8331 0.3191 0.0
H660 H 0.65582 0.86344 0.20917 0.0
H661 H 0.65448 0.12049 0.32314 0.0
H662 H 0.6578 0.84331 0.279 0.0
H663 H 0.65297 0.14068 0.25332 0.0
C664 C 0.65239 0.08509 0.22077 0.0
C665 C 0.65305 0.00743 0.20774 0.0
C666 C 0.65715 0.90424 0.2886 0.0
C667 C 0.65555 -0.00391 0.2539 0.0
C668 C 0.65689 0.89861 0.31157 0.0
C669 C 0.65578 0.97619 0.3246 0.0
C670 C 0.65623 0.98812 0.27839 0.0
C671 C 0.65533 0.05897 0.3138 0.0
C672 C 0.65365 0.07976 0.24371 0.0
C673 C 0.65521 0.925 0.21851 0.0
N674 N 0.65545 0.06272 0.29133 0.0
N675 N 0.65631 0.9215 0.24095 0.0
H676 H 0.65743 0.85923 0.82383 0.0
H677 H 0.65733 0.12794 0.70897 0.0
H678 H 0.65688 0.14666 0.81917 0.0
H679 H 0.65406 0.8408 0.71373 0.0
H680 H 0.65912 0.1363 0.74937 0.0
H681 H 0.65828 0.85075 0.7834 0.0
C682 C 0.65761 0.92044 0.81435 0.0
C683 C 0.65699 0.00367 0.82495 0.0
C684 C 0.65805 0.07147 0.74154 0.0
C685 C 0.6579 -0.00531 0.77869 0.0
C686 C 0.65704 0.06676 0.71847 0.0
C687 C 0.65545 0.98366 0.7079 0.0
C688 C 0.65752 0.99252 0.75412 0.0
C689 C 0.65518 0.90648 0.7211 0.0
C690 C 0.65804 0.91567 0.79126 0.0
C691 C 0.65723 0.0809 0.81177 0.0
N692 N 0.65616 0.9128 0.74344 0.0
N693 N 0.65762 0.07452 0.7894 0.0
H694 H 0.37797 0.12805 0.82123 0.0
H695 H 0.37808 0.85409 0.70706 0.0
H696 H 0.37753 0.84039 0.81732 0.0
H697 H 0.38284 0.14109 0.71125 0.0
H698 H 0.37577 0.84759 0.74746 0.0
H699 H 0.37751 0.13455 0.7808 0.0
C700 C 0.37766 0.06637 0.8119 0.0
C701 C 0.37789 0.98365 0.82271 0.0
C702 C 0.37728 0.91198 0.7395 0.0
C703 C 0.37742 0.99038 0.77646 0.0
C704 C 0.37859 0.91563 0.71644 0.0
C705 C 0.38076 -0.00187 0.70572 0.0
C706 C 0.37808 0.99141 0.75191 0.0
C707 C 0.38129 0.07584 0.71875 0.0
C708 C 0.37745 0.07001 0.78882 0.0
C709 C 0.37748 0.90577 0.80974 0.0
N710 N 0.37999 0.07054 0.74108 0.0
N711 N 0.37732 0.91105 0.78736 0.0
H712 H 0.87603 0.33515 0.21362 0.0
H713 H 0.87578 0.65639 0.31908 0.0
H714 H 0.87511 0.6226 0.20914 0.0
H715 H 0.87579 0.3689 0.32347 0.0
H716 H 0.8741 0.64515 0.27902 0.0
H717 H 0.87449 0.34648 0.25367 0.0
C718 C 0.87543 0.40091 0.22103 0.0
C719 C 0.8758 0.47819 0.20789 0.0
C720 C 0.87439 0.58443 0.28869 0.0
C721 C 0.87408 0.49142 0.25408 0.0
C722 C 0.87536 0.59065 0.31164 0.0
C723 C 0.87602 0.51333 0.32476 0.0
C724 C 0.87414 0.5002 0.27858 0.0
C725 C 0.87534 0.43025 0.31407 0.0
C726 C 0.87454 0.40718 0.24399 0.0
C727 C 0.87488 0.56128 0.21856 0.0
N728 N 0.87452 0.42591 0.29161 0.0
N729 N 0.87416 0.56568 0.24103 0.0
H730 H 0.15866 0.32687 0.32291 0.0
H731 H 0.15132 0.64512 0.21735 0.0
H732 H 0.15459 0.61405 0.3269 0.0
H733 H 0.15848 0.35902 0.2127 0.0
H734 H 0.15336 0.63449 0.25733 0.0
H735 H 0.15957 0.33721 0.28277 0.0
C736 C 0.15804 0.39232 0.31537 0.0
C737 C 0.15646 0.46983 0.32838 0.0
C738 C 0.15456 0.57392 0.24764 0.0
C739 C 0.15744 0.48189 0.28218 0.0
C740 C 0.15336 0.57979 0.22472 0.0
C741 C 0.15464 0.50266 0.21154 0.0
C742 C 0.15697 0.49021 0.25769 0.0
C743 C 0.15739 0.42017 0.22216 0.0
C744 C 0.15857 0.39803 0.29238 0.0
C745 C 0.1558 0.55257 0.31758 0.0
N746 N 0.15837 0.41609 0.24462 0.0
N747 N 0.15619 0.55636 0.29513 0.0
H748 H 0.15634 0.3587 0.82557 0.0
H749 H 0.15533 0.62805 0.71078 0.0
H750 H 0.1518 0.64558 0.82091 0.0
H751 H 0.15489 0.34058 0.7153 0.0
H752 H 0.15599 0.63619 0.75122 0.0
H753 H 0.15774 0.35056 0.78514 0.0
C754 C 0.15569 0.41987 0.81609 0.0
C755 C 0.15387 0.50282 0.8267 0.0
C756 C 0.15579 0.57134 0.74333 0.0
C757 C 0.15549 0.49422 0.78044 0.0
C758 C 0.15544 0.56675 0.72024 0.0
C759 C 0.15497 0.48362 0.70958 0.0
C760 C 0.15573 0.49222 0.75586 0.0
C761 C 0.15515 0.40628 0.72273 0.0
C762 C 0.15647 0.41528 0.793 0.0
C763 C 0.15311 0.58 0.81352 0.0
N764 N 0.15548 0.41247 0.7451 0.0
N765 N 0.15391 0.5738 0.79116 0.0
H766 H 0.88262 0.64441 0.71149 0.0
H767 H 0.88263 0.32992 0.81803 0.0
H768 H 0.88113 0.35677 0.70787 0.0
H769 H 0.88041 0.61753 0.82141 0.0
H770 H 0.88177 0.33845 0.7779 0.0
H771 H 0.88151 0.63541 0.75157 0.0
C772 C 0.88203 0.57909 0.7191 0.0
C773 C 0.88204 0.50107 0.70619 0.0
C774 C 0.88142 0.39977 0.78736 0.0
C775 C 0.88079 0.49053 0.75243 0.0
C776 C 0.88193 0.39511 0.81036 0.0
C777 C 0.88166 0.47328 0.82322 0.0
C778 C 0.88071 0.48328 0.77696 0.0
C779 C 0.88067 0.55557 0.81222 0.0
C780 C 0.88137 0.57415 0.74208 0.0
C781 C 0.88117 0.41861 0.71712 0.0
N782 N 0.8803 0.55839 0.78974 0.0
N783 N 0.88065 0.41551 0.7396 0.0
loop_
_geom_bond_atom_site_label_1
_geom_bond_atom_site_label_2
_geom_bond_distance
_geom_bond_site_symmetry_2
_ccdc_geom_bond_type
Mg0 O7 2.141 . S
Mg0 O8 2.048 . S
Mg0 O9 2.048 . S
Mg0 O12 2.141 . S
C1 O2 1.313 . S
C1 O8 1.195 . S
O2 C1 1.313 . S
C3 O4 1.245 . S
C3 O12 1.289 . S
O4 C3 1.245 . S
C5 O6 1.245 . S
C5 O7 1.289 . S
O6 C5 1.245 . S
O7 Mg0 2.141 . S
O7 C5 1.289 . S
O8 Mg0 2.048 . S
O8 C1 1.195 . S
O9 Mg0 2.048 . S
O9 C10 1.195 . S
C10 O9 1.195 . S
C10 O11 1.313 . S
O11 C10 1.313 . S
O12 Mg0 2.141 . S
O12 C3 1.289 . S
Mg13 O20 2.141 . S
Mg13 O21 2.048 . S
Mg13 O22 2.048 . S
Mg13 O25 2.141 . S
C14 O15 1.313 . S
C14 O21 1.195 . S
O15 C14 1.313 . S
C16 O17 1.245 . S
C16 O25 1.289 . S
O17 C16 1.245 . S
C18 O19 1.245 . S
C18 O20 1.289 . S
O19 C18 1.245 . S
O20 Mg13 2.141 . S
O20 C18 1.289 . S
O21 Mg13 2.048 . S
O21 C14 1.195 . S
O22 Mg13 2.048 . S
O22 C23 1.195 . S
C23 O22 1.195 . S
C23 O24 1.313 . S
O24 C23 1.313 . S
O25 Mg13 2.141 . S
O25 C16 1.289 . S
Mg26 O33 2.141 . S
Mg26 O34 2.048 . S
Mg26 O35 2.048 . S
Mg26 O38 2.141 . S
C27 O28 1.313 . S
C27 O34 1.195 . S
O28 C27 1.313 . S
C29 O30 1.245 . S
C29 O38 1.289 . S
O30 C29 1.245 . S
C31 O32 1.245 . S
C31 O33 1.289 . S
O32 C31 1.245 . S
O33 Mg26 2.141 . S
O33 C31 1.289 . S
O34 Mg26 2.048 . S
O34 C27 1.195 . S
O35 Mg26 2.048 . S
O35 C36 1.195 . S
C36 O35 1.195 . S
C36 O37 1.313 . S
O37 C36 1.313 . S
O38 Mg26 2.141 . S
O38 C29 1.289 . S
Mg39 O46 2.141 . S
Mg39 O47 2.048 . S
Mg39 O48 2.048 . S
Mg39 O51 2.141 . S
C40 O41 1.313 . S
C40 O47 1.195 . S
O41 C40 1.313 . S
C42 O43 1.245 . S
C42 O51 1.289 . S
O43 C42 1.245 . S
C44 O45 1.245 . S
C44 O46 1.289 . S
O45 C44 1.245 . S
O46 Mg39 2.141 . S
O46 C44 1.289 . S
O47 Mg39 2.048 . S
O47 C40 1.195 . S
O48 Mg39 2.048 . S
O48 C49 1.195 . S
C49 O48 1.195 . S
C49 O50 1.313 . S
O50 C49 1.313 . S
O51 Mg39 2.141 . S
O51 C42 1.289 . S
Mg52 O59 2.141 . S
Mg52 O60 2.048 . S
Mg52 O61 2.048 . S
Mg52 O64 2.141 . S
C53 O54 1.313 . S
C53 O60 1.195 . S
O54 C53 1.313 . S
C55 O56 1.245 1_565 S
C55 O64 1.289 . S
O56 C55 1.245 1_545 S
C57 O58 1.245 . S
C57 O59 1.289 . S
O58 C57 1.245 . S
O59 Mg52 2.141 . S
O59 C57 1.289 . S
O60 Mg52 2.048 . S
O60 C53 1.195 . S
O61 Mg52 2.048 . S
O61 C62 1.195 . S
C62 O61 1.195 . S
C62 O63 1.313 1_565 S
O63 C62 1.313 1_545 S
O64 Mg52 2.141 . S
O64 C55 1.289 . S
Mg65 O72 2.141 . S
Mg65 O73 2.048 . S
Mg65 O74 2.048 . S
Mg65 O77 2.141 . S
C66 O67 1.313 . S
C66 O73 1.195 . S
O67 C66 1.313 . S
C68 O69 1.245 1_545 S
C68 O77 1.289 . S
O69 C68 1.245 1_565 S
C70 O71 1.245 . S
C70 O72 1.289 . S
O71 C70 1.245 . S
O72 Mg65 2.141 . S
O72 C70 1.289 . S
O73 Mg65 2.048 . S
O73 C66 1.195 . S
O74 Mg65 2.048 . S
O74 C75 1.195 . S
C75 O74 1.195 . S
C75 O76 1.313 1_545 S
O76 C75 1.313 1_565 S
O77 Mg65 2.141 . S
O77 C68 1.289 . S
Mg78 O85 2.141 . S
Mg78 O86 2.048 . S
Mg78 O87 2.048 . S
Mg78 O90 2.141 . S
C79 O80 1.313 . S
C79 O86 1.195 . S
O80 C79 1.313 . S
C81 O82 1.245 1_545 S
C81 O90 1.289 . S
O82 C81 1.245 1_565 S
C83 O84 1.245 . S
C83 O85 1.289 . S
O84 C83 1.245 . S
O85 Mg78 2.141 . S
O85 C83 1.289 . S
O86 Mg78 2.048 . S
O86 C79 1.195 . S
O87 Mg78 2.048 . S
O87 C88 1.195 . S
C88 O87 1.195 . S
C88 O89 1.313 1_545 S
O89 C88 1.313 1_565 S
O90 Mg78 2.141 . S
O90 C81 1.289 . S
Mg91 O98 2.141 . S
Mg91 O99 2.048 . S
Mg91 O100 2.048 . S
Mg91 O103 2.141 . S
C92 O93 1.313 . S
C92 O99 1.195 . S
O93 C92 1.313 . S
C94 O95 1.245 1_565 S
C94 O103 1.289 . S
O95 C94 1.245 1_545 S
C96 O97 1.245 . S
C96 O98 1.289 . S
O97 C96 1.245 . S
O98 Mg91 2.141 . S
O98 C96 1.289 . S
O99 Mg91 2.048 . S
O99 C92 1.195 . S
O100 Mg91 2.048 . S
O100 C101 1.195 . S
C101 O100 1.195 . S
C101 O102 1.313 1_565 S
O102 C101 1.313 1_545 S
O103 Mg91 2.141 . S
O103 C94 1.289 . S
Mg104 O111 2.141 . S
Mg104 O112 2.048 . S
Mg104 O113 2.048 . S
Mg104 O116 2.141 . S
C105 O106 1.313 . S
C105 O112 1.195 . S
O106 C105 1.313 . S
C107 O108 1.245 . S
C107 O116 1.289 . S
O108 C107 1.245 . S
C109 O110 1.245 . S
C109 O111 1.289 . S
O110 C109 1.245 . S
O111 Mg104 2.141 . S
O111 C109 1.289 . S
O112 Mg104 2.048 . S
O112 C105 1.195 . S
O113 Mg104 2.048 . S
O113 C114 1.195 . S
C114 O113 1.195 . S
C114 O115 1.313 . S
O115 C114 1.313 . S
O116 Mg104 2.141 . S
O116 C107 1.289 . S
Mg117 O124 2.141 . S
Mg117 O125 2.048 . S
Mg117 O126 2.048 . S
Mg117 O129 2.141 . S
C118 O119 1.313 . S
C118 O125 1.195 . S
O119 C118 1.313 . S
C120 O121 1.245 . S
C120 O129 1.289 . S
O121 C120 1.245 . S
C122 O123 1.245 . S
C122 O124 1.289 . S
O123 C122 1.245 . S
O124 Mg117 2.141 . S
O124 C122 1.289 . S
O125 Mg117 2.048 . S
O125 C118 1.195 . S
O126 Mg117 2.048 . S
O126 C127 1.195 . S
C127 O126 1.195 . S
C127 O128 1.313 . S
O128 C127 1.313 . S
O129 Mg117 2.141 . S
O129 C120 1.289 . S
Mg130 O137 2.141 . S
Mg130 O138 2.048 . S
Mg130 O139 2.048 . S
Mg130 O142 2.141 . S
C131 O132 1.313 . S
C131 O138 1.195 . S
O132 C131 1.313 . S
C133 O134 1.245 . S
C133 O142 1.289 . S
O134 C133 1.245 . S
C135 O136 1.245 . S
C135 O137 1.289 . S
O136 C135 1.245 . S
O137 Mg130 2.141 . S
O137 C135 1.289 . S
O138 Mg130 2.048 . S
O138 C131 1.195 . S
O139 Mg130 2.048 . S
O139 C140 1.195 . S
C140 O139 1.195 . S
C140 O141 1.313 . S
O141 C140 1.313 . S
O142 Mg130 2.141 . S
O142 C133 1.289 . S
Mg143 O150 2.141 . S
Mg143 O151 2.048 . S
Mg143 O152 2.048 . S
Mg143 O155 2.141 . S
C144 O145 1.313 . S
C144 O151 1.195 . S
O145 C144 1.313 . S
C146 O147 1.245 . S
C146 O155 1.289 . S
O147 C146 1.245 . S
C148 O149 1.245 . S
C148 O150 1.289 . S
O149 C148 1.245 . S
O150 Mg143 2.141 . S
O150 C148 1.289 . S
O151 Mg143 2.048 . S
O151 C144 1.195 . S
O152 Mg143 2.048 . S
O152 C153 1.195 . S
C153 O152 1.195 . S
C153 O154 1.313 . S
O154 C153 1.313 . S
O155 Mg143 2.141 . S
O155 C146 1.289 . S
Mg156 O163 2.141 . S
Mg156 O164 2.048 . S
Mg156 O165 2.048 . S
Mg156 O168 2.141 . S
C157 O158 1.313 . S
C157 O164 1.195 . S
O158 C157 1.313 . S
C159 O160 1.245 . S
C159 O168 1.289 . S
O160 C159 1.245 . S
C161 O162 1.245 . S
C161 O163 1.289 . S
O162 C161 1.245 . S
O163 Mg156 2.141 . S
O163 C161 1.289 . S
O164 Mg156 2.048 . S
O164 C157 1.195 . S
O165 Mg156 2.048 . S
O165 C166 1.195 . S
C166 O165 1.195 . S
C166 O167 1.313 . S
O167 C166 1.313 . S
O168 Mg156 2.141 . S
O168 C159 1.289 . S
Mg169 O176 2.141 . S
Mg169 O177 2.048 . S
Mg169 O178 2.048 . S
Mg169 O181 2.141 . S
C170 O171 1.313 . S
C170 O177 1.195 . S
O171 C170 1.313 . S
C172 O173 1.245 . S
C172 O181 1.289 . S
O173 C172 1.245 . S
C174 O175 1.245 . S
C174 O176 1.289 . S
O175 C174 1.245 . S
O176 Mg169 2.141 . S
O176 C174 1.289 . S
O177 Mg169 2.048 . S
O177 C170 1.195 . S
O178 Mg169 2.048 . S
O178 C179 1.195 . S
C179 O178 1.195 . S
C179 O180 1.313 . S
O180 C179 1.313 . S
O181 Mg169 2.141 . S
O181 C172 1.289 . S
Mg182 O189 2.141 . S
Mg182 O190 2.048 . S
Mg182 O191 2.048 . S
Mg182 O194 2.141 . S
C183 O184 1.313 . S
C183 O190 1.195 . S
O184 C183 1.313 . S
C185 O186 1.245 . S
C185 O194 1.289 . S
O186 C185 1.245 . S
C187 O188 1.245 . S
C187 O189 1.289 . S
O188 C187 1.245 . S
O189 Mg182 2.141 . S
O189 C187 1.289 . S
O190 Mg182 2.048 . S
O190 C183 1.195 . S
O191 Mg182 2.048 . S
O191 C192 1.195 . S
C192 O191 1.195 . S
C192 O193 1.313 . S
O193 C192 1.313 . S
O194 Mg182 2.141 . S
O194 C185 1.289 . S
Mg195 O202 2.141 . S
Mg195 O203 2.048 . S
Mg195 O204 2.048 . S
Mg195 O207 2.141 . S
C196 O197 1.313 . S
C196 O203 1.195 . S
O197 C196 1.313 . S
C198 O199 1.245 . S
C198 O207 1.289 . S
O199 C198 1.245 . S
C200 O201 1.245 . S
C200 O202 1.289 . S
O201 C200 1.245 . S
O202 Mg195 2.141 . S
O202 C200 1.289 . S
O203 Mg195 2.048 . S
O203 C196 1.195 . S
O204 Mg195 2.048 . S
O204 C205 1.195 . S
C205 O204 1.195 . S
C205 O206 1.313 . S
O206 C205 1.313 . S
O207 Mg195 2.141 . S
O207 C198 1.289 . S
H208 C214 0.930 . S
H209 C218 0.930 . S
H210 C223 0.929 . S
H211 C221 0.929 . S
H212 C216 0.929 . S
H213 C222 0.929 . S
C214 H208 0.930 . S
C214 C215 1.367 . S
C214 C222 1.378 . S
C215 C214 1.367 . S
C215 C223 1.433 . S
C216 H212 0.929 . S
C216 C218 1.378 . S
C216 C220 1.350 . S
C217 C220 1.463 . S
C217 C222 1.350 . S
C217 N225 1.427 . S
C218 H209 0.930 . S
C218 C216 1.378 . S
C218 C219 1.367 . S
C219 C218 1.367 . S
C219 C221 1.433 . S
C220 C216 1.350 . S
C220 C217 1.463 . S
C220 N224 1.427 . S
C221 H211 0.929 . S
C221 C219 1.433 . S
C221 N224 1.384 . S
C222 H213 0.929 . S
C222 C214 1.378 . S
C222 C217 1.350 . S
C223 H210 0.929 . S
C223 C215 1.433 . S
C223 N225 1.384 . S
N224 C220 1.427 . S
N224 C221 1.384 . S
N225 C217 1.427 . S
N225 C223 1.384 . S
H226 C232 0.930 1_545 S
H227 C236 0.930 . S
H228 C241 0.929 . S
H229 C239 0.929 1_545 S
H230 C234 0.929 . S
H231 C240 0.929 1_545 S
C232 H226 0.930 1_565 S
C232 C233 1.367 . S
C232 C240 1.378 . S
C233 C232 1.367 . S
C233 C241 1.433 . S
C234 H230 0.929 . S
C234 C236 1.378 . S
C234 C238 1.350 . S
C235 C238 1.463 . S
C235 C240 1.350 . S
C235 N243 1.427 . S
C236 H227 0.930 . S
C236 C234 1.378 . S
C236 C237 1.367 . S
C237 C236 1.367 . S
C237 C239 1.433 . S
C238 C234 1.350 . S
C238 C235 1.463 . S
C238 N242 1.427 . S
C239 H229 0.929 1_565 S
C239 C237 1.433 . S
C239 N242 1.384 . S
C240 H231 0.929 1_565 S
C240 C232 1.378 . S
C240 C235 1.350 . S
C241 H228 0.929 . S
C241 C233 1.433 . S
C241 N243 1.384 . S
N242 C238 1.427 . S
N242 C239 1.384 . S
N243 C235 1.427 . S
N243 C241 1.384 . S
H244 C250 0.930 . S
H245 C254 0.930 1_545 S
H246 C259 0.929 1_545 S
H247 C257 0.929 . S
H248 C252 0.929 1_545 S
H249 C258 0.929 . S
C250 H244 0.930 . S
C250 C251 1.367 . S
C250 C258 1.378 . S
C251 C250 1.367 . S
C251 C259 1.433 . S
C252 H248 0.929 1_565 S
C252 C254 1.378 . S
C252 C256 1.350 . S
C253 C256 1.463 1_554 S
C253 C258 1.350 . S
C253 N261 1.427 . S
C254 H245 0.930 1_565 S
C254 C252 1.378 . S
C254 C255 1.367 . S
C255 C254 1.367 . S
C255 C257 1.433 . S
C256 C252 1.350 . S
C256 C253 1.463 1_556 S
C256 N260 1.427 . S
C257 H247 0.929 . S
C257 C255 1.433 . S
C257 N260 1.384 . S
C258 H249 0.929 . S
C258 C250 1.378 . S
C258 C253 1.350 . S
C259 H246 0.929 1_565 S
C259 C251 1.433 . S
C259 N261 1.384 . S
N260 C256 1.427 . S
N260 C257 1.384 . S
N261 C253 1.427 . S
N261 C259 1.384 . S
H262 C268 0.930 1_565 S
H263 C272 0.930 . S
H264 C277 0.929 . S
H265 C275 0.929 1_565 S
H266 C270 0.929 . S
H267 C276 0.929 1_565 S
C268 H262 0.930 1_545 S
C268 C269 1.367 . S
C268 C276 1.378 . S
C269 C268 1.367 . S
C269 C277 1.433 . S
C270 H266 0.929 . S
C270 C272 1.378 . S
C270 C274 1.350 . S
C271 C274 1.463 1_556 S
C271 C276 1.350 . S
C271 N279 1.427 . S
C272 H263 0.930 . S
C272 C270 1.378 . S
C272 C273 1.367 . S
C273 C272 1.367 . S
C273 C275 1.433 . S
C274 C270 1.350 . S
C274 C271 1.463 1_554 S
C274 N278 1.427 . S
C275 H265 0.929 1_545 S
C275 C273 1.433 . S
C275 N278 1.384 . S
C276 H267 0.929 1_545 S
C276 C268 1.378 . S
C276 C271 1.350 . S
C277 H264 0.929 . S
C277 C269 1.433 . S
C277 N279 1.384 . S
N278 C274 1.427 . S
N278 C275 1.384 . S
N279 C271 1.427 . S
N279 C277 1.384 . S
H280 C286 0.930 . S
H281 C290 0.930 . S
H282 C295 0.929 . S
H283 C293 0.929 . S
H284 C288 0.929 . S
H285 C294 0.929 . S
C286 H280 0.930 . S
C286 C287 1.367 . S
C286 C294 1.378 . S
C287 C286 1.367 . S
C287 C295 1.433 . S
C288 H284 0.929 . S
C288 C290 1.378 . S
C288 C292 1.350 . S
C289 C292 1.463 . S
C289 C294 1.350 . S
C289 N297 1.427 . S
C290 H281 0.930 . S
C290 C288 1.378 . S
C290 C291 1.367 . S
C291 C290 1.367 . S
C291 C293 1.433 . S
C292 C288 1.350 . S
C292 C289 1.463 . S
C292 N296 1.427 . S
C293 H283 0.929 . S
C293 C291 1.433 . S
C293 N296 1.384 . S
C294 H285 0.929 . S
C294 C286 1.378 . S
C294 C289 1.350 . S
C295 H282 0.929 . S
C295 C287 1.433 . S
C295 N297 1.384 . S
N296 C292 1.427 . S
N296 C293 1.384 . S
N297 C289 1.427 . S
N297 C295 1.384 . S
H298 C304 0.930 . S
H299 C308 0.930 . S
H300 C313 0.929 . S
H301 C311 0.929 . S
H302 C306 0.929 . S
H303 C312 0.929 . S
C304 H298 0.930 . S
C304 C305 1.367 . S
C304 C312 1.378 . S
C305 C304 1.367 . S
C305 C313 1.433 . S
C306 H302 0.929 . S
C306 C308 1.378 . S
C306 C310 1.350 . S
C307 C310 1.463 . S
C307 C312 1.350 . S
C307 N315 1.427 . S
C308 H299 0.930 . S
C308 C306 1.378 . S
C308 C309 1.367 . S
C309 C308 1.367 . S
C309 C311 1.433 . S
C310 C306 1.350 . S
C310 C307 1.463 . S
C310 N314 1.427 . S
C311 H301 0.929 . S
C311 C309 1.433 . S
C311 N314 1.384 . S
C312 H303 0.929 . S
C312 C304 1.378 . S
C312 C307 1.350 . S
C313 H300 0.929 . S
C313 C305 1.433 . S
C313 N315 1.384 . S
N314 C310 1.427 . S
N314 C311 1.384 . S
N315 C307 1.427 . S
N315 C313 1.384 . S
H316 C322 0.930 . S
H317 C326 0.930 . S
H318 C331 0.929 . S
H319 C329 0.929 . S
H320 C324 0.929 . S
H321 C330 0.929 . S
C322 H316 0.930 . S
C322 C323 1.367 . S
C322 C330 1.378 . S
C323 C322 1.367 . S
C323 C331 1.433 . S
C324 H320 0.929 . S
C324 C326 1.378 . S
C324 C328 1.350 . S
C325 C328 1.463 1_556 S
C325 C330 1.350 . S
C325 N333 1.427 . S
C326 H317 0.930 . S
C326 C324 1.378 . S
C326 C327 1.367 . S
C327 C326 1.367 . S
C327 C329 1.433 . S
C328 C324 1.350 . S
C328 C325 1.463 1_554 S
C328 N332 1.427 . S
C329 H319 0.929 . S
C329 C327 1.433 . S
C329 N332 1.384 . S
C330 H321 0.929 . S
C330 C322 1.378 . S
C330 C325 1.350 . S
C331 H318 0.929 . S
C331 C323 1.433 . S
C331 N333 1.384 . S
N332 C328 1.427 . S
N332 C329 1.384 . S
N333 C325 1.427 . S
N333 C331 1.384 . S
H334 C340 0.930 . S
H335 C344 0.930 . S
H336 C349 0.929 . S
H337 C347 0.929 . S
H338 C342 0.929 . S
H339 C348 0.929 . S
C340 H334 0.930 . S
C340 C341 1.367 . S
C340 C348 1.378 . S
C341 C340 1.367 . S
C341 C349 1.433 . S
C342 H338 0.929 . S
C342 C344 1.378 . S
C342 C346 1.350 . S
C343 C346 1.463 1_554 S
C343 C348 1.350 . S
C343 N351 1.427 . S
C344 H335 0.930 . S
C344 C342 1.378 . S
C344 C345 1.367 . S
C345 C344 1.367 . S
C345 C347 1.433 . S
C346 C342 1.350 . S
C346 C343 1.463 1_556 S
C346 N350 1.427 . S
C347 H337 0.929 . S
C347 C345 1.433 . S
C347 N350 1.384 . S
C348 H339 0.929 . S
C348 C340 1.378 . S
C348 C343 1.350 . S
C349 H336 0.929 . S
C349 C341 1.433 . S
C349 N351 1.384 . S
N350 C346 1.427 . S
N350 C347 1.384 . S
N351 C343 1.427 . S
N351 C349 1.384 . S
H352 C358 0.930 . S
H353 C362 0.930 . S
H354 C367 0.929 . S
H355 C365 0.929 . S
H356 C360 0.929 . S
H357 C366 0.929 . S
C358 H352 0.930 . S
C358 C359 1.367 1_545 S
C358 C366 1.378 . S
C359 C358 1.367 1_565 S
C359 C367 1.433 . S
C360 H356 0.929 . S
C360 C362 1.378 . S
C360 C364 1.350 1_565 S
C361 C364 1.463 1_565 S
C361 C366 1.350 1_565 S
C361 N369 1.427 . S
C362 H353 0.930 . S
C362 C360 1.378 . S
C362 C363 1.367 1_565 S
C363 C362 1.367 1_545 S
C363 C365 1.433 . S
C364 C360 1.350 1_545 S
C364 C361 1.463 1_545 S
C364 N368 1.427 . S
C365 H355 0.929 . S
C365 C363 1.433 . S
C365 N368 1.384 . S
C366 H357 0.929 . S
C366 C358 1.378 . S
C366 C361 1.350 1_545 S
C367 H354 0.929 . S
C367 C359 1.433 . S
C367 N369 1.384 . S
N368 C364 1.427 . S
N368 C365 1.384 . S
N369 C361 1.427 . S
N369 C367 1.384 . S
H370 C376 0.930 . S
H371 C380 0.930 . S
H372 C385 0.929 . S
H373 C383 0.929 . S
H374 C378 0.929 . S
H375 C384 0.929 . S
C376 H370 0.930 . S
C376 C377 1.367 . S
C376 C384 1.378 . S
C377 C376 1.367 . S
C377 C385 1.433 . S
C378 H374 0.929 . S
C378 C380 1.378 . S
C378 C382 1.350 . S
C379 C382 1.463 1_565 S
C379 C384 1.350 . S
C379 N387 1.427 . S
C380 H371 0.930 . S
C380 C378 1.378 . S
C380 C381 1.367 . S
C381 C380 1.367 . S
C381 C383 1.433 . S
C382 C378 1.350 . S
C382 C379 1.463 1_545 S
C382 N386 1.427 . S
C383 H373 0.929 . S
C383 C381 1.433 . S
C383 N386 1.384 . S
C384 H375 0.929 . S
C384 C376 1.378 . S
C384 C379 1.350 . S
C385 H372 0.929 . S
C385 C377 1.433 . S
C385 N387 1.384 . S
N386 C382 1.427 . S
N386 C383 1.384 . S
N387 C379 1.427 . S
N387 C385 1.384 . S
H388 C394 0.930 . S
H389 C398 0.930 . S
H390 C403 0.929 . S
H391 C401 0.929 . S
H392 C396 0.929 . S
H393 C402 0.929 . S
C394 H388 0.930 . S
C394 C395 1.367 . S
C394 C402 1.378 . S
C395 C394 1.367 . S
C395 C403 1.433 1_565 S
C396 H392 0.929 . S
C396 C398 1.378 . S
C396 C400 1.350 . S
C397 C400 1.463 1_565 S
C397 C402 1.350 . S
C397 N405 1.427 1_565 S
C398 H389 0.930 . S
C398 C396 1.378 . S
C398 C399 1.367 . S
C399 C398 1.367 . S
C399 C401 1.433 1_545 S
C400 C396 1.350 . S
C400 C397 1.463 1_545 S
C400 N404 1.427 1_545 S
C401 H391 0.929 . S
C401 C399 1.433 1_565 S
C401 N404 1.384 . S
C402 H393 0.929 . S
C402 C394 1.378 . S
C402 C397 1.350 . S
C403 H390 0.929 . S
C403 C395 1.433 1_545 S
C403 N405 1.384 . S
N404 C400 1.427 1_565 S
N404 C401 1.384 . S
N405 C397 1.427 1_545 S
N405 C403 1.384 . S
H406 C412 0.930 . S
H407 C416 0.930 . S
H408 C421 0.929 . S
H409 C419 0.929 . S
H410 C414 0.929 . S
H411 C420 0.929 . S
C412 H406 0.930 . S
C412 C413 1.367 . S
C412 C420 1.378 . S
C413 C412 1.367 . S
C413 C421 1.433 1_545 S
C414 H410 0.929 . S
C414 C416 1.378 . S
C414 C418 1.350 . S
C415 C418 1.463 1_545 S
C415 C420 1.350 . S
C415 N423 1.427 1_545 S
C416 H407 0.930 . S
C416 C414 1.378 . S
C416 C417 1.367 . S
C417 C416 1.367 . S
C417 C419 1.433 1_565 S
C418 C414 1.350 . S
C418 C415 1.463 1_565 S
C418 N422 1.427 1_565 S
C419 H409 0.929 . S
C419 C417 1.433 1_545 S
C419 N422 1.384 . S
C420 H411 0.929 . S
C420 C412 1.378 . S
C420 C415 1.350 . S
C421 H408 0.929 . S
C421 C413 1.433 1_565 S
C421 N423 1.384 . S
N422 C418 1.427 1_545 S
N422 C419 1.384 . S
N423 C415 1.427 1_565 S
N423 C421 1.384 . S
H424 C430 0.930 . S
H425 C434 0.930 . S
H426 C439 0.929 . S
H427 C437 0.929 . S
H428 C432 0.929 . S
H429 C438 0.929 . S
C430 H424 0.930 . S
C430 C431 1.367 . S
C430 C438 1.378 . S
C431 C430 1.367 . S
C431 C439 1.433 . S
C432 H428 0.929 . S
C432 C434 1.378 . S
C432 C436 1.350 . S
C433 C436 1.463 1_655 S
C433 C438 1.350 . S
C433 N441 1.427 . S
C434 H425 0.930 . S
C434 C432 1.378 . S
C434 C435 1.367 . S
C435 C434 1.367 . S
C435 C437 1.433 . S
C436 C432 1.350 . S
C436 C433 1.463 1_455 S
C436 N440 1.427 . S
C437 H427 0.929 . S
C437 C435 1.433 . S
C437 N440 1.384 . S
C438 H429 0.929 . S
C438 C430 1.378 . S
C438 C433 1.350 . S
C439 H426 0.929 . S
C439 C431 1.433 . S
C439 N441 1.384 . S
N440 C436 1.427 . S
N440 C437 1.384 . S
N441 C433 1.427 . S
N441 C439 1.384 . S
H442 C448 0.930 . S
H443 C452 0.930 . S
H444 C457 0.929 . S
H445 C455 0.929 . S
H446 C450 0.929 . S
H447 C456 0.929 . S
C448 H442 0.930 . S
C448 C449 1.367 . S
C448 C456 1.378 . S
C449 C448 1.367 . S
C449 C457 1.433 . S
C450 H446 0.929 . S
C450 C452 1.378 . S
C450 C454 1.350 . S
C451 C454 1.463 1_455 S
C451 C456 1.350 . S
C451 N459 1.427 . S
C452 H443 0.930 . S
C452 C450 1.378 . S
C452 C453 1.367 . S
C453 C452 1.367 . S
C453 C455 1.433 . S
C454 C450 1.350 . S
C454 C451 1.463 1_655 S
C454 N458 1.427 . S
C455 H445 0.929 . S
C455 C453 1.433 . S
C455 N458 1.384 . S
C456 H447 0.929 . S
C456 C448 1.378 . S
C456 C451 1.350 . S
C457 H444 0.929 . S
C457 C449 1.433 . S
C457 N459 1.384 . S
N458 C454 1.427 . S
N458 C455 1.384 . S
N459 C451 1.427 . S
N459 C457 1.384 . S
H460 C466 0.930 . S
H461 C470 0.930 . S
H462 C475 0.929 . S
H463 C473 0.929 . S
H464 C468 0.929 . S
H465 C474 0.929 . S
C466 H460 0.930 . S
C466 C467 1.367 . S
C466 C474 1.378 . S
C467 C466 1.367 . S
C467 C475 1.433 . S
C468 H464 0.929 . S
C468 C470 1.378 . S
C468 C472 1.350 . S
C469 C472 1.463 1_655 S
C469 C474 1.350 . S
C469 N477 1.427 . S
C470 H461 0.930 . S
C470 C468 1.378 . S
C470 C471 1.367 . S
C471 C470 1.367 . S
C471 C473 1.433 . S
C472 C468 1.350 . S
C472 C469 1.463 1_455 S
C472 N476 1.427 . S
C473 H463 0.929 . S
C473 C471 1.433 . S
C473 N476 1.384 . S
C474 H465 0.929 . S
C474 C466 1.378 . S
C474 C469 1.350 . S
C475 H462 0.929 . S
C475 C467 1.433 . S
C475 N477 1.384 . S
N476 C472 1.427 . S
N476 C473 1.384 . S
N477 C469 1.427 . S
N477 C475 1.384 . S
H478 C484 0.930 . S
H479 C488 0.930 . S
H480 C493 0.929 . S
H481 C491 0.929 . S
H482 C486 0.929 . S
H483 C492 0.929 . S
C484 H478 0.930 . S
C484 C485 1.367 . S
C484 C492 1.378 . S
C485 C484 1.367 . S
C485 C493 1.433 . S
C486 H482 0.929 . S
C486 C488 1.378 . S
C486 C490 1.350 . S
C487 C490 1.463 1_455 S
C487 C492 1.350 . S
C487 N495 1.427 . S
C488 H479 0.930 . S
C488 C486 1.378 . S
C488 C489 1.367 . S
C489 C488 1.367 . S
C489 C491 1.433 . S
C490 C486 1.350 . S
C490 C487 1.463 1_655 S
C490 N494 1.427 . S
C491 H481 0.929 . S
C491 C489 1.433 . S
C491 N494 1.384 . S
C492 H483 0.929 . S
C492 C484 1.378 . S
C492 C487 1.350 . S
C493 H480 0.929 . S
C493 C485 1.433 . S
C493 N495 1.384 . S
N494 C490 1.427 . S
N494 C491 1.384 . S
N495 C487 1.427 . S
N495 C493 1.384 . S
H496 C502 0.930 . S
H497 C506 0.930 . S
H498 C511 0.929 . S
H499 C509 0.929 . S
H500 C504 0.929 . S
H501 C510 0.929 . S
C502 H496 0.930 . S
C502 C503 1.367 . S
C502 C510 1.378 . S
C503 C502 1.367 . S
C503 C511 1.433 . S
C504 H500 0.929 . S
C504 C506 1.378 . S
C504 C508 1.350 . S
C505 C508 1.463 . S
C505 C510 1.350 . S
C505 N513 1.427 . S
C506 H497 0.930 . S
C506 C504 1.378 . S
C506 C507 1.367 . S
C507 C506 1.367 . S
C507 C509 1.433 . S
C508 C504 1.350 . S
C508 C505 1.463 . S
C508 N512 1.427 . S
C509 H499 0.929 . S
C509 C507 1.433 . S
C509 N512 1.384 . S
C510 H501 0.929 . S
C510 C502 1.378 . S
C510 C505 1.350 . S
C511 H498 0.929 . S
C511 C503 1.433 . S
C511 N513 1.384 . S
N512 C508 1.427 . S
N512 C509 1.384 . S
N513 C505 1.427 . S
N513 C511 1.384 . S
H514 C520 0.930 . S
H515 C524 0.930 . S
H516 C529 0.929 . S
H517 C527 0.929 . S
H518 C522 0.929 . S
H519 C528 0.929 . S
C520 H514 0.930 . S
C520 C521 1.367 . S
C520 C528 1.378 . S
C521 C520 1.367 . S
C521 C529 1.433 . S
C522 H518 0.929 . S
C522 C524 1.378 . S
C522 C526 1.350 . S
C523 C526 1.463 . S
C523 C528 1.350 . S
C523 N531 1.427 . S
C524 H515 0.930 . S
C524 C522 1.378 . S
C524 C525 1.367 . S
C525 C524 1.367 . S
C525 C527 1.433 . S
C526 C522 1.350 . S
C526 C523 1.463 . S
C526 N530 1.427 . S
C527 H517 0.929 . S
C527 C525 1.433 . S
C527 N530 1.384 . S
C528 H519 0.929 . S
C528 C520 1.378 . S
C528 C523 1.350 . S
C529 H516 0.929 . S
C529 C521 1.433 . S
C529 N531 1.384 . S
N530 C526 1.427 . S
N530 C527 1.384 . S
N531 C523 1.427 . S
N531 C529 1.384 . S
H532 C538 0.930 . S
H533 C542 0.930 . S
H534 C547 0.929 . S
H535 C545 0.929 . S
H536 C540 0.929 . S
H537 C546 0.929 . S
C538 H532 0.930 . S
C538 C539 1.367 . S
C538 C546 1.378 . S
C539 C538 1.367 . S
C539 C547 1.433 . S
C540 H536 0.929 . S
C540 C542 1.378 . S
C540 C544 1.350 . S
C541 C544 1.463 . S
C541 C546 1.350 . S
C541 N549 1.427 . S
C542 H533 0.930 . S
C542 C540 1.378 . S
C542 C543 1.367 . S
C543 C542 1.367 . S
C543 C545 1.433 . S
C544 C540 1.350 . S
C544 C541 1.463 . S
C544 N548 1.427 . S
C545 H535 0.929 . S
C545 C543 1.433 . S
C545 N548 1.384 . S
C546 H537 0.929 . S
C546 C538 1.378 . S
C546 C541 1.350 . S
C547 H534 0.929 . S
C547 C539 1.433 . S
C547 N549 1.384 . S
N548 C544 1.427 . S
N548 C545 1.384 . S
N549 C541 1.427 . S
N549 C547 1.384 . S
H550 C556 0.930 . S
H551 C560 0.930 . S
H552 C565 0.929 . S
H553 C563 0.929 . S
H554 C558 0.929 . S
H555 C564 0.929 . S
C556 H550 0.930 . S
C556 C557 1.367 . S
C556 C564 1.378 . S
C557 C556 1.367 . S
C557 C565 1.433 . S
C558 H554 0.929 . S
C558 C560 1.378 . S
C558 C562 1.350 . S
C559 C562 1.463 . S
C559 C564 1.350 . S
C559 N567 1.427 . S
C560 H551 0.930 . S
C560 C558 1.378 . S
C560 C561 1.367 . S
C561 C560 1.367 . S
C561 C563 1.433 . S
C562 C558 1.350 . S
C562 C559 1.463 . S
C562 N566 1.427 . S
C563 H553 0.929 . S
C563 C561 1.433 . S
C563 N566 1.384 . S
C564 H555 0.929 . S
C564 C556 1.378 . S
C564 C559 1.350 . S
C565 H552 0.929 . S
C565 C557 1.433 . S
C565 N567 1.384 . S
N566 C562 1.427 . S
N566 C563 1.384 . S
N567 C559 1.427 . S
N567 C565 1.384 . S
H568 C574 0.930 . S
H569 C578 0.930 . S
H570 C583 0.929 . S
H571 C581 0.929 . S
H572 C576 0.929 . S
H573 C582 0.929 . S
C574 H568 0.930 . S
C574 C575 1.367 . S
C574 C582 1.378 . S
C575 C574 1.367 . S
C575 C583 1.433 . S
C576 H572 0.929 . S
C576 C578 1.378 . S
C576 C580 1.350 . S
C577 C580 1.463 . S
C577 C582 1.350 . S
C577 N585 1.427 . S
C578 H569 0.930 . S
C578 C576 1.378 . S
C578 C579 1.367 . S
C579 C578 1.367 . S
C579 C581 1.433 . S
C580 C576 1.350 . S
C580 C577 1.463 . S
C580 N584 1.427 . S
C581 H571 0.929 . S
C581 C579 1.433 . S
C581 N584 1.384 . S
C582 H573 0.929 . S
C582 C574 1.378 . S
C582 C577 1.350 . S
C583 H570 0.929 . S
C583 C575 1.433 . S
C583 N585 1.384 . S
N584 C580 1.427 . S
N584 C581 1.384 . S
N585 C577 1.427 . S
N585 C583 1.384 . S
H586 C592 0.930 . S
H587 C596 0.930 . S
H588 C601 0.929 . S
H589 C599 0.929 . S
H590 C594 0.929 . S
H591 C600 0.929 . S
C592 H586 0.930 . S
C592 C593 1.367 . S
C592 C600 1.378 . S
C593 C592 1.367 . S
C593 C601 1.433 . S
C594 H590 0.929 . S
C594 C596 1.378 . S
C594 C598 1.350 . S
C595 C598 1.463 . S
C595 C600 1.350 . S
C595 N603 1.427 . S
C596 H587 0.930 . S
C596 C594 1.378 . S
C596 C597 1.367 . S
C597 C596 1.367 . S
C597 C599 1.433 . S
C598 C594 1.350 . S
C598 C595 1.463 . S
C598 N602 1.427 . S
C599 H589 0.929 . S
C599 C597 1.433 . S
C599 N602 1.384 . S
C600 H591 0.929 . S
C600 C592 1.378 . S
C600 C595 1.350 . S
C601 H588 0.929 . S
C601 C593 1.433 . S
C601 N603 1.384 . S
N602 C598 1.427 . S
N602 C599 1.384 . S
N603 C595 1.427 . S
N603 C601 1.384 . S
H604 C610 0.930 . S
H605 C614 0.930 . S
H606 C619 0.929 . S
H607 C617 0.929 . S
H608 C612 0.929 . S
H609 C618 0.929 . S
C610 H604 0.930 . S
C610 C611 1.367 . S
C610 C618 1.378 . S
C611 C610 1.367 . S
C611 C619 1.433 . S
C612 H608 0.929 . S
C612 C614 1.378 . S
C612 C616 1.350 . S
C613 C616 1.463 . S
C613 C618 1.350 . S
C613 N621 1.427 . S
C614 H605 0.930 . S
C614 C612 1.378 . S
C614 C615 1.367 . S
C615 C614 1.367 . S
C615 C617 1.433 . S
C616 C612 1.350 . S
C616 C613 1.463 . S
C616 N620 1.427 . S
C617 H607 0.929 . S
C617 C615 1.433 . S
C617 N620 1.384 . S
C618 H609 0.929 . S
C618 C610 1.378 . S
C618 C613 1.350 . S
C619 H606 0.929 . S
C619 C611 1.433 . S
C619 N621 1.384 . S
N620 C616 1.427 . S
N620 C617 1.384 . S
N621 C613 1.427 . S
N621 C619 1.384 . S
H622 C628 0.930 . S
H623 C632 0.930 . S
H624 C637 0.929 . S
H625 C635 0.929 . S
H626 C630 0.929 . S
H627 C636 0.929 . S
C628 H622 0.930 . S
C628 C629 1.367 . S
C628 C636 1.378 . S
C629 C628 1.367 . S
C629 C637 1.433 . S
C630 H626 0.929 . S
C630 C632 1.378 . S
C630 C634 1.350 . S
C631 C634 1.463 . S
C631 C636 1.350 . S
C631 N639 1.427 . S
C632 H623 0.930 . S
C632 C630 1.378 . S
C632 C633 1.367 . S
C633 C632 1.367 . S
C633 C635 1.433 . S
C634 C630 1.350 . S
C634 C631 1.463 . S
C634 N638 1.427 . S
C635 H625 0.929 . S
C635 C633 1.433 . S
C635 N638 1.384 . S
C636 H627 0.929 . S
C636 C628 1.378 . S
C636 C631 1.350 . S
C637 H624 0.929 . S
C637 C629 1.433 . S
C637 N639 1.384 . S
N638 C634 1.427 . S
N638 C635 1.384 . S
N639 C631 1.427 . S
N639 C637 1.384 . S
H640 C646 0.930 . S
H641 C650 0.930 . S
H642 C655 0.929 . S
H643 C653 0.929 . S
H644 C648 0.929 . S
H645 C654 0.929 . S
C646 H640 0.930 . S
C646 C647 1.367 1_565 S
C646 C654 1.378 . S
C647 C646 1.367 1_545 S
C647 C655 1.433 . S
C648 H644 0.929 . S
C648 C650 1.378 . S
C648 C652 1.350 1_545 S
C649 C652 1.463 1_545 S
C649 C654 1.350 1_545 S
C649 N657 1.427 . S
C650 H641 0.930 . S
C650 C648 1.378 . S
C650 C651 1.367 1_545 S
C651 C650 1.367 1_565 S
C651 C653 1.433 . S
C652 C648 1.350 1_565 S
C652 C649 1.463 1_565 S
C652 N656 1.427 . S
C653 H643 0.929 . S
C653 C651 1.433 . S
C653 N656 1.384 . S
C654 H645 0.929 . S
C654 C646 1.378 . S
C654 C649 1.350 1_565 S
C655 H642 0.929 . S
C655 C647 1.433 . S
C655 N657 1.384 . S
N656 C652 1.427 . S
N656 C653 1.384 . S
N657 C649 1.427 . S
N657 C655 1.384 . S
H658 C664 0.930 . S
H659 C668 0.930 . S
H660 C673 0.929 . S
H661 C671 0.929 . S
H662 C666 0.929 . S
H663 C672 0.929 . S
C664 H658 0.930 . S
C664 C665 1.367 . S
C664 C672 1.378 . S
C665 C664 1.367 . S
C665 C673 1.433 1_545 S
C666 H662 0.929 . S
C666 C668 1.378 . S
C666 C670 1.350 . S
C667 C670 1.463 1_545 S
C667 C672 1.350 . S
C667 N675 1.427 1_545 S
C668 H659 0.930 . S
C668 C666 1.378 . S
C668 C669 1.367 . S
C669 C668 1.367 . S
C669 C671 1.433 1_565 S
C670 C666 1.350 . S
C670 C667 1.463 1_565 S
C670 N674 1.427 1_565 S
C671 H661 0.929 . S
C671 C669 1.433 1_545 S
C671 N674 1.384 . S
C672 H663 0.929 . S
C672 C664 1.378 . S
C672 C667 1.350 . S
C673 H660 0.929 . S
C673 C665 1.433 1_565 S
C673 N675 1.384 . S
N674 C670 1.427 1_545 S
N674 C671 1.384 . S
N675 C667 1.427 1_565 S
N675 C673 1.384 . S
H676 C682 0.930 . S
H677 C686 0.930 . S
H678 C691 0.929 . S
H679 C689 0.929 . S
H680 C684 0.929 . S
H681 C690 0.929 . S
C682 H676 0.930 . S
C682 C683 1.367 . S
C682 C690 1.378 . S
C683 C682 1.367 . S
C683 C691 1.433 1_545 S
C684 H680 0.929 . S
C684 C686 1.378 . S
C684 C688 1.350 . S
C685 C688 1.463 1_545 S
C685 C690 1.350 . S
C685 N693 1.427 1_545 S
C686 H677 0.930 . S
C686 C684 1.378 . S
C686 C687 1.367 . S
C687 C686 1.367 . S
C687 C689 1.433 1_565 S
C688 C684 1.350 . S
C688 C685 1.463 1_565 S
C688 N692 1.427 1_565 S
C689 H679 0.929 . S
C689 C687 1.433 1_545 S
C689 N692 1.384 . S
C690 H681 0.929 . S
C690 C682 1.378 . S
C690 C685 1.350 . S
C691 H678 0.929 . S
C691 C683 1.433 1_565 S
C691 N693 1.384 . S
N692 C688 1.427 1_545 S
N692 C689 1.384 . S
N693 C685 1.427 1_565 S
N693 C691 1.384 . S
H694 C700 0.930 . S
H695 C704 0.930 . S
H696 C709 0.929 . S
H697 C707 0.929 . S
H698 C702 0.929 . S
H699 C708 0.929 . S
C700 H694 0.930 . S
C700 C701 1.367 . S
C700 C708 1.378 . S
C701 C700 1.367 . S
C701 C709 1.433 1_565 S
C702 H698 0.929 . S
C702 C704 1.378 . S
C702 C706 1.350 . S
C703 C706 1.463 1_565 S
C703 C708 1.350 . S
C703 N711 1.427 1_565 S
C704 H695 0.930 . S
C704 C702 1.378 . S
C704 C705 1.367 . S
C705 C704 1.367 . S
C705 C707 1.433 1_545 S
C706 C702 1.350 . S
C706 C703 1.463 1_545 S
C706 N710 1.427 1_545 S
C707 H697 0.929 . S
C707 C705 1.433 1_565 S
C707 N710 1.384 . S
C708 H699 0.929 . S
C708 C700 1.378 . S
C708 C703 1.350 . S
C709 H696 0.929 . S
C709 C701 1.433 1_545 S
C709 N711 1.384 . S
N710 C706 1.427 1_565 S
N710 C707 1.384 . S
N711 C703 1.427 1_545 S
N711 C709 1.384 . S
H712 C718 0.930 . S
H713 C722 0.930 . S
H714 C727 0.929 . S
H715 C725 0.929 . S
H716 C720 0.929 . S
H717 C726 0.929 . S
C718 H712 0.930 . S
C718 C719 1.367 . S
C718 C726 1.378 . S
C719 C718 1.367 . S
C719 C727 1.433 . S
C720 H716 0.929 . S
C720 C722 1.378 . S
C720 C724 1.350 . S
C721 C724 1.463 . S
C721 C726 1.350 . S
C721 N729 1.427 . S
C722 H713 0.930 . S
C722 C720 1.378 . S
C722 C723 1.367 . S
C723 C722 1.367 . S
C723 C725 1.433 . S
C724 C720 1.350 . S
C724 C721 1.463 . S
C724 N728 1.427 . S
C725 H715 0.929 . S
C725 C723 1.433 . S
C725 N728 1.384 . S
C726 H717 0.929 . S
C726 C718 1.378 . S
C726 C721 1.350 . S
C727 H714 0.929 . S
C727 C719 1.433 . S
C727 N729 1.384 . S
N728 C724 1.427 . S
N728 C725 1.384 . S
N729 C721 1.427 . S
N729 C727 1.384 . S
H730 C736 0.930 . S
H731 C740 0.930 . S
H732 C745 0.929 . S
H733 C743 0.929 . S
H734 C738 0.929 . S
H735 C744 0.929 . S
C736 H730 0.930 . S
C736 C737 1.367 . S
C736 C744 1.378 . S
C737 C736 1.367 . S
C737 C745 1.433 . S
C738 H734 0.929 . S
C738 C740 1.378 . S
C738 C742 1.350 . S
C739 C742 1.463 . S
C739 C744 1.350 . S
C739 N747 1.427 . S
C740 H731 0.930 . S
C740 C738 1.378 . S
C740 C741 1.367 . S
C741 C740 1.367 . S
C741 C743 1.433 . S
C742 C738 1.350 . S
C742 C739 1.463 . S
C742 N746 1.427 . S
C743 H733 0.929 . S
C743 C741 1.433 . S
C743 N746 1.384 . S
C744 H735 0.929 . S
C744 C736 1.378 . S
C744 C739 1.350 . S
C745 H732 0.929 . S
C745 C737 1.433 . S
C745 N747 1.384 . S
N746 C742 1.427 . S
N746 C743 1.384 . S
N747 C739 1.427 . S
N747 C745 1.384 . S
H748 C754 0.930 . S
H749 C758 0.930 . S
H750 C763 0.929 . S
H751 C761 0.929 . S
H752 C756 0.929 . S
H753 C762 0.929 . S
C754 H748 0.930 . S
C754 C755 1.367 . S
C754 C762 1.378 . S
C755 C754 1.367 . S
C755 C763 1.433 . S
C756 H752 0.929 . S
C756 C758 1.378 . S
C756 C760 1.350 . S
C757 C760 1.463 . S
C757 C762 1.350 . S
C757 N765 1.427 . S
C758 H749 0.930 . S
C758 C756 1.378 . S
C758 C759 1.367 . S
C759 C758 1.367 . S
C759 C761 1.433 . S
C760 C756 1.350 . S
C760 C757 1.463 . S
C760 N764 1.427 . S
C761 H751 0.929 . S
C761 C759 1.433 . S
C761 N764 1.384 . S
C762 H753 0.929 . S
C762 C754 1.378 . S
C762 C757 1.350 . S
C763 H750 0.929 . S
C763 C755 1.433 . S
C763 N765 1.384 . S
N764 C760 1.427 . S
N764 C761 1.384 . S
N765 C757 1.427 . S
N765 C763 1.384 . S
H766 C772 0.930 . S
H767 C776 0.930 . S
H768 C781 0.929 . S
H769 C779 0.929 . S
H770 C774 0.929 . S
H771 C780 0.929 . S
C772 H766 0.930 . S
C772 C773 1.367 . S
C772 C780 1.378 . S
C773 C772 1.367 . S
C773 C781 1.433 . S
C774 H770 0.929 . S
C774 C776 1.378 . S
C774 C778 1.350 . S
C775 C778 1.463 . S
C775 C780 1.350 . S
C775 N783 1.427 . S
C776 H767 0.930 . S
C776 C774 1.378 . S
C776 C777 1.367 . S
C777 C776 1.367 . S
C777 C779 1.433 . S
C778 C774 1.350 . S
C778 C775 1.463 . S
C778 N782 1.427 . S
C779 H769 0.929 . S
C779 C777 1.433 . S
C779 N782 1.384 . S
C780 H771 0.929 . S
C780 C772 1.378 . S
C780 C775 1.350 . S
C781 H768 0.929 . S
C781 C773 1.433 . S
C781 N783 1.384 . S
N782 C778 1.427 . S
N782 C779 1.384 . S
N783 C775 1.427 . S
N783 C781 1.384 . S
C215 C1 1.523 . S
C219 C66 1.512 . S
C233 C53 1.511 . S
C237 C14 1.523 . S
C251 C27 1.524 . S
C255 C92 1.510 . S
C269 C79 1.510 . S
C273 C40 1.524 . S
C287 C170 1.511 . S
C291 C105 1.523 . S
C305 C157 1.511 . S
C309 C118 1.523 . S
C323 C196 1.516 . S
C327 C131 1.526 . S
C341 C144 1.523 . S
C345 C183 1.510 . S
C359 C23 1.515 . S
C363 C10 1.515 . S
C377 C36 1.511 . S
C381 C49 1.512 . S
C395 C62 1.529 . S
C399 C75 1.531 . S
C413 C88 1.530 . S
C417 C101 1.531 . S
C431 C114 1.507 . S
C435 C127 1.508 . S
C449 C153 1.511 . S
C453 C140 1.510 . S
C467 C179 1.531 . S
C471 C166 1.529 . S
C485 C192 1.531 . S
C489 C205 1.529 . S
C503 C122 1.505 . S
C507 C5 1.503 . S
C521 C18 1.503 . S
C525 C109 1.505 . S
C539 C148 1.506 . S
C543 C31 1.504 . S
C557 C44 1.507 . S
C561 C135 1.508 . S
C575 C57 1.529 . S
C579 C174 1.528 . S
C593 C161 1.530 . S
C597 C70 1.530 . S
C611 C83 1.530 . S
C615 C200 1.531 . S
C629 C187 1.530 . S
C633 C96 1.529 . S
C647 C3 1.535 . S
C651 C29 1.535 . S
C665 C42 1.532 . S
C669 C16 1.532 . S
C683 C81 1.512 . S
C687 C55 1.513 . S
C701 C94 1.513 . S
C705 C68 1.513 . S
C719 C133 1.533 . S
C723 C107 1.534 . S
C737 C120 1.533 . S
C741 C146 1.533 . S
C755 C185 1.512 . S
C759 C159 1.513 . S
C773 C172 1.503 . S
C777 C198 1.504 . S
