# Generated by pormake.
# Topology ech, (8)-cn, num edge types: 1
# Building blocks:
#     Node 0, Type 0, BuildingBlock: LIZSOE_clean_sbu_0, # of connection points: 8
#     Node 1, Type 0, BuildingBlock: LIZSOE_clean_sbu_0, # of connection points: 8
#     Node 2, Type 0, BuildingBlock: LIZSOE_clean_sbu_0, # of connection points: 8
#     Node 3, Type 0, BuildingBlock: LIZSOE_clean_sbu_0, # of connection points: 8
#     Node 4, Type 0, BuildingBlock: LIZSOE_clean_sbu_0, # of connection points: 8
#     Node 5, Type 0, BuildingBlock: LIZSOE_clean_sbu_0, # of connection points: 8
#     Node 6, Type 0, BuildingBlock: LIZSOE_clean_sbu_0, # of connection points: 8
#     Node 7, Type 0, BuildingBlock: LIZSOE_clean_sbu_0, # of connection points: 8
#     Node 8, Type 0, BuildingBlock: LIZSOE_clean_sbu_0, # of connection points: 8
#     Node 9, Type 0, BuildingBlock: LIZSOE_clean_sbu_0, # of connection points: 8
#     Node 10, Type 0, BuildingBlock: LIZSOE_clean_sbu_0, # of connection points: 8
#     Node 11, Type 0, BuildingBlock: LIZSOE_clean_sbu_0, # of connection points: 8
#     Node 12, Type 0, BuildingBlock: LIZSOE_clean_sbu_0, # of connection points: 8
#     Node 13, Type 0, BuildingBlock: LIZSOE_clean_sbu_0, # of connection points: 8
#     Node 14, Type 0, BuildingBlock: LIZSOE_clean_sbu_0, # of connection points: 8
#     Node 15, Type 0, BuildingBlock: LIZSOE_clean_sbu_0, # of connection points: 8
#     Node 16, Type 0, BuildingBlock: LIZSOE_clean_sbu_0, # of connection points: 8
#     Node 17, Type 0, BuildingBlock: LIZSOE_clean_sbu_0, # of connection points: 8
#     Node 18, Type 0, BuildingBlock: LIZSOE_clean_sbu_0, # of connection points: 8
#     Node 19, Type 0, BuildingBlock: LIZSOE_clean_sbu_0, # of connection points: 8
#     Node 20, Type 0, BuildingBlock: LIZSOE_clean_sbu_0, # of connection points: 8
#     Node 21, Type 0, BuildingBlock: LIZSOE_clean_sbu_0, # of connection points: 8
#     Node 22, Type 0, BuildingBlock: LIZSOE_clean_sbu_0, # of connection points: 8
#     Node 23, Type 0, BuildingBlock: LIZSOE_clean_sbu_0, # of connection points: 8
#     Edge 24, Type (0, 0), None
#     Edge 25, Type (0, 0), None
#     Edge 26, Type (0, 0), None
#     Edge 27, Type (0, 0), None
#     Edge 28, Type (0, 0), None
#     Edge 29, Type (0, 0), None
#     Edge 30, Type (0, 0), None
#     Edge 31, Type (0, 0), None
#     Edge 32, Type (0, 0), None
#     Edge 33, Type (0, 0), None
#     Edge 34, Type (0, 0), None
#     Edge 35, Type (0, 0), None
#     Edge 36, Type (0, 0), None
#     Edge 37, Type (0, 0), None
#     Edge 38, Type (0, 0), None
#     Edge 39, Type (0, 0), None
#     Edge 40, Type (0, 0), None
#     Edge 41, Type (0, 0), None
#     Edge 42, Type (0, 0), None
#     Edge 43, Type (0, 0), None
#     Edge 44, Type (0, 0), None
#     Edge 45, Type (0, 0), None
#     Edge 46, Type (0, 0), None
#     Edge 47, Type (0, 0), None
#     Edge 48, Type (0, 0), None
#     Edge 49, Type (0, 0), None
#     Edge 50, Type (0, 0), None
#     Edge 51, Type (0, 0), None
#     Edge 52, Type (0, 0), None
#     Edge 53, Type (0, 0), None
#     Edge 54, Type (0, 0), None
#     Edge 55, Type (0, 0), None
#     Edge 56, Type (0, 0), None
#     Edge 57, Type (0, 0), None
#     Edge 58, Type (0, 0), None
#     Edge 59, Type (0, 0), None
#     Edge 60, Type (0, 0), None
#     Edge 61, Type (0, 0), None
#     Edge 62, Type (0, 0), None
#     Edge 63, Type (0, 0), None
#     Edge 64, Type (0, 0), None
#     Edge 65, Type (0, 0), None
#     Edge 66, Type (0, 0), None
#     Edge 67, Type (0, 0), None
#     Edge 68, Type (0, 0), None
#     Edge 69, Type (0, 0), None
#     Edge 70, Type (0, 0), None
#     Edge 71, Type (0, 0), None
#     Edge 72, Type (0, 0), None
#     Edge 73, Type (0, 0), None
#     Edge 74, Type (0, 0), None
#     Edge 75, Type (0, 0), None
#     Edge 76, Type (0, 0), None
#     Edge 77, Type (0, 0), None
#     Edge 78, Type (0, 0), None
#     Edge 79, Type (0, 0), None
#     Edge 80, Type (0, 0), None
#     Edge 81, Type (0, 0), None
#     Edge 82, Type (0, 0), None
#     Edge 83, Type (0, 0), None
#     Edge 84, Type (0, 0), None
#     Edge 85, Type (0, 0), None
#     Edge 86, Type (0, 0), None
#     Edge 87, Type (0, 0), None
#     Edge 88, Type (0, 0), None
#     Edge 89, Type (0, 0), None
#     Edge 90, Type (0, 0), None
#     Edge 91, Type (0, 0), None
#     Edge 92, Type (0, 0), None
#     Edge 93, Type (0, 0), None
#     Edge 94, Type (0, 0), None
#     Edge 95, Type (0, 0), None
#     Edge 96, Type (0, 0), None
#     Edge 97, Type (0, 0), None
#     Edge 98, Type (0, 0), None
#     Edge 99, Type (0, 0), None
#     Edge 100, Type (0, 0), None
#     Edge 101, Type (0, 0), None
#     Edge 102, Type (0, 0), None
#     Edge 103, Type (0, 0), None
#     Edge 104, Type (0, 0), None
#     Edge 105, Type (0, 0), None
#     Edge 106, Type (0, 0), None
#     Edge 107, Type (0, 0), None
#     Edge 108, Type (0, 0), None
#     Edge 109, Type (0, 0), None
#     Edge 110, Type (0, 0), None
#     Edge 111, Type (0, 0), None
#     Edge 112, Type (0, 0), None
#     Edge 113, Type (0, 0), None
#     Edge 114, Type (0, 0), None
#     Edge 115, Type (0, 0), None
#     Edge 116, Type (0, 0), None
#     Edge 117, Type (0, 0), None
#     Edge 118, Type (0, 0), None
#     Edge 119, Type (0, 0), None
# Relax obj value: 0.566
# Max RMSD: 0.278
# Mean RMSD: 0.276
data_MOF--net-ech--node1-LIZSOE_clean_sbu_0--edge1-none
_symmetry_space_group_name_H-M    P1
_symmetry_Int_Tables_number       1
_symmetry_cell_setting            triclinic
loop_
_symmetry_equiv_pos_as_xyz
'x, y, z'
_cell_length_a     22.998365
_cell_length_b     22.99901
_cell_length_c     23.000255
_cell_angle_alpha  90.003213
_cell_angle_beta   89.999162
_cell_angle_gamma 90.000304
loop_
_atom_site_label
_atom_site_type_symbol
_atom_site_fract_x
_atom_site_fract_y
_atom_site_fract_z
_atom_type_partial_charge
Co0 Co 0.31924 0.30139 0.53744 0.0
N1 N 0.38412 0.3221 0.49347 0.0
C2 C 0.43163 0.3542 0.50466 0.0
N3 N 0.45003 0.30569 0.42291 0.0
C4 C 0.39447 0.29837 0.44027 0.0
C5 C 0.47248 0.34344 0.46185 0.0
Co6 Co 1.07724 0.37352 0.56543 0.0
N7 N 0.99879 0.3702 0.56828 0.0
N8 N 0.95835 0.45467 0.53152 0.0
C9 C 0.96471 0.45689 0.58832 0.0
C10 C 0.99192 0.41012 0.60955 0.0
C11 C 0.96882 0.39581 0.52347 0.0
Co12 Co 0.20023 0.33719 0.57079 0.0
C13 C 0.12315 0.41216 0.50909 0.0
H14 H 1.01286 0.41083 0.65104 0.0
O15 O 0.25774 0.26884 0.58109 0.0
O16 O 0.17416 0.30027 0.49339 0.0
O17 O 0.24431 0.39987 0.52543 0.0
O18 O 0.24031 0.38555 0.63597 0.0
O19 O 0.32439 0.38026 0.58835 0.0
O20 O 0.08468 0.29571 0.5252 0.0
O21 O 0.14496 0.39573 0.55819 0.0
O22 O 0.09256 0.34937 0.65055 0.0
O23 O 0.27688 0.3325 0.47437 0.0
O24 O 0.35493 0.26604 0.59175 0.0
O25 O 0.1898 0.36067 0.65914 0.0
O26 O 1.07377 0.39249 0.49321 0.0
C27 C 0.26995 0.38555 0.47958 0.0
C28 C 0.93463 0.35598 0.4866 0.0
H29 H 0.96498 0.33491 0.45627 0.0
H30 H 0.91868 0.31901 0.51319 0.0
H31 H 0.89606 0.37789 0.46911 0.0
C32 C 0.1212 0.28642 0.48326 0.0
C33 C 0.29181 0.40757 0.62628 0.0
H34 H 0.43808 0.37987 0.54351 0.0
H35 H 0.3183 0.24313 0.43166 0.0
H36 H 0.36762 0.24011 0.3699 0.0
H37 H 0.32249 0.30154 0.38113 0.0
C38 C 0.34854 0.26846 0.40394 0.0
C39 C 0.30482 0.24386 0.60396 0.0
C40 C 0.138 0.35603 0.6839 0.0
H41 H 0.51587 0.36093 0.46059 0.0
H42 H 0.92653 0.46721 0.61083 0.0
Co43 Co 0.58114 0.78481 1.06545 0.0
N44 N 0.65959 0.78805 1.0683 0.0
C45 C 0.66653 0.74817 0.10961 0.0
N46 N 0.70013 0.7036 1.03162 0.0
C47 C 0.68953 0.76241 1.02348 0.0
C48 C 0.69379 0.70141 0.08842 0.0
Co49 Co 0.33914 0.85695 1.03748 0.0
N50 N 0.27426 0.83625 0.99349 0.0
N51 N 0.20835 0.8527 0.92293 0.0
C52 C 0.18589 0.81495 0.96186 0.0
C53 C 0.22673 0.80416 1.00468 0.0
C54 C 0.26392 0.85999 0.94031 0.0
Co55 Co 0.45816 0.82119 1.07081 0.0
C56 C 0.35354 0.91447 0.104 0.0
H57 H 0.22026 0.77849 1.04352 0.0
O58 O 0.51342 0.76265 1.05821 0.0
O59 O 0.41409 0.7585 1.02545 0.0
O60 O 0.48426 0.85812 0.99342 0.0
O61 O 0.46859 0.79771 0.15917 0.0
O62 O 0.56584 0.80894 0.15058 0.0
O63 O 0.3815 0.82586 0.97439 0.0
O64 O 0.40063 0.88952 0.08111 0.0
O65 O 0.334 0.77808 0.08837 0.0
O66 O 0.57375 0.86263 1.02523 0.0
O67 O 0.58459 0.76587 0.99321 0.0
O68 O 0.41807 0.77283 0.13599 0.0
O69 O 0.30344 0.89226 0.09183 0.0
C70 C 0.53723 0.87194 0.98329 0.0
C71 C 0.30987 0.88985 0.90395 0.0
H72 H 0.33591 0.85673 0.88118 0.0
H73 H 0.29081 0.91816 0.86988 0.0
H74 H 0.34011 0.9152 0.93165 0.0
C75 C 0.38845 0.77281 0.97959 0.0
C76 C 0.5204 0.80231 0.18393 0.0
H77 H 0.64551 0.74744 0.15106 0.0
H78 H 0.76216 0.78029 0.96902 0.0
H79 H 0.73952 0.83927 1.01297 0.0
H80 H 0.69314 0.82311 0.95614 0.0
C81 C 0.72359 0.80221 0.98649 0.0
C82 C 0.53522 0.74619 1.00912 0.0
C83 C 0.36659 0.75078 0.1263 0.0
H84 H 0.73197 0.69137 0.11108 0.0
H85 H 0.14249 0.79745 0.96058 0.0
Co86 Co 0.81922 0.35696 0.62086 0.0
N87 N 0.88411 0.33625 0.66484 0.0
C88 C 0.93162 0.30415 0.65364 0.0
N89 N 0.95002 0.35267 0.73539 0.0
C90 C 0.89445 0.35997 0.71803 0.0
C91 C 0.97247 0.31492 0.69645 0.0
Co92 Co 0.57724 0.28482 0.59286 0.0
N93 N 0.49879 0.28812 0.59001 0.0
N94 N 0.45837 0.20364 0.62677 0.0
C95 C 0.46473 0.20142 0.56997 0.0
C96 C 0.49192 0.2482 0.54874 0.0
C97 C 0.46883 0.2625 0.63482 0.0
Co98 Co 0.70022 0.32116 0.58751 0.0
C99 C 0.62315 0.24617 0.64919 0.0
H100 H 0.51285 0.24751 0.50724 0.0
O101 O 0.75773 0.3895 0.57722 0.0
O102 O 0.67414 0.35807 0.66491 0.0
O103 O 0.74431 0.25848 0.63288 0.0
O104 O 0.74031 0.2728 0.52233 0.0
O105 O 0.82438 0.27809 0.56996 0.0
O106 O 0.58466 0.36262 0.63309 0.0
O107 O 0.64496 0.26262 0.6001 0.0
O108 O 0.59255 0.30897 0.50774 0.0
O109 O 0.77687 0.32585 0.68394 0.0
O110 O 0.85491 0.3923 0.56654 0.0
O111 O 0.6898 0.29768 0.49916 0.0
O112 O 0.57377 0.26583 0.66509 0.0
C113 C 0.76994 0.2728 0.67874 0.0
C114 C 0.43465 0.30232 0.67172 0.0
H115 H 0.46501 0.32335 0.70206 0.0
H116 H 0.4187 0.3393 0.64515 0.0
H117 H 0.39608 0.28039 0.68919 0.0
C118 C 0.62118 0.37191 0.67503 0.0
C119 C 0.7918 0.25077 0.53202 0.0
H120 H 0.93807 0.27848 0.61479 0.0
H121 H 0.81827 0.4152 0.72667 0.0
H122 H 0.8676 0.41821 0.78842 0.0
H123 H 0.82247 0.35678 0.77717 0.0
C124 C 0.84852 0.38987 0.75438 0.0
C125 C 0.8048 0.41447 0.55433 0.0
C126 C 0.638 0.30232 0.4744 0.0
H127 H 1.01587 0.29743 0.69771 0.0
H128 H 0.42655 0.1911 0.54747 0.0
Co129 Co 0.08113 0.87357 0.09285 0.0
N130 N 0.15959 0.87035 0.08999 0.0
C131 C 0.16653 0.91021 1.04869 0.0
N132 N 0.20012 0.9548 0.12667 0.0
C133 C 0.18952 0.89599 0.13482 0.0
C134 C 0.19378 0.95699 1.06988 0.0
Co135 Co 0.83915 0.80141 0.12082 0.0
N136 N 0.77427 0.82211 0.16481 0.0
N137 N 0.70836 0.80564 0.23537 0.0
C138 C 0.6859 0.84341 0.19645 0.0
C139 C 0.72674 0.85419 0.15363 0.0
C140 C 0.76393 0.79836 0.21799 0.0
Co141 Co 0.95817 0.83719 0.08749 0.0
C142 C 0.85356 0.7439 1.05429 0.0
H143 H 0.72028 0.87987 0.11479 0.0
O144 O 1.01341 0.89573 0.10009 0.0
O145 O 0.91408 0.89986 0.13286 0.0
O146 O 0.98427 0.80026 0.16488 0.0
O147 O 0.96859 0.86066 0.99914 0.0
O148 O 1.06585 0.84944 1.00772 0.0
O149 O 0.88152 0.83249 0.18391 0.0
O150 O 0.90065 0.76885 1.07718 0.0
O151 O 0.83401 0.88028 1.06994 0.0
O152 O 1.07375 0.79575 0.13307 0.0
O153 O 0.08458 0.89252 0.16509 0.0
O154 O 0.91808 0.88554 1.02231 0.0
O155 O 0.80346 0.7661 1.06646 0.0
C156 C 1.03723 0.78644 0.17501 0.0
C157 C 0.80988 0.76852 0.25435 0.0
H158 H 0.83593 0.80164 0.27712 0.0
H159 H 0.79083 0.74021 0.28844 0.0
H160 H 0.84013 0.74317 0.22666 0.0
C161 C 0.88846 0.88554 0.17872 0.0
C162 C 1.0204 0.85606 0.97438 0.0
H163 H 0.14553 0.91093 1.00722 0.0
H164 H 0.26215 0.87811 0.18928 0.0
H165 H 0.23949 0.81912 0.14534 0.0
H166 H 0.19312 0.8353 0.20217 0.0
C167 C 0.22357 0.85619 0.17182 0.0
C168 C 1.03521 0.9122 0.14918 0.0
C169 C 0.86659 0.90758 1.03201 0.0
H170 H 0.23196 0.96704 1.04721 0.0
H171 H 0.64251 0.8609 0.19773 0.0
Co172 Co 0.53759 0.31926 0.30137 0.0
N173 N 0.49358 0.38414 0.32204 0.0
C174 C 0.50474 0.43166 0.35414 0.0
N175 N 0.423 0.45003 0.30558 0.0
C176 C 0.44039 0.39447 0.29829 0.0
C177 C 0.46192 0.4725 0.34334 0.0
Co178 Co 0.56549 1.07729 0.37355 0.0
N179 N 0.56833 0.99884 0.37028 0.0
N180 N 0.53155 0.95837 0.45473 0.0
C181 C 0.58836 0.9647 0.45694 0.0
C182 C 0.6096 0.99193 0.41019 0.0
C183 C 0.52349 0.96889 0.39588 0.0
Co184 Co 0.57088 0.20026 0.3372 0.0
C185 C 0.50914 0.12321 0.41217 0.0
H186 H 0.65109 1.01288 0.41092 0.0
O187 O 0.58127 0.25775 0.26884 0.0
O188 O 0.49349 0.17417 0.30024 0.0
O189 O 0.5255 0.24436 0.39987 0.0
O190 O 0.63606 0.24032 0.38557 0.0
O191 O 0.58846 0.32443 0.38026 0.0
O192 O 0.52531 0.08469 0.29573 0.0
O193 O 0.55825 0.14501 0.39573 0.0
O194 O 0.65063 0.09257 0.34944 0.0
O195 O 0.4745 0.27689 0.33243 0.0
O196 O 0.59192 0.35496 0.26608 0.0
O197 O 0.65923 0.18981 0.3607 0.0
O198 O 0.49324 1.07384 0.39248 0.0
C199 C 0.47968 0.27004 0.38548 0.0
C200 C 0.4866 0.93475 0.35603 0.0
H201 H 0.45625 0.96514 0.33503 0.0
H202 H 0.51317 0.91885 0.31902 0.0
H203 H 0.46914 0.89615 0.3779 0.0
C204 C 0.48337 0.1212 0.28641 0.0
C205 C 0.62637 0.29182 0.40757 0.0
H206 H 0.54358 0.43813 0.37983 0.0
H207 H 0.43176 0.31828 0.24308 0.0
H208 H 0.36996 0.36755 0.24011 0.0
H209 H 0.38128 0.32246 0.30154 0.0
C210 C 0.40405 0.34851 0.26843 0.0
C211 C 0.60408 0.30487 0.24386 0.0
C212 C 0.68398 0.138 0.35608 0.0
H213 H 0.46063 0.51589 0.36084 0.0
H214 H 0.61085 0.9265 0.46724 0.0
Co215 Co 0.0929 0.08107 0.87354 0.0
N216 N 0.09005 0.15952 0.8703 0.0
C217 C 1.04876 0.16648 0.91018 0.0
N218 N 0.12677 0.20011 0.9547 0.0
C219 C 0.13489 0.18947 0.89589 0.0
C220 C 1.06997 0.19377 0.95692 0.0
Co221 Co 0.12082 0.8391 0.80136 0.0
N222 N 0.16483 0.77423 0.82204 0.0
N223 N 0.2354 0.70833 0.80558 0.0
C224 C 0.19647 0.68586 0.84334 0.0
C225 C 0.15365 0.7267 0.85413 0.0
C226 C 0.21802 0.7639 0.79831 0.0
Co227 Co 0.08751 0.95811 0.83717 0.0
C228 C 1.05432 0.85349 0.74383 0.0
H229 H 0.1148 0.72024 0.8798 0.0
O230 O 0.10014 1.01335 0.89571 0.0
O231 O 0.13289 0.91401 0.89985 0.0
O232 O 0.16491 0.9842 0.80022 0.0
O233 O 0.99916 0.96855 0.86067 0.0
O234 O 1.00776 1.0658 0.84945 0.0
O235 O 0.18391 0.88147 0.83243 0.0
O236 O 1.07715 0.9006 0.76882 0.0
O237 O 1.06993 0.83394 0.88024 0.0
O238 O 0.13308 1.07368 0.79571 0.0
O239 O 0.16515 0.08452 0.89246 0.0
O240 O 1.02232 0.91804 0.88553 0.0
O241 O 1.0665 0.80339 0.76604 0.0
C242 C 0.17502 1.03717 0.78639 0.0
C243 C 0.25436 0.80983 0.76841 0.0
H244 H 0.27716 0.83588 0.8015 0.0
H245 H 0.28841 0.79076 0.74007 0.0
H246 H 0.22664 0.84007 0.74308 0.0
C247 C 0.1787 0.88833 0.88549 0.0
C248 C 0.9744 1.02037 0.85608 0.0
H249 H 1.00729 0.14547 0.91094 0.0
H250 H 0.18929 0.26215 0.87787 0.0
H251 H 0.14527 0.23942 0.81899 0.0
H252 H 0.20216 0.19311 0.83507 0.0
C253 C 0.17182 0.22354 0.85602 0.0
C254 C 0.14925 1.03515 0.91214 0.0
C255 C 1.03202 0.86656 0.90755 0.0
H256 H 1.04731 0.23193 0.96699 0.0
H257 H 0.19775 0.64247 0.86082 0.0
Co258 Co 1.03758 0.33911 0.85693 0.0
N259 N 0.99357 0.27423 0.83625 0.0
C260 C 1.00475 0.2267 0.80416 0.0
N261 N 0.92301 0.20832 0.85271 0.0
C262 C 0.94038 0.2639 0.85999 0.0
C263 C 0.96194 0.18586 0.81496 0.0
Co264 Co 1.0655 0.58108 0.78473 0.0
N265 N 1.06834 0.65953 0.78801 0.0
N266 N 1.03156 0.69999 0.70357 0.0
C267 C 0.08836 0.69367 0.70135 0.0
C268 C 0.10961 0.66644 0.7481 0.0
C269 C 1.0235 0.68947 0.76242 0.0
Co270 Co 1.07088 0.45811 0.82109 0.0
C271 C 1.00915 0.53516 0.74612 0.0
H272 H 0.1511 0.64549 0.74737 0.0
O273 O 0.08125 0.40061 0.88945 0.0
O274 O 0.99348 0.4842 0.85804 0.0
O275 O 1.02549 0.414 0.75842 0.0
O276 O 0.13606 0.41804 0.77272 0.0
O277 O 0.08845 0.33394 0.77804 0.0
O278 O 1.02531 0.57368 0.86255 0.0
O279 O 1.05825 0.51335 0.76255 0.0
O280 O 0.15063 0.5658 0.80885 0.0
O281 O 0.97449 0.38148 0.82587 0.0
O282 O 0.09191 0.30341 0.89222 0.0
O283 O 0.15923 0.46855 0.79759 0.0
O284 O 0.99326 0.58454 0.76579 0.0
C285 C 0.97967 0.38833 0.77281 0.0
C286 C 0.98658 0.72357 0.80227 0.0
H287 H 0.95621 0.69315 0.82321 0.0
H288 H 1.01311 0.73945 0.83931 0.0
H289 H 0.96912 0.76218 0.78042 0.0
C290 C 0.98336 0.53717 0.87186 0.0
C291 C 0.12636 0.36654 0.75072 0.0
H292 H 1.0436 0.22023 0.77849 0.0
H293 H 0.93172 0.3401 0.91518 0.0
H294 H 0.86994 0.2908 0.91816 0.0
H295 H 0.88124 0.33588 0.85673 0.0
C296 C 0.90402 0.30985 0.88984 0.0
C297 C 0.10409 0.35351 0.91443 0.0
C298 C 0.18398 0.52036 0.80221 0.0
H299 H 0.96066 0.14246 0.79747 0.0
H300 H 0.11085 0.73187 0.69105 0.0
Co301 Co 0.59288 0.57726 0.28474 0.0
N302 N 0.59003 0.49882 0.28798 0.0
C303 C 0.54874 0.49185 0.2481 0.0
N304 N 0.62676 0.45824 0.20357 0.0
C305 C 0.63487 0.46888 0.26239 0.0
C306 C 0.56996 0.46458 0.20136 0.0
Co307 Co 0.62083 0.81924 0.35694 0.0
N308 N 0.66484 0.88411 0.33625 0.0
N309 N 0.7354 0.95002 0.35271 0.0
C310 C 0.69646 0.97249 0.31497 0.0
C311 C 0.65364 0.93164 0.30418 0.0
C312 C 0.71804 0.89445 0.35996 0.0
Co313 Co 0.58751 0.70024 0.32112 0.0
C314 C 0.55432 0.80484 0.41446 0.0
H315 H 0.61479 0.93811 0.27852 0.0
O316 O 0.60013 0.64499 0.26258 0.0
O317 O 0.63289 0.74433 0.25844 0.0
O318 O 0.66491 0.67413 0.35806 0.0
O319 O 0.49916 0.68979 0.29763 0.0
O320 O 0.50775 0.59254 0.30885 0.0
O321 O 0.68392 0.77687 0.32586 0.0
O322 O 0.57716 0.75774 0.38948 0.0
O323 O 0.56994 0.8244 0.27806 0.0
O324 O 0.63307 0.58465 0.36257 0.0
O325 O 0.66513 0.57381 0.26581 0.0
O326 O 0.52232 0.74031 0.27277 0.0
O327 O 0.56652 0.85495 0.39227 0.0
C328 C 0.67502 0.62116 0.37188 0.0
C329 C 0.75439 0.84851 0.38985 0.0
H330 H 0.77721 0.82248 0.35676 0.0
H331 H 0.78843 0.86759 0.4182 0.0
H332 H 0.72668 0.81826 0.41517 0.0
C333 C 0.67871 0.77001 0.27281 0.0
C334 C 0.4744 0.63798 0.30223 0.0
H335 H 0.50728 0.51287 0.24735 0.0
H336 H 0.68932 0.39624 0.2804 0.0
H337 H 0.64536 0.41899 0.33931 0.0
H338 H 0.70221 0.46532 0.32311 0.0
C339 C 0.67185 0.43485 0.30224 0.0
C340 C 0.64924 0.62319 0.24615 0.0
C341 C 0.53202 0.7918 0.25075 0.0
H342 H 0.5473 0.42641 0.1913 0.0
H343 H 0.69772 1.01589 0.29749 0.0
Co344 Co 0.37359 0.56549 1.07719 0.0
N345 N 0.37034 0.56834 0.99875 0.0
C346 C 0.41022 0.60964 0.99181 0.0
N347 N 0.45477 0.53165 0.95819 0.0
C348 C 0.39596 0.52351 0.9688 0.0
C349 C 0.45698 0.58845 0.96455 0.0
Co350 Co 0.30141 0.53751 0.31915 0.0
N351 N 0.32212 0.49351 0.38401 0.0
N352 N 0.30553 0.42305 0.44995 0.0
C353 C 0.34337 0.4619 0.4724 0.0
C354 C 0.3542 0.5047 0.43154 0.0
C355 C 0.29836 0.44033 0.39435 0.0
Co356 Co 0.33721 0.57085 0.20016 0.0
C357 C 0.24386 0.60399 0.30477 0.0
H358 H 0.3799 0.54353 0.438 0.0
O359 O 0.39575 0.55825 0.14491 0.0
O360 O 0.39991 0.52548 0.24425 0.0
O361 O 0.30029 0.49345 0.17406 0.0
O362 O 0.36069 0.6592 0.18973 0.0
O363 O 0.34944 0.65061 0.09248 0.0
O364 O 0.3325 0.47443 0.27678 0.0
O365 O 0.26885 0.58118 0.25767 0.0
O366 O 0.38028 0.58842 0.32432 0.0
O367 O 0.29577 0.52527 0.08458 0.0
O368 O 0.39256 0.49325 1.07374 0.0
O369 O 0.38555 0.63604 0.24023 0.0
O370 O 0.26606 0.5918 0.35487 0.0
C371 C 0.28647 0.48333 0.12109 0.0
C372 C 0.26848 0.40398 0.34842 0.0
H373 H 0.30158 0.38118 0.32238 0.0
H374 H 0.24014 0.36993 0.36749 0.0
H375 H 0.24315 0.43168 0.31817 0.0
C376 C 0.38556 0.47966 0.26993 0.0
C377 C 0.3561 0.68396 0.13792 0.0
H378 H 0.41097 0.65109 1.01285 0.0
H379 H 0.378 0.46909 0.89612 0.0
H380 H 0.31909 0.51311 0.91879 0.0
H381 H 0.33514 0.45624 0.96511 0.0
C382 C 0.35611 0.48658 0.9347 0.0
C383 C 0.41222 0.50916 0.12312 0.0
C384 C 0.40757 0.62635 0.29172 0.0
H385 H 0.46705 0.61113 0.92639 0.0
H386 H 0.36086 0.46062 0.51579 0.0
Co387 Co 0.80141 0.12086 0.83916 0.0
N388 N 0.82212 0.16486 0.7743 0.0
C389 C 0.85421 0.15367 0.72678 0.0
N390 N 0.80554 0.23532 0.70836 0.0
C391 C 0.79835 0.21803 0.76396 0.0
C392 C 0.84338 0.19646 0.68591 0.0
Co393 Co 0.87356 0.09287 0.08112 0.0
N394 N 0.87024 0.09002 0.15957 0.0
N395 N 0.95471 0.12679 0.20001 0.0
C396 C 0.95694 1.06999 0.19364 0.0
C397 C 0.91018 1.04876 0.16643 0.0
C398 C 0.89585 0.13484 0.18954 0.0
Co399 Co 0.83723 0.08752 0.95814 0.0
C400 C 0.9122 0.14921 1.03521 0.0
H401 H 0.91091 1.00728 0.14545 0.0
O402 O 0.76885 1.07718 0.90065 0.0
O403 O 0.8003 0.16491 0.98423 0.0
O404 O 0.89993 0.13288 0.91404 0.0
O405 O 0.88557 1.02232 0.91807 0.0
O406 O 0.88027 1.06994 0.83398 0.0
O407 O 0.79575 0.1331 1.0737 0.0
O408 O 0.89576 0.10011 1.0134 0.0
O409 O 0.8494 1.00775 1.06581 0.0
O410 O 0.83251 0.18393 0.88153 0.0
O411 O 0.76604 1.06659 0.80345 0.0
O412 O 0.86071 0.99916 0.96857 0.0
O413 O 0.89255 0.1651 0.0846 0.0
C414 C 0.88557 0.1787 0.88837 0.0
C415 C 0.856 0.1717 0.22373 0.0
H416 H 0.83492 0.20203 0.19339 0.0
H417 H 0.81903 0.14509 0.23966 0.0
H418 H 0.87788 0.18918 0.26232 0.0
C419 C 0.78646 0.17504 1.03719 0.0
C420 C 0.90758 1.03201 0.86658 0.0
H421 H 0.87992 0.11485 0.72033 0.0
H422 H 0.74313 0.22665 0.84013 0.0
H423 H 0.74011 0.28842 0.79082 0.0
H424 H 0.80154 0.27717 0.83594 0.0
C425 C 0.76845 0.25437 0.80989 0.0
C426 C 0.74385 1.05438 0.85354 0.0
C427 C 0.85608 0.97441 1.02038 0.0
H428 H 0.86087 0.19774 0.64252 0.0
H429 H 0.96727 1.04748 0.23182 0.0
Co430 Co 0.85699 1.03751 0.33915 0.0
N431 N 0.83629 0.99351 0.27428 0.0
C432 C 0.80418 1.00467 0.22677 0.0
N433 N 0.85286 0.92303 0.20835 0.0
C434 C 0.86007 0.94035 0.26394 0.0
C435 C 0.815 0.96187 0.18591 0.0
Co436 Co 0.78483 1.06547 0.58111 0.0
N437 N 0.78816 1.06833 0.65956 0.0
N438 N 0.7037 1.03156 0.70001 0.0
C439 C 0.70146 0.08836 0.69364 0.0
C440 C 0.74822 0.10959 0.66642 0.0
C441 C 0.76256 1.02351 0.68954 0.0
Co442 Co 0.82116 1.07084 0.45814 0.0
C443 C 0.74619 1.00913 0.5352 0.0
H444 H 0.74749 0.15106 0.64544 0.0
O445 O 0.88954 0.0812 0.40065 0.0
O446 O 0.85809 0.99343 0.48421 0.0
O447 O 0.75847 1.02548 0.41403 0.0
O448 O 0.77281 0.13603 0.41808 0.0
O449 O 0.77812 0.08843 0.33398 0.0
O450 O 0.86264 1.02524 0.57368 0.0
O451 O 0.76262 1.05823 0.5134 0.0
O452 O 0.80899 0.1506 0.56581 0.0
O453 O 0.82589 0.97444 0.38151 0.0
O454 O 0.89233 0.09178 0.30344 0.0
O455 O 0.79767 0.15919 0.46857 0.0
O456 O 0.76584 0.99325 0.58459 0.0
C457 C 0.77283 0.97967 0.38835 0.0
C458 C 0.80243 0.98669 0.72377 0.0
H459 H 0.82357 0.95638 0.69345 0.0
H460 H 0.83936 1.01334 0.73971 0.0
H461 H 0.78054 0.9692 0.76234 0.0
C462 C 0.87192 0.9833 0.53716 0.0
C463 C 0.75081 0.12635 0.36658 0.0
H464 H 0.77846 1.04349 0.22032 0.0
H465 H 0.91531 0.93175 0.3401 0.0
H466 H 0.91832 0.86996 0.2908 0.0
H467 H 0.85689 0.88123 0.33593 0.0
C468 C 0.88998 0.90402 0.30987 0.0
C469 C 0.91454 0.10398 0.35353 0.0
C470 C 0.8023 0.18395 0.52038 0.0
H471 H 0.79751 0.96058 0.14252 0.0
H472 H 0.69113 0.11087 0.73181 0.0
Co473 Co 0.35698 0.62082 0.81917 0.0
N474 N 0.33628 0.66482 0.88404 0.0
C475 C 0.30418 0.65366 0.93156 0.0
N476 N 0.35286 0.7353 0.94997 0.0
C477 C 0.36007 0.71798 0.89439 0.0
C478 C 0.315 0.69646 0.97242 0.0
Co479 Co 0.28481 0.59287 0.5772 0.0
N480 N 0.2881 0.59002 0.49876 0.0
N481 N 0.20362 0.62677 0.45832 0.0
C482 C 0.20141 0.56997 0.46466 0.0
C483 C 0.24818 0.54875 0.49187 0.0
C484 C 0.26248 0.63484 0.4688 0.0
Co485 Co 0.32117 0.5875 0.70017 0.0
C486 C 0.24617 0.64921 0.62312 0.0
H487 H 0.24745 0.50728 0.51286 0.0
O488 O 0.38953 0.57715 0.75767 0.0
O489 O 0.3581 0.66491 0.67409 0.0
O490 O 0.25847 0.63287 0.74427 0.0
O491 O 0.27281 0.52231 0.74023 0.0
O492 O 0.27811 0.56992 0.82433 0.0
O493 O 0.36262 0.6331 0.58461 0.0
O494 O 0.26263 0.60011 0.64492 0.0
O495 O 0.30896 0.50775 0.59249 0.0
O496 O 0.3259 0.6839 0.77681 0.0
O497 O 0.39229 0.56651 0.85488 0.0
O498 O 0.29768 0.49915 0.68973 0.0
O499 O 0.26584 0.66511 0.57375 0.0
C500 C 0.27284 0.67868 0.76995 0.0
C501 C 0.3023 0.67174 0.43463 0.0
H502 H 0.32335 0.70207 0.465 0.0
H503 H 0.33929 0.64516 0.41868 0.0
H504 H 0.28039 0.68923 0.39607 0.0
C505 C 0.37192 0.67504 0.62112 0.0
C506 C 0.2508 0.532 0.79173 0.0
H507 H 0.27846 0.61484 0.93802 0.0
H508 H 0.41528 0.72663 0.81821 0.0
H509 H 0.41824 0.78843 0.86749 0.0
H510 H 0.35681 0.7771 0.82239 0.0
C511 C 0.38993 0.75434 0.84844 0.0
C512 C 0.41451 0.55434 0.80479 0.0
C513 C 0.3023 0.4744 0.63792 0.0
H514 H 0.2975 0.69776 1.0158 0.0
H515 H 0.19112 0.54747 0.42646 0.0
Co516 Co 1.07074 0.77607 0.56928 0.0
N517 N 0.12802 0.72377 0.58692 0.0
C518 C 0.11679 0.66764 0.57347 0.0
N519 N 0.19194 0.665 0.62964 0.0
C520 C 0.17774 0.72045 0.61707 0.0
C521 C 0.15277 0.63184 0.60246 0.0
Co522 Co 0.80647 0.82146 0.62312 0.0
N523 N 0.73321 0.84521 0.62467 0.0
N524 N 0.667 0.8579 0.69711 0.0
C525 C 0.64569 0.82434 0.65287 0.0
C526 C 0.68544 0.81631 0.60982 0.0
C527 C 0.72278 0.86569 0.67942 0.0
Co528 Co 0.94357 0.81346 0.59502 0.0
C529 C 0.83969 0.7526 0.65598 0.0
H530 H 0.68429 0.78168 0.57799 0.0
O531 O 1.01397 0.82105 0.53797 0.0
O532 O 0.92111 0.88847 0.55193 0.0
O533 O 0.98572 0.86032 0.66012 0.0
O534 O 0.95929 0.7528 0.6577 0.0
O535 O 1.02229 0.71901 0.60394 0.0
O536 O 0.83155 0.8956 0.58392 0.0
O537 O 0.8727 0.79813 0.64087 0.0
O538 O 0.81054 0.76119 0.5489 0.0
O539 O 1.07301 0.81826 0.64668 0.0
O540 O 1.06025 0.74398 0.50104 0.0
O541 O 0.90678 0.76161 0.53329 0.0
O542 O 0.78473 0.75947 0.65898 0.0
C543 C 1.03843 0.84972 0.6784 0.0
C544 C 0.77089 0.86057 0.72425 0.0
H545 H 0.81496 0.86791 0.70694 0.0
H546 H 0.7608 0.88352 0.76501 0.0
H547 H 0.77148 0.816 0.73999 0.0
C548 C 0.87531 0.91915 0.55867 0.0
C549 C 1.00162 0.72081 0.6547 0.0
H550 H 0.08213 0.6534 0.54607 0.0
H551 H 0.24804 0.77959 0.63582 0.0
H552 H 0.2098 0.74893 0.69324 0.0
H553 H 0.17623 0.80728 0.65512 0.0
C554 C 0.20401 0.7685 0.65088 0.0
C555 C 1.02786 0.78854 0.49082 0.0
C556 C 0.85753 0.73529 0.52795 0.0
H557 H 0.15624 0.58537 0.59606 0.0
H558 H 0.60972 0.79438 0.65766 0.0
Co559 Co 0.58764 0.38227 1.06931 0.0
N560 N 0.53037 0.43458 0.08697 0.0
C561 C 0.54161 0.4907 1.07352 0.0
N562 N 0.46643 0.49336 0.12966 0.0
C563 C 0.48063 0.43791 0.11709 0.0
C564 C 0.50562 0.52651 0.1025 0.0
Co565 Co 0.85191 0.33687 0.12316 0.0
N566 N 0.92516 0.31312 0.12473 0.0
N567 N 0.9914 0.30047 0.19714 0.0
C568 C 1.01269 0.33401 0.15289 0.0
C569 C 0.97293 0.34201 0.10985 0.0
C570 C 0.9356 0.29267 0.17948 0.0
Co571 Co 0.71481 0.34489 0.09503 0.0
C572 C 0.81869 0.40573 0.15602 0.0
H573 H 0.97407 0.37662 1.078 0.0
O574 O 0.64441 0.33729 1.03799 0.0
O575 O 0.73727 0.26987 1.05195 0.0
O576 O 0.67266 0.29803 0.16013 0.0
O577 O 0.69909 0.40557 0.15769 0.0
O578 O 0.6361 0.43932 0.10393 0.0
O579 O 0.82682 0.26273 0.08396 0.0
O580 O 0.78568 0.3602 0.14089 0.0
O581 O 0.84785 0.39714 1.04894 0.0
O582 O 0.58537 0.34011 0.14671 0.0
O583 O 0.59812 0.41436 1.00107 0.0
O584 O 0.75161 0.39672 1.0333 0.0
O585 O 0.87364 0.39886 0.15902 0.0
C586 C 0.61996 0.30865 0.17843 0.0
C587 C 0.88751 0.29782 0.22433 0.0
H588 H 0.84343 0.2905 0.20705 0.0
H589 H 0.8976 0.27487 0.26509 0.0
H590 H 0.88697 0.3424 0.24007 0.0
C591 C 0.78307 0.23918 1.05871 0.0
C592 C 0.65677 0.43756 0.15469 0.0
H593 H 0.57627 0.50494 1.04612 0.0
H594 H 0.41032 0.37871 0.13568 0.0
H595 H 0.44833 0.40944 0.19317 0.0
H596 H 0.48211 0.3511 0.15518 0.0
C597 C 0.45429 0.38985 0.15084 0.0
C598 C 0.63052 0.36981 0.99084 0.0
C599 C 0.80086 0.42304 1.02797 0.0
H600 H 0.50215 0.57298 0.0961 0.0
H601 H 1.04866 0.36397 0.15765 0.0
Co602 Co 0.30649 0.83689 0.53514 0.0
N603 N 0.23324 0.81313 0.53356 0.0
C604 C 0.18547 0.84197 0.54849 0.0
N605 N 0.16697 0.80047 0.46118 0.0
C606 C 0.22279 0.79271 0.4788 0.0
C607 C 0.14568 0.83394 0.50548 0.0
Co608 Co 0.57075 0.88225 0.58902 0.0
N609 N 0.62805 0.93452 0.57137 0.0
N610 N 0.692 0.99324 0.52862 0.0
C611 C 0.65285 1.02642 0.55582 0.0
C612 C 0.61685 0.99065 0.58482 0.0
C613 C 0.67776 0.93781 0.54121 0.0
Co614 Co 0.44357 0.84489 0.56328 0.0
C615 C 0.52787 0.8698 0.66748 0.0
H616 H 0.5822 1.00491 0.61222 0.0
O617 O 0.37272 0.86024 0.51742 0.0
O618 O 0.48572 0.79802 0.49819 0.0
O619 O 0.4211 0.76989 0.60639 0.0
O620 O 0.40678 0.89675 0.625 0.0
O621 O 0.31054 0.89711 0.60939 0.0
O622 O 0.57301 0.84007 0.51162 0.0
O623 O 0.51396 0.83729 0.62033 0.0
O624 O 0.52233 0.93933 0.55435 0.0
O625 O 0.33157 0.76273 0.57432 0.0
O626 O 0.28475 0.8989 0.49932 0.0
O627 O 0.4593 0.90555 0.50061 0.0
O628 O 0.56027 0.91434 0.65725 0.0
C629 C 0.37532 0.73919 0.5996 0.0
C630 C 0.70399 0.88974 0.50738 0.0
H631 H 0.67621 0.85095 0.5032 0.0
H632 H 0.70968 0.90929 0.465 0.0
H633 H 0.74805 0.87868 0.52237 0.0
C634 C 0.53842 0.80861 0.4799 0.0
C635 C 0.3575 0.92303 0.63039 0.0
H636 H 0.18432 0.87657 0.58035 0.0
H637 H 0.27148 0.84247 0.41826 0.0
H638 H 0.26082 0.77495 0.39316 0.0
H639 H 0.31498 0.79053 0.45124 0.0
C640 C 0.2709 0.79787 0.43395 0.0
C641 C 0.3397 0.90578 0.50233 0.0
C642 C 0.50163 0.93753 0.5036 0.0
H643 H 0.10974 0.86395 0.50077 0.0
H644 H 0.65633 1.0729 0.56218 0.0
Co645 Co 0.35189 0.32148 1.03511 0.0
N646 N 0.42514 0.34524 1.03352 0.0
C647 C 0.47291 0.3164 1.04848 0.0
N648 N 0.49143 0.35786 0.96116 0.0
C649 C 0.4356 0.36564 0.97876 0.0
C650 C 0.51271 0.3244 1.00547 0.0
Co651 Co 0.08763 0.27611 0.08898 0.0
N652 N 1.03035 0.22384 1.07131 0.0
N653 N 0.96638 0.16511 1.0286 0.0
C654 C 1.00555 0.13193 1.05577 0.0
C655 C 1.04156 0.16771 0.08476 0.0
C656 C 0.98061 0.22054 1.04118 0.0
Co657 Co 0.21482 0.31347 1.06326 0.0
C658 C 0.13051 0.28855 0.16745 0.0
H659 H 1.07621 0.15345 0.11215 0.0
O660 O 0.28567 0.29813 1.01739 0.0
O661 O 0.17267 0.36034 0.99817 0.0
O662 O 0.23729 0.38848 0.10636 0.0
O663 O 0.25161 0.26162 0.12499 0.0
O664 O 0.34784 0.26127 0.10937 0.0
O665 O 0.08537 0.31828 1.01158 0.0
O666 O 0.14442 0.32108 0.12031 0.0
O667 O 0.13607 0.21905 1.05434 0.0
O668 O 0.3268 0.39564 1.07427 0.0
O669 O 0.37364 0.25947 0.9993 0.0
O670 O 0.1991 0.25279 1.0006 0.0
O671 O 0.0981 0.24402 0.15721 0.0
C672 C 0.28306 0.41918 0.09956 0.0
C673 C 0.95432 0.26861 1.00743 0.0
H674 H 0.98213 0.30737 1.00315 0.0
H675 H 0.94844 0.24904 0.96508 0.0
H676 H 0.91032 0.27973 1.02253 0.0
C677 C 0.11997 0.34974 0.97987 0.0
C678 C 0.30089 0.23535 0.13037 0.0
H679 H 0.47404 0.28182 0.08035 0.0
H680 H 0.38697 0.31586 0.9182 0.0
H681 H 0.3976 0.38337 0.89311 0.0
H682 H 0.34342 0.36778 0.95115 0.0
C683 C 0.38751 0.36045 0.93389 0.0
C684 C 0.31869 0.25259 1.0023 0.0
C685 C 0.15676 0.22082 1.00359 0.0
H686 H 0.54865 0.29439 1.00078 0.0
H687 H 1.00206 0.08545 1.06214 0.0
Co688 Co 0.62328 0.80658 0.82145 0.0
N689 N 0.62492 0.73335 0.8452 0.0
C690 C 0.60995 0.68556 0.8164 0.0
N691 N 0.69728 0.66707 0.85786 0.0
C692 C 0.6797 0.7229 0.86558 0.0
C693 C 0.65295 0.64576 0.82443 0.0
Co694 Co 0.56933 1.07076 0.77607 0.0
N695 N 0.58699 0.12803 0.72379 0.0
N696 N 0.62975 0.19199 0.66508 0.0
C697 C 0.60258 0.15282 0.63189 0.0
C698 C 0.57357 0.11682 0.66766 0.0
C699 C 0.61714 0.17775 0.7205 0.0
Co700 Co 0.59506 0.94364 0.81348 0.0
C701 C 0.49087 1.02788 0.78851 0.0
H702 H 0.54618 0.08216 0.65339 0.0
O703 O 0.64095 0.87281 0.79811 0.0
O704 O 0.66012 0.98579 0.8604 0.0
O705 O 0.55191 0.92113 0.88844 0.0
O706 O 0.53339 0.90686 0.76156 0.0
O707 O 0.54901 0.8106 0.76121 0.0
O708 O 0.64671 1.07305 0.81828 0.0
O709 O 0.538 1.01401 0.82106 0.0
O710 O 0.60405 1.02232 0.71901 0.0
O711 O 0.58409 0.83165 0.89561 0.0
O712 O 0.65913 0.78486 0.75944 0.0
O713 O 0.65781 0.95938 0.7529 0.0
O714 O 0.50111 1.06024 0.74395 0.0
C715 C 0.55875 0.87536 0.91915 0.0
C716 C 0.65092 0.204 0.76858 0.0
H717 H 0.6551 0.17623 0.80737 0.0
H718 H 0.69331 0.20974 0.74905 0.0
H719 H 0.63589 0.24805 0.77964 0.0
C720 C 0.67841 1.03849 0.84977 0.0
C721 C 0.52798 0.85757 0.73534 0.0
H722 H 0.57806 0.68441 0.78183 0.0
H723 H 0.74025 0.77153 0.81574 0.0
H724 H 0.76539 0.76093 0.88325 0.0
H725 H 0.70734 0.81509 0.86768 0.0
C726 C 0.72459 0.77099 0.86034 0.0
C727 C 0.65606 0.83981 0.75256 0.0
C728 C 0.65482 1.00164 0.72085 0.0
H729 H 0.65764 0.60981 0.79444 0.0
H730 H 0.59624 0.1563 0.58541 0.0
Co731 Co 0.08907 0.08761 0.27604 0.0
N732 N 1.07142 1.03035 0.22373 0.0
C733 C 0.08485 1.04159 0.16761 0.0
N734 N 1.02869 0.96642 0.16498 0.0
C735 C 1.04129 0.98062 0.22042 0.0
C736 C 1.05585 1.00559 0.13181 0.0
Co737 Co 1.03518 0.35182 0.32144 0.0
N738 N 1.03358 0.42506 0.34519 0.0
N739 N 0.96114 0.49128 0.35788 0.0
C740 C 1.0054 0.51259 0.32436 0.0
C741 C 1.04845 0.47284 0.31632 0.0
C742 C 0.97881 0.43548 0.36564 0.0
Co743 Co 1.06333 0.21473 0.31347 0.0
C744 C 1.00235 0.31857 0.25258 0.0
H745 H 0.0803 0.474 0.28171 0.0
O746 O 0.12039 0.14435 0.32105 0.0
O747 O 0.10647 0.23723 0.38844 0.0
O748 O 0.99827 0.17258 0.36038 0.0
O749 O 1.00058 0.19899 0.25289 0.0
O750 O 1.05436 0.13606 0.21899 0.0
O751 O 1.0744 0.32676 0.39557 0.0
O752 O 1.01747 0.28558 0.29813 0.0
O753 O 0.10941 0.34778 0.26116 0.0
O754 O 1.01168 0.08531 0.31825 0.0
O755 O 0.1573 0.09813 0.24394 0.0
O756 O 0.12502 0.25149 0.26157 0.0
O757 O 0.9993 0.37352 0.25946 0.0
C758 C 0.97997 0.11988 0.34975 0.0
C759 C 0.93396 0.38738 0.36046 0.0
H760 H 0.95126 0.3433 0.3678 0.0
H761 H 0.89319 0.39746 0.3834 0.0
H762 H 0.91824 0.38681 0.31588 0.0
C763 C 0.09968 0.28302 0.41913 0.0
C764 C 1.00359 0.15672 0.22083 0.0
H765 H 0.11224 1.07625 0.15336 0.0
H766 H 1.02262 0.91032 0.27957 0.0
H767 H 0.96515 0.9485 0.24894 0.0
H768 H 1.00327 0.98212 0.30726 0.0
C769 C 1.00752 0.95433 0.26849 0.0
C770 C 0.16753 0.13048 0.28851 0.0
C771 C 0.13038 0.30077 0.2353 0.0
H772 H 1.06224 1.00212 0.08534 0.0
H773 H 1.00063 0.54857 0.29441 0.0
Co774 Co 0.12327 0.85179 0.33685 0.0
N775 N 0.12491 0.92503 0.31311 0.0
C776 C 0.10994 0.97281 0.34191 0.0
N777 N 0.19726 0.99133 0.30044 0.0
C778 C 0.17968 0.93549 0.29272 0.0
C779 C 0.15293 1.01263 0.33386 0.0
Co780 Co 1.06931 0.58758 0.38221 0.0
N781 N 0.08697 0.53029 0.43448 0.0
N782 N 0.12973 0.46634 0.4932 0.0
C783 C 0.10253 0.50549 0.52638 0.0
C784 C 1.07352 0.54149 0.49061 0.0
C785 C 0.11713 0.48057 0.43778 0.0
Co786 Co 0.09505 0.71473 0.34483 0.0
C787 C 0.99084 0.63045 0.36977 0.0
H788 H 1.04612 0.57614 0.50488 0.0
O789 O 0.14094 0.78555 0.36018 0.0
O790 O 0.16012 0.67257 0.29793 0.0
O791 O 1.05193 0.73723 0.26984 0.0
O792 O 1.03336 0.75151 0.39672 0.0
O793 O 1.04902 0.84777 0.39712 0.0
O794 O 0.14671 0.5853 0.34002 0.0
O795 O 1.03799 0.64434 0.33724 0.0
O796 O 0.10399 0.63601 0.43929 0.0
O797 O 0.08406 0.82674 0.26271 0.0
O798 O 0.15914 0.87349 0.39886 0.0
O799 O 0.15775 0.69897 0.40544 0.0
O800 O 1.00108 0.59806 0.41431 0.0
C801 C 1.05875 0.78301 0.23915 0.0
C802 C 0.15092 0.45433 0.3897 0.0
H803 H 0.15511 0.48211 0.35092 0.0
H804 H 0.19331 0.4486 0.40924 0.0
H805 H 0.1359 0.41029 0.37864 0.0
C806 C 0.17842 0.61988 0.30855 0.0
C807 C 1.02798 0.8008 0.42297 0.0
H808 H 1.07806 0.97397 0.37649 0.0
H809 H 0.24025 0.8869 0.34255 0.0
H810 H 0.26537 0.89748 0.27504 0.0
H811 H 0.20734 0.8433 0.29063 0.0
C812 C 0.22458 0.88741 0.29795 0.0
C813 C 0.15609 0.81854 0.40572 0.0
C814 C 0.15475 0.65669 0.43747 0.0
H815 H 0.15761 1.04858 0.36385 0.0
H816 H 0.09617 0.50201 0.57286 0.0
Co817 Co 0.58906 0.57078 0.88224 0.0
N818 N 0.5714 0.62804 0.93454 0.0
C819 C 0.58485 0.61681 0.99066 0.0
N820 N 0.5287 0.69198 0.99332 0.0
C821 C 0.54128 0.67778 0.93787 0.0
C822 C 0.55587 0.6528 1.02647 0.0
Co823 Co 0.53517 0.30654 0.83686 0.0
N824 N 0.53356 0.23329 0.81311 0.0
N825 N 0.46114 0.16706 0.8004 0.0
C826 C 0.5054 0.14575 0.83391 0.0
C827 C 0.54844 0.18551 0.84196 0.0
C828 C 0.4788 0.22286 0.79265 0.0
Co829 Co 0.56334 0.44362 0.84484 0.0
C830 C 0.50232 0.33978 0.90571 0.0
H831 H 0.58029 0.18434 0.87657 0.0
O832 O 0.62039 0.51402 0.83725 0.0
O833 O 0.60644 0.42113 0.76985 0.0
O834 O 0.49826 0.48577 0.79796 0.0
O835 O 0.50066 0.45935 0.90549 0.0
O836 O 0.55443 0.52233 0.93928 0.0
O837 O 0.5744 0.33159 0.76273 0.0
O838 O 0.51748 0.37277 0.86018 0.0
O839 O 0.6094 0.31057 0.89715 0.0
O840 O 0.51165 0.57305 0.84006 0.0
O841 O 0.65732 0.5603 0.91432 0.0
O842 O 0.62506 0.40684 0.8967 0.0
O843 O 0.49929 0.28483 0.89884 0.0
C844 C 0.47995 0.53847 0.80858 0.0
C845 C 0.43394 0.27096 0.79785 0.0
H846 H 0.45122 0.31505 0.79053 0.0
H847 H 0.39316 0.26088 0.77492 0.0
H848 H 0.41822 0.27149 0.84243 0.0
C849 C 0.59967 0.37533 0.73917 0.0
C850 C 0.50366 0.50166 0.9375 0.0
H851 H 0.61226 0.58216 1.0049 0.0
H852 H 0.52273 0.74808 0.87866 0.0
H853 H 0.46521 0.71011 0.90938 0.0
H854 H 0.50321 0.6763 0.85105 0.0
C855 C 0.50755 0.70412 0.8898 0.0
C856 C 0.66754 0.52792 0.86977 0.0
C857 C 0.63038 0.35758 0.92299 0.0
H858 H 0.56228 0.65628 1.07293 0.0
H859 H 0.50064 0.10977 0.86386 0.0
Co860 Co 0.82155 0.62326 0.80651 0.0
N861 N 0.84526 0.62486 0.73325 0.0
C862 C 0.81636 0.60986 0.68551 0.0
N863 N 0.85774 0.69715 0.66693 0.0
C864 C 0.86565 0.67963 0.72274 0.0
C865 C 0.82432 0.65282 0.64564 0.0
Co866 Co 0.77615 0.56935 1.07074 0.0
N867 N 0.72386 0.58702 0.12801 0.0
N868 N 0.66513 0.62976 0.19197 0.0
C869 C 0.63195 0.60256 0.15281 0.0
C870 C 0.66773 0.57356 0.11681 0.0
C871 C 0.72056 0.61716 0.17774 0.0
Co872 Co 0.81355 0.59507 0.94358 0.0
C873 C 0.78863 0.49088 1.02791 0.0
H874 H 0.65347 0.54616 0.08217 0.0
O875 O 0.79825 0.64095 0.87275 0.0
O876 O 0.86043 0.66015 0.98573 0.0
O877 O 0.88854 0.55196 0.92108 0.0
O878 O 0.76166 0.53338 0.90679 0.0
O879 O 0.76124 0.54906 0.81054 0.0
O880 O 0.81831 0.64676 1.073 0.0
O881 O 0.82113 0.53802 1.01397 0.0
O882 O 0.71908 0.60396 1.0223 0.0
O883 O 0.89567 0.58399 0.83154 0.0
O884 O 0.75958 0.65918 0.78483 0.0
O885 O 0.75288 0.65774 0.95935 0.0
O886 O 0.74406 0.50109 1.06028 0.0
C887 C 0.91922 0.5587 0.87528 0.0
C888 C 0.76865 0.65089 0.20406 0.0
H889 H 0.80739 0.65521 0.17624 0.0
H890 H 0.74907 0.69322 0.21003 0.0
H891 H 0.77979 0.63571 0.24803 0.0
C892 C 0.84979 0.67846 1.03842 0.0
C893 C 0.73539 0.52802 0.85751 0.0
H894 H 0.78179 0.57797 0.68444 0.0
H895 H 0.81592 0.74029 0.7713 0.0
H896 H 0.88346 0.76531 0.76065 0.0
H897 H 0.86779 0.70733 0.81489 0.0
C898 C 0.86049 0.72456 0.77078 0.0
C899 C 0.75272 0.65614 0.83978 0.0
C900 C 0.72085 0.65472 1.00163 0.0
H901 H 0.79429 0.65749 0.60972 0.0
H902 H 0.58547 0.5962 0.1563 0.0
Co903 Co 0.27615 0.08904 0.08753 0.0
N904 N 0.22385 1.07138 1.03027 0.0
C905 C 0.16772 0.08484 1.0415 0.0
N906 N 0.16506 1.02866 0.96636 0.0
C907 C 0.22051 1.04124 0.98054 0.0
C908 C 0.13191 1.05585 1.00552 0.0
Co909 Co 0.32154 1.03515 0.35179 0.0
N910 N 0.34525 1.03355 0.42505 0.0
N911 N 0.35777 0.96122 0.49131 0.0
C912 C 0.32429 1.00549 0.51261 0.0
C913 C 0.31634 1.0485 0.47279 0.0
C914 C 0.36568 0.97879 0.43552 0.0
Co915 Co 0.31354 1.06331 0.2147 0.0
C916 C 0.2527 1.00226 0.31852 0.0
H917 H 0.28177 0.08039 0.47389 0.0
O918 O 0.32113 0.12035 0.1443 0.0
O919 O 0.38856 0.1064 0.23718 0.0
O920 O 0.36041 0.99822 0.17255 0.0
O921 O 0.25286 1.00066 0.19895 0.0
O922 O 0.21908 1.05444 0.13598 0.0
O923 O 0.39566 1.07442 0.32674 0.0
O924 O 0.29824 1.01744 0.28554 0.0
O925 O 0.26121 0.10934 0.34775 0.0
O926 O 0.31829 1.01161 0.08528 0.0
O927 O 0.24408 0.1573 0.09797 0.0
O928 O 0.26169 0.12503 0.25149 0.0
O929 O 0.25956 0.99923 0.37347 0.0
C930 C 0.34977 0.97991 0.11986 0.0
C931 C 0.36051 0.93388 0.38748 0.0
H932 H 0.36782 0.95111 0.34337 0.0
H933 H 0.38346 0.89312 0.3976 0.0
H934 H 0.31593 0.91815 0.38696 0.0
C935 C 0.41922 0.09968 0.283 0.0
C936 C 0.22084 1.00368 0.15666 0.0
H937 H 0.15348 0.11226 1.07614 0.0
H938 H 0.27972 1.02262 0.91024 0.0
H939 H 0.249 0.96513 0.94828 0.0
H940 H 0.30733 1.00316 0.98203 0.0
C941 C 0.26858 1.00747 0.95422 0.0
C942 C 0.28864 0.1675 0.13036 0.0
C943 C 0.23538 0.13033 0.30075 0.0
H944 H 0.08544 1.06226 1.00205 0.0
H945 H 0.29431 1.00077 0.54857 0.0
Co946 Co 0.38226 1.06932 0.58756 0.0
N947 N 0.43457 0.08696 0.5303 0.0
C948 C 0.4907 1.07352 0.54153 0.0
N949 N 0.49334 0.12971 0.46639 0.0
C950 C 0.43789 0.11711 0.48058 0.0
C951 C 0.5265 0.10252 0.50556 0.0
Co952 Co 0.33685 0.12324 0.85176 0.0
N953 N 0.31314 0.12484 0.925 0.0
N954 N 0.30062 0.19716 0.99127 0.0
C955 C 0.33409 0.15288 1.01258 0.0
C956 C 0.34204 0.10987 0.97275 0.0
C957 C 0.29272 0.1796 0.93548 0.0
Co958 Co 0.34483 0.09508 0.71468 0.0
C959 C 0.40571 0.1561 0.8185 0.0
H960 H 0.3766 1.07798 0.97385 0.0
O961 O 0.33725 1.03802 0.64431 0.0
O962 O 0.26985 1.05194 0.73718 0.0
O963 O 0.29793 0.16013 0.67253 0.0
O964 O 0.40544 0.15779 0.69893 0.0
O965 O 0.43934 0.104 0.63601 0.0
O966 O 0.26272 0.084 0.82671 0.0
O967 O 0.36016 0.14095 0.78552 0.0
O968 O 0.39716 1.04903 0.84772 0.0
O969 O 0.34009 0.14672 0.58528 0.0
O970 O 0.41435 1.00107 0.59804 0.0
O971 O 0.39673 1.03339 0.75145 0.0
O972 O 0.39884 0.15914 0.87345 0.0
C973 C 0.30858 0.17843 0.61984 0.0
C974 C 0.29791 0.22451 0.88744 0.0
H975 H 0.29058 0.20729 0.84333 0.0
H976 H 0.27497 0.26528 0.89758 0.0
H977 H 0.34249 0.24022 0.8869 0.0
C978 C 0.23917 1.0587 0.78297 0.0
C979 C 0.43752 0.15476 0.65668 0.0
H980 H 0.50494 1.04612 0.57618 0.0
H981 H 0.37875 0.13587 0.4103 0.0
H982 H 0.40938 0.1933 0.44856 0.0
H983 H 0.35105 0.15514 0.48211 0.0
C984 C 0.38983 0.15092 0.45433 0.0
C985 C 0.36976 0.99088 0.63039 0.0
C986 C 0.42301 1.02805 0.80072 0.0
H987 H 0.57298 0.09614 0.50209 0.0
H988 H 0.36407 0.1576 1.04854 0.0
Co989 Co 0.83685 0.53506 0.30653 0.0
N990 N 0.81314 0.53345 0.23329 0.0
C991 C 0.84201 0.54847 0.18554 0.0
N992 N 0.80064 0.46118 0.16697 0.0
C993 C 0.79276 0.47868 0.22279 0.0
C994 C 0.83405 0.5055 0.14568 0.0
Co995 Co 0.88225 0.589 0.57071 0.0
N996 N 0.93454 0.57135 0.62799 0.0
N997 N 0.99326 0.52859 0.69193 0.0
C998 C 1.02645 0.55577 0.65278 0.0
C999 C 0.99067 0.58478 0.61678 0.0
C1000 C 0.93783 0.5412 0.67771 0.0
Co1001 Co 0.84483 0.56325 0.44359 0.0
C1002 C 0.86977 0.66745 0.52788 0.0
H1003 H 1.00494 0.61217 0.58213 0.0
O1004 O 0.86016 0.51737 0.37276 0.0
O1005 O 0.79792 0.4982 0.48575 0.0
O1006 O 0.76986 0.6064 0.42109 0.0
O1007 O 0.89675 0.62492 0.40682 0.0
O1008 O 0.89713 0.60929 0.31056 0.0
O1009 O 0.84006 0.51161 0.573 0.0
O1010 O 0.83725 0.62031 0.51397 0.0
O1011 O 0.93933 0.55431 0.52228 0.0
O1012 O 0.76271 0.5743 0.33157 0.0
O1013 O 0.89884 0.49917 0.28484 0.0
O1014 O 0.90542 0.50053 0.45935 0.0
O1015 O 0.91436 0.65724 0.56022 0.0
C1016 C 0.73916 0.59962 0.3753 0.0
C1017 C 0.88975 0.50742 0.70396 0.0
H1018 H 0.85098 0.50319 0.67617 0.0
H1019 H 0.9093 0.46505 0.70975 0.0
H1020 H 0.87866 0.5225 0.74798 0.0
C1021 C 0.80856 0.47991 0.53844 0.0
C1022 C 0.92299 0.63033 0.35753 0.0
H1023 H 0.87658 0.58037 0.18446 0.0
H1024 H 0.84254 0.41805 0.27136 0.0
H1025 H 0.77501 0.39299 0.2607 0.0
H1026 H 0.79062 0.45097 0.31495 0.0
C1027 C 0.79795 0.43375 0.27083 0.0
C1028 C 0.90571 0.50223 0.33979 0.0
C1029 C 0.9375 0.50354 0.50161 0.0
H1030 H 0.86407 0.50084 0.10975 0.0
H1031 H 1.07293 0.56212 0.65626 0.0
loop_
_geom_bond_atom_site_label_1
_geom_bond_atom_site_label_2
_geom_bond_distance
_geom_bond_site_symmetry_2
_ccdc_geom_bond_type
Co0 N1 2.034 . S
Co0 O15 2.262 . S
Co0 O19 1.958 . S
Co0 O23 1.950 . S
Co0 O24 2.057 . S
N1 Co0 2.034 . S
N1 C2 1.366 . S
N1 C4 1.332 . S
C2 N1 1.366 . S
C2 C5 1.377 . S
C2 H34 0.931 . S
N3 C4 1.346 . S
N3 C5 1.337 . S
C4 N1 1.332 . S
C4 N3 1.346 . S
C4 C38 1.361 . S
C5 C2 1.377 . S
C5 N3 1.337 . S
C5 H41 0.930 . S
Co6 N7 2.034 . S
Co6 O20 1.950 . S
Co6 O21 2.262 1_655 S
Co6 O22 1.961 . S
Co6 O26 2.059 . S
N7 Co6 2.034 . S
N7 C10 1.366 . S
N7 C11 1.332 . S
N8 C9 1.337 . S
N8 C11 1.346 . S
C9 N8 1.337 . S
C9 C10 1.377 . S
C9 H42 0.930 . S
C10 N7 1.366 . S
C10 C9 1.377 . S
C10 H14 0.931 . S
C11 N7 1.332 . S
C11 N8 1.346 . S
C11 C28 1.361 . S
Co12 O15 2.097 . S
Co12 O16 2.065 . S
Co12 O17 2.065 . S
Co12 O18 2.042 . S
Co12 O21 2.097 . S
Co12 O25 2.042 . S
C13 O21 1.253 . S
C13 O26 1.253 1_455 S
H14 C10 0.931 . S
O15 Co0 2.262 . S
O15 Co12 2.097 . S
O15 C39 1.253 . S
O16 Co12 2.065 . S
O16 C32 1.221 . S
O17 Co12 2.065 . S
O17 C27 1.221 . S
O18 Co12 2.042 . S
O18 C33 1.237 . S
O19 Co0 1.958 . S
O19 C33 1.278 . S
O20 Co6 1.950 . S
O20 C32 1.277 1_655 S
O21 Co6 2.262 1_455 S
O21 Co12 2.097 . S
O21 C13 1.253 . S
O22 Co6 1.961 . S
O22 C40 1.264 1_655 S
O23 Co0 1.950 . S
O23 C27 1.277 . S
O24 Co0 2.057 . S
O24 C39 1.263 . S
O25 Co12 2.042 . S
O25 C40 1.237 . S
O26 Co6 2.059 . S
O26 C13 1.253 1_655 S
C27 O17 1.221 . S
C27 O23 1.277 . S
C28 C11 1.361 . S
C28 H29 0.960 . S
C28 H30 0.961 . S
C28 H31 0.961 . S
H29 C28 0.960 . S
H30 C28 0.961 . S
H31 C28 0.961 . S
C32 O16 1.221 . S
C32 O20 1.277 1_455 S
C33 O18 1.237 . S
C33 O19 1.278 . S
H34 C2 0.931 . S
H35 C38 0.961 . S
H36 C38 0.961 . S
H37 C38 0.960 . S
C38 C4 1.361 . S
C38 H35 0.961 . S
C38 H36 0.961 . S
C38 H37 0.960 . S
C39 O15 1.253 . S
C39 O24 1.263 . S
C40 O22 1.264 1_455 S
C40 O25 1.237 . S
H41 C5 0.930 . S
H42 C9 0.930 . S
Co43 N44 2.034 . S
Co43 O58 2.262 . S
Co43 O62 1.958 1_556 S
Co43 O66 1.950 . S
Co43 O67 2.057 . S
N44 Co43 2.034 . S
N44 C45 1.366 1_556 S
N44 C47 1.332 . S
C45 N44 1.366 1_554 S
C45 C48 1.377 1_554 S
C45 H77 0.931 . S
N46 C47 1.346 . S
N46 C48 1.337 . S
C47 N44 1.332 . S
C47 N46 1.346 . S
C47 C81 1.361 . S
C48 C45 1.377 1_556 S
C48 N46 1.337 . S
C48 H84 0.930 1_556 S
Co49 N50 2.034 . S
Co49 O63 1.950 . S
Co49 O64 2.262 . S
Co49 O65 1.958 1_556 S
Co49 O69 2.057 . S
N50 Co49 2.034 . S
N50 C53 1.366 . S
N50 C54 1.332 . S
N51 C52 1.337 . S
N51 C54 1.346 . S
C52 N51 1.337 . S
C52 C53 1.377 . S
C52 H85 0.930 1_556 S
C53 N50 1.366 . S
C53 C52 1.377 . S
C53 H57 0.931 1_556 S
C54 N50 1.332 . S
C54 N51 1.346 . S
C54 C71 1.361 . S
Co55 O58 2.097 . S
Co55 O59 2.065 . S
Co55 O60 2.065 . S
Co55 O61 2.042 1_556 S
Co55 O64 2.097 . S
Co55 O68 2.042 . S
C56 O64 1.253 . S
C56 O69 1.263 . S
H57 C53 0.931 1_554 S
O58 Co43 2.262 . S
O58 Co55 2.097 . S
O58 C82 1.253 . S
O59 Co55 2.065 . S
O59 C75 1.221 . S
O60 Co55 2.065 . S
O60 C70 1.221 . S
O61 Co55 2.042 1_554 S
O61 C76 1.237 . S
O62 Co43 1.958 1_554 S
O62 C76 1.278 . S
O63 Co49 1.950 . S
O63 C75 1.277 . S
O64 Co49 2.262 . S
O64 Co55 2.097 . S
O64 C56 1.253 . S
O65 Co49 1.958 1_554 S
O65 C83 1.278 . S
O66 Co43 1.950 . S
O66 C70 1.277 . S
O67 Co43 2.057 . S
O67 C82 1.263 . S
O68 Co55 2.042 . S
O68 C83 1.237 1_556 S
O69 Co49 2.057 . S
O69 C56 1.263 . S
C70 O60 1.221 . S
C70 O66 1.277 . S
C71 C54 1.361 . S
C71 H72 0.960 . S
C71 H73 0.961 . S
C71 H74 0.961 . S
H72 C71 0.960 . S
H73 C71 0.961 . S
H74 C71 0.961 . S
C75 O59 1.221 . S
C75 O63 1.277 . S
C76 O61 1.237 . S
C76 O62 1.278 . S
H77 C45 0.931 . S
H78 C81 0.961 . S
H79 C81 0.961 . S
H80 C81 0.960 . S
C81 C47 1.361 . S
C81 H78 0.961 . S
C81 H79 0.961 . S
C81 H80 0.960 . S
C82 O58 1.253 . S
C82 O67 1.263 . S
C83 O65 1.278 . S
C83 O68 1.237 1_554 S
H84 C48 0.930 1_554 S
H85 C52 0.930 1_554 S
Co86 N87 2.034 . S
Co86 O101 2.262 . S
Co86 O105 1.958 . S
Co86 O109 1.950 . S
Co86 O110 2.057 . S
N87 Co86 2.034 . S
N87 C88 1.366 . S
N87 C90 1.332 . S
C88 N87 1.366 . S
C88 C91 1.377 . S
C88 H120 0.931 . S
N89 C90 1.346 . S
N89 C91 1.337 . S
C90 N87 1.332 . S
C90 N89 1.346 . S
C90 C124 1.361 . S
C91 C88 1.377 . S
C91 N89 1.337 . S
C91 H127 0.930 . S
Co92 N93 2.034 . S
Co92 O106 1.950 . S
Co92 O107 2.262 . S
Co92 O108 1.958 . S
Co92 O112 2.057 . S
N93 Co92 2.034 . S
N93 C96 1.366 . S
N93 C97 1.332 . S
N94 C95 1.337 . S
N94 C97 1.346 . S
C95 N94 1.337 . S
C95 C96 1.377 . S
C95 H128 0.930 . S
C96 N93 1.366 . S
C96 C95 1.377 . S
C96 H100 0.931 . S
C97 N93 1.332 . S
C97 N94 1.346 . S
C97 C114 1.361 . S
Co98 O101 2.097 . S
Co98 O102 2.065 . S
Co98 O103 2.065 . S
Co98 O104 2.042 . S
Co98 O107 2.097 . S
Co98 O111 2.042 . S
C99 O107 1.253 . S
C99 O112 1.263 . S
H100 C96 0.931 . S
O101 Co86 2.262 . S
O101 Co98 2.097 . S
O101 C125 1.253 . S
O102 Co98 2.065 . S
O102 C118 1.221 . S
O103 Co98 2.065 . S
O103 C113 1.221 . S
O104 Co98 2.042 . S
O104 C119 1.237 . S
O105 Co86 1.958 . S
O105 C119 1.278 . S
O106 Co92 1.950 . S
O106 C118 1.277 . S
O107 Co92 2.262 . S
O107 Co98 2.097 . S
O107 C99 1.253 . S
O108 Co92 1.958 . S
O108 C126 1.278 . S
O109 Co86 1.950 . S
O109 C113 1.277 . S
O110 Co86 2.057 . S
O110 C125 1.263 . S
O111 Co98 2.042 . S
O111 C126 1.237 . S
O112 Co92 2.057 . S
O112 C99 1.263 . S
C113 O103 1.221 . S
C113 O109 1.277 . S
C114 C97 1.361 . S
C114 H115 0.960 . S
C114 H116 0.961 . S
C114 H117 0.961 . S
H115 C114 0.960 . S
H116 C114 0.961 . S
H117 C114 0.961 . S
C118 O102 1.221 . S
C118 O106 1.277 . S
C119 O104 1.237 . S
C119 O105 1.278 . S
H120 C88 0.931 . S
H121 C124 0.961 . S
H122 C124 0.961 . S
H123 C124 0.960 . S
C124 C90 1.361 . S
C124 H121 0.961 . S
C124 H122 0.961 . S
C124 H123 0.960 . S
C125 O101 1.253 . S
C125 O110 1.263 . S
C126 O108 1.278 . S
C126 O111 1.237 . S
H127 C91 0.930 . S
H128 C95 0.930 . S
Co129 N130 2.034 . S
Co129 O144 2.262 1_455 S
Co129 O148 1.961 1_554 S
Co129 O152 1.950 . S
Co129 O153 2.059 . S
N130 Co129 2.034 . S
N130 C131 1.366 1_554 S
N130 C133 1.332 . S
C131 N130 1.366 1_556 S
C131 C134 1.377 1_556 S
C131 H163 0.931 . S
N132 C133 1.346 . S
N132 C134 1.337 . S
C133 N130 1.332 . S
C133 N132 1.346 . S
C133 C167 1.361 . S
C134 C131 1.377 1_554 S
C134 N132 1.337 . S
C134 H170 0.930 1_554 S
Co135 N136 2.034 . S
Co135 O149 1.950 . S
Co135 O150 2.262 . S
Co135 O151 1.958 1_554 S
Co135 O155 2.057 . S
N136 Co135 2.034 . S
N136 C139 1.366 . S
N136 C140 1.332 . S
N137 C138 1.337 . S
N137 C140 1.346 . S
C138 N137 1.337 . S
C138 C139 1.377 . S
C138 H171 0.930 1_554 S
C139 N136 1.366 . S
C139 C138 1.377 . S
C139 H143 0.931 1_554 S
C140 N136 1.332 . S
C140 N137 1.346 . S
C140 C157 1.361 . S
Co141 O144 2.097 . S
Co141 O145 2.065 . S
Co141 O146 2.065 . S
Co141 O147 2.042 1_554 S
Co141 O150 2.097 . S
Co141 O154 2.042 . S
C142 O150 1.253 . S
C142 O155 1.263 . S
H143 C139 0.931 1_556 S
O144 Co129 2.262 1_655 S
O144 Co141 2.097 . S
O144 C168 1.253 . S
O145 Co141 2.065 . S
O145 C161 1.221 . S
O146 Co141 2.065 . S
O146 C156 1.221 . S
O147 Co141 2.042 1_556 S
O147 C162 1.237 . S
O148 Co129 1.961 1_556 S
O148 C162 1.264 1_455 S
O149 Co135 1.950 . S
O149 C161 1.277 . S
O150 Co135 2.262 . S
O150 Co141 2.097 . S
O150 C142 1.253 . S
O151 Co135 1.958 1_556 S
O151 C169 1.278 . S
O152 Co129 1.950 . S
O152 C156 1.277 1_455 S
O153 Co129 2.059 . S
O153 C168 1.253 1_455 S
O154 Co141 2.042 . S
O154 C169 1.237 1_554 S
O155 Co135 2.057 . S
O155 C142 1.263 . S
C156 O146 1.221 . S
C156 O152 1.277 1_655 S
C157 C140 1.361 . S
C157 H158 0.960 . S
C157 H159 0.961 . S
C157 H160 0.961 . S
H158 C157 0.960 . S
H159 C157 0.961 . S
H160 C157 0.961 . S
C161 O145 1.221 . S
C161 O149 1.277 . S
C162 O147 1.237 . S
C162 O148 1.264 1_655 S
H163 C131 0.931 . S
H164 C167 0.961 . S
H165 C167 0.961 . S
H166 C167 0.960 . S
C167 C133 1.361 . S
C167 H164 0.961 . S
C167 H165 0.961 . S
C167 H166 0.960 . S
C168 O144 1.253 . S
C168 O153 1.253 1_655 S
C169 O151 1.278 . S
C169 O154 1.237 1_556 S
H170 C134 0.930 1_556 S
H171 C138 0.930 1_556 S
Co172 N173 2.034 . S
Co172 O187 2.262 . S
Co172 O191 1.958 . S
Co172 O195 1.950 . S
Co172 O196 2.057 . S
N173 Co172 2.034 . S
N173 C174 1.366 . S
N173 C176 1.332 . S
C174 N173 1.366 . S
C174 C177 1.377 . S
C174 H206 0.931 . S
N175 C176 1.346 . S
N175 C177 1.337 . S
C176 N173 1.332 . S
C176 N175 1.346 . S
C176 C210 1.361 . S
C177 C174 1.377 . S
C177 N175 1.337 . S
C177 H213 0.930 . S
Co178 N179 2.034 . S
Co178 O192 1.950 . S
Co178 O193 2.262 1_565 S
Co178 O194 1.961 . S
Co178 O198 2.059 . S
N179 Co178 2.034 . S
N179 C182 1.366 . S
N179 C183 1.332 . S
N180 C181 1.337 . S
N180 C183 1.346 . S
C181 N180 1.337 . S
C181 C182 1.377 . S
C181 H214 0.930 . S
C182 N179 1.366 . S
C182 C181 1.377 . S
C182 H186 0.931 . S
C183 N179 1.332 . S
C183 N180 1.346 . S
C183 C200 1.361 . S
Co184 O187 2.097 . S
Co184 O188 2.065 . S
Co184 O189 2.065 . S
Co184 O190 2.042 . S
Co184 O193 2.097 . S
Co184 O197 2.042 . S
C185 O193 1.253 . S
C185 O198 1.253 1_545 S
H186 C182 0.931 . S
O187 Co172 2.262 . S
O187 Co184 2.097 . S
O187 C211 1.253 . S
O188 Co184 2.065 . S
O188 C204 1.221 . S
O189 Co184 2.065 . S
O189 C199 1.221 . S
O190 Co184 2.042 . S
O190 C205 1.237 . S
O191 Co172 1.958 . S
O191 C205 1.278 . S
O192 Co178 1.950 . S
O192 C204 1.277 1_565 S
O193 Co178 2.262 1_545 S
O193 Co184 2.097 . S
O193 C185 1.253 . S
O194 Co178 1.961 . S
O194 C212 1.264 1_565 S
O195 Co172 1.950 . S
O195 C199 1.277 . S
O196 Co172 2.057 . S
O196 C211 1.263 . S
O197 Co184 2.042 . S
O197 C212 1.237 . S
O198 Co178 2.059 . S
O198 C185 1.253 1_565 S
C199 O189 1.221 . S
C199 O195 1.277 . S
C200 C183 1.361 . S
C200 H201 0.960 . S
C200 H202 0.961 . S
C200 H203 0.961 . S
H201 C200 0.960 . S
H202 C200 0.961 . S
H203 C200 0.961 . S
C204 O188 1.221 . S
C204 O192 1.277 1_545 S
C205 O190 1.237 . S
C205 O191 1.278 . S
H206 C174 0.931 . S
H207 C210 0.961 . S
H208 C210 0.961 . S
H209 C210 0.960 . S
C210 C176 1.361 . S
C210 H207 0.961 . S
C210 H208 0.961 . S
C210 H209 0.960 . S
C211 O187 1.253 . S
C211 O196 1.263 . S
C212 O194 1.264 1_545 S
C212 O197 1.237 . S
H213 C177 0.930 . S
H214 C181 0.930 . S
Co215 N216 2.034 . S
Co215 O230 2.262 1_545 S
Co215 O234 1.961 1_455 S
Co215 O238 1.950 . S
Co215 O239 2.059 . S
N216 Co215 2.034 . S
N216 C217 1.366 1_455 S
N216 C219 1.332 . S
C217 N216 1.366 1_655 S
C217 C220 1.377 1_655 S
C217 H249 0.931 . S
N218 C219 1.346 . S
N218 C220 1.337 . S
C219 N216 1.332 . S
C219 N218 1.346 . S
C219 C253 1.361 . S
C220 C217 1.377 1_455 S
C220 N218 1.337 . S
C220 H256 0.930 1_455 S
Co221 N222 2.034 . S
Co221 O235 1.950 . S
Co221 O236 2.262 . S
Co221 O237 1.958 1_455 S
Co221 O241 2.057 . S
N222 Co221 2.034 . S
N222 C225 1.366 . S
N222 C226 1.332 . S
N223 C224 1.337 . S
N223 C226 1.346 . S
C224 N223 1.337 . S
C224 C225 1.377 . S
C224 H257 0.930 1_455 S
C225 N222 1.366 . S
C225 C224 1.377 . S
C225 H229 0.931 1_455 S
C226 N222 1.332 . S
C226 N223 1.346 . S
C226 C243 1.361 . S
Co227 O230 2.097 . S
Co227 O231 2.065 . S
Co227 O232 2.065 . S
Co227 O233 2.042 1_455 S
Co227 O236 2.097 . S
Co227 O240 2.042 . S
C228 O236 1.253 . S
C228 O241 1.263 . S
H229 C225 0.931 1_655 S
O230 Co215 2.262 1_565 S
O230 Co227 2.097 . S
O230 C254 1.253 . S
O231 Co227 2.065 . S
O231 C247 1.221 . S
O232 Co227 2.065 . S
O232 C242 1.221 . S
O233 Co227 2.042 1_655 S
O233 C248 1.237 . S
O234 Co215 1.961 1_655 S
O234 C248 1.264 1_545 S
O235 Co221 1.950 . S
O235 C247 1.277 . S
O236 Co221 2.262 . S
O236 Co227 2.097 . S
O236 C228 1.253 . S
O237 Co221 1.958 1_655 S
O237 C255 1.278 . S
O238 Co215 1.950 . S
O238 C242 1.277 1_545 S
O239 Co215 2.059 . S
O239 C254 1.253 1_545 S
O240 Co227 2.042 . S
O240 C255 1.237 1_455 S
O241 Co221 2.057 . S
O241 C228 1.263 . S
C242 O232 1.221 . S
C242 O238 1.277 1_565 S
C243 C226 1.361 . S
C243 H244 0.960 . S
C243 H245 0.961 . S
C243 H246 0.961 . S
H244 C243 0.960 . S
H245 C243 0.961 . S
H246 C243 0.961 . S
C247 O231 1.221 . S
C247 O235 1.277 . S
C248 O233 1.237 . S
C248 O234 1.264 1_565 S
H249 C217 0.931 . S
H250 C253 0.961 . S
H251 C253 0.961 . S
H252 C253 0.960 . S
C253 C219 1.361 . S
C253 H250 0.961 . S
C253 H251 0.961 . S
C253 H252 0.960 . S
C254 O230 1.253 . S
C254 O239 1.253 1_565 S
C255 O237 1.278 . S
C255 O240 1.237 1_655 S
H256 C220 0.930 1_655 S
H257 C224 0.930 1_655 S
Co258 N259 2.034 . S
Co258 O273 2.262 . S
Co258 O277 1.958 1_655 S
Co258 O281 1.950 . S
Co258 O282 2.057 . S
N259 Co258 2.034 . S
N259 C260 1.366 . S
N259 C262 1.332 . S
C260 N259 1.366 . S
C260 C263 1.377 . S
C260 H292 0.931 1_655 S
N261 C262 1.346 . S
N261 C263 1.337 . S
C262 N259 1.332 . S
C262 N261 1.346 . S
C262 C296 1.361 . S
C263 C260 1.377 . S
C263 N261 1.337 . S
C263 H299 0.930 1_655 S
Co264 N265 2.034 . S
Co264 O278 1.950 . S
Co264 O279 2.262 . S
Co264 O280 1.958 1_655 S
Co264 O284 2.057 . S
N265 Co264 2.034 . S
N265 C268 1.366 1_655 S
N265 C269 1.332 . S
N266 C267 1.337 . S
N266 C269 1.346 . S
C267 N266 1.337 . S
C267 C268 1.377 1_655 S
C267 H300 0.930 1_655 S
C268 N265 1.366 1_455 S
C268 C267 1.377 1_455 S
C268 H272 0.931 . S
C269 N265 1.332 . S
C269 N266 1.346 . S
C269 C286 1.361 . S
Co270 O273 2.097 . S
Co270 O274 2.065 . S
Co270 O275 2.065 . S
Co270 O276 2.042 . S
Co270 O279 2.097 . S
Co270 O283 2.042 1_655 S
C271 O279 1.253 . S
C271 O284 1.263 . S
H272 C268 0.931 . S
O273 Co258 2.262 . S
O273 Co270 2.097 . S
O273 C297 1.253 . S
O274 Co270 2.065 . S
O274 C290 1.221 . S
O275 Co270 2.065 . S
O275 C285 1.221 . S
O276 Co270 2.042 . S
O276 C291 1.237 1_655 S
O277 Co258 1.958 1_455 S
O277 C291 1.278 . S
O278 Co264 1.950 . S
O278 C290 1.277 . S
O279 Co264 2.262 . S
O279 Co270 2.097 . S
O279 C271 1.253 . S
O280 Co264 1.958 1_455 S
O280 C298 1.278 . S
O281 Co258 1.950 . S
O281 C285 1.277 . S
O282 Co258 2.057 . S
O282 C297 1.263 . S
O283 Co270 2.042 1_455 S
O283 C298 1.237 . S
O284 Co264 2.057 . S
O284 C271 1.263 . S
C285 O275 1.221 . S
C285 O281 1.277 . S
C286 C269 1.361 . S
C286 H287 0.960 . S
C286 H288 0.961 . S
C286 H289 0.961 . S
H287 C286 0.960 . S
H288 C286 0.961 . S
H289 C286 0.961 . S
C290 O274 1.221 . S
C290 O278 1.277 . S
C291 O276 1.237 1_455 S
C291 O277 1.278 . S
H292 C260 0.931 1_455 S
H293 C296 0.961 . S
H294 C296 0.961 . S
H295 C296 0.960 . S
C296 C262 1.361 . S
C296 H293 0.961 . S
C296 H294 0.961 . S
C296 H295 0.960 . S
C297 O273 1.253 . S
C297 O282 1.263 . S
C298 O280 1.278 . S
C298 O283 1.237 . S
H299 C263 0.930 1_455 S
H300 C267 0.930 1_455 S
Co301 N302 2.034 . S
Co301 O316 2.262 . S
Co301 O320 1.958 . S
Co301 O324 1.950 . S
Co301 O325 2.057 . S
N302 Co301 2.034 . S
N302 C303 1.366 . S
N302 C305 1.332 . S
C303 N302 1.366 . S
C303 C306 1.377 . S
C303 H335 0.931 . S
N304 C305 1.346 . S
N304 C306 1.337 . S
C305 N302 1.332 . S
C305 N304 1.346 . S
C305 C339 1.361 . S
C306 C303 1.377 . S
C306 N304 1.337 . S
C306 H342 0.930 . S
Co307 N308 2.034 . S
Co307 O321 1.950 . S
Co307 O322 2.262 . S
Co307 O323 1.958 . S
Co307 O327 2.057 . S
N308 Co307 2.034 . S
N308 C311 1.366 . S
N308 C312 1.332 . S
N309 C310 1.337 . S
N309 C312 1.346 . S
C310 N309 1.337 . S
C310 C311 1.377 . S
C310 H343 0.930 . S
C311 N308 1.366 . S
C311 C310 1.377 . S
C311 H315 0.931 . S
C312 N308 1.332 . S
C312 N309 1.346 . S
C312 C329 1.361 . S
Co313 O316 2.097 . S
Co313 O317 2.065 . S
Co313 O318 2.065 . S
Co313 O319 2.042 . S
Co313 O322 2.097 . S
Co313 O326 2.042 . S
C314 O322 1.253 . S
C314 O327 1.263 . S
H315 C311 0.931 . S
O316 Co301 2.262 . S
O316 Co313 2.097 . S
O316 C340 1.253 . S
O317 Co313 2.065 . S
O317 C333 1.221 . S
O318 Co313 2.065 . S
O318 C328 1.221 . S
O319 Co313 2.042 . S
O319 C334 1.237 . S
O320 Co301 1.958 . S
O320 C334 1.278 . S
O321 Co307 1.950 . S
O321 C333 1.277 . S
O322 Co307 2.262 . S
O322 Co313 2.097 . S
O322 C314 1.253 . S
O323 Co307 1.958 . S
O323 C341 1.278 . S
O324 Co301 1.950 . S
O324 C328 1.277 . S
O325 Co301 2.057 . S
O325 C340 1.263 . S
O326 Co313 2.042 . S
O326 C341 1.237 . S
O327 Co307 2.057 . S
O327 C314 1.263 . S
C328 O318 1.221 . S
C328 O324 1.277 . S
C329 C312 1.361 . S
C329 H330 0.960 . S
C329 H331 0.961 . S
C329 H332 0.961 . S
H330 C329 0.960 . S
H331 C329 0.961 . S
H332 C329 0.961 . S
C333 O317 1.221 . S
C333 O321 1.277 . S
C334 O319 1.237 . S
C334 O320 1.278 . S
H335 C303 0.931 . S
H336 C339 0.961 . S
H337 C339 0.961 . S
H338 C339 0.960 . S
C339 C305 1.361 . S
C339 H336 0.961 . S
C339 H337 0.961 . S
C339 H338 0.960 . S
C340 O316 1.253 . S
C340 O325 1.263 . S
C341 O323 1.278 . S
C341 O326 1.237 . S
H342 C306 0.930 . S
H343 C310 0.930 . S
Co344 N345 2.034 . S
Co344 O359 2.262 1_556 S
Co344 O363 1.961 . S
Co344 O367 1.950 . S
Co344 O368 2.059 . S
N345 Co344 2.034 . S
N345 C346 1.366 . S
N345 C348 1.332 . S
C346 N345 1.366 . S
C346 C349 1.377 . S
C346 H378 0.931 . S
N347 C348 1.346 . S
N347 C349 1.337 . S
C348 N345 1.332 . S
C348 N347 1.346 . S
C348 C382 1.361 . S
C349 C346 1.377 . S
C349 N347 1.337 . S
C349 H385 0.930 . S
Co350 N351 2.034 . S
Co350 O364 1.950 . S
Co350 O365 2.262 . S
Co350 O366 1.958 . S
Co350 O370 2.057 . S
N351 Co350 2.034 . S
N351 C354 1.366 . S
N351 C355 1.332 . S
N352 C353 1.337 . S
N352 C355 1.346 . S
C353 N352 1.337 . S
C353 C354 1.377 . S
C353 H386 0.930 . S
C354 N351 1.366 . S
C354 C353 1.377 . S
C354 H358 0.931 . S
C355 N351 1.332 . S
C355 N352 1.346 . S
C355 C372 1.361 . S
Co356 O359 2.097 . S
Co356 O360 2.065 . S
Co356 O361 2.065 . S
Co356 O362 2.042 . S
Co356 O365 2.097 . S
Co356 O369 2.042 . S
C357 O365 1.253 . S
C357 O370 1.263 . S
H358 C354 0.931 . S
O359 Co344 2.262 1_554 S
O359 Co356 2.097 . S
O359 C383 1.253 . S
O360 Co356 2.065 . S
O360 C376 1.221 . S
O361 Co356 2.065 . S
O361 C371 1.221 . S
O362 Co356 2.042 . S
O362 C377 1.237 . S
O363 Co344 1.961 . S
O363 C377 1.264 1_556 S
O364 Co350 1.950 . S
O364 C376 1.277 . S
O365 Co350 2.262 . S
O365 Co356 2.097 . S
O365 C357 1.253 . S
O366 Co350 1.958 . S
O366 C384 1.278 . S
O367 Co344 1.950 . S
O367 C371 1.277 1_556 S
O368 Co344 2.059 . S
O368 C383 1.253 1_556 S
O369 Co356 2.042 . S
O369 C384 1.237 . S
O370 Co350 2.057 . S
O370 C357 1.263 . S
C371 O361 1.221 . S
C371 O367 1.277 1_554 S
C372 C355 1.361 . S
C372 H373 0.960 . S
C372 H374 0.961 . S
C372 H375 0.961 . S
H373 C372 0.960 . S
H374 C372 0.961 . S
H375 C372 0.961 . S
C376 O360 1.221 . S
C376 O364 1.277 . S
C377 O362 1.237 . S
C377 O363 1.264 1_554 S
H378 C346 0.931 . S
H379 C382 0.961 . S
H380 C382 0.961 . S
H381 C382 0.960 . S
C382 C348 1.361 . S
C382 H379 0.961 . S
C382 H380 0.961 . S
C382 H381 0.960 . S
C383 O359 1.253 . S
C383 O368 1.253 1_554 S
C384 O366 1.278 . S
C384 O369 1.237 . S
H385 C349 0.930 . S
H386 C353 0.930 . S
Co387 N388 2.034 . S
Co387 O402 2.262 . S
Co387 O406 1.958 1_545 S
Co387 O410 1.950 . S
Co387 O411 2.057 . S
N388 Co387 2.034 . S
N388 C389 1.366 . S
N388 C391 1.332 . S
C389 N388 1.366 . S
C389 C392 1.377 . S
C389 H421 0.931 1_545 S
N390 C391 1.346 . S
N390 C392 1.337 . S
C391 N388 1.332 . S
C391 N390 1.346 . S
C391 C425 1.361 . S
C392 C389 1.377 . S
C392 N390 1.337 . S
C392 H428 0.930 1_545 S
Co393 N394 2.034 . S
Co393 O407 1.950 . S
Co393 O408 2.262 1_554 S
Co393 O409 1.961 1_545 S
Co393 O413 2.059 . S
N394 Co393 2.034 . S
N394 C397 1.366 1_545 S
N394 C398 1.332 . S
N395 C396 1.337 . S
N395 C398 1.346 . S
C396 N395 1.337 . S
C396 C397 1.377 1_545 S
C396 H429 0.930 1_545 S
C397 N394 1.366 1_565 S
C397 C396 1.377 1_565 S
C397 H401 0.931 . S
C398 N394 1.332 . S
C398 N395 1.346 . S
C398 C415 1.361 . S
Co399 O402 2.097 . S
Co399 O403 2.065 . S
Co399 O404 2.065 . S
Co399 O405 2.042 . S
Co399 O408 2.097 . S
Co399 O412 2.042 1_545 S
C400 O408 1.253 . S
C400 O413 1.253 1_556 S
H401 C397 0.931 . S
O402 Co387 2.262 . S
O402 Co399 2.097 . S
O402 C426 1.253 . S
O403 Co399 2.065 . S
O403 C419 1.221 . S
O404 Co399 2.065 . S
O404 C414 1.221 . S
O405 Co399 2.042 . S
O405 C420 1.237 1_545 S
O406 Co387 1.958 1_565 S
O406 C420 1.278 . S
O407 Co393 1.950 . S
O407 C419 1.277 1_554 S
O408 Co393 2.262 1_556 S
O408 Co399 2.097 . S
O408 C400 1.253 . S
O409 Co393 1.961 1_565 S
O409 C427 1.264 1_554 S
O410 Co387 1.950 . S
O410 C414 1.277 . S
O411 Co387 2.057 . S
O411 C426 1.263 . S
O412 Co399 2.042 1_565 S
O412 C427 1.237 . S
O413 Co393 2.059 . S
O413 C400 1.253 1_554 S
C414 O404 1.221 . S
C414 O410 1.277 . S
C415 C398 1.361 . S
C415 H416 0.960 . S
C415 H417 0.961 . S
C415 H418 0.961 . S
H416 C415 0.960 . S
H417 C415 0.961 . S
H418 C415 0.961 . S
C419 O403 1.221 . S
C419 O407 1.277 1_556 S
C420 O405 1.237 1_565 S
C420 O406 1.278 . S
H421 C389 0.931 1_565 S
H422 C425 0.961 . S
H423 C425 0.961 . S
H424 C425 0.960 . S
C425 C391 1.361 . S
C425 H422 0.961 . S
C425 H423 0.961 . S
C425 H424 0.960 . S
C426 O402 1.253 . S
C426 O411 1.263 . S
C427 O409 1.264 1_556 S
C427 O412 1.237 . S
H428 C392 0.930 1_565 S
H429 C396 0.930 1_565 S
Co430 N431 2.034 . S
Co430 O445 2.262 . S
Co430 O449 1.958 1_565 S
Co430 O453 1.950 . S
Co430 O454 2.057 . S
N431 Co430 2.034 . S
N431 C432 1.366 . S
N431 C434 1.332 . S
C432 N431 1.366 . S
C432 C435 1.377 . S
C432 H464 0.931 1_565 S
N433 C434 1.346 . S
N433 C435 1.337 . S
C434 N431 1.332 . S
C434 N433 1.346 . S
C434 C468 1.361 . S
C435 C432 1.377 . S
C435 N433 1.337 . S
C435 H471 0.930 1_565 S
Co436 N437 2.034 . S
Co436 O450 1.950 . S
Co436 O451 2.262 . S
Co436 O452 1.958 1_565 S
Co436 O456 2.057 . S
N437 Co436 2.034 . S
N437 C440 1.366 1_565 S
N437 C441 1.332 . S
N438 C439 1.337 . S
N438 C441 1.346 . S
C439 N438 1.337 . S
C439 C440 1.377 1_565 S
C439 H472 0.930 1_565 S
C440 N437 1.366 1_545 S
C440 C439 1.377 1_545 S
C440 H444 0.931 . S
C441 N437 1.332 . S
C441 N438 1.346 . S
C441 C458 1.361 . S
Co442 O445 2.097 . S
Co442 O446 2.065 . S
Co442 O447 2.065 . S
Co442 O448 2.042 . S
Co442 O451 2.097 . S
Co442 O455 2.042 1_565 S
C443 O451 1.253 . S
C443 O456 1.263 . S
H444 C440 0.931 . S
O445 Co430 2.262 . S
O445 Co442 2.097 . S
O445 C469 1.253 . S
O446 Co442 2.065 . S
O446 C462 1.221 . S
O447 Co442 2.065 . S
O447 C457 1.221 . S
O448 Co442 2.042 . S
O448 C463 1.237 1_565 S
O449 Co430 1.958 1_545 S
O449 C463 1.278 . S
O450 Co436 1.950 . S
O450 C462 1.277 . S
O451 Co436 2.262 . S
O451 Co442 2.097 . S
O451 C443 1.253 . S
O452 Co436 1.958 1_545 S
O452 C470 1.278 . S
O453 Co430 1.950 . S
O453 C457 1.277 . S
O454 Co430 2.057 . S
O454 C469 1.263 . S
O455 Co442 2.042 1_545 S
O455 C470 1.237 . S
O456 Co436 2.057 . S
O456 C443 1.263 . S
C457 O447 1.221 . S
C457 O453 1.277 . S
C458 C441 1.361 . S
C458 H459 0.960 . S
C458 H460 0.961 . S
C458 H461 0.961 . S
H459 C458 0.960 . S
H460 C458 0.961 . S
H461 C458 0.961 . S
C462 O446 1.221 . S
C462 O450 1.277 . S
C463 O448 1.237 1_545 S
C463 O449 1.278 . S
H464 C432 0.931 1_545 S
H465 C468 0.961 . S
H466 C468 0.961 . S
H467 C468 0.960 . S
C468 C434 1.361 . S
C468 H465 0.961 . S
C468 H466 0.961 . S
C468 H467 0.960 . S
C469 O445 1.253 . S
C469 O454 1.263 . S
C470 O452 1.278 . S
C470 O455 1.237 . S
H471 C435 0.930 1_545 S
H472 C439 0.930 1_545 S
Co473 N474 2.034 . S
Co473 O488 2.262 . S
Co473 O492 1.958 . S
Co473 O496 1.950 . S
Co473 O497 2.057 . S
N474 Co473 2.034 . S
N474 C475 1.366 . S
N474 C477 1.332 . S
C475 N474 1.366 . S
C475 C478 1.377 . S
C475 H507 0.931 . S
N476 C477 1.346 . S
N476 C478 1.337 . S
C477 N474 1.332 . S
C477 N476 1.346 . S
C477 C511 1.361 . S
C478 C475 1.377 . S
C478 N476 1.337 . S
C478 H514 0.930 . S
Co479 N480 2.034 . S
Co479 O493 1.950 . S
Co479 O494 2.262 . S
Co479 O495 1.958 . S
Co479 O499 2.057 . S
N480 Co479 2.034 . S
N480 C483 1.366 . S
N480 C484 1.332 . S
N481 C482 1.337 . S
N481 C484 1.346 . S
C482 N481 1.337 . S
C482 C483 1.377 . S
C482 H515 0.930 . S
C483 N480 1.366 . S
C483 C482 1.377 . S
C483 H487 0.931 . S
C484 N480 1.332 . S
C484 N481 1.346 . S
C484 C501 1.361 . S
Co485 O488 2.097 . S
Co485 O489 2.065 . S
Co485 O490 2.065 . S
Co485 O491 2.042 . S
Co485 O494 2.097 . S
Co485 O498 2.042 . S
C486 O494 1.253 . S
C486 O499 1.263 . S
H487 C483 0.931 . S
O488 Co473 2.262 . S
O488 Co485 2.097 . S
O488 C512 1.253 . S
O489 Co485 2.065 . S
O489 C505 1.221 . S
O490 Co485 2.065 . S
O490 C500 1.221 . S
O491 Co485 2.042 . S
O491 C506 1.237 . S
O492 Co473 1.958 . S
O492 C506 1.278 . S
O493 Co479 1.950 . S
O493 C505 1.277 . S
O494 Co479 2.262 . S
O494 Co485 2.097 . S
O494 C486 1.253 . S
O495 Co479 1.958 . S
O495 C513 1.278 . S
O496 Co473 1.950 . S
O496 C500 1.277 . S
O497 Co473 2.057 . S
O497 C512 1.263 . S
O498 Co485 2.042 . S
O498 C513 1.237 . S
O499 Co479 2.057 . S
O499 C486 1.263 . S
C500 O490 1.221 . S
C500 O496 1.277 . S
C501 C484 1.361 . S
C501 H502 0.960 . S
C501 H503 0.961 . S
C501 H504 0.961 . S
H502 C501 0.960 . S
H503 C501 0.961 . S
H504 C501 0.961 . S
C505 O489 1.221 . S
C505 O493 1.277 . S
C506 O491 1.237 . S
C506 O492 1.278 . S
H507 C475 0.931 . S
H508 C511 0.961 . S
H509 C511 0.961 . S
H510 C511 0.960 . S
C511 C477 1.361 . S
C511 H508 0.961 . S
C511 H509 0.961 . S
C511 H510 0.960 . S
C512 O488 1.253 . S
C512 O497 1.263 . S
C513 O495 1.278 . S
C513 O498 1.237 . S
H514 C478 0.930 . S
H515 C482 0.930 . S
Co516 N517 2.034 . S
Co516 O531 2.262 1_455 S
Co516 O535 1.958 1_455 S
Co516 O539 1.950 . S
Co516 O540 2.057 . S
N517 Co516 2.034 . S
N517 C518 1.366 . S
N517 C520 1.332 . S
C518 N517 1.366 . S
C518 C521 1.377 . S
C518 H550 0.931 . S
N519 C520 1.346 . S
N519 C521 1.337 . S
C520 N517 1.332 . S
C520 N519 1.346 . S
C520 C554 1.361 . S
C521 C518 1.377 . S
C521 N519 1.337 . S
C521 H557 0.930 . S
Co522 N523 2.034 . S
Co522 O536 1.950 . S
Co522 O537 2.262 . S
Co522 O538 1.958 . S
Co522 O542 2.057 . S
N523 Co522 2.034 . S
N523 C526 1.366 . S
N523 C527 1.332 . S
N524 C525 1.337 . S
N524 C527 1.346 . S
C525 N524 1.337 . S
C525 C526 1.377 . S
C525 H558 0.930 . S
C526 N523 1.366 . S
C526 C525 1.377 . S
C526 H530 0.931 . S
C527 N523 1.332 . S
C527 N524 1.346 . S
C527 C544 1.361 . S
Co528 O531 2.097 . S
Co528 O532 2.065 . S
Co528 O533 2.065 . S
Co528 O534 2.042 . S
Co528 O537 2.097 . S
Co528 O541 2.042 . S
C529 O537 1.253 . S
C529 O542 1.263 . S
H530 C526 0.931 . S
O531 Co516 2.262 1_655 S
O531 Co528 2.097 . S
O531 C555 1.253 . S
O532 Co528 2.065 . S
O532 C548 1.221 . S
O533 Co528 2.065 . S
O533 C543 1.221 . S
O534 Co528 2.042 . S
O534 C549 1.237 . S
O535 Co516 1.958 1_655 S
O535 C549 1.278 . S
O536 Co522 1.950 . S
O536 C548 1.277 . S
O537 Co522 2.262 . S
O537 Co528 2.097 . S
O537 C529 1.253 . S
O538 Co522 1.958 . S
O538 C556 1.278 . S
O539 Co516 1.950 . S
O539 C543 1.277 1_455 S
O540 Co516 2.057 . S
O540 C555 1.263 1_455 S
O541 Co528 2.042 . S
O541 C556 1.237 . S
O542 Co522 2.057 . S
O542 C529 1.263 . S
C543 O533 1.221 . S
C543 O539 1.277 1_655 S
C544 C527 1.361 . S
C544 H545 0.960 . S
C544 H546 0.961 . S
C544 H547 0.961 . S
H545 C544 0.960 . S
H546 C544 0.961 . S
H547 C544 0.961 . S
C548 O532 1.221 . S
C548 O536 1.277 . S
C549 O534 1.237 . S
C549 O535 1.278 . S
H550 C518 0.931 . S
H551 C554 0.961 . S
H552 C554 0.961 . S
H553 C554 0.960 . S
C554 C520 1.361 . S
C554 H551 0.961 . S
C554 H552 0.961 . S
C554 H553 0.960 . S
C555 O531 1.253 . S
C555 O540 1.263 1_655 S
C556 O538 1.278 . S
C556 O541 1.237 . S
H557 C521 0.930 . S
H558 C525 0.930 . S
Co559 N560 2.034 . S
Co559 O574 2.262 1_554 S
Co559 O578 1.958 . S
Co559 O582 1.950 . S
Co559 O583 2.057 1_554 S
N560 Co559 2.034 . S
N560 C561 1.366 . S
N560 C563 1.332 . S
C561 N560 1.366 . S
C561 C564 1.377 . S
C561 H593 0.931 . S
N562 C563 1.346 . S
N562 C564 1.337 . S
C563 N560 1.332 . S
C563 N562 1.346 . S
C563 C597 1.361 . S
C564 C561 1.377 . S
C564 N562 1.337 . S
C564 H600 0.930 . S
Co565 N566 2.034 . S
Co565 O579 1.950 . S
Co565 O580 2.262 . S
Co565 O581 1.958 . S
Co565 O585 2.057 . S
N566 Co565 2.034 . S
N566 C569 1.366 1_554 S
N566 C570 1.332 . S
N567 C568 1.337 . S
N567 C570 1.346 . S
C568 N567 1.337 . S
C568 C569 1.377 1_554 S
C568 H601 0.930 1_554 S
C569 N566 1.366 1_556 S
C569 C568 1.377 1_556 S
C569 H573 0.931 . S
C570 N566 1.332 . S
C570 N567 1.346 . S
C570 C587 1.361 . S
Co571 O574 2.097 1_554 S
Co571 O575 2.065 . S
Co571 O576 2.065 . S
Co571 O577 2.042 . S
Co571 O580 2.097 . S
Co571 O584 2.042 1_554 S
C572 O580 1.253 . S
C572 O585 1.263 . S
H573 C569 0.931 . S
O574 Co559 2.262 1_556 S
O574 Co571 2.097 1_556 S
O574 C598 1.253 . S
O575 Co571 2.065 . S
O575 C591 1.221 . S
O576 Co571 2.065 . S
O576 C586 1.221 . S
O577 Co571 2.042 . S
O577 C592 1.237 . S
O578 Co559 1.958 . S
O578 C592 1.278 . S
O579 Co565 1.950 . S
O579 C591 1.277 . S
O580 Co565 2.262 . S
O580 Co571 2.097 . S
O580 C572 1.253 . S
O581 Co565 1.958 . S
O581 C599 1.277 1_554 S
O582 Co559 1.950 . S
O582 C586 1.277 . S
O583 Co559 2.057 1_556 S
O583 C598 1.263 . S
O584 Co571 2.042 1_556 S
O584 C599 1.237 . S
O585 Co565 2.057 . S
O585 C572 1.263 . S
C586 O576 1.221 . S
C586 O582 1.277 . S
C587 C570 1.361 . S
C587 H588 0.960 . S
C587 H589 0.961 . S
C587 H590 0.961 . S
H588 C587 0.960 . S
H589 C587 0.961 . S
H590 C587 0.961 . S
C591 O575 1.221 . S
C591 O579 1.277 . S
C592 O577 1.237 . S
C592 O578 1.278 . S
H593 C561 0.931 . S
H594 C597 0.961 . S
H595 C597 0.961 . S
H596 C597 0.960 . S
C597 C563 1.361 . S
C597 H594 0.961 . S
C597 H595 0.961 . S
C597 H596 0.960 . S
C598 O574 1.253 . S
C598 O583 1.263 . S
C599 O581 1.277 1_556 S
C599 O584 1.237 . S
H600 C564 0.930 . S
H601 C568 0.930 1_556 S
Co602 N603 2.034 . S
Co602 O617 2.262 . S
Co602 O621 1.958 . S
Co602 O625 1.950 . S
Co602 O626 2.057 . S
N603 Co602 2.034 . S
N603 C604 1.366 . S
N603 C606 1.332 . S
C604 N603 1.366 . S
C604 C607 1.377 . S
C604 H636 0.931 . S
N605 C606 1.346 . S
N605 C607 1.337 . S
C606 N603 1.332 . S
C606 N605 1.346 . S
C606 C640 1.361 . S
C607 C604 1.377 . S
C607 N605 1.337 . S
C607 H643 0.930 . S
Co608 N609 2.034 . S
Co608 O622 1.950 . S
Co608 O623 2.262 . S
Co608 O624 1.958 . S
Co608 O628 2.057 . S
N609 Co608 2.034 . S
N609 C612 1.366 . S
N609 C613 1.332 . S
N610 C611 1.337 . S
N610 C613 1.346 . S
C611 N610 1.337 . S
C611 C612 1.377 . S
C611 H644 0.930 . S
C612 N609 1.366 . S
C612 C611 1.377 . S
C612 H616 0.931 . S
C613 N609 1.332 . S
C613 N610 1.346 . S
C613 C630 1.361 . S
Co614 O617 2.097 . S
Co614 O618 2.065 . S
Co614 O619 2.065 . S
Co614 O620 2.042 . S
Co614 O623 2.097 . S
Co614 O627 2.042 . S
C615 O623 1.253 . S
C615 O628 1.263 . S
H616 C612 0.931 . S
O617 Co602 2.262 . S
O617 Co614 2.097 . S
O617 C641 1.253 . S
O618 Co614 2.065 . S
O618 C634 1.221 . S
O619 Co614 2.065 . S
O619 C629 1.221 . S
O620 Co614 2.042 . S
O620 C635 1.237 . S
O621 Co602 1.958 . S
O621 C635 1.278 . S
O622 Co608 1.950 . S
O622 C634 1.277 . S
O623 Co608 2.262 . S
O623 Co614 2.097 . S
O623 C615 1.253 . S
O624 Co608 1.958 . S
O624 C642 1.278 . S
O625 Co602 1.950 . S
O625 C629 1.277 . S
O626 Co602 2.057 . S
O626 C641 1.263 . S
O627 Co614 2.042 . S
O627 C642 1.237 . S
O628 Co608 2.057 . S
O628 C615 1.263 . S
C629 O619 1.221 . S
C629 O625 1.277 . S
C630 C613 1.361 . S
C630 H631 0.960 . S
C630 H632 0.961 . S
C630 H633 0.961 . S
H631 C630 0.960 . S
H632 C630 0.961 . S
H633 C630 0.961 . S
C634 O618 1.221 . S
C634 O622 1.277 . S
C635 O620 1.237 . S
C635 O621 1.278 . S
H636 C604 0.931 . S
H637 C640 0.961 . S
H638 C640 0.961 . S
H639 C640 0.960 . S
C640 C606 1.361 . S
C640 H637 0.961 . S
C640 H638 0.961 . S
C640 H639 0.960 . S
C641 O617 1.253 . S
C641 O626 1.263 . S
C642 O624 1.278 . S
C642 O627 1.237 . S
H643 C607 0.930 . S
H644 C611 0.930 . S
Co645 N646 2.034 . S
Co645 O660 2.262 . S
Co645 O664 1.958 . S
Co645 O668 1.950 . S
Co645 O669 2.057 . S
N646 Co645 2.034 . S
N646 C647 1.366 1_556 S
N646 C649 1.332 . S
C647 N646 1.366 1_554 S
C647 C650 1.377 1_554 S
C647 H679 0.931 . S
N648 C649 1.346 . S
N648 C650 1.337 . S
C649 N646 1.332 . S
C649 N648 1.346 . S
C649 C683 1.361 . S
C650 C647 1.377 1_556 S
C650 N648 1.337 . S
C650 H686 0.930 1_556 S
Co651 N652 2.034 . S
Co651 O665 1.950 . S
Co651 O666 2.262 1_656 S
Co651 O667 1.958 1_655 S
Co651 O671 2.057 1_556 S
N652 Co651 2.034 . S
N652 C655 1.366 . S
N652 C656 1.332 . S
N653 C654 1.337 . S
N653 C656 1.346 . S
C654 N653 1.337 . S
C654 C655 1.377 . S
C654 H687 0.930 . S
C655 N652 1.366 . S
C655 C654 1.377 . S
C655 H659 0.931 . S
C656 N652 1.332 . S
C656 N653 1.346 . S
C656 C673 1.361 . S
Co657 O660 2.097 . S
Co657 O661 2.065 . S
Co657 O662 2.065 . S
Co657 O663 2.042 1_556 S
Co657 O666 2.097 1_556 S
Co657 O670 2.042 . S
C658 O666 1.253 . S
C658 O671 1.263 1_455 S
H659 C655 0.931 . S
O660 Co645 2.262 . S
O660 Co657 2.097 . S
O660 C684 1.253 . S
O661 Co657 2.065 . S
O661 C677 1.221 . S
O662 Co657 2.065 . S
O662 C672 1.221 . S
O663 Co657 2.042 1_554 S
O663 C678 1.237 . S
O664 Co645 1.958 . S
O664 C678 1.277 1_556 S
O665 Co651 1.950 . S
O665 C677 1.277 1_655 S
O666 Co651 2.262 1_454 S
O666 Co657 2.097 1_554 S
O666 C658 1.253 . S
O667 Co651 1.958 1_455 S
O667 C685 1.278 . S
O668 Co645 1.950 . S
O668 C672 1.277 . S
O669 Co645 2.057 . S
O669 C684 1.263 . S
O670 Co657 2.042 . S
O670 C685 1.237 . S
O671 Co651 2.057 1_554 S
O671 C658 1.263 1_655 S
C672 O662 1.221 . S
C672 O668 1.277 . S
C673 C656 1.361 . S
C673 H674 0.960 . S
C673 H675 0.961 . S
C673 H676 0.961 . S
H674 C673 0.960 . S
H675 C673 0.961 . S
H676 C673 0.961 . S
C677 O661 1.221 . S
C677 O665 1.277 1_455 S
C678 O663 1.237 . S
C678 O664 1.277 1_554 S
H679 C647 0.931 . S
H680 C683 0.961 . S
H681 C683 0.961 . S
H682 C683 0.960 . S
C683 C649 1.361 . S
C683 H680 0.961 . S
C683 H681 0.961 . S
C683 H682 0.960 . S
C684 O660 1.253 . S
C684 O669 1.263 . S
C685 O667 1.278 . S
C685 O670 1.237 . S
H686 C650 0.930 1_554 S
H687 C654 0.930 . S
Co688 N689 2.034 . S
Co688 O703 2.262 . S
Co688 O707 1.958 . S
Co688 O711 1.950 . S
Co688 O712 2.057 . S
N689 Co688 2.034 . S
N689 C690 1.366 . S
N689 C692 1.332 . S
C690 N689 1.366 . S
C690 C693 1.377 . S
C690 H722 0.931 . S
N691 C692 1.346 . S
N691 C693 1.337 . S
C692 N689 1.332 . S
C692 N691 1.346 . S
C692 C726 1.361 . S
C693 C690 1.377 . S
C693 N691 1.337 . S
C693 H729 0.930 . S
Co694 N695 2.034 . S
Co694 O708 1.950 . S
Co694 O709 2.262 1_545 S
Co694 O710 1.958 1_545 S
Co694 O714 2.057 . S
N695 Co694 2.034 . S
N695 C698 1.366 . S
N695 C699 1.332 . S
N696 C697 1.337 . S
N696 C699 1.346 . S
C697 N696 1.337 . S
C697 C698 1.377 . S
C697 H730 0.930 . S
C698 N695 1.366 . S
C698 C697 1.377 . S
C698 H702 0.931 . S
C699 N695 1.332 . S
C699 N696 1.346 . S
C699 C716 1.361 . S
Co700 O703 2.097 . S
Co700 O704 2.065 . S
Co700 O705 2.065 . S
Co700 O706 2.042 . S
Co700 O709 2.097 . S
Co700 O713 2.042 . S
C701 O709 1.253 . S
C701 O714 1.263 1_565 S
H702 C698 0.931 . S
O703 Co688 2.262 . S
O703 Co700 2.097 . S
O703 C727 1.253 . S
O704 Co700 2.065 . S
O704 C720 1.221 . S
O705 Co700 2.065 . S
O705 C715 1.221 . S
O706 Co700 2.042 . S
O706 C721 1.237 . S
O707 Co688 1.958 . S
O707 C721 1.278 . S
O708 Co694 1.950 . S
O708 C720 1.277 1_545 S
O709 Co694 2.262 1_565 S
O709 Co700 2.097 . S
O709 C701 1.253 . S
O710 Co694 1.958 1_565 S
O710 C728 1.278 . S
O711 Co688 1.950 . S
O711 C715 1.277 . S
O712 Co688 2.057 . S
O712 C727 1.263 . S
O713 Co700 2.042 . S
O713 C728 1.237 . S
O714 Co694 2.057 . S
O714 C701 1.263 1_545 S
C715 O705 1.221 . S
C715 O711 1.277 . S
C716 C699 1.361 . S
C716 H717 0.960 . S
C716 H718 0.961 . S
C716 H719 0.961 . S
H717 C716 0.960 . S
H718 C716 0.961 . S
H719 C716 0.961 . S
C720 O704 1.221 . S
C720 O708 1.277 1_565 S
C721 O706 1.237 . S
C721 O707 1.278 . S
H722 C690 0.931 . S
H723 C726 0.961 . S
H724 C726 0.961 . S
H725 C726 0.960 . S
C726 C692 1.361 . S
C726 H723 0.961 . S
C726 H724 0.961 . S
C726 H725 0.960 . S
C727 O703 1.253 . S
C727 O712 1.263 . S
C728 O710 1.278 . S
C728 O713 1.237 . S
H729 C693 0.930 . S
H730 C697 0.930 . S
Co731 N732 2.034 . S
Co731 O746 2.262 1_665 S
Co731 O750 1.958 1_565 S
Co731 O754 1.950 . S
Co731 O755 2.057 1_655 S
N732 Co731 2.034 . S
N732 C733 1.366 . S
N732 C735 1.332 . S
C733 N732 1.366 . S
C733 C736 1.377 . S
C733 H765 0.931 . S
N734 C735 1.346 . S
N734 C736 1.337 . S
C735 N732 1.332 . S
C735 N734 1.346 . S
C735 C769 1.361 . S
C736 C733 1.377 . S
C736 N734 1.337 . S
C736 H772 0.930 . S
Co737 N738 2.034 . S
Co737 O751 1.950 . S
Co737 O752 2.262 . S
Co737 O753 1.958 . S
Co737 O757 2.057 . S
N738 Co737 2.034 . S
N738 C741 1.366 1_655 S
N738 C742 1.332 . S
N739 C740 1.337 . S
N739 C742 1.346 . S
C740 N739 1.337 . S
C740 C741 1.377 1_655 S
C740 H773 0.930 1_655 S
C741 N738 1.366 1_455 S
C741 C740 1.377 1_455 S
C741 H745 0.931 . S
C742 N738 1.332 . S
C742 N739 1.346 . S
C742 C759 1.361 . S
Co743 O746 2.097 1_655 S
Co743 O747 2.065 . S
Co743 O748 2.065 . S
Co743 O749 2.042 . S
Co743 O752 2.097 . S
Co743 O756 2.042 1_655 S
C744 O752 1.253 . S
C744 O757 1.263 . S
H745 C741 0.931 . S
O746 Co731 2.262 1_445 S
O746 Co743 2.097 1_455 S
O746 C770 1.253 . S
O747 Co743 2.065 . S
O747 C763 1.221 . S
O748 Co743 2.065 . S
O748 C758 1.221 . S
O749 Co743 2.042 . S
O749 C764 1.237 . S
O750 Co731 1.958 1_545 S
O750 C764 1.278 . S
O751 Co737 1.950 . S
O751 C763 1.277 . S
O752 Co737 2.262 . S
O752 Co743 2.097 . S
O752 C744 1.253 . S
O753 Co737 1.958 . S
O753 C771 1.277 1_655 S
O754 Co731 1.950 . S
O754 C758 1.277 1_565 S
O755 Co731 2.057 1_455 S
O755 C770 1.263 1_565 S
O756 Co743 2.042 1_455 S
O756 C771 1.237 . S
O757 Co737 2.057 . S
O757 C744 1.263 . S
C758 O748 1.221 . S
C758 O754 1.277 1_545 S
C759 C742 1.361 . S
C759 H760 0.960 . S
C759 H761 0.961 . S
C759 H762 0.961 . S
H760 C759 0.960 . S
H761 C759 0.961 . S
H762 C759 0.961 . S
C763 O747 1.221 . S
C763 O751 1.277 . S
C764 O749 1.237 . S
C764 O750 1.278 . S
H765 C733 0.931 . S
H766 C769 0.961 . S
H767 C769 0.961 . S
H768 C769 0.960 . S
C769 C735 1.361 . S
C769 H766 0.961 . S
C769 H767 0.961 . S
C769 H768 0.960 . S
C770 O746 1.253 . S
C770 O755 1.263 1_545 S
C771 O753 1.277 1_455 S
C771 O756 1.237 . S
H772 C736 0.930 . S
H773 C740 0.930 1_455 S
Co774 N775 2.034 . S
Co774 O789 2.262 . S
Co774 O793 1.958 . S
Co774 O797 1.950 . S
Co774 O798 2.057 . S
N775 Co774 2.034 . S
N775 C776 1.366 1_455 S
N775 C778 1.332 . S
C776 N775 1.366 1_655 S
C776 C779 1.377 1_655 S
C776 H808 0.931 . S
N777 C778 1.346 . S
N777 C779 1.337 . S
C778 N775 1.332 . S
C778 N777 1.346 . S
C778 C812 1.361 . S
C779 C776 1.377 1_455 S
C779 N777 1.337 . S
C779 H815 0.930 1_455 S
Co780 N781 2.034 . S
Co780 O794 1.950 . S
Co780 O795 2.262 1_455 S
Co780 O796 1.958 . S
Co780 O800 2.057 1_455 S
N781 Co780 2.034 . S
N781 C784 1.366 . S
N781 C785 1.332 . S
N782 C783 1.337 . S
N782 C785 1.346 . S
C783 N782 1.337 . S
C783 C784 1.377 . S
C783 H816 0.930 . S
C784 N781 1.366 . S
C784 C783 1.377 . S
C784 H788 0.931 . S
C785 N781 1.332 . S
C785 N782 1.346 . S
C785 C802 1.361 . S
Co786 O789 2.097 . S
Co786 O790 2.065 . S
Co786 O791 2.065 . S
Co786 O792 2.042 1_455 S
Co786 O795 2.097 1_455 S
Co786 O799 2.042 . S
C787 O795 1.253 . S
C787 O800 1.263 . S
H788 C784 0.931 . S
O789 Co774 2.262 . S
O789 Co786 2.097 . S
O789 C813 1.253 . S
O790 Co786 2.065 . S
O790 C806 1.221 . S
O791 Co786 2.065 . S
O791 C801 1.221 . S
O792 Co786 2.042 1_655 S
O792 C807 1.237 . S
O793 Co774 1.958 . S
O793 C807 1.277 1_455 S
O794 Co780 1.950 . S
O794 C806 1.277 . S
O795 Co780 2.262 1_655 S
O795 Co786 2.097 1_655 S
O795 C787 1.253 . S
O796 Co780 1.958 . S
O796 C814 1.278 . S
O797 Co774 1.950 . S
O797 C801 1.277 . S
O798 Co774 2.057 . S
O798 C813 1.263 . S
O799 Co786 2.042 . S
O799 C814 1.237 . S
O800 Co780 2.057 1_655 S
O800 C787 1.263 . S
C801 O791 1.221 . S
C801 O797 1.277 . S
C802 C785 1.361 . S
C802 H803 0.960 . S
C802 H804 0.961 . S
C802 H805 0.961 . S
H803 C802 0.960 . S
H804 C802 0.961 . S
H805 C802 0.961 . S
C806 O790 1.221 . S
C806 O794 1.277 . S
C807 O792 1.237 . S
C807 O793 1.277 1_655 S
H808 C776 0.931 . S
H809 C812 0.961 . S
H810 C812 0.961 . S
H811 C812 0.960 . S
C812 C778 1.361 . S
C812 H809 0.961 . S
C812 H810 0.961 . S
C812 H811 0.960 . S
C813 O789 1.253 . S
C813 O798 1.263 . S
C814 O796 1.278 . S
C814 O799 1.237 . S
H815 C779 0.930 1_655 S
H816 C783 0.930 . S
Co817 N818 2.034 . S
Co817 O832 2.262 . S
Co817 O836 1.958 . S
Co817 O840 1.950 . S
Co817 O841 2.057 . S
N818 Co817 2.034 . S
N818 C819 1.366 . S
N818 C821 1.332 . S
C819 N818 1.366 . S
C819 C822 1.377 . S
C819 H851 0.931 . S
N820 C821 1.346 . S
N820 C822 1.337 . S
C821 N818 1.332 . S
C821 N820 1.346 . S
C821 C855 1.361 . S
C822 C819 1.377 . S
C822 N820 1.337 . S
C822 H858 0.930 . S
Co823 N824 2.034 . S
Co823 O837 1.950 . S
Co823 O838 2.262 . S
Co823 O839 1.958 . S
Co823 O843 2.057 . S
N824 Co823 2.034 . S
N824 C827 1.366 . S
N824 C828 1.332 . S
N825 C826 1.337 . S
N825 C828 1.346 . S
C826 N825 1.337 . S
C826 C827 1.377 . S
C826 H859 0.930 . S
C827 N824 1.366 . S
C827 C826 1.377 . S
C827 H831 0.931 . S
C828 N824 1.332 . S
C828 N825 1.346 . S
C828 C845 1.361 . S
Co829 O832 2.097 . S
Co829 O833 2.065 . S
Co829 O834 2.065 . S
Co829 O835 2.042 . S
Co829 O838 2.097 . S
Co829 O842 2.042 . S
C830 O838 1.253 . S
C830 O843 1.263 . S
H831 C827 0.931 . S
O832 Co817 2.262 . S
O832 Co829 2.097 . S
O832 C856 1.253 . S
O833 Co829 2.065 . S
O833 C849 1.221 . S
O834 Co829 2.065 . S
O834 C844 1.221 . S
O835 Co829 2.042 . S
O835 C850 1.237 . S
O836 Co817 1.958 . S
O836 C850 1.278 . S
O837 Co823 1.950 . S
O837 C849 1.277 . S
O838 Co823 2.262 . S
O838 Co829 2.097 . S
O838 C830 1.253 . S
O839 Co823 1.958 . S
O839 C857 1.278 . S
O840 Co817 1.950 . S
O840 C844 1.277 . S
O841 Co817 2.057 . S
O841 C856 1.263 . S
O842 Co829 2.042 . S
O842 C857 1.237 . S
O843 Co823 2.057 . S
O843 C830 1.263 . S
C844 O834 1.221 . S
C844 O840 1.277 . S
C845 C828 1.361 . S
C845 H846 0.960 . S
C845 H847 0.961 . S
C845 H848 0.961 . S
H846 C845 0.960 . S
H847 C845 0.961 . S
H848 C845 0.961 . S
C849 O833 1.221 . S
C849 O837 1.277 . S
C850 O835 1.237 . S
C850 O836 1.278 . S
H851 C819 0.931 . S
H852 C855 0.961 . S
H853 C855 0.961 . S
H854 C855 0.960 . S
C855 C821 1.361 . S
C855 H852 0.961 . S
C855 H853 0.961 . S
C855 H854 0.960 . S
C856 O832 1.253 . S
C856 O841 1.263 . S
C857 O839 1.278 . S
C857 O842 1.237 . S
H858 C822 0.930 . S
H859 C826 0.930 . S
Co860 N861 2.034 . S
Co860 O875 2.262 . S
Co860 O879 1.958 . S
Co860 O883 1.950 . S
Co860 O884 2.057 . S
N861 Co860 2.034 . S
N861 C862 1.366 . S
N861 C864 1.332 . S
C862 N861 1.366 . S
C862 C865 1.377 . S
C862 H894 0.931 . S
N863 C864 1.346 . S
N863 C865 1.337 . S
C864 N861 1.332 . S
C864 N863 1.346 . S
C864 C898 1.361 . S
C865 C862 1.377 . S
C865 N863 1.337 . S
C865 H901 0.930 . S
Co866 N867 2.034 . S
Co866 O880 1.950 . S
Co866 O881 2.262 1_554 S
Co866 O882 1.958 1_554 S
Co866 O886 2.057 . S
N867 Co866 2.034 . S
N867 C870 1.366 . S
N867 C871 1.332 . S
N868 C869 1.337 . S
N868 C871 1.346 . S
C869 N868 1.337 . S
C869 C870 1.377 . S
C869 H902 0.930 . S
C870 N867 1.366 . S
C870 C869 1.377 . S
C870 H874 0.931 . S
C871 N867 1.332 . S
C871 N868 1.346 . S
C871 C888 1.361 . S
Co872 O875 2.097 . S
Co872 O876 2.065 . S
Co872 O877 2.065 . S
Co872 O878 2.042 . S
Co872 O881 2.097 . S
Co872 O885 2.042 . S
C873 O881 1.253 . S
C873 O886 1.263 1_556 S
H874 C870 0.931 . S
O875 Co860 2.262 . S
O875 Co872 2.097 . S
O875 C899 1.253 . S
O876 Co872 2.065 . S
O876 C892 1.221 . S
O877 Co872 2.065 . S
O877 C887 1.221 . S
O878 Co872 2.042 . S
O878 C893 1.237 . S
O879 Co860 1.958 . S
O879 C893 1.278 . S
O880 Co866 1.950 . S
O880 C892 1.277 1_554 S
O881 Co866 2.262 1_556 S
O881 Co872 2.097 . S
O881 C873 1.253 . S
O882 Co866 1.958 1_556 S
O882 C900 1.278 . S
O883 Co860 1.950 . S
O883 C887 1.277 . S
O884 Co860 2.057 . S
O884 C899 1.263 . S
O885 Co872 2.042 . S
O885 C900 1.237 . S
O886 Co866 2.057 . S
O886 C873 1.263 1_554 S
C887 O877 1.221 . S
C887 O883 1.277 . S
C888 C871 1.361 . S
C888 H889 0.960 . S
C888 H890 0.961 . S
C888 H891 0.961 . S
H889 C888 0.960 . S
H890 C888 0.961 . S
H891 C888 0.961 . S
C892 O876 1.221 . S
C892 O880 1.277 1_556 S
C893 O878 1.237 . S
C893 O879 1.278 . S
H894 C862 0.931 . S
H895 C898 0.961 . S
H896 C898 0.961 . S
H897 C898 0.960 . S
C898 C864 1.361 . S
C898 H895 0.961 . S
C898 H896 0.961 . S
C898 H897 0.960 . S
C899 O875 1.253 . S
C899 O884 1.263 . S
C900 O882 1.278 . S
C900 O885 1.237 . S
H901 C865 0.930 . S
H902 C869 0.930 . S
Co903 N904 2.034 . S
Co903 O918 2.262 1_566 S
Co903 O922 1.958 1_556 S
Co903 O926 1.950 . S
Co903 O927 2.057 1_565 S
N904 Co903 2.034 . S
N904 C905 1.366 . S
N904 C907 1.332 . S
C905 N904 1.366 . S
C905 C908 1.377 . S
C905 H937 0.931 . S
N906 C907 1.346 . S
N906 C908 1.337 . S
C907 N904 1.332 . S
C907 N906 1.346 . S
C907 C941 1.361 . S
C908 C905 1.377 . S
C908 N906 1.337 . S
C908 H944 0.930 . S
Co909 N910 2.034 . S
Co909 O923 1.950 . S
Co909 O924 2.262 . S
Co909 O925 1.958 . S
Co909 O929 2.057 . S
N910 Co909 2.034 . S
N910 C913 1.366 1_565 S
N910 C914 1.332 . S
N911 C912 1.337 . S
N911 C914 1.346 . S
C912 N911 1.337 . S
C912 C913 1.377 1_565 S
C912 H945 0.930 1_565 S
C913 N910 1.366 1_545 S
C913 C912 1.377 1_545 S
C913 H917 0.931 . S
C914 N910 1.332 . S
C914 N911 1.346 . S
C914 C931 1.361 . S
Co915 O918 2.097 1_565 S
Co915 O919 2.065 . S
Co915 O920 2.065 . S
Co915 O921 2.042 . S
Co915 O924 2.097 . S
Co915 O928 2.042 1_565 S
C916 O924 1.253 . S
C916 O929 1.263 . S
H917 C913 0.931 . S
O918 Co903 2.262 1_544 S
O918 Co915 2.097 1_545 S
O918 C942 1.253 . S
O919 Co915 2.065 . S
O919 C935 1.221 . S
O920 Co915 2.065 . S
O920 C930 1.221 . S
O921 Co915 2.042 . S
O921 C936 1.237 . S
O922 Co903 1.958 1_554 S
O922 C936 1.278 . S
O923 Co909 1.950 . S
O923 C935 1.277 . S
O924 Co909 2.262 . S
O924 Co915 2.097 . S
O924 C916 1.253 . S
O925 Co909 1.958 . S
O925 C943 1.277 1_565 S
O926 Co903 1.950 . S
O926 C930 1.277 1_556 S
O927 Co903 2.057 1_545 S
O927 C942 1.263 1_556 S
O928 Co915 2.042 1_545 S
O928 C943 1.237 . S
O929 Co909 2.057 . S
O929 C916 1.263 . S
C930 O920 1.221 . S
C930 O926 1.277 1_554 S
C931 C914 1.361 . S
C931 H932 0.960 . S
C931 H933 0.961 . S
C931 H934 0.961 . S
H932 C931 0.960 . S
H933 C931 0.961 . S
H934 C931 0.961 . S
C935 O919 1.221 . S
C935 O923 1.277 . S
C936 O921 1.237 . S
C936 O922 1.278 . S
H937 C905 0.931 . S
H938 C941 0.961 . S
H939 C941 0.961 . S
H940 C941 0.960 . S
C941 C907 1.361 . S
C941 H938 0.961 . S
C941 H939 0.961 . S
C941 H940 0.960 . S
C942 O918 1.253 . S
C942 O927 1.263 1_554 S
C943 O925 1.277 1_545 S
C943 O928 1.237 . S
H944 C908 0.930 . S
H945 C912 0.930 1_545 S
Co946 N947 2.034 . S
Co946 O961 2.262 1_545 S
Co946 O965 1.958 . S
Co946 O969 1.950 . S
Co946 O970 2.057 1_545 S
N947 Co946 2.034 . S
N947 C948 1.366 . S
N947 C950 1.332 . S
C948 N947 1.366 . S
C948 C951 1.377 . S
C948 H980 0.931 . S
N949 C950 1.346 . S
N949 C951 1.337 . S
C950 N947 1.332 . S
C950 N949 1.346 . S
C950 C984 1.361 . S
C951 C948 1.377 . S
C951 N949 1.337 . S
C951 H987 0.930 . S
Co952 N953 2.034 . S
Co952 O966 1.950 . S
Co952 O967 2.262 . S
Co952 O968 1.958 . S
Co952 O972 2.057 . S
N953 Co952 2.034 . S
N953 C956 1.366 1_545 S
N953 C957 1.332 . S
N954 C955 1.337 . S
N954 C957 1.346 . S
C955 N954 1.337 . S
C955 C956 1.377 1_545 S
C955 H988 0.930 1_545 S
C956 N953 1.366 1_565 S
C956 C955 1.377 1_565 S
C956 H960 0.931 . S
C957 N953 1.332 . S
C957 N954 1.346 . S
C957 C974 1.361 . S
Co958 O961 2.097 1_545 S
Co958 O962 2.065 . S
Co958 O963 2.065 . S
Co958 O964 2.042 . S
Co958 O967 2.097 . S
Co958 O971 2.042 1_545 S
C959 O967 1.253 . S
C959 O972 1.263 . S
H960 C956 0.931 . S
O961 Co946 2.262 1_565 S
O961 Co958 2.097 1_565 S
O961 C985 1.253 . S
O962 Co958 2.065 . S
O962 C978 1.221 . S
O963 Co958 2.065 . S
O963 C973 1.221 . S
O964 Co958 2.042 . S
O964 C979 1.237 . S
O965 Co946 1.958 . S
O965 C979 1.278 . S
O966 Co952 1.950 . S
O966 C978 1.277 . S
O967 Co952 2.262 . S
O967 Co958 2.097 . S
O967 C959 1.253 . S
O968 Co952 1.958 . S
O968 C986 1.277 1_545 S
O969 Co946 1.950 . S
O969 C973 1.277 . S
O970 Co946 2.057 1_565 S
O970 C985 1.263 . S
O971 Co958 2.042 1_565 S
O971 C986 1.237 . S
O972 Co952 2.057 . S
O972 C959 1.263 . S
C973 O963 1.221 . S
C973 O969 1.277 . S
C974 C957 1.361 . S
C974 H975 0.960 . S
C974 H976 0.961 . S
C974 H977 0.961 . S
H975 C974 0.960 . S
H976 C974 0.961 . S
H977 C974 0.961 . S
C978 O962 1.221 . S
C978 O966 1.277 . S
C979 O964 1.237 . S
C979 O965 1.278 . S
H980 C948 0.931 . S
H981 C984 0.961 . S
H982 C984 0.961 . S
H983 C984 0.960 . S
C984 C950 1.361 . S
C984 H981 0.961 . S
C984 H982 0.961 . S
C984 H983 0.960 . S
C985 O961 1.253 . S
C985 O970 1.263 . S
C986 O968 1.277 1_565 S
C986 O971 1.237 . S
H987 C951 0.930 . S
H988 C955 0.930 1_565 S
Co989 N990 2.034 . S
Co989 O1004 2.262 . S
Co989 O1008 1.958 . S
Co989 O1012 1.950 . S
Co989 O1013 2.057 . S
N990 Co989 2.034 . S
N990 C991 1.366 . S
N990 C993 1.332 . S
C991 N990 1.366 . S
C991 C994 1.377 . S
C991 H1023 0.931 . S
N992 C993 1.346 . S
N992 C994 1.337 . S
C993 N990 1.332 . S
C993 N992 1.346 . S
C993 C1027 1.361 . S
C994 C991 1.377 . S
C994 N992 1.337 . S
C994 H1030 0.930 . S
Co995 N996 2.034 . S
Co995 O1009 1.950 . S
Co995 O1010 2.262 . S
Co995 O1011 1.958 . S
Co995 O1015 2.057 . S
N996 Co995 2.034 . S
N996 C999 1.366 . S
N996 C1000 1.332 . S
N997 C998 1.337 . S
N997 C1000 1.346 . S
C998 N997 1.337 . S
C998 C999 1.377 . S
C998 H1031 0.930 . S
C999 N996 1.366 . S
C999 C998 1.377 . S
C999 H1003 0.931 . S
C1000 N996 1.332 . S
C1000 N997 1.346 . S
C1000 C1017 1.361 . S
Co1001 O1004 2.097 . S
Co1001 O1005 2.065 . S
Co1001 O1006 2.065 . S
Co1001 O1007 2.042 . S
Co1001 O1010 2.097 . S
Co1001 O1014 2.042 . S
C1002 O1010 1.253 . S
C1002 O1015 1.263 . S
H1003 C999 0.931 . S
O1004 Co989 2.262 . S
O1004 Co1001 2.097 . S
O1004 C1028 1.253 . S
O1005 Co1001 2.065 . S
O1005 C1021 1.221 . S
O1006 Co1001 2.065 . S
O1006 C1016 1.221 . S
O1007 Co1001 2.042 . S
O1007 C1022 1.237 . S
O1008 Co989 1.958 . S
O1008 C1022 1.278 . S
O1009 Co995 1.950 . S
O1009 C1021 1.277 . S
O1010 Co995 2.262 . S
O1010 Co1001 2.097 . S
O1010 C1002 1.253 . S
O1011 Co995 1.958 . S
O1011 C1029 1.278 . S
O1012 Co989 1.950 . S
O1012 C1016 1.277 . S
O1013 Co989 2.057 . S
O1013 C1028 1.263 . S
O1014 Co1001 2.042 . S
O1014 C1029 1.237 . S
O1015 Co995 2.057 . S
O1015 C1002 1.263 . S
C1016 O1006 1.221 . S
C1016 O1012 1.277 . S
C1017 C1000 1.361 . S
C1017 H1018 0.960 . S
C1017 H1019 0.961 . S
C1017 H1020 0.961 . S
H1018 C1017 0.960 . S
H1019 C1017 0.961 . S
H1020 C1017 0.961 . S
C1021 O1005 1.221 . S
C1021 O1009 1.277 . S
C1022 O1007 1.237 . S
C1022 O1008 1.278 . S
H1023 C991 0.931 . S
H1024 C1027 0.961 . S
H1025 C1027 0.961 . S
H1026 C1027 0.960 . S
C1027 C993 1.361 . S
C1027 H1024 0.961 . S
C1027 H1025 0.961 . S
C1027 H1026 0.960 . S
C1028 O1004 1.253 . S
C1028 O1013 1.263 . S
C1029 O1011 1.278 . S
C1029 O1014 1.237 . S
H1030 C994 0.930 . S
H1031 C998 0.930 . S
N782 C13 2.600 . S
C82 N820 2.600 . S
N696 C99 2.600 . S
C168 N734 2.599 . S
N949 C185 2.600 . S
N906 C254 2.599 . S
N997 C271 2.600 . S
N868 C340 2.600 . S
C383 N562 2.600 . S
N653 C400 2.599 . S
C443 N610 2.600 . S
N519 C486 2.600 . S
N266 C549 2.665 . S
N304 C592 2.665 . S
N180 C642 2.665 . S
C685 N218 2.665 . S
N438 C728 2.665 . S
C764 N395 2.665 . S
N481 C814 2.665 . S
N347 C850 2.665 . S
C900 N46 2.665 . S
N132 C936 2.665 . S
C979 N94 2.665 . S
C1029 N8 2.665 . S
N352 C27 4.745 . S
C75 N476 4.745 . S
C113 N390 4.745 . S
C161 N433 4.745 . S
C199 N3 4.745 . S
C247 N51 4.745 . S
N89 C285 4.745 . S
C333 N137 4.745 . S
N175 C376 4.745 . S
C414 N261 4.745 . S
N309 C457 4.745 . S
N223 C500 4.745 . S
N863 C529 4.963 . S
C572 N992 4.963 . S
N911 C641 4.963 . S
C684 N954 4.963 . S
N524 C727 4.963 . S
N567 C744 4.963 . S
C813 N605 4.963 . S
N648 C830 4.963 . S
N691 C899 4.963 . S
C916 N777 4.963 . S
C959 N825 4.963 . S
C1028 N739 4.963 . S
C33 C513 2.979 . S
C377 C83 2.979 . S
C119 C470 2.979 . S
C169 C427 2.979 . S
C126 C205 2.979 . S
C162 C255 2.979 . S
C40 C291 2.979 . S
C341 C76 2.979 . S
C334 C384 2.979 . S
C420 C248 2.979 . S
C212 C463 2.979 . S
C506 C298 2.979 . S
C1002 C556 2.929 . S
C873 C599 2.929 . S
C985 C635 2.929 . S
C942 C678 2.929 . S
C721 C615 2.929 . S
C771 C658 2.929 . S
C807 C555 2.929 . S
C857 C598 2.929 . S
C856 C893 2.929 . S
C770 C943 2.929 . S
C701 C986 2.929 . S
C787 C1022 2.929 . S
C973 C39 2.992 . S
C930 C56 2.993 1_554 S
C125 C1021 2.993 . S
C892 C142 2.993 1_556 S
C211 C586 2.992 . S
C543 C228 2.993 1_655 S
C297 C677 2.993 1_655 S
C314 C634 2.993 . S
C806 C357 2.992 . S
C720 C426 2.993 1_565 S
C469 C758 2.993 1_565 S
C512 C844 2.993 . S
C548 C462 3.229 . S
C591 C419 3.229 1_554 S
C505 C629 3.229 . S
C371 C672 3.229 1_554 S
C715 C70 3.229 . S
C763 C32 3.229 1_655 S
C801 C156 3.229 1_455 S
C849 C118 3.229 . S
C887 C290 3.229 . S
C935 C204 3.229 1_565 S
C978 C242 3.229 1_545 S
C328 C1016 3.229 . S
