# Generated by pormake.
# Topology dia, (4)-cn, num edge types: 1
# Building blocks:
#     Node 0, Type 0, BuildingBlock: AZAVOO_clean_sbu_0, # of connection points: 4
#     Node 1, Type 0, BuildingBlock: AZAVOO_clean_sbu_0, # of connection points: 4
#     Node 2, Type 0, BuildingBlock: AZAVOO_clean_sbu_0, # of connection points: 4
#     Node 3, Type 0, BuildingBlock: AZAVOO_clean_sbu_0, # of connection points: 4
#     Node 4, Type 0, BuildingBlock: AZAVOO_clean_sbu_0, # of connection points: 4
#     Node 5, Type 0, BuildingBlock: AZAVOO_clean_sbu_0, # of connection points: 4
#     Node 6, Type 0, BuildingBlock: AZAVOO_clean_sbu_0, # of connection points: 4
#     Node 7, Type 0, BuildingBlock: AZAVOO_clean_sbu_0, # of connection points: 4
#     Edge 8, Type (0, 0), BuildingBlock: ZUJKAS_clean_linker_0, # of connection points: 2
#     Edge 9, Type (0, 0), BuildingBlock: ZUJKAS_clean_linker_0, # of connection points: 2
#     Edge 10, Type (0, 0), BuildingBlock: ZUJKAS_clean_linker_0, # of connection points: 2
#     Edge 11, Type (0, 0), BuildingBlock: ZUJKAS_clean_linker_0, # of connection points: 2
#     Edge 12, Type (0, 0), BuildingBlock: ZUJKAS_clean_linker_0, # of connection points: 2
#     Edge 13, Type (0, 0), BuildingBlock: ZUJKAS_clean_linker_0, # of connection points: 2
#     Edge 14, Type (0, 0), BuildingBlock: ZUJKAS_clean_linker_0, # of connection points: 2
#     Edge 15, Type (0, 0), BuildingBlock: ZUJKAS_clean_linker_0, # of connection points: 2
#     Edge 16, Type (0, 0), BuildingBlock: ZUJKAS_clean_linker_0, # of connection points: 2
#     Edge 17, Type (0, 0), BuildingBlock: ZUJKAS_clean_linker_0, # of connection points: 2
#     Edge 18, Type (0, 0), BuildingBlock: ZUJKAS_clean_linker_0, # of connection points: 2
#     Edge 19, Type (0, 0), BuildingBlock: ZUJKAS_clean_linker_0, # of connection points: 2
#     Edge 20, Type (0, 0), BuildingBlock: ZUJKAS_clean_linker_0, # of connection points: 2
#     Edge 21, Type (0, 0), BuildingBlock: ZUJKAS_clean_linker_0, # of connection points: 2
#     Edge 22, Type (0, 0), BuildingBlock: ZUJKAS_clean_linker_0, # of connection points: 2
#     Edge 23, Type (0, 0), BuildingBlock: ZUJKAS_clean_linker_0, # of connection points: 2
# Relax obj value: 0.001
# Max RMSD: 0.029
# Mean RMSD: 0.029
data_MOF--net-dia--node1-AZAVOO_clean_sbu_0--edge1-ZUJKAS_clean_linker_0
_symmetry_space_group_name_H-M    P1
_symmetry_Int_Tables_number       1
_symmetry_cell_setting            triclinic
loop_
_symmetry_equiv_pos_as_xyz
'x, y, z'
_cell_length_a     45.235745
_cell_length_b     46.79495
_cell_length_c     45.155574
_cell_angle_alpha  95.260001
_cell_angle_beta   94.291581
_cell_angle_gamma 94.887107
loop_
_atom_site_label
_atom_site_type_symbol
_atom_site_fract_x
_atom_site_fract_y
_atom_site_fract_z
_atom_type_partial_charge
Mg0 Mg 0.13239 0.14334 0.65347 0.0
O1 O 0.09925 0.11346 0.6202 0.0
O2 O 0.07539 0.14228 0.59168 0.0
Mg3 Mg 0.09259 0.18903 0.60508 0.0
C4 C 0.07992 0.11723 0.59905 0.0
C5 C 0.16315 0.10707 0.69657 0.0
O6 O 0.15484 0.12884 0.71346 0.0
O7 O 0.16386 0.15076 0.61718 0.0
O8 O 0.13805 0.17932 0.58983 0.0
O9 O 0.0971 0.14944 0.68523 0.0
O10 O 0.1061 0.1773 0.64952 0.0
C11 C 0.16092 0.16581 0.59513 0.0
C12 C 0.09044 0.17116 0.67103 0.0
O13 O 0.15651 0.1055 0.66855 0.0
Mg14 Mg 0.85035 0.36029 0.86361 0.0
O15 O 0.88228 0.38948 0.89844 0.0
O16 O 0.909 0.36026 0.92377 0.0
Mg17 Mg 0.89527 0.31359 0.90597 0.0
C18 C 0.90235 0.38544 0.91877 0.0
C19 C 0.81872 0.39204 0.81669 0.0
O20 O 0.80896 0.36479 0.80986 0.0
O21 O 0.88857 0.35228 0.83455 0.0
O22 O 0.91326 0.32269 0.86148 0.0
O23 O 0.81638 0.35482 0.89699 0.0
O24 O 0.85203 0.32626 0.88986 0.0
C25 C 0.90987 0.33639 0.83844 0.0
C26 C 0.82982 0.33283 0.90435 0.0
O27 O 0.83776 0.39861 0.83899 0.0
Mg28 Mg 0.6352 0.14889 0.14638 0.0
O29 O 0.60112 0.11979 0.11358 0.0
O30 O 0.57561 0.14892 0.08692 0.0
Mg31 Mg 0.59308 0.19558 0.10121 0.0
C32 C 0.58089 0.12375 0.09339 0.0
C33 C 0.6777 0.11533 0.18216 0.0
O34 O 0.68103 0.14149 0.19603 0.0
O35 O 0.66476 0.15717 0.10867 0.0
O36 O 0.63772 0.18638 0.08352 0.0
O37 O 0.60103 0.15374 0.17955 0.0
O38 O 0.60867 0.1829 0.14464 0.0
C39 C 0.66087 0.17283 0.08722 0.0
C40 C 0.5936 0.17574 0.16622 0.0
O41 O 0.65955 0.11028 0.15898 0.0
Mg42 Mg 0.85078 0.86016 0.36799 0.0
O43 O 0.8836 0.88731 0.40365 0.0
O44 O 0.90878 0.85623 0.42791 0.0
Mg45 Mg 0.89304 0.81032 0.40873 0.0
C46 C 0.9033 0.88194 0.42373 0.0
C47 C 0.82516 0.89447 0.31944 0.0
O48 O 0.81881 0.86742 0.30862 0.0
O49 O 0.88874 0.85131 0.33887 0.0
O50 O 0.91189 0.81985 0.36467 0.0
O51 O 0.81627 0.85517 0.4008 0.0
O52 O 0.85059 0.82519 0.39317 0.0
C53 C 0.90923 0.8344 0.34217 0.0
C54 C 0.82847 0.8323 0.40756 0.0
O55 O 0.83999 0.89987 0.34471 0.0
Mg56 Mg 0.13035 0.64968 0.14357 0.0
O57 O 0.09603 0.62077 0.111 0.0
O58 O 0.07052 0.65011 0.08463 0.0
Mg59 Mg 0.08765 0.69678 0.09959 0.0
C60 C 0.07579 0.62488 0.09088 0.0
C61 C 0.1434 0.59075 0.1677 0.0
O62 O 0.11517 0.59085 0.17275 0.0
O63 O 0.15924 0.65871 0.10565 0.0
O64 O 0.13241 0.68866 0.08136 0.0
O65 O 0.09691 0.65415 0.17762 0.0
O66 O 0.10361 0.68351 0.14272 0.0
C67 C 0.15552 0.67499 0.08472 0.0
C68 C 0.08921 0.67633 0.16475 0.0
O69 O 0.15554 0.61123 0.15486 0.0
Mg70 Mg 0.33751 0.35081 0.35737 0.0
O71 O 0.37472 0.37746 0.38839 0.0
O72 O 0.39924 0.34596 0.41271 0.0
Mg73 Mg 0.37813 0.30013 0.39866 0.0
C74 C 0.39544 0.37175 0.40721 0.0
C75 C 0.29894 0.38968 0.32619 0.0
O76 O 0.28107 0.36938 0.33554 0.0
O77 O 0.37147 0.33623 0.32515 0.0
O78 O 0.39148 0.30322 0.35132 0.0
O79 O 0.30671 0.35152 0.39449 0.0
O80 O 0.33704 0.31802 0.38515 0.0
C81 C 0.38873 0.31615 0.32769 0.0
C82 C 0.31762 0.3281 0.40146 0.0
O83 O 0.32686 0.38931 0.33198 0.0
Mg84 Mg 0.3583 0.85661 0.86652 0.0
O85 O 0.39117 0.8861 0.90006 0.0
O86 O 0.41765 0.85727 0.92613 0.0
Mg87 Mg 0.40234 0.81035 0.91027 0.0
C88 C 0.41142 0.88237 0.92031 0.0
C89 C 0.33428 0.91523 0.85319 0.0
O90 O 0.3306 0.91577 0.88182 0.0
O91 O 0.39569 0.84609 0.83726 0.0
O92 O 0.41982 0.81655 0.86477 0.0
O93 O 0.32466 0.85354 0.9004 0.0
O94 O 0.35927 0.8236 0.89416 0.0
C95 C 0.41633 0.82946 0.84118 0.0
C96 C 0.3374 0.83142 0.90853 0.0
O97 O 0.34656 0.89441 0.84065 0.0
Mg98 Mg 0.62388 0.63489 0.63463 0.0
O99 O 0.59077 0.60509 0.60154 0.0
O100 O 0.56423 0.63381 0.57537 0.0
Mg101 Mg 0.57909 0.68081 0.59118 0.0
C102 C 0.57051 0.60875 0.58125 0.0
C103 C 0.67378 0.60467 0.66373 0.0
O104 O 0.68118 0.63221 0.67179 0.0
O105 O 0.65272 0.64557 0.59696 0.0
O106 O 0.62446 0.67495 0.57347 0.0
O107 O 0.5903 0.63794 0.66875 0.0
O108 O 0.5958 0.66767 0.63403 0.0
C109 C 0.64826 0.66224 0.5765 0.0
C110 C 0.5819 0.66005 0.65621 0.0
O111 O 0.65034 0.59743 0.64639 0.0
H112 H 0.32689 0.27322 0.41122 0.0
H113 H 0.30639 0.24482 0.4485 0.0
H114 H 0.26661 0.31894 0.48637 0.0
H115 H 0.28618 0.34743 0.4479 0.0
H116 H 0.31057 0.24626 0.5072 0.0
H117 H 0.19486 0.2625 0.46648 0.0
H118 H 0.22657 0.2743 0.44739 0.0
H119 H 0.21699 0.29534 0.48011 0.0
C120 C 0.31404 0.28367 0.42763 0.0
C121 C 0.30783 0.3125 0.42645 0.0
C122 C 0.30238 0.26736 0.44902 0.0
C123 C 0.28447 0.27955 0.46986 0.0
C124 C 0.27972 0.30888 0.46995 0.0
H125 H 0.21566 0.19097 0.6149 0.0
H126 H 0.24989 0.2163 0.58458 0.0
C127 C 0.291 0.32517 0.44812 0.0
C128 C 0.26934 0.26076 0.48987 0.0
H129 H 0.20067 0.23558 0.50762 0.0
C130 C 0.28652 0.24388 0.50735 0.0
C131 C 0.23794 0.25727 0.48954 0.0
C132 C 0.21797 0.27308 0.46967 0.0
C133 C 0.27314 0.22344 0.52431 0.0
C134 C 0.24179 0.22047 0.52447 0.0
C135 C 0.22472 0.23769 0.50735 0.0
C136 C 0.2257 0.20009 0.54231 0.0
C137 C 0.29268 0.2047 0.54106 0.0
C138 C 0.20117 0.1819 0.52869 0.0
C139 C 0.18123 0.16812 0.54605 0.0
C140 C 0.186 0.17167 0.57722 0.0
C141 C 0.21201 0.18746 0.5908 0.0
C142 C 0.23158 0.20193 0.57346 0.0
H143 H 0.31415 0.20284 0.53091 0.0
H144 H 0.29783 0.21458 0.56437 0.0
H145 H 0.28148 0.18272 0.5416 0.0
H146 H 0.19624 0.18006 0.50469 0.0
H147 H 0.16106 0.1563 0.53524 0.0
H148 H 0.66322 0.54569 0.65489 0.0
H149 H 0.69049 0.51006 0.67948 0.0
H150 H 0.75107 0.57837 0.72619 0.0
H151 H 0.72402 0.61404 0.70199 0.0
H152 H 0.75288 0.50017 0.68082 0.0
H153 H 0.71786 0.53353 0.79325 0.0
H154 H 0.6995 0.54365 0.7594 0.0
H155 H 0.73461 0.56216 0.77437 0.0
C156 C 0.68244 0.55311 0.67027 0.0
C157 C 0.69128 0.58274 0.67665 0.0
C158 C 0.69799 0.53274 0.68428 0.0
C159 C 0.72247 0.54164 0.70501 0.0
C160 C 0.7319 0.57109 0.71068 0.0
H161 H 0.83325 0.45062 0.82454 0.0
H162 H 0.8118 0.48726 0.79624 0.0
C163 C 0.71645 0.59144 0.69669 0.0
C164 C 0.73793 0.52024 0.72112 0.0
H165 H 0.75309 0.49907 0.79062 0.0
C166 C 0.75291 0.49984 0.70481 0.0
C167 C 0.73802 0.52001 0.75244 0.0
C168 C 0.72145 0.54082 0.77095 0.0
C169 C 0.76829 0.47937 0.71906 0.0
C170 C 0.76813 0.47895 0.75037 0.0
C171 C 0.7533 0.49949 0.76666 0.0
C172 C 0.7822 0.45672 0.76657 0.0
C173 C 0.78498 0.45872 0.70051 0.0
C174 C 0.77255 0.42745 0.75943 0.0
C175 C 0.78477 0.40653 0.77546 0.0
C176 C 0.80675 0.41443 0.79921 0.0
C177 C 0.81643 0.44379 0.80635 0.0
C178 C 0.80419 0.46475 0.79021 0.0
H179 H 0.79038 0.46722 0.67918 0.0
H180 H 0.80598 0.45424 0.71284 0.0
H181 H 0.77088 0.43805 0.69499 0.0
H182 H 0.7551 0.42078 0.74179 0.0
H183 H 0.77664 0.38415 0.76945 0.0
H184 H 0.53532 0.12431 0.05018 0.0
H185 H 0.50611 0.08326 0.02185 0.0
H186 H 0.55651 0.02504 0.06919 0.0
H187 H 0.58581 0.0661 0.09811 0.0
H188 H 0.52628 0.03982 0.98452 0.0
H189 H 0.47 0.99504 0.0776 0.0
H190 H 0.4889 0.0309 0.08098 0.0
H191 H 0.50989 0.00016 0.08349 0.0
C192 C 0.54021 0.10282 0.05479 0.0
C193 C 0.56294 0.09857 0.07657 0.0
C194 C 0.52344 0.07936 0.03849 0.0
C195 C 0.52888 0.05113 0.04364 0.0
C196 C 0.55157 0.04669 0.06526 0.0
H197 H 0.45634 0.88244 0.96433 0.0
H198 H 0.48433 0.92383 0.99332 0.0
C199 C 0.5684 0.07019 0.08166 0.0
C200 C 0.51127 0.02647 0.02568 0.0
H201 H 0.46319 0.9671 0.03066 0.0
C202 C 0.51238 0.02396 0.99456 0.0
C203 C 0.49314 0.00587 0.03887 0.0
C204 C 0.49011 0.00815 0.07204 0.0
C205 C 0.49628 0.00109 0.9763 0.0
C206 C 0.47821 0.98046 0.9895 0.0
C207 C 0.47705 0.98299 0.02061 0.0
C208 C 0.46095 0.95559 0.97153 0.0
C209 C 0.49932 0.99882 0.94314 0.0
C210 C 0.43827 0.95971 0.94977 0.0
C211 C 0.42214 0.936 0.933 0.0
C212 C 0.42834 0.90775 0.93784 0.0
C213 C 0.45094 0.90383 0.95989 0.0
C214 C 0.46699 0.92748 0.97657 0.0
H215 H 0.51923 0.01219 0.93753 0.0
H216 H 0.50087 0.97611 0.93427 0.0
H217 H 0.47937 0.00648 0.93165 0.0
H218 H 0.43288 0.98124 0.94592 0.0
H219 H 0.40479 0.93984 0.91636 0.0
H220 H 0.96521 0.81793 0.34791 0.0
H221 H 0.99359 0.79849 0.30817 0.0
H222 H 0.92573 0.81715 0.24229 0.0
H223 H 0.89705 0.83689 0.28222 0.0
H224 H 0.93888 0.7583 0.23985 0.0
H225 H 0.04147 0.83242 0.24329 0.0
H226 H 0.03257 0.82353 0.27963 0.0
H227 H 0.00772 0.84332 0.25819 0.0
C228 C 0.9567 0.81863 0.32494 0.0
C229 C 0.92889 0.82879 0.31812 0.0
C230 C 0.97301 0.80766 0.30225 0.0
C231 C 0.9618 0.80656 0.27234 0.0
C232 C 0.93478 0.81805 0.26529 0.0
H233 H 0.07241 0.7261 0.14446 0.0
H234 H 0.03745 0.75768 0.16525 0.0
C235 C 0.91854 0.82942 0.28806 0.0
C236 C 0.97665 0.79 0.24929 0.0
H237 H 0.04467 0.78336 0.22306 0.0
C238 C 0.96181 0.76403 0.23559 0.0
C239 C 0.00644 0.79764 0.2437 0.0
C240 C 0.02291 0.8259 0.25675 0.0
C241 C 0.97667 0.74461 0.2179 0.0
C242 C 0.00713 0.7513 0.21417 0.0
C243 C 0.02138 0.77811 0.22628 0.0
C244 C 0.02521 0.7303 0.19926 0.0
C245 C 0.95985 0.71684 0.20391 0.0
C246 C 0.02964 0.70422 0.21132 0.0
C247 C 0.04961 0.68596 0.19939 0.0
C248 C 0.06553 0.69361 0.17532 0.0
C249 C 0.06032 0.71936 0.16279 0.0
C250 C 0.0404 0.73754 0.1747 0.0
H251 H 0.93549 0.71872 0.20139 0.0
H252 H 0.96749 0.71039 0.18167 0.0
H253 H 0.96381 0.69947 0.21849 0.0
H254 H 0.01856 0.69853 0.23069 0.0
H255 H 0.05326 0.66637 0.20962 0.0
H256 H 0.33115 0.91623 0.79243 0.0
H257 H 0.30546 0.94928 0.7627 0.0
H258 H 0.28153 0.99527 0.84326 0.0
H259 H 0.30724 0.96254 0.87315 0.0
H260 H 0.24424 0.95783 0.7628 0.0
H261 H 0.3154 0.05985 0.796 0.0
H262 H 0.32775 0.02496 0.80192 0.0
H263 H 0.30365 0.04151 0.82694 0.0
C264 C 0.3208 0.93363 0.80386 0.0
C265 C 0.32128 0.93675 0.83521 0.0
C266 C 0.30606 0.95244 0.78682 0.0
C267 C 0.29184 0.97488 0.80077 0.0
C268 C 0.29279 0.9784 0.83204 0.0
H269 H 0.1773 0.1035 0.75572 0.0
H270 H 0.20867 0.07029 0.77857 0.0
C271 C 0.30741 0.95957 0.8491 0.0
C272 C 0.27448 0.9936 0.78274 0.0
H273 H 0.26784 0.06387 0.77097 0.0
C274 C 0.24955 0.98099 0.76426 0.0
C275 C 0.28149 0.02378 0.78475 0.0
C276 C 0.30869 0.03836 0.80325 0.0
C277 C 0.23071 0.9979 0.74866 0.0
C278 C 0.23735 0.02817 0.75122 0.0
C279 C 0.26273 0.04067 0.76911 0.0
C280 C 0.21754 0.04748 0.73677 0.0
C281 C 0.20323 0.98334 0.7306 0.0
C282 C 0.212 0.04569 0.70558 0.0
C283 C 0.19384 0.06463 0.69237 0.0
C284 C 0.18115 0.08586 0.71014 0.0
C285 C 0.1867 0.08745 0.74134 0.0
C286 C 0.2047 0.0685 0.75448 0.0
H287 H 0.19774 0.96106 0.73646 0.0
H288 H 0.18374 0.99582 0.734 0.0
H289 H 0.20707 0.98208 0.70655 0.0
H290 H 0.22211 0.02997 0.69145 0.0
H291 H 0.19018 0.06297 0.66827 0.0
H292 H 0.94523 0.38462 0.96456 0.0
H293 H 0.97332 0.42549 0.99426 0.0
H294 H 0.92601 0.48408 0.94434 0.0
H295 H 0.89734 0.44317 0.91451 0.0
H296 H 0.01048 0.46885 0.97417 0.0
H297 H 0.91773 0.51388 0.03145 0.0
H298 H 0.91439 0.47802 0.01225 0.0
H299 H 0.9118 0.50879 0.99145 0.0
C300 C 0.94057 0.40615 0.95988 0.0
C301 C 0.91889 0.41054 0.9371 0.0
C302 C 0.95673 0.42951 0.97693 0.0
C303 C 0.95154 0.45779 0.97175 0.0
C304 C 0.92998 0.46239 0.94907 0.0
H305 H 0.03133 0.62563 0.04657 0.0
H306 H 0.00196 0.58468 0.01821 0.0
C307 C 0.91372 0.43897 0.93194 0.0
C308 C 0.96947 0.48232 0.98958 0.0
H309 H 0.96463 0.54138 0.03871 0.0
C310 C 0.00049 0.48467 0.98837 0.0
C311 C 0.95635 0.50287 0.0081 0.0
C312 C 0.92327 0.50074 0.01119 0.0
C313 C 0.01875 0.50732 0.00479 0.0
C314 C 0.00564 0.52788 0.02331 0.0
C315 C 0.97461 0.52553 0.02453 0.0
C316 C 0.02364 0.55247 0.04096 0.0
C317 C 0.05182 0.50945 0.00163 0.0
C318 C 0.04543 0.54795 0.06345 0.0
C319 C 0.06242 0.57139 0.07979 0.0
C320 C 0.05779 0.59978 0.07399 0.0
C321 C 0.03563 0.60412 0.05165 0.0
C322 C 0.01873 0.58073 0.03539 0.0
H323 H 0.05734 0.49625 0.98141 0.0
H324 H 0.06067 0.53216 0.00045 0.0
H325 H 0.06334 0.50149 0.02139 0.0
H326 H 0.04919 0.5263 0.06847 0.0
H327 H 0.07913 0.56724 0.09692 0.0
H328 H 0.40702 0.34526 0.28075 0.0
H329 H 0.43659 0.3268 0.2406 0.0
H330 H 0.43585 0.24505 0.27768 0.0
H331 H 0.407 0.26302 0.31732 0.0
H332 H 0.49423 0.30413 0.25214 0.0
H333 H 0.41256 0.223 0.18752 0.0
H334 H 0.40166 0.25301 0.21111 0.0
H335 H 0.41221 0.22109 0.22701 0.0
C336 C 0.41296 0.32328 0.28001 0.0
C337 C 0.40495 0.30567 0.30228 0.0
C338 C 0.42973 0.31279 0.25714 0.0
C339 C 0.43789 0.28443 0.256 0.0
C340 C 0.42927 0.2668 0.27784 0.0
H341 H 0.55315 0.16293 0.20633 0.0
H342 H 0.51381 0.19214 0.22271 0.0
C343 C 0.41304 0.27727 0.3007 0.0
C344 C 0.45784 0.27335 0.23413 0.0
H345 H 0.46448 0.21347 0.1869 0.0
C346 C 0.48768 0.28484 0.23709 0.0
C347 C 0.4491 0.24813 0.21469 0.0
C348 C 0.41704 0.23574 0.20965 0.0
C349 C 0.50952 0.27031 0.22306 0.0
C350 C 0.50103 0.24391 0.20541 0.0
C351 C 0.47089 0.23356 0.20073 0.0
C352 C 0.52341 0.22559 0.19381 0.0
C353 C 0.54172 0.28219 0.22889 0.0
C354 C 0.54136 0.23459 0.17186 0.0
C355 C 0.56381 0.21803 0.16254 0.0
C356 C 0.56859 0.19211 0.17494 0.0
C357 C 0.55004 0.18279 0.19641 0.0
C358 C 0.52754 0.19939 0.2057 0.0
H359 H 0.54491 0.30066 0.24648 0.0
H360 H 0.55567 0.26514 0.23577 0.0
H361 H 0.54983 0.28966 0.20806 0.0
H362 H 0.5383 0.25463 0.16227 0.0
H363 H 0.57784 0.22596 0.14612 0.0
H364 H 0.84906 0.78253 0.42435 0.0
H365 H 0.82641 0.74928 0.45642 0.0
H366 H 0.75798 0.80625 0.47229 0.0
H367 H 0.781 0.84021 0.44068 0.0
H368 H 0.77996 0.7807 0.52374 0.0
H369 H 0.74848 0.70007 0.42558 0.0
H370 H 0.78737 0.71235 0.43191 0.0
H371 H 0.76099 0.73712 0.42183 0.0
C372 C 0.82957 0.78839 0.4351 0.0
C373 C 0.81678 0.81405 0.42987 0.0
C374 C 0.81652 0.76918 0.45324 0.0
C375 C 0.79028 0.7751 0.46623 0.0
C376 C 0.77822 0.80129 0.4623 0.0
H377 H 0.64225 0.68238 0.52211 0.0
H378 H 0.68139 0.70537 0.49578 0.0
C379 C 0.79136 0.82064 0.44423 0.0
C380 C 0.77436 0.75329 0.48242 0.0
H381 H 0.73419 0.6875 0.47201 0.0
C382 C 0.77023 0.76015 0.51261 0.0
C383 C 0.76165 0.7266 0.46764 0.0
C384 C 0.76457 0.71855 0.4349 0.0
C385 C 0.75292 0.74134 0.52828 0.0
C386 C 0.73978 0.71488 0.51334 0.0
C387 C 0.74468 0.70764 0.48341 0.0
C388 C 0.71735 0.69665 0.52704 0.0
C389 C 0.74751 0.75055 0.56018 0.0
C390 C 0.7248 0.68293 0.55259 0.0
C391 C 0.70236 0.66959 0.56772 0.0
C392 C 0.67228 0.67004 0.55751 0.0
C393 C 0.66521 0.68196 0.5307 0.0
C394 C 0.68755 0.69506 0.51558 0.0
H395 H 0.75595 0.77337 0.56707 0.0
H396 H 0.72335 0.74783 0.56331 0.0
H397 H 0.75898 0.73675 0.57521 0.0
H398 H 0.74779 0.68361 0.56147 0.0
H399 H 0.70845 0.66058 0.58833 0.0
H400 H 0.20366 0.58803 0.16719 0.0
H401 H 0.23383 0.55359 0.19008 0.0
H402 H 0.15463 0.50963 0.21821 0.0
H403 H 0.12427 0.54377 0.19531 0.0
H404 H 0.23758 0.54365 0.25116 0.0
H405 H 0.19732 0.44392 0.17842 0.0
H406 H 0.1917 0.47946 0.16777 0.0
H407 H 0.16799 0.46311 0.19297 0.0
C408 C 0.19259 0.57081 0.17791 0.0
C409 C 0.16151 0.56864 0.17937 0.0
C410 C 0.2099 0.55121 0.19104 0.0
C411 C 0.19645 0.52889 0.20556 0.0
C412 C 0.16541 0.52639 0.20665 0.0
H413 H 0.24038 0.39696 0.31433 0.0
H414 H 0.21866 0.43175 0.28433 0.0
C415 C 0.1481 0.54603 0.19365 0.0
C416 C 0.21485 0.50908 0.22099 0.0
H417 H 0.22438 0.43788 0.22453 0.0
C418 C 0.23504 0.52055 0.24515 0.0
C419 C 0.2115 0.47899 0.21301 0.0
C420 C 0.19117 0.46561 0.18645 0.0
C421 C 0.25093 0.50255 0.26247 0.0
C422 C 0.24687 0.47236 0.25504 0.0
C423 C 0.2274 0.46102 0.23026 0.0
C424 C 0.26088 0.45194 0.2738 0.0
C425 C 0.27086 0.51589 0.28935 0.0
C426 C 0.29197 0.45171 0.27793 0.0
C427 C 0.30459 0.4318 0.29532 0.0
C428 C 0.28628 0.41167 0.30862 0.0
C429 C 0.2552 0.4121 0.30441 0.0
C430 C 0.24268 0.43196 0.2872 0.0
H431 H 0.26673 0.53865 0.29555 0.0
H432 H 0.26758 0.50349 0.30885 0.0
H433 H 0.29445 0.51551 0.28428 0.0
H434 H 0.30644 0.46663 0.26739 0.0
H435 H 0.3286 0.43192 0.29799 0.0
H436 H 0.7849 0.3415 0.94075 0.0
H437 H 0.76556 0.30898 0.97575 0.0
H438 H 0.83279 0.25172 0.95579 0.0
H439 H 0.85174 0.28353 0.92045 0.0
H440 H 0.77679 0.22413 0.95002 0.0
H441 H 0.7969 0.29081 0.05862 0.0
H442 H 0.77807 0.30891 0.03042 0.0
H443 H 0.81539 0.2996 0.02609 0.0
C444 C 0.79586 0.32224 0.94421 0.0
C445 C 0.81996 0.31522 0.92794 0.0
C446 C 0.78493 0.30377 0.96435 0.0
C447 C 0.79805 0.27815 0.96864 0.0
C448 C 0.82254 0.2715 0.95298 0.0
H449 H 0.721 0.17312 0.10025 0.0
H450 H 0.76011 0.19297 0.07097 0.0
C451 C 0.83341 0.28985 0.93286 0.0
C452 C 0.78445 0.25698 0.98719 0.0
H453 H 0.76011 0.25011 0.05604 0.0
C454 C 0.77361 0.22961 0.97336 0.0
C455 C 0.78085 0.26395 0.01774 0.0
C456 C 0.7937 0.29232 0.0342 0.0
C457 C 0.75749 0.20971 0.9888 0.0
C458 C 0.75183 0.21759 0.01864 0.0
C459 C 0.76438 0.24418 0.03307 0.0
C460 C 0.72963 0.2006 0.03388 0.0
C461 C 0.74587 0.18078 0.97276 0.0
C462 C 0.69979 0.19772 0.02231 0.0
C463 C 0.67757 0.18665 0.03893 0.0
C464 C 0.68479 0.17822 0.06745 0.0
C465 C 0.71487 0.17926 0.07822 0.0
C466 C 0.73717 0.19069 0.06163 0.0
H467 H 0.75994 0.17435 0.95459 0.0
H468 H 0.74496 0.16378 0.98837 0.0
H469 H 0.72302 0.18212 0.96251 0.0
H470 H 0.69345 0.20569 0.00118 0.0
H471 H 0.65457 0.18604 0.03007 0.0
H472 H 0.79241 0.88904 0.26564 0.0
H473 H 0.76987 0.92673 0.24033 0.0
H474 H 0.80745 0.99025 0.31137 0.0
H475 H 0.83042 0.95263 0.33684 0.0
H476 H 0.72856 0.96205 0.26298 0.0
H477 H 0.82971 0.02709 0.23604 0.0
H478 H 0.83057 0.99084 0.24655 0.0
H479 H 0.82925 0.02046 0.27457 0.0
C480 C 0.7962 0.91106 0.2758 0.0
C481 C 0.81326 0.9178 0.3033 0.0
C482 C 0.78324 0.93258 0.26127 0.0
C483 C 0.7872 0.96133 0.27378 0.0
C484 C 0.80455 0.96827 0.30103 0.0
H485 H 0.71692 0.11997 0.23166 0.0
H486 H 0.74316 0.08201 0.25259 0.0
C487 C 0.81755 0.94672 0.31563 0.0
C488 C 0.77182 0.98369 0.25904 0.0
H489 H 0.78361 0.04715 0.22804 0.0
C490 C 0.74058 0.98057 0.25515 0.0
C491 C 0.78756 0.00784 0.2489 0.0
C492 C 0.82114 0.01174 0.25144 0.0
C493 C 0.72461 0.00128 0.24203 0.0
C494 C 0.74034 0.0255 0.23197 0.0
C495 C 0.7716 0.02854 0.2357 0.0
C496 C 0.72473 0.04843 0.21848 0.0
C497 C 0.69103 0.99747 0.23987 0.0
C498 C 0.70594 0.04227 0.19204 0.0
C499 C 0.69076 0.06397 0.17999 0.0
C500 C 0.69426 0.09227 0.1941 0.0
C501 C 0.71359 0.09841 0.22024 0.0
C502 C 0.72869 0.07674 0.23225 0.0
H503 H 0.68257 0.98179 0.255 0.0
H504 H 0.68172 0.01832 0.2454 0.0
H505 H 0.68261 0.98923 0.21669 0.0
H506 H 0.70302 0.02067 0.18071 0.0
H507 H 0.6762 0.05855 0.15974 0.0
H508 H 0.90105 0.94025 0.42112 0.0
H509 H 0.9314 0.97951 0.45193 0.0
H510 H 0.97518 0.91752 0.50022 0.0
H511 H 0.94543 0.87829 0.46956 0.0
H512 H 0.93623 0.99226 0.51462 0.0
H513 H 0.0449 0.96792 0.47352 0.0
H514 H 0.00973 0.95297 0.4544 0.0
H515 H 0.02441 0.93788 0.48701 0.0
C516 C 0.91716 0.93496 0.43825 0.0
C517 C 0.92089 0.90605 0.44266 0.0
C518 C 0.93447 0.95741 0.45584 0.0
C519 C 0.95589 0.95138 0.47798 0.0
C520 C 0.95926 0.92264 0.48281 0.0
H521 H 0.0825 0.05954 0.60588 0.0
H522 H 0.05191 0.01862 0.57784 0.0
C523 C 0.94205 0.90022 0.4653 0.0
C524 C 0.97444 0.97509 0.49646 0.0
H525 H 0.04636 0.00316 0.51499 0.0
C526 C 0.9603 0.99473 0.51464 0.0
C527 C 0.00585 0.97811 0.49656 0.0
C528 C 0.02217 0.95828 0.47665 0.0
C529 C 0.97676 0.0172 0.53315 0.0
C530 C 0.00815 0.02035 0.53308 0.0
C531 C 0.02231 0.00058 0.51509 0.0
C532 C 0.02652 0.04491 0.55035 0.0
C533 C 0.96045 0.03716 0.55291 0.0
C534 C 0.02266 0.07311 0.54384 0.0
C535 C 0.04001 0.09642 0.55968 0.0
C536 C 0.06181 0.09207 0.58237 0.0
C537 C 0.06588 0.06369 0.58867 0.0
C538 C 0.04844 0.0403 0.57267 0.0
H539 H 0.93797 0.02728 0.5566 0.0
H540 H 0.97319 0.04315 0.5749 0.0
H541 H 0.95759 0.0572 0.54205 0.0
H542 H 0.00632 0.07711 0.52627 0.0
H543 H 0.03628 0.11789 0.55403 0.0
H544 H 0.89815 0.33895 0.77829 0.0
H545 H 0.92661 0.31819 0.73869 0.0
H546 H 0.99376 0.29922 0.80516 0.0
H547 H 0.96585 0.32001 0.84452 0.0
H548 H 0.0166 0.31757 0.75252 0.0
H549 H 0.92493 0.22889 0.73027 0.0
H550 H 0.91563 0.26514 0.72687 0.0
H551 H 0.92734 0.25464 0.76283 0.0
C552 C 0.91943 0.33113 0.78433 0.0
C553 C 0.92961 0.33066 0.81446 0.0
C554 C 0.93549 0.31909 0.76174 0.0
C555 C 0.9619 0.30667 0.76914 0.0
C556 C 0.97331 0.30854 0.79904 0.0
H557 H 0.05456 0.16531 0.71669 0.0
H558 H 0.02045 0.19944 0.73517 0.0
C559 C 0.9573 0.32036 0.8215 0.0
C560 C 0.97639 0.28892 0.74674 0.0
H561 H 0.96948 0.22193 0.70856 0.0
C562 C 0.00618 0.29692 0.74229 0.0
C563 C 0.9627 0.26184 0.7339 0.0
C564 C 0.93095 0.25186 0.73872 0.0
C565 C 0.02317 0.27796 0.72655 0.0
C566 C 0.00974 0.2505 0.71456 0.0
C567 C 0.97957 0.24303 0.71778 0.0
C568 C 0.02743 0.22837 0.70107 0.0
C569 C 0.05579 0.28679 0.72447 0.0
C570 C 0.0418 0.23293 0.67528 0.0
C571 C 0.06141 0.21365 0.66484 0.0
C572 C 0.06672 0.18925 0.67982 0.0
C573 C 0.05099 0.1839 0.7047 0.0
C574 C 0.03148 0.20334 0.71524 0.0
H575 H 0.06385 0.30633 0.73974 0.0
H576 H 0.06949 0.26907 0.72987 0.0
H577 H 0.05936 0.2916 0.70133 0.0
H578 H 0.03857 0.25189 0.66378 0.0
H579 H 0.07319 0.21854 0.64569 0.0
H580 H 0.54899 0.65087 0.70358 0.0
H581 H 0.51638 0.68386 0.72699 0.0
H582 H 0.53031 0.74148 0.65905 0.0
H583 H 0.56313 0.70908 0.63587 0.0
H584 H 0.54317 0.7677 0.71667 0.0
H585 H 0.43206 0.7059 0.70422 0.0
H586 H 0.46126 0.68627 0.71908 0.0
H587 H 0.46184 0.69651 0.6817 0.0
C588 C 0.54458 0.67024 0.69327 0.0
C589 C 0.55863 0.67729 0.66784 0.0
C590 C 0.52584 0.68901 0.70658 0.0
C591 C 0.52077 0.71497 0.69456 0.0
C592 C 0.53382 0.72147 0.66854 0.0
H593 H 0.40213 0.82956 0.78121 0.0
H594 H 0.42811 0.8065 0.74097 0.0
C595 C 0.55251 0.70279 0.65526 0.0
C596 C 0.50457 0.73673 0.71086 0.0
H597 H 0.43892 0.74675 0.74105 0.0
C598 C 0.52021 0.76331 0.72161 0.0
C599 C 0.47455 0.7311 0.71691 0.0
C600 C 0.45631 0.7035 0.70464 0.0
C601 C 0.50709 0.78383 0.73967 0.0
C602 C 0.47772 0.77743 0.74727 0.0
C603 C 0.46151 0.75153 0.7352 0.0
C604 C 0.46458 0.79564 0.77035 0.0
C605 C 0.52497 0.81188 0.75106 0.0
C606 C 0.47695 0.79771 0.79995 0.0
C607 C 0.46217 0.81063 0.82286 0.0
C608 C 0.43476 0.82178 0.81656 0.0
C609 C 0.42334 0.82137 0.78668 0.0
C610 C 0.43803 0.80808 0.76372 0.0
H611 H 0.54312 0.81708 0.7366 0.0
H612 H 0.51057 0.82995 0.75237 0.0
H613 H 0.5353 0.81007 0.77381 0.0
H614 H 0.49722 0.78789 0.80554 0.0
H615 H 0.47151 0.81068 0.84567 0.0
H616 H 0.15058 0.69273 0.02912 0.0
H617 H 0.19072 0.71222 0.00156 0.0
H618 H 0.25552 0.69178 0.06954 0.0
H619 H 0.21525 0.67203 0.0974 0.0
H620 H 0.25858 0.75102 0.05744 0.0
H621 H 0.25574 0.67742 0.95376 0.0
H622 H 0.21953 0.68687 0.96257 0.0
H623 H 0.2404 0.66647 0.98725 0.0
C624 C 0.17339 0.6917 0.03786 0.0
C625 C 0.1798 0.68101 0.06547 0.0
C626 C 0.1963 0.7027 0.022 0.0
C627 C 0.22603 0.70327 0.03348 0.0
C628 C 0.23267 0.69131 0.0603 0.0
H629 H 0.35728 0.78179 0.92623 0.0
H630 H 0.33545 0.75067 0.96081 0.0
C631 C 0.20968 0.67994 0.07607 0.0
C632 C 0.2494 0.71963 0.01914 0.0
H633 H 0.27715 0.72604 0.95173 0.0
C634 C 0.2632 0.74531 0.03452 0.0
C635 C 0.25544 0.712 0.98937 0.0
C636 C 0.24222 0.68403 0.97234 0.0
C637 C 0.28153 0.76447 0.02024 0.0
C638 C 0.28583 0.75778 0.98981 0.0
C639 C 0.27352 0.73126 0.97501 0.0
C640 C 0.30148 0.77858 0.97227 0.0
C641 C 0.29558 0.79196 0.03759 0.0
C642 C 0.28982 0.80483 0.96761 0.0
C643 C 0.30231 0.82281 0.94786 0.0
C644 C 0.32656 0.81469 0.93238 0.0
C645 C 0.33879 0.78885 0.93796 0.0
C646 C 0.3263 0.77094 0.95765 0.0
H647 H 0.29737 0.79002 0.06199 0.0
H648 H 0.31811 0.79791 0.03057 0.0
H649 H 0.28153 0.80972 0.03337 0.0
H650 H 0.27028 0.81084 0.97828 0.0
H651 H 0.29231 0.84248 0.94391 0.0
H652 H 0.4422 0.36777 0.44828 0.0
H653 H 0.4736 0.40696 0.47746 0.0
H654 H 0.42526 0.46914 0.43404 0.0
H655 H 0.39375 0.43002 0.40436 0.0
H656 H 0.48818 0.48115 0.4384 0.0
H657 H 0.447 0.45834 0.5475 0.0
H658 H 0.46027 0.42811 0.52674 0.0
H659 H 0.42773 0.44344 0.51229 0.0
C660 C 0.43816 0.38975 0.44482 0.0
C661 C 0.41523 0.39569 0.42404 0.0
C662 C 0.45608 0.41213 0.46169 0.0
C663 C 0.4514 0.44092 0.4583 0.0
C664 C 0.42907 0.44702 0.43712 0.0
H665 H 0.52609 0.60866 0.53675 0.0
H666 H 0.49883 0.56734 0.50707 0.0
C667 C 0.41109 0.42463 0.42019 0.0
C668 C 0.46991 0.46465 0.47677 0.0
H669 H 0.4875 0.49407 0.54866 0.0
C670 C 0.48801 0.48403 0.46249 0.0
C671 C 0.46976 0.46821 0.50822 0.0
C672 C 0.44998 0.4486 0.52466 0.0
C673 C 0.50612 0.50683 0.47886 0.0
C674 C 0.50567 0.51063 0.51027 0.0
C675 C 0.48785 0.49104 0.52458 0.0
C676 C 0.52249 0.53556 0.52853 0.0
C677 C 0.52585 0.52645 0.4624 0.0
C678 C 0.54433 0.53139 0.55111 0.0
C679 C 0.55997 0.55508 0.56839 0.0
C680 C 0.55386 0.58334 0.5635 0.0
C681 C 0.53161 0.58728 0.54109 0.0
C682 C 0.51607 0.56366 0.5239 0.0
H683 H 0.53004 0.51603 0.44018 0.0
H684 H 0.51473 0.54625 0.45882 0.0
H685 H 0.54757 0.53291 0.47543 0.0
H686 H 0.54943 0.50982 0.55519 0.0
H687 H 0.57687 0.55122 0.58548 0.0
loop_
_geom_bond_atom_site_label_1
_geom_bond_atom_site_label_2
_geom_bond_distance
_geom_bond_site_symmetry_2
_ccdc_geom_bond_type
Mg0 O1 2.028 . S
Mg0 O7 1.986 . S
Mg0 O9 2.114 . S
Mg0 O10 2.251 . S
Mg0 O13 2.010 . S
O1 Mg0 2.028 . S
O1 C4 1.250 . S
O2 Mg3 2.028 . S
O2 C4 1.248 . S
Mg3 O2 2.028 . S
Mg3 O8 2.032 . S
Mg3 O10 2.079 . S
C4 O1 1.250 . S
C4 O2 1.248 . S
C5 O6 1.264 . S
C5 O13 1.249 . S
O6 C5 1.264 . S
O7 Mg0 1.986 . S
O7 C11 1.246 . S
O8 Mg3 2.032 . S
O8 C11 1.259 . S
O9 Mg0 2.114 . S
O9 C12 1.252 . S
O10 Mg0 2.251 . S
O10 Mg3 2.079 . S
O10 C12 1.273 . S
C11 O7 1.246 . S
C11 O8 1.259 . S
C12 O9 1.252 . S
C12 O10 1.273 . S
O13 Mg0 2.010 . S
O13 C5 1.249 . S
Mg14 O15 2.028 . S
Mg14 O21 1.986 . S
Mg14 O23 2.114 . S
Mg14 O24 2.251 . S
Mg14 O27 2.010 . S
O15 Mg14 2.028 . S
O15 C18 1.250 . S
O16 Mg17 2.028 . S
O16 C18 1.248 . S
Mg17 O16 2.028 . S
Mg17 O22 2.032 . S
Mg17 O24 2.079 . S
C18 O15 1.250 . S
C18 O16 1.248 . S
C19 O20 1.264 . S
C19 O27 1.249 . S
O20 C19 1.264 . S
O21 Mg14 1.986 . S
O21 C25 1.246 . S
O22 Mg17 2.032 . S
O22 C25 1.259 . S
O23 Mg14 2.114 . S
O23 C26 1.252 . S
O24 Mg14 2.251 . S
O24 Mg17 2.079 . S
O24 C26 1.273 . S
C25 O21 1.246 . S
C25 O22 1.259 . S
C26 O23 1.252 . S
C26 O24 1.273 . S
O27 Mg14 2.010 . S
O27 C19 1.249 . S
Mg28 O29 2.028 . S
Mg28 O35 1.986 . S
Mg28 O37 2.114 . S
Mg28 O38 2.251 . S
Mg28 O41 2.010 . S
O29 Mg28 2.028 . S
O29 C32 1.250 . S
O30 Mg31 2.028 . S
O30 C32 1.248 . S
Mg31 O30 2.028 . S
Mg31 O36 2.032 . S
Mg31 O38 2.079 . S
C32 O29 1.250 . S
C32 O30 1.248 . S
C33 O34 1.264 . S
C33 O41 1.249 . S
O34 C33 1.264 . S
O35 Mg28 1.986 . S
O35 C39 1.246 . S
O36 Mg31 2.032 . S
O36 C39 1.259 . S
O37 Mg28 2.114 . S
O37 C40 1.252 . S
O38 Mg28 2.251 . S
O38 Mg31 2.079 . S
O38 C40 1.273 . S
C39 O35 1.246 . S
C39 O36 1.259 . S
C40 O37 1.252 . S
C40 O38 1.273 . S
O41 Mg28 2.010 . S
O41 C33 1.249 . S
Mg42 O43 2.028 . S
Mg42 O49 1.986 . S
Mg42 O51 2.114 . S
Mg42 O52 2.251 . S
Mg42 O55 2.010 . S
O43 Mg42 2.028 . S
O43 C46 1.250 . S
O44 Mg45 2.028 . S
O44 C46 1.248 . S
Mg45 O44 2.028 . S
Mg45 O50 2.032 . S
Mg45 O52 2.079 . S
C46 O43 1.250 . S
C46 O44 1.248 . S
C47 O48 1.264 . S
C47 O55 1.249 . S
O48 C47 1.264 . S
O49 Mg42 1.986 . S
O49 C53 1.246 . S
O50 Mg45 2.032 . S
O50 C53 1.259 . S
O51 Mg42 2.114 . S
O51 C54 1.252 . S
O52 Mg42 2.251 . S
O52 Mg45 2.079 . S
O52 C54 1.273 . S
C53 O49 1.246 . S
C53 O50 1.259 . S
C54 O51 1.252 . S
C54 O52 1.273 . S
O55 Mg42 2.010 . S
O55 C47 1.249 . S
Mg56 O57 2.028 . S
Mg56 O63 1.986 . S
Mg56 O65 2.114 . S
Mg56 O66 2.251 . S
Mg56 O69 2.010 . S
O57 Mg56 2.028 . S
O57 C60 1.250 . S
O58 Mg59 2.028 . S
O58 C60 1.248 . S
Mg59 O58 2.028 . S
Mg59 O64 2.032 . S
Mg59 O66 2.079 . S
C60 O57 1.250 . S
C60 O58 1.248 . S
C61 O62 1.264 . S
C61 O69 1.249 . S
O62 C61 1.264 . S
O63 Mg56 1.986 . S
O63 C67 1.246 . S
O64 Mg59 2.032 . S
O64 C67 1.259 . S
O65 Mg56 2.114 . S
O65 C68 1.252 . S
O66 Mg56 2.251 . S
O66 Mg59 2.079 . S
O66 C68 1.273 . S
C67 O63 1.246 . S
C67 O64 1.259 . S
C68 O65 1.252 . S
C68 O66 1.273 . S
O69 Mg56 2.010 . S
O69 C61 1.249 . S
Mg70 O71 2.028 . S
Mg70 O77 1.986 . S
Mg70 O79 2.114 . S
Mg70 O80 2.251 . S
Mg70 O83 2.010 . S
O71 Mg70 2.028 . S
O71 C74 1.250 . S
O72 Mg73 2.028 . S
O72 C74 1.248 . S
Mg73 O72 2.028 . S
Mg73 O78 2.032 . S
Mg73 O80 2.079 . S
C74 O71 1.250 . S
C74 O72 1.248 . S
C75 O76 1.264 . S
C75 O83 1.249 . S
O76 C75 1.264 . S
O77 Mg70 1.986 . S
O77 C81 1.246 . S
O78 Mg73 2.032 . S
O78 C81 1.259 . S
O79 Mg70 2.114 . S
O79 C82 1.252 . S
O80 Mg70 2.251 . S
O80 Mg73 2.079 . S
O80 C82 1.273 . S
C81 O77 1.246 . S
C81 O78 1.259 . S
C82 O79 1.252 . S
C82 O80 1.273 . S
O83 Mg70 2.010 . S
O83 C75 1.249 . S
Mg84 O85 2.028 . S
Mg84 O91 1.986 . S
Mg84 O93 2.114 . S
Mg84 O94 2.251 . S
Mg84 O97 2.010 . S
O85 Mg84 2.028 . S
O85 C88 1.250 . S
O86 Mg87 2.028 . S
O86 C88 1.248 . S
Mg87 O86 2.028 . S
Mg87 O92 2.032 . S
Mg87 O94 2.079 . S
C88 O85 1.250 . S
C88 O86 1.248 . S
C89 O90 1.264 . S
C89 O97 1.249 . S
O90 C89 1.264 . S
O91 Mg84 1.986 . S
O91 C95 1.246 . S
O92 Mg87 2.032 . S
O92 C95 1.259 . S
O93 Mg84 2.114 . S
O93 C96 1.252 . S
O94 Mg84 2.251 . S
O94 Mg87 2.079 . S
O94 C96 1.273 . S
C95 O91 1.246 . S
C95 O92 1.259 . S
C96 O93 1.252 . S
C96 O94 1.273 . S
O97 Mg84 2.010 . S
O97 C89 1.249 . S
Mg98 O99 2.028 . S
Mg98 O105 1.986 . S
Mg98 O107 2.114 . S
Mg98 O108 2.251 . S
Mg98 O111 2.010 . S
O99 Mg98 2.028 . S
O99 C102 1.250 . S
O100 Mg101 2.028 . S
O100 C102 1.248 . S
Mg101 O100 2.028 . S
Mg101 O106 2.032 . S
Mg101 O108 2.079 . S
C102 O99 1.250 . S
C102 O100 1.248 . S
C103 O104 1.264 . S
C103 O111 1.249 . S
O104 C103 1.264 . S
O105 Mg98 1.986 . S
O105 C109 1.246 . S
O106 Mg101 2.032 . S
O106 C109 1.259 . S
O107 Mg98 2.114 . S
O107 C110 1.252 . S
O108 Mg98 2.251 . S
O108 Mg101 2.079 . S
O108 C110 1.273 . S
C109 O105 1.246 . S
C109 O106 1.259 . S
C110 O107 1.252 . S
C110 O108 1.273 . S
O111 Mg98 2.010 . S
O111 C103 1.249 . S
H112 C120 0.929 . S
H113 C122 0.930 . S
H114 C124 0.930 . S
H115 C127 0.929 . S
H116 C130 0.930 . S
H117 C132 0.960 . S
H118 C132 0.960 . S
H119 C132 0.960 . S
C120 H112 0.929 . S
C120 C121 1.377 . S
C120 C122 1.384 . S
C121 C120 1.377 . S
C121 C127 1.390 . S
C122 H113 0.930 . S
C122 C120 1.384 . S
C122 C123 1.372 . S
C123 C122 1.372 . S
C123 C124 1.400 . S
C123 C128 1.490 . S
C124 H114 0.930 . S
C124 C123 1.400 . S
C124 C127 1.386 . S
H125 C141 0.930 . S
H126 C142 0.931 . S
C127 H115 0.929 . S
C127 C121 1.390 . S
C127 C124 1.386 . S
C128 C123 1.490 . S
C128 C130 1.395 . S
C128 C131 1.403 . S
H129 C135 0.930 . S
C130 H116 0.930 . S
C130 C128 1.395 . S
C130 C133 1.403 . S
C131 C128 1.403 . S
C131 C132 1.524 . S
C131 C135 1.400 . S
C132 H117 0.960 . S
C132 H118 0.960 . S
C132 H119 0.960 . S
C132 C131 1.524 . S
C133 C130 1.403 . S
C133 C134 1.392 . S
C133 C137 1.495 . S
C134 C133 1.392 . S
C134 C135 1.385 . S
C134 C136 1.478 . S
C135 H129 0.930 . S
C135 C131 1.400 . S
C135 C134 1.385 . S
C136 C134 1.478 . S
C136 C138 1.381 . S
C136 C142 1.383 . S
C137 C133 1.495 . S
C137 H143 0.959 . S
C137 H144 0.961 . S
C137 H145 0.960 . S
C138 C136 1.381 . S
C138 C139 1.394 . S
C138 H146 0.930 . S
C139 C138 1.394 . S
C139 C140 1.383 . S
C139 H147 0.929 . S
C140 C139 1.383 . S
C140 C141 1.377 . S
C141 H125 0.930 . S
C141 C140 1.377 . S
C141 C142 1.379 . S
C142 H126 0.931 . S
C142 C136 1.383 . S
C142 C141 1.379 . S
H143 C137 0.959 . S
H144 C137 0.961 . S
H145 C137 0.960 . S
H146 C138 0.930 . S
H147 C139 0.929 . S
H148 C156 0.929 . S
H149 C158 0.930 . S
H150 C160 0.930 . S
H151 C163 0.929 . S
H152 C166 0.930 . S
H153 C168 0.960 . S
H154 C168 0.960 . S
H155 C168 0.960 . S
C156 H148 0.929 . S
C156 C157 1.377 . S
C156 C158 1.384 . S
C157 C156 1.377 . S
C157 C163 1.390 . S
C158 H149 0.930 . S
C158 C156 1.384 . S
C158 C159 1.372 . S
C159 C158 1.372 . S
C159 C160 1.400 . S
C159 C164 1.490 . S
C160 H150 0.930 . S
C160 C159 1.400 . S
C160 C163 1.386 . S
H161 C177 0.930 . S
H162 C178 0.931 . S
C163 H151 0.929 . S
C163 C157 1.390 . S
C163 C160 1.386 . S
C164 C159 1.490 . S
C164 C166 1.395 . S
C164 C167 1.403 . S
H165 C171 0.930 . S
C166 H152 0.930 . S
C166 C164 1.395 . S
C166 C169 1.403 . S
C167 C164 1.403 . S
C167 C168 1.524 . S
C167 C171 1.400 . S
C168 H153 0.960 . S
C168 H154 0.960 . S
C168 H155 0.960 . S
C168 C167 1.524 . S
C169 C166 1.403 . S
C169 C170 1.392 . S
C169 C173 1.495 . S
C170 C169 1.392 . S
C170 C171 1.385 . S
C170 C172 1.478 . S
C171 H165 0.930 . S
C171 C167 1.400 . S
C171 C170 1.385 . S
C172 C170 1.478 . S
C172 C174 1.381 . S
C172 C178 1.383 . S
C173 C169 1.495 . S
C173 H179 0.959 . S
C173 H180 0.961 . S
C173 H181 0.960 . S
C174 C172 1.381 . S
C174 C175 1.394 . S
C174 H182 0.930 . S
C175 C174 1.394 . S
C175 C176 1.383 . S
C175 H183 0.929 . S
C176 C175 1.383 . S
C176 C177 1.377 . S
C177 H161 0.930 . S
C177 C176 1.377 . S
C177 C178 1.379 . S
C178 H162 0.931 . S
C178 C172 1.383 . S
C178 C177 1.379 . S
H179 C173 0.959 . S
H180 C173 0.961 . S
H181 C173 0.960 . S
H182 C174 0.930 . S
H183 C175 0.929 . S
H184 C192 0.929 . S
H185 C194 0.930 . S
H186 C196 0.930 . S
H187 C199 0.929 . S
H188 C202 0.930 . S
H189 C204 0.960 . S
H190 C204 0.960 . S
H191 C204 0.960 . S
C192 H184 0.929 . S
C192 C193 1.377 . S
C192 C194 1.384 . S
C193 C192 1.377 . S
C193 C199 1.390 . S
C194 H185 0.930 . S
C194 C192 1.384 . S
C194 C195 1.372 . S
C195 C194 1.372 . S
C195 C196 1.400 . S
C195 C200 1.490 . S
C196 H186 0.930 . S
C196 C195 1.400 . S
C196 C199 1.386 . S
H197 C213 0.930 . S
H198 C214 0.931 . S
C199 H187 0.929 . S
C199 C193 1.390 . S
C199 C196 1.386 . S
C200 C195 1.490 . S
C200 C202 1.395 1_554 S
C200 C203 1.403 1_545 S
H201 C207 0.930 . S
C202 H188 0.930 . S
C202 C200 1.395 1_556 S
C202 C205 1.403 . S
C203 C200 1.403 1_565 S
C203 C204 1.524 . S
C203 C207 1.400 . S
C204 H189 0.960 . S
C204 H190 0.960 . S
C204 H191 0.960 . S
C204 C203 1.524 . S
C205 C202 1.403 . S
C205 C206 1.392 1_545 S
C205 C209 1.495 . S
C206 C205 1.392 1_565 S
C206 C207 1.385 1_556 S
C206 C208 1.478 . S
C207 H201 0.930 . S
C207 C203 1.400 . S
C207 C206 1.385 1_554 S
C208 C206 1.478 . S
C208 C210 1.381 . S
C208 C214 1.383 . S
C209 C205 1.495 . S
C209 H215 0.959 . S
C209 H216 0.961 . S
C209 H217 0.960 . S
C210 C208 1.381 . S
C210 C211 1.394 . S
C210 H218 0.930 . S
C211 C210 1.394 . S
C211 C212 1.383 . S
C211 H219 0.929 . S
C212 C211 1.383 . S
C212 C213 1.377 . S
C213 H197 0.930 . S
C213 C212 1.377 . S
C213 C214 1.379 . S
C214 H198 0.931 . S
C214 C208 1.383 . S
C214 C213 1.379 . S
H215 C209 0.959 . S
H216 C209 0.961 . S
H217 C209 0.960 . S
H218 C210 0.930 . S
H219 C211 0.929 . S
H220 C228 0.929 . S
H221 C230 0.930 . S
H222 C232 0.930 . S
H223 C235 0.929 . S
H224 C238 0.930 . S
H225 C240 0.960 . S
H226 C240 0.960 . S
H227 C240 0.960 . S
C228 H220 0.929 . S
C228 C229 1.377 . S
C228 C230 1.384 . S
C229 C228 1.377 . S
C229 C235 1.390 . S
C230 H221 0.930 . S
C230 C228 1.384 . S
C230 C231 1.372 . S
C231 C230 1.372 . S
C231 C232 1.400 . S
C231 C236 1.490 . S
C232 H222 0.930 . S
C232 C231 1.400 . S
C232 C235 1.386 . S
H233 C249 0.930 . S
H234 C250 0.931 . S
C235 H223 0.929 . S
C235 C229 1.390 . S
C235 C232 1.386 . S
C236 C231 1.490 . S
C236 C238 1.395 . S
C236 C239 1.403 1_655 S
H237 C243 0.930 . S
C238 H224 0.930 . S
C238 C236 1.395 . S
C238 C241 1.403 . S
C239 C236 1.403 1_455 S
C239 C240 1.524 . S
C239 C243 1.400 . S
C240 H225 0.960 . S
C240 H226 0.960 . S
C240 H227 0.960 . S
C240 C239 1.524 . S
C241 C238 1.403 . S
C241 C242 1.392 1_655 S
C241 C245 1.495 . S
C242 C241 1.392 1_455 S
C242 C243 1.385 . S
C242 C244 1.478 . S
C243 H237 0.930 . S
C243 C239 1.400 . S
C243 C242 1.385 . S
C244 C242 1.478 . S
C244 C246 1.381 . S
C244 C250 1.383 . S
C245 C241 1.495 . S
C245 H251 0.959 . S
C245 H252 0.961 . S
C245 H253 0.960 . S
C246 C244 1.381 . S
C246 C247 1.394 . S
C246 H254 0.930 . S
C247 C246 1.394 . S
C247 C248 1.383 . S
C247 H255 0.929 . S
C248 C247 1.383 . S
C248 C249 1.377 . S
C249 H233 0.930 . S
C249 C248 1.377 . S
C249 C250 1.379 . S
C250 H234 0.931 . S
C250 C244 1.383 . S
C250 C249 1.379 . S
H251 C245 0.959 . S
H252 C245 0.961 . S
H253 C245 0.960 . S
H254 C246 0.930 . S
H255 C247 0.929 . S
H256 C264 0.929 . S
H257 C266 0.930 . S
H258 C268 0.930 . S
H259 C271 0.929 . S
H260 C274 0.930 . S
H261 C276 0.960 . S
H262 C276 0.960 . S
H263 C276 0.960 . S
C264 H256 0.929 . S
C264 C265 1.377 . S
C264 C266 1.384 . S
C265 C264 1.377 . S
C265 C271 1.390 . S
C266 H257 0.930 . S
C266 C264 1.384 . S
C266 C267 1.372 . S
C267 C266 1.372 . S
C267 C268 1.400 . S
C267 C272 1.490 . S
C268 H258 0.930 . S
C268 C267 1.400 . S
C268 C271 1.386 . S
H269 C285 0.930 . S
H270 C286 0.931 . S
C271 H259 0.929 . S
C271 C265 1.390 . S
C271 C268 1.386 . S
C272 C267 1.490 . S
C272 C274 1.395 . S
C272 C275 1.403 1_565 S
H273 C279 0.930 . S
C274 H260 0.930 . S
C274 C272 1.395 . S
C274 C277 1.403 . S
C275 C272 1.403 1_545 S
C275 C276 1.524 . S
C275 C279 1.400 . S
C276 H261 0.960 . S
C276 H262 0.960 . S
C276 H263 0.960 . S
C276 C275 1.524 . S
C277 C274 1.403 . S
C277 C278 1.392 1_565 S
C277 C281 1.495 . S
C278 C277 1.392 1_545 S
C278 C279 1.385 . S
C278 C280 1.478 . S
C279 H273 0.930 . S
C279 C275 1.400 . S
C279 C278 1.385 . S
C280 C278 1.478 . S
C280 C282 1.381 . S
C280 C286 1.383 . S
C281 C277 1.495 . S
C281 H287 0.959 . S
C281 H288 0.961 . S
C281 H289 0.960 . S
C282 C280 1.381 . S
C282 C283 1.394 . S
C282 H290 0.930 . S
C283 C282 1.394 . S
C283 C284 1.383 . S
C283 H291 0.929 . S
C284 C283 1.383 . S
C284 C285 1.377 . S
C285 H269 0.930 . S
C285 C284 1.377 . S
C285 C286 1.379 . S
C286 H270 0.931 . S
C286 C280 1.383 . S
C286 C285 1.379 . S
H287 C281 0.959 . S
H288 C281 0.961 . S
H289 C281 0.960 . S
H290 C282 0.930 . S
H291 C283 0.929 . S
H292 C300 0.929 . S
H293 C302 0.930 . S
H294 C304 0.930 . S
H295 C307 0.929 . S
H296 C310 0.930 . S
H297 C312 0.960 . S
H298 C312 0.960 . S
H299 C312 0.960 . S
C300 H292 0.929 . S
C300 C301 1.377 . S
C300 C302 1.384 . S
C301 C300 1.377 . S
C301 C307 1.390 . S
C302 H293 0.930 . S
C302 C300 1.384 . S
C302 C303 1.372 . S
C303 C302 1.372 . S
C303 C304 1.400 . S
C303 C308 1.490 . S
C304 H294 0.930 . S
C304 C303 1.400 . S
C304 C307 1.386 . S
H305 C321 0.930 . S
H306 C322 0.931 . S
C307 H295 0.929 . S
C307 C301 1.390 . S
C307 C304 1.386 . S
C308 C303 1.490 . S
C308 C310 1.395 1_655 S
C308 C311 1.403 1_556 S
H309 C315 0.930 . S
C310 H296 0.930 . S
C310 C308 1.395 1_455 S
C310 C313 1.403 . S
C311 C308 1.403 1_554 S
C311 C312 1.524 . S
C311 C315 1.400 . S
C312 H297 0.960 . S
C312 H298 0.960 . S
C312 H299 0.960 . S
C312 C311 1.524 . S
C313 C310 1.403 . S
C313 C314 1.392 1_556 S
C313 C317 1.495 . S
C314 C313 1.392 1_554 S
C314 C315 1.385 1_455 S
C314 C316 1.478 . S
C315 H309 0.930 . S
C315 C311 1.400 . S
C315 C314 1.385 1_655 S
C316 C314 1.478 . S
C316 C318 1.381 . S
C316 C322 1.383 . S
C317 C313 1.495 . S
C317 H323 0.959 . S
C317 H324 0.961 . S
C317 H325 0.960 . S
C318 C316 1.381 . S
C318 C319 1.394 . S
C318 H326 0.930 . S
C319 C318 1.394 . S
C319 C320 1.383 . S
C319 H327 0.929 . S
C320 C319 1.383 . S
C320 C321 1.377 . S
C321 H305 0.930 . S
C321 C320 1.377 . S
C321 C322 1.379 . S
C322 H306 0.931 . S
C322 C316 1.383 . S
C322 C321 1.379 . S
H323 C317 0.959 . S
H324 C317 0.961 . S
H325 C317 0.960 . S
H326 C318 0.930 . S
H327 C319 0.929 . S
H328 C336 0.929 . S
H329 C338 0.930 . S
H330 C340 0.930 . S
H331 C343 0.929 . S
H332 C346 0.930 . S
H333 C348 0.960 . S
H334 C348 0.960 . S
H335 C348 0.960 . S
C336 H328 0.929 . S
C336 C337 1.377 . S
C336 C338 1.384 . S
C337 C336 1.377 . S
C337 C343 1.390 . S
C338 H329 0.930 . S
C338 C336 1.384 . S
C338 C339 1.372 . S
C339 C338 1.372 . S
C339 C340 1.400 . S
C339 C344 1.490 . S
C340 H330 0.930 . S
C340 C339 1.400 . S
C340 C343 1.386 . S
H341 C357 0.930 . S
H342 C358 0.931 . S
C343 H331 0.929 . S
C343 C337 1.390 . S
C343 C340 1.386 . S
C344 C339 1.490 . S
C344 C346 1.395 . S
C344 C347 1.403 . S
H345 C351 0.930 . S
C346 H332 0.930 . S
C346 C344 1.395 . S
C346 C349 1.403 . S
C347 C344 1.403 . S
C347 C348 1.524 . S
C347 C351 1.400 . S
C348 H333 0.960 . S
C348 H334 0.960 . S
C348 H335 0.960 . S
C348 C347 1.524 . S
C349 C346 1.403 . S
C349 C350 1.392 . S
C349 C353 1.495 . S
C350 C349 1.392 . S
C350 C351 1.385 . S
C350 C352 1.478 . S
C351 H345 0.930 . S
C351 C347 1.400 . S
C351 C350 1.385 . S
C352 C350 1.478 . S
C352 C354 1.381 . S
C352 C358 1.383 . S
C353 C349 1.495 . S
C353 H359 0.959 . S
C353 H360 0.961 . S
C353 H361 0.960 . S
C354 C352 1.381 . S
C354 C355 1.394 . S
C354 H362 0.930 . S
C355 C354 1.394 . S
C355 C356 1.383 . S
C355 H363 0.929 . S
C356 C355 1.383 . S
C356 C357 1.377 . S
C357 H341 0.930 . S
C357 C356 1.377 . S
C357 C358 1.379 . S
C358 H342 0.931 . S
C358 C352 1.383 . S
C358 C357 1.379 . S
H359 C353 0.959 . S
H360 C353 0.961 . S
H361 C353 0.960 . S
H362 C354 0.930 . S
H363 C355 0.929 . S
H364 C372 0.929 . S
H365 C374 0.930 . S
H366 C376 0.930 . S
H367 C379 0.929 . S
H368 C382 0.930 . S
H369 C384 0.960 . S
H370 C384 0.960 . S
H371 C384 0.960 . S
C372 H364 0.929 . S
C372 C373 1.377 . S
C372 C374 1.384 . S
C373 C372 1.377 . S
C373 C379 1.390 . S
C374 H365 0.930 . S
C374 C372 1.384 . S
C374 C375 1.372 . S
C375 C374 1.372 . S
C375 C376 1.400 . S
C375 C380 1.490 . S
C376 H366 0.930 . S
C376 C375 1.400 . S
C376 C379 1.386 . S
H377 C393 0.930 . S
H378 C394 0.931 . S
C379 H367 0.929 . S
C379 C373 1.390 . S
C379 C376 1.386 . S
C380 C375 1.490 . S
C380 C382 1.395 . S
C380 C383 1.403 . S
H381 C387 0.930 . S
C382 H368 0.930 . S
C382 C380 1.395 . S
C382 C385 1.403 . S
C383 C380 1.403 . S
C383 C384 1.524 . S
C383 C387 1.400 . S
C384 H369 0.960 . S
C384 H370 0.960 . S
C384 H371 0.960 . S
C384 C383 1.524 . S
C385 C382 1.403 . S
C385 C386 1.392 . S
C385 C389 1.495 . S
C386 C385 1.392 . S
C386 C387 1.385 . S
C386 C388 1.478 . S
C387 H381 0.930 . S
C387 C383 1.400 . S
C387 C386 1.385 . S
C388 C386 1.478 . S
C388 C390 1.381 . S
C388 C394 1.383 . S
C389 C385 1.495 . S
C389 H395 0.959 . S
C389 H396 0.961 . S
C389 H397 0.960 . S
C390 C388 1.381 . S
C390 C391 1.394 . S
C390 H398 0.930 . S
C391 C390 1.394 . S
C391 C392 1.383 . S
C391 H399 0.929 . S
C392 C391 1.383 . S
C392 C393 1.377 . S
C393 H377 0.930 . S
C393 C392 1.377 . S
C393 C394 1.379 . S
C394 H378 0.931 . S
C394 C388 1.383 . S
C394 C393 1.379 . S
H395 C389 0.959 . S
H396 C389 0.961 . S
H397 C389 0.960 . S
H398 C390 0.930 . S
H399 C391 0.929 . S
H400 C408 0.929 . S
H401 C410 0.930 . S
H402 C412 0.930 . S
H403 C415 0.929 . S
H404 C418 0.930 . S
H405 C420 0.960 . S
H406 C420 0.960 . S
H407 C420 0.960 . S
C408 H400 0.929 . S
C408 C409 1.377 . S
C408 C410 1.384 . S
C409 C408 1.377 . S
C409 C415 1.390 . S
C410 H401 0.930 . S
C410 C408 1.384 . S
C410 C411 1.372 . S
C411 C410 1.372 . S
C411 C412 1.400 . S
C411 C416 1.490 . S
C412 H402 0.930 . S
C412 C411 1.400 . S
C412 C415 1.386 . S
H413 C429 0.930 . S
H414 C430 0.931 . S
C415 H403 0.929 . S
C415 C409 1.390 . S
C415 C412 1.386 . S
C416 C411 1.490 . S
C416 C418 1.395 . S
C416 C419 1.403 . S
H417 C423 0.930 . S
C418 H404 0.930 . S
C418 C416 1.395 . S
C418 C421 1.403 . S
C419 C416 1.403 . S
C419 C420 1.524 . S
C419 C423 1.400 . S
C420 H405 0.960 . S
C420 H406 0.960 . S
C420 H407 0.960 . S
C420 C419 1.524 . S
C421 C418 1.403 . S
C421 C422 1.392 . S
C421 C425 1.495 . S
C422 C421 1.392 . S
C422 C423 1.385 . S
C422 C424 1.478 . S
C423 H417 0.930 . S
C423 C419 1.400 . S
C423 C422 1.385 . S
C424 C422 1.478 . S
C424 C426 1.381 . S
C424 C430 1.383 . S
C425 C421 1.495 . S
C425 H431 0.959 . S
C425 H432 0.961 . S
C425 H433 0.960 . S
C426 C424 1.381 . S
C426 C427 1.394 . S
C426 H434 0.930 . S
C427 C426 1.394 . S
C427 C428 1.383 . S
C427 H435 0.929 . S
C428 C427 1.383 . S
C428 C429 1.377 . S
C429 H413 0.930 . S
C429 C428 1.377 . S
C429 C430 1.379 . S
C430 H414 0.931 . S
C430 C424 1.383 . S
C430 C429 1.379 . S
H431 C425 0.959 . S
H432 C425 0.961 . S
H433 C425 0.960 . S
H434 C426 0.930 . S
H435 C427 0.929 . S
H436 C444 0.929 . S
H437 C446 0.930 . S
H438 C448 0.930 . S
H439 C451 0.929 . S
H440 C454 0.930 . S
H441 C456 0.960 . S
H442 C456 0.960 . S
H443 C456 0.960 . S
C444 H436 0.929 . S
C444 C445 1.377 . S
C444 C446 1.384 . S
C445 C444 1.377 . S
C445 C451 1.390 . S
C446 H437 0.930 . S
C446 C444 1.384 . S
C446 C447 1.372 . S
C447 C446 1.372 . S
C447 C448 1.400 . S
C447 C452 1.490 . S
C448 H438 0.930 . S
C448 C447 1.400 . S
C448 C451 1.386 . S
H449 C465 0.930 . S
H450 C466 0.931 . S
C451 H439 0.929 . S
C451 C445 1.390 . S
C451 C448 1.386 . S
C452 C447 1.490 . S
C452 C454 1.395 . S
C452 C455 1.403 1_556 S
H453 C459 0.930 . S
C454 H440 0.930 . S
C454 C452 1.395 . S
C454 C457 1.403 . S
C455 C452 1.403 1_554 S
C455 C456 1.524 . S
C455 C459 1.400 . S
C456 H441 0.960 . S
C456 H442 0.960 . S
C456 H443 0.960 . S
C456 C455 1.524 . S
C457 C454 1.403 . S
C457 C458 1.392 1_556 S
C457 C461 1.495 . S
C458 C457 1.392 1_554 S
C458 C459 1.385 . S
C458 C460 1.478 . S
C459 H453 0.930 . S
C459 C455 1.400 . S
C459 C458 1.385 . S
C460 C458 1.478 . S
C460 C462 1.381 . S
C460 C466 1.383 . S
C461 C457 1.495 . S
C461 H467 0.959 . S
C461 H468 0.961 . S
C461 H469 0.960 . S
C462 C460 1.381 . S
C462 C463 1.394 . S
C462 H470 0.930 . S
C463 C462 1.394 . S
C463 C464 1.383 . S
C463 H471 0.929 . S
C464 C463 1.383 . S
C464 C465 1.377 . S
C465 H449 0.930 . S
C465 C464 1.377 . S
C465 C466 1.379 . S
C466 H450 0.931 . S
C466 C460 1.383 . S
C466 C465 1.379 . S
H467 C461 0.959 . S
H468 C461 0.961 . S
H469 C461 0.960 . S
H470 C462 0.930 . S
H471 C463 0.929 . S
H472 C480 0.929 . S
H473 C482 0.930 . S
H474 C484 0.930 . S
H475 C487 0.929 . S
H476 C490 0.930 . S
H477 C492 0.960 . S
H478 C492 0.960 . S
H479 C492 0.960 . S
C480 H472 0.929 . S
C480 C481 1.377 . S
C480 C482 1.384 . S
C481 C480 1.377 . S
C481 C487 1.390 . S
C482 H473 0.930 . S
C482 C480 1.384 . S
C482 C483 1.372 . S
C483 C482 1.372 . S
C483 C484 1.400 . S
C483 C488 1.490 . S
C484 H474 0.930 . S
C484 C483 1.400 . S
C484 C487 1.386 . S
H485 C501 0.930 . S
H486 C502 0.931 . S
C487 H475 0.929 . S
C487 C481 1.390 . S
C487 C484 1.386 . S
C488 C483 1.490 . S
C488 C490 1.395 . S
C488 C491 1.403 1_565 S
H489 C495 0.930 . S
C490 H476 0.930 . S
C490 C488 1.395 . S
C490 C493 1.403 . S
C491 C488 1.403 1_545 S
C491 C492 1.524 . S
C491 C495 1.400 . S
C492 H477 0.960 . S
C492 H478 0.960 . S
C492 H479 0.960 . S
C492 C491 1.524 . S
C493 C490 1.403 . S
C493 C494 1.392 1_565 S
C493 C497 1.495 . S
C494 C493 1.392 1_545 S
C494 C495 1.385 . S
C494 C496 1.478 . S
C495 H489 0.930 . S
C495 C491 1.400 . S
C495 C494 1.385 . S
C496 C494 1.478 . S
C496 C498 1.381 . S
C496 C502 1.383 . S
C497 C493 1.495 . S
C497 H503 0.959 . S
C497 H504 0.961 . S
C497 H505 0.960 . S
C498 C496 1.381 . S
C498 C499 1.394 . S
C498 H506 0.930 . S
C499 C498 1.394 . S
C499 C500 1.383 . S
C499 H507 0.929 . S
C500 C499 1.383 . S
C500 C501 1.377 . S
C501 H485 0.930 . S
C501 C500 1.377 . S
C501 C502 1.379 . S
C502 H486 0.931 . S
C502 C496 1.383 . S
C502 C501 1.379 . S
H503 C497 0.959 . S
H504 C497 0.961 . S
H505 C497 0.960 . S
H506 C498 0.930 . S
H507 C499 0.929 . S
H508 C516 0.929 . S
H509 C518 0.930 . S
H510 C520 0.930 . S
H511 C523 0.929 . S
H512 C526 0.930 . S
H513 C528 0.960 1_455 S
H514 C528 0.960 1_455 S
H515 C528 0.960 . S
C516 H508 0.929 . S
C516 C517 1.377 . S
C516 C518 1.384 . S
C517 C516 1.377 . S
C517 C523 1.390 . S
C518 H509 0.930 . S
C518 C516 1.384 . S
C518 C519 1.372 . S
C519 C518 1.372 . S
C519 C520 1.400 . S
C519 C524 1.490 . S
C520 H510 0.930 . S
C520 C519 1.400 . S
C520 C523 1.386 . S
H521 C537 0.930 . S
H522 C538 0.931 . S
C523 H511 0.929 . S
C523 C517 1.390 . S
C523 C520 1.386 . S
C524 C519 1.490 . S
C524 C526 1.395 1_565 S
C524 C527 1.403 . S
H525 C531 0.930 . S
C526 H512 0.930 . S
C526 C524 1.395 1_545 S
C526 C529 1.403 1_655 S
C527 C524 1.403 . S
C527 C528 1.524 . S
C527 C531 1.400 1_655 S
C528 H513 0.960 1_655 S
C528 H514 0.960 1_655 S
C528 H515 0.960 . S
C528 C527 1.524 . S
C529 C526 1.403 1_455 S
C529 C530 1.392 . S
C529 C533 1.495 . S
C530 C529 1.392 . S
C530 C531 1.385 1_545 S
C530 C532 1.478 . S
C531 H525 0.930 . S
C531 C527 1.400 1_455 S
C531 C530 1.385 1_565 S
C532 C530 1.478 . S
C532 C534 1.381 . S
C532 C538 1.383 . S
C533 C529 1.495 . S
C533 H539 0.959 1_455 S
C533 H540 0.961 1_455 S
C533 H541 0.960 . S
C534 C532 1.381 . S
C534 C535 1.394 . S
C534 H542 0.930 . S
C535 C534 1.394 . S
C535 C536 1.383 . S
C535 H543 0.929 . S
C536 C535 1.383 . S
C536 C537 1.377 . S
C537 H521 0.930 . S
C537 C536 1.377 . S
C537 C538 1.379 . S
C538 H522 0.931 . S
C538 C532 1.383 . S
C538 C537 1.379 . S
H539 C533 0.959 1_655 S
H540 C533 0.961 1_655 S
H541 C533 0.960 . S
H542 C534 0.930 . S
H543 C535 0.929 . S
H544 C552 0.929 . S
H545 C554 0.930 . S
H546 C556 0.930 . S
H547 C559 0.929 . S
H548 C562 0.930 . S
H549 C564 0.960 . S
H550 C564 0.960 . S
H551 C564 0.960 . S
C552 H544 0.929 . S
C552 C553 1.377 . S
C552 C554 1.384 . S
C553 C552 1.377 . S
C553 C559 1.390 . S
C554 H545 0.930 . S
C554 C552 1.384 . S
C554 C555 1.372 . S
C555 C554 1.372 . S
C555 C556 1.400 . S
C555 C560 1.490 . S
C556 H546 0.930 . S
C556 C555 1.400 . S
C556 C559 1.386 . S
H557 C573 0.930 . S
H558 C574 0.931 . S
C559 H547 0.929 . S
C559 C553 1.390 . S
C559 C556 1.386 . S
C560 C555 1.490 . S
C560 C562 1.395 1_655 S
C560 C563 1.403 . S
H561 C567 0.930 . S
C562 H548 0.930 . S
C562 C560 1.395 1_455 S
C562 C565 1.403 . S
C563 C560 1.403 . S
C563 C564 1.524 . S
C563 C567 1.400 . S
C564 H549 0.960 . S
C564 H550 0.960 . S
C564 H551 0.960 . S
C564 C563 1.524 . S
C565 C562 1.403 . S
C565 C566 1.392 . S
C565 C569 1.495 . S
C566 C565 1.392 . S
C566 C567 1.385 1_455 S
C566 C568 1.478 . S
C567 H561 0.930 . S
C567 C563 1.400 . S
C567 C566 1.385 1_655 S
C568 C566 1.478 . S
C568 C570 1.381 . S
C568 C574 1.383 . S
C569 C565 1.495 . S
C569 H575 0.959 . S
C569 H576 0.961 . S
C569 H577 0.960 . S
C570 C568 1.381 . S
C570 C571 1.394 . S
C570 H578 0.930 . S
C571 C570 1.394 . S
C571 C572 1.383 . S
C571 H579 0.929 . S
C572 C571 1.383 . S
C572 C573 1.377 . S
C573 H557 0.930 . S
C573 C572 1.377 . S
C573 C574 1.379 . S
C574 H558 0.931 . S
C574 C568 1.383 . S
C574 C573 1.379 . S
H575 C569 0.959 . S
H576 C569 0.961 . S
H577 C569 0.960 . S
H578 C570 0.930 . S
H579 C571 0.929 . S
H580 C588 0.929 . S
H581 C590 0.930 . S
H582 C592 0.930 . S
H583 C595 0.929 . S
H584 C598 0.930 . S
H585 C600 0.960 . S
H586 C600 0.960 . S
H587 C600 0.960 . S
C588 H580 0.929 . S
C588 C589 1.377 . S
C588 C590 1.384 . S
C589 C588 1.377 . S
C589 C595 1.390 . S
C590 H581 0.930 . S
C590 C588 1.384 . S
C590 C591 1.372 . S
C591 C590 1.372 . S
C591 C592 1.400 . S
C591 C596 1.490 . S
C592 H582 0.930 . S
C592 C591 1.400 . S
C592 C595 1.386 . S
H593 C609 0.930 . S
H594 C610 0.931 . S
C595 H583 0.929 . S
C595 C589 1.390 . S
C595 C592 1.386 . S
C596 C591 1.490 . S
C596 C598 1.395 . S
C596 C599 1.403 . S
H597 C603 0.930 . S
C598 H584 0.930 . S
C598 C596 1.395 . S
C598 C601 1.403 . S
C599 C596 1.403 . S
C599 C600 1.524 . S
C599 C603 1.400 . S
C600 H585 0.960 . S
C600 H586 0.960 . S
C600 H587 0.960 . S
C600 C599 1.524 . S
C601 C598 1.403 . S
C601 C602 1.392 . S
C601 C605 1.495 . S
C602 C601 1.392 . S
C602 C603 1.385 . S
C602 C604 1.478 . S
C603 H597 0.930 . S
C603 C599 1.400 . S
C603 C602 1.385 . S
C604 C602 1.478 . S
C604 C606 1.381 . S
C604 C610 1.383 . S
C605 C601 1.495 . S
C605 H611 0.959 . S
C605 H612 0.961 . S
C605 H613 0.960 . S
C606 C604 1.381 . S
C606 C607 1.394 . S
C606 H614 0.930 . S
C607 C606 1.394 . S
C607 C608 1.383 . S
C607 H615 0.929 . S
C608 C607 1.383 . S
C608 C609 1.377 . S
C609 H593 0.930 . S
C609 C608 1.377 . S
C609 C610 1.379 . S
C610 H594 0.931 . S
C610 C604 1.383 . S
C610 C609 1.379 . S
H611 C605 0.959 . S
H612 C605 0.961 . S
H613 C605 0.960 . S
H614 C606 0.930 . S
H615 C607 0.929 . S
H616 C624 0.929 . S
H617 C626 0.930 . S
H618 C628 0.930 . S
H619 C631 0.929 . S
H620 C634 0.930 . S
H621 C636 0.960 . S
H622 C636 0.960 . S
H623 C636 0.960 . S
C624 H616 0.929 . S
C624 C625 1.377 . S
C624 C626 1.384 . S
C625 C624 1.377 . S
C625 C631 1.390 . S
C626 H617 0.930 . S
C626 C624 1.384 . S
C626 C627 1.372 . S
C627 C626 1.372 . S
C627 C628 1.400 . S
C627 C632 1.490 . S
C628 H618 0.930 . S
C628 C627 1.400 . S
C628 C631 1.386 . S
H629 C645 0.930 . S
H630 C646 0.931 . S
C631 H619 0.929 . S
C631 C625 1.390 . S
C631 C628 1.386 . S
C632 C627 1.490 . S
C632 C634 1.395 . S
C632 C635 1.403 1_554 S
H633 C639 0.930 . S
C634 H620 0.930 . S
C634 C632 1.395 . S
C634 C637 1.403 . S
C635 C632 1.403 1_556 S
C635 C636 1.524 . S
C635 C639 1.400 . S
C636 H621 0.960 . S
C636 H622 0.960 . S
C636 H623 0.960 . S
C636 C635 1.524 . S
C637 C634 1.403 . S
C637 C638 1.392 1_554 S
C637 C641 1.495 . S
C638 C637 1.392 1_556 S
C638 C639 1.385 . S
C638 C640 1.478 . S
C639 H633 0.930 . S
C639 C635 1.400 . S
C639 C638 1.385 . S
C640 C638 1.478 . S
C640 C642 1.381 . S
C640 C646 1.383 . S
C641 C637 1.495 . S
C641 H647 0.959 . S
C641 H648 0.961 . S
C641 H649 0.960 . S
C642 C640 1.381 . S
C642 C643 1.394 . S
C642 H650 0.930 . S
C643 C642 1.394 . S
C643 C644 1.383 . S
C643 H651 0.929 . S
C644 C643 1.383 . S
C644 C645 1.377 . S
C645 H629 0.930 . S
C645 C644 1.377 . S
C645 C646 1.379 . S
C646 H630 0.931 . S
C646 C640 1.383 . S
C646 C645 1.379 . S
H647 C641 0.959 . S
H648 C641 0.961 . S
H649 C641 0.960 . S
H650 C642 0.930 . S
H651 C643 0.929 . S
H652 C660 0.929 . S
H653 C662 0.930 . S
H654 C664 0.930 . S
H655 C667 0.929 . S
H656 C670 0.930 . S
H657 C672 0.960 . S
H658 C672 0.960 . S
H659 C672 0.960 . S
C660 H652 0.929 . S
C660 C661 1.377 . S
C660 C662 1.384 . S
C661 C660 1.377 . S
C661 C667 1.390 . S
C662 H653 0.930 . S
C662 C660 1.384 . S
C662 C663 1.372 . S
C663 C662 1.372 . S
C663 C664 1.400 . S
C663 C668 1.490 . S
C664 H654 0.930 . S
C664 C663 1.400 . S
C664 C667 1.386 . S
H665 C681 0.930 . S
H666 C682 0.931 . S
C667 H655 0.929 . S
C667 C661 1.390 . S
C667 C664 1.386 . S
C668 C663 1.490 . S
C668 C670 1.395 . S
C668 C671 1.403 . S
H669 C675 0.930 . S
C670 H656 0.930 . S
C670 C668 1.395 . S
C670 C673 1.403 . S
C671 C668 1.403 . S
C671 C672 1.524 . S
C671 C675 1.400 . S
C672 H657 0.960 . S
C672 H658 0.960 . S
C672 H659 0.960 . S
C672 C671 1.524 . S
C673 C670 1.403 . S
C673 C674 1.392 . S
C673 C677 1.495 . S
C674 C673 1.392 . S
C674 C675 1.385 . S
C674 C676 1.478 . S
C675 H669 0.930 . S
C675 C671 1.400 . S
C675 C674 1.385 . S
C676 C674 1.478 . S
C676 C678 1.381 . S
C676 C682 1.383 . S
C677 C673 1.495 . S
C677 H683 0.959 . S
C677 H684 0.961 . S
C677 H685 0.960 . S
C678 C676 1.381 . S
C678 C679 1.394 . S
C678 H686 0.930 . S
C679 C678 1.394 . S
C679 C680 1.383 . S
C679 H687 0.929 . S
C680 C679 1.383 . S
C680 C681 1.377 . S
C681 H665 0.930 . S
C681 C680 1.377 . S
C681 C682 1.379 . S
C682 H666 0.931 . S
C682 C676 1.383 . S
C682 C681 1.379 . S
H683 C677 0.959 . S
H684 C677 0.961 . S
H685 C677 0.960 . S
H686 C678 0.930 . S
H687 C679 0.929 . S
C121 C82 1.500 . S
C140 C11 1.490 . S
C157 C103 1.266 . S
C176 C19 1.224 . S
C193 C32 1.461 . S
C212 C88 1.479 . S
C229 C53 1.471 . S
C248 C68 1.498 . S
C265 C89 1.264 . S
C284 C5 1.309 . S
C301 C18 1.457 . S
C320 C60 1.457 . S
C337 C81 1.478 . S
C356 C40 1.495 . S
C373 C54 1.500 . S
C392 C109 1.469 . S
C409 C61 1.268 . S
C428 C75 1.314 . S
C445 C26 1.500 . S
C464 C39 1.454 . S
C481 C47 1.261 . S
C500 C33 1.299 . S
C517 C46 1.458 . S
C536 C4 1.435 . S
C553 C25 1.478 . S
C572 C12 1.495 . S
C589 C110 1.500 . S
C608 C95 1.456 . S
C625 C67 1.470 . S
C644 C96 1.498 . S
C661 C74 1.456 . S
C680 C102 1.444 . S
