# Generated by pormake.
# Topology fob, (5)-cn, num edge types: 1
# Building blocks:
#     Node 0, Type 0, BuildingBlock: XOMCOT_clean_sbu_0, # of connection points: 5
#     Node 1, Type 0, BuildingBlock: XOMCOT_clean_sbu_0, # of connection points: 5
#     Node 2, Type 0, BuildingBlock: XOMCOT_clean_sbu_0, # of connection points: 5
#     Node 3, Type 0, BuildingBlock: XOMCOT_clean_sbu_0, # of connection points: 5
#     Node 4, Type 0, BuildingBlock: XOMCOT_clean_sbu_0, # of connection points: 5
#     Node 5, Type 0, BuildingBlock: XOMCOT_clean_sbu_0, # of connection points: 5
#     Node 6, Type 0, BuildingBlock: XOMCOT_clean_sbu_0, # of connection points: 5
#     Node 7, Type 0, BuildingBlock: XOMCOT_clean_sbu_0, # of connection points: 5
#     Node 8, Type 0, BuildingBlock: XOMCOT_clean_sbu_0, # of connection points: 5
#     Node 9, Type 0, BuildingBlock: XOMCOT_clean_sbu_0, # of connection points: 5
#     Node 10, Type 0, BuildingBlock: XOMCOT_clean_sbu_0, # of connection points: 5
#     Node 11, Type 0, BuildingBlock: XOMCOT_clean_sbu_0, # of connection points: 5
#     Node 12, Type 0, BuildingBlock: XOMCOT_clean_sbu_0, # of connection points: 5
#     Node 13, Type 0, BuildingBlock: XOMCOT_clean_sbu_0, # of connection points: 5
#     Node 14, Type 0, BuildingBlock: XOMCOT_clean_sbu_0, # of connection points: 5
#     Node 15, Type 0, BuildingBlock: XOMCOT_clean_sbu_0, # of connection points: 5
#     Edge 16, Type (0, 0), BuildingBlock: MIFKUJ_clean_linker_0, # of connection points: 2
#     Edge 17, Type (0, 0), BuildingBlock: MIFKUJ_clean_linker_0, # of connection points: 2
#     Edge 18, Type (0, 0), BuildingBlock: MIFKUJ_clean_linker_0, # of connection points: 2
#     Edge 19, Type (0, 0), BuildingBlock: MIFKUJ_clean_linker_0, # of connection points: 2
#     Edge 20, Type (0, 0), BuildingBlock: MIFKUJ_clean_linker_0, # of connection points: 2
#     Edge 21, Type (0, 0), BuildingBlock: MIFKUJ_clean_linker_0, # of connection points: 2
#     Edge 22, Type (0, 0), BuildingBlock: MIFKUJ_clean_linker_0, # of connection points: 2
#     Edge 23, Type (0, 0), BuildingBlock: MIFKUJ_clean_linker_0, # of connection points: 2
#     Edge 24, Type (0, 0), BuildingBlock: MIFKUJ_clean_linker_0, # of connection points: 2
#     Edge 25, Type (0, 0), BuildingBlock: MIFKUJ_clean_linker_0, # of connection points: 2
#     Edge 26, Type (0, 0), BuildingBlock: MIFKUJ_clean_linker_0, # of connection points: 2
#     Edge 27, Type (0, 0), BuildingBlock: MIFKUJ_clean_linker_0, # of connection points: 2
#     Edge 28, Type (0, 0), BuildingBlock: MIFKUJ_clean_linker_0, # of connection points: 2
#     Edge 29, Type (0, 0), BuildingBlock: MIFKUJ_clean_linker_0, # of connection points: 2
#     Edge 30, Type (0, 0), BuildingBlock: MIFKUJ_clean_linker_0, # of connection points: 2
#     Edge 31, Type (0, 0), BuildingBlock: MIFKUJ_clean_linker_0, # of connection points: 2
#     Edge 32, Type (0, 0), BuildingBlock: MIFKUJ_clean_linker_0, # of connection points: 2
#     Edge 33, Type (0, 0), BuildingBlock: MIFKUJ_clean_linker_0, # of connection points: 2
#     Edge 34, Type (0, 0), BuildingBlock: MIFKUJ_clean_linker_0, # of connection points: 2
#     Edge 35, Type (0, 0), BuildingBlock: MIFKUJ_clean_linker_0, # of connection points: 2
#     Edge 36, Type (0, 0), BuildingBlock: MIFKUJ_clean_linker_0, # of connection points: 2
#     Edge 37, Type (0, 0), BuildingBlock: MIFKUJ_clean_linker_0, # of connection points: 2
#     Edge 38, Type (0, 0), BuildingBlock: MIFKUJ_clean_linker_0, # of connection points: 2
#     Edge 39, Type (0, 0), BuildingBlock: MIFKUJ_clean_linker_0, # of connection points: 2
#     Edge 40, Type (0, 0), BuildingBlock: MIFKUJ_clean_linker_0, # of connection points: 2
#     Edge 41, Type (0, 0), BuildingBlock: MIFKUJ_clean_linker_0, # of connection points: 2
#     Edge 42, Type (0, 0), BuildingBlock: MIFKUJ_clean_linker_0, # of connection points: 2
#     Edge 43, Type (0, 0), BuildingBlock: MIFKUJ_clean_linker_0, # of connection points: 2
#     Edge 44, Type (0, 0), BuildingBlock: MIFKUJ_clean_linker_0, # of connection points: 2
#     Edge 45, Type (0, 0), BuildingBlock: MIFKUJ_clean_linker_0, # of connection points: 2
#     Edge 46, Type (0, 0), BuildingBlock: MIFKUJ_clean_linker_0, # of connection points: 2
#     Edge 47, Type (0, 0), BuildingBlock: MIFKUJ_clean_linker_0, # of connection points: 2
#     Edge 48, Type (0, 0), BuildingBlock: MIFKUJ_clean_linker_0, # of connection points: 2
#     Edge 49, Type (0, 0), BuildingBlock: MIFKUJ_clean_linker_0, # of connection points: 2
#     Edge 50, Type (0, 0), BuildingBlock: MIFKUJ_clean_linker_0, # of connection points: 2
#     Edge 51, Type (0, 0), BuildingBlock: MIFKUJ_clean_linker_0, # of connection points: 2
#     Edge 52, Type (0, 0), BuildingBlock: MIFKUJ_clean_linker_0, # of connection points: 2
#     Edge 53, Type (0, 0), BuildingBlock: MIFKUJ_clean_linker_0, # of connection points: 2
#     Edge 54, Type (0, 0), BuildingBlock: MIFKUJ_clean_linker_0, # of connection points: 2
#     Edge 55, Type (0, 0), BuildingBlock: MIFKUJ_clean_linker_0, # of connection points: 2
# Relax obj value: 0.078
# Max RMSD: 0.143
# Mean RMSD: 0.143
data_MOF--net-fob--node1-XOMCOT_clean_sbu_0--edge1-MIFKUJ_clean_linker_0
_symmetry_space_group_name_H-M    P1
_symmetry_Int_Tables_number       1
_symmetry_cell_setting            triclinic
loop_
_symmetry_equiv_pos_as_xyz
'x, y, z'
_cell_length_a     33.952541
_cell_length_b     80.858752
_cell_length_c     63.307801
_cell_angle_alpha  100.91093
_cell_angle_beta   89.939331
_cell_angle_gamma 89.97115
loop_
_atom_site_label
_atom_site_type_symbol
_atom_site_fract_x
_atom_site_fract_y
_atom_site_fract_z
_atom_type_partial_charge
Co0 Co 0.10339 0.1313 0.46668 0.0
C1 C 0.0784 0.09607 0.46502 0.0
C2 C 0.1335 0.09731 0.44873 0.0
C3 C 0.12429 0.08063 0.44822 0.0
N4 N 0.10469 0.10695 0.45925 0.0
N5 N 0.08969 0.07983 0.45857 0.0
H6 H 0.05225 0.10004 0.47439 0.0
H7 H 0.15978 0.10203 0.44225 0.0
C8 C 0.13627 0.14402 0.42919 0.0
O9 O 0.10762 0.15514 0.43143 0.0
N10 N 0.10305 0.15588 0.47474 0.0
C11 C 0.0729 0.16648 0.48148 0.0
C12 C 0.08667 0.18276 0.48544 0.0
C13 C 0.13507 0.16599 0.47561 0.0
N14 N 0.12571 0.18247 0.48162 0.0
C15 C 0.02023 0.1346 0.46049 0.0
C16 C 0.02025 0.12429 0.41634 0.0
C17 C 0.98509 0.12997 0.4268 0.0
C18 C 0.98508 0.13482 0.44919 0.0
C19 C 0.05495 0.12462 0.42827 0.0
N20 N 0.05511 0.13082 0.44994 0.0
H21 H 0.01924 0.13745 0.47783 0.0
H22 H 0.0815 0.11969 0.42003 0.0
H23 H 0.04293 0.16301 0.48388 0.0
H24 H 0.16447 0.16137 0.47127 0.0
O25 O 0.08088 0.12982 0.49417 0.0
O26 O 0.14489 0.13086 0.48735 0.0
O27 O 0.1378 0.13292 0.44112 0.0
C28 C 0.11691 0.12995 0.50115 0.0
H29 H 0.142 0.06996 0.44086 0.0
H30 H 0.06926 0.19396 0.49102 0.0
H31 H 0.02101 0.11988 0.39908 0.0
H32 H 0.95803 0.13855 0.4579 0.0
Co33 Co 0.11317 0.14936 0.76341 0.0
C34 C 0.08836 0.1842 0.76191 0.0
C35 C 0.14758 0.18333 0.77354 0.0
C36 C 0.13844 0.19978 0.77252 0.0
N37 N 0.11616 0.17361 0.76691 0.0
N38 N 0.10121 0.20033 0.76514 0.0
H39 H 0.05977 0.18005 0.75545 0.0
H40 H 0.17542 0.17877 0.77843 0.0
C41 C 0.15016 0.14065 0.80256 0.0
O42 O 0.12028 0.13058 0.80394 0.0
N43 N 0.11105 0.12481 0.75939 0.0
C44 C 0.07996 0.11444 0.75435 0.0
C45 C 0.09259 0.09802 0.75192 0.0
C46 C 0.14236 0.1144 0.75924 0.0
N47 N 0.13186 0.09794 0.75511 0.0
C48 C 0.03053 0.14857 0.77275 0.0
C49 C 0.03576 0.16154 0.81628 0.0
C50 C 0.99896 0.15651 0.80739 0.0
C51 C 0.99636 0.15042 0.78524 0.0
C52 C 0.06909 0.15978 0.80308 0.0
N53 N 0.06669 0.15218 0.7819 0.0
H54 H 0.0277 0.1443 0.75563 0.0
H55 H 0.09667 0.16472 0.80999 0.0
H56 H 0.05021 0.11821 0.75184 0.0
H57 H 0.17222 0.11887 0.76228 0.0
O58 O 0.08796 0.14831 0.73593 0.0
O59 O 0.15248 0.14718 0.74108 0.0
O60 O 0.1505 0.14983 0.7882 0.0
C61 C 0.12326 0.14698 0.72777 0.0
H62 H 0.15786 0.21048 0.77689 0.0
H63 H 0.07421 0.08698 0.74747 0.0
H64 H 0.03862 0.167 0.8332 0.0
H65 H 0.96825 0.14681 0.77767 0.0
Co66 Co 0.88529 0.88169 0.50409 0.0
C67 C 0.91095 0.91652 0.50383 0.0
C68 C 0.85645 0.91614 0.52094 0.0
C69 C 0.86562 0.93261 0.52005 0.0
N70 N 0.88493 0.90608 0.51079 0.0
N71 N 0.89982 0.93286 0.50915 0.0
H72 H 0.93659 0.91211 0.49425 0.0
H73 H 0.8302 0.91182 0.52791 0.0
C74 C 0.84967 0.87001 0.54195 0.0
O75 O 0.87678 0.85824 0.54034 0.0
N76 N 0.88514 0.85717 0.49671 0.0
C77 C 0.91553 0.84664 0.49041 0.0
C78 C 0.90188 0.83034 0.48639 0.0
C79 C 0.85315 0.84705 0.49569 0.0
N80 N 0.86267 0.83056 0.48986 0.0
C81 C 0.96865 0.8795 0.51034 0.0
C82 C 0.96808 0.88964 0.5545 0.0
C83 C 0.00434 0.88607 0.54397 0.0
C84 C 0.00425 0.88113 0.52152 0.0
C85 C 0.93323 0.88809 0.54264 0.0
N86 N 0.93348 0.88221 0.52092 0.0
H87 H 0.96962 0.87646 0.49301 0.0
H88 H 0.90635 0.89223 0.55104 0.0
H89 H 0.94558 0.85025 0.4884 0.0
H90 H 0.82368 0.85171 0.49972 0.0
O91 O 0.90794 0.88252 0.47644 0.0
O92 O 0.84386 0.88232 0.48348 0.0
O93 O 0.85035 0.88083 0.52961 0.0
C94 C 0.87191 0.88313 0.4697 0.0
H95 H 0.84802 0.9435 0.52673 0.0
H96 H 0.91956 0.81921 0.48097 0.0
H97 H 0.96646 0.89377 0.57177 0.0
H98 H 0.0315 0.87898 0.51252 0.0
Co99 Co 0.88752 0.90642 0.22208 0.0
C100 C 0.91099 0.8721 0.22734 0.0
C101 C 0.85384 0.87233 0.21294 0.0
C102 C 0.86227 0.85614 0.21535 0.0
N103 N 0.88442 0.8823 0.22037 0.0
N104 N 0.89818 0.85595 0.22451 0.0
H105 H 0.93865 0.87655 0.23478 0.0
H106 H 0.827 0.87654 0.20644 0.0
C107 C 0.85127 0.91281 0.18113 0.0
O108 O 0.87946 0.92355 0.17916 0.0
N109 N 0.88971 0.93077 0.22419 0.0
C110 C 0.92084 0.94115 0.22885 0.0
C111 C 0.9083 0.95753 0.23061 0.0
C112 C 0.85848 0.94112 0.22372 0.0
N113 N 0.86902 0.95758 0.2273 0.0
C114 C 0.9709 0.9062 0.21507 0.0
C115 C 0.96985 0.89178 0.17192 0.0
C116 C 0.00633 0.89606 0.1819 0.0
C117 C 0.00639 0.90304 0.20393 0.0
C118 C 0.93501 0.89486 0.18381 0.0
N119 N 0.93559 0.90289 0.20485 0.0
H120 H 0.97206 0.91109 0.23212 0.0
H121 H 0.90784 0.89034 0.17604 0.0
H122 H 0.95051 0.93741 0.23164 0.0
H123 H 0.82865 0.93658 0.22084 0.0
O124 O 0.91026 0.90892 0.25043 0.0
O125 O 0.84619 0.90941 0.24329 0.0
O126 O 0.85213 0.90445 0.19632 0.0
C127 C 0.87418 0.91027 0.25742 0.0
H128 H 0.84326 0.84535 0.21059 0.0
H129 H 0.92678 0.96855 0.2348 0.0
H130 H 0.96797 0.88608 0.15505 0.0
H131 H 0.03367 0.9058 0.21274 0.0
Co132 Co 0.10794 0.63307 0.96766 0.0
C133 C 0.08221 0.59827 0.96762 0.0
C134 C 0.13982 0.59877 0.95374 0.0
C135 C 0.12991 0.58227 0.95404 0.0
N136 N 0.10981 0.60874 0.9622 0.0
N137 N 0.0937 0.58196 0.96284 0.0
H138 H 0.05443 0.60258 0.97508 0.0
H139 H 0.16736 0.60319 0.94825 0.0
C140 C 0.14342 0.64362 0.92914 0.0
O141 O 0.11381 0.65406 0.92884 0.0
N142 N 0.10657 0.65765 0.97379 0.0
C143 C 0.07654 0.66786 0.98175 0.0
C144 C 0.08957 0.68423 0.9859 0.0
C145 C 0.13783 0.66806 0.97393 0.0
N146 N 0.12822 0.68448 0.98088 0.0
C147 C 0.02486 0.63515 0.96017 0.0
C148 C 0.02738 0.62385 0.91621 0.0
C149 C 0.99121 0.62893 0.92598 0.0
C150 C 0.99004 0.63423 0.94835 0.0
C151 C 0.06144 0.62484 0.92871 0.0
N152 N 0.06037 0.63156 0.95021 0.0
H153 H 0.02303 0.63854 0.97745 0.0
H154 H 0.08849 0.61994 0.92103 0.0
H155 H 0.04746 0.66394 0.98539 0.0
H156 H 0.16711 0.66354 0.96925 0.0
O157 O 0.08468 0.63296 -0.00459 0.0
O158 O 0.14882 0.63386 0.98877 0.0
O159 O 0.14374 0.63358 0.94248 0.0
C160 C 0.12065 0.63373 0.00264 0.0
H161 H 0.14859 0.57141 0.94885 0.0
H162 H 0.07174 0.69499 -0.00727 0.0
H163 H 0.02924 0.61889 0.8991 0.0
H164 H 0.96254 0.63781 0.95664 0.0
Co165 Co 0.10524 0.65661 0.26169 0.0
C166 C 0.07999 0.69187 0.26374 0.0
C167 C 0.13573 0.69052 0.27931 0.0
C168 C 0.12667 0.70721 0.27979 0.0
N169 N 0.10642 0.68094 0.26927 0.0
N170 N 0.09168 0.70807 0.26989 0.0
H171 H 0.05353 0.68796 0.25465 0.0
H172 H 0.16232 0.68574 0.28537 0.0
C173 C 0.13697 0.64423 0.29986 0.0
O174 O 0.10865 0.63297 0.29772 0.0
N175 N 0.10492 0.63203 0.25347 0.0
C176 C 0.07542 0.62183 0.24466 0.0
C177 C 0.08911 0.60557 0.23952 0.0
C178 C 0.13656 0.62171 0.25289 0.0
N179 N 0.12759 0.60543 0.24467 0.0
C180 C 0.02174 0.65341 0.26644 0.0
C181 C 0.01925 0.66252 0.31067 0.0
C182 C 0.98445 0.65701 0.29958 0.0
C183 C 0.98595 0.65285 0.27707 0.0
C184 C 0.05456 0.66267 0.29935 0.0
N185 N 0.056 0.65696 0.27762 0.0
H186 H 0.02173 0.65094 0.24911 0.0
H187 H 0.08055 0.66757 0.30814 0.0
H188 H 0.04613 0.62564 0.24132 0.0
H189 H 0.16575 0.62612 0.25797 0.0
O190 O 0.08441 0.65823 0.23393 0.0
O191 O 0.14797 0.65715 0.24183 0.0
O192 O 0.13836 0.65504 0.28755 0.0
C193 C 0.1209 0.65816 0.22762 0.0
H194 H 0.14476 0.71786 0.28675 0.0
H195 H 0.07184 0.59469 0.23244 0.0
H196 H 0.01926 0.66681 0.32794 0.0
H197 H 0.95991 0.64888 0.26761 0.0
Co198 Co 0.89306 0.38387 0.01101 0.0
C199 C 0.91636 0.4194 0.00959 0.0
C200 C 0.86004 0.41811 0.0243 0.0
C201 C 0.86737 0.43462 0.02292 0.0
N202 N 0.89131 0.40852 0.01656 0.0
N203 N 0.90286 0.43544 0.01362 0.0
H204 H 0.9429 0.41567 0.00067 0.0
H205 H 0.83271 0.41336 0.02958 0.0
C206 C 0.85785 0.39181 0.05523 0.0
O207 O 0.88663 0.40247 0.06147 0.0
N208 N 0.89371 0.35951 0.00497 0.0
C209 C 0.92494 0.34957 -0.00147 0.0
C210 C 0.9131 0.333 -0.00433 0.0
C211 C 0.86318 0.34893 0.00572 0.0
N212 N 0.87426 0.33259 0.00018 0.0
C213 C 0.97425 0.39017 0.02153 0.0
C214 C 0.97615 0.37574 0.05768 0.0
C215 C 0.01021 0.38366 0.05185 0.0
C216 C 0.00895 0.3907 0.03328 0.0
C217 C 0.94177 0.37564 0.04545 0.0
N218 N 0.94048 0.38371 0.02833 0.0
H219 H 0.97513 0.39458 0.00658 0.0
H220 H 0.91634 0.36892 0.04966 0.0
H221 H 0.95423 0.35406 -0.00404 0.0
H222 H 0.83359 0.35313 0.01033 0.0
O223 O 0.91754 0.38402 0.98368 0.0
O224 O 0.85302 0.38378 0.98944 0.0
O225 O 0.85694 0.38332 0.03606 0.0
C226 C 0.882 0.38422 0.97608 0.0
H227 H 0.84713 0.44504 0.0274 0.0
H228 H 0.93156 0.32211 -0.00976 0.0
H229 H 0.97616 0.36947 0.07135 0.0
H230 H 0.03449 0.3967 0.02779 0.0
Co231 Co 0.89076 0.3989 0.72218 0.0
C232 C 0.915 0.36359 0.72511 0.0
C233 C 0.85494 0.36523 0.71553 0.0
C234 C 0.8625 0.3489 0.71766 0.0
N235 N 0.88811 0.37444 0.71964 0.0
N236 N 0.90034 0.34785 0.72374 0.0
H237 H 0.94386 0.3672 0.7313 0.0
H238 H 0.82669 0.37015 0.71181 0.0
C239 C 0.85282 0.38728 0.67929 0.0
O240 O 0.87935 0.37528 0.67485 0.0
N241 N 0.89212 0.42314 0.72524 0.0
C242 C 0.92362 0.43321 0.73025 0.0
C243 C 0.91149 0.44972 0.73264 0.0
C244 C 0.86125 0.4336 0.72474 0.0
N245 N 0.87223 0.44998 0.72925 0.0
C246 C 0.97222 0.39245 0.71194 0.0
C247 C 0.97143 0.40187 0.67224 0.0
C248 C 0.0063 0.39538 0.67932 0.0
C249 C 0.00658 0.39102 0.69969 0.0
C250 C 0.93764 0.40311 0.68509 0.0
N251 N 0.93764 0.39741 0.70409 0.0
H252 H 0.97392 0.39001 0.72804 0.0
H253 H 0.91171 0.40887 0.6798 0.0
H254 H 0.9532 0.42885 0.7324 0.0
H255 H 0.83121 0.42928 0.7219 0.0
O256 O 0.91581 0.40071 0.74973 0.0
O257 O 0.8512 0.40102 0.74437 0.0
O258 O 0.85412 0.3978 0.69706 0.0
C259 C 0.88044 0.40163 0.75777 0.0
H260 H 0.84142 0.33869 0.71517 0.0
H261 H 0.93023 0.46068 0.73667 0.0
H262 H 0.97009 0.40587 0.65687 0.0
H263 H 0.03338 0.38686 0.70636 0.0
Co264 Co 0.61572 0.13245 0.96992 0.0
C265 C 0.59084 0.09749 0.97013 0.0
C266 C 0.64902 0.09837 0.95706 0.0
C267 C 0.63968 0.08183 0.95738 0.0
N268 N 0.61836 0.10814 0.96503 0.0
N269 N 0.6031 0.08126 0.96565 0.0
H270 H 0.56293 0.10163 0.97755 0.0
H271 H 0.67649 0.10296 0.95171 0.0
C272 C 0.65078 0.1427 0.93118 0.0
O273 O 0.62117 0.15319 0.93127 0.0
N274 N 0.61386 0.15702 0.97535 0.0
C275 C 0.58274 0.16737 0.98052 0.0
C276 C 0.59549 0.1838 0.98355 0.0
C277 C 0.6453 0.16741 0.97602 0.0
N278 N 0.63483 0.18385 0.9806 0.0
C279 C 0.53258 0.13346 0.96241 0.0
C280 C 0.53497 0.12306 0.91832 0.0
C281 C 0.49846 0.12762 0.9282 0.0
C282 C 0.49759 0.13224 0.95071 0.0
C283 C 0.56914 0.12399 0.93077 0.0
N284 N 0.56813 0.13043 0.95234 0.0
H285 H 0.53086 0.13685 0.97969 0.0
H286 H 0.59628 0.11945 0.9229 0.0
H287 H 0.55282 0.16357 0.98252 0.0
H288 H 0.67516 0.16295 0.9728 0.0
O289 O 0.59201 0.13267 -0.00239 0.0
O290 O 0.65623 0.13377 -0.00844 0.0
O291 O 0.65166 0.13273 0.94463 0.0
C292 C 0.62765 0.13373 0.00524 0.0
H293 H 0.65852 0.07107 0.95192 0.0
H294 H 0.57717 0.19487 0.98805 0.0
H295 H 0.53754 0.119 0.90108 0.0
H296 H 0.47014 0.13488 0.9594 0.0
Co297 Co 0.60471 0.15667 0.26623 0.0
C298 C 0.58094 0.1922 0.26878 0.0
C299 C 0.6378 0.19021 0.28293 0.0
C300 C 0.62973 0.20698 0.28341 0.0
N301 N 0.60721 0.18098 0.27377 0.0
N302 N 0.59404 0.20824 0.27443 0.0
H303 H 0.55363 0.18862 0.26036 0.0
H304 H 0.66462 0.18509 0.28829 0.0
C305 C 0.63597 0.14386 0.30408 0.0
O306 O 0.60708 0.13286 0.30178 0.0
N307 N 0.60338 0.13211 0.258 0.0
C308 C 0.57366 0.12201 0.24926 0.0
C309 C 0.58699 0.10568 0.24428 0.0
C310 C 0.63481 0.12168 0.25738 0.0
N311 N 0.62545 0.10541 0.24947 0.0
C312 C 0.52121 0.15381 0.27203 0.0
C313 C 0.52064 0.16392 0.31622 0.0
C314 C 0.48546 0.15842 0.30565 0.0
C315 C 0.48582 0.1537 0.28322 0.0
C316 C 0.5555 0.16358 0.30438 0.0
N317 N 0.55596 0.15746 0.28271 0.0
H318 H 0.52044 0.15113 0.25471 0.0
H319 H 0.58198 0.16841 0.31274 0.0
H320 H 0.54459 0.12597 0.24571 0.0
H321 H 0.66394 0.12599 0.26272 0.0
O322 O 0.58323 0.15843 0.2386 0.0
O323 O 0.6469 0.15679 0.24588 0.0
O324 O 0.63821 0.15477 0.29192 0.0
C325 C 0.61951 0.15791 0.23187 0.0
H326 H 0.64898 0.21742 0.28966 0.0
H327 H 0.56984 0.09491 0.23669 0.0
H328 H 0.52133 0.1682 0.33349 0.0
H329 H 0.45885 0.15019 0.27436 0.0
Co330 Co 0.387 0.88404 0.0062 0.0
C331 C 0.411 0.91882 0.00392 0.0
C332 C 0.35238 0.91803 0.01644 0.0
C333 C 0.36137 0.93447 0.01534 0.0
N334 N 0.38354 0.90827 0.00932 0.0
N335 N 0.39824 0.93498 0.0074 0.0
H336 H 0.43933 0.91464 -0.00292 0.0
H337 H 0.32485 0.91353 0.02183 0.0
C338 C 0.34894 0.87576 0.04553 0.0
O339 O 0.37757 0.86506 0.04687 0.0
N340 N 0.38968 0.85957 0.00267 0.0
C341 C 0.42152 0.84942 0.00095 0.0
C342 C 0.40917 0.83294 -0.00209 0.0
C343 C 0.35843 0.84899 0.00029 0.0
N344 N 0.36944 0.83261 -0.00255 0.0
C345 C 0.46965 0.88457 0.01496 0.0
C346 C 0.46533 0.89769 0.05843 0.0
C347 C 0.5026 0.89407 0.04902 0.0
C348 C 0.50429 0.88778 0.02681 0.0
C349 C 0.43138 0.89469 0.0458 0.0
N350 N 0.43359 0.88725 0.02456 0.0
H351 H 0.47209 0.87998 -0.00213 0.0
H352 H 0.40358 0.8988 0.05318 0.0
H353 H 0.4518 0.85337 0.00166 0.0
H354 H 0.32824 0.85329 0.00045 0.0
O355 O 0.41227 0.88282 0.97872 0.0
O356 O 0.34778 0.88161 0.98374 0.0
O357 O 0.34961 0.8848 0.03104 0.0
C358 C 0.37711 0.88156 0.9705 0.0
H359 H 0.34213 0.9452 0.02011 0.0
H360 H 0.42827 0.82207 -0.00362 0.0
H361 H 0.4621 0.90283 0.07541 0.0
H362 H 0.53213 0.88557 0.01841 0.0
Co363 Co 0.39002 0.89712 0.71663 0.0
C364 C 0.41479 0.86293 0.72176 0.0
C365 C 0.35509 0.86329 0.71068 0.0
C366 C 0.36402 0.84721 0.71341 0.0
N367 N 0.38693 0.8731 0.71587 0.0
N368 N 0.40154 0.84697 0.72045 0.0
H369 H 0.44372 0.86726 0.72744 0.0
H370 H 0.32709 0.86757 0.7056 0.0
C371 C 0.35224 0.90201 0.67575 0.0
O372 O 0.38202 0.91155 0.67244 0.0
N373 N 0.39182 0.92154 0.71771 0.0
C374 C 0.41974 0.93104 0.71053 0.0
C375 C 0.40728 0.94749 0.71372 0.0
C376 C 0.36254 0.9326 0.72499 0.0
N377 N 0.37129 0.94856 0.72288 0.0
C378 C 0.47174 0.89819 0.70606 0.0
C379 C 0.4668 0.87825 0.66555 0.0
C380 C 0.5034 0.88482 0.67308 0.0
C381 C 0.50578 0.89473 0.69369 0.0
C382 C 0.43331 0.88231 0.67832 0.0
N383 N 0.43574 0.89288 0.69787 0.0
H384 H 0.47411 0.90564 0.72208 0.0
H385 H 0.40558 0.87663 0.67263 0.0
H386 H 0.44658 0.9266 0.70236 0.0
H387 H 0.33513 0.92897 0.7315 0.0
O388 O 0.41665 0.89982 0.74387 0.0
O389 O 0.35184 0.90052 0.73962 0.0
O390 O 0.35191 0.89482 0.69204 0.0
C391 C 0.38178 0.90106 0.75254 0.0
H392 H 0.34426 0.83653 0.71041 0.0
H393 H 0.42313 0.95772 0.70878 0.0
H394 H 0.46406 0.87018 0.64988 0.0
H395 H 0.5338 0.89964 0.70026 0.0
Co396 Co 0.60517 0.63094 0.46217 0.0
C397 C 0.58444 0.59528 0.46496 0.0
C398 C 0.63917 0.59691 0.44875 0.0
C399 C 0.63313 0.5804 0.45052 0.0
N400 N 0.60806 0.60629 0.45717 0.0
N401 N 0.59859 0.57931 0.4607 0.0
H402 H 0.55849 0.5989 0.47451 0.0
H403 H 0.66572 0.60177 0.44277 0.0
C404 C 0.64264 0.62386 0.41825 0.0
O405 O 0.61408 0.61345 0.41075 0.0
N406 N 0.6034 0.65533 0.46772 0.0
C407 C 0.57182 0.66504 0.47423 0.0
C408 C 0.58297 0.68169 0.47712 0.0
C409 C 0.63344 0.66614 0.46696 0.0
N410 N 0.62174 0.68241 0.47257 0.0
C411 C 0.52513 0.62342 0.44963 0.0
C412 C 0.52356 0.64068 0.41593 0.0
C413 C 0.48903 0.63288 0.42124 0.0
C414 C 0.49021 0.62414 0.43832 0.0
C415 C 0.55798 0.63964 0.42772 0.0
N416 N 0.55889 0.63058 0.4439 0.0
H417 H 0.52422 0.61782 0.46368 0.0
H418 H 0.58357 0.64661 0.42426 0.0
H419 H 0.54279 0.66031 0.47689 0.0
H420 H 0.66317 0.66216 0.46236 0.0
O421 O 0.57912 0.63114 0.48917 0.0
O422 O 0.64398 0.6318 0.48442 0.0
O423 O 0.64268 0.63158 0.43779 0.0
C424 C 0.6143 0.63186 0.49746 0.0
H425 H 0.65368 0.57017 0.44559 0.0
H426 H 0.56407 0.69242 0.48266 0.0
H427 H 0.52364 0.64806 0.40332 0.0
H428 H 0.46415 0.61812 0.44321 0.0
Co429 Co 0.60868 0.64867 0.76059 0.0
C430 C 0.58536 0.68402 0.76104 0.0
C431 C 0.64445 0.68224 0.77248 0.0
C432 C 0.63622 0.6989 0.77228 0.0
N433 N 0.61256 0.67295 0.76545 0.0
N434 N 0.59909 0.70003 0.76503 0.0
H435 H 0.55665 0.68033 0.75437 0.0
H436 H 0.67205 0.67723 0.77702 0.0
C437 C 0.64497 0.63836 0.79896 0.0
O438 O 0.61509 0.62812 0.79947 0.0
N439 N 0.60593 0.62413 0.75523 0.0
C440 C 0.57467 0.61387 0.75004 0.0
C441 C 0.58746 0.5974 0.7462 0.0
C442 C 0.63734 0.61367 0.75396 0.0
N443 N 0.62688 0.59726 0.74872 0.0
C444 C 0.52615 0.64816 0.76929 0.0
C445 C 0.53011 0.65898 0.81326 0.0
C446 C 0.49324 0.65457 0.80379 0.0
C447 C 0.4916 0.64974 0.78134 0.0
C448 C 0.56393 0.65768 0.80043 0.0
N449 N 0.56206 0.65108 0.77892 0.0
H450 H 0.52373 0.64459 0.75205 0.0
H451 H 0.59145 0.66208 0.80792 0.0
H452 H 0.54467 0.61778 0.74856 0.0
H453 H 0.66738 0.61805 0.75647 0.0
O454 O 0.58335 0.64876 0.73351 0.0
O455 O 0.64785 0.64693 0.73809 0.0
O456 O 0.64577 0.64809 0.78523 0.0
C457 C 0.61835 0.64732 0.72507 0.0
H458 H 0.65622 0.70935 0.77705 0.0
H459 H 0.56898 0.58637 0.74193 0.0
H460 H 0.53317 0.66321 0.83045 0.0
H461 H 0.46383 0.64723 0.77297 0.0
Co462 Co 0.39157 0.38045 0.50632 0.0
C463 C 0.41848 0.41496 0.50345 0.0
C464 C 0.35777 0.41443 0.51283 0.0
C465 C 0.36746 0.43067 0.5112 0.0
N466 N 0.38977 0.40462 0.5081 0.0
N467 N 0.40569 0.43107 0.50534 0.0
H468 H 0.44798 0.41073 0.49873 0.0
H469 H 0.32908 0.41001 0.51669 0.0
C470 C 0.35335 0.37423 0.54675 0.0
O471 O 0.37994 0.36266 0.54806 0.0
N472 N 0.39233 0.35601 0.50401 0.0
C473 C 0.42327 0.34534 0.50082 0.0
C474 C 0.40983 0.3291 0.49885 0.0
C475 C 0.36034 0.34591 0.50334 0.0
N476 N 0.37025 0.3294 0.5005 0.0
C477 C 0.47434 0.37928 0.51473 0.0
C478 C 0.47123 0.39384 0.55781 0.0
C479 C 0.50762 0.3882 0.5487 0.0
C480 C 0.50898 0.38117 0.52673 0.0
C481 C 0.43724 0.39167 0.54517 0.0
N482 N 0.43866 0.38346 0.52422 0.0
H483 H 0.47636 0.37432 0.49771 0.0
H484 H 0.4101 0.39699 0.55227 0.0
H485 H 0.45361 0.3487 0.49929 0.0
H486 H 0.33044 0.35061 0.50508 0.0
O487 O 0.41591 0.37793 0.47841 0.0
O488 O 0.35148 0.37788 0.48452 0.0
O489 O 0.35513 0.38278 0.53176 0.0
C490 C 0.38025 0.37699 0.47078 0.0
H491 H 0.3474 0.44127 0.51355 0.0
H492 H 0.42793 0.31787 0.49578 0.0
H493 H 0.46908 0.40013 0.57447 0.0
H494 H 0.53647 0.3769 0.51884 0.0
Co495 Co 0.39208 0.40689 0.22535 0.0
C496 C 0.41761 0.37272 0.23067 0.0
C497 C 0.35904 0.37276 0.21792 0.0
C498 C 0.36817 0.35665 0.22034 0.0
N499 N 0.39004 0.38281 0.22431 0.0
N500 N 0.40499 0.35657 0.22843 0.0
H501 H 0.44586 0.37723 0.23726 0.0
H502 H 0.33145 0.37689 0.21214 0.0
C503 C 0.35613 0.41139 0.18364 0.0
O504 O 0.3848 0.42163 0.18072 0.0
N505 N 0.39269 0.43124 0.2267 0.0
C506 C 0.42268 0.4422 0.23191 0.0
C507 C 0.40871 0.45835 0.23354 0.0
C508 C 0.36065 0.44108 0.22565 0.0
N509 N 0.36968 0.45768 0.22968 0.0
C510 C 0.4748 0.40836 0.21706 0.0
C511 C 0.4735 0.39023 0.1755 0.0
C512 C 0.50968 0.39648 0.18433 0.0
C513 C 0.5099 0.40554 0.20553 0.0
C514 C 0.4389 0.39362 0.18755 0.0
N515 N 0.43951 0.40339 0.20769 0.0
H516 H 0.47636 0.41421 0.2338 0.0
H517 H 0.4119 0.38786 0.18085 0.0
H518 H 0.45249 0.43913 0.23532 0.0
H519 H 0.33107 0.43618 0.22284 0.0
O520 O 0.41601 0.4099 0.25336 0.0
O521 O 0.35167 0.40992 0.24707 0.0
O522 O 0.3561 0.40416 0.19988 0.0
C523 C 0.38025 0.4109 0.26091 0.0
H524 H 0.34898 0.34584 0.21634 0.0
H525 H 0.42601 0.46974 0.23764 0.0
H526 H 0.47191 0.38242 0.15962 0.0
H527 H 0.53692 0.41047 0.21333 0.0
H528 H 0.10579 0.2133 0.47436 0.0
H529 H 0.14815 0.23802 0.47727 0.0
H530 H 0.24616 0.20932 0.4944 0.0
H531 H 0.20356 0.18445 0.4917 0.0
H532 H 0.23838 0.24092 0.52113 0.0
H533 H 0.24282 0.21811 0.44541 0.0
H534 H 0.214 0.20703 0.40981 0.0
H535 H 0.15505 0.25414 0.41071 0.0
H536 H 0.18308 0.26544 0.44646 0.0
H537 H 0.3887 0.29906 0.51011 0.0
H538 H 0.34691 0.27422 0.50643 0.0
H539 H 0.25119 0.30181 0.48472 0.0
H540 H 0.2935 0.32673 0.48774 0.0
H541 H 0.25766 0.27064 0.46013 0.0
H542 H 0.25161 0.29352 0.53536 0.0
H543 H 0.27784 0.30484 0.57151 0.0
H544 H 0.33717 0.25802 0.57211 0.0
H545 H 0.31177 0.2465 0.53581 0.0
C546 C 0.13629 0.21224 0.47886 0.0
C547 C 0.15126 0.19691 0.48289 0.0
C548 C 0.16057 0.22636 0.48034 0.0
C549 C 0.20041 0.22551 0.48592 0.0
C550 C 0.21552 0.21025 0.49003 0.0
C551 C 0.19125 0.19603 0.48835 0.0
C552 C 0.22591 0.24068 0.48776 0.0
C553 C 0.24315 0.24727 0.50771 0.0
C554 C 0.23111 0.24926 0.47041 0.0
C555 C 0.21477 0.24258 0.44872 0.0
C556 C 0.22351 0.22607 0.43809 0.0
C557 C 0.20734 0.21976 0.41787 0.0
C558 C 0.1826 0.22985 0.40805 0.0
C559 C 0.17417 0.24633 0.41836 0.0
C560 C 0.19023 0.2527 0.43859 0.0
C561 C 0.35889 0.29988 0.50439 0.0
C562 C 0.34461 0.31495 0.49915 0.0
C563 C 0.33484 0.28566 0.5025 0.0
C564 C 0.29573 0.28613 0.49548 0.0
C565 C 0.28125 0.30113 0.49021 0.0
C566 C 0.30537 0.31543 0.49213 0.0
C567 C 0.27029 0.27089 0.49353 0.0
C568 C 0.25301 0.26429 0.47356 0.0
C569 C 0.26485 0.26234 0.5109 0.0
C570 C 0.28009 0.2692 0.53277 0.0
C571 C 0.27051 0.28568 0.54313 0.0
C572 C 0.28519 0.29213 0.56366 0.0
C573 C 0.30924 0.28217 0.57408 0.0
C574 C 0.31858 0.26573 0.56401 0.0
C575 C 0.30403 0.25923 0.54346 0.0
H576 H 0.32056 0.28718 0.58997 0.0
H577 H 0.16994 0.22493 0.39245 0.0
H578 H 0.97635 0.93553 0.49706 0.0
H579 H 0.00826 0.95998 0.48709 0.0
H580 H 0.89964 0.98791 0.49832 0.0
H581 H 0.86705 0.96336 0.50742 0.0
H582 H 0.93397 0.99387 0.46282 0.0
H583 H 0.97586 0.99373 0.53533 0.0
H584 H 0.00519 0.98152 0.56455 0.0
H585 H 0.11492 0.97443 0.53023 0.0
H586 H 0.08606 0.9864 0.50066 0.0
H587 H 0.01235 0.07627 0.46847 0.0
H588 H 0.98022 0.05114 0.47646 0.0
H589 H 0.0899 0.02392 0.46583 0.0
H590 H 0.12258 0.04911 0.45869 0.0
H591 H 0.05536 0.01733 0.50056 0.0
H592 H 0.01364 0.01796 0.42825 0.0
H593 H 0.98418 0.03024 0.39914 0.0
H594 H 0.87405 0.03655 0.43313 0.0
H595 H 0.90302 0.02449 0.46259 0.0
C596 C 0.95902 0.94678 0.49725 0.0
C597 C 0.91901 0.94737 0.50328 0.0
C598 C 0.9775 0.96086 0.49171 0.0
C599 C 0.95658 0.97594 0.49226 0.0
C600 C 0.91653 0.97648 0.49786 0.0
C601 C 0.89799 0.96241 0.50332 0.0
C602 C 0.97639 0.99122 0.48723 0.0
C603 C 0.96025 0.99911 0.47126 0.0
C604 C 0.0112 0.99791 0.49787 0.0
C605 C 0.02868 0.99081 0.51569 0.0
C606 C 0.00616 0.98946 0.53394 0.0
C607 C 0.02271 0.9826 0.55058 0.0
C608 C 0.06186 0.97716 0.54922 0.0
C609 C 0.08458 0.97862 0.53124 0.0
C610 C 0.06815 0.98546 0.51455 0.0
C611 C 0.0298 0.06501 0.46796 0.0
C612 C 0.0702 0.06484 0.46283 0.0
C613 C 0.01122 0.05054 0.47232 0.0
C614 C 0.03245 0.03549 0.47149 0.0
C615 C 0.07276 0.03531 0.4665 0.0
C616 C 0.09139 0.04976 0.46221 0.0
C617 C 0.01294 0.02002 0.47615 0.0
C618 C 0.02913 1.01208 0.49207 0.0
C619 C 0.97817 1.01331 0.46547 0.0
C620 C 0.96062 0.02047 0.44772 0.0
C621 C 0.98322 0.02207 0.42959 0.0
C622 C 0.9666 0.02898 0.41301 0.0
C623 C 0.9273 0.03421 0.41431 0.0
C624 C 0.9045 0.0325 0.43216 0.0
C625 C 0.921 0.02562 0.44879 0.0
H626 H 0.91448 0.03956 0.40146 0.0
H627 H 0.07462 0.97185 0.56211 0.0
H628 H 0.21119 0.09582 0.7481 0.0
H629 H 0.25245 0.07072 0.74498 0.0
H630 H 0.15092 0.0414 0.75582 0.0
H631 H 0.10983 0.06651 0.75982 0.0
H632 H 0.21136 0.03186 0.77637 0.0
H633 H 0.18807 0.03923 0.70437 0.0
H634 H 0.18559 0.0544 0.67412 0.0
H635 H 0.31023 0.06324 0.67941 0.0
H636 H 0.31341 0.04805 0.70974 0.0
H637 H 0.29165 0.9505 0.72959 0.0
H638 H 0.25144 0.97604 0.73742 0.0
H639 H 0.35522 1.00643 0.73584 0.0
H640 H 0.39575 0.98117 0.72869 0.0
H641 H 0.29369 1.01527 0.711 0.0
H642 H 0.31372 1.00435 0.78277 0.0
H643 H 0.31104 0.98699 0.81086 0.0
H644 H 0.18551 0.98274 0.80369 0.0
H645 H 0.18751 0.99985 0.77532 0.0
C646 C 0.19761 0.08411 0.75006 0.0
C647 C 0.15688 0.08326 0.75394 0.0
C648 C 0.22125 0.06968 0.74808 0.0
C649 C 0.20475 0.05403 0.74978 0.0
C650 C 0.16441 0.05326 0.75431 0.0
C651 C 0.14079 0.06766 0.75635 0.0
C652 C 0.22921 0.0384 0.74632 0.0
C653 C 0.22904 0.02816 0.76197 0.0
C654 C 0.25255 0.03352 0.72762 0.0
C655 C 0.2509 0.04268 0.70945 0.0
C656 C 0.2149 0.04451 0.69917 0.0
C657 C 0.21338 0.05309 0.68199 0.0
C658 C 0.24769 0.05989 0.67492 0.0
C659 C 0.28365 0.05801 0.68494 0.0
C660 C 0.28536 0.04937 0.70208 0.0
C661 C 0.30614 0.96257 0.73119 0.0
C662 C 0.34718 0.9636 0.72831 0.0
C663 C 0.28299 0.97721 0.73562 0.0
C664 C 0.30031 0.99318 0.73722 0.0
C665 C 0.34116 0.99426 0.73455 0.0
C666 C 0.36431 0.9797 0.73032 0.0
C667 C 0.27597 1.00879 0.74107 0.0
C668 C 0.27614 0.01901 0.72545 0.0
C669 C 0.25201 1.01341 0.75957 0.0
C670 C 0.25082 1.00325 0.77677 0.0
C671 C 0.28559 0.9996 0.78706 0.0
C672 C 0.28418 0.98982 0.80305 0.0
C673 C 0.24814 0.98373 0.80901 0.0
C674 C 0.21341 0.98744 0.79904 0.0
C675 C 0.21466 0.99719 0.78301 0.0
H676 H 0.24707 0.97616 0.82137 0.0
H677 H 0.24643 0.06656 0.66164 0.0
H678 H 0.97942 0.34219 0.72405 0.0
H679 H 0.01292 0.31725 0.73163 0.0
H680 H 0.90075 0.2947 0.74101 0.0
H681 H 0.8671 0.31988 0.73447 0.0
H682 H 0.95018 0.2888 0.7705 0.0
H683 H 0.95579 0.28307 0.69376 0.0
H684 H 0.9705 0.29195 0.65941 0.0
H685 H 0.09326 0.29608 0.67579 0.0
H686 H 0.07921 0.28744 0.71038 0.0
H687 H 0.02184 0.20498 0.76404 0.0
H688 H 0.98702 0.22985 0.75691 0.0
H689 H 0.09813 0.25408 0.74998 0.0
H690 H 0.13304 0.22914 0.75641 0.0
H691 H 0.04843 0.25881 0.71902 0.0
H692 H 0.04204 0.26453 0.79601 0.0
H693 H 0.0267 0.25541 0.83013 0.0
H694 H 0.9044 0.25087 0.81281 0.0
H695 H 0.9191 0.25975 0.77844 0.0
C696 C 0.96178 0.33205 0.72796 0.0
C697 C 0.92037 0.33314 0.72849 0.0
C698 C 0.98104 0.31765 0.73207 0.0
C699 C 0.95942 0.30389 0.73655 0.0
C700 C 0.91817 0.30506 0.73748 0.0
C701 C 0.89889 0.31948 0.7335 0.0
C702 C 0.9797 0.28828 0.74024 0.0
C703 C 0.97126 0.28213 0.75908 0.0
C704 C 0.00781 0.27966 0.72559 0.0
C705 C 0.01638 0.28476 0.70475 0.0
C706 C 0.98589 0.28599 0.6901 0.0
C707 C 0.99411 0.29096 0.67058 0.0
C708 C 0.03277 0.29462 0.66545 0.0
C709 C 0.06332 0.29326 0.6798 0.0
C710 C 0.05525 0.28831 0.69936 0.0
C711 C 0.03891 0.21553 0.76084 0.0
C712 C 0.08036 0.215 0.76093 0.0
C713 C 0.01892 0.22983 0.75695 0.0
C714 C 0.0399 0.24398 0.75315 0.0
C715 C 0.08122 0.24339 0.75295 0.0
C716 C 0.1012 0.22913 0.75684 0.0
C717 C 0.01898 0.25938 0.74929 0.0
C718 C 0.0273 0.26548 0.73042 0.0
C719 C 0.99065 0.2679 0.76386 0.0
C720 C 0.98173 0.26264 0.78456 0.0
C721 C 0.01192 0.26146 0.79941 0.0
C722 C 0.00333 0.25636 0.8188 0.0
C723 C 0.96462 0.25252 0.82361 0.0
C724 C 0.93438 0.25382 0.80905 0.0
C725 C 0.94282 0.25891 0.78962 0.0
H726 H 0.95803 0.24856 0.83863 0.0
H727 H 0.03908 0.29847 0.65033 0.0
H728 H 0.78351 0.8292 0.48268 0.0
H729 H 0.74091 0.80444 0.47974 0.0
H730 H 0.84098 0.77429 0.49066 0.0
H731 H 0.88349 0.79887 0.49371 0.0
H732 H 0.79791 0.75817 0.458 0.0
H733 H 0.77298 0.78754 0.5301 0.0
H734 H 0.75508 0.81241 0.55738 0.0
H735 H 0.64107 0.81371 0.52846 0.0
H736 H 0.65854 0.78896 0.50077 0.0
H737 H 0.70071 0.68552 0.47944 0.0
H738 H 0.7402 0.71112 0.48234 0.0
H739 H 0.63632 0.73921 0.47193 0.0
H740 H 0.59668 0.71368 0.46902 0.0
H741 H 0.67957 0.75688 0.50369 0.0
H742 H 0.70528 0.72744 0.4314 0.0
H743 H 0.72499 0.70329 0.40339 0.0
H744 H 0.83836 0.70237 0.43314 0.0
H745 H 0.81935 0.72646 0.46127 0.0
C746 C 0.7964 0.81734 0.48463 0.0
C747 C 0.83708 0.81608 0.48833 0.0
C748 C 0.772 0.80317 0.48292 0.0
C749 C 0.78768 0.78747 0.48507 0.0
C750 C 0.82819 0.78621 0.4888 0.0
C751 C 0.85254 0.80032 0.49046 0.0
C752 C 0.76221 0.77227 0.4833 0.0
C753 C 0.77229 0.75784 0.46817 0.0
C754 C 0.72826 0.77192 0.49623 0.0
C755 C 0.71721 0.78649 0.51323 0.0
C756 C 0.74416 0.79317 0.52949 0.0
C757 C 0.73409 0.80725 0.54503 0.0
C758 C 0.697 0.81467 0.54462 0.0
C759 C 0.66982 0.80796 0.52873 0.0
C760 C 0.67977 0.7939 0.51312 0.0
C761 C 0.68628 0.69708 0.47754 0.0
C762 C 0.64542 0.69746 0.47394 0.0
C763 C 0.70892 0.71176 0.47926 0.0
C764 C 0.69136 0.72712 0.47716 0.0
C765 C 0.65058 0.72756 0.47369 0.0
C766 C 0.62791 0.71291 0.47206 0.0
C767 C 0.7155 0.7427 0.47848 0.0
C768 C 0.70514 0.75722 0.49349 0.0
C769 C 0.74931 0.74315 0.46548 0.0
C770 C 0.7608 0.72868 0.44851 0.0
C771 C 0.73436 0.72203 0.432 0.0
C772 C 0.74545 0.70838 0.41606 0.0
C773 C 0.78295 0.70132 0.41643 0.0
C774 C 0.80942 0.70788 0.43276 0.0
C775 C 0.79853 0.72155 0.44869 0.0
H776 H 0.79149 0.69078 0.40407 0.0
H777 H 0.6893 0.82559 0.55665 0.0
H778 H 0.89171 0.98944 0.2246 0.0
H779 H 0.85039 1.01436 0.22783 0.0
H780 H 0.74762 0.98447 0.23434 0.0
H781 H 0.78885 0.95938 0.23165 0.0
H782 H 0.73562 1.00703 0.20674 0.0
H783 H 0.78578 1.00838 0.27793 0.0
H784 H 0.83718 1.00779 0.30526 0.0
H785 H 0.89021 0.05207 0.28939 0.0
H786 H 0.83942 0.05279 0.26172 0.0
H787 H 0.60312 0.07296 0.2477 0.0
H788 H 0.64508 0.04808 0.24256 0.0
H789 H 0.74748 0.07926 0.24054 0.0
H790 H 0.70547 0.10433 0.24553 0.0
H791 H 0.76059 0.05615 0.26519 0.0
H792 H 0.70976 0.05549 0.19475 0.0
H793 H 0.65894 0.0561 0.16711 0.0
H794 H 0.60803 1.01071 0.18086 0.0
H795 H 0.65815 1.00996 0.20884 0.0
C796 C 0.86045 0.98805 0.22696 0.0
C797 C 0.84399 0.97224 0.22818 0.0
C798 C 0.83677 1.00239 0.2287 0.0
C799 C 0.79596 1.00136 0.23162 0.0
C800 C 0.77909 0.98558 0.23215 0.0
C801 C 0.80283 0.9712 0.23056 0.0
C802 C 0.77114 1.01681 0.23441 0.0
C803 C 0.74069 0.01769 0.21969 0.0
C804 C 0.77849 0.03091 0.25095 0.0
C805 C 0.80903 0.03053 0.2676 0.0
C806 C 0.8086 0.01791 0.28013 0.0
C807 C 0.83759 0.01757 0.29571 0.0
C808 C 0.86701 0.02986 0.29902 0.0
C809 C 0.86744 0.04254 0.28679 0.0
C810 C 0.83854 0.04293 0.27116 0.0
C811 C 0.63448 0.07459 0.24591 0.0
C812 C 0.65073 0.09073 0.24684 0.0
C813 C 0.65851 0.06029 0.24299 0.0
C814 C 0.69944 0.06172 0.24081 0.0
C815 C 0.71596 0.07782 0.24211 0.0
C816 C 0.69187 0.09217 0.24504 0.0
C817 C 0.72487 0.0464 0.23755 0.0
C818 C 0.75548 0.04553 0.2522 0.0
C819 C 0.71774 0.03233 0.22088 0.0
C820 C 0.6875 0.03277 0.20407 0.0
C821 C 0.68752 0.04572 0.19203 0.0
C822 C 0.65887 0.04608 0.17627 0.0
C823 C 0.63022 0.03349 0.17228 0.0
C824 C 0.63021 0.02048 0.184 0.0
C825 C 0.65874 0.02007 0.1998 0.0
H826 H 0.60809 0.03378 0.16007 0.0
H827 H 0.88942 0.02958 0.31109 0.0
H828 H 0.97655 0.8525 0.23227 0.0
H829 H 0.00959 0.82795 0.24132 0.0
H830 H 0.89862 0.80167 0.23806 0.0
H831 H 0.86512 0.82638 0.23011 0.0
H832 H 0.93894 0.79544 0.27096 0.0
H833 H 0.96789 0.79369 0.19615 0.0
H834 H 0.99132 0.80579 0.16545 0.0
H835 H 0.10609 0.81328 0.19412 0.0
H836 H 0.08323 0.80131 0.22504 0.0
H837 H 0.01365 0.71216 0.26239 0.0
H838 H 0.9812 0.73748 0.25505 0.0
H839 H 0.09251 0.76359 0.26101 0.0
H840 H 0.12533 0.73822 0.26763 0.0
H841 H 0.05269 0.77012 0.22716 0.0
H842 H 0.0232 0.77058 0.30159 0.0
H843 H 0.99837 0.75878 0.33223 0.0
H844 H 0.88306 0.75359 0.30396 0.0
H845 H 0.90734 0.76517 0.273 0.0
C846 C 0.95899 0.84162 0.2337 0.0
C847 C 0.91801 0.84152 0.23021 0.0
C848 C 0.97806 0.82746 0.23868 0.0
C849 C 0.95677 0.81277 0.24002 0.0
C850 C 0.91583 0.81277 0.23702 0.0
C851 C 0.89671 0.82693 0.23221 0.0
C852 C 0.97703 0.79733 0.24428 0.0
C853 C 0.96351 0.7898 0.2612 0.0
C854 C 0.00958 0.79006 0.23186 0.0
C855 C 0.02378 0.79673 0.21297 0.0
C856 C 0.99811 0.79795 0.19591 0.0
C857 C 0.01128 0.80477 0.17847 0.0
C858 C 0.05013 0.81033 0.17784 0.0
C859 C 0.076 0.80896 0.19459 0.0
C860 C 0.06298 0.80212 0.21206 0.0
C861 C 0.03134 0.72323 0.26199 0.0
C862 C 0.07219 0.72308 0.26574 0.0
C863 C 0.01264 0.73778 0.25798 0.0
C864 C 0.03428 0.75256 0.25773 0.0
C865 C 0.07509 0.75239 0.2612 0.0
C866 C 0.0938 0.73787 0.2652 0.0
C867 C 0.01452 0.7682 0.2538 0.0
C868 C 0.02814 0.77576 0.23693 0.0
C869 C 0.98191 0.77543 0.2662 0.0
C870 C 0.96718 0.7686 0.28489 0.0
C871 C 0.99261 0.76682 0.30184 0.0
C872 C 0.97863 0.76018 0.31927 0.0
C873 C 0.93919 0.7554 0.32001 0.0
C874 C 0.91362 0.75729 0.30335 0.0
C875 C 0.92746 0.7639 0.28587 0.0
H876 H 0.92842 0.75026 0.33352 0.0
H877 H 0.06014 0.8157 0.16437 0.0
H878 H 0.38975 0.80029 0.98013 0.0
H879 H 0.34901 0.77524 0.9772 0.0
H880 H 0.25086 0.80585 0.00464 0.0
H881 H 0.29213 0.83099 0.00865 0.0
H882 H 0.25474 0.77936 0.02216 0.0
H883 H 0.2595 0.78813 0.94982 0.0
H884 H 0.28849 0.79215 0.91545 0.0
H885 H 0.34412 0.74368 0.90769 0.0
H886 H 0.3162 0.7395 0.94225 0.0
H887 H 0.10654 0.71764 -0.0084 0.0
H888 H 0.14842 0.74219 -0.00542 0.0
H889 H 0.2496 0.71033 0.97741 0.0
H890 H 0.20809 0.68541 0.97435 0.0
H891 H 0.24395 0.73703 0.95462 0.0
H892 H 0.24011 0.72915 0.028 0.0
H893 H 0.20741 0.72487 0.06134 0.0
H894 H 0.14534 0.77163 0.06529 0.0
H895 H 0.17759 0.77617 0.03189 0.0
C896 C 0.35963 0.80179 0.98573 0.0
C897 C 0.34448 0.81782 -0.00527 0.0
C898 C 0.33611 0.78739 0.98376 0.0
C899 C 0.29658 0.78859 -0.00958 0.0
C900 C 0.28122 0.80455 -0.0007 0.0
C901 C 0.30484 0.81899 0.00142 0.0
C902 C 0.27174 0.77316 0.98876 0.0
C903 C 0.25204 0.77025 0.00727 0.0
C904 C 0.26871 0.76098 0.96947 0.0
C905 C 0.28621 0.76362 0.94885 0.0
C906 C 0.27835 0.77842 0.94095 0.0
C907 C 0.29453 0.78071 0.9214 0.0
C908 C 0.31828 0.76822 0.90944 0.0
C909 C 0.32586 0.75338 0.91701 0.0
C910 C 0.3099 0.75105 0.9366 0.0
C911 C 0.13762 0.71559 0.98858 0.0
C912 C 0.15347 0.6992 0.98282 0.0
C913 C 0.16163 0.7298 -0.00969 0.0
C914 C 0.20216 0.72811 0.98634 0.0
C915 C 0.2183 0.71191 0.98048 0.0
C916 C 0.19432 0.69762 0.97879 0.0
C917 C 0.22738 0.74333 0.98793 0.0
C918 C 0.24697 0.74617 0.96944 0.0
C919 C 0.23006 0.7555 0.00712 0.0
C920 C 0.211 0.75292 0.02734 0.0
C921 C 0.21929 0.73846 0.0359 0.0
C922 C 0.20086 0.73599 0.05481 0.0
C923 C 0.17413 0.74791 0.06535 0.0
C924 C 0.16599 0.76239 0.05708 0.0
C925 C 0.18442 0.76494 0.03819 0.0
H926 H 0.15981 0.74594 0.07996 0.0
H927 H 0.33069 0.77 0.89428 0.0
H928 H 0.89043 0.46812 0.03238 0.0
H929 H 0.92171 0.49304 0.02333 0.0
H930 H 0.98964 0.46149 0.97386 0.0
H931 H 0.95797 0.43654 0.98248 0.0
H932 H 0.03505 0.485 -0.00446 0.0
H933 H 0.90818 0.48482 0.96207 0.0
H934 H 0.83567 0.48398 0.96059 0.0
H935 H 0.82991 0.5298 0.0076 0.0
H936 H 0.90249 0.53074 0.00957 0.0
H937 H 0.10208 0.54945 0.94235 0.0
H938 H 0.06885 0.5247 0.95075 0.0
H939 H 0.00453 0.55635 0.00175 0.0
H940 H 0.03775 0.58116 -0.00651 0.0
H941 H 0.95696 0.53291 0.97922 0.0
H942 H 0.08392 0.53308 0.01257 0.0
H943 H 0.15649 0.53378 0.01396 0.0
H944 H 0.16184 0.48796 0.96696 0.0
H945 H 0.08926 0.4871 0.96507 0.0
C946 C 0.91159 0.46645 0.01937 0.0
C947 C 0.92141 0.45021 0.00816 0.0
C948 C 0.92955 0.48076 0.01421 0.0
C949 C 0.95762 0.47923 -0.00237 0.0
C950 C 0.96796 0.46305 0.98665 0.0
C951 C 0.94989 0.44873 -0.00829 0.0
C952 C 0.9766 0.49445 -0.00809 0.0
C953 C 0.01791 0.49536 -0.00833 0.0
C954 C 0.9544 0.5082 0.98735 0.0
C955 C 0.91077 0.50774 0.98612 0.0
C956 C 0.89146 0.49463 0.97221 0.0
C957 C 0.85034 0.49415 0.97126 0.0
C958 C 0.82818 0.50681 0.98404 0.0
C959 C 0.84711 0.51999 -0.00226 0.0
C960 C 0.88825 0.5205 -0.00124 0.0
C961 C 0.08107 0.55117 0.95544 0.0
C962 C 0.07289 0.56737 0.9673 0.0
C963 C 0.06201 0.53698 0.96023 0.0
C964 C 0.03452 0.53859 0.9771 0.0
C965 C 0.02561 0.55475 0.98866 0.0
C966 C 0.0446 0.56897 0.98386 0.0
C967 C 0.01535 0.52342 0.98279 0.0
C968 C 0.97404 0.52253 0.98306 0.0
C969 C 0.03753 0.50967 0.98736 0.0
C970 C 0.08117 0.51012 0.98853 0.0
C971 C 0.10058 0.52322 0.00241 0.0
C972 C 0.14171 0.52363 0.00331 0.0
C973 C 0.16377 0.51095 -0.00949 0.0
C974 C 0.14472 0.49779 0.97684 0.0
C975 C 0.10359 0.49732 0.97586 0.0
H976 H 0.19561 0.51129 -0.00877 0.0
H977 H 0.79634 0.50643 0.98329 0.0
H978 H 0.19383 0.60125 0.26728 0.0
H979 H 0.2347 0.57588 0.26356 0.0
H980 H 0.15985 0.55095 0.21232 0.0
H981 H 0.11936 0.57622 0.21571 0.0
H982 H 0.17487 0.5307 0.24089 0.0
H983 H 0.24981 0.56464 0.20113 0.0
H984 H 0.28394 0.59034 0.19542 0.0
H985 H 0.36286 0.58705 0.24744 0.0
H986 H 0.32882 0.56143 0.25365 0.0
H987 H 0.30221 0.45951 0.20704 0.0
H988 H 0.25993 0.48433 0.2083 0.0
H989 H 0.33534 0.51285 0.25671 0.0
H990 H 0.37758 0.48831 0.25531 0.0
H991 H 0.31892 0.53108 0.228 0.0
H992 H 0.24353 0.49692 0.26775 0.0
H993 H 0.20854 0.47144 0.27356 0.0
H994 H 0.1293 0.47532 0.22191 0.0
H995 H 0.16435 0.50061 0.21547 0.0
C996 C 0.18637 0.59046 0.25503 0.0
C997 C 0.1531 0.59083 0.24188 0.0
C998 C 0.20969 0.57592 0.25296 0.0
C999 C 0.2004 0.56146 0.23763 0.0
C1000 C 0.16747 0.56186 0.22438 0.0
C1001 C 0.14424 0.57636 0.22639 0.0
C1002 C 0.22467 0.54585 0.2355 0.0
C1003 C 0.2063 0.53071 0.23778 0.0
C1004 C 0.26576 0.5459 0.2318 0.0
C1005 C 0.28655 0.5612 0.22797 0.0
C1006 C 0.27428 0.56946 0.21145 0.0
C1007 C 0.29363 0.584 0.2081 0.0
C1008 C 0.3255 0.59034 0.22109 0.0
C1009 C 0.33815 0.58212 0.23741 0.0
C1010 C 0.31886 0.56758 0.24083 0.0
C1011 C 0.3095 0.47104 0.21807 0.0
C1012 C 0.34343 0.47194 0.23098 0.0
C1013 C 0.28532 0.48524 0.21879 0.0
C1014 C 0.29426 0.50053 0.23269 0.0
C1015 C 0.32788 0.50131 0.24573 0.0
C1016 C 0.35211 0.48723 0.24488 0.0
C1017 C 0.26926 0.51587 0.23362 0.0
C1018 C 0.28749 0.53099 0.23107 0.0
C1019 C 0.228 0.51578 0.23708 0.0
C1020 C 0.20691 0.50055 0.24095 0.0
C1021 C 0.2189 0.49225 0.25748 0.0
C1022 C 0.19902 0.47784 0.2609 0.0
C1023 C 0.16681 0.47173 0.24806 0.0
C1024 C 0.15429 0.48005 0.23183 0.0
C1025 C 0.17418 0.49441 0.22827 0.0
H1026 H 0.15146 0.46057 0.25073 0.0
H1027 H 0.34044 0.60161 0.21849 0.0
H1028 H 0.71317 0.18622 -0.01007 0.0
H1029 H 0.75472 0.21128 -0.0072 0.0
H1030 H 0.65505 0.23984 0.97739 0.0
H1031 H 0.6137 0.21481 0.97392 0.0
H1032 H 0.71887 0.24723 0.95648 0.0
H1033 H 0.68712 0.24408 0.02942 0.0
H1034 H 0.68184 0.23045 0.061 0.0
H1035 H 0.80706 0.22285 0.06029 0.0
H1036 H 0.81304 0.23639 0.0286 0.0
H1037 H 0.79574 0.32973 -0.00815 0.0
H1038 H 0.75554 0.30422 0.98846 0.0
H1039 H 0.85752 0.27609 0.00174 0.0
H1040 H 0.89763 0.30157 0.00554 0.0
H1041 H 0.79326 0.2683 0.02358 0.0
H1042 H 0.82444 0.27261 0.9508 0.0
H1043 H 0.82828 0.28651 0.91939 0.0
H1044 H 0.70247 0.29205 0.91987 0.0
H1045 H 0.69794 0.27838 0.95149 0.0
C1046 C 0.70013 0.19778 0.98698 0.0
C1047 C 0.65989 0.19848 0.98191 0.0
C1048 C 0.72388 0.21216 0.98881 0.0
C1049 C 0.70793 0.22755 0.98562 0.0
C1050 C 0.66805 0.22816 0.98004 0.0
C1051 C 0.64431 0.21384 0.97827 0.0
C1052 C 0.73255 0.24307 0.98827 0.0
C1053 C 0.73481 0.25192 0.97124 0.0
C1054 C 0.75387 0.24911 0.00739 0.0
C1055 C 0.75048 0.24109 0.02653 0.0
C1056 C 0.7135 0.23941 0.03592 0.0
C1057 C 0.71038 0.23172 0.05386 0.0
C1058 C 0.74407 0.22571 0.06259 0.0
C1059 C 0.78098 0.22748 0.05348 0.0
C1060 C 0.78427 0.2352 0.03556 0.0
C1061 C 0.80953 0.31817 -0.00575 0.0
C1062 C 0.85002 0.31772 -0.00116 0.0
C1063 C 0.78658 0.30354 -0.00787 0.0
C1064 C 0.80358 0.28815 -0.00541 0.0
C1065 C 0.84375 0.28777 -0.00033 0.0
C1066 C 0.86673 0.30234 0.00167 0.0
C1067 C 0.77963 0.27244 -0.00823 0.0
C1068 C 0.77746 0.26357 0.00879 0.0
C1069 C 0.75826 0.26641 0.97265 0.0
C1070 C 0.7609 0.27463 0.95365 0.0
C1071 C 0.79763 0.27692 0.94432 0.0
C1072 C 0.79992 0.28474 0.92646 0.0
C1073 C 0.76565 0.29021 0.91768 0.0
C1074 C 0.729 0.28783 0.92671 0.0
C1075 C 0.72655 0.28004 0.94459 0.0
H1076 H 0.76749 0.29625 0.90385 0.0
H1077 H 0.74157 0.21972 0.07645 0.0
H1078 H 0.69715 0.59461 0.76833 0.0
H1079 H 0.73914 0.56963 0.76476 0.0
H1080 H 0.65627 0.54168 0.72017 0.0
H1081 H 0.61419 0.56656 0.72372 0.0
H1082 H 0.67931 0.52324 0.74835 0.0
H1083 H 0.74493 0.55631 0.70325 0.0
H1084 H 0.77625 0.58182 0.69487 0.0
H1085 H 0.86306 0.58049 0.7438 0.0
H1086 H 0.83196 0.55508 0.75266 0.0
H1087 H 0.80225 0.45258 0.70927 0.0
H1088 H 0.76051 0.47761 0.71234 0.0
H1089 H 0.84367 0.50588 0.75644 0.0
H1090 H 0.88545 0.48099 0.75339 0.0
H1091 H 0.82049 0.52418 0.7284 0.0
H1092 H 0.7554 0.49142 0.77374 0.0
H1093 H 0.72419 0.46609 0.78272 0.0
H1094 H 0.63654 0.46702 0.7341 0.0
H1095 H 0.66757 0.49224 0.72464 0.0
C1096 C 0.68807 0.58321 0.75758 0.0
C1097 C 0.65226 0.58265 0.74629 0.0
C1098 C 0.71211 0.5689 0.75556 0.0
C1099 C 0.70114 0.55375 0.74201 0.0
C1100 C 0.66539 0.55317 0.73077 0.0
C1101 C 0.64128 0.56743 0.73285 0.0
C1102 C 0.72656 0.53845 0.73972 0.0
C1103 C 0.71005 0.5234 0.74369 0.0
C1104 C 0.76696 0.53869 0.73416 0.0
C1105 C 0.7859 0.55388 0.72874 0.0
C1106 C 0.77055 0.56152 0.71232 0.0
C1107 C 0.78828 0.57595 0.70747 0.0
C1108 C 0.82157 0.58279 0.71883 0.0
C1109 C 0.83726 0.57519 0.73503 0.0
C1110 C 0.81961 0.56076 0.73995 0.0
C1111 C 0.81151 0.46408 0.71975 0.0
C1112 C 0.8473 0.46471 0.73107 0.0
C1113 C 0.7876 0.47841 0.72149 0.0
C1114 C 0.79868 0.49366 0.7348 0.0
C1115 C 0.83447 0.49433 0.74601 0.0
C1116 C 0.85844 0.48005 0.7442 0.0
C1117 C 0.77323 0.50895 0.737 0.0
C1118 C 0.78974 0.52401 0.73302 0.0
C1119 C 0.73285 0.50873 0.74262 0.0
C1120 C 0.71404 0.49362 0.74834 0.0
C1121 C 0.72964 0.48615 0.76486 0.0
C1122 C 0.71196 0.47183 0.77005 0.0
C1123 C 0.67846 0.46493 0.75895 0.0
C1124 C 0.66252 0.47237 0.74267 0.0
C1125 C 0.68012 0.48668 0.73739 0.0
H1126 H 0.66481 0.45384 0.76299 0.0
H1127 H 0.83525 0.59397 0.71506 0.0
H1128 H 0.52387 0.07732 0.96909 0.0
H1129 H 0.48905 0.05248 0.97617 0.0
H1130 H 0.59981 0.02672 0.97818 0.0
H1131 H 0.63481 0.05149 0.97125 0.0
H1132 H 0.54681 1.0062 0.95545 0.0
H1133 H 0.54955 0.04314 0.02437 0.0
H1134 H 0.53868 0.06975 0.05004 0.0
H1135 H 0.41443 0.06629 0.0374 0.0
H1136 H 0.42464 0.03976 0.01141 0.0
H1137 H 0.47753 0.93902 0.00404 0.0
H1138 H 0.51215 0.96378 -0.00343 0.0
H1139 H 0.4012 0.9892 -0.00631 0.0
H1140 H 0.36634 0.9645 0.00088 0.0
H1141 H 0.45417 1.00988 0.01682 0.0
H1142 H 0.45137 0.97293 0.94798 0.0
H1143 H 0.46217 0.94631 0.92233 0.0
H1144 H 0.58645 0.94976 0.93486 0.0
H1145 H 0.57632 0.97631 0.96083 0.0
C1146 C 0.54091 0.06645 0.97122 0.0
C1147 C 0.58228 0.06652 0.96963 0.0
C1148 C 0.52091 0.05221 0.97524 0.0
C1149 C 0.54178 0.03773 0.97793 0.0
C1150 C 0.58299 0.03769 0.97611 0.0
C1151 C 0.603 0.0519 0.97207 0.0
C1152 C 0.52077 0.02263 0.98264 0.0
C1153 C 0.52696 1.00698 0.96904 0.0
C1154 C 0.49416 0.02365 9e-05 0.0
C1155 C 0.48792 0.03955 0.01578 0.0
C1156 C 0.51995 0.04812 0.02694 0.0
C1157 C 0.5139 0.06317 0.04157 0.0
C1158 C 0.4759 0.06973 0.0453 0.0
C1159 C 0.44386 0.06121 0.03446 0.0
C1160 C 0.44975 0.04615 0.0198 0.0
C1161 C 0.46037 0.94978 0.00162 0.0
C1162 C 0.41898 0.94964 0.00306 0.0
C1163 C 0.48028 0.96399 -0.00261 0.0
C1164 C 0.4593 0.97835 -0.00561 0.0
C1165 C 0.41808 0.97832 -0.00399 0.0
C1166 C 0.39815 0.96413 0.00021 0.0
C1167 C 0.48024 0.99345 0.98965 0.0
C1168 C 0.47403 1.0091 0.00323 0.0
C1169 C 0.50683 0.99243 0.97219 0.0
C1170 C 0.51304 0.97652 0.95651 0.0
C1171 C 0.48097 0.96795 0.94539 0.0
C1172 C 0.48697 0.95288 0.93078 0.0
C1173 C 0.52496 0.94632 0.92701 0.0
C1174 C 0.55704 0.95485 0.93782 0.0
C1175 C 0.55119 0.96991 0.95247 0.0
H1176 H 0.52955 0.93466 0.91569 0.0
H1177 H 0.47128 0.08138 0.05663 0.0
H1178 H 0.37258 0.32762 0.23646 0.0
H1179 H 0.40652 0.30348 0.24561 0.0
H1180 H 0.51813 0.32826 0.24237 0.0
H1181 H 0.48421 0.35265 0.23299 0.0
H1182 H 0.51976 0.29526 0.22114 0.0
H1183 H 0.48391 0.32452 0.29149 0.0
H1184 H 0.44008 0.3395 0.31989 0.0
H1185 H 0.36424 0.29632 0.31252 0.0
H1186 H 0.40791 0.281 0.28421 0.0
H1187 H 0.62992 0.23701 0.26847 0.0
H1188 H 0.59856 0.26264 0.26158 0.0
H1189 H 0.48434 0.23976 0.26385 0.0
H1190 H 0.51563 0.21408 0.27115 0.0
H1191 H 0.48566 0.27247 0.28631 0.0
H1192 H 0.52438 0.24297 0.21631 0.0
H1193 H 0.57038 0.22823 0.1889 0.0
H1194 H 0.64204 0.27266 0.19561 0.0
H1195 H 0.59675 0.2876 0.22331 0.0
C1196 C 0.40432 0.32806 0.23761 0.0
C1197 C 0.42547 0.34226 0.23401 0.0
C1198 C 0.42373 0.31421 0.24306 0.0
C1199 C 0.46488 0.31408 0.24493 0.0
C1200 C 0.4863 0.3281 0.24115 0.0
C1201 C 0.46681 0.3421 0.23589 0.0
C1202 C 0.48527 0.29904 0.25021 0.0
C1203 C 0.51282 0.29044 0.23558 0.0
C1204 C 0.47557 0.2925 0.26878 0.0
C1205 C 0.44901 0.30166 0.28564 0.0
C1206 C 0.45778 0.31825 0.29586 0.0
C1207 C 0.43308 0.32677 0.31201 0.0
C1208 C 0.39934 0.31889 0.31796 0.0
C1209 C 0.39039 0.30241 0.30789 0.0
C1210 C 0.41521 0.29377 0.29187 0.0
C1211 C 0.59812 0.23743 0.26771 0.0
C1212 C 0.57533 0.22343 0.2704 0.0
C1213 C 0.58021 0.25208 0.26358 0.0
C1214 C 0.53907 0.25311 0.26199 0.0
C1215 C 0.51614 0.23926 0.26494 0.0
C1216 C 0.53408 0.22454 0.26896 0.0
C1217 C 0.52012 0.26864 0.25721 0.0
C1218 C 0.49275 0.27731 0.27191 0.0
C1219 C 0.53015 0.27529 0.23874 0.0
C1220 C 0.55738 0.26635 0.22205 0.0
C1221 C 0.55013 0.24955 0.21208 0.0
C1222 C 0.57604 0.24117 0.19646 0.0
C1223 C 0.60917 0.24949 0.19056 0.0
C1224 C 0.61639 0.26622 0.20022 0.0
C1225 C 0.5906 0.27466 0.21587 0.0
H1226 H 0.62919 0.24298 0.17846 0.0
H1227 H 0.38014 0.32555 0.33038 0.0
H1228 H 0.36958 0.81944 0.73269 0.0
H1229 H 0.40423 0.7951 0.74105 0.0
H1230 H 0.5155 0.81768 0.7299 0.0
H1231 H 0.48082 0.84195 0.72077 0.0
H1232 H 0.51466 0.78509 0.71135 0.0
H1233 H 0.48312 0.81663 0.78101 0.0
H1234 H 0.44007 0.83218 0.80939 0.0
H1235 H 0.37122 0.78759 0.80889 0.0
H1236 H 0.41347 0.77182 0.78025 0.0
H1237 H 0.6329 0.72857 0.75672 0.0
H1238 H 0.59969 0.75394 0.75041 0.0
H1239 H 0.48698 0.73123 0.75803 0.0
H1240 H 0.52016 0.70584 0.76491 0.0
H1241 H 0.48973 0.76427 0.77901 0.0
H1242 H 0.52125 0.73309 0.70859 0.0
H1243 H 0.56526 0.71774 0.68055 0.0
H1244 H 0.6355 0.76222 0.68313 0.0
H1245 H 0.59225 0.77777 0.71144 0.0
C1246 C 0.4014 0.81925 0.73182 0.0
C1247 C 0.42231 0.83273 0.72597 0.0
C1248 C 0.42125 0.80534 0.73687 0.0
C1249 C 0.46257 0.80459 0.73638 0.0
C1250 C 0.48362 0.81798 0.73049 0.0
C1251 C 0.46374 0.83193 0.72543 0.0
C1252 C 0.48359 0.78965 0.74158 0.0
C1253 C 0.50964 0.78071 0.7263 0.0
C1254 C 0.4765 0.78367 0.7609 0.0
C1255 C 0.45125 0.79308 0.7783 0.0
C1256 C 0.45862 0.81016 0.78683 0.0
C1257 C 0.43439 0.81902 0.80298 0.0
C1258 C 0.40284 0.81089 0.81087 0.0
C1259 C 0.39561 0.79388 0.80272 0.0
C1260 C 0.41972 0.78497 0.78654 0.0
C1261 C 0.60107 0.72897 0.7573 0.0
C1262 C 0.57927 0.71508 0.76133 0.0
C1263 C 0.58208 0.74348 0.7535 0.0
C1264 C 0.54079 0.74447 0.75352 0.0
C1265 C 0.51886 0.73075 0.75786 0.0
C1266 C 0.53788 0.71618 0.76161 0.0
C1267 C 0.52063 0.75973 0.74875 0.0
C1268 C 0.49476 0.76871 0.7641 0.0
C1269 C 0.52801 0.7658 0.72955 0.0
C1270 C 0.55372 0.75655 0.71229 0.0
C1271 C 0.54624 0.73956 0.70328 0.0
C1272 C 0.57103 0.73083 0.68733 0.0
C1273 C 0.60322 0.73898 0.68011 0.0
C1274 C 0.61059 0.75591 0.68877 0.0
C1275 C 0.58593 0.76469 0.70476 0.0
H1276 H 0.6224 0.73219 0.66777 0.0
H1277 H 0.38403 0.81778 0.82332 0.0
H1278 H 0.54367 0.57733 0.49182 0.0
H1279 H 0.51352 0.55189 0.50001 0.0
H1280 H 0.58506 0.52144 0.45121 0.0
H1281 H 0.61387 0.54677 0.44222 0.0
H1282 H 0.51524 0.50967 0.44749 0.0
H1283 H 0.6016 0.52518 0.5071 0.0
H1284 H 0.63254 0.5423 0.53915 0.0
H1285 H 0.52124 0.54684 0.57198 0.0
H1286 H 0.48942 0.53002 0.53998 0.0
H1287 H 0.47165 0.43153 0.48077 0.0
H1288 H 0.50618 0.45634 0.47322 0.0
H1289 H 0.42394 0.48864 0.51348 0.0
H1290 H 0.38945 0.46401 0.52119 0.0
H1291 H 0.50127 0.49858 0.52153 0.0
H1292 H 0.41514 0.48691 0.4581 0.0
H1293 H 0.38655 0.46885 0.42595 0.0
H1294 H 0.50257 0.45502 0.40184 0.0
H1295 H 0.53179 0.47347 0.43353 0.0
C1296 C 0.55289 0.56527 0.48268 0.0
C1297 C 0.58139 0.56427 0.46628 0.0
C1298 C 0.5359 0.55064 0.48761 0.0
C1299 C 0.54722 0.53461 0.47643 0.0
C1300 C 0.57575 0.53359 0.46015 0.0
C1301 C 0.59255 0.54817 0.45514 0.0
C1302 C 0.52833 0.51893 0.481 0.0
C1303 C 0.51285 0.50722 0.46371 0.0
C1304 C 0.52439 0.51564 0.50214 0.0
C1305 C 0.54304 0.52645 0.52104 0.0
C1306 C 0.5836 0.53001 0.52104 0.0
C1307 C 0.60133 0.53959 0.53924 0.0
C1308 C 0.5789 0.54557 0.55762 0.0
C1309 C 0.53861 0.54212 0.55777 0.0
C1310 C 0.52069 0.5326 0.53959 0.0
C1311 C 0.46091 0.44388 0.4881 0.0
C1312 C 0.42731 0.44565 0.50141 0.0
C1313 C 0.48055 0.45809 0.48361 0.0
C1314 C 0.46738 0.4744 0.49257 0.0
C1315 C 0.43451 0.47621 0.50625 0.0
C1316 C 0.41463 0.46205 0.51053 0.0
C1317 C 0.4882 0.48961 0.4881 0.0
C1318 C 0.50395 0.50116 0.50538 0.0
C1319 C 0.4929 0.49269 0.46701 0.0
C1320 C 0.47556 0.48142 0.44819 0.0
C1321 C 0.43449 0.47997 0.44594 0.0
C1322 C 0.41821 0.46975 0.42777 0.0
C1323 C 0.44272 0.46068 0.41195 0.0
C1324 C 0.48361 0.46202 0.41413 0.0
C1325 C 0.50005 0.47246 0.43209 0.0
H1326 H 0.43001 0.45265 0.398 0.0
H1327 H 0.59271 0.55296 0.57171 0.0
H1328 H 0.17029 0.1729 0.4226 0.0
H1329 H 0.22905 0.17579 0.40134 0.0
H1330 H 0.23489 0.1217 0.38149 0.0
H1331 H 0.17776 0.11881 0.4042 0.0
H1332 H 0.3034 0.13184 0.38984 0.0
H1333 H 0.20196 0.15139 0.34783 0.0
H1334 H 0.14535 0.16872 0.34088 0.0
H1335 H 0.21454 0.21359 0.35902 0.0
H1336 H 0.2713 0.19657 0.36651 0.0
H1337 H 0.43439 0.13213 0.3018 0.0
H1338 H 0.37398 0.13025 0.32242 0.0
H1339 H 0.39267 0.18079 0.35747 0.0
H1340 H 0.4535 0.18269 0.33701 0.0
H1341 H 0.31269 0.1729 0.34091 0.0
H1342 H 0.41407 0.1521 0.3825 0.0
H1343 H 0.47022 0.13392 0.38762 0.0
H1344 H 0.399 0.08993 0.36724 0.0
H1345 H 0.34256 0.10786 0.36168 0.0
C1346 C 0.18392 0.16166 0.41346 0.0
C1347 C 0.16941 0.14563 0.41476 0.0
C1348 C 0.2174 0.16331 0.40121 0.0
C1349 C 0.23607 0.149 0.3893 0.0
C1350 C 0.2211 0.13296 0.39044 0.0
C1351 C 0.18837 0.13129 0.40329 0.0
C1352 C 0.27211 0.15068 0.37643 0.0
C1353 C 0.30498 0.14064 0.37889 0.0
C1354 C 0.2749 0.16244 0.36245 0.0
C1355 C 0.24079 0.1727 0.3579 0.0
C1356 C 0.20501 0.16496 0.35049 0.0
C1357 C 0.17288 0.17473 0.34646 0.0
C1358 C 0.17629 0.19225 0.34958 0.0
C1359 C 0.21188 0.20003 0.35667 0.0
C1360 C 0.24404 0.19032 0.36081 0.0
C1361 C 0.42547 0.14287 0.31382 0.0
C1362 C 0.44855 0.15755 0.31787 0.0
C1363 C 0.39112 0.14175 0.32561 0.0
C1364 C 0.37906 0.15536 0.34147 0.0
C1365 C 0.4016 0.17017 0.34528 0.0
C1366 C 0.43634 0.17119 0.33371 0.0
C1367 C 0.34318 0.15397 0.35428 0.0
C1368 C 0.31062 0.16408 0.35183 0.0
C1369 C 0.3404 0.14211 0.36798 0.0
C1370 C 0.37422 0.13132 0.37146 0.0
C1371 C 0.41048 0.13855 0.37892 0.0
C1372 C 0.44234 0.12829 0.38195 0.0
C1373 C 0.43821 0.11078 0.3777 0.0
C1374 C 0.40217 0.1035 0.37049 0.0
C1375 C 0.37023 0.1137 0.36742 0.0
H1376 H 0.46291 0.10286 0.38006 0.0
H1377 H 0.1514 0.19979 0.34646 0.0
H1378 H 0.68504 0.16887 0.32326 0.0
H1379 H 0.74251 0.16616 0.34558 0.0
H1380 H 0.71875 0.11306 0.34014 0.0
H1381 H 0.6601 0.11594 0.31873 0.0
H1382 H 0.74425 0.12426 0.37817 0.0
H1383 H 0.78956 0.1287 0.30831 0.0
H1384 H 0.79546 0.14086 0.27556 0.0
H1385 H 0.84481 0.18605 0.31265 0.0
H1386 H 0.83866 0.17425 0.34571 0.0
H1387 H 0.94889 0.10475 0.39878 0.0
H1388 H 0.88729 0.10665 0.3789 0.0
H1389 H 0.87846 0.15944 0.40697 0.0
H1390 H 0.93924 0.15748 0.42732 0.0
H1391 H 0.8709 0.14716 0.35706 0.0
H1392 H 0.82187 0.14049 0.4276 0.0
H1393 H 0.81843 0.12561 0.45815 0.0
H1394 H 0.77966 0.0807 0.41579 0.0
H1395 H 0.78346 0.09526 0.38491 0.0
C1396 C 0.69186 0.15667 0.32707 0.0
C1397 C 0.6683 0.1426 0.31922 0.0
C1398 C 0.72485 0.1551 0.33969 0.0
C1399 C 0.73562 0.13931 0.34409 0.0
C1400 C 0.71119 0.12536 0.33691 0.0
C1401 C 0.67767 0.12702 0.32468 0.0
C1402 C 0.77291 0.13726 0.35561 0.0
C1403 C 0.77194 0.12912 0.37335 0.0
C1404 C 0.80926 0.14354 0.34938 0.0
C1405 C 0.8133 0.15065 0.32952 0.0
C1406 C 0.80143 0.14127 0.30951 0.0
C1407 C 0.80484 0.1481 0.29089 0.0
C1408 C 0.82041 0.16424 0.29203 0.0
C1409 C 0.8327 0.17356 0.3118 0.0
C1410 C 0.82929 0.16681 0.33048 0.0
C1411 C 0.93368 0.11672 0.40065 0.0
C1412 C 0.94851 0.13097 0.41453 0.0
C1413 C 0.89863 0.11778 0.38939 0.0
C1414 C 0.87854 0.13318 0.39158 0.0
C1415 C 0.89366 0.14747 0.40516 0.0
C1416 C 0.92816 0.14633 0.41677 0.0
C1417 C 0.84177 0.13446 0.3796 0.0
C1418 C 0.84303 0.14235 0.36175 0.0
C1419 C 0.806 0.12759 0.38536 0.0
C1420 C 0.80341 0.1189 0.40393 0.0
C1421 C 0.81301 0.12739 0.42477 0.0
C1422 C 0.81089 0.11903 0.44215 0.0
C1423 C 0.79895 0.1022 0.4389 0.0
C1424 C 0.78897 0.09372 0.41827 0.0
C1425 C 0.79107 0.10203 0.40084 0.0
H1426 H 0.79734 0.09575 0.45238 0.0
H1427 H 0.82303 0.1695 0.2776 0.0
H1428 H 0.22174 0.15518 0.79888 0.0
H1429 H 0.28144 0.15227 0.81924 0.0
H1430 H 0.2177 0.12258 0.85782 0.0
H1431 H 0.15803 0.125 0.83704 0.0
H1432 H 0.30279 0.16142 0.85839 0.0
H1433 H 0.27699 0.09256 0.87136 0.0
H1434 H 0.24531 0.0665 0.85233 0.0
H1435 H 0.25835 0.08318 0.79222 0.0
H1436 H 0.29063 0.10918 0.81081 0.0
H1437 H 0.43413 0.1484 0.9376 0.0
H1438 H 0.37509 0.14934 0.91644 0.0
H1439 H 0.42119 0.10984 0.86711 0.0
H1440 H 0.47872 0.10747 0.88928 0.0
H1441 H 0.34826 0.10517 0.86874 0.0
H1442 H 0.42455 0.15348 0.86393 0.0
H1443 H 0.46312 0.17925 0.87678 0.0
H1444 H 0.36135 0.20303 0.90968 0.0
H1445 H 0.32228 0.17731 0.89727 0.0
C1446 C 0.2203 0.14812 0.81179 0.0
C1447 C 0.18518 0.14024 0.81629 0.0
C1448 C 0.2545 0.14647 0.82342 0.0
C1449 C 0.25424 0.13699 0.83984 0.0
C1450 C 0.21883 0.12964 0.8449 0.0
C1451 C 0.18467 0.13114 0.83311 0.0
C1452 C 0.29107 0.13477 0.85159 0.0
C1453 C 0.31272 0.14912 0.86066 0.0
C1454 C 0.30484 0.11867 0.85389 0.0
C1455 C 0.28586 0.10292 0.84255 0.0
C1456 C 0.27324 0.09063 0.85407 0.0
C1457 C 0.25516 0.07587 0.84336 0.0
C1458 C 0.24969 0.07321 0.82109 0.0
C1459 C 0.26244 0.08527 0.80947 0.0
C1460 C 0.2806 0.10004 0.8201 0.0
C1461 C 0.43157 0.13954 0.92255 0.0
C1462 C 0.46176 0.12789 0.91526 0.0
C1463 C 0.39787 0.14035 0.91021 0.0
C1464 C 0.39404 0.13001 0.88985 0.0
C1465 C 0.42354 0.11808 0.88267 0.0
C1466 C 0.45685 0.11693 0.8953 0.0
C1467 C 0.35959 0.13189 0.87599 0.0
C1468 C 0.33838 0.11748 0.86648 0.0
C1469 C 0.34727 0.14788 0.87236 0.0
C1470 C 0.37059 0.16341 0.87981 0.0
C1471 C 0.41046 0.16417 0.87402 0.0
C1472 C 0.4324 0.17877 0.88122 0.0
C1473 C 0.41472 0.19275 0.89408 0.0
C1474 C 0.37502 0.19218 0.89974 0.0
C1475 C 0.35295 0.1776 0.89261 0.0
H1476 H 0.43175 0.20405 0.89964 0.0
H1477 H 0.23567 0.06178 0.81282 0.0
H1478 H 0.99056 0.14373 0.84385 0.0
H1479 H 0.93018 0.14239 0.86476 0.0
H1480 H 0.86734 0.16949 0.82287 0.0
H1481 H 0.92756 0.1706 0.80162 0.0
H1482 H 0.85418 0.17978 0.87142 0.0
H1483 H 0.85232 0.1322 0.8117 0.0
H1484 H 0.88151 0.10713 0.78877 0.0
H1485 H 0.89384 0.08349 0.84371 0.0
H1486 H 0.8653 0.10857 0.86703 0.0
H1487 H 0.65987 0.16282 0.90132 0.0
H1488 H 0.71845 0.16574 0.8799 0.0
H1489 H 0.77744 0.12754 0.90738 0.0
H1490 H 0.71879 0.12431 0.92857 0.0
H1491 H 0.79273 0.1234 0.86569 0.0
H1492 H 0.79608 0.16886 0.92566 0.0
H1493 H 0.77056 0.19349 0.95095 0.0
H1494 H 0.75987 0.22088 0.89938 0.0
H1495 H 0.7848 0.19626 0.87366 0.0
C1496 C 0.96399 0.14961 0.83932 0.0
C1497 C 0.96354 0.15722 0.82113 0.0
C1498 C 0.92961 0.1488 0.8512 0.0
C1499 C 0.89447 0.15581 0.84526 0.0
C1500 C 0.89429 0.16405 0.82767 0.0
C1501 C 0.92852 0.1646 0.81552 0.0
C1502 C 0.85743 0.15356 0.85664 0.0
C1503 C 0.84029 0.16754 0.86997 0.0
C1504 C 0.84027 0.13747 0.85517 0.0
C1505 C 0.85708 0.12233 0.84114 0.0
C1506 C 0.86161 0.12172 0.81892 0.0
C1507 C 0.87796 0.1075 0.80585 0.0
C1508 C 0.88962 0.09374 0.81479 0.0
C1509 C 0.88485 0.09417 0.83681 0.0
C1510 C 0.86856 0.10838 0.84996 0.0
C1511 C 0.68515 0.15491 0.90266 0.0
C1512 C 0.68473 0.14339 0.91674 0.0
C1513 C 0.71869 0.15667 0.89049 0.0
C1514 C 0.75253 0.14706 0.89232 0.0
C1515 C 0.7517 0.13512 0.90578 0.0
C1516 C 0.71814 0.13331 0.9179 0.0
C1517 C 0.78906 0.14964 0.88052 0.0
C1518 C 0.80629 0.13571 0.86712 0.0
C1519 C 0.80666 0.16574 0.88227 0.0
C1520 C 0.7919 0.18064 0.89767 0.0
C1521 C 0.78798 0.18008 0.91966 0.0
C1522 C 0.77365 0.19404 0.93408 0.0
C1523 C 0.76345 0.20872 0.92677 0.0
C1524 C 0.7677 0.20948 0.90501 0.0
C1525 C 0.78195 0.19552 0.8905 0.0
H1526 H 0.75238 0.21951 0.93796 0.0
H1527 H 0.90227 0.08274 0.80464 0.0
H1528 H 0.53236 0.85444 0.65259 0.0
H1529 H 0.59204 0.84938 0.63019 0.0
H1530 H 0.61326 0.90288 0.64031 0.0
H1531 H 0.55431 0.90797 0.66299 0.0
H1532 H 0.61543 0.88363 0.59508 0.0
H1533 H 0.66602 0.88369 0.66727 0.0
H1534 H 0.6681 0.87328 0.70143 0.0
H1535 H 0.69469 0.82348 0.66708 0.0
H1536 H 0.69219 0.83356 0.63266 0.0
H1537 H 0.80375 0.89674 0.55915 0.0
H1538 H 0.74523 0.89664 0.58151 0.0
H1539 H 0.761 0.84353 0.58049 0.0
H1540 H 0.8206 0.84369 0.55862 0.0
H1541 H 0.73719 0.85863 0.61904 0.0
H1542 H 0.69275 0.85709 0.54788 0.0
H1543 H 0.68915 0.86537 0.51241 0.0
H1544 H 0.64763 0.91446 0.54212 0.0
H1545 H 0.65152 0.90655 0.57784 0.0
C1546 C 0.54985 0.86507 0.64997 0.0
C1547 C 0.53898 0.88158 0.65947 0.0
C1548 C 0.58383 0.86218 0.63729 0.0
C1549 C 0.60687 0.87578 0.6337 0.0
C1550 C 0.59575 0.89226 0.64296 0.0
C1551 C 0.56229 0.89513 0.65593 0.0
C1552 C 0.64255 0.87299 0.62015 0.0
C1553 C 0.64219 0.87828 0.60033 0.0
C1554 C 0.67672 0.86535 0.6267 0.0
C1555 C 0.67842 0.85933 0.64739 0.0
C1556 C 0.67191 0.87049 0.66698 0.0
C1557 C 0.67326 0.86466 0.6864 0.0
C1558 C 0.68139 0.84772 0.68642 0.0
C1559 C 0.68832 0.83659 0.66703 0.0
C1560 C 0.68696 0.84236 0.64757 0.0
C1561 C 0.79495 0.88507 0.56384 0.0
C1562 C 0.81657 0.87021 0.55708 0.0
C1563 C 0.76139 0.885 0.57652 0.0
C1564 C 0.7482 0.86998 0.58225 0.0
C1565 C 0.77054 0.85523 0.57617 0.0
C1566 C 0.80458 0.85535 0.56372 0.0
C1567 C 0.71061 0.86978 0.59415 0.0
C1568 C 0.71042 0.86383 0.6136 0.0
C1569 C 0.67554 0.87648 0.58703 0.0
C1570 C 0.67268 0.88126 0.56556 0.0
C1571 C 0.68306 0.86969 0.54687 0.0
C1572 C 0.68095 0.87431 0.52672 0.0
C1573 C 0.66823 0.89044 0.52502 0.0
C1574 C 0.65749 0.90197 0.54347 0.0
C1575 C 0.65959 0.89741 0.56367 0.0
H1576 H 0.66664 0.894 0.5094 0.0
H1577 H 0.68243 0.84322 0.70147 0.0
H1578 H 0.34681 0.91106 0.63629 0.0
H1579 H 0.28987 0.90784 0.61221 0.0
H1580 H 0.22447 0.88484 0.65752 0.0
H1581 H 0.28146 0.88752 0.68128 0.0
H1582 H 0.21017 0.86865 0.61908 0.0
H1583 H 0.21174 0.92673 0.6535 0.0
H1584 H 0.24032 0.95506 0.66476 0.0
H1585 H 0.25572 0.95919 0.59863 0.0
H1586 H 0.22773 0.93077 0.58697 0.0
H1587 H 0.02323 0.90978 0.57963 0.0
H1588 H 0.08358 0.91187 0.60071 0.0
H1589 H 0.13261 0.8698 0.55627 0.0
H1590 H 0.07121 0.86678 0.536 0.0
H1591 H 0.15575 0.91847 0.59389 0.0
H1592 H 0.19402 0.84746 0.58169 0.0
H1593 H 0.16015 0.81997 0.57495 0.0
H1594 H 0.05516 0.84328 0.6047 0.0
H1595 H 0.08857 0.87085 0.61186 0.0
C1596 C 0.32035 0.90525 0.64106 0.0
C1597 C 0.31858 0.89961 0.66072 0.0
C1598 C 0.28779 0.90347 0.62732 0.0
C1599 C 0.25271 0.8963 0.63319 0.0
C1600 C 0.25121 0.89039 0.65263 0.0
C1601 C 0.28382 0.89198 0.66623 0.0
C1602 C 0.21721 0.89518 0.61935 0.0
C1603 C 0.19836 0.87954 0.6135 0.0
C1604 C 0.20134 0.90943 0.61241 0.0
C1605 C 0.21803 0.92655 0.61936 0.0
C1606 C 0.22149 0.93363 0.64136 0.0
C1607 C 0.23754 0.94971 0.64782 0.0
C1608 C 0.24992 0.9589 0.63242 0.0
C1609 C 0.24618 0.95204 0.61053 0.0
C1610 C 0.2302 0.93595 0.60399 0.0
C1611 C 0.0465 0.90075 0.57451 0.0
C1612 C 0.04197 0.88794 0.55624 0.0
C1613 C 0.08129 0.90213 0.58643 0.0
C1614 C 0.11249 0.89086 0.58027 0.0
C1615 C 0.10867 0.87845 0.56161 0.0
C1616 C 0.07364 0.87688 0.54986 0.0
C1617 C 0.14863 0.89195 0.59364 0.0
C1618 C 0.1677 0.90756 0.59933 0.0
C1619 C 0.16392 0.87779 0.60109 0.0
C1620 C 0.14368 0.86124 0.59708 0.0
C1621 C 0.16375 0.8467 0.58685 0.0
C1622 C 0.14463 0.83111 0.58295 0.0
C1623 C 0.10549 0.82989 0.58932 0.0
C1624 C 0.08543 0.84425 0.59969 0.0
C1625 C 0.10443 0.85987 0.60366 0.0
H1626 H 0.09073 0.81781 0.58627 0.0
H1627 H 0.26233 0.97135 0.63745 0.0
H1628 H 0.84177 0.9249 0.14371 0.0
H1629 H 0.78332 0.92227 0.12064 0.0
H1630 H 0.72439 0.89441 0.16322 0.0
H1631 H 0.78271 0.89648 0.18577 0.0
H1632 H 0.70975 0.88011 0.12488 0.0
H1633 H 0.70436 0.9366 0.16322 0.0
H1634 H 0.72802 0.96546 0.17695 0.0
H1635 H 0.7389 0.97404 0.11231 0.0
H1636 H 0.71584 0.94513 0.09817 0.0
H1637 H 0.51755 0.91836 0.0851 0.0
H1638 H 0.57659 0.92167 0.1073 0.0
H1639 H 0.63211 0.88091 0.06354 0.0
H1640 H 0.57206 0.8763 0.0426 0.0
H1641 H 0.64749 0.92993 0.10344 0.0
H1642 H 0.69502 0.85948 0.08768 0.0
H1643 H 0.66432 0.83133 0.07991 0.0
H1644 H 0.55699 0.8519 0.10993 0.0
H1645 H 0.58721 0.88011 0.11812 0.0
C1646 C 0.81641 0.91814 0.14805 0.0
C1647 C 0.81694 0.91087 0.16653 0.0
C1648 C 0.78293 0.91673 0.13494 0.0
C1649 C 0.74925 0.90829 0.14031 0.0
C1650 C 0.75 0.90092 0.15866 0.0
C1651 C 0.78346 0.90214 0.17157 0.0
C1652 C 0.71312 0.90697 0.1269 0.0
C1653 C 0.69622 0.89101 0.12016 0.0
C1654 C 0.69476 0.92124 0.12122 0.0
C1655 C 0.70878 0.93863 0.12963 0.0
C1656 C 0.71212 0.94459 0.15192 0.0
C1657 C 0.72536 0.96096 0.15979 0.0
C1658 C 0.73504 0.97156 0.14551 0.0
C1659 C 0.73144 0.96581 0.12335 0.0
C1660 C 0.71827 0.94943 0.1154 0.0
C1661 C 0.54189 0.90981 0.08039 0.0
C1662 C 0.53945 0.89689 0.06207 0.0
C1663 C 0.57601 0.91193 0.09297 0.0
C1664 C 0.60871 0.90137 0.08735 0.0
C1665 C 0.60701 0.88897 0.06858 0.0
C1666 C 0.57263 0.88654 0.05635 0.0
C1667 C 0.64424 0.90303 0.10133 0.0
C1668 C 0.66109 0.91903 0.10811 0.0
C1669 C 0.66157 0.8889 0.10795 0.0
C1670 C 0.64327 0.87193 0.1033 0.0
C1671 C 0.66492 0.85797 0.09269 0.0
C1672 C 0.64759 0.84201 0.0882 0.0
C1673 C 0.60869 0.83984 0.09436 0.0
C1674 C 0.58708 0.85361 0.1051 0.0
C1675 C 0.60427 0.86959 0.10965 0.0
H1676 H 0.59532 0.82747 0.09085 0.0
H1677 H 0.74524 0.98424 0.15163 0.0
H1678 H 0.02501 0.87053 0.14784 0.0
H1679 H 0.08562 0.86695 0.12687 0.0
H1680 H 0.13517 0.91063 0.16803 0.0
H1681 H 0.07358 0.9152 0.18782 0.0
H1682 H 0.15237 0.9127 0.13052 0.0
H1683 H 0.16265 0.86774 0.16922 0.0
H1684 H 0.14496 0.84207 0.1828 0.0
H1685 H 0.13926 0.81406 0.11811 0.0
H1686 H 0.15627 0.8396 0.10411 0.0
H1687 H 0.34555 0.86537 0.08424 0.0
H1688 H 0.29081 0.86899 0.10993 0.0
H1689 H 0.22272 0.89332 0.067 0.0
H1690 H 0.27768 0.89036 0.04179 0.0
H1691 H 0.22002 0.85773 0.10879 0.0
H1692 H 0.16171 0.92217 0.09343 0.0
H1693 H 0.18808 0.94817 0.08375 0.0
H1694 H 0.3009 0.93855 0.10954 0.0
H1695 H 0.27508 0.91263 0.11966 0.0
C1696 C 0.04852 0.87954 0.1523 0.0
C1697 C 0.04405 0.89321 0.1696 0.0
C1698 C 0.08358 0.87728 0.14049 0.0
C1699 C 0.11539 0.88836 0.14601 0.0
C1700 C 0.11119 0.90186 0.16342 0.0
C1701 C 0.07594 0.90434 0.17494 0.0
C1702 C 0.15228 0.88646 0.13304 0.0
C1703 C 0.16716 0.90066 0.12589 0.0
C1704 C 0.17228 0.87086 0.12724 0.0
C1705 C 0.16048 0.85564 0.13561 0.0
C1706 C 0.15717 0.85616 0.15788 0.0
C1707 C 0.14736 0.84161 0.16565 0.0
C1708 C 0.14109 0.82644 0.15132 0.0
C1709 C 0.1442 0.82581 0.12918 0.0
C1710 C 0.15391 0.84032 0.12132 0.0
C1711 C 0.31896 0.87157 0.08036 0.0
C1712 C 0.31604 0.87772 0.0611 0.0
C1713 C 0.28766 0.87359 0.09502 0.0
C1714 C 0.25282 0.88167 0.09059 0.0
C1715 C 0.24962 0.88745 0.07109 0.0
C1716 C 0.28105 0.88568 0.05663 0.0
C1717 C 0.21951 0.88388 0.10612 0.0
C1718 C 0.20526 0.86976 0.11363 0.0
C1719 C 0.20086 0.89966 0.11288 0.0
C1720 C 0.21651 0.91537 0.10712 0.0
C1721 C 0.19209 0.92564 0.09713 0.0
C1722 C 0.20695 0.94036 0.09155 0.0
C1723 C 0.24617 0.94498 0.09597 0.0
C1724 C 0.27057 0.93493 0.10606 0.0
C1725 C 0.25584 0.92021 0.1117 0.0
H1726 H 0.25763 0.95637 0.09161 0.0
H1727 H 0.134 0.81515 0.15734 0.0
H1728 H 0.21575 0.63017 0.93347 0.0
H1729 H 0.27561 0.63377 0.91372 0.0
H1730 H 0.21136 0.66305 0.87482 0.0
H1731 H 0.15133 0.66004 0.89524 0.0
H1732 H 0.29633 0.62393 0.87545 0.0
H1733 H 0.27284 0.69159 0.85769 0.0
H1734 H 0.24341 0.71874 0.87481 0.0
H1735 H 0.25363 0.70495 0.93679 0.0
H1736 H 0.28358 0.67784 0.92014 0.0
H1737 H 0.42885 0.63388 0.7954 0.0
H1738 H 0.36959 0.63383 0.81667 0.0
H1739 H 0.4164 0.67407 0.86467 0.0
H1740 H 0.47438 0.67547 0.84232 0.0
H1741 H 0.3431 0.6791 0.86194 0.0
H1742 H 0.41826 0.63113 0.87008 0.0
H1743 H 0.45651 0.60503 0.85866 0.0
H1744 H 0.35497 0.5808 0.82623 0.0
H1745 H 0.31624 0.60684 0.83722 0.0
C1746 C 0.21421 0.63733 0.92066 0.0
C1747 C 0.17875 0.64479 0.91587 0.0
C1748 C 0.24856 0.6394 0.90938 0.0
C1749 C 0.2482 0.64883 0.89292 0.0
C1750 C 0.2126 0.65602 0.88777 0.0
C1751 C 0.17823 0.65415 0.89929 0.0
C1752 C 0.28494 0.65063 0.88082 0.0
C1753 C 0.3065 0.63602 0.87254 0.0
C1754 C 0.2989 0.66644 0.87745 0.0
C1755 C 0.28001 0.68257 0.8876 0.0
C1756 C 0.26878 0.69434 0.87498 0.0
C1757 C 0.25204 0.70974 0.88461 0.0
C1758 C 0.2465 0.71354 0.90687 0.0
C1759 C 0.25772 0.70196 0.91955 0.0
C1760 C 0.27451 0.68655 0.91001 0.0
C1761 C 0.42642 0.64307 0.81018 0.0
C1762 C 0.45682 0.65469 0.81702 0.0
C1763 C 0.3926 0.64279 0.82258 0.0
C1764 C 0.38887 0.65364 0.84257 0.0
C1765 C 0.4187 0.66547 0.84937 0.0
C1766 C 0.45221 0.66607 0.83667 0.0
C1767 C 0.35409 0.65238 0.85643 0.0
C1768 C 0.33287 0.66705 0.86493 0.0
C1769 C 0.34133 0.63672 0.86089 0.0
C1770 C 0.36445 0.62099 0.85433 0.0
C1771 C 0.40416 0.62027 0.8604 0.0
C1772 C 0.42592 0.60548 0.85402 0.0
C1773 C 0.4082 0.59128 0.84169 0.0
C1774 C 0.36866 0.59182 0.83577 0.0
C1775 C 0.34678 0.60658 0.84208 0.0
H1776 H 0.4251 0.57984 0.83676 0.0
H1777 H 0.23363 0.72548 0.9143 0.0
H1778 H 0.64972 0.62287 0.83373 0.0
H1779 H 0.70745 0.62096 0.85632 0.0
H1780 H 0.77443 0.65082 0.81939 0.0
H1781 H 0.71696 0.65292 0.79685 0.0
H1782 H 0.81214 0.62084 0.82493 0.0
H1783 H 0.74532 0.66861 0.86721 0.0
H1784 H 0.68872 0.68342 0.88668 0.0
H1785 H 0.68607 0.64757 0.92877 0.0
H1786 H 0.74233 0.63239 0.90933 0.0
H1787 H 0.98242 0.64027 0.88841 0.0
H1788 H 0.92225 0.64099 0.86749 0.0
H1789 H 0.85801 0.61788 0.91312 0.0
H1790 H 0.91813 0.61738 0.93432 0.0
H1791 H 0.81704 0.64299 0.90352 0.0
H1792 H 0.88391 0.59554 0.86298 0.0
H1793 H 0.93911 0.57963 0.84353 0.0
H1794 H 0.94009 0.61296 0.79818 0.0
H1795 H 0.88526 0.62924 0.81756 0.0
C1796 C 0.67665 0.62914 0.83053 0.0
C1797 C 0.67879 0.63805 0.81352 0.0
C1798 C 0.70953 0.62806 0.84346 0.0
C1799 C 0.74507 0.63577 0.83949 0.0
C1800 C 0.74721 0.64478 0.82265 0.0
C1801 C 0.71429 0.64602 0.80988 0.0
C1802 C 0.78048 0.63409 0.85248 0.0
C1803 C 0.81348 0.62584 0.84208 0.0
C1804 C 0.7815 0.64012 0.87493 0.0
C1805 C 0.74775 0.64926 0.88666 0.0
C1806 C 0.73244 0.66379 0.88049 0.0
C1807 C 0.70047 0.67228 0.89154 0.0
C1808 C 0.68373 0.66641 0.90891 0.0
C1809 C 0.69902 0.65208 0.91529 0.0
C1810 C 0.73096 0.64354 0.90427 0.0
C1811 C 0.95556 0.63517 0.89384 0.0
C1812 C 0.95496 0.62872 0.91294 0.0
C1813 C 0.92119 0.63558 0.88188 0.0
C1814 C 0.8857 0.62928 0.88858 0.0
C1815 C 0.88505 0.62281 0.90765 0.0
C1816 C 0.91937 0.62254 0.91974 0.0
C1817 C 0.84914 0.62988 0.87596 0.0
C1818 C 0.81581 0.63789 0.8864 0.0
C1819 C 0.84765 0.62345 0.85355 0.0
C1820 C 0.8807 0.61371 0.84186 0.0
C1821 C 0.89611 0.59956 0.84897 0.0
C1822 C 0.9273 0.59046 0.83793 0.0
C1823 C 0.94316 0.5953 0.81966 0.0
C1824 C 0.92781 0.60924 0.81235 0.0
C1825 C 0.89665 0.6184 0.82335 0.0
H1826 H 0.9673 0.58823 0.81113 0.0
H1827 H 0.65899 0.673 0.91745 0.0
H1828 H 0.15073 0.62029 0.3243 0.0
H1829 H 0.20739 0.61843 0.34763 0.0
H1830 H 0.25322 0.66481 0.33325 0.0
H1831 H 0.19668 0.66689 0.3102 0.0
H1832 H 0.28397 0.61545 0.33676 0.0
H1833 H 0.30329 0.68581 0.37637 0.0
H1834 H 0.26201 0.71093 0.38855 0.0
H1835 H 0.16398 0.67934 0.39719 0.0
H1836 H 0.20479 0.65405 0.38536 0.0
H1837 H 0.47755 0.63059 0.37794 0.0
H1838 H 0.4151 0.63259 0.35924 0.0
H1839 H 0.35336 0.6403 0.41992 0.0
H1840 H 0.41562 0.63887 0.43872 0.0
H1841 H 0.32692 0.66135 0.39576 0.0
H1842 H 0.35241 0.60216 0.38634 0.0
H1843 H 0.39081 0.576 0.37586 0.0
H1844 H 0.39375 0.5832 0.31039 0.0
H1845 H 0.35589 0.60956 0.32055 0.0
C1846 C 0.17258 0.63021 0.32635 0.0
C1847 C 0.16917 0.64374 0.31542 0.0
C1848 C 0.20503 0.62908 0.33959 0.0
C1849 C 0.23438 0.64152 0.34225 0.0
C1850 C 0.23066 0.65518 0.33165 0.0
C1851 C 0.19834 0.65631 0.31842 0.0
C1852 C 0.26984 0.63991 0.35533 0.0
C1853 C 0.29332 0.62546 0.34971 0.0
C1854 C 0.28172 0.65288 0.37238 0.0
C1855 C 0.25704 0.66803 0.37979 0.0
C1856 C 0.27298 0.68423 0.38096 0.0
C1857 C 0.24965 0.6985 0.38779 0.0
C1858 C 0.21037 0.69673 0.39358 0.0
C1859 C 0.19436 0.68069 0.39263 0.0
C1860 C 0.21757 0.66638 0.38583 0.0
C1861 C 0.4507 0.63286 0.38729 0.0
C1862 C 0.45148 0.63442 0.40978 0.0
C1863 C 0.41502 0.63386 0.37659 0.0
C1864 C 0.37953 0.63636 0.38818 0.0
C1865 C 0.38036 0.63827 0.41065 0.0
C1866 C 0.41594 0.63729 0.42135 0.0
C1867 C 0.34145 0.63702 0.37694 0.0
C1868 C 0.31753 0.65132 0.38286 0.0
C1869 C 0.32883 0.62377 0.36041 0.0
C1870 C 0.35164 0.60793 0.35426 0.0
C1871 C 0.36154 0.59825 0.36975 0.0
C1872 C 0.38316 0.58337 0.36386 0.0
C1873 C 0.39481 0.57796 0.34249 0.0
C1874 C 0.38477 0.58741 0.32695 0.0
C1875 C 0.36322 0.60232 0.33276 0.0
H1876 H 0.41153 0.56643 0.33796 0.0
H1877 H 0.19235 0.70779 0.39885 0.0
H1878 H 0.64197 0.62395 0.37506 0.0
H1879 H 0.69715 0.63069 0.35313 0.0
H1880 H 0.77362 0.63589 0.40849 0.0
H1881 H 0.71821 0.63023 0.43053 0.0
H1882 H 0.78866 0.65977 0.3901 0.0
H1883 H 0.77333 0.60036 0.364 0.0
H1884 H 0.73822 0.57421 0.34836 0.0
H1885 H 0.71413 0.59384 0.29125 0.0
H1886 H 0.7487 0.6202 0.30667 0.0
H1887 H 0.9755 0.64709 0.33836 0.0
H1888 H 0.91428 0.64295 0.35687 0.0
H1889 H 0.84737 0.65774 0.30569 0.0
H1890 H 0.90847 0.66279 0.28745 0.0
H1891 H 0.82505 0.62526 0.3194 0.0
H1892 H 0.84337 0.68506 0.34767 0.0
H1893 H 0.8836 0.70956 0.36405 0.0
H1894 H 0.90851 0.68615 0.41806 0.0
H1895 H 0.86821 0.66157 0.40202 0.0
C1896 C 0.67069 0.62644 0.38241 0.0
C1897 C 0.67595 0.62659 0.40442 0.0
C1898 C 0.70225 0.63022 0.36988 0.0
C1899 C 0.73982 0.63364 0.37906 0.0
C1900 C 0.745 0.63343 0.40101 0.0
C1901 C 0.71335 0.63012 0.41359 0.0
C1902 C 0.77371 0.63791 0.36618 0.0
C1903 C 0.79659 0.6521 0.37473 0.0
C1904 C 0.784 0.62814 0.34589 0.0
C1905 C 0.76319 0.61232 0.33659 0.0
C1906 C 0.76028 0.59915 0.34818 0.0
C1907 C 0.74052 0.58428 0.33934 0.0
C1908 C 0.72384 0.58239 0.31885 0.0
C1909 C 0.72699 0.59534 0.30713 0.0
C1910 C 0.74668 0.61024 0.31591 0.0
C1911 C 0.94791 0.64984 0.33118 0.0
C1912 C 0.94712 0.65528 0.31134 0.0
C1913 C 0.91293 0.6473 0.34171 0.0
C1914 C 0.87649 0.64999 0.33255 0.0
C1915 C 0.87534 0.65549 0.31288 0.0
C1916 C 0.91034 0.65828 0.30245 0.0
C1917 C 0.83969 0.64684 0.34358 0.0
C1918 C 0.81649 0.63294 0.33468 0.0
C1919 C 0.8295 0.6566 0.36373 0.0
C1920 C 0.85298 0.67149 0.37362 0.0
C1921 C 0.8575 0.68515 0.36302 0.0
C1922 C 0.88023 0.69906 0.37226 0.0
C1923 C 0.89863 0.6994 0.39207 0.0
C1924 C 0.89426 0.68586 0.40271 0.0
C1925 C 0.8713 0.67199 0.39362 0.0
H1926 H 0.91626 0.71016 0.3992 0.0
H1927 H 0.70857 0.57087 0.31204 0.0
H1928 H 0.52017 0.39473 0.1409 0.0
H1929 H 0.58189 0.39112 0.12067 0.0
H1930 H 0.64578 0.38884 0.17881 0.0
H1931 H 0.58418 0.39136 0.19906 0.0
H1932 H 0.67179 0.41404 0.15136 0.0
H1933 H 0.64313 0.3553 0.14952 0.0
H1934 H 0.60108 0.33001 0.14276 0.0
H1935 H 0.59131 0.33377 0.07622 0.0
H1936 H 0.63283 0.35926 0.08266 0.0
H1937 H 0.85692 0.39941 0.09923 0.0
H1938 H 0.80066 0.39777 0.123 0.0
H1939 H 0.72722 0.3803 0.06762 0.0
H1940 H 0.78365 0.38104 0.04403 0.0
H1941 H 0.70782 0.36403 0.09639 0.0
H1942 H 0.72895 0.42288 0.09673 0.0
H1943 H 0.76663 0.4494 0.10161 0.0
H1944 H 0.78542 0.44726 0.16811 0.0
H1945 H 0.74824 0.4206 0.16354 0.0
C1946 C 0.54712 0.39308 0.14939 0.0
C1947 C 0.54698 0.39348 0.17173 0.0
C1948 C 0.5824 0.39114 0.13779 0.0
C1949 C 0.6182 0.38979 0.14833 0.0
C1950 C 0.61834 0.38998 0.17048 0.0
C1951 C 0.58305 0.39158 0.18203 0.0
C1952 C 0.65564 0.38885 0.13629 0.0
C1953 C 0.68016 0.40303 0.13957 0.0
C1954 C 0.66563 0.37465 0.12055 0.0
C1955 C 0.64075 0.3593 0.11663 0.0
C1956 C 0.63169 0.35084 0.1335 0.0
C1957 C 0.60802 0.33644 0.12971 0.0
C1958 C 0.59344 0.33031 0.10909 0.0
C1959 C 0.60258 0.33854 0.09219 0.0
C1960 C 0.62621 0.35296 0.0959 0.0
C1961 C 0.82877 0.39514 0.0922 0.0
C1962 C 0.82459 0.39042 0.06981 0.0
C1963 C 0.79658 0.39428 0.10577 0.0
C1964 C 0.75939 0.38921 0.09712 0.0
C1965 C 0.75551 0.38423 0.07474 0.0
C1966 C 0.78781 0.38471 0.06124 0.0
C1967 C 0.7242 0.38937 0.11116 0.0
C1968 C 0.6999 0.37505 0.10827 0.0
C1969 C 0.71392 0.40362 0.12694 0.0
C1970 C 0.73621 0.41966 0.12973 0.0
C1971 C 0.74136 0.42801 0.11235 0.0
C1972 C 0.76259 0.44307 0.11506 0.0
C1973 C 0.77851 0.44998 0.13514 0.0
C1974 C 0.77313 0.44187 0.15256 0.0
C1975 C 0.75197 0.42679 0.14992 0.0
H1976 H 0.79493 0.46165 0.13721 0.0
H1977 H 0.57513 0.31916 0.10619 0.0
H1978 H 0.0866 0.38113 0.03739 0.0
H1979 H 0.14651 0.38585 0.05865 0.0
H1980 H 0.07777 0.3922 0.11701 0.0
H1981 H 0.01724 0.38867 0.09578 0.0
H1982 H 0.13097 0.41551 0.12118 0.0
H1983 H 0.13348 0.35571 0.09738 0.0
H1984 H 0.13108 0.32891 0.07126 0.0
H1985 H 0.23361 0.34332 0.03935 0.0
H1986 H 0.23631 0.37033 0.06511 0.0
H1987 H 0.2833 0.40038 0.19176 0.0
H1988 H 0.22705 0.39557 0.16744 0.0
H1989 H 0.2967 0.41019 0.11705 0.0
H1990 H 0.35343 0.41546 0.14159 0.0
H1991 H 0.24592 0.37696 0.10795 0.0
H1992 H 0.2421 0.43715 0.13363 0.0
H1993 H 0.24579 0.46227 0.16251 0.0
H1994 H 0.14505 0.44519 0.19336 0.0
H1995 H 0.14121 0.41977 0.16483 0.0
C1996 C 0.08405 0.38367 0.05475 0.0
C1997 C 0.04692 0.38467 0.06484 0.0
C1998 C 0.1185 0.38614 0.06691 0.0
C1999 C 0.11677 0.38922 0.08946 0.0
C2000 C 0.07986 0.38984 0.09962 0.0
C2001 C 0.04527 0.38761 0.08745 0.0
C2002 C 0.15342 0.39232 0.1024 0.0
C2003 C 0.15586 0.40696 0.11836 0.0
C2004 C 0.18635 0.38136 0.09854 0.0
C2005 C 0.18486 0.36512 0.08305 0.0
C2006 C 0.15534 0.35322 0.08469 0.0
C2007 C 0.15396 0.33798 0.06997 0.0
C2008 C 0.18211 0.33444 0.05362 0.0
C2009 C 0.21178 0.3461 0.052 0.0
C2010 C 0.21328 0.36137 0.06667 0.0
C2011 C 0.28682 0.40253 0.17549 0.0
C2012 C 0.32275 0.40831 0.16854 0.0
C2013 C 0.25464 0.39978 0.16166 0.0
C2014 C 0.25793 0.40253 0.14056 0.0
C2015 C 0.29386 0.40799 0.13334 0.0
C2016 C 0.32603 0.41107 0.14735 0.0
C2017 C 0.22309 0.40003 0.12644 0.0
C2018 C 0.22099 0.38551 0.11044 0.0
C2019 C 0.19033 0.41093 0.13043 0.0
C2020 C 0.19159 0.42648 0.14719 0.0
C2021 C 0.22088 0.43869 0.14664 0.0
C2022 C 0.22299 0.45299 0.16293 0.0
C2023 C 0.19573 0.4553 0.17977 0.0
C2024 C 0.16616 0.44336 0.1803 0.0
C2025 C 0.16398 0.42901 0.16405 0.0
H2026 H 0.19754 0.46635 0.19236 0.0
H2027 H 0.18099 0.32263 0.04224 0.0
H2028 H 0.79429 0.4108 0.6836 0.0
H2029 H 0.73777 0.41161 0.66014 0.0
H2030 H 0.7812 0.36757 0.61701 0.0
H2031 H 0.83773 0.36646 0.64068 0.0
H2032 H 0.72824 0.41496 0.61943 0.0
H2033 H 0.70211 0.34322 0.59752 0.0
H2034 H 0.71508 0.31766 0.61241 0.0
H2035 H 0.71484 0.34712 0.67641 0.0
H2036 H 0.70133 0.3728 0.66193 0.0
H2037 H 0.58206 0.39681 0.53781 0.0
H2038 H 0.64222 0.39722 0.55903 0.0
H2039 H 0.57534 0.38345 0.61105 0.0
H2040 H 0.51532 0.38234 0.5896 0.0
H2041 H 0.64032 0.36513 0.60408 0.0
H2042 H 0.60789 0.42383 0.61325 0.0
H2043 H 0.5916 0.45036 0.60138 0.0
H2044 H 0.70252 0.44885 0.56842 0.0
H2045 H 0.71925 0.42217 0.57985 0.0
C2046 C 0.79202 0.40131 0.66908 0.0
C2047 C 0.82034 0.38845 0.66411 0.0
C2048 C 0.75975 0.40186 0.65563 0.0
C2049 C 0.75506 0.38955 0.63698 0.0
C2050 C 0.784 0.37705 0.63152 0.0
C2051 C 0.81633 0.37646 0.64502 0.0
C2052 C 0.71894 0.38948 0.62385 0.0
C2053 C 0.70911 0.40404 0.61596 0.0
C2054 C 0.69363 0.37534 0.61969 0.0
C2055 C 0.70117 0.35994 0.62861 0.0
C2056 C 0.7047 0.34422 0.61477 0.0
C2057 C 0.71215 0.32972 0.62314 0.0
C2058 C 0.71592 0.33077 0.64533 0.0
C2059 C 0.71207 0.34632 0.65922 0.0
C2060 C 0.70455 0.36086 0.65094 0.0
C2061 C 0.58017 0.39377 0.55372 0.0
C2062 C 0.54387 0.38951 0.562 0.0
C2063 C 0.61453 0.39417 0.5659 0.0
C2064 C 0.61321 0.39047 0.58667 0.0
C2065 C 0.57701 0.38635 0.59505 0.0
C2066 C 0.54267 0.38589 0.58286 0.0
C2067 C 0.64964 0.3906 0.59957 0.0
C2068 C 0.65958 0.37602 0.60739 0.0
C2069 C 0.67457 0.40485 0.60406 0.0
C2070 C 0.66464 0.42092 0.59723 0.0
C2071 C 0.62867 0.42908 0.60333 0.0
C2072 C 0.61939 0.44416 0.59671 0.0
C2073 C 0.64596 0.45126 0.58411 0.0
C2074 C 0.68194 0.44332 0.57816 0.0
C2075 C 0.69135 0.42823 0.58472 0.0
H2076 H 0.63872 0.46293 0.579 0.0
H2077 H 0.72174 0.31953 0.65178 0.0
H2078 H 0.03578 0.41703 0.65469 0.0
H2079 H 0.09582 0.41368 0.63289 0.0
H2080 H 0.11895 0.36617 0.65204 0.0
H2081 H 0.05882 0.36932 0.67367 0.0
H2082 H 0.18478 0.38567 0.65452 0.0
H2083 H 0.08281 0.3669 0.60291 0.0
H2084 H 0.02032 0.36926 0.58389 0.0
H2085 H 0.06416 0.41277 0.5617 0.0
H2086 H 0.12675 0.41081 0.58086 0.0
H2087 H 0.33013 0.35466 0.57538 0.0
H2088 H 0.27244 0.35876 0.599 0.0
H2089 H 0.24479 0.40474 0.57691 0.0
H2090 H 0.30175 0.40055 0.55299 0.0
H2091 H 0.1813 0.38606 0.57628 0.0
H2092 H 0.28342 0.4049 0.62752 0.0
H2093 H 0.34587 0.40281 0.64671 0.0
H2094 H 0.30213 0.35964 0.6697 0.0
H2095 H 0.23959 0.36133 0.65041 0.0
C2096 C 0.0534 0.40578 0.65407 0.0
C2097 C 0.04248 0.39342 0.66588 0.0
C2098 C 0.08777 0.40392 0.64168 0.0
C2099 C 0.11167 0.38962 0.64076 0.0
C2100 C 0.10099 0.37733 0.65261 0.0
C2101 C 0.06666 0.37917 0.66499 0.0
C2102 C 0.14782 0.38744 0.6274 0.0
C2103 C 0.18403 0.38555 0.63736 0.0
C2104 C 0.14684 0.38766 0.60513 0.0
C2105 C 0.10931 0.3888 0.5935 0.0
C2106 C 0.07901 0.37705 0.59412 0.0
C2107 C 0.04359 0.3783 0.58329 0.0
C2108 C 0.03824 0.39119 0.57164 0.0
C2109 C 0.06834 0.40282 0.57076 0.0
C2110 C 0.1038 0.40163 0.58158 0.0
C2111 C 0.31199 0.36574 0.57574 0.0
C2112 C 0.32047 0.37726 0.5623 0.0
C2113 C 0.27908 0.36809 0.58928 0.0
C2114 C 0.25443 0.38213 0.58983 0.0
C2115 C 0.26331 0.3938 0.5767 0.0
C2116 C 0.29596 0.39139 0.56307 0.0
C2117 C 0.21845 0.38436 0.60338 0.0
C2118 C 0.18217 0.38622 0.59345 0.0
C2119 C 0.21943 0.38416 0.62568 0.0
C2120 C 0.25697 0.38315 0.63735 0.0
C2121 C 0.28724 0.39488 0.63653 0.0
C2122 C 0.32263 0.39378 0.64745 0.0
C2123 C 0.328 0.38107 0.65937 0.0
C2124 C 0.29795 0.36946 0.66044 0.0
C2125 C 0.26251 0.37049 0.64954 0.0
H2126 H 0.35542 0.38025 0.66781 0.0
H2127 H 0.01079 0.39213 0.56327 0.0
H2128 H 0.06865 0.13913 0.69615 0.0
H2129 H 0.0795 0.13466 0.65733 0.0
H2130 H 0.20295 0.14581 0.66776 0.0
H2131 H 0.19245 0.1501 0.7068 0.0
H2132 H 0.16463 0.16224 0.63621 0.0
H2133 H 0.18526 0.1082 0.65237 0.0
H2134 H 0.1713 0.08396 0.66952 0.0
H2135 H 0.0635 0.07473 0.63383 0.0
H2136 H 0.07626 0.09928 0.61689 0.0
H2137 H 0.18735 0.13567 0.52213 0.0
H2138 H 0.19974 0.13669 0.56052 0.0
H2139 H 0.07803 0.12433 0.56951 0.0
H2140 H 0.06545 0.12329 0.53133 0.0
H2141 H 0.13034 0.10689 0.59134 0.0
H2142 H 0.10643 0.16413 0.58035 0.0
H2143 H 0.1207 0.18879 0.56389 0.0
H2144 H 0.2377 0.19147 0.59001 0.0
H2145 H 0.22428 0.16664 0.60635 0.0
C2146 C 0.09809 0.14069 0.6902 0.0
C2147 C 0.12974 0.1449 0.70443 0.0
C2148 C 0.10425 0.13808 0.66806 0.0
C2149 C 0.14205 0.13979 0.6598 0.0
C2150 C 0.17361 0.14441 0.67393 0.0
C2151 C 0.16757 0.14679 0.69614 0.0
C2152 C 0.14808 0.13655 0.63629 0.0
C2153 C 0.15807 0.15005 0.62636 0.0
C2154 C 0.13931 0.12064 0.62359 0.0
C2155 C 0.13159 0.10569 0.63347 0.0
C2156 C 0.15839 0.10111 0.6483 0.0
C2157 C 0.15072 0.08728 0.65797 0.0
C2158 C 0.11655 0.07778 0.65276 0.0
C2159 C 0.08997 0.0821 0.63785 0.0
C2160 C 0.0974 0.09599 0.62821 0.0
C2161 C 0.16337 0.13301 0.53228 0.0
C2162 C 0.12537 0.12952 0.52383 0.0
C2163 C 0.17049 0.13362 0.55416 0.0
C2164 C 0.13972 0.13067 0.56779 0.0
C2165 C 0.10214 0.1266 0.5592 0.0
C2166 C 0.09496 0.12611 0.53743 0.0
C2167 C 0.14563 0.13273 0.59124 0.0
C2168 C 0.13783 0.11897 0.60117 0.0
C2169 C 0.15666 0.14838 0.60393 0.0
C2170 C 0.16452 0.16342 0.59434 0.0
C2171 C 0.1353 0.1699 0.58244 0.0
C2172 C 0.14321 0.18392 0.57315 0.0
C2173 C 0.18013 0.19166 0.57584 0.0
C2174 C 0.20915 0.18543 0.5879 0.0
C2175 C 0.20141 0.17139 0.59718 0.0
H2176 H 0.18621 0.20251 0.56863 0.0
H2177 H 0.11069 0.06706 0.66026 0.0
H2178 H 0.92 0.8772 0.4349 0.0
H2179 H 0.9102 0.88621 0.40062 0.0
H2180 H 0.79666 0.90688 0.42228 0.0
H2181 H 0.80572 0.89719 0.45636 0.0
H2182 H 0.79144 0.89414 0.38227 0.0
H2183 H 0.87577 0.93298 0.42239 0.0
H2184 H 0.93068 0.94386 0.44649 0.0
H2185 H 0.01387 0.9215 0.39832 0.0
H2186 H 0.95946 0.91025 0.37403 0.0
H2187 H 0.88752 0.93651 0.29025 0.0
H2188 H 0.87452 0.93735 0.32863 0.0
H2189 H 0.83159 0.88613 0.31341 0.0
H2190 H 0.84182 0.88593 0.2752 0.0
H2191 H 0.90441 0.92288 0.35495 0.0
H2192 H 0.77098 0.87522 0.34786 0.0
H2193 H 0.70926 0.86991 0.32723 0.0
H2194 H 0.71169 0.92023 0.31461 0.0
H2195 H 0.77308 0.92596 0.33545 0.0
C2196 C 0.89274 0.88345 0.43221 0.0
C2197 C 0.86369 0.88658 0.44821 0.0
C2198 C 0.88728 0.88873 0.41273 0.0
C2199 C 0.85319 0.89765 0.40916 0.0
C2200 C 0.82331 0.90013 0.42477 0.0
C2201 C 0.82847 0.89456 0.44417 0.0
C2202 C 0.84946 0.90447 0.38914 0.0
C2203 C 0.81593 0.90053 0.37629 0.0
C2204 C 0.88033 0.91382 0.38201 0.0
C2205 C 0.91344 0.9207 0.39639 0.0
C2206 C 0.90577 0.9303 0.41696 0.0
C2207 C 0.93681 0.93654 0.43067 0.0
C2208 C 0.97574 0.93336 0.42395 0.0
C2209 C 0.98369 0.92396 0.40349 0.0
C2210 C 0.95274 0.91767 0.38973 0.0
C2211 C 0.87459 0.92563 0.29529 0.0
C2212 C 0.86526 0.91121 0.28013 0.0
C2213 C 0.86726 0.92606 0.31712 0.0
C2214 C 0.85139 0.91191 0.32402 0.0
C2215 C 0.84242 0.89746 0.3086 0.0
C2216 C 0.84865 0.89723 0.2868 0.0
C2217 C 0.8474 0.9115 0.34728 0.0
C2218 C 0.87944 0.91678 0.36092 0.0
C2219 C 0.81402 0.90436 0.3556 0.0
C2220 C 0.77684 0.90098 0.34316 0.0
C2221 C 0.75824 0.8852 0.34082 0.0
C2222 C 0.72333 0.8821 0.32905 0.0
C2223 C 0.70661 0.89471 0.31958 0.0
C2224 C 0.72473 0.91046 0.3219 0.0
C2225 C 0.75963 0.91362 0.33367 0.0
H2226 H 0.67959 0.89229 0.31047 0.0
H2227 H -0.00027 0.93819 0.43459 0.0
H2228 H 0.06862 0.64109 0.0357 0.0
H2229 H 0.08359 0.64696 0.07412 0.0
H2230 H 0.20647 0.63651 0.0602 0.0
H2231 H 0.19183 0.63079 0.02155 0.0
H2232 H 0.17274 0.62199 0.09532 0.0
H2233 H 0.18884 0.67385 0.07235 0.0
H2234 H 0.17217 0.6965 0.0528 0.0
H2235 H 0.06785 0.7079 0.09118 0.0
H2236 H 0.08319 0.68493 0.11053 0.0
H2237 H 0.19306 0.65339 0.2083 0.0
H2238 H 0.20785 0.65179 0.17005 0.0
H2239 H 0.08608 0.66238 0.15832 0.0
H2240 H 0.07115 0.66406 0.19635 0.0
H2241 H 0.13857 0.67903 0.13563 0.0
H2242 H 0.11716 0.62257 0.15171 0.0
H2243 H 0.13393 0.59982 0.1712 0.0
H2244 H 0.25154 0.59793 0.14583 0.0
H2245 H 0.23556 0.62086 0.12643 0.0
C2246 C 0.09876 0.63986 0.0408 0.0
C2247 C 0.12912 0.63559 0.02571 0.0
C2248 C 0.10726 0.64327 0.0627 0.0
C2249 C 0.14615 0.64233 0.06982 0.0
C2250 C 0.17634 0.63735 0.05488 0.0
C2251 C 0.16792 0.63414 0.0329 0.0
C2252 C 0.15478 0.64713 0.09294 0.0
C2253 C 0.16629 0.63456 0.10415 0.0
C2254 C 0.1464 0.66356 0.10425 0.0
C2255 C 0.13708 0.67755 0.09282 0.0
C2256 C 0.16213 0.68106 0.0765 0.0
C2257 C 0.15294 0.69398 0.06546 0.0
C2258 C 0.11902 0.70366 0.07077 0.0
C2259 C 0.09415 0.7004 0.0871 0.0
C2260 C 0.10307 0.68741 0.0981 0.0
C2261 C 0.16961 0.6556 0.19758 0.0
C2262 C 0.13087 0.65866 0.20517 0.0
C2263 C 0.17812 0.65469 0.17581 0.0
C2264 C 0.14797 0.65687 0.16145 0.0
C2265 C 0.10973 0.66072 0.16922 0.0
C2266 C 0.10119 0.66155 0.19089 0.0
C2267 C 0.15483 0.65372 0.13805 0.0
C2268 C 0.14621 0.66661 0.12677 0.0
C2269 C 0.16613 0.63763 0.12668 0.0
C2270 C 0.17531 0.62353 0.13782 0.0
C2271 C 0.14664 0.61735 0.15037 0.0
C2272 C 0.15599 0.60443 0.1614 0.0
C2273 C 0.19381 0.59747 0.1598 0.0
C2274 C 0.22228 0.60336 0.14708 0.0
C2275 C 0.21309 0.61631 0.13606 0.0
H2276 H 0.20104 0.5875 0.16839 0.0
H2277 H 0.11203 0.71369 0.06224 0.0
H2278 H 0.93738 0.38765 0.94624 0.0
H2279 H 0.92667 0.39323 0.91019 0.0
H2280 H 0.80094 0.39139 0.9194 0.0
H2281 H 0.81141 0.38569 0.9557 0.0
H2282 H 0.8259 0.37384 0.87949 0.0
H2283 H 0.8428 0.42865 0.92277 0.0
H2284 H 0.87469 0.45089 0.94931 0.0
H2285 H 0.97882 0.44707 0.91018 0.0
H2286 H 0.94795 0.42463 0.88359 0.0
H2287 H 0.81017 0.4016 0.77891 0.0
H2288 H 0.80032 0.40139 0.81722 0.0
H2289 H 0.92615 0.40342 0.82692 0.0
H2290 H 0.93619 0.40382 0.7889 0.0
H2291 H 0.88757 0.42412 0.85887 0.0
H2292 H 0.87751 0.36647 0.82014 0.0
H2293 H 0.84909 0.34369 0.79299 0.0
H2294 H 0.73577 0.35218 0.82331 0.0
H2295 H 0.76345 0.3752 0.85047 0.0
C2296 C 0.90742 0.38832 0.94059 0.0
C2297 C 0.8752 0.38628 0.95378 0.0
C2298 C 0.90137 0.39162 0.92005 0.0
C2299 C 0.86303 0.39303 0.91237 0.0
C2300 C 0.83073 0.39048 0.92519 0.0
C2301 C 0.83677 0.38721 0.94585 0.0
C2302 C 0.85724 0.39698 0.89077 0.0
C2303 C 0.83853 0.38503 0.87505 0.0
C2304 C 0.87426 0.41148 0.88504 0.0
C2305 C 0.89304 0.42489 0.90119 0.0
C2306 C 0.87262 0.43244 0.9199 0.0
C2307 C 0.8905 0.4451 0.93495 0.0
C2308 C 0.92871 0.45038 0.93138 0.0
C2309 C 0.9492 0.44297 0.91287 0.0
C2310 C 0.93151 0.4303 0.89781 0.0
C2311 C 0.83567 0.40216 0.78928 0.0
C2312 C 0.87396 0.40262 0.78095 0.0
C2313 C 0.82999 0.40201 0.8111 0.0
C2314 C 0.86254 0.40225 0.82479 0.0
C2315 C 0.90067 0.40326 0.8166 0.0
C2316 C 0.90635 0.40341 0.79486 0.0
C2317 C 0.85754 0.4007 0.8475 0.0
C2318 C 0.87411 0.41314 0.86343 0.0
C2319 C 0.83899 0.38657 0.85337 0.0
C2320 C 0.82241 0.37268 0.83715 0.0
C2321 C 0.84646 0.36356 0.82091 0.0
C2322 C 0.83051 0.3506 0.80554 0.0
C2323 C 0.79062 0.34653 0.80639 0.0
C2324 C 0.76664 0.35538 0.82265 0.0
C2325 C 0.78244 0.36838 0.83803 0.0
H2326 H 0.77831 0.33649 0.79448 0.0
H2327 H 0.94245 0.46025 0.94289 0.0
H2328 H 0.56932 0.16363 0.2006 0.0
H2329 H 0.58345 0.16122 0.16232 0.0
H2330 H 0.70483 0.14959 0.17344 0.0
H2331 H 0.69086 0.15193 0.21189 0.0
H2332 H 0.63597 0.17753 0.13958 0.0
H2333 H 0.73186 0.11848 0.12942 0.0
H2334 H 0.74597 0.09494 0.14806 0.0
H2335 H 0.62828 0.09786 0.1734 0.0
H2336 H 0.61333 0.12124 0.15466 0.0
H2337 H 0.69808 0.13181 0.02567 0.0
H2338 H 0.70975 0.13704 0.06469 0.0
H2339 H 0.58557 0.14587 0.07597 0.0
H2340 H 0.57357 0.14045 0.0373 0.0
H2341 H 0.67229 0.12101 0.09848 0.0
H2342 H 0.58154 0.18329 0.11309 0.0
H2343 H 0.5675 0.20663 0.09414 0.0
H2344 H 0.67606 0.19704 0.05909 0.0
H2345 H 0.69125 0.17397 0.07821 0.0
C2346 C 0.5991 0.1607 0.19494 0.0
C2347 C 0.62893 0.15784 0.20916 0.0
C2348 C 0.60717 0.15942 0.1731 0.0
C2349 C 0.64508 0.15512 0.1651 0.0
C2350 C 0.67532 0.15281 0.17935 0.0
C2351 C 0.6673 0.15418 0.20126 0.0
C2352 C 0.65187 0.15209 0.14163 0.0
C2353 C 0.64399 0.1652 0.13057 0.0
C2354 C 0.66356 0.13612 0.13003 0.0
C2355 C 0.67171 0.12174 0.14087 0.0
C2356 C 0.70897 0.11404 0.1389 0.0
C2357 C 0.71711 0.10073 0.14949 0.0
C2358 C 0.6881 0.09496 0.16199 0.0
C2359 C 0.65078 0.10239 0.16379 0.0
C2360 C 0.64247 0.11568 0.1532 0.0
C2361 C 0.67329 0.13472 0.03652 0.0
C2362 C 0.63493 0.13578 0.02851 0.0
C2363 C 0.68 0.13765 0.05872 0.0
C2364 C 0.64854 0.14197 0.07305 0.0
C2365 C 0.61021 0.14267 0.06507 0.0
C2366 C 0.60342 0.13953 0.04299 0.0
C2367 C 0.6551 0.1463 0.09646 0.0
C2368 C 0.66536 0.13346 0.10751 0.0
C2369 C 0.6458 0.16254 0.10808 0.0
C2370 C 0.63734 0.17677 0.09697 0.0
C2371 C 0.60257 0.18625 0.10147 0.0
C2372 C 0.59441 0.19944 0.09069 0.0
C2373 C 0.62083 0.20331 0.0754 0.0
C2374 C 0.65558 0.19404 0.07092 0.0
C2375 C 0.66396 0.18089 0.08172 0.0
H2376 H 0.6144 0.21349 0.06703 0.0
H2377 H 0.69454 0.08472 0.17026 0.0
H2378 H 0.31285 0.90361 0.7753 0.0
H2379 H 0.30386 0.89956 0.81241 0.0
H2380 H 0.42941 0.89378 0.81853 0.0
H2381 H 0.43867 0.89782 0.78163 0.0
H2382 H 0.38585 0.86772 0.83011 0.0
H2383 H 0.38688 0.92869 0.84314 0.0
H2384 H 0.36365 0.95663 0.83828 0.0
H2385 H 0.24823 0.94581 0.85988 0.0
H2386 H 0.27066 0.91769 0.86459 0.0
H2387 H 0.43307 0.87798 0.93929 0.0
H2388 H 0.42422 0.87944 0.90149 0.0
H2389 H 0.29892 0.88558 0.91149 0.0
H2390 H 0.3076 0.88417 0.94958 0.0
H2391 H 0.33032 0.90923 0.89064 0.0
H2392 H 0.33186 0.84965 0.88225 0.0
H2393 H 0.35494 0.82167 0.88695 0.0
H2394 H 0.46452 0.82938 0.85633 0.0
H2395 H 0.44233 0.85751 0.85168 0.0
C2396 C 0.33855 0.90174 0.78469 0.0
C2397 C 0.37645 0.90099 0.77559 0.0
C2398 C 0.33335 0.89942 0.80583 0.0
C2399 C 0.36598 0.89629 0.81806 0.0
C2400 C 0.40389 0.89608 0.80923 0.0
C2401 C 0.40912 0.8985 0.78821 0.0
C2402 C 0.36087 0.89248 0.83979 0.0
C2403 C 0.37396 0.87681 0.84342 0.0
C2404 C 0.34383 0.90413 0.85681 0.0
C2405 C 0.33032 0.92101 0.85396 0.0
C2406 C 0.35644 0.9322 0.84665 0.0
C2407 C 0.34345 0.94808 0.84397 0.0
C2408 C 0.30447 0.95297 0.84871 0.0
C2409 C 0.27841 0.942 0.85618 0.0
C2410 C 0.29125 0.92609 0.85887 0.0
C2411 C 0.40355 0.87944 0.93342 0.0
C2412 C 0.37101 0.88099 0.94736 0.0
C2413 C 0.39852 0.88019 0.91179 0.0
C2414 C 0.36088 0.88246 0.90369 0.0
C2415 C 0.32817 0.88374 0.91747 0.0
C2416 C 0.33317 0.88289 0.93916 0.0
C2417 C 0.35658 0.88465 0.88117 0.0
C2418 C 0.3416 0.89999 0.87731 0.0
C2419 C 0.37183 0.87267 0.86389 0.0
C2420 C 0.3855 0.85578 0.86677 0.0
C2421 C 0.36102 0.84546 0.87669 0.0
C2422 C 0.37393 0.82955 0.87931 0.0
C2423 C 0.41123 0.82378 0.87201 0.0
C2424 C 0.43569 0.8339 0.86205 0.0
C2425 C 0.42291 0.84981 0.85936 0.0
H2426 H 0.42113 0.81144 0.874 0.0
H2427 H 0.29453 0.96529 0.84669 0.0
H2428 H 0.68339 0.6292 0.51861 0.0
H2429 H 0.69218 0.63044 0.55732 0.0
H2430 H 0.56747 0.63901 0.56717 0.0
H2431 H 0.55834 0.63736 0.52864 0.0
H2432 H 0.67607 0.65503 0.59267 0.0
H2433 H 0.53451 0.61735 0.60405 0.0
H2434 H 0.4922 0.59627 0.58159 0.0
H2435 H 0.59085 0.57853 0.54111 0.0
H2436 H 0.63412 0.599 0.56381 0.0
H2437 H 0.56151 0.64855 0.69536 0.0
H2438 H 0.56902 0.64444 0.65647 0.0
H2439 H 0.69419 0.63747 0.66276 0.0
H2440 H 0.68694 0.64175 0.70199 0.0
H2441 H 0.59555 0.61712 0.6285 0.0
H2442 H 0.73858 0.65346 0.62149 0.0
H2443 H 0.77726 0.67688 0.64219 0.0
H2444 H 0.67157 0.69893 0.67263 0.0
H2445 H 0.6323 0.67574 0.65197 0.0
C2446 C 0.6579 0.63133 0.52908 0.0
C2447 C 0.62011 0.63298 0.52067 0.0
C2448 C 0.663 0.63211 0.55113 0.0
C2449 C 0.63039 0.63455 0.56497 0.0
C2450 C 0.59289 0.63678 0.55665 0.0
C2451 C 0.58771 0.63583 0.53466 0.0
C2452 C 0.63495 0.63437 0.5881 0.0
C2453 C 0.65916 0.64652 0.60049 0.0
C2454 C 0.61253 0.62332 0.59818 0.0
C2455 C 0.58752 0.60986 0.58557 0.0
C2456 C 0.54735 0.60877 0.59058 0.0
C2457 C 0.52318 0.59693 0.57778 0.0
C2458 C 0.53879 0.58612 0.55989 0.0
C2459 C 0.57877 0.58693 0.55496 0.0
C2460 C 0.60318 0.59859 0.56786 0.0
C2461 C 0.5907 0.64621 0.68852 0.0
C2462 C 0.62368 0.64549 0.70168 0.0
C2463 C 0.59488 0.64378 0.66629 0.0
C2464 C 0.6321 0.64064 0.65679 0.0
C2465 C 0.66524 0.63999 0.66985 0.0
C2466 C 0.66106 0.64244 0.6922 0.0
C2467 C 0.63566 0.63815 0.63316 0.0
C2468 C 0.61311 0.6254 0.62063 0.0
C2469 C 0.65942 0.64869 0.62298 0.0
C2470 C 0.68264 0.66276 0.63539 0.0
C2471 C 0.72364 0.66332 0.63259 0.0
C2472 C 0.74565 0.67655 0.64431 0.0
C2473 C 0.72691 0.68935 0.65878 0.0
C2474 C 0.68609 0.68897 0.6615 0.0
C2475 C 0.66395 0.67577 0.64982 0.0
H2476 H 0.74401 0.69957 0.66785 0.0
H2477 H 0.51993 0.57711 0.54984 0.0
H2478 H 0.43175 0.41868 0.29419 0.0
H2479 H 0.42265 0.41365 0.3308 0.0
H2480 H 0.30317 0.39767 0.31554 0.0
H2481 H 0.3118 0.40291 0.27899 0.0
H2482 H 0.36563 0.42384 0.3653 0.0
H2483 H 0.2988 0.35845 0.33446 0.0
H2484 H 0.29419 0.33728 0.30092 0.0
H2485 H 0.40414 0.35441 0.27933 0.0
H2486 H 0.40993 0.37532 0.31292 0.0
H2487 H 0.31214 0.38499 0.45254 0.0
H2488 H 0.30356 0.38945 0.41565 0.0
H2489 H 0.4227 0.37279 0.40057 0.0
H2490 H 0.43189 0.36862 0.43757 0.0
H2491 H 0.3552 0.36264 0.36618 0.0
H2492 H 0.42693 0.4098 0.41158 0.0
H2493 H 0.43164 0.42865 0.44691 0.0
H2494 H 0.31436 0.44667 0.43962 0.0
H2495 H 0.30898 0.42775 0.40417 0.0
C2496 C 0.40325 0.41451 0.29882 0.0
C2497 C 0.3726 0.41102 0.28377 0.0
C2498 C 0.39805 0.41173 0.31971 0.0
C2499 C 0.3624 0.40515 0.32566 0.0
C2500 C 0.3309 0.40271 0.31112 0.0
C2501 C 0.33589 0.40572 0.2903 0.0
C2502 C 0.36009 0.39892 0.34602 0.0
C2503 C 0.36295 0.4105 0.36546 0.0
C2504 C 0.35693 0.38146 0.34617 0.0
C2505 C 0.35439 0.36866 0.32605 0.0
C2506 C 0.32202 0.35766 0.32256 0.0
C2507 C 0.31922 0.3457 0.30354 0.0
C2508 C 0.34865 0.34459 0.28791 0.0
C2509 C 0.38111 0.35538 0.29132 0.0
C2510 C 0.3842 0.36728 0.31038 0.0
C2511 C 0.33616 0.38185 0.44121 0.0
C2512 C 0.37282 0.37664 0.44787 0.0
C2513 C 0.33115 0.38435 0.42019 0.0
C2514 C 0.36251 0.3814 0.40558 0.0
C2515 C 0.39816 0.37498 0.4117 0.0
C2516 C 0.40343 0.37273 0.43282 0.0
C2517 C 0.36039 0.38756 0.38522 0.0
C2518 C 0.35701 0.37599 0.36588 0.0
C2519 C 0.36323 0.40496 0.38508 0.0
C2520 C 0.36753 0.41738 0.40535 0.0
C2521 C 0.40222 0.41783 0.41752 0.0
C2522 C 0.40492 0.42845 0.43761 0.0
C2523 C 0.37316 0.43874 0.44566 0.0
C2524 C 0.33885 0.43861 0.43344 0.0
C2525 C 0.33601 0.42799 0.4133 0.0
H2526 H 0.3753 0.44695 0.46125 0.0
H2527 H 0.34639 0.33528 0.27327 0.0
loop_
_geom_bond_atom_site_label_1
_geom_bond_atom_site_label_2
_geom_bond_distance
_geom_bond_site_symmetry_2
_ccdc_geom_bond_type
Co0 N4 2.148 . S
Co0 N10 2.128 . S
Co0 N20 2.194 . S
Co0 O25 2.351 . S
Co0 O26 2.155 . S
Co0 O27 2.096 . S
C1 N4 1.301 . S
C1 N5 1.328 . S
C1 H6 0.930 . S
C2 C3 1.333 . S
C2 N4 1.317 . S
C2 H7 0.930 . S
C3 C2 1.333 . S
C3 N5 1.350 . S
C3 H29 0.931 . S
N4 Co0 2.148 . S
N4 C1 1.301 . S
N4 C2 1.317 . S
N5 C1 1.328 . S
N5 C3 1.350 . S
H6 C1 0.930 . S
H7 C2 0.930 . S
C8 O9 1.224 . S
C8 O27 1.247 . S
O9 C8 1.224 . S
N10 Co0 2.128 . S
N10 C11 1.355 . S
N10 C13 1.311 . S
C11 N10 1.355 . S
C11 C12 1.363 . S
C11 H23 0.929 . S
C12 C11 1.363 . S
C12 N14 1.375 . S
C12 H30 0.931 . S
C13 N10 1.311 . S
C13 N14 1.347 . S
C13 H24 0.929 . S
N14 C12 1.375 . S
N14 C13 1.347 . S
C15 C18 1.365 1_455 S
C15 N20 1.328 . S
C15 H21 0.929 . S
C16 C17 1.362 1_455 S
C16 C19 1.378 . S
C16 H31 0.929 . S
C17 C16 1.362 1_655 S
C17 C18 1.366 . S
C18 C15 1.365 1_655 S
C18 C17 1.366 . S
C18 H32 0.930 . S
C19 C16 1.378 . S
C19 N20 1.315 . S
C19 H22 0.930 . S
N20 Co0 2.194 . S
N20 C15 1.328 . S
N20 C19 1.315 . S
H21 C15 0.929 . S
H22 C19 0.930 . S
H23 C11 0.929 . S
H24 C13 0.929 . S
O25 Co0 2.351 . S
O25 C28 1.244 . S
O26 Co0 2.155 . S
O26 C28 1.240 . S
O27 Co0 2.096 . S
O27 C8 1.247 . S
C28 O25 1.244 . S
C28 O26 1.240 . S
H29 C3 0.931 . S
H30 C12 0.931 . S
H31 C16 0.929 . S
H32 C18 0.930 . S
Co33 N37 2.148 . S
Co33 N43 2.128 . S
Co33 N53 2.194 . S
Co33 O58 2.351 . S
Co33 O59 2.155 . S
Co33 O60 2.096 . S
C34 N37 1.301 . S
C34 N38 1.328 . S
C34 H39 0.930 . S
C35 C36 1.333 . S
C35 N37 1.317 . S
C35 H40 0.930 . S
C36 C35 1.333 . S
C36 N38 1.350 . S
C36 H62 0.931 . S
N37 Co33 2.148 . S
N37 C34 1.301 . S
N37 C35 1.317 . S
N38 C34 1.328 . S
N38 C36 1.350 . S
H39 C34 0.930 . S
H40 C35 0.930 . S
C41 O42 1.224 . S
C41 O60 1.247 . S
O42 C41 1.224 . S
N43 Co33 2.128 . S
N43 C44 1.355 . S
N43 C46 1.311 . S
C44 N43 1.355 . S
C44 C45 1.363 . S
C44 H56 0.929 . S
C45 C44 1.363 . S
C45 N47 1.375 . S
C45 H63 0.931 . S
C46 N43 1.311 . S
C46 N47 1.347 . S
C46 H57 0.929 . S
N47 C45 1.375 . S
N47 C46 1.347 . S
C48 C51 1.365 1_455 S
C48 N53 1.328 . S
C48 H54 0.929 . S
C49 C50 1.362 1_455 S
C49 C52 1.378 . S
C49 H64 0.929 . S
C50 C49 1.362 1_655 S
C50 C51 1.366 . S
C51 C48 1.365 1_655 S
C51 C50 1.366 . S
C51 H65 0.930 . S
C52 C49 1.378 . S
C52 N53 1.315 . S
C52 H55 0.930 . S
N53 Co33 2.194 . S
N53 C48 1.328 . S
N53 C52 1.315 . S
H54 C48 0.929 . S
H55 C52 0.930 . S
H56 C44 0.929 . S
H57 C46 0.929 . S
O58 Co33 2.351 . S
O58 C61 1.244 . S
O59 Co33 2.155 . S
O59 C61 1.240 . S
O60 Co33 2.096 . S
O60 C41 1.247 . S
C61 O58 1.244 . S
C61 O59 1.240 . S
H62 C36 0.931 . S
H63 C45 0.931 . S
H64 C49 0.929 . S
H65 C51 0.930 . S
Co66 N70 2.148 . S
Co66 N76 2.128 . S
Co66 N86 2.194 . S
Co66 O91 2.351 . S
Co66 O92 2.155 . S
Co66 O93 2.096 . S
C67 N70 1.301 . S
C67 N71 1.328 . S
C67 H72 0.930 . S
C68 C69 1.333 . S
C68 N70 1.317 . S
C68 H73 0.930 . S
C69 C68 1.333 . S
C69 N71 1.350 . S
C69 H95 0.931 . S
N70 Co66 2.148 . S
N70 C67 1.301 . S
N70 C68 1.317 . S
N71 C67 1.328 . S
N71 C69 1.350 . S
H72 C67 0.930 . S
H73 C68 0.930 . S
C74 O75 1.224 . S
C74 O93 1.247 . S
O75 C74 1.224 . S
N76 Co66 2.128 . S
N76 C77 1.355 . S
N76 C79 1.311 . S
C77 N76 1.355 . S
C77 C78 1.363 . S
C77 H89 0.929 . S
C78 C77 1.363 . S
C78 N80 1.375 . S
C78 H96 0.931 . S
C79 N76 1.311 . S
C79 N80 1.347 . S
C79 H90 0.929 . S
N80 C78 1.375 . S
N80 C79 1.347 . S
C81 C84 1.365 1_655 S
C81 N86 1.328 . S
C81 H87 0.929 . S
C82 C83 1.362 1_655 S
C82 C85 1.378 . S
C82 H97 0.929 . S
C83 C82 1.362 1_455 S
C83 C84 1.366 . S
C84 C81 1.365 1_455 S
C84 C83 1.366 . S
C84 H98 0.930 . S
C85 C82 1.378 . S
C85 N86 1.315 . S
C85 H88 0.930 . S
N86 Co66 2.194 . S
N86 C81 1.328 . S
N86 C85 1.315 . S
H87 C81 0.929 . S
H88 C85 0.930 . S
H89 C77 0.929 . S
H90 C79 0.929 . S
O91 Co66 2.351 . S
O91 C94 1.244 . S
O92 Co66 2.155 . S
O92 C94 1.240 . S
O93 Co66 2.096 . S
O93 C74 1.247 . S
C94 O91 1.244 . S
C94 O92 1.240 . S
H95 C69 0.931 . S
H96 C78 0.931 . S
H97 C82 0.929 . S
H98 C84 0.930 . S
Co99 N103 2.148 . S
Co99 N109 2.128 . S
Co99 N119 2.194 . S
Co99 O124 2.351 . S
Co99 O125 2.155 . S
Co99 O126 2.096 . S
C100 N103 1.301 . S
C100 N104 1.328 . S
C100 H105 0.930 . S
C101 C102 1.333 . S
C101 N103 1.317 . S
C101 H106 0.930 . S
C102 C101 1.333 . S
C102 N104 1.350 . S
C102 H128 0.931 . S
N103 Co99 2.148 . S
N103 C100 1.301 . S
N103 C101 1.317 . S
N104 C100 1.328 . S
N104 C102 1.350 . S
H105 C100 0.930 . S
H106 C101 0.930 . S
C107 O108 1.224 . S
C107 O126 1.247 . S
O108 C107 1.224 . S
N109 Co99 2.128 . S
N109 C110 1.355 . S
N109 C112 1.311 . S
C110 N109 1.355 . S
C110 C111 1.363 . S
C110 H122 0.929 . S
C111 C110 1.363 . S
C111 N113 1.375 . S
C111 H129 0.931 . S
C112 N109 1.311 . S
C112 N113 1.347 . S
C112 H123 0.929 . S
N113 C111 1.375 . S
N113 C112 1.347 . S
C114 C117 1.365 1_655 S
C114 N119 1.328 . S
C114 H120 0.929 . S
C115 C116 1.362 1_655 S
C115 C118 1.378 . S
C115 H130 0.929 . S
C116 C115 1.362 1_455 S
C116 C117 1.366 . S
C117 C114 1.365 1_455 S
C117 C116 1.366 . S
C117 H131 0.930 . S
C118 C115 1.378 . S
C118 N119 1.315 . S
C118 H121 0.930 . S
N119 Co99 2.194 . S
N119 C114 1.328 . S
N119 C118 1.315 . S
H120 C114 0.929 . S
H121 C118 0.930 . S
H122 C110 0.929 . S
H123 C112 0.929 . S
O124 Co99 2.351 . S
O124 C127 1.244 . S
O125 Co99 2.155 . S
O125 C127 1.240 . S
O126 Co99 2.096 . S
O126 C107 1.247 . S
C127 O124 1.244 . S
C127 O125 1.240 . S
H128 C102 0.931 . S
H129 C111 0.931 . S
H130 C115 0.929 . S
H131 C117 0.930 . S
Co132 N136 2.148 . S
Co132 N142 2.128 . S
Co132 N152 2.194 . S
Co132 O157 2.351 1_556 S
Co132 O158 2.155 1_556 S
Co132 O159 2.096 . S
C133 N136 1.301 . S
C133 N137 1.328 . S
C133 H138 0.930 . S
C134 C135 1.333 . S
C134 N136 1.317 . S
C134 H139 0.930 . S
C135 C134 1.333 . S
C135 N137 1.350 . S
C135 H161 0.931 . S
N136 Co132 2.148 . S
N136 C133 1.301 . S
N136 C134 1.317 . S
N137 C133 1.328 . S
N137 C135 1.350 . S
H138 C133 0.930 . S
H139 C134 0.930 . S
C140 O141 1.224 . S
C140 O159 1.247 . S
O141 C140 1.224 . S
N142 Co132 2.128 . S
N142 C143 1.355 . S
N142 C145 1.311 . S
C143 N142 1.355 . S
C143 C144 1.363 . S
C143 H155 0.929 . S
C144 C143 1.363 . S
C144 N146 1.375 . S
C144 H162 0.931 . S
C145 N142 1.311 . S
C145 N146 1.347 . S
C145 H156 0.929 . S
N146 C144 1.375 . S
N146 C145 1.347 . S
C147 C150 1.365 1_455 S
C147 N152 1.328 . S
C147 H153 0.929 . S
C148 C149 1.362 1_455 S
C148 C151 1.378 . S
C148 H163 0.929 . S
C149 C148 1.362 1_655 S
C149 C150 1.366 . S
C150 C147 1.365 1_655 S
C150 C149 1.366 . S
C150 H164 0.930 . S
C151 C148 1.378 . S
C151 N152 1.315 . S
C151 H154 0.930 . S
N152 Co132 2.194 . S
N152 C147 1.328 . S
N152 C151 1.315 . S
H153 C147 0.929 . S
H154 C151 0.930 . S
H155 C143 0.929 . S
H156 C145 0.929 . S
O157 Co132 2.351 1_554 S
O157 C160 1.244 . S
O158 Co132 2.155 1_554 S
O158 C160 1.240 . S
O159 Co132 2.096 . S
O159 C140 1.247 . S
C160 O157 1.244 . S
C160 O158 1.240 . S
H161 C135 0.931 . S
H162 C144 0.931 . S
H163 C148 0.929 . S
H164 C150 0.930 . S
Co165 N169 2.148 . S
Co165 N175 2.128 . S
Co165 N185 2.194 . S
Co165 O190 2.351 . S
Co165 O191 2.155 . S
Co165 O192 2.096 . S
C166 N169 1.301 . S
C166 N170 1.328 . S
C166 H171 0.930 . S
C167 C168 1.333 . S
C167 N169 1.317 . S
C167 H172 0.930 . S
C168 C167 1.333 . S
C168 N170 1.350 . S
C168 H194 0.931 . S
N169 Co165 2.148 . S
N169 C166 1.301 . S
N169 C167 1.317 . S
N170 C166 1.328 . S
N170 C168 1.350 . S
H171 C166 0.930 . S
H172 C167 0.930 . S
C173 O174 1.224 . S
C173 O192 1.247 . S
O174 C173 1.224 . S
N175 Co165 2.128 . S
N175 C176 1.355 . S
N175 C178 1.311 . S
C176 N175 1.355 . S
C176 C177 1.363 . S
C176 H188 0.929 . S
C177 C176 1.363 . S
C177 N179 1.375 . S
C177 H195 0.931 . S
C178 N175 1.311 . S
C178 N179 1.347 . S
C178 H189 0.929 . S
N179 C177 1.375 . S
N179 C178 1.347 . S
C180 C183 1.365 1_455 S
C180 N185 1.328 . S
C180 H186 0.929 . S
C181 C182 1.362 1_455 S
C181 C184 1.378 . S
C181 H196 0.929 . S
C182 C181 1.362 1_655 S
C182 C183 1.366 . S
C183 C180 1.365 1_655 S
C183 C182 1.366 . S
C183 H197 0.930 . S
C184 C181 1.378 . S
C184 N185 1.315 . S
C184 H187 0.930 . S
N185 Co165 2.194 . S
N185 C180 1.328 . S
N185 C184 1.315 . S
H186 C180 0.929 . S
H187 C184 0.930 . S
H188 C176 0.929 . S
H189 C178 0.929 . S
O190 Co165 2.351 . S
O190 C193 1.244 . S
O191 Co165 2.155 . S
O191 C193 1.240 . S
O192 Co165 2.096 . S
O192 C173 1.247 . S
C193 O190 1.244 . S
C193 O191 1.240 . S
H194 C168 0.931 . S
H195 C177 0.931 . S
H196 C181 0.929 . S
H197 C183 0.930 . S
Co198 N202 2.148 . S
Co198 N208 2.128 . S
Co198 N218 2.194 . S
Co198 O223 2.351 1_554 S
Co198 O224 2.155 1_554 S
Co198 O225 2.096 . S
C199 N202 1.301 . S
C199 N203 1.328 . S
C199 H204 0.930 . S
C200 C201 1.333 . S
C200 N202 1.317 . S
C200 H205 0.930 . S
C201 C200 1.333 . S
C201 N203 1.350 . S
C201 H227 0.931 . S
N202 Co198 2.148 . S
N202 C199 1.301 . S
N202 C200 1.317 . S
N203 C199 1.328 . S
N203 C201 1.350 . S
H204 C199 0.930 . S
H205 C200 0.930 . S
C206 O207 1.224 . S
C206 O225 1.247 . S
O207 C206 1.224 . S
N208 Co198 2.128 . S
N208 C209 1.355 . S
N208 C211 1.311 . S
C209 N208 1.355 . S
C209 C210 1.363 . S
C209 H221 0.929 . S
C210 C209 1.363 . S
C210 N212 1.375 . S
C210 H228 0.931 . S
C211 N208 1.311 . S
C211 N212 1.347 . S
C211 H222 0.929 . S
N212 C210 1.375 . S
N212 C211 1.347 . S
C213 C216 1.365 1_655 S
C213 N218 1.328 . S
C213 H219 0.929 . S
C214 C215 1.362 1_655 S
C214 C217 1.378 . S
C214 H229 0.929 . S
C215 C214 1.362 1_455 S
C215 C216 1.366 . S
C216 C213 1.365 1_455 S
C216 C215 1.366 . S
C216 H230 0.930 . S
C217 C214 1.378 . S
C217 N218 1.315 . S
C217 H220 0.930 . S
N218 Co198 2.194 . S
N218 C213 1.328 . S
N218 C217 1.315 . S
H219 C213 0.929 . S
H220 C217 0.930 . S
H221 C209 0.929 . S
H222 C211 0.929 . S
O223 Co198 2.351 1_556 S
O223 C226 1.244 . S
O224 Co198 2.155 1_556 S
O224 C226 1.240 . S
O225 Co198 2.096 . S
O225 C206 1.247 . S
C226 O223 1.244 . S
C226 O224 1.240 . S
H227 C201 0.931 . S
H228 C210 0.931 . S
H229 C214 0.929 . S
H230 C216 0.930 . S
Co231 N235 2.148 . S
Co231 N241 2.128 . S
Co231 N251 2.194 . S
Co231 O256 2.351 . S
Co231 O257 2.155 . S
Co231 O258 2.096 . S
C232 N235 1.301 . S
C232 N236 1.328 . S
C232 H237 0.930 . S
C233 C234 1.333 . S
C233 N235 1.317 . S
C233 H238 0.930 . S
C234 C233 1.333 . S
C234 N236 1.350 . S
C234 H260 0.931 . S
N235 Co231 2.148 . S
N235 C232 1.301 . S
N235 C233 1.317 . S
N236 C232 1.328 . S
N236 C234 1.350 . S
H237 C232 0.930 . S
H238 C233 0.930 . S
C239 O240 1.224 . S
C239 O258 1.247 . S
O240 C239 1.224 . S
N241 Co231 2.128 . S
N241 C242 1.355 . S
N241 C244 1.311 . S
C242 N241 1.355 . S
C242 C243 1.363 . S
C242 H254 0.929 . S
C243 C242 1.363 . S
C243 N245 1.375 . S
C243 H261 0.931 . S
C244 N241 1.311 . S
C244 N245 1.347 . S
C244 H255 0.929 . S
N245 C243 1.375 . S
N245 C244 1.347 . S
C246 C249 1.365 1_655 S
C246 N251 1.328 . S
C246 H252 0.929 . S
C247 C248 1.362 1_655 S
C247 C250 1.378 . S
C247 H262 0.929 . S
C248 C247 1.362 1_455 S
C248 C249 1.366 . S
C249 C246 1.365 1_455 S
C249 C248 1.366 . S
C249 H263 0.930 . S
C250 C247 1.378 . S
C250 N251 1.315 . S
C250 H253 0.930 . S
N251 Co231 2.194 . S
N251 C246 1.328 . S
N251 C250 1.315 . S
H252 C246 0.929 . S
H253 C250 0.930 . S
H254 C242 0.929 . S
H255 C244 0.929 . S
O256 Co231 2.351 . S
O256 C259 1.244 . S
O257 Co231 2.155 . S
O257 C259 1.240 . S
O258 Co231 2.096 . S
O258 C239 1.247 . S
C259 O256 1.244 . S
C259 O257 1.240 . S
H260 C234 0.931 . S
H261 C243 0.931 . S
H262 C247 0.929 . S
H263 C249 0.930 . S
Co264 N268 2.148 . S
Co264 N274 2.128 . S
Co264 N284 2.194 . S
Co264 O289 2.351 1_556 S
Co264 O290 2.155 1_556 S
Co264 O291 2.096 . S
C265 N268 1.301 . S
C265 N269 1.328 . S
C265 H270 0.930 . S
C266 C267 1.333 . S
C266 N268 1.317 . S
C266 H271 0.930 . S
C267 C266 1.333 . S
C267 N269 1.350 . S
C267 H293 0.931 . S
N268 Co264 2.148 . S
N268 C265 1.301 . S
N268 C266 1.317 . S
N269 C265 1.328 . S
N269 C267 1.350 . S
H270 C265 0.930 . S
H271 C266 0.930 . S
C272 O273 1.224 . S
C272 O291 1.247 . S
O273 C272 1.224 . S
N274 Co264 2.128 . S
N274 C275 1.355 . S
N274 C277 1.311 . S
C275 N274 1.355 . S
C275 C276 1.363 . S
C275 H287 0.929 . S
C276 C275 1.363 . S
C276 N278 1.375 . S
C276 H294 0.931 . S
C277 N274 1.311 . S
C277 N278 1.347 . S
C277 H288 0.929 . S
N278 C276 1.375 . S
N278 C277 1.347 . S
C279 C282 1.365 . S
C279 N284 1.328 . S
C279 H285 0.929 . S
C280 C281 1.362 . S
C280 C283 1.378 . S
C280 H295 0.929 . S
C281 C280 1.362 . S
C281 C282 1.366 . S
C282 C279 1.365 . S
C282 C281 1.366 . S
C282 H296 0.930 . S
C283 C280 1.378 . S
C283 N284 1.315 . S
C283 H286 0.930 . S
N284 Co264 2.194 . S
N284 C279 1.328 . S
N284 C283 1.315 . S
H285 C279 0.929 . S
H286 C283 0.930 . S
H287 C275 0.929 . S
H288 C277 0.929 . S
O289 Co264 2.351 1_554 S
O289 C292 1.244 . S
O290 Co264 2.155 1_554 S
O290 C292 1.240 . S
O291 Co264 2.096 . S
O291 C272 1.247 . S
C292 O289 1.244 . S
C292 O290 1.240 . S
H293 C267 0.931 . S
H294 C276 0.931 . S
H295 C280 0.929 . S
H296 C282 0.930 . S
Co297 N301 2.148 . S
Co297 N307 2.128 . S
Co297 N317 2.194 . S
Co297 O322 2.351 . S
Co297 O323 2.155 . S
Co297 O324 2.096 . S
C298 N301 1.301 . S
C298 N302 1.328 . S
C298 H303 0.930 . S
C299 C300 1.333 . S
C299 N301 1.317 . S
C299 H304 0.930 . S
C300 C299 1.333 . S
C300 N302 1.350 . S
C300 H326 0.931 . S
N301 Co297 2.148 . S
N301 C298 1.301 . S
N301 C299 1.317 . S
N302 C298 1.328 . S
N302 C300 1.350 . S
H303 C298 0.930 . S
H304 C299 0.930 . S
C305 O306 1.224 . S
C305 O324 1.247 . S
O306 C305 1.224 . S
N307 Co297 2.128 . S
N307 C308 1.355 . S
N307 C310 1.311 . S
C308 N307 1.355 . S
C308 C309 1.363 . S
C308 H320 0.929 . S
C309 C308 1.363 . S
C309 N311 1.375 . S
C309 H327 0.931 . S
C310 N307 1.311 . S
C310 N311 1.347 . S
C310 H321 0.929 . S
N311 C309 1.375 . S
N311 C310 1.347 . S
C312 C315 1.365 . S
C312 N317 1.328 . S
C312 H318 0.929 . S
C313 C314 1.362 . S
C313 C316 1.378 . S
C313 H328 0.929 . S
C314 C313 1.362 . S
C314 C315 1.366 . S
C315 C312 1.365 . S
C315 C314 1.366 . S
C315 H329 0.930 . S
C316 C313 1.378 . S
C316 N317 1.315 . S
C316 H319 0.930 . S
N317 Co297 2.194 . S
N317 C312 1.328 . S
N317 C316 1.315 . S
H318 C312 0.929 . S
H319 C316 0.930 . S
H320 C308 0.929 . S
H321 C310 0.929 . S
O322 Co297 2.351 . S
O322 C325 1.244 . S
O323 Co297 2.155 . S
O323 C325 1.240 . S
O324 Co297 2.096 . S
O324 C305 1.247 . S
C325 O322 1.244 . S
C325 O323 1.240 . S
H326 C300 0.931 . S
H327 C309 0.931 . S
H328 C313 0.929 . S
H329 C315 0.930 . S
Co330 N334 2.148 . S
Co330 N340 2.128 . S
Co330 N350 2.194 . S
Co330 O355 2.351 1_554 S
Co330 O356 2.155 1_554 S
Co330 O357 2.096 . S
C331 N334 1.301 . S
C331 N335 1.328 . S
C331 H336 0.930 . S
C332 C333 1.333 . S
C332 N334 1.317 . S
C332 H337 0.930 . S
C333 C332 1.333 . S
C333 N335 1.350 . S
C333 H359 0.931 . S
N334 Co330 2.148 . S
N334 C331 1.301 . S
N334 C332 1.317 . S
N335 C331 1.328 . S
N335 C333 1.350 . S
H336 C331 0.930 . S
H337 C332 0.930 . S
C338 O339 1.224 . S
C338 O357 1.247 . S
O339 C338 1.224 . S
N340 Co330 2.128 . S
N340 C341 1.355 . S
N340 C343 1.311 . S
C341 N340 1.355 . S
C341 C342 1.363 . S
C341 H353 0.929 . S
C342 C341 1.363 . S
C342 N344 1.375 . S
C342 H360 0.931 . S
C343 N340 1.311 . S
C343 N344 1.347 . S
C343 H354 0.929 . S
N344 C342 1.375 . S
N344 C343 1.347 . S
C345 C348 1.365 . S
C345 N350 1.328 . S
C345 H351 0.929 . S
C346 C347 1.362 . S
C346 C349 1.378 . S
C346 H361 0.929 . S
C347 C346 1.362 . S
C347 C348 1.366 . S
C348 C345 1.365 . S
C348 C347 1.366 . S
C348 H362 0.930 . S
C349 C346 1.378 . S
C349 N350 1.315 . S
C349 H352 0.930 . S
N350 Co330 2.194 . S
N350 C345 1.328 . S
N350 C349 1.315 . S
H351 C345 0.929 . S
H352 C349 0.930 . S
H353 C341 0.929 . S
H354 C343 0.929 . S
O355 Co330 2.351 1_556 S
O355 C358 1.244 . S
O356 Co330 2.155 1_556 S
O356 C358 1.240 . S
O357 Co330 2.096 . S
O357 C338 1.247 . S
C358 O355 1.244 . S
C358 O356 1.240 . S
H359 C333 0.931 . S
H360 C342 0.931 . S
H361 C346 0.929 . S
H362 C348 0.930 . S
Co363 N367 2.148 . S
Co363 N373 2.128 . S
Co363 N383 2.194 . S
Co363 O388 2.351 . S
Co363 O389 2.155 . S
Co363 O390 2.096 . S
C364 N367 1.301 . S
C364 N368 1.328 . S
C364 H369 0.930 . S
C365 C366 1.333 . S
C365 N367 1.317 . S
C365 H370 0.930 . S
C366 C365 1.333 . S
C366 N368 1.350 . S
C366 H392 0.931 . S
N367 Co363 2.148 . S
N367 C364 1.301 . S
N367 C365 1.317 . S
N368 C364 1.328 . S
N368 C366 1.350 . S
H369 C364 0.930 . S
H370 C365 0.930 . S
C371 O372 1.224 . S
C371 O390 1.247 . S
O372 C371 1.224 . S
N373 Co363 2.128 . S
N373 C374 1.355 . S
N373 C376 1.311 . S
C374 N373 1.355 . S
C374 C375 1.363 . S
C374 H386 0.929 . S
C375 C374 1.363 . S
C375 N377 1.375 . S
C375 H393 0.931 . S
C376 N373 1.311 . S
C376 N377 1.347 . S
C376 H387 0.929 . S
N377 C375 1.375 . S
N377 C376 1.347 . S
C378 C381 1.365 . S
C378 N383 1.328 . S
C378 H384 0.929 . S
C379 C380 1.362 . S
C379 C382 1.378 . S
C379 H394 0.929 . S
C380 C379 1.362 . S
C380 C381 1.366 . S
C381 C378 1.365 . S
C381 C380 1.366 . S
C381 H395 0.930 . S
C382 C379 1.378 . S
C382 N383 1.315 . S
C382 H385 0.930 . S
N383 Co363 2.194 . S
N383 C378 1.328 . S
N383 C382 1.315 . S
H384 C378 0.929 . S
H385 C382 0.930 . S
H386 C374 0.929 . S
H387 C376 0.929 . S
O388 Co363 2.351 . S
O388 C391 1.244 . S
O389 Co363 2.155 . S
O389 C391 1.240 . S
O390 Co363 2.096 . S
O390 C371 1.247 . S
C391 O388 1.244 . S
C391 O389 1.240 . S
H392 C366 0.931 . S
H393 C375 0.931 . S
H394 C379 0.929 . S
H395 C381 0.930 . S
Co396 N400 2.148 . S
Co396 N406 2.128 . S
Co396 N416 2.194 . S
Co396 O421 2.351 . S
Co396 O422 2.155 . S
Co396 O423 2.096 . S
C397 N400 1.301 . S
C397 N401 1.328 . S
C397 H402 0.930 . S
C398 C399 1.333 . S
C398 N400 1.317 . S
C398 H403 0.930 . S
C399 C398 1.333 . S
C399 N401 1.350 . S
C399 H425 0.931 . S
N400 Co396 2.148 . S
N400 C397 1.301 . S
N400 C398 1.317 . S
N401 C397 1.328 . S
N401 C399 1.350 . S
H402 C397 0.930 . S
H403 C398 0.930 . S
C404 O405 1.224 . S
C404 O423 1.247 . S
O405 C404 1.224 . S
N406 Co396 2.128 . S
N406 C407 1.355 . S
N406 C409 1.311 . S
C407 N406 1.355 . S
C407 C408 1.363 . S
C407 H419 0.929 . S
C408 C407 1.363 . S
C408 N410 1.375 . S
C408 H426 0.931 . S
C409 N406 1.311 . S
C409 N410 1.347 . S
C409 H420 0.929 . S
N410 C408 1.375 . S
N410 C409 1.347 . S
C411 C414 1.365 . S
C411 N416 1.328 . S
C411 H417 0.929 . S
C412 C413 1.362 . S
C412 C415 1.378 . S
C412 H427 0.929 . S
C413 C412 1.362 . S
C413 C414 1.366 . S
C414 C411 1.365 . S
C414 C413 1.366 . S
C414 H428 0.930 . S
C415 C412 1.378 . S
C415 N416 1.315 . S
C415 H418 0.930 . S
N416 Co396 2.194 . S
N416 C411 1.328 . S
N416 C415 1.315 . S
H417 C411 0.929 . S
H418 C415 0.930 . S
H419 C407 0.929 . S
H420 C409 0.929 . S
O421 Co396 2.351 . S
O421 C424 1.244 . S
O422 Co396 2.155 . S
O422 C424 1.240 . S
O423 Co396 2.096 . S
O423 C404 1.247 . S
C424 O421 1.244 . S
C424 O422 1.240 . S
H425 C399 0.931 . S
H426 C408 0.931 . S
H427 C412 0.929 . S
H428 C414 0.930 . S
Co429 N433 2.148 . S
Co429 N439 2.128 . S
Co429 N449 2.194 . S
Co429 O454 2.351 . S
Co429 O455 2.155 . S
Co429 O456 2.096 . S
C430 N433 1.301 . S
C430 N434 1.328 . S
C430 H435 0.930 . S
C431 C432 1.333 . S
C431 N433 1.317 . S
C431 H436 0.930 . S
C432 C431 1.333 . S
C432 N434 1.350 . S
C432 H458 0.931 . S
N433 Co429 2.148 . S
N433 C430 1.301 . S
N433 C431 1.317 . S
N434 C430 1.328 . S
N434 C432 1.350 . S
H435 C430 0.930 . S
H436 C431 0.930 . S
C437 O438 1.224 . S
C437 O456 1.247 . S
O438 C437 1.224 . S
N439 Co429 2.128 . S
N439 C440 1.355 . S
N439 C442 1.311 . S
C440 N439 1.355 . S
C440 C441 1.363 . S
C440 H452 0.929 . S
C441 C440 1.363 . S
C441 N443 1.375 . S
C441 H459 0.931 . S
C442 N439 1.311 . S
C442 N443 1.347 . S
C442 H453 0.929 . S
N443 C441 1.375 . S
N443 C442 1.347 . S
C444 C447 1.365 . S
C444 N449 1.328 . S
C444 H450 0.929 . S
C445 C446 1.362 . S
C445 C448 1.378 . S
C445 H460 0.929 . S
C446 C445 1.362 . S
C446 C447 1.366 . S
C447 C444 1.365 . S
C447 C446 1.366 . S
C447 H461 0.930 . S
C448 C445 1.378 . S
C448 N449 1.315 . S
C448 H451 0.930 . S
N449 Co429 2.194 . S
N449 C444 1.328 . S
N449 C448 1.315 . S
H450 C444 0.929 . S
H451 C448 0.930 . S
H452 C440 0.929 . S
H453 C442 0.929 . S
O454 Co429 2.351 . S
O454 C457 1.244 . S
O455 Co429 2.155 . S
O455 C457 1.240 . S
O456 Co429 2.096 . S
O456 C437 1.247 . S
C457 O454 1.244 . S
C457 O455 1.240 . S
H458 C432 0.931 . S
H459 C441 0.931 . S
H460 C445 0.929 . S
H461 C447 0.930 . S
Co462 N466 2.148 . S
Co462 N472 2.128 . S
Co462 N482 2.194 . S
Co462 O487 2.351 . S
Co462 O488 2.155 . S
Co462 O489 2.096 . S
C463 N466 1.301 . S
C463 N467 1.328 . S
C463 H468 0.930 . S
C464 C465 1.333 . S
C464 N466 1.317 . S
C464 H469 0.930 . S
C465 C464 1.333 . S
C465 N467 1.350 . S
C465 H491 0.931 . S
N466 Co462 2.148 . S
N466 C463 1.301 . S
N466 C464 1.317 . S
N467 C463 1.328 . S
N467 C465 1.350 . S
H468 C463 0.930 . S
H469 C464 0.930 . S
C470 O471 1.224 . S
C470 O489 1.247 . S
O471 C470 1.224 . S
N472 Co462 2.128 . S
N472 C473 1.355 . S
N472 C475 1.311 . S
C473 N472 1.355 . S
C473 C474 1.363 . S
C473 H485 0.929 . S
C474 C473 1.363 . S
C474 N476 1.375 . S
C474 H492 0.931 . S
C475 N472 1.311 . S
C475 N476 1.347 . S
C475 H486 0.929 . S
N476 C474 1.375 . S
N476 C475 1.347 . S
C477 C480 1.365 . S
C477 N482 1.328 . S
C477 H483 0.929 . S
C478 C479 1.362 . S
C478 C481 1.378 . S
C478 H493 0.929 . S
C479 C478 1.362 . S
C479 C480 1.366 . S
C480 C477 1.365 . S
C480 C479 1.366 . S
C480 H494 0.930 . S
C481 C478 1.378 . S
C481 N482 1.315 . S
C481 H484 0.930 . S
N482 Co462 2.194 . S
N482 C477 1.328 . S
N482 C481 1.315 . S
H483 C477 0.929 . S
H484 C481 0.930 . S
H485 C473 0.929 . S
H486 C475 0.929 . S
O487 Co462 2.351 . S
O487 C490 1.244 . S
O488 Co462 2.155 . S
O488 C490 1.240 . S
O489 Co462 2.096 . S
O489 C470 1.247 . S
C490 O487 1.244 . S
C490 O488 1.240 . S
H491 C465 0.931 . S
H492 C474 0.931 . S
H493 C478 0.929 . S
H494 C480 0.930 . S
Co495 N499 2.148 . S
Co495 N505 2.128 . S
Co495 N515 2.194 . S
Co495 O520 2.351 . S
Co495 O521 2.155 . S
Co495 O522 2.096 . S
C496 N499 1.301 . S
C496 N500 1.328 . S
C496 H501 0.930 . S
C497 C498 1.333 . S
C497 N499 1.317 . S
C497 H502 0.930 . S
C498 C497 1.333 . S
C498 N500 1.350 . S
C498 H524 0.931 . S
N499 Co495 2.148 . S
N499 C496 1.301 . S
N499 C497 1.317 . S
N500 C496 1.328 . S
N500 C498 1.350 . S
H501 C496 0.930 . S
H502 C497 0.930 . S
C503 O504 1.224 . S
C503 O522 1.247 . S
O504 C503 1.224 . S
N505 Co495 2.128 . S
N505 C506 1.355 . S
N505 C508 1.311 . S
C506 N505 1.355 . S
C506 C507 1.363 . S
C506 H518 0.929 . S
C507 C506 1.363 . S
C507 N509 1.375 . S
C507 H525 0.931 . S
C508 N505 1.311 . S
C508 N509 1.347 . S
C508 H519 0.929 . S
N509 C507 1.375 . S
N509 C508 1.347 . S
C510 C513 1.365 . S
C510 N515 1.328 . S
C510 H516 0.929 . S
C511 C512 1.362 . S
C511 C514 1.378 . S
C511 H526 0.929 . S
C512 C511 1.362 . S
C512 C513 1.366 . S
C513 C510 1.365 . S
C513 C512 1.366 . S
C513 H527 0.930 . S
C514 C511 1.378 . S
C514 N515 1.315 . S
C514 H517 0.930 . S
N515 Co495 2.194 . S
N515 C510 1.328 . S
N515 C514 1.315 . S
H516 C510 0.929 . S
H517 C514 0.930 . S
H518 C506 0.929 . S
H519 C508 0.929 . S
O520 Co495 2.351 . S
O520 C523 1.244 . S
O521 Co495 2.155 . S
O521 C523 1.240 . S
O522 Co495 2.096 . S
O522 C503 1.247 . S
C523 O520 1.244 . S
C523 O521 1.240 . S
H524 C498 0.931 . S
H525 C507 0.931 . S
H526 C511 0.929 . S
H527 C513 0.930 . S
H528 C546 0.951 . S
H529 C548 0.951 . S
H530 C550 0.950 . S
H531 C551 0.950 . S
H532 C553 0.950 . S
H533 C556 0.950 . S
H534 C557 0.950 . S
H535 C559 0.950 . S
H536 C560 0.950 . S
H537 C561 0.951 . S
H538 C563 0.951 . S
H539 C565 0.950 . S
H540 C566 0.950 . S
H541 C568 0.950 . S
H542 C571 0.950 . S
H543 C572 0.950 . S
H544 C574 0.950 . S
H545 C575 0.950 . S
C546 H528 0.951 . S
C546 C547 1.366 . S
C546 C548 1.388 . S
C547 C546 1.366 . S
C547 C551 1.385 . S
C548 H529 0.951 . S
C548 C546 1.388 . S
C548 C549 1.366 . S
C549 C548 1.366 . S
C549 C550 1.414 . S
C549 C552 1.499 . S
C550 H530 0.950 . S
C550 C549 1.414 . S
C550 C551 1.374 . S
C551 H531 0.950 . S
C551 C547 1.385 . S
C551 C550 1.374 . S
C552 C549 1.499 . S
C552 C553 1.373 . S
C552 C554 1.389 . S
C553 H532 0.950 . S
C553 C552 1.373 . S
C553 C569 1.377 . S
C554 C552 1.389 . S
C554 C555 1.524 . S
C554 C568 1.377 . S
C555 C554 1.524 . S
C555 C556 1.397 . S
C555 C560 1.363 . S
C556 H533 0.950 . S
C556 C555 1.397 . S
C556 C557 1.334 . S
C557 H534 0.950 . S
C557 C556 1.334 . S
C557 C558 1.287 . S
C558 C557 1.287 . S
C558 C559 1.524 . S
C558 H577 0.913 . S
C559 H535 0.950 . S
C559 C558 1.524 . S
C559 C560 1.415 . S
C560 H536 0.950 . S
C560 C555 1.363 . S
C560 C559 1.415 . S
C561 H537 0.951 . S
C561 C562 1.366 . S
C561 C563 1.388 . S
C562 C561 1.366 . S
C562 C566 1.385 . S
C563 H538 0.951 . S
C563 C561 1.388 . S
C563 C564 1.366 . S
C564 C563 1.366 . S
C564 C565 1.414 . S
C564 C567 1.499 . S
C565 H539 0.950 . S
C565 C564 1.414 . S
C565 C566 1.374 . S
C566 H540 0.950 . S
C566 C562 1.385 . S
C566 C565 1.374 . S
C567 C564 1.499 . S
C567 C568 1.373 . S
C567 C569 1.389 . S
C568 H541 0.950 . S
C568 C554 1.377 . S
C568 C567 1.373 . S
C569 C553 1.377 . S
C569 C567 1.389 . S
C569 C570 1.524 . S
C570 C569 1.524 . S
C570 C571 1.397 . S
C570 C575 1.363 . S
C571 H542 0.950 . S
C571 C570 1.397 . S
C571 C572 1.334 . S
C572 H543 0.950 . S
C572 C571 1.334 . S
C572 C573 1.287 . S
C573 C572 1.287 . S
C573 C574 1.524 . S
C573 H576 0.999 . S
C574 H544 0.950 . S
C574 C573 1.524 . S
C574 C575 1.415 . S
C575 H545 0.950 . S
C575 C570 1.363 . S
C575 C574 1.415 . S
H576 C573 0.999 . S
H577 C558 0.913 . S
H578 C596 0.951 . S
H579 C598 0.951 1_455 S
H580 C600 0.950 . S
H581 C601 0.950 . S
H582 C603 0.950 . S
H583 C606 0.950 . S
H584 C607 0.972 . S
H585 C609 0.950 . S
H586 C610 0.950 1_455 S
H587 C611 0.951 . S
H588 C613 0.951 1_655 S
H589 C615 0.950 . S
H590 C616 0.950 . S
H591 C618 0.950 . S
H592 C621 0.950 . S
H593 C622 0.972 . S
H594 C624 0.950 . S
H595 C625 0.950 1_655 S
C596 H578 0.951 . S
C596 C597 1.366 . S
C596 C598 1.388 . S
C597 C596 1.366 . S
C597 C601 1.385 . S
C598 H579 0.951 1_655 S
C598 C596 1.388 . S
C598 C599 1.366 . S
C599 C598 1.366 . S
C599 C600 1.414 . S
C599 C602 1.499 . S
C600 H580 0.950 . S
C600 C599 1.414 . S
C600 C601 1.374 . S
C601 H581 0.950 . S
C601 C597 1.385 . S
C601 C600 1.374 . S
C602 C599 1.499 . S
C602 C603 1.373 . S
C602 C604 1.393 1_565 S
C603 H582 0.950 . S
C603 C602 1.373 . S
C603 C619 1.372 1_655 S
C604 C602 1.393 1_545 S
C604 C605 1.525 . S
C604 C618 1.372 1_655 S
C605 C604 1.525 . S
C605 C606 1.397 1_545 S
C605 C610 1.363 . S
C606 H583 0.950 . S
C606 C605 1.397 1_565 S
C606 C607 1.330 . S
C607 H584 0.972 . S
C607 C606 1.330 . S
C607 C608 1.273 1_565 S
C608 C607 1.273 1_545 S
C608 C609 1.524 . S
C608 H627 0.913 . S
C609 H585 0.950 . S
C609 C608 1.524 . S
C609 C610 1.415 . S
C610 H586 0.950 1_655 S
C610 C605 1.363 . S
C610 C609 1.415 . S
C611 H587 0.951 . S
C611 C612 1.366 . S
C611 C613 1.388 . S
C612 C611 1.366 . S
C612 C616 1.385 . S
C613 H588 0.951 1_455 S
C613 C611 1.388 . S
C613 C614 1.366 . S
C614 C613 1.366 . S
C614 C615 1.414 . S
C614 C617 1.499 . S
C615 H589 0.950 . S
C615 C614 1.414 . S
C615 C616 1.374 . S
C616 H590 0.950 . S
C616 C612 1.385 . S
C616 C615 1.374 . S
C617 C614 1.499 . S
C617 C618 1.373 . S
C617 C619 1.393 1_545 S
C618 H591 0.950 . S
C618 C604 1.372 1_455 S
C618 C617 1.373 . S
C619 C603 1.372 1_455 S
C619 C617 1.393 1_565 S
C619 C620 1.525 . S
C620 C619 1.525 . S
C620 C621 1.397 1_565 S
C620 C625 1.363 . S
C621 H592 0.950 . S
C621 C620 1.397 1_545 S
C621 C622 1.330 . S
C622 H593 0.972 . S
C622 C621 1.330 . S
C622 C623 1.273 1_545 S
C623 C622 1.273 1_565 S
C623 C624 1.524 . S
C623 H626 0.999 . S
C624 H594 0.950 . S
C624 C623 1.524 . S
C624 C625 1.415 . S
C625 H595 0.950 1_455 S
C625 C620 1.363 . S
C625 C624 1.415 . S
H626 C623 0.999 . S
H627 C608 0.913 . S
H628 C646 0.951 . S
H629 C648 0.951 . S
H630 C650 0.950 . S
H631 C651 0.950 . S
H632 C653 0.950 . S
H633 C656 0.950 . S
H634 C657 0.950 . S
H635 C659 0.950 . S
H636 C660 0.950 . S
H637 C661 0.951 . S
H638 C663 0.951 . S
H639 C665 0.950 . S
H640 C666 0.950 . S
H641 C668 0.950 . S
H642 C671 0.950 . S
H643 C672 0.950 . S
H644 C674 0.950 . S
H645 C675 0.950 . S
C646 H628 0.951 . S
C646 C647 1.366 . S
C646 C648 1.388 . S
C647 C646 1.366 . S
C647 C651 1.385 . S
C648 H629 0.951 . S
C648 C646 1.388 . S
C648 C649 1.366 . S
C649 C648 1.366 . S
C649 C650 1.414 . S
C649 C652 1.499 . S
C650 H630 0.950 . S
C650 C649 1.414 . S
C650 C651 1.374 . S
C651 H631 0.950 . S
C651 C647 1.385 . S
C651 C650 1.374 . S
C652 C649 1.499 . S
C652 C653 1.373 . S
C652 C654 1.389 . S
C653 H632 0.950 . S
C653 C652 1.373 . S
C653 C669 1.377 1_545 S
C654 C652 1.389 . S
C654 C655 1.524 . S
C654 C668 1.377 1_545 S
C655 C654 1.524 . S
C655 C656 1.397 . S
C655 C660 1.363 . S
C656 H633 0.950 . S
C656 C655 1.397 . S
C656 C657 1.334 . S
C657 H634 0.950 . S
C657 C656 1.334 . S
C657 C658 1.287 . S
C658 C657 1.287 . S
C658 C659 1.524 . S
C658 H677 0.913 . S
C659 H635 0.950 . S
C659 C658 1.524 . S
C659 C660 1.415 . S
C660 H636 0.950 . S
C660 C655 1.363 . S
C660 C659 1.415 . S
C661 H637 0.951 . S
C661 C662 1.366 . S
C661 C663 1.388 . S
C662 C661 1.366 . S
C662 C666 1.385 . S
C663 H638 0.951 . S
C663 C661 1.388 . S
C663 C664 1.366 . S
C664 C663 1.366 . S
C664 C665 1.414 . S
C664 C667 1.499 . S
C665 H639 0.950 . S
C665 C664 1.414 . S
C665 C666 1.374 . S
C666 H640 0.950 . S
C666 C662 1.385 . S
C666 C665 1.374 . S
C667 C664 1.499 . S
C667 C668 1.373 . S
C667 C669 1.389 . S
C668 H641 0.950 . S
C668 C654 1.377 1_565 S
C668 C667 1.373 . S
C669 C653 1.377 1_565 S
C669 C667 1.389 . S
C669 C670 1.524 . S
C670 C669 1.524 . S
C670 C671 1.397 . S
C670 C675 1.363 . S
C671 H642 0.950 . S
C671 C670 1.397 . S
C671 C672 1.334 . S
C672 H643 0.950 . S
C672 C671 1.334 . S
C672 C673 1.287 . S
C673 C672 1.287 . S
C673 C674 1.524 . S
C673 H676 0.999 . S
C674 H644 0.950 . S
C674 C673 1.524 . S
C674 C675 1.415 . S
C675 H645 0.950 . S
C675 C670 1.363 . S
C675 C674 1.415 . S
H676 C673 0.999 . S
H677 C658 0.913 . S
H678 C696 0.951 . S
H679 C698 0.951 1_455 S
H680 C700 0.950 . S
H681 C701 0.950 . S
H682 C703 0.950 . S
H683 C706 0.950 . S
H684 C707 0.950 . S
H685 C709 0.950 . S
H686 C710 0.950 1_455 S
H687 C711 0.951 . S
H688 C713 0.951 1_655 S
H689 C715 0.950 . S
H690 C716 0.950 . S
H691 C718 0.950 . S
H692 C721 0.950 . S
H693 C722 0.950 . S
H694 C724 0.950 . S
H695 C725 0.950 1_655 S
C696 H678 0.951 . S
C696 C697 1.366 . S
C696 C698 1.388 . S
C697 C696 1.366 . S
C697 C701 1.385 . S
C698 H679 0.951 1_655 S
C698 C696 1.388 . S
C698 C699 1.366 . S
C699 C698 1.366 . S
C699 C700 1.414 . S
C699 C702 1.499 . S
C700 H680 0.950 . S
C700 C699 1.414 . S
C700 C701 1.374 . S
C701 H681 0.950 . S
C701 C697 1.385 . S
C701 C700 1.374 . S
C702 C699 1.499 . S
C702 C703 1.373 . S
C702 C704 1.389 . S
C703 H682 0.950 . S
C703 C702 1.373 . S
C703 C719 1.377 1_655 S
C704 C702 1.389 . S
C704 C705 1.524 . S
C704 C718 1.377 1_655 S
C705 C704 1.524 . S
C705 C706 1.397 . S
C705 C710 1.363 . S
C706 H683 0.950 . S
C706 C705 1.397 . S
C706 C707 1.334 . S
C707 H684 0.950 . S
C707 C706 1.334 . S
C707 C708 1.287 . S
C708 C707 1.287 . S
C708 C709 1.524 . S
C708 H727 0.913 . S
C709 H685 0.950 . S
C709 C708 1.524 . S
C709 C710 1.415 . S
C710 H686 0.950 1_655 S
C710 C705 1.363 . S
C710 C709 1.415 . S
C711 H687 0.951 . S
C711 C712 1.366 . S
C711 C713 1.388 . S
C712 C711 1.366 . S
C712 C716 1.385 . S
C713 H688 0.951 1_455 S
C713 C711 1.388 . S
C713 C714 1.366 . S
C714 C713 1.366 . S
C714 C715 1.414 . S
C714 C717 1.499 . S
C715 H689 0.950 . S
C715 C714 1.414 . S
C715 C716 1.374 . S
C716 H690 0.950 . S
C716 C712 1.385 . S
C716 C715 1.374 . S
C717 C714 1.499 . S
C717 C718 1.373 . S
C717 C719 1.389 . S
C718 H691 0.950 . S
C718 C704 1.377 1_455 S
C718 C717 1.373 . S
C719 C703 1.377 1_455 S
C719 C717 1.389 . S
C719 C720 1.524 . S
C720 C719 1.524 . S
C720 C721 1.397 . S
C720 C725 1.363 . S
C721 H692 0.950 . S
C721 C720 1.397 . S
C721 C722 1.334 . S
C722 H693 0.950 . S
C722 C721 1.334 . S
C722 C723 1.287 . S
C723 C722 1.287 . S
C723 C724 1.524 . S
C723 H726 0.999 . S
C724 H694 0.950 . S
C724 C723 1.524 . S
C724 C725 1.415 . S
C725 H695 0.950 1_455 S
C725 C720 1.363 . S
C725 C724 1.415 . S
H726 C723 0.999 . S
H727 C708 0.913 . S
H728 C746 0.951 . S
H729 C748 0.951 . S
H730 C750 0.950 . S
H731 C751 0.950 . S
H732 C753 0.950 . S
H733 C756 0.950 . S
H734 C757 0.950 . S
H735 C759 0.950 . S
H736 C760 0.950 . S
H737 C761 0.951 . S
H738 C763 0.951 . S
H739 C765 0.950 . S
H740 C766 0.950 . S
H741 C768 0.950 . S
H742 C771 0.950 . S
H743 C772 0.950 . S
H744 C774 0.950 . S
H745 C775 0.950 . S
C746 H728 0.951 . S
C746 C747 1.366 . S
C746 C748 1.388 . S
C747 C746 1.366 . S
C747 C751 1.385 . S
C748 H729 0.951 . S
C748 C746 1.388 . S
C748 C749 1.366 . S
C749 C748 1.366 . S
C749 C750 1.414 . S
C749 C752 1.499 . S
C750 H730 0.950 . S
C750 C749 1.414 . S
C750 C751 1.374 . S
C751 H731 0.950 . S
C751 C747 1.385 . S
C751 C750 1.374 . S
C752 C749 1.499 . S
C752 C753 1.373 . S
C752 C754 1.389 . S
C753 H732 0.950 . S
C753 C752 1.373 . S
C753 C769 1.377 . S
C754 C752 1.389 . S
C754 C755 1.524 . S
C754 C768 1.377 . S
C755 C754 1.524 . S
C755 C756 1.397 . S
C755 C760 1.363 . S
C756 H733 0.950 . S
C756 C755 1.397 . S
C756 C757 1.334 . S
C757 H734 0.950 . S
C757 C756 1.334 . S
C757 C758 1.287 . S
C758 C757 1.287 . S
C758 C759 1.524 . S
C758 H777 0.913 . S
C759 H735 0.950 . S
C759 C758 1.524 . S
C759 C760 1.415 . S
C760 H736 0.950 . S
C760 C755 1.363 . S
C760 C759 1.415 . S
C761 H737 0.951 . S
C761 C762 1.366 . S
C761 C763 1.388 . S
C762 C761 1.366 . S
C762 C766 1.385 . S
C763 H738 0.951 . S
C763 C761 1.388 . S
C763 C764 1.366 . S
C764 C763 1.366 . S
C764 C765 1.414 . S
C764 C767 1.499 . S
C765 H739 0.950 . S
C765 C764 1.414 . S
C765 C766 1.374 . S
C766 H740 0.950 . S
C766 C762 1.385 . S
C766 C765 1.374 . S
C767 C764 1.499 . S
C767 C768 1.373 . S
C767 C769 1.389 . S
C768 H741 0.950 . S
C768 C754 1.377 . S
C768 C767 1.373 . S
C769 C753 1.377 . S
C769 C767 1.389 . S
C769 C770 1.524 . S
C770 C769 1.524 . S
C770 C771 1.397 . S
C770 C775 1.363 . S
C771 H742 0.950 . S
C771 C770 1.397 . S
C771 C772 1.334 . S
C772 H743 0.950 . S
C772 C771 1.334 . S
C772 C773 1.287 . S
C773 C772 1.287 . S
C773 C774 1.524 . S
C773 H776 0.999 . S
C774 H744 0.950 . S
C774 C773 1.524 . S
C774 C775 1.415 . S
C775 H745 0.950 . S
C775 C770 1.363 . S
C775 C774 1.415 . S
H776 C773 0.999 . S
H777 C758 0.913 . S
H778 C796 0.951 . S
H779 C798 0.951 . S
H780 C800 0.950 . S
H781 C801 0.950 . S
H782 C803 0.950 . S
H783 C806 0.950 . S
H784 C807 0.950 . S
H785 C809 0.950 . S
H786 C810 0.950 . S
H787 C811 0.951 . S
H788 C813 0.951 . S
H789 C815 0.950 . S
H790 C816 0.950 . S
H791 C818 0.950 . S
H792 C821 0.950 . S
H793 C822 0.950 . S
H794 C824 0.950 . S
H795 C825 0.950 . S
C796 H778 0.951 . S
C796 C797 1.366 . S
C796 C798 1.388 . S
C797 C796 1.366 . S
C797 C801 1.385 . S
C798 H779 0.951 . S
C798 C796 1.388 . S
C798 C799 1.366 . S
C799 C798 1.366 . S
C799 C800 1.414 . S
C799 C802 1.499 . S
C800 H780 0.950 . S
C800 C799 1.414 . S
C800 C801 1.374 . S
C801 H781 0.950 . S
C801 C797 1.385 . S
C801 C800 1.374 . S
C802 C799 1.499 . S
C802 C803 1.373 . S
C802 C804 1.389 . S
C803 H782 0.950 . S
C803 C802 1.373 . S
C803 C819 1.377 1_565 S
C804 C802 1.389 . S
C804 C805 1.524 . S
C804 C818 1.377 1_565 S
C805 C804 1.524 . S
C805 C806 1.397 . S
C805 C810 1.363 1_565 S
C806 H783 0.950 . S
C806 C805 1.397 . S
C806 C807 1.334 . S
C807 H784 0.950 . S
C807 C806 1.334 . S
C807 C808 1.287 . S
C808 C807 1.287 . S
C808 C809 1.524 1_565 S
C808 H827 0.913 . S
C809 H785 0.950 . S
C809 C808 1.524 1_545 S
C809 C810 1.415 . S
C810 H786 0.950 . S
C810 C805 1.363 1_545 S
C810 C809 1.415 . S
C811 H787 0.951 . S
C811 C812 1.366 . S
C811 C813 1.388 . S
C812 C811 1.366 . S
C812 C816 1.385 . S
C813 H788 0.951 . S
C813 C811 1.388 . S
C813 C814 1.366 . S
C814 C813 1.366 . S
C814 C815 1.414 . S
C814 C817 1.499 . S
C815 H789 0.950 . S
C815 C814 1.414 . S
C815 C816 1.374 . S
C816 H790 0.950 . S
C816 C812 1.385 . S
C816 C815 1.374 . S
C817 C814 1.499 . S
C817 C818 1.373 . S
C817 C819 1.389 . S
C818 H791 0.950 . S
C818 C804 1.377 1_545 S
C818 C817 1.373 . S
C819 C803 1.377 1_545 S
C819 C817 1.389 . S
C819 C820 1.524 . S
C820 C819 1.524 . S
C820 C821 1.397 . S
C820 C825 1.363 1_545 S
C821 H792 0.950 . S
C821 C820 1.397 . S
C821 C822 1.334 . S
C822 H793 0.950 . S
C822 C821 1.334 . S
C822 C823 1.287 . S
C823 C822 1.287 . S
C823 C824 1.524 1_545 S
C823 H826 0.999 . S
C824 H794 0.950 . S
C824 C823 1.524 1_565 S
C824 C825 1.415 . S
C825 H795 0.950 . S
C825 C820 1.363 1_565 S
C825 C824 1.415 . S
H826 C823 0.999 . S
H827 C808 0.913 . S
H828 C846 0.951 1_455 S
H829 C848 0.951 1_455 S
H830 C850 0.950 . S
H831 C851 0.950 . S
H832 C853 0.950 . S
H833 C856 0.950 . S
H834 C857 0.972 . S
H835 C859 0.950 . S
H836 C860 0.950 . S
H837 C861 0.951 1_655 S
H838 C863 0.951 1_655 S
H839 C865 0.950 . S
H840 C866 0.950 . S
H841 C868 0.950 . S
H842 C871 0.950 . S
H843 C872 0.972 . S
H844 C874 0.950 . S
H845 C875 0.950 . S
C846 H828 0.951 1_655 S
C846 C847 1.366 . S
C846 C848 1.388 . S
C847 C846 1.366 . S
C847 C851 1.385 . S
C848 H829 0.951 1_655 S
C848 C846 1.388 . S
C848 C849 1.366 . S
C849 C848 1.366 . S
C849 C850 1.414 . S
C849 C852 1.499 . S
C850 H830 0.950 . S
C850 C849 1.414 . S
C850 C851 1.374 . S
C851 H831 0.950 . S
C851 C847 1.385 . S
C851 C850 1.374 . S
C852 C849 1.499 . S
C852 C853 1.373 . S
C852 C854 1.389 1_655 S
C853 H832 0.950 . S
C853 C852 1.373 . S
C853 C869 1.377 . S
C854 C852 1.389 1_455 S
C854 C855 1.524 . S
C854 C868 1.377 . S
C855 C854 1.524 . S
C855 C856 1.397 1_455 S
C855 C860 1.363 . S
C856 H833 0.950 . S
C856 C855 1.397 1_655 S
C856 C857 1.340 . S
C857 H834 0.972 . S
C857 C856 1.340 . S
C857 C858 1.259 1_655 S
C858 C857 1.259 1_455 S
C858 C859 1.524 . S
C858 H877 0.913 . S
C859 H835 0.950 . S
C859 C858 1.524 . S
C859 C860 1.415 . S
C860 H836 0.950 . S
C860 C855 1.363 . S
C860 C859 1.415 . S
C861 H837 0.951 1_455 S
C861 C862 1.366 . S
C861 C863 1.388 . S
C862 C861 1.366 . S
C862 C866 1.385 . S
C863 H838 0.951 1_455 S
C863 C861 1.388 . S
C863 C864 1.366 . S
C864 C863 1.366 . S
C864 C865 1.414 . S
C864 C867 1.499 . S
C865 H839 0.950 . S
C865 C864 1.414 . S
C865 C866 1.374 . S
C866 H840 0.950 . S
C866 C862 1.385 . S
C866 C865 1.374 . S
C867 C864 1.499 . S
C867 C868 1.373 . S
C867 C869 1.389 1_455 S
C868 H841 0.950 . S
C868 C854 1.377 . S
C868 C867 1.373 . S
C869 C853 1.377 . S
C869 C867 1.389 1_655 S
C869 C870 1.524 . S
C870 C869 1.524 . S
C870 C871 1.397 1_655 S
C870 C875 1.363 . S
C871 H842 0.950 . S
C871 C870 1.397 1_455 S
C871 C872 1.340 . S
C872 H843 0.972 . S
C872 C871 1.340 . S
C872 C873 1.259 1_455 S
C873 C872 1.259 1_655 S
C873 C874 1.524 . S
C873 H876 0.999 . S
C874 H844 0.950 . S
C874 C873 1.524 . S
C874 C875 1.415 . S
C875 H845 0.950 . S
C875 C870 1.363 . S
C875 C874 1.415 . S
H876 C873 0.999 . S
H877 C858 0.913 . S
H878 C896 0.951 . S
H879 C898 0.951 . S
H880 C900 0.950 . S
H881 C901 0.950 . S
H882 C903 0.950 . S
H883 C906 0.950 . S
H884 C907 0.950 . S
H885 C909 0.950 . S
H886 C910 0.950 . S
H887 C911 0.951 . S
H888 C913 0.951 . S
H889 C915 0.950 . S
H890 C916 0.950 . S
H891 C918 0.950 . S
H892 C921 0.950 . S
H893 C922 0.950 . S
H894 C924 0.950 . S
H895 C925 0.950 . S
C896 H878 0.951 . S
C896 C897 1.366 . S
C896 C898 1.388 . S
C897 C896 1.366 . S
C897 C901 1.385 . S
C898 H879 0.951 . S
C898 C896 1.388 . S
C898 C899 1.366 . S
C899 C898 1.366 . S
C899 C900 1.414 . S
C899 C902 1.499 . S
C900 H880 0.950 . S
C900 C899 1.414 . S
C900 C901 1.374 . S
C901 H881 0.950 . S
C901 C897 1.385 . S
C901 C900 1.374 . S
C902 C899 1.499 . S
C902 C903 1.373 . S
C902 C904 1.389 1_554 S
C903 H882 0.950 . S
C903 C902 1.373 . S
C903 C919 1.377 . S
C904 C902 1.389 1_556 S
C904 C905 1.524 . S
C904 C918 1.377 . S
C905 C904 1.524 . S
C905 C906 1.397 . S
C905 C910 1.363 . S
C906 H883 0.950 . S
C906 C905 1.397 . S
C906 C907 1.334 . S
C907 H884 0.950 . S
C907 C906 1.334 . S
C907 C908 1.287 . S
C908 C907 1.287 . S
C908 C909 1.524 . S
C908 H927 0.913 . S
C909 H885 0.950 . S
C909 C908 1.524 . S
C909 C910 1.415 . S
C910 H886 0.950 . S
C910 C905 1.363 . S
C910 C909 1.415 . S
C911 H887 0.951 . S
C911 C912 1.366 . S
C911 C913 1.388 . S
C912 C911 1.366 . S
C912 C916 1.385 . S
C913 H888 0.951 . S
C913 C911 1.388 . S
C913 C914 1.366 . S
C914 C913 1.366 . S
C914 C915 1.414 . S
C914 C917 1.499 . S
C915 H889 0.950 . S
C915 C914 1.414 . S
C915 C916 1.374 . S
C916 H890 0.950 . S
C916 C912 1.385 . S
C916 C915 1.374 . S
C917 C914 1.499 . S
C917 C918 1.373 . S
C917 C919 1.389 1_556 S
C918 H891 0.950 . S
C918 C904 1.377 . S
C918 C917 1.373 . S
C919 C903 1.377 . S
C919 C917 1.389 1_554 S
C919 C920 1.524 . S
C920 C919 1.524 . S
C920 C921 1.397 . S
C920 C925 1.363 . S
C921 H892 0.950 . S
C921 C920 1.397 . S
C921 C922 1.334 . S
C922 H893 0.950 . S
C922 C921 1.334 . S
C922 C923 1.287 . S
C923 C922 1.287 . S
C923 C924 1.524 . S
C923 H926 0.999 . S
C924 H894 0.950 . S
C924 C923 1.524 . S
C924 C925 1.415 . S
C925 H895 0.950 . S
C925 C920 1.363 . S
C925 C924 1.415 . S
H926 C923 0.999 . S
H927 C908 0.913 . S
H928 C946 0.951 . S
H929 C948 0.951 . S
H930 C950 0.950 . S
H931 C951 0.936 1_556 S
H932 C953 0.950 . S
H933 C956 0.950 . S
H934 C957 0.950 . S
H935 C959 0.950 . S
H936 C960 0.950 . S
H937 C961 0.951 . S
H938 C963 0.951 . S
H939 C965 0.950 . S
H940 C966 0.936 1_554 S
H941 C968 0.950 . S
H942 C971 0.950 . S
H943 C972 0.950 . S
H944 C974 0.950 . S
H945 C975 0.950 . S
C946 H928 0.951 . S
C946 C947 1.366 . S
C946 C948 1.388 . S
C947 C946 1.366 . S
C947 C951 1.408 . S
C948 H929 0.951 . S
C948 C946 1.388 . S
C948 C949 1.366 . S
C949 C948 1.366 . S
C949 C950 1.414 1_554 S
C949 C952 1.499 . S
C950 H930 0.950 . S
C950 C949 1.414 1_556 S
C950 C951 1.364 1_556 S
C951 H931 0.936 1_554 S
C951 C947 1.408 . S
C951 C950 1.364 1_554 S
C952 C949 1.499 . S
C952 C953 1.373 1_654 S
C952 C954 1.389 . S
C953 H932 0.950 . S
C953 C952 1.373 1_456 S
C953 C969 1.377 . S
C954 C952 1.389 . S
C954 C955 1.524 . S
C954 C968 1.377 . S
C955 C954 1.524 . S
C955 C956 1.397 . S
C955 C960 1.363 . S
C956 H933 0.950 . S
C956 C955 1.397 . S
C956 C957 1.334 . S
C957 H934 0.950 . S
C957 C956 1.334 . S
C957 C958 1.287 . S
C958 C957 1.287 . S
C958 C959 1.524 . S
C958 H977 0.913 . S
C959 H935 0.950 . S
C959 C958 1.524 . S
C959 C960 1.415 . S
C960 H936 0.950 . S
C960 C955 1.363 . S
C960 C959 1.415 . S
C961 H937 0.951 . S
C961 C962 1.366 . S
C961 C963 1.388 . S
C962 C961 1.366 . S
C962 C966 1.408 . S
C963 H938 0.951 . S
C963 C961 1.388 . S
C963 C964 1.366 . S
C964 C963 1.366 . S
C964 C965 1.414 1_556 S
C964 C967 1.499 . S
C965 H939 0.950 . S
C965 C964 1.414 1_554 S
C965 C966 1.364 1_554 S
C966 H940 0.936 1_556 S
C966 C962 1.408 . S
C966 C965 1.364 1_556 S
C967 C964 1.499 . S
C967 C968 1.373 1_456 S
C967 C969 1.389 . S
C968 H941 0.950 . S
C968 C954 1.377 . S
C968 C967 1.373 1_654 S
C969 C953 1.377 . S
C969 C967 1.389 . S
C969 C970 1.524 . S
C970 C969 1.524 . S
C970 C971 1.397 . S
C970 C975 1.363 . S
C971 H942 0.950 . S
C971 C970 1.397 . S
C971 C972 1.334 . S
C972 H943 0.950 . S
C972 C971 1.334 . S
C972 C973 1.287 . S
C973 C972 1.287 . S
C973 C974 1.524 . S
C973 H976 0.999 . S
C974 H944 0.950 . S
C974 C973 1.524 . S
C974 C975 1.415 . S
C975 H945 0.950 . S
C975 C970 1.363 . S
C975 C974 1.415 . S
H976 C973 0.999 . S
H977 C958 0.913 . S
H978 C996 0.951 . S
H979 C998 0.951 . S
H980 C1000 0.950 . S
H981 C1001 0.950 . S
H982 C1003 0.950 . S
H983 C1006 0.950 . S
H984 C1007 0.950 . S
H985 C1009 0.950 . S
H986 C1010 0.950 . S
H987 C1011 0.951 . S
H988 C1013 0.951 . S
H989 C1015 0.950 . S
H990 C1016 0.950 . S
H991 C1018 0.950 . S
H992 C1021 0.950 . S
H993 C1022 0.950 . S
H994 C1024 0.950 . S
H995 C1025 0.950 . S
C996 H978 0.951 . S
C996 C997 1.366 . S
C996 C998 1.388 . S
C997 C996 1.366 . S
C997 C1001 1.385 . S
C998 H979 0.951 . S
C998 C996 1.388 . S
C998 C999 1.366 . S
C999 C998 1.366 . S
C999 C1000 1.414 . S
C999 C1002 1.499 . S
C1000 H980 0.950 . S
C1000 C999 1.414 . S
C1000 C1001 1.374 . S
C1001 H981 0.950 . S
C1001 C997 1.385 . S
C1001 C1000 1.374 . S
C1002 C999 1.499 . S
C1002 C1003 1.373 . S
C1002 C1004 1.389 . S
C1003 H982 0.950 . S
C1003 C1002 1.373 . S
C1003 C1019 1.377 . S
C1004 C1002 1.389 . S
C1004 C1005 1.524 . S
C1004 C1018 1.377 . S
C1005 C1004 1.524 . S
C1005 C1006 1.397 . S
C1005 C1010 1.363 . S
C1006 H983 0.950 . S
C1006 C1005 1.397 . S
C1006 C1007 1.334 . S
C1007 H984 0.950 . S
C1007 C1006 1.334 . S
C1007 C1008 1.287 . S
C1008 C1007 1.287 . S
C1008 C1009 1.524 . S
C1008 H1027 0.913 . S
C1009 H985 0.950 . S
C1009 C1008 1.524 . S
C1009 C1010 1.415 . S
C1010 H986 0.950 . S
C1010 C1005 1.363 . S
C1010 C1009 1.415 . S
C1011 H987 0.951 . S
C1011 C1012 1.366 . S
C1011 C1013 1.388 . S
C1012 C1011 1.366 . S
C1012 C1016 1.385 . S
C1013 H988 0.951 . S
C1013 C1011 1.388 . S
C1013 C1014 1.366 . S
C1014 C1013 1.366 . S
C1014 C1015 1.414 . S
C1014 C1017 1.499 . S
C1015 H989 0.950 . S
C1015 C1014 1.414 . S
C1015 C1016 1.374 . S
C1016 H990 0.950 . S
C1016 C1012 1.385 . S
C1016 C1015 1.374 . S
C1017 C1014 1.499 . S
C1017 C1018 1.373 . S
C1017 C1019 1.389 . S
C1018 H991 0.950 . S
C1018 C1004 1.377 . S
C1018 C1017 1.373 . S
C1019 C1003 1.377 . S
C1019 C1017 1.389 . S
C1019 C1020 1.524 . S
C1020 C1019 1.524 . S
C1020 C1021 1.397 . S
C1020 C1025 1.363 . S
C1021 H992 0.950 . S
C1021 C1020 1.397 . S
C1021 C1022 1.334 . S
C1022 H993 0.950 . S
C1022 C1021 1.334 . S
C1022 C1023 1.287 . S
C1023 C1022 1.287 . S
C1023 C1024 1.524 . S
C1023 H1026 0.999 . S
C1024 H994 0.950 . S
C1024 C1023 1.524 . S
C1024 C1025 1.415 . S
C1025 H995 0.950 . S
C1025 C1020 1.363 . S
C1025 C1024 1.415 . S
H1026 C1023 0.999 . S
H1027 C1008 0.913 . S
H1028 C1046 0.951 . S
H1029 C1048 0.951 . S
H1030 C1050 0.950 . S
H1031 C1051 0.950 . S
H1032 C1053 0.950 . S
H1033 C1056 0.950 . S
H1034 C1057 0.950 . S
H1035 C1059 0.950 . S
H1036 C1060 0.950 . S
H1037 C1061 0.951 . S
H1038 C1063 0.951 . S
H1039 C1065 0.950 . S
H1040 C1066 0.950 . S
H1041 C1068 0.950 . S
H1042 C1071 0.950 . S
H1043 C1072 0.950 . S
H1044 C1074 0.950 . S
H1045 C1075 0.950 . S
C1046 H1028 0.951 . S
C1046 C1047 1.366 . S
C1046 C1048 1.388 . S
C1047 C1046 1.366 . S
C1047 C1051 1.385 . S
C1048 H1029 0.951 . S
C1048 C1046 1.388 . S
C1048 C1049 1.366 . S
C1049 C1048 1.366 . S
C1049 C1050 1.414 . S
C1049 C1052 1.499 . S
C1050 H1030 0.950 . S
C1050 C1049 1.414 . S
C1050 C1051 1.374 . S
C1051 H1031 0.950 . S
C1051 C1047 1.385 . S
C1051 C1050 1.374 . S
C1052 C1049 1.499 . S
C1052 C1053 1.373 . S
C1052 C1054 1.389 1_556 S
C1053 H1032 0.950 . S
C1053 C1052 1.373 . S
C1053 C1069 1.377 . S
C1054 C1052 1.389 1_554 S
C1054 C1055 1.524 . S
C1054 C1068 1.377 . S
C1055 C1054 1.524 . S
C1055 C1056 1.397 . S
C1055 C1060 1.363 . S
C1056 H1033 0.950 . S
C1056 C1055 1.397 . S
C1056 C1057 1.334 . S
C1057 H1034 0.950 . S
C1057 C1056 1.334 . S
C1057 C1058 1.287 . S
C1058 C1057 1.287 . S
C1058 C1059 1.524 . S
C1058 H1077 0.913 . S
C1059 H1035 0.950 . S
C1059 C1058 1.524 . S
C1059 C1060 1.415 . S
C1060 H1036 0.950 . S
C1060 C1055 1.363 . S
C1060 C1059 1.415 . S
C1061 H1037 0.951 . S
C1061 C1062 1.366 . S
C1061 C1063 1.388 . S
C1062 C1061 1.366 . S
C1062 C1066 1.385 . S
C1063 H1038 0.951 . S
C1063 C1061 1.388 . S
C1063 C1064 1.366 . S
C1064 C1063 1.366 . S
C1064 C1065 1.414 . S
C1064 C1067 1.499 . S
C1065 H1039 0.950 . S
C1065 C1064 1.414 . S
C1065 C1066 1.374 . S
C1066 H1040 0.950 . S
C1066 C1062 1.385 . S
C1066 C1065 1.374 . S
C1067 C1064 1.499 . S
C1067 C1068 1.373 . S
C1067 C1069 1.389 1_554 S
C1068 H1041 0.950 . S
C1068 C1054 1.377 . S
C1068 C1067 1.373 . S
C1069 C1053 1.377 . S
C1069 C1067 1.389 1_556 S
C1069 C1070 1.524 . S
C1070 C1069 1.524 . S
C1070 C1071 1.397 . S
C1070 C1075 1.363 . S
C1071 H1042 0.950 . S
C1071 C1070 1.397 . S
C1071 C1072 1.334 . S
C1072 H1043 0.950 . S
C1072 C1071 1.334 . S
C1072 C1073 1.287 . S
C1073 C1072 1.287 . S
C1073 C1074 1.524 . S
C1073 H1076 0.999 . S
C1074 H1044 0.950 . S
C1074 C1073 1.524 . S
C1074 C1075 1.415 . S
C1075 H1045 0.950 . S
C1075 C1070 1.363 . S
C1075 C1074 1.415 . S
H1076 C1073 0.999 . S
H1077 C1058 0.913 . S
H1078 C1096 0.951 . S
H1079 C1098 0.951 . S
H1080 C1100 0.950 . S
H1081 C1101 0.950 . S
H1082 C1103 0.950 . S
H1083 C1106 0.950 . S
H1084 C1107 0.950 . S
H1085 C1109 0.950 . S
H1086 C1110 0.950 . S
H1087 C1111 0.951 . S
H1088 C1113 0.951 . S
H1089 C1115 0.950 . S
H1090 C1116 0.950 . S
H1091 C1118 0.950 . S
H1092 C1121 0.950 . S
H1093 C1122 0.950 . S
H1094 C1124 0.950 . S
H1095 C1125 0.950 . S
C1096 H1078 0.951 . S
C1096 C1097 1.366 . S
C1096 C1098 1.388 . S
C1097 C1096 1.366 . S
C1097 C1101 1.385 . S
C1098 H1079 0.951 . S
C1098 C1096 1.388 . S
C1098 C1099 1.366 . S
C1099 C1098 1.366 . S
C1099 C1100 1.414 . S
C1099 C1102 1.499 . S
C1100 H1080 0.950 . S
C1100 C1099 1.414 . S
C1100 C1101 1.374 . S
C1101 H1081 0.950 . S
C1101 C1097 1.385 . S
C1101 C1100 1.374 . S
C1102 C1099 1.499 . S
C1102 C1103 1.373 . S
C1102 C1104 1.389 . S
C1103 H1082 0.950 . S
C1103 C1102 1.373 . S
C1103 C1119 1.377 . S
C1104 C1102 1.389 . S
C1104 C1105 1.524 . S
C1104 C1118 1.377 . S
C1105 C1104 1.524 . S
C1105 C1106 1.397 . S
C1105 C1110 1.363 . S
C1106 H1083 0.950 . S
C1106 C1105 1.397 . S
C1106 C1107 1.334 . S
C1107 H1084 0.950 . S
C1107 C1106 1.334 . S
C1107 C1108 1.287 . S
C1108 C1107 1.287 . S
C1108 C1109 1.524 . S
C1108 H1127 0.913 . S
C1109 H1085 0.950 . S
C1109 C1108 1.524 . S
C1109 C1110 1.415 . S
C1110 H1086 0.950 . S
C1110 C1105 1.363 . S
C1110 C1109 1.415 . S
C1111 H1087 0.951 . S
C1111 C1112 1.366 . S
C1111 C1113 1.388 . S
C1112 C1111 1.366 . S
C1112 C1116 1.385 . S
C1113 H1088 0.951 . S
C1113 C1111 1.388 . S
C1113 C1114 1.366 . S
C1114 C1113 1.366 . S
C1114 C1115 1.414 . S
C1114 C1117 1.499 . S
C1115 H1089 0.950 . S
C1115 C1114 1.414 . S
C1115 C1116 1.374 . S
C1116 H1090 0.950 . S
C1116 C1112 1.385 . S
C1116 C1115 1.374 . S
C1117 C1114 1.499 . S
C1117 C1118 1.373 . S
C1117 C1119 1.389 . S
C1118 H1091 0.950 . S
C1118 C1104 1.377 . S
C1118 C1117 1.373 . S
C1119 C1103 1.377 . S
C1119 C1117 1.389 . S
C1119 C1120 1.524 . S
C1120 C1119 1.524 . S
C1120 C1121 1.397 . S
C1120 C1125 1.363 . S
C1121 H1092 0.950 . S
C1121 C1120 1.397 . S
C1121 C1122 1.334 . S
C1122 H1093 0.950 . S
C1122 C1121 1.334 . S
C1122 C1123 1.287 . S
C1123 C1122 1.287 . S
C1123 C1124 1.524 . S
C1123 H1126 0.999 . S
C1124 H1094 0.950 . S
C1124 C1123 1.524 . S
C1124 C1125 1.415 . S
C1125 H1095 0.950 . S
C1125 C1120 1.363 . S
C1125 C1124 1.415 . S
H1126 C1123 0.999 . S
H1127 C1108 0.913 . S
H1128 C1146 0.951 . S
H1129 C1148 0.951 . S
H1130 C1150 0.950 1_554 S
H1131 C1151 0.950 . S
H1132 C1153 0.962 . S
H1133 C1156 0.950 . S
H1134 C1157 0.950 . S
H1135 C1159 0.950 . S
H1136 C1160 0.950 . S
H1137 C1161 0.951 . S
H1138 C1163 0.951 . S
H1139 C1165 0.950 1_556 S
H1140 C1166 0.950 . S
H1141 C1168 0.962 . S
H1142 C1171 0.950 . S
H1143 C1172 0.950 . S
H1144 C1174 0.950 . S
H1145 C1175 0.950 . S
C1146 H1128 0.951 . S
C1146 C1147 1.366 . S
C1146 C1148 1.388 . S
C1147 C1146 1.366 . S
C1147 C1151 1.385 . S
C1148 H1129 0.951 . S
C1148 C1146 1.388 . S
C1148 C1149 1.366 . S
C1149 C1148 1.366 . S
C1149 C1150 1.414 . S
C1149 C1152 1.499 . S
C1150 H1130 0.950 1_556 S
C1150 C1149 1.414 . S
C1150 C1151 1.374 . S
C1151 H1131 0.950 . S
C1151 C1147 1.385 . S
C1151 C1150 1.374 . S
C1152 C1149 1.499 . S
C1152 C1153 1.429 . S
C1152 C1154 1.389 1_556 S
C1153 H1132 0.962 . S
C1153 C1152 1.429 . S
C1153 C1169 1.312 1_545 S
C1154 C1152 1.389 1_554 S
C1154 C1155 1.524 . S
C1154 C1168 1.312 1_545 S
C1155 C1154 1.524 . S
C1155 C1156 1.397 . S
C1155 C1160 1.363 . S
C1156 H1133 0.950 . S
C1156 C1155 1.397 . S
C1156 C1157 1.334 . S
C1157 H1134 0.950 . S
C1157 C1156 1.334 . S
C1157 C1158 1.287 . S
C1158 C1157 1.287 . S
C1158 C1159 1.524 . S
C1158 H1177 0.913 . S
C1159 H1135 0.950 . S
C1159 C1158 1.524 . S
C1159 C1160 1.415 . S
C1160 H1136 0.950 . S
C1160 C1155 1.363 . S
C1160 C1159 1.415 . S
C1161 H1137 0.951 . S
C1161 C1162 1.366 . S
C1161 C1163 1.388 . S
C1162 C1161 1.366 . S
C1162 C1166 1.385 . S
C1163 H1138 0.951 . S
C1163 C1161 1.388 . S
C1163 C1164 1.366 . S
C1164 C1163 1.366 . S
C1164 C1165 1.414 . S
C1164 C1167 1.499 . S
C1165 H1139 0.950 1_554 S
C1165 C1164 1.414 . S
C1165 C1166 1.374 . S
C1166 H1140 0.950 . S
C1166 C1162 1.385 . S
C1166 C1165 1.374 . S
C1167 C1164 1.499 . S
C1167 C1168 1.429 . S
C1167 C1169 1.389 1_554 S
C1168 H1141 0.962 . S
C1168 C1154 1.312 1_565 S
C1168 C1167 1.429 . S
C1169 C1153 1.312 1_565 S
C1169 C1167 1.389 1_556 S
C1169 C1170 1.524 . S
C1170 C1169 1.524 . S
C1170 C1171 1.397 . S
C1170 C1175 1.363 . S
C1171 H1142 0.950 . S
C1171 C1170 1.397 . S
C1171 C1172 1.334 . S
C1172 H1143 0.950 . S
C1172 C1171 1.334 . S
C1172 C1173 1.287 . S
C1173 C1172 1.287 . S
C1173 C1174 1.524 . S
C1173 H1176 0.999 . S
C1174 H1144 0.950 . S
C1174 C1173 1.524 . S
C1174 C1175 1.415 . S
C1175 H1145 0.950 . S
C1175 C1170 1.363 . S
C1175 C1174 1.415 . S
H1176 C1173 0.999 . S
H1177 C1158 0.913 . S
H1178 C1196 0.951 . S
H1179 C1198 0.951 . S
H1180 C1200 0.950 . S
H1181 C1201 0.950 . S
H1182 C1203 0.950 . S
H1183 C1206 0.950 . S
H1184 C1207 0.950 . S
H1185 C1209 0.950 . S
H1186 C1210 0.950 . S
H1187 C1211 0.951 . S
H1188 C1213 0.951 . S
H1189 C1215 0.950 . S
H1190 C1216 0.950 . S
H1191 C1218 0.950 . S
H1192 C1221 0.950 . S
H1193 C1222 0.950 . S
H1194 C1224 0.950 . S
H1195 C1225 0.950 . S
C1196 H1178 0.951 . S
C1196 C1197 1.366 . S
C1196 C1198 1.388 . S
C1197 C1196 1.366 . S
C1197 C1201 1.385 . S
C1198 H1179 0.951 . S
C1198 C1196 1.388 . S
C1198 C1199 1.366 . S
C1199 C1198 1.366 . S
C1199 C1200 1.414 . S
C1199 C1202 1.499 . S
C1200 H1180 0.950 . S
C1200 C1199 1.414 . S
C1200 C1201 1.374 . S
C1201 H1181 0.950 . S
C1201 C1197 1.385 . S
C1201 C1200 1.374 . S
C1202 C1199 1.499 . S
C1202 C1203 1.373 . S
C1202 C1204 1.389 . S
C1203 H1182 0.950 . S
C1203 C1202 1.373 . S
C1203 C1219 1.377 . S
C1204 C1202 1.389 . S
C1204 C1205 1.524 . S
C1204 C1218 1.377 . S
C1205 C1204 1.524 . S
C1205 C1206 1.397 . S
C1205 C1210 1.363 . S
C1206 H1183 0.950 . S
C1206 C1205 1.397 . S
C1206 C1207 1.334 . S
C1207 H1184 0.950 . S
C1207 C1206 1.334 . S
C1207 C1208 1.287 . S
C1208 C1207 1.287 . S
C1208 C1209 1.524 . S
C1208 H1227 0.913 . S
C1209 H1185 0.950 . S
C1209 C1208 1.524 . S
C1209 C1210 1.415 . S
C1210 H1186 0.950 . S
C1210 C1205 1.363 . S
C1210 C1209 1.415 . S
C1211 H1187 0.951 . S
C1211 C1212 1.366 . S
C1211 C1213 1.388 . S
C1212 C1211 1.366 . S
C1212 C1216 1.385 . S
C1213 H1188 0.951 . S
C1213 C1211 1.388 . S
C1213 C1214 1.366 . S
C1214 C1213 1.366 . S
C1214 C1215 1.414 . S
C1214 C1217 1.499 . S
C1215 H1189 0.950 . S
C1215 C1214 1.414 . S
C1215 C1216 1.374 . S
C1216 H1190 0.950 . S
C1216 C1212 1.385 . S
C1216 C1215 1.374 . S
C1217 C1214 1.499 . S
C1217 C1218 1.373 . S
C1217 C1219 1.389 . S
C1218 H1191 0.950 . S
C1218 C1204 1.377 . S
C1218 C1217 1.373 . S
C1219 C1203 1.377 . S
C1219 C1217 1.389 . S
C1219 C1220 1.524 . S
C1220 C1219 1.524 . S
C1220 C1221 1.397 . S
C1220 C1225 1.363 . S
C1221 H1192 0.950 . S
C1221 C1220 1.397 . S
C1221 C1222 1.334 . S
C1222 H1193 0.950 . S
C1222 C1221 1.334 . S
C1222 C1223 1.287 . S
C1223 C1222 1.287 . S
C1223 C1224 1.524 . S
C1223 H1226 0.999 . S
C1224 H1194 0.950 . S
C1224 C1223 1.524 . S
C1224 C1225 1.415 . S
C1225 H1195 0.950 . S
C1225 C1220 1.363 . S
C1225 C1224 1.415 . S
H1226 C1223 0.999 . S
H1227 C1208 0.913 . S
H1228 C1246 0.951 . S
H1229 C1248 0.951 . S
H1230 C1250 0.950 . S
H1231 C1251 0.950 . S
H1232 C1253 0.950 . S
H1233 C1256 0.950 . S
H1234 C1257 0.950 . S
H1235 C1259 0.950 . S
H1236 C1260 0.950 . S
H1237 C1261 0.951 . S
H1238 C1263 0.951 . S
H1239 C1265 0.950 . S
H1240 C1266 0.950 . S
H1241 C1268 0.950 . S
H1242 C1271 0.950 . S
H1243 C1272 0.950 . S
H1244 C1274 0.950 . S
H1245 C1275 0.950 . S
C1246 H1228 0.951 . S
C1246 C1247 1.366 . S
C1246 C1248 1.388 . S
C1247 C1246 1.366 . S
C1247 C1251 1.385 . S
C1248 H1229 0.951 . S
C1248 C1246 1.388 . S
C1248 C1249 1.366 . S
C1249 C1248 1.366 . S
C1249 C1250 1.414 . S
C1249 C1252 1.499 . S
C1250 H1230 0.950 . S
C1250 C1249 1.414 . S
C1250 C1251 1.374 . S
C1251 H1231 0.950 . S
C1251 C1247 1.385 . S
C1251 C1250 1.374 . S
C1252 C1249 1.499 . S
C1252 C1253 1.373 . S
C1252 C1254 1.389 . S
C1253 H1232 0.950 . S
C1253 C1252 1.373 . S
C1253 C1269 1.377 . S
C1254 C1252 1.389 . S
C1254 C1255 1.524 . S
C1254 C1268 1.377 . S
C1255 C1254 1.524 . S
C1255 C1256 1.397 . S
C1255 C1260 1.363 . S
C1256 H1233 0.950 . S
C1256 C1255 1.397 . S
C1256 C1257 1.334 . S
C1257 H1234 0.950 . S
C1257 C1256 1.334 . S
C1257 C1258 1.287 . S
C1258 C1257 1.287 . S
C1258 C1259 1.524 . S
C1258 H1277 0.913 . S
C1259 H1235 0.950 . S
C1259 C1258 1.524 . S
C1259 C1260 1.415 . S
C1260 H1236 0.950 . S
C1260 C1255 1.363 . S
C1260 C1259 1.415 . S
C1261 H1237 0.951 . S
C1261 C1262 1.366 . S
C1261 C1263 1.388 . S
C1262 C1261 1.366 . S
C1262 C1266 1.385 . S
C1263 H1238 0.951 . S
C1263 C1261 1.388 . S
C1263 C1264 1.366 . S
C1264 C1263 1.366 . S
C1264 C1265 1.414 . S
C1264 C1267 1.499 . S
C1265 H1239 0.950 . S
C1265 C1264 1.414 . S
C1265 C1266 1.374 . S
C1266 H1240 0.950 . S
C1266 C1262 1.385 . S
C1266 C1265 1.374 . S
C1267 C1264 1.499 . S
C1267 C1268 1.373 . S
C1267 C1269 1.389 . S
C1268 H1241 0.950 . S
C1268 C1254 1.377 . S
C1268 C1267 1.373 . S
C1269 C1253 1.377 . S
C1269 C1267 1.389 . S
C1269 C1270 1.524 . S
C1270 C1269 1.524 . S
C1270 C1271 1.397 . S
C1270 C1275 1.363 . S
C1271 H1242 0.950 . S
C1271 C1270 1.397 . S
C1271 C1272 1.334 . S
C1272 H1243 0.950 . S
C1272 C1271 1.334 . S
C1272 C1273 1.287 . S
C1273 C1272 1.287 . S
C1273 C1274 1.524 . S
C1273 H1276 0.999 . S
C1274 H1244 0.950 . S
C1274 C1273 1.524 . S
C1274 C1275 1.415 . S
C1275 H1245 0.950 . S
C1275 C1270 1.363 . S
C1275 C1274 1.415 . S
H1276 C1273 0.999 . S
H1277 C1258 0.913 . S
H1278 C1296 0.951 . S
H1279 C1298 0.951 . S
H1280 C1300 0.950 . S
H1281 C1301 0.950 . S
H1282 C1303 0.950 . S
H1283 C1306 0.950 . S
H1284 C1307 0.950 . S
H1285 C1309 0.950 . S
H1286 C1310 0.950 . S
H1287 C1311 0.951 . S
H1288 C1313 0.951 . S
H1289 C1315 0.950 . S
H1290 C1316 0.950 . S
H1291 C1318 0.950 . S
H1292 C1321 0.950 . S
H1293 C1322 0.950 . S
H1294 C1324 0.950 . S
H1295 C1325 0.950 . S
C1296 H1278 0.951 . S
C1296 C1297 1.366 . S
C1296 C1298 1.388 . S
C1297 C1296 1.366 . S
C1297 C1301 1.385 . S
C1298 H1279 0.951 . S
C1298 C1296 1.388 . S
C1298 C1299 1.366 . S
C1299 C1298 1.366 . S
C1299 C1300 1.414 . S
C1299 C1302 1.499 . S
C1300 H1280 0.950 . S
C1300 C1299 1.414 . S
C1300 C1301 1.374 . S
C1301 H1281 0.950 . S
C1301 C1297 1.385 . S
C1301 C1300 1.374 . S
C1302 C1299 1.499 . S
C1302 C1303 1.373 . S
C1302 C1304 1.389 . S
C1303 H1282 0.950 . S
C1303 C1302 1.373 . S
C1303 C1319 1.377 . S
C1304 C1302 1.389 . S
C1304 C1305 1.524 . S
C1304 C1318 1.377 . S
C1305 C1304 1.524 . S
C1305 C1306 1.397 . S
C1305 C1310 1.363 . S
C1306 H1283 0.950 . S
C1306 C1305 1.397 . S
C1306 C1307 1.334 . S
C1307 H1284 0.950 . S
C1307 C1306 1.334 . S
C1307 C1308 1.287 . S
C1308 C1307 1.287 . S
C1308 C1309 1.524 . S
C1308 H1327 0.913 . S
C1309 H1285 0.950 . S
C1309 C1308 1.524 . S
C1309 C1310 1.415 . S
C1310 H1286 0.950 . S
C1310 C1305 1.363 . S
C1310 C1309 1.415 . S
C1311 H1287 0.951 . S
C1311 C1312 1.366 . S
C1311 C1313 1.388 . S
C1312 C1311 1.366 . S
C1312 C1316 1.385 . S
C1313 H1288 0.951 . S
C1313 C1311 1.388 . S
C1313 C1314 1.366 . S
C1314 C1313 1.366 . S
C1314 C1315 1.414 . S
C1314 C1317 1.499 . S
C1315 H1289 0.950 . S
C1315 C1314 1.414 . S
C1315 C1316 1.374 . S
C1316 H1290 0.950 . S
C1316 C1312 1.385 . S
C1316 C1315 1.374 . S
C1317 C1314 1.499 . S
C1317 C1318 1.373 . S
C1317 C1319 1.389 . S
C1318 H1291 0.950 . S
C1318 C1304 1.377 . S
C1318 C1317 1.373 . S
C1319 C1303 1.377 . S
C1319 C1317 1.389 . S
C1319 C1320 1.524 . S
C1320 C1319 1.524 . S
C1320 C1321 1.397 . S
C1320 C1325 1.363 . S
C1321 H1292 0.950 . S
C1321 C1320 1.397 . S
C1321 C1322 1.334 . S
C1322 H1293 0.950 . S
C1322 C1321 1.334 . S
C1322 C1323 1.287 . S
C1323 C1322 1.287 . S
C1323 C1324 1.524 . S
C1323 H1326 0.999 . S
C1324 H1294 0.950 . S
C1324 C1323 1.524 . S
C1324 C1325 1.415 . S
C1325 H1295 0.950 . S
C1325 C1320 1.363 . S
C1325 C1324 1.415 . S
H1326 C1323 0.999 . S
H1327 C1308 0.913 . S
H1328 C1346 0.951 . S
H1329 C1348 0.951 . S
H1330 C1350 0.950 . S
H1331 C1351 0.950 . S
H1332 C1353 0.950 . S
H1333 C1356 0.950 . S
H1334 C1357 0.950 . S
H1335 C1359 0.950 . S
H1336 C1360 0.950 . S
H1337 C1361 0.951 . S
H1338 C1363 0.951 . S
H1339 C1365 0.950 . S
H1340 C1366 0.950 . S
H1341 C1368 0.950 . S
H1342 C1371 0.950 . S
H1343 C1372 0.950 . S
H1344 C1374 0.950 . S
H1345 C1375 0.950 . S
C1346 H1328 0.951 . S
C1346 C1347 1.366 . S
C1346 C1348 1.388 . S
C1347 C1346 1.366 . S
C1347 C1351 1.385 . S
C1348 H1329 0.951 . S
C1348 C1346 1.388 . S
C1348 C1349 1.366 . S
C1349 C1348 1.366 . S
C1349 C1350 1.414 . S
C1349 C1352 1.499 . S
C1350 H1330 0.950 . S
C1350 C1349 1.414 . S
C1350 C1351 1.374 . S
C1351 H1331 0.950 . S
C1351 C1347 1.385 . S
C1351 C1350 1.374 . S
C1352 C1349 1.499 . S
C1352 C1353 1.373 . S
C1352 C1354 1.389 . S
C1353 H1332 0.950 . S
C1353 C1352 1.373 . S
C1353 C1369 1.377 . S
C1354 C1352 1.389 . S
C1354 C1355 1.524 . S
C1354 C1368 1.377 . S
C1355 C1354 1.524 . S
C1355 C1356 1.397 . S
C1355 C1360 1.363 . S
C1356 H1333 0.950 . S
C1356 C1355 1.397 . S
C1356 C1357 1.334 . S
C1357 H1334 0.950 . S
C1357 C1356 1.334 . S
C1357 C1358 1.287 . S
C1358 C1357 1.287 . S
C1358 C1359 1.524 . S
C1358 H1377 0.913 . S
C1359 H1335 0.950 . S
C1359 C1358 1.524 . S
C1359 C1360 1.415 . S
C1360 H1336 0.950 . S
C1360 C1355 1.363 . S
C1360 C1359 1.415 . S
C1361 H1337 0.951 . S
C1361 C1362 1.366 . S
C1361 C1363 1.388 . S
C1362 C1361 1.366 . S
C1362 C1366 1.385 . S
C1363 H1338 0.951 . S
C1363 C1361 1.388 . S
C1363 C1364 1.366 . S
C1364 C1363 1.366 . S
C1364 C1365 1.414 . S
C1364 C1367 1.499 . S
C1365 H1339 0.950 . S
C1365 C1364 1.414 . S
C1365 C1366 1.374 . S
C1366 H1340 0.950 . S
C1366 C1362 1.385 . S
C1366 C1365 1.374 . S
C1367 C1364 1.499 . S
C1367 C1368 1.373 . S
C1367 C1369 1.389 . S
C1368 H1341 0.950 . S
C1368 C1354 1.377 . S
C1368 C1367 1.373 . S
C1369 C1353 1.377 . S
C1369 C1367 1.389 . S
C1369 C1370 1.524 . S
C1370 C1369 1.524 . S
C1370 C1371 1.397 . S
C1370 C1375 1.363 . S
C1371 H1342 0.950 . S
C1371 C1370 1.397 . S
C1371 C1372 1.334 . S
C1372 H1343 0.950 . S
C1372 C1371 1.334 . S
C1372 C1373 1.287 . S
C1373 C1372 1.287 . S
C1373 C1374 1.524 . S
C1373 H1376 0.999 . S
C1374 H1344 0.950 . S
C1374 C1373 1.524 . S
C1374 C1375 1.415 . S
C1375 H1345 0.950 . S
C1375 C1370 1.363 . S
C1375 C1374 1.415 . S
H1376 C1373 0.999 . S
H1377 C1358 0.913 . S
H1378 C1396 0.951 . S
H1379 C1398 0.951 . S
H1380 C1400 0.950 . S
H1381 C1401 0.950 . S
H1382 C1403 0.950 . S
H1383 C1406 0.950 . S
H1384 C1407 0.950 . S
H1385 C1409 0.950 . S
H1386 C1410 0.950 . S
H1387 C1411 0.951 . S
H1388 C1413 0.951 . S
H1389 C1415 0.950 . S
H1390 C1416 0.950 . S
H1391 C1418 0.950 . S
H1392 C1421 0.950 . S
H1393 C1422 0.950 . S
H1394 C1424 0.950 . S
H1395 C1425 0.950 . S
C1396 H1378 0.951 . S
C1396 C1397 1.366 . S
C1396 C1398 1.388 . S
C1397 C1396 1.366 . S
C1397 C1401 1.385 . S
C1398 H1379 0.951 . S
C1398 C1396 1.388 . S
C1398 C1399 1.366 . S
C1399 C1398 1.366 . S
C1399 C1400 1.414 . S
C1399 C1402 1.499 . S
C1400 H1380 0.950 . S
C1400 C1399 1.414 . S
C1400 C1401 1.374 . S
C1401 H1381 0.950 . S
C1401 C1397 1.385 . S
C1401 C1400 1.374 . S
C1402 C1399 1.499 . S
C1402 C1403 1.373 . S
C1402 C1404 1.389 . S
C1403 H1382 0.950 . S
C1403 C1402 1.373 . S
C1403 C1419 1.377 . S
C1404 C1402 1.389 . S
C1404 C1405 1.524 . S
C1404 C1418 1.377 . S
C1405 C1404 1.524 . S
C1405 C1406 1.397 . S
C1405 C1410 1.363 . S
C1406 H1383 0.950 . S
C1406 C1405 1.397 . S
C1406 C1407 1.334 . S
C1407 H1384 0.950 . S
C1407 C1406 1.334 . S
C1407 C1408 1.287 . S
C1408 C1407 1.287 . S
C1408 C1409 1.524 . S
C1408 H1427 0.913 . S
C1409 H1385 0.950 . S
C1409 C1408 1.524 . S
C1409 C1410 1.415 . S
C1410 H1386 0.950 . S
C1410 C1405 1.363 . S
C1410 C1409 1.415 . S
C1411 H1387 0.951 . S
C1411 C1412 1.366 . S
C1411 C1413 1.388 . S
C1412 C1411 1.366 . S
C1412 C1416 1.385 . S
C1413 H1388 0.951 . S
C1413 C1411 1.388 . S
C1413 C1414 1.366 . S
C1414 C1413 1.366 . S
C1414 C1415 1.414 . S
C1414 C1417 1.499 . S
C1415 H1389 0.950 . S
C1415 C1414 1.414 . S
C1415 C1416 1.374 . S
C1416 H1390 0.950 . S
C1416 C1412 1.385 . S
C1416 C1415 1.374 . S
C1417 C1414 1.499 . S
C1417 C1418 1.373 . S
C1417 C1419 1.389 . S
C1418 H1391 0.950 . S
C1418 C1404 1.377 . S
C1418 C1417 1.373 . S
C1419 C1403 1.377 . S
C1419 C1417 1.389 . S
C1419 C1420 1.524 . S
C1420 C1419 1.524 . S
C1420 C1421 1.397 . S
C1420 C1425 1.363 . S
C1421 H1392 0.950 . S
C1421 C1420 1.397 . S
C1421 C1422 1.334 . S
C1422 H1393 0.950 . S
C1422 C1421 1.334 . S
C1422 C1423 1.287 . S
C1423 C1422 1.287 . S
C1423 C1424 1.524 . S
C1423 H1426 0.999 . S
C1424 H1394 0.950 . S
C1424 C1423 1.524 . S
C1424 C1425 1.415 . S
C1425 H1395 0.950 . S
C1425 C1420 1.363 . S
C1425 C1424 1.415 . S
H1426 C1423 0.999 . S
H1427 C1408 0.913 . S
H1428 C1446 0.951 . S
H1429 C1448 0.951 . S
H1430 C1450 0.950 . S
H1431 C1451 0.950 . S
H1432 C1453 0.950 . S
H1433 C1456 0.950 . S
H1434 C1457 0.950 . S
H1435 C1459 0.950 . S
H1436 C1460 0.950 . S
H1437 C1461 0.951 . S
H1438 C1463 0.951 . S
H1439 C1465 0.950 . S
H1440 C1466 0.950 . S
H1441 C1468 0.950 . S
H1442 C1471 0.950 . S
H1443 C1472 0.950 . S
H1444 C1474 0.950 . S
H1445 C1475 0.950 . S
C1446 H1428 0.951 . S
C1446 C1447 1.366 . S
C1446 C1448 1.388 . S
C1447 C1446 1.366 . S
C1447 C1451 1.385 . S
C1448 H1429 0.951 . S
C1448 C1446 1.388 . S
C1448 C1449 1.366 . S
C1449 C1448 1.366 . S
C1449 C1450 1.414 . S
C1449 C1452 1.499 . S
C1450 H1430 0.950 . S
C1450 C1449 1.414 . S
C1450 C1451 1.374 . S
C1451 H1431 0.950 . S
C1451 C1447 1.385 . S
C1451 C1450 1.374 . S
C1452 C1449 1.499 . S
C1452 C1453 1.373 . S
C1452 C1454 1.389 . S
C1453 H1432 0.950 . S
C1453 C1452 1.373 . S
C1453 C1469 1.377 . S
C1454 C1452 1.389 . S
C1454 C1455 1.524 . S
C1454 C1468 1.377 . S
C1455 C1454 1.524 . S
C1455 C1456 1.397 . S
C1455 C1460 1.363 . S
C1456 H1433 0.950 . S
C1456 C1455 1.397 . S
C1456 C1457 1.334 . S
C1457 H1434 0.950 . S
C1457 C1456 1.334 . S
C1457 C1458 1.287 . S
C1458 C1457 1.287 . S
C1458 C1459 1.524 . S
C1458 H1477 0.913 . S
C1459 H1435 0.950 . S
C1459 C1458 1.524 . S
C1459 C1460 1.415 . S
C1460 H1436 0.950 . S
C1460 C1455 1.363 . S
C1460 C1459 1.415 . S
C1461 H1437 0.951 . S
C1461 C1462 1.366 . S
C1461 C1463 1.388 . S
C1462 C1461 1.366 . S
C1462 C1466 1.385 . S
C1463 H1438 0.951 . S
C1463 C1461 1.388 . S
C1463 C1464 1.366 . S
C1464 C1463 1.366 . S
C1464 C1465 1.414 . S
C1464 C1467 1.499 . S
C1465 H1439 0.950 . S
C1465 C1464 1.414 . S
C1465 C1466 1.374 . S
C1466 H1440 0.950 . S
C1466 C1462 1.385 . S
C1466 C1465 1.374 . S
C1467 C1464 1.499 . S
C1467 C1468 1.373 . S
C1467 C1469 1.389 . S
C1468 H1441 0.950 . S
C1468 C1454 1.377 . S
C1468 C1467 1.373 . S
C1469 C1453 1.377 . S
C1469 C1467 1.389 . S
C1469 C1470 1.524 . S
C1470 C1469 1.524 . S
C1470 C1471 1.397 . S
C1470 C1475 1.363 . S
C1471 H1442 0.950 . S
C1471 C1470 1.397 . S
C1471 C1472 1.334 . S
C1472 H1443 0.950 . S
C1472 C1471 1.334 . S
C1472 C1473 1.287 . S
C1473 C1472 1.287 . S
C1473 C1474 1.524 . S
C1473 H1476 0.999 . S
C1474 H1444 0.950 . S
C1474 C1473 1.524 . S
C1474 C1475 1.415 . S
C1475 H1445 0.950 . S
C1475 C1470 1.363 . S
C1475 C1474 1.415 . S
H1476 C1473 0.999 . S
H1477 C1458 0.913 . S
H1478 C1496 0.951 . S
H1479 C1498 0.951 . S
H1480 C1500 0.950 . S
H1481 C1501 0.950 . S
H1482 C1503 0.950 . S
H1483 C1506 0.950 . S
H1484 C1507 0.950 . S
H1485 C1509 0.950 . S
H1486 C1510 0.950 . S
H1487 C1511 0.951 . S
H1488 C1513 0.951 . S
H1489 C1515 0.950 . S
H1490 C1516 0.950 . S
H1491 C1518 0.950 . S
H1492 C1521 0.950 . S
H1493 C1522 0.950 . S
H1494 C1524 0.950 . S
H1495 C1525 0.950 . S
C1496 H1478 0.951 . S
C1496 C1497 1.366 . S
C1496 C1498 1.388 . S
C1497 C1496 1.366 . S
C1497 C1501 1.385 . S
C1498 H1479 0.951 . S
C1498 C1496 1.388 . S
C1498 C1499 1.366 . S
C1499 C1498 1.366 . S
C1499 C1500 1.414 . S
C1499 C1502 1.499 . S
C1500 H1480 0.950 . S
C1500 C1499 1.414 . S
C1500 C1501 1.374 . S
C1501 H1481 0.950 . S
C1501 C1497 1.385 . S
C1501 C1500 1.374 . S
C1502 C1499 1.499 . S
C1502 C1503 1.373 . S
C1502 C1504 1.389 . S
C1503 H1482 0.950 . S
C1503 C1502 1.373 . S
C1503 C1519 1.377 . S
C1504 C1502 1.389 . S
C1504 C1505 1.524 . S
C1504 C1518 1.377 . S
C1505 C1504 1.524 . S
C1505 C1506 1.397 . S
C1505 C1510 1.363 . S
C1506 H1483 0.950 . S
C1506 C1505 1.397 . S
C1506 C1507 1.334 . S
C1507 H1484 0.950 . S
C1507 C1506 1.334 . S
C1507 C1508 1.287 . S
C1508 C1507 1.287 . S
C1508 C1509 1.524 . S
C1508 H1527 0.913 . S
C1509 H1485 0.950 . S
C1509 C1508 1.524 . S
C1509 C1510 1.415 . S
C1510 H1486 0.950 . S
C1510 C1505 1.363 . S
C1510 C1509 1.415 . S
C1511 H1487 0.951 . S
C1511 C1512 1.366 . S
C1511 C1513 1.388 . S
C1512 C1511 1.366 . S
C1512 C1516 1.385 . S
C1513 H1488 0.951 . S
C1513 C1511 1.388 . S
C1513 C1514 1.366 . S
C1514 C1513 1.366 . S
C1514 C1515 1.414 . S
C1514 C1517 1.499 . S
C1515 H1489 0.950 . S
C1515 C1514 1.414 . S
C1515 C1516 1.374 . S
C1516 H1490 0.950 . S
C1516 C1512 1.385 . S
C1516 C1515 1.374 . S
C1517 C1514 1.499 . S
C1517 C1518 1.373 . S
C1517 C1519 1.389 . S
C1518 H1491 0.950 . S
C1518 C1504 1.377 . S
C1518 C1517 1.373 . S
C1519 C1503 1.377 . S
C1519 C1517 1.389 . S
C1519 C1520 1.524 . S
C1520 C1519 1.524 . S
C1520 C1521 1.397 . S
C1520 C1525 1.363 . S
C1521 H1492 0.950 . S
C1521 C1520 1.397 . S
C1521 C1522 1.334 . S
C1522 H1493 0.950 . S
C1522 C1521 1.334 . S
C1522 C1523 1.287 . S
C1523 C1522 1.287 . S
C1523 C1524 1.524 . S
C1523 H1526 0.999 . S
C1524 H1494 0.950 . S
C1524 C1523 1.524 . S
C1524 C1525 1.415 . S
C1525 H1495 0.950 . S
C1525 C1520 1.363 . S
C1525 C1524 1.415 . S
H1526 C1523 0.999 . S
H1527 C1508 0.913 . S
H1528 C1546 0.951 . S
H1529 C1548 0.951 . S
H1530 C1550 0.950 . S
H1531 C1551 0.950 . S
H1532 C1553 0.950 . S
H1533 C1556 0.950 . S
H1534 C1557 0.950 . S
H1535 C1559 0.950 . S
H1536 C1560 0.950 . S
H1537 C1561 0.951 . S
H1538 C1563 0.951 . S
H1539 C1565 0.950 . S
H1540 C1566 0.950 . S
H1541 C1568 0.950 . S
H1542 C1571 0.950 . S
H1543 C1572 0.950 . S
H1544 C1574 0.950 . S
H1545 C1575 0.950 . S
C1546 H1528 0.951 . S
C1546 C1547 1.366 . S
C1546 C1548 1.388 . S
C1547 C1546 1.366 . S
C1547 C1551 1.385 . S
C1548 H1529 0.951 . S
C1548 C1546 1.388 . S
C1548 C1549 1.366 . S
C1549 C1548 1.366 . S
C1549 C1550 1.414 . S
C1549 C1552 1.499 . S
C1550 H1530 0.950 . S
C1550 C1549 1.414 . S
C1550 C1551 1.374 . S
C1551 H1531 0.950 . S
C1551 C1547 1.385 . S
C1551 C1550 1.374 . S
C1552 C1549 1.499 . S
C1552 C1553 1.373 . S
C1552 C1554 1.389 . S
C1553 H1532 0.950 . S
C1553 C1552 1.373 . S
C1553 C1569 1.377 . S
C1554 C1552 1.389 . S
C1554 C1555 1.524 . S
C1554 C1568 1.377 . S
C1555 C1554 1.524 . S
C1555 C1556 1.397 . S
C1555 C1560 1.363 . S
C1556 H1533 0.950 . S
C1556 C1555 1.397 . S
C1556 C1557 1.334 . S
C1557 H1534 0.950 . S
C1557 C1556 1.334 . S
C1557 C1558 1.287 . S
C1558 C1557 1.287 . S
C1558 C1559 1.524 . S
C1558 H1577 0.913 . S
C1559 H1535 0.950 . S
C1559 C1558 1.524 . S
C1559 C1560 1.415 . S
C1560 H1536 0.950 . S
C1560 C1555 1.363 . S
C1560 C1559 1.415 . S
C1561 H1537 0.951 . S
C1561 C1562 1.366 . S
C1561 C1563 1.388 . S
C1562 C1561 1.366 . S
C1562 C1566 1.385 . S
C1563 H1538 0.951 . S
C1563 C1561 1.388 . S
C1563 C1564 1.366 . S
C1564 C1563 1.366 . S
C1564 C1565 1.414 . S
C1564 C1567 1.499 . S
C1565 H1539 0.950 . S
C1565 C1564 1.414 . S
C1565 C1566 1.374 . S
C1566 H1540 0.950 . S
C1566 C1562 1.385 . S
C1566 C1565 1.374 . S
C1567 C1564 1.499 . S
C1567 C1568 1.373 . S
C1567 C1569 1.389 . S
C1568 H1541 0.950 . S
C1568 C1554 1.377 . S
C1568 C1567 1.373 . S
C1569 C1553 1.377 . S
C1569 C1567 1.389 . S
C1569 C1570 1.524 . S
C1570 C1569 1.524 . S
C1570 C1571 1.397 . S
C1570 C1575 1.363 . S
C1571 H1542 0.950 . S
C1571 C1570 1.397 . S
C1571 C1572 1.334 . S
C1572 H1543 0.950 . S
C1572 C1571 1.334 . S
C1572 C1573 1.287 . S
C1573 C1572 1.287 . S
C1573 C1574 1.524 . S
C1573 H1576 0.999 . S
C1574 H1544 0.950 . S
C1574 C1573 1.524 . S
C1574 C1575 1.415 . S
C1575 H1545 0.950 . S
C1575 C1570 1.363 . S
C1575 C1574 1.415 . S
H1576 C1573 0.999 . S
H1577 C1558 0.913 . S
H1578 C1596 0.951 . S
H1579 C1598 0.951 . S
H1580 C1600 0.950 . S
H1581 C1601 0.950 . S
H1582 C1603 0.950 . S
H1583 C1606 0.950 . S
H1584 C1607 0.950 . S
H1585 C1609 0.950 . S
H1586 C1610 0.950 . S
H1587 C1611 0.951 . S
H1588 C1613 0.951 . S
H1589 C1615 0.950 . S
H1590 C1616 0.950 . S
H1591 C1618 0.950 . S
H1592 C1621 0.950 . S
H1593 C1622 0.950 . S
H1594 C1624 0.950 . S
H1595 C1625 0.950 . S
C1596 H1578 0.951 . S
C1596 C1597 1.366 . S
C1596 C1598 1.388 . S
C1597 C1596 1.366 . S
C1597 C1601 1.385 . S
C1598 H1579 0.951 . S
C1598 C1596 1.388 . S
C1598 C1599 1.366 . S
C1599 C1598 1.366 . S
C1599 C1600 1.414 . S
C1599 C1602 1.499 . S
C1600 H1580 0.950 . S
C1600 C1599 1.414 . S
C1600 C1601 1.374 . S
C1601 H1581 0.950 . S
C1601 C1597 1.385 . S
C1601 C1600 1.374 . S
C1602 C1599 1.499 . S
C1602 C1603 1.373 . S
C1602 C1604 1.389 . S
C1603 H1582 0.950 . S
C1603 C1602 1.373 . S
C1603 C1619 1.377 . S
C1604 C1602 1.389 . S
C1604 C1605 1.524 . S
C1604 C1618 1.377 . S
C1605 C1604 1.524 . S
C1605 C1606 1.397 . S
C1605 C1610 1.363 . S
C1606 H1583 0.950 . S
C1606 C1605 1.397 . S
C1606 C1607 1.334 . S
C1607 H1584 0.950 . S
C1607 C1606 1.334 . S
C1607 C1608 1.287 . S
C1608 C1607 1.287 . S
C1608 C1609 1.524 . S
C1608 H1627 0.913 . S
C1609 H1585 0.950 . S
C1609 C1608 1.524 . S
C1609 C1610 1.415 . S
C1610 H1586 0.950 . S
C1610 C1605 1.363 . S
C1610 C1609 1.415 . S
C1611 H1587 0.951 . S
C1611 C1612 1.366 . S
C1611 C1613 1.388 . S
C1612 C1611 1.366 . S
C1612 C1616 1.385 . S
C1613 H1588 0.951 . S
C1613 C1611 1.388 . S
C1613 C1614 1.366 . S
C1614 C1613 1.366 . S
C1614 C1615 1.414 . S
C1614 C1617 1.499 . S
C1615 H1589 0.950 . S
C1615 C1614 1.414 . S
C1615 C1616 1.374 . S
C1616 H1590 0.950 . S
C1616 C1612 1.385 . S
C1616 C1615 1.374 . S
C1617 C1614 1.499 . S
C1617 C1618 1.373 . S
C1617 C1619 1.389 . S
C1618 H1591 0.950 . S
C1618 C1604 1.377 . S
C1618 C1617 1.373 . S
C1619 C1603 1.377 . S
C1619 C1617 1.389 . S
C1619 C1620 1.524 . S
C1620 C1619 1.524 . S
C1620 C1621 1.397 . S
C1620 C1625 1.363 . S
C1621 H1592 0.950 . S
C1621 C1620 1.397 . S
C1621 C1622 1.334 . S
C1622 H1593 0.950 . S
C1622 C1621 1.334 . S
C1622 C1623 1.287 . S
C1623 C1622 1.287 . S
C1623 C1624 1.524 . S
C1623 H1626 0.999 . S
C1624 H1594 0.950 . S
C1624 C1623 1.524 . S
C1624 C1625 1.415 . S
C1625 H1595 0.950 . S
C1625 C1620 1.363 . S
C1625 C1624 1.415 . S
H1626 C1623 0.999 . S
H1627 C1608 0.913 . S
H1628 C1646 0.951 . S
H1629 C1648 0.951 . S
H1630 C1650 0.950 . S
H1631 C1651 0.950 . S
H1632 C1653 0.950 . S
H1633 C1656 0.950 . S
H1634 C1657 0.950 . S
H1635 C1659 0.950 . S
H1636 C1660 0.950 . S
H1637 C1661 0.951 . S
H1638 C1663 0.951 . S
H1639 C1665 0.950 . S
H1640 C1666 0.950 . S
H1641 C1668 0.950 . S
H1642 C1671 0.950 . S
H1643 C1672 0.950 . S
H1644 C1674 0.950 . S
H1645 C1675 0.950 . S
C1646 H1628 0.951 . S
C1646 C1647 1.366 . S
C1646 C1648 1.388 . S
C1647 C1646 1.366 . S
C1647 C1651 1.385 . S
C1648 H1629 0.951 . S
C1648 C1646 1.388 . S
C1648 C1649 1.366 . S
C1649 C1648 1.366 . S
C1649 C1650 1.414 . S
C1649 C1652 1.499 . S
C1650 H1630 0.950 . S
C1650 C1649 1.414 . S
C1650 C1651 1.374 . S
C1651 H1631 0.950 . S
C1651 C1647 1.385 . S
C1651 C1650 1.374 . S
C1652 C1649 1.499 . S
C1652 C1653 1.373 . S
C1652 C1654 1.389 . S
C1653 H1632 0.950 . S
C1653 C1652 1.373 . S
C1653 C1669 1.377 . S
C1654 C1652 1.389 . S
C1654 C1655 1.524 . S
C1654 C1668 1.377 . S
C1655 C1654 1.524 . S
C1655 C1656 1.397 . S
C1655 C1660 1.363 . S
C1656 H1633 0.950 . S
C1656 C1655 1.397 . S
C1656 C1657 1.334 . S
C1657 H1634 0.950 . S
C1657 C1656 1.334 . S
C1657 C1658 1.287 . S
C1658 C1657 1.287 . S
C1658 C1659 1.524 . S
C1658 H1677 0.913 . S
C1659 H1635 0.950 . S
C1659 C1658 1.524 . S
C1659 C1660 1.415 . S
C1660 H1636 0.950 . S
C1660 C1655 1.363 . S
C1660 C1659 1.415 . S
C1661 H1637 0.951 . S
C1661 C1662 1.366 . S
C1661 C1663 1.388 . S
C1662 C1661 1.366 . S
C1662 C1666 1.385 . S
C1663 H1638 0.951 . S
C1663 C1661 1.388 . S
C1663 C1664 1.366 . S
C1664 C1663 1.366 . S
C1664 C1665 1.414 . S
C1664 C1667 1.499 . S
C1665 H1639 0.950 . S
C1665 C1664 1.414 . S
C1665 C1666 1.374 . S
C1666 H1640 0.950 . S
C1666 C1662 1.385 . S
C1666 C1665 1.374 . S
C1667 C1664 1.499 . S
C1667 C1668 1.373 . S
C1667 C1669 1.389 . S
C1668 H1641 0.950 . S
C1668 C1654 1.377 . S
C1668 C1667 1.373 . S
C1669 C1653 1.377 . S
C1669 C1667 1.389 . S
C1669 C1670 1.524 . S
C1670 C1669 1.524 . S
C1670 C1671 1.397 . S
C1670 C1675 1.363 . S
C1671 H1642 0.950 . S
C1671 C1670 1.397 . S
C1671 C1672 1.334 . S
C1672 H1643 0.950 . S
C1672 C1671 1.334 . S
C1672 C1673 1.287 . S
C1673 C1672 1.287 . S
C1673 C1674 1.524 . S
C1673 H1676 0.999 . S
C1674 H1644 0.950 . S
C1674 C1673 1.524 . S
C1674 C1675 1.415 . S
C1675 H1645 0.950 . S
C1675 C1670 1.363 . S
C1675 C1674 1.415 . S
H1676 C1673 0.999 . S
H1677 C1658 0.913 . S
H1678 C1696 0.951 . S
H1679 C1698 0.951 . S
H1680 C1700 0.950 . S
H1681 C1701 0.950 . S
H1682 C1703 0.950 . S
H1683 C1706 0.950 . S
H1684 C1707 0.950 . S
H1685 C1709 0.950 . S
H1686 C1710 0.950 . S
H1687 C1711 0.951 . S
H1688 C1713 0.951 . S
H1689 C1715 0.950 . S
H1690 C1716 0.950 . S
H1691 C1718 0.950 . S
H1692 C1721 0.950 . S
H1693 C1722 0.950 . S
H1694 C1724 0.950 . S
H1695 C1725 0.950 . S
C1696 H1678 0.951 . S
C1696 C1697 1.366 . S
C1696 C1698 1.388 . S
C1697 C1696 1.366 . S
C1697 C1701 1.385 . S
C1698 H1679 0.951 . S
C1698 C1696 1.388 . S
C1698 C1699 1.366 . S
C1699 C1698 1.366 . S
C1699 C1700 1.414 . S
C1699 C1702 1.499 . S
C1700 H1680 0.950 . S
C1700 C1699 1.414 . S
C1700 C1701 1.374 . S
C1701 H1681 0.950 . S
C1701 C1697 1.385 . S
C1701 C1700 1.374 . S
C1702 C1699 1.499 . S
C1702 C1703 1.373 . S
C1702 C1704 1.389 . S
C1703 H1682 0.950 . S
C1703 C1702 1.373 . S
C1703 C1719 1.377 . S
C1704 C1702 1.389 . S
C1704 C1705 1.524 . S
C1704 C1718 1.377 . S
C1705 C1704 1.524 . S
C1705 C1706 1.397 . S
C1705 C1710 1.363 . S
C1706 H1683 0.950 . S
C1706 C1705 1.397 . S
C1706 C1707 1.334 . S
C1707 H1684 0.950 . S
C1707 C1706 1.334 . S
C1707 C1708 1.287 . S
C1708 C1707 1.287 . S
C1708 C1709 1.524 . S
C1708 H1727 0.913 . S
C1709 H1685 0.950 . S
C1709 C1708 1.524 . S
C1709 C1710 1.415 . S
C1710 H1686 0.950 . S
C1710 C1705 1.363 . S
C1710 C1709 1.415 . S
C1711 H1687 0.951 . S
C1711 C1712 1.366 . S
C1711 C1713 1.388 . S
C1712 C1711 1.366 . S
C1712 C1716 1.385 . S
C1713 H1688 0.951 . S
C1713 C1711 1.388 . S
C1713 C1714 1.366 . S
C1714 C1713 1.366 . S
C1714 C1715 1.414 . S
C1714 C1717 1.499 . S
C1715 H1689 0.950 . S
C1715 C1714 1.414 . S
C1715 C1716 1.374 . S
C1716 H1690 0.950 . S
C1716 C1712 1.385 . S
C1716 C1715 1.374 . S
C1717 C1714 1.499 . S
C1717 C1718 1.373 . S
C1717 C1719 1.389 . S
C1718 H1691 0.950 . S
C1718 C1704 1.377 . S
C1718 C1717 1.373 . S
C1719 C1703 1.377 . S
C1719 C1717 1.389 . S
C1719 C1720 1.524 . S
C1720 C1719 1.524 . S
C1720 C1721 1.397 . S
C1720 C1725 1.363 . S
C1721 H1692 0.950 . S
C1721 C1720 1.397 . S
C1721 C1722 1.334 . S
C1722 H1693 0.950 . S
C1722 C1721 1.334 . S
C1722 C1723 1.287 . S
C1723 C1722 1.287 . S
C1723 C1724 1.524 . S
C1723 H1726 0.999 . S
C1724 H1694 0.950 . S
C1724 C1723 1.524 . S
C1724 C1725 1.415 . S
C1725 H1695 0.950 . S
C1725 C1720 1.363 . S
C1725 C1724 1.415 . S
H1726 C1723 0.999 . S
H1727 C1708 0.913 . S
H1728 C1746 0.951 . S
H1729 C1748 0.951 . S
H1730 C1750 0.950 . S
H1731 C1751 0.950 . S
H1732 C1753 0.950 . S
H1733 C1756 0.950 . S
H1734 C1757 0.950 . S
H1735 C1759 0.950 . S
H1736 C1760 0.950 . S
H1737 C1761 0.951 . S
H1738 C1763 0.951 . S
H1739 C1765 0.950 . S
H1740 C1766 0.950 . S
H1741 C1768 0.950 . S
H1742 C1771 0.950 . S
H1743 C1772 0.950 . S
H1744 C1774 0.950 . S
H1745 C1775 0.950 . S
C1746 H1728 0.951 . S
C1746 C1747 1.366 . S
C1746 C1748 1.388 . S
C1747 C1746 1.366 . S
C1747 C1751 1.385 . S
C1748 H1729 0.951 . S
C1748 C1746 1.388 . S
C1748 C1749 1.366 . S
C1749 C1748 1.366 . S
C1749 C1750 1.414 . S
C1749 C1752 1.499 . S
C1750 H1730 0.950 . S
C1750 C1749 1.414 . S
C1750 C1751 1.374 . S
C1751 H1731 0.950 . S
C1751 C1747 1.385 . S
C1751 C1750 1.374 . S
C1752 C1749 1.499 . S
C1752 C1753 1.373 . S
C1752 C1754 1.389 . S
C1753 H1732 0.950 . S
C1753 C1752 1.373 . S
C1753 C1769 1.377 . S
C1754 C1752 1.389 . S
C1754 C1755 1.524 . S
C1754 C1768 1.377 . S
C1755 C1754 1.524 . S
C1755 C1756 1.397 . S
C1755 C1760 1.363 . S
C1756 H1733 0.950 . S
C1756 C1755 1.397 . S
C1756 C1757 1.334 . S
C1757 H1734 0.950 . S
C1757 C1756 1.334 . S
C1757 C1758 1.287 . S
C1758 C1757 1.287 . S
C1758 C1759 1.524 . S
C1758 H1777 0.913 . S
C1759 H1735 0.950 . S
C1759 C1758 1.524 . S
C1759 C1760 1.415 . S
C1760 H1736 0.950 . S
C1760 C1755 1.363 . S
C1760 C1759 1.415 . S
C1761 H1737 0.951 . S
C1761 C1762 1.366 . S
C1761 C1763 1.388 . S
C1762 C1761 1.366 . S
C1762 C1766 1.385 . S
C1763 H1738 0.951 . S
C1763 C1761 1.388 . S
C1763 C1764 1.366 . S
C1764 C1763 1.366 . S
C1764 C1765 1.414 . S
C1764 C1767 1.499 . S
C1765 H1739 0.950 . S
C1765 C1764 1.414 . S
C1765 C1766 1.374 . S
C1766 H1740 0.950 . S
C1766 C1762 1.385 . S
C1766 C1765 1.374 . S
C1767 C1764 1.499 . S
C1767 C1768 1.373 . S
C1767 C1769 1.389 . S
C1768 H1741 0.950 . S
C1768 C1754 1.377 . S
C1768 C1767 1.373 . S
C1769 C1753 1.377 . S
C1769 C1767 1.389 . S
C1769 C1770 1.524 . S
C1770 C1769 1.524 . S
C1770 C1771 1.397 . S
C1770 C1775 1.363 . S
C1771 H1742 0.950 . S
C1771 C1770 1.397 . S
C1771 C1772 1.334 . S
C1772 H1743 0.950 . S
C1772 C1771 1.334 . S
C1772 C1773 1.287 . S
C1773 C1772 1.287 . S
C1773 C1774 1.524 . S
C1773 H1776 0.999 . S
C1774 H1744 0.950 . S
C1774 C1773 1.524 . S
C1774 C1775 1.415 . S
C1775 H1745 0.950 . S
C1775 C1770 1.363 . S
C1775 C1774 1.415 . S
H1776 C1773 0.999 . S
H1777 C1758 0.913 . S
H1778 C1796 0.951 . S
H1779 C1798 0.951 . S
H1780 C1800 0.950 . S
H1781 C1801 0.950 . S
H1782 C1803 0.950 . S
H1783 C1806 0.950 . S
H1784 C1807 0.950 . S
H1785 C1809 0.950 . S
H1786 C1810 0.950 . S
H1787 C1811 0.951 . S
H1788 C1813 0.951 . S
H1789 C1815 0.950 . S
H1790 C1816 0.950 . S
H1791 C1818 0.950 . S
H1792 C1821 0.950 . S
H1793 C1822 0.950 . S
H1794 C1824 0.950 . S
H1795 C1825 0.950 . S
C1796 H1778 0.951 . S
C1796 C1797 1.366 . S
C1796 C1798 1.388 . S
C1797 C1796 1.366 . S
C1797 C1801 1.385 . S
C1798 H1779 0.951 . S
C1798 C1796 1.388 . S
C1798 C1799 1.366 . S
C1799 C1798 1.366 . S
C1799 C1800 1.414 . S
C1799 C1802 1.499 . S
C1800 H1780 0.950 . S
C1800 C1799 1.414 . S
C1800 C1801 1.374 . S
C1801 H1781 0.950 . S
C1801 C1797 1.385 . S
C1801 C1800 1.374 . S
C1802 C1799 1.499 . S
C1802 C1803 1.373 . S
C1802 C1804 1.389 . S
C1803 H1782 0.950 . S
C1803 C1802 1.373 . S
C1803 C1819 1.377 . S
C1804 C1802 1.389 . S
C1804 C1805 1.524 . S
C1804 C1818 1.377 . S
C1805 C1804 1.524 . S
C1805 C1806 1.397 . S
C1805 C1810 1.363 . S
C1806 H1783 0.950 . S
C1806 C1805 1.397 . S
C1806 C1807 1.334 . S
C1807 H1784 0.950 . S
C1807 C1806 1.334 . S
C1807 C1808 1.287 . S
C1808 C1807 1.287 . S
C1808 C1809 1.524 . S
C1808 H1827 0.913 . S
C1809 H1785 0.950 . S
C1809 C1808 1.524 . S
C1809 C1810 1.415 . S
C1810 H1786 0.950 . S
C1810 C1805 1.363 . S
C1810 C1809 1.415 . S
C1811 H1787 0.951 . S
C1811 C1812 1.366 . S
C1811 C1813 1.388 . S
C1812 C1811 1.366 . S
C1812 C1816 1.385 . S
C1813 H1788 0.951 . S
C1813 C1811 1.388 . S
C1813 C1814 1.366 . S
C1814 C1813 1.366 . S
C1814 C1815 1.414 . S
C1814 C1817 1.499 . S
C1815 H1789 0.950 . S
C1815 C1814 1.414 . S
C1815 C1816 1.374 . S
C1816 H1790 0.950 . S
C1816 C1812 1.385 . S
C1816 C1815 1.374 . S
C1817 C1814 1.499 . S
C1817 C1818 1.373 . S
C1817 C1819 1.389 . S
C1818 H1791 0.950 . S
C1818 C1804 1.377 . S
C1818 C1817 1.373 . S
C1819 C1803 1.377 . S
C1819 C1817 1.389 . S
C1819 C1820 1.524 . S
C1820 C1819 1.524 . S
C1820 C1821 1.397 . S
C1820 C1825 1.363 . S
C1821 H1792 0.950 . S
C1821 C1820 1.397 . S
C1821 C1822 1.334 . S
C1822 H1793 0.950 . S
C1822 C1821 1.334 . S
C1822 C1823 1.287 . S
C1823 C1822 1.287 . S
C1823 C1824 1.524 . S
C1823 H1826 0.999 . S
C1824 H1794 0.950 . S
C1824 C1823 1.524 . S
C1824 C1825 1.415 . S
C1825 H1795 0.950 . S
C1825 C1820 1.363 . S
C1825 C1824 1.415 . S
H1826 C1823 0.999 . S
H1827 C1808 0.913 . S
H1828 C1846 0.951 . S
H1829 C1848 0.951 . S
H1830 C1850 0.950 . S
H1831 C1851 0.950 . S
H1832 C1853 0.950 . S
H1833 C1856 0.950 . S
H1834 C1857 0.950 . S
H1835 C1859 0.950 . S
H1836 C1860 0.950 . S
H1837 C1861 0.951 . S
H1838 C1863 0.951 . S
H1839 C1865 0.950 . S
H1840 C1866 0.950 . S
H1841 C1868 0.950 . S
H1842 C1871 0.950 . S
H1843 C1872 0.950 . S
H1844 C1874 0.950 . S
H1845 C1875 0.950 . S
C1846 H1828 0.951 . S
C1846 C1847 1.366 . S
C1846 C1848 1.388 . S
C1847 C1846 1.366 . S
C1847 C1851 1.385 . S
C1848 H1829 0.951 . S
C1848 C1846 1.388 . S
C1848 C1849 1.366 . S
C1849 C1848 1.366 . S
C1849 C1850 1.414 . S
C1849 C1852 1.499 . S
C1850 H1830 0.950 . S
C1850 C1849 1.414 . S
C1850 C1851 1.374 . S
C1851 H1831 0.950 . S
C1851 C1847 1.385 . S
C1851 C1850 1.374 . S
C1852 C1849 1.499 . S
C1852 C1853 1.373 . S
C1852 C1854 1.389 . S
C1853 H1832 0.950 . S
C1853 C1852 1.373 . S
C1853 C1869 1.377 . S
C1854 C1852 1.389 . S
C1854 C1855 1.524 . S
C1854 C1868 1.377 . S
C1855 C1854 1.524 . S
C1855 C1856 1.397 . S
C1855 C1860 1.363 . S
C1856 H1833 0.950 . S
C1856 C1855 1.397 . S
C1856 C1857 1.334 . S
C1857 H1834 0.950 . S
C1857 C1856 1.334 . S
C1857 C1858 1.287 . S
C1858 C1857 1.287 . S
C1858 C1859 1.524 . S
C1858 H1877 0.913 . S
C1859 H1835 0.950 . S
C1859 C1858 1.524 . S
C1859 C1860 1.415 . S
C1860 H1836 0.950 . S
C1860 C1855 1.363 . S
C1860 C1859 1.415 . S
C1861 H1837 0.951 . S
C1861 C1862 1.366 . S
C1861 C1863 1.388 . S
C1862 C1861 1.366 . S
C1862 C1866 1.385 . S
C1863 H1838 0.951 . S
C1863 C1861 1.388 . S
C1863 C1864 1.366 . S
C1864 C1863 1.366 . S
C1864 C1865 1.414 . S
C1864 C1867 1.499 . S
C1865 H1839 0.950 . S
C1865 C1864 1.414 . S
C1865 C1866 1.374 . S
C1866 H1840 0.950 . S
C1866 C1862 1.385 . S
C1866 C1865 1.374 . S
C1867 C1864 1.499 . S
C1867 C1868 1.373 . S
C1867 C1869 1.389 . S
C1868 H1841 0.950 . S
C1868 C1854 1.377 . S
C1868 C1867 1.373 . S
C1869 C1853 1.377 . S
C1869 C1867 1.389 . S
C1869 C1870 1.524 . S
C1870 C1869 1.524 . S
C1870 C1871 1.397 . S
C1870 C1875 1.363 . S
C1871 H1842 0.950 . S
C1871 C1870 1.397 . S
C1871 C1872 1.334 . S
C1872 H1843 0.950 . S
C1872 C1871 1.334 . S
C1872 C1873 1.287 . S
C1873 C1872 1.287 . S
C1873 C1874 1.524 . S
C1873 H1876 0.999 . S
C1874 H1844 0.950 . S
C1874 C1873 1.524 . S
C1874 C1875 1.415 . S
C1875 H1845 0.950 . S
C1875 C1870 1.363 . S
C1875 C1874 1.415 . S
H1876 C1873 0.999 . S
H1877 C1858 0.913 . S
H1878 C1896 0.951 . S
H1879 C1898 0.951 . S
H1880 C1900 0.950 . S
H1881 C1901 0.950 . S
H1882 C1903 0.950 . S
H1883 C1906 0.950 . S
H1884 C1907 0.950 . S
H1885 C1909 0.950 . S
H1886 C1910 0.950 . S
H1887 C1911 0.951 . S
H1888 C1913 0.951 . S
H1889 C1915 0.950 . S
H1890 C1916 0.950 . S
H1891 C1918 0.950 . S
H1892 C1921 0.950 . S
H1893 C1922 0.950 . S
H1894 C1924 0.950 . S
H1895 C1925 0.950 . S
C1896 H1878 0.951 . S
C1896 C1897 1.366 . S
C1896 C1898 1.388 . S
C1897 C1896 1.366 . S
C1897 C1901 1.385 . S
C1898 H1879 0.951 . S
C1898 C1896 1.388 . S
C1898 C1899 1.366 . S
C1899 C1898 1.366 . S
C1899 C1900 1.414 . S
C1899 C1902 1.499 . S
C1900 H1880 0.950 . S
C1900 C1899 1.414 . S
C1900 C1901 1.374 . S
C1901 H1881 0.950 . S
C1901 C1897 1.385 . S
C1901 C1900 1.374 . S
C1902 C1899 1.499 . S
C1902 C1903 1.373 . S
C1902 C1904 1.389 . S
C1903 H1882 0.950 . S
C1903 C1902 1.373 . S
C1903 C1919 1.377 . S
C1904 C1902 1.389 . S
C1904 C1905 1.524 . S
C1904 C1918 1.377 . S
C1905 C1904 1.524 . S
C1905 C1906 1.397 . S
C1905 C1910 1.363 . S
C1906 H1883 0.950 . S
C1906 C1905 1.397 . S
C1906 C1907 1.334 . S
C1907 H1884 0.950 . S
C1907 C1906 1.334 . S
C1907 C1908 1.287 . S
C1908 C1907 1.287 . S
C1908 C1909 1.524 . S
C1908 H1927 0.913 . S
C1909 H1885 0.950 . S
C1909 C1908 1.524 . S
C1909 C1910 1.415 . S
C1910 H1886 0.950 . S
C1910 C1905 1.363 . S
C1910 C1909 1.415 . S
C1911 H1887 0.951 . S
C1911 C1912 1.366 . S
C1911 C1913 1.388 . S
C1912 C1911 1.366 . S
C1912 C1916 1.385 . S
C1913 H1888 0.951 . S
C1913 C1911 1.388 . S
C1913 C1914 1.366 . S
C1914 C1913 1.366 . S
C1914 C1915 1.414 . S
C1914 C1917 1.499 . S
C1915 H1889 0.950 . S
C1915 C1914 1.414 . S
C1915 C1916 1.374 . S
C1916 H1890 0.950 . S
C1916 C1912 1.385 . S
C1916 C1915 1.374 . S
C1917 C1914 1.499 . S
C1917 C1918 1.373 . S
C1917 C1919 1.389 . S
C1918 H1891 0.950 . S
C1918 C1904 1.377 . S
C1918 C1917 1.373 . S
C1919 C1903 1.377 . S
C1919 C1917 1.389 . S
C1919 C1920 1.524 . S
C1920 C1919 1.524 . S
C1920 C1921 1.397 . S
C1920 C1925 1.363 . S
C1921 H1892 0.950 . S
C1921 C1920 1.397 . S
C1921 C1922 1.334 . S
C1922 H1893 0.950 . S
C1922 C1921 1.334 . S
C1922 C1923 1.287 . S
C1923 C1922 1.287 . S
C1923 C1924 1.524 . S
C1923 H1926 0.999 . S
C1924 H1894 0.950 . S
C1924 C1923 1.524 . S
C1924 C1925 1.415 . S
C1925 H1895 0.950 . S
C1925 C1920 1.363 . S
C1925 C1924 1.415 . S
H1926 C1923 0.999 . S
H1927 C1908 0.913 . S
H1928 C1946 0.951 . S
H1929 C1948 0.951 . S
H1930 C1950 0.950 . S
H1931 C1951 0.950 . S
H1932 C1953 0.950 . S
H1933 C1956 0.950 . S
H1934 C1957 0.950 . S
H1935 C1959 0.950 . S
H1936 C1960 0.950 . S
H1937 C1961 0.951 . S
H1938 C1963 0.951 . S
H1939 C1965 0.950 . S
H1940 C1966 0.950 . S
H1941 C1968 0.950 . S
H1942 C1971 0.950 . S
H1943 C1972 0.950 . S
H1944 C1974 0.950 . S
H1945 C1975 0.950 . S
C1946 H1928 0.951 . S
C1946 C1947 1.366 . S
C1946 C1948 1.388 . S
C1947 C1946 1.366 . S
C1947 C1951 1.385 . S
C1948 H1929 0.951 . S
C1948 C1946 1.388 . S
C1948 C1949 1.366 . S
C1949 C1948 1.366 . S
C1949 C1950 1.414 . S
C1949 C1952 1.499 . S
C1950 H1930 0.950 . S
C1950 C1949 1.414 . S
C1950 C1951 1.374 . S
C1951 H1931 0.950 . S
C1951 C1947 1.385 . S
C1951 C1950 1.374 . S
C1952 C1949 1.499 . S
C1952 C1953 1.373 . S
C1952 C1954 1.389 . S
C1953 H1932 0.950 . S
C1953 C1952 1.373 . S
C1953 C1969 1.377 . S
C1954 C1952 1.389 . S
C1954 C1955 1.524 . S
C1954 C1968 1.377 . S
C1955 C1954 1.524 . S
C1955 C1956 1.397 . S
C1955 C1960 1.363 . S
C1956 H1933 0.950 . S
C1956 C1955 1.397 . S
C1956 C1957 1.334 . S
C1957 H1934 0.950 . S
C1957 C1956 1.334 . S
C1957 C1958 1.287 . S
C1958 C1957 1.287 . S
C1958 C1959 1.524 . S
C1958 H1977 0.913 . S
C1959 H1935 0.950 . S
C1959 C1958 1.524 . S
C1959 C1960 1.415 . S
C1960 H1936 0.950 . S
C1960 C1955 1.363 . S
C1960 C1959 1.415 . S
C1961 H1937 0.951 . S
C1961 C1962 1.366 . S
C1961 C1963 1.388 . S
C1962 C1961 1.366 . S
C1962 C1966 1.385 . S
C1963 H1938 0.951 . S
C1963 C1961 1.388 . S
C1963 C1964 1.366 . S
C1964 C1963 1.366 . S
C1964 C1965 1.414 . S
C1964 C1967 1.499 . S
C1965 H1939 0.950 . S
C1965 C1964 1.414 . S
C1965 C1966 1.374 . S
C1966 H1940 0.950 . S
C1966 C1962 1.385 . S
C1966 C1965 1.374 . S
C1967 C1964 1.499 . S
C1967 C1968 1.373 . S
C1967 C1969 1.389 . S
C1968 H1941 0.950 . S
C1968 C1954 1.377 . S
C1968 C1967 1.373 . S
C1969 C1953 1.377 . S
C1969 C1967 1.389 . S
C1969 C1970 1.524 . S
C1970 C1969 1.524 . S
C1970 C1971 1.397 . S
C1970 C1975 1.363 . S
C1971 H1942 0.950 . S
C1971 C1970 1.397 . S
C1971 C1972 1.334 . S
C1972 H1943 0.950 . S
C1972 C1971 1.334 . S
C1972 C1973 1.287 . S
C1973 C1972 1.287 . S
C1973 C1974 1.524 . S
C1973 H1976 0.999 . S
C1974 H1944 0.950 . S
C1974 C1973 1.524 . S
C1974 C1975 1.415 . S
C1975 H1945 0.950 . S
C1975 C1970 1.363 . S
C1975 C1974 1.415 . S
H1976 C1973 0.999 . S
H1977 C1958 0.913 . S
H1978 C1996 0.951 . S
H1979 C1998 0.951 . S
H1980 C2000 0.950 . S
H1981 C2001 0.950 . S
H1982 C2003 0.950 . S
H1983 C2006 0.950 . S
H1984 C2007 0.950 . S
H1985 C2009 0.950 . S
H1986 C2010 0.950 . S
H1987 C2011 0.951 . S
H1988 C2013 0.951 . S
H1989 C2015 0.950 . S
H1990 C2016 0.950 . S
H1991 C2018 0.950 . S
H1992 C2021 0.950 . S
H1993 C2022 0.950 . S
H1994 C2024 0.950 . S
H1995 C2025 0.950 . S
C1996 H1978 0.951 . S
C1996 C1997 1.366 . S
C1996 C1998 1.388 . S
C1997 C1996 1.366 . S
C1997 C2001 1.385 . S
C1998 H1979 0.951 . S
C1998 C1996 1.388 . S
C1998 C1999 1.366 . S
C1999 C1998 1.366 . S
C1999 C2000 1.414 . S
C1999 C2002 1.499 . S
C2000 H1980 0.950 . S
C2000 C1999 1.414 . S
C2000 C2001 1.374 . S
C2001 H1981 0.950 . S
C2001 C1997 1.385 . S
C2001 C2000 1.374 . S
C2002 C1999 1.499 . S
C2002 C2003 1.373 . S
C2002 C2004 1.389 . S
C2003 H1982 0.950 . S
C2003 C2002 1.373 . S
C2003 C2019 1.377 . S
C2004 C2002 1.389 . S
C2004 C2005 1.524 . S
C2004 C2018 1.377 . S
C2005 C2004 1.524 . S
C2005 C2006 1.397 . S
C2005 C2010 1.363 . S
C2006 H1983 0.950 . S
C2006 C2005 1.397 . S
C2006 C2007 1.334 . S
C2007 H1984 0.950 . S
C2007 C2006 1.334 . S
C2007 C2008 1.287 . S
C2008 C2007 1.287 . S
C2008 C2009 1.524 . S
C2008 H2027 0.913 . S
C2009 H1985 0.950 . S
C2009 C2008 1.524 . S
C2009 C2010 1.415 . S
C2010 H1986 0.950 . S
C2010 C2005 1.363 . S
C2010 C2009 1.415 . S
C2011 H1987 0.951 . S
C2011 C2012 1.366 . S
C2011 C2013 1.388 . S
C2012 C2011 1.366 . S
C2012 C2016 1.385 . S
C2013 H1988 0.951 . S
C2013 C2011 1.388 . S
C2013 C2014 1.366 . S
C2014 C2013 1.366 . S
C2014 C2015 1.414 . S
C2014 C2017 1.499 . S
C2015 H1989 0.950 . S
C2015 C2014 1.414 . S
C2015 C2016 1.374 . S
C2016 H1990 0.950 . S
C2016 C2012 1.385 . S
C2016 C2015 1.374 . S
C2017 C2014 1.499 . S
C2017 C2018 1.373 . S
C2017 C2019 1.389 . S
C2018 H1991 0.950 . S
C2018 C2004 1.377 . S
C2018 C2017 1.373 . S
C2019 C2003 1.377 . S
C2019 C2017 1.389 . S
C2019 C2020 1.524 . S
C2020 C2019 1.524 . S
C2020 C2021 1.397 . S
C2020 C2025 1.363 . S
C2021 H1992 0.950 . S
C2021 C2020 1.397 . S
C2021 C2022 1.334 . S
C2022 H1993 0.950 . S
C2022 C2021 1.334 . S
C2022 C2023 1.287 . S
C2023 C2022 1.287 . S
C2023 C2024 1.524 . S
C2023 H2026 0.999 . S
C2024 H1994 0.950 . S
C2024 C2023 1.524 . S
C2024 C2025 1.415 . S
C2025 H1995 0.950 . S
C2025 C2020 1.363 . S
C2025 C2024 1.415 . S
H2026 C2023 0.999 . S
H2027 C2008 0.913 . S
H2028 C2046 0.951 . S
H2029 C2048 0.951 . S
H2030 C2050 0.950 . S
H2031 C2051 0.950 . S
H2032 C2053 0.950 . S
H2033 C2056 0.950 . S
H2034 C2057 0.950 . S
H2035 C2059 0.950 . S
H2036 C2060 0.950 . S
H2037 C2061 0.951 . S
H2038 C2063 0.951 . S
H2039 C2065 0.950 . S
H2040 C2066 0.950 . S
H2041 C2068 0.950 . S
H2042 C2071 0.950 . S
H2043 C2072 0.950 . S
H2044 C2074 0.950 . S
H2045 C2075 0.950 . S
C2046 H2028 0.951 . S
C2046 C2047 1.366 . S
C2046 C2048 1.388 . S
C2047 C2046 1.366 . S
C2047 C2051 1.385 . S
C2048 H2029 0.951 . S
C2048 C2046 1.388 . S
C2048 C2049 1.366 . S
C2049 C2048 1.366 . S
C2049 C2050 1.414 . S
C2049 C2052 1.499 . S
C2050 H2030 0.950 . S
C2050 C2049 1.414 . S
C2050 C2051 1.374 . S
C2051 H2031 0.950 . S
C2051 C2047 1.385 . S
C2051 C2050 1.374 . S
C2052 C2049 1.499 . S
C2052 C2053 1.373 . S
C2052 C2054 1.389 . S
C2053 H2032 0.950 . S
C2053 C2052 1.373 . S
C2053 C2069 1.377 . S
C2054 C2052 1.389 . S
C2054 C2055 1.524 . S
C2054 C2068 1.377 . S
C2055 C2054 1.524 . S
C2055 C2056 1.397 . S
C2055 C2060 1.363 . S
C2056 H2033 0.950 . S
C2056 C2055 1.397 . S
C2056 C2057 1.334 . S
C2057 H2034 0.950 . S
C2057 C2056 1.334 . S
C2057 C2058 1.287 . S
C2058 C2057 1.287 . S
C2058 C2059 1.524 . S
C2058 H2077 0.913 . S
C2059 H2035 0.950 . S
C2059 C2058 1.524 . S
C2059 C2060 1.415 . S
C2060 H2036 0.950 . S
C2060 C2055 1.363 . S
C2060 C2059 1.415 . S
C2061 H2037 0.951 . S
C2061 C2062 1.366 . S
C2061 C2063 1.388 . S
C2062 C2061 1.366 . S
C2062 C2066 1.385 . S
C2063 H2038 0.951 . S
C2063 C2061 1.388 . S
C2063 C2064 1.366 . S
C2064 C2063 1.366 . S
C2064 C2065 1.414 . S
C2064 C2067 1.499 . S
C2065 H2039 0.950 . S
C2065 C2064 1.414 . S
C2065 C2066 1.374 . S
C2066 H2040 0.950 . S
C2066 C2062 1.385 . S
C2066 C2065 1.374 . S
C2067 C2064 1.499 . S
C2067 C2068 1.373 . S
C2067 C2069 1.389 . S
C2068 H2041 0.950 . S
C2068 C2054 1.377 . S
C2068 C2067 1.373 . S
C2069 C2053 1.377 . S
C2069 C2067 1.389 . S
C2069 C2070 1.524 . S
C2070 C2069 1.524 . S
C2070 C2071 1.397 . S
C2070 C2075 1.363 . S
C2071 H2042 0.950 . S
C2071 C2070 1.397 . S
C2071 C2072 1.334 . S
C2072 H2043 0.950 . S
C2072 C2071 1.334 . S
C2072 C2073 1.287 . S
C2073 C2072 1.287 . S
C2073 C2074 1.524 . S
C2073 H2076 0.999 . S
C2074 H2044 0.950 . S
C2074 C2073 1.524 . S
C2074 C2075 1.415 . S
C2075 H2045 0.950 . S
C2075 C2070 1.363 . S
C2075 C2074 1.415 . S
H2076 C2073 0.999 . S
H2077 C2058 0.913 . S
H2078 C2096 0.951 . S
H2079 C2098 0.951 . S
H2080 C2100 0.950 . S
H2081 C2101 0.950 . S
H2082 C2103 0.950 . S
H2083 C2106 0.950 . S
H2084 C2107 0.950 . S
H2085 C2109 0.950 . S
H2086 C2110 0.950 . S
H2087 C2111 0.951 . S
H2088 C2113 0.951 . S
H2089 C2115 0.950 . S
H2090 C2116 0.950 . S
H2091 C2118 0.950 . S
H2092 C2121 0.950 . S
H2093 C2122 0.950 . S
H2094 C2124 0.950 . S
H2095 C2125 0.950 . S
C2096 H2078 0.951 . S
C2096 C2097 1.366 . S
C2096 C2098 1.388 . S
C2097 C2096 1.366 . S
C2097 C2101 1.385 . S
C2098 H2079 0.951 . S
C2098 C2096 1.388 . S
C2098 C2099 1.366 . S
C2099 C2098 1.366 . S
C2099 C2100 1.414 . S
C2099 C2102 1.499 . S
C2100 H2080 0.950 . S
C2100 C2099 1.414 . S
C2100 C2101 1.374 . S
C2101 H2081 0.950 . S
C2101 C2097 1.385 . S
C2101 C2100 1.374 . S
C2102 C2099 1.499 . S
C2102 C2103 1.373 . S
C2102 C2104 1.389 . S
C2103 H2082 0.950 . S
C2103 C2102 1.373 . S
C2103 C2119 1.377 . S
C2104 C2102 1.389 . S
C2104 C2105 1.524 . S
C2104 C2118 1.377 . S
C2105 C2104 1.524 . S
C2105 C2106 1.397 . S
C2105 C2110 1.363 . S
C2106 H2083 0.950 . S
C2106 C2105 1.397 . S
C2106 C2107 1.334 . S
C2107 H2084 0.950 . S
C2107 C2106 1.334 . S
C2107 C2108 1.287 . S
C2108 C2107 1.287 . S
C2108 C2109 1.524 . S
C2108 H2127 0.913 . S
C2109 H2085 0.950 . S
C2109 C2108 1.524 . S
C2109 C2110 1.415 . S
C2110 H2086 0.950 . S
C2110 C2105 1.363 . S
C2110 C2109 1.415 . S
C2111 H2087 0.951 . S
C2111 C2112 1.366 . S
C2111 C2113 1.388 . S
C2112 C2111 1.366 . S
C2112 C2116 1.385 . S
C2113 H2088 0.951 . S
C2113 C2111 1.388 . S
C2113 C2114 1.366 . S
C2114 C2113 1.366 . S
C2114 C2115 1.414 . S
C2114 C2117 1.499 . S
C2115 H2089 0.950 . S
C2115 C2114 1.414 . S
C2115 C2116 1.374 . S
C2116 H2090 0.950 . S
C2116 C2112 1.385 . S
C2116 C2115 1.374 . S
C2117 C2114 1.499 . S
C2117 C2118 1.373 . S
C2117 C2119 1.389 . S
C2118 H2091 0.950 . S
C2118 C2104 1.377 . S
C2118 C2117 1.373 . S
C2119 C2103 1.377 . S
C2119 C2117 1.389 . S
C2119 C2120 1.524 . S
C2120 C2119 1.524 . S
C2120 C2121 1.397 . S
C2120 C2125 1.363 . S
C2121 H2092 0.950 . S
C2121 C2120 1.397 . S
C2121 C2122 1.334 . S
C2122 H2093 0.950 . S
C2122 C2121 1.334 . S
C2122 C2123 1.287 . S
C2123 C2122 1.287 . S
C2123 C2124 1.524 . S
C2123 H2126 0.999 . S
C2124 H2094 0.950 . S
C2124 C2123 1.524 . S
C2124 C2125 1.415 . S
C2125 H2095 0.950 . S
C2125 C2120 1.363 . S
C2125 C2124 1.415 . S
H2126 C2123 0.999 . S
H2127 C2108 0.913 . S
H2128 C2146 0.951 . S
H2129 C2148 0.951 . S
H2130 C2150 0.950 . S
H2131 C2151 0.950 . S
H2132 C2153 0.950 . S
H2133 C2156 0.950 . S
H2134 C2157 0.950 . S
H2135 C2159 0.950 . S
H2136 C2160 0.950 . S
H2137 C2161 0.951 . S
H2138 C2163 0.951 . S
H2139 C2165 0.950 . S
H2140 C2166 0.950 . S
H2141 C2168 0.950 . S
H2142 C2171 0.950 . S
H2143 C2172 0.950 1_655 S
H2144 C2174 0.950 . S
H2145 C2175 0.950 . S
C2146 H2128 0.951 . S
C2146 C2147 1.366 . S
C2146 C2148 1.388 . S
C2147 C2146 1.366 . S
C2147 C2151 1.385 . S
C2148 H2129 0.951 . S
C2148 C2146 1.388 . S
C2148 C2149 1.366 . S
C2149 C2148 1.366 . S
C2149 C2150 1.414 . S
C2149 C2152 1.499 . S
C2150 H2130 0.950 . S
C2150 C2149 1.414 . S
C2150 C2151 1.374 . S
C2151 H2131 0.950 . S
C2151 C2147 1.385 . S
C2151 C2150 1.374 . S
C2152 C2149 1.499 . S
C2152 C2153 1.373 . S
C2152 C2154 1.389 . S
C2153 H2132 0.950 . S
C2153 C2152 1.373 . S
C2153 C2169 1.377 . S
C2154 C2152 1.389 . S
C2154 C2155 1.524 . S
C2154 C2168 1.377 . S
C2155 C2154 1.524 . S
C2155 C2156 1.397 . S
C2155 C2160 1.363 . S
C2156 H2133 0.950 . S
C2156 C2155 1.397 . S
C2156 C2157 1.334 . S
C2157 H2134 0.950 . S
C2157 C2156 1.334 . S
C2157 C2158 1.287 . S
C2158 C2157 1.287 . S
C2158 C2159 1.524 . S
C2158 H2177 0.913 . S
C2159 H2135 0.950 . S
C2159 C2158 1.524 . S
C2159 C2160 1.415 . S
C2160 H2136 0.950 . S
C2160 C2155 1.363 . S
C2160 C2159 1.415 . S
C2161 H2137 0.951 . S
C2161 C2162 1.366 . S
C2161 C2163 1.388 . S
C2162 C2161 1.366 . S
C2162 C2166 1.385 . S
C2163 H2138 0.951 . S
C2163 C2161 1.388 . S
C2163 C2164 1.366 . S
C2164 C2163 1.366 . S
C2164 C2165 1.414 . S
C2164 C2167 1.499 . S
C2165 H2139 0.950 . S
C2165 C2164 1.414 . S
C2165 C2166 1.374 . S
C2166 H2140 0.950 . S
C2166 C2162 1.385 . S
C2166 C2165 1.374 . S
C2167 C2164 1.499 . S
C2167 C2168 1.373 . S
C2167 C2169 1.389 . S
C2168 H2141 0.950 . S
C2168 C2154 1.377 . S
C2168 C2167 1.373 . S
C2169 C2153 1.377 . S
C2169 C2167 1.389 . S
C2169 C2170 1.524 . S
C2170 C2169 1.524 . S
C2170 C2171 1.397 . S
C2170 C2175 1.363 . S
C2171 H2142 0.950 . S
C2171 C2170 1.397 . S
C2171 C2172 1.334 . S
C2172 H2143 0.950 1_455 S
C2172 C2171 1.334 . S
C2172 C2173 1.287 . S
C2173 C2172 1.287 . S
C2173 C2174 1.524 . S
C2173 H2176 1.008 . S
C2174 H2144 0.950 . S
C2174 C2173 1.524 . S
C2174 C2175 1.415 . S
C2175 H2145 0.950 . S
C2175 C2170 1.363 . S
C2175 C2174 1.415 . S
H2176 C2173 1.008 . S
H2177 C2158 0.913 . S
H2178 C2196 0.951 . S
H2179 C2198 0.951 . S
H2180 C2200 0.950 . S
H2181 C2201 0.950 . S
H2182 C2203 0.950 . S
H2183 C2206 0.950 . S
H2184 C2207 0.950 . S
H2185 C2209 0.950 . S
H2186 C2210 0.950 . S
H2187 C2211 0.951 . S
H2188 C2213 0.951 . S
H2189 C2215 0.950 . S
H2190 C2216 0.950 . S
H2191 C2218 0.950 . S
H2192 C2221 0.950 . S
H2193 C2222 0.950 . S
H2194 C2224 0.950 . S
H2195 C2225 0.950 . S
C2196 H2178 0.951 . S
C2196 C2197 1.366 . S
C2196 C2198 1.388 . S
C2197 C2196 1.366 . S
C2197 C2201 1.385 . S
C2198 H2179 0.951 . S
C2198 C2196 1.388 . S
C2198 C2199 1.366 . S
C2199 C2198 1.366 . S
C2199 C2200 1.414 . S
C2199 C2202 1.499 . S
C2200 H2180 0.950 . S
C2200 C2199 1.414 . S
C2200 C2201 1.374 . S
C2201 H2181 0.950 . S
C2201 C2197 1.385 . S
C2201 C2200 1.374 . S
C2202 C2199 1.499 . S
C2202 C2203 1.373 . S
C2202 C2204 1.389 . S
C2203 H2182 0.950 . S
C2203 C2202 1.373 . S
C2203 C2219 1.377 . S
C2204 C2202 1.389 . S
C2204 C2205 1.524 . S
C2204 C2218 1.377 . S
C2205 C2204 1.524 . S
C2205 C2206 1.397 . S
C2205 C2210 1.363 . S
C2206 H2183 0.950 . S
C2206 C2205 1.397 . S
C2206 C2207 1.334 1_655 S
C2207 H2184 0.950 . S
C2207 C2206 1.334 1_455 S
C2207 C2208 1.287 . S
C2208 C2207 1.287 . S
C2208 C2209 1.524 . S
C2208 H2227 0.913 . S
C2209 H2185 0.950 . S
C2209 C2208 1.524 . S
C2209 C2210 1.415 1_455 S
C2210 H2186 0.950 . S
C2210 C2205 1.363 . S
C2210 C2209 1.415 1_655 S
C2211 H2187 0.951 . S
C2211 C2212 1.366 . S
C2211 C2213 1.388 . S
C2212 C2211 1.366 . S
C2212 C2216 1.385 . S
C2213 H2188 0.951 . S
C2213 C2211 1.388 . S
C2213 C2214 1.366 . S
C2214 C2213 1.366 . S
C2214 C2215 1.414 . S
C2214 C2217 1.499 . S
C2215 H2189 0.950 . S
C2215 C2214 1.414 . S
C2215 C2216 1.374 . S
C2216 H2190 0.950 . S
C2216 C2212 1.385 . S
C2216 C2215 1.374 . S
C2217 C2214 1.499 . S
C2217 C2218 1.373 . S
C2217 C2219 1.389 . S
C2218 H2191 0.950 . S
C2218 C2204 1.377 . S
C2218 C2217 1.373 . S
C2219 C2203 1.377 . S
C2219 C2217 1.389 . S
C2219 C2220 1.524 . S
C2220 C2219 1.524 . S
C2220 C2221 1.397 . S
C2220 C2225 1.363 . S
C2221 H2192 0.950 . S
C2221 C2220 1.397 . S
C2221 C2222 1.334 . S
C2222 H2193 0.950 . S
C2222 C2221 1.334 . S
C2222 C2223 1.287 . S
C2223 C2222 1.287 . S
C2223 C2224 1.524 . S
C2223 H2226 0.999 . S
C2224 H2194 0.950 . S
C2224 C2223 1.524 . S
C2224 C2225 1.415 . S
C2225 H2195 0.950 . S
C2225 C2220 1.363 . S
C2225 C2224 1.415 . S
H2226 C2223 0.999 . S
H2227 C2208 0.913 . S
H2228 C2246 0.951 . S
H2229 C2248 0.951 . S
H2230 C2250 0.950 . S
H2231 C2251 0.950 . S
H2232 C2253 0.950 . S
H2233 C2256 0.950 . S
H2234 C2257 0.950 . S
H2235 C2259 0.950 . S
H2236 C2260 0.950 1_455 S
H2237 C2261 0.951 . S
H2238 C2263 0.951 . S
H2239 C2265 0.950 . S
H2240 C2266 0.950 . S
H2241 C2268 0.950 . S
H2242 C2271 0.950 . S
H2243 C2272 0.950 . S
H2244 C2274 0.950 . S
H2245 C2275 0.950 . S
C2246 H2228 0.951 . S
C2246 C2247 1.366 . S
C2246 C2248 1.388 . S
C2247 C2246 1.366 . S
C2247 C2251 1.385 . S
C2248 H2229 0.951 . S
C2248 C2246 1.388 . S
C2248 C2249 1.366 . S
C2249 C2248 1.366 . S
C2249 C2250 1.414 . S
C2249 C2252 1.499 . S
C2250 H2230 0.950 . S
C2250 C2249 1.414 . S
C2250 C2251 1.374 . S
C2251 H2231 0.950 . S
C2251 C2247 1.385 . S
C2251 C2250 1.374 . S
C2252 C2249 1.499 . S
C2252 C2253 1.373 . S
C2252 C2254 1.389 . S
C2253 H2232 0.950 . S
C2253 C2252 1.373 . S
C2253 C2269 1.377 . S
C2254 C2252 1.389 . S
C2254 C2255 1.524 . S
C2254 C2268 1.377 . S
C2255 C2254 1.524 . S
C2255 C2256 1.397 . S
C2255 C2260 1.363 1_455 S
C2256 H2233 0.950 . S
C2256 C2255 1.397 . S
C2256 C2257 1.334 1_455 S
C2257 H2234 0.950 . S
C2257 C2256 1.334 1_655 S
C2257 C2258 1.287 . S
C2258 C2257 1.287 . S
C2258 C2259 1.524 . S
C2258 H2277 0.913 . S
C2259 H2235 0.950 . S
C2259 C2258 1.524 . S
C2259 C2260 1.415 . S
C2260 H2236 0.950 1_655 S
C2260 C2255 1.363 1_655 S
C2260 C2259 1.415 . S
C2261 H2237 0.951 . S
C2261 C2262 1.366 . S
C2261 C2263 1.388 . S
C2262 C2261 1.366 . S
C2262 C2266 1.385 . S
C2263 H2238 0.951 . S
C2263 C2261 1.388 . S
C2263 C2264 1.366 . S
C2264 C2263 1.366 . S
C2264 C2265 1.414 . S
C2264 C2267 1.499 . S
C2265 H2239 0.950 . S
C2265 C2264 1.414 . S
C2265 C2266 1.374 . S
C2266 H2240 0.950 . S
C2266 C2262 1.385 . S
C2266 C2265 1.374 . S
C2267 C2264 1.499 . S
C2267 C2268 1.373 . S
C2267 C2269 1.389 . S
C2268 H2241 0.950 . S
C2268 C2254 1.377 . S
C2268 C2267 1.373 . S
C2269 C2253 1.377 . S
C2269 C2267 1.389 . S
C2269 C2270 1.524 . S
C2270 C2269 1.524 . S
C2270 C2271 1.397 . S
C2270 C2275 1.363 . S
C2271 H2242 0.950 . S
C2271 C2270 1.397 . S
C2271 C2272 1.334 . S
C2272 H2243 0.950 . S
C2272 C2271 1.334 . S
C2272 C2273 1.287 . S
C2273 C2272 1.287 . S
C2273 C2274 1.524 . S
C2273 H2276 0.999 . S
C2274 H2244 0.950 . S
C2274 C2273 1.524 . S
C2274 C2275 1.415 . S
C2275 H2245 0.950 . S
C2275 C2270 1.363 . S
C2275 C2274 1.415 . S
H2276 C2273 0.999 . S
H2277 C2258 0.913 . S
H2278 C2296 0.951 . S
H2279 C2298 0.951 . S
H2280 C2300 0.950 . S
H2281 C2301 0.950 . S
H2282 C2303 0.950 . S
H2283 C2306 0.950 . S
H2284 C2307 0.950 . S
H2285 C2309 0.950 . S
H2286 C2310 0.950 . S
H2287 C2311 0.951 . S
H2288 C2313 0.951 . S
H2289 C2315 0.950 . S
H2290 C2316 0.950 . S
H2291 C2318 0.950 . S
H2292 C2321 0.950 . S
H2293 C2322 0.950 . S
H2294 C2324 0.950 . S
H2295 C2325 0.950 . S
C2296 H2278 0.951 . S
C2296 C2297 1.366 . S
C2296 C2298 1.388 . S
C2297 C2296 1.366 . S
C2297 C2301 1.385 . S
C2298 H2279 0.951 . S
C2298 C2296 1.388 . S
C2298 C2299 1.366 . S
C2299 C2298 1.366 . S
C2299 C2300 1.414 . S
C2299 C2302 1.499 . S
C2300 H2280 0.950 . S
C2300 C2299 1.414 . S
C2300 C2301 1.374 . S
C2301 H2281 0.950 . S
C2301 C2297 1.385 . S
C2301 C2300 1.374 . S
C2302 C2299 1.499 . S
C2302 C2303 1.373 . S
C2302 C2304 1.389 . S
C2303 H2282 0.950 . S
C2303 C2302 1.373 . S
C2303 C2319 1.377 . S
C2304 C2302 1.389 . S
C2304 C2305 1.524 . S
C2304 C2318 1.377 . S
C2305 C2304 1.524 . S
C2305 C2306 1.397 . S
C2305 C2310 1.363 1_655 S
C2306 H2283 0.950 . S
C2306 C2305 1.397 . S
C2306 C2307 1.334 . S
C2307 H2284 0.950 . S
C2307 C2306 1.334 . S
C2307 C2308 1.287 1_655 S
C2308 C2307 1.287 1_455 S
C2308 C2309 1.524 . S
C2308 H2327 0.913 . S
C2309 H2285 0.950 . S
C2309 C2308 1.524 . S
C2309 C2310 1.415 . S
C2310 H2286 0.950 . S
C2310 C2305 1.363 1_455 S
C2310 C2309 1.415 . S
C2311 H2287 0.951 . S
C2311 C2312 1.366 . S
C2311 C2313 1.388 . S
C2312 C2311 1.366 . S
C2312 C2316 1.385 . S
C2313 H2288 0.951 . S
C2313 C2311 1.388 . S
C2313 C2314 1.366 . S
C2314 C2313 1.366 . S
C2314 C2315 1.414 . S
C2314 C2317 1.499 . S
C2315 H2289 0.950 . S
C2315 C2314 1.414 . S
C2315 C2316 1.374 . S
C2316 H2290 0.950 . S
C2316 C2312 1.385 . S
C2316 C2315 1.374 . S
C2317 C2314 1.499 . S
C2317 C2318 1.373 . S
C2317 C2319 1.389 . S
C2318 H2291 0.950 . S
C2318 C2304 1.377 . S
C2318 C2317 1.373 . S
C2319 C2303 1.377 . S
C2319 C2317 1.389 . S
C2319 C2320 1.524 . S
C2320 C2319 1.524 . S
C2320 C2321 1.397 . S
C2320 C2325 1.363 . S
C2321 H2292 0.950 . S
C2321 C2320 1.397 . S
C2321 C2322 1.334 . S
C2322 H2293 0.950 . S
C2322 C2321 1.334 . S
C2322 C2323 1.287 . S
C2323 C2322 1.287 . S
C2323 C2324 1.524 . S
C2323 H2326 0.999 . S
C2324 H2294 0.950 . S
C2324 C2323 1.524 . S
C2324 C2325 1.415 . S
C2325 H2295 0.950 . S
C2325 C2320 1.363 . S
C2325 C2324 1.415 . S
H2326 C2323 0.999 . S
H2327 C2308 0.913 . S
H2328 C2346 0.951 . S
H2329 C2348 0.951 . S
H2330 C2350 0.950 . S
H2331 C2351 0.950 . S
H2332 C2353 0.950 . S
H2333 C2356 0.950 . S
H2334 C2357 0.950 . S
H2335 C2359 0.950 . S
H2336 C2360 0.950 . S
H2337 C2361 0.951 . S
H2338 C2363 0.951 . S
H2339 C2365 0.950 . S
H2340 C2366 0.950 . S
H2341 C2368 0.950 . S
H2342 C2371 0.950 . S
H2343 C2372 0.950 . S
H2344 C2374 0.950 . S
H2345 C2375 0.950 . S
C2346 H2328 0.951 . S
C2346 C2347 1.366 . S
C2346 C2348 1.388 . S
C2347 C2346 1.366 . S
C2347 C2351 1.385 . S
C2348 H2329 0.951 . S
C2348 C2346 1.388 . S
C2348 C2349 1.366 . S
C2349 C2348 1.366 . S
C2349 C2350 1.414 . S
C2349 C2352 1.499 . S
C2350 H2330 0.950 . S
C2350 C2349 1.414 . S
C2350 C2351 1.374 . S
C2351 H2331 0.950 . S
C2351 C2347 1.385 . S
C2351 C2350 1.374 . S
C2352 C2349 1.499 . S
C2352 C2353 1.373 . S
C2352 C2354 1.389 . S
C2353 H2332 0.950 . S
C2353 C2352 1.373 . S
C2353 C2369 1.377 . S
C2354 C2352 1.389 . S
C2354 C2355 1.524 . S
C2354 C2368 1.377 . S
C2355 C2354 1.524 . S
C2355 C2356 1.397 . S
C2355 C2360 1.363 . S
C2356 H2333 0.950 . S
C2356 C2355 1.397 . S
C2356 C2357 1.334 . S
C2357 H2334 0.950 . S
C2357 C2356 1.334 . S
C2357 C2358 1.287 . S
C2358 C2357 1.287 . S
C2358 C2359 1.524 . S
C2358 H2377 0.913 . S
C2359 H2335 0.950 . S
C2359 C2358 1.524 . S
C2359 C2360 1.415 . S
C2360 H2336 0.950 . S
C2360 C2355 1.363 . S
C2360 C2359 1.415 . S
C2361 H2337 0.951 . S
C2361 C2362 1.366 . S
C2361 C2363 1.388 . S
C2362 C2361 1.366 . S
C2362 C2366 1.385 . S
C2363 H2338 0.951 . S
C2363 C2361 1.388 . S
C2363 C2364 1.366 . S
C2364 C2363 1.366 . S
C2364 C2365 1.414 . S
C2364 C2367 1.499 . S
C2365 H2339 0.950 . S
C2365 C2364 1.414 . S
C2365 C2366 1.374 . S
C2366 H2340 0.950 . S
C2366 C2362 1.385 . S
C2366 C2365 1.374 . S
C2367 C2364 1.499 . S
C2367 C2368 1.373 . S
C2367 C2369 1.389 . S
C2368 H2341 0.950 . S
C2368 C2354 1.377 . S
C2368 C2367 1.373 . S
C2369 C2353 1.377 . S
C2369 C2367 1.389 . S
C2369 C2370 1.524 . S
C2370 C2369 1.524 . S
C2370 C2371 1.397 . S
C2370 C2375 1.363 . S
C2371 H2342 0.950 . S
C2371 C2370 1.397 . S
C2371 C2372 1.334 . S
C2372 H2343 0.950 . S
C2372 C2371 1.334 . S
C2372 C2373 1.287 . S
C2373 C2372 1.287 . S
C2373 C2374 1.524 . S
C2373 H2376 0.999 . S
C2374 H2344 0.950 . S
C2374 C2373 1.524 . S
C2374 C2375 1.415 . S
C2375 H2345 0.950 . S
C2375 C2370 1.363 . S
C2375 C2374 1.415 . S
H2376 C2373 0.999 . S
H2377 C2358 0.913 . S
H2378 C2396 0.951 . S
H2379 C2398 0.951 . S
H2380 C2400 0.950 . S
H2381 C2401 0.950 . S
H2382 C2403 0.950 . S
H2383 C2406 0.950 . S
H2384 C2407 0.950 . S
H2385 C2409 0.950 . S
H2386 C2410 0.950 . S
H2387 C2411 0.951 . S
H2388 C2413 0.951 . S
H2389 C2415 0.950 . S
H2390 C2416 0.950 . S
H2391 C2418 0.950 . S
H2392 C2421 0.950 . S
H2393 C2422 0.950 . S
H2394 C2424 0.950 . S
H2395 C2425 0.950 . S
C2396 H2378 0.951 . S
C2396 C2397 1.366 . S
C2396 C2398 1.388 . S
C2397 C2396 1.366 . S
C2397 C2401 1.385 . S
C2398 H2379 0.951 . S
C2398 C2396 1.388 . S
C2398 C2399 1.366 . S
C2399 C2398 1.366 . S
C2399 C2400 1.414 . S
C2399 C2402 1.499 . S
C2400 H2380 0.950 . S
C2400 C2399 1.414 . S
C2400 C2401 1.374 . S
C2401 H2381 0.950 . S
C2401 C2397 1.385 . S
C2401 C2400 1.374 . S
C2402 C2399 1.499 . S
C2402 C2403 1.373 . S
C2402 C2404 1.389 . S
C2403 H2382 0.950 . S
C2403 C2402 1.373 . S
C2403 C2419 1.377 . S
C2404 C2402 1.389 . S
C2404 C2405 1.524 . S
C2404 C2418 1.377 . S
C2405 C2404 1.524 . S
C2405 C2406 1.397 . S
C2405 C2410 1.363 . S
C2406 H2383 0.950 . S
C2406 C2405 1.397 . S
C2406 C2407 1.334 . S
C2407 H2384 0.950 . S
C2407 C2406 1.334 . S
C2407 C2408 1.287 . S
C2408 C2407 1.287 . S
C2408 C2409 1.524 . S
C2408 H2427 0.913 . S
C2409 H2385 0.950 . S
C2409 C2408 1.524 . S
C2409 C2410 1.415 . S
C2410 H2386 0.950 . S
C2410 C2405 1.363 . S
C2410 C2409 1.415 . S
C2411 H2387 0.951 . S
C2411 C2412 1.366 . S
C2411 C2413 1.388 . S
C2412 C2411 1.366 . S
C2412 C2416 1.385 . S
C2413 H2388 0.951 . S
C2413 C2411 1.388 . S
C2413 C2414 1.366 . S
C2414 C2413 1.366 . S
C2414 C2415 1.414 . S
C2414 C2417 1.499 . S
C2415 H2389 0.950 . S
C2415 C2414 1.414 . S
C2415 C2416 1.374 . S
C2416 H2390 0.950 . S
C2416 C2412 1.385 . S
C2416 C2415 1.374 . S
C2417 C2414 1.499 . S
C2417 C2418 1.373 . S
C2417 C2419 1.389 . S
C2418 H2391 0.950 . S
C2418 C2404 1.377 . S
C2418 C2417 1.373 . S
C2419 C2403 1.377 . S
C2419 C2417 1.389 . S
C2419 C2420 1.524 . S
C2420 C2419 1.524 . S
C2420 C2421 1.397 . S
C2420 C2425 1.363 . S
C2421 H2392 0.950 . S
C2421 C2420 1.397 . S
C2421 C2422 1.334 . S
C2422 H2393 0.950 . S
C2422 C2421 1.334 . S
C2422 C2423 1.287 . S
C2423 C2422 1.287 . S
C2423 C2424 1.524 . S
C2423 H2426 0.999 . S
C2424 H2394 0.950 . S
C2424 C2423 1.524 . S
C2424 C2425 1.415 . S
C2425 H2395 0.950 . S
C2425 C2420 1.363 . S
C2425 C2424 1.415 . S
H2426 C2423 0.999 . S
H2427 C2408 0.913 . S
H2428 C2446 0.951 . S
H2429 C2448 0.951 . S
H2430 C2450 0.950 . S
H2431 C2451 0.950 . S
H2432 C2453 0.950 . S
H2433 C2456 0.950 . S
H2434 C2457 0.950 . S
H2435 C2459 0.950 . S
H2436 C2460 0.950 . S
H2437 C2461 0.951 . S
H2438 C2463 0.951 . S
H2439 C2465 0.950 . S
H2440 C2466 0.950 . S
H2441 C2468 0.950 . S
H2442 C2471 0.950 . S
H2443 C2472 0.950 . S
H2444 C2474 0.950 . S
H2445 C2475 0.950 . S
C2446 H2428 0.951 . S
C2446 C2447 1.366 . S
C2446 C2448 1.388 . S
C2447 C2446 1.366 . S
C2447 C2451 1.385 . S
C2448 H2429 0.951 . S
C2448 C2446 1.388 . S
C2448 C2449 1.366 . S
C2449 C2448 1.366 . S
C2449 C2450 1.414 . S
C2449 C2452 1.499 . S
C2450 H2430 0.950 . S
C2450 C2449 1.414 . S
C2450 C2451 1.374 . S
C2451 H2431 0.950 . S
C2451 C2447 1.385 . S
C2451 C2450 1.374 . S
C2452 C2449 1.499 . S
C2452 C2453 1.373 . S
C2452 C2454 1.389 . S
C2453 H2432 0.950 . S
C2453 C2452 1.373 . S
C2453 C2469 1.377 . S
C2454 C2452 1.389 . S
C2454 C2455 1.524 . S
C2454 C2468 1.377 . S
C2455 C2454 1.524 . S
C2455 C2456 1.397 . S
C2455 C2460 1.363 . S
C2456 H2433 0.950 . S
C2456 C2455 1.397 . S
C2456 C2457 1.334 . S
C2457 H2434 0.950 . S
C2457 C2456 1.334 . S
C2457 C2458 1.287 . S
C2458 C2457 1.287 . S
C2458 C2459 1.524 . S
C2458 H2477 0.913 . S
C2459 H2435 0.950 . S
C2459 C2458 1.524 . S
C2459 C2460 1.415 . S
C2460 H2436 0.950 . S
C2460 C2455 1.363 . S
C2460 C2459 1.415 . S
C2461 H2437 0.951 . S
C2461 C2462 1.366 . S
C2461 C2463 1.388 . S
C2462 C2461 1.366 . S
C2462 C2466 1.385 . S
C2463 H2438 0.951 . S
C2463 C2461 1.388 . S
C2463 C2464 1.366 . S
C2464 C2463 1.366 . S
C2464 C2465 1.414 . S
C2464 C2467 1.499 . S
C2465 H2439 0.950 . S
C2465 C2464 1.414 . S
C2465 C2466 1.374 . S
C2466 H2440 0.950 . S
C2466 C2462 1.385 . S
C2466 C2465 1.374 . S
C2467 C2464 1.499 . S
C2467 C2468 1.373 . S
C2467 C2469 1.389 . S
C2468 H2441 0.950 . S
C2468 C2454 1.377 . S
C2468 C2467 1.373 . S
C2469 C2453 1.377 . S
C2469 C2467 1.389 . S
C2469 C2470 1.524 . S
C2470 C2469 1.524 . S
C2470 C2471 1.397 . S
C2470 C2475 1.363 . S
C2471 H2442 0.950 . S
C2471 C2470 1.397 . S
C2471 C2472 1.334 . S
C2472 H2443 0.950 . S
C2472 C2471 1.334 . S
C2472 C2473 1.287 . S
C2473 C2472 1.287 . S
C2473 C2474 1.524 . S
C2473 H2476 0.999 . S
C2474 H2444 0.950 . S
C2474 C2473 1.524 . S
C2474 C2475 1.415 . S
C2475 H2445 0.950 . S
C2475 C2470 1.363 . S
C2475 C2474 1.415 . S
H2476 C2473 0.999 . S
H2477 C2458 0.913 . S
H2478 C2496 0.951 . S
H2479 C2498 0.951 . S
H2480 C2500 0.950 . S
H2481 C2501 0.950 . S
H2482 C2503 0.950 . S
H2483 C2506 0.950 . S
H2484 C2507 0.950 . S
H2485 C2509 0.950 . S
H2486 C2510 0.950 . S
H2487 C2511 0.951 . S
H2488 C2513 0.951 . S
H2489 C2515 0.950 . S
H2490 C2516 0.950 . S
H2491 C2518 0.950 . S
H2492 C2521 0.950 . S
H2493 C2522 0.950 . S
H2494 C2524 0.950 . S
H2495 C2525 0.950 . S
C2496 H2478 0.951 . S
C2496 C2497 1.366 . S
C2496 C2498 1.388 . S
C2497 C2496 1.366 . S
C2497 C2501 1.385 . S
C2498 H2479 0.951 . S
C2498 C2496 1.388 . S
C2498 C2499 1.366 . S
C2499 C2498 1.366 . S
C2499 C2500 1.414 . S
C2499 C2502 1.499 . S
C2500 H2480 0.950 . S
C2500 C2499 1.414 . S
C2500 C2501 1.374 . S
C2501 H2481 0.950 . S
C2501 C2497 1.385 . S
C2501 C2500 1.374 . S
C2502 C2499 1.499 . S
C2502 C2503 1.373 . S
C2502 C2504 1.389 . S
C2503 H2482 0.950 . S
C2503 C2502 1.373 . S
C2503 C2519 1.377 . S
C2504 C2502 1.389 . S
C2504 C2505 1.524 . S
C2504 C2518 1.377 . S
C2505 C2504 1.524 . S
C2505 C2506 1.397 . S
C2505 C2510 1.363 . S
C2506 H2483 0.950 . S
C2506 C2505 1.397 . S
C2506 C2507 1.334 . S
C2507 H2484 0.950 . S
C2507 C2506 1.334 . S
C2507 C2508 1.287 . S
C2508 C2507 1.287 . S
C2508 C2509 1.524 . S
C2508 H2527 0.913 . S
C2509 H2485 0.950 . S
C2509 C2508 1.524 . S
C2509 C2510 1.415 . S
C2510 H2486 0.950 . S
C2510 C2505 1.363 . S
C2510 C2509 1.415 . S
C2511 H2487 0.951 . S
C2511 C2512 1.366 . S
C2511 C2513 1.388 . S
C2512 C2511 1.366 . S
C2512 C2516 1.385 . S
C2513 H2488 0.951 . S
C2513 C2511 1.388 . S
C2513 C2514 1.366 . S
C2514 C2513 1.366 . S
C2514 C2515 1.414 . S
C2514 C2517 1.499 . S
C2515 H2489 0.950 . S
C2515 C2514 1.414 . S
C2515 C2516 1.374 . S
C2516 H2490 0.950 . S
C2516 C2512 1.385 . S
C2516 C2515 1.374 . S
C2517 C2514 1.499 . S
C2517 C2518 1.373 . S
C2517 C2519 1.389 . S
C2518 H2491 0.950 . S
C2518 C2504 1.377 . S
C2518 C2517 1.373 . S
C2519 C2503 1.377 . S
C2519 C2517 1.389 . S
C2519 C2520 1.524 . S
C2520 C2519 1.524 . S
C2520 C2521 1.397 . S
C2520 C2525 1.363 . S
C2521 H2492 0.950 . S
C2521 C2520 1.397 . S
C2521 C2522 1.334 . S
C2522 H2493 0.950 . S
C2522 C2521 1.334 . S
C2522 C2523 1.287 . S
C2523 C2522 1.287 . S
C2523 C2524 1.524 . S
C2523 H2526 0.999 . S
C2524 H2494 0.950 . S
C2524 C2523 1.524 . S
C2524 C2525 1.415 . S
C2525 H2495 0.950 . S
C2525 C2520 1.363 . S
C2525 C2524 1.415 . S
H2526 C2523 0.999 . S
H2527 C2508 0.913 . S
C547 N14 1.668 . S
C562 N476 1.668 . S
C597 N71 1.606 . S
C612 N5 1.606 . S
C647 N47 1.668 . S
C662 N377 1.668 . S
C697 N236 1.606 . S
C712 N38 1.606 . S
C747 N80 1.668 . S
C762 N410 1.668 . S
C797 N113 1.669 . S
C812 N311 1.669 . S
C847 N104 1.606 . S
C862 N170 1.606 . S
C897 N344 1.669 . S
C912 N146 1.669 . S
C947 N203 1.606 . S
C962 N137 1.606 . S
C997 N179 1.668 . S
C1012 N509 1.668 . S
C1047 N278 1.668 . S
C1062 N212 1.668 . S
C1097 N443 1.668 . S
C1112 N245 1.668 . S
C1147 N269 1.606 . S
C1162 N335 1.606 . S
C1197 N500 1.606 . S
C1212 N302 1.606 . S
C1247 N368 1.606 . S
C1262 N434 1.606 . S
C1297 N401 1.606 . S
C1312 N467 1.606 . S
C1347 C8 1.151 . S
C1362 C314 1.149 . S
C1397 C305 1.151 . S
C1412 C17 1.150 . S
C1447 C41 1.151 . S
C1462 C281 1.149 . S
C1497 C50 1.149 . S
C1512 C272 1.151 . S
C1547 C380 1.149 . S
C1562 C74 1.150 . S
C1597 C371 1.152 . S
C1612 C83 1.149 . S
C1647 C107 1.152 . S
C1662 C347 1.149 . S
C1697 C116 1.150 . S
C1712 C338 1.151 . S
C1747 C140 1.151 . S
C1762 C446 1.149 . S
C1797 C437 1.151 . S
C1812 C149 1.150 . S
C1847 C173 1.151 . S
C1862 C413 1.150 . S
C1897 C404 1.151 . S
C1912 C182 1.150 . S
C1947 C512 1.150 . S
C1962 C206 1.151 . S
C1997 C215 1.149 . S
C2012 C503 1.151 . S
C2047 C239 1.151 . S
C2062 C479 1.150 . S
C2097 C248 1.149 . S
C2112 C470 1.151 . S
C2147 C61 0.807 . S
C2162 C28 0.807 . S
C2197 C94 0.806 . S
C2212 C127 0.807 . S
C2247 C160 0.806 . S
C2262 C193 0.807 . S
C2297 C226 0.807 . S
C2312 C259 0.807 . S
C2347 C325 0.807 . S
C2362 C292 0.806 . S
C2397 C391 0.807 . S
C2412 C358 0.807 . S
C2447 C424 0.806 . S
C2462 C457 0.807 . S
C2497 C523 0.807 . S
C2512 C490 0.807 . S
