# Generated by pormake.
# Topology unf, (4)-cn, num edge types: 1
# Building blocks:
#     Node 0, Type 0, BuildingBlock: GALJAG_clean_sbu_0, # of connection points: 4
#     Node 1, Type 0, BuildingBlock: GALJAG_clean_sbu_0, # of connection points: 4
#     Node 2, Type 0, BuildingBlock: GALJAG_clean_sbu_0, # of connection points: 4
#     Node 3, Type 0, BuildingBlock: GALJAG_clean_sbu_0, # of connection points: 4
#     Node 4, Type 0, BuildingBlock: GALJAG_clean_sbu_0, # of connection points: 4
#     Node 5, Type 0, BuildingBlock: GALJAG_clean_sbu_0, # of connection points: 4
#     Node 6, Type 0, BuildingBlock: GALJAG_clean_sbu_0, # of connection points: 4
#     Node 7, Type 0, BuildingBlock: GALJAG_clean_sbu_0, # of connection points: 4
#     Node 8, Type 0, BuildingBlock: GALJAG_clean_sbu_0, # of connection points: 4
#     Node 9, Type 0, BuildingBlock: GALJAG_clean_sbu_0, # of connection points: 4
#     Node 10, Type 0, BuildingBlock: GALJAG_clean_sbu_0, # of connection points: 4
#     Node 11, Type 0, BuildingBlock: GALJAG_clean_sbu_0, # of connection points: 4
#     Edge 12, Type (0, 0), BuildingBlock: EYOCIG_clean_linker_4, # of connection points: 2
#     Edge 13, Type (0, 0), BuildingBlock: EYOCIG_clean_linker_4, # of connection points: 2
#     Edge 14, Type (0, 0), BuildingBlock: EYOCIG_clean_linker_4, # of connection points: 2
#     Edge 15, Type (0, 0), BuildingBlock: EYOCIG_clean_linker_4, # of connection points: 2
#     Edge 16, Type (0, 0), BuildingBlock: EYOCIG_clean_linker_4, # of connection points: 2
#     Edge 17, Type (0, 0), BuildingBlock: EYOCIG_clean_linker_4, # of connection points: 2
#     Edge 18, Type (0, 0), BuildingBlock: EYOCIG_clean_linker_4, # of connection points: 2
#     Edge 19, Type (0, 0), BuildingBlock: EYOCIG_clean_linker_4, # of connection points: 2
#     Edge 20, Type (0, 0), BuildingBlock: EYOCIG_clean_linker_4, # of connection points: 2
#     Edge 21, Type (0, 0), BuildingBlock: EYOCIG_clean_linker_4, # of connection points: 2
#     Edge 22, Type (0, 0), BuildingBlock: EYOCIG_clean_linker_4, # of connection points: 2
#     Edge 23, Type (0, 0), BuildingBlock: EYOCIG_clean_linker_4, # of connection points: 2
#     Edge 24, Type (0, 0), BuildingBlock: EYOCIG_clean_linker_4, # of connection points: 2
#     Edge 25, Type (0, 0), BuildingBlock: EYOCIG_clean_linker_4, # of connection points: 2
#     Edge 26, Type (0, 0), BuildingBlock: EYOCIG_clean_linker_4, # of connection points: 2
#     Edge 27, Type (0, 0), BuildingBlock: EYOCIG_clean_linker_4, # of connection points: 2
#     Edge 28, Type (0, 0), BuildingBlock: EYOCIG_clean_linker_4, # of connection points: 2
#     Edge 29, Type (0, 0), BuildingBlock: EYOCIG_clean_linker_4, # of connection points: 2
#     Edge 30, Type (0, 0), BuildingBlock: EYOCIG_clean_linker_4, # of connection points: 2
#     Edge 31, Type (0, 0), BuildingBlock: EYOCIG_clean_linker_4, # of connection points: 2
#     Edge 32, Type (0, 0), BuildingBlock: EYOCIG_clean_linker_4, # of connection points: 2
#     Edge 33, Type (0, 0), BuildingBlock: EYOCIG_clean_linker_4, # of connection points: 2
#     Edge 34, Type (0, 0), BuildingBlock: EYOCIG_clean_linker_4, # of connection points: 2
#     Edge 35, Type (0, 0), BuildingBlock: EYOCIG_clean_linker_4, # of connection points: 2
# Relax obj value: 0.104
# Max RMSD: 0.121
# Mean RMSD: 0.121
data_MOF--net-unf--node1-GALJAG_clean_sbu_0--edge1-EYOCIG_clean_linker_4
_symmetry_space_group_name_H-M    P1
_symmetry_Int_Tables_number       1
_symmetry_cell_setting            triclinic
loop_
_symmetry_equiv_pos_as_xyz
'x, y, z'
_cell_length_a     32.067508
_cell_length_b     32.050126
_cell_length_c     27.674463
_cell_angle_alpha  89.998576
_cell_angle_beta   89.992184
_cell_angle_gamma 119.98042
loop_
_atom_site_label
_atom_site_type_symbol
_atom_site_fract_x
_atom_site_fract_y
_atom_site_fract_z
_atom_type_partial_charge
In0 In 0.07481 0.37681 0.06813 0.0
O1 O 0.07864 0.35594 0.14624 0.0
O2 O 0.13652 0.42231 0.11984 0.0
C3 C -0.00686 0.30379 0.03495 0.0
C4 C 0.13714 0.35607 0.02714 0.0
C5 C 0.04517 0.44057 0.04906 0.0
O6 O 0.00242 0.31025 0.07959 0.0
O7 O 0.02568 0.33281 0.00679 0.0
O8 O 0.07909 0.44036 0.02596 0.0
O9 O 0.02987 0.41246 0.08491 0.0
C10 C 0.12 0.39173 0.15358 0.0
O11 O 0.13806 0.39527 0.01826 0.0
O12 O 0.10359 0.32677 0.05408 0.0
In13 In 0.5936 0.6924 0.06825 0.0
O14 O 0.61318 0.71636 0.14685 0.0
O15 O 0.5469 0.70731 0.11967 0.0
C16 C 0.66634 0.68275 0.03592 0.0
C17 C 0.61492 0.77559 0.02703 0.0
C18 C 0.52982 0.59953 0.04753 0.0
O19 O 0.65992 0.68622 0.08045 0.0
O20 O 0.63766 0.68646 0.00744 0.0
O21 O 0.5307 0.63418 0.02483 0.0
O22 O 0.55733 0.61152 0.08382 0.0
C23 C 0.57684 0.72109 0.15393 0.0
O24 O 0.57569 0.73745 0.01818 0.0
O25 O 0.64395 0.77126 0.05431 0.0
In26 In 0.27803 0.89554 0.06809 0.0
O27 O 0.23285 0.83275 0.01786 0.0
O28 O 0.19945 0.86775 0.05384 0.0
C29 C 0.371 0.92561 0.0472 0.0
C30 C 0.24854 0.84974 0.15344 0.0
C31 C 0.28834 0.97802 0.0355 0.0
O32 O 0.33657 0.89147 0.02466 0.0
O33 O 0.35883 0.94065 0.08375 0.0
O34 O 0.28465 0.96824 0.08008 0.0
O35 O 0.28417 0.94535 0.00714 0.0
C36 C 0.19491 0.83434 0.02649 0.0
O37 O 0.25351 0.89094 0.14644 0.0
O38 O 0.26275 0.83371 0.11938 0.0
In39 In 0.59374 0.89563 0.43051 0.0
O40 O 0.57752 0.83269 0.48017 0.0
O41 O 0.64545 0.86881 0.44339 0.0
C42 C 0.52985 0.92453 0.45141 0.0
C43 C 0.57738 0.85068 0.34459 0.0
C44 C 0.66655 0.97735 0.46401 0.0
O45 O 0.53059 0.89058 0.47393 0.0
O46 O 0.55749 0.94023 0.41522 0.0
O47 O 0.66013 0.96835 0.41929 0.0
O48 O 0.63749 0.94463 0.49197 0.0
C49 C 0.61735 0.83512 0.47088 0.0
O50 O 0.61306 0.89221 0.35163 0.0
O51 O 0.54774 0.8337 0.37908 0.0
In52 In 0.0747 0.69253 0.43046 0.0
O53 O 0.07721 0.71566 0.35188 0.0
O54 O 0.13587 0.70836 0.3781 0.0
C55 C -0.00651 0.68308 0.4658 0.0
C56 C 0.13627 0.77579 0.47167 0.0
C57 C 0.04411 0.59923 0.45037 0.0
O58 O 0.00192 0.68643 0.42091 0.0
O59 O 0.0268 0.687 0.49298 0.0
O60 O 0.07848 0.63332 0.47305 0.0
O61 O 0.02921 0.61194 0.41413 0.0
C62 C 0.1185 0.72119 0.34408 0.0
O63 O 0.13815 0.73792 0.47997 0.0
O64 O 0.1027 0.77118 0.44453 0.0
In65 In 0.27829 0.37678 0.43061 0.0
O66 O 0.25486 0.35571 0.35217 0.0
O67 O 0.26211 0.42175 0.37809 0.0
C68 C 0.28749 0.30466 0.46557 0.0
C69 C 0.19459 0.35398 0.47156 0.0
C70 C 0.3713 0.44121 0.4504 0.0
O71 O 0.28494 0.3104 0.4207 0.0
O72 O 0.28352 0.33394 0.49292 0.0
O73 O 0.33678 0.44123 0.4725 0.0
O74 O 0.35909 0.41248 0.41512 0.0
C75 C 0.24909 0.39133 0.34428 0.0
O76 O 0.2322 0.39375 0.48042 0.0
O77 O 0.19971 0.32558 0.44405 0.0
In78 In 0.88951 0.59985 0.93057 0.0
O79 O 0.82698 0.58263 0.98097 0.0
O80 O 0.86186 0.65082 0.94457 0.0
C81 C 0.91949 0.53693 0.95179 0.0
C82 C 0.84395 0.58297 0.84494 0.0
C83 C 0.97193 0.67245 0.96281 0.0
O84 O 0.88531 0.53724 0.97427 0.0
O85 O 0.93459 0.56415 0.91527 0.0
O86 O 0.96208 0.66599 0.91826 0.0
O87 O 0.93945 0.64394 0.99131 0.0
C88 C 0.82863 0.62218 0.97221 0.0
O89 O 0.88505 0.61926 0.85196 0.0
O90 O 0.82774 0.55306 0.87928 0.0
In91 In 0.37049 0.28414 0.93048 0.0
O92 O 0.34961 0.26026 0.8522 0.0
O93 O 0.41626 0.26898 0.87795 0.0
C94 C 0.2988 0.29453 0.96425 0.0
C95 C 0.34957 0.20115 0.97199 0.0
C96 C 0.43333 0.37738 0.95043 0.0
O97 O 0.30419 0.29054 0.91957 0.0
O98 O 0.32762 0.29041 0.99214 0.0
O99 O 0.43371 0.34322 0.97291 0.0
O100 O 0.40548 0.36477 0.91443 0.0
C101 C 0.38573 0.2554 0.8442 0.0
O102 O 0.38894 0.23931 0.9804 0.0
O103 O 0.32034 0.20537 0.9449 0.0
In104 In 0.68636 0.08088 0.9303 0.0
O105 O 0.70982 0.0845 0.8518 0.0
O106 O 0.70165 0.14248 0.87866 0.0
C107 C 0.67588 -0.00142 0.96353 0.0
C108 C 0.77026 0.14145 0.97118 0.0
C109 C 0.59301 0.05085 0.94963 0.0
O110 O 0.67989 0.00822 0.91891 0.0
O111 O 0.67972 0.03128 0.99166 0.0
O112 O 0.62709 0.08457 0.973 0.0
O113 O 0.60584 0.03604 0.91341 0.0
C114 C 0.71482 0.12566 0.84441 0.0
O115 O 0.73277 0.1438 0.98021 0.0
O116 O 0.76488 0.10782 0.9437 0.0
In117 In 0.3706 0.08078 0.56827 0.0
O118 O 0.38755 0.14431 0.51914 0.0
O119 O 0.31911 0.1077 0.55498 0.0
C120 C 0.43346 0.05028 0.54859 0.0
C121 C 0.38563 0.12582 0.65374 0.0
C122 C 0.29804 -0.0012 0.53548 0.0
O123 O 0.43351 0.08437 0.5255 0.0
O124 O 0.40593 0.03559 0.58488 0.0
O125 O 0.30439 0.00845 0.58006 0.0
O126 O 0.32682 0.03128 0.50708 0.0
C127 C 0.34776 0.14199 0.52839 0.0
O128 O 0.3503 0.08411 0.64662 0.0
O129 O 0.4159 0.1428 0.61976 0.0
In130 In 0.8897 0.28425 0.56824 0.0
O131 O 0.82681 0.23755 0.51851 0.0
O132 O 0.86306 0.20578 0.55515 0.0
C133 C 0.91868 0.37736 0.54828 0.0
C134 C 0.84401 0.25442 0.65354 0.0
C135 C 0.97172 0.29345 0.53537 0.0
O136 O 0.88512 0.34287 0.52521 0.0
O137 O 0.93398 0.36506 0.58452 0.0
O138 O 0.96228 0.29062 0.58 0.0
O139 O 0.93922 0.28981 0.50708 0.0
C140 C 0.82926 0.20014 0.52783 0.0
O141 O 0.88571 0.26062 0.64681 0.0
O142 O 0.82733 0.26761 0.61921 0.0
In143 In 0.68652 0.59987 0.56826 0.0
O144 O 0.70998 0.61915 0.64698 0.0
O145 O 0.7013 0.553 0.61961 0.0
C146 C 0.67796 0.6728 0.53458 0.0
C147 C 0.7706 0.62225 0.52883 0.0
C148 C 0.59364 0.53709 0.54688 0.0
O149 O 0.6804 0.66637 0.57933 0.0
O150 O 0.68184 0.64383 0.50664 0.0
O151 O 0.62813 0.53685 0.52496 0.0
O152 O 0.6057 0.56483 0.583 0.0
C153 C 0.71498 0.58292 0.65393 0.0
O154 O 0.73292 0.58279 0.51921 0.0
O155 O 0.76523 0.65097 0.55563 0.0
C156 C 0.20402 0.33585 0.00266 0.0
C157 C 0.1746 0.34715 0.01264 0.0
C158 C 0.23747 0.32101 0.99255 0.0
C159 C 0.26601 0.30888 0.98148 0.0
C160 C 0.63559 0.86259 0.00153 0.0
C161 C 0.62415 0.82195 0.012 0.0
C162 C 0.65028 0.91083 0.99132 0.0
C163 C 0.662 0.95145 0.98045 0.0
C164 C 0.10778 0.76914 0.00018 0.0
C165 C 0.14849 0.79778 0.01099 0.0
C166 C 0.05952 0.73568 0.98998 0.0
C167 C 0.019 0.70633 0.97935 0.0
C168 C 0.6562 0.73762 0.50616 0.0
C169 C 0.66622 0.7075 0.51715 0.0
C170 C 0.64143 0.77116 0.49612 0.0
C171 C 0.62846 0.79924 0.48579 0.0
C172 C 0.20074 0.86304 0.49852 0.0
C173 C 0.17248 0.82226 0.4875 0.0
C174 C 0.23415 0.91137 0.50855 0.0
C175 C 0.26385 0.95187 0.51889 0.0
C176 C 0.05863 0.31551 0.50793 0.0
C177 C 0.01838 0.30537 0.51853 0.0
C178 C 0.10694 0.33029 0.49787 0.0
C179 C 0.14785 0.34315 0.48709 0.0
C180 C 0.73007 0.659 0.00889 0.0
C181 C 0.70048 0.66989 0.01941 0.0
C182 C 0.7637 0.6444 0.99874 0.0
C183 C 0.79226 0.63227 0.9878 0.0
C184 C 0.32865 0.11417 0.99798 0.0
C185 C 0.34028 0.15483 0.98732 0.0
C186 C 0.31387 0.06588 0.00812 0.0
C187 C 0.30217 0.02522 0.0188 0.0
C188 C 0.90638 0.23892 0.00716 0.0
C189 C 0.94657 0.26905 0.01793 0.0
C190 C 0.8581 0.20538 0.99704 0.0
C191 C 0.81713 0.17732 0.98643 0.0
C192 C 0.32481 0.20731 0.50542 0.0
C193 C 0.3373 0.17865 0.51474 0.0
C194 C 0.31002 0.24084 0.49543 0.0
C195 C 0.29964 0.27054 0.4838 0.0
C196 C 0.76513 0.11203 0.50291 0.0
C197 C 0.79331 0.15309 0.51313 0.0
C198 C 0.73153 0.06378 0.49265 0.0
C199 C 0.70136 0.02374 0.48142 0.0
C200 C 0.90677 0.65869 0.49594 0.0
C201 C 0.94701 0.66989 0.48413 0.0
C202 C 0.85851 0.64395 0.50604 0.0
C203 C 0.81753 0.6321 0.51531 0.0
C204 C 0.2012 0.39514 0.26798 0.0
C205 C 0.22306 0.39347 0.30281 0.0
C206 C 0.17315 0.3953 0.22848 0.0
C207 C 0.1491 0.3939 0.19422 0.0
C208 C 0.57108 0.76878 0.22951 0.0
C209 C 0.5734 0.74698 0.19491 0.0
C210 C 0.57153 0.7973 0.26891 0.0
C211 C 0.57436 0.82179 0.30336 0.0
C212 C 0.19942 0.79594 0.22824 0.0
C213 C 0.22188 0.82016 0.19397 0.0
C214 C 0.17077 0.76804 0.26763 0.0
C215 C 0.14672 0.74669 0.30241 0.0
C216 C 0.79077 0.57721 0.76913 0.0
C217 C 0.81475 0.57952 0.80384 0.0
C218 C 0.76274 0.57723 0.72948 0.0
C219 C 0.74092 0.57953 0.6949 0.0
C220 C 0.39004 0.20796 0.76774 0.0
C221 C 0.38832 0.22963 0.80271 0.0
C222 C 0.38961 0.17943 0.7284 0.0
C223 C 0.38761 0.15481 0.69442 0.0
C224 C 0.76156 0.1777 0.76782 0.0
C225 C 0.7402 0.15424 0.80289 0.0
C226 C 0.78999 0.2056 0.72834 0.0
C227 C 0.81477 0.22786 0.69428 0.0
C228 C -0.00339 0.48057 0.01265 0.0
C229 C 0.0186 0.46225 0.02943 0.0
C230 C 0.96885 0.49881 0.99051 0.0
C231 C 0.94648 0.51627 0.97269 0.0
C232 C 0.48941 0.51148 0.00981 0.0
C233 C 0.50791 0.55156 0.02718 0.0
C234 C 0.47118 0.46538 0.98787 0.0
C235 C 0.45395 0.42524 0.97086 0.0
C236 C 0.4585 0.9747 0.00843 0.0
C237 C 0.41871 0.95254 0.02637 0.0
C238 C 0.50444 0.00215 0.98605 0.0
C239 C 0.5447 0.02408 0.96912 0.0
C240 C 0.48973 0.97237 0.48931 0.0
C241 C 0.50808 0.95066 0.47191 0.0
C242 C 0.47147 0.00014 0.51144 0.0
C243 C 0.45405 0.02283 0.52859 0.0
C244 C 0.96648 0.46569 0.51112 0.0
C245 C 0.94491 0.42553 0.52833 0.0
C246 C -0.00596 0.51159 0.48867 0.0
C247 C 0.01664 0.55145 0.47093 0.0
C248 C 0.45977 0.48159 0.4871 0.0
C249 C 0.41933 0.46334 0.47066 0.0
C250 C 0.50605 0.49944 0.5085 0.0
C251 C 0.54607 0.51648 0.52575 0.0
loop_
_geom_bond_atom_site_label_1
_geom_bond_atom_site_label_2
_geom_bond_distance
_geom_bond_site_symmetry_2
_ccdc_geom_bond_type
In0 O1 2.294 . S
In0 O2 2.326 . S
In0 O6 2.266 . S
In0 O7 2.339 . S
In0 O8 2.266 . S
In0 O9 2.326 . S
In0 O11 2.294 . S
In0 O12 2.326 . S
O1 In0 2.294 . S
O1 C10 1.240 . S
O2 In0 2.326 . S
O2 C10 1.252 . S
C3 O6 1.252 . S
C3 O7 1.271 . S
C4 O11 1.240 . S
C4 O12 1.252 . S
C5 O8 1.252 . S
C5 O9 1.260 . S
O6 In0 2.266 . S
O6 C3 1.252 . S
O7 In0 2.339 . S
O7 C3 1.271 . S
O8 In0 2.266 . S
O8 C5 1.252 . S
O9 In0 2.326 . S
O9 C5 1.260 . S
C10 O1 1.240 . S
C10 O2 1.252 . S
O11 In0 2.294 . S
O11 C4 1.240 . S
O12 In0 2.326 . S
O12 C4 1.252 . S
In13 O14 2.294 . S
In13 O15 2.326 . S
In13 O19 2.266 . S
In13 O20 2.340 . S
In13 O21 2.266 . S
In13 O22 2.326 . S
In13 O24 2.294 . S
In13 O25 2.326 . S
O14 In13 2.294 . S
O14 C23 1.240 . S
O15 In13 2.326 . S
O15 C23 1.252 . S
C16 O19 1.252 . S
C16 O20 1.272 . S
C17 O24 1.240 . S
C17 O25 1.252 . S
C18 O21 1.252 . S
C18 O22 1.260 . S
O19 In13 2.266 . S
O19 C16 1.252 . S
O20 In13 2.340 . S
O20 C16 1.272 . S
O21 In13 2.266 . S
O21 C18 1.252 . S
O22 In13 2.326 . S
O22 C18 1.260 . S
C23 O14 1.240 . S
C23 O15 1.252 . S
O24 In13 2.294 . S
O24 C17 1.240 . S
O25 In13 2.326 . S
O25 C17 1.252 . S
In26 O27 2.294 . S
In26 O28 2.326 . S
In26 O32 2.266 . S
In26 O33 2.326 . S
In26 O34 2.266 . S
In26 O35 2.339 . S
In26 O37 2.294 . S
In26 O38 2.326 . S
O27 In26 2.294 . S
O27 C36 1.240 . S
O28 In26 2.326 . S
O28 C36 1.252 . S
C29 O32 1.252 . S
C29 O33 1.260 . S
C30 O37 1.240 . S
C30 O38 1.252 . S
C31 O34 1.252 . S
C31 O35 1.271 . S
O32 In26 2.266 . S
O32 C29 1.252 . S
O33 In26 2.326 . S
O33 C29 1.260 . S
O34 In26 2.266 . S
O34 C31 1.252 . S
O35 In26 2.339 . S
O35 C31 1.271 . S
C36 O27 1.240 . S
C36 O28 1.252 . S
O37 In26 2.294 . S
O37 C30 1.240 . S
O38 In26 2.326 . S
O38 C30 1.252 . S
In39 O40 2.294 . S
In39 O41 2.326 . S
In39 O45 2.266 . S
In39 O46 2.326 . S
In39 O47 2.266 . S
In39 O48 2.326 . S
In39 O50 2.294 . S
In39 O51 2.326 . S
O40 In39 2.294 . S
O40 C49 1.240 . S
O41 In39 2.326 . S
O41 C49 1.252 . S
C42 O45 1.252 . S
C42 O46 1.260 . S
C43 O50 1.240 . S
C43 O51 1.252 . S
C44 O47 1.252 . S
C44 O48 1.260 . S
O45 In39 2.266 . S
O45 C42 1.252 . S
O46 In39 2.326 . S
O46 C42 1.260 . S
O47 In39 2.266 . S
O47 C44 1.252 . S
O48 In39 2.326 . S
O48 C44 1.260 . S
C49 O40 1.240 . S
C49 O41 1.252 . S
O50 In39 2.294 . S
O50 C43 1.240 . S
O51 In39 2.326 . S
O51 C43 1.252 . S
In52 O53 2.294 . S
In52 O54 2.326 . S
In52 O58 2.266 . S
In52 O59 2.326 . S
In52 O60 2.266 . S
In52 O61 2.326 . S
In52 O63 2.294 . S
In52 O64 2.326 . S
O53 In52 2.294 . S
O53 C62 1.240 . S
O54 In52 2.326 . S
O54 C62 1.252 . S
C55 O58 1.252 . S
C55 O59 1.260 . S
C56 O63 1.240 . S
C56 O64 1.252 . S
C57 O60 1.252 . S
C57 O61 1.260 . S
O58 In52 2.266 . S
O58 C55 1.252 . S
O59 In52 2.326 . S
O59 C55 1.260 . S
O60 In52 2.266 . S
O60 C57 1.252 . S
O61 In52 2.326 . S
O61 C57 1.260 . S
C62 O53 1.240 . S
C62 O54 1.252 . S
O63 In52 2.294 . S
O63 C56 1.240 . S
O64 In52 2.326 . S
O64 C56 1.252 . S
In65 O66 2.294 . S
In65 O67 2.326 . S
In65 O71 2.266 . S
In65 O72 2.326 . S
In65 O73 2.266 . S
In65 O74 2.326 . S
In65 O76 2.294 . S
In65 O77 2.326 . S
O66 In65 2.294 . S
O66 C75 1.240 . S
O67 In65 2.326 . S
O67 C75 1.252 . S
C68 O71 1.252 . S
C68 O72 1.260 . S
C69 O76 1.240 . S
C69 O77 1.252 . S
C70 O73 1.252 . S
C70 O74 1.260 . S
O71 In65 2.266 . S
O71 C68 1.252 . S
O72 In65 2.326 . S
O72 C68 1.260 . S
O73 In65 2.266 . S
O73 C70 1.252 . S
O74 In65 2.326 . S
O74 C70 1.260 . S
C75 O66 1.240 . S
C75 O67 1.252 . S
O76 In65 2.294 . S
O76 C69 1.240 . S
O77 In65 2.326 . S
O77 C69 1.252 . S
In78 O79 2.294 . S
In78 O80 2.326 . S
In78 O84 2.266 . S
In78 O85 2.326 . S
In78 O86 2.266 . S
In78 O87 2.339 . S
In78 O89 2.294 . S
In78 O90 2.326 . S
O79 In78 2.294 . S
O79 C88 1.240 . S
O80 In78 2.326 . S
O80 C88 1.252 . S
C81 O84 1.252 . S
C81 O85 1.260 . S
C82 O89 1.240 . S
C82 O90 1.252 . S
C83 O86 1.252 . S
C83 O87 1.271 . S
O84 In78 2.266 . S
O84 C81 1.252 . S
O85 In78 2.326 . S
O85 C81 1.260 . S
O86 In78 2.266 . S
O86 C83 1.252 . S
O87 In78 2.339 . S
O87 C83 1.271 . S
C88 O79 1.240 . S
C88 O80 1.252 . S
O89 In78 2.294 . S
O89 C82 1.240 . S
O90 In78 2.326 . S
O90 C82 1.252 . S
In91 O92 2.294 . S
In91 O93 2.326 . S
In91 O97 2.266 . S
In91 O98 2.340 . S
In91 O99 2.266 . S
In91 O100 2.326 . S
In91 O102 2.294 . S
In91 O103 2.326 . S
O92 In91 2.294 . S
O92 C101 1.240 . S
O93 In91 2.326 . S
O93 C101 1.252 . S
C94 O97 1.252 . S
C94 O98 1.272 . S
C95 O102 1.240 . S
C95 O103 1.252 . S
C96 O99 1.252 . S
C96 O100 1.260 . S
O97 In91 2.266 . S
O97 C94 1.252 . S
O98 In91 2.340 . S
O98 C94 1.272 . S
O99 In91 2.266 . S
O99 C96 1.252 . S
O100 In91 2.326 . S
O100 C96 1.260 . S
C101 O92 1.240 . S
C101 O93 1.252 . S
O102 In91 2.294 . S
O102 C95 1.240 . S
O103 In91 2.326 . S
O103 C95 1.252 . S
In104 O105 2.294 . S
In104 O106 2.326 . S
In104 O110 2.266 . S
In104 O111 2.339 . S
In104 O112 2.266 . S
In104 O113 2.326 . S
In104 O115 2.294 . S
In104 O116 2.326 . S
O105 In104 2.294 . S
O105 C114 1.240 . S
O106 In104 2.326 . S
O106 C114 1.252 . S
C107 O110 1.252 . S
C107 O111 1.271 . S
C108 O115 1.240 . S
C108 O116 1.252 . S
C109 O112 1.252 . S
C109 O113 1.260 . S
O110 In104 2.266 . S
O110 C107 1.252 . S
O111 In104 2.339 . S
O111 C107 1.271 . S
O112 In104 2.266 . S
O112 C109 1.252 . S
O113 In104 2.326 . S
O113 C109 1.260 . S
C114 O105 1.240 . S
C114 O106 1.252 . S
O115 In104 2.294 . S
O115 C108 1.240 . S
O116 In104 2.326 . S
O116 C108 1.252 . S
In117 O118 2.294 . S
In117 O119 2.326 . S
In117 O123 2.266 . S
In117 O124 2.326 . S
In117 O125 2.266 . S
In117 O126 2.326 . S
In117 O128 2.294 . S
In117 O129 2.326 . S
O118 In117 2.294 . S
O118 C127 1.240 . S
O119 In117 2.326 . S
O119 C127 1.252 . S
C120 O123 1.252 . S
C120 O124 1.260 . S
C121 O128 1.240 . S
C121 O129 1.252 . S
C122 O125 1.252 . S
C122 O126 1.260 . S
O123 In117 2.266 . S
O123 C120 1.252 . S
O124 In117 2.326 . S
O124 C120 1.260 . S
O125 In117 2.266 . S
O125 C122 1.252 . S
O126 In117 2.326 . S
O126 C122 1.260 . S
C127 O118 1.240 . S
C127 O119 1.252 . S
O128 In117 2.294 . S
O128 C121 1.240 . S
O129 In117 2.326 . S
O129 C121 1.252 . S
In130 O131 2.294 . S
In130 O132 2.326 . S
In130 O136 2.266 . S
In130 O137 2.326 . S
In130 O138 2.266 . S
In130 O139 2.326 . S
In130 O141 2.294 . S
In130 O142 2.326 . S
O131 In130 2.294 . S
O131 C140 1.240 . S
O132 In130 2.326 . S
O132 C140 1.252 . S
C133 O136 1.252 . S
C133 O137 1.260 . S
C134 O141 1.240 . S
C134 O142 1.252 . S
C135 O138 1.252 . S
C135 O139 1.260 . S
O136 In130 2.266 . S
O136 C133 1.252 . S
O137 In130 2.326 . S
O137 C133 1.260 . S
O138 In130 2.266 . S
O138 C135 1.252 . S
O139 In130 2.326 . S
O139 C135 1.260 . S
C140 O131 1.240 . S
C140 O132 1.252 . S
O141 In130 2.294 . S
O141 C134 1.240 . S
O142 In130 2.326 . S
O142 C134 1.252 . S
In143 O144 2.294 . S
In143 O145 2.326 . S
In143 O149 2.266 . S
In143 O150 2.326 . S
In143 O151 2.266 . S
In143 O152 2.326 . S
In143 O154 2.294 . S
In143 O155 2.326 . S
O144 In143 2.294 . S
O144 C153 1.240 . S
O145 In143 2.326 . S
O145 C153 1.252 . S
C146 O149 1.252 . S
C146 O150 1.260 . S
C147 O154 1.240 . S
C147 O155 1.252 . S
C148 O151 1.252 . S
C148 O152 1.260 . S
O149 In143 2.266 . S
O149 C146 1.252 . S
O150 In143 2.326 . S
O150 C146 1.260 . S
O151 In143 2.266 . S
O151 C148 1.252 . S
O152 In143 2.326 . S
O152 C148 1.260 . S
C153 O144 1.240 . S
C153 O145 1.252 . S
O154 In143 2.294 . S
O154 C147 1.240 . S
O155 In143 2.326 . S
O155 C147 1.252 . S
C156 C157 1.170 . S
C156 C158 1.380 1_554 S
C157 C156 1.170 . S
C158 C156 1.380 1_556 S
C158 C159 1.170 . S
C159 C158 1.170 . S
C160 C161 1.170 . S
C160 C162 1.380 1_554 S
C161 C160 1.170 . S
C162 C160 1.380 1_556 S
C162 C163 1.170 . S
C163 C162 1.170 . S
C164 C165 1.170 . S
C164 C166 1.380 1_554 S
C165 C164 1.170 . S
C166 C164 1.380 1_556 S
C166 C167 1.170 . S
C167 C166 1.170 . S
C168 C169 1.170 . S
C168 C170 1.380 . S
C169 C168 1.170 . S
C170 C168 1.380 . S
C170 C171 1.170 . S
C171 C170 1.170 . S
C172 C173 1.170 . S
C172 C174 1.380 . S
C173 C172 1.170 . S
C174 C172 1.380 . S
C174 C175 1.170 . S
C175 C174 1.170 . S
C176 C177 1.170 . S
C176 C178 1.380 . S
C177 C176 1.170 . S
C178 C176 1.380 . S
C178 C179 1.170 . S
C179 C178 1.170 . S
C180 C181 1.170 . S
C180 C182 1.380 1_554 S
C181 C180 1.170 . S
C182 C180 1.380 1_556 S
C182 C183 1.170 . S
C183 C182 1.170 . S
C184 C185 1.170 . S
C184 C186 1.380 1_556 S
C185 C184 1.170 . S
C186 C184 1.380 1_554 S
C186 C187 1.170 . S
C187 C186 1.170 . S
C188 C189 1.170 . S
C188 C190 1.380 1_554 S
C189 C188 1.170 . S
C190 C188 1.380 1_556 S
C190 C191 1.170 . S
C191 C190 1.170 . S
C192 C193 1.170 . S
C192 C194 1.380 . S
C193 C192 1.170 . S
C194 C192 1.380 . S
C194 C195 1.170 . S
C195 C194 1.170 . S
C196 C197 1.170 . S
C196 C198 1.380 . S
C197 C196 1.170 . S
C198 C196 1.380 . S
C198 C199 1.170 . S
C199 C198 1.170 . S
C200 C201 1.170 . S
C200 C202 1.380 . S
C201 C200 1.170 . S
C202 C200 1.380 . S
C202 C203 1.170 . S
C203 C202 1.170 . S
C204 C205 1.170 . S
C204 C206 1.380 . S
C205 C204 1.170 . S
C206 C204 1.380 . S
C206 C207 1.170 . S
C207 C206 1.170 . S
C208 C209 1.170 . S
C208 C210 1.380 . S
C209 C208 1.170 . S
C210 C208 1.380 . S
C210 C211 1.170 . S
C211 C210 1.170 . S
C212 C213 1.170 . S
C212 C214 1.380 . S
C213 C212 1.170 . S
C214 C212 1.380 . S
C214 C215 1.170 . S
C215 C214 1.170 . S
C216 C217 1.170 . S
C216 C218 1.380 . S
C217 C216 1.170 . S
C218 C216 1.380 . S
C218 C219 1.170 . S
C219 C218 1.170 . S
C220 C221 1.170 . S
C220 C222 1.380 . S
C221 C220 1.170 . S
C222 C220 1.380 . S
C222 C223 1.170 . S
C223 C222 1.170 . S
C224 C225 1.170 . S
C224 C226 1.380 . S
C225 C224 1.170 . S
C226 C224 1.380 . S
C226 C227 1.170 . S
C227 C226 1.170 . S
C228 C229 1.170 . S
C228 C230 1.380 1_454 S
C229 C228 1.170 . S
C230 C228 1.380 1_656 S
C230 C231 1.170 . S
C231 C230 1.170 . S
C232 C233 1.170 . S
C232 C234 1.380 1_554 S
C233 C232 1.170 . S
C234 C232 1.380 1_556 S
C234 C235 1.170 . S
C235 C234 1.170 . S
C236 C237 1.170 . S
C236 C238 1.380 1_564 S
C237 C236 1.170 . S
C238 C236 1.380 1_546 S
C238 C239 1.170 . S
C239 C238 1.170 . S
C240 C241 1.170 . S
C240 C242 1.380 1_565 S
C241 C240 1.170 . S
C242 C240 1.380 1_545 S
C242 C243 1.170 . S
C243 C242 1.170 . S
C244 C245 1.170 . S
C244 C246 1.380 1_655 S
C245 C244 1.170 . S
C246 C244 1.380 1_455 S
C246 C247 1.170 . S
C247 C246 1.170 . S
C248 C249 1.170 . S
C248 C250 1.380 . S
C249 C248 1.170 . S
C250 C248 1.380 . S
C250 C251 1.170 . S
C251 C250 1.170 . S
C157 C4 1.195 . S
C159 C94 1.192 . S
C161 C17 1.199 . S
C163 C107 1.192 1_565 S
C165 C36 1.203 . S
C167 C83 1.193 1_455 S
C169 C146 1.201 . S
C171 C49 1.195 . S
C173 C56 1.203 . S
C175 C122 1.195 1_565 S
C177 C135 1.198 1_455 S
C179 C69 1.201 . S
C181 C16 1.192 . S
C183 C88 1.201 . S
C185 C95 1.203 . S
C187 C31 1.192 1_545 S
C189 C3 1.197 1_655 S
C191 C108 1.193 . S
C193 C127 1.185 . S
C195 C68 1.202 . S
C197 C140 1.190 . S
C199 C44 1.199 1_545 S
C201 C55 1.202 1_655 S
C203 C147 1.186 . S
C205 C75 1.565 . S
C207 C10 1.554 . S
C209 C23 1.575 . S
C211 C43 1.577 . S
C213 C30 1.561 . S
C215 C62 1.575 . S
C217 C82 1.571 . S
C219 C153 1.570 . S
C221 C101 1.574 . S
C223 C121 1.554 . S
C225 C114 1.579 . S
C227 C134 1.558 . S
C229 C5 1.574 . S
C231 C81 1.547 . S
C233 C18 1.564 . S
C235 C96 1.544 . S
C237 C29 1.543 . S
C239 C109 1.566 . S
C241 C42 1.560 . S
C243 C120 1.546 . S
C245 C133 1.575 . S
C247 C57 1.545 . S
C249 C70 1.574 . S
C251 C148 1.542 . S
