# Generated by pormake.
# Topology umz, (4)-cn, num edge types: 1
# Building blocks:
#     Node 0, Type 0, BuildingBlock: AZAVOO_clean_sbu_0, # of connection points: 4
#     Node 1, Type 0, BuildingBlock: AZAVOO_clean_sbu_0, # of connection points: 4
#     Node 2, Type 0, BuildingBlock: AZAVOO_clean_sbu_0, # of connection points: 4
#     Node 3, Type 0, BuildingBlock: AZAVOO_clean_sbu_0, # of connection points: 4
#     Node 4, Type 0, BuildingBlock: AZAVOO_clean_sbu_0, # of connection points: 4
#     Node 5, Type 0, BuildingBlock: AZAVOO_clean_sbu_0, # of connection points: 4
#     Node 6, Type 0, BuildingBlock: AZAVOO_clean_sbu_0, # of connection points: 4
#     Node 7, Type 0, BuildingBlock: AZAVOO_clean_sbu_0, # of connection points: 4
#     Node 8, Type 0, BuildingBlock: AZAVOO_clean_sbu_0, # of connection points: 4
#     Node 9, Type 0, BuildingBlock: AZAVOO_clean_sbu_0, # of connection points: 4
#     Node 10, Type 0, BuildingBlock: AZAVOO_clean_sbu_0, # of connection points: 4
#     Node 11, Type 0, BuildingBlock: AZAVOO_clean_sbu_0, # of connection points: 4
#     Node 12, Type 0, BuildingBlock: AZAVOO_clean_sbu_0, # of connection points: 4
#     Node 13, Type 0, BuildingBlock: AZAVOO_clean_sbu_0, # of connection points: 4
#     Node 14, Type 0, BuildingBlock: AZAVOO_clean_sbu_0, # of connection points: 4
#     Node 15, Type 0, BuildingBlock: AZAVOO_clean_sbu_0, # of connection points: 4
#     Edge 16, Type (0, 0), BuildingBlock: AJUNOK_clean_linker_0, # of connection points: 2
#     Edge 17, Type (0, 0), BuildingBlock: AJUNOK_clean_linker_0, # of connection points: 2
#     Edge 18, Type (0, 0), BuildingBlock: AJUNOK_clean_linker_0, # of connection points: 2
#     Edge 19, Type (0, 0), BuildingBlock: AJUNOK_clean_linker_0, # of connection points: 2
#     Edge 20, Type (0, 0), BuildingBlock: AJUNOK_clean_linker_0, # of connection points: 2
#     Edge 21, Type (0, 0), BuildingBlock: AJUNOK_clean_linker_0, # of connection points: 2
#     Edge 22, Type (0, 0), BuildingBlock: AJUNOK_clean_linker_0, # of connection points: 2
#     Edge 23, Type (0, 0), BuildingBlock: AJUNOK_clean_linker_0, # of connection points: 2
#     Edge 24, Type (0, 0), BuildingBlock: AJUNOK_clean_linker_0, # of connection points: 2
#     Edge 25, Type (0, 0), BuildingBlock: AJUNOK_clean_linker_0, # of connection points: 2
#     Edge 26, Type (0, 0), BuildingBlock: AJUNOK_clean_linker_0, # of connection points: 2
#     Edge 27, Type (0, 0), BuildingBlock: AJUNOK_clean_linker_0, # of connection points: 2
#     Edge 28, Type (0, 0), BuildingBlock: AJUNOK_clean_linker_0, # of connection points: 2
#     Edge 29, Type (0, 0), BuildingBlock: AJUNOK_clean_linker_0, # of connection points: 2
#     Edge 30, Type (0, 0), BuildingBlock: AJUNOK_clean_linker_0, # of connection points: 2
#     Edge 31, Type (0, 0), BuildingBlock: AJUNOK_clean_linker_0, # of connection points: 2
#     Edge 32, Type (0, 0), BuildingBlock: AJUNOK_clean_linker_0, # of connection points: 2
#     Edge 33, Type (0, 0), BuildingBlock: AJUNOK_clean_linker_0, # of connection points: 2
#     Edge 34, Type (0, 0), BuildingBlock: AJUNOK_clean_linker_0, # of connection points: 2
#     Edge 35, Type (0, 0), BuildingBlock: AJUNOK_clean_linker_0, # of connection points: 2
#     Edge 36, Type (0, 0), BuildingBlock: AJUNOK_clean_linker_0, # of connection points: 2
#     Edge 37, Type (0, 0), BuildingBlock: AJUNOK_clean_linker_0, # of connection points: 2
#     Edge 38, Type (0, 0), BuildingBlock: AJUNOK_clean_linker_0, # of connection points: 2
#     Edge 39, Type (0, 0), BuildingBlock: AJUNOK_clean_linker_0, # of connection points: 2
#     Edge 40, Type (0, 0), BuildingBlock: AJUNOK_clean_linker_0, # of connection points: 2
#     Edge 41, Type (0, 0), BuildingBlock: AJUNOK_clean_linker_0, # of connection points: 2
#     Edge 42, Type (0, 0), BuildingBlock: AJUNOK_clean_linker_0, # of connection points: 2
#     Edge 43, Type (0, 0), BuildingBlock: AJUNOK_clean_linker_0, # of connection points: 2
#     Edge 44, Type (0, 0), BuildingBlock: AJUNOK_clean_linker_0, # of connection points: 2
#     Edge 45, Type (0, 0), BuildingBlock: AJUNOK_clean_linker_0, # of connection points: 2
#     Edge 46, Type (0, 0), BuildingBlock: AJUNOK_clean_linker_0, # of connection points: 2
#     Edge 47, Type (0, 0), BuildingBlock: AJUNOK_clean_linker_0, # of connection points: 2
# Relax obj value: 0.264
# Max RMSD: 0.177
# Mean RMSD: 0.177
data_MOF--net-umz--node1-AZAVOO_clean_sbu_0--edge1-AJUNOK_clean_linker_0
_symmetry_space_group_name_H-M    P1
_symmetry_Int_Tables_number       1
_symmetry_cell_setting            triclinic
loop_
_symmetry_equiv_pos_as_xyz
'x, y, z'
_cell_length_a     46.811962
_cell_length_b     46.806747
_cell_length_c     15.147085
_cell_angle_alpha  89.762146
_cell_angle_beta   90.1074
_cell_angle_gamma 90.216129
loop_
_atom_site_label
_atom_site_type_symbol
_atom_site_fract_x
_atom_site_fract_y
_atom_site_fract_z
_atom_type_partial_charge
Mg0 Mg -0.00284 0.61517 0.03573 0.0
O1 O 0.02654 0.60625 0.15255 0.0
O2 O 0.07013 0.62305 0.1215 0.0
Mg3 Mg 0.06849 0.64432 0.98665 0.0
C4 C 0.05268 0.61023 0.17281 0.0
C5 C 0.93834 0.58869 0.09859 0.0
O6 O 0.93549 0.5808 0.01595 0.0
O7 O -0.00715 0.6615 0.07438 0.0
O8 O 0.03628 0.67662 0.03496 0.0
O9 O 0.01119 0.57452 0.97286 0.0
O10 O 0.03253 0.61631 0.95266 0.0
C11 C 0.01128 0.68134 0.06468 0.0
C12 C 0.03208 0.58922 0.93972 0.0
O13 O 0.96016 0.60281 0.12246 0.0
Mg14 Mg 0.85015 -0.00715 0.5323 0.0
O15 O 0.85866 0.02403 0.64574 0.0
O16 O 0.84755 0.06916 0.61125 0.0
Mg17 Mg 0.81732 0.06297 0.49589 0.0
C18 C 0.85856 0.05068 0.66343 0.0
C19 C 0.88085 0.93687 0.59785 0.0
O20 O 0.8864 0.93207 0.51427 0.0
O21 O 0.80492 0.98307 0.57343 0.0
O22 O 0.80053 0.02898 0.58815 0.0
O23 O 0.88849 0.00974 0.46835 0.0
O24 O 0.84562 0.02832 0.44543 0.0
C25 C 0.78924 0.00496 0.57114 0.0
C26 C 0.87286 0.02949 0.43311 0.0
O27 O 0.86635 0.95841 0.62034 0.0
Mg28 Mg 0.47316 0.85117 0.03619 0.0
O29 O 0.4412 0.8565 0.15003 0.0
O30 O 0.39734 0.84234 0.11004 0.0
Mg31 Mg 0.40879 0.81079 0.00264 0.0
C32 C 0.41422 0.8553 0.16295 0.0
C33 C 0.52938 0.88142 0.10152 0.0
O34 O 0.53425 0.88506 0.01681 0.0
O35 O 0.48714 0.80666 0.0716 0.0
O36 O 0.44277 0.79847 0.10309 0.0
O37 O 0.45323 0.88851 0.97743 0.0
O38 O 0.4382 0.84444 0.94745 0.0
C39 C 0.46745 0.78886 0.08698 0.0
C40 C 0.43479 0.8718 0.93988 0.0
O41 O 0.5069 0.86855 0.12621 0.0
Mg42 Mg 0.61848 0.47244 0.53858 0.0
O43 O 0.60781 0.44178 0.65286 0.0
O44 O 0.61932 0.39687 0.61693 0.0
Mg45 Mg 0.64434 0.39784 0.48916 0.0
C46 C 0.6085 0.41504 0.66972 0.0
C47 C 0.58835 0.5299 0.60393 0.0
O48 O 0.58114 0.53414 0.52106 0.0
O49 O 0.6648 0.47877 0.58851 0.0
O50 O 0.66665 0.43531 0.54183 0.0
O51 O 0.57881 0.45794 0.46732 0.0
O52 O 0.61992 0.43629 0.44964 0.0
C53 C 0.67955 0.45676 0.57199 0.0
C54 C 0.59315 0.43741 0.4321 0.0
O55 O 0.60348 0.50848 0.62528 0.0
Mg56 Mg -0.00814 0.8471 0.95138 0.0
O57 O 0.02318 0.85987 0.84321 0.0
O58 O 0.06856 0.84812 0.87544 0.0
Mg59 Mg 0.06236 0.81488 0.98428 0.0
C60 C 0.04994 0.86073 0.82742 0.0
C61 C 0.93917 0.88132 0.8847 0.0
O62 O 0.94175 0.89368 0.96203 0.0
O63 O 0.98363 0.80293 0.89787 0.0
O64 O 0.02945 0.79901 0.88676 0.0
O65 O 0.0081 0.88492 0.0242 0.0
O66 O 0.0274 0.84207 0.03841 0.0
C67 C 0.00544 0.78721 0.90082 0.0
C68 C 0.02839 0.86905 0.05528 0.0
O69 O 0.95624 0.86168 0.86358 0.0
Mg70 Mg 0.61571 -0.00374 0.46155 0.0
O71 O 0.60483 0.02555 0.35004 0.0
O72 O 0.61943 0.07022 0.37023 0.0
Mg73 Mg 0.64191 0.06887 0.50409 0.0
C74 C 0.60685 0.05125 0.32404 0.0
C75 C 0.58964 0.93883 0.38374 0.0
O76 O 0.58143 0.93367 0.46519 0.0
O77 O 0.66122 -0.00557 0.41816 0.0
O78 O 0.67609 0.03851 0.45207 0.0
O79 O 0.57539 0.0086 0.52847 0.0
O80 O 0.61697 0.0309 0.5461 0.0
C81 C 0.68072 0.01335 0.42325 0.0
C82 C 0.59006 0.02952 0.5615 0.0
O83 O 0.60434 0.96096 0.36754 0.0
Mg84 Mg 0.47215 0.61539 0.95162 0.0
O85 O 0.44336 0.60642 0.8356 0.0
O86 O 0.39962 0.62272 0.86427 0.0
Mg87 Mg 0.40008 0.64268 0.00018 0.0
C88 C 0.41745 0.61041 0.81372 0.0
C89 C 0.52798 0.58626 0.88594 0.0
O90 O 0.52605 0.57423 0.96425 0.0
O91 O 0.47519 0.66167 0.91371 0.0
O92 O 0.43213 0.67646 0.95732 0.0
O93 O 0.45797 0.57434 0.01573 0.0
O94 O 0.43693 0.61607 0.03518 0.0
C95 C 0.45711 0.6814 0.92739 0.0
C96 C 0.43735 0.58909 0.04928 0.0
O97 O 0.50976 0.6049 0.86356 0.0
Mg98 Mg 0.84793 0.4764 0.44595 0.0
O99 O 0.85752 0.44356 0.33507 0.0
O100 O 0.84722 0.39862 0.37944 0.0
Mg101 Mg 0.81611 0.40543 0.49214 0.0
C102 C 0.85792 0.41642 0.32419 0.0
C103 C 0.88118 0.53044 0.38215 0.0
O104 O 0.89184 0.52893 0.46228 0.0
O105 O 0.80182 0.48656 0.40165 0.0
O106 O 0.80557 0.44137 0.40297 0.0
O107 O 0.88673 0.4599 0.51329 0.0
O108 O 0.84444 0.4407 0.53892 0.0
C109 C 0.78956 0.46272 0.41102 0.0
C110 C 0.87168 0.44009 0.55086 0.0
O111 O 0.86312 0.51198 0.35691 0.0
Mg112 Mg 0.97067 0.35498 0.95854 0.0
O113 O 0.94173 0.36627 0.84479 0.0
O114 O 0.89775 0.34921 0.86145 0.0
Mg115 Mg 0.89836 0.32693 -0.0037 0.0
C116 C 0.91628 0.36316 0.81711 0.0
C117 C 0.03004 0.38075 0.88953 0.0
O118 O 0.03573 0.38705 0.97217 0.0
O119 O 0.97435 0.30964 0.91361 0.0
O120 O 0.93131 0.29379 0.95504 0.0
O121 O 0.95738 0.39435 0.02859 0.0
O122 O 0.93552 0.35237 0.04122 0.0
C123 C 0.95659 0.28948 0.92662 0.0
C124 C 0.93669 0.37901 0.06026 0.0
O125 O 0.00705 0.36779 0.87043 0.0
Mg126 Mg 0.11383 0.97001 0.44903 0.0
O127 O 0.10315 0.94029 0.33543 0.0
O128 O 0.1215 0.89722 0.36002 0.0
Mg129 Mg 0.14202 0.89861 0.49717 0.0
C130 C 0.10755 0.91464 0.3116 0.0
C131 C 0.088 0.0282 0.37955 0.0
O132 O 0.0798 0.03153 0.46179 0.0
O133 O 0.15978 0.97389 0.40809 0.0
O134 O 0.17544 0.9319 0.45885 0.0
O135 O 0.07382 0.95745 0.51856 0.0
O136 O 0.1152 0.93528 0.53464 0.0
C137 C 0.17993 0.95686 0.4275 0.0
C138 C 0.08852 0.93688 0.55337 0.0
O139 O 0.10232 0.00633 0.35896 0.0
Mg140 Mg 0.49561 0.11748 0.95263 0.0
O141 O 0.52474 0.10709 0.8386 0.0
O142 O 0.56877 0.12406 0.86128 0.0
Mg143 Mg 0.5676 0.14719 0.99245 0.0
C144 C 0.55051 0.1107 0.81461 0.0
C145 C 0.43972 0.08551 0.8892 0.0
O146 O 0.44086 0.07419 0.96859 0.0
O147 O 0.49102 0.16306 0.90817 0.0
O148 O 0.53441 0.1789 0.94554 0.0
O149 O 0.51044 0.07797 0.01974 0.0
O150 O 0.53147 0.11993 0.03572 0.0
C151 C 0.50912 0.18318 0.91734 0.0
C152 C 0.53123 0.09297 0.05223 0.0
O153 O 0.45826 0.10391 0.86635 0.0
Mg154 Mg 0.35362 0.49623 0.45289 0.0
O155 O 0.36197 0.52617 0.33816 0.0
O156 O 0.34757 0.57042 0.36854 0.0
Mg157 Mg 0.32492 0.5674 0.50124 0.0
C158 C 0.35906 0.55231 0.31725 0.0
C159 C 0.3824 0.43957 0.38472 0.0
O160 O 0.38955 0.43537 0.46759 0.0
O161 O 0.30711 0.49142 0.41393 0.0
O162 O 0.29283 0.53558 0.44775 0.0
O163 O 0.39399 0.5124 0.51648 0.0
O164 O 0.35083 0.53024 0.53778 0.0
C165 C 0.28777 0.51047 0.41921 0.0
C166 C 0.37775 0.53142 0.55246 0.0
O167 O 0.3674 0.46096 0.36304 0.0
Mg168 Mg 0.97103 0.11544 0.03161 0.0
O169 O 0.94229 0.10469 0.14575 0.0
O170 O 0.89839 0.12162 0.12816 0.0
Mg171 Mg 0.89845 0.14357 -0.00578 0.0
C172 C 0.9169 0.10799 0.17315 0.0
C173 C 0.02921 0.08753 0.09741 0.0
O174 O 0.03257 0.08031 0.01438 0.0
O175 O 0.97533 0.16079 0.07579 0.0
O176 O 0.93197 0.1758 0.03501 0.0
O177 O 0.95603 0.0763 0.9622 0.0
O178 O 0.93567 0.11868 0.94986 0.0
C179 C 0.95747 0.18063 0.06108 0.0
C180 C 0.93571 0.09208 0.93059 0.0
O181 O 0.00763 0.10215 0.11926 0.0
Mg182 Mg 0.35457 0.97187 0.52982 0.0
O183 O 0.36449 0.94229 0.64391 0.0
O184 O 0.34517 0.89913 0.6274 0.0
Mg185 Mg 0.32335 0.90032 0.49285 0.0
C186 C 0.3598 0.91702 0.67167 0.0
C187 C 0.38447 0.02927 0.59721 0.0
O188 O 0.39387 0.03179 0.51595 0.0
O189 O 0.30916 0.97771 0.57326 0.0
O190 O 0.29251 0.93479 0.5336 0.0
O191 O 0.3927 0.95516 0.45573 0.0
O192 O 0.34924 0.93704 0.44727 0.0
C193 C 0.28864 0.96041 0.55927 0.0
C194 C 0.37535 0.93628 0.42318 0.0
O195 O 0.36898 0.00809 0.61837 0.0
Mg196 Mg 0.49185 0.35215 0.03006 0.0
O197 O 0.52179 0.36075 0.14565 0.0
O198 O 0.56704 0.35095 0.11068 0.0
Mg199 Mg 0.56059 0.31931 -0.00171 0.0
C200 C 0.54848 0.36193 0.16216 0.0
C201 C 0.43928 0.38504 0.09546 0.0
O202 O 0.44234 0.39728 0.01784 0.0
O203 O 0.48348 0.30666 0.06667 0.0
O204 O 0.52877 0.29995 0.09542 0.0
O205 O 0.51018 0.39144 0.96772 0.0
O206 O 0.52658 0.34763 0.94509 0.0
C207 C 0.50408 0.28979 0.08022 0.0
C208 C 0.52891 0.37473 0.93229 0.0
O209 O 0.4559 0.36508 0.11781 0.0
Mg210 Mg 0.11735 0.49564 0.53765 0.0
O211 O 0.10857 0.52636 0.64958 0.0
O212 O 0.11893 0.57183 0.61527 0.0
Mg213 Mg 0.14899 0.56602 0.49824 0.0
C214 C 0.10822 0.55295 0.66667 0.0
C215 C 0.08825 0.43971 0.60675 0.0
O216 O 0.07921 0.43836 0.52471 0.0
O217 O 0.16327 0.48773 0.57324 0.0
O218 O 0.17044 0.53368 0.58852 0.0
O219 O 0.0782 0.51314 0.47255 0.0
O220 O 0.12184 0.53016 0.44983 0.0
C221 C 0.18004 0.50901 0.57056 0.0
C222 C 0.09485 0.53185 0.4356 0.0
O223 O 0.10404 0.46035 0.63004 0.0
C224 C 0.02242 0.73228 0.07584 0.0
C225 C 0.0019 0.71104 0.05844 0.0
C226 C 0.02325 0.75734 0.02568 0.0
C227 C 0.00312 0.76215 0.95853 0.0
H228 H 0.03993 0.72797 0.12083 0.0
H229 H 0.04046 0.77229 0.03728 0.0
S230 S 0.94086 0.71647 0.90319 0.0
N231 N 0.9577 0.69892 0.98237 0.0
N232 N 0.9593 0.74621 0.88757 0.0
C233 C 0.98027 0.74292 0.949 0.0
C234 C 0.97936 0.71745 0.00039 0.0
C235 C 0.71539 -0.01572 0.5014 0.0
C236 C 0.71001 0.00347 0.43172 0.0
C237 C 0.74172 -0.01569 0.54446 0.0
C238 C 0.76339 0.00307 0.51766 0.0
H239 H 0.69822 0.97162 0.52957 0.0
H240 H 0.74449 0.97095 0.60246 0.0
S241 S 0.76307 0.04925 0.3182 0.0
N242 N 0.73015 0.03653 0.32468 0.0
N243 N 0.78056 0.03521 0.40254 0.0
C244 C 0.75964 0.01917 0.44007 0.0
C245 C 0.73264 0.01957 0.39728 0.0
C246 C 0.46 0.76021 0.95244 0.0
C247 C 0.46967 0.76194 0.04023 0.0
C248 C 0.45891 0.73389 0.90909 0.0
C249 C 0.4684 0.70912 0.952 0.0
H250 H 0.45187 0.77903 0.91908 0.0
H251 H 0.44895 0.73261 0.84459 0.0
S252 S 0.49649 0.70289 0.17998 0.0
N253 N 0.48931 0.73722 0.16753 0.0
N254 N 0.4888 0.68791 0.08437 0.0
C255 C 0.4801 0.71111 0.03721 0.0
C256 C 0.48028 0.73758 0.08218 0.0
C257 C 0.72327 0.48469 0.53631 0.0
C258 C 0.7105 0.45826 0.55627 0.0
C259 C 0.74903 0.48598 0.48971 0.0
C260 C 0.7627 0.4609 0.46113 0.0
H261 H 0.7124 0.50448 0.55111 0.0
H262 H 0.75775 0.50682 0.47359 0.0
S263 S 0.73884 0.38636 0.50316 0.0
N264 N 0.71513 0.40643 0.55374 0.0
N265 N 0.7615 0.40894 0.45715 0.0
C266 C 0.75057 0.43438 0.48348 0.0
C267 C 0.7252 0.43306 0.53441 0.0
C268 C 0.97383 0.25805 0.04233 0.0
C269 C 0.96839 0.262 0.95148 0.0
C270 C 0.97344 0.23079 0.07996 0.0
C271 C 0.96898 0.2071 0.02611 0.0
H272 H 0.97495 0.27633 0.08597 0.0
H273 H 0.974 0.22851 0.15115 0.0
S274 S 0.96055 0.20559 0.78307 0.0
N275 N 0.96224 0.23995 0.80779 0.0
N276 N 0.96467 0.18827 0.87735 0.0
C277 C 0.96801 0.21057 0.93384 0.0
C278 C 0.96683 0.23828 0.89626 0.0
C279 C 0.23848 0.97537 0.58037 0.0
C280 C 0.26224 0.97246 0.52576 0.0
C281 C 0.21112 0.97457 0.5436 0.0
C282 C 0.20715 0.96946 0.4527 0.0
H283 H 0.24089 0.97542 0.65152 0.0
H284 H 0.19293 0.97452 0.58783 0.0
S285 S 0.26341 0.96491 0.28254 0.0
N286 N 0.28078 0.9696 0.37633 0.0
N287 N 0.22909 0.96503 0.30829 0.0
C288 C 0.23077 0.96949 0.39674 0.0
C289 C 0.25854 0.97187 0.43353 0.0
C290 C 0.51213 0.2353 0.9011 0.0
C291 C 0.49837 0.21142 0.93792 0.0
C292 C 0.51367 0.26092 0.9479 0.0
C293 C 0.50196 0.26296 0.03298 0.0
H294 H 0.52367 0.23344 0.83946 0.0
H295 H 0.52494 0.27892 0.91892 0.0
S296 S 0.46314 0.20685 0.15655 0.0
N297 N 0.47128 0.19195 0.06129 0.0
N298 N 0.4755 0.23991 0.15085 0.0
C299 C 0.48686 0.23988 0.06833 0.0
C300 C 0.4845 0.21415 0.01975 0.0
C301 C 0.25048 0.48152 0.4878 0.0
C302 C 0.25779 0.50192 0.42322 0.0
C303 C 0.22471 0.48359 0.53386 0.0
C304 C 0.20561 0.50591 0.51586 0.0
H305 H 0.26612 0.46613 0.51057 0.0
H306 H 0.22057 0.46882 0.58766 0.0
S307 S 0.21112 0.55863 0.33313 0.0
N308 N 0.24137 0.54062 0.32934 0.0
N309 N 0.19272 0.54448 0.41538 0.0
C310 C 0.21101 0.52391 0.44334 0.0
C311 C 0.23707 0.52161 0.39614 0.0
C312 C 0.04245 0.56214 0.80473 0.0
C313 C 0.05278 0.57643 0.87941 0.0
C314 C 0.06082 0.55488 0.73597 0.0
C315 C 0.09003 0.56171 0.7399 0.0
H316 H 0.01982 0.55776 0.7975 0.0
H317 H 0.05203 0.54437 0.67829 0.0
S318 S 0.12846 0.594 0.92858 0.0
N319 N 0.09459 0.59348 0.95929 0.0
N320 N 0.12918 0.58032 0.82815 0.0
C321 C 0.10097 0.57463 0.81603 0.0
C322 C 0.08226 0.58183 0.88659 0.0
C323 C 0.87908 0.09331 0.28047 0.0
C324 C 0.9077 0.09198 0.25267 0.0
C325 C 0.8683 0.0739 0.3425 0.0
C326 C 0.88576 0.05252 0.37931 0.0
H327 H 0.86444 0.10846 0.25089 0.0
H328 H 0.84579 0.07492 0.35835 0.0
S329 S 0.9635 0.04313 0.34064 0.0
N330 N 0.95429 0.06998 0.27596 0.0
N331 N 0.93395 0.03353 0.39221 0.0
C332 C 0.91498 0.05253 0.35792 0.0
C333 C 0.92599 0.0723 0.29481 0.0
C334 C 0.42062 0.90878 0.83218 0.0
C335 C 0.41311 0.88425 0.88061 0.0
C336 C 0.40242 0.91999 0.76808 0.0
C337 C 0.37588 0.90716 0.74981 0.0
H338 H 0.44136 0.91875 0.84092 0.0
H339 H 0.40996 0.93808 0.72966 0.0
S340 S 0.34312 0.84689 0.87341 0.0
N341 N 0.37535 0.85037 0.91696 0.0
N342 N 0.34088 0.87148 0.79512 0.0
C343 C 0.36706 0.88391 0.80229 0.0
C344 C 0.38575 0.87241 0.86806 0.0
C345 C 0.58642 0.37659 0.26894 0.0
C346 C 0.55808 0.37878 0.23934 0.0
C347 C 0.59708 0.39483 0.33407 0.0
C348 C 0.57987 0.41602 0.37266 0.0
H349 H 0.60082 0.36123 0.23974 0.0
H350 H 0.61941 0.39292 0.35124 0.0
S351 S 0.50312 0.42871 0.32487 0.0
N352 N 0.51217 0.40244 0.25841 0.0
N353 N 0.53229 0.43655 0.38137 0.0
C354 C 0.55099 0.41738 0.34738 0.0
C355 C 0.54008 0.39879 0.28074 0.0
C356 C 0.0888 0.87403 0.22117 0.0
C357 C 0.09219 0.90368 0.2327 0.0
C358 C 0.06914 0.86306 0.16015 0.0
C359 C 0.05204 0.88128 0.10846 0.0
H360 H 0.10013 0.85906 0.26308 0.0
H361 H 0.06632 0.84011 0.15703 0.0
S362 S 0.05785 0.96039 0.09737 0.0
N363 N 0.08065 0.95096 0.17536 0.0
N364 N 0.04341 0.93033 0.06157 0.0
C365 C 0.05716 0.9109 0.11313 0.0
C366 C 0.07736 0.92208 0.17489 0.0
C367 C 0.56337 0.09847 0.6591 0.0
C368 C 0.5611 0.09091 0.74855 0.0
C369 C 0.57189 0.07807 0.59676 0.0
C370 C 0.5775 0.04975 0.62288 0.0
H371 H 0.55865 0.12005 0.63762 0.0
H372 H 0.57433 0.08442 0.5283 0.0
S373 S 0.57556 0.02031 0.84981 0.0
N374 N 0.56616 0.05408 0.86067 0.0
N375 N 0.58108 0.01559 0.74317 0.0
C376 C 0.5752 0.04219 0.71193 0.0
C377 C 0.56724 0.06291 0.77507 0.0
C378 C 0.40484 0.57172 0.26794 0.0
C379 C 0.37715 0.56276 0.24572 0.0
C380 C 0.42463 0.57869 0.2026 0.0
C381 C 0.41731 0.57699 0.11308 0.0
H382 H 0.41136 0.57295 0.33655 0.0
H383 H 0.44568 0.58602 0.22229 0.0
S384 S 0.34721 0.55538 0.02056 0.0
N385 N 0.34306 0.55255 0.12871 0.0
N386 N 0.38039 0.56651 0.00464 0.0
C387 C 0.38958 0.5683 0.08955 0.0
C388 C 0.3694 0.56089 0.15645 0.0
C389 C 0.87983 0.37554 0.70155 0.0
C390 C 0.90726 0.37953 0.73768 0.0
C391 C 0.86897 0.39437 0.63765 0.0
C392 C 0.88513 0.41787 0.60721 0.0
H393 H 0.86613 0.35848 0.72539 0.0
H394 H 0.84733 0.39103 0.61478 0.0
S395 S 0.95965 0.43562 0.67192 0.0
N396 N 0.95146 0.40718 0.73133 0.0
N397 N 0.9311 0.44224 0.61134 0.0
C398 C 0.91337 0.42078 0.63773 0.0
C399 C 0.92443 0.40169 0.70287 0.0
C400 C 0.8893 0.39868 0.10155 0.0
C401 C 0.91702 0.39025 0.12564 0.0
C402 C 0.86955 0.40677 0.16638 0.0
C403 C 0.87698 0.40558 0.25625 0.0
H404 H 0.88296 0.39896 0.0327 0.0
H405 H 0.84849 0.41386 0.14644 0.0
S406 S 0.94631 0.38363 0.35182 0.0
N407 N 0.95071 0.38079 0.24401 0.0
N408 N 0.91319 0.39474 0.36593 0.0
C409 C 0.90433 0.39651 0.28057 0.0
C410 C 0.92452 0.38911 0.21501 0.0
C411 C 0.07607 0.86977 0.68693 0.0
C412 C 0.05933 0.87988 0.75668 0.0
C413 C 0.08434 0.88815 0.61828 0.0
C414 C 0.0761 0.91704 0.61791 0.0
H415 H 0.08263 0.8476 0.68525 0.0
H416 H 0.09741 0.87977 0.5656 0.0
S417 S 0.0335 0.95379 0.78892 0.0
N418 N 0.03547 0.92035 0.82344 0.0
N419 N 0.05094 0.95493 0.69424 0.0
C420 C 0.0591 0.9272 0.68703 0.0
C421 C 0.05081 0.90858 0.75679 0.0
C422 C 0.59403 0.08736 0.20894 0.0
C423 C 0.59102 0.05964 0.24348 0.0
C424 C 0.57559 0.09741 0.1432 0.0
C425 C 0.55347 0.08012 0.10927 0.0
H426 H 0.6099 0.10189 0.23549 0.0
H427 H 0.57795 0.11939 0.12237 0.0
S428 S 0.53901 0.00444 0.16877 0.0
N429 N 0.56607 0.01391 0.23215 0.0
N430 N 0.53165 0.03288 0.1083 0.0
C431 C 0.55166 0.05163 0.13823 0.0
C432 C 0.5704 0.04136 0.20535 0.0
C433 C 0.37054 0.56211 0.68129 0.0
C434 C 0.38845 0.55368 0.61186 0.0
C435 C 0.37937 0.58233 0.74255 0.0
C436 C 0.40655 0.59487 0.73681 0.0
H437 H 0.34978 0.55221 0.69051 0.0
H438 H 0.36539 0.58683 0.79768 0.0
S439 S 0.45945 0.58431 0.5581 0.0
N440 N 0.4331 0.56204 0.53378 0.0
N441 N 0.44992 0.60053 0.65013 0.0
C442 C 0.42406 0.5881 0.66453 0.0
C443 C 0.41502 0.56727 0.60181 0.0
C444 C 0.8788 0.09 0.75487 0.0
C445 C 0.87444 0.06058 0.74218 0.0
C446 C 0.89778 0.09989 0.81898 0.0
C447 C 0.91319 0.08076 0.87265 0.0
H448 H 0.86852 0.10559 0.71252 0.0
H449 H 0.90133 0.12273 0.8234 0.0
S450 S 0.90433 0.0022 0.88131 0.0
N451 N 0.88319 0.01264 0.80007 0.0
N452 N 0.91945 0.03155 0.91958 0.0
C453 C 0.90729 0.0515 0.86617 0.0
C454 C 0.88768 0.04134 0.80134 0.0
C455 C 0.41241 0.90364 0.36243 0.0
C456 C 0.38444 0.91412 0.36076 0.0
C457 C 0.42125 0.88314 0.30139 0.0
C458 C 0.40256 0.87271 0.23571 0.0
H459 H 0.4276 0.91143 0.4108 0.0
H460 H 0.44323 0.87604 0.30424 0.0
S461 S 0.32658 0.89324 0.20534 0.0
N462 N 0.33768 0.91231 0.29017 0.0
N463 N 0.35427 0.87386 0.17534 0.0
C464 C 0.37413 0.88236 0.23551 0.0
C465 C 0.36513 0.90316 0.29786 0.0
C466 C 0.55333 0.37146 0.78947 0.0
C467 C 0.55068 0.3854 0.87076 0.0
C468 C 0.57309 0.38065 0.72679 0.0
C469 C 0.59103 0.40413 0.74308 0.0
H470 H 0.53943 0.35368 0.77312 0.0
H471 H 0.57351 0.36989 0.66358 0.0
S472 S 0.59564 0.44524 0.95134 0.0
N473 N 0.56949 0.42202 0.9687 0.0
N474 N 0.60707 0.4395 0.84971 0.0
C475 C 0.5895 0.4177 0.82561 0.0
C476 C 0.56917 0.40829 0.88988 0.0
C477 C 0.10098 0.56195 0.30289 0.0
C478 C 0.08408 0.55415 0.37569 0.0
C479 C 0.09129 0.58167 0.24056 0.0
C480 C 0.06432 0.59441 0.24883 0.0
H481 H 0.12148 0.55188 0.29196 0.0
H482 H 0.10445 0.58575 0.18303 0.0
S483 S 0.01417 0.58534 0.43608 0.0
N484 N 0.04069 0.56325 0.45885 0.0
N485 N 0.02238 0.60077 0.34106 0.0
C486 C 0.04789 0.58819 0.32415 0.0
C487 C 0.05776 0.56788 0.38775 0.0
C488 C 0.92331 0.53992 0.28982 0.0
C489 C 0.89554 0.54751 0.31448 0.0
C490 C 0.9365 0.55295 0.21751 0.0
C491 C 0.92232 0.57398 0.16793 0.0
H492 H 0.93463 0.52328 0.3253 0.0
H493 H 0.95801 0.54659 0.2002 0.0
S494 S 0.84992 0.60245 0.2091 0.0
N495 N 0.85448 0.57786 0.28654 0.0
N496 N 0.87953 0.60263 0.14965 0.0
C497 C 0.89463 0.58201 0.19223 0.0
C498 C 0.88114 0.56868 0.2661 0.0
C499 C 0.9095 0.93752 0.73383 0.0
C500 C 0.89588 0.92146 0.66784 0.0
C501 C 0.92227 0.92428 0.80624 0.0
C502 C 0.92206 0.89447 0.81459 0.0
H503 H 0.9105 0.96059 0.72881 0.0
H504 H 0.93322 0.93745 0.8544 0.0
S505 S 0.88833 0.8428 0.6609 0.0
N506 N 0.88231 0.87437 0.61535 0.0
N507 N 0.90659 0.84908 0.75239 0.0
C508 C 0.9085 0.87804 0.74901 0.0
C509 C 0.89542 0.89164 0.67498 0.0
C510 C 0.54508 0.88512 0.25796 0.0
C511 C 0.54822 0.89397 0.16952 0.0
C512 C 0.55968 0.89882 0.32635 0.0
C513 C 0.57804 0.92196 0.30918 0.0
H514 H 0.53054 0.86792 0.27514 0.0
H515 H 0.5557 0.89179 0.39344 0.0
S516 S 0.59566 0.95193 0.08774 0.0
N517 N 0.57245 0.92613 0.06753 0.0
N518 N 0.60027 0.95183 0.19579 0.0
C519 C 0.58262 0.93008 0.22032 0.0
C520 C 0.56763 0.91609 0.15056 0.0
C521 C 0.56386 0.53016 0.74813 0.0
C522 C 0.57419 0.5457 0.6752 0.0
C523 C 0.55011 0.54376 0.81785 0.0
C524 C 0.5461 0.57345 0.81729 0.0
H525 H 0.56583 0.5071 0.75048 0.0
H526 H 0.54164 0.53071 0.871 0.0
S527 S 0.57144 0.62426 0.6456 0.0
N528 N 0.58087 0.59252 0.6082 0.0
N529 N 0.55519 0.61838 0.74079 0.0
C530 C 0.55692 0.58945 0.7458 0.0
C531 C 0.57084 0.57549 0.67412 0.0
C532 C 0.04838 0.40995 0.66383 0.0
C533 C 0.07602 0.42095 0.67534 0.0
C534 C 0.03427 0.39611 0.73293 0.0
C535 C 0.04721 0.39272 0.81639 0.0
H536 H 0.03694 0.41327 0.60241 0.0
H537 H 0.01251 0.38905 0.72148 0.0
S538 S 0.12122 0.41374 0.87577 0.0
N539 N 0.11729 0.42471 0.77268 0.0
N540 N 0.09048 0.39878 0.9036 0.0
C541 C 0.07548 0.40221 0.82741 0.0
C542 C 0.08997 0.41627 0.75657 0.0
C543 C 0.03954 0.07921 0.2571 0.0
C544 C 0.04746 0.07535 0.16815 0.0
C545 C 0.05377 0.0651 0.32567 0.0
C546 C 0.07659 0.04661 0.30822 0.0
H547 H 0.02137 0.09233 0.27418 0.0
H548 H 0.04593 0.06778 0.39235 0.0
S549 S 0.10826 0.03188 0.08828 0.0
N550 N 0.08135 0.05358 0.06728 0.0
N551 N 0.10846 0.02737 0.19637 0.0
C552 C 0.08594 0.04389 0.2202 0.0
C553 C 0.07129 0.05816 0.15014 0.0
C554 C 0.38652 0.06894 0.70736 0.0
C555 C 0.39879 0.04461 0.66893 0.0
C556 C 0.3994 0.08202 0.78094 0.0
C557 C 0.42433 0.07055 0.81872 0.0
H558 H 0.36699 0.07781 0.68051 0.0
H559 H 0.38994 0.10114 0.80819 0.0
S560 S 0.46384 0.00678 0.74349 0.0
N561 N 0.43681 0.00959 0.6738 0.0
N562 N 0.4604 0.03351 0.81351 0.0
C563 C 0.43631 0.046 0.78161 0.0
C564 C 0.42365 0.03316 0.70618 0.0
C565 C 0.40604 0.38302 0.22357 0.0
C566 C 0.4232 0.39912 0.16538 0.0
C567 C 0.39321 0.39591 0.29696 0.0
C568 C 0.39771 0.42501 0.31411 0.0
H569 H 0.40256 0.36044 0.21214 0.0
H570 H 0.37949 0.38326 0.3395 0.0
S571 S 0.44413 0.47504 0.18927 0.0
N572 N 0.44588 0.44476 0.13406 0.0
N573 N 0.42242 0.46877 0.27298 0.0
C574 C 0.41563 0.44092 0.25828 0.0
C575 C 0.42821 0.42802 0.18333 0.0
loop_
_geom_bond_atom_site_label_1
_geom_bond_atom_site_label_2
_geom_bond_distance
_geom_bond_site_symmetry_2
_ccdc_geom_bond_type
Mg0 O1 2.028 . S
Mg0 O7 1.986 . S
Mg0 O9 2.114 1_554 S
Mg0 O10 2.251 1_554 S
Mg0 O13 2.010 1_455 S
O1 Mg0 2.028 . S
O1 C4 1.250 . S
O2 Mg3 2.028 . S
O2 C4 1.248 . S
Mg3 O2 2.028 . S
Mg3 O8 2.032 . S
Mg3 O10 2.079 1_554 S
C4 O1 1.250 . S
C4 O2 1.248 . S
C5 O6 1.264 . S
C5 O13 1.249 . S
O6 C5 1.264 . S
O7 Mg0 1.986 . S
O7 C11 1.246 . S
O8 Mg3 2.032 . S
O8 C11 1.259 . S
O9 Mg0 2.114 1_556 S
O9 C12 1.252 . S
O10 Mg0 2.251 1_556 S
O10 Mg3 2.079 1_556 S
O10 C12 1.273 . S
C11 O7 1.246 . S
C11 O8 1.259 . S
C12 O9 1.252 . S
C12 O10 1.273 . S
O13 Mg0 2.010 1_655 S
O13 C5 1.249 . S
Mg14 O15 2.028 . S
Mg14 O21 1.986 . S
Mg14 O23 2.114 . S
Mg14 O24 2.251 . S
Mg14 O27 2.010 1_545 S
O15 Mg14 2.028 . S
O15 C18 1.250 . S
O16 Mg17 2.028 . S
O16 C18 1.248 . S
Mg17 O16 2.028 . S
Mg17 O22 2.032 . S
Mg17 O24 2.079 . S
C18 O15 1.250 . S
C18 O16 1.248 . S
C19 O20 1.264 . S
C19 O27 1.249 . S
O20 C19 1.264 . S
O21 Mg14 1.986 . S
O21 C25 1.246 . S
O22 Mg17 2.032 . S
O22 C25 1.259 . S
O23 Mg14 2.114 . S
O23 C26 1.252 . S
O24 Mg14 2.251 . S
O24 Mg17 2.079 . S
O24 C26 1.273 . S
C25 O21 1.246 . S
C25 O22 1.259 . S
C26 O23 1.252 . S
C26 O24 1.273 . S
O27 Mg14 2.010 1_565 S
O27 C19 1.249 . S
Mg28 O29 2.028 . S
Mg28 O35 1.986 . S
Mg28 O37 2.114 1_554 S
Mg28 O38 2.251 1_554 S
Mg28 O41 2.010 . S
O29 Mg28 2.028 . S
O29 C32 1.250 . S
O30 Mg31 2.028 . S
O30 C32 1.248 . S
Mg31 O30 2.028 . S
Mg31 O36 2.032 . S
Mg31 O38 2.079 1_554 S
C32 O29 1.250 . S
C32 O30 1.248 . S
C33 O34 1.264 . S
C33 O41 1.249 . S
O34 C33 1.264 . S
O35 Mg28 1.986 . S
O35 C39 1.246 . S
O36 Mg31 2.032 . S
O36 C39 1.259 . S
O37 Mg28 2.114 1_556 S
O37 C40 1.252 . S
O38 Mg28 2.251 1_556 S
O38 Mg31 2.079 1_556 S
O38 C40 1.273 . S
C39 O35 1.246 . S
C39 O36 1.259 . S
C40 O37 1.252 . S
C40 O38 1.273 . S
O41 Mg28 2.010 . S
O41 C33 1.249 . S
Mg42 O43 2.028 . S
Mg42 O49 1.986 . S
Mg42 O51 2.114 . S
Mg42 O52 2.251 . S
Mg42 O55 2.010 . S
O43 Mg42 2.028 . S
O43 C46 1.250 . S
O44 Mg45 2.028 . S
O44 C46 1.248 . S
Mg45 O44 2.028 . S
Mg45 O50 2.032 . S
Mg45 O52 2.079 . S
C46 O43 1.250 . S
C46 O44 1.248 . S
C47 O48 1.264 . S
C47 O55 1.249 . S
O48 C47 1.264 . S
O49 Mg42 1.986 . S
O49 C53 1.246 . S
O50 Mg45 2.032 . S
O50 C53 1.259 . S
O51 Mg42 2.114 . S
O51 C54 1.252 . S
O52 Mg42 2.251 . S
O52 Mg45 2.079 . S
O52 C54 1.273 . S
C53 O49 1.246 . S
C53 O50 1.259 . S
C54 O51 1.252 . S
C54 O52 1.273 . S
O55 Mg42 2.010 . S
O55 C47 1.249 . S
Mg56 O57 2.028 . S
Mg56 O63 1.986 . S
Mg56 O65 2.114 1_556 S
Mg56 O66 2.251 1_556 S
Mg56 O69 2.010 1_455 S
O57 Mg56 2.028 . S
O57 C60 1.250 . S
O58 Mg59 2.028 . S
O58 C60 1.248 . S
Mg59 O58 2.028 . S
Mg59 O64 2.032 . S
Mg59 O66 2.079 1_556 S
C60 O57 1.250 . S
C60 O58 1.248 . S
C61 O62 1.264 . S
C61 O69 1.249 . S
O62 C61 1.264 . S
O63 Mg56 1.986 . S
O63 C67 1.246 . S
O64 Mg59 2.032 . S
O64 C67 1.259 . S
O65 Mg56 2.114 1_554 S
O65 C68 1.252 . S
O66 Mg56 2.251 1_554 S
O66 Mg59 2.079 1_554 S
O66 C68 1.273 . S
C67 O63 1.246 . S
C67 O64 1.259 . S
C68 O65 1.252 . S
C68 O66 1.273 . S
O69 Mg56 2.010 1_655 S
O69 C61 1.249 . S
Mg70 O71 2.028 . S
Mg70 O77 1.986 . S
Mg70 O79 2.114 . S
Mg70 O80 2.251 . S
Mg70 O83 2.010 1_545 S
O71 Mg70 2.028 . S
O71 C74 1.250 . S
O72 Mg73 2.028 . S
O72 C74 1.248 . S
Mg73 O72 2.028 . S
Mg73 O78 2.032 . S
Mg73 O80 2.079 . S
C74 O71 1.250 . S
C74 O72 1.248 . S
C75 O76 1.264 . S
C75 O83 1.249 . S
O76 C75 1.264 . S
O77 Mg70 1.986 . S
O77 C81 1.246 . S
O78 Mg73 2.032 . S
O78 C81 1.259 . S
O79 Mg70 2.114 . S
O79 C82 1.252 . S
O80 Mg70 2.251 . S
O80 Mg73 2.079 . S
O80 C82 1.273 . S
C81 O77 1.246 . S
C81 O78 1.259 . S
C82 O79 1.252 . S
C82 O80 1.273 . S
O83 Mg70 2.010 1_565 S
O83 C75 1.249 . S
Mg84 O85 2.028 . S
Mg84 O91 1.986 . S
Mg84 O93 2.114 1_556 S
Mg84 O94 2.251 1_556 S
Mg84 O97 2.010 . S
O85 Mg84 2.028 . S
O85 C88 1.250 . S
O86 Mg87 2.028 . S
O86 C88 1.248 . S
Mg87 O86 2.028 . S
Mg87 O92 2.032 . S
Mg87 O94 2.079 1_556 S
C88 O85 1.250 . S
C88 O86 1.248 . S
C89 O90 1.264 . S
C89 O97 1.249 . S
O90 C89 1.264 . S
O91 Mg84 1.986 . S
O91 C95 1.246 . S
O92 Mg87 2.032 . S
O92 C95 1.259 . S
O93 Mg84 2.114 1_554 S
O93 C96 1.252 . S
O94 Mg84 2.251 1_554 S
O94 Mg87 2.079 1_554 S
O94 C96 1.273 . S
C95 O91 1.246 . S
C95 O92 1.259 . S
C96 O93 1.252 . S
C96 O94 1.273 . S
O97 Mg84 2.010 . S
O97 C89 1.249 . S
Mg98 O99 2.028 . S
Mg98 O105 1.986 . S
Mg98 O107 2.114 . S
Mg98 O108 2.251 . S
Mg98 O111 2.010 . S
O99 Mg98 2.028 . S
O99 C102 1.250 . S
O100 Mg101 2.028 . S
O100 C102 1.248 . S
Mg101 O100 2.028 . S
Mg101 O106 2.032 . S
Mg101 O108 2.079 . S
C102 O99 1.250 . S
C102 O100 1.248 . S
C103 O104 1.264 . S
C103 O111 1.249 . S
O104 C103 1.264 . S
O105 Mg98 1.986 . S
O105 C109 1.246 . S
O106 Mg101 2.032 . S
O106 C109 1.259 . S
O107 Mg98 2.114 . S
O107 C110 1.252 . S
O108 Mg98 2.251 . S
O108 Mg101 2.079 . S
O108 C110 1.273 . S
C109 O105 1.246 . S
C109 O106 1.259 . S
C110 O107 1.252 . S
C110 O108 1.273 . S
O111 Mg98 2.010 . S
O111 C103 1.249 . S
Mg112 O113 2.028 . S
Mg112 O119 1.986 . S
Mg112 O121 2.114 1_556 S
Mg112 O122 2.251 1_556 S
Mg112 O125 2.010 1_655 S
O113 Mg112 2.028 . S
O113 C116 1.250 . S
O114 Mg115 2.028 . S
O114 C116 1.248 . S
Mg115 O114 2.028 . S
Mg115 O120 2.032 . S
Mg115 O122 2.079 1_556 S
C116 O113 1.250 . S
C116 O114 1.248 . S
C117 O118 1.264 . S
C117 O125 1.249 . S
O118 C117 1.264 . S
O119 Mg112 1.986 . S
O119 C123 1.246 . S
O120 Mg115 2.032 . S
O120 C123 1.259 . S
O121 Mg112 2.114 1_554 S
O121 C124 1.252 . S
O122 Mg112 2.251 1_554 S
O122 Mg115 2.079 1_554 S
O122 C124 1.273 . S
C123 O119 1.246 . S
C123 O120 1.259 . S
C124 O121 1.252 . S
C124 O122 1.273 . S
O125 Mg112 2.010 1_455 S
O125 C117 1.249 . S
Mg126 O127 2.028 . S
Mg126 O133 1.986 . S
Mg126 O135 2.114 . S
Mg126 O136 2.251 . S
Mg126 O139 2.010 1_565 S
O127 Mg126 2.028 . S
O127 C130 1.250 . S
O128 Mg129 2.028 . S
O128 C130 1.248 . S
Mg129 O128 2.028 . S
Mg129 O134 2.032 . S
Mg129 O136 2.079 . S
C130 O127 1.250 . S
C130 O128 1.248 . S
C131 O132 1.264 . S
C131 O139 1.249 . S
O132 C131 1.264 . S
O133 Mg126 1.986 . S
O133 C137 1.246 . S
O134 Mg129 2.032 . S
O134 C137 1.259 . S
O135 Mg126 2.114 . S
O135 C138 1.252 . S
O136 Mg126 2.251 . S
O136 Mg129 2.079 . S
O136 C138 1.273 . S
C137 O133 1.246 . S
C137 O134 1.259 . S
C138 O135 1.252 . S
C138 O136 1.273 . S
O139 Mg126 2.010 1_545 S
O139 C131 1.249 . S
Mg140 O141 2.028 . S
Mg140 O147 1.986 . S
Mg140 O149 2.114 1_556 S
Mg140 O150 2.251 1_556 S
Mg140 O153 2.010 . S
O141 Mg140 2.028 . S
O141 C144 1.250 . S
O142 Mg143 2.028 . S
O142 C144 1.248 . S
Mg143 O142 2.028 . S
Mg143 O148 2.032 . S
Mg143 O150 2.079 1_556 S
C144 O141 1.250 . S
C144 O142 1.248 . S
C145 O146 1.264 . S
C145 O153 1.249 . S
O146 C145 1.264 . S
O147 Mg140 1.986 . S
O147 C151 1.246 . S
O148 Mg143 2.032 . S
O148 C151 1.259 . S
O149 Mg140 2.114 1_554 S
O149 C152 1.252 . S
O150 Mg140 2.251 1_554 S
O150 Mg143 2.079 1_554 S
O150 C152 1.273 . S
C151 O147 1.246 . S
C151 O148 1.259 . S
C152 O149 1.252 . S
C152 O150 1.273 . S
O153 Mg140 2.010 . S
O153 C145 1.249 . S
Mg154 O155 2.028 . S
Mg154 O161 1.986 . S
Mg154 O163 2.114 . S
Mg154 O164 2.251 . S
Mg154 O167 2.010 . S
O155 Mg154 2.028 . S
O155 C158 1.250 . S
O156 Mg157 2.028 . S
O156 C158 1.248 . S
Mg157 O156 2.028 . S
Mg157 O162 2.032 . S
Mg157 O164 2.079 . S
C158 O155 1.250 . S
C158 O156 1.248 . S
C159 O160 1.264 . S
C159 O167 1.249 . S
O160 C159 1.264 . S
O161 Mg154 1.986 . S
O161 C165 1.246 . S
O162 Mg157 2.032 . S
O162 C165 1.259 . S
O163 Mg154 2.114 . S
O163 C166 1.252 . S
O164 Mg154 2.251 . S
O164 Mg157 2.079 . S
O164 C166 1.273 . S
C165 O161 1.246 . S
C165 O162 1.259 . S
C166 O163 1.252 . S
C166 O164 1.273 . S
O167 Mg154 2.010 . S
O167 C159 1.249 . S
Mg168 O169 2.028 . S
Mg168 O175 1.986 . S
Mg168 O177 2.114 1_554 S
Mg168 O178 2.251 1_554 S
Mg168 O181 2.010 1_655 S
O169 Mg168 2.028 . S
O169 C172 1.250 . S
O170 Mg171 2.028 . S
O170 C172 1.248 . S
Mg171 O170 2.028 . S
Mg171 O176 2.032 . S
Mg171 O178 2.079 1_554 S
C172 O169 1.250 . S
C172 O170 1.248 . S
C173 O174 1.264 . S
C173 O181 1.249 . S
O174 C173 1.264 . S
O175 Mg168 1.986 . S
O175 C179 1.246 . S
O176 Mg171 2.032 . S
O176 C179 1.259 . S
O177 Mg168 2.114 1_556 S
O177 C180 1.252 . S
O178 Mg168 2.251 1_556 S
O178 Mg171 2.079 1_556 S
O178 C180 1.273 . S
C179 O175 1.246 . S
C179 O176 1.259 . S
C180 O177 1.252 . S
C180 O178 1.273 . S
O181 Mg168 2.010 1_455 S
O181 C173 1.249 . S
Mg182 O183 2.028 . S
Mg182 O189 1.986 . S
Mg182 O191 2.114 . S
Mg182 O192 2.251 . S
Mg182 O195 2.010 1_565 S
O183 Mg182 2.028 . S
O183 C186 1.250 . S
O184 Mg185 2.028 . S
O184 C186 1.248 . S
Mg185 O184 2.028 . S
Mg185 O190 2.032 . S
Mg185 O192 2.079 . S
C186 O183 1.250 . S
C186 O184 1.248 . S
C187 O188 1.264 . S
C187 O195 1.249 . S
O188 C187 1.264 . S
O189 Mg182 1.986 . S
O189 C193 1.246 . S
O190 Mg185 2.032 . S
O190 C193 1.259 . S
O191 Mg182 2.114 . S
O191 C194 1.252 . S
O192 Mg182 2.251 . S
O192 Mg185 2.079 . S
O192 C194 1.273 . S
C193 O189 1.246 . S
C193 O190 1.259 . S
C194 O191 1.252 . S
C194 O192 1.273 . S
O195 Mg182 2.010 1_545 S
O195 C187 1.249 . S
Mg196 O197 2.028 . S
Mg196 O203 1.986 . S
Mg196 O205 2.114 1_554 S
Mg196 O206 2.251 1_554 S
Mg196 O209 2.010 . S
O197 Mg196 2.028 . S
O197 C200 1.250 . S
O198 Mg199 2.028 . S
O198 C200 1.248 . S
Mg199 O198 2.028 . S
Mg199 O204 2.032 . S
Mg199 O206 2.079 1_554 S
C200 O197 1.250 . S
C200 O198 1.248 . S
C201 O202 1.264 . S
C201 O209 1.249 . S
O202 C201 1.264 . S
O203 Mg196 1.986 . S
O203 C207 1.246 . S
O204 Mg199 2.032 . S
O204 C207 1.259 . S
O205 Mg196 2.114 1_556 S
O205 C208 1.252 . S
O206 Mg196 2.251 1_556 S
O206 Mg199 2.079 1_556 S
O206 C208 1.273 . S
C207 O203 1.246 . S
C207 O204 1.259 . S
C208 O205 1.252 . S
C208 O206 1.273 . S
O209 Mg196 2.010 . S
O209 C201 1.249 . S
Mg210 O211 2.028 . S
Mg210 O217 1.986 . S
Mg210 O219 2.114 . S
Mg210 O220 2.251 . S
Mg210 O223 2.010 . S
O211 Mg210 2.028 . S
O211 C214 1.250 . S
O212 Mg213 2.028 . S
O212 C214 1.248 . S
Mg213 O212 2.028 . S
Mg213 O218 2.032 . S
Mg213 O220 2.079 . S
C214 O211 1.250 . S
C214 O212 1.248 . S
C215 O216 1.264 . S
C215 O223 1.249 . S
O216 C215 1.264 . S
O217 Mg210 1.986 . S
O217 C221 1.246 . S
O218 Mg213 2.032 . S
O218 C221 1.259 . S
O219 Mg210 2.114 . S
O219 C222 1.252 . S
O220 Mg210 2.251 . S
O220 Mg213 2.079 . S
O220 C222 1.273 . S
C221 O217 1.246 . S
C221 O218 1.259 . S
C222 O219 1.252 . S
C222 O220 1.273 . S
O223 Mg210 2.010 . S
O223 C215 1.249 . S
C224 C225 1.369 . S
C224 C226 1.419 . S
C224 H228 0.930 . S
C225 C224 1.369 . S
C225 C234 1.430 1_454 S
C226 C224 1.419 . S
C226 C227 1.363 1_554 S
C226 H229 0.929 . S
C227 C226 1.363 1_556 S
C227 C233 1.429 1_455 S
H228 C224 0.930 . S
H229 C226 0.929 . S
S230 N231 1.613 . S
S230 N232 1.610 . S
N231 S230 1.613 . S
N231 C234 1.349 . S
N232 S230 1.610 . S
N232 C233 1.350 . S
C233 C227 1.429 1_655 S
C233 N232 1.350 . S
C233 C234 1.434 . S
C234 C225 1.430 1_656 S
C234 N231 1.349 . S
C234 C233 1.434 . S
C235 C236 1.369 . S
C235 C237 1.419 . S
C235 H239 0.930 1_545 S
C236 C235 1.369 . S
C236 C245 1.429 . S
C237 C235 1.419 . S
C237 C238 1.363 . S
C237 H240 0.929 1_545 S
C238 C237 1.363 . S
C238 C244 1.428 . S
H239 C235 0.930 1_565 S
H240 C237 0.929 1_565 S
S241 N242 1.613 . S
S241 N243 1.610 . S
N242 S241 1.613 . S
N242 C245 1.350 . S
N243 S241 1.610 . S
N243 C244 1.351 . S
C244 C238 1.428 . S
C244 N243 1.351 . S
C244 C245 1.434 . S
C245 C236 1.429 . S
C245 N242 1.350 . S
C245 C244 1.434 . S
C246 C247 1.369 1_556 S
C246 C248 1.419 . S
C246 H250 0.930 . S
C247 C246 1.369 1_554 S
C247 C256 1.429 . S
C248 C246 1.419 . S
C248 C249 1.363 . S
C248 H251 0.929 . S
C249 C248 1.363 . S
C249 C255 1.428 1_556 S
H250 C246 0.930 . S
H251 C248 0.929 . S
S252 N253 1.613 . S
S252 N254 1.610 . S
N253 S252 1.613 . S
N253 C256 1.350 . S
N254 S252 1.610 . S
N254 C255 1.351 . S
C255 C249 1.428 1_554 S
C255 N254 1.351 . S
C255 C256 1.434 . S
C256 C247 1.429 . S
C256 N253 1.350 . S
C256 C255 1.434 . S
C257 C258 1.369 . S
C257 C259 1.419 . S
C257 H261 0.930 . S
C258 C257 1.369 . S
C258 C267 1.429 . S
C259 C257 1.419 . S
C259 C260 1.363 . S
C259 H262 0.929 . S
C260 C259 1.363 . S
C260 C266 1.428 . S
H261 C257 0.930 . S
H262 C259 0.929 . S
S263 N264 1.613 . S
S263 N265 1.610 . S
N264 S263 1.613 . S
N264 C267 1.350 . S
N265 S263 1.610 . S
N265 C266 1.351 . S
C266 C260 1.428 . S
C266 N265 1.351 . S
C266 C267 1.434 . S
C267 C258 1.429 . S
C267 N264 1.350 . S
C267 C266 1.434 . S
C268 C269 1.369 1_554 S
C268 C270 1.419 . S
C268 H272 0.930 . S
C269 C268 1.369 1_556 S
C269 C278 1.429 . S
C270 C268 1.419 . S
C270 C271 1.363 . S
C270 H273 0.929 . S
C271 C270 1.363 . S
C271 C277 1.428 1_554 S
H272 C268 0.930 . S
H273 C270 0.929 . S
S274 N275 1.613 . S
S274 N276 1.610 . S
N275 S274 1.613 . S
N275 C278 1.350 . S
N276 S274 1.610 . S
N276 C277 1.351 . S
C277 C271 1.428 1_556 S
C277 N276 1.351 . S
C277 C278 1.434 . S
C278 C269 1.429 . S
C278 N275 1.350 . S
C278 C277 1.434 . S
C279 C280 1.369 . S
C279 C281 1.419 . S
C279 H283 0.930 . S
C280 C279 1.369 . S
C280 C289 1.429 . S
C281 C279 1.419 . S
C281 C282 1.363 . S
C281 H284 0.929 . S
C282 C281 1.363 . S
C282 C288 1.428 . S
H283 C279 0.930 . S
H284 C281 0.929 . S
S285 N286 1.613 . S
S285 N287 1.610 . S
N286 S285 1.613 . S
N286 C289 1.350 . S
N287 S285 1.610 . S
N287 C288 1.351 . S
C288 C282 1.428 . S
C288 N287 1.351 . S
C288 C289 1.434 . S
C289 C280 1.429 . S
C289 N286 1.350 . S
C289 C288 1.434 . S
C290 C291 1.369 . S
C290 C292 1.419 . S
C290 H294 0.930 . S
C291 C290 1.369 . S
C291 C300 1.429 1_556 S
C292 C290 1.419 . S
C292 C293 1.363 1_556 S
C292 H295 0.929 . S
C293 C292 1.363 1_554 S
C293 C299 1.428 . S
H294 C290 0.930 . S
H295 C292 0.929 . S
S296 N297 1.613 . S
S296 N298 1.610 . S
N297 S296 1.613 . S
N297 C300 1.350 . S
N298 S296 1.610 . S
N298 C299 1.351 . S
C299 C293 1.428 . S
C299 N298 1.351 . S
C299 C300 1.434 . S
C300 C291 1.429 1_554 S
C300 N297 1.350 . S
C300 C299 1.434 . S
C301 C302 1.369 . S
C301 C303 1.419 . S
C301 H305 0.930 . S
C302 C301 1.369 . S
C302 C311 1.429 . S
C303 C301 1.419 . S
C303 C304 1.363 . S
C303 H306 0.929 . S
C304 C303 1.363 . S
C304 C310 1.428 . S
H305 C301 0.930 . S
H306 C303 0.929 . S
S307 N308 1.613 . S
S307 N309 1.610 . S
N308 S307 1.613 . S
N308 C311 1.350 . S
N309 S307 1.610 . S
N309 C310 1.351 . S
C310 C304 1.428 . S
C310 N309 1.351 . S
C310 C311 1.434 . S
C311 C302 1.429 . S
C311 N308 1.350 . S
C311 C310 1.434 . S
C312 C313 1.369 . S
C312 C314 1.419 . S
C312 H316 0.930 . S
C313 C312 1.369 . S
C313 C322 1.429 . S
C314 C312 1.419 . S
C314 C315 1.363 . S
C314 H317 0.929 . S
C315 C314 1.363 . S
C315 C321 1.428 . S
H316 C312 0.930 . S
H317 C314 0.929 . S
S318 N319 1.613 . S
S318 N320 1.610 . S
N319 S318 1.613 . S
N319 C322 1.350 . S
N320 S318 1.610 . S
N320 C321 1.351 . S
C321 C315 1.428 . S
C321 N320 1.351 . S
C321 C322 1.434 . S
C322 C313 1.429 . S
C322 N319 1.350 . S
C322 C321 1.434 . S
C323 C324 1.369 . S
C323 C325 1.419 . S
C323 H327 0.930 . S
C324 C323 1.369 . S
C324 C333 1.429 . S
C325 C323 1.419 . S
C325 C326 1.363 . S
C325 H328 0.929 . S
C326 C325 1.363 . S
C326 C332 1.428 . S
H327 C323 0.930 . S
H328 C325 0.929 . S
S329 N330 1.613 . S
S329 N331 1.610 . S
N330 S329 1.613 . S
N330 C333 1.350 . S
N331 S329 1.610 . S
N331 C332 1.351 . S
C332 C326 1.428 . S
C332 N331 1.351 . S
C332 C333 1.434 . S
C333 C324 1.429 . S
C333 N330 1.350 . S
C333 C332 1.434 . S
C334 C335 1.369 . S
C334 C336 1.419 . S
C334 H338 0.930 . S
C335 C334 1.369 . S
C335 C344 1.429 . S
C336 C334 1.419 . S
C336 C337 1.363 . S
C336 H339 0.929 . S
C337 C336 1.363 . S
C337 C343 1.428 . S
H338 C334 0.930 . S
H339 C336 0.929 . S
S340 N341 1.613 . S
S340 N342 1.610 . S
N341 S340 1.613 . S
N341 C344 1.350 . S
N342 S340 1.610 . S
N342 C343 1.351 . S
C343 C337 1.428 . S
C343 N342 1.351 . S
C343 C344 1.434 . S
C344 C335 1.429 . S
C344 N341 1.350 . S
C344 C343 1.434 . S
C345 C346 1.369 . S
C345 C347 1.419 . S
C345 H349 0.930 . S
C346 C345 1.369 . S
C346 C355 1.429 . S
C347 C345 1.419 . S
C347 C348 1.363 . S
C347 H350 0.929 . S
C348 C347 1.363 . S
C348 C354 1.428 . S
H349 C345 0.930 . S
H350 C347 0.929 . S
S351 N352 1.613 . S
S351 N353 1.610 . S
N352 S351 1.613 . S
N352 C355 1.350 . S
N353 S351 1.610 . S
N353 C354 1.351 . S
C354 C348 1.428 . S
C354 N353 1.351 . S
C354 C355 1.434 . S
C355 C346 1.429 . S
C355 N352 1.350 . S
C355 C354 1.434 . S
C356 C357 1.369 . S
C356 C358 1.419 . S
C356 H360 0.930 . S
C357 C356 1.369 . S
C357 C366 1.429 . S
C358 C356 1.419 . S
C358 C359 1.363 . S
C358 H361 0.929 . S
C359 C358 1.363 . S
C359 C365 1.428 . S
H360 C356 0.930 . S
H361 C358 0.929 . S
S362 N363 1.613 . S
S362 N364 1.610 . S
N363 S362 1.613 . S
N363 C366 1.350 . S
N364 S362 1.610 . S
N364 C365 1.351 . S
C365 C359 1.428 . S
C365 N364 1.351 . S
C365 C366 1.434 . S
C366 C357 1.429 . S
C366 N363 1.350 . S
C366 C365 1.434 . S
C367 C368 1.369 . S
C367 C369 1.419 . S
C367 H371 0.930 . S
C368 C367 1.369 . S
C368 C377 1.429 . S
C369 C367 1.419 . S
C369 C370 1.363 . S
C369 H372 0.929 . S
C370 C369 1.363 . S
C370 C376 1.428 . S
H371 C367 0.930 . S
H372 C369 0.929 . S
S373 N374 1.613 . S
S373 N375 1.610 . S
N374 S373 1.613 . S
N374 C377 1.350 . S
N375 S373 1.610 . S
N375 C376 1.351 . S
C376 C370 1.428 . S
C376 N375 1.351 . S
C376 C377 1.434 . S
C377 C368 1.429 . S
C377 N374 1.350 . S
C377 C376 1.434 . S
C378 C379 1.369 . S
C378 C380 1.419 . S
C378 H382 0.930 . S
C379 C378 1.369 . S
C379 C388 1.429 . S
C380 C378 1.419 . S
C380 C381 1.363 . S
C380 H383 0.929 . S
C381 C380 1.363 . S
C381 C387 1.428 . S
H382 C378 0.930 . S
H383 C380 0.929 . S
S384 N385 1.613 . S
S384 N386 1.610 . S
N385 S384 1.613 . S
N385 C388 1.350 . S
N386 S384 1.610 . S
N386 C387 1.351 . S
C387 C381 1.428 . S
C387 N386 1.351 . S
C387 C388 1.434 . S
C388 C379 1.429 . S
C388 N385 1.350 . S
C388 C387 1.434 . S
C389 C390 1.369 . S
C389 C391 1.419 . S
C389 H393 0.930 . S
C390 C389 1.369 . S
C390 C399 1.429 . S
C391 C389 1.419 . S
C391 C392 1.363 . S
C391 H394 0.929 . S
C392 C391 1.363 . S
C392 C398 1.428 . S
H393 C389 0.930 . S
H394 C391 0.929 . S
S395 N396 1.613 . S
S395 N397 1.610 . S
N396 S395 1.613 . S
N396 C399 1.350 . S
N397 S395 1.610 . S
N397 C398 1.351 . S
C398 C392 1.428 . S
C398 N397 1.351 . S
C398 C399 1.434 . S
C399 C390 1.429 . S
C399 N396 1.350 . S
C399 C398 1.434 . S
C400 C401 1.369 . S
C400 C402 1.419 . S
C400 H404 0.930 . S
C401 C400 1.369 . S
C401 C410 1.429 . S
C402 C400 1.419 . S
C402 C403 1.363 . S
C402 H405 0.929 . S
C403 C402 1.363 . S
C403 C409 1.428 . S
H404 C400 0.930 . S
H405 C402 0.929 . S
S406 N407 1.613 . S
S406 N408 1.610 . S
N407 S406 1.613 . S
N407 C410 1.350 . S
N408 S406 1.610 . S
N408 C409 1.351 . S
C409 C403 1.428 . S
C409 N408 1.351 . S
C409 C410 1.434 . S
C410 C401 1.429 . S
C410 N407 1.350 . S
C410 C409 1.434 . S
C411 C412 1.369 . S
C411 C413 1.419 . S
C411 H415 0.930 . S
C412 C411 1.369 . S
C412 C421 1.429 . S
C413 C411 1.419 . S
C413 C414 1.363 . S
C413 H416 0.929 . S
C414 C413 1.363 . S
C414 C420 1.428 . S
H415 C411 0.930 . S
H416 C413 0.929 . S
S417 N418 1.613 . S
S417 N419 1.610 . S
N418 S417 1.613 . S
N418 C421 1.350 . S
N419 S417 1.610 . S
N419 C420 1.351 . S
C420 C414 1.428 . S
C420 N419 1.351 . S
C420 C421 1.434 . S
C421 C412 1.429 . S
C421 N418 1.350 . S
C421 C420 1.434 . S
C422 C423 1.369 . S
C422 C424 1.419 . S
C422 H426 0.930 . S
C423 C422 1.369 . S
C423 C432 1.429 . S
C424 C422 1.419 . S
C424 C425 1.363 . S
C424 H427 0.929 . S
C425 C424 1.363 . S
C425 C431 1.428 . S
H426 C422 0.930 . S
H427 C424 0.929 . S
S428 N429 1.613 . S
S428 N430 1.610 . S
N429 S428 1.613 . S
N429 C432 1.350 . S
N430 S428 1.610 . S
N430 C431 1.351 . S
C431 C425 1.428 . S
C431 N430 1.351 . S
C431 C432 1.434 . S
C432 C423 1.429 . S
C432 N429 1.350 . S
C432 C431 1.434 . S
C433 C434 1.369 . S
C433 C435 1.419 . S
C433 H437 0.930 . S
C434 C433 1.369 . S
C434 C443 1.429 . S
C435 C433 1.419 . S
C435 C436 1.363 . S
C435 H438 0.929 . S
C436 C435 1.363 . S
C436 C442 1.428 . S
H437 C433 0.930 . S
H438 C435 0.929 . S
S439 N440 1.613 . S
S439 N441 1.610 . S
N440 S439 1.613 . S
N440 C443 1.350 . S
N441 S439 1.610 . S
N441 C442 1.351 . S
C442 C436 1.428 . S
C442 N441 1.351 . S
C442 C443 1.434 . S
C443 C434 1.429 . S
C443 N440 1.350 . S
C443 C442 1.434 . S
C444 C445 1.369 . S
C444 C446 1.419 . S
C444 H448 0.930 . S
C445 C444 1.369 . S
C445 C454 1.429 . S
C446 C444 1.419 . S
C446 C447 1.363 . S
C446 H449 0.929 . S
C447 C446 1.363 . S
C447 C453 1.428 . S
H448 C444 0.930 . S
H449 C446 0.929 . S
S450 N451 1.613 . S
S450 N452 1.610 . S
N451 S450 1.613 . S
N451 C454 1.350 . S
N452 S450 1.610 . S
N452 C453 1.351 . S
C453 C447 1.428 . S
C453 N452 1.351 . S
C453 C454 1.434 . S
C454 C445 1.429 . S
C454 N451 1.350 . S
C454 C453 1.434 . S
C455 C456 1.369 . S
C455 C457 1.419 . S
C455 H459 0.930 . S
C456 C455 1.369 . S
C456 C465 1.429 . S
C457 C455 1.419 . S
C457 C458 1.363 . S
C457 H460 0.929 . S
C458 C457 1.363 . S
C458 C464 1.428 . S
H459 C455 0.930 . S
H460 C457 0.929 . S
S461 N462 1.613 . S
S461 N463 1.610 . S
N462 S461 1.613 . S
N462 C465 1.350 . S
N463 S461 1.610 . S
N463 C464 1.351 . S
C464 C458 1.428 . S
C464 N463 1.351 . S
C464 C465 1.434 . S
C465 C456 1.429 . S
C465 N462 1.350 . S
C465 C464 1.434 . S
C466 C467 1.369 . S
C466 C468 1.419 . S
C466 H470 0.930 . S
C467 C466 1.369 . S
C467 C476 1.429 . S
C468 C466 1.419 . S
C468 C469 1.363 . S
C468 H471 0.929 . S
C469 C468 1.363 . S
C469 C475 1.428 . S
H470 C466 0.930 . S
H471 C468 0.929 . S
S472 N473 1.613 . S
S472 N474 1.610 . S
N473 S472 1.613 . S
N473 C476 1.350 . S
N474 S472 1.610 . S
N474 C475 1.351 . S
C475 C469 1.428 . S
C475 N474 1.351 . S
C475 C476 1.434 . S
C476 C467 1.429 . S
C476 N473 1.350 . S
C476 C475 1.434 . S
C477 C478 1.369 . S
C477 C479 1.419 . S
C477 H481 0.930 . S
C478 C477 1.369 . S
C478 C487 1.429 . S
C479 C477 1.419 . S
C479 C480 1.363 . S
C479 H482 0.929 . S
C480 C479 1.363 . S
C480 C486 1.428 . S
H481 C477 0.930 . S
H482 C479 0.929 . S
S483 N484 1.613 . S
S483 N485 1.610 . S
N484 S483 1.613 . S
N484 C487 1.350 . S
N485 S483 1.610 . S
N485 C486 1.351 . S
C486 C480 1.428 . S
C486 N485 1.351 . S
C486 C487 1.434 . S
C487 C478 1.429 . S
C487 N484 1.350 . S
C487 C486 1.434 . S
C488 C489 1.369 . S
C488 C490 1.419 . S
C488 H492 0.930 . S
C489 C488 1.369 . S
C489 C498 1.429 . S
C490 C488 1.419 . S
C490 C491 1.363 . S
C490 H493 0.929 . S
C491 C490 1.363 . S
C491 C497 1.428 . S
H492 C488 0.930 . S
H493 C490 0.929 . S
S494 N495 1.613 . S
S494 N496 1.610 . S
N495 S494 1.613 . S
N495 C498 1.350 . S
N496 S494 1.610 . S
N496 C497 1.351 . S
C497 C491 1.428 . S
C497 N496 1.351 . S
C497 C498 1.434 . S
C498 C489 1.429 . S
C498 N495 1.350 . S
C498 C497 1.434 . S
C499 C500 1.369 . S
C499 C501 1.419 . S
C499 H503 0.930 . S
C500 C499 1.369 . S
C500 C509 1.429 . S
C501 C499 1.419 . S
C501 C502 1.363 . S
C501 H504 0.929 . S
C502 C501 1.363 . S
C502 C508 1.428 . S
H503 C499 0.930 . S
H504 C501 0.929 . S
S505 N506 1.613 . S
S505 N507 1.610 . S
N506 S505 1.613 . S
N506 C509 1.350 . S
N507 S505 1.610 . S
N507 C508 1.351 . S
C508 C502 1.428 . S
C508 N507 1.351 . S
C508 C509 1.434 . S
C509 C500 1.429 . S
C509 N506 1.350 . S
C509 C508 1.434 . S
C510 C511 1.369 . S
C510 C512 1.419 . S
C510 H514 0.930 . S
C511 C510 1.369 . S
C511 C520 1.429 . S
C512 C510 1.419 . S
C512 C513 1.363 . S
C512 H515 0.929 . S
C513 C512 1.363 . S
C513 C519 1.428 . S
H514 C510 0.930 . S
H515 C512 0.929 . S
S516 N517 1.613 . S
S516 N518 1.610 . S
N517 S516 1.613 . S
N517 C520 1.350 . S
N518 S516 1.610 . S
N518 C519 1.351 . S
C519 C513 1.428 . S
C519 N518 1.351 . S
C519 C520 1.434 . S
C520 C511 1.429 . S
C520 N517 1.350 . S
C520 C519 1.434 . S
C521 C522 1.369 . S
C521 C523 1.419 . S
C521 H525 0.930 . S
C522 C521 1.369 . S
C522 C531 1.429 . S
C523 C521 1.419 . S
C523 C524 1.363 . S
C523 H526 0.929 . S
C524 C523 1.363 . S
C524 C530 1.428 . S
H525 C521 0.930 . S
H526 C523 0.929 . S
S527 N528 1.613 . S
S527 N529 1.610 . S
N528 S527 1.613 . S
N528 C531 1.350 . S
N529 S527 1.610 . S
N529 C530 1.351 . S
C530 C524 1.428 . S
C530 N529 1.351 . S
C530 C531 1.434 . S
C531 C522 1.429 . S
C531 N528 1.350 . S
C531 C530 1.434 . S
C532 C533 1.369 . S
C532 C534 1.419 . S
C532 H536 0.930 . S
C533 C532 1.369 . S
C533 C542 1.429 . S
C534 C532 1.419 . S
C534 C535 1.363 . S
C534 H537 0.929 . S
C535 C534 1.363 . S
C535 C541 1.428 . S
H536 C532 0.930 . S
H537 C534 0.929 . S
S538 N539 1.613 . S
S538 N540 1.610 . S
N539 S538 1.613 . S
N539 C542 1.350 . S
N540 S538 1.610 . S
N540 C541 1.351 . S
C541 C535 1.428 . S
C541 N540 1.351 . S
C541 C542 1.434 . S
C542 C533 1.429 . S
C542 N539 1.350 . S
C542 C541 1.434 . S
C543 C544 1.369 . S
C543 C545 1.419 . S
C543 H547 0.930 . S
C544 C543 1.369 . S
C544 C553 1.429 . S
C545 C543 1.419 . S
C545 C546 1.363 . S
C545 H548 0.929 . S
C546 C545 1.363 . S
C546 C552 1.428 . S
H547 C543 0.930 . S
H548 C545 0.929 . S
S549 N550 1.613 . S
S549 N551 1.610 . S
N550 S549 1.613 . S
N550 C553 1.350 . S
N551 S549 1.610 . S
N551 C552 1.351 . S
C552 C546 1.428 . S
C552 N551 1.351 . S
C552 C553 1.434 . S
C553 C544 1.429 . S
C553 N550 1.350 . S
C553 C552 1.434 . S
C554 C555 1.369 . S
C554 C556 1.419 . S
C554 H558 0.930 . S
C555 C554 1.369 . S
C555 C564 1.429 . S
C556 C554 1.419 . S
C556 C557 1.363 . S
C556 H559 0.929 . S
C557 C556 1.363 . S
C557 C563 1.428 . S
H558 C554 0.930 . S
H559 C556 0.929 . S
S560 N561 1.613 . S
S560 N562 1.610 . S
N561 S560 1.613 . S
N561 C564 1.350 . S
N562 S560 1.610 . S
N562 C563 1.351 . S
C563 C557 1.428 . S
C563 N562 1.351 . S
C563 C564 1.434 . S
C564 C555 1.429 . S
C564 N561 1.350 . S
C564 C563 1.434 . S
C565 C566 1.369 . S
C565 C567 1.419 . S
C565 H569 0.930 . S
C566 C565 1.369 . S
C566 C575 1.429 . S
C567 C565 1.419 . S
C567 C568 1.363 . S
C567 H570 0.929 . S
C568 C567 1.363 . S
C568 C574 1.428 . S
H569 C565 0.930 . S
H570 C567 0.929 . S
S571 N572 1.613 . S
S571 N573 1.610 . S
N572 S571 1.613 . S
N572 C575 1.350 . S
N573 S571 1.610 . S
N573 C574 1.351 . S
C574 C568 1.428 . S
C574 N573 1.351 . S
C574 C575 1.434 . S
C575 C566 1.429 . S
C575 N572 1.350 . S
C575 C574 1.434 . S
C225 C11 1.184 . S
C227 C67 1.189 . S
C236 C81 1.187 . S
C238 C25 1.180 . S
C247 C39 1.190 . S
C249 C95 1.184 . S
C258 C53 1.181 . S
C260 C109 1.180 . S
C269 C123 1.186 . S
C271 C179 1.180 . S
C280 C193 1.182 . S
C282 C137 1.188 . S
C291 C151 1.185 . S
C293 C207 1.189 . S
C302 C165 1.181 . S
C304 C221 1.180 . S
C313 C12 1.270 . S
C315 C214 1.259 . S
C324 C172 1.256 . S
C326 C26 1.273 . S
C335 C40 1.271 . S
C337 C186 1.258 . S
C346 C200 1.255 . S
C348 C54 1.273 . S
C357 C130 1.257 . S
C359 C68 1.272 . S
C368 C144 1.253 . S
C370 C82 1.274 . S
C379 C158 1.261 . S
C381 C96 1.270 . S
C390 C116 1.255 . S
C392 C110 1.273 . S
C401 C124 1.274 . S
C403 C102 1.254 . S
C412 C60 1.255 . S
C414 C138 1.274 . S
C423 C74 1.259 . S
C425 C152 1.272 . S
C434 C166 1.272 . S
C436 C88 1.259 . S
C445 C18 1.260 . S
C447 C180 1.271 . S
C456 C194 1.272 . S
C458 C32 1.256 . S
C467 C208 1.271 . S
C469 C46 1.260 . S
C478 C222 1.271 . S
C480 C4 1.259 . S
C489 C103 1.462 . S
C491 C5 1.458 . S
C500 C19 1.458 . S
C502 C61 1.461 . S
C511 C33 1.457 . S
C513 C75 1.465 . S
C522 C47 1.458 . S
C524 C89 1.461 . S
C533 C215 1.462 . S
C535 C117 1.458 . S
C544 C173 1.458 . S
C546 C131 1.466 . S
C555 C187 1.466 . S
C557 C145 1.463 . S
C566 C201 1.465 . S
C568 C159 1.464 . S
