# Generated by pormake.
# Topology sxf, (6)-cn, num edge types: 1
# Building blocks:
#     Node 0, Type 0, BuildingBlock: IZENUY_clean_sbu_0, # of connection points: 6
#     Node 1, Type 0, BuildingBlock: IZENUY_clean_sbu_0, # of connection points: 6
#     Node 2, Type 0, BuildingBlock: IZENUY_clean_sbu_0, # of connection points: 6
#     Node 3, Type 0, BuildingBlock: IZENUY_clean_sbu_0, # of connection points: 6
#     Node 4, Type 0, BuildingBlock: IZENUY_clean_sbu_0, # of connection points: 6
#     Node 5, Type 0, BuildingBlock: IZENUY_clean_sbu_0, # of connection points: 6
#     Node 6, Type 0, BuildingBlock: IZENUY_clean_sbu_0, # of connection points: 6
#     Node 7, Type 0, BuildingBlock: IZENUY_clean_sbu_0, # of connection points: 6
#     Node 8, Type 0, BuildingBlock: IZENUY_clean_sbu_0, # of connection points: 6
#     Node 9, Type 0, BuildingBlock: IZENUY_clean_sbu_0, # of connection points: 6
#     Node 10, Type 0, BuildingBlock: IZENUY_clean_sbu_0, # of connection points: 6
#     Node 11, Type 0, BuildingBlock: IZENUY_clean_sbu_0, # of connection points: 6
#     Node 12, Type 0, BuildingBlock: IZENUY_clean_sbu_0, # of connection points: 6
#     Node 13, Type 0, BuildingBlock: IZENUY_clean_sbu_0, # of connection points: 6
#     Node 14, Type 0, BuildingBlock: IZENUY_clean_sbu_0, # of connection points: 6
#     Node 15, Type 0, BuildingBlock: IZENUY_clean_sbu_0, # of connection points: 6
#     Node 16, Type 0, BuildingBlock: IZENUY_clean_sbu_0, # of connection points: 6
#     Node 17, Type 0, BuildingBlock: IZENUY_clean_sbu_0, # of connection points: 6
#     Node 18, Type 0, BuildingBlock: IZENUY_clean_sbu_0, # of connection points: 6
#     Node 19, Type 0, BuildingBlock: IZENUY_clean_sbu_0, # of connection points: 6
#     Node 20, Type 0, BuildingBlock: IZENUY_clean_sbu_0, # of connection points: 6
#     Node 21, Type 0, BuildingBlock: IZENUY_clean_sbu_0, # of connection points: 6
#     Node 22, Type 0, BuildingBlock: IZENUY_clean_sbu_0, # of connection points: 6
#     Node 23, Type 0, BuildingBlock: IZENUY_clean_sbu_0, # of connection points: 6
#     Edge 24, Type (0, 0), BuildingBlock: OJICUG_clean_linker_0, # of connection points: 2
#     Edge 25, Type (0, 0), BuildingBlock: OJICUG_clean_linker_0, # of connection points: 2
#     Edge 26, Type (0, 0), BuildingBlock: OJICUG_clean_linker_0, # of connection points: 2
#     Edge 27, Type (0, 0), BuildingBlock: OJICUG_clean_linker_0, # of connection points: 2
#     Edge 28, Type (0, 0), BuildingBlock: OJICUG_clean_linker_0, # of connection points: 2
#     Edge 29, Type (0, 0), BuildingBlock: OJICUG_clean_linker_0, # of connection points: 2
#     Edge 30, Type (0, 0), BuildingBlock: OJICUG_clean_linker_0, # of connection points: 2
#     Edge 31, Type (0, 0), BuildingBlock: OJICUG_clean_linker_0, # of connection points: 2
#     Edge 32, Type (0, 0), BuildingBlock: OJICUG_clean_linker_0, # of connection points: 2
#     Edge 33, Type (0, 0), BuildingBlock: OJICUG_clean_linker_0, # of connection points: 2
#     Edge 34, Type (0, 0), BuildingBlock: OJICUG_clean_linker_0, # of connection points: 2
#     Edge 35, Type (0, 0), BuildingBlock: OJICUG_clean_linker_0, # of connection points: 2
#     Edge 36, Type (0, 0), BuildingBlock: OJICUG_clean_linker_0, # of connection points: 2
#     Edge 37, Type (0, 0), BuildingBlock: OJICUG_clean_linker_0, # of connection points: 2
#     Edge 38, Type (0, 0), BuildingBlock: OJICUG_clean_linker_0, # of connection points: 2
#     Edge 39, Type (0, 0), BuildingBlock: OJICUG_clean_linker_0, # of connection points: 2
#     Edge 40, Type (0, 0), BuildingBlock: OJICUG_clean_linker_0, # of connection points: 2
#     Edge 41, Type (0, 0), BuildingBlock: OJICUG_clean_linker_0, # of connection points: 2
#     Edge 42, Type (0, 0), BuildingBlock: OJICUG_clean_linker_0, # of connection points: 2
#     Edge 43, Type (0, 0), BuildingBlock: OJICUG_clean_linker_0, # of connection points: 2
#     Edge 44, Type (0, 0), BuildingBlock: OJICUG_clean_linker_0, # of connection points: 2
#     Edge 45, Type (0, 0), BuildingBlock: OJICUG_clean_linker_0, # of connection points: 2
#     Edge 46, Type (0, 0), BuildingBlock: OJICUG_clean_linker_0, # of connection points: 2
#     Edge 47, Type (0, 0), BuildingBlock: OJICUG_clean_linker_0, # of connection points: 2
#     Edge 48, Type (0, 0), BuildingBlock: OJICUG_clean_linker_0, # of connection points: 2
#     Edge 49, Type (0, 0), BuildingBlock: OJICUG_clean_linker_0, # of connection points: 2
#     Edge 50, Type (0, 0), BuildingBlock: OJICUG_clean_linker_0, # of connection points: 2
#     Edge 51, Type (0, 0), BuildingBlock: OJICUG_clean_linker_0, # of connection points: 2
#     Edge 52, Type (0, 0), BuildingBlock: OJICUG_clean_linker_0, # of connection points: 2
#     Edge 53, Type (0, 0), BuildingBlock: OJICUG_clean_linker_0, # of connection points: 2
#     Edge 54, Type (0, 0), BuildingBlock: OJICUG_clean_linker_0, # of connection points: 2
#     Edge 55, Type (0, 0), BuildingBlock: OJICUG_clean_linker_0, # of connection points: 2
#     Edge 56, Type (0, 0), BuildingBlock: OJICUG_clean_linker_0, # of connection points: 2
#     Edge 57, Type (0, 0), BuildingBlock: OJICUG_clean_linker_0, # of connection points: 2
#     Edge 58, Type (0, 0), BuildingBlock: OJICUG_clean_linker_0, # of connection points: 2
#     Edge 59, Type (0, 0), BuildingBlock: OJICUG_clean_linker_0, # of connection points: 2
#     Edge 60, Type (0, 0), BuildingBlock: OJICUG_clean_linker_0, # of connection points: 2
#     Edge 61, Type (0, 0), BuildingBlock: OJICUG_clean_linker_0, # of connection points: 2
#     Edge 62, Type (0, 0), BuildingBlock: OJICUG_clean_linker_0, # of connection points: 2
#     Edge 63, Type (0, 0), BuildingBlock: OJICUG_clean_linker_0, # of connection points: 2
#     Edge 64, Type (0, 0), BuildingBlock: OJICUG_clean_linker_0, # of connection points: 2
#     Edge 65, Type (0, 0), BuildingBlock: OJICUG_clean_linker_0, # of connection points: 2
#     Edge 66, Type (0, 0), BuildingBlock: OJICUG_clean_linker_0, # of connection points: 2
#     Edge 67, Type (0, 0), BuildingBlock: OJICUG_clean_linker_0, # of connection points: 2
#     Edge 68, Type (0, 0), BuildingBlock: OJICUG_clean_linker_0, # of connection points: 2
#     Edge 69, Type (0, 0), BuildingBlock: OJICUG_clean_linker_0, # of connection points: 2
#     Edge 70, Type (0, 0), BuildingBlock: OJICUG_clean_linker_0, # of connection points: 2
#     Edge 71, Type (0, 0), BuildingBlock: OJICUG_clean_linker_0, # of connection points: 2
#     Edge 72, Type (0, 0), BuildingBlock: OJICUG_clean_linker_0, # of connection points: 2
#     Edge 73, Type (0, 0), BuildingBlock: OJICUG_clean_linker_0, # of connection points: 2
#     Edge 74, Type (0, 0), BuildingBlock: OJICUG_clean_linker_0, # of connection points: 2
#     Edge 75, Type (0, 0), BuildingBlock: OJICUG_clean_linker_0, # of connection points: 2
#     Edge 76, Type (0, 0), BuildingBlock: OJICUG_clean_linker_0, # of connection points: 2
#     Edge 77, Type (0, 0), BuildingBlock: OJICUG_clean_linker_0, # of connection points: 2
#     Edge 78, Type (0, 0), BuildingBlock: OJICUG_clean_linker_0, # of connection points: 2
#     Edge 79, Type (0, 0), BuildingBlock: OJICUG_clean_linker_0, # of connection points: 2
#     Edge 80, Type (0, 0), BuildingBlock: OJICUG_clean_linker_0, # of connection points: 2
#     Edge 81, Type (0, 0), BuildingBlock: OJICUG_clean_linker_0, # of connection points: 2
#     Edge 82, Type (0, 0), BuildingBlock: OJICUG_clean_linker_0, # of connection points: 2
#     Edge 83, Type (0, 0), BuildingBlock: OJICUG_clean_linker_0, # of connection points: 2
#     Edge 84, Type (0, 0), BuildingBlock: OJICUG_clean_linker_0, # of connection points: 2
#     Edge 85, Type (0, 0), BuildingBlock: OJICUG_clean_linker_0, # of connection points: 2
#     Edge 86, Type (0, 0), BuildingBlock: OJICUG_clean_linker_0, # of connection points: 2
#     Edge 87, Type (0, 0), BuildingBlock: OJICUG_clean_linker_0, # of connection points: 2
#     Edge 88, Type (0, 0), BuildingBlock: OJICUG_clean_linker_0, # of connection points: 2
#     Edge 89, Type (0, 0), BuildingBlock: OJICUG_clean_linker_0, # of connection points: 2
#     Edge 90, Type (0, 0), BuildingBlock: OJICUG_clean_linker_0, # of connection points: 2
#     Edge 91, Type (0, 0), BuildingBlock: OJICUG_clean_linker_0, # of connection points: 2
#     Edge 92, Type (0, 0), BuildingBlock: OJICUG_clean_linker_0, # of connection points: 2
#     Edge 93, Type (0, 0), BuildingBlock: OJICUG_clean_linker_0, # of connection points: 2
#     Edge 94, Type (0, 0), BuildingBlock: OJICUG_clean_linker_0, # of connection points: 2
#     Edge 95, Type (0, 0), BuildingBlock: OJICUG_clean_linker_0, # of connection points: 2
# Relax obj value: 0.435
# Max RMSD: 0.175
# Mean RMSD: 0.175
data_MOF--net-sxf--node1-IZENUY_clean_sbu_0--edge1-OJICUG_clean_linker_0
_symmetry_space_group_name_H-M    P1
_symmetry_Int_Tables_number       1
_symmetry_cell_setting            triclinic
loop_
_symmetry_equiv_pos_as_xyz
'x, y, z'
_cell_length_a     33.984729
_cell_length_b     34.062727
_cell_length_c     34.014374
_cell_angle_alpha  89.973935
_cell_angle_beta   89.971961
_cell_angle_gamma 89.984328
loop_
_atom_site_label
_atom_site_type_symbol
_atom_site_fract_x
_atom_site_fract_y
_atom_site_fract_z
_atom_type_partial_charge
Fe0 Fe 0.02504 0.47193 0.25458 0.0
Fe1 Fe 0.07616 0.40144 0.22859 0.0
O2 O 0.04565 0.44219 0.21711 0.0
Fe3 Fe 0.03601 0.45324 0.16749 0.0
O4 O 0.05996 0.50032 0.17212 0.0
O5 O 0.02808 0.51788 0.22573 0.0
O6 O 0.07327 0.48345 0.2734 0.0
C7 C 0.09867 0.45893 0.28455 0.0
C8 C 0.96315 0.47091 0.20393 0.0
O9 O 0.09734 0.42349 0.27335 0.0
C10 C 0.02784 0.37404 0.16692 0.0
O11 O 0.01876 0.43091 0.28956 0.0
O12 O 0.03703 0.37846 0.25619 0.0
O13 O 0.98751 0.47482 0.17618 0.0
O14 O 0.9747 0.46319 0.23829 0.0
C15 C 0.1157 0.43092 0.16541 0.0
O16 O 0.0598 0.37182 0.18611 0.0
O17 O 0.0115 0.40675 0.16119 0.0
C18 C 0.01861 0.39396 0.28437 0.0
O19 O 0.11772 0.42204 0.20136 0.0
O20 O 0.08275 0.43406 0.14857 0.0
C21 C 0.04908 0.52642 0.19604 0.0
Fe22 Fe 0.47773 0.52928 0.7593 0.0
Fe23 Fe 0.42342 0.59533 0.72905 0.0
O24 O 0.45663 0.55612 0.7199 0.0
Fe25 Fe 0.46895 0.54371 0.67122 0.0
O26 O 0.47534 0.49154 0.68107 0.0
O27 O 0.45564 0.48317 0.74212 0.0
O28 O 0.43522 0.53545 0.79227 0.0
C29 C 0.39951 0.54342 0.78515 0.0
C30 C 0.54082 0.53421 0.7044 0.0
O31 O 0.38989 0.56284 0.75503 0.0
C32 C 0.46788 0.62613 0.66952 0.0
O33 O 0.501 0.57358 0.77834 0.0
O34 O 0.44757 0.61026 0.77501 0.0
O35 O 0.5206 0.55357 0.68006 0.0
O36 O 0.52431 0.51805 0.73365 0.0
C37 C 0.38986 0.55652 0.66344 0.0
O38 O 0.45499 0.63068 0.70396 0.0
O39 O 0.46493 0.59357 0.65213 0.0
C40 C 0.48228 0.60439 0.78736 0.0
O41 O 0.39336 0.58708 0.68445 0.0
O42 O 0.41812 0.53279 0.65984 0.0
C43 C 0.46174 0.46985 0.7079 0.0
Fe44 Fe 0.57899 0.09559 0.77266 0.0
Fe45 Fe 0.54063 0.03794 0.82976 0.0
O46 O 0.5498 0.05324 0.78126 0.0
Fe47 Fe 0.52967 0.02567 0.74199 0.0
O48 O 0.57805 0.0158 0.72311 0.0
O49 O 0.6019 0.07595 0.72723 0.0
O50 O 0.62099 0.07535 0.79934 0.0
C51 C 0.61902 0.06348 0.83434 0.0
C52 C 0.52204 0.10475 0.7165 0.0
O53 O 0.58619 0.05738 0.85043 0.0
C54 C 0.46819 0.02326 0.79264 0.0
O55 O 0.56023 0.12216 0.81651 0.0
O56 O 0.51444 0.08258 0.83964 0.0
O57 O 0.52333 0.06826 0.7092 0.0
O58 O 0.53969 0.11898 0.74571 0.0
C59 C 0.55546 0.96778 0.79602 0.0
O60 O 0.49289 0.01552 0.81923 0.0
O61 O 0.47935 0.03368 0.75888 0.0
C62 C 0.52845 0.11657 0.83559 0.0
O63 O 0.56654 0.99253 0.82118 0.0
O64 O 0.533 0.97797 0.76796 0.0
C65 C 0.60392 0.04088 0.7146 0.0
Fe66 Fe 0.96439 0.96203 0.33023 0.0
Fe67 Fe 0.97603 0.97532 0.24265 0.0
O68 O 0.95564 0.94727 0.2815 0.0
Fe69 Fe 0.92656 0.90498 0.27226 0.0
O70 O 0.88433 0.92488 0.29888 0.0
O71 O 0.91869 0.94224 0.35042 0.0
O72 O 0.93847 0.00747 0.32193 0.0
C73 C 0.94976 0.0325 0.2971 0.0
C74 C 0.97671 0.88337 0.3352 0.0
O75 O 0.97237 0.02266 0.26905 0.0
C76 C 0.98391 0.89655 0.21635 0.0
O77 O 0.01216 0.98468 0.32034 0.0
O78 O 0.02628 0.96737 0.25987 0.0
O79 O 0.94504 0.87795 0.31595 0.0
O80 O 0.9906 0.91733 0.33979 0.0
C81 C 0.90199 0.96021 0.2145 0.0
O82 O 0.98275 0.93313 0.20955 0.0
O83 O 0.96608 0.88192 0.24528 0.0
C84 C 0.03712 0.97753 0.29382 0.0
O85 O 0.92776 0.98527 0.22344 0.0
O86 O 0.90396 0.92505 0.22692 0.0
C87 C 0.88599 0.93629 0.33405 0.0
Fe88 Fe 0.22923 0.07354 0.40892 0.0
Fe89 Fe 0.16931 0.03332 0.46234 0.0
O90 O 0.21876 0.04282 0.44989 0.0
Fe91 Fe 0.25694 0.0219 0.47871 0.0
O92 O 0.27669 0.06978 0.48983 0.0
O93 O 0.27419 0.09516 0.43033 0.0
O94 O 0.20222 0.11472 0.42994 0.0
C95 C 0.16649 0.11278 0.43942 0.0
C96 C 0.2854 0.01666 0.39966 0.0
O97 O 0.14979 0.07993 0.44346 0.0
C98 C 0.20584 0.96044 0.47852 0.0
O99 O 0.18612 0.05662 0.37999 0.0
O100 O 0.16153 0.00881 0.41597 0.0
O101 O 0.29081 0.01502 0.43662 0.0
O102 O 0.25693 0.03532 0.38508 0.0
C103 C 0.2003 0.04755 0.53475 0.0
O104 O 0.17839 0.98483 0.48395 0.0
O105 O 0.24002 0.97192 0.47015 0.0
C106 C 0.16638 0.02501 0.38297 0.0
O107 O 0.17539 0.05751 0.50914 0.0
O108 O 0.22934 0.02567 0.5258 0.0
C109 C 0.28653 0.09588 0.4655 0.0
Fe110 Fe 0.33547 0.9695 0.96034 0.0
Fe111 Fe 0.24795 0.98052 0.97774 0.0
O112 O 0.28592 0.96 0.94839 0.0
Fe113 Fe 0.27515 0.92959 0.90733 0.0
O114 O 0.30213 0.88824 0.9281 0.0
O115 O 0.35476 0.92298 0.94104 0.0
O116 O 0.32995 0.94507 0.0071 0.0
C117 C 0.30525 0.95468 0.03306 0.0
C118 C 0.33782 0.97802 0.88103 0.0
O119 O 0.27594 0.97639 0.02456 0.0
C120 C 0.21896 0.98643 0.89892 0.0
O121 O 0.3265 0.01783 0.98226 0.0
O122 O 0.26463 0.03061 0.96947 0.0
O123 O 0.31813 0.94639 0.87825 0.0
O124 O 0.34275 0.99427 0.91397 0.0
C125 C 0.21802 0.90698 0.96389 0.0
O126 O 0.21379 0.98767 0.93594 0.0
O127 O 0.24746 0.96809 0.88394 0.0
C128 C 0.29887 0.04214 0.97742 0.0
O129 O 0.22839 0.9325 0.98857 0.0
O130 O 0.2302 0.90808 0.92871 0.0
C131 C 0.33795 0.89014 0.93726 0.0
Fe132 Fe 0.7291 0.42194 0.59427 0.0
Fe133 Fe 0.67114 0.46364 0.53971 0.0
O134 O 0.72001 0.45372 0.55386 0.0
Fe135 Fe 0.75934 0.4759 0.52773 0.0
O136 O 0.79285 0.43452 0.53456 0.0
O137 O 0.75772 0.38848 0.56382 0.0
O138 O 0.68587 0.39033 0.58533 0.0
C139 C 0.66614 0.38501 0.55413 0.0
C140 C 0.78599 0.48202 0.60367 0.0
O141 O 0.66252 0.41225 0.52922 0.0
C142 C 0.70252 0.53667 0.53203 0.0
O143 O 0.70174 0.45389 0.62777 0.0
O144 O 0.65053 0.45921 0.58902 0.0
O145 O 0.77738 0.50006 0.57227 0.0
O146 O 0.77352 0.44758 0.60992 0.0
C147 C 0.70994 0.45706 0.46705 0.0
O148 O 0.67746 0.51553 0.54937 0.0
O149 O 0.73248 0.52141 0.51599 0.0
C150 C 0.66681 0.46485 0.62181 0.0
O151 O 0.68207 0.47016 0.48766 0.0
O152 O 0.744 0.45295 0.48139 0.0
C153 C 0.78695 0.39885 0.54324 0.0
Fe154 Fe 0.77447 0.58194 0.09679 0.0
Fe155 Fe 0.8342 0.54141 0.04325 0.0
O156 O 0.7849 0.55001 0.05686 0.0
Fe157 Fe 0.74643 0.52642 0.03075 0.0
O158 O 0.71161 0.56699 0.03692 0.0
O159 O 0.7454 0.6143 0.06562 0.0
O160 O 0.81705 0.61467 0.08811 0.0
C161 C 0.83691 0.62022 0.057 0.0
C162 C 0.71937 0.52025 0.10655 0.0
O163 O 0.84147 0.59288 0.03245 0.0
C164 C 0.80534 0.46742 0.03553 0.0
O165 O 0.8021 0.55101 0.13087 0.0
O166 O 0.85412 0.54649 0.09297 0.0
O167 O 0.72879 0.50215 0.07543 0.0
O168 O 0.73055 0.55524 0.11223 0.0
C169 C 0.79561 0.54636 0.97013 0.0
O170 O 0.82939 0.48945 0.05311 0.0
O171 O 0.77476 0.48157 0.01959 0.0
C172 C 0.83741 0.54099 0.12565 0.0
O173 O 0.82391 0.5345 0.99099 0.0
O174 O 0.76136 0.54935 0.98431 0.0
C175 C 0.71648 0.60294 0.04515 0.0
Fe176 Fe 0.40703 0.23512 0.07596 0.0
Fe177 Fe 0.45824 0.17526 0.03325 0.0
O178 O 0.44665 0.22447 0.04379 0.0
Fe179 Fe 0.47452 0.26264 0.02188 0.0
O180 O 0.46934 0.29636 0.06383 0.0
O181 O 0.43958 0.26121 0.10941 0.0
O182 O 0.41404 0.19124 0.10674 0.0
C183 C 0.44433 0.17012 0.11177 0.0
C184 C 0.39961 0.29203 0.01616 0.0
O185 O 0.46903 0.1656 0.08446 0.0
C186 C 0.46742 0.20654 0.96056 0.0
O187 O 0.37168 0.20978 0.04415 0.0
O188 O 0.40812 0.15699 0.03816 0.0
O189 O 0.43065 0.28245 0.99803 0.0
O190 O 0.39336 0.28065 0.051 0.0
C191 C 0.53295 0.21018 0.03891 0.0
O192 O 0.44818 0.18279 0.98158 0.0
O193 O 0.48474 0.23564 0.97603 0.0
C194 C 0.3759 0.17459 0.03326 0.0
O195 O 0.51051 0.18372 0.02608 0.0
O196 O 0.52043 0.24479 0.04426 0.0
C197 C 0.4608 0.2901 0.09959 0.0
Fe198 Fe 0.97739 0.23684 0.97612 0.0
Fe199 Fe 0.9068 0.27055 0.92947 0.0
O200 O 0.95039 0.27724 0.95721 0.0
Fe201 Fe 0.9674 0.32504 0.96652 0.0
O202 O 0.01162 0.3154 0.93898 0.0
O203 O 0.02604 0.26163 0.9716 0.0
O204 O 0.98517 0.21747 0.92764 0.0
C205 C 0.95851 0.20996 0.90306 0.0
C206 C 0.98272 0.28655 0.03777 0.0
O207 O 0.92441 0.22513 0.90547 0.0
C208 C 0.88937 0.33425 0.98073 0.0
O209 O 0.93386 0.2054 0.98348 0.0
O210 O 0.88379 0.24377 0.96916 0.0
O211 O 0.99101 0.31312 0.0133 0.0
O212 O 0.97103 0.2534 0.02651 0.0
C213 C 0.93901 0.3317 0.88924 0.0
O214 O 0.88211 0.31499 0.94946 0.0
O215 O 0.92382 0.33612 0.99424 0.0
C216 C 0.89752 0.21366 0.98566 0.0
O217 O 0.92634 0.29707 0.88721 0.0
O218 O 0.94701 0.3469 0.92201 0.0
C219 C 0.03638 0.29003 0.94953 0.0
Fe220 Fe 0.52513 0.76192 0.48057 0.0
Fe221 Fe 0.59495 0.7316 0.43028 0.0
O222 O 0.55285 0.72286 0.45983 0.0
Fe223 Fe 0.53835 0.67416 0.46895 0.0
O224 O 0.49278 0.68226 0.44335 0.0
O225 O 0.47733 0.73563 0.47645 0.0
O226 O 0.51536 0.78268 0.43279 0.0
C227 C 0.5408 0.79133 0.40725 0.0
C228 C 0.52284 0.71046 0.54156 0.0
O229 O 0.57522 0.77685 0.408 0.0
C230 C 0.61713 0.66834 0.47976 0.0
O231 O 0.56806 0.79431 0.48769 0.0
O232 O 0.61869 0.75819 0.46947 0.0
O233 O 0.51578 0.68392 0.51674 0.0
O234 O 0.53286 0.74431 0.5306 0.0
C235 C 0.56343 0.67012 0.39031 0.0
O236 O 0.62194 0.68771 0.44813 0.0
O237 O 0.58346 0.66474 0.49485 0.0
C238 C 0.60473 0.78709 0.48782 0.0
O239 O 0.57435 0.70534 0.38838 0.0
O240 O 0.55799 0.65397 0.42321 0.0
C241 C 0.4676 0.70704 0.45439 0.0
Fe242 Fe 0.04618 0.82581 0.53273 0.0
Fe243 Fe 0.03061 0.73824 0.52196 0.0
O244 O 0.05814 0.77676 0.54363 0.0
Fe245 Fe 0.09775 0.76659 0.57594 0.0
O246 O 0.09039 0.81055 0.60635 0.0
O247 O 0.03527 0.83573 0.58389 0.0
O248 O 0.99396 0.81689 0.52563 0.0
C249 C 0.97173 0.79029 0.53859 0.0
C250 C 0.12856 0.82714 0.53287 0.0
O251 O 0.98452 0.75583 0.54417 0.0
C252 C 0.10569 0.7094 0.5166 0.0
O253 O 0.05636 0.81803 0.48112 0.0
O254 O 0.02026 0.76486 0.47594 0.0
O255 O 0.13305 0.79205 0.54404 0.0
O256 O 0.09616 0.84449 0.53749 0.0
C257 C 0.04417 0.71146 0.59984 0.0
O258 O 0.07467 0.71868 0.49833 0.0
O259 O 0.11178 0.721 0.55137 0.0
C260 C 0.03743 0.79394 0.46026 0.0
O261 O 0.03596 0.70483 0.5641 0.0
O262 O 0.06523 0.7405 0.60953 0.0
C263 C 0.05996 0.83148 0.61123 0.0
Fe264 Fe 0.92491 0.59606 0.77176 0.0
Fe265 Fe 0.9635 0.54154 0.83166 0.0
O266 O 0.95438 0.55426 0.78234 0.0
Fe267 Fe 0.97474 0.52493 0.74435 0.0
O268 O 0.92652 0.51476 0.72502 0.0
O269 O 0.9026 0.5749 0.72689 0.0
O270 O 0.88286 0.57649 0.79907 0.0
C271 C 0.88477 0.56667 0.83475 0.0
C272 C 0.98267 0.60333 0.71584 0.0
O273 O 0.91764 0.56179 0.85119 0.0
C274 C 0.03614 0.52437 0.79562 0.0
O275 O 0.94284 0.62458 0.8146 0.0
O276 O 0.98942 0.58694 0.83922 0.0
O277 O 0.98207 0.56647 0.71011 0.0
O278 O 0.96431 0.61859 0.74415 0.0
C279 C 0.94802 0.46965 0.80101 0.0
O280 O 0.01134 0.51873 0.82263 0.0
O281 O 0.02511 0.53276 0.76127 0.0
C282 C 0.97472 0.62048 0.83376 0.0
O283 O 0.93793 0.49553 0.82552 0.0
O284 O 0.97031 0.47823 0.77219 0.0
C285 C 0.90097 0.53962 0.71499 0.0
Fe286 Fe 0.52843 0.47823 0.24305 0.0
Fe287 Fe 0.57619 0.40666 0.27244 0.0
O288 O 0.54769 0.44934 0.28188 0.0
Fe289 Fe 0.53841 0.46352 0.33073 0.0
O290 O 0.56484 0.50883 0.32359 0.0
O291 O 0.53269 0.52551 0.27007 0.0
O292 O 0.57718 0.48745 0.22465 0.0
C293 C 0.60244 0.46196 0.21551 0.0
C294 C 0.46634 0.48047 0.29327 0.0
O295 O 0.59948 0.42667 0.22733 0.0
C296 C 0.52568 0.38491 0.3353 0.0
O297 O 0.52135 0.43626 0.20926 0.0
O298 O 0.53648 0.38454 0.24502 0.0
O299 O 0.49083 0.48676 0.32047 0.0
O300 O 0.47782 0.471 0.25934 0.0
C301 C 0.61671 0.43667 0.33479 0.0
O302 O 0.55724 0.37942 0.31586 0.0
O303 O 0.51168 0.41889 0.33951 0.0
C304 C 0.51949 0.39957 0.21577 0.0
O305 O 0.61843 0.42569 0.29949 0.0
O306 O 0.58395 0.4431 0.35106 0.0
C307 C 0.55491 0.53447 0.29881 0.0
Fe308 Fe 0.43129 0.90888 0.23489 0.0
Fe309 Fe 0.46969 0.9645 0.17615 0.0
O310 O 0.46004 0.9512 0.2251 0.0
Fe311 Fe 0.47915 0.98048 0.26369 0.0
O312 O 0.43014 0.99023 0.28182 0.0
O313 O 0.40848 0.9292 0.27994 0.0
O314 O 0.38908 0.92812 0.2075 0.0
C315 C 0.39139 0.9385 0.17195 0.0
C316 C 0.48815 0.90232 0.29137 0.0
O317 O 0.42442 0.94399 0.15605 0.0
C318 C 0.54146 0.98152 0.2135 0.0
O319 O 0.44962 0.88115 0.19169 0.0
O320 O 0.49617 0.91942 0.16817 0.0
O321 O 0.48571 0.93892 0.29789 0.0
O322 O 0.47116 0.88685 0.26235 0.0
C323 C 0.45356 0.03585 0.20705 0.0
O324 O 0.51707 0.98755 0.18623 0.0
O325 O 0.52995 0.9729 0.24771 0.0
C326 C 0.48116 0.88582 0.17209 0.0
O327 O 0.4435 0.01009 0.18249 0.0
O328 O 0.47547 0.02712 0.236 0.0
C329 C 0.40534 0.96449 0.29155 0.0
Fe330 Fe 0.07247 0.09251 0.73497 0.0
Fe331 Fe 0.0351 0.03711 0.6755 0.0
O332 O 0.04393 0.05018 0.72462 0.0
Fe333 Fe 0.0242 0.0208 0.76287 0.0
O334 O 0.07293 0.01118 0.78182 0.0
O335 O 0.09428 0.07229 0.78047 0.0
O336 O 0.11521 0.07328 0.70846 0.0
C337 C 0.11356 0.06286 0.6729 0.0
C338 C 0.01391 0.09885 0.7898 0.0
O339 O 0.08081 0.0576 0.65633 0.0
C340 C 0.96273 0.01976 0.71172 0.0
O341 O 0.05512 0.12028 0.69149 0.0
O342 O 0.0088 0.08228 0.66726 0.0
O343 O 0.01675 0.06235 0.79676 0.0
O344 O 0.03194 0.11442 0.76145 0.0
C345 C 0.05067 0.96562 0.7065 0.0
O346 O 0.98751 0.0141 0.6847 0.0
O347 O 0.97369 0.02817 0.74612 0.0
C348 C 0.02371 0.11586 0.67176 0.0
O349 O 0.06107 0.99142 0.6821 0.0
O350 O 0.02848 0.97426 0.73526 0.0
C351 C 0.09746 0.037 0.79198 0.0
Fe352 Fe 0.77579 0.92328 0.59336 0.0
Fe353 Fe 0.83363 0.96766 0.54063 0.0
O354 O 0.7849 0.95622 0.55399 0.0
Fe355 Fe 0.74521 0.9778 0.52782 0.0
O356 O 0.7118 0.93607 0.53474 0.0
O357 O 0.7489 0.89021 0.56116 0.0
O358 O 0.81976 0.89264 0.58491 0.0
C359 C 0.84083 0.88867 0.55443 0.0
C360 C 0.71876 0.98308 0.60359 0.0
O361 O 0.84451 0.91654 0.53025 0.0
C362 C 0.80064 0.03993 0.53187 0.0
O363 O 0.80175 0.9543 0.62838 0.0
O364 O 0.85326 0.96422 0.59053 0.0
O365 O 0.72719 0.00158 0.57242 0.0
O366 O 0.73061 0.94816 0.60879 0.0
C367 C 0.79523 0.9598 0.46752 0.0
O368 O 0.82566 0.01946 0.55004 0.0
O369 O 0.77122 0.02376 0.51579 0.0
C370 C 0.83626 0.96688 0.62345 0.0
O371 O 0.82289 0.97336 0.48828 0.0
O372 O 0.76114 0.95504 0.48167 0.0
C373 C 0.71869 0.90027 0.54202 0.0
Fe374 Fe 0.75907 0.02206 0.02851 0.0
Fe375 Fe 0.72832 0.07642 0.09406 0.0
O376 O 0.71928 0.04331 0.05482 0.0
Fe377 Fe 0.67059 0.03146 0.04167 0.0
O378 O 0.68122 0.02606 0.98924 0.0
O379 O 0.74287 0.04473 0.98244 0.0
O380 O 0.79218 0.06405 0.03526 0.0
C381 C 0.78493 0.09982 0.04219 0.0
C382 C 0.70398 0.95946 0.0323 0.0
O383 O 0.75479 0.10968 0.06157 0.0
C384 C 0.66826 0.03241 0.12463 0.0
O385 O 0.7774 0.99842 0.07306 0.0
O386 O 0.77377 0.0519 0.10931 0.0
O387 O 0.67898 0.97961 0.05086 0.0
O388 O 0.73338 0.97594 0.01647 0.0
C389 C 0.66288 0.11049 0.05545 0.0
O390 O 0.70269 0.04534 0.12933 0.0
O391 O 0.65117 0.03456 0.09171 0.0
C392 C 0.78596 0.01709 0.10408 0.0
O393 O 0.68412 0.10673 0.0858 0.0
O394 O 0.65919 0.08251 0.03142 0.0
C395 C 0.70879 0.03975 0.9684 0.0
Fe396 Fe 0.24209 0.51871 0.47227 0.0
Fe397 Fe 0.27266 0.57182 0.40524 0.0
O398 O 0.28162 0.53914 0.44499 0.0
Fe399 Fe 0.3304 0.52676 0.45765 0.0
O400 O 0.32063 0.52061 0.5099 0.0
O401 O 0.25985 0.54086 0.51817 0.0
O402 O 0.21003 0.56135 0.46667 0.0
C403 C 0.21731 0.59674 0.45819 0.0
C404 C 0.2962 0.45532 0.46715 0.0
O405 O 0.24624 0.60599 0.43679 0.0
C406 C 0.33288 0.52769 0.37501 0.0
O407 O 0.22186 0.49558 0.42822 0.0
O408 O 0.22698 0.54799 0.39051 0.0
O409 O 0.3213 0.47509 0.44819 0.0
O410 O 0.26717 0.47217 0.48325 0.0
C411 C 0.33804 0.60552 0.44394 0.0
O412 O 0.29817 0.53995 0.37029 0.0
O413 O 0.34981 0.53042 0.40784 0.0
C414 C 0.21327 0.51409 0.39709 0.0
O415 O 0.31702 0.60149 0.41347 0.0
O416 O 0.342 0.5777 0.46814 0.0
C417 C 0.29407 0.53487 0.53144 0.0
Fe418 Fe 0.23036 0.42903 0.90538 0.0
Fe419 Fe 0.1715 0.46899 0.96074 0.0
O420 O 0.22066 0.4594 0.94686 0.0
Fe421 Fe 0.25961 0.48027 0.97475 0.0
O422 O 0.29317 0.43917 0.96727 0.0
O423 O 0.25906 0.39469 0.9348 0.0
O424 O 0.18751 0.39691 0.91324 0.0
C425 C 0.16685 0.39075 0.94369 0.0
C426 C 0.28666 0.48989 0.89901 0.0
O427 O 0.16237 0.4172 0.9693 0.0
C428 C 0.20318 0.54166 0.97127 0.0
O429 O 0.2028 0.46128 0.87241 0.0
O430 O 0.15143 0.46647 0.91108 0.0
O431 O 0.27905 0.50578 0.93178 0.0
O432 O 0.27435 0.4559 0.89052 0.0
C433 C 0.20887 0.45949 0.03379 0.0
O434 O 0.1782 0.52121 0.95297 0.0
O435 O 0.23274 0.52561 0.98735 0.0
C436 C 0.16774 0.47183 0.87823 0.0
O437 O 0.18151 0.47366 0.01324 0.0
O438 O 0.24309 0.45562 0.01982 0.0
C439 C 0.28747 0.40403 0.95685 0.0
Fe440 Fe 0.59511 0.76784 0.92765 0.0
Fe441 Fe 0.54188 0.82855 0.96689 0.0
O442 O 0.55412 0.77907 0.95807 0.0
Fe443 Fe 0.52562 0.74135 0.97992 0.0
O444 O 0.53164 0.70737 0.93847 0.0
O445 O 0.56427 0.7409 0.89337 0.0
O446 O 0.58927 0.81117 0.89582 0.0
C447 C 0.55913 0.83202 0.889 0.0
C448 C 0.60035 0.7119 0.98839 0.0
O449 O 0.53312 0.83673 0.91503 0.0
C450 C 0.53129 0.79864 0.04027 0.0
O451 O 0.62888 0.79384 0.96052 0.0
O452 O 0.59223 0.84677 0.96352 0.0
O453 O 0.56874 0.72172 0.00534 0.0
O454 O 0.60784 0.72277 0.95369 0.0
C455 C 0.46769 0.79311 0.95907 0.0
O456 O 0.54999 0.82262 0.01908 0.0
O457 O 0.51427 0.76917 0.02512 0.0
C458 C 0.62418 0.82926 0.97034 0.0
O459 O 0.48918 0.82019 0.97224 0.0
O460 O 0.48055 0.75849 0.95584 0.0
C461 C 0.54147 0.71316 0.90295 0.0
Fe462 Fe 0.02902 0.76527 0.02113 0.0
Fe463 Fe 0.09464 0.73269 0.07447 0.0
O464 O 0.05488 0.72501 0.04174 0.0
Fe465 Fe 0.04106 0.67683 0.02948 0.0
O466 O 0.98908 0.68803 0.02316 0.0
O467 O 0.98249 0.74905 0.04308 0.0
O468 O 0.03576 0.79693 0.06421 0.0
C469 C 0.043 0.78862 0.0998 0.0
C470 C 0.03349 0.71111 0.9579 0.0
O471 O 0.06271 0.75843 0.10881 0.0
C472 C 0.12333 0.6732 0.02896 0.0
O473 O 0.07389 0.78395 0.99817 0.0
O474 O 0.1101 0.7787 0.05157 0.0
O475 O 0.05135 0.68578 0.97815 0.0
O476 O 0.01741 0.74043 0.97429 0.0
C477 C 0.05554 0.66698 0.10733 0.0
O478 O 0.12908 0.70753 0.04171 0.0
O479 O 0.09048 0.65655 0.03317 0.0
C480 C 0.10475 0.79216 0.0173 0.0
O481 O 0.08619 0.68773 0.10321 0.0
O482 O 0.03013 0.66536 0.08039 0.0
C483 C 0.96826 0.71529 0.03717 0.0
Fe484 Fe 0.45941 0.32837 0.5354 0.0
Fe485 Fe 0.47276 0.24035 0.52438 0.0
O486 O 0.4467 0.2796 0.54663 0.0
Fe487 Fe 0.40765 0.27031 0.57995 0.0
O488 O 0.41591 0.31472 0.61015 0.0
O489 O 0.47103 0.33847 0.5864 0.0
O490 O 0.51144 0.31831 0.52789 0.0
C491 C 0.5331 0.29083 0.54008 0.0
C492 C 0.37726 0.33004 0.5359 0.0
O493 O 0.51953 0.25672 0.54553 0.0
C494 C 0.39742 0.21221 0.52129 0.0
O495 O 0.44871 0.32083 0.48382 0.0
O496 O 0.48302 0.26656 0.47795 0.0
O497 O 0.37237 0.29548 0.54825 0.0
O498 O 0.40961 0.34752 0.54057 0.0
C499 C 0.46072 0.21466 0.60278 0.0
O500 O 0.42777 0.22155 0.50188 0.0
O501 O 0.39249 0.22458 0.55606 0.0
C502 C 0.46676 0.29636 0.46262 0.0
O503 O 0.46748 0.20746 0.56683 0.0
O504 O 0.44061 0.2442 0.61297 0.0
C505 C 0.4467 0.33536 0.61426 0.0
Fe506 Fe 0.90904 0.23171 0.42842 0.0
Fe507 Fe 0.96277 0.17268 0.46906 0.0
O508 O 0.94979 0.22171 0.45931 0.0
Fe509 Fe 0.97742 0.26038 0.48053 0.0
O510 O 0.97036 0.29395 0.43868 0.0
O511 O 0.9403 0.25793 0.394 0.0
O512 O 0.9155 0.18794 0.39762 0.0
C513 C 0.94594 0.16749 0.3912 0.0
C514 C 0.90226 0.28831 0.48826 0.0
O515 O 0.97191 0.16355 0.41738 0.0
C516 C 0.97258 0.2041 0.54179 0.0
O517 O 0.87522 0.20603 0.46145 0.0
O518 O 0.9127 0.15372 0.46594 0.0
O519 O 0.93383 0.27926 0.50566 0.0
O520 O 0.89558 0.27713 0.45349 0.0
C521 C 0.03635 0.20934 0.46068 0.0
O522 O 0.95425 0.17954 0.52102 0.0
O523 O 0.98942 0.2334 0.52609 0.0
C524 C 0.88044 0.17093 0.47218 0.0
O525 O 0.01527 0.18215 0.47438 0.0
O526 O 0.02287 0.24371 0.45663 0.0
C527 C 0.9614 0.28708 0.40313 0.0
C528 C 0.1482 0.44504 0.33798 0.0
C529 C 0.12862 0.47183 0.31325 0.0
H530 H 0.19011 0.43739 0.3848 0.0
C531 C 0.13692 0.512 0.31678 0.0
H532 H 0.14215 0.41388 0.33603 0.0
C533 C 0.16418 0.52522 0.34418 0.0
C534 C 0.18369 0.49874 0.36919 0.0
H535 H 0.12246 0.5334 0.29814 0.0
H536 H 0.16975 0.5565 0.34586 0.0
C537 C 0.17534 0.45845 0.36605 0.0
C538 C 0.30408 0.50915 0.83073 0.0
C539 C 0.31362 0.50878 0.87093 0.0
H540 H 0.32366 0.52135 0.772 0.0
C541 C 0.35075 0.52201 0.88299 0.0
H542 H 0.2756 0.49882 0.82083 0.0
C543 C 0.37863 0.53363 0.855 0.0
C544 C 0.36936 0.53321 0.81467 0.0
H545 H 0.35885 0.52149 0.91379 0.0
H546 H 0.40757 0.5426 0.86485 0.0
C547 C 0.33149 0.5219 0.80287 0.0
C548 C 0.65289 0.05396 0.66027 0.0
C549 C 0.63571 0.02835 0.6878 0.0
H550 H 0.69247 0.05964 0.61118 0.0
C551 C 0.64719 0.9888 0.68818 0.0
H552 H 0.64437 0.08459 0.65931 0.0
C553 C 0.67447 0.97474 0.66122 0.0
C554 C 0.69085 0.99969 0.63266 0.0
H555 H 0.6347 0.96842 0.70926 0.0
H556 H 0.68207 0.94387 0.66242 0.0
C557 C 0.68009 0.03963 0.63262 0.0
C558 C 0.85235 0.94682 0.1609 0.0
C559 C 0.87036 0.9728 0.1875 0.0
H560 H 0.81171 0.9405 0.11279 0.0
C561 C 0.85948 0.01253 0.18705 0.0
H562 H 0.86035 0.91604 0.16058 0.0
C563 C 0.83184 0.02632 0.16029 0.0
C564 C 0.81449 0.00089 0.13278 0.0
H565 H 0.87258 0.03324 0.20738 0.0
H566 H 0.82465 0.0573 0.16086 0.0
C567 C 0.82481 0.96086 0.13344 0.0
C568 C 0.36608 0.17465 0.46542 0.0
C569 C 0.36923 0.18282 0.50584 0.0
H570 H 0.33677 0.14106 0.42061 0.0
C571 C 0.34455 0.16274 0.53224 0.0
H572 H 0.38455 0.18981 0.44437 0.0
C573 C 0.31778 0.13488 0.51883 0.0
C574 C 0.31445 0.12658 0.47856 0.0
H575 H 0.34617 0.16817 0.56358 0.0
H576 H 0.2995 0.11988 0.54019 0.0
C577 C 0.33861 0.14698 0.45184 0.0
C578 C 0.16498 0.85735 0.94917 0.0
C579 C 0.18935 0.87681 0.97637 0.0
H580 H 0.11827 0.81554 0.94079 0.0
C581 C 0.18546 0.86816 0.0165 0.0
H582 H 0.16724 0.86364 0.91803 0.0
C583 C 0.15798 0.84074 0.02931 0.0
C584 C 0.13321 0.82148 0.00242 0.0
H585 H 0.20385 0.88249 0.03818 0.0
H586 H 0.15597 0.83494 0.06056 0.0
C587 C 0.13682 0.83011 0.96216 0.0
C588 C 0.85531 0.31058 0.54044 0.0
C589 C 0.87547 0.31759 0.50509 0.0
H590 H 0.81015 0.33057 0.58005 0.0
C591 C 0.86638 0.35098 0.48282 0.0
H592 H 0.86153 0.28451 0.55761 0.0
C593 C 0.83765 0.37714 0.49557 0.0
C594 C 0.81669 0.37 0.53044 0.0
H595 H 0.88131 0.35662 0.45521 0.0
H596 H 0.83131 0.40269 0.47766 0.0
C597 C 0.82569 0.33649 0.55288 0.0
C598 C 0.66403 0.62255 0.99821 0.0
C599 C 0.68595 0.631 0.03218 0.0
H600 H 0.61963 0.64183 0.958 0.0
C601 C 0.67753 0.66542 0.05345 0.0
H602 H 0.66989 0.59632 0.98117 0.0
C603 C 0.64777 0.691 0.04064 0.0
C604 C 0.62678 0.68275 0.00608 0.0
H605 H 0.6938 0.67245 0.0799 0.0
H606 H 0.64219 0.71783 0.0568 0.0
C607 C 0.63513 0.64839 0.98506 0.0
C608 C 0.47567 0.30817 0.16955 0.0
C609 C 0.4736 0.31885 0.12972 0.0
H610 H 0.49191 0.32532 0.2279 0.0
C611 C 0.48464 0.35716 0.11874 0.0
H612 H 0.46737 0.27893 0.17895 0.0
C613 C 0.49809 0.38397 0.14687 0.0
C614 C 0.50149 0.37283 0.18648 0.0
H615 H 0.48308 0.36642 0.08832 0.0
H616 H 0.50701 0.413 0.13737 0.0
C617 C 0.48979 0.33475 0.19755 0.0
C618 C 0.98256 0.14344 0.88615 0.0
C619 C 0.96675 0.17946 0.87379 0.0
H620 H 0.009 0.08902 0.86898 0.0
C621 C 0.96307 0.18736 0.83355 0.0
H622 H 0.98561 0.13692 0.9172 0.0
C623 C 0.97735 0.16041 0.80598 0.0
C624 C 0.99447 0.12488 0.8184 0.0
H625 H 0.95119 0.21514 0.82355 0.0
H626 H 0.97589 0.16773 0.77501 0.0
C627 C 0.9958 0.11608 0.85866 0.0
C628 C 0.52651 0.84251 0.30975 0.0
C629 C 0.50544 0.87614 0.3212 0.0
H630 H 0.55538 0.78958 0.3285 0.0
C631 C 0.49819 0.88276 0.36125 0.0
H632 H 0.53235 0.83683 0.27895 0.0
C633 C 0.5102 0.85526 0.38927 0.0
C634 C 0.53073 0.82135 0.37779 0.0
H635 H 0.48168 0.90828 0.37074 0.0
H636 H 0.50314 0.8603 0.41992 0.0
C637 C 0.53969 0.81562 0.33795 0.0
C638 C 0.02721 0.69443 0.66961 0.0
C639 C 0.03091 0.68306 0.6301 0.0
H640 H 0.00886 0.67814 0.72762 0.0
C641 C 0.02071 0.64445 0.61944 0.0
H642 H 0.03481 0.72394 0.67872 0.0
C643 C 0.00646 0.61799 0.64754 0.0
C644 C 1.00138 0.62982 0.68675 0.0
H645 H 0.02352 0.63468 0.58927 0.0
H646 H 0.99823 0.58871 0.63827 0.0
C647 C 0.01226 0.66821 0.69755 0.0
C648 C 0.86023 0.48673 0.68595 0.0
C649 C 0.87 0.52671 0.68732 0.0
H650 H 0.82655 0.4417 0.6589 0.0
C651 C 0.85135 0.55277 0.66113 0.0
H652 H 0.87384 0.4659 0.70583 0.0
C653 C 0.8241 0.53865 0.63341 0.0
C654 C 0.81469 0.49843 0.63208 0.0
H655 H 0.8585 0.58375 0.66146 0.0
H656 H 0.81035 0.55909 0.61324 0.0
C657 C 0.83291 0.47286 0.65895 0.0
C658 C 0.65155 0.44911 0.16104 0.0
C659 C 0.63474 0.47436 0.18915 0.0
H660 H 0.69136 0.44385 0.112 0.0
C661 C 0.64725 0.51354 0.19071 0.0
H662 H 0.64227 0.41876 0.15917 0.0
C663 C 0.67509 0.52765 0.16435 0.0
C664 C 0.69111 0.50316 0.13515 0.0
H665 H 0.63513 0.53364 0.21226 0.0
H666 H 0.68339 0.55828 0.16654 0.0
C667 C 0.67937 0.46352 0.13395 0.0
C668 C 0.36374 0.95297 0.3516 0.0
C669 C 0.37352 0.97597 0.31867 0.0
H670 H 0.32863 0.94846 0.40418 0.0
C671 C 0.35407 0.01176 0.31266 0.0
H672 H 0.37873 0.92542 0.35697 0.0
C673 C 0.32513 0.02433 0.33883 0.0
C674 C 0.31578 0.00197 0.37229 0.0
H675 H 0.36119 0.03002 0.28754 0.0
H676 H 0.31059 0.05211 0.33331 0.0
C677 C 0.33545 0.96623 0.37865 0.0
C678 C 0.16871 0.03655 0.87794 0.0
C679 C 0.18801 1.00057 0.872 0.0
H680 H 0.12534 0.07717 0.85613 0.0
C681 C 0.17772 0.97738 0.83945 0.0
H682 H 0.17625 0.05492 0.90281 0.0
C683 C 0.14829 0.98948 0.81364 0.0
C684 C 0.12927 0.02558 0.81912 0.0
H685 H 0.19198 0.94938 0.83433 0.0
H686 H 0.14057 0.97068 0.78913 0.0
C687 C 0.13992 0.04932 0.85121 0.0
C688 C 0.65003 0.88228 0.52264 0.0
C689 C 0.68892 0.87067 0.53089 0.0
H690 H 0.59266 0.86484 0.50334 0.0
C691 C 0.69907 0.83088 0.52747 0.0
H692 H 0.64119 0.91271 0.52539 0.0
C693 C 0.6713 0.80354 0.5145 0.0
C694 C 0.63267 0.81534 0.50532 0.0
H695 H 0.72874 0.82107 0.5337 0.0
H696 H 0.68024 0.7732 0.51111 0.0
C697 C 0.6221 0.85484 0.51031 0.0
C698 C 0.83113 0.19688 0.01313 0.0
C699 C 0.86966 0.18528 0.00327 0.0
H700 H 0.77414 0.17904 0.03358 0.0
C701 C 0.88048 0.14581 0.00818 0.0
H702 H 0.82196 0.22717 0.00982 0.0
C703 C 0.85298 0.11828 0.02123 0.0
C704 C 0.81422 0.12967 0.03028 0.0
H705 H 0.90985 0.13591 1.00076 0.0
H706 H 0.8621 0.08792 0.02396 0.0
C707 C 0.80375 0.16939 0.02679 0.0
C708 C 0.14824 0.68413 0.46192 0.0
C709 C 0.13299 0.68027 0.50012 0.0
H710 H 0.18849 0.66108 0.41882 0.0
C711 C 0.14619 0.64957 0.52421 0.0
H712 H 0.13871 0.70797 0.4431 0.0
C713 C 0.17381 0.62279 0.51033 0.0
C714 C 0.18965 0.62677 0.47245 0.0
H715 H 0.13491 0.64615 0.55383 0.0
H716 H 0.18311 0.59905 0.52942 0.0
C717 C 0.17692 0.65778 0.44832 0.0
C718 C 0.35786 0.35106 0.02358 0.0
C719 C 0.37234 0.32108 0.99932 0.0
H720 H 0.31987 0.40073 0.02879 0.0
C721 C 0.35833 0.31784 0.96059 0.0
H722 H 0.36813 0.35406 0.0536 0.0
C723 C 0.3296 0.34404 0.94664 0.0
C724 C 0.31559 0.3743 0.97101 0.0
H725 H 0.36882 0.29458 0.94157 0.0
H726 H 0.31895 0.34115 0.91677 0.0
C727 C 0.33021 0.37766 0.00943 0.0
C728 C 0.53747 0.64474 0.81499 0.0
C729 C 0.49839 0.63145 0.81707 0.0
H730 H 0.58162 0.68235 0.84014 0.0
C731 C 0.47389 0.64527 0.84726 0.0
H732 H 0.55677 0.6346 0.79175 0.0
C733 C 0.48824 0.67155 0.87524 0.0
C734 C 0.52702 0.68552 0.87287 0.0
H735 H 0.44366 0.63537 0.84949 0.0
H736 H 0.46878 0.68147 0.89846 0.0
C737 C 0.55152 0.67215 0.84237 0.0
C738 C 0.00856 0.88219 0.14863 0.0
C739 C 0.00212 0.86974 0.18744 0.0
H740 H 0.02625 0.86618 0.09053 0.0
C741 C 0.01131 0.83079 0.19781 0.0
H742 H 1.00175 0.91196 0.13971 0.0
C743 C 0.02579 0.80457 0.16966 0.0
C744 C 0.03072 0.81669 0.13052 0.0
H745 H 0.00686 0.82043 0.2276 0.0
H746 H 0.03197 0.77457 0.17826 0.0
C747 C 0.02239 0.85586 0.12042 0.0
C748 C 0.49772 0.12055 0.64893 0.0
C749 C 0.50363 0.13199 0.68811 0.0
H750 H 0.47987 0.13785 0.59122 0.0
C751 C 0.49357 0.17042 0.69951 0.0
H752 H 0.50526 0.0912 0.63923 0.0
C753 C 0.47859 0.1971 0.67207 0.0
C754 C 0.47402 0.18602 0.6326 0.0
H755 H 0.4976 0.18 0.72961 0.0
H756 H 0.47161 0.22666 0.68153 0.0
C757 C 0.48339 0.14738 0.6214 0.0
C758 C 0.97636 0.30328 0.33292 0.0
C759 C 0.97367 0.31519 0.37234 0.0
H760 H 0.99287 0.3189 0.27421 0.0
C761 C 0.98376 0.354 0.38225 0.0
H762 H 0.96882 0.27357 0.32441 0.0
C763 C 0.99689 0.38017 0.35341 0.0
C764 C 1.00094 0.3678 0.31424 0.0
H765 H 0.98169 0.36412 0.41237 0.0
H766 H 0.00511 0.40966 0.36203 0.0
C767 C 0.9902 0.32921 0.30423 0.0
C768 C 0.18878 0.48086 0.10035 0.0
C769 C 0.19936 0.45008 0.07498 0.0
H770 H 0.15437 0.49835 0.15028 0.0
C771 C 0.18842 0.41153 0.08477 0.0
H772 H 0.19578 0.51095 0.0927 0.0
C773 C 0.16432 0.40438 0.11751 0.0
C774 C 0.15123 0.43565 0.14105 0.0
H775 H 0.19502 0.38756 0.06489 0.0
H776 H 0.15307 0.375 0.12234 0.0
C777 C 0.16501 0.47367 0.1332 0.0
C778 C 0.31089 0.57803 0.58797 0.0
C779 C 0.30424 0.54015 0.5731 0.0
H780 H 0.34346 0.61315 0.62914 0.0
C781 C 0.32002 0.50774 0.59313 0.0
H782 H 0.29987 0.60349 0.57235 0.0
C783 C 0.34542 0.51317 0.62485 0.0
C784 C 0.35544 0.55117 0.63731 0.0
H785 H 0.31581 0.4783 0.58178 0.0
H786 H 0.35944 0.48768 0.6378 0.0
C787 C 0.33619 0.58352 0.62016 0.0
C788 C 0.66363 0.01984 0.87097 0.0
C789 C 0.65433 0.05803 0.85868 0.0
H790 H 0.68994 0.98415 0.91562 0.0
C791 C 0.67123 0.09015 0.87832 0.0
H792 H 0.65019 0.99472 0.85676 0.0
C793 C 0.6942 0.08407 0.91209 0.0
C794 C 0.70023 0.04587 0.92646 0.0
H795 H 0.66347 0.11985 0.86995 0.0
H796 H 0.7036 0.10923 0.92916 0.0
C797 C 0.6864 0.01381 0.90458 0.0
C798 C 0.81715 0.98549 0.40336 0.0
C799 C 0.80384 0.95341 0.42561 0.0
H800 H 0.85329 0.00473 0.35548 0.0
C801 C 0.81081 0.91518 0.41178 0.0
H802 H 0.81296 0.01519 0.41403 0.0
C803 C 0.83413 0.90918 0.37822 0.0
C804 C 0.85045 0.94138 0.3582 0.0
H805 H 0.80189 0.89004 0.42916 0.0
H806 H 0.84256 0.87954 0.37031 0.0
C807 C 0.84027 0.97951 0.36994 0.0
C808 C 0.13411 0.16441 0.47928 0.0
C809 C 0.14213 0.1484 0.44217 0.0
H810 H 0.094 0.19843 0.51403 0.0
C811 C 0.11981 0.16062 0.40967 0.0
H812 H 0.15046 0.15469 0.50482 0.0
C813 C 0.0878 0.18609 0.41484 0.0
C814 C 0.07765 0.19937 0.45258 0.0
H815 H 0.12497 0.14783 0.38096 0.0
H816 H 0.06858 0.19195 0.3901 0.0
C817 C 0.10205 0.18967 0.48447 0.0
C818 C 0.38636 0.84439 0.90735 0.0
C819 C 0.36236 0.85455 0.93936 0.0
H820 H 0.43866 0.81452 0.88846 0.0
C821 C 0.36876 0.83656 0.9759 0.0
H822 H 0.38243 0.85871 0.87916 0.0
C823 C 0.40088 0.81136 0.98122 0.0
C824 C 0.42678 0.80363 0.94998 0.0
H825 H 0.3511 0.84473 1.00112 0.0
H826 H 0.40766 0.80102 0.01059 0.0
C827 C 0.4183 0.81892 0.9126 0.0
C828 C 0.59392 0.3146 0.50943 0.0
C829 C 0.57519 0.29976 0.54308 0.0
H830 H 0.63792 0.35326 0.48663 0.0
C831 C 0.59186 0.30677 0.58014 0.0
H832 H 0.58112 0.31008 0.4806 0.0
C833 C 0.62443 0.33179 0.58371 0.0
C834 C 0.64015 0.35041 0.55024 0.0
H835 H 0.57727 0.29642 0.60652 0.0
H836 H 0.63472 0.33947 0.61284 0.0
C837 C 0.62608 0.33975 0.51295 0.0
C838 C 0.87968 0.6732 0.08541 0.0
C839 C 0.86197 0.65543 0.05254 0.0
H840 H 0.92817 0.70805 0.10608 0.0
C841 C 0.8737 0.66713 0.01472 0.0
H842 H 0.87128 0.66459 0.11491 0.0
C843 C 0.90555 0.69245 0.0098 0.0
C844 C 0.92634 0.70643 0.04255 0.0
H845 H 0.86032 0.65417 0.98888 0.0
H846 H 0.91654 0.69771 0.98034 0.0
C847 C 0.91196 0.69843 0.08042 0.0
C848 C 0.48429 0.09768 0.18489 0.0
C849 C 0.45003 0.07662 0.19405 0.0
H850 H 0.50929 0.1443 0.15064 0.0
C851 C 0.41337 0.09069 0.18147 0.0
H852 H 0.51292 0.08676 0.19373 0.0
C853 C 0.4112 0.12395 0.15762 0.0
C854 C 0.44582 0.14263 0.14502 0.0
H855 H 0.38674 0.07435 0.18778 0.0
H856 H 0.38279 0.13278 0.14616 0.0
C857 C 0.48225 0.13026 0.16004 0.0
C858 C 0.97203 0.40099 0.81086 0.0
C859 C 0.94119 0.42844 0.81235 0.0
H860 H 0.99525 0.34733 0.83471 0.0
C861 C 0.90634 0.41863 0.83226 0.0
H862 H 0.99939 0.40813 0.79613 0.0
C863 C 0.90381 0.38377 0.85364 0.0
C864 C 0.93613 0.3583 0.85552 0.0
H865 H 0.88219 0.43933 0.83379 0.0
H866 H 0.87803 0.37855 0.87169 0.0
C867 C 0.96966 0.36621 0.83277 0.0
C868 C 0.59645 0.58577 0.32948 0.0
C869 C 0.56129 0.5757 0.3103 0.0
H870 H 0.62486 0.62514 0.3695 0.0
C871 C 0.5297 0.60234 0.31074 0.0
H872 H 0.62111 0.5656 0.32968 0.0
C873 C 0.53183 0.6364 0.33379 0.0
C874 C 0.5658 0.64438 0.35586 0.0
H875 H 0.50207 0.59491 0.29672 0.0
H876 H 0.50584 0.65452 0.33714 0.0
C877 C 0.59869 0.61986 0.35207 0.0
C878 C 0.01984 0.904 0.68412 0.0
C879 C 0.05414 0.92491 0.69343 0.0
H880 H 0.99485 0.85754 0.64973 0.0
C881 C 0.09081 0.91078 0.68099 0.0
H882 H 0.99121 0.91498 0.69288 0.0
C883 C 0.09298 0.87757 0.65711 0.0
C884 C 0.05834 0.85905 0.64436 0.0
H885 H 0.11747 0.927 0.68744 0.0
H886 H 0.12142 0.86866 0.64578 0.0
C887 C 0.02188 0.87148 0.65923 0.0
C888 C 0.83636 0.59608 0.88112 0.0
C889 C 0.84944 0.56338 0.85963 0.0
H890 H 0.80713 0.61617 0.93344 0.0
C891 C 0.83666 0.52581 0.87071 0.0
H892 H 0.84692 0.6252 0.87383 0.0
C893 C 0.81408 0.52063 0.90473 0.0
C894 C 0.80381 0.55299 0.92814 0.0
H895 H 0.84727 0.50014 0.85521 0.0
H896 H 0.80793 0.49106 0.91478 0.0
C897 C 0.81356 0.59092 0.91516 0.0
C898 C 0.66573 0.47752 0.36948 0.0
C899 C 0.65233 0.43999 0.35917 0.0
H900 H 0.6967 0.51221 0.41191 0.0
C901 C 0.66642 0.40723 0.37993 0.0
H902 H 0.65452 0.50321 0.3544 0.0
C903 C 0.69086 0.41236 0.4128 0.0
C904 C 0.7013 0.45028 0.42522 0.0
H905 H 0.65558 0.37812 0.37307 0.0
H906 H 0.69797 0.38712 0.43086 0.0
C907 C 0.69006 0.48263 0.40222 0.0
C908 C 0.33501 0.91062 0.08305 0.0
C909 C 0.31585 0.94612 0.07433 0.0
H910 H 0.37308 0.87986 0.12263 0.0
C911 C 0.31415 0.97554 0.10326 0.0
H912 H 0.33675 0.88751 0.06124 0.0
C913 C 0.33513 0.9711 0.13855 0.0
C914 C 0.35727 0.93694 0.14549 0.0
H915 H 0.3 0.00336 0.09705 0.0
H916 H 0.33712 0.99575 0.15858 0.0
C917 C 0.35545 0.90605 0.11833 0.0
C918 C 0.19048 0.02538 0.60432 0.0
C919 C 0.19002 0.05558 0.57617 0.0
H920 H 0.16621 0.00443 0.65882 0.0
C921 C 0.17203 0.09148 0.58565 0.0
H922 H 0.20369 0.99724 0.59747 0.0
C923 C 0.15139 0.0958 0.62087 0.0
C924 C 0.14821 0.06423 0.64713 0.0
H925 H 0.17126 0.11517 0.5644 0.0
H926 H 0.13456 0.12241 0.62568 0.0
C927 C 0.16928 0.02956 0.63951 0.0
C928 C 0.91353 0.80801 0.57914 0.0
C929 C 0.92989 0.80079 0.54194 0.0
H930 H 0.87174 0.8417 0.6124 0.0
C931 C 0.91176 0.81709 0.5086 0.0
H932 H 0.92769 0.79668 0.60533 0.0
C933 C 0.88066 0.84355 0.51259 0.0
C934 C 0.86678 0.85398 0.55002 0.0
H935 H 0.92433 0.81254 0.47967 0.0
H936 H 0.86928 0.85788 0.4865 0.0
C937 C 0.88188 0.83424 0.58315 0.0
C938 C 0.62215 0.16536 0.08384 0.0
C939 C 0.63709 0.14529 0.05085 0.0
H940 H 0.57676 0.20358 0.10577 0.0
C941 C 0.6234 0.15571 0.01334 0.0
H942 H 0.63217 0.15792 0.11314 0.0
C943 C 0.59267 0.18257 0.00917 0.0
C944 C 0.57468 0.19927 0.0424 0.0
H945 H 0.63468 0.14114 0.98734 0.0
H946 H 0.58023 0.18716 0.98019 0.0
C947 C 0.59084 0.19197 0.07966 0.0
C948 C 0.40909 0.67903 0.48671 0.0
C949 C 0.42674 0.69363 0.45238 0.0
H950 H 0.36708 0.63872 0.51088 0.0
C951 C 0.41076 0.68392 0.41567 0.0
H952 H 0.42167 0.68542 0.51529 0.0
C953 C 0.37934 0.65764 0.41311 0.0
C954 C 0.36438 0.63976 0.44723 0.0
H955 H 0.42462 0.69418 0.38886 0.0
H956 H 0.36915 0.64878 0.38427 0.0
C957 C 0.37835 0.65189 0.48415 0.0
C958 C 0.09588 0.31502 0.98273 0.0
C959 C 0.07754 0.30289 0.94782 0.0
H960 H 0.13867 0.35325 0.0088 0.0
C961 C 0.09338 0.31459 0.91158 0.0
H962 H 0.08353 0.3071 0.01102 0.0
C963 C 0.12521 0.34052 0.91025 0.0
C964 C 0.14077 0.35611 0.94519 0.0
H965 H 0.07908 0.30625 0.88436 0.0
H966 H 0.13516 0.35107 0.88188 0.0
C967 C 0.12701 0.34183 0.98145 0.0
C968 C 0.52382 0.87256 0.83933 0.0
C969 C 0.55942 0.85956 0.85572 0.0
H970 H 0.49507 0.91704 0.80532 0.0
C971 C 0.59476 0.87797 0.84482 0.0
H972 H 0.49625 0.85874 0.84739 0.0
C973 C 0.59397 0.91169 0.82153 0.0
C974 C 0.55801 0.92655 0.80786 0.0
H975 H 0.62256 0.86864 0.85731 0.0
H976 H 0.62103 0.92781 0.81668 0.0
C977 C 0.52319 0.90562 0.81505 0.0
C978 C 0.08963 0.61658 0.14775 0.0
C979 C 0.05472 0.63641 0.1379 0.0
H980 H 0.11497 0.56523 0.17404 0.0
C981 C 0.01874 0.62295 0.15304 0.0
H982 H 0.1177 0.62614 0.13606 0.0
C983 C 0.01745 0.58881 0.17582 0.0
C984 C 0.05195 0.56722 0.18269 0.0
H985 H 0.99148 0.63773 0.14567 0.0
H986 H 0.98915 0.57759 0.18523 0.0
C987 C 0.08815 0.58181 0.16943 0.0
C988 C 0.42127 0.41117 0.69165 0.0
C989 C 0.45843 0.42789 0.69828 0.0
H990 H 0.38828 0.36788 0.65973 0.0
C991 C 0.49193 0.40918 0.68299 0.0
H992 H 0.39497 0.42571 0.70226 0.0
C993 C 0.48818 0.37685 0.6581 0.0
C994 C 0.4508 0.36241 0.64813 0.0
H995 H 0.52084 0.42196 0.68717 0.0
H996 H 0.5144 0.36491 0.64445 0.0
C997 C 0.41749 0.37837 0.66692 0.0
C998 C 0.91152 0.08861 0.32269 0.0
C999 C 0.94752 0.0735 0.30951 0.0
H1000 H 0.88278 0.13161 0.35831 0.0
C1001 C 0.98251 0.09378 0.31767 0.0
H1002 H 0.88434 0.07294 0.31708 0.0
C1003 C 0.98186 0.12652 0.34234 0.0
C1004 C 0.9461 0.1398 0.35813 0.0
H1005 H 0.01065 0.0821 0.30831 0.0
H1006 H 0.00945 0.13991 0.35101 0.0
C1007 C 0.91073 0.12201 0.34635 0.0
C1008 C 0.0416 0.31608 0.12438 0.0
C1009 C 0.01426 0.34089 0.14284 0.0
H1010 H 0.05221 0.27786 0.07541 0.0
C1011 C 0.97438 0.33871 0.13221 0.0
H1012 H 0.07253 0.31741 0.13195 0.0
C1013 C 0.96277 0.31555 0.10051 0.0
C1014 C 0.99092 0.2946 0.07904 0.0
H1015 H 0.95275 0.35743 0.14625 0.0
H1016 H 0.93263 0.31725 0.09031 0.0
C1017 C 0.02999 0.2933 0.09224 0.0
C1018 C 0.47501 0.70793 0.59656 0.0
C1019 C 0.5135 0.70184 0.58274 0.0
H1020 H 0.43008 0.68861 0.63667 0.0
C1021 C 0.53874 0.67685 0.60356 0.0
H1022 H 0.45475 0.72619 0.5801 0.0
C1023 C 0.52469 0.65542 0.63559 0.0
C1024 C 0.48522 0.65871 0.64723 0.0
H1025 H 0.56816 0.67102 0.59276 0.0
H1026 H 0.54365 0.63359 0.64896 0.0
C1027 C 0.4609 0.68646 0.6288 0.0
C1028 C 0.45535 0.16624 0.90115 0.0
C1029 C 0.47928 0.19307 0.92114 0.0
H1030 H 0.45232 0.12158 0.85749 0.0
C1031 C 0.51756 0.20044 0.90704 0.0
H1032 H 0.42564 0.16034 0.91108 0.0
C1033 C 0.5331 0.17784 0.87632 0.0
C1034 C 0.51038 0.14785 0.85947 0.0
H1035 H 0.53669 0.22103 0.92198 0.0
H1036 H 0.5637 0.18155 0.86819 0.0
C1037 C 0.47073 0.14394 0.87056 0.0
C1038 C 0.04977 0.83332 0.40029 0.0
C1039 C 0.02565 0.80694 0.4207 0.0
H1040 H 0.05299 0.87755 0.35614 0.0
C1041 C 0.98727 0.79974 0.40685 0.0
H1042 H 0.07957 0.83904 0.41002 0.0
C1043 C 0.97179 0.82222 0.37602 0.0
C1044 C 0.9947 0.85187 0.35881 0.0
H1045 H 0.96802 0.77948 0.42212 0.0
H1046 H 0.9411 0.81878 0.36816 0.0
C1047 C 0.03446 0.85546 0.36954 0.0
C1048 C 0.12305 0.03774 0.32476 0.0
C1049 C 0.14159 0.011 0.3502 0.0
H1050 H 0.07457 0.04733 0.28542 0.0
C1051 C 0.13096 0.97115 0.34854 0.0
H1052 H 0.13048 0.06865 0.32564 0.0
C1053 C 0.09965 0.95896 0.32498 0.0
C1054 C 0.07832 0.98639 0.30294 0.0
H1055 H 0.14497 0.94989 0.36768 0.0
H1056 H 0.08979 0.92882 0.32688 0.0
C1057 C 0.09126 0.02553 0.30154 0.0
C1058 C 0.41365 0.97588 0.80044 0.0
C1059 C 0.42685 0.01492 0.8014 0.0
H1060 H 0.37385 0.93342 0.82472 0.0
C1061 C 0.40544 0.04286 0.8227 0.0
H1062 H 0.4304 0.95372 0.78488 0.0
C1063 C 0.37379 0.03125 0.84613 0.0
C1064 C 0.36289 0.99151 0.84827 0.0
H1065 H 0.41549 0.07296 0.82418 0.0
H1066 H 0.35973 0.05286 0.86484 0.0
C1067 C 0.3815 0.96427 0.82343 0.0
C1068 C 0.63173 0.52446 0.64247 0.0
C1069 C 0.64395 0.48624 0.65159 0.0
H1070 H 0.59003 0.57028 0.65277 0.0
C1071 C 0.62665 0.46668 0.68348 0.0
H1072 H 0.64445 0.53976 0.61775 0.0
C1073 C 0.59516 0.4841 0.70375 0.0
C1074 C 0.58044 0.52101 0.69193 0.0
H1075 H 0.63516 0.43684 0.69051 0.0
H1076 H 0.58024 0.46719 0.72624 0.0
C1077 C 0.60043 0.5418 0.66245 0.0
C1078 C 0.89818 0.46267 0.17235 0.0
C1079 C 0.92294 0.48494 0.19656 0.0
H1080 H 0.84967 0.46347 0.13214 0.0
C1081 C 0.91398 0.52467 0.20334 0.0
H1082 H 0.90512 0.43228 0.16594 0.0
C1083 C 0.88289 0.54275 0.18315 0.0
C1084 C 0.86012 0.52103 0.15655 0.0
H1085 H 0.93337 0.5426 0.22112 0.0
H1086 H 0.87883 0.57419 0.18576 0.0
C1087 C 0.86674 0.48055 0.15281 0.0
C1088 C 0.31891 0.12971 0.04096 0.0
C1089 C 0.34369 0.15149 0.01616 0.0
H1090 H 0.28411 0.07742 0.04734 0.0
C1091 C 0.3468 0.14084 0.9764 0.0
H1092 H 0.31723 0.13656 0.07202 0.0
C1093 C 0.32846 0.10685 0.96246 0.0
C1094 C 0.30637 0.08329 0.98803 0.0
H1095 H 0.36666 0.15657 0.95708 0.0
H1096 H 0.33427 0.09724 0.93265 0.0
C1097 C 0.30021 0.0958 0.0269 0.0
C1098 C 0.86658 0.37589 0.03605 0.0
C1099 C 0.86019 0.36144 0.99789 0.0
H1100 H 0.85379 0.42058 0.07801 0.0
C1101 C 0.82986 0.37777 0.97508 0.0
H1102 H 0.88933 0.36355 0.0546 0.0
C1103 C 0.80907 0.41058 0.98885 0.0
C1104 C 0.81857 0.4274 0.02544 0.0
H1105 H 0.82429 0.36722 0.94557 0.0
H1106 H 0.78795 0.42458 0.96954 0.0
C1107 C 0.84616 0.4086 0.04958 0.0
C1108 C 0.67453 0.6234 0.46969 0.0
C1109 C 0.64819 0.64245 0.49514 0.0
H1110 H 0.71321 0.57424 0.46192 0.0
C1111 C 0.64684 0.63129 0.53486 0.0
H1112 H 0.67606 0.63145 0.43891 0.0
C1113 C 0.66793 0.5988 0.54793 0.0
C1114 C 0.69072 0.57691 0.52155 0.0
H1115 H 0.6273 0.64603 0.55525 0.0
H1116 H 0.66445 0.58943 0.57808 0.0
C1117 C 0.69576 0.5907 0.48288 0.0
C1118 C 0.18566 0.87192 0.54097 0.0
C1119 C 0.16074 0.85057 0.51598 0.0
H1120 H 0.22062 0.92404 0.54795 0.0
C1121 C 0.15751 0.86189 0.4764 0.0
H1122 H 0.18744 0.86458 0.57192 0.0
C1123 C 0.17593 0.89602 0.46286 0.0
C1124 C 0.1982 0.91914 0.48865 0.0
H1125 H 0.13754 0.84652 0.45694 0.0
H1126 H 0.17006 0.90609 0.43321 0.0
C1127 C 0.20439 0.90602 0.52733 0.0
C1128 C 0.96732 0.68086 0.87518 0.0
C1129 C 0.99157 0.65305 0.85668 0.0
H1130 H 0.96228 0.72239 0.92228 0.0
C1131 C 0.03186 0.65217 0.86572 0.0
H1132 H 0.93615 0.68214 0.86862 0.0
C1133 C 0.04673 0.67498 0.8962 0.0
C1134 C 0.02158 0.6992 0.91806 0.0
H1135 H 0.05133 0.63161 0.85119 0.0
H1136 H 0.07719 0.67125 0.90474 0.0
C1137 C 0.98233 0.70394 0.90578 0.0
C1138 C 0.5316 0.32453 0.37735 0.0
C1139 C 0.50823 0.35365 0.35978 0.0
H1140 H 0.5362 0.28247 0.4241 0.0
C1141 C 0.46857 0.35706 0.37095 0.0
H1142 H 0.56226 0.32126 0.36924 0.0
C1143 C 0.45379 0.33514 0.40216 0.0
C1144 C 0.47827 0.30922 0.42279 0.0
H1145 H 0.44965 0.37877 0.35738 0.0
H1146 H 0.42399 0.34056 0.41184 0.0
C1147 C 0.51663 0.30232 0.40871 0.0
C1148 C 0.48311 0.80607 0.09543 0.0
C1149 C 0.5214 0.81118 0.08055 0.0
H1150 H 0.43997 0.82603 0.13702 0.0
C1151 C 0.54804 0.83471 0.10134 0.0
H1152 H 0.46193 0.78814 0.07984 0.0
C1153 C 0.53559 0.8562 0.13382 0.0
C1154 C 0.4962 0.85463 0.14611 0.0
H1155 H 0.57785 0.83853 0.09101 0.0
H1156 H 0.55616 0.87616 0.14763 0.0
C1157 C 0.47053 0.82775 0.12812 0.0
C1158 C 0.02143 0.19638 0.59608 0.0
C1159 C 0.98276 0.19201 0.58206 0.0
H1160 H 0.06511 0.17526 0.63646 0.0
C1161 C 0.95609 0.16891 0.60335 0.0
H1162 H 0.04261 0.21397 0.58005 0.0
C1163 C 0.96889 0.14682 0.63527 0.0
C1164 C 0.0086 0.14754 0.64653 0.0
H1165 H 0.92598 0.16573 0.59363 0.0
H1166 H 0.94833 0.12704 0.64941 0.0
C1167 C 0.03432 0.17419 0.62827 0.0
C1168 C 0.87142 0.02288 0.65279 0.0
C1169 C 0.85877 0.98385 0.65611 0.0
H1170 H 0.91421 0.06559 0.66998 0.0
C1171 C 0.87514 0.95967 0.68526 0.0
H1172 H 0.85949 0.04177 0.63009 0.0
C1173 C 0.90657 0.9734 0.70819 0.0
C1174 C 0.92151 0.0114 0.70222 0.0
H1175 H 0.86631 0.92921 0.68763 0.0
H1176 H 0.92169 0.9531 0.72752 0.0
C1177 C 0.90249 0.03658 0.67576 0.0
C1178 C 0.63334 0.97696 0.15555 0.0
C1179 C 0.64574 0.01615 0.15772 0.0
H1180 H 0.59073 0.93451 0.17392 0.0
C1181 C 0.62906 0.04106 0.18605 0.0
H1182 H 0.64547 0.95749 0.13345 0.0
C1183 C 0.59757 0.02784 0.20924 0.0
C1184 C 0.58287 0.98959 0.20442 0.0
H1185 H 0.63768 0.07164 0.18752 0.0
H1186 H 0.58218 0.04864 0.2278 0.0
C1187 C 0.60224 0.96373 0.17886 0.0
C1188 C 0.40155 0.4621 0.32077 0.0
C1189 C 0.42488 0.48983 0.30117 0.0
H1190 H 0.3524 0.45276 0.35919 0.0
C1191 C 0.4122 0.52903 0.29926 0.0
H1192 H 0.41135 0.43195 0.32338 0.0
C1193 C 0.37828 0.54092 0.31946 0.0
C1194 C 0.35688 0.51372 0.34192 0.0
H1195 H 0.43045 0.55106 0.28524 0.0
H1196 H 0.37113 0.5719 0.3208 0.0
C1197 C 0.36781 0.47398 0.3411 0.0
C1198 C 0.1283 0.46742 0.81625 0.0
C1199 C 0.14376 0.49 0.84715 0.0
H1200 H 0.08131 0.4615 0.77424 0.0
C1201 C 0.12819 0.52743 0.85438 0.0
H1202 H 0.13926 0.43805 0.81089 0.0
C1203 C 0.09543 0.54072 0.83363 0.0
C1204 C 0.07766 0.51689 0.80517 0.0
H1205 H 0.13924 0.54498 0.87849 0.0
H1206 H 0.08185 0.56812 0.84234 0.0
C1207 C 0.09527 0.48085 0.79531 0.0
C1208 C 0.68347 0.87202 0.96724 0.0
C1209 C 0.65515 0.85222 0.98973 0.0
H1210 H 0.72218 0.9216 0.9637 0.0
C1211 C 0.64867 0.86387 0.02873 0.0
H1212 H 0.68814 0.86417 0.93673 0.0
C1213 C 0.66719 0.89714 0.04394 0.0
C1214 C 0.69295 0.91914 0.02041 0.0
H1215 H 0.62662 0.84923 0.04627 0.0
H1216 H 0.6593 0.90714 0.07313 0.0
C1217 C 0.70265 0.90506 0.98266 0.0
C1218 C 0.20253 0.59804 0.01868 0.0
C1219 C 0.19231 0.58234 0.98175 0.0
H1220 H 0.18844 0.64081 0.06302 0.0
C1221 C 0.16622 0.60326 0.95763 0.0
H1222 H 0.22247 0.58241 0.03799 0.0
C1223 C 0.14747 0.6368 0.97173 0.0
C1224 C 0.1544 0.65003 0.01014 0.0
H1225 H 0.15812 0.59213 0.92895 0.0
H1226 H 0.12482 0.65032 0.95391 0.0
C1227 C 0.18339 0.63162 0.03295 0.0
C1228 C 0.31672 0.37102 0.5358 0.0
C1229 C 0.34635 0.35149 0.51494 0.0
H1230 H 0.27645 0.41935 0.53624 0.0
C1231 C 0.3534 0.36149 0.47557 0.0
H1232 H 0.31143 0.36423 0.56647 0.0
C1233 C 0.33428 0.39341 0.45844 0.0
C1234 C 0.30739 0.41558 0.48044 0.0
H1235 H 0.37625 0.3467 0.4592 0.0
H1236 H 0.34267 0.40247 0.42906 0.0
C1237 C 0.29697 0.4027 0.51846 0.0
C1238 C 0.85679 0.13486 0.52995 0.0
C1239 C 0.84957 0.14782 0.4915 0.0
H1240 H 0.8465 0.0905 0.57327 0.0
C1241 C 0.82037 0.12925 0.46913 0.0
H1242 H 0.87959 0.14848 0.54736 0.0
C1243 C 0.80116 0.09593 0.48394 0.0
C1244 C 0.8116 0.08052 0.52097 0.0
H1245 H 0.81509 0.13818 0.43901 0.0
H1246 H 0.781 0.08023 0.46496 0.0
C1247 C 0.83808 0.10149 0.54459 0.0
loop_
_geom_bond_atom_site_label_1
_geom_bond_atom_site_label_2
_geom_bond_distance
_geom_bond_site_symmetry_2
_ccdc_geom_bond_type
Fe0 O2 1.918 . S
Fe0 O5 1.997 . S
Fe0 O6 2.002 . S
Fe0 O11 1.976 . S
Fe0 O14 1.996 1_455 S
Fe1 O2 1.918 . S
Fe1 O9 1.997 . S
Fe1 O12 1.996 . S
Fe1 O16 1.976 . S
Fe1 O19 2.002 . S
O2 Fe0 1.918 . S
O2 Fe1 1.918 . S
O2 Fe3 1.918 . S
Fe3 O2 1.918 . S
Fe3 O4 2.002 . S
Fe3 O13 1.976 1_455 S
Fe3 O17 1.996 . S
Fe3 O20 1.997 . S
O4 Fe3 2.002 . S
O4 C21 1.295 . S
O5 Fe0 1.997 . S
O5 C21 1.235 . S
O6 Fe0 2.002 . S
O6 C7 1.295 . S
C7 O6 1.295 . S
C7 O9 1.235 . S
C8 O13 1.287 . S
C8 O14 1.255 . S
O9 Fe1 1.997 . S
O9 C7 1.235 . S
C10 O16 1.287 . S
C10 O17 1.255 . S
O11 Fe0 1.976 . S
O11 C18 1.287 . S
O12 Fe1 1.996 . S
O12 C18 1.255 . S
O13 Fe3 1.976 1_655 S
O13 C8 1.287 . S
O14 Fe0 1.996 1_655 S
O14 C8 1.255 . S
C15 O19 1.295 . S
C15 O20 1.235 . S
O16 Fe1 1.976 . S
O16 C10 1.287 . S
O17 Fe3 1.996 . S
O17 C10 1.255 . S
C18 O11 1.287 . S
C18 O12 1.255 . S
O19 Fe1 2.002 . S
O19 C15 1.295 . S
O20 Fe3 1.997 . S
O20 C15 1.235 . S
C21 O4 1.295 . S
C21 O5 1.235 . S
Fe22 O24 1.918 . S
Fe22 O27 1.997 . S
Fe22 O28 2.002 . S
Fe22 O33 1.976 . S
Fe22 O36 1.996 . S
Fe23 O24 1.918 . S
Fe23 O31 1.997 . S
Fe23 O34 1.996 . S
Fe23 O38 1.976 . S
Fe23 O41 2.002 . S
O24 Fe22 1.918 . S
O24 Fe23 1.918 . S
O24 Fe25 1.918 . S
Fe25 O24 1.918 . S
Fe25 O26 2.002 . S
Fe25 O35 1.976 . S
Fe25 O39 1.996 . S
Fe25 O42 1.997 . S
O26 Fe25 2.002 . S
O26 C43 1.295 . S
O27 Fe22 1.997 . S
O27 C43 1.235 . S
O28 Fe22 2.002 . S
O28 C29 1.295 . S
C29 O28 1.295 . S
C29 O31 1.235 . S
C30 O35 1.287 . S
C30 O36 1.255 . S
O31 Fe23 1.997 . S
O31 C29 1.235 . S
C32 O38 1.287 . S
C32 O39 1.255 . S
O33 Fe22 1.976 . S
O33 C40 1.287 . S
O34 Fe23 1.996 . S
O34 C40 1.255 . S
O35 Fe25 1.976 . S
O35 C30 1.287 . S
O36 Fe22 1.996 . S
O36 C30 1.255 . S
C37 O41 1.295 . S
C37 O42 1.235 . S
O38 Fe23 1.976 . S
O38 C32 1.287 . S
O39 Fe25 1.996 . S
O39 C32 1.255 . S
C40 O33 1.287 . S
C40 O34 1.255 . S
O41 Fe23 2.002 . S
O41 C37 1.295 . S
O42 Fe25 1.997 . S
O42 C37 1.235 . S
C43 O26 1.295 . S
C43 O27 1.235 . S
Fe44 O46 1.918 . S
Fe44 O49 1.997 . S
Fe44 O50 2.002 . S
Fe44 O55 1.976 . S
Fe44 O58 1.996 . S
Fe45 O46 1.918 . S
Fe45 O53 1.997 . S
Fe45 O56 1.996 . S
Fe45 O60 1.976 . S
Fe45 O63 2.002 1_545 S
O46 Fe44 1.918 . S
O46 Fe45 1.918 . S
O46 Fe47 1.918 . S
Fe47 O46 1.918 . S
Fe47 O48 2.002 . S
Fe47 O57 1.976 . S
Fe47 O61 1.996 . S
Fe47 O64 1.997 1_545 S
O48 Fe47 2.002 . S
O48 C65 1.295 . S
O49 Fe44 1.997 . S
O49 C65 1.235 . S
O50 Fe44 2.002 . S
O50 C51 1.295 . S
C51 O50 1.295 . S
C51 O53 1.235 . S
C52 O57 1.287 . S
C52 O58 1.255 . S
O53 Fe45 1.997 . S
O53 C51 1.235 . S
C54 O60 1.287 . S
C54 O61 1.255 . S
O55 Fe44 1.976 . S
O55 C62 1.287 . S
O56 Fe45 1.996 . S
O56 C62 1.255 . S
O57 Fe47 1.976 . S
O57 C52 1.287 . S
O58 Fe44 1.996 . S
O58 C52 1.255 . S
C59 O63 1.295 . S
C59 O64 1.235 . S
O60 Fe45 1.976 . S
O60 C54 1.287 . S
O61 Fe47 1.996 . S
O61 C54 1.255 . S
C62 O55 1.287 . S
C62 O56 1.255 . S
O63 Fe45 2.002 1_565 S
O63 C59 1.295 . S
O64 Fe47 1.997 1_565 S
O64 C59 1.235 . S
C65 O48 1.295 . S
C65 O49 1.235 . S
Fe66 O68 1.918 . S
Fe66 O71 1.997 . S
Fe66 O72 2.002 1_565 S
Fe66 O77 1.976 1_655 S
Fe66 O80 1.996 . S
Fe67 O68 1.918 . S
Fe67 O75 1.997 1_565 S
Fe67 O78 1.996 1_655 S
Fe67 O82 1.976 . S
Fe67 O85 2.002 . S
O68 Fe66 1.918 . S
O68 Fe67 1.918 . S
O68 Fe69 1.918 . S
Fe69 O68 1.918 . S
Fe69 O70 2.002 . S
Fe69 O79 1.976 . S
Fe69 O83 1.996 . S
Fe69 O86 1.997 . S
O70 Fe69 2.002 . S
O70 C87 1.295 . S
O71 Fe66 1.997 . S
O71 C87 1.235 . S
O72 Fe66 2.002 1_545 S
O72 C73 1.295 . S
C73 O72 1.295 . S
C73 O75 1.235 . S
C74 O79 1.287 . S
C74 O80 1.255 . S
O75 Fe67 1.997 1_545 S
O75 C73 1.235 . S
C76 O82 1.287 . S
C76 O83 1.255 . S
O77 Fe66 1.976 1_455 S
O77 C84 1.287 . S
O78 Fe67 1.996 1_455 S
O78 C84 1.255 . S
O79 Fe69 1.976 . S
O79 C74 1.287 . S
O80 Fe66 1.996 . S
O80 C74 1.255 . S
C81 O85 1.295 . S
C81 O86 1.235 . S
O82 Fe67 1.976 . S
O82 C76 1.287 . S
O83 Fe69 1.996 . S
O83 C76 1.255 . S
C84 O77 1.287 . S
C84 O78 1.255 . S
O85 Fe67 2.002 . S
O85 C81 1.295 . S
O86 Fe69 1.997 . S
O86 C81 1.235 . S
C87 O70 1.295 . S
C87 O71 1.235 . S
Fe88 O90 1.918 . S
Fe88 O93 1.997 . S
Fe88 O94 2.002 . S
Fe88 O99 1.976 . S
Fe88 O102 1.996 . S
Fe89 O90 1.918 . S
Fe89 O97 1.997 . S
Fe89 O100 1.996 . S
Fe89 O104 1.976 1_545 S
Fe89 O107 2.002 . S
O90 Fe88 1.918 . S
O90 Fe89 1.918 . S
O90 Fe91 1.918 . S
Fe91 O90 1.918 . S
Fe91 O92 2.002 . S
Fe91 O101 1.976 . S
Fe91 O105 1.996 1_545 S
Fe91 O108 1.997 . S
O92 Fe91 2.002 . S
O92 C109 1.295 . S
O93 Fe88 1.997 . S
O93 C109 1.235 . S
O94 Fe88 2.002 . S
O94 C95 1.295 . S
C95 O94 1.295 . S
C95 O97 1.235 . S
C96 O101 1.287 . S
C96 O102 1.255 . S
O97 Fe89 1.997 . S
O97 C95 1.235 . S
C98 O104 1.287 . S
C98 O105 1.255 . S
O99 Fe88 1.976 . S
O99 C106 1.287 . S
O100 Fe89 1.996 . S
O100 C106 1.255 . S
O101 Fe91 1.976 . S
O101 C96 1.287 . S
O102 Fe88 1.996 . S
O102 C96 1.255 . S
C103 O107 1.295 . S
C103 O108 1.235 . S
O104 Fe89 1.976 1_565 S
O104 C98 1.287 . S
O105 Fe91 1.996 1_565 S
O105 C98 1.255 . S
C106 O99 1.287 . S
C106 O100 1.255 . S
O107 Fe89 2.002 . S
O107 C103 1.295 . S
O108 Fe91 1.997 . S
O108 C103 1.235 . S
C109 O92 1.295 . S
C109 O93 1.235 . S
Fe110 O112 1.918 . S
Fe110 O115 1.997 . S
Fe110 O116 2.002 1_556 S
Fe110 O121 1.976 1_565 S
Fe110 O124 1.996 . S
Fe111 O112 1.918 . S
Fe111 O119 1.997 1_556 S
Fe111 O122 1.996 1_565 S
Fe111 O126 1.976 . S
Fe111 O129 2.002 . S
O112 Fe110 1.918 . S
O112 Fe111 1.918 . S
O112 Fe113 1.918 . S
Fe113 O112 1.918 . S
Fe113 O114 2.002 . S
Fe113 O123 1.976 . S
Fe113 O127 1.996 . S
Fe113 O130 1.997 . S
O114 Fe113 2.002 . S
O114 C131 1.295 . S
O115 Fe110 1.997 . S
O115 C131 1.235 . S
O116 Fe110 2.002 1_554 S
O116 C117 1.295 . S
C117 O116 1.295 . S
C117 O119 1.235 . S
C118 O123 1.287 . S
C118 O124 1.255 . S
O119 Fe111 1.997 1_554 S
O119 C117 1.235 . S
C120 O126 1.287 . S
C120 O127 1.255 . S
O121 Fe110 1.976 1_545 S
O121 C128 1.287 . S
O122 Fe111 1.996 1_545 S
O122 C128 1.255 . S
O123 Fe113 1.976 . S
O123 C118 1.287 . S
O124 Fe110 1.996 . S
O124 C118 1.255 . S
C125 O129 1.295 . S
C125 O130 1.235 . S
O126 Fe111 1.976 . S
O126 C120 1.287 . S
O127 Fe113 1.996 . S
O127 C120 1.255 . S
C128 O121 1.287 . S
C128 O122 1.255 . S
O129 Fe111 2.002 . S
O129 C125 1.295 . S
O130 Fe113 1.997 . S
O130 C125 1.235 . S
C131 O114 1.295 . S
C131 O115 1.235 . S
Fe132 O134 1.918 . S
Fe132 O137 1.997 . S
Fe132 O138 2.002 . S
Fe132 O143 1.976 . S
Fe132 O146 1.996 . S
Fe133 O134 1.918 . S
Fe133 O141 1.997 . S
Fe133 O144 1.996 . S
Fe133 O148 1.976 . S
Fe133 O151 2.002 . S
O134 Fe132 1.918 . S
O134 Fe133 1.918 . S
O134 Fe135 1.918 . S
Fe135 O134 1.918 . S
Fe135 O136 2.002 . S
Fe135 O145 1.976 . S
Fe135 O149 1.996 . S
Fe135 O152 1.997 . S
O136 Fe135 2.002 . S
O136 C153 1.295 . S
O137 Fe132 1.997 . S
O137 C153 1.235 . S
O138 Fe132 2.002 . S
O138 C139 1.295 . S
C139 O138 1.295 . S
C139 O141 1.235 . S
C140 O145 1.287 . S
C140 O146 1.255 . S
O141 Fe133 1.997 . S
O141 C139 1.235 . S
C142 O148 1.287 . S
C142 O149 1.255 . S
O143 Fe132 1.976 . S
O143 C150 1.287 . S
O144 Fe133 1.996 . S
O144 C150 1.255 . S
O145 Fe135 1.976 . S
O145 C140 1.287 . S
O146 Fe132 1.996 . S
O146 C140 1.255 . S
C147 O151 1.295 . S
C147 O152 1.235 . S
O148 Fe133 1.976 . S
O148 C142 1.287 . S
O149 Fe135 1.996 . S
O149 C142 1.255 . S
C150 O143 1.287 . S
C150 O144 1.255 . S
O151 Fe133 2.002 . S
O151 C147 1.295 . S
O152 Fe135 1.997 . S
O152 C147 1.235 . S
C153 O136 1.295 . S
C153 O137 1.235 . S
Fe154 O156 1.918 . S
Fe154 O159 1.997 . S
Fe154 O160 2.002 . S
Fe154 O165 1.976 . S
Fe154 O168 1.996 . S
Fe155 O156 1.918 . S
Fe155 O163 1.997 . S
Fe155 O166 1.996 . S
Fe155 O170 1.976 . S
Fe155 O173 2.002 1_554 S
O156 Fe154 1.918 . S
O156 Fe155 1.918 . S
O156 Fe157 1.918 . S
Fe157 O156 1.918 . S
Fe157 O158 2.002 . S
Fe157 O167 1.976 . S
Fe157 O171 1.996 . S
Fe157 O174 1.997 1_554 S
O158 Fe157 2.002 . S
O158 C175 1.295 . S
O159 Fe154 1.997 . S
O159 C175 1.235 . S
O160 Fe154 2.002 . S
O160 C161 1.295 . S
C161 O160 1.295 . S
C161 O163 1.235 . S
C162 O167 1.287 . S
C162 O168 1.255 . S
O163 Fe155 1.997 . S
O163 C161 1.235 . S
C164 O170 1.287 . S
C164 O171 1.255 . S
O165 Fe154 1.976 . S
O165 C172 1.287 . S
O166 Fe155 1.996 . S
O166 C172 1.255 . S
O167 Fe157 1.976 . S
O167 C162 1.287 . S
O168 Fe154 1.996 . S
O168 C162 1.255 . S
C169 O173 1.295 . S
C169 O174 1.235 . S
O170 Fe155 1.976 . S
O170 C164 1.287 . S
O171 Fe157 1.996 . S
O171 C164 1.255 . S
C172 O165 1.287 . S
C172 O166 1.255 . S
O173 Fe155 2.002 1_556 S
O173 C169 1.295 . S
O174 Fe157 1.997 1_556 S
O174 C169 1.235 . S
C175 O158 1.295 . S
C175 O159 1.235 . S
Fe176 O178 1.918 . S
Fe176 O181 1.997 . S
Fe176 O182 2.002 . S
Fe176 O187 1.976 . S
Fe176 O190 1.996 . S
Fe177 O178 1.918 . S
Fe177 O185 1.997 . S
Fe177 O188 1.996 . S
Fe177 O192 1.976 1_554 S
Fe177 O195 2.002 . S
O178 Fe176 1.918 . S
O178 Fe177 1.918 . S
O178 Fe179 1.918 . S
Fe179 O178 1.918 . S
Fe179 O180 2.002 . S
Fe179 O189 1.976 . S
Fe179 O193 1.996 1_554 S
Fe179 O196 1.997 . S
O180 Fe179 2.002 . S
O180 C197 1.295 . S
O181 Fe176 1.997 . S
O181 C197 1.235 . S
O182 Fe176 2.002 . S
O182 C183 1.295 . S
C183 O182 1.295 . S
C183 O185 1.235 . S
C184 O189 1.287 . S
C184 O190 1.255 . S
O185 Fe177 1.997 . S
O185 C183 1.235 . S
C186 O192 1.287 . S
C186 O193 1.255 . S
O187 Fe176 1.976 . S
O187 C194 1.287 . S
O188 Fe177 1.996 . S
O188 C194 1.255 . S
O189 Fe179 1.976 . S
O189 C184 1.287 . S
O190 Fe176 1.996 . S
O190 C184 1.255 . S
C191 O195 1.295 . S
C191 O196 1.235 . S
O192 Fe177 1.976 1_556 S
O192 C186 1.287 . S
O193 Fe179 1.996 1_556 S
O193 C186 1.255 . S
C194 O187 1.287 . S
C194 O188 1.255 . S
O195 Fe177 2.002 . S
O195 C191 1.295 . S
O196 Fe179 1.997 . S
O196 C191 1.235 . S
C197 O180 1.295 . S
C197 O181 1.235 . S
Fe198 O200 1.918 . S
Fe198 O203 1.997 1_655 S
Fe198 O204 2.002 . S
Fe198 O209 1.976 . S
Fe198 O212 1.996 1_556 S
Fe199 O200 1.918 . S
Fe199 O207 1.997 . S
Fe199 O210 1.996 . S
Fe199 O214 1.976 . S
Fe199 O217 2.002 . S
O200 Fe198 1.918 . S
O200 Fe199 1.918 . S
O200 Fe201 1.918 . S
Fe201 O200 1.918 . S
Fe201 O202 2.002 1_655 S
Fe201 O211 1.976 1_556 S
Fe201 O215 1.996 . S
Fe201 O218 1.997 . S
O202 Fe201 2.002 1_455 S
O202 C219 1.295 . S
O203 Fe198 1.997 1_455 S
O203 C219 1.235 . S
O204 Fe198 2.002 . S
O204 C205 1.295 . S
C205 O204 1.295 . S
C205 O207 1.235 . S
C206 O211 1.287 . S
C206 O212 1.255 . S
O207 Fe199 1.997 . S
O207 C205 1.235 . S
C208 O214 1.287 . S
C208 O215 1.255 . S
O209 Fe198 1.976 . S
O209 C216 1.287 . S
O210 Fe199 1.996 . S
O210 C216 1.255 . S
O211 Fe201 1.976 1_554 S
O211 C206 1.287 . S
O212 Fe198 1.996 1_554 S
O212 C206 1.255 . S
C213 O217 1.295 . S
C213 O218 1.235 . S
O214 Fe199 1.976 . S
O214 C208 1.287 . S
O215 Fe201 1.996 . S
O215 C208 1.255 . S
C216 O209 1.287 . S
C216 O210 1.255 . S
O217 Fe199 2.002 . S
O217 C213 1.295 . S
O218 Fe201 1.997 . S
O218 C213 1.235 . S
C219 O202 1.295 . S
C219 O203 1.235 . S
Fe220 O222 1.918 . S
Fe220 O225 1.997 . S
Fe220 O226 2.002 . S
Fe220 O231 1.976 . S
Fe220 O234 1.996 . S
Fe221 O222 1.918 . S
Fe221 O229 1.997 . S
Fe221 O232 1.996 . S
Fe221 O236 1.976 . S
Fe221 O239 2.002 . S
O222 Fe220 1.918 . S
O222 Fe221 1.918 . S
O222 Fe223 1.918 . S
Fe223 O222 1.918 . S
Fe223 O224 2.002 . S
Fe223 O233 1.976 . S
Fe223 O237 1.996 . S
Fe223 O240 1.997 . S
O224 Fe223 2.002 . S
O224 C241 1.295 . S
O225 Fe220 1.997 . S
O225 C241 1.235 . S
O226 Fe220 2.002 . S
O226 C227 1.295 . S
C227 O226 1.295 . S
C227 O229 1.235 . S
C228 O233 1.287 . S
C228 O234 1.255 . S
O229 Fe221 1.997 . S
O229 C227 1.235 . S
C230 O236 1.287 . S
C230 O237 1.255 . S
O231 Fe220 1.976 . S
O231 C238 1.287 . S
O232 Fe221 1.996 . S
O232 C238 1.255 . S
O233 Fe223 1.976 . S
O233 C228 1.287 . S
O234 Fe220 1.996 . S
O234 C228 1.255 . S
C235 O239 1.295 . S
C235 O240 1.235 . S
O236 Fe221 1.976 . S
O236 C230 1.287 . S
O237 Fe223 1.996 . S
O237 C230 1.255 . S
C238 O231 1.287 . S
C238 O232 1.255 . S
O239 Fe221 2.002 . S
O239 C235 1.295 . S
O240 Fe223 1.997 . S
O240 C235 1.235 . S
C241 O224 1.295 . S
C241 O225 1.235 . S
Fe242 O244 1.918 . S
Fe242 O247 1.997 . S
Fe242 O248 2.002 1_455 S
Fe242 O253 1.976 . S
Fe242 O256 1.996 . S
Fe243 O244 1.918 . S
Fe243 O251 1.997 1_455 S
Fe243 O254 1.996 . S
Fe243 O258 1.976 . S
Fe243 O261 2.002 . S
O244 Fe242 1.918 . S
O244 Fe243 1.918 . S
O244 Fe245 1.918 . S
Fe245 O244 1.918 . S
Fe245 O246 2.002 . S
Fe245 O255 1.976 . S
Fe245 O259 1.996 . S
Fe245 O262 1.997 . S
O246 Fe245 2.002 . S
O246 C263 1.295 . S
O247 Fe242 1.997 . S
O247 C263 1.235 . S
O248 Fe242 2.002 1_655 S
O248 C249 1.295 . S
C249 O248 1.295 . S
C249 O251 1.235 . S
C250 O255 1.287 . S
C250 O256 1.255 . S
O251 Fe243 1.997 1_655 S
O251 C249 1.235 . S
C252 O258 1.287 . S
C252 O259 1.255 . S
O253 Fe242 1.976 . S
O253 C260 1.287 . S
O254 Fe243 1.996 . S
O254 C260 1.255 . S
O255 Fe245 1.976 . S
O255 C250 1.287 . S
O256 Fe242 1.996 . S
O256 C250 1.255 . S
C257 O261 1.295 . S
C257 O262 1.235 . S
O258 Fe243 1.976 . S
O258 C252 1.287 . S
O259 Fe245 1.996 . S
O259 C252 1.255 . S
C260 O253 1.287 . S
C260 O254 1.255 . S
O261 Fe243 2.002 . S
O261 C257 1.295 . S
O262 Fe245 1.997 . S
O262 C257 1.235 . S
C263 O246 1.295 . S
C263 O247 1.235 . S
Fe264 O266 1.918 . S
Fe264 O269 1.997 . S
Fe264 O270 2.002 . S
Fe264 O275 1.976 . S
Fe264 O278 1.996 . S
Fe265 O266 1.918 . S
Fe265 O273 1.997 . S
Fe265 O276 1.996 . S
Fe265 O280 1.976 1_655 S
Fe265 O283 2.002 . S
O266 Fe264 1.918 . S
O266 Fe265 1.918 . S
O266 Fe267 1.918 . S
Fe267 O266 1.918 . S
Fe267 O268 2.002 . S
Fe267 O277 1.976 . S
Fe267 O281 1.996 1_655 S
Fe267 O284 1.997 . S
O268 Fe267 2.002 . S
O268 C285 1.295 . S
O269 Fe264 1.997 . S
O269 C285 1.235 . S
O270 Fe264 2.002 . S
O270 C271 1.295 . S
C271 O270 1.295 . S
C271 O273 1.235 . S
C272 O277 1.287 . S
C272 O278 1.255 . S
O273 Fe265 1.997 . S
O273 C271 1.235 . S
C274 O280 1.287 . S
C274 O281 1.255 . S
O275 Fe264 1.976 . S
O275 C282 1.287 . S
O276 Fe265 1.996 . S
O276 C282 1.255 . S
O277 Fe267 1.976 . S
O277 C272 1.287 . S
O278 Fe264 1.996 . S
O278 C272 1.255 . S
C279 O283 1.295 . S
C279 O284 1.235 . S
O280 Fe265 1.976 1_455 S
O280 C274 1.287 . S
O281 Fe267 1.996 1_455 S
O281 C274 1.255 . S
C282 O275 1.287 . S
C282 O276 1.255 . S
O283 Fe265 2.002 . S
O283 C279 1.295 . S
O284 Fe267 1.997 . S
O284 C279 1.235 . S
C285 O268 1.295 . S
C285 O269 1.235 . S
Fe286 O288 1.918 . S
Fe286 O291 1.997 . S
Fe286 O292 2.002 . S
Fe286 O297 1.976 . S
Fe286 O300 1.996 . S
Fe287 O288 1.918 . S
Fe287 O295 1.997 . S
Fe287 O298 1.996 . S
Fe287 O302 1.976 . S
Fe287 O305 2.002 . S
O288 Fe286 1.918 . S
O288 Fe287 1.918 . S
O288 Fe289 1.918 . S
Fe289 O288 1.918 . S
Fe289 O290 2.002 . S
Fe289 O299 1.976 . S
Fe289 O303 1.996 . S
Fe289 O306 1.997 . S
O290 Fe289 2.002 . S
O290 C307 1.295 . S
O291 Fe286 1.997 . S
O291 C307 1.235 . S
O292 Fe286 2.002 . S
O292 C293 1.295 . S
C293 O292 1.295 . S
C293 O295 1.235 . S
C294 O299 1.287 . S
C294 O300 1.255 . S
O295 Fe287 1.997 . S
O295 C293 1.235 . S
C296 O302 1.287 . S
C296 O303 1.255 . S
O297 Fe286 1.976 . S
O297 C304 1.287 . S
O298 Fe287 1.996 . S
O298 C304 1.255 . S
O299 Fe289 1.976 . S
O299 C294 1.287 . S
O300 Fe286 1.996 . S
O300 C294 1.255 . S
C301 O305 1.295 . S
C301 O306 1.235 . S
O302 Fe287 1.976 . S
O302 C296 1.287 . S
O303 Fe289 1.996 . S
O303 C296 1.255 . S
C304 O297 1.287 . S
C304 O298 1.255 . S
O305 Fe287 2.002 . S
O305 C301 1.295 . S
O306 Fe289 1.997 . S
O306 C301 1.235 . S
C307 O290 1.295 . S
C307 O291 1.235 . S
Fe308 O310 1.918 . S
Fe308 O313 1.997 . S
Fe308 O314 2.002 . S
Fe308 O319 1.976 . S
Fe308 O322 1.996 . S
Fe309 O310 1.918 . S
Fe309 O317 1.997 . S
Fe309 O320 1.996 . S
Fe309 O324 1.976 . S
Fe309 O327 2.002 1_565 S
O310 Fe308 1.918 . S
O310 Fe309 1.918 . S
O310 Fe311 1.918 . S
Fe311 O310 1.918 . S
Fe311 O312 2.002 . S
Fe311 O321 1.976 . S
Fe311 O325 1.996 . S
Fe311 O328 1.997 1_565 S
O312 Fe311 2.002 . S
O312 C329 1.295 . S
O313 Fe308 1.997 . S
O313 C329 1.235 . S
O314 Fe308 2.002 . S
O314 C315 1.295 . S
C315 O314 1.295 . S
C315 O317 1.235 . S
C316 O321 1.287 . S
C316 O322 1.255 . S
O317 Fe309 1.997 . S
O317 C315 1.235 . S
C318 O324 1.287 . S
C318 O325 1.255 . S
O319 Fe308 1.976 . S
O319 C326 1.287 . S
O320 Fe309 1.996 . S
O320 C326 1.255 . S
O321 Fe311 1.976 . S
O321 C316 1.287 . S
O322 Fe308 1.996 . S
O322 C316 1.255 . S
C323 O327 1.295 . S
C323 O328 1.235 . S
O324 Fe309 1.976 . S
O324 C318 1.287 . S
O325 Fe311 1.996 . S
O325 C318 1.255 . S
C326 O319 1.287 . S
C326 O320 1.255 . S
O327 Fe309 2.002 1_545 S
O327 C323 1.295 . S
O328 Fe311 1.997 1_545 S
O328 C323 1.235 . S
C329 O312 1.295 . S
C329 O313 1.235 . S
Fe330 O332 1.918 . S
Fe330 O335 1.997 . S
Fe330 O336 2.002 . S
Fe330 O341 1.976 . S
Fe330 O344 1.996 . S
Fe331 O332 1.918 . S
Fe331 O339 1.997 . S
Fe331 O342 1.996 . S
Fe331 O346 1.976 1_455 S
Fe331 O349 2.002 1_545 S
O332 Fe330 1.918 . S
O332 Fe331 1.918 . S
O332 Fe333 1.918 . S
Fe333 O332 1.918 . S
Fe333 O334 2.002 . S
Fe333 O343 1.976 . S
Fe333 O347 1.996 1_455 S
Fe333 O350 1.997 1_545 S
O334 Fe333 2.002 . S
O334 C351 1.295 . S
O335 Fe330 1.997 . S
O335 C351 1.235 . S
O336 Fe330 2.002 . S
O336 C337 1.295 . S
C337 O336 1.295 . S
C337 O339 1.235 . S
C338 O343 1.287 . S
C338 O344 1.255 . S
O339 Fe331 1.997 . S
O339 C337 1.235 . S
C340 O346 1.287 . S
C340 O347 1.255 . S
O341 Fe330 1.976 . S
O341 C348 1.287 . S
O342 Fe331 1.996 . S
O342 C348 1.255 . S
O343 Fe333 1.976 . S
O343 C338 1.287 . S
O344 Fe330 1.996 . S
O344 C338 1.255 . S
C345 O349 1.295 . S
C345 O350 1.235 . S
O346 Fe331 1.976 1_655 S
O346 C340 1.287 . S
O347 Fe333 1.996 1_655 S
O347 C340 1.255 . S
C348 O341 1.287 . S
C348 O342 1.255 . S
O349 Fe331 2.002 1_565 S
O349 C345 1.295 . S
O350 Fe333 1.997 1_565 S
O350 C345 1.235 . S
C351 O334 1.295 . S
C351 O335 1.235 . S
Fe352 O354 1.918 . S
Fe352 O357 1.997 . S
Fe352 O358 2.002 . S
Fe352 O363 1.976 . S
Fe352 O366 1.996 . S
Fe353 O354 1.918 . S
Fe353 O361 1.997 . S
Fe353 O364 1.996 . S
Fe353 O368 1.976 1_565 S
Fe353 O371 2.002 . S
O354 Fe352 1.918 . S
O354 Fe353 1.918 . S
O354 Fe355 1.918 . S
Fe355 O354 1.918 . S
Fe355 O356 2.002 . S
Fe355 O365 1.976 . S
Fe355 O369 1.996 1_565 S
Fe355 O372 1.997 . S
O356 Fe355 2.002 . S
O356 C373 1.295 . S
O357 Fe352 1.997 . S
O357 C373 1.235 . S
O358 Fe352 2.002 . S
O358 C359 1.295 . S
C359 O358 1.295 . S
C359 O361 1.235 . S
C360 O365 1.287 . S
C360 O366 1.255 . S
O361 Fe353 1.997 . S
O361 C359 1.235 . S
C362 O368 1.287 . S
C362 O369 1.255 . S
O363 Fe352 1.976 . S
O363 C370 1.287 . S
O364 Fe353 1.996 . S
O364 C370 1.255 . S
O365 Fe355 1.976 . S
O365 C360 1.287 . S
O366 Fe352 1.996 . S
O366 C360 1.255 . S
C367 O371 1.295 . S
C367 O372 1.235 . S
O368 Fe353 1.976 1_545 S
O368 C362 1.287 . S
O369 Fe355 1.996 1_545 S
O369 C362 1.255 . S
C370 O363 1.287 . S
C370 O364 1.255 . S
O371 Fe353 2.002 . S
O371 C367 1.295 . S
O372 Fe355 1.997 . S
O372 C367 1.235 . S
C373 O356 1.295 . S
C373 O357 1.235 . S
Fe374 O376 1.918 . S
Fe374 O379 1.997 1_554 S
Fe374 O380 2.002 . S
Fe374 O385 1.976 . S
Fe374 O388 1.996 1_545 S
Fe375 O376 1.918 . S
Fe375 O383 1.997 . S
Fe375 O386 1.996 . S
Fe375 O390 1.976 . S
Fe375 O393 2.002 . S
O376 Fe374 1.918 . S
O376 Fe375 1.918 . S
O376 Fe377 1.918 . S
Fe377 O376 1.918 . S
Fe377 O378 2.002 1_554 S
Fe377 O387 1.976 1_545 S
Fe377 O391 1.996 . S
Fe377 O394 1.997 . S
O378 Fe377 2.002 1_556 S
O378 C395 1.295 . S
O379 Fe374 1.997 1_556 S
O379 C395 1.235 . S
O380 Fe374 2.002 . S
O380 C381 1.295 . S
C381 O380 1.295 . S
C381 O383 1.235 . S
C382 O387 1.287 . S
C382 O388 1.255 . S
O383 Fe375 1.997 . S
O383 C381 1.235 . S
C384 O390 1.287 . S
C384 O391 1.255 . S
O385 Fe374 1.976 . S
O385 C392 1.287 . S
O386 Fe375 1.996 . S
O386 C392 1.255 . S
O387 Fe377 1.976 1_565 S
O387 C382 1.287 . S
O388 Fe374 1.996 1_565 S
O388 C382 1.255 . S
C389 O393 1.295 . S
C389 O394 1.235 . S
O390 Fe375 1.976 . S
O390 C384 1.287 . S
O391 Fe377 1.996 . S
O391 C384 1.255 . S
C392 O385 1.287 . S
C392 O386 1.255 . S
O393 Fe375 2.002 . S
O393 C389 1.295 . S
O394 Fe377 1.997 . S
O394 C389 1.235 . S
C395 O378 1.295 . S
C395 O379 1.235 . S
Fe396 O398 1.918 . S
Fe396 O401 1.997 . S
Fe396 O402 2.002 . S
Fe396 O407 1.976 . S
Fe396 O410 1.996 . S
Fe397 O398 1.918 . S
Fe397 O405 1.997 . S
Fe397 O408 1.996 . S
Fe397 O412 1.976 . S
Fe397 O415 2.002 . S
O398 Fe396 1.918 . S
O398 Fe397 1.918 . S
O398 Fe399 1.918 . S
Fe399 O398 1.918 . S
Fe399 O400 2.002 . S
Fe399 O409 1.976 . S
Fe399 O413 1.996 . S
Fe399 O416 1.997 . S
O400 Fe399 2.002 . S
O400 C417 1.295 . S
O401 Fe396 1.997 . S
O401 C417 1.235 . S
O402 Fe396 2.002 . S
O402 C403 1.295 . S
C403 O402 1.295 . S
C403 O405 1.235 . S
C404 O409 1.287 . S
C404 O410 1.255 . S
O405 Fe397 1.997 . S
O405 C403 1.235 . S
C406 O412 1.287 . S
C406 O413 1.255 . S
O407 Fe396 1.976 . S
O407 C414 1.287 . S
O408 Fe397 1.996 . S
O408 C414 1.255 . S
O409 Fe399 1.976 . S
O409 C404 1.287 . S
O410 Fe396 1.996 . S
O410 C404 1.255 . S
C411 O415 1.295 . S
C411 O416 1.235 . S
O412 Fe397 1.976 . S
O412 C406 1.287 . S
O413 Fe399 1.996 . S
O413 C406 1.255 . S
C414 O407 1.287 . S
C414 O408 1.255 . S
O415 Fe397 2.002 . S
O415 C411 1.295 . S
O416 Fe399 1.997 . S
O416 C411 1.235 . S
C417 O400 1.295 . S
C417 O401 1.235 . S
Fe418 O420 1.918 . S
Fe418 O423 1.997 . S
Fe418 O424 2.002 . S
Fe418 O429 1.976 . S
Fe418 O432 1.996 . S
Fe419 O420 1.918 . S
Fe419 O427 1.997 . S
Fe419 O430 1.996 . S
Fe419 O434 1.976 . S
Fe419 O437 2.002 1_556 S
O420 Fe418 1.918 . S
O420 Fe419 1.918 . S
O420 Fe421 1.918 . S
Fe421 O420 1.918 . S
Fe421 O422 2.002 . S
Fe421 O431 1.976 . S
Fe421 O435 1.996 . S
Fe421 O438 1.997 1_556 S
O422 Fe421 2.002 . S
O422 C439 1.295 . S
O423 Fe418 1.997 . S
O423 C439 1.235 . S
O424 Fe418 2.002 . S
O424 C425 1.295 . S
C425 O424 1.295 . S
C425 O427 1.235 . S
C426 O431 1.287 . S
C426 O432 1.255 . S
O427 Fe419 1.997 . S
O427 C425 1.235 . S
C428 O434 1.287 . S
C428 O435 1.255 . S
O429 Fe418 1.976 . S
O429 C436 1.287 . S
O430 Fe419 1.996 . S
O430 C436 1.255 . S
O431 Fe421 1.976 . S
O431 C426 1.287 . S
O432 Fe418 1.996 . S
O432 C426 1.255 . S
C433 O437 1.295 . S
C433 O438 1.235 . S
O434 Fe419 1.976 . S
O434 C428 1.287 . S
O435 Fe421 1.996 . S
O435 C428 1.255 . S
C436 O429 1.287 . S
C436 O430 1.255 . S
O437 Fe419 2.002 1_554 S
O437 C433 1.295 . S
O438 Fe421 1.997 1_554 S
O438 C433 1.235 . S
C439 O422 1.295 . S
C439 O423 1.235 . S
Fe440 O442 1.918 . S
Fe440 O445 1.997 . S
Fe440 O446 2.002 . S
Fe440 O451 1.976 . S
Fe440 O454 1.996 . S
Fe441 O442 1.918 . S
Fe441 O449 1.997 . S
Fe441 O452 1.996 . S
Fe441 O456 1.976 1_556 S
Fe441 O459 2.002 . S
O442 Fe440 1.918 . S
O442 Fe441 1.918 . S
O442 Fe443 1.918 . S
Fe443 O442 1.918 . S
Fe443 O444 2.002 . S
Fe443 O453 1.976 . S
Fe443 O457 1.996 1_556 S
Fe443 O460 1.997 . S
O444 Fe443 2.002 . S
O444 C461 1.295 . S
O445 Fe440 1.997 . S
O445 C461 1.235 . S
O446 Fe440 2.002 . S
O446 C447 1.295 . S
C447 O446 1.295 . S
C447 O449 1.235 . S
C448 O453 1.287 . S
C448 O454 1.255 . S
O449 Fe441 1.997 . S
O449 C447 1.235 . S
C450 O456 1.287 . S
C450 O457 1.255 . S
O451 Fe440 1.976 . S
O451 C458 1.287 . S
O452 Fe441 1.996 . S
O452 C458 1.255 . S
O453 Fe443 1.976 . S
O453 C448 1.287 . S
O454 Fe440 1.996 . S
O454 C448 1.255 . S
C455 O459 1.295 . S
C455 O460 1.235 . S
O456 Fe441 1.976 1_554 S
O456 C450 1.287 . S
O457 Fe443 1.996 1_554 S
O457 C450 1.255 . S
C458 O451 1.287 . S
C458 O452 1.255 . S
O459 Fe441 2.002 . S
O459 C455 1.295 . S
O460 Fe443 1.997 . S
O460 C455 1.235 . S
C461 O444 1.295 . S
C461 O445 1.235 . S
Fe462 O464 1.918 . S
Fe462 O467 1.997 1_455 S
Fe462 O468 2.002 . S
Fe462 O473 1.976 . S
Fe462 O476 1.996 1_554 S
Fe463 O464 1.918 . S
Fe463 O471 1.997 . S
Fe463 O474 1.996 . S
Fe463 O478 1.976 . S
Fe463 O481 2.002 . S
O464 Fe462 1.918 . S
O464 Fe463 1.918 . S
O464 Fe465 1.918 . S
Fe465 O464 1.918 . S
Fe465 O466 2.002 1_455 S
Fe465 O475 1.976 1_554 S
Fe465 O479 1.996 . S
Fe465 O482 1.997 . S
O466 Fe465 2.002 1_655 S
O466 C483 1.295 . S
O467 Fe462 1.997 1_655 S
O467 C483 1.235 . S
O468 Fe462 2.002 . S
O468 C469 1.295 . S
C469 O468 1.295 . S
C469 O471 1.235 . S
C470 O475 1.287 . S
C470 O476 1.255 . S
O471 Fe463 1.997 . S
O471 C469 1.235 . S
C472 O478 1.287 . S
C472 O479 1.255 . S
O473 Fe462 1.976 . S
O473 C480 1.287 . S
O474 Fe463 1.996 . S
O474 C480 1.255 . S
O475 Fe465 1.976 1_556 S
O475 C470 1.287 . S
O476 Fe462 1.996 1_556 S
O476 C470 1.255 . S
C477 O481 1.295 . S
C477 O482 1.235 . S
O478 Fe463 1.976 . S
O478 C472 1.287 . S
O479 Fe465 1.996 . S
O479 C472 1.255 . S
C480 O473 1.287 . S
C480 O474 1.255 . S
O481 Fe463 2.002 . S
O481 C477 1.295 . S
O482 Fe465 1.997 . S
O482 C477 1.235 . S
C483 O466 1.295 . S
C483 O467 1.235 . S
Fe484 O486 1.918 . S
Fe484 O489 1.997 . S
Fe484 O490 2.002 . S
Fe484 O495 1.976 . S
Fe484 O498 1.996 . S
Fe485 O486 1.918 . S
Fe485 O493 1.997 . S
Fe485 O496 1.996 . S
Fe485 O500 1.976 . S
Fe485 O503 2.002 . S
O486 Fe484 1.918 . S
O486 Fe485 1.918 . S
O486 Fe487 1.918 . S
Fe487 O486 1.918 . S
Fe487 O488 2.002 . S
Fe487 O497 1.976 . S
Fe487 O501 1.996 . S
Fe487 O504 1.997 . S
O488 Fe487 2.002 . S
O488 C505 1.295 . S
O489 Fe484 1.997 . S
O489 C505 1.235 . S
O490 Fe484 2.002 . S
O490 C491 1.295 . S
C491 O490 1.295 . S
C491 O493 1.235 . S
C492 O497 1.287 . S
C492 O498 1.255 . S
O493 Fe485 1.997 . S
O493 C491 1.235 . S
C494 O500 1.287 . S
C494 O501 1.255 . S
O495 Fe484 1.976 . S
O495 C502 1.287 . S
O496 Fe485 1.996 . S
O496 C502 1.255 . S
O497 Fe487 1.976 . S
O497 C492 1.287 . S
O498 Fe484 1.996 . S
O498 C492 1.255 . S
C499 O503 1.295 . S
C499 O504 1.235 . S
O500 Fe485 1.976 . S
O500 C494 1.287 . S
O501 Fe487 1.996 . S
O501 C494 1.255 . S
C502 O495 1.287 . S
C502 O496 1.255 . S
O503 Fe485 2.002 . S
O503 C499 1.295 . S
O504 Fe487 1.997 . S
O504 C499 1.235 . S
C505 O488 1.295 . S
C505 O489 1.235 . S
Fe506 O508 1.918 . S
Fe506 O511 1.997 . S
Fe506 O512 2.002 . S
Fe506 O517 1.976 . S
Fe506 O520 1.996 . S
Fe507 O508 1.918 . S
Fe507 O515 1.997 . S
Fe507 O518 1.996 . S
Fe507 O522 1.976 . S
Fe507 O525 2.002 1_655 S
O508 Fe506 1.918 . S
O508 Fe507 1.918 . S
O508 Fe509 1.918 . S
Fe509 O508 1.918 . S
Fe509 O510 2.002 . S
Fe509 O519 1.976 . S
Fe509 O523 1.996 . S
Fe509 O526 1.997 1_655 S
O510 Fe509 2.002 . S
O510 C527 1.295 . S
O511 Fe506 1.997 . S
O511 C527 1.235 . S
O512 Fe506 2.002 . S
O512 C513 1.295 . S
C513 O512 1.295 . S
C513 O515 1.235 . S
C514 O519 1.287 . S
C514 O520 1.255 . S
O515 Fe507 1.997 . S
O515 C513 1.235 . S
C516 O522 1.287 . S
C516 O523 1.255 . S
O517 Fe506 1.976 . S
O517 C524 1.287 . S
O518 Fe507 1.996 . S
O518 C524 1.255 . S
O519 Fe509 1.976 . S
O519 C514 1.287 . S
O520 Fe506 1.996 . S
O520 C514 1.255 . S
C521 O525 1.295 . S
C521 O526 1.235 . S
O522 Fe507 1.976 . S
O522 C516 1.287 . S
O523 Fe509 1.996 . S
O523 C516 1.255 . S
C524 O517 1.287 . S
C524 O518 1.255 . S
O525 Fe507 2.002 1_455 S
O525 C521 1.295 . S
O526 Fe509 1.997 1_455 S
O526 C521 1.235 . S
C527 O510 1.295 . S
C527 O511 1.235 . S
C528 C529 1.387 . S
C528 H532 0.950 . S
C528 C537 1.390 . S
C529 C528 1.387 . S
C529 C531 1.387 . S
H530 C537 0.950 . S
C531 C529 1.387 . S
C531 C533 1.390 . S
C531 H535 0.950 . S
H532 C528 0.950 . S
C533 C531 1.390 . S
C533 C534 1.387 . S
C533 H536 0.950 . S
C534 C533 1.387 . S
C534 C537 1.387 . S
H535 C531 0.950 . S
H536 C533 0.950 . S
C537 C528 1.390 . S
C537 H530 0.950 . S
C537 C534 1.387 . S
C538 C539 1.387 . S
C538 H542 0.950 . S
C538 C547 1.390 . S
C539 C538 1.387 . S
C539 C541 1.387 . S
H540 C547 0.950 . S
C541 C539 1.387 . S
C541 C543 1.390 . S
C541 H545 0.950 . S
H542 C538 0.950 . S
C543 C541 1.390 . S
C543 C544 1.387 . S
C543 H546 0.950 . S
C544 C543 1.387 . S
C544 C547 1.387 . S
H545 C541 0.950 . S
H546 C543 0.950 . S
C547 C538 1.390 . S
C547 H540 0.950 . S
C547 C544 1.387 . S
C548 C549 1.387 . S
C548 H552 0.950 . S
C548 C557 1.390 . S
C549 C548 1.387 . S
C549 C551 1.387 . S
H550 C557 0.950 . S
C551 C549 1.387 . S
C551 C553 1.390 1_545 S
C551 H555 0.950 1_545 S
H552 C548 0.950 . S
C553 C551 1.390 1_565 S
C553 C554 1.387 . S
C553 H556 0.950 . S
C554 C553 1.387 . S
C554 C557 1.387 1_565 S
H555 C551 0.950 1_565 S
H556 C553 0.950 . S
C557 C548 1.390 . S
C557 H550 0.950 . S
C557 C554 1.387 1_545 S
C558 C559 1.387 . S
C558 H562 0.950 . S
C558 C567 1.390 . S
C559 C558 1.387 . S
C559 C561 1.387 1_565 S
H560 C567 0.950 . S
C561 C559 1.387 1_545 S
C561 C563 1.390 . S
C561 H565 0.950 . S
H562 C558 0.950 . S
C563 C561 1.390 . S
C563 C564 1.387 . S
C563 H566 0.950 . S
C564 C563 1.387 . S
C564 C567 1.387 1_545 S
H565 C561 0.950 . S
H566 C563 0.950 . S
C567 C558 1.390 . S
C567 H560 0.950 . S
C567 C564 1.387 1_565 S
C568 C569 1.387 . S
C568 H572 0.950 . S
C568 C577 1.390 . S
C569 C568 1.387 . S
C569 C571 1.387 . S
H570 C577 0.950 . S
C571 C569 1.387 . S
C571 C573 1.390 . S
C571 H575 0.950 . S
H572 C568 0.950 . S
C573 C571 1.390 . S
C573 C574 1.387 . S
C573 H576 0.950 . S
C574 C573 1.387 . S
C574 C577 1.387 . S
H575 C571 0.950 . S
H576 C573 0.950 . S
C577 C568 1.390 . S
C577 H570 0.950 . S
C577 C574 1.387 . S
C578 C579 1.387 . S
C578 H582 0.950 . S
C578 C587 1.390 . S
C579 C578 1.387 . S
C579 C581 1.387 . S
H580 C587 0.950 . S
C581 C579 1.387 . S
C581 C583 1.377 1_556 S
C581 H585 0.950 . S
H582 C578 0.950 . S
C583 C581 1.377 1_554 S
C583 C584 1.390 . S
C583 H586 0.962 . S
C584 C583 1.390 . S
C584 C587 1.387 1_554 S
H585 C581 0.950 . S
H586 C583 0.962 . S
C587 C578 1.390 . S
C587 H580 0.950 . S
C587 C584 1.387 1_556 S
C588 C589 1.387 . S
C588 H592 0.950 . S
C588 C597 1.390 . S
C589 C588 1.387 . S
C589 C591 1.387 . S
H590 C597 0.950 . S
C591 C589 1.387 . S
C591 C593 1.390 . S
C591 H595 0.950 . S
H592 C588 0.950 . S
C593 C591 1.390 . S
C593 C594 1.387 . S
C593 H596 0.950 . S
C594 C593 1.387 . S
C594 C597 1.387 . S
H595 C591 0.950 . S
H596 C593 0.950 . S
C597 C588 1.390 . S
C597 H590 0.950 . S
C597 C594 1.387 . S
C598 C599 1.387 1_556 S
C598 H602 0.950 . S
C598 C607 1.390 . S
C599 C598 1.387 1_554 S
C599 C601 1.387 . S
H600 C607 0.950 . S
C601 C599 1.387 . S
C601 C603 1.390 . S
C601 H605 0.950 . S
H602 C598 0.950 . S
C603 C601 1.390 . S
C603 C604 1.387 1_554 S
C603 H606 0.950 . S
C604 C603 1.387 1_556 S
C604 C607 1.387 . S
H605 C601 0.950 . S
H606 C603 0.950 . S
C607 C598 1.390 . S
C607 H600 0.950 . S
C607 C604 1.387 . S
C608 C609 1.387 . S
C608 H612 0.950 . S
C608 C617 1.390 . S
C609 C608 1.387 . S
C609 C611 1.387 . S
H610 C617 0.950 . S
C611 C609 1.387 . S
C611 C613 1.390 . S
C611 H615 0.950 . S
H612 C608 0.950 . S
C613 C611 1.390 . S
C613 C614 1.387 . S
C613 H616 0.950 . S
C614 C613 1.387 . S
C614 C617 1.387 . S
H615 C611 0.950 . S
H616 C613 0.950 . S
C617 C608 1.390 . S
C617 H610 0.950 . S
C617 C614 1.387 . S
C618 C619 1.387 . S
C618 H622 0.950 . S
C618 C627 1.390 . S
C619 C618 1.387 . S
C619 C621 1.387 . S
H620 C627 0.950 . S
C621 C619 1.387 . S
C621 C623 1.390 . S
C621 H625 0.950 . S
H622 C618 0.950 . S
C623 C621 1.390 . S
C623 C624 1.387 1_655 S
C623 H626 0.950 1_655 S
C624 C623 1.387 1_455 S
C624 C627 1.387 1_455 S
H625 C621 0.950 . S
H626 C623 0.950 1_455 S
C627 C618 1.390 . S
C627 H620 0.950 . S
C627 C624 1.387 1_655 S
C628 C629 1.387 . S
C628 H632 0.950 . S
C628 C637 1.390 . S
C629 C628 1.387 . S
C629 C631 1.387 . S
H630 C637 0.950 . S
C631 C629 1.387 . S
C631 C633 1.390 . S
C631 H635 0.950 . S
H632 C628 0.950 . S
C633 C631 1.390 . S
C633 C634 1.387 . S
C633 H636 0.950 . S
C634 C633 1.387 . S
C634 C637 1.387 . S
H635 C631 0.950 . S
H636 C633 0.950 . S
C637 C628 1.390 . S
C637 H630 0.950 . S
C637 C634 1.387 . S
C638 C639 1.387 . S
C638 H642 0.950 . S
C638 C647 1.390 . S
C639 C638 1.387 . S
C639 C641 1.387 1_455 S
H640 C647 0.950 . S
C641 C639 1.387 1_655 S
C641 C643 1.390 . S
C641 H645 0.950 . S
H642 C638 0.950 . S
C643 C641 1.390 . S
C643 C644 1.387 . S
C643 H646 0.950 . S
C644 C643 1.387 . S
C644 C647 1.387 1_655 S
H645 C641 0.950 . S
H646 C643 0.950 . S
C647 C638 1.390 . S
C647 H640 0.950 . S
C647 C644 1.387 1_455 S
C648 C649 1.387 . S
C648 H652 0.950 . S
C648 C657 1.390 . S
C649 C648 1.387 . S
C649 C651 1.387 . S
H650 C657 0.950 . S
C651 C649 1.387 . S
C651 C653 1.390 . S
C651 H655 0.950 . S
H652 C648 0.950 . S
C653 C651 1.390 . S
C653 C654 1.387 . S
C653 H656 0.950 . S
C654 C653 1.387 . S
C654 C657 1.387 . S
H655 C651 0.950 . S
H656 C653 0.950 . S
C657 C648 1.390 . S
C657 H650 0.950 . S
C657 C654 1.387 . S
C658 C659 1.387 . S
C658 H662 0.950 . S
C658 C667 1.390 . S
C659 C658 1.387 . S
C659 C661 1.387 . S
H660 C667 0.950 . S
C661 C659 1.387 . S
C661 C663 1.390 . S
C661 H665 0.950 . S
H662 C658 0.950 . S
C663 C661 1.390 . S
C663 C664 1.387 . S
C663 H666 0.950 . S
C664 C663 1.387 . S
C664 C667 1.387 . S
H665 C661 0.950 . S
H666 C663 0.950 . S
C667 C658 1.390 . S
C667 H660 0.950 . S
C667 C664 1.387 . S
C668 C669 1.387 . S
C668 H672 0.950 . S
C668 C677 1.390 . S
C669 C668 1.387 . S
C669 C671 1.387 . S
H670 C677 0.950 . S
C671 C669 1.387 . S
C671 C673 1.390 1_565 S
C671 H675 0.950 1_565 S
H672 C668 0.950 . S
C673 C671 1.390 1_545 S
C673 C674 1.387 . S
C673 H676 0.950 . S
C674 C673 1.387 . S
C674 C677 1.387 1_545 S
H675 C671 0.950 1_545 S
H676 C673 0.950 . S
C677 C668 1.390 . S
C677 H670 0.950 . S
C677 C674 1.387 1_565 S
C678 C679 1.387 1_545 S
C678 H682 0.950 . S
C678 C687 1.390 . S
C679 C678 1.387 1_565 S
C679 C681 1.387 . S
H680 C687 0.950 . S
C681 C679 1.387 . S
C681 C683 1.390 . S
C681 H685 0.950 . S
H682 C678 0.950 . S
C683 C681 1.390 . S
C683 C684 1.387 1_565 S
C683 H686 0.950 . S
C684 C683 1.387 1_545 S
C684 C687 1.387 . S
H685 C681 0.950 . S
H686 C683 0.950 . S
C687 C678 1.390 . S
C687 H680 0.950 . S
C687 C684 1.387 . S
C688 C689 1.387 . S
C688 H692 0.950 . S
C688 C697 1.390 . S
C689 C688 1.387 . S
C689 C691 1.387 . S
H690 C697 0.950 . S
C691 C689 1.387 . S
C691 C693 1.390 . S
C691 H695 0.950 . S
H692 C688 0.950 . S
C693 C691 1.390 . S
C693 C694 1.387 . S
C693 H696 0.950 . S
C694 C693 1.387 . S
C694 C697 1.387 . S
H695 C691 0.950 . S
H696 C693 0.950 . S
C697 C688 1.390 . S
C697 H690 0.950 . S
C697 C694 1.387 . S
C698 C699 1.387 1_554 S
C698 H702 0.950 . S
C698 C707 1.390 . S
C699 C698 1.387 1_556 S
C699 C701 1.387 . S
H700 C707 0.950 . S
C701 C699 1.387 . S
C701 C703 1.405 . S
C701 H705 0.950 . S
H702 C698 0.950 . S
C703 C701 1.405 . S
C703 C704 1.361 1_556 S
C703 H706 0.962 . S
C704 C703 1.361 1_554 S
C704 C707 1.387 . S
H705 C701 0.950 . S
H706 C703 0.962 . S
C707 C698 1.390 . S
C707 H700 0.950 . S
C707 C704 1.387 . S
C708 C709 1.387 . S
C708 H712 0.950 . S
C708 C717 1.390 . S
C709 C708 1.387 . S
C709 C711 1.387 . S
H710 C717 0.950 . S
C711 C709 1.387 . S
C711 C713 1.390 . S
C711 H715 0.950 . S
H712 C708 0.950 . S
C713 C711 1.390 . S
C713 C714 1.387 . S
C713 H716 0.950 . S
C714 C713 1.387 . S
C714 C717 1.387 . S
H715 C711 0.950 . S
H716 C713 0.950 . S
C717 C708 1.390 . S
C717 H710 0.950 . S
C717 C714 1.387 . S
C718 C719 1.387 . S
C718 H722 0.950 . S
C718 C727 1.390 . S
C719 C718 1.387 . S
C719 C721 1.387 1_554 S
H720 C727 0.950 . S
C721 C719 1.387 1_556 S
C721 C723 1.390 . S
C721 H725 0.950 . S
H722 C718 0.950 . S
C723 C721 1.390 . S
C723 C724 1.387 . S
C723 H726 0.950 . S
C724 C723 1.387 . S
C724 C727 1.387 1_556 S
H725 C721 0.950 . S
H726 C723 0.950 . S
C727 C718 1.390 . S
C727 H720 0.950 . S
C727 C724 1.387 1_554 S
C728 C729 1.387 . S
C728 H732 0.950 . S
C728 C737 1.390 . S
C729 C728 1.387 . S
C729 C731 1.387 . S
H730 C737 0.950 . S
C731 C729 1.387 . S
C731 C733 1.390 . S
C731 H735 0.950 . S
H732 C728 0.950 . S
C733 C731 1.390 . S
C733 C734 1.387 . S
C733 H736 0.950 . S
C734 C733 1.387 . S
C734 C737 1.387 . S
H735 C731 0.950 . S
H736 C733 0.950 . S
C737 C728 1.390 . S
C737 H730 0.950 . S
C737 C734 1.387 . S
C738 C739 1.387 1_455 S
C738 H742 0.950 . S
C738 C747 1.390 . S
C739 C738 1.387 1_655 S
C739 C741 1.387 . S
H740 C747 0.950 . S
C741 C739 1.387 . S
C741 C743 1.390 . S
C741 H745 0.950 . S
H742 C738 0.950 . S
C743 C741 1.390 . S
C743 C744 1.387 1_655 S
C743 H746 0.950 . S
C744 C743 1.387 1_455 S
C744 C747 1.387 . S
H745 C741 0.950 . S
H746 C743 0.950 . S
C747 C738 1.390 . S
C747 H740 0.950 . S
C747 C744 1.387 . S
C748 C749 1.387 . S
C748 H752 0.950 . S
C748 C757 1.390 . S
C749 C748 1.387 . S
C749 C751 1.387 . S
H750 C757 0.950 . S
C751 C749 1.387 . S
C751 C753 1.390 . S
C751 H755 0.950 . S
H752 C748 0.950 . S
C753 C751 1.390 . S
C753 C754 1.387 . S
C753 H756 0.950 . S
C754 C753 1.387 . S
C754 C757 1.387 . S
H755 C751 0.950 . S
H756 C753 0.950 . S
C757 C748 1.390 . S
C757 H750 0.950 . S
C757 C754 1.387 . S
C758 C759 1.387 . S
C758 H762 0.950 . S
C758 C767 1.390 . S
C759 C758 1.387 . S
C759 C761 1.377 1_655 S
H760 C767 0.950 . S
C761 C759 1.377 1_455 S
C761 C763 1.396 . S
C761 H765 0.954 . S
H762 C758 0.950 . S
C763 C761 1.396 . S
C763 C764 1.387 . S
C763 H766 0.950 . S
C764 C763 1.387 . S
C764 C767 1.387 1_455 S
H765 C761 0.954 . S
H766 C763 0.950 . S
C767 C758 1.390 . S
C767 H760 0.950 . S
C767 C764 1.387 1_655 S
C768 C769 1.387 . S
C768 H772 0.950 . S
C768 C777 1.390 . S
C769 C768 1.387 . S
C769 C771 1.387 . S
H770 C777 0.950 . S
C771 C769 1.387 . S
C771 C773 1.390 . S
C771 H775 0.950 . S
H772 C768 0.950 . S
C773 C771 1.390 . S
C773 C774 1.387 . S
C773 H776 0.950 . S
C774 C773 1.387 . S
C774 C777 1.387 . S
H775 C771 0.950 . S
H776 C773 0.950 . S
C777 C768 1.390 . S
C777 H770 0.950 . S
C777 C774 1.387 . S
C778 C779 1.387 . S
C778 H782 0.950 . S
C778 C787 1.390 . S
C779 C778 1.387 . S
C779 C781 1.387 . S
H780 C787 0.950 . S
C781 C779 1.387 . S
C781 C783 1.390 . S
C781 H785 0.950 . S
H782 C778 0.950 . S
C783 C781 1.390 . S
C783 C784 1.387 . S
C783 H786 0.950 . S
C784 C783 1.387 . S
C784 C787 1.387 . S
H785 C781 0.950 . S
H786 C783 0.950 . S
C787 C778 1.390 . S
C787 H780 0.950 . S
C787 C784 1.387 . S
C788 C789 1.387 . S
C788 H792 0.950 . S
C788 C797 1.390 . S
C789 C788 1.387 . S
C789 C791 1.387 . S
H790 C797 0.950 . S
C791 C789 1.387 . S
C791 C793 1.390 . S
C791 H795 0.950 . S
H792 C788 0.950 . S
C793 C791 1.390 . S
C793 C794 1.387 . S
C793 H796 0.950 . S
C794 C793 1.387 . S
C794 C797 1.387 . S
H795 C791 0.950 . S
H796 C793 0.950 . S
C797 C788 1.390 . S
C797 H790 0.950 . S
C797 C794 1.387 . S
C798 C799 1.387 . S
C798 H802 0.950 . S
C798 C807 1.390 . S
C799 C798 1.387 . S
C799 C801 1.387 . S
H800 C807 0.950 . S
C801 C799 1.387 . S
C801 C803 1.390 . S
C801 H805 0.950 . S
H802 C798 0.950 . S
C803 C801 1.390 . S
C803 C804 1.387 . S
C803 H806 0.950 . S
C804 C803 1.387 . S
C804 C807 1.387 . S
H805 C801 0.950 . S
H806 C803 0.950 . S
C807 C798 1.390 . S
C807 H800 0.950 . S
C807 C804 1.387 . S
C808 C809 1.387 . S
C808 H812 0.950 . S
C808 C817 1.390 . S
C809 C808 1.387 . S
C809 C811 1.387 . S
H810 C817 0.950 . S
C811 C809 1.387 . S
C811 C813 1.390 . S
C811 H815 0.950 . S
H812 C808 0.950 . S
C813 C811 1.390 . S
C813 C814 1.387 . S
C813 H816 0.950 . S
C814 C813 1.387 . S
C814 C817 1.387 . S
H815 C811 0.950 . S
H816 C813 0.950 . S
C817 C808 1.390 . S
C817 H810 0.950 . S
C817 C814 1.387 . S
C818 C819 1.387 . S
C818 H822 0.950 . S
C818 C827 1.390 . S
C819 C818 1.387 . S
C819 C821 1.387 . S
H820 C827 0.950 . S
C821 C819 1.387 . S
C821 C823 1.390 . S
C821 H825 0.950 . S
H822 C818 0.950 . S
C823 C821 1.390 . S
C823 C824 1.387 . S
C823 H826 0.950 . S
C824 C823 1.387 . S
C824 C827 1.387 . S
H825 C821 0.950 . S
H826 C823 0.950 . S
C827 C818 1.390 . S
C827 H820 0.950 . S
C827 C824 1.387 . S
C828 C829 1.387 . S
C828 H832 0.950 . S
C828 C837 1.390 . S
C829 C828 1.387 . S
C829 C831 1.387 . S
H830 C837 0.950 . S
C831 C829 1.387 . S
C831 C833 1.390 . S
C831 H835 0.950 . S
H832 C828 0.950 . S
C833 C831 1.390 . S
C833 C834 1.387 . S
C833 H836 0.950 . S
C834 C833 1.387 . S
C834 C837 1.387 . S
H835 C831 0.950 . S
H836 C833 0.950 . S
C837 C828 1.390 . S
C837 H830 0.950 . S
C837 C834 1.387 . S
C838 C839 1.387 . S
C838 H842 0.950 . S
C838 C847 1.390 . S
C839 C838 1.387 . S
C839 C841 1.387 . S
H840 C847 0.950 . S
C841 C839 1.387 . S
C841 C843 1.390 . S
C841 H845 0.950 . S
H842 C838 0.950 . S
C843 C841 1.390 . S
C843 C844 1.387 . S
C843 H846 0.971 . S
C844 C843 1.387 . S
C844 C847 1.387 . S
H845 C841 0.950 . S
H846 C843 0.971 . S
C847 C838 1.390 . S
C847 H840 0.950 . S
C847 C844 1.387 . S
C848 C849 1.387 . S
C848 H852 0.950 . S
C848 C857 1.390 . S
C849 C848 1.387 . S
C849 C851 1.387 . S
H850 C857 0.950 . S
C851 C849 1.387 . S
C851 C853 1.390 . S
C851 H855 0.950 . S
H852 C848 0.950 . S
C853 C851 1.390 . S
C853 C854 1.387 . S
C853 H856 0.950 . S
C854 C853 1.387 . S
C854 C857 1.387 . S
H855 C851 0.950 . S
H856 C853 0.950 . S
C857 C848 1.390 . S
C857 H850 0.950 . S
C857 C854 1.387 . S
C858 C859 1.387 . S
C858 H862 0.950 . S
C858 C867 1.390 . S
C859 C858 1.387 . S
C859 C861 1.387 . S
H860 C867 0.950 . S
C861 C859 1.387 . S
C861 C863 1.390 . S
C861 H865 0.950 . S
H862 C858 0.950 . S
C863 C861 1.390 . S
C863 C864 1.387 . S
C863 H866 0.950 . S
C864 C863 1.387 . S
C864 C867 1.387 . S
H865 C861 0.950 . S
H866 C863 0.950 . S
C867 C858 1.390 . S
C867 H860 0.950 . S
C867 C864 1.387 . S
C868 C869 1.387 . S
C868 H872 0.950 . S
C868 C877 1.390 . S
C869 C868 1.387 . S
C869 C871 1.387 . S
H870 C877 0.950 . S
C871 C869 1.387 . S
C871 C873 1.390 . S
C871 H875 0.950 . S
H872 C868 0.950 . S
C873 C871 1.390 . S
C873 C874 1.387 . S
C873 H876 0.950 . S
C874 C873 1.387 . S
C874 C877 1.387 . S
H875 C871 0.950 . S
H876 C873 0.950 . S
C877 C868 1.390 . S
C877 H870 0.950 . S
C877 C874 1.387 . S
C878 C879 1.387 . S
C878 H882 0.950 . S
C878 C887 1.390 . S
C879 C878 1.387 . S
C879 C881 1.387 . S
H880 C887 0.950 . S
C881 C879 1.387 . S
C881 C883 1.390 . S
C881 H885 0.950 . S
H882 C878 0.950 . S
C883 C881 1.390 . S
C883 C884 1.387 . S
C883 H886 0.950 . S
C884 C883 1.387 . S
C884 C887 1.387 . S
H885 C881 0.950 . S
H886 C883 0.950 . S
C887 C878 1.390 . S
C887 H880 0.950 . S
C887 C884 1.387 . S
C888 C889 1.387 . S
C888 H892 0.950 . S
C888 C897 1.390 . S
C889 C888 1.387 . S
C889 C891 1.387 . S
H890 C897 0.950 . S
C891 C889 1.387 . S
C891 C893 1.390 . S
C891 H895 0.950 . S
H892 C888 0.950 . S
C893 C891 1.390 . S
C893 C894 1.387 . S
C893 H896 0.950 . S
C894 C893 1.387 . S
C894 C897 1.387 . S
H895 C891 0.950 . S
H896 C893 0.950 . S
C897 C888 1.390 . S
C897 H890 0.950 . S
C897 C894 1.387 . S
C898 C899 1.387 . S
C898 H902 0.950 . S
C898 C907 1.390 . S
C899 C898 1.387 . S
C899 C901 1.387 . S
H900 C907 0.950 . S
C901 C899 1.387 . S
C901 C903 1.390 . S
C901 H905 0.950 . S
H902 C898 0.950 . S
C903 C901 1.390 . S
C903 C904 1.387 . S
C903 H906 0.950 . S
C904 C903 1.387 . S
C904 C907 1.387 . S
H905 C901 0.950 . S
H906 C903 0.950 . S
C907 C898 1.390 . S
C907 H900 0.950 . S
C907 C904 1.387 . S
C908 C909 1.387 . S
C908 H912 0.950 . S
C908 C917 1.390 . S
C909 C908 1.387 . S
C909 C911 1.387 . S
H910 C917 0.950 . S
C911 C909 1.387 . S
C911 C913 1.390 . S
C911 H915 0.976 . S
H912 C908 0.950 . S
C913 C911 1.390 . S
C913 C914 1.387 . S
C913 H916 0.950 . S
C914 C913 1.387 . S
C914 C917 1.387 . S
H915 C911 0.976 . S
H916 C913 0.950 . S
C917 C908 1.390 . S
C917 H910 0.950 . S
C917 C914 1.387 . S
C918 C919 1.387 . S
C918 H922 0.950 . S
C918 C927 1.390 . S
C919 C918 1.387 . S
C919 C921 1.387 . S
H920 C927 0.950 . S
C921 C919 1.387 . S
C921 C923 1.390 . S
C921 H925 0.950 . S
H922 C918 0.950 . S
C923 C921 1.390 . S
C923 C924 1.387 . S
C923 H926 0.950 . S
C924 C923 1.387 . S
C924 C927 1.387 . S
H925 C921 0.950 . S
H926 C923 0.950 . S
C927 C918 1.390 . S
C927 H920 0.950 . S
C927 C924 1.387 . S
C928 C929 1.387 . S
C928 H932 0.950 . S
C928 C937 1.390 . S
C929 C928 1.387 . S
C929 C931 1.387 . S
H930 C937 0.950 . S
C931 C929 1.387 . S
C931 C933 1.390 . S
C931 H935 0.950 . S
H932 C928 0.950 . S
C933 C931 1.390 . S
C933 C934 1.387 . S
C933 H936 0.950 . S
C934 C933 1.387 . S
C934 C937 1.387 . S
H935 C931 0.950 . S
H936 C933 0.950 . S
C937 C928 1.390 . S
C937 H930 0.950 . S
C937 C934 1.387 . S
C938 C939 1.387 . S
C938 H942 0.950 . S
C938 C947 1.390 . S
C939 C938 1.387 . S
C939 C941 1.387 . S
H940 C947 0.950 . S
C941 C939 1.387 . S
C941 C943 1.390 . S
C941 H945 0.950 . S
H942 C938 0.950 . S
C943 C941 1.390 . S
C943 C944 1.387 . S
C943 H946 0.950 . S
C944 C943 1.387 . S
C944 C947 1.387 . S
H945 C941 0.950 . S
H946 C943 0.950 . S
C947 C938 1.390 . S
C947 H940 0.950 . S
C947 C944 1.387 . S
C948 C949 1.387 . S
C948 H952 0.950 . S
C948 C957 1.390 . S
C949 C948 1.387 . S
C949 C951 1.387 . S
H950 C957 0.950 . S
C951 C949 1.387 . S
C951 C953 1.390 . S
C951 H955 0.950 . S
H952 C948 0.950 . S
C953 C951 1.390 . S
C953 C954 1.387 . S
C953 H956 0.950 . S
C954 C953 1.387 . S
C954 C957 1.387 . S
H955 C951 0.950 . S
H956 C953 0.950 . S
C957 C948 1.390 . S
C957 H950 0.950 . S
C957 C954 1.387 . S
C958 C959 1.387 . S
C958 H962 0.959 . S
C958 C967 1.390 . S
C959 C958 1.387 . S
C959 C961 1.387 . S
H960 C967 0.950 . S
C961 C959 1.387 . S
C961 C963 1.390 . S
C961 H965 0.950 . S
H962 C958 0.959 . S
C963 C961 1.390 . S
C963 C964 1.387 . S
C963 H966 0.950 . S
C964 C963 1.387 . S
C964 C967 1.387 . S
H965 C961 0.950 . S
H966 C963 0.950 . S
C967 C958 1.390 . S
C967 H960 0.950 . S
C967 C964 1.387 . S
C968 C969 1.387 . S
C968 H972 0.950 . S
C968 C977 1.390 . S
C969 C968 1.387 . S
C969 C971 1.387 . S
H970 C977 0.950 . S
C971 C969 1.387 . S
C971 C973 1.390 . S
C971 H975 0.950 . S
H972 C968 0.950 . S
C973 C971 1.390 . S
C973 C974 1.387 . S
C973 H976 0.950 . S
C974 C973 1.387 . S
C974 C977 1.387 . S
H975 C971 0.950 . S
H976 C973 0.950 . S
C977 C968 1.390 . S
C977 H970 0.950 . S
C977 C974 1.387 . S
C978 C979 1.387 . S
C978 H982 0.950 . S
C978 C987 1.390 . S
C979 C978 1.387 . S
C979 C981 1.387 . S
H980 C987 0.950 . S
C981 C979 1.387 . S
C981 C983 1.390 . S
C981 H985 0.950 . S
H982 C978 0.950 . S
C983 C981 1.390 . S
C983 C984 1.387 . S
C983 H986 0.950 . S
C984 C983 1.387 . S
C984 C987 1.387 . S
H985 C981 0.950 . S
H986 C983 0.950 . S
C987 C978 1.390 . S
C987 H980 0.950 . S
C987 C984 1.387 . S
C988 C989 1.387 . S
C988 H992 0.950 . S
C988 C997 1.390 . S
C989 C988 1.387 . S
C989 C991 1.387 . S
H990 C997 0.950 . S
C991 C989 1.387 . S
C991 C993 1.390 . S
C991 H995 0.950 . S
H992 C988 0.950 . S
C993 C991 1.390 . S
C993 C994 1.387 . S
C993 H996 0.950 . S
C994 C993 1.387 . S
C994 C997 1.387 . S
H995 C991 0.950 . S
H996 C993 0.950 . S
C997 C988 1.390 . S
C997 H990 0.950 . S
C997 C994 1.387 . S
C998 C999 1.387 . S
C998 H1002 0.950 . S
C998 C1007 1.390 . S
C999 C998 1.387 . S
C999 C1001 1.387 . S
H1000 C1007 0.950 . S
C1001 C999 1.387 . S
C1001 C1003 1.390 . S
C1001 H1005 0.950 . S
H1002 C998 0.950 . S
C1003 C1001 1.390 . S
C1003 C1004 1.387 . S
C1003 H1006 0.950 . S
C1004 C1003 1.387 . S
C1004 C1007 1.387 . S
H1005 C1001 0.950 . S
H1006 C1003 0.950 . S
C1007 C998 1.390 . S
C1007 H1000 0.950 . S
C1007 C1004 1.387 . S
C1008 C1009 1.387 . S
C1008 H1012 0.950 . S
C1008 C1017 1.399 . S
C1009 C1008 1.387 . S
C1009 C1011 1.387 1_455 S
H1010 C1017 0.951 . S
C1011 C1009 1.387 1_655 S
C1011 C1013 1.390 . S
C1011 H1015 0.950 . S
H1012 C1008 0.950 . S
C1013 C1011 1.390 . S
C1013 C1014 1.387 . S
C1013 H1016 0.950 . S
C1014 C1013 1.387 . S
C1014 C1017 1.378 1_655 S
H1015 C1011 0.950 . S
H1016 C1013 0.950 . S
C1017 C1008 1.399 . S
C1017 H1010 0.951 . S
C1017 C1014 1.378 1_455 S
C1018 C1019 1.387 . S
C1018 H1022 0.950 . S
C1018 C1027 1.390 . S
C1019 C1018 1.387 . S
C1019 C1021 1.387 . S
H1020 C1027 0.950 . S
C1021 C1019 1.387 . S
C1021 C1023 1.390 . S
C1021 H1025 0.950 . S
H1022 C1018 0.950 . S
C1023 C1021 1.390 . S
C1023 C1024 1.387 . S
C1023 H1026 0.950 . S
C1024 C1023 1.387 . S
C1024 C1027 1.387 . S
H1025 C1021 0.950 . S
H1026 C1023 0.950 . S
C1027 C1018 1.390 . S
C1027 H1020 0.950 . S
C1027 C1024 1.387 . S
C1028 C1029 1.387 . S
C1028 H1032 0.950 . S
C1028 C1037 1.390 . S
C1029 C1028 1.387 . S
C1029 C1031 1.387 . S
H1030 C1037 0.950 . S
C1031 C1029 1.387 . S
C1031 C1033 1.390 . S
C1031 H1035 0.950 . S
H1032 C1028 0.950 . S
C1033 C1031 1.390 . S
C1033 C1034 1.387 . S
C1033 H1036 0.950 . S
C1034 C1033 1.387 . S
C1034 C1037 1.387 . S
H1035 C1031 0.950 . S
H1036 C1033 0.950 . S
C1037 C1028 1.390 . S
C1037 H1030 0.950 . S
C1037 C1034 1.387 . S
C1038 C1039 1.387 . S
C1038 H1042 0.950 . S
C1038 C1047 1.390 1_455 S
C1039 C1038 1.387 . S
C1039 C1041 1.387 . S
H1040 C1047 0.950 . S
C1041 C1039 1.387 . S
C1041 C1043 1.390 1_455 S
C1041 H1045 0.950 . S
H1042 C1038 0.950 . S
C1043 C1041 1.390 1_655 S
C1043 C1044 1.387 . S
C1043 H1046 0.950 . S
C1044 C1043 1.387 . S
C1044 C1047 1.387 . S
H1045 C1041 0.950 . S
H1046 C1043 0.950 . S
C1047 C1038 1.390 1_655 S
C1047 H1040 0.950 . S
C1047 C1044 1.387 . S
C1048 C1049 1.387 . S
C1048 H1052 0.950 . S
C1048 C1057 1.390 . S
C1049 C1048 1.387 . S
C1049 C1051 1.387 1_545 S
H1050 C1057 0.950 . S
C1051 C1049 1.387 1_565 S
C1051 C1053 1.390 . S
C1051 H1055 0.950 . S
H1052 C1048 0.950 . S
C1053 C1051 1.390 . S
C1053 C1054 1.387 . S
C1053 H1056 0.950 . S
C1054 C1053 1.387 . S
C1054 C1057 1.387 1_565 S
H1055 C1051 0.950 . S
H1056 C1053 0.950 . S
C1057 C1048 1.390 . S
C1057 H1050 0.950 . S
C1057 C1054 1.387 1_545 S
C1058 C1059 1.387 1_565 S
C1058 H1062 0.950 . S
C1058 C1067 1.390 . S
C1059 C1058 1.387 1_545 S
C1059 C1061 1.387 . S
H1060 C1067 0.950 . S
C1061 C1059 1.387 . S
C1061 C1063 1.390 . S
C1061 H1065 0.950 . S
H1062 C1058 0.950 . S
C1063 C1061 1.390 . S
C1063 C1064 1.387 1_545 S
C1063 H1066 0.950 . S
C1064 C1063 1.387 1_565 S
C1064 C1067 1.387 . S
H1065 C1061 0.950 . S
H1066 C1063 0.950 . S
C1067 C1058 1.390 . S
C1067 H1060 0.950 . S
C1067 C1064 1.387 . S
C1068 C1069 1.387 . S
C1068 H1072 0.950 . S
C1068 C1077 1.390 . S
C1069 C1068 1.387 . S
C1069 C1071 1.387 . S
H1070 C1077 0.950 . S
C1071 C1069 1.387 . S
C1071 C1073 1.390 . S
C1071 H1075 0.950 . S
H1072 C1068 0.950 . S
C1073 C1071 1.390 . S
C1073 C1074 1.387 . S
C1073 H1076 0.950 . S
C1074 C1073 1.387 . S
C1074 C1077 1.387 . S
H1075 C1071 0.950 . S
H1076 C1073 0.950 . S
C1077 C1068 1.390 . S
C1077 H1070 0.950 . S
C1077 C1074 1.387 . S
C1078 C1079 1.387 . S
C1078 H1082 0.950 . S
C1078 C1087 1.390 . S
C1079 C1078 1.387 . S
C1079 C1081 1.387 . S
H1080 C1087 0.950 . S
C1081 C1079 1.387 . S
C1081 C1083 1.390 . S
C1081 H1085 0.950 . S
H1082 C1078 0.950 . S
C1083 C1081 1.390 . S
C1083 C1084 1.387 . S
C1083 H1086 0.950 . S
C1084 C1083 1.387 . S
C1084 C1087 1.387 . S
H1085 C1081 0.950 . S
H1086 C1083 0.950 . S
C1087 C1078 1.390 . S
C1087 H1080 0.950 . S
C1087 C1084 1.387 . S
C1088 C1089 1.387 . S
C1088 H1092 0.950 . S
C1088 C1097 1.390 . S
C1089 C1088 1.387 . S
C1089 C1091 1.387 1_554 S
H1090 C1097 0.950 . S
C1091 C1089 1.387 1_556 S
C1091 C1093 1.390 . S
C1091 H1095 0.950 . S
H1092 C1088 0.950 . S
C1093 C1091 1.390 . S
C1093 C1094 1.387 . S
C1093 H1096 0.950 . S
C1094 C1093 1.387 . S
C1094 C1097 1.387 1_556 S
H1095 C1091 0.950 . S
H1096 C1093 0.950 . S
C1097 C1088 1.390 . S
C1097 H1090 0.950 . S
C1097 C1094 1.387 1_554 S
C1098 C1099 1.387 1_554 S
C1098 H1102 0.950 . S
C1098 C1107 1.390 . S
C1099 C1098 1.387 1_556 S
C1099 C1101 1.387 . S
H1100 C1107 0.950 . S
C1101 C1099 1.387 . S
C1101 C1103 1.390 . S
C1101 H1105 0.950 . S
H1102 C1098 0.950 . S
C1103 C1101 1.390 . S
C1103 C1104 1.387 1_556 S
C1103 H1106 0.950 . S
C1104 C1103 1.387 1_554 S
C1104 C1107 1.387 . S
H1105 C1101 0.950 . S
H1106 C1103 0.950 . S
C1107 C1098 1.390 . S
C1107 H1100 0.950 . S
C1107 C1104 1.387 . S
C1108 C1109 1.387 . S
C1108 H1112 0.950 . S
C1108 C1117 1.390 . S
C1109 C1108 1.387 . S
C1109 C1111 1.387 . S
H1110 C1117 0.950 . S
C1111 C1109 1.387 . S
C1111 C1113 1.390 . S
C1111 H1115 0.950 . S
H1112 C1108 0.950 . S
C1113 C1111 1.390 . S
C1113 C1114 1.387 . S
C1113 H1116 0.950 . S
C1114 C1113 1.387 . S
C1114 C1117 1.387 . S
H1115 C1111 0.950 . S
H1116 C1113 0.950 . S
C1117 C1108 1.390 . S
C1117 H1110 0.950 . S
C1117 C1114 1.387 . S
C1118 C1119 1.387 . S
C1118 H1122 0.950 . S
C1118 C1127 1.390 . S
C1119 C1118 1.387 . S
C1119 C1121 1.387 . S
H1120 C1127 0.950 . S
C1121 C1119 1.387 . S
C1121 C1123 1.390 . S
C1121 H1125 0.950 . S
H1122 C1118 0.950 . S
C1123 C1121 1.390 . S
C1123 C1124 1.387 . S
C1123 H1126 0.950 . S
C1124 C1123 1.387 . S
C1124 C1127 1.387 . S
H1125 C1121 0.950 . S
H1126 C1123 0.950 . S
C1127 C1118 1.390 . S
C1127 H1120 0.950 . S
C1127 C1124 1.387 . S
C1128 C1129 1.387 . S
C1128 H1132 0.950 . S
C1128 C1137 1.390 1_655 S
C1129 C1128 1.387 . S
C1129 C1131 1.387 . S
H1130 C1137 0.950 . S
C1131 C1129 1.387 . S
C1131 C1133 1.390 1_655 S
C1131 H1135 0.950 . S
H1132 C1128 0.950 . S
C1133 C1131 1.390 1_455 S
C1133 C1134 1.387 . S
C1133 H1136 0.950 . S
C1134 C1133 1.387 . S
C1134 C1137 1.387 . S
H1135 C1131 0.950 . S
H1136 C1133 0.950 . S
C1137 C1128 1.390 1_455 S
C1137 H1130 0.950 . S
C1137 C1134 1.387 . S
C1138 C1139 1.387 . S
C1138 H1142 0.950 . S
C1138 C1147 1.390 . S
C1139 C1138 1.387 . S
C1139 C1141 1.387 . S
H1140 C1147 0.950 . S
C1141 C1139 1.387 . S
C1141 C1143 1.390 . S
C1141 H1145 0.950 . S
H1142 C1138 0.950 . S
C1143 C1141 1.390 . S
C1143 C1144 1.387 . S
C1143 H1146 0.950 . S
C1144 C1143 1.387 . S
C1144 C1147 1.387 . S
H1145 C1141 0.950 . S
H1146 C1143 0.950 . S
C1147 C1138 1.390 . S
C1147 H1140 0.950 . S
C1147 C1144 1.387 . S
C1148 C1149 1.387 . S
C1148 H1152 0.950 . S
C1148 C1157 1.390 . S
C1149 C1148 1.387 . S
C1149 C1151 1.387 . S
H1150 C1157 0.950 . S
C1151 C1149 1.387 . S
C1151 C1153 1.390 . S
C1151 H1155 0.950 . S
H1152 C1148 0.950 . S
C1153 C1151 1.390 . S
C1153 C1154 1.387 . S
C1153 H1156 0.950 . S
C1154 C1153 1.387 . S
C1154 C1157 1.387 . S
H1155 C1151 0.950 . S
H1156 C1153 0.950 . S
C1157 C1148 1.390 . S
C1157 H1150 0.950 . S
C1157 C1154 1.387 . S
C1158 C1159 1.387 . S
C1158 H1162 0.950 . S
C1158 C1167 1.390 1_655 S
C1159 C1158 1.387 . S
C1159 C1161 1.387 . S
H1160 C1167 0.950 . S
C1161 C1159 1.387 . S
C1161 C1163 1.399 . S
C1161 H1165 0.950 . S
H1162 C1158 0.950 . S
C1163 C1161 1.399 . S
C1163 C1164 1.379 1_655 S
C1163 H1166 0.950 . S
C1164 C1163 1.379 1_455 S
C1164 C1167 1.387 . S
H1165 C1161 0.950 . S
H1166 C1163 0.950 . S
C1167 C1158 1.390 1_455 S
C1167 H1160 0.950 . S
C1167 C1164 1.387 . S
C1168 C1169 1.387 1_545 S
C1168 H1172 0.950 . S
C1168 C1177 1.390 . S
C1169 C1168 1.387 1_565 S
C1169 C1171 1.387 . S
H1170 C1177 0.950 . S
C1171 C1169 1.387 . S
C1171 C1173 1.390 . S
C1171 H1175 0.950 . S
H1172 C1168 0.950 . S
C1173 C1171 1.390 . S
C1173 C1174 1.387 1_565 S
C1173 H1176 0.950 . S
C1174 C1173 1.387 1_545 S
C1174 C1177 1.387 . S
H1175 C1171 0.950 . S
H1176 C1173 0.950 . S
C1177 C1168 1.390 . S
C1177 H1170 0.950 . S
C1177 C1174 1.387 . S
C1178 C1179 1.387 1_565 S
C1178 H1182 0.950 . S
C1178 C1187 1.390 . S
C1179 C1178 1.387 1_545 S
C1179 C1181 1.387 . S
H1180 C1187 0.950 . S
C1181 C1179 1.387 . S
C1181 C1183 1.390 . S
C1181 H1185 0.950 . S
H1182 C1178 0.950 . S
C1183 C1181 1.390 . S
C1183 C1184 1.387 1_545 S
C1183 H1186 0.950 . S
C1184 C1183 1.387 1_565 S
C1184 C1187 1.387 . S
H1185 C1181 0.950 . S
H1186 C1183 0.950 . S
C1187 C1178 1.390 . S
C1187 H1180 0.950 . S
C1187 C1184 1.387 . S
C1188 C1189 1.387 . S
C1188 H1192 0.950 . S
C1188 C1197 1.390 . S
C1189 C1188 1.387 . S
C1189 C1191 1.387 . S
H1190 C1197 0.950 . S
C1191 C1189 1.387 . S
C1191 C1193 1.390 . S
C1191 H1195 0.950 . S
H1192 C1188 0.950 . S
C1193 C1191 1.390 . S
C1193 C1194 1.387 . S
C1193 H1196 0.950 . S
C1194 C1193 1.387 . S
C1194 C1197 1.387 . S
H1195 C1191 0.950 . S
H1196 C1193 0.950 . S
C1197 C1188 1.390 . S
C1197 H1190 0.950 . S
C1197 C1194 1.387 . S
C1198 C1199 1.387 . S
C1198 H1202 0.950 . S
C1198 C1207 1.390 . S
C1199 C1198 1.387 . S
C1199 C1201 1.387 . S
H1200 C1207 0.950 . S
C1201 C1199 1.387 . S
C1201 C1203 1.390 . S
C1201 H1205 0.950 . S
H1202 C1198 0.950 . S
C1203 C1201 1.390 . S
C1203 C1204 1.387 . S
C1203 H1206 0.950 . S
C1204 C1203 1.387 . S
C1204 C1207 1.387 . S
H1205 C1201 0.950 . S
H1206 C1203 0.950 . S
C1207 C1198 1.390 . S
C1207 H1200 0.950 . S
C1207 C1204 1.387 . S
C1208 C1209 1.387 . S
C1208 H1212 0.950 . S
C1208 C1217 1.390 . S
C1209 C1208 1.387 . S
C1209 C1211 1.387 1_556 S
H1210 C1217 0.950 . S
C1211 C1209 1.387 1_554 S
C1211 C1213 1.390 . S
C1211 H1215 0.950 . S
H1212 C1208 0.950 . S
C1213 C1211 1.390 . S
C1213 C1214 1.387 . S
C1213 H1216 0.950 . S
C1214 C1213 1.387 . S
C1214 C1217 1.387 1_554 S
H1215 C1211 0.950 . S
H1216 C1213 0.950 . S
C1217 C1208 1.390 . S
C1217 H1210 0.950 . S
C1217 C1214 1.387 1_556 S
C1218 C1219 1.387 1_554 S
C1218 H1222 0.950 . S
C1218 C1227 1.390 . S
C1219 C1218 1.387 1_556 S
C1219 C1221 1.387 . S
H1220 C1227 0.950 . S
C1221 C1219 1.387 . S
C1221 C1223 1.390 . S
C1221 H1225 0.950 . S
H1222 C1218 0.950 . S
C1223 C1221 1.390 . S
C1223 C1224 1.387 1_556 S
C1223 H1226 0.950 . S
C1224 C1223 1.387 1_554 S
C1224 C1227 1.387 . S
H1225 C1221 0.950 . S
H1226 C1223 0.950 . S
C1227 C1218 1.390 . S
C1227 H1220 0.950 . S
C1227 C1224 1.387 . S
C1228 C1229 1.387 . S
C1228 H1232 0.950 . S
C1228 C1237 1.390 . S
C1229 C1228 1.387 . S
C1229 C1231 1.387 . S
H1230 C1237 0.950 . S
C1231 C1229 1.387 . S
C1231 C1233 1.390 . S
C1231 H1235 0.950 . S
H1232 C1228 0.950 . S
C1233 C1231 1.390 . S
C1233 C1234 1.387 . S
C1233 H1236 0.950 . S
C1234 C1233 1.387 . S
C1234 C1237 1.387 . S
H1235 C1231 0.950 . S
H1236 C1233 0.950 . S
C1237 C1228 1.390 . S
C1237 H1230 0.950 . S
C1237 C1234 1.387 . S
C1238 C1239 1.387 . S
C1238 H1242 0.950 . S
C1238 C1247 1.390 . S
C1239 C1238 1.387 . S
C1239 C1241 1.387 . S
H1240 C1247 0.950 . S
C1241 C1239 1.387 . S
C1241 C1243 1.390 . S
C1241 H1245 0.950 . S
H1242 C1238 0.950 . S
C1243 C1241 1.390 . S
C1243 C1244 1.387 . S
C1243 H1246 0.950 . S
C1244 C1243 1.387 . S
C1244 C1247 1.387 . S
H1245 C1241 0.950 . S
H1246 C1243 0.950 . S
C1247 C1238 1.390 . S
C1247 H1240 0.950 . S
C1247 C1244 1.387 . S
C529 C7 1.286 . S
C534 C414 1.298 . S
C539 C426 1.298 . S
C544 C29 1.287 . S
C549 C65 1.286 . S
C554 C360 1.298 . S
C559 C81 1.286 . S
C564 C392 1.298 . S
C569 C494 1.298 . S
C574 C109 1.286 . S
C579 C125 1.286 . S
C584 C480 1.298 . S
C589 C514 1.298 . S
C594 C153 1.286 . S
C599 C175 1.288 . S
C604 C448 1.299 . S
C609 C197 1.288 . S
C614 C304 1.299 . S
C619 C205 1.286 . S
C624 C338 1.298 . S
C629 C316 1.298 . S
C634 C227 1.287 . S
C639 C257 1.286 . S
C644 C272 1.298 . S
C649 C285 1.286 . S
C654 C140 1.298 . S
C659 C293 1.288 . S
C664 C162 1.299 . S
C669 C329 1.288 . S
C674 C96 1.299 . S
C679 C120 1.299 . S
C684 C351 1.288 . S
C689 C373 1.286 . S
C694 C238 1.298 . S
C699 C216 1.299 . S
C704 C381 1.287 . S
C709 C252 1.299 . S
C714 C403 1.287 . S
C719 C184 1.298 . S
C724 C439 1.286 . S
C729 C40 1.300 . S
C734 C461 1.288 . S
C739 C76 1.299 . S
C744 C469 1.288 . S
C749 C52 1.299 . S
C754 C499 1.288 . S
C759 C527 1.287 . S
C764 C18 1.299 . S
C769 C433 1.234 . S
C774 C15 1.236 . S
C779 C417 1.231 . S
C784 C37 1.240 . S
C789 C51 1.237 . S
C794 C395 1.235 . S
C799 C367 1.235 . S
C804 C87 1.237 . S
C809 C95 1.237 . S
C814 C521 1.234 . S
C819 C131 1.240 . S
C824 C455 1.232 . S
C829 C491 1.234 . S
C834 C139 1.237 . S
C839 C161 1.240 . S
C844 C483 1.232 . S
C849 C323 1.234 . S
C854 C183 1.237 . S
C859 C279 1.234 . S
C864 C213 1.237 . S
C869 C307 1.231 . S
C874 C235 1.240 . S
C879 C345 1.234 . S
C884 C263 1.237 . S
C889 C271 1.237 . S
C894 C169 1.234 . S
C899 C301 1.240 . S
C904 C147 1.231 . S
C909 C117 1.235 . S
C914 C315 1.237 . S
C919 C103 1.232 . S
C924 C337 1.239 . S
C929 C249 1.234 . S
C934 C359 1.236 . S
C939 C389 1.237 . S
C944 C191 1.234 . S
C949 C241 1.232 . S
C954 C411 1.240 . S
C959 C219 1.232 . S
C964 C425 1.240 . S
C969 C447 1.239 . S
C974 C59 1.231 . S
C979 C477 1.237 . S
C984 C21 1.233 . S
C989 C43 1.235 . S
C994 C505 1.237 . S
C999 C73 1.234 . S
C1004 C513 1.237 . S
C1009 C10 1.221 . S
C1014 C206 1.222 . S
C1019 C228 1.223 . S
C1024 C32 1.220 . S
C1029 C186 1.221 . S
C1034 C62 1.221 . S
C1039 C260 1.220 . S
C1044 C74 1.221 . S
C1049 C106 1.220 . S
C1054 C84 1.223 . S
C1059 C54 1.222 . S
C1064 C118 1.220 . S
C1069 C150 1.222 . S
C1074 C30 1.220 . S
C1079 C8 1.220 . S
C1084 C172 1.221 . S
C1089 C194 1.219 . S
C1094 C128 1.223 . S
C1099 C208 1.222 . S
C1104 C164 1.220 . S
C1109 C230 1.219 . S
C1114 C142 1.223 . S
C1119 C250 1.219 . S
C1124 C98 1.222 . S
C1129 C282 1.221 . S
C1134 C470 1.222 . S
C1139 C296 1.221 . S
C1144 C502 1.221 . S
C1149 C450 1.220 . S
C1154 C326 1.222 . S
C1159 C516 1.220 . S
C1164 C348 1.221 . S
C1169 C370 1.219 . S
C1174 C340 1.223 . S
C1179 C384 1.220 . S
C1184 C318 1.223 . S
C1189 C294 1.223 . S
C1194 C406 1.220 . S
C1199 C436 1.222 . S
C1204 C274 1.220 . S
C1209 C458 1.222 . S
C1214 C382 1.221 . S
C1219 C428 1.221 . S
C1224 C472 1.222 . S
C1229 C492 1.222 . S
C1234 C404 1.222 . S
C1239 C524 1.219 . S
C1244 C362 1.223 . S
