# Generated by pormake.
# Topology vma, (5)-cn, num edge types: 1
# Building blocks:
#     Node 0, Type 0, BuildingBlock: BEQFEK_clean_sbu_0, # of connection points: 5
#     Node 1, Type 0, BuildingBlock: BEQFEK_clean_sbu_0, # of connection points: 5
#     Node 2, Type 0, BuildingBlock: BEQFEK_clean_sbu_0, # of connection points: 5
#     Node 3, Type 0, BuildingBlock: BEQFEK_clean_sbu_0, # of connection points: 5
#     Node 4, Type 0, BuildingBlock: BEQFEK_clean_sbu_0, # of connection points: 5
#     Node 5, Type 0, BuildingBlock: BEQFEK_clean_sbu_0, # of connection points: 5
#     Node 6, Type 0, BuildingBlock: BEQFEK_clean_sbu_0, # of connection points: 5
#     Node 7, Type 0, BuildingBlock: BEQFEK_clean_sbu_0, # of connection points: 5
#     Edge 8, Type (0, 0), BuildingBlock: XIVTED_clean_linker_0, # of connection points: 2
#     Edge 9, Type (0, 0), BuildingBlock: XIVTED_clean_linker_0, # of connection points: 2
#     Edge 10, Type (0, 0), BuildingBlock: XIVTED_clean_linker_0, # of connection points: 2
#     Edge 11, Type (0, 0), BuildingBlock: XIVTED_clean_linker_0, # of connection points: 2
#     Edge 12, Type (0, 0), BuildingBlock: XIVTED_clean_linker_0, # of connection points: 2
#     Edge 13, Type (0, 0), BuildingBlock: XIVTED_clean_linker_0, # of connection points: 2
#     Edge 14, Type (0, 0), BuildingBlock: XIVTED_clean_linker_0, # of connection points: 2
#     Edge 15, Type (0, 0), BuildingBlock: XIVTED_clean_linker_0, # of connection points: 2
#     Edge 16, Type (0, 0), BuildingBlock: XIVTED_clean_linker_0, # of connection points: 2
#     Edge 17, Type (0, 0), BuildingBlock: XIVTED_clean_linker_0, # of connection points: 2
#     Edge 18, Type (0, 0), BuildingBlock: XIVTED_clean_linker_0, # of connection points: 2
#     Edge 19, Type (0, 0), BuildingBlock: XIVTED_clean_linker_0, # of connection points: 2
#     Edge 20, Type (0, 0), BuildingBlock: XIVTED_clean_linker_0, # of connection points: 2
#     Edge 21, Type (0, 0), BuildingBlock: XIVTED_clean_linker_0, # of connection points: 2
#     Edge 22, Type (0, 0), BuildingBlock: XIVTED_clean_linker_0, # of connection points: 2
#     Edge 23, Type (0, 0), BuildingBlock: XIVTED_clean_linker_0, # of connection points: 2
#     Edge 24, Type (0, 0), BuildingBlock: XIVTED_clean_linker_0, # of connection points: 2
#     Edge 25, Type (0, 0), BuildingBlock: XIVTED_clean_linker_0, # of connection points: 2
#     Edge 26, Type (0, 0), BuildingBlock: XIVTED_clean_linker_0, # of connection points: 2
#     Edge 27, Type (0, 0), BuildingBlock: XIVTED_clean_linker_0, # of connection points: 2
# Relax obj value: 0.014
# Max RMSD: 0.085
# Mean RMSD: 0.085
data_MOF--net-vma--node1-BEQFEK_clean_sbu_0--edge1-XIVTED_clean_linker_0
_symmetry_space_group_name_H-M    P1
_symmetry_Int_Tables_number       1
_symmetry_cell_setting            triclinic
loop_
_symmetry_equiv_pos_as_xyz
'x, y, z'
_cell_length_a     37.634611
_cell_length_b     29.723248
_cell_length_c     42.981728
_cell_angle_alpha  89.975208
_cell_angle_beta   97.586335
_cell_angle_gamma 89.975506
loop_
_atom_site_label
_atom_site_type_symbol
_atom_site_fract_x
_atom_site_fract_y
_atom_site_fract_z
_atom_type_partial_charge
Co0 Co 0.37195 0.10833 0.36671 0.0
Co1 Co 0.31817 0.16014 0.31738 0.0
C2 C 0.39823 0.1611 0.31563 0.0
O3 O 0.40448 0.13706 0.34025 0.0
O4 O 0.36636 0.17205 0.30441 0.0
C5 C 0.43317 0.08475 0.41166 0.0
O6 O 0.45009 0.11558 0.39737 0.0
C7 C 0.28748 0.24273 0.28815 0.0
C8 C 0.23753 0.21832 0.26062 0.0
C9 C 0.25757 0.25702 0.26793 0.0
N10 N 0.28497 0.19807 0.29232 0.0
N11 N 0.25515 0.18363 0.27572 0.0
C12 C 0.31708 0.27059 0.30498 0.0
H13 H 0.33087 0.25202 0.32552 0.0
H14 H 0.30644 0.30287 0.31286 0.0
H15 H 0.33707 0.27787 0.28885 0.0
C16 C 0.33509 0.16128 0.41071 0.0
N17 N 0.34078 0.15069 0.38135 0.0
N18 N 0.3171 0.17154 0.36107 0.0
C19 C 0.29501 0.19554 0.37709 0.0
C20 C 0.30574 0.18986 0.4091 0.0
C21 C 0.35767 0.14438 0.43964 0.0
H22 H 0.35198 0.10817 0.44282 0.0
H23 H 0.3864 0.14783 0.43681 0.0
H24 H 0.35253 0.16326 0.46085 0.0
O25 O 0.3438 0.06084 0.34246 0.0
O26 O 0.30503 0.09642 0.30745 0.0
H27 H 0.24933 0.20026 0.34161 0.0
H28 H 0.24243 0.22404 0.37901 0.0
C29 C 0.2621 0.21948 0.36218 0.0
H30 H 0.26975 0.25311 0.35408 0.0
H31 H 0.24674 0.15016 0.27483 0.0
O32 O 0.40024 0.07717 0.40246 0.0
C33 C 0.31826 0.06014 0.31986 0.0
Co34 Co 0.62515 0.11585 0.13521 0.0
Co35 Co 0.67867 0.1695 0.18367 0.0
C36 C 0.59889 0.16592 0.18739 0.0
O37 O 0.5923 0.1425 0.16252 0.0
O38 O 0.63077 0.1777 0.19782 0.0
C39 C 0.56489 0.09428 0.08873 0.0
O40 O 0.54888 0.12809 0.10081 0.0
C41 C 0.70753 0.2529 0.21421 0.0
C42 C 0.7603 0.23033 0.23763 0.0
C43 C 0.73826 0.26777 0.23291 0.0
N44 N 0.71156 0.20895 0.20793 0.0
N45 N 0.74315 0.19571 0.22205 0.0
C46 C 0.6743 0.27937 0.20344 0.0
H47 H 0.65121 0.2569 0.19651 0.0
H48 H 0.67852 0.2997 0.18261 0.0
H49 H 0.66811 0.3026 0.22222 0.0
C50 C 0.66087 0.16927 0.09044 0.0
N51 N 0.65493 0.1595 0.11991 0.0
N52 N 0.67802 0.18154 0.13997 0.0
C53 C 0.69972 0.20585 0.1238 0.0
C54 C 0.68946 0.19902 0.09186 0.0
C55 C 0.64244 0.14598 0.06189 0.0
H56 H 0.64501 0.10904 0.06514 0.0
H57 H 0.61349 0.1545 0.05899 0.0
H58 H 0.65381 0.1555 0.04031 0.0
O59 O 0.65509 0.06941 0.15888 0.0
O60 O 0.69417 0.10624 0.1929 0.0
H61 H 0.74845 0.21256 0.15533 0.0
H62 H 0.74599 0.24876 0.12116 0.0
C63 C 0.7305 0.23365 0.13872 0.0
H64 H 0.72011 0.26132 0.15218 0.0
H65 H 0.75297 0.16295 0.22111 0.0
O66 O 0.59682 0.08416 0.09991 0.0
C67 C 0.68142 0.06954 0.18079 0.0
Co68 Co 0.62646 0.88534 0.63462 0.0
Co69 Co 0.67985 0.83028 0.68235 0.0
C70 C 0.60053 0.83351 0.68661 0.0
O71 O 0.59426 0.85771 0.66205 0.0
O72 O 0.63228 0.82116 0.69714 0.0
C73 C 0.56534 0.90727 0.58912 0.0
O74 O 0.54966 0.87342 0.60148 0.0
C75 C 0.70737 0.74952 0.71635 0.0
C76 C 0.7657 0.76235 0.72417 0.0
C77 C 0.73991 0.73052 0.72837 0.0
N78 N 0.7136 0.79076 0.70542 0.0
N79 N 0.74847 0.79851 0.71059 0.0
C80 C 0.67142 0.72725 0.71219 0.0
H81 H 0.6563 0.73699 0.68924 0.0
H82 H 0.67394 0.69008 0.71358 0.0
H83 H 0.65603 0.73896 0.73097 0.0
C84 C 0.66084 0.83198 0.58901 0.0
N85 N 0.65569 0.84188 0.61866 0.0
N86 N 0.67814 0.81837 0.6384 0.0
C87 C 0.69825 0.79242 0.62174 0.0
C88 C 0.68802 0.80027 0.58994 0.0
C89 C 0.64281 0.85636 0.56075 0.0
H90 H 0.6453 0.89317 0.56468 0.0
H91 H 0.61386 0.84783 0.55737 0.0
H92 H 0.65453 0.84767 0.53919 0.0
O93 O 0.6567 0.93132 0.65828 0.0
O94 O 0.69564 0.89346 0.69183 0.0
H95 H 0.74975 0.78101 0.64795 0.0
H96 H 0.73701 0.73942 0.6179 0.0
C97 C 0.72709 0.76111 0.6359 0.0
H98 H 0.71652 0.73927 0.65343 0.0
H99 H 0.76061 0.82782 0.70378 0.0
O100 O 0.59744 0.91735 0.59979 0.0
C101 C 0.68315 0.93052 0.68005 0.0
Co102 Co 0.37472 0.89002 0.86625 0.0
Co103 Co 0.32016 0.83792 0.81789 0.0
C104 C 0.40051 0.83711 0.81554 0.0
O105 O 0.40744 0.86034 0.84045 0.0
O106 O 0.36836 0.82729 0.80446 0.0
C107 C 0.43559 0.91476 0.91116 0.0
O108 O 0.45264 0.88332 0.89756 0.0
C109 C 0.2913 0.755 0.78759 0.0
C110 C 0.2388 0.77742 0.76338 0.0
C111 C 0.26091 0.7401 0.76848 0.0
N112 N 0.28704 0.79891 0.79369 0.0
N113 N 0.25562 0.81209 0.77919 0.0
C114 C 0.32515 0.72956 0.79801 0.0
H115 H 0.33024 0.72931 0.82404 0.0
H116 H 0.32431 0.69467 0.78894 0.0
H117 H 0.34798 0.74707 0.78947 0.0
C118 C 0.3382 0.83752 0.91107 0.0
N119 N 0.34354 0.84811 0.88159 0.0
N120 N 0.31998 0.82673 0.86158 0.0
C121 C 0.29841 0.80227 0.8778 0.0
C122 C 0.30927 0.80828 0.90976 0.0
C123 C 0.36083 0.85487 0.93981 0.0
H124 H 0.35498 0.8911 0.94277 0.0
H125 H 0.38954 0.85156 0.93689 0.0
H126 H 0.35589 0.83622 0.96118 0.0
O127 O 0.347 0.93691 0.84072 0.0
O128 O 0.30594 0.90127 0.80784 0.0
H129 H 0.25148 0.79793 0.84377 0.0
H130 H 0.24734 0.76969 0.88028 0.0
C131 C 0.2659 0.77747 0.863 0.0
H132 H 0.27435 0.74552 0.85285 0.0
H133 H 0.24577 0.84488 0.77989 0.0
O134 O 0.40273 0.92225 0.90158 0.0
C135 C 0.32053 0.93756 0.81893 0.0
Co136 Co 0.87473 0.61706 0.36527 0.0
Co137 Co 0.82075 0.66937 0.31637 0.0
C138 C 0.90057 0.66688 0.31277 0.0
O139 O 0.90729 0.64374 0.33777 0.0
O140 O 0.8686 0.67818 0.3022 0.0
C141 C 0.93572 0.59605 0.4111 0.0
O142 O 0.9518 0.62872 0.39784 0.0
C143 C 0.79116 0.75208 0.28535 0.0
C144 C 0.73886 0.72856 0.26158 0.0
C145 C 0.76048 0.76635 0.26631 0.0
N146 N 0.78753 0.70812 0.2918 0.0
N147 N 0.75621 0.6943 0.2775 0.0
C148 C 0.82405 0.7791 0.29622 0.0
H149 H 0.84724 0.75701 0.30376 0.0
H150 H 0.81928 0.7999 0.31668 0.0
H151 H 0.83039 0.80194 0.27727 0.0
C152 C 0.83874 0.67091 0.40959 0.0
N153 N 0.84458 0.66058 0.38019 0.0
N154 N 0.82119 0.68196 0.35996 0.0
C155 C 0.79933 0.7063 0.37597 0.0
C156 C 0.80986 0.70027 0.40795 0.0
C157 C 0.85772 0.64863 0.43835 0.0
H158 H 0.85521 0.6116 0.43578 0.0
H159 H 0.88664 0.65719 0.44068 0.0
H160 H 0.84673 0.65893 0.45995 0.0
O161 O 0.84523 0.56989 0.34202 0.0
O162 O 0.80591 0.60579 0.30761 0.0
H163 H 0.75072 0.71205 0.34415 0.0
H164 H 0.75237 0.74813 0.3783 0.0
C165 C 0.76824 0.73345 0.36085 0.0
H166 H 0.77833 0.76142 0.34747 0.0
H167 H 0.74674 0.66141 0.27848 0.0
O168 O 0.90343 0.58635 0.40085 0.0
C169 C 0.81895 0.56941 0.32006 0.0
Co170 Co 0.12638 0.6085 0.13347 0.0
Co171 Co 0.1811 0.66029 0.18192 0.0
C172 C 0.10094 0.66151 0.18448 0.0
O173 O 0.0942 0.63831 0.15957 0.0
O174 O 0.13303 0.67135 0.19573 0.0
C175 C 0.065 0.58848 0.08835 0.0
O176 O 0.05049 0.62283 0.10121 0.0
C177 C 0.21168 0.74376 0.21026 0.0
C178 C 0.26124 0.71958 0.23859 0.0
C179 C 0.24122 0.7581 0.23074 0.0
N180 N 0.21439 0.69907 0.20617 0.0
N181 N 0.24413 0.68486 0.2231 0.0
C182 C 0.18024 0.77119 0.19614 0.0
H183 H 0.15727 0.74934 0.1874 0.0
H184 H 0.18767 0.79049 0.17588 0.0
H185 H 0.17227 0.7954 0.21362 0.0
C186 C 0.16328 0.66047 0.08864 0.0
N187 N 0.15772 0.65019 0.11812 0.0
N188 N 0.18147 0.67126 0.13816 0.0
C189 C 0.20351 0.69496 0.12192 0.0
C190 C 0.19261 0.68905 0.08998 0.0
C191 C 0.14054 0.64337 0.05989 0.0
H192 H 0.14543 0.60681 0.05735 0.0
H193 H 0.11187 0.64808 0.0625 0.0
H194 H 0.14618 0.6612 0.03841 0.0
O195 O 0.15399 0.56115 0.15874 0.0
O196 O 0.19487 0.5968 0.19184 0.0
H197 H 0.24965 0.69888 0.15699 0.0
H198 H 0.25627 0.72267 0.11955 0.0
C199 C 0.23678 0.71838 0.13657 0.0
H200 H 0.22958 0.75209 0.14481 0.0
H201 H 0.25253 0.65135 0.22436 0.0
O202 O 0.09709 0.5773 0.09831 0.0
C203 C 0.18037 0.56051 0.18063 0.0
Co204 Co 0.12885 0.39447 0.6333 0.0
Co205 Co 0.17947 0.33798 0.68232 0.0
C206 C 0.10028 0.34488 0.68513 0.0
O207 O 0.09602 0.37091 0.66144 0.0
O208 O 0.1309 0.32847 0.69534 0.0
C209 C 0.06778 0.41983 0.58917 0.0
O210 O 0.05072 0.38959 0.60385 0.0
C211 C 0.20857 0.25417 0.71133 0.0
C212 C 0.25918 0.27729 0.73847 0.0
C213 C 0.23849 0.2391 0.73124 0.0
N214 N 0.21176 0.29877 0.70722 0.0
N215 N 0.24197 0.31242 0.72361 0.0
C216 C 0.17833 0.22708 0.69475 0.0
H217 H 0.16438 0.24617 0.67453 0.0
H218 H 0.18837 0.19471 0.68645 0.0
H219 H 0.15865 0.21996 0.7112 0.0
C220 C 0.16247 0.33817 0.58904 0.0
N221 N 0.1572 0.34892 0.61848 0.0
N222 N 0.17996 0.32644 0.63859 0.0
C223 C 0.20109 0.3012 0.62238 0.0
C224 C 0.19063 0.30779 0.59041 0.0
C225 C 0.14089 0.35709 0.56024 0.0
H226 H 0.14822 0.39292 0.55758 0.0
H227 H 0.11201 0.35555 0.56285 0.0
H228 H 0.14535 0.33825 0.53883 0.0
O229 O 0.15987 0.43989 0.65638 0.0
O230 O 0.19497 0.40126 0.69251 0.0
H231 H 0.24665 0.29406 0.65777 0.0
H232 H 0.25276 0.27023 0.62022 0.0
C233 C 0.23326 0.2756 0.63709 0.0
H234 H 0.22459 0.2423 0.64496 0.0
H235 H 0.25095 0.34566 0.72445 0.0
O236 O 0.10095 0.42655 0.59782 0.0
C237 C 0.18462 0.43849 0.67959 0.0
Co238 Co 0.8682 0.3919 0.86711 0.0
Co239 Co 0.82218 0.33071 0.81766 0.0
C240 C 0.90046 0.34378 0.81591 0.0
O241 O 0.90241 0.37071 0.83908 0.0
O242 O 0.87117 0.32438 0.80545 0.0
C243 C 0.92703 0.41092 0.91421 0.0
O244 O 0.94068 0.37473 0.90284 0.0
C245 C 0.7953 0.24697 0.78525 0.0
C246 C 0.74145 0.2686 0.76373 0.0
C247 C 0.7644 0.23193 0.76685 0.0
N248 N 0.79049 0.29031 0.79288 0.0
N249 N 0.75826 0.30294 0.77987 0.0
C250 C 0.82929 0.22125 0.79445 0.0
H251 H 0.85211 0.24427 0.80106 0.0
H252 H 0.82636 0.1998 0.81507 0.0
H253 H 0.83507 0.19912 0.77493 0.0
C254 C 0.83488 0.33435 0.91099 0.0
N255 N 0.84154 0.34451 0.88179 0.0
N256 N 0.82134 0.31936 0.86136 0.0
C257 C 0.80091 0.29246 0.87707 0.0
C258 C 0.80897 0.30093 0.90904 0.0
C259 C 0.84968 0.36036 0.93963 0.0
H260 H 0.84651 0.39691 0.93485 0.0
H261 H 0.87873 0.35308 0.94524 0.0
H262 H 0.83609 0.35177 0.96022 0.0
O263 O 0.8352 0.43552 0.84421 0.0
O264 O 0.80508 0.3934 0.80685 0.0
H265 H 0.75349 0.27935 0.84509 0.0
H266 H 0.75912 0.24258 0.87902 0.0
C267 C 0.77323 0.26059 0.86168 0.0
H268 H 0.7864 0.23532 0.84815 0.0
H269 H 0.74771 0.3351 0.78202 0.0
O270 O 0.89599 0.42407 0.90254 0.0
C271 C 0.81204 0.43144 0.81998 0.0
H272 H 0.21339 0.35637 0.54298 0.0
H273 H 0.28481 0.14138 0.45737 0.0
H274 H 0.20814 0.22096 0.57796 0.0
H275 H 0.28613 0.27617 0.42059 0.0
H276 H 0.25727 0.16982 0.50197 0.0
H277 H 0.24072 0.32782 0.49834 0.0
C278 C 0.21787 0.32053 0.5411 0.0
C279 C 0.20819 0.29083 0.56389 0.0
C280 C 0.26355 0.19326 0.48419 0.0
C281 C 0.23982 0.2579 0.51314 0.0
C282 C 0.27937 0.17706 0.45883 0.0
C283 C 0.28797 0.20663 0.43554 0.0
C284 C 0.25624 0.23943 0.48626 0.0
C285 C 0.27982 0.25235 0.43812 0.0
C286 C 0.23357 0.30425 0.5157 0.0
C287 C 0.21525 0.24488 0.5608 0.0
N288 N 0.26451 0.26742 0.46311 0.0
N289 N 0.23057 0.22976 0.53583 0.0
H290 H 0.75958 0.18737 0.08387 0.0
H291 H 0.7376 0.30446 0.91428 0.0
H292 H 0.66038 0.24445 0.03955 0.0
H293 H 0.83899 0.25977 0.96275 0.0
H294 H 0.70814 0.27931 0.9588 0.0
H295 H 0.78888 0.2112 0.03897 0.0
C296 C 0.74413 0.20537 0.06474 0.0
C297 C 0.70772 0.21451 0.0654 0.0
C298 C 0.7368 0.27479 0.9597 0.0
C299 C 0.74067 0.24107 0.01377 0.0
C300 C 0.75351 0.28882 0.93423 0.0
C301 C 0.7906 0.28368 0.93492 0.0
C302 C 0.75741 0.25554 0.98602 0.0
C303 C 0.81026 0.26409 0.96144 0.0
C304 C 0.76074 0.21872 0.03906 0.0
C305 C 0.68858 0.23699 0.03984 0.0
N306 N 0.79343 0.25069 0.98597 0.0
N307 N 0.70527 0.24951 0.01502 0.0
H308 H 0.65692 0.75859 0.5367 0.0
H309 H 0.83922 0.74787 0.45902 0.0
H310 H 0.75872 0.80579 0.58269 0.0
H311 H 0.74008 0.68817 0.41706 0.0
H312 H 0.80972 0.77174 0.50384 0.0
H313 H 0.68626 0.73455 0.49178 0.0
C314 C 0.68551 0.76368 0.53727 0.0
C315 C 0.70556 0.78392 0.5633 0.0
C316 C 0.79432 0.75357 0.4848 0.0
C317 C 0.73928 0.75688 0.51223 0.0
C318 C 0.81115 0.74006 0.45929 0.0
C319 C 0.79187 0.71647 0.43438 0.0
C320 C 0.75794 0.74335 0.48535 0.0
C321 C 0.75564 0.70693 0.43569 0.0
C322 C 0.70225 0.74999 0.51173 0.0
C323 C 0.74247 0.78985 0.5631 0.0
N324 N 0.7398 0.72043 0.46076 0.0
N325 N 0.75815 0.7765 0.53792 0.0
H326 H 0.28803 0.85624 0.95814 0.0
H327 H 0.2133 0.64098 0.04133 0.0
H328 H 0.29085 0.72155 0.92148 0.0
H329 H 0.21226 0.77537 0.07875 0.0
H330 H 0.24145 0.66973 0.99713 0.0
H331 H 0.26016 0.82735 0.00244 0.0
C332 C 0.2829 0.82049 0.95958 0.0
C333 C 0.29191 0.79111 0.93635 0.0
C334 C 0.23506 0.69301 0.01495 0.0
C335 C 0.25971 0.7578 0.9867 0.0
C336 C 0.21886 0.67664 0.04007 0.0
C337 C 0.2102 0.706 0.06346 0.0
C338 C 0.24273 0.73914 0.01324 0.0
C339 C 0.21858 0.7517 0.06115 0.0
C340 C 0.26687 0.80403 0.98477 0.0
C341 C 0.28417 0.74525 0.93894 0.0
N342 N 0.2343 0.76693 0.03642 0.0
N343 N 0.26855 0.72996 0.9637 0.0
H344 H 0.60383 0.20436 0.24579 0.0
H345 H 0.46974 0.16168 0.33781 0.0
H346 H 0.52669 0.15171 0.17141 0.0
H347 H 0.39564 0.18653 0.25404 0.0
H348 H 0.51952 0.17185 0.3075 0.0
H349 H 0.55589 0.21324 0.27843 0.0
C350 C 0.5768 0.19486 0.23622 0.0
C351 C 0.56944 0.17646 0.20596 0.0
C352 C 0.49244 0.17629 0.29586 0.0
C353 C 0.51454 0.18582 0.2435 0.0
C354 C 0.46395 0.17008 0.31313 0.0
C355 C 0.42845 0.17317 0.29843 0.0
C356 C 0.48543 0.18519 0.26353 0.0
C357 C 0.42258 0.18401 0.26635 0.0
C358 C 0.5495 0.19957 0.25503 0.0
C359 C 0.53375 0.16539 0.19474 0.0
N360 N 0.45079 0.18884 0.24984 0.0
N361 N 0.50765 0.17006 0.21358 0.0
H362 H 0.52856 0.83597 0.66605 0.0
H363 H 0.4725 0.83559 0.83638 0.0
H364 H 0.60432 0.80699 0.74805 0.0
H365 H 0.39619 0.81146 0.75393 0.0
H366 H 0.5213 0.82494 0.80476 0.0
H367 H 0.47959 0.82696 0.69765 0.0
C368 C 0.53488 0.82726 0.69063 0.0
C369 C 0.57062 0.82264 0.70449 0.0
C370 C 0.49388 0.82135 0.79369 0.0
C371 C 0.51469 0.81287 0.74087 0.0
C372 C 0.466 0.82755 0.8117 0.0
C373 C 0.43018 0.82484 0.79772 0.0
C374 C 0.48592 0.81324 0.76134 0.0
C375 C 0.42338 0.81402 0.76568 0.0
C376 C 0.5069 0.82197 0.70863 0.0
C377 C 0.57719 0.811 0.73641 0.0
N378 N 0.45098 0.80934 0.74846 0.0
N379 N 0.54951 0.80722 0.75365 0.0
H380 H 0.02951 0.66429 0.16231 0.0
H381 H 0.89571 0.70617 0.2546 0.0
H382 H 0.10393 0.68582 0.24635 0.0
H383 H 0.97275 0.6525 0.32874 0.0
H384 H 0.9437 0.71542 0.22206 0.0
H385 H 0.97988 0.67497 0.19267 0.0
C386 C 0.03541 0.67208 0.18708 0.0
C387 C 0.07094 0.67402 0.20183 0.0
C388 C 0.95006 0.70142 0.24538 0.0
C389 C 0.01411 0.68671 0.23681 0.0
C390 C 0.92272 0.6965 0.26413 0.0
C391 C 0.93004 0.67769 0.29428 0.0
C392 C 0.985 0.68741 0.25684 0.0
C393 C 0.96572 0.66647 0.30548 0.0
C394 C 0.007 0.67861 0.20438 0.0
C395 C 0.07696 0.68415 0.23401 0.0
N396 N 0.99183 0.67128 0.28668 0.0
N397 N 0.04879 0.68932 0.25055 0.0
H398 H 0.08714 0.27367 0.72317 0.0
H399 H 0.95427 0.40398 0.81333 0.0
H400 H 0.04475 0.40195 0.68873 0.0
H401 H 0.91799 0.27286 0.77956 0.0
H402 H 0.00299 0.39966 0.78099 0.0
H403 H 0.03823 0.26832 0.75614 0.0
C404 C 0.06748 0.30042 0.72238 0.0
C405 C 0.06987 0.33825 0.70316 0.0
C406 C 0.98454 0.37169 0.78106 0.0
C407 C 0.01528 0.33286 0.7411 0.0
C408 C 0.9569 0.37394 0.79954 0.0
C409 C 0.93196 0.33878 0.79899 0.0
C410 C 0.98788 0.3336 0.76253 0.0
C411 C 0.93657 0.30078 0.78045 0.0
C412 C 0.03973 0.29725 0.74105 0.0
C413 C 0.04379 0.37206 0.70301 0.0
N414 N 0.96419 0.29904 0.76293 0.0
N415 N 0.01796 0.36893 0.7221 0.0
H416 H 0.2284 0.84095 0.20193 0.0
H417 H 0.33323 0.97717 0.34569 0.0
H418 H 0.27578 0.77915 0.28845 0.0
H419 H 0.27205 0.04228 0.26613 0.0
H420 H 0.31277 0.90442 0.32444 0.0
H421 H 0.24419 0.9148 0.22436 0.0
C422 C 0.24139 0.84279 0.22585 0.0
C423 C 0.24996 0.80365 0.24359 0.0
C424 C 0.30367 0.93456 0.31163 0.0
C425 C 0.26932 0.88827 0.26903 0.0
C426 C 0.31541 0.97623 0.32374 0.0
C427 C 0.30449 0.01602 0.30761 0.0
C428 C 0.28098 0.93238 0.283 0.0
C429 C 0.28117 0.01252 0.27936 0.0
C430 C 0.25078 0.88509 0.23854 0.0
C431 C 0.2685 0.80837 0.27395 0.0
N432 N 0.27036 0.97139 0.26785 0.0
N433 N 0.27754 0.84982 0.28568 0.0
H434 H 0.731 0.05315 0.23263 0.0
H435 H 0.72254 0.78557 0.20963 0.0
H436 H 0.66615 0.98602 0.15608 0.0
H437 H 0.7764 0.84991 0.29269 0.0
H438 H 0.70574 0.85954 0.18774 0.0
H439 H 0.75266 0.97965 0.25291 0.0
C440 C 0.72147 0.02306 0.21999 0.0
C441 C 0.69653 0.02583 0.1927 0.0
C442 C 0.72154 0.85753 0.21065 0.0
C443 C 0.72119 0.94173 0.21576 0.0
C444 C 0.7311 0.81528 0.22317 0.0
C445 C 0.75158 0.81145 0.25277 0.0
C446 C 0.73226 0.89642 0.22794 0.0
C447 C 0.76176 0.85111 0.26935 0.0
C448 C 0.73377 0.98112 0.23162 0.0
C449 C 0.68516 0.98565 0.17731 0.0
N450 N 0.75197 0.89194 0.25672 0.0
N451 N 0.6975 0.94538 0.18907 0.0
H452 H 0.73423 0.94559 0.73111 0.0
H453 H 0.72437 0.21362 0.71107 0.0
H454 H 0.66764 0.01461 0.65645 0.0
H455 H 0.78372 0.14794 0.79117 0.0
H456 H 0.70726 0.14009 0.68883 0.0
H457 H 0.75695 0.0186 0.7515 0.0
C458 C 0.72452 0.97598 0.71891 0.0
C459 C 0.6988 0.97389 0.69211 0.0
C460 C 0.72434 0.14167 0.71114 0.0
C461 C 0.72468 0.0574 0.7153 0.0
C462 C 0.7341 0.18369 0.72386 0.0
C463 C 0.75606 0.18705 0.75277 0.0
C464 C 0.73631 0.10247 0.72756 0.0
C465 C 0.76775 0.14712 0.76837 0.0
C466 C 0.73746 0.01763 0.7306 0.0
C467 C 0.68725 0.01443 0.67728 0.0
N468 N 0.75765 0.10646 0.75561 0.0
N469 N 0.70019 0.05437 0.6891 0.0
H470 H 0.19495 0.16546 0.74001 0.0
H471 H 0.35505 0.0183 0.82554 0.0
H472 H 0.30568 0.20772 0.75016 0.0
H473 H 0.25663 0.95726 0.78238 0.0
H474 H 0.33436 0.0906 0.80338 0.0
H475 H 0.21429 0.09122 0.75977 0.0
C476 C 0.22331 0.15915 0.7456 0.0
C477 C 0.24873 0.19298 0.74254 0.0
C478 C 0.31729 0.0614 0.7987 0.0
C479 C 0.27082 0.10837 0.76667 0.0
C480 C 0.32899 0.02009 0.81149 0.0
C481 C 0.30755 0.98157 0.80581 0.0
C482 C 0.28364 0.06461 0.7804 0.0
C483 C 0.27407 0.98606 0.78726 0.0
C484 C 0.23428 0.11672 0.75729 0.0
C485 C 0.28503 0.18287 0.75196 0.0
N486 N 0.26302 0.02695 0.77532 0.0
N487 N 0.29493 0.14167 0.76367 0.0
H488 H 0.83477 0.48644 0.3456 0.0
H489 H 0.72097 0.35084 0.20613 0.0
H490 H 0.76972 0.55167 0.26822 0.0
H491 H 0.77716 0.28822 0.28896 0.0
H492 H 0.73738 0.42456 0.22846 0.0
H493 H 0.81303 0.41376 0.32523 0.0
C494 C 0.81581 0.48556 0.32433 0.0
C495 C 0.80422 0.52536 0.30852 0.0
C496 C 0.74577 0.3947 0.2419 0.0
C497 C 0.77924 0.44175 0.28492 0.0
C498 C 0.73602 0.35246 0.22931 0.0
C499 C 0.74693 0.31315 0.24603 0.0
C500 C 0.76696 0.39766 0.27128 0.0
C501 C 0.76802 0.31761 0.27531 0.0
C502 C 0.80335 0.44391 0.31272 0.0
C503 C 0.77944 0.5219 0.28117 0.0
N504 N 0.77733 0.35903 0.28698 0.0
N505 N 0.76792 0.48079 0.27013 0.0
H506 H 0.24409 0.5412 0.21743 0.0
H507 H 0.19013 0.28742 0.24866 0.0
H508 H 0.14597 0.47959 0.17414 0.0
H509 H 0.30052 0.33099 0.25895 0.0
H510 H 0.17189 0.36135 0.22779 0.0
H511 H 0.26382 0.46769 0.23947 0.0
C512 C 0.22672 0.5123 0.21256 0.0
C513 C 0.19336 0.51655 0.19383 0.0
C514 C 0.2001 0.35477 0.23487 0.0
C515 C 0.21555 0.43283 0.21924 0.0
C516 C 0.2106 0.31253 0.24683 0.0
C517 C 0.24695 0.30289 0.25634 0.0
C518 C 0.22606 0.38797 0.23243 0.0
C519 C 0.27215 0.33698 0.25322 0.0
C520 C 0.23804 0.47043 0.22506 0.0
C521 C 0.17198 0.47794 0.18827 0.0
N522 N 0.26121 0.37807 0.24165 0.0
N523 N 0.18333 0.43784 0.20106 0.0
H524 H 0.22825 0.45365 0.73531 0.0
H525 H 0.23116 0.72067 0.70911 0.0
H526 H 0.17642 0.52167 0.65274 0.0
H527 H 0.27075 0.65748 0.79721 0.0
H528 H 0.21578 0.64664 0.68665 0.0
H529 H 0.24965 0.52666 0.75683 0.0
C530 C 0.22161 0.4838 0.7216 0.0
C531 C 0.20029 0.4815 0.69226 0.0
C532 C 0.22813 0.64881 0.71083 0.0
C533 C 0.22459 0.56495 0.71673 0.0
C534 C 0.23686 0.69107 0.72363 0.0
C535 C 0.25294 0.69505 0.75481 0.0
C536 C 0.23516 0.61012 0.72944 0.0
C537 C 0.25947 0.65571 0.77274 0.0
C538 C 0.23371 0.52545 0.73395 0.0
C539 C 0.19251 0.52171 0.67556 0.0
N540 N 0.25055 0.61481 0.7598 0.0
N541 N 0.20456 0.56165 0.68805 0.0
H542 H 0.78346 0.66781 0.70732 0.0
H543 H 0.79107 0.50521 0.85045 0.0
H544 H 0.71211 0.68937 0.7765 0.0
H545 H 0.79494 0.45142 0.75778 0.0
H546 H 0.76885 0.57674 0.8268 0.0
H547 H 0.79586 0.59159 0.72823 0.0
C548 C 0.77045 0.65632 0.72691 0.0
C549 C 0.74679 0.68449 0.74032 0.0
C550 C 0.77415 0.54903 0.8117 0.0
C551 C 0.76121 0.5984 0.7645 0.0
C552 C 0.78686 0.50839 0.82512 0.0
C553 C 0.79475 0.47252 0.80596 0.0
C554 C 0.77047 0.55419 0.77901 0.0
C555 C 0.78891 0.47825 0.77329 0.0
C556 C 0.7773 0.61295 0.73863 0.0
C557 C 0.73043 0.66833 0.76557 0.0
N558 N 0.77774 0.51871 0.76079 0.0
N559 N 0.73835 0.62643 0.77722 0.0
H560 H 0.40598 0.01881 0.44619 0.0
H561 H 0.59149 0.97587 0.55633 0.0
H562 H 0.50352 0.09149 0.43756 0.0
H563 H 0.49546 0.89859 0.56215 0.0
H564 H 0.55937 0.01938 0.5134 0.0
H565 H 0.43792 0.97549 0.48938 0.0
C566 C 0.43413 0.02571 0.45338 0.0
C567 C 0.45213 0.05881 0.43817 0.0
C568 C 0.54529 0.99292 0.52404 0.0
C569 C 0.48886 0.00926 0.48767 0.0
C570 C 0.56362 0.96804 0.5486 0.0
C571 C 0.54612 0.93353 0.56292 0.0
C572 C 0.50914 0.98335 0.51368 0.0
C573 C 0.51002 0.92486 0.55181 0.0
C574 C 0.45235 0.0009 0.47805 0.0
C575 C 0.48857 0.06629 0.44856 0.0
N576 N 0.49271 0.94965 0.52787 0.0
N577 N 0.50573 0.0417 0.47266 0.0
H578 H 0.59166 0.02512 0.0569 0.0
H579 H 0.40811 0.9823 0.94407 0.0
H580 H 0.49561 0.10348 0.06031 0.0
H581 H 0.50554 0.90783 0.93818 0.0
H582 H 0.43945 0.02637 0.98709 0.0
H583 H 0.56034 0.98137 0.01375 0.0
C584 C 0.56396 0.03316 0.04858 0.0
C585 C 0.5462 0.068 0.06231 0.0
C586 C 0.45399 1.00041 0.97639 0.0
C587 C 0.51015 0.01792 0.01282 0.0
C588 C 0.43611 0.97518 0.95182 0.0
C589 C 0.45425 0.94132 0.93745 0.0
C590 C 0.49029 0.99173 0.98677 0.0
C591 C 0.49049 0.9336 0.94854 0.0
C592 C 0.54609 0.00814 0.0239 0.0
C593 C 0.51034 0.07693 0.05046 0.0
N594 N 0.50732 0.95861 0.97254 0.0
N595 N 0.49348 0.05199 0.02642 0.0
H596 H 0.09525 0.48462 0.55388 0.0
H597 H 0.90897 0.52966 0.44542 0.0
H598 H 0.99704 0.4145 0.56429 0.0
H599 H 0.00594 0.60387 0.43732 0.0
H600 H 0.94101 0.48671 0.48868 0.0
H601 H 0.06325 0.52795 0.51072 0.0
C602 C 0.06694 0.4783 0.54709 0.0
C603 C 0.04877 0.44589 0.56277 0.0
C604 C 0.9553 0.5124 0.47748 0.0
C605 C 0.01198 0.49544 0.51333 0.0
C606 C 0.93703 0.53696 0.45274 0.0
C607 C 0.95483 0.57039 0.43766 0.0
C608 C 0.99171 0.52122 0.48725 0.0
C609 C 0.99115 0.57842 0.44824 0.0
C610 C 0.04869 0.5031 0.52244 0.0
C611 C 0.01213 0.43914 0.5529 0.0
N612 N 0.00841 0.55395 0.47237 0.0
N613 N 0.99494 0.46371 0.52881 0.0
H614 H 0.99608 0.6033 0.06091 0.0
H615 H 0.99505 0.39438 0.94314 0.0
H616 H 0.08683 0.51553 0.05695 0.0
H617 H 0.90577 0.48537 0.9444 0.0
H618 H 0.02874 0.43762 0.98548 0.0
H619 H 0.96228 0.55998 0.01866 0.0
C620 C 0.00892 0.57495 0.05115 0.0
C621 C 0.04433 0.563 0.06252 0.0
C622 C 0.00178 0.44813 0.9765 0.0
C623 C 0.00576 0.5132 0.01418 0.0
C624 C 0.9825 0.42341 0.95234 0.0
C625 C 0.94756 0.43631 0.94016 0.0
C626 C 0.98599 0.486 0.98863 0.0
C627 C 0.93267 0.47424 0.95302 0.0
C628 C 0.98959 0.55021 0.02702 0.0
C629 C 0.05959 0.52594 0.04895 0.0
N630 N 0.95197 0.49774 0.97654 0.0
N631 N 0.0402 0.50235 0.02553 0.0
loop_
_geom_bond_atom_site_label_1
_geom_bond_atom_site_label_2
_geom_bond_distance
_geom_bond_site_symmetry_2
_ccdc_geom_bond_type
Co0 O3 1.970 . S
Co0 N17 1.989 . S
Co0 O25 1.967 . S
Co0 O32 1.920 . S
Co1 O4 1.966 . S
Co1 N10 2.022 . S
Co1 N18 1.993 . S
Co1 O26 1.941 . S
C2 O3 1.258 . S
C2 O4 1.263 . S
O3 Co0 1.970 . S
O3 C2 1.258 . S
O4 Co1 1.966 . S
O4 C2 1.263 . S
C5 O6 1.235 . S
C5 O32 1.289 . S
O6 C5 1.235 . S
C7 C9 1.400 . S
C7 N10 1.351 . S
C7 C12 1.501 . S
C8 C9 1.387 . S
C8 N11 1.341 . S
C9 C7 1.400 . S
C9 C8 1.387 . S
N10 Co1 2.022 . S
N10 C7 1.351 . S
N10 N11 1.365 . S
N11 C8 1.341 . S
N11 N10 1.365 . S
N11 H31 0.862 . S
C12 C7 1.501 . S
C12 H13 0.961 . S
C12 H14 0.961 . S
C12 H15 0.960 . S
H13 C12 0.961 . S
H14 C12 0.961 . S
H15 C12 0.960 . S
C16 N17 1.342 . S
C16 C20 1.401 . S
C16 C21 1.499 . S
N17 Co0 1.989 . S
N17 C16 1.342 . S
N17 N18 1.388 . S
N18 Co1 1.993 . S
N18 N17 1.388 . S
N18 C19 1.346 . S
C19 N18 1.346 . S
C19 C20 1.396 . S
C19 C29 1.510 . S
C20 C16 1.401 . S
C20 C19 1.396 . S
C21 C16 1.499 . S
C21 H22 0.959 . S
C21 H23 0.960 . S
C21 H24 0.961 . S
H22 C21 0.959 . S
H23 C21 0.960 . S
H24 C21 0.961 . S
O25 Co0 1.967 . S
O25 C33 1.258 . S
O26 Co1 1.941 . S
O26 C33 1.266 . S
H27 C29 0.959 . S
H28 C29 0.961 . S
C29 C19 1.510 . S
C29 H27 0.959 . S
C29 H28 0.961 . S
C29 H30 0.960 . S
H30 C29 0.960 . S
H31 N11 0.862 . S
O32 Co0 1.920 . S
O32 C5 1.289 . S
C33 O25 1.258 . S
C33 O26 1.266 . S
Co34 O37 1.970 . S
Co34 N51 1.989 . S
Co34 O59 1.967 . S
Co34 O66 1.920 . S
Co35 O38 1.966 . S
Co35 N44 2.022 . S
Co35 N52 1.993 . S
Co35 O60 1.941 . S
C36 O37 1.258 . S
C36 O38 1.263 . S
O37 Co34 1.970 . S
O37 C36 1.258 . S
O38 Co35 1.966 . S
O38 C36 1.263 . S
C39 O40 1.235 . S
C39 O66 1.289 . S
O40 C39 1.235 . S
C41 C43 1.400 . S
C41 N44 1.351 . S
C41 C46 1.501 . S
C42 C43 1.387 . S
C42 N45 1.341 . S
C43 C41 1.400 . S
C43 C42 1.387 . S
N44 Co35 2.022 . S
N44 C41 1.351 . S
N44 N45 1.365 . S
N45 C42 1.341 . S
N45 N44 1.365 . S
N45 H65 0.862 . S
C46 C41 1.501 . S
C46 H47 0.961 . S
C46 H48 0.961 . S
C46 H49 0.960 . S
H47 C46 0.961 . S
H48 C46 0.961 . S
H49 C46 0.960 . S
C50 N51 1.342 . S
C50 C54 1.401 . S
C50 C55 1.499 . S
N51 Co34 1.989 . S
N51 C50 1.342 . S
N51 N52 1.388 . S
N52 Co35 1.993 . S
N52 N51 1.388 . S
N52 C53 1.346 . S
C53 N52 1.346 . S
C53 C54 1.396 . S
C53 C63 1.510 . S
C54 C50 1.401 . S
C54 C53 1.396 . S
C55 C50 1.499 . S
C55 H56 0.959 . S
C55 H57 0.960 . S
C55 H58 0.961 . S
H56 C55 0.959 . S
H57 C55 0.960 . S
H58 C55 0.961 . S
O59 Co34 1.967 . S
O59 C67 1.258 . S
O60 Co35 1.941 . S
O60 C67 1.266 . S
H61 C63 0.959 . S
H62 C63 0.961 . S
C63 C53 1.510 . S
C63 H61 0.959 . S
C63 H62 0.961 . S
C63 H64 0.960 . S
H64 C63 0.960 . S
H65 N45 0.862 . S
O66 Co34 1.920 . S
O66 C39 1.289 . S
C67 O59 1.258 . S
C67 O60 1.266 . S
Co68 O71 1.970 . S
Co68 N85 1.989 . S
Co68 O93 1.967 . S
Co68 O100 1.920 . S
Co69 O72 1.966 . S
Co69 N78 2.022 . S
Co69 N86 1.993 . S
Co69 O94 1.941 . S
C70 O71 1.258 . S
C70 O72 1.263 . S
O71 Co68 1.970 . S
O71 C70 1.258 . S
O72 Co69 1.966 . S
O72 C70 1.263 . S
C73 O74 1.235 . S
C73 O100 1.289 . S
O74 C73 1.235 . S
C75 C77 1.400 . S
C75 N78 1.351 . S
C75 C80 1.501 . S
C76 C77 1.387 . S
C76 N79 1.341 . S
C77 C75 1.400 . S
C77 C76 1.387 . S
N78 Co69 2.022 . S
N78 C75 1.351 . S
N78 N79 1.365 . S
N79 C76 1.341 . S
N79 N78 1.365 . S
N79 H99 0.862 . S
C80 C75 1.501 . S
C80 H81 0.961 . S
C80 H82 0.961 . S
C80 H83 0.960 . S
H81 C80 0.961 . S
H82 C80 0.961 . S
H83 C80 0.960 . S
C84 N85 1.342 . S
C84 C88 1.401 . S
C84 C89 1.499 . S
N85 Co68 1.989 . S
N85 C84 1.342 . S
N85 N86 1.388 . S
N86 Co69 1.993 . S
N86 N85 1.388 . S
N86 C87 1.346 . S
C87 N86 1.346 . S
C87 C88 1.396 . S
C87 C97 1.510 . S
C88 C84 1.401 . S
C88 C87 1.396 . S
C89 C84 1.499 . S
C89 H90 0.959 . S
C89 H91 0.960 . S
C89 H92 0.961 . S
H90 C89 0.959 . S
H91 C89 0.960 . S
H92 C89 0.961 . S
O93 Co68 1.967 . S
O93 C101 1.258 . S
O94 Co69 1.941 . S
O94 C101 1.266 . S
H95 C97 0.959 . S
H96 C97 0.961 . S
C97 C87 1.510 . S
C97 H95 0.959 . S
C97 H96 0.961 . S
C97 H98 0.960 . S
H98 C97 0.960 . S
H99 N79 0.862 . S
O100 Co68 1.920 . S
O100 C73 1.289 . S
C101 O93 1.258 . S
C101 O94 1.266 . S
Co102 O105 1.970 . S
Co102 N119 1.989 . S
Co102 O127 1.967 . S
Co102 O134 1.920 . S
Co103 O106 1.966 . S
Co103 N112 2.022 . S
Co103 N120 1.993 . S
Co103 O128 1.941 . S
C104 O105 1.258 . S
C104 O106 1.263 . S
O105 Co102 1.970 . S
O105 C104 1.258 . S
O106 Co103 1.966 . S
O106 C104 1.263 . S
C107 O108 1.235 . S
C107 O134 1.289 . S
O108 C107 1.235 . S
C109 C111 1.400 . S
C109 N112 1.351 . S
C109 C114 1.501 . S
C110 C111 1.387 . S
C110 N113 1.341 . S
C111 C109 1.400 . S
C111 C110 1.387 . S
N112 Co103 2.022 . S
N112 C109 1.351 . S
N112 N113 1.365 . S
N113 C110 1.341 . S
N113 N112 1.365 . S
N113 H133 0.862 . S
C114 C109 1.501 . S
C114 H115 0.961 . S
C114 H116 0.961 . S
C114 H117 0.960 . S
H115 C114 0.961 . S
H116 C114 0.961 . S
H117 C114 0.960 . S
C118 N119 1.342 . S
C118 C122 1.401 . S
C118 C123 1.499 . S
N119 Co102 1.989 . S
N119 C118 1.342 . S
N119 N120 1.388 . S
N120 Co103 1.993 . S
N120 N119 1.388 . S
N120 C121 1.346 . S
C121 N120 1.346 . S
C121 C122 1.396 . S
C121 C131 1.510 . S
C122 C118 1.401 . S
C122 C121 1.396 . S
C123 C118 1.499 . S
C123 H124 0.959 . S
C123 H125 0.960 . S
C123 H126 0.961 . S
H124 C123 0.959 . S
H125 C123 0.960 . S
H126 C123 0.961 . S
O127 Co102 1.967 . S
O127 C135 1.258 . S
O128 Co103 1.941 . S
O128 C135 1.266 . S
H129 C131 0.959 . S
H130 C131 0.961 . S
C131 C121 1.510 . S
C131 H129 0.959 . S
C131 H130 0.961 . S
C131 H132 0.960 . S
H132 C131 0.960 . S
H133 N113 0.862 . S
O134 Co102 1.920 . S
O134 C107 1.289 . S
C135 O127 1.258 . S
C135 O128 1.266 . S
Co136 O139 1.970 . S
Co136 N153 1.989 . S
Co136 O161 1.967 . S
Co136 O168 1.920 . S
Co137 O140 1.966 . S
Co137 N146 2.022 . S
Co137 N154 1.993 . S
Co137 O162 1.941 . S
C138 O139 1.258 . S
C138 O140 1.263 . S
O139 Co136 1.970 . S
O139 C138 1.258 . S
O140 Co137 1.966 . S
O140 C138 1.263 . S
C141 O142 1.235 . S
C141 O168 1.289 . S
O142 C141 1.235 . S
C143 C145 1.400 . S
C143 N146 1.351 . S
C143 C148 1.501 . S
C144 C145 1.387 . S
C144 N147 1.341 . S
C145 C143 1.400 . S
C145 C144 1.387 . S
N146 Co137 2.022 . S
N146 C143 1.351 . S
N146 N147 1.365 . S
N147 C144 1.341 . S
N147 N146 1.365 . S
N147 H167 0.862 . S
C148 C143 1.501 . S
C148 H149 0.961 . S
C148 H150 0.961 . S
C148 H151 0.960 . S
H149 C148 0.961 . S
H150 C148 0.961 . S
H151 C148 0.960 . S
C152 N153 1.342 . S
C152 C156 1.401 . S
C152 C157 1.499 . S
N153 Co136 1.989 . S
N153 C152 1.342 . S
N153 N154 1.388 . S
N154 Co137 1.993 . S
N154 N153 1.388 . S
N154 C155 1.346 . S
C155 N154 1.346 . S
C155 C156 1.396 . S
C155 C165 1.510 . S
C156 C152 1.401 . S
C156 C155 1.396 . S
C157 C152 1.499 . S
C157 H158 0.959 . S
C157 H159 0.960 . S
C157 H160 0.961 . S
H158 C157 0.959 . S
H159 C157 0.960 . S
H160 C157 0.961 . S
O161 Co136 1.967 . S
O161 C169 1.258 . S
O162 Co137 1.941 . S
O162 C169 1.266 . S
H163 C165 0.959 . S
H164 C165 0.961 . S
C165 C155 1.510 . S
C165 H163 0.959 . S
C165 H164 0.961 . S
C165 H166 0.960 . S
H166 C165 0.960 . S
H167 N147 0.862 . S
O168 Co136 1.920 . S
O168 C141 1.289 . S
C169 O161 1.258 . S
C169 O162 1.266 . S
Co170 O173 1.970 . S
Co170 N187 1.989 . S
Co170 O195 1.967 . S
Co170 O202 1.920 . S
Co171 O174 1.966 . S
Co171 N180 2.022 . S
Co171 N188 1.993 . S
Co171 O196 1.941 . S
C172 O173 1.258 . S
C172 O174 1.263 . S
O173 Co170 1.970 . S
O173 C172 1.258 . S
O174 Co171 1.966 . S
O174 C172 1.263 . S
C175 O176 1.235 . S
C175 O202 1.289 . S
O176 C175 1.235 . S
C177 C179 1.400 . S
C177 N180 1.351 . S
C177 C182 1.501 . S
C178 C179 1.387 . S
C178 N181 1.341 . S
C179 C177 1.400 . S
C179 C178 1.387 . S
N180 Co171 2.022 . S
N180 C177 1.351 . S
N180 N181 1.365 . S
N181 C178 1.341 . S
N181 N180 1.365 . S
N181 H201 0.862 . S
C182 C177 1.501 . S
C182 H183 0.961 . S
C182 H184 0.961 . S
C182 H185 0.960 . S
H183 C182 0.961 . S
H184 C182 0.961 . S
H185 C182 0.960 . S
C186 N187 1.342 . S
C186 C190 1.401 . S
C186 C191 1.499 . S
N187 Co170 1.989 . S
N187 C186 1.342 . S
N187 N188 1.388 . S
N188 Co171 1.993 . S
N188 N187 1.388 . S
N188 C189 1.346 . S
C189 N188 1.346 . S
C189 C190 1.396 . S
C189 C199 1.510 . S
C190 C186 1.401 . S
C190 C189 1.396 . S
C191 C186 1.499 . S
C191 H192 0.959 . S
C191 H193 0.960 . S
C191 H194 0.961 . S
H192 C191 0.959 . S
H193 C191 0.960 . S
H194 C191 0.961 . S
O195 Co170 1.967 . S
O195 C203 1.258 . S
O196 Co171 1.941 . S
O196 C203 1.266 . S
H197 C199 0.959 . S
H198 C199 0.961 . S
C199 C189 1.510 . S
C199 H197 0.959 . S
C199 H198 0.961 . S
C199 H200 0.960 . S
H200 C199 0.960 . S
H201 N181 0.862 . S
O202 Co170 1.920 . S
O202 C175 1.289 . S
C203 O195 1.258 . S
C203 O196 1.266 . S
Co204 O207 1.970 . S
Co204 N221 1.989 . S
Co204 O229 1.967 . S
Co204 O236 1.920 . S
Co205 O208 1.966 . S
Co205 N214 2.022 . S
Co205 N222 1.993 . S
Co205 O230 1.941 . S
C206 O207 1.258 . S
C206 O208 1.263 . S
O207 Co204 1.970 . S
O207 C206 1.258 . S
O208 Co205 1.966 . S
O208 C206 1.263 . S
C209 O210 1.235 . S
C209 O236 1.289 . S
O210 C209 1.235 . S
C211 C213 1.400 . S
C211 N214 1.351 . S
C211 C216 1.501 . S
C212 C213 1.387 . S
C212 N215 1.341 . S
C213 C211 1.400 . S
C213 C212 1.387 . S
N214 Co205 2.022 . S
N214 C211 1.351 . S
N214 N215 1.365 . S
N215 C212 1.341 . S
N215 N214 1.365 . S
N215 H235 0.862 . S
C216 C211 1.501 . S
C216 H217 0.961 . S
C216 H218 0.961 . S
C216 H219 0.960 . S
H217 C216 0.961 . S
H218 C216 0.961 . S
H219 C216 0.960 . S
C220 N221 1.342 . S
C220 C224 1.401 . S
C220 C225 1.499 . S
N221 Co204 1.989 . S
N221 C220 1.342 . S
N221 N222 1.388 . S
N222 Co205 1.993 . S
N222 N221 1.388 . S
N222 C223 1.346 . S
C223 N222 1.346 . S
C223 C224 1.396 . S
C223 C233 1.510 . S
C224 C220 1.401 . S
C224 C223 1.396 . S
C225 C220 1.499 . S
C225 H226 0.959 . S
C225 H227 0.960 . S
C225 H228 0.961 . S
H226 C225 0.959 . S
H227 C225 0.960 . S
H228 C225 0.961 . S
O229 Co204 1.967 . S
O229 C237 1.258 . S
O230 Co205 1.941 . S
O230 C237 1.266 . S
H231 C233 0.959 . S
H232 C233 0.961 . S
C233 C223 1.510 . S
C233 H231 0.959 . S
C233 H232 0.961 . S
C233 H234 0.960 . S
H234 C233 0.960 . S
H235 N215 0.862 . S
O236 Co204 1.920 . S
O236 C209 1.289 . S
C237 O229 1.258 . S
C237 O230 1.266 . S
Co238 O241 1.970 . S
Co238 N255 1.989 . S
Co238 O263 1.967 . S
Co238 O270 1.920 . S
Co239 O242 1.966 . S
Co239 N248 2.022 . S
Co239 N256 1.993 . S
Co239 O264 1.941 . S
C240 O241 1.258 . S
C240 O242 1.263 . S
O241 Co238 1.970 . S
O241 C240 1.258 . S
O242 Co239 1.966 . S
O242 C240 1.263 . S
C243 O244 1.235 . S
C243 O270 1.289 . S
O244 C243 1.235 . S
C245 C247 1.400 . S
C245 N248 1.351 . S
C245 C250 1.501 . S
C246 C247 1.387 . S
C246 N249 1.341 . S
C247 C245 1.400 . S
C247 C246 1.387 . S
N248 Co239 2.022 . S
N248 C245 1.351 . S
N248 N249 1.365 . S
N249 C246 1.341 . S
N249 N248 1.365 . S
N249 H269 0.862 . S
C250 C245 1.501 . S
C250 H251 0.961 . S
C250 H252 0.961 . S
C250 H253 0.960 . S
H251 C250 0.961 . S
H252 C250 0.961 . S
H253 C250 0.960 . S
C254 N255 1.342 . S
C254 C258 1.401 . S
C254 C259 1.499 . S
N255 Co238 1.989 . S
N255 C254 1.342 . S
N255 N256 1.388 . S
N256 Co239 1.993 . S
N256 N255 1.388 . S
N256 C257 1.346 . S
C257 N256 1.346 . S
C257 C258 1.396 . S
C257 C267 1.510 . S
C258 C254 1.401 . S
C258 C257 1.396 . S
C259 C254 1.499 . S
C259 H260 0.959 . S
C259 H261 0.960 . S
C259 H262 0.961 . S
H260 C259 0.959 . S
H261 C259 0.960 . S
H262 C259 0.961 . S
O263 Co238 1.967 . S
O263 C271 1.258 . S
O264 Co239 1.941 . S
O264 C271 1.266 . S
H265 C267 0.959 . S
H266 C267 0.961 . S
C267 C257 1.510 . S
C267 H265 0.959 . S
C267 H266 0.961 . S
C267 H268 0.960 . S
H268 C267 0.960 . S
H269 N249 0.862 . S
O270 Co238 1.920 . S
O270 C243 1.289 . S
C271 O263 1.258 . S
C271 O264 1.266 . S
H272 C278 0.930 . S
H273 C282 0.930 . S
H274 C287 0.929 . S
H275 C285 0.929 . S
H276 C280 0.929 . S
H277 C286 0.929 . S
C278 H272 0.930 . S
C278 C279 1.367 . S
C278 C286 1.378 . S
C279 C278 1.367 . S
C279 C287 1.433 . S
C280 H276 0.929 . S
C280 C282 1.378 . S
C280 C284 1.350 . S
C281 C284 1.463 . S
C281 C286 1.350 . S
C281 N289 1.427 . S
C282 H273 0.930 . S
C282 C280 1.378 . S
C282 C283 1.367 . S
C283 C282 1.367 . S
C283 C285 1.433 . S
C284 C280 1.350 . S
C284 C281 1.463 . S
C284 N288 1.427 . S
C285 H275 0.929 . S
C285 C283 1.433 . S
C285 N288 1.384 . S
C286 H277 0.929 . S
C286 C278 1.378 . S
C286 C281 1.350 . S
C287 H274 0.929 . S
C287 C279 1.433 . S
C287 N289 1.384 . S
N288 C284 1.427 . S
N288 C285 1.384 . S
N289 C281 1.427 . S
N289 C287 1.384 . S
H290 C296 0.930 . S
H291 C300 0.930 . S
H292 C305 0.929 . S
H293 C303 0.929 . S
H294 C298 0.929 . S
H295 C304 0.929 . S
C296 H290 0.930 . S
C296 C297 1.367 . S
C296 C304 1.378 . S
C297 C296 1.367 . S
C297 C305 1.433 . S
C298 H294 0.929 . S
C298 C300 1.378 . S
C298 C302 1.350 . S
C299 C302 1.463 1_554 S
C299 C304 1.350 . S
C299 N307 1.427 . S
C300 H291 0.930 . S
C300 C298 1.378 . S
C300 C301 1.367 . S
C301 C300 1.367 . S
C301 C303 1.433 . S
C302 C298 1.350 . S
C302 C299 1.463 1_556 S
C302 N306 1.427 . S
C303 H293 0.929 . S
C303 C301 1.433 . S
C303 N306 1.384 . S
C304 H295 0.929 . S
C304 C296 1.378 . S
C304 C299 1.350 . S
C305 H292 0.929 . S
C305 C297 1.433 . S
C305 N307 1.384 . S
N306 C302 1.427 . S
N306 C303 1.384 . S
N307 C299 1.427 . S
N307 C305 1.384 . S
H308 C314 0.930 . S
H309 C318 0.930 . S
H310 C323 0.929 . S
H311 C321 0.929 . S
H312 C316 0.929 . S
H313 C322 0.929 . S
C314 H308 0.930 . S
C314 C315 1.367 . S
C314 C322 1.378 . S
C315 C314 1.367 . S
C315 C323 1.433 . S
C316 H312 0.929 . S
C316 C318 1.378 . S
C316 C320 1.350 . S
C317 C320 1.463 . S
C317 C322 1.350 . S
C317 N325 1.427 . S
C318 H309 0.930 . S
C318 C316 1.378 . S
C318 C319 1.367 . S
C319 C318 1.367 . S
C319 C321 1.433 . S
C320 C316 1.350 . S
C320 C317 1.463 . S
C320 N324 1.427 . S
C321 H311 0.929 . S
C321 C319 1.433 . S
C321 N324 1.384 . S
C322 H313 0.929 . S
C322 C314 1.378 . S
C322 C317 1.350 . S
C323 H310 0.929 . S
C323 C315 1.433 . S
C323 N325 1.384 . S
N324 C320 1.427 . S
N324 C321 1.384 . S
N325 C317 1.427 . S
N325 C323 1.384 . S
H326 C332 0.930 . S
H327 C336 0.930 . S
H328 C341 0.929 . S
H329 C339 0.929 . S
H330 C334 0.929 . S
H331 C340 0.929 . S
C332 H326 0.930 . S
C332 C333 1.367 . S
C332 C340 1.378 . S
C333 C332 1.367 . S
C333 C341 1.433 . S
C334 H330 0.929 . S
C334 C336 1.378 . S
C334 C338 1.350 . S
C335 C338 1.463 1_556 S
C335 C340 1.350 . S
C335 N343 1.427 . S
C336 H327 0.930 . S
C336 C334 1.378 . S
C336 C337 1.367 . S
C337 C336 1.367 . S
C337 C339 1.433 . S
C338 C334 1.350 . S
C338 C335 1.463 1_554 S
C338 N342 1.427 . S
C339 H329 0.929 . S
C339 C337 1.433 . S
C339 N342 1.384 . S
C340 H331 0.929 . S
C340 C332 1.378 . S
C340 C335 1.350 . S
C341 H328 0.929 . S
C341 C333 1.433 . S
C341 N343 1.384 . S
N342 C338 1.427 . S
N342 C339 1.384 . S
N343 C335 1.427 . S
N343 C341 1.384 . S
H344 C350 0.930 . S
H345 C354 0.930 . S
H346 C359 0.929 . S
H347 C357 0.929 . S
H348 C352 0.929 . S
H349 C358 0.929 . S
C350 H344 0.930 . S
C350 C351 1.367 . S
C350 C358 1.378 . S
C351 C350 1.367 . S
C351 C359 1.433 . S
C352 H348 0.929 . S
C352 C354 1.378 . S
C352 C356 1.350 . S
C353 C356 1.463 . S
C353 C358 1.350 . S
C353 N361 1.427 . S
C354 H345 0.930 . S
C354 C352 1.378 . S
C354 C355 1.367 . S
C355 C354 1.367 . S
C355 C357 1.433 . S
C356 C352 1.350 . S
C356 C353 1.463 . S
C356 N360 1.427 . S
C357 H347 0.929 . S
C357 C355 1.433 . S
C357 N360 1.384 . S
C358 H349 0.929 . S
C358 C350 1.378 . S
C358 C353 1.350 . S
C359 H346 0.929 . S
C359 C351 1.433 . S
C359 N361 1.384 . S
N360 C356 1.427 . S
N360 C357 1.384 . S
N361 C353 1.427 . S
N361 C359 1.384 . S
H362 C368 0.930 . S
H363 C372 0.930 . S
H364 C377 0.929 . S
H365 C375 0.929 . S
H366 C370 0.929 . S
H367 C376 0.929 . S
C368 H362 0.930 . S
C368 C369 1.367 . S
C368 C376 1.378 . S
C369 C368 1.367 . S
C369 C377 1.433 . S
C370 H366 0.929 . S
C370 C372 1.378 . S
C370 C374 1.350 . S
C371 C374 1.463 . S
C371 C376 1.350 . S
C371 N379 1.427 . S
C372 H363 0.930 . S
C372 C370 1.378 . S
C372 C373 1.367 . S
C373 C372 1.367 . S
C373 C375 1.433 . S
C374 C370 1.350 . S
C374 C371 1.463 . S
C374 N378 1.427 . S
C375 H365 0.929 . S
C375 C373 1.433 . S
C375 N378 1.384 . S
C376 H367 0.929 . S
C376 C368 1.378 . S
C376 C371 1.350 . S
C377 H364 0.929 . S
C377 C369 1.433 . S
C377 N379 1.384 . S
N378 C374 1.427 . S
N378 C375 1.384 . S
N379 C371 1.427 . S
N379 C377 1.384 . S
H380 C386 0.930 . S
H381 C390 0.930 . S
H382 C395 0.929 . S
H383 C393 0.929 . S
H384 C388 0.929 . S
H385 C394 0.929 . S
C386 H380 0.930 . S
C386 C387 1.367 . S
C386 C394 1.378 . S
C387 C386 1.367 . S
C387 C395 1.433 . S
C388 H384 0.929 . S
C388 C390 1.378 . S
C388 C392 1.350 . S
C389 C392 1.463 1_455 S
C389 C394 1.350 . S
C389 N397 1.427 . S
C390 H381 0.930 . S
C390 C388 1.378 . S
C390 C391 1.367 . S
C391 C390 1.367 . S
C391 C393 1.433 . S
C392 C388 1.350 . S
C392 C389 1.463 1_655 S
C392 N396 1.427 . S
C393 H383 0.929 . S
C393 C391 1.433 . S
C393 N396 1.384 . S
C394 H385 0.929 . S
C394 C386 1.378 . S
C394 C389 1.350 . S
C395 H382 0.929 . S
C395 C387 1.433 . S
C395 N397 1.384 . S
N396 C392 1.427 . S
N396 C393 1.384 . S
N397 C389 1.427 . S
N397 C395 1.384 . S
H398 C404 0.930 . S
H399 C408 0.930 . S
H400 C413 0.929 . S
H401 C411 0.929 . S
H402 C406 0.929 . S
H403 C412 0.929 . S
C404 H398 0.930 . S
C404 C405 1.367 . S
C404 C412 1.378 . S
C405 C404 1.367 . S
C405 C413 1.433 . S
C406 H402 0.929 . S
C406 C408 1.378 . S
C406 C410 1.350 . S
C407 C410 1.463 1_455 S
C407 C412 1.350 . S
C407 N415 1.427 . S
C408 H399 0.930 . S
C408 C406 1.378 . S
C408 C409 1.367 . S
C409 C408 1.367 . S
C409 C411 1.433 . S
C410 C406 1.350 . S
C410 C407 1.463 1_655 S
C410 N414 1.427 . S
C411 H401 0.929 . S
C411 C409 1.433 . S
C411 N414 1.384 . S
C412 H403 0.929 . S
C412 C404 1.378 . S
C412 C407 1.350 . S
C413 H400 0.929 . S
C413 C405 1.433 . S
C413 N415 1.384 . S
N414 C410 1.427 . S
N414 C411 1.384 . S
N415 C407 1.427 . S
N415 C413 1.384 . S
H416 C422 0.930 . S
H417 C426 0.930 . S
H418 C431 0.929 . S
H419 C429 0.929 . S
H420 C424 0.929 . S
H421 C430 0.929 . S
C422 H416 0.930 . S
C422 C423 1.367 . S
C422 C430 1.378 . S
C423 C422 1.367 . S
C423 C431 1.433 . S
C424 H420 0.929 . S
C424 C426 1.378 1_565 S
C424 C428 1.350 . S
C425 C428 1.463 . S
C425 C430 1.350 . S
C425 N433 1.427 . S
C426 H417 0.930 . S
C426 C424 1.378 1_545 S
C426 C427 1.367 . S
C427 C426 1.367 . S
C427 C429 1.433 . S
C428 C424 1.350 . S
C428 C425 1.463 . S
C428 N432 1.427 1_565 S
C429 H419 0.929 . S
C429 C427 1.433 . S
C429 N432 1.384 . S
C430 H421 0.929 . S
C430 C422 1.378 . S
C430 C425 1.350 . S
C431 H418 0.929 . S
C431 C423 1.433 . S
C431 N433 1.384 . S
N432 C428 1.427 1_545 S
N432 C429 1.384 . S
N433 C425 1.427 . S
N433 C431 1.384 . S
H434 C440 0.930 . S
H435 C444 0.930 . S
H436 C449 0.929 . S
H437 C447 0.929 . S
H438 C442 0.929 . S
H439 C448 0.929 1_565 S
C440 H434 0.930 . S
C440 C441 1.367 . S
C440 C448 1.378 . S
C441 C440 1.367 . S
C441 C449 1.433 . S
C442 H438 0.929 . S
C442 C444 1.378 . S
C442 C446 1.350 . S
C443 C446 1.463 . S
C443 C448 1.350 1_565 S
C443 N451 1.427 . S
C444 H435 0.930 . S
C444 C442 1.378 . S
C444 C445 1.367 . S
C445 C444 1.367 . S
C445 C447 1.433 . S
C446 C442 1.350 . S
C446 C443 1.463 . S
C446 N450 1.427 . S
C447 H437 0.929 . S
C447 C445 1.433 . S
C447 N450 1.384 . S
C448 H439 0.929 1_545 S
C448 C440 1.378 . S
C448 C443 1.350 1_545 S
C449 H436 0.929 . S
C449 C441 1.433 . S
C449 N451 1.384 1_545 S
N450 C446 1.427 . S
N450 C447 1.384 . S
N451 C443 1.427 . S
N451 C449 1.384 1_565 S
H452 C458 0.930 . S
H453 C462 0.930 . S
H454 C467 0.929 . S
H455 C465 0.929 . S
H456 C460 0.929 . S
H457 C466 0.929 . S
C458 H452 0.930 . S
C458 C459 1.367 . S
C458 C466 1.378 . S
C459 C458 1.367 . S
C459 C467 1.433 . S
C460 H456 0.929 . S
C460 C462 1.378 . S
C460 C464 1.350 . S
C461 C464 1.463 . S
C461 C466 1.350 1_545 S
C461 N469 1.427 . S
C462 H453 0.930 . S
C462 C460 1.378 . S
C462 C463 1.367 . S
C463 C462 1.367 . S
C463 C465 1.433 . S
C464 C460 1.350 . S
C464 C461 1.463 . S
C464 N468 1.427 . S
C465 H455 0.929 . S
C465 C463 1.433 . S
C465 N468 1.384 . S
C466 H457 0.929 . S
C466 C458 1.378 . S
C466 C461 1.350 1_565 S
C467 H454 0.929 . S
C467 C459 1.433 . S
C467 N469 1.384 1_565 S
N468 C464 1.427 . S
N468 C465 1.384 . S
N469 C461 1.427 . S
N469 C467 1.384 1_545 S
H470 C476 0.930 . S
H471 C480 0.930 . S
H472 C485 0.929 . S
H473 C483 0.929 . S
H474 C478 0.929 . S
H475 C484 0.929 . S
C476 H470 0.930 . S
C476 C477 1.367 . S
C476 C484 1.378 . S
C477 C476 1.367 . S
C477 C485 1.433 . S
C478 H474 0.929 . S
C478 C480 1.378 1_545 S
C478 C482 1.350 . S
C479 C482 1.463 . S
C479 C484 1.350 . S
C479 N487 1.427 . S
C480 H471 0.930 . S
C480 C478 1.378 1_565 S
C480 C481 1.367 . S
C481 C480 1.367 . S
C481 C483 1.433 . S
C482 C478 1.350 . S
C482 C479 1.463 . S
C482 N486 1.427 . S
C483 H473 0.929 . S
C483 C481 1.433 . S
C483 N486 1.384 1_565 S
C484 H475 0.929 . S
C484 C476 1.378 . S
C484 C479 1.350 . S
C485 H472 0.929 . S
C485 C477 1.433 . S
C485 N487 1.384 . S
N486 C482 1.427 . S
N486 C483 1.384 1_545 S
N487 C479 1.427 . S
N487 C485 1.384 . S
H488 C494 0.930 . S
H489 C498 0.930 . S
H490 C503 0.929 . S
H491 C501 0.929 . S
H492 C496 0.929 . S
H493 C502 0.929 . S
C494 H488 0.930 . S
C494 C495 1.367 . S
C494 C502 1.378 . S
C495 C494 1.367 . S
C495 C503 1.433 . S
C496 H492 0.929 . S
C496 C498 1.378 . S
C496 C500 1.350 . S
C497 C500 1.463 . S
C497 C502 1.350 . S
C497 N505 1.427 . S
C498 H489 0.930 . S
C498 C496 1.378 . S
C498 C499 1.367 . S
C499 C498 1.367 . S
C499 C501 1.433 . S
C500 C496 1.350 . S
C500 C497 1.463 . S
C500 N504 1.427 . S
C501 H491 0.929 . S
C501 C499 1.433 . S
C501 N504 1.384 . S
C502 H493 0.929 . S
C502 C494 1.378 . S
C502 C497 1.350 . S
C503 H490 0.929 . S
C503 C495 1.433 . S
C503 N505 1.384 . S
N504 C500 1.427 . S
N504 C501 1.384 . S
N505 C497 1.427 . S
N505 C503 1.384 . S
H506 C512 0.930 . S
H507 C516 0.930 . S
H508 C521 0.929 . S
H509 C519 0.929 . S
H510 C514 0.929 . S
H511 C520 0.929 . S
C512 H506 0.930 . S
C512 C513 1.367 . S
C512 C520 1.378 . S
C513 C512 1.367 . S
C513 C521 1.433 . S
C514 H510 0.929 . S
C514 C516 1.378 . S
C514 C518 1.350 . S
C515 C518 1.463 . S
C515 C520 1.350 . S
C515 N523 1.427 . S
C516 H507 0.930 . S
C516 C514 1.378 . S
C516 C517 1.367 . S
C517 C516 1.367 . S
C517 C519 1.433 . S
C518 C514 1.350 . S
C518 C515 1.463 . S
C518 N522 1.427 . S
C519 H509 0.929 . S
C519 C517 1.433 . S
C519 N522 1.384 . S
C520 H511 0.929 . S
C520 C512 1.378 . S
C520 C515 1.350 . S
C521 H508 0.929 . S
C521 C513 1.433 . S
C521 N523 1.384 . S
N522 C518 1.427 . S
N522 C519 1.384 . S
N523 C515 1.427 . S
N523 C521 1.384 . S
H524 C530 0.930 . S
H525 C534 0.930 . S
H526 C539 0.929 . S
H527 C537 0.929 . S
H528 C532 0.929 . S
H529 C538 0.929 . S
C530 H524 0.930 . S
C530 C531 1.367 . S
C530 C538 1.378 . S
C531 C530 1.367 . S
C531 C539 1.433 . S
C532 H528 0.929 . S
C532 C534 1.378 . S
C532 C536 1.350 . S
C533 C536 1.463 . S
C533 C538 1.350 . S
C533 N541 1.427 . S
C534 H525 0.930 . S
C534 C532 1.378 . S
C534 C535 1.367 . S
C535 C534 1.367 . S
C535 C537 1.433 . S
C536 C532 1.350 . S
C536 C533 1.463 . S
C536 N540 1.427 . S
C537 H527 0.929 . S
C537 C535 1.433 . S
C537 N540 1.384 . S
C538 H529 0.929 . S
C538 C530 1.378 . S
C538 C533 1.350 . S
C539 H526 0.929 . S
C539 C531 1.433 . S
C539 N541 1.384 . S
N540 C536 1.427 . S
N540 C537 1.384 . S
N541 C533 1.427 . S
N541 C539 1.384 . S
H542 C548 0.930 . S
H543 C552 0.930 . S
H544 C557 0.929 . S
H545 C555 0.929 . S
H546 C550 0.929 . S
H547 C556 0.929 . S
C548 H542 0.930 . S
C548 C549 1.367 . S
C548 C556 1.378 . S
C549 C548 1.367 . S
C549 C557 1.433 . S
C550 H546 0.929 . S
C550 C552 1.378 . S
C550 C554 1.350 . S
C551 C554 1.463 . S
C551 C556 1.350 . S
C551 N559 1.427 . S
C552 H543 0.930 . S
C552 C550 1.378 . S
C552 C553 1.367 . S
C553 C552 1.367 . S
C553 C555 1.433 . S
C554 C550 1.350 . S
C554 C551 1.463 . S
C554 N558 1.427 . S
C555 H545 0.929 . S
C555 C553 1.433 . S
C555 N558 1.384 . S
C556 H547 0.929 . S
C556 C548 1.378 . S
C556 C551 1.350 . S
C557 H544 0.929 . S
C557 C549 1.433 . S
C557 N559 1.384 . S
N558 C554 1.427 . S
N558 C555 1.384 . S
N559 C551 1.427 . S
N559 C557 1.384 . S
H560 C566 0.930 1_565 S
H561 C570 0.930 1_545 S
H562 C575 0.929 . S
H563 C573 0.929 . S
H564 C568 0.929 . S
H565 C574 0.929 . S
C566 H560 0.930 1_545 S
C566 C567 1.367 . S
C566 C574 1.378 1_545 S
C567 C566 1.367 . S
C567 C575 1.433 . S
C568 H564 0.929 . S
C568 C570 1.378 1_545 S
C568 C572 1.350 1_545 S
C569 C572 1.463 1_545 S
C569 C574 1.350 1_545 S
C569 N577 1.427 . S
C570 H561 0.930 1_565 S
C570 C568 1.378 1_565 S
C570 C571 1.367 . S
C571 C570 1.367 . S
C571 C573 1.433 . S
C572 C568 1.350 1_565 S
C572 C569 1.463 1_565 S
C572 N576 1.427 . S
C573 H563 0.929 . S
C573 C571 1.433 . S
C573 N576 1.384 . S
C574 H565 0.929 . S
C574 C566 1.378 1_565 S
C574 C569 1.350 1_565 S
C575 H562 0.929 . S
C575 C567 1.433 . S
C575 N577 1.384 . S
N576 C572 1.427 . S
N576 C573 1.384 . S
N577 C569 1.427 . S
N577 C575 1.384 . S
H578 C584 0.930 . S
H579 C588 0.930 . S
H580 C593 0.929 . S
H581 C591 0.929 . S
H582 C586 0.947 . S
H583 C592 0.947 . S
C584 H578 0.930 . S
C584 C585 1.367 . S
C584 C592 1.366 1_545 S
C585 C584 1.367 . S
C585 C593 1.433 . S
C586 H582 0.947 . S
C586 C588 1.366 1_545 S
C586 C590 1.344 1_545 S
C587 C590 1.463 1_544 S
C587 C592 1.344 1_545 S
C587 N595 1.427 . S
C588 H579 0.930 . S
C588 C586 1.366 1_565 S
C588 C589 1.367 . S
C589 C588 1.367 . S
C589 C591 1.433 . S
C590 C586 1.344 1_565 S
C590 C587 1.463 1_566 S
C590 N594 1.427 . S
C591 H581 0.929 . S
C591 C589 1.433 . S
C591 N594 1.384 . S
C592 H583 0.947 . S
C592 C584 1.366 1_565 S
C592 C587 1.344 1_565 S
C593 H580 0.929 . S
C593 C585 1.433 . S
C593 N595 1.384 . S
N594 C590 1.427 . S
N594 C591 1.384 . S
N595 C587 1.427 . S
N595 C593 1.384 . S
H596 C602 0.930 . S
H597 C606 0.930 . S
H598 C611 0.929 . S
H599 C609 0.929 . S
H600 C604 0.929 . S
H601 C610 0.929 . S
C602 H596 0.930 . S
C602 C603 1.367 . S
C602 C610 1.378 . S
C603 C602 1.367 . S
C603 C611 1.433 . S
C604 H600 0.929 . S
C604 C606 1.378 . S
C604 C608 1.350 . S
C605 C608 1.463 1_455 S
C605 C610 1.350 . S
C605 N613 1.427 . S
C606 H597 0.930 . S
C606 C604 1.378 . S
C606 C607 1.367 . S
C607 C606 1.367 . S
C607 C609 1.433 . S
C608 C604 1.350 . S
C608 C605 1.463 1_655 S
C608 N612 1.427 . S
C609 H599 0.929 . S
C609 C607 1.433 . S
C609 N612 1.384 . S
C610 H601 0.929 . S
C610 C602 1.378 . S
C610 C605 1.350 . S
C611 H598 0.929 . S
C611 C603 1.433 . S
C611 N613 1.384 . S
N612 C608 1.427 . S
N612 C609 1.384 . S
N613 C605 1.427 . S
N613 C611 1.384 . S
H614 C620 0.930 . S
H615 C624 0.930 . S
H616 C629 0.929 . S
H617 C627 0.929 . S
H618 C622 0.929 1_554 S
H619 C628 0.929 1_556 S
C620 H614 0.930 . S
C620 C621 1.367 . S
C620 C628 1.378 . S
C621 C620 1.367 . S
C621 C629 1.433 . S
C622 H618 0.929 1_556 S
C622 C624 1.378 . S
C622 C626 1.350 . S
C623 C626 1.463 1_454 S
C623 C628 1.350 . S
C623 N631 1.427 . S
C624 H615 0.930 . S
C624 C622 1.378 . S
C624 C625 1.367 . S
C625 C624 1.367 . S
C625 C627 1.433 . S
C626 C622 1.350 . S
C626 C623 1.463 1_656 S
C626 N630 1.427 . S
C627 H617 0.929 . S
C627 C625 1.433 . S
C627 N630 1.384 . S
C628 H619 0.929 1_554 S
C628 C620 1.378 . S
C628 C623 1.350 . S
C629 H616 0.929 . S
C629 C621 1.433 . S
C629 N631 1.384 . S
N630 C626 1.427 . S
N630 C627 1.384 . S
N631 C623 1.427 . S
N631 C629 1.384 . S
C279 C224 1.246 . S
C283 C20 1.246 . S
C297 C54 1.249 . S
C301 C258 1.249 . S
C315 C88 1.248 . S
C319 C156 1.248 . S
C333 C122 1.246 . S
C337 C190 1.246 . S
C351 C36 1.633 . S
C355 C2 1.629 . S
C369 C70 1.632 . S
C373 C104 1.631 . S
C387 C172 1.629 . S
C391 C138 1.633 . S
C405 C206 1.632 . S
C409 C240 1.629 . S
C423 C179 1.527 . S
C427 C33 1.564 . S
C441 C67 1.565 . S
C445 C145 1.518 . S
C459 C101 1.565 . S
C463 C247 1.519 . S
C477 C213 1.528 . S
C481 C135 1.564 . S
C495 C169 1.564 . S
C499 C43 1.530 . S
C513 C203 1.565 . S
C517 C9 1.520 . S
C531 C237 1.564 . S
C535 C111 1.522 . S
C549 C77 1.524 . S
C553 C271 1.564 . S
C567 C5 1.557 . S
C571 C73 1.557 . S
C585 C39 1.554 . S
C589 C107 1.554 . S
C603 C209 1.557 . S
C607 C141 1.557 . S
C621 C175 1.548 . S
C625 C243 1.548 . S
