# Generated by pormake.
# Topology uou, (4)-cn, num edge types: 1
# Building blocks:
#     Node 0, Type 0, BuildingBlock: GALJAG_clean_sbu_0, # of connection points: 4
#     Node 1, Type 0, BuildingBlock: GALJAG_clean_sbu_0, # of connection points: 4
#     Node 2, Type 0, BuildingBlock: GALJAG_clean_sbu_0, # of connection points: 4
#     Node 3, Type 0, BuildingBlock: GALJAG_clean_sbu_0, # of connection points: 4
#     Node 4, Type 0, BuildingBlock: GALJAG_clean_sbu_0, # of connection points: 4
#     Node 5, Type 0, BuildingBlock: GALJAG_clean_sbu_0, # of connection points: 4
#     Node 6, Type 0, BuildingBlock: GALJAG_clean_sbu_0, # of connection points: 4
#     Node 7, Type 0, BuildingBlock: GALJAG_clean_sbu_0, # of connection points: 4
#     Node 8, Type 0, BuildingBlock: GALJAG_clean_sbu_0, # of connection points: 4
#     Node 9, Type 0, BuildingBlock: GALJAG_clean_sbu_0, # of connection points: 4
#     Node 10, Type 0, BuildingBlock: GALJAG_clean_sbu_0, # of connection points: 4
#     Node 11, Type 0, BuildingBlock: GALJAG_clean_sbu_0, # of connection points: 4
#     Node 12, Type 0, BuildingBlock: GALJAG_clean_sbu_0, # of connection points: 4
#     Node 13, Type 0, BuildingBlock: GALJAG_clean_sbu_0, # of connection points: 4
#     Node 14, Type 0, BuildingBlock: GALJAG_clean_sbu_0, # of connection points: 4
#     Node 15, Type 0, BuildingBlock: GALJAG_clean_sbu_0, # of connection points: 4
#     Edge 16, Type (0, 0), BuildingBlock: TEMPAE_clean_linker_10, # of connection points: 2
#     Edge 17, Type (0, 0), BuildingBlock: TEMPAE_clean_linker_10, # of connection points: 2
#     Edge 18, Type (0, 0), BuildingBlock: TEMPAE_clean_linker_10, # of connection points: 2
#     Edge 19, Type (0, 0), BuildingBlock: TEMPAE_clean_linker_10, # of connection points: 2
#     Edge 20, Type (0, 0), BuildingBlock: TEMPAE_clean_linker_10, # of connection points: 2
#     Edge 21, Type (0, 0), BuildingBlock: TEMPAE_clean_linker_10, # of connection points: 2
#     Edge 22, Type (0, 0), BuildingBlock: TEMPAE_clean_linker_10, # of connection points: 2
#     Edge 23, Type (0, 0), BuildingBlock: TEMPAE_clean_linker_10, # of connection points: 2
#     Edge 24, Type (0, 0), BuildingBlock: TEMPAE_clean_linker_10, # of connection points: 2
#     Edge 25, Type (0, 0), BuildingBlock: TEMPAE_clean_linker_10, # of connection points: 2
#     Edge 26, Type (0, 0), BuildingBlock: TEMPAE_clean_linker_10, # of connection points: 2
#     Edge 27, Type (0, 0), BuildingBlock: TEMPAE_clean_linker_10, # of connection points: 2
#     Edge 28, Type (0, 0), BuildingBlock: TEMPAE_clean_linker_10, # of connection points: 2
#     Edge 29, Type (0, 0), BuildingBlock: TEMPAE_clean_linker_10, # of connection points: 2
#     Edge 30, Type (0, 0), BuildingBlock: TEMPAE_clean_linker_10, # of connection points: 2
#     Edge 31, Type (0, 0), BuildingBlock: TEMPAE_clean_linker_10, # of connection points: 2
#     Edge 32, Type (0, 0), BuildingBlock: TEMPAE_clean_linker_10, # of connection points: 2
#     Edge 33, Type (0, 0), BuildingBlock: TEMPAE_clean_linker_10, # of connection points: 2
#     Edge 34, Type (0, 0), BuildingBlock: TEMPAE_clean_linker_10, # of connection points: 2
#     Edge 35, Type (0, 0), BuildingBlock: TEMPAE_clean_linker_10, # of connection points: 2
#     Edge 36, Type (0, 0), BuildingBlock: TEMPAE_clean_linker_10, # of connection points: 2
#     Edge 37, Type (0, 0), BuildingBlock: TEMPAE_clean_linker_10, # of connection points: 2
#     Edge 38, Type (0, 0), BuildingBlock: TEMPAE_clean_linker_10, # of connection points: 2
#     Edge 39, Type (0, 0), BuildingBlock: TEMPAE_clean_linker_10, # of connection points: 2
#     Edge 40, Type (0, 0), BuildingBlock: TEMPAE_clean_linker_10, # of connection points: 2
#     Edge 41, Type (0, 0), BuildingBlock: TEMPAE_clean_linker_10, # of connection points: 2
#     Edge 42, Type (0, 0), BuildingBlock: TEMPAE_clean_linker_10, # of connection points: 2
#     Edge 43, Type (0, 0), BuildingBlock: TEMPAE_clean_linker_10, # of connection points: 2
#     Edge 44, Type (0, 0), BuildingBlock: TEMPAE_clean_linker_10, # of connection points: 2
#     Edge 45, Type (0, 0), BuildingBlock: TEMPAE_clean_linker_10, # of connection points: 2
#     Edge 46, Type (0, 0), BuildingBlock: TEMPAE_clean_linker_10, # of connection points: 2
#     Edge 47, Type (0, 0), BuildingBlock: TEMPAE_clean_linker_10, # of connection points: 2
# Relax obj value: 0.005
# Max RMSD: 0.017
# Mean RMSD: 0.017
data_MOF--net-uou--node1-GALJAG_clean_sbu_0--edge1-TEMPAE_clean_linker_10
_symmetry_space_group_name_H-M    P1
_symmetry_Int_Tables_number       1
_symmetry_cell_setting            triclinic
loop_
_symmetry_equiv_pos_as_xyz
'x, y, z'
_cell_length_a     36.083266
_cell_length_b     43.802575
_cell_length_c     54.983456
_cell_angle_alpha  89.96398
_cell_angle_beta   90.011364
_cell_angle_gamma 90.028315
loop_
_atom_site_label
_atom_site_type_symbol
_atom_site_fract_x
_atom_site_fract_y
_atom_site_fract_z
_atom_type_partial_charge
In0 In 0.05903 0.07553 0.11131 0.0
O1 O 0.12239 0.08012 0.1134 0.0
O2 O 0.09963 0.0391 0.09925 0.0
C3 C 0.03838 0.13469 0.1094 0.0
C4 C 0.02375 0.05066 0.07308 0.0
C5 C 0.04504 0.06049 0.15794 0.0
O6 O 0.06772 0.12519 0.09937 0.0
O7 O 0.01969 0.11441 0.12012 0.0
O8 O 0.02324 0.05346 0.14085 0.0
O9 O 0.07381 0.07458 0.15137 0.0
C10 C 0.12832 0.05383 0.10482 0.0
O11 O 0.02507 0.03777 0.09363 0.0
O12 O 0.03908 0.07655 0.07211 0.0
In13 In 0.44386 0.92577 0.11604 0.0
O14 O 0.38042 0.92119 0.11563 0.0
O15 O 0.4044 0.96345 0.10496 0.0
C16 C 0.46569 0.86707 0.113 0.0
C17 C 0.48011 0.9514 0.07856 0.0
C18 C 0.45507 0.93801 0.1635 0.0
O19 O 0.4359 0.87636 0.1034 0.0
O20 O 0.48413 0.88732 0.12393 0.0
O21 O 0.47758 0.94647 0.14721 0.0
O22 O 0.42695 0.924 0.1557 0.0
C23 C 0.37528 0.94826 0.10844 0.0
O24 O 0.47891 0.96367 0.09936 0.0
O25 O 0.46418 0.92582 0.07701 0.0
In26 In 0.55707 0.91654 0.38389 0.0
O27 O 0.51472 0.94155 0.40736 0.0
O28 O 0.56669 0.92933 0.42318 0.0
C29 C 0.52934 0.92457 0.33884 0.0
C30 C 0.62234 0.94598 0.38017 0.0
C31 C 0.54176 0.85703 0.39168 0.0
O32 O 0.51796 0.93996 0.35678 0.0
O33 O 0.55407 0.90524 0.34382 0.0
O34 O 0.57224 0.86575 0.38271 0.0
O35 O 0.51967 0.87824 0.3971 0.0
C36 C 0.53559 0.94208 0.42586 0.0
O37 O 0.62039 0.91834 0.3868 0.0
O38 O 0.59166 0.95812 0.37499 0.0
In39 In 0.93667 0.07686 0.37675 0.0
O40 O 0.9507 0.03182 0.39584 0.0
O41 O 0.96994 0.07283 0.41185 0.0
C42 C 0.96233 0.06689 0.33157 0.0
C43 C 0.86437 0.06039 0.37638 0.0
C44 C 0.95387 0.13645 0.38166 0.0
O45 O 0.97415 0.05185 0.34965 0.0
O46 O 0.93792 0.08658 0.33649 0.0
O47 O 0.92269 0.12604 0.38816 0.0
O48 O 0.97583 0.11691 0.37303 0.0
C49 C 0.96754 0.04423 0.41331 0.0
O50 O 0.87862 0.07447 0.39409 0.0
O51 O 0.88608 0.05593 0.35886 0.0
In52 In 0.93019 0.91416 0.87781 0.0
O53 O 0.97084 0.94345 0.89976 0.0
O54 O 0.92263 0.92634 0.91745 0.0
C55 C 0.95125 0.92074 0.83129 0.0
C56 C 0.8639 0.94153 0.87326 0.0
C57 C 0.9522 0.8559 0.88484 0.0
O58 O 0.96579 0.93613 0.84829 0.0
O59 O 0.92642 0.90216 0.83792 0.0
O60 O 0.9183 0.86332 0.88481 0.0
O61 O 0.97441 0.87782 0.88188 0.0
C62 C 0.95172 0.94215 0.919 0.0
O63 O 0.86688 0.91455 0.88134 0.0
O64 O 0.89403 0.95405 0.86726 0.0
In65 In 0.56225 0.09181 0.88307 0.0
O66 O 0.62548 0.09048 0.88687 0.0
O67 O 0.59835 0.05346 0.86908 0.0
C68 C 0.54259 0.1503 0.89152 0.0
C69 C 0.54471 0.06263 0.92443 0.0
C70 C 0.53408 0.0862 0.83812 0.0
O71 O 0.57445 0.14317 0.88382 0.0
O72 O 0.52149 0.12796 0.89571 0.0
O73 O 0.52237 0.07015 0.85567 0.0
O74 O 0.55954 0.10477 0.84347 0.0
C75 C 0.62845 0.06481 0.87646 0.0
O76 O 0.52374 0.06196 0.90598 0.0
O77 O 0.57378 0.07834 0.92201 0.0
In78 In 0.43516 0.08469 0.61629 0.0
O79 O 0.4683 0.04577 0.5992 0.0
O80 O 0.44529 0.07948 0.57579 0.0
C81 C 0.4522 0.07955 0.66357 0.0
C82 C 0.3666 0.0602 0.61617 0.0
C83 C 0.45997 0.14237 0.61111 0.0
O84 O 0.47071 0.06622 0.64716 0.0
O85 O 0.42537 0.09547 0.656 0.0
O86 O 0.42601 0.13563 0.60878 0.0
O87 O 0.48095 0.12006 0.61574 0.0
C88 C 0.46358 0.0551 0.57769 0.0
O89 O 0.37294 0.08612 0.60688 0.0
O90 O 0.39444 0.04732 0.62537 0.0
In91 In 0.06068 0.91389 0.61129 0.0
O92 O 0.02104 0.94316 0.58878 0.0
O93 O 0.06606 0.92111 0.5708 0.0
C94 C 0.03657 0.92107 0.65718 0.0
C95 C 0.12596 0.94351 0.61334 0.0
C96 C 0.04225 0.85465 0.60573 0.0
O97 O 0.02098 0.93432 0.63944 0.0
O98 O 0.06386 0.90452 0.65156 0.0
O99 O 0.07446 0.86282 0.61207 0.0
O100 O 0.01997 0.87626 0.6018 0.0
C101 C 0.0382 0.93839 0.56905 0.0
O102 O 0.12355 0.91628 0.60578 0.0
O103 O 0.09577 0.95523 0.62012 0.0
In104 In 0.56873 0.5884 0.11765 0.0
O105 O 0.63197 0.58875 0.12105 0.0
O106 O 0.60448 0.54652 0.11385 0.0
C107 C 0.54878 0.64751 0.11376 0.0
C108 C 0.54251 0.56677 0.07548 0.0
C109 C 0.55118 0.57445 0.16382 0.0
O110 O 0.58115 0.63855 0.1086 0.0
O111 O 0.52701 0.62676 0.12069 0.0
O112 O 0.53394 0.56301 0.14596 0.0
O113 O 0.5769 0.59264 0.1582 0.0
C114 C 0.63471 0.56033 0.11722 0.0
O115 O 0.52512 0.56311 0.09526 0.0
O116 O 0.57214 0.58193 0.07705 0.0
In117 In 0.94002 0.41477 0.1151 0.0
O118 O 0.87695 0.41487 0.11958 0.0
O119 O 0.90424 0.45666 0.11072 0.0
C120 C 0.95943 0.35547 0.11224 0.0
C121 C 0.96381 0.43461 0.07162 0.0
C122 C 0.95916 0.42874 0.16105 0.0
O123 O 0.92692 0.3645 0.10753 0.0
O124 O 0.98178 0.37629 0.11827 0.0
O125 O 0.9773 0.43878 0.14302 0.0
O126 O 0.93192 0.412 0.15568 0.0
C127 C 0.87413 0.44312 0.11508 0.0
O128 O 0.97962 0.44248 0.09122 0.0
O129 O 0.9372 0.41618 0.07415 0.0
In130 In 0.05846 0.41443 0.38139 0.0
O131 O 0.01825 0.44216 0.40472 0.0
O132 O 0.06259 0.41847 0.42218 0.0
C133 C 0.03979 0.42764 0.33521 0.0
C134 C 0.12611 0.4399 0.38034 0.0
C135 C 0.03528 0.35623 0.38574 0.0
O136 O 0.02464 0.44104 0.35303 0.0
O137 O 0.06394 0.4081 0.34092 0.0
O138 O 0.0683 0.36399 0.3904 0.0
O139 O 0.01437 0.37773 0.3791 0.0
C140 C 0.03494 0.43589 0.42437 0.0
O141 O 0.12132 0.4118 0.37601 0.0
O142 O 0.0971 0.45473 0.38513 0.0
In143 In 0.43467 0.5806 0.38125 0.0
O144 O 0.47374 0.55372 0.40574 0.0
O145 O 0.42322 0.57073 0.42087 0.0
C146 C 0.46155 0.57211 0.33606 0.0
C147 C 0.36932 0.55179 0.37713 0.0
C148 C 0.45284 0.63936 0.38981 0.0
O149 O 0.47451 0.55786 0.35415 0.0
O150 O 0.43563 0.59033 0.34097 0.0
O151 O 0.42068 0.63157 0.38311 0.0
O152 O 0.47528 0.61758 0.39258 0.0
C153 C 0.45264 0.55563 0.42409 0.0
O154 O 0.37138 0.58061 0.37815 0.0
O155 O 0.39993 0.53795 0.3778 0.0
In156 In 0.43983 0.42807 0.88419 0.0
O157 O 0.37609 0.42555 0.88679 0.0
O158 O 0.40245 0.469 0.88726 0.0
C159 C 0.45117 0.36756 0.89037 0.0
C160 C 0.46868 0.45613 0.92309 0.0
C161 C 0.4678 0.43832 0.83931 0.0
O162 O 0.42451 0.3776 0.87774 0.0
O163 O 0.47096 0.38789 0.90004 0.0
O164 O 0.48786 0.42996 0.85685 0.0
O165 O 0.43411 0.44177 0.84444 0.0
C166 C 0.37251 0.45428 0.88803 0.0
O167 O 0.47581 0.46476 0.90164 0.0
O168 O 0.44783 0.43308 0.92478 0.0
In169 In 0.05483 0.5763 0.8801 0.0
O170 O 0.11559 0.57763 0.86811 0.0
O171 O 0.10321 0.55837 0.90256 0.0
C172 C 0.03777 0.63669 0.8822 0.0
C173 C 0.02081 0.54271 0.91466 0.0
C174 C 0.03608 0.55556 0.83554 0.0
O175 O 0.06191 0.6248 0.89583 0.0
O176 O 0.02296 0.61838 0.86752 0.0
O177 O 0.01239 0.5593 0.8522 0.0
O178 O 0.06895 0.56158 0.84163 0.0
C179 C 0.12753 0.564 0.88676 0.0
O180 O 0.03726 0.53089 0.89674 0.0
O181 O 0.01982 0.57149 0.91444 0.0
In182 In 0.9384 0.57689 0.61594 0.0
O183 O 0.96166 0.53268 0.5997 0.0
O184 O 0.96235 0.57274 0.57794 0.0
C185 C 0.96987 0.56384 0.65951 0.0
C186 C 0.86503 0.56352 0.61386 0.0
C187 C 0.95433 0.63641 0.60931 0.0
O188 O 0.96652 0.59051 0.65133 0.0
O189 O 0.95843 0.54326 0.64535 0.0
O190 O 0.92373 0.62772 0.61821 0.0
O191 O 0.97631 0.61517 0.60362 0.0
C192 C 0.96924 0.54462 0.5794 0.0
O193 O 0.88197 0.56762 0.63359 0.0
O194 O 0.88447 0.56799 0.5952 0.0
In195 In 0.55563 0.42254 0.61666 0.0
O196 O 0.51756 0.45825 0.59969 0.0
O197 O 0.53617 0.42192 0.57725 0.0
C198 C 0.53721 0.43471 0.66299 0.0
C199 C 0.62185 0.45055 0.61208 0.0
C200 C 0.54443 0.36154 0.61508 0.0
O201 O 0.51324 0.43202 0.64638 0.0
O202 O 0.5704 0.4316 0.65623 0.0
O203 O 0.57001 0.3742 0.60299 0.0
O204 O 0.52542 0.37947 0.62788 0.0
C205 C 0.518 0.4464 0.5788 0.0
O206 O 0.61942 0.42211 0.61591 0.0
O207 O 0.59123 0.46417 0.61035 0.0
C208 C 0.33395 0.98743 0.09019 0.0
C209 C 0.33836 0.96211 0.1055 0.0
C210 C 0.29984 0.00257 0.0885 0.0
C211 C 0.26978 0.9926 0.10298 0.0
C212 C 0.27398 0.96678 0.11828 0.0
C213 C 0.30819 0.95155 0.11911 0.0
C214 C 0.29613 0.02946 0.07146 0.0
C215 C 0.2427 0.95583 0.13432 0.0
C216 C 0.19432 0.05002 0.118 0.0
C217 C 0.16548 0.04011 0.10292 0.0
C218 C 0.22853 0.03476 0.11819 0.0
C219 C 0.23413 0.00954 0.10248 0.0
C220 C 0.20549 1.00024 0.08655 0.0
C221 C 0.17131 0.01541 0.08719 0.0
C222 C 0.25826 0.04501 0.13571 0.0
C223 C 0.21075 0.974 0.06908 0.0
H224 H 0.3573 0.99549 0.07956 0.0
H225 H 0.31175 0.93212 0.13111 0.0
H226 H 0.27224 0.026 0.05905 0.0
H227 H 0.29061 0.05052 0.08204 0.0
H228 H 0.32146 0.03309 0.06035 0.0
H229 H 0.25043 0.93534 0.1451 0.0
H230 H 0.23447 0.97428 0.14704 0.0
H231 H 0.21807 0.95024 0.1231 0.0
H232 H 0.18968 0.06894 0.13033 0.0
H233 H 0.149 0.00782 0.07544 0.0
H234 H 0.28388 0.05102 0.12565 0.0
H235 H 0.26532 0.02604 0.14828 0.0
H236 H 0.24954 0.06507 0.14666 0.0
H237 H 0.23574 0.97789 0.05773 0.0
H238 H 0.18648 0.97084 0.0569 0.0
H239 H 0.21527 0.95254 0.07937 0.0
C240 C 0.65682 0.99454 0.37319 0.0
C241 C 0.65734 0.96352 0.37956 0.0
C242 C 0.68944 0.01195 0.37308 0.0
C243 C 0.72342 0.99798 0.37942 0.0
C244 C 0.72414 0.96667 0.38592 0.0
C245 C 0.69103 0.94979 0.38593 0.0
C246 C 0.68756 0.04525 0.36602 0.0
C247 C 0.75993 0.95098 0.39272 0.0
C248 C 0.81303 0.03232 0.35603 0.0
C249 C 0.82667 0.04722 0.37676 0.0
C250 C 0.77918 0.01665 0.35658 0.0
C251 C 0.75843 0.01583 0.37839 0.0
C252 C 0.77148 0.03159 0.3992 0.0
C253 C 0.80551 0.04717 0.39813 0.0
C254 C 0.7661 1.00031 0.33395 0.0
C255 C 0.74997 0.03132 0.42275 0.0
H256 H 0.63082 0.00533 0.36834 0.0
H257 H 0.69153 0.92586 0.39096 0.0
H258 H 0.69905 0.05961 0.38083 0.0
H259 H 0.70474 0.04936 0.34961 0.0
H260 H 0.65878 0.05284 0.36216 0.0
H261 H 0.75566 0.92669 0.39782 0.0
H262 H 0.77957 0.95197 0.37721 0.0
H263 H 0.77317 0.963 0.40821 0.0
H264 H 0.82925 0.03231 0.33944 0.0
H265 H 0.81603 0.05855 0.41422 0.0
H266 H 0.73793 0.00822 0.3289 0.0
H267 H 0.76427 0.97543 0.33754 0.0
H268 H 0.7849 0.00404 0.31823 0.0
H269 H 0.72131 0.03958 0.41962 0.0
H270 H 0.76312 0.04575 0.43695 0.0
H271 H 0.74791 0.0076 0.42971 0.0
C272 C 0.82569 0.98456 0.85759 0.0
C273 C 0.82841 0.95822 0.87198 0.0
C274 C 0.7932 0.00209 0.8573 0.0
C275 C 0.76295 0.99339 0.87214 0.0
C276 C 0.76539 0.96661 0.88653 0.0
C277 C 0.79804 0.94913 0.8861 0.0
C278 C 0.7914 0.03011 0.84131 0.0
C279 C 0.73385 0.95683 0.90281 0.0
C280 C 0.69364 0.05493 0.88968 0.0
C281 C 0.66379 0.04805 0.87435 0.0
C282 C 0.72609 0.03722 0.88923 0.0
C283 C 0.72889 0.01249 0.87272 0.0
C284 C 0.69917 0.00603 0.85674 0.0
C285 C 0.66683 0.02371 0.85792 0.0
C286 C 0.75704 0.04454 0.90677 0.0
C287 C 0.70142 0.98031 0.83852 0.0
H288 H 0.84911 0.99156 0.84656 0.0
H289 H 0.8002 0.92891 0.89737 0.0
H290 H 0.76704 0.02869 0.82904 0.0
H291 H 0.78782 0.05079 0.8527 0.0
H292 H 0.81674 0.03298 0.83007 0.0
H293 H 0.74009 0.93539 0.91281 0.0
H294 H 0.72783 0.97508 0.91623 0.0
H295 H 0.70835 0.95334 0.89189 0.0
H296 H 0.69121 0.07356 0.90254 0.0
H297 H 0.64379 0.01841 0.84598 0.0
H298 H 0.7829 0.04956 0.89662 0.0
H299 H 0.76265 0.02447 0.91853 0.0
H300 H 0.75043 0.06441 0.91855 0.0
H301 H 0.72611 0.98333 0.82673 0.0
H302 H 0.6764 0.97899 0.82679 0.0
H303 H 0.7047 0.95822 0.84815 0.0
C304 C 0.16326 0.98827 0.62689 0.0
C305 C 0.16099 0.96097 0.61366 0.0
C306 C 0.19594 0.00559 0.62715 0.0
C307 C 0.2269 0.99564 0.61351 0.0
C308 C 0.22463 0.96827 0.59985 0.0
C309 C 0.19175 0.95108 0.60027 0.0
C310 C 0.19752 0.0343 0.64232 0.0
C311 C 0.25694 0.95714 0.58485 0.0
C312 C 0.30276 0.05333 0.59907 0.0
C313 C 0.32995 0.04521 0.61605 0.0
C314 C 0.26901 0.0373 0.59791 0.0
C315 C 0.26223 0.01311 0.61446 0.0
C316 C 0.28929 0.00545 0.63204 0.0
C317 C 0.32294 0.02139 0.63246 0.0
C318 C 0.24097 0.04581 0.5787 0.0
C319 C 0.28283 0.98026 0.65035 0.0
H320 H 0.13953 0.99596 0.6373 0.0
H321 H 0.18995 0.93013 0.58986 0.0
H322 H 0.2196 0.03217 0.65627 0.0
H323 H 0.20469 0.05416 0.63071 0.0
H324 H 0.17085 0.03909 0.65165 0.0
H325 H 0.25008 0.93624 0.57432 0.0
H326 H 0.26589 0.97523 0.57199 0.0
H327 H 0.28084 0.95206 0.59688 0.0
H328 H 0.30827 0.0716 0.58626 0.0
H329 H 0.34387 0.01517 0.64572 0.0
H330 H 0.21428 0.05211 0.58735 0.0
H331 H 0.23551 0.02588 0.56677 0.0
H332 H 0.25044 0.0652 0.56723 0.0
H333 H 0.25708 0.98479 0.66077 0.0
H334 H 0.30619 0.97789 0.66338 0.0
H335 H 0.27901 0.95818 0.6408 0.0
C336 C 0.83419 0.48512 0.09995 0.0
C337 C 0.8386 0.45955 0.11497 0.0
C338 C 0.80104 0.50175 0.09992 0.0
C339 C 0.77215 0.49313 0.11591 0.0
C340 C 0.77662 0.46743 0.13131 0.0
C341 C 0.80969 0.45058 0.13035 0.0
C342 C 0.79684 0.52836 0.08265 0.0
C343 C 0.74673 0.45804 0.14901 0.0
C344 C 0.7003 0.55374 0.13066 0.0
C345 C 0.67032 0.54403 0.1165 0.0
C346 C 0.73352 0.53706 0.13099 0.0
C347 C 0.73701 0.51074 0.11619 0.0
C348 C 0.70701 0.50137 0.10138 0.0
C349 C 0.6738 0.51788 0.10203 0.0
C350 C 0.76465 0.54727 0.14744 0.0
C351 C 0.71006 0.47405 0.08476 0.0
H352 H 0.85658 0.49189 0.08794 0.0
H353 H 0.81335 0.43095 0.14213 0.0
H354 H 0.77216 0.5249 0.07091 0.0
H355 H 0.79232 0.54972 0.09303 0.0
H356 H 0.82153 0.53142 0.07082 0.0
H357 H 0.75513 0.43822 0.16035 0.0
H358 H 0.7399 0.47744 0.16119 0.0
H359 H 0.72107 0.45198 0.13902 0.0
H360 H 0.69738 0.57384 0.142 0.0
H361 H 0.6506 0.51054 0.09093 0.0
H362 H 0.78957 0.5528 0.1365 0.0
H363 H 0.77235 0.52848 0.16001 0.0
H364 H 0.75707 0.56765 0.15838 0.0
H365 H 0.73393 0.47697 0.07224 0.0
H366 H 0.68461 0.47052 0.07374 0.0
H367 H 0.71526 0.45313 0.0956 0.0
C368 C 0.30293 0.54717 0.36481 0.0
C369 C 0.33395 0.53508 0.37666 0.0
C370 C 0.26936 0.53094 0.36422 0.0
C371 C 0.26659 0.50262 0.37659 0.0
C372 C 0.29784 0.49058 0.38882 0.0
C373 C 0.33136 0.50673 0.38832 0.0
C374 C 0.23692 0.54403 0.35037 0.0
C375 C 0.29566 0.46104 0.40295 0.0
C376 C 0.17043 0.47815 0.39638 0.0
C377 C 0.16261 0.45478 0.37981 0.0
C378 C 0.20448 0.49352 0.39579 0.0
C379 C 0.23065 0.48609 0.37756 0.0
C380 C 0.22266 0.46266 0.36058 0.0
C381 C 0.18889 0.44682 0.36221 0.0
C382 C 0.2125 0.51755 0.41478 0.0
C383 C 0.24942 0.45479 0.34044 0.0
H384 H 0.30515 0.56903 0.35565 0.0
H385 H 0.35537 0.49755 0.39767 0.0
H386 H 0.22623 0.52695 0.33722 0.0
H387 H 0.21402 0.54942 0.36311 0.0
H388 H 0.24441 0.56515 0.34031 0.0
H389 H 0.32243 0.45504 0.41171 0.0
H390 H 0.27411 0.46289 0.41727 0.0
H391 H 0.2874 0.44207 0.39075 0.0
H392 H 0.15001 0.48413 0.41004 0.0
H393 H 0.18248 0.42895 0.34924 0.0
H394 H 0.21642 0.54008 0.40594 0.0
H395 H 0.23863 0.51199 0.42446 0.0
H396 H 0.18986 0.51956 0.42837 0.0
H397 H 0.25547 0.47545 0.32944 0.0
H398 H 0.23846 0.43673 0.32822 0.0
H399 H 0.27607 0.44684 0.34824 0.0
C400 C 0.18807 0.55015 0.86779 0.0
C401 C 0.16545 0.55146 0.88847 0.0
C402 C 0.22191 0.53438 0.86824 0.0
C403 C 0.23355 0.51992 0.88998 0.0
C404 C 0.21145 0.52215 0.91117 0.0
C405 C 0.17754 0.53776 0.91012 0.0
C406 C 0.24469 0.53242 0.84525 0.0
C407 C 0.22326 0.50751 0.9348 0.0
C408 C 0.30315 0.45497 0.88492 0.0
C409 C 0.3365 0.47017 0.88974 0.0
C410 C 0.26929 0.47084 0.88511 0.0
C411 C 0.2689 0.50249 0.89053 0.0
C412 C 0.30244 0.5177 0.89601 0.0
C413 C 0.33581 0.5014 0.89541 0.0
C414 C 0.23403 0.45393 0.87902 0.0
C415 C 0.30316 0.5513 0.90219 0.0
H416 H 0.17869 0.56049 0.85096 0.0
H417 H 0.16009 0.53869 0.92616 0.0
H418 H 0.27293 0.54157 0.84852 0.0
H419 H 0.24779 0.50819 0.83975 0.0
H420 H 0.23198 0.54526 0.82994 0.0
H421 H 0.20368 0.51247 0.94988 0.0
H422 H 0.2251 0.4824 0.93248 0.0
H423 H 0.25122 0.51572 0.94007 0.0
H424 H 0.30362 0.43087 0.88047 0.0
H425 H 0.36152 0.51324 0.89932 0.0
H426 H 0.2211 0.46411 0.86259 0.0
H427 H 0.21384 0.45622 0.89412 0.0
H428 H 0.23895 0.42927 0.8756 0.0
H429 H 0.29298 0.56482 0.88649 0.0
H430 H 0.3314 0.55941 0.90699 0.0
H431 H 0.28434 0.55598 0.9177 0.0
C432 C 0.65713 0.49908 0.60724 0.0
C433 C 0.65737 0.46735 0.61082 0.0
C434 C 0.69014 0.51596 0.60712 0.0
C435 C 0.72428 0.50075 0.61059 0.0
C436 C 0.72481 0.46864 0.61383 0.0
C437 C 0.69128 0.45229 0.61394 0.0
C438 C 0.6884 0.55014 0.60364 0.0
C439 C 0.76077 0.45164 0.61747 0.0
C440 C 0.81301 0.54005 0.59048 0.0
C441 C 0.82728 0.55048 0.6127 0.0
C442 C 0.77936 0.52402 0.58949 0.0
C443 C 0.75939 0.51855 0.61122 0.0
C444 C 0.77305 0.52994 0.63359 0.0
C445 C 0.80694 0.54567 0.63408 0.0
C446 C 0.7657 0.51221 0.5653 0.0
C447 C 0.75227 0.52491 0.6571 0.0
H448 H 0.631 0.51089 0.6048 0.0
H449 H 0.69159 0.42779 0.61672 0.0
H450 H 0.70003 0.5618 0.61984 0.0
H451 H 0.70552 0.55698 0.58779 0.0
H452 H 0.65964 0.55841 0.60072 0.0
H453 H 0.75653 0.4266 0.6191 0.0
H454 H 0.77974 0.45611 0.60199 0.0
H455 H 0.77477 0.45993 0.63417 0.0
H456 H 0.82875 0.54353 0.57392 0.0
H457 H 0.81789 0.55366 0.6513 0.0
H458 H 0.73731 0.52079 0.56164 0.0
H459 H 0.76415 0.48692 0.56578 0.0
H460 H 0.784 0.51911 0.55 0.0
H461 H 0.72361 0.53385 0.65549 0.0
H462 H 0.76598 0.53617 0.6728 0.0
H463 H 0.75015 0.5001 0.66091 0.0
C464 C 0.96577 0.08326 0.28837 0.0
C465 C 0.97586 0.06237 0.3065 0.0
C466 C 0.97831 0.0799 0.26444 0.0
C467 C 0.00119 0.0548 0.2584 0.0
C468 C 0.01117 0.03336 0.27655 0.0
C469 C -0.00146 0.03752 0.30051 0.0
C470 C 0.96741 0.10348 0.24568 0.0
C471 C 0.03522 0.00617 0.27066 0.0
C472 C 0.00419 0.0393 0.19061 0.0
C473 C 0.03628 0.05521 0.18384 0.0
C474 C 0.99356 0.03729 0.21513 0.0
C475 C 0.01535 0.05185 0.23314 0.0
C476 C 0.04871 0.06665 0.22649 0.0
C477 C 0.05886 0.06801 0.20192 0.0
C478 C 0.95805 0.02096 0.22159 0.0
C479 C 0.07254 0.08268 0.24512 0.0
H480 H 0.94832 0.10257 0.29293 0.0
H481 H 0.00623 0.02126 0.31449 0.0
H482 H 0.99259 0.1144 0.23802 0.0
H483 H 0.95252 0.09237 0.23041 0.0
H484 H 0.94934 0.12159 0.25336 0.0
H485 H 0.03939 0.99103 0.28664 0.0
H486 H 0.02249 0.99267 0.25577 0.0
H487 H 0.0627 0.01401 0.26412 0.0
H488 H 0.9868 0.02918 0.17671 0.0
H489 H 0.08379 0.08025 0.19679 0.0
H490 H 0.93686 0.03789 0.2272 0.0
H491 H 0.96257 0.00533 0.2372 0.0
H492 H 0.94689 0.00759 0.20607 0.0
H493 H 0.05749 0.10283 0.25232 0.0
H494 H 0.09932 0.09055 0.23736 0.0
H495 H 0.07834 0.06735 0.26072 0.0
C496 C 0.43847 0.92817 0.20679 0.0
C497 C 0.46239 0.94164 0.18978 0.0
C498 C 0.4471 0.92806 0.23165 0.0
C499 C 0.48032 0.94196 0.23968 0.0
C500 C 0.50357 0.95705 0.22275 0.0
C501 C 0.4944 0.9566 0.19793 0.0
C502 C 0.4217 0.91157 0.2491 0.0
C503 C 0.53904 0.97239 0.23069 0.0
C504 C 0.4937 0.9542 0.30763 0.0
C505 C 0.51583 0.92904 0.31374 0.0
C506 C 0.48209 0.95896 0.28352 0.0
C507 C 0.49259 0.93785 0.26528 0.0
C508 C 0.51462 0.91227 0.27146 0.0
C509 C 0.5261 0.90828 0.29557 0.0
C510 C 0.45885 0.9866 0.27751 0.0
C511 C 0.52605 0.88904 0.25259 0.0
H512 H 0.41361 0.91666 0.2006 0.0
H513 H 0.51286 0.96718 0.18486 0.0
H514 H 0.43583 0.8909 0.25618 0.0
H515 H 0.41514 0.9263 0.26492 0.0
H516 H 0.39533 0.90445 0.24034 0.0
H517 H 0.55178 0.98601 0.21583 0.0
H518 H 0.5338 0.98761 0.24644 0.0
H519 H 0.55925 0.95483 0.23665 0.0
H520 H 0.48587 0.97038 0.32163 0.0
H521 H 0.54313 0.88874 0.30022 0.0
H522 H 0.43198 0.97934 0.26959 0.0
H523 H 0.47313 0.00073 0.26363 0.0
H524 H 0.4533 0.00096 0.29375 0.0
H525 H 0.50111 0.87894 0.24395 0.0
H526 H 0.54299 0.8703 0.26045 0.0
H527 H 0.54235 0.90031 0.23802 0.0
C528 C 0.99408 0.943 0.68873 0.0
C529 C 0.02401 0.92411 0.68264 0.0
C530 C 0.98162 0.9451 0.7129 0.0
C531 C -0.00055 0.92777 0.73124 0.0
C532 C 0.03007 0.90909 0.7252 0.0
C533 C 0.042 0.90755 0.701 0.0
C534 C 0.949 0.96537 0.71873 0.0
C535 C 0.04973 0.89016 0.74422 0.0
C536 C 0.98841 0.94585 0.79843 0.0
C537 C 0.96243 0.92379 0.80556 0.0
C538 C -0.00014 0.94816 0.77408 0.0
C539 C 0.98514 0.92776 0.75658 0.0
C540 C 0.95837 0.90586 0.76364 0.0
C541 C 0.94727 0.9042 0.78802 0.0
C542 C 0.0283 0.97191 0.76717 0.0
C543 C 0.94222 0.88355 0.74556 0.0
H544 H 0.9802 0.95594 0.6746 0.0
H545 H 0.06522 0.89295 0.69643 0.0
H546 H 0.92554 0.95128 0.72537 0.0
H547 H 0.95638 0.9815 0.73352 0.0
H548 H 0.93956 0.97868 0.70268 0.0
H549 H 0.0739 0.87765 0.73666 0.0
H550 H 0.0595 0.90497 0.75927 0.0
H551 H 0.03019 0.87331 0.75215 0.0
H552 H 4e-05 0.96116 0.81191 0.0
H553 H 0.92711 0.88714 0.79342 0.0
H554 H 0.01811 0.98579 0.75167 0.0
H555 H 0.05418 0.96052 0.76116 0.0
H556 H 0.03503 0.98742 0.78253 0.0
H557 H 0.93013 0.896 0.72988 0.0
H558 H 0.92039 0.8689 0.75374 0.0
H559 H 0.96449 0.86862 0.73837 0.0
C560 C 0.49152 0.05948 0.69741 0.0
C561 C 0.46156 0.07734 0.68965 0.0
C562 C 0.50176 0.05855 0.72202 0.0
C563 C 0.48159 0.076 0.73917 0.0
C564 C 0.45061 0.09333 0.73153 0.0
C565 C 0.44095 0.09376 0.70684 0.0
C566 C 0.53489 0.03974 0.72954 0.0
C567 C 0.42851 0.11231 0.74927 0.0
C568 C 0.49422 0.06077 0.80676 0.0
C569 C 0.51996 0.08343 0.81302 0.0
C570 C 0.4815 0.0579 0.78271 0.0
C571 C 0.49476 0.07827 0.76468 0.0
C572 C 0.52059 0.10124 0.77099 0.0
C573 C 0.53291 0.10349 0.79506 0.0
C574 C 0.45401 0.0331 0.77656 0.0
C575 C 0.53524 0.12351 0.75231 0.0
H576 H 0.5074 0.04661 0.68419 0.0
H577 H 0.41763 0.1075 0.70094 0.0
H578 H 0.5574 0.05505 0.73589 0.0
H579 H 0.52753 0.02454 0.74494 0.0
H580 H 0.54571 0.02555 0.71438 0.0
H581 H 0.40362 0.12268 0.74073 0.0
H582 H 0.41952 0.09812 0.76492 0.0
H583 H 0.44617 0.1309 0.7566 0.0
H584 H 0.48423 0.04518 0.8206 0.0
H585 H 0.55277 0.12109 0.7998 0.0
H586 H 0.46566 0.01792 0.76235 0.0
H587 H 0.42835 0.04334 0.76901 0.0
H588 H 0.44656 0.01903 0.79266 0.0
H589 H 0.54926 0.11095 0.73741 0.0
H590 H 0.5552 0.14007 0.76023 0.0
H591 H 0.51194 0.13642 0.74408 0.0
C592 C 0.5118 0.54886 0.19531 0.0
C593 C 0.54108 0.56854 0.18941 0.0
C594 C 0.50012 0.54543 0.21952 0.0
C595 C 0.51801 0.56229 0.23811 0.0
C596 C 0.54865 0.5811 0.23233 0.0
C597 C 0.55988 0.58392 0.20806 0.0
C598 C 0.46757 0.52491 0.22506 0.0
C599 C 0.56833 0.5996 0.2516 0.0
C600 C 0.46208 0.58767 0.29261 0.0
C601 C 0.47546 0.56842 0.31099 0.0
C602 C 0.47524 0.58541 0.26875 0.0
C603 C 0.50226 0.56316 0.26304 0.0
C604 C 0.51536 0.54315 0.28137 0.0
C605 C 0.5019 0.54613 0.30525 0.0
C606 C 0.4608 0.60738 0.24978 0.0
C607 C 0.54392 0.51898 0.27582 0.0
H608 H 0.49738 0.53675 0.18095 0.0
H609 H 0.58271 0.59902 0.20362 0.0
H610 H 0.47399 0.50978 0.24069 0.0
H611 H 0.44331 0.53902 0.23025 0.0
H612 H 0.45974 0.51057 0.20922 0.0
H613 H 0.59363 0.61097 0.24447 0.0
H614 H 0.54934 0.61741 0.2587 0.0
H615 H 0.5763 0.58484 0.26714 0.0
H616 H 0.44161 0.60494 0.29694 0.0
H617 H 0.51214 0.53109 0.3194 0.0
H618 H 0.44905 0.5946 0.23417 0.0
H619 H 0.48392 0.62155 0.2427 0.0
H620 H 0.43908 0.62282 0.25708 0.0
H621 H 0.53451 0.50462 0.2604 0.0
H622 H 0.54949 0.50401 0.29172 0.0
H623 H 0.57029 0.52996 0.27023 0.0
C624 C 0.04335 0.41362 0.29148 0.0
C625 C 0.02939 0.43301 0.30956 0.0
C626 C 0.03233 0.41666 0.26719 0.0
C627 C 0.00704 0.43996 0.2607 0.0
C628 C 0.99394 0.46044 0.27869 0.0
C629 C 0.00507 0.45657 0.30302 0.0
C630 C 0.04661 0.39408 0.24866 0.0
C631 C 0.9674 0.48584 0.27234 0.0
C632 C 1e-05 0.45305 0.19253 0.0
C633 C 0.96957 0.43459 0.18664 0.0
C634 C 0.01141 0.45651 0.21684 0.0
C635 C 0.99212 0.44086 0.23551 0.0
C636 C 0.96049 0.42321 0.22968 0.0
C637 C 0.94953 0.42041 0.20536 0.0
C638 C 0.04495 0.47587 0.22242 0.0
C639 C 0.9393 0.40593 0.249 0.0
H640 H 0.06221 0.39537 0.29641 0.0
H641 H 0.99443 0.47175 0.31693 0.0
H642 H 0.02319 0.38041 0.24139 0.0
H643 H 0.05939 0.40629 0.2331 0.0
H644 H 0.06745 0.37819 0.25647 0.0
H645 H 0.96299 0.50175 0.2878 0.0
H646 H 0.97791 0.49901 0.25653 0.0
H647 H 0.94023 0.47603 0.26704 0.0
H648 H 0.0154 0.46424 0.17813 0.0
H649 H 0.92582 0.40625 0.20095 0.0
H650 H 0.06828 0.46097 0.22805 0.0
H651 H 0.03905 0.49155 0.23778 0.0
H652 H 0.05393 0.48956 0.20646 0.0
H653 H 0.95724 0.38786 0.25684 0.0
H654 H 0.91382 0.39503 0.2417 0.0
H655 H 0.93136 0.42145 0.26405 0.0
C656 C 0.54959 0.45621 0.70409 0.0
C657 C 0.52719 0.43869 0.68868 0.0
C658 C 0.54116 0.45895 0.72891 0.0
C659 C 0.51061 0.44267 0.73857 0.0
C660 C 0.48805 0.42481 0.723 0.0
C661 C 0.49622 0.42354 0.6981 0.0
C662 C 0.56493 0.47915 0.74477 0.0
C663 C 0.45595 0.40633 0.73273 0.0
C664 C 0.50967 0.42248 0.80569 0.0
C665 C 0.48171 0.44175 0.81433 0.0
C666 C 0.51982 0.42284 0.78105 0.0
C667 C 0.50244 0.44375 0.76503 0.0
C668 C 0.47561 0.4644 0.77405 0.0
C669 C 0.46502 0.46273 0.79854 0.0
C670 C 0.54772 0.39983 0.77197 0.0
C671 C 0.45743 0.48772 0.75771 0.0
H672 H 0.57347 0.46799 0.69665 0.0
H673 H 0.47924 0.4097 0.68613 0.0
H674 H 0.54729 0.49579 0.75464 0.0
H675 H 0.57939 0.46516 0.75865 0.0
H676 H 0.58602 0.4919 0.73411 0.0
H677 H 0.44185 0.39294 0.71828 0.0
H678 H 0.46592 0.39033 0.74696 0.0
H679 H 0.43531 0.42161 0.74137 0.0
H680 H 0.52225 0.40605 0.81793 0.0
H681 H 0.4435 0.47773 0.80535 0.0
H682 H 0.57085 0.41156 0.76254 0.0
H683 H 0.53432 0.38448 0.75852 0.0
H684 H 0.55935 0.38567 0.7869 0.0
H685 H 0.47874 0.50051 0.74731 0.0
H686 H 0.4403 0.50426 0.7681 0.0
H687 H 0.43935 0.47603 0.74431 0.0
C688 C 0.0539 0.54153 0.79319 0.0
C689 C 0.02606 0.54826 0.81015 0.0
C690 C 0.04581 0.53934 0.7683 0.0
C691 C 0.0091 0.5444 0.7602 0.0
C692 C 0.9805 0.54936 0.77741 0.0
C693 C 0.98931 0.55106 0.80224 0.0
C694 C 0.07697 0.53354 0.75058 0.0
C695 C 0.94102 0.55498 0.76949 0.0
C696 C 0.99549 0.58219 0.69887 0.0
C697 C 0.98308 0.55784 0.6845 0.0
C698 C 0.00468 0.57789 0.72338 0.0
C699 C 0.00146 0.54845 0.73382 0.0
C700 C 0.99005 0.52352 0.71923 0.0
C701 C 0.98095 0.52852 0.69468 0.0
C702 C 0.0169 0.60508 0.73827 0.0
C703 C 0.98656 0.4918 0.72972 0.0
H704 H 0.08233 0.53907 0.79927 0.0
H705 H 0.96771 0.55625 0.8153 0.0
H706 H 0.06876 0.51608 0.737 0.0
H707 H 0.08329 0.55487 0.74051 0.0
H708 H 0.10264 0.52579 0.75989 0.0
H709 H 0.92148 0.55513 0.7851 0.0
H710 H 0.93925 0.57737 0.76011 0.0
H711 H 0.93199 0.53727 0.75635 0.0
H712 H 0.99728 0.60489 0.69109 0.0
H713 H 0.97128 0.50963 0.68364 0.0
H714 H 0.0444 0.6006 0.74656 0.0
H715 H 0.99703 0.609 0.75335 0.0
H716 H 0.01878 0.62629 0.72724 0.0
H717 H 0.01272 0.4851 0.73888 0.0
H718 H 0.97984 0.47453 0.7156 0.0
H719 H 0.96439 0.49147 0.7437 0.0
C720 C 0.04162 0.18743 0.09196 0.0
C721 C 0.02671 0.16702 0.10897 0.0
C722 C 0.03029 0.21812 0.09142 0.0
C723 C 0.00408 0.22869 0.10865 0.0
C724 C 0.98916 0.20815 0.12596 0.0
C725 C 0.00036 0.1775 0.12574 0.0
C726 C 0.04632 0.23922 0.07241 0.0
C727 C 0.96177 0.21865 0.14496 0.0
C728 C 0.00259 0.31335 0.12338 0.0
C729 C 0.97071 0.3231 0.11106 0.0
C730 C 0.01371 0.28268 0.12278 0.0
C731 C 0.9929 0.26138 0.10904 0.0
C732 C 0.96098 0.27121 0.09623 0.0
C733 C 0.94999 0.30194 0.09764 0.0
C734 C 0.0474 0.27299 0.13714 0.0
C735 C 0.93851 0.24929 0.08102 0.0
H736 H 0.06184 0.17933 0.07889 0.0
H737 H 0.98891 0.16179 0.13901 0.0
H738 H 0.02365 0.24991 0.06176 0.0
H739 H 0.06195 0.25793 0.08134 0.0
H740 H 0.06521 0.22715 0.05969 0.0
H741 H 0.95298 0.19983 0.15723 0.0
H742 H 0.97426 0.23707 0.15614 0.0
H743 H 0.9368 0.22831 0.13607 0.0
H744 H 0.01856 0.32965 0.13389 0.0
H745 H 0.92547 0.30949 0.08796 0.0
H746 H 0.06837 0.26283 0.12483 0.0
H747 H 0.03955 0.25516 0.15054 0.0
H748 H 0.06036 0.29235 0.14704 0.0
H749 H 0.9566 0.23804 0.06739 0.0
H750 H 0.91537 0.26081 0.07135 0.0
H751 H 0.92681 0.23106 0.09274 0.0
C752 C 0.50505 0.82448 0.12823 0.0
C753 C 0.47822 0.83501 0.11182 0.0
C754 C 0.51703 0.79404 0.12781 0.0
C755 C 0.50238 0.77381 0.11019 0.0
C756 C 0.4758 0.78448 0.09323 0.0
C757 C 0.46369 0.81494 0.09443 0.0
C758 C 0.5448 0.78339 0.14654 0.0
C759 C 0.46005 0.76371 0.07392 0.0
C760 C 0.55731 0.70109 0.09882 0.0
C761 C 0.53699 0.67974 0.11233 0.0
C762 C 0.54584 0.7317 0.0974 0.0
C763 C 0.51382 0.74119 0.11025 0.0
C764 C 0.49331 0.71967 0.12396 0.0
C765 C 0.50493 0.68916 0.12462 0.0
C766 C 0.568 0.7539 0.08224 0.0
C767 C 0.45946 0.72898 0.13832 0.0
H768 H 0.51623 0.83993 0.14178 0.0
H769 H 0.44313 0.82311 0.08161 0.0
H770 H 0.53259 0.76475 0.15763 0.0
H771 H 0.5697 0.77398 0.13741 0.0
H772 H 0.55364 0.80206 0.15892 0.0
H773 H 0.44118 0.77596 0.06128 0.0
H774 H 0.48285 0.75331 0.06321 0.0
H775 H 0.44446 0.74477 0.08257 0.0
H776 H 0.58195 0.69379 0.08917 0.0
H777 H 0.48923 0.67273 0.13517 0.0
H778 H 0.57977 0.772 0.09404 0.0
H779 H 0.54968 0.76529 0.06879 0.0
H780 H 0.59106 0.74258 0.07236 0.0
H781 H 0.46713 0.74661 0.15191 0.0
H782 H 0.44656 0.70941 0.14801 0.0
H783 H 0.43849 0.73926 0.12606 0.0
C784 C 0.49499 0.67873 0.40733 0.0
C785 C 0.46441 0.67147 0.3927 0.0
C786 C 0.50806 0.70884 0.40898 0.0
C787 C 0.49079 0.73204 0.39508 0.0
C788 C 0.45967 0.72484 0.38043 0.0
C789 C 0.44652 0.69467 0.37969 0.0
C790 C 0.54059 0.71576 0.42535 0.0
C791 C 0.44099 0.74881 0.36495 0.0
C792 C 0.50341 0.81595 0.41044 0.0
C793 C 0.53123 0.8246 0.39404 0.0
C794 C 0.49086 0.78565 0.41157 0.0
C795 C 0.50575 0.76372 0.39539 0.0
C796 C 0.53423 0.77229 0.379 0.0
C797 C 0.547 0.80259 0.37875 0.0
C798 C 0.46126 0.77722 0.42979 0.0
C799 C 0.55028 0.74972 0.36113 0.0
H800 H 0.50875 0.66079 0.41749 0.0
H801 H 0.42309 0.68901 0.3682 0.0
H802 H 0.56451 0.72352 0.41429 0.0
H803 H 0.53348 0.73459 0.43802 0.0
H804 H 0.54928 0.69557 0.43618 0.0
H805 H 0.41713 0.73948 0.35457 0.0
H806 H 0.43099 0.76782 0.37653 0.0
H807 H 0.46125 0.75857 0.3519 0.0
H808 H 0.49132 0.83295 0.42235 0.0
H809 H 0.56827 0.80933 0.3659 0.0
H810 H 0.47034 0.75733 0.44078 0.0
H811 H 0.43557 0.77042 0.42012 0.0
H812 H 0.45459 0.79639 0.44226 0.0
H813 H 0.56188 0.72976 0.37093 0.0
H814 H 0.57249 0.75995 0.34973 0.0
H815 H 0.52804 0.7411 0.34899 0.0
C816 C 0.04115 0.30254 0.40085 0.0
C817 C 0.02203 0.32438 0.38711 0.0
C818 C 0.02884 0.27212 0.4018 0.0
C819 C 0.99729 0.26329 0.38815 0.0
C820 C 0.97778 0.28537 0.37438 0.0
C821 C 0.99014 0.31572 0.37428 0.0
C822 C 0.04986 0.24934 0.41711 0.0
C823 C 0.9446 0.27675 0.3591 0.0
C824 C 0.99169 0.18064 0.36803 0.0
C825 C 0.96425 0.16895 0.38347 0.0
C826 C 0.00246 0.21133 0.36929 0.0
C827 C 0.98609 0.23063 0.3869 0.0
C828 C 0.95866 0.21885 0.4028 0.0
C829 C 0.94764 0.18817 0.40065 0.0
C830 C 0.03105 0.22317 0.35156 0.0
C831 C 0.94124 0.23859 0.42216 0.0
H832 H 0.06563 0.30927 0.41095 0.0
H833 H 0.97537 0.33256 0.36355 0.0
H834 H 0.03055 0.23707 0.42942 0.0
H835 H 0.06302 0.23203 0.40521 0.0
H836 H 0.0718 0.26036 0.42824 0.0
H837 H 0.93193 0.29682 0.34995 0.0
H838 H 0.95304 0.26005 0.34498 0.0
H839 H 0.92322 0.26557 0.37053 0.0
H840 H 0.0044 0.16583 0.35461 0.0
H841 H 0.92662 0.17905 0.41273 0.0
H842 H 0.05554 0.2319 0.36156 0.0
H843 H 0.01941 0.24253 0.34101 0.0
H844 H 0.04045 0.20532 0.33861 0.0
H845 H 0.96311 0.24833 0.43405 0.0
H846 H 0.9213 0.22569 0.43364 0.0
H847 H 0.92647 0.25804 0.41363 0.0
C848 C 0.03465 0.68669 0.90425 0.0
C849 C 0.02659 0.66913 0.88361 0.0
C850 C 0.02243 0.7171 0.90608 0.0
C851 C 0.00239 0.73036 0.88658 0.0
C852 C 0.9947 0.71279 0.86557 0.0
C853 C 0.00656 0.68232 0.86446 0.0
C854 C 0.03065 0.73495 0.92893 0.0
C855 C 0.97414 0.72623 0.84416 0.0
C856 C 0.94185 0.80074 0.89514 0.0
C857 C 0.96528 0.82396 0.88671 0.0
C858 C 0.95402 0.77025 0.89604 0.0
C859 C 0.99011 0.76281 0.88777 0.0
C860 C 0.01393 0.78627 0.87945 0.0
C861 C 0.00136 0.81657 0.87927 0.0
C862 C 0.92809 0.74594 0.9055 0.0
C863 C 0.05231 0.77928 0.87001 0.0
H864 H 0.04988 0.67648 0.91918 0.0
H865 H 0.00037 0.66885 0.84843 0.0
H866 H 0.04767 0.75529 0.92449 0.0
H867 H 0.00442 0.7433 0.93708 0.0
H868 H 0.04564 0.72108 0.9427 0.0
H869 H 0.97091 0.70966 0.82902 0.0
H870 H 0.94621 0.73392 0.84993 0.0
H871 H 0.98914 0.74658 0.83724 0.0
H872 H 0.91402 0.8064 0.90102 0.0
H873 H 0.01953 0.83443 0.87261 0.0
H874 H 0.94189 0.73249 0.92001 0.0
H875 H 0.92093 0.72986 0.89064 0.0
H876 H 0.90202 0.75572 0.91289 0.0
H877 H 0.06857 0.76693 0.88401 0.0
H878 H 0.06771 0.80023 0.86473 0.0
H879 H 0.05031 0.76412 0.8539 0.0
C880 C 0.44737 0.31347 0.87574 0.0
C881 C 0.46065 0.33483 0.89258 0.0
C882 C 0.45983 0.28305 0.87622 0.0
C883 C 0.48567 0.27379 0.89419 0.0
C884 C 0.49797 0.29504 0.91181 0.0
C885 C 0.48554 0.32534 0.91066 0.0
C886 C 0.44635 0.26111 0.85699 0.0
C887 C 0.52494 0.28597 0.93154 0.0
C888 C 0.49689 0.18882 0.90633 0.0
C889 C 0.52956 0.1822 0.89357 0.0
C890 C 0.48252 0.2186 0.90695 0.0
C891 C 0.5009 0.24218 0.89413 0.0
C892 C 0.53407 0.23565 0.88135 0.0
C893 C 0.5482 0.20577 0.88142 0.0
C894 C 0.44754 0.22476 0.9212 0.0
C895 C 0.55426 0.26011 0.86724 0.0
H896 H 0.42831 0.32079 0.86166 0.0
H897 H 0.49575 0.34176 0.9238 0.0
H898 H 0.47012 0.25329 0.84581 0.0
H899 H 0.43403 0.24059 0.86563 0.0
H900 H 0.42538 0.27159 0.84478 0.0
H901 H 0.52989 0.30469 0.94476 0.0
H902 H 0.5144 0.26574 0.94154 0.0
H903 H 0.55185 0.27946 0.92329 0.0
H904 H 0.48242 0.17065 0.91578 0.0
H905 H 0.57327 0.20067 0.87135 0.0
H906 H 0.42547 0.23306 0.90881 0.0
H907 H 0.45259 0.24299 0.93481 0.0
H908 H 0.43725 0.20411 0.9308 0.0
H909 H 0.53557 0.27001 0.85328 0.0
H910 H 0.57946 0.25123 0.85805 0.0
H911 H 0.56254 0.27893 0.87959 0.0
C912 C 0.50984 0.18077 0.61831 0.0
C913 C 0.47427 0.17397 0.60954 0.0
C914 C 0.52338 0.21081 0.61826 0.0
C915 C 0.50106 0.23457 0.6088 0.0
C916 C 0.46559 0.22769 0.59916 0.0
C917 C 0.45245 0.19748 0.59987 0.0
C918 C 0.56103 0.21724 0.62912 0.0
C919 C 0.44122 0.25234 0.58856 0.0
C920 C 0.51471 0.31516 0.63244 0.0
C921 C 0.53581 0.32858 0.61389 0.0
C922 C 0.50388 0.28447 0.63117 0.0
C923 C 0.51372 0.26687 0.61058 0.0
C924 C 0.53534 0.28021 0.59185 0.0
C925 C 0.54649 0.31091 0.59385 0.0
C926 C 0.48158 0.27097 0.6518 0.0
C927 C 0.54591 0.26229 0.56947 0.0
H928 H 0.52681 0.16268 0.62588 0.0
H929 H 0.42505 0.19228 0.59292 0.0
H930 H 0.57863 0.22968 0.61587 0.0
H931 H 0.55791 0.23214 0.64531 0.0
H932 H 0.57563 0.19604 0.63471 0.0
H933 H 0.41576 0.2429 0.58003 0.0
H934 H 0.43289 0.26851 0.60308 0.0
H935 H 0.45675 0.26558 0.57469 0.0
H936 H 0.50656 0.32874 0.64803 0.0
H937 H 0.56255 0.32133 0.5794 0.0
H938 H 0.49565 0.25034 0.65901 0.0
H939 H 0.45396 0.26373 0.64507 0.0
H940 H 0.47755 0.28738 0.66697 0.0
H941 H 0.56145 0.24146 0.57471 0.0
H942 H 0.56317 0.27586 0.55669 0.0
H943 H 0.52051 0.25471 0.55982 0.0
C944 C -0.0011 0.81443 0.59089 0.0
C945 C 0.03047 0.8224 0.60433 0.0
C946 C 0.98588 0.78424 0.59048 0.0
C947 C 0.00436 0.76165 0.60434 0.0
C948 C 0.03638 0.76958 0.61788 0.0
C949 C 0.04934 0.79983 0.61745 0.0
C950 C 0.95224 0.77655 0.57533 0.0
C951 C 0.05642 0.74628 0.63326 0.0
C952 C 0.95008 0.69079 0.62265 0.0
C953 C 0.96496 0.66881 0.60697 0.0
C954 C 0.96269 0.72114 0.62204 0.0
C955 C 0.99004 0.72978 0.60485 0.0
C956 C 0.00415 0.70782 0.5884 0.0
C957 C 0.99183 0.67749 0.58991 0.0
C958 C 0.94756 0.74373 0.64023 0.0
C959 C 0.03251 0.7163 0.56936 0.0
H960 H 0.98433 0.83185 0.58065 0.0
H961 H 0.07356 0.80602 0.62804 0.0
H962 H 0.95883 0.75769 0.56258 0.0
H963 H 0.92945 0.7685 0.58726 0.0
H964 H 0.94215 0.79643 0.56467 0.0
H965 H 0.08068 0.75619 0.64289 0.0
H966 H 0.03714 0.73657 0.64695 0.0
H967 H 0.06614 0.72712 0.62173 0.0
H968 H 0.92955 0.68401 0.63601 0.0
H969 H 0.00323 0.6605 0.57769 0.0
H970 H 0.93485 0.7634 0.63064 0.0
H971 H 0.9705 0.75283 0.65155 0.0
H972 H 0.92644 0.73338 0.6524 0.0
H973 H 0.02225 0.73571 0.55827 0.0
H974 H 0.03904 0.69695 0.55704 0.0
H975 H 0.05851 0.72385 0.57829 0.0
C976 C 0.99818 0.96738 0.94608 0.0
C977 C 0.96155 0.95855 0.94149 0.0
C978 C 0.00756 0.9825 0.96774 0.0
C979 C 0.97941 0.98959 0.9848 0.0
C980 C 0.94226 0.98123 0.97997 0.0
C981 C 0.93387 0.96545 0.95851 0.0
C982 C 0.0476 0.99051 0.97253 0.0
C983 C 0.91138 0.98905 0.99743 0.0
C984 C 0.00663 0.00343 0.05055 0.0
C985 C 0.00924 0.03533 0.05121 0.0
C986 C 0.99696 0.98822 0.02902 0.0
C987 C 0.98887 0.00543 0.00787 0.0
C988 C 0.99016 0.03772 0.0087 0.0
C989 C 0.0008 0.05229 0.03032 0.0
C990 C 0.99647 0.95375 0.02871 0.0
C991 C 0.98078 0.05684 0.98669 0.0
H992 H 0.01959 0.96194 0.93295 0.0
H993 H 0.90543 0.95889 0.95485 0.0
H994 H 0.05059 0.01555 0.97478 0.0
H995 H 0.0569 0.97972 0.98975 0.0
H996 H 0.0662 0.98294 0.95761 0.0
H997 H 0.88377 0.98192 0.99051 0.0
H998 H 0.91624 0.97775 0.0152 0.0
H999 H 0.9109 0.01403 0.00077 0.0
H1000 H 0.01353 0.99026 0.06662 0.0
H1001 H 0.00276 0.07698 0.03085 0.0
H1002 H 0.01671 0.94521 0.01512 0.0
H1003 H 0.96873 0.94536 0.02315 0.0
H1004 H 0.00341 0.94378 0.04673 0.0
H1005 H 0.00093 0.05226 0.97191 0.0
H1006 H 0.98113 0.08168 0.99075 0.0
H1007 H 0.95292 0.05061 0.97973 0.0
C1008 C 0.56549 0.03895 0.96323 0.0
C1009 C 0.53663 0.04589 0.94708 0.0
C1010 C 0.55864 0.02293 0.98484 0.0
C1011 C 0.52192 0.01433 0.99068 0.0
C1012 C 0.4926 0.02147 0.97449 0.0
C1013 C 0.5004 0.03686 0.95268 0.0
C1014 C 0.59071 0.01508 0.00136 0.0
C1015 C 0.45298 0.01314 0.98033 0.0
C1016 C 0.50281 0.9507 0.03578 0.0
C1017 C 0.49486 0.9672 0.05696 0.0
C1018 C 0.51286 0.96572 0.01424 0.0
C1019 C 0.51407 0.99802 0.01379 0.0
C1020 C 0.50682 0.01476 0.03529 0.0
C1021 C 0.49769 0.9991 0.05673 0.0
C1022 C 0.52135 0.94708 0.99183 0.0
C1023 C 0.50728 0.04924 0.03542 0.0
H1024 H 0.59361 0.04568 0.9588 0.0
H1025 H 0.47808 0.04234 0.94022 0.0
H1026 H 0.58681 0.02597 0.01938 0.0
H1027 H 0.59174 0.99004 0.00439 0.0
H1028 H 0.61775 0.02262 0.99379 0.0
H1029 H 0.43333 0.0209 0.96605 0.0
H1030 H 0.45033 0.98804 0.98235 0.0
H1031 H 0.44476 0.02353 0.99793 0.0
H1032 H 0.50071 0.926 0.03597 0.0
H1033 H 0.49118 0.0119 0.07305 0.0
H1034 H 0.5486 0.95384 0.98419 0.0
H1035 H 0.50017 0.95155 0.97765 0.0
H1036 H 0.52179 0.92218 0.99568 0.0
H1037 H 0.53451 0.05779 0.029 0.0
H1038 H 0.5018 0.05881 0.05377 0.0
H1039 H 0.48595 0.05803 0.02267 0.0
C1040 C 0.48261 0.00661 0.55754 0.0
C1041 C 0.47659 0.03815 0.55622 0.0
C1042 C 0.49212 0.98989 0.53669 0.0
C1043 C 0.49662 0.00532 0.51425 0.0
C1044 C 0.49161 0.03733 0.51302 0.0
C1045 C 0.48115 0.05331 0.53399 0.0
C1046 C 0.49651 0.95569 0.53856 0.0
C1047 C 0.49712 0.05467 0.48954 0.0
C1048 C 0.55305 0.96708 0.46478 0.0
C1049 C 0.52528 0.95737 0.44872 0.0
C1050 C 0.5441 0.98272 0.4862 0.0
C1051 C 0.50645 0.98804 0.49195 0.0
C1052 C 0.47824 0.97763 0.47606 0.0
C1053 C 0.48805 0.96274 0.4544 0.0
C1054 C 0.57496 0.99414 0.50239 0.0
C1055 C 0.43775 0.98232 0.4819 0.0
H1056 H 0.47872 0.99486 0.57471 0.0
H1057 H 0.47664 0.07776 0.53301 0.0
H1058 H 0.47654 0.94426 0.52619 0.0
H1059 H 0.52472 0.94889 0.53269 0.0
H1060 H 0.49185 0.94717 0.55735 0.0
H1061 H 0.49377 0.0797 0.49194 0.0
H1062 H 0.52521 0.05014 0.48217 0.0
H1063 H 0.47684 0.04677 0.47575 0.0
H1064 H 0.5819 0.96312 0.46028 0.0
H1065 H 0.46659 0.95505 0.44203 0.0
H1066 H 0.57198 0.9845 0.52094 0.0
H1067 H 0.57326 0.01935 0.50408 0.0
H1068 H 0.60282 0.98805 0.4953 0.0
H1069 H 0.43136 0.97283 0.50014 0.0
H1070 H 0.41925 0.97134 0.46831 0.0
H1071 H 0.4314 0.00708 0.48247 0.0
C1072 C 0.05075 0.94956 0.52539 0.0
C1073 C 0.02746 0.95246 0.54568 0.0
C1074 C 0.04188 0.96354 0.50321 0.0
C1075 C 0.00874 0.98058 0.50123 0.0
C1076 C 0.98478 0.98318 0.52153 0.0
C1077 C 0.99454 0.96919 0.5436 0.0
C1078 C 0.06827 0.96049 0.48203 0.0
C1079 C 0.94903 0.00099 0.51999 0.0
C1080 C 0.00149 0.04191 0.45275 0.0
C1081 C 0.98049 0.02713 0.43483 0.0
C1082 C 0.01137 0.02684 0.4743 0.0
C1083 C -0.00038 0.99637 0.47807 0.0
C1084 C 0.97896 0.98114 0.45985 0.0
C1085 C 0.96979 0.99668 0.43835 0.0
C1086 C 0.03387 0.04368 0.49318 0.0
C1087 C 0.96582 0.94869 0.46332 0.0
H1088 H 0.07631 0.9367 0.52693 0.0
H1089 H 0.97644 0.9714 0.55923 0.0
H1090 H 0.05372 0.95047 0.46615 0.0
H1091 H 0.07836 0.98338 0.47648 0.0
H1092 H 0.09259 0.94596 0.48645 0.0
H1093 H 0.93285 0.99989 0.53716 0.0
H1094 H 0.95507 0.02527 0.51584 0.0
H1095 H 0.93163 0.99203 0.50496 0.0
H1096 H 0.00984 0.06545 0.45007 0.0
H1097 H 0.95336 0.98525 0.42459 0.0
H1098 H 0.0594 0.03067 0.49753 0.0
H1099 H 0.01769 0.04574 0.51025 0.0
H1100 H 0.0419 0.06694 0.48706 0.0
H1101 H 0.98976 0.93348 0.46695 0.0
H1102 H 0.95062 0.93992 0.4472 0.0
H1103 H 0.94726 0.94738 0.47938 0.0
C1104 C 0.49387 0.546 0.04774 0.0
C1105 C 0.53119 0.55223 0.05256 0.0
C1106 C 0.48337 0.53147 0.02605 0.0
C1107 C 0.51105 0.52206 0.00938 0.0
C1108 C 0.5488 0.52815 0.01434 0.0
C1109 C 0.55835 0.54363 0.03571 0.0
C1110 C 0.44276 0.5261 0.021 0.0
C1111 C 0.57917 0.51761 0.9974 0.0
C1112 C 0.48648 0.45723 0.96671 0.0
C1113 C 0.48146 0.47278 0.94471 0.0
C1114 C 0.49672 0.47297 0.98785 0.0
C1115 C 0.50072 0.50511 0.98704 0.0
C1116 C 0.4954 0.52093 0.96485 0.0
C1117 C 0.48641 0.50445 0.94379 0.0
C1118 C 0.50333 0.45521 0.011 0.0
C1119 C 0.49847 0.55527 0.96347 0.0
H1120 H 0.47292 0.5528 0.06079 0.0
H1121 H 0.5873 0.54815 0.03962 0.0
H1122 H 0.43525 0.53571 0.00298 0.0
H1123 H 0.43701 0.50124 0.02033 0.0
H1124 H 0.42465 0.53654 0.03505 0.0
H1125 H 0.60721 0.52391 0.00409 0.0
H1126 H 0.57789 0.49244 0.99529 0.0
H1127 H 0.57523 0.52773 0.97909 0.0
H1128 H 0.48268 0.43269 0.96732 0.0
H1129 H 0.48197 0.51646 0.92678 0.0
H1130 H 0.4833 0.46244 0.02516 0.0
H1131 H 0.53154 0.46008 0.01807 0.0
H1132 H 0.50053 0.43019 0.00828 0.0
H1133 H 0.47888 0.56589 0.97652 0.0
H1134 H 0.49241 0.56415 0.94496 0.0
H1135 H 0.52677 0.56262 0.96873 0.0
C1136 C 0.0045 0.46641 0.04478 0.0
C1137 C 0.97322 0.44781 0.04767 0.0
C1138 C 0.01198 0.4806 0.02239 0.0
C1139 C 0.98727 0.47639 0.00263 0.0
C1140 C 0.95596 0.45728 0.00539 0.0
C1141 C 0.94946 0.44305 0.02783 0.0
C1142 C 0.04598 0.50048 0.01999 0.0
C1143 C 0.92876 0.45251 0.98485 0.0
C1144 C 0.9873 0.53818 0.95419 0.0
C1145 C 0.00863 0.52462 0.93586 0.0
C1146 C 0.97936 0.52242 0.9758 0.0
C1147 C 0.99365 0.49262 0.97926 0.0
C1148 C 0.01448 0.47857 0.96056 0.0
C1149 C 0.02146 0.49466 0.93897 0.0
C1150 C 0.95641 0.53792 0.99515 0.0
C1151 C 0.03048 0.44695 0.96369 0.0
H1152 H 0.02294 0.4701 0.06006 0.0
H1153 H 0.92511 0.42881 0.02999 0.0
H1154 H 0.06307 0.49275 0.00439 0.0
H1155 H 0.03758 0.52439 0.01624 0.0
H1156 H 0.06335 0.50018 0.03667 0.0
H1157 H 0.90623 0.43637 0.98979 0.0
H1158 H 0.91613 0.47468 0.97967 0.0
H1159 H 0.94331 0.44359 0.96857 0.0
H1160 H 0.97736 0.56134 0.95183 0.0
H1161 H 0.03826 0.4842 0.92492 0.0
H1162 H 0.97337 0.54133 0.01176 0.0
H1163 H 0.93255 0.52327 0.00026 0.0
H1164 H 0.94572 0.56046 0.9891 0.0
H1165 H 0.05028 0.44686 0.97914 0.0
H1166 H 0.04518 0.43893 0.94713 0.0
H1167 H 0.00818 0.43043 0.96813 0.0
C1168 C 0.99741 0.54209 0.53816 0.0
C1169 C 0.98205 0.52693 0.5582 0.0
C1170 C 0.00666 0.52617 0.51691 0.0
C1171 C -0.00033 0.49442 0.51555 0.0
C1172 C 0.98469 0.47887 0.53589 0.0
C1173 C 0.97637 0.49531 0.55712 0.0
C1174 C 0.02339 0.54343 0.4958 0.0
C1175 C 0.97643 0.4451 0.53497 0.0
C1176 C 0.98994 0.46269 0.45158 0.0
C1177 C 0.02477 0.44935 0.44804 0.0
C1178 C 0.98091 0.47656 0.47383 0.0
C1179 C 0.00771 0.47768 0.49266 0.0
C1180 C 0.04281 0.46401 0.48919 0.0
C1181 C 0.05077 0.44972 0.467 0.0
C1182 C 0.94293 0.49041 0.47707 0.0
C1183 C 0.07238 0.4653 0.50861 0.0
H1184 H 0.00191 0.56655 0.539 0.0
H1185 H 0.96418 0.4836 0.57255 0.0
H1186 H 0.04986 0.53262 0.49021 0.0
H1187 H 0.00442 0.5425 0.47994 0.0
H1188 H 0.02881 0.56776 0.50027 0.0
H1189 H 0.96544 0.43633 0.5525 0.0
H1190 H 0.95577 0.44046 0.52048 0.0
H1191 H 0.00187 0.43218 0.5303 0.0
H1192 H 0.96977 0.46229 0.43697 0.0
H1193 H 0.07786 0.4396 0.46425 0.0
H1194 H 0.94542 0.51548 0.47937 0.0
H1195 H 0.92969 0.48126 0.49377 0.0
H1196 H 0.92447 0.48579 0.46132 0.0
H1197 H 0.07982 0.48944 0.51233 0.0
H1198 H 0.0979 0.4528 0.50329 0.0
H1199 H 0.06178 0.45545 0.52585 0.0
C1200 C 0.49645 0.44544 0.53574 0.0
C1201 C 0.50269 0.46184 0.55721 0.0
C1202 C 0.48599 0.46044 0.51427 0.0
C1203 C 0.48271 0.49265 0.51421 0.0
C1204 C 0.48817 0.50924 0.53601 0.0
C1205 C 0.49766 0.49355 0.55736 0.0
C1206 C 0.47941 0.44192 0.49152 0.0
C1207 C 0.48558 0.54365 0.53654 0.0
C1208 C 0.49702 0.53253 0.45362 0.0
C1209 C 0.46061 0.54011 0.44727 0.0
C1210 C 0.50466 0.51748 0.47559 0.0
C1211 C 0.47503 0.5091 0.49113 0.0
C1212 C 0.43816 0.51641 0.48462 0.0
C1213 C 0.43144 0.53222 0.46288 0.0
C1214 C 0.54442 0.51066 0.48221 0.0
C1215 C 0.4058 0.50716 0.50041 0.0
H1216 H 0.50025 0.42088 0.53565 0.0
H1217 H 0.50284 0.5063 0.57391 0.0
H1218 H 0.45219 0.44789 0.48341 0.0
H1219 H 0.50098 0.44735 0.47781 0.0
H1220 H 0.48002 0.41696 0.49512 0.0
H1221 H 0.48951 0.55303 0.55513 0.0
H1222 H 0.50704 0.55357 0.52442 0.0
H1223 H 0.45824 0.55122 0.52958 0.0
H1224 H 0.51956 0.53874 0.44155 0.0
H1225 H 0.40319 0.5378 0.45783 0.0
H1226 H 0.54851 0.48564 0.4838 0.0
H1227 H 0.55108 0.5208 0.50018 0.0
H1228 H 0.5643 0.51968 0.46855 0.0
H1229 H 0.40577 0.48202 0.50297 0.0
H1230 H 0.37876 0.51408 0.49248 0.0
H1231 H 0.40848 0.51763 0.51869 0.0
loop_
_geom_bond_atom_site_label_1
_geom_bond_atom_site_label_2
_geom_bond_distance
_geom_bond_site_symmetry_2
_ccdc_geom_bond_type
In0 O1 2.294 . S
In0 O2 2.326 . S
In0 O6 2.266 . S
In0 O7 2.326 . S
In0 O8 2.266 . S
In0 O9 2.326 . S
In0 O11 2.294 . S
In0 O12 2.326 . S
O1 In0 2.294 . S
O1 C10 1.240 . S
O2 In0 2.326 . S
O2 C10 1.252 . S
C3 O6 1.252 . S
C3 O7 1.260 . S
C4 O11 1.240 . S
C4 O12 1.252 . S
C5 O8 1.252 . S
C5 O9 1.260 . S
O6 In0 2.266 . S
O6 C3 1.252 . S
O7 In0 2.326 . S
O7 C3 1.260 . S
O8 In0 2.266 . S
O8 C5 1.252 . S
O9 In0 2.326 . S
O9 C5 1.260 . S
C10 O1 1.240 . S
C10 O2 1.252 . S
O11 In0 2.294 . S
O11 C4 1.240 . S
O12 In0 2.326 . S
O12 C4 1.252 . S
In13 O14 2.294 . S
In13 O15 2.326 . S
In13 O19 2.266 . S
In13 O20 2.326 . S
In13 O21 2.266 . S
In13 O22 2.326 . S
In13 O24 2.294 . S
In13 O25 2.326 . S
O14 In13 2.294 . S
O14 C23 1.240 . S
O15 In13 2.326 . S
O15 C23 1.252 . S
C16 O19 1.252 . S
C16 O20 1.260 . S
C17 O24 1.240 . S
C17 O25 1.252 . S
C18 O21 1.252 . S
C18 O22 1.260 . S
O19 In13 2.266 . S
O19 C16 1.252 . S
O20 In13 2.326 . S
O20 C16 1.260 . S
O21 In13 2.266 . S
O21 C18 1.252 . S
O22 In13 2.326 . S
O22 C18 1.260 . S
C23 O14 1.240 . S
C23 O15 1.252 . S
O24 In13 2.294 . S
O24 C17 1.240 . S
O25 In13 2.326 . S
O25 C17 1.252 . S
In26 O27 2.294 . S
In26 O28 2.326 . S
In26 O32 2.266 . S
In26 O33 2.326 . S
In26 O34 2.266 . S
In26 O35 2.326 . S
In26 O37 2.294 . S
In26 O38 2.326 . S
O27 In26 2.294 . S
O27 C36 1.240 . S
O28 In26 2.326 . S
O28 C36 1.252 . S
C29 O32 1.252 . S
C29 O33 1.260 . S
C30 O37 1.240 . S
C30 O38 1.252 . S
C31 O34 1.252 . S
C31 O35 1.260 . S
O32 In26 2.266 . S
O32 C29 1.252 . S
O33 In26 2.326 . S
O33 C29 1.260 . S
O34 In26 2.266 . S
O34 C31 1.252 . S
O35 In26 2.326 . S
O35 C31 1.260 . S
C36 O27 1.240 . S
C36 O28 1.252 . S
O37 In26 2.294 . S
O37 C30 1.240 . S
O38 In26 2.326 . S
O38 C30 1.252 . S
In39 O40 2.294 . S
In39 O41 2.326 . S
In39 O45 2.266 . S
In39 O46 2.326 . S
In39 O47 2.266 . S
In39 O48 2.326 . S
In39 O50 2.294 . S
In39 O51 2.326 . S
O40 In39 2.294 . S
O40 C49 1.240 . S
O41 In39 2.326 . S
O41 C49 1.252 . S
C42 O45 1.252 . S
C42 O46 1.260 . S
C43 O50 1.240 . S
C43 O51 1.252 . S
C44 O47 1.252 . S
C44 O48 1.260 . S
O45 In39 2.266 . S
O45 C42 1.252 . S
O46 In39 2.326 . S
O46 C42 1.260 . S
O47 In39 2.266 . S
O47 C44 1.252 . S
O48 In39 2.326 . S
O48 C44 1.260 . S
C49 O40 1.240 . S
C49 O41 1.252 . S
O50 In39 2.294 . S
O50 C43 1.240 . S
O51 In39 2.326 . S
O51 C43 1.252 . S
In52 O53 2.294 . S
In52 O54 2.326 . S
In52 O58 2.266 . S
In52 O59 2.326 . S
In52 O60 2.266 . S
In52 O61 2.326 . S
In52 O63 2.294 . S
In52 O64 2.326 . S
O53 In52 2.294 . S
O53 C62 1.240 . S
O54 In52 2.326 . S
O54 C62 1.252 . S
C55 O58 1.252 . S
C55 O59 1.260 . S
C56 O63 1.240 . S
C56 O64 1.252 . S
C57 O60 1.252 . S
C57 O61 1.260 . S
O58 In52 2.266 . S
O58 C55 1.252 . S
O59 In52 2.326 . S
O59 C55 1.260 . S
O60 In52 2.266 . S
O60 C57 1.252 . S
O61 In52 2.326 . S
O61 C57 1.260 . S
C62 O53 1.240 . S
C62 O54 1.252 . S
O63 In52 2.294 . S
O63 C56 1.240 . S
O64 In52 2.326 . S
O64 C56 1.252 . S
In65 O66 2.294 . S
In65 O67 2.326 . S
In65 O71 2.266 . S
In65 O72 2.326 . S
In65 O73 2.266 . S
In65 O74 2.326 . S
In65 O76 2.294 . S
In65 O77 2.326 . S
O66 In65 2.294 . S
O66 C75 1.240 . S
O67 In65 2.326 . S
O67 C75 1.252 . S
C68 O71 1.252 . S
C68 O72 1.260 . S
C69 O76 1.240 . S
C69 O77 1.252 . S
C70 O73 1.252 . S
C70 O74 1.260 . S
O71 In65 2.266 . S
O71 C68 1.252 . S
O72 In65 2.326 . S
O72 C68 1.260 . S
O73 In65 2.266 . S
O73 C70 1.252 . S
O74 In65 2.326 . S
O74 C70 1.260 . S
C75 O66 1.240 . S
C75 O67 1.252 . S
O76 In65 2.294 . S
O76 C69 1.240 . S
O77 In65 2.326 . S
O77 C69 1.252 . S
In78 O79 2.294 . S
In78 O80 2.326 . S
In78 O84 2.266 . S
In78 O85 2.326 . S
In78 O86 2.266 . S
In78 O87 2.326 . S
In78 O89 2.294 . S
In78 O90 2.326 . S
O79 In78 2.294 . S
O79 C88 1.240 . S
O80 In78 2.326 . S
O80 C88 1.252 . S
C81 O84 1.252 . S
C81 O85 1.260 . S
C82 O89 1.240 . S
C82 O90 1.252 . S
C83 O86 1.252 . S
C83 O87 1.260 . S
O84 In78 2.266 . S
O84 C81 1.252 . S
O85 In78 2.326 . S
O85 C81 1.260 . S
O86 In78 2.266 . S
O86 C83 1.252 . S
O87 In78 2.326 . S
O87 C83 1.260 . S
C88 O79 1.240 . S
C88 O80 1.252 . S
O89 In78 2.294 . S
O89 C82 1.240 . S
O90 In78 2.326 . S
O90 C82 1.252 . S
In91 O92 2.294 . S
In91 O93 2.326 . S
In91 O97 2.266 . S
In91 O98 2.326 . S
In91 O99 2.266 . S
In91 O100 2.326 . S
In91 O102 2.294 . S
In91 O103 2.326 . S
O92 In91 2.294 . S
O92 C101 1.240 . S
O93 In91 2.326 . S
O93 C101 1.252 . S
C94 O97 1.252 . S
C94 O98 1.260 . S
C95 O102 1.240 . S
C95 O103 1.252 . S
C96 O99 1.252 . S
C96 O100 1.260 . S
O97 In91 2.266 . S
O97 C94 1.252 . S
O98 In91 2.326 . S
O98 C94 1.260 . S
O99 In91 2.266 . S
O99 C96 1.252 . S
O100 In91 2.326 . S
O100 C96 1.260 . S
C101 O92 1.240 . S
C101 O93 1.252 . S
O102 In91 2.294 . S
O102 C95 1.240 . S
O103 In91 2.326 . S
O103 C95 1.252 . S
In104 O105 2.294 . S
In104 O106 2.326 . S
In104 O110 2.266 . S
In104 O111 2.326 . S
In104 O112 2.266 . S
In104 O113 2.326 . S
In104 O115 2.294 . S
In104 O116 2.326 . S
O105 In104 2.294 . S
O105 C114 1.240 . S
O106 In104 2.326 . S
O106 C114 1.252 . S
C107 O110 1.252 . S
C107 O111 1.260 . S
C108 O115 1.240 . S
C108 O116 1.252 . S
C109 O112 1.252 . S
C109 O113 1.260 . S
O110 In104 2.266 . S
O110 C107 1.252 . S
O111 In104 2.326 . S
O111 C107 1.260 . S
O112 In104 2.266 . S
O112 C109 1.252 . S
O113 In104 2.326 . S
O113 C109 1.260 . S
C114 O105 1.240 . S
C114 O106 1.252 . S
O115 In104 2.294 . S
O115 C108 1.240 . S
O116 In104 2.326 . S
O116 C108 1.252 . S
In117 O118 2.294 . S
In117 O119 2.326 . S
In117 O123 2.266 . S
In117 O124 2.326 . S
In117 O125 2.266 . S
In117 O126 2.326 . S
In117 O128 2.294 . S
In117 O129 2.326 . S
O118 In117 2.294 . S
O118 C127 1.240 . S
O119 In117 2.326 . S
O119 C127 1.252 . S
C120 O123 1.252 . S
C120 O124 1.260 . S
C121 O128 1.240 . S
C121 O129 1.252 . S
C122 O125 1.252 . S
C122 O126 1.260 . S
O123 In117 2.266 . S
O123 C120 1.252 . S
O124 In117 2.326 . S
O124 C120 1.260 . S
O125 In117 2.266 . S
O125 C122 1.252 . S
O126 In117 2.326 . S
O126 C122 1.260 . S
C127 O118 1.240 . S
C127 O119 1.252 . S
O128 In117 2.294 . S
O128 C121 1.240 . S
O129 In117 2.326 . S
O129 C121 1.252 . S
In130 O131 2.294 . S
In130 O132 2.326 . S
In130 O136 2.266 . S
In130 O137 2.326 . S
In130 O138 2.266 . S
In130 O139 2.326 . S
In130 O141 2.294 . S
In130 O142 2.326 . S
O131 In130 2.294 . S
O131 C140 1.240 . S
O132 In130 2.326 . S
O132 C140 1.252 . S
C133 O136 1.252 . S
C133 O137 1.260 . S
C134 O141 1.240 . S
C134 O142 1.252 . S
C135 O138 1.252 . S
C135 O139 1.260 . S
O136 In130 2.266 . S
O136 C133 1.252 . S
O137 In130 2.326 . S
O137 C133 1.260 . S
O138 In130 2.266 . S
O138 C135 1.252 . S
O139 In130 2.326 . S
O139 C135 1.260 . S
C140 O131 1.240 . S
C140 O132 1.252 . S
O141 In130 2.294 . S
O141 C134 1.240 . S
O142 In130 2.326 . S
O142 C134 1.252 . S
In143 O144 2.294 . S
In143 O145 2.326 . S
In143 O149 2.266 . S
In143 O150 2.326 . S
In143 O151 2.266 . S
In143 O152 2.326 . S
In143 O154 2.294 . S
In143 O155 2.326 . S
O144 In143 2.294 . S
O144 C153 1.240 . S
O145 In143 2.326 . S
O145 C153 1.252 . S
C146 O149 1.252 . S
C146 O150 1.260 . S
C147 O154 1.240 . S
C147 O155 1.252 . S
C148 O151 1.252 . S
C148 O152 1.260 . S
O149 In143 2.266 . S
O149 C146 1.252 . S
O150 In143 2.326 . S
O150 C146 1.260 . S
O151 In143 2.266 . S
O151 C148 1.252 . S
O152 In143 2.326 . S
O152 C148 1.260 . S
C153 O144 1.240 . S
C153 O145 1.252 . S
O154 In143 2.294 . S
O154 C147 1.240 . S
O155 In143 2.326 . S
O155 C147 1.252 . S
In156 O157 2.294 . S
In156 O158 2.326 . S
In156 O162 2.266 . S
In156 O163 2.326 . S
In156 O164 2.266 . S
In156 O165 2.326 . S
In156 O167 2.294 . S
In156 O168 2.326 . S
O157 In156 2.294 . S
O157 C166 1.240 . S
O158 In156 2.326 . S
O158 C166 1.252 . S
C159 O162 1.252 . S
C159 O163 1.260 . S
C160 O167 1.240 . S
C160 O168 1.252 . S
C161 O164 1.252 . S
C161 O165 1.260 . S
O162 In156 2.266 . S
O162 C159 1.252 . S
O163 In156 2.326 . S
O163 C159 1.260 . S
O164 In156 2.266 . S
O164 C161 1.252 . S
O165 In156 2.326 . S
O165 C161 1.260 . S
C166 O157 1.240 . S
C166 O158 1.252 . S
O167 In156 2.294 . S
O167 C160 1.240 . S
O168 In156 2.326 . S
O168 C160 1.252 . S
In169 O170 2.294 . S
In169 O171 2.326 . S
In169 O175 2.266 . S
In169 O176 2.326 . S
In169 O177 2.266 . S
In169 O178 2.326 . S
In169 O180 2.294 . S
In169 O181 2.326 . S
O170 In169 2.294 . S
O170 C179 1.240 . S
O171 In169 2.326 . S
O171 C179 1.252 . S
C172 O175 1.252 . S
C172 O176 1.260 . S
C173 O180 1.240 . S
C173 O181 1.252 . S
C174 O177 1.252 . S
C174 O178 1.260 . S
O175 In169 2.266 . S
O175 C172 1.252 . S
O176 In169 2.326 . S
O176 C172 1.260 . S
O177 In169 2.266 . S
O177 C174 1.252 . S
O178 In169 2.326 . S
O178 C174 1.260 . S
C179 O170 1.240 . S
C179 O171 1.252 . S
O180 In169 2.294 . S
O180 C173 1.240 . S
O181 In169 2.326 . S
O181 C173 1.252 . S
In182 O183 2.294 . S
In182 O184 2.326 . S
In182 O188 2.266 . S
In182 O189 2.326 . S
In182 O190 2.266 . S
In182 O191 2.326 . S
In182 O193 2.294 . S
In182 O194 2.326 . S
O183 In182 2.294 . S
O183 C192 1.240 . S
O184 In182 2.326 . S
O184 C192 1.252 . S
C185 O188 1.252 . S
C185 O189 1.260 . S
C186 O193 1.240 . S
C186 O194 1.252 . S
C187 O190 1.252 . S
C187 O191 1.260 . S
O188 In182 2.266 . S
O188 C185 1.252 . S
O189 In182 2.326 . S
O189 C185 1.260 . S
O190 In182 2.266 . S
O190 C187 1.252 . S
O191 In182 2.326 . S
O191 C187 1.260 . S
C192 O183 1.240 . S
C192 O184 1.252 . S
O193 In182 2.294 . S
O193 C186 1.240 . S
O194 In182 2.326 . S
O194 C186 1.252 . S
In195 O196 2.294 . S
In195 O197 2.326 . S
In195 O201 2.266 . S
In195 O202 2.326 . S
In195 O203 2.266 . S
In195 O204 2.326 . S
In195 O206 2.294 . S
In195 O207 2.326 . S
O196 In195 2.294 . S
O196 C205 1.240 . S
O197 In195 2.326 . S
O197 C205 1.252 . S
C198 O201 1.252 . S
C198 O202 1.260 . S
C199 O206 1.240 . S
C199 O207 1.252 . S
C200 O203 1.252 . S
C200 O204 1.260 . S
O201 In195 2.266 . S
O201 C198 1.252 . S
O202 In195 2.326 . S
O202 C198 1.260 . S
O203 In195 2.266 . S
O203 C200 1.252 . S
O204 In195 2.326 . S
O204 C200 1.260 . S
C205 O196 1.240 . S
C205 O197 1.252 . S
O206 In195 2.294 . S
O206 C199 1.240 . S
O207 In195 2.326 . S
O207 C199 1.252 . S
C208 C209 1.391 . S
C208 C210 1.394 . S
C208 H224 0.931 . S
C209 C208 1.391 . S
C209 C213 1.376 . S
C210 C208 1.394 . S
C210 C211 1.369 . S
C210 C214 1.531 1_565 S
C211 C210 1.369 . S
C211 C212 1.410 . S
C211 C219 1.503 1_565 S
C212 C211 1.410 . S
C212 C213 1.392 . S
C212 C215 1.511 . S
C213 C209 1.376 . S
C213 C212 1.392 . S
C213 H225 0.929 . S
C214 C210 1.531 1_545 S
C214 H226 0.960 . S
C214 H227 0.962 . S
C214 H228 0.960 . S
C215 C212 1.511 . S
C215 H229 0.961 . S
C215 H230 0.961 . S
C215 H231 0.961 . S
C216 C217 1.370 . S
C216 C218 1.363 . S
C216 H232 0.931 . S
C217 C216 1.370 . S
C217 C221 1.408 . S
C218 C216 1.363 . S
C218 C219 1.370 . S
C218 C222 1.524 . S
C219 C211 1.503 1_545 S
C219 C218 1.370 . S
C219 C220 1.403 1_545 S
C220 C219 1.403 1_565 S
C220 C221 1.404 1_565 S
C220 C223 1.539 . S
C221 C217 1.408 . S
C221 C220 1.404 1_545 S
C221 H233 0.930 . S
C222 C218 1.524 . S
C222 H234 0.956 . S
C222 H235 0.961 . S
C222 H236 0.961 . S
C223 C220 1.539 . S
C223 H237 0.958 . S
C223 H238 0.961 . S
C223 H239 0.960 . S
H224 C208 0.931 . S
H225 C213 0.929 . S
H226 C214 0.960 . S
H227 C214 0.962 . S
H228 C214 0.960 . S
H229 C215 0.961 . S
H230 C215 0.961 . S
H231 C215 0.961 . S
H232 C216 0.931 . S
H233 C221 0.930 . S
H234 C222 0.956 . S
H235 C222 0.961 . S
H236 C222 0.961 . S
H237 C223 0.958 . S
H238 C223 0.961 . S
H239 C223 0.960 . S
C240 C241 1.391 . S
C240 C242 1.394 1_565 S
C240 H256 0.931 1_565 S
C241 C240 1.391 . S
C241 C245 1.376 . S
C242 C240 1.394 1_545 S
C242 C243 1.369 1_545 S
C242 C246 1.531 . S
C243 C242 1.369 1_565 S
C243 C244 1.410 . S
C243 C251 1.503 1_565 S
C244 C243 1.410 . S
C244 C245 1.392 . S
C244 C247 1.511 . S
C245 C241 1.376 . S
C245 C244 1.392 . S
C245 H257 0.929 . S
C246 C242 1.531 . S
C246 H258 0.960 . S
C246 H259 0.962 . S
C246 H260 0.960 . S
C247 C244 1.511 . S
C247 H261 0.961 . S
C247 H262 0.961 . S
C247 H263 0.961 . S
C248 C249 1.370 . S
C248 C250 1.363 . S
C248 H264 0.931 . S
C249 C248 1.370 . S
C249 C253 1.408 . S
C250 C248 1.363 . S
C250 C251 1.370 . S
C250 C254 1.524 . S
C251 C243 1.503 1_545 S
C251 C250 1.370 . S
C251 C252 1.403 . S
C252 C251 1.403 . S
C252 C253 1.404 . S
C252 C255 1.539 . S
C253 C249 1.408 . S
C253 C252 1.404 . S
C253 H265 0.930 . S
C254 C250 1.524 . S
C254 H266 0.956 . S
C254 H267 0.961 1_545 S
C254 H268 0.961 . S
C255 C252 1.539 . S
C255 H269 0.958 . S
C255 H270 0.961 . S
C255 H271 0.960 1_545 S
H256 C240 0.931 1_545 S
H257 C245 0.929 . S
H258 C246 0.960 . S
H259 C246 0.962 . S
H260 C246 0.960 . S
H261 C247 0.961 . S
H262 C247 0.961 . S
H263 C247 0.961 . S
H264 C248 0.931 . S
H265 C253 0.930 . S
H266 C254 0.956 . S
H267 C254 0.961 1_565 S
H268 C254 0.961 . S
H269 C255 0.958 . S
H270 C255 0.961 . S
H271 C255 0.960 1_565 S
C272 C273 1.391 . S
C272 C274 1.394 1_565 S
C272 H288 0.931 . S
C273 C272 1.391 . S
C273 C277 1.376 . S
C274 C272 1.394 1_545 S
C274 C275 1.369 1_545 S
C274 C278 1.531 . S
C275 C274 1.369 1_565 S
C275 C276 1.410 . S
C275 C283 1.503 1_565 S
C276 C275 1.410 . S
C276 C277 1.392 . S
C276 C279 1.511 . S
C277 C273 1.376 . S
C277 C276 1.392 . S
C277 H289 0.929 . S
C278 C274 1.531 . S
C278 H290 0.960 . S
C278 H291 0.962 . S
C278 H292 0.960 . S
C279 C276 1.511 . S
C279 H293 0.961 . S
C279 H294 0.961 . S
C279 H295 0.961 . S
C280 C281 1.370 . S
C280 C282 1.363 . S
C280 H296 0.931 . S
C281 C280 1.370 . S
C281 C285 1.408 . S
C282 C280 1.363 . S
C282 C283 1.370 . S
C282 C286 1.524 . S
C283 C275 1.503 1_545 S
C283 C282 1.370 . S
C283 C284 1.403 . S
C284 C283 1.403 . S
C284 C285 1.404 . S
C284 C287 1.539 1_545 S
C285 C281 1.408 . S
C285 C284 1.404 . S
C285 H297 0.930 . S
C286 C282 1.524 . S
C286 H298 0.956 . S
C286 H299 0.961 . S
C286 H300 0.961 . S
C287 C284 1.539 1_565 S
C287 H301 0.958 . S
C287 H302 0.961 . S
C287 H303 0.960 . S
H288 C272 0.931 . S
H289 C277 0.929 . S
H290 C278 0.960 . S
H291 C278 0.962 . S
H292 C278 0.960 . S
H293 C279 0.961 . S
H294 C279 0.961 . S
H295 C279 0.961 . S
H296 C280 0.931 . S
H297 C285 0.930 . S
H298 C286 0.956 . S
H299 C286 0.961 . S
H300 C286 0.961 . S
H301 C287 0.958 . S
H302 C287 0.961 . S
H303 C287 0.960 . S
C304 C305 1.391 . S
C304 C306 1.394 1_565 S
C304 H320 0.931 1_565 S
C305 C304 1.391 . S
C305 C309 1.376 . S
C306 C304 1.394 1_545 S
C306 C307 1.369 1_545 S
C306 C310 1.531 . S
C307 C306 1.369 1_565 S
C307 C308 1.410 . S
C307 C315 1.503 1_565 S
C308 C307 1.410 . S
C308 C309 1.392 . S
C308 C311 1.511 . S
C309 C305 1.376 . S
C309 C308 1.392 . S
C309 H321 0.929 . S
C310 C306 1.531 . S
C310 H322 0.960 . S
C310 H323 0.962 . S
C310 H324 0.960 . S
C311 C308 1.511 . S
C311 H325 0.961 . S
C311 H326 0.961 . S
C311 H327 0.961 . S
C312 C313 1.370 . S
C312 C314 1.363 . S
C312 H328 0.931 . S
C313 C312 1.370 . S
C313 C317 1.408 . S
C314 C312 1.363 . S
C314 C315 1.370 . S
C314 C318 1.524 . S
C315 C307 1.503 1_545 S
C315 C314 1.370 . S
C315 C316 1.403 . S
C316 C315 1.403 . S
C316 C317 1.404 . S
C316 C319 1.539 . S
C317 C313 1.408 . S
C317 C316 1.404 . S
C317 H329 0.930 . S
C318 C314 1.524 . S
C318 H330 0.956 . S
C318 H331 0.961 1_545 S
C318 H332 0.961 . S
C319 C316 1.539 . S
C319 H333 0.958 . S
C319 H334 0.961 . S
C319 H335 0.960 1_545 S
H320 C304 0.931 1_545 S
H321 C309 0.929 . S
H322 C310 0.960 . S
H323 C310 0.962 . S
H324 C310 0.960 . S
H325 C311 0.961 . S
H326 C311 0.961 . S
H327 C311 0.961 . S
H328 C312 0.931 . S
H329 C317 0.930 . S
H330 C318 0.956 . S
H331 C318 0.961 1_565 S
H332 C318 0.961 . S
H333 C319 0.958 . S
H334 C319 0.961 . S
H335 C319 0.960 1_565 S
C336 C337 1.391 . S
C336 C338 1.394 . S
C336 H352 0.931 . S
C337 C336 1.391 . S
C337 C341 1.376 . S
C338 C336 1.394 . S
C338 C339 1.369 . S
C338 C342 1.531 . S
C339 C338 1.369 . S
C339 C340 1.410 . S
C339 C347 1.503 . S
C340 C339 1.410 . S
C340 C341 1.392 . S
C340 C343 1.511 . S
C341 C337 1.376 . S
C341 C340 1.392 . S
C341 H353 0.929 . S
C342 C338 1.531 . S
C342 H354 0.960 . S
C342 H355 0.962 . S
C342 H356 0.960 . S
C343 C340 1.511 . S
C343 H357 0.961 . S
C343 H358 0.961 . S
C343 H359 0.961 . S
C344 C345 1.370 . S
C344 C346 1.363 . S
C344 H360 0.931 . S
C345 C344 1.370 . S
C345 C349 1.408 . S
C346 C344 1.363 . S
C346 C347 1.370 . S
C346 C350 1.524 . S
C347 C339 1.503 . S
C347 C346 1.370 . S
C347 C348 1.403 . S
C348 C347 1.403 . S
C348 C349 1.404 . S
C348 C351 1.539 . S
C349 C345 1.408 . S
C349 C348 1.404 . S
C349 H361 0.930 . S
C350 C346 1.524 . S
C350 H362 0.956 . S
C350 H363 0.961 . S
C350 H364 0.961 . S
C351 C348 1.539 . S
C351 H365 0.958 . S
C351 H366 0.961 . S
C351 H367 0.960 . S
H352 C336 0.931 . S
H353 C341 0.929 . S
H354 C342 0.960 . S
H355 C342 0.962 . S
H356 C342 0.960 . S
H357 C343 0.961 . S
H358 C343 0.961 . S
H359 C343 0.961 . S
H360 C344 0.931 . S
H361 C349 0.930 . S
H362 C350 0.956 . S
H363 C350 0.961 . S
H364 C350 0.961 . S
H365 C351 0.958 . S
H366 C351 0.961 . S
H367 C351 0.960 . S
C368 C369 1.391 . S
C368 C370 1.394 . S
C368 H384 0.931 . S
C369 C368 1.391 . S
C369 C373 1.376 . S
C370 C368 1.394 . S
C370 C371 1.369 . S
C370 C374 1.531 . S
C371 C370 1.369 . S
C371 C372 1.410 . S
C371 C379 1.503 . S
C372 C371 1.410 . S
C372 C373 1.392 . S
C372 C375 1.511 . S
C373 C369 1.376 . S
C373 C372 1.392 . S
C373 H385 0.929 . S
C374 C370 1.531 . S
C374 H386 0.960 . S
C374 H387 0.962 . S
C374 H388 0.960 . S
C375 C372 1.511 . S
C375 H389 0.961 . S
C375 H390 0.961 . S
C375 H391 0.961 . S
C376 C377 1.370 . S
C376 C378 1.363 . S
C376 H392 0.931 . S
C377 C376 1.370 . S
C377 C381 1.408 . S
C378 C376 1.363 . S
C378 C379 1.370 . S
C378 C382 1.524 . S
C379 C371 1.503 . S
C379 C378 1.370 . S
C379 C380 1.403 . S
C380 C379 1.403 . S
C380 C381 1.404 . S
C380 C383 1.539 . S
C381 C377 1.408 . S
C381 C380 1.404 . S
C381 H393 0.930 . S
C382 C378 1.524 . S
C382 H394 0.956 . S
C382 H395 0.961 . S
C382 H396 0.961 . S
C383 C380 1.539 . S
C383 H397 0.958 . S
C383 H398 0.961 . S
C383 H399 0.960 . S
H384 C368 0.931 . S
H385 C373 0.929 . S
H386 C374 0.960 . S
H387 C374 0.962 . S
H388 C374 0.960 . S
H389 C375 0.961 . S
H390 C375 0.961 . S
H391 C375 0.961 . S
H392 C376 0.931 . S
H393 C381 0.930 . S
H394 C382 0.956 . S
H395 C382 0.961 . S
H396 C382 0.961 . S
H397 C383 0.958 . S
H398 C383 0.961 . S
H399 C383 0.960 . S
C400 C401 1.391 . S
C400 C402 1.394 . S
C400 H416 0.931 . S
C401 C400 1.391 . S
C401 C405 1.376 . S
C402 C400 1.394 . S
C402 C403 1.369 . S
C402 C406 1.531 . S
C403 C402 1.369 . S
C403 C404 1.410 . S
C403 C411 1.503 . S
C404 C403 1.410 . S
C404 C405 1.392 . S
C404 C407 1.511 . S
C405 C401 1.376 . S
C405 C404 1.392 . S
C405 H417 0.929 . S
C406 C402 1.531 . S
C406 H418 0.960 . S
C406 H419 0.962 . S
C406 H420 0.960 . S
C407 C404 1.511 . S
C407 H421 0.961 . S
C407 H422 0.961 . S
C407 H423 0.961 . S
C408 C409 1.370 . S
C408 C410 1.363 . S
C408 H424 0.931 . S
C409 C408 1.370 . S
C409 C413 1.408 . S
C410 C408 1.363 . S
C410 C411 1.370 . S
C410 C414 1.524 . S
C411 C403 1.503 . S
C411 C410 1.370 . S
C411 C412 1.403 . S
C412 C411 1.403 . S
C412 C413 1.404 . S
C412 C415 1.539 . S
C413 C409 1.408 . S
C413 C412 1.404 . S
C413 H425 0.930 . S
C414 C410 1.524 . S
C414 H426 0.956 . S
C414 H427 0.961 . S
C414 H428 0.961 . S
C415 C412 1.539 . S
C415 H429 0.958 . S
C415 H430 0.961 . S
C415 H431 0.960 . S
H416 C400 0.931 . S
H417 C405 0.929 . S
H418 C406 0.960 . S
H419 C406 0.962 . S
H420 C406 0.960 . S
H421 C407 0.961 . S
H422 C407 0.961 . S
H423 C407 0.961 . S
H424 C408 0.931 . S
H425 C413 0.930 . S
H426 C414 0.956 . S
H427 C414 0.961 . S
H428 C414 0.961 . S
H429 C415 0.958 . S
H430 C415 0.961 . S
H431 C415 0.960 . S
C432 C433 1.391 . S
C432 C434 1.394 . S
C432 H448 0.931 . S
C433 C432 1.391 . S
C433 C437 1.376 . S
C434 C432 1.394 . S
C434 C435 1.369 . S
C434 C438 1.531 . S
C435 C434 1.369 . S
C435 C436 1.410 . S
C435 C443 1.503 . S
C436 C435 1.410 . S
C436 C437 1.392 . S
C436 C439 1.511 . S
C437 C433 1.376 . S
C437 C436 1.392 . S
C437 H449 0.929 . S
C438 C434 1.531 . S
C438 H450 0.960 . S
C438 H451 0.962 . S
C438 H452 0.960 . S
C439 C436 1.511 . S
C439 H453 0.961 . S
C439 H454 0.961 . S
C439 H455 0.961 . S
C440 C441 1.370 . S
C440 C442 1.363 . S
C440 H456 0.931 . S
C441 C440 1.370 . S
C441 C445 1.408 . S
C442 C440 1.363 . S
C442 C443 1.370 . S
C442 C446 1.524 . S
C443 C435 1.503 . S
C443 C442 1.370 . S
C443 C444 1.403 . S
C444 C443 1.403 . S
C444 C445 1.404 . S
C444 C447 1.539 . S
C445 C441 1.408 . S
C445 C444 1.404 . S
C445 H457 0.930 . S
C446 C442 1.524 . S
C446 H458 0.956 . S
C446 H459 0.961 . S
C446 H460 0.961 . S
C447 C444 1.539 . S
C447 H461 0.958 . S
C447 H462 0.961 . S
C447 H463 0.960 . S
H448 C432 0.931 . S
H449 C437 0.929 . S
H450 C438 0.960 . S
H451 C438 0.962 . S
H452 C438 0.960 . S
H453 C439 0.961 . S
H454 C439 0.961 . S
H455 C439 0.961 . S
H456 C440 0.931 . S
H457 C445 0.930 . S
H458 C446 0.956 . S
H459 C446 0.961 . S
H460 C446 0.961 . S
H461 C447 0.958 . S
H462 C447 0.961 . S
H463 C447 0.960 . S
C464 C465 1.391 . S
C464 C466 1.394 . S
C464 H480 0.931 . S
C465 C464 1.391 . S
C465 C469 1.386 . S
C466 C464 1.394 . S
C466 C467 1.357 1_655 S
C466 C470 1.531 . S
C467 C466 1.357 1_455 S
C467 C468 1.415 . S
C467 C475 1.508 . S
C468 C467 1.415 . S
C468 C469 1.387 1_455 S
C468 C471 1.511 . S
C469 C465 1.386 . S
C469 C468 1.387 1_655 S
C469 H481 0.924 1_655 S
C470 C466 1.531 . S
C470 H482 0.960 . S
C470 H483 0.962 . S
C470 H484 0.960 . S
C471 C468 1.511 . S
C471 H485 0.961 . S
C471 H486 0.961 . S
C471 H487 0.961 . S
C472 C473 1.370 1_655 S
C472 C474 1.363 . S
C472 H488 0.931 . S
C473 C472 1.370 1_455 S
C473 C477 1.408 . S
C474 C472 1.363 . S
C474 C475 1.370 1_655 S
C474 C478 1.524 . S
C475 C467 1.508 . S
C475 C474 1.370 1_455 S
C475 C476 1.403 . S
C476 C475 1.403 . S
C476 C477 1.404 . S
C476 C479 1.539 . S
C477 C473 1.408 . S
C477 C476 1.404 . S
C477 H489 0.930 . S
C478 C474 1.524 . S
C478 H490 0.956 . S
C478 H491 0.961 . S
C478 H492 0.961 . S
C479 C476 1.539 . S
C479 H493 0.958 . S
C479 H494 0.961 . S
C479 H495 0.960 . S
H480 C464 0.931 . S
H481 C469 0.924 1_455 S
H482 C470 0.960 . S
H483 C470 0.962 . S
H484 C470 0.960 . S
H485 C471 0.961 . S
H486 C471 0.961 . S
H487 C471 0.961 . S
H488 C472 0.931 . S
H489 C477 0.930 . S
H490 C478 0.956 . S
H491 C478 0.961 . S
H492 C478 0.961 . S
H493 C479 0.958 . S
H494 C479 0.961 . S
H495 C479 0.960 . S
C496 C497 1.391 . S
C496 C498 1.394 . S
C496 H512 0.931 . S
C497 C496 1.391 . S
C497 C501 1.376 . S
C498 C496 1.394 . S
C498 C499 1.369 . S
C498 C502 1.531 . S
C499 C498 1.369 . S
C499 C500 1.410 . S
C499 C507 1.503 . S
C500 C499 1.410 . S
C500 C501 1.392 . S
C500 C503 1.511 . S
C501 C497 1.376 . S
C501 C500 1.392 . S
C501 H513 0.929 . S
C502 C498 1.531 . S
C502 H514 0.960 . S
C502 H515 0.962 . S
C502 H516 0.960 . S
C503 C500 1.511 . S
C503 H517 0.961 . S
C503 H518 0.961 . S
C503 H519 0.961 . S
C504 C505 1.370 . S
C504 C506 1.363 . S
C504 H520 0.931 . S
C505 C504 1.370 . S
C505 C509 1.408 . S
C506 C504 1.363 . S
C506 C507 1.370 . S
C506 C510 1.524 . S
C507 C499 1.503 . S
C507 C506 1.370 . S
C507 C508 1.403 . S
C508 C507 1.403 . S
C508 C509 1.404 . S
C508 C511 1.539 . S
C509 C505 1.408 . S
C509 C508 1.404 . S
C509 H521 0.930 . S
C510 C506 1.524 . S
C510 H522 0.956 . S
C510 H523 0.961 . S
C510 H524 0.961 . S
C511 C508 1.539 . S
C511 H525 0.958 . S
C511 H526 0.961 . S
C511 H527 0.960 . S
H512 C496 0.931 . S
H513 C501 0.929 . S
H514 C502 0.960 . S
H515 C502 0.962 . S
H516 C502 0.960 . S
H517 C503 0.961 . S
H518 C503 0.961 . S
H519 C503 0.961 . S
H520 C504 0.931 . S
H521 C509 0.930 . S
H522 C510 0.956 . S
H523 C510 0.961 . S
H524 C510 0.961 . S
H525 C511 0.958 . S
H526 C511 0.961 . S
H527 C511 0.960 . S
C528 C529 1.391 1_655 S
C528 C530 1.394 . S
C528 H544 0.931 . S
C529 C528 1.391 1_455 S
C529 C533 1.376 . S
C530 C528 1.394 . S
C530 C531 1.369 1_655 S
C530 C534 1.531 . S
C531 C530 1.369 1_455 S
C531 C532 1.410 . S
C531 C539 1.503 1_455 S
C532 C531 1.410 . S
C532 C533 1.392 . S
C532 C535 1.511 . S
C533 C529 1.376 . S
C533 C532 1.392 . S
C533 H545 0.929 . S
C534 C530 1.531 . S
C534 H546 0.960 . S
C534 H547 0.962 . S
C534 H548 0.960 . S
C535 C532 1.511 . S
C535 H549 0.961 . S
C535 H550 0.961 . S
C535 H551 0.961 . S
C536 C537 1.370 . S
C536 C538 1.363 . S
C536 H552 0.931 . S
C537 C536 1.370 . S
C537 C541 1.408 . S
C538 C536 1.363 . S
C538 C539 1.370 . S
C538 C542 1.524 . S
C539 C531 1.503 1_655 S
C539 C538 1.370 . S
C539 C540 1.403 . S
C540 C539 1.403 . S
C540 C541 1.404 . S
C540 C543 1.539 . S
C541 C537 1.408 . S
C541 C540 1.404 . S
C541 H553 0.930 . S
C542 C538 1.524 . S
C542 H554 0.956 . S
C542 H555 0.961 1_655 S
C542 H556 0.961 . S
C543 C540 1.539 . S
C543 H557 0.958 . S
C543 H558 0.961 1_655 S
C543 H559 0.960 1_655 S
H544 C528 0.931 . S
H545 C533 0.929 . S
H546 C534 0.960 . S
H547 C534 0.962 . S
H548 C534 0.960 . S
H549 C535 0.961 . S
H550 C535 0.961 . S
H551 C535 0.961 . S
H552 C536 0.931 . S
H553 C541 0.930 . S
H554 C542 0.956 . S
H555 C542 0.961 1_455 S
H556 C542 0.961 . S
H557 C543 0.958 . S
H558 C543 0.961 1_455 S
H559 C543 0.960 1_455 S
C560 C561 1.391 . S
C560 C562 1.394 . S
C560 H576 0.931 . S
C561 C560 1.391 . S
C561 C565 1.376 . S
C562 C560 1.394 . S
C562 C563 1.369 . S
C562 C566 1.531 . S
C563 C562 1.369 . S
C563 C564 1.410 . S
C563 C571 1.503 . S
C564 C563 1.410 . S
C564 C565 1.392 . S
C564 C567 1.511 . S
C565 C561 1.376 . S
C565 C564 1.392 . S
C565 H577 0.929 . S
C566 C562 1.531 . S
C566 H578 0.960 . S
C566 H579 0.962 . S
C566 H580 0.960 . S
C567 C564 1.511 . S
C567 H581 0.961 . S
C567 H582 0.961 . S
C567 H583 0.961 . S
C568 C569 1.370 . S
C568 C570 1.363 . S
C568 H584 0.931 . S
C569 C568 1.370 . S
C569 C573 1.408 . S
C570 C568 1.363 . S
C570 C571 1.370 . S
C570 C574 1.524 . S
C571 C563 1.503 . S
C571 C570 1.370 . S
C571 C572 1.403 . S
C572 C571 1.403 . S
C572 C573 1.404 . S
C572 C575 1.539 . S
C573 C569 1.408 . S
C573 C572 1.404 . S
C573 H585 0.930 . S
C574 C570 1.524 . S
C574 H586 0.956 . S
C574 H587 0.961 . S
C574 H588 0.961 . S
C575 C572 1.539 . S
C575 H589 0.958 . S
C575 H590 0.961 . S
C575 H591 0.960 . S
H576 C560 0.931 . S
H577 C565 0.929 . S
H578 C566 0.960 . S
H579 C566 0.962 . S
H580 C566 0.960 . S
H581 C567 0.961 . S
H582 C567 0.961 . S
H583 C567 0.961 . S
H584 C568 0.931 . S
H585 C573 0.930 . S
H586 C574 0.956 . S
H587 C574 0.961 . S
H588 C574 0.961 . S
H589 C575 0.958 . S
H590 C575 0.961 . S
H591 C575 0.960 . S
C592 C593 1.391 . S
C592 C594 1.394 . S
C592 H608 0.931 . S
C593 C592 1.391 . S
C593 C597 1.376 . S
C594 C592 1.394 . S
C594 C595 1.369 . S
C594 C598 1.531 . S
C595 C594 1.369 . S
C595 C596 1.410 . S
C595 C603 1.503 . S
C596 C595 1.410 . S
C596 C597 1.392 . S
C596 C599 1.511 . S
C597 C593 1.376 . S
C597 C596 1.392 . S
C597 H609 0.929 . S
C598 C594 1.531 . S
C598 H610 0.960 . S
C598 H611 0.962 . S
C598 H612 0.960 . S
C599 C596 1.511 . S
C599 H613 0.961 . S
C599 H614 0.961 . S
C599 H615 0.961 . S
C600 C601 1.370 . S
C600 C602 1.363 . S
C600 H616 0.931 . S
C601 C600 1.370 . S
C601 C605 1.408 . S
C602 C600 1.363 . S
C602 C603 1.370 . S
C602 C606 1.524 . S
C603 C595 1.503 . S
C603 C602 1.370 . S
C603 C604 1.403 . S
C604 C603 1.403 . S
C604 C605 1.404 . S
C604 C607 1.539 . S
C605 C601 1.408 . S
C605 C604 1.404 . S
C605 H617 0.930 . S
C606 C602 1.524 . S
C606 H618 0.956 . S
C606 H619 0.961 . S
C606 H620 0.961 . S
C607 C604 1.539 . S
C607 H621 0.958 . S
C607 H622 0.961 . S
C607 H623 0.960 . S
H608 C592 0.931 . S
H609 C597 0.929 . S
H610 C598 0.960 . S
H611 C598 0.962 . S
H612 C598 0.960 . S
H613 C599 0.961 . S
H614 C599 0.961 . S
H615 C599 0.961 . S
H616 C600 0.931 . S
H617 C605 0.930 . S
H618 C606 0.956 . S
H619 C606 0.961 . S
H620 C606 0.961 . S
H621 C607 0.958 . S
H622 C607 0.961 . S
H623 C607 0.960 . S
C624 C625 1.391 . S
C624 C626 1.394 . S
C624 H640 0.931 . S
C625 C624 1.391 . S
C625 C629 1.376 . S
C626 C624 1.394 . S
C626 C627 1.369 1_455 S
C626 C630 1.531 . S
C627 C626 1.369 1_655 S
C627 C628 1.409 1_655 S
C627 C635 1.503 . S
C628 C627 1.409 1_455 S
C628 C629 1.394 . S
C628 C631 1.510 1_455 S
C629 C625 1.376 . S
C629 C628 1.394 . S
C629 H641 0.929 . S
C630 C626 1.531 . S
C630 H642 0.960 1_455 S
C630 H643 0.962 . S
C630 H644 0.960 1_455 S
C631 C628 1.510 1_655 S
C631 H645 0.961 1_655 S
C631 H646 0.961 . S
C631 H647 0.961 . S
C632 C633 1.370 1_455 S
C632 C634 1.363 . S
C632 H648 0.931 . S
C633 C632 1.370 1_655 S
C633 C637 1.408 . S
C634 C632 1.363 . S
C634 C635 1.370 1_455 S
C634 C638 1.524 . S
C635 C627 1.503 . S
C635 C634 1.370 1_655 S
C635 C636 1.403 . S
C636 C635 1.403 . S
C636 C637 1.404 . S
C636 C639 1.539 . S
C637 C633 1.408 . S
C637 C636 1.404 . S
C637 H649 0.930 . S
C638 C634 1.524 . S
C638 H650 0.956 . S
C638 H651 0.961 . S
C638 H652 0.961 . S
C639 C636 1.539 . S
C639 H653 0.958 . S
C639 H654 0.961 . S
C639 H655 0.960 . S
H640 C624 0.931 . S
H641 C629 0.929 . S
H642 C630 0.960 1_655 S
H643 C630 0.962 . S
H644 C630 0.960 1_655 S
H645 C631 0.961 1_455 S
H646 C631 0.961 . S
H647 C631 0.961 . S
H648 C632 0.931 . S
H649 C637 0.930 . S
H650 C638 0.956 . S
H651 C638 0.961 . S
H652 C638 0.961 . S
H653 C639 0.958 . S
H654 C639 0.961 . S
H655 C639 0.960 . S
C656 C657 1.391 . S
C656 C658 1.394 . S
C656 H672 0.931 . S
C657 C656 1.391 . S
C657 C661 1.376 . S
C658 C656 1.394 . S
C658 C659 1.369 . S
C658 C662 1.531 . S
C659 C658 1.369 . S
C659 C660 1.410 . S
C659 C667 1.503 . S
C660 C659 1.410 . S
C660 C661 1.392 . S
C660 C663 1.511 . S
C661 C657 1.376 . S
C661 C660 1.392 . S
C661 H673 0.929 . S
C662 C658 1.531 . S
C662 H674 0.960 . S
C662 H675 0.962 . S
C662 H676 0.960 . S
C663 C660 1.511 . S
C663 H677 0.961 . S
C663 H678 0.961 . S
C663 H679 0.961 . S
C664 C665 1.370 . S
C664 C666 1.363 . S
C664 H680 0.931 . S
C665 C664 1.370 . S
C665 C669 1.408 . S
C666 C664 1.363 . S
C666 C667 1.370 . S
C666 C670 1.524 . S
C667 C659 1.503 . S
C667 C666 1.370 . S
C667 C668 1.403 . S
C668 C667 1.403 . S
C668 C669 1.404 . S
C668 C671 1.539 . S
C669 C665 1.408 . S
C669 C668 1.404 . S
C669 H681 0.930 . S
C670 C666 1.524 . S
C670 H682 0.956 . S
C670 H683 0.961 . S
C670 H684 0.961 . S
C671 C668 1.539 . S
C671 H685 0.958 . S
C671 H686 0.961 . S
C671 H687 0.960 . S
H672 C656 0.931 . S
H673 C661 0.929 . S
H674 C662 0.960 . S
H675 C662 0.962 . S
H676 C662 0.960 . S
H677 C663 0.961 . S
H678 C663 0.961 . S
H679 C663 0.961 . S
H680 C664 0.931 . S
H681 C669 0.930 . S
H682 C670 0.956 . S
H683 C670 0.961 . S
H684 C670 0.961 . S
H685 C671 0.958 . S
H686 C671 0.961 . S
H687 C671 0.960 . S
C688 C689 1.391 . S
C688 C690 1.394 . S
C688 H704 0.931 . S
C689 C688 1.391 . S
C689 C693 1.376 1_455 S
C690 C688 1.394 . S
C690 C691 1.369 . S
C690 C694 1.531 . S
C691 C690 1.369 . S
C691 C692 1.410 1_455 S
C691 C699 1.503 1_455 S
C692 C691 1.410 1_655 S
C692 C693 1.392 . S
C692 C695 1.511 . S
C693 C689 1.376 1_655 S
C693 C692 1.392 . S
C693 H705 0.929 . S
C694 C690 1.531 . S
C694 H706 0.960 . S
C694 H707 0.962 . S
C694 H708 0.960 . S
C695 C692 1.511 . S
C695 H709 0.961 . S
C695 H710 0.961 . S
C695 H711 0.961 . S
C696 C697 1.370 . S
C696 C698 1.363 1_655 S
C696 H712 0.931 1_655 S
C697 C696 1.370 . S
C697 C701 1.408 . S
C698 C696 1.363 1_455 S
C698 C699 1.370 1_455 S
C698 C702 1.524 . S
C699 C691 1.503 1_655 S
C699 C698 1.370 1_655 S
C699 C700 1.403 . S
C700 C699 1.403 . S
C700 C701 1.404 . S
C700 C703 1.539 . S
C701 C697 1.408 . S
C701 C700 1.404 . S
C701 H713 0.930 . S
C702 C698 1.524 . S
C702 H714 0.956 . S
C702 H715 0.961 . S
C702 H716 0.961 . S
C703 C700 1.539 . S
C703 H717 0.958 . S
C703 H718 0.961 . S
C703 H719 0.960 . S
H704 C688 0.931 . S
H705 C693 0.929 . S
H706 C694 0.960 . S
H707 C694 0.962 . S
H708 C694 0.960 . S
H709 C695 0.961 . S
H710 C695 0.961 . S
H711 C695 0.961 . S
H712 C696 0.931 1_455 S
H713 C701 0.930 . S
H714 C702 0.956 . S
H715 C702 0.961 . S
H716 C702 0.961 . S
H717 C703 0.958 . S
H718 C703 0.961 . S
H719 C703 0.960 . S
C720 C721 1.391 . S
C720 C722 1.394 . S
C720 H736 0.931 . S
C721 C720 1.391 . S
C721 C725 1.376 1_455 S
C722 C720 1.394 . S
C722 C723 1.369 . S
C722 C726 1.531 . S
C723 C722 1.369 . S
C723 C724 1.410 1_455 S
C723 C731 1.503 1_455 S
C724 C723 1.410 1_655 S
C724 C725 1.392 . S
C724 C727 1.511 . S
C725 C721 1.376 1_655 S
C725 C724 1.392 . S
C725 H737 0.929 . S
C726 C722 1.531 . S
C726 H738 0.960 . S
C726 H739 0.962 . S
C726 H740 0.960 . S
C727 C724 1.511 . S
C727 H741 0.961 . S
C727 H742 0.961 . S
C727 H743 0.961 . S
C728 C729 1.370 . S
C728 C730 1.363 1_655 S
C728 H744 0.931 1_655 S
C729 C728 1.370 . S
C729 C733 1.408 . S
C730 C728 1.363 1_455 S
C730 C731 1.370 1_455 S
C730 C734 1.524 . S
C731 C723 1.503 1_655 S
C731 C730 1.370 1_655 S
C731 C732 1.403 . S
C732 C731 1.403 . S
C732 C733 1.404 . S
C732 C735 1.539 . S
C733 C729 1.408 . S
C733 C732 1.404 . S
C733 H745 0.930 . S
C734 C730 1.524 . S
C734 H746 0.956 . S
C734 H747 0.961 . S
C734 H748 0.961 . S
C735 C732 1.539 . S
C735 H749 0.958 . S
C735 H750 0.961 . S
C735 H751 0.960 . S
H736 C720 0.931 . S
H737 C725 0.929 . S
H738 C726 0.960 . S
H739 C726 0.962 . S
H740 C726 0.960 . S
H741 C727 0.961 . S
H742 C727 0.961 . S
H743 C727 0.961 . S
H744 C728 0.931 1_455 S
H745 C733 0.930 . S
H746 C734 0.956 . S
H747 C734 0.961 . S
H748 C734 0.961 . S
H749 C735 0.958 . S
H750 C735 0.961 . S
H751 C735 0.960 . S
C752 C753 1.391 . S
C752 C754 1.394 . S
C752 H768 0.931 . S
C753 C752 1.391 . S
C753 C757 1.376 . S
C754 C752 1.394 . S
C754 C755 1.369 . S
C754 C758 1.531 . S
C755 C754 1.369 . S
C755 C756 1.410 . S
C755 C763 1.503 . S
C756 C755 1.410 . S
C756 C757 1.392 . S
C756 C759 1.511 . S
C757 C753 1.376 . S
C757 C756 1.392 . S
C757 H769 0.929 . S
C758 C754 1.531 . S
C758 H770 0.960 . S
C758 H771 0.962 . S
C758 H772 0.960 . S
C759 C756 1.511 . S
C759 H773 0.961 . S
C759 H774 0.961 . S
C759 H775 0.961 . S
C760 C761 1.370 . S
C760 C762 1.363 . S
C760 H776 0.931 . S
C761 C760 1.370 . S
C761 C765 1.408 . S
C762 C760 1.363 . S
C762 C763 1.370 . S
C762 C766 1.524 . S
C763 C755 1.503 . S
C763 C762 1.370 . S
C763 C764 1.403 . S
C764 C763 1.403 . S
C764 C765 1.404 . S
C764 C767 1.539 . S
C765 C761 1.408 . S
C765 C764 1.404 . S
C765 H777 0.930 . S
C766 C762 1.524 . S
C766 H778 0.956 . S
C766 H779 0.961 . S
C766 H780 0.961 . S
C767 C764 1.539 . S
C767 H781 0.958 . S
C767 H782 0.961 . S
C767 H783 0.960 . S
H768 C752 0.931 . S
H769 C757 0.929 . S
H770 C758 0.960 . S
H771 C758 0.962 . S
H772 C758 0.960 . S
H773 C759 0.961 . S
H774 C759 0.961 . S
H775 C759 0.961 . S
H776 C760 0.931 . S
H777 C765 0.930 . S
H778 C766 0.956 . S
H779 C766 0.961 . S
H780 C766 0.961 . S
H781 C767 0.958 . S
H782 C767 0.961 . S
H783 C767 0.960 . S
C784 C785 1.391 . S
C784 C786 1.394 . S
C784 H800 0.931 . S
C785 C784 1.391 . S
C785 C789 1.376 . S
C786 C784 1.394 . S
C786 C787 1.369 . S
C786 C790 1.531 . S
C787 C786 1.369 . S
C787 C788 1.410 . S
C787 C795 1.503 . S
C788 C787 1.410 . S
C788 C789 1.392 . S
C788 C791 1.511 . S
C789 C785 1.376 . S
C789 C788 1.392 . S
C789 H801 0.929 . S
C790 C786 1.531 . S
C790 H802 0.960 . S
C790 H803 0.962 . S
C790 H804 0.960 . S
C791 C788 1.511 . S
C791 H805 0.961 . S
C791 H806 0.961 . S
C791 H807 0.961 . S
C792 C793 1.370 . S
C792 C794 1.363 . S
C792 H808 0.931 . S
C793 C792 1.370 . S
C793 C797 1.408 . S
C794 C792 1.363 . S
C794 C795 1.370 . S
C794 C798 1.524 . S
C795 C787 1.503 . S
C795 C794 1.370 . S
C795 C796 1.403 . S
C796 C795 1.403 . S
C796 C797 1.404 . S
C796 C799 1.539 . S
C797 C793 1.408 . S
C797 C796 1.404 . S
C797 H809 0.930 . S
C798 C794 1.524 . S
C798 H810 0.956 . S
C798 H811 0.961 . S
C798 H812 0.961 . S
C799 C796 1.539 . S
C799 H813 0.958 . S
C799 H814 0.961 . S
C799 H815 0.960 . S
H800 C784 0.931 . S
H801 C789 0.929 . S
H802 C790 0.960 . S
H803 C790 0.962 . S
H804 C790 0.960 . S
H805 C791 0.961 . S
H806 C791 0.961 . S
H807 C791 0.961 . S
H808 C792 0.931 . S
H809 C797 0.930 . S
H810 C798 0.956 . S
H811 C798 0.961 . S
H812 C798 0.961 . S
H813 C799 0.958 . S
H814 C799 0.961 . S
H815 C799 0.960 . S
C816 C817 1.391 . S
C816 C818 1.394 . S
C816 H832 0.931 . S
C817 C816 1.391 . S
C817 C821 1.376 1_455 S
C818 C816 1.394 . S
C818 C819 1.369 . S
C818 C822 1.531 . S
C819 C818 1.369 . S
C819 C820 1.410 1_455 S
C819 C827 1.503 1_455 S
C820 C819 1.410 1_655 S
C820 C821 1.392 . S
C820 C823 1.511 . S
C821 C817 1.376 1_655 S
C821 C820 1.392 . S
C821 H833 0.929 . S
C822 C818 1.531 . S
C822 H834 0.960 . S
C822 H835 0.962 . S
C822 H836 0.960 . S
C823 C820 1.511 . S
C823 H837 0.961 . S
C823 H838 0.961 . S
C823 H839 0.961 . S
C824 C825 1.370 . S
C824 C826 1.363 . S
C824 H840 0.931 . S
C825 C824 1.370 . S
C825 C829 1.408 . S
C826 C824 1.363 . S
C826 C827 1.370 . S
C826 C830 1.524 1_655 S
C827 C819 1.503 1_655 S
C827 C826 1.370 . S
C827 C828 1.403 . S
C828 C827 1.403 . S
C828 C829 1.404 . S
C828 C831 1.539 . S
C829 C825 1.408 . S
C829 C828 1.404 . S
C829 H841 0.930 . S
C830 C826 1.524 1_455 S
C830 H842 0.956 . S
C830 H843 0.961 . S
C830 H844 0.961 . S
C831 C828 1.539 . S
C831 H845 0.958 . S
C831 H846 0.961 . S
C831 H847 0.960 . S
H832 C816 0.931 . S
H833 C821 0.929 . S
H834 C822 0.960 . S
H835 C822 0.962 . S
H836 C822 0.960 . S
H837 C823 0.961 . S
H838 C823 0.961 . S
H839 C823 0.961 . S
H840 C824 0.931 . S
H841 C829 0.930 . S
H842 C830 0.956 . S
H843 C830 0.961 . S
H844 C830 0.961 . S
H845 C831 0.958 . S
H846 C831 0.961 . S
H847 C831 0.960 . S
C848 C849 1.391 . S
C848 C850 1.394 . S
C848 H864 0.931 . S
C849 C848 1.391 . S
C849 C853 1.376 1_455 S
C850 C848 1.394 . S
C850 C851 1.369 . S
C850 C854 1.531 . S
C851 C850 1.369 . S
C851 C852 1.410 1_455 S
C851 C859 1.503 1_455 S
C852 C851 1.410 1_655 S
C852 C853 1.392 . S
C852 C855 1.511 . S
C853 C849 1.376 1_655 S
C853 C852 1.392 . S
C853 H865 0.929 . S
C854 C850 1.531 . S
C854 H866 0.960 . S
C854 H867 0.962 . S
C854 H868 0.960 . S
C855 C852 1.511 . S
C855 H869 0.961 . S
C855 H870 0.961 . S
C855 H871 0.961 . S
C856 C857 1.370 . S
C856 C858 1.363 . S
C856 H872 0.931 . S
C857 C856 1.370 . S
C857 C861 1.408 . S
C858 C856 1.363 . S
C858 C859 1.370 . S
C858 C862 1.524 . S
C859 C851 1.503 1_655 S
C859 C858 1.370 . S
C859 C860 1.403 . S
C860 C859 1.403 . S
C860 C861 1.404 . S
C860 C863 1.539 1_655 S
C861 C857 1.408 . S
C861 C860 1.404 . S
C861 H873 0.930 . S
C862 C858 1.524 . S
C862 H874 0.956 1_655 S
C862 H875 0.961 . S
C862 H876 0.961 . S
C863 C860 1.539 1_455 S
C863 H877 0.958 . S
C863 H878 0.961 1_455 S
C863 H879 0.960 . S
H864 C848 0.931 . S
H865 C853 0.929 . S
H866 C854 0.960 . S
H867 C854 0.962 . S
H868 C854 0.960 . S
H869 C855 0.961 . S
H870 C855 0.961 . S
H871 C855 0.961 . S
H872 C856 0.931 . S
H873 C861 0.930 . S
H874 C862 0.956 1_455 S
H875 C862 0.961 . S
H876 C862 0.961 . S
H877 C863 0.958 . S
H878 C863 0.961 1_655 S
H879 C863 0.960 . S
C880 C881 1.391 . S
C880 C882 1.394 . S
C880 H896 0.931 . S
C881 C880 1.391 . S
C881 C885 1.376 . S
C882 C880 1.394 . S
C882 C883 1.369 . S
C882 C886 1.531 . S
C883 C882 1.369 . S
C883 C884 1.410 . S
C883 C891 1.503 . S
C884 C883 1.410 . S
C884 C885 1.392 . S
C884 C887 1.511 . S
C885 C881 1.376 . S
C885 C884 1.392 . S
C885 H897 0.929 . S
C886 C882 1.531 . S
C886 H898 0.960 . S
C886 H899 0.962 . S
C886 H900 0.960 . S
C887 C884 1.511 . S
C887 H901 0.961 . S
C887 H902 0.961 . S
C887 H903 0.961 . S
C888 C889 1.370 . S
C888 C890 1.363 . S
C888 H904 0.931 . S
C889 C888 1.370 . S
C889 C893 1.408 . S
C890 C888 1.363 . S
C890 C891 1.370 . S
C890 C894 1.524 . S
C891 C883 1.503 . S
C891 C890 1.370 . S
C891 C892 1.403 . S
C892 C891 1.403 . S
C892 C893 1.404 . S
C892 C895 1.539 . S
C893 C889 1.408 . S
C893 C892 1.404 . S
C893 H905 0.930 . S
C894 C890 1.524 . S
C894 H906 0.956 . S
C894 H907 0.961 . S
C894 H908 0.961 . S
C895 C892 1.539 . S
C895 H909 0.958 . S
C895 H910 0.961 . S
C895 H911 0.960 . S
H896 C880 0.931 . S
H897 C885 0.929 . S
H898 C886 0.960 . S
H899 C886 0.962 . S
H900 C886 0.960 . S
H901 C887 0.961 . S
H902 C887 0.961 . S
H903 C887 0.961 . S
H904 C888 0.931 . S
H905 C893 0.930 . S
H906 C894 0.956 . S
H907 C894 0.961 . S
H908 C894 0.961 . S
H909 C895 0.958 . S
H910 C895 0.961 . S
H911 C895 0.960 . S
C912 C913 1.391 . S
C912 C914 1.394 . S
C912 H928 0.931 . S
C913 C912 1.391 . S
C913 C917 1.376 . S
C914 C912 1.394 . S
C914 C915 1.369 . S
C914 C918 1.531 . S
C915 C914 1.369 . S
C915 C916 1.410 . S
C915 C923 1.503 . S
C916 C915 1.410 . S
C916 C917 1.392 . S
C916 C919 1.511 . S
C917 C913 1.376 . S
C917 C916 1.392 . S
C917 H929 0.929 . S
C918 C914 1.531 . S
C918 H930 0.960 . S
C918 H931 0.962 . S
C918 H932 0.960 . S
C919 C916 1.511 . S
C919 H933 0.961 . S
C919 H934 0.961 . S
C919 H935 0.961 . S
C920 C921 1.370 . S
C920 C922 1.363 . S
C920 H936 0.931 . S
C921 C920 1.370 . S
C921 C925 1.408 . S
C922 C920 1.363 . S
C922 C923 1.370 . S
C922 C926 1.524 . S
C923 C915 1.503 . S
C923 C922 1.370 . S
C923 C924 1.403 . S
C924 C923 1.403 . S
C924 C925 1.404 . S
C924 C927 1.539 . S
C925 C921 1.408 . S
C925 C924 1.404 . S
C925 H937 0.930 . S
C926 C922 1.524 . S
C926 H938 0.956 . S
C926 H939 0.961 . S
C926 H940 0.961 . S
C927 C924 1.539 . S
C927 H941 0.958 . S
C927 H942 0.961 . S
C927 H943 0.960 . S
H928 C912 0.931 . S
H929 C917 0.929 . S
H930 C918 0.960 . S
H931 C918 0.962 . S
H932 C918 0.960 . S
H933 C919 0.961 . S
H934 C919 0.961 . S
H935 C919 0.961 . S
H936 C920 0.931 . S
H937 C925 0.930 . S
H938 C926 0.956 . S
H939 C926 0.961 . S
H940 C926 0.961 . S
H941 C927 0.958 . S
H942 C927 0.961 . S
H943 C927 0.960 . S
C944 C945 1.391 1_655 S
C944 C946 1.394 . S
C944 H960 0.931 . S
C945 C944 1.391 1_455 S
C945 C949 1.376 . S
C946 C944 1.394 . S
C946 C947 1.369 1_655 S
C946 C950 1.531 . S
C947 C946 1.369 1_455 S
C947 C948 1.410 . S
C947 C955 1.503 1_455 S
C948 C947 1.410 . S
C948 C949 1.392 . S
C948 C951 1.511 . S
C949 C945 1.376 . S
C949 C948 1.392 . S
C949 H961 0.929 . S
C950 C946 1.531 . S
C950 H962 0.960 . S
C950 H963 0.962 . S
C950 H964 0.960 . S
C951 C948 1.511 . S
C951 H965 0.961 . S
C951 H966 0.961 . S
C951 H967 0.961 . S
C952 C953 1.370 . S
C952 C954 1.363 . S
C952 H968 0.931 . S
C953 C952 1.370 . S
C953 C957 1.408 . S
C954 C952 1.363 . S
C954 C955 1.370 . S
C954 C958 1.524 . S
C955 C947 1.503 1_655 S
C955 C954 1.370 . S
C955 C956 1.403 1_655 S
C956 C955 1.403 1_455 S
C956 C957 1.404 1_455 S
C956 C959 1.539 . S
C957 C953 1.408 . S
C957 C956 1.404 1_655 S
C957 H969 0.931 . S
C958 C954 1.524 . S
C958 H970 0.956 . S
C958 H971 0.961 . S
C958 H972 0.961 . S
C959 C956 1.539 . S
C959 H973 0.958 . S
C959 H974 0.961 . S
C959 H975 0.960 . S
H960 C944 0.931 . S
H961 C949 0.929 . S
H962 C950 0.960 . S
H963 C950 0.962 . S
H964 C950 0.960 . S
H965 C951 0.961 . S
H966 C951 0.961 . S
H967 C951 0.961 . S
H968 C952 0.931 . S
H969 C957 0.931 . S
H970 C958 0.956 . S
H971 C958 0.961 . S
H972 C958 0.961 . S
H973 C959 0.958 . S
H974 C959 0.961 . S
H975 C959 0.960 . S
C976 C977 1.391 1_455 S
C976 C978 1.394 . S
C976 H992 0.931 . S
C977 C976 1.391 1_655 S
C977 C981 1.376 . S
C978 C976 1.394 . S
C978 C979 1.369 1_455 S
C978 C982 1.531 . S
C979 C978 1.369 1_655 S
C979 C980 1.410 . S
C979 C987 1.503 1_666 S
C980 C979 1.410 . S
C980 C981 1.392 . S
C980 C983 1.518 1_556 S
C981 C977 1.376 . S
C981 C980 1.392 . S
C981 H993 0.929 . S
C982 C978 1.531 . S
C982 H994 0.960 1_565 S
C982 H995 0.962 . S
C982 H996 0.960 1_565 S
C983 C980 1.518 1_554 S
C983 H997 0.977 . S
C983 H998 0.960 1_565 S
C983 H999 0.939 1_564 S
C984 C985 1.370 . S
C984 C986 1.363 1_545 S
C984 H1000 0.931 1_545 S
C985 C984 1.370 . S
C985 C989 1.408 . S
C986 C984 1.363 1_565 S
C986 C987 1.370 1_565 S
C986 C990 1.524 . S
C987 C979 1.503 1_444 S
C987 C986 1.370 1_545 S
C987 C988 1.403 . S
C988 C987 1.403 . S
C988 C989 1.404 . S
C988 C991 1.539 1_454 S
C989 C985 1.408 . S
C989 C988 1.404 . S
C989 H1001 0.930 . S
C990 C986 1.524 . S
C990 H1002 0.956 . S
C990 H1003 0.961 1_455 S
C990 H1004 0.961 . S
C991 C988 1.539 1_656 S
C991 H1005 0.958 1_655 S
C991 H1006 0.961 . S
C991 H1007 0.960 . S
H992 C976 0.931 . S
H993 C981 0.929 . S
H994 C982 0.960 1_545 S
H995 C982 0.962 . S
H996 C982 0.960 1_545 S
H997 C983 0.977 . S
H998 C983 0.960 1_545 S
H999 C983 0.939 1_546 S
H1000 C984 0.931 1_565 S
H1001 C989 0.930 . S
H1002 C990 0.956 . S
H1003 C990 0.961 1_655 S
H1004 C990 0.961 . S
H1005 C991 0.958 1_455 S
H1006 C991 0.961 . S
H1007 C991 0.960 . S
C1008 C1009 1.391 . S
C1008 C1010 1.394 . S
C1008 H1024 0.931 . S
C1009 C1008 1.391 . S
C1009 C1013 1.376 . S
C1010 C1008 1.394 . S
C1010 C1011 1.369 . S
C1010 C1014 1.531 1_546 S
C1011 C1010 1.369 . S
C1011 C1012 1.410 . S
C1011 C1019 1.503 1_546 S
C1012 C1011 1.410 . S
C1012 C1013 1.392 . S
C1012 C1015 1.511 . S
C1013 C1009 1.376 . S
C1013 C1012 1.392 . S
C1013 H1025 0.929 . S
C1014 C1010 1.531 1_564 S
C1014 H1026 0.960 . S
C1014 H1027 0.962 1_554 S
C1014 H1028 0.965 1_565 S
C1015 C1012 1.511 . S
C1015 H1029 0.961 . S
C1015 H1030 0.961 . S
C1015 H1031 0.961 . S
C1016 C1017 1.370 . S
C1016 C1018 1.363 . S
C1016 H1032 0.931 . S
C1017 C1016 1.370 . S
C1017 C1021 1.408 . S
C1018 C1016 1.363 . S
C1018 C1019 1.370 . S
C1018 C1022 1.524 1_554 S
C1019 C1011 1.503 1_564 S
C1019 C1018 1.370 . S
C1019 C1020 1.403 1_565 S
C1020 C1019 1.403 1_545 S
C1020 C1021 1.404 1_545 S
C1020 C1023 1.539 . S
C1021 C1017 1.408 . S
C1021 C1020 1.404 1_565 S
C1021 H1033 0.918 1_565 S
C1022 C1018 1.524 1_556 S
C1022 H1034 0.956 . S
C1022 H1035 0.961 . S
C1022 H1036 0.961 . S
C1023 C1020 1.539 . S
C1023 H1037 0.958 . S
C1023 H1038 0.961 . S
C1023 H1039 0.960 . S
H1024 C1008 0.931 . S
H1025 C1013 0.929 . S
H1026 C1014 0.960 . S
H1027 C1014 0.962 1_556 S
H1028 C1014 0.965 1_545 S
H1029 C1015 0.961 . S
H1030 C1015 0.961 . S
H1031 C1015 0.961 . S
H1032 C1016 0.931 . S
H1033 C1021 0.918 1_545 S
H1034 C1022 0.956 . S
H1035 C1022 0.961 . S
H1036 C1022 0.961 . S
H1037 C1023 0.958 . S
H1038 C1023 0.961 . S
H1039 C1023 0.960 . S
C1040 C1041 1.391 . S
C1040 C1042 1.394 1_545 S
C1040 H1056 0.931 . S
C1041 C1040 1.391 . S
C1041 C1045 1.376 . S
C1042 C1040 1.394 1_565 S
C1042 C1043 1.369 1_565 S
C1042 C1046 1.531 . S
C1043 C1042 1.369 1_545 S
C1043 C1044 1.410 . S
C1043 C1051 1.503 1_545 S
C1044 C1043 1.410 . S
C1044 C1045 1.392 . S
C1044 C1047 1.511 . S
C1045 C1041 1.376 . S
C1045 C1044 1.392 . S
C1045 H1057 0.929 . S
C1046 C1042 1.531 . S
C1046 H1058 0.960 . S
C1046 H1059 0.962 . S
C1046 H1060 0.960 . S
C1047 C1044 1.511 . S
C1047 H1061 0.961 . S
C1047 H1062 0.961 . S
C1047 H1063 0.961 . S
C1048 C1049 1.370 . S
C1048 C1050 1.363 . S
C1048 H1064 0.931 . S
C1049 C1048 1.370 . S
C1049 C1053 1.408 . S
C1050 C1048 1.363 . S
C1050 C1051 1.370 . S
C1050 C1054 1.524 1_565 S
C1051 C1043 1.503 1_565 S
C1051 C1050 1.370 . S
C1051 C1052 1.403 . S
C1052 C1051 1.403 . S
C1052 C1053 1.404 . S
C1052 C1055 1.539 . S
C1053 C1049 1.408 . S
C1053 C1052 1.404 . S
C1053 H1065 0.930 . S
C1054 C1050 1.524 1_545 S
C1054 H1066 0.956 . S
C1054 H1067 0.961 . S
C1054 H1068 0.961 . S
C1055 C1052 1.539 . S
C1055 H1069 0.958 . S
C1055 H1070 0.961 . S
C1055 H1071 0.960 . S
H1056 C1040 0.931 . S
H1057 C1045 0.929 . S
H1058 C1046 0.960 . S
H1059 C1046 0.962 . S
H1060 C1046 0.960 . S
H1061 C1047 0.961 . S
H1062 C1047 0.961 . S
H1063 C1047 0.961 . S
H1064 C1048 0.931 . S
H1065 C1053 0.930 . S
H1066 C1054 0.956 . S
H1067 C1054 0.961 . S
H1068 C1054 0.961 . S
H1069 C1055 0.958 . S
H1070 C1055 0.961 . S
H1071 C1055 0.960 . S
C1072 C1073 1.391 . S
C1072 C1074 1.394 . S
C1072 H1088 0.931 . S
C1073 C1072 1.391 . S
C1073 C1077 1.376 1_455 S
C1074 C1072 1.394 . S
C1074 C1075 1.369 . S
C1074 C1078 1.531 . S
C1075 C1074 1.369 . S
C1075 C1076 1.410 1_455 S
C1075 C1083 1.503 1_465 S
C1076 C1075 1.410 1_655 S
C1076 C1077 1.392 . S
C1076 C1079 1.511 . S
C1077 C1073 1.376 1_655 S
C1077 C1076 1.392 . S
C1077 H1089 0.929 . S
C1078 C1074 1.531 . S
C1078 H1090 0.960 . S
C1078 H1091 0.962 1_565 S
C1078 H1092 0.960 . S
C1079 C1076 1.511 . S
C1079 H1093 0.961 . S
C1079 H1094 0.961 1_565 S
C1079 H1095 0.961 . S
C1080 C1081 1.370 . S
C1080 C1082 1.363 . S
C1080 H1096 0.931 . S
C1081 C1080 1.370 . S
C1081 C1085 1.408 . S
C1082 C1080 1.363 . S
C1082 C1083 1.370 . S
C1082 C1086 1.524 1_655 S
C1083 C1075 1.503 1_645 S
C1083 C1082 1.370 . S
C1083 C1084 1.403 1_545 S
C1084 C1083 1.403 1_565 S
C1084 C1085 1.404 1_565 S
C1084 C1087 1.539 . S
C1085 C1081 1.408 . S
C1085 C1084 1.404 1_545 S
C1085 H1097 0.930 1_545 S
C1086 C1082 1.524 1_455 S
C1086 H1098 0.956 . S
C1086 H1099 0.961 1_455 S
C1086 H1100 0.961 . S
C1087 C1084 1.539 . S
C1087 H1101 0.958 . S
C1087 H1102 0.961 . S
C1087 H1103 0.960 . S
H1088 C1072 0.931 . S
H1089 C1077 0.929 . S
H1090 C1078 0.960 . S
H1091 C1078 0.962 1_545 S
H1092 C1078 0.960 . S
H1093 C1079 0.961 . S
H1094 C1079 0.961 1_545 S
H1095 C1079 0.961 . S
H1096 C1080 0.931 . S
H1097 C1085 0.930 1_565 S
H1098 C1086 0.956 . S
H1099 C1086 0.961 1_655 S
H1100 C1086 0.961 . S
H1101 C1087 0.958 . S
H1102 C1087 0.961 . S
H1103 C1087 0.960 . S
C1104 C1105 1.391 . S
C1104 C1106 1.394 . S
C1104 H1120 0.931 . S
C1105 C1104 1.391 . S
C1105 C1109 1.376 . S
C1106 C1104 1.394 . S
C1106 C1107 1.369 . S
C1106 C1110 1.531 . S
C1107 C1106 1.369 . S
C1107 C1108 1.410 . S
C1107 C1115 1.503 1_554 S
C1108 C1107 1.410 . S
C1108 C1109 1.392 . S
C1108 C1111 1.511 . S
C1109 C1105 1.376 . S
C1109 C1108 1.392 . S
C1109 H1121 0.929 . S
C1110 C1106 1.531 . S
C1110 H1122 0.960 1_554 S
C1110 H1123 0.962 . S
C1110 H1124 0.960 . S
C1111 C1108 1.511 . S
C1111 H1125 0.961 . S
C1111 H1126 0.950 1_554 S
C1111 H1127 0.961 1_554 S
C1112 C1113 1.370 . S
C1112 C1114 1.363 . S
C1112 H1128 0.931 . S
C1113 C1112 1.370 . S
C1113 C1117 1.408 . S
C1114 C1112 1.363 . S
C1114 C1115 1.370 . S
C1114 C1118 1.524 1_556 S
C1115 C1107 1.503 1_556 S
C1115 C1114 1.370 . S
C1115 C1116 1.403 . S
C1116 C1115 1.403 . S
C1116 C1117 1.404 . S
C1116 C1119 1.539 . S
C1117 C1113 1.408 . S
C1117 C1116 1.404 . S
C1117 H1129 0.930 . S
C1118 C1114 1.524 1_554 S
C1118 H1130 0.956 . S
C1118 H1131 0.961 . S
C1118 H1132 0.961 . S
C1119 C1116 1.539 . S
C1119 H1133 0.958 . S
C1119 H1134 0.961 . S
C1119 H1135 0.960 . S
H1120 C1104 0.931 . S
H1121 C1109 0.929 . S
H1122 C1110 0.960 1_556 S
H1123 C1110 0.962 . S
H1124 C1110 0.960 . S
H1125 C1111 0.961 . S
H1126 C1111 0.950 1_556 S
H1127 C1111 0.961 1_556 S
H1128 C1112 0.931 . S
H1129 C1117 0.930 . S
H1130 C1118 0.956 . S
H1131 C1118 0.961 . S
H1132 C1118 0.961 . S
H1133 C1119 0.958 . S
H1134 C1119 0.961 . S
H1135 C1119 0.960 . S
C1136 C1137 1.391 . S
C1136 C1138 1.394 1_655 S
C1136 H1152 0.930 . S
C1137 C1136 1.391 . S
C1137 C1141 1.376 . S
C1138 C1136 1.394 1_455 S
C1138 C1139 1.369 . S
C1138 C1142 1.531 . S
C1139 C1138 1.369 . S
C1139 C1140 1.410 1_455 S
C1139 C1147 1.503 1_554 S
C1140 C1139 1.410 1_655 S
C1140 C1141 1.392 . S
C1140 C1143 1.511 1_554 S
C1141 C1137 1.376 . S
C1141 C1140 1.392 . S
C1141 H1153 0.929 . S
C1142 C1138 1.531 . S
C1142 H1154 0.960 . S
C1142 H1155 0.962 . S
C1142 H1156 0.960 . S
C1143 C1140 1.511 1_556 S
C1143 H1157 0.961 . S
C1143 H1158 0.961 . S
C1143 H1159 0.961 . S
C1144 C1145 1.370 1_655 S
C1144 C1146 1.363 . S
C1144 H1160 0.931 . S
C1145 C1144 1.370 1_455 S
C1145 C1149 1.408 . S
C1146 C1144 1.363 . S
C1146 C1147 1.370 1_655 S
C1146 C1150 1.524 . S
C1147 C1139 1.503 1_556 S
C1147 C1146 1.370 1_455 S
C1147 C1148 1.403 . S
C1148 C1147 1.403 . S
C1148 C1149 1.404 . S
C1148 C1151 1.539 . S
C1149 C1145 1.408 . S
C1149 C1148 1.404 . S
C1149 H1161 0.930 . S
C1150 C1146 1.524 . S
C1150 H1162 0.956 1_556 S
C1150 H1163 0.961 . S
C1150 H1164 0.961 . S
C1151 C1148 1.539 . S
C1151 H1165 0.958 . S
C1151 H1166 0.961 . S
C1151 H1167 0.960 . S
H1152 C1136 0.930 . S
H1153 C1141 0.929 . S
H1154 C1142 0.960 . S
H1155 C1142 0.962 . S
H1156 C1142 0.960 . S
H1157 C1143 0.961 . S
H1158 C1143 0.961 . S
H1159 C1143 0.961 . S
H1160 C1144 0.931 . S
H1161 C1149 0.930 . S
H1162 C1150 0.956 1_554 S
H1163 C1150 0.961 . S
H1164 C1150 0.961 . S
H1165 C1151 0.958 . S
H1166 C1151 0.961 . S
H1167 C1151 0.960 . S
C1168 C1169 1.391 . S
C1168 C1170 1.394 . S
C1168 H1184 0.931 . S
C1169 C1168 1.391 . S
C1169 C1173 1.376 . S
C1170 C1168 1.394 . S
C1170 C1171 1.369 1_655 S
C1170 C1174 1.531 . S
C1171 C1170 1.369 1_455 S
C1171 C1172 1.410 . S
C1171 C1179 1.503 . S
C1172 C1171 1.410 . S
C1172 C1173 1.392 1_455 S
C1172 C1175 1.511 . S
C1173 C1169 1.376 . S
C1173 C1172 1.392 1_655 S
C1173 H1185 0.929 . S
C1174 C1170 1.531 . S
C1174 H1186 0.960 1_655 S
C1174 H1187 0.962 . S
C1174 H1188 0.960 . S
C1175 C1172 1.511 . S
C1175 H1189 0.961 . S
C1175 H1190 0.961 . S
C1175 H1191 0.961 . S
C1176 C1177 1.370 1_655 S
C1176 C1178 1.363 . S
C1176 H1192 0.931 . S
C1177 C1176 1.370 1_455 S
C1177 C1181 1.408 . S
C1178 C1176 1.363 . S
C1178 C1179 1.370 1_655 S
C1178 C1182 1.524 . S
C1179 C1171 1.503 . S
C1179 C1178 1.370 1_455 S
C1179 C1180 1.403 . S
C1180 C1179 1.403 . S
C1180 C1181 1.404 . S
C1180 C1183 1.539 . S
C1181 C1177 1.408 . S
C1181 C1180 1.404 . S
C1181 H1193 0.930 . S
C1182 C1178 1.524 . S
C1182 H1194 0.956 . S
C1182 H1195 0.961 . S
C1182 H1196 0.961 . S
C1183 C1180 1.539 . S
C1183 H1197 0.958 . S
C1183 H1198 0.961 . S
C1183 H1199 0.960 . S
H1184 C1168 0.931 . S
H1185 C1173 0.929 . S
H1186 C1174 0.960 1_455 S
H1187 C1174 0.962 . S
H1188 C1174 0.960 . S
H1189 C1175 0.961 . S
H1190 C1175 0.961 . S
H1191 C1175 0.961 . S
H1192 C1176 0.931 . S
H1193 C1181 0.930 . S
H1194 C1182 0.956 . S
H1195 C1182 0.961 . S
H1196 C1182 0.961 . S
H1197 C1183 0.958 . S
H1198 C1183 0.961 . S
H1199 C1183 0.960 . S
C1200 C1201 1.391 . S
C1200 C1202 1.394 . S
C1200 H1216 0.931 . S
C1201 C1200 1.391 . S
C1201 C1205 1.376 . S
C1202 C1200 1.394 . S
C1202 C1203 1.369 . S
C1202 C1206 1.531 . S
C1203 C1202 1.369 . S
C1203 C1204 1.410 . S
C1203 C1211 1.503 . S
C1204 C1203 1.410 . S
C1204 C1205 1.392 . S
C1204 C1207 1.511 . S
C1205 C1201 1.376 . S
C1205 C1204 1.392 . S
C1205 H1217 0.929 . S
C1206 C1202 1.531 . S
C1206 H1218 0.960 . S
C1206 H1219 0.962 . S
C1206 H1220 0.960 . S
C1207 C1204 1.511 . S
C1207 H1221 0.961 . S
C1207 H1222 0.961 . S
C1207 H1223 0.961 . S
C1208 C1209 1.370 . S
C1208 C1210 1.363 . S
C1208 H1224 0.931 . S
C1209 C1208 1.370 . S
C1209 C1213 1.408 . S
C1210 C1208 1.363 . S
C1210 C1211 1.370 . S
C1210 C1214 1.524 . S
C1211 C1203 1.503 . S
C1211 C1210 1.370 . S
C1211 C1212 1.403 . S
C1212 C1211 1.403 . S
C1212 C1213 1.404 . S
C1212 C1215 1.539 . S
C1213 C1209 1.408 . S
C1213 C1212 1.404 . S
C1213 H1225 0.930 . S
C1214 C1210 1.524 . S
C1214 H1226 0.956 . S
C1214 H1227 0.961 . S
C1214 H1228 0.961 . S
C1215 C1212 1.539 . S
C1215 H1229 0.958 . S
C1215 H1230 0.961 . S
C1215 H1231 0.960 . S
H1216 C1200 0.931 . S
H1217 C1205 0.929 . S
H1218 C1206 0.960 . S
H1219 C1206 0.962 . S
H1220 C1206 0.960 . S
H1221 C1207 0.961 . S
H1222 C1207 0.961 . S
H1223 C1207 0.961 . S
H1224 C1208 0.931 . S
H1225 C1213 0.930 . S
H1226 C1214 0.956 . S
H1227 C1214 0.961 . S
H1228 C1214 0.961 . S
H1229 C1215 0.958 . S
H1230 C1215 0.961 . S
H1231 C1215 0.960 . S
C209 C23 1.503 . S
C217 C10 1.506 . S
C241 C30 1.502 . S
C249 C43 1.506 . S
C273 C56 1.503 . S
C281 C75 1.506 . S
C305 C95 1.502 . S
C313 C82 1.506 . S
C337 C127 1.503 . S
C345 C114 1.506 . S
C369 C147 1.502 . S
C377 C134 1.506 . S
C401 C179 1.503 . S
C409 C166 1.506 . S
C433 C199 1.502 . S
C441 C186 1.506 . S
C465 C42 1.517 . S
C473 C5 1.520 . S
C497 C18 1.516 . S
C505 C29 1.520 . S
C529 C94 1.514 . S
C537 C55 1.520 . S
C561 C81 1.516 . S
C569 C70 1.520 . S
C593 C109 1.518 . S
C601 C146 1.522 . S
C625 C133 1.519 . S
C633 C122 1.520 . S
C657 C198 1.520 . S
C665 C161 1.520 . S
C689 C174 1.520 . S
C697 C185 1.521 . S
C721 C3 1.452 . S
C729 C120 1.455 . S
C753 C16 1.450 . S
C761 C107 1.452 . S
C785 C148 1.446 . S
C793 C31 1.453 . S
C817 C135 1.453 . S
C825 C44 1.456 . S
C849 C172 1.446 . S
C857 C57 1.452 . S
C881 C159 1.445 . S
C889 C68 1.453 . S
C913 C83 1.450 . S
C921 C200 1.456 . S
C945 C96 1.455 . S
C953 C187 1.454 . S
C977 C62 1.522 . S
C985 C4 1.532 . S
C1009 C69 1.530 . S
C1017 C17 1.529 . S
C1041 C88 1.524 . S
C1049 C36 1.531 . S
C1073 C101 1.531 . S
C1081 C49 1.529 . S
C1105 C108 1.530 . S
C1113 C160 1.529 . S
C1137 C121 1.529 . S
C1145 C173 1.529 . S
C1169 C192 1.528 . S
C1177 C140 1.530 . S
C1201 C205 1.529 . S
C1209 C153 1.530 . S
