# Generated by pormake.
# Topology npo, (4)-cn, num edge types: 1
# Building blocks:
#     Node 0, Type 0, BuildingBlock: UXUYUI_clean_sbu_0, # of connection points: 4
#     Node 1, Type 0, BuildingBlock: UXUYUI_clean_sbu_0, # of connection points: 4
#     Node 2, Type 0, BuildingBlock: UXUYUI_clean_sbu_0, # of connection points: 4
#     Node 3, Type 0, BuildingBlock: UXUYUI_clean_sbu_0, # of connection points: 4
#     Node 4, Type 0, BuildingBlock: UXUYUI_clean_sbu_0, # of connection points: 4
#     Node 5, Type 0, BuildingBlock: UXUYUI_clean_sbu_0, # of connection points: 4
#     Edge 6, Type (0, 0), BuildingBlock: ZUJKAS_clean_linker_0, # of connection points: 2
#     Edge 7, Type (0, 0), BuildingBlock: ZUJKAS_clean_linker_0, # of connection points: 2
#     Edge 8, Type (0, 0), BuildingBlock: ZUJKAS_clean_linker_0, # of connection points: 2
#     Edge 9, Type (0, 0), BuildingBlock: ZUJKAS_clean_linker_0, # of connection points: 2
#     Edge 10, Type (0, 0), BuildingBlock: ZUJKAS_clean_linker_0, # of connection points: 2
#     Edge 11, Type (0, 0), BuildingBlock: ZUJKAS_clean_linker_0, # of connection points: 2
#     Edge 12, Type (0, 0), BuildingBlock: ZUJKAS_clean_linker_0, # of connection points: 2
#     Edge 13, Type (0, 0), BuildingBlock: ZUJKAS_clean_linker_0, # of connection points: 2
#     Edge 14, Type (0, 0), BuildingBlock: ZUJKAS_clean_linker_0, # of connection points: 2
#     Edge 15, Type (0, 0), BuildingBlock: ZUJKAS_clean_linker_0, # of connection points: 2
#     Edge 16, Type (0, 0), BuildingBlock: ZUJKAS_clean_linker_0, # of connection points: 2
#     Edge 17, Type (0, 0), BuildingBlock: ZUJKAS_clean_linker_0, # of connection points: 2
# Relax obj value: 0.320
# Max RMSD: 0.247
# Mean RMSD: 0.247
data_MOF--net-npo--node1-UXUYUI_clean_sbu_0--edge1-ZUJKAS_clean_linker_0
_symmetry_space_group_name_H-M    P1
_symmetry_Int_Tables_number       1
_symmetry_cell_setting            triclinic
loop_
_symmetry_equiv_pos_as_xyz
'x, y, z'
_cell_length_a     73.140199
_cell_length_b     73.202796
_cell_length_c     45.663514
_cell_angle_alpha  89.963106
_cell_angle_beta   90.016365
_cell_angle_gamma 120.05083
loop_
_atom_site_label
_atom_site_type_symbol
_atom_site_fract_x
_atom_site_fract_y
_atom_site_fract_z
_atom_type_partial_charge
Li0 Li 0.54246 0.11281 0.23775 0.0
Li1 Li 0.57554 0.11203 0.23832 0.0
Li2 Li 0.54342 0.08321 0.21762 0.0
Li3 Li 0.54729 0.08913 0.27 0.0
C4 C 0.56035 0.1285 0.18725 0.0
N5 N 0.56172 0.16133 0.15553 0.0
C6 C 0.57883 0.14819 0.18661 0.0
C7 C 0.5426 0.12548 0.17163 0.0
C8 C 0.5792 0.16459 0.17044 0.0
C9 C 0.54359 0.14229 0.15579 0.0
C10 C 0.56271 0.12457 0.29889 0.0
C11 C 0.57519 0.12623 0.34827 0.0
N12 N 0.56036 0.13075 0.35815 0.0
C13 C 0.54763 0.12928 0.30952 0.0
C14 C 0.57667 0.1231 0.31839 0.0
C15 C 0.54669 0.13235 0.33956 0.0
C16 C 0.50969 0.12285 0.2332 0.0
N17 N 0.5309 0.13081 0.23519 0.0
C18 C 0.53713 0.16605 0.23485 0.0
C19 C 0.5446 0.15192 0.23631 0.0
C20 C 0.51531 0.15834 0.23264 0.0
C21 C 0.50149 0.13643 0.23191 0.0
H22 H 0.49916 0.10597 0.23289 0.0
H23 H 0.56135 0.15774 0.23854 0.0
C24 C 0.61458 0.12667 0.20929 0.0
N25 N 0.60521 0.12885 0.23371 0.0
C26 C 0.63627 0.13966 0.20497 0.0
C27 C 0.63815 0.15691 0.25094 0.0
C28 C 0.61648 0.14355 0.25439 0.0
C29 C 0.64832 0.15518 0.22586 0.0
H30 H 0.60512 0.11504 0.19297 0.0
H31 H 0.60855 0.14529 0.27321 0.0
C32 C 0.50466 0.06517 0.23723 0.0
N33 N 0.46945 0.02848 0.21875 0.0
C34 C 0.49767 0.04643 0.25294 0.0
C35 C 0.49369 0.06527 0.21221 0.0
C36 C 0.47982 0.02805 0.24324 0.0
C37 C 0.47596 0.04654 0.20318 0.0
C38 C 0.58113 0.07937 0.23978 0.0
C39 C 0.58359 0.07107 0.21348 0.0
C40 C 0.59701 0.0865 0.26102 0.0
C41 C 0.60198 0.07013 0.20883 0.0
C42 C 0.61518 0.08533 0.2555 0.0
N43 N 0.61726 0.07723 0.22974 0.0
C44 C 0.53229 0.06918 0.16005 0.0
C45 C 0.52481 0.04187 0.19416 0.0
C46 C 0.52366 0.0546 0.13739 0.0
N47 N 0.53245 0.06259 0.18778 0.0
C48 C 0.516 0.02668 0.17209 0.0
C49 C 0.5152 0.03303 0.14331 0.0
H50 H 0.53888 0.08577 0.15552 0.0
H51 H 0.5254 0.03716 0.21644 0.0
C52 C 0.5236 0.0763 0.32142 0.0
N53 N 0.54014 0.07659 0.30747 0.0
C54 C 0.51866 0.0689 0.35009 0.0
C55 C 0.54761 0.06181 0.34917 0.0
C56 C 0.55195 0.0693 0.32047 0.0
C57 C 0.53089 0.06173 0.36444 0.0
H58 H 0.5145 0.08219 0.31038 0.0
H59 H 0.56498 0.06972 0.30879 0.0
O60 O 0.55954 0.11233 0.20336 0.0
O61 O 0.56351 0.12093 0.26965 0.0
O62 O 0.52232 0.08325 0.24607 0.0
O63 O 0.56334 0.08066 0.24461 0.0
H64 H 0.59268 0.1509 0.19866 0.0
H65 H 0.52808 0.11043 0.17214 0.0
H66 H 0.59336 0.17993 0.16985 0.0
H67 H 0.52992 0.14022 0.1438 0.0
H68 H 0.58576 0.12495 0.36363 0.0
H69 H 0.53657 0.1303 0.29484 0.0
H70 H 0.58825 0.11918 0.3106 0.0
H71 H 0.53503 0.1359 0.34811 0.0
H72 H 0.54828 0.18282 0.23611 0.0
H73 H 0.48457 0.1299 0.23025 0.0
H74 H 0.64347 0.13774 0.18538 0.0
H75 H 0.64668 0.16898 0.26725 0.0
H76 H 0.50604 0.04602 0.27222 0.0
H77 H 0.49902 0.07958 0.19961 0.0
H78 H 0.47427 0.01341 0.25511 0.0
H79 H 0.46742 0.04636 0.18372 0.0
H80 H 0.57154 0.06558 0.19673 0.0
H81 H 0.59552 0.09326 0.28131 0.0
H82 H 0.60412 0.06381 0.18855 0.0
H83 H 0.62766 0.09095 0.27165 0.0
H84 H 0.52384 0.06021 0.11537 0.0
H85 H 0.50963 0.01019 0.17754 0.0
H86 H 0.50542 0.06878 0.36087 0.0
H87 H 0.55756 0.05661 0.35949 0.0
Li88 Li 0.45323 0.54768 0.77577 0.0
Li89 Li 0.45421 0.57742 0.75087 0.0
Li90 Li 0.42182 0.54299 0.75304 0.0
Li91 Li 0.45156 0.54865 0.72283 0.0
C92 C 0.44049 0.56505 0.8149 0.0
N93 N 0.44882 0.57041 0.87427 0.0
C94 C 0.4556 0.58474 0.82586 0.0
C95 C 0.42952 0.54813 0.83415 0.0
C96 C 0.45958 0.58712 0.85595 0.0
C97 C 0.43401 0.55114 0.86408 0.0
C98 C 0.49196 0.56907 0.73498 0.0
C99 C 0.51679 0.58121 0.69491 0.0
N100 N 0.52516 0.56958 0.70538 0.0
C101 C 0.50084 0.55728 0.74539 0.0
C102 C 0.50004 0.5812 0.70959 0.0
C103 C 0.51762 0.55775 0.73011 0.0
C104 C 0.45499 0.52014 0.81754 0.0
N105 N 0.46439 0.54043 0.80805 0.0
C106 C 0.48876 0.552 0.84785 0.0
C107 C 0.48123 0.55622 0.82219 0.0
C108 C 0.47886 0.53132 0.85886 0.0
C109 C 0.46199 0.5152 0.84312 0.0
H110 H 0.44182 0.50789 0.80558 0.0
H111 H 0.48838 0.5722 0.81395 0.0
C112 C 0.45174 0.6141 0.75791 0.0
N113 N 0.46522 0.60695 0.75169 0.0
C114 C 0.45858 0.63557 0.75597 0.0
C115 C 0.49344 0.64205 0.7432 0.0
C116 C 0.48583 0.62038 0.74505 0.0
C117 C 0.47959 0.64976 0.74808 0.0
H118 H 0.43552 0.60303 0.76364 0.0
H119 H 0.49626 0.61425 0.74066 0.0
C120 C 0.4169 0.50548 0.74546 0.0
N121 N 0.38003 0.46753 0.73698 0.0
C122 C 0.41134 0.49674 0.71742 0.0
C123 C 0.40375 0.49487 0.7692 0.0
C124 C 0.39263 0.47753 0.71359 0.0
C125 C 0.38515 0.47573 0.76445 0.0
C126 C 0.4313 0.57718 0.70636 0.0
C127 C 0.41305 0.57815 0.71224 0.0
C128 C 0.44712 0.59263 0.6887 0.0
C129 C 0.41097 0.59464 0.70045 0.0
C130 C 0.44447 0.6089 0.67741 0.0
N131 N 0.4266 0.60955 0.68346 0.0
C132 C 0.38182 0.52813 0.7797 0.0
C133 C 0.38113 0.5206 0.72908 0.0
C134 C 0.35984 0.5184 0.78031 0.0
N135 N 0.39193 0.52909 0.75431 0.0
C136 C 0.35915 0.51072 0.72868 0.0
C137 C 0.34823 0.50974 0.75448 0.0
H138 H 0.39083 0.53517 0.79936 0.0
H139 H 0.38967 0.52184 0.70916 0.0
C140 C 0.46767 0.52815 0.68817 0.0
N141 N 0.45913 0.5409 0.68744 0.0
C142 C 0.47342 0.52234 0.6622 0.0
C143 C 0.46097 0.5425 0.63531 0.0
C144 C 0.45554 0.54796 0.66179 0.0
C145 C 0.47008 0.52957 0.63531 0.0
H146 H 0.47002 0.52254 0.70895 0.0
H147 H 0.44826 0.55765 0.66186 0.0
O148 O 0.43671 0.56229 0.78543 0.0
O149 O 0.4753 0.56855 0.74936 0.0
O150 O 0.43494 0.52448 0.74958 0.0
O151 O 0.43383 0.5614 0.71817 0.0
H152 H 0.46432 0.59798 0.81129 0.0
H153 H 0.41798 0.53271 0.82602 0.0
H154 H 0.4713 0.60224 0.86472 0.0
H155 H 0.4258 0.53813 0.87919 0.0
H156 H 0.52308 0.59039 0.67512 0.0
H157 H 0.49473 0.54769 0.76488 0.0
H158 H 0.49321 0.59025 0.70105 0.0
H159 H 0.52459 0.54863 0.73785 0.0
H160 H 0.50169 0.5649 0.85947 0.0
H161 H 0.45417 0.49899 0.85065 0.0
H162 H 0.44754 0.641 0.76036 0.0
H163 H 0.50975 0.65256 0.73709 0.0
H164 H 0.42122 0.50476 0.69875 0.0
H165 H 0.40762 0.50155 0.79098 0.0
H166 H 0.3881 0.47063 0.692 0.0
H167 H 0.37474 0.46745 0.78258 0.0
H168 H 0.40072 0.56646 0.72603 0.0
H169 H 0.46146 0.59228 0.6842 0.0
H170 H 0.39697 0.59563 0.70493 0.0
H171 H 0.45666 0.62105 0.66394 0.0
H172 H 0.35204 0.51786 0.80071 0.0
H173 H 0.35086 0.50459 0.70818 0.0
H174 H 0.48051 0.51244 0.66317 0.0
H175 H 0.4577 0.54802 0.61505 0.0
Li176 Li 0.87689 0.45227 0.23744 0.0
Li177 Li 0.90298 0.4496 0.26721 0.0
Li178 Li 0.90654 0.45295 0.21442 0.0
Li179 Li 0.87985 0.42039 0.23706 0.0
C180 C 0.92386 0.49152 0.23309 0.0
N181 N 0.95921 0.52683 0.21165 0.0
C182 C 0.94346 0.49882 0.24658 0.0
C183 C 0.92221 0.50222 0.20878 0.0
C184 C 0.96115 0.51671 0.23541 0.0
C185 C 0.94028 0.52002 0.19823 0.0
C186 C 0.86853 0.43251 0.29903 0.0
C187 C 0.86994 0.42098 0.34806 0.0
N188 N 0.86402 0.43456 0.35882 0.0
C189 C 0.86239 0.4463 0.31057 0.0
C190 C 0.87224 0.41966 0.3179 0.0
C191 C 0.8602 0.44711 0.34086 0.0
C192 C 0.83663 0.44755 0.2382 0.0
N193 N 0.85749 0.46221 0.2368 0.0
C194 C 0.84964 0.49016 0.2347 0.0
C195 C 0.86427 0.4832 0.23536 0.0
C196 C 0.82797 0.4753 0.2353 0.0
C197 C 0.8215 0.45377 0.23716 0.0
H198 H 0.83178 0.431 0.24 0.0
H199 H 0.88099 0.4945 0.23477 0.0
C200 C 0.92771 0.44852 0.31417 0.0
N201 N 0.91724 0.45802 0.30343 0.0
C202 C 0.9371 0.45401 0.34175 0.0
C203 C 0.92516 0.47931 0.34628 0.0
C204 C 0.91605 0.47335 0.31859 0.0
C205 C 0.93573 0.46947 0.35828 0.0
H206 H 0.92865 0.4366 0.30142 0.0
H207 H 0.90766 0.48066 0.30932 0.0
C208 C 0.85986 0.43337 0.18772 0.0
N209 N 0.82506 0.42957 0.15835 0.0
C210 C 0.84088 0.41411 0.18757 0.0
C211 C 0.86115 0.45068 0.1728 0.0
C212 C 0.82347 0.41251 0.17259 0.0
C213 C 0.84337 0.44845 0.15815 0.0
C214 C 0.9137 0.41694 0.23609 0.0
C215 C 0.92076 0.41396 0.20904 0.0
C216 C 0.90857 0.402 0.25831 0.0
C217 C 0.92251 0.39601 0.20464 0.0
C218 C 0.91049 0.38424 0.25303 0.0
N219 N 0.91736 0.38164 0.22654 0.0
C220 C 0.94662 0.47072 0.18716 0.0
C221 C 0.91807 0.46425 0.15593 0.0
C222 C 0.96062 0.47798 0.16354 0.0
N223 N 0.9258 0.46401 0.18286 0.0
C224 C 0.93148 0.47149 0.13181 0.0
C225 C 0.95302 0.47834 0.13542 0.0
H226 H 0.95224 0.47012 0.20885 0.0
H227 H 0.90142 0.45843 0.15307 0.0
C228 C 0.85091 0.37875 0.25468 0.0
N229 N 0.86434 0.39063 0.23302 0.0
C230 C 0.83827 0.35698 0.25123 0.0
C231 C 0.85376 0.36006 0.20341 0.0
C232 C 0.86604 0.3818 0.20775 0.0
C233 C 0.83941 0.34738 0.22517 0.0
H234 H 0.84956 0.38625 0.27426 0.0
H235 H 0.87663 0.39173 0.1907 0.0
O236 O 0.90645 0.47377 0.24328 0.0
O237 O 0.87124 0.43183 0.26949 0.0
O238 O 0.87701 0.43536 0.20262 0.0
O239 O 0.91159 0.43427 0.24069 0.0
H240 H 0.94505 0.49064 0.26529 0.0
H241 H 0.90719 0.49666 0.19791 0.0
H242 H 0.97644 0.52249 0.24555 0.0
H243 H 0.93927 0.52837 0.17931 0.0
H244 H 0.87294 0.41126 0.36292 0.0
H245 H 0.85957 0.45646 0.29635 0.0
H246 H 0.8772 0.40903 0.30938 0.0
H247 H 0.85556 0.45779 0.35009 0.0
H248 H 0.85517 0.50691 0.23336 0.0
H249 H 0.80492 0.44188 0.23822 0.0
H250 H 0.94546 0.44634 0.34997 0.0
H251 H 0.92359 0.49117 0.35836 0.0
H252 H 0.83949 0.40058 0.19911 0.0
H253 H 0.87559 0.4658 0.17302 0.0
H254 H 0.80867 0.39772 0.1724 0.0
H255 H 0.8441 0.46175 0.14674 0.0
H256 H 0.92463 0.42523 0.19149 0.0
H257 H 0.90282 0.4039 0.27925 0.0
H258 H 0.92787 0.39346 0.18378 0.0
H259 H 0.90643 0.37248 0.26997 0.0
H260 H 0.97715 0.48317 0.16717 0.0
H261 H 0.92493 0.47112 0.11039 0.0
H262 H 0.82711 0.34792 0.26832 0.0
H263 H 0.85522 0.35332 0.18305 0.0
Li264 Li 0.44729 0.91136 0.7184 0.0
Li265 Li 0.44529 0.90781 0.77126 0.0
Li266 Li 0.44913 0.88278 0.74063 0.0
Li267 Li 0.41607 0.88345 0.74214 0.0
C268 C 0.4867 0.93057 0.73584 0.0
N269 N 0.52113 0.96679 0.71446 0.0
C270 C 0.49417 0.94972 0.75064 0.0
C271 C 0.49679 0.92983 0.71024 0.0
C272 C 0.51161 0.96786 0.73948 0.0
C273 C 0.51414 0.94832 0.69975 0.0
C274 C 0.41001 0.9154 0.7404 0.0
C275 C 0.37632 0.91024 0.7565 0.0
N276 N 0.37275 0.91516 0.72917 0.0
C277 C 0.40601 0.92042 0.71247 0.0
C278 C 0.39507 0.91031 0.76264 0.0
C279 C 0.38709 0.92023 0.70724 0.0
C280 C 0.45612 0.92331 0.65947 0.0
N281 N 0.45706 0.93077 0.68696 0.0
C282 C 0.47303 0.96617 0.66924 0.0
C283 C 0.46495 0.95167 0.69222 0.0
C284 C 0.4728 0.95896 0.64067 0.0
C285 C 0.46398 0.9372 0.63589 0.0
H286 H 0.44926 0.90658 0.65585 0.0
H287 H 0.46518 0.95707 0.71433 0.0
C288 C 0.47015 0.92204 0.82145 0.0
N289 N 0.45361 0.92185 0.80763 0.0
C290 C 0.47517 0.92936 0.85013 0.0
C291 C 0.44659 0.937 0.84926 0.0
C292 C 0.44216 0.92957 0.82055 0.0
C293 C 0.46303 0.93657 0.86459 0.0
H294 H 0.47895 0.91578 0.81049 0.0
H295 H 0.42913 0.92923 0.80897 0.0
C296 C 0.43011 0.8651 0.69182 0.0
N297 N 0.42898 0.83145 0.66269 0.0
C298 C 0.41231 0.84496 0.69391 0.0
C299 C 0.44733 0.86811 0.67486 0.0
C300 C 0.41203 0.82817 0.67899 0.0
C301 C 0.44646 0.85089 0.66035 0.0
C302 C 0.43151 0.87357 0.80311 0.0
C303 C 0.44665 0.86858 0.81269 0.0
C304 C 0.41909 0.87656 0.8237 0.0
C305 C 0.44911 0.86669 0.84269 0.0
C306 C 0.42208 0.87459 0.8535 0.0
N307 N 0.4369 0.86973 0.8623 0.0
C308 C 0.48176 0.87276 0.73336 0.0
C309 C 0.44745 0.84387 0.74236 0.0
C310 C 0.48997 0.85921 0.73139 0.0
N311 N 0.46082 0.86486 0.73847 0.0
C312 C 0.45493 0.82977 0.74048 0.0
C313 C 0.47643 0.83738 0.73476 0.0
H314 H 0.49207 0.88956 0.73079 0.0
H315 H 0.43094 0.83813 0.74694 0.0
C316 C 0.37687 0.86494 0.71295 0.0
N317 N 0.38622 0.86675 0.73936 0.0
C318 C 0.35502 0.85222 0.71 0.0
C319 C 0.35284 0.84416 0.7617 0.0
C320 C 0.37473 0.85673 0.76353 0.0
C321 C 0.34279 0.84161 0.7346 0.0
H322 H 0.38646 0.8731 0.6941 0.0
H323 H 0.38257 0.85823 0.78412 0.0
O324 O 0.46943 0.91271 0.74614 0.0
O325 O 0.4282 0.91498 0.74577 0.0
O326 O 0.43087 0.88168 0.70675 0.0
O327 O 0.42919 0.87598 0.77383 0.0
H328 H 0.48648 0.95063 0.77034 0.0
H329 H 0.49106 0.9152 0.6983 0.0
H330 H 0.51751 0.9828 0.75064 0.0
H331 H 0.52199 0.94801 0.67984 0.0
H332 H 0.36455 0.90614 0.77343 0.0
H333 H 0.41726 0.92422 0.69491 0.0
H334 H 0.39768 0.90595 0.78422 0.0
H335 H 0.38376 0.92401 0.6857 0.0
H336 H 0.47972 0.98283 0.67384 0.0
H337 H 0.46302 0.93093 0.6141 0.0
H338 H 0.48821 0.92911 0.86096 0.0
H339 H 0.43674 0.94228 0.85965 0.0
H340 H 0.39895 0.84222 0.70721 0.0
H341 H 0.46138 0.88349 0.67335 0.0
H342 H 0.3984 0.81249 0.68052 0.0
H343 H 0.45973 0.85298 0.64735 0.0
H344 H 0.45661 0.86647 0.79724 0.0
H345 H 0.40768 0.88098 0.81684 0.0
H346 H 0.46083 0.86292 0.85038 0.0
H347 H 0.41274 0.8771 0.86965 0.0
H348 H 0.50663 0.86568 0.72692 0.0
H349 H 0.44403 0.8131 0.74384 0.0
H350 H 0.34776 0.85055 0.68874 0.0
H351 H 0.34395 0.83589 0.78103 0.0
Li352 Li 0.53128 0.44189 0.27576 0.0
Li353 Li 0.52546 0.41199 0.24594 0.0
Li354 Li 0.56055 0.44347 0.2503 0.0
Li355 Li 0.53247 0.44413 0.22281 0.0
C356 C 0.55765 0.41962 0.29478 0.0
N357 N 0.58818 0.41289 0.31982 0.0
C358 C 0.55765 0.40082 0.2895 0.0
C359 C 0.57311 0.43495 0.31295 0.0
C360 C 0.57323 0.39772 0.30236 0.0
C361 C 0.58844 0.43128 0.32533 0.0
C362 C 0.48817 0.40904 0.24985 0.0
C363 C 0.45844 0.37833 0.22871 0.0
N364 N 0.44837 0.37396 0.255 0.0
C365 C 0.4775 0.40428 0.27664 0.0
C366 C 0.47854 0.39602 0.22564 0.0
C367 C 0.45739 0.38647 0.27879 0.0
C368 C 0.51155 0.4598 0.30871 0.0
N369 N 0.52298 0.44984 0.31034 0.0
C370 C 0.52355 0.4516 0.36247 0.0
C371 C 0.52882 0.44546 0.33645 0.0
C372 C 0.51215 0.46233 0.3615 0.0
C373 C 0.50606 0.46639 0.33421 0.0
H374 H 0.50682 0.46271 0.28757 0.0
H375 H 0.53764 0.43726 0.33706 0.0
C376 C 0.51483 0.37291 0.22066 0.0
N377 N 0.51115 0.38216 0.2439 0.0
C378 C 0.50635 0.3511 0.22 0.0
C379 C 0.48988 0.34868 0.26686 0.0
C380 C 0.49889 0.37059 0.26674 0.0
C381 C 0.49394 0.33868 0.24355 0.0
H382 H 0.52508 0.38254 0.20317 0.0
H383 H 0.49663 0.37844 0.28525 0.0
C384 C 0.55398 0.48242 0.26457 0.0
N385 N 0.55568 0.51632 0.29364 0.0
C386 C 0.54337 0.49232 0.25332 0.0
C387 C 0.56556 0.48984 0.29051 0.0
C388 C 0.54442 0.50944 0.26835 0.0
C389 C 0.56617 0.50696 0.30493 0.0
C390 C 0.54983 0.43012 0.18563 0.0
C391 C 0.56975 0.44531 0.17543 0.0
C392 C 0.5335 0.41878 0.16565 0.0
C393 C 0.57296 0.44903 0.14534 0.0
C394 C 0.53734 0.423 0.13575 0.0
N395 N 0.55682 0.43791 0.1263 0.0
C396 C 0.59635 0.43935 0.24389 0.0
C397 C 0.60395 0.47399 0.25577 0.0
C398 C 0.61781 0.44594 0.2429 0.0
N399 N 0.5899 0.45333 0.25044 0.0
C400 C 0.62561 0.48132 0.25483 0.0
C401 C 0.63279 0.46722 0.24822 0.0
H402 H 0.58477 0.42308 0.2393 0.0
H403 H 0.59835 0.48484 0.2603 0.0
C404 C 0.5081 0.44722 0.17698 0.0
N405 N 0.52755 0.45619 0.18943 0.0
C406 C 0.5052 0.45513 0.15068 0.0
C407 C 0.54226 0.48177 0.15122 0.0
C408 C 0.54443 0.47334 0.17747 0.0
C409 C 0.5225 0.47244 0.1373 0.0
H410 H 0.49496 0.4337 0.18715 0.0
H411 H 0.55971 0.48006 0.18798 0.0
O412 O 0.54274 0.42312 0.28202 0.0
O413 O 0.50793 0.42632 0.24735 0.0
O414 O 0.55286 0.46542 0.25043 0.0
O415 O 0.54621 0.42664 0.21504 0.0
H416 H 0.54589 0.3888 0.27544 0.0
H417 H 0.57344 0.44967 0.31709 0.0
H418 H 0.57347 0.38328 0.29837 0.0
H419 H 0.60058 0.44307 0.33925 0.0
H420 H 0.45088 0.36803 0.21022 0.0
H421 H 0.4847 0.41413 0.29562 0.0
H422 H 0.48665 0.39933 0.20483 0.0
H423 H 0.44898 0.38256 0.29941 0.0
H424 H 0.52865 0.44832 0.38309 0.0
H425 H 0.49702 0.47439 0.33264 0.0
H426 H 0.51039 0.34423 0.20191 0.0
H427 H 0.48031 0.33977 0.28537 0.0
H428 H 0.53423 0.48671 0.23338 0.0
H429 H 0.57373 0.48226 0.29964 0.0
H430 H 0.53621 0.51719 0.25998 0.0
H431 H 0.57493 0.51276 0.32514 0.0
H432 H 0.58253 0.45434 0.19057 0.0
H433 H 0.51795 0.40708 0.17319 0.0
H434 H 0.58826 0.46082 0.13714 0.0
H435 H 0.5248 0.41448 0.12006 0.0
H436 H 0.62259 0.43445 0.23812 0.0
H437 H 0.63659 0.4979 0.25861 0.0
H438 H 0.48964 0.4477 0.14084 0.0
H439 H 0.55603 0.495 0.14148 0.0
Li440 Li 0.09024 0.54107 0.76745 0.0
Li441 Li 0.11583 0.53765 0.73743 0.0
Li442 Li 0.1165 0.57132 0.74157 0.0
Li443 Li 0.0889 0.54185 0.71443 0.0
C444 C 0.12327 0.55306 0.80155 0.0
N445 N 0.12512 0.54654 0.86084 0.0
C446 C 0.12728 0.53729 0.81131 0.0
C447 C 0.12032 0.56558 0.82196 0.0
C448 C 0.12815 0.53425 0.84137 0.0
C449 C 0.12125 0.562 0.85183 0.0
C450 C 0.06757 0.50188 0.72807 0.0
C451 C 0.05017 0.47666 0.68927 0.0
N452 N 0.03126 0.47007 0.70263 0.0
C453 C 0.04797 0.49484 0.74146 0.0
C454 C 0.06872 0.49268 0.70183 0.0
C455 C 0.0298 0.47874 0.72824 0.0
C456 C 0.06564 0.54261 0.81388 0.0
N457 N 0.0746 0.5318 0.80259 0.0
C458 C 0.06485 0.5096 0.84475 0.0
C459 C 0.07395 0.51524 0.81701 0.0
C460 C 0.05621 0.52104 0.85755 0.0
C461 C 0.05631 0.53748 0.84151 0.0
H462 H 0.06613 0.5555 0.80171 0.0
H463 H 0.08118 0.50691 0.80733 0.0
C464 C 0.15403 0.53812 0.74138 0.0
N465 N 0.13323 0.52537 0.73518 0.0
C466 C 0.16796 0.53043 0.73935 0.0
C467 C 0.13871 0.49643 0.72529 0.0
C468 C 0.12531 0.50483 0.72751 0.0
C469 C 0.16037 0.50937 0.73102 0.0
H470 H 0.15976 0.55431 0.7478 0.0
H471 H 0.10866 0.49501 0.72301 0.0
C472 C 0.08483 0.57854 0.74045 0.0
N473 N 0.08507 0.61626 0.73491 0.0
C474 C 0.07932 0.58393 0.71384 0.0
C475 C 0.09037 0.5923 0.76429 0.0
C476 C 0.07954 0.60307 0.71148 0.0
C477 C 0.09045 0.61131 0.76103 0.0
C478 C 0.13634 0.55937 0.69131 0.0
C479 C 0.15632 0.57708 0.69541 0.0
C480 C 0.13413 0.54292 0.67333 0.0
C481 C 0.17379 0.57799 0.68156 0.0
C482 C 0.152 0.54441 0.65993 0.0
N483 N 0.17129 0.56177 0.66428 0.0
C484 C 0.14709 0.6101 0.76575 0.0
C485 C 0.13443 0.61272 0.71902 0.0
C486 C 0.16064 0.63187 0.76662 0.0
N487 N 0.13432 0.60104 0.74225 0.0
C488 C 0.14765 0.6346 0.71904 0.0
C489 C 0.16108 0.64438 0.743 0.0
H490 H 0.14696 0.60041 0.78367 0.0
H491 H 0.12439 0.60499 0.70037 0.0
C492 C 0.05009 0.52797 0.68495 0.0
N493 N 0.07093 0.53446 0.68147 0.0
C494 C 0.03675 0.52195 0.66063 0.0
C495 C 0.0667 0.5298 0.62978 0.0
C496 C 0.07943 0.53573 0.65461 0.0
C497 C 0.04504 0.52267 0.63265 0.0
H498 H 0.04386 0.52734 0.70663 0.0
H499 H 0.09611 0.54135 0.65246 0.0
O500 O 0.1219 0.55598 0.7722 0.0
O501 O 0.08549 0.51792 0.74036 0.0
O502 O 0.08499 0.56 0.74309 0.0
O503 O 0.11909 0.55796 0.70518 0.0
H504 H 0.12942 0.52732 0.79588 0.0
H505 H 0.11695 0.57769 0.81483 0.0
H506 H 0.13114 0.52204 0.84923 0.0
H507 H 0.11879 0.57144 0.86786 0.0
H508 H 0.05081 0.46952 0.66884 0.0
H509 H 0.04678 0.50186 0.76168 0.0
H510 H 0.08373 0.49812 0.69099 0.0
H511 H 0.01451 0.47318 0.73829 0.0
H512 H 0.06521 0.4969 0.85643 0.0
H513 H 0.0494 0.54639 0.85031 0.0
H514 H 0.18446 0.54082 0.74456 0.0
H515 H 0.13226 0.48012 0.71877 0.0
H516 H 0.07511 0.57358 0.6951 0.0
H517 H 0.09496 0.58853 0.78494 0.0
H518 H 0.07538 0.60748 0.69098 0.0
H519 H 0.09488 0.62217 0.77922 0.0
H520 H 0.15839 0.5899 0.70936 0.0
H521 H 0.11885 0.52894 0.67024 0.0
H522 H 0.18935 0.59156 0.68464 0.0
H523 H 0.15054 0.53171 0.64618 0.0
H524 H 0.17071 0.63884 0.78554 0.0
H525 H 0.14777 0.64367 0.70022 0.0
H526 H 0.02011 0.51649 0.66371 0.0
H527 H 0.07378 0.53099 0.60852 0.0
H528 H 0.53041 0.19461 0.20094 0.0
H529 H 0.51985 0.22138 0.2046 0.0
H530 H 0.47142 0.18264 0.26681 0.0
H531 H 0.48196 0.15574 0.26338 0.0
H532 H 0.45968 0.20453 0.22245 0.0
H533 H 0.53421 0.25651 0.28199 0.0
H534 H 0.53785 0.24672 0.24771 0.0
H535 H 0.52419 0.22861 0.27713 0.0
C536 C 0.51743 0.19174 0.21527 0.0
C537 C 0.50719 0.17324 0.23218 0.0
C538 C 0.51138 0.20697 0.21724 0.0
C539 C 0.49509 0.20404 0.23628 0.0
C540 C 0.48405 0.18513 0.25203 0.0
H541 H 0.49286 0.31592 0.29176 0.0
H542 H 0.48772 0.28041 0.29288 0.0
C543 C 0.49007 0.16981 0.25001 0.0
C544 C 0.49083 0.22148 0.24126 0.0
H545 H 0.51456 0.27227 0.26538 0.0
C546 C 0.47153 0.21931 0.2321 0.0
C547 C 0.50617 0.2405 0.25442 0.0
C548 C 0.5267 0.24324 0.26616 0.0
C549 C 0.46757 0.23616 0.2346 0.0
C550 C 0.48347 0.25562 0.24617 0.0
C551 C 0.50238 0.25738 0.25641 0.0
C552 C 0.4817 0.2749 0.24641 0.0
C553 C 0.44648 0.23297 0.22479 0.0
C554 C 0.47928 0.28334 0.22006 0.0
C555 C 0.48185 0.30357 0.2194 0.0
C556 C 0.48726 0.31589 0.24501 0.0
C557 C 0.48847 0.30688 0.27165 0.0
C558 C 0.48567 0.28658 0.27233 0.0
H559 H 0.43401 0.21608 0.22607 0.0
H560 H 0.44156 0.2424 0.23824 0.0
H561 H 0.44767 0.23803 0.20162 0.0
H562 H 0.47662 0.27481 0.19968 0.0
H563 H 0.48047 0.30989 0.1986 0.0
H564 H 0.32619 0.52607 0.78087 0.0
H565 H 0.28873 0.51415 0.77637 0.0
H566 H 0.28025 0.46247 0.72162 0.0
H567 H 0.31801 0.47437 0.72608 0.0
H568 H 0.26369 0.48429 0.69705 0.0
H569 H 0.2358 0.46611 0.81108 0.0
H570 H 0.259 0.49168 0.80925 0.0
H571 H 0.26059 0.46865 0.7995 0.0
C572 C 0.3163 0.51183 0.76853 0.0
C573 C 0.32506 0.50112 0.75392 0.0
C574 C 0.29484 0.50498 0.76604 0.0
C575 C 0.2816 0.48717 0.74915 0.0
C576 C 0.29017 0.47614 0.73498 0.0
H577 H 0.15446 0.47131 0.75037 0.0
H578 H 0.18041 0.45942 0.75065 0.0
C579 C 0.31173 0.48302 0.73742 0.0
C580 C 0.25948 0.48178 0.74391 0.0
H581 H 0.21699 0.47839 0.77964 0.0
C582 C 0.25321 0.48242 0.71505 0.0
C583 C 0.24554 0.47876 0.76726 0.0
C584 C 0.25052 0.47601 0.79846 0.0
C585 C 0.2343 0.48224 0.70921 0.0
C586 C 0.22166 0.48189 0.73288 0.0
C587 C 0.22689 0.47909 0.76148 0.0
C588 C 0.20485 0.48733 0.72903 0.0
C589 C 0.22848 0.48324 0.6778 0.0
C590 C 0.20994 0.50685 0.71661 0.0
C591 C 0.1952 0.5136 0.7163 0.0
C592 C 0.17511 0.50108 0.72876 0.0
C593 C 0.16976 0.48122 0.7404 0.0
C594 C 0.18457 0.47444 0.74066 0.0
H595 H 0.23434 0.4752 0.66308 0.0
H596 H 0.21112 0.47587 0.67498 0.0
H597 H 0.23605 0.5 0.67083 0.0
H598 H 0.22565 0.51732 0.70818 0.0
H599 H 0.1997 0.52886 0.70686 0.0
H600 H 0.68059 0.17091 0.26581 0.0
H601 H 0.71652 0.20039 0.25892 0.0
H602 H 0.70356 0.20327 0.16743 0.0
H603 H 0.66737 0.17441 0.17432 0.0
H604 H 0.75101 0.20899 0.22055 0.0
H605 H 0.71706 0.26104 0.20043 0.0
H606 H 0.70158 0.2347 0.21495 0.0
H607 H 0.70775 0.23863 0.17657 0.0
C608 C 0.68542 0.17775 0.24419 0.0
C609 C 0.671 0.17056 0.22074 0.0
C610 C 0.706 0.19443 0.24023 0.0
C611 C 0.71252 0.20418 0.21279 0.0
C612 C 0.69869 0.1961 0.18888 0.0
H613 H 0.81833 0.32875 0.17457 0.0
H614 H 0.79011 0.29232 0.16787 0.0
C615 C 0.67806 0.17948 0.19282 0.0
C616 C 0.73295 0.22401 0.21002 0.0
H617 H 0.75393 0.27687 0.19924 0.0
C618 C 0.75173 0.22384 0.21564 0.0
C619 C 0.73375 0.24332 0.20376 0.0
C620 C 0.71399 0.24459 0.19881 0.0
C621 C 0.77137 0.2426 0.2153 0.0
C622 C 0.77209 0.26194 0.20964 0.0
C623 C 0.75334 0.26199 0.20336 0.0
C624 C 0.79175 0.28261 0.21209 0.0
C625 C 0.79113 0.24155 0.22103 0.0
C626 C 0.80234 0.2891 0.23901 0.0
C627 C 0.81863 0.3099 0.24285 0.0
C628 C 0.82445 0.32463 0.21993 0.0
C629 C 0.81444 0.31778 0.19258 0.0
C630 C 0.79823 0.29698 0.18873 0.0
H631 H 0.78879 0.2257 0.21575 0.0
H632 H 0.80466 0.25359 0.20805 0.0
H633 H 0.79525 0.24461 0.2446 0.0
H634 H 0.79733 0.27841 0.25751 0.0
H635 H 0.82619 0.31461 0.26407 0.0
H636 H 0.45821 0.79952 0.70662 0.0
H637 H 0.46946 0.77327 0.70722 0.0
H638 H 0.5245 0.81544 0.7577 0.0
H639 H 0.51295 0.84165 0.75802 0.0
H640 H 0.50715 0.77464 0.68875 0.0
H641 H 0.49402 0.76227 0.80922 0.0
H642 H 0.4843 0.77659 0.78837 0.0
H643 H 0.51194 0.7886 0.79663 0.0
C644 C 0.4727 0.80321 0.7179 0.0
C645 C 0.48452 0.82249 0.73268 0.0
C646 C 0.47921 0.7883 0.71798 0.0
C647 C 0.49765 0.79234 0.73282 0.0
C648 C 0.51006 0.81194 0.74647 0.0
H649 H 0.51533 0.68388 0.76958 0.0
H650 H 0.52577 0.72131 0.76442 0.0
C651 C 0.50353 0.82693 0.74643 0.0
C652 C 0.50276 0.77527 0.73531 0.0
H653 H 0.49988 0.73816 0.78328 0.0
C654 C 0.50602 0.7669 0.70949 0.0
C655 C 0.50142 0.76532 0.76245 0.0
C656 C 0.49762 0.77349 0.7908 0.0
C657 C 0.50663 0.74807 0.70987 0.0
C658 C 0.50367 0.73731 0.73668 0.0
C659 C 0.50209 0.7465 0.76277 0.0
C660 C 0.49888 0.71519 0.73763 0.0
C661 C 0.50955 0.73938 0.68143 0.0
C662 C 0.4803 0.6995 0.72444 0.0
C663 C 0.47425 0.67829 0.72757 0.0
C664 C 0.48668 0.67237 0.74398 0.0
C665 C 0.50555 0.6881 0.7567 0.0
C666 C 0.51151 0.7094 0.75378 0.0
H667 H 0.51822 0.75214 0.66514 0.0
H668 H 0.51827 0.73075 0.68488 0.0
H669 H 0.49382 0.72821 0.6721 0.0
H670 H 0.47013 0.70365 0.71237 0.0
H671 H 0.45974 0.66648 0.71731 0.0
H672 H 0.65298 0.45554 0.20856 0.0
H673 H 0.69019 0.46561 0.20772 0.0
H674 H 0.70209 0.50662 0.28178 0.0
H675 H 0.66456 0.49581 0.28374 0.0
H676 H 0.72673 0.50419 0.20152 0.0
H677 H 0.72374 0.46827 0.31031 0.0
H678 H 0.70019 0.46354 0.29119 0.0
H679 H 0.71623 0.48817 0.30974 0.0
C680 C 0.66343 0.46654 0.22489 0.0
C681 C 0.65571 0.47458 0.24653 0.0
C682 C 0.68475 0.47247 0.22416 0.0
C683 C 0.69881 0.48662 0.24495 0.0
C684 C 0.6914 0.49539 0.26587 0.0
H685 H 0.82658 0.5056 0.26855 0.0
H686 H 0.79791 0.51385 0.27054 0.0
C687 C 0.66999 0.48934 0.26675 0.0
C688 C 0.72096 0.49125 0.24515 0.0
H689 H 0.75535 0.48191 0.28392 0.0
C690 C 0.73312 0.49961 0.2197 0.0
C691 C 0.72928 0.48534 0.26898 0.0
C692 C 0.71669 0.47568 0.29655 0.0
C693 C 0.75302 0.50134 0.21693 0.0
C694 C 0.7608 0.49439 0.24012 0.0
C695 C 0.74926 0.48725 0.26623 0.0
C696 C 0.7794 0.49174 0.23647 0.0
C697 C 0.76529 0.50998 0.1889 0.0
C698 C 0.77841 0.47668 0.21659 0.0
C699 C 0.79457 0.47185 0.2156 0.0
C700 C 0.812 0.48203 0.23445 0.0
C701 C 0.81336 0.49767 0.25364 0.0
C702 C 0.79704 0.50235 0.25483 0.0
H703 H 0.76047 0.52023 0.17725 0.0
H704 H 0.78254 0.51916 0.19323 0.0
H705 H 0.76215 0.49665 0.17419 0.0
H706 H 0.76473 0.46805 0.20262 0.0
H707 H 0.79324 0.45983 0.2005 0.0
H708 H 0.32358 0.80983 0.69516 0.0
H709 H 0.28699 0.78117 0.69571 0.0
H710 H 0.27379 0.81054 0.76834 0.0
H711 H 0.31079 0.83892 0.7685 0.0
H712 H 0.26158 0.77214 0.7812 0.0
H713 H 0.2307 0.77081 0.67097 0.0
H714 H 0.2551 0.77085 0.66757 0.0
H715 H 0.25486 0.79312 0.6841 0.0
C716 C 0.31271 0.81047 0.71068 0.0
C717 C 0.31994 0.8265 0.73181 0.0
C718 C 0.29172 0.79415 0.71086 0.0
C719 C 0.27746 0.79383 0.73175 0.0
C720 C 0.28445 0.81049 0.75192 0.0
H721 H 0.15379 0.67631 0.72709 0.0
H722 H 0.17933 0.71435 0.7266 0.0
C723 C 0.30555 0.82665 0.75204 0.0
C724 C 0.25643 0.77463 0.73518 0.0
H725 H 0.21544 0.73644 0.69582 0.0
C726 C 0.25124 0.76463 0.76264 0.0
C727 C 0.24258 0.76492 0.71126 0.0
C728 C 0.24602 0.77567 0.68195 0.0
C729 C 0.23358 0.7445 0.76622 0.0
C730 C 0.22119 0.7338 0.74151 0.0
C731 C 0.22527 0.74446 0.71463 0.0
C732 C 0.20539 0.71101 0.74252 0.0
C733 C 0.22876 0.73468 0.79634 0.0
C734 C 0.21169 0.69658 0.75111 0.0
C735 C 0.19722 0.67501 0.7515 0.0
C736 C 0.17619 0.66737 0.74288 0.0
C737 C 0.16993 0.68179 0.73379 0.0
C738 C 0.18444 0.70347 0.7336 0.0
H739 H 0.23419 0.74697 0.81365 0.0
H740 H 0.21159 0.72359 0.79929 0.0
H741 H 0.2373 0.72586 0.7995 0.0
H742 H 0.22794 0.70198 0.75712 0.0
H743 H 0.20261 0.66425 0.75796 0.0
H744 H 0.46243 0.96986 0.89075 0.0
H745 H 0.46859 0.98001 0.9424 0.0
H746 H 0.47917 0.92823 0.96049 0.0
H747 H 0.47251 0.91757 0.90898 0.0
H748 H 0.44591 0.95081 -0.00532 0.0
H749 H 0.53331 0.98526 0.98983 0.0
H750 H 0.51793 0.98252 0.95746 0.0
H751 H 0.51655 0.95963 0.97394 0.0
C752 C 0.46587 0.9605 0.90574 0.0
C753 C 0.46708 0.94298 0.89576 0.0
C754 C 0.46943 0.96635 0.93516 0.0
C755 C 0.4744 0.95488 0.95501 0.0
C756 C 0.47552 0.93733 0.9453 0.0
H757 H 0.52048 -0.00084 0.13247 0.0
H758 H 0.50784 0.97565 0.08988 0.0
C759 C 0.47186 0.93139 0.91588 0.0
C760 C 0.47867 0.96161 0.98583 0.0
H761 H 0.51897 0.98883 0.03393 0.0
C762 C 0.46182 0.95891 0.00348 0.0
C763 C 0.49942 0.97188 -0.00287 0.0
C764 C 0.51795 0.97515 0.97872 0.0
C765 C 0.46531 0.9669 0.03209 0.0
C766 C 0.48623 0.9783 0.04284 0.0
C767 C 0.50294 0.98009 0.0256 0.0
C768 C 0.49146 0.99042 0.07045 0.0
C769 C 0.44659 0.96328 0.05033 0.0
C770 C 0.48628 0.00634 0.07368 0.0
C771 C 0.49333 0.01963 0.09795 0.0
C772 C 0.50595 0.01745 0.11929 0.0
C773 C 0.51062 0.00109 0.1165 0.0
C774 C 0.5035 0.98773 0.09216 0.0
H775 H 0.43208 0.94856 0.04367 0.0
H776 H 0.44943 0.96226 0.07401 0.0
H777 H 0.44364 0.9766 0.04699 0.0
H778 H 0.47743 0.00902 0.05687 0.0
H779 H 0.48928 0.03194 0.09969 0.0
H780 H 0.49669 0.43999 0.41207 0.0
H781 H 0.48953 0.45226 0.45815 0.0
H782 H 0.50898 0.51295 0.41904 0.0
H783 H 0.51607 0.50073 0.37279 0.0
H784 H 0.51823 0.48592 0.49186 0.0
H785 H 0.45212 0.49741 0.45576 0.0
H786 H 0.46107 0.48257 0.43458 0.0
H787 H 0.47555 0.51093 0.43378 0.0
C788 C 0.49938 0.45593 0.4133 0.0
C789 C 0.50689 0.46942 0.3889 0.0
C790 C 0.49524 0.46288 0.43955 0.0
C791 C 0.4985 0.4834 0.44182 0.0
C792 C 0.50593 0.4969 0.41749 0.0
H793 H 0.4885 0.5542 0.58711 0.0
H794 H 0.49624 0.5434 0.54018 0.0
C795 C 0.50998 0.48992 0.39115 0.0
C796 C 0.49494 0.49089 0.47009 0.0
H797 H 0.46588 0.50967 0.5033 0.0
C798 C 0.50674 0.49106 0.49442 0.0
C799 C 0.47999 0.49762 0.47321 0.0
C800 C 0.46631 0.49698 0.44803 0.0
C801 C 0.50408 0.49793 0.52188 0.0
C802 C 0.48908 0.50456 0.52501 0.0
C803 C 0.4774 0.50459 0.50066 0.0
C804 C 0.48493 0.51114 0.55356 0.0
C805 C 0.51748 0.49829 0.54725 0.0
C806 C 0.47592 0.49648 0.5764 0.0
C807 C 0.47134 0.50252 0.60311 0.0
C808 C 0.47564 0.52333 0.60734 0.0
C809 C 0.48478 0.538 0.58439 0.0
C810 C 0.4893 0.53191 0.55766 0.0
H811 H 0.53147 0.49741 0.53978 0.0
H812 H 0.52297 0.51283 0.56051 0.0
H813 H 0.50789 0.48452 0.56164 0.0
H814 H 0.47211 0.48026 0.57338 0.0
H815 H 0.46397 0.49078 0.62019 0.0
H816 H 0.06119 0.54904 0.90061 0.0
H817 H 0.04607 0.54119 0.94979 0.0
H818 H 0.01738 0.47451 0.93239 0.0
H819 H 0.0318 0.48221 0.88266 0.0
H820 H 0.98973 0.48532 0.95562 0.0
H821 H 0.06322 0.52023 0.02147 0.0
H822 H 0.06286 0.53832 -0.00475 0.0
H823 H 0.06279 0.51497 0.98277 0.0
C824 C 0.05158 0.5327 0.90718 0.0
C825 C 0.04759 0.51623 0.8877 0.0
C826 C 0.04324 0.52825 0.93545 0.0
C827 C 0.03094 0.50729 0.94486 0.0
C828 C 0.02703 0.49081 0.92558 0.0
H829 H 0.98233 0.46696 0.12177 0.0
H830 H 0.00237 0.47417 0.07606 0.0
C831 C 0.03533 0.49523 0.89725 0.0
C832 C 0.02097 0.5026 0.97411 0.0
H833 H 0.03147 0.51229 0.04709 0.0
C834 C -0.00114 0.49105 0.97564 0.0
C835 C 0.03295 0.50989 0.00018 0.0
C836 C 0.05678 0.52136 -6e-05 0.0
C837 C 0.98834 0.48713 0.00252 0.0
C838 C 0.00028 0.49536 0.02843 0.0
C839 C 0.02241 0.5063 0.02707 0.0
C840 C 0.98991 0.49279 0.05707 0.0
C841 C 0.96453 0.47416 0.00295 0.0
C842 C 0.97694 0.50153 0.06178 0.0
C843 C 0.96553 0.49748 0.08776 0.0
C844 C 0.96706 0.48474 0.10955 0.0
C845 C 0.98095 0.47693 0.10541 0.0
C846 C 0.99231 0.48094 0.07932 0.0
H847 H 0.95822 0.4645 0.98278 0.0
H848 H 0.95887 0.46348 0.02224 0.0
H849 H 0.95793 0.48488 0.00431 0.0
H850 H 0.97527 0.51111 0.04507 0.0
H851 H 0.95522 0.50399 0.09062 0.0
H852 H 0.53153 0.02792 0.38875 0.0
H853 H 0.52384 0.01569 0.43947 0.0
H854 H 0.51179 0.06614 0.46029 0.0
H855 H 0.51995 0.07886 0.40971 0.0
H856 H 0.54423 0.04156 0.49364 0.0
H857 H 0.45725 0.00877 0.48484 0.0
H858 H 0.47365 0.01335 0.453 0.0
H859 H 0.47448 0.03522 0.47187 0.0
C860 C 0.52748 0.03657 0.40416 0.0
C861 C 0.52628 0.05432 0.39519 0.0
C862 C 0.52302 0.02952 0.43305 0.0
C863 C 0.51715 0.03997 0.45338 0.0
C864 C 0.5161 0.05778 0.4447 0.0
H865 H 0.46816 0.99314 0.62912 0.0
H866 H 0.48112 0.01643 0.58629 0.0
C867 C 0.52064 0.06493 0.41581 0.0
C868 C 0.51189 0.03194 0.48359 0.0
H869 H 0.47022 0.0039 0.52943 0.0
C870 C 0.5281 0.0335 0.50166 0.0
C871 C 0.49086 0.02167 0.49388 0.0
C872 C 0.47295 0.01948 0.47497 0.0
C873 C 0.52372 0.02451 0.52971 0.0
C874 C 0.50254 0.01329 0.53948 0.0
C875 C 0.48645 0.0125 0.52182 0.0
C876 C 0.49645 0.00068 0.5667 0.0
C877 C 0.5418 0.02697 0.54849 0.0
C878 C 0.5008 0.98417 0.56978 0.0
C879 C 0.49356 0.97099 0.59418 0.0
C880 C 0.4816 0.9739 0.61582 0.0
C881 C 0.47753 0.99066 0.61294 0.0
C882 C 0.48482 0.00389 0.58848 0.0
H883 H 0.55681 0.0414 0.54248 0.0
H884 H 0.53863 0.02778 0.5721 0.0
H885 H 0.54401 0.0132 0.54505 0.0
H886 H 0.50934 0.98112 0.55291 0.0
H887 H 0.49715 0.95835 0.59595 0.0
H888 H 0.45349 0.50648 0.90295 0.0
H889 H 0.46424 0.49938 0.95028 0.0
H890 H 0.52973 0.53913 0.92676 0.0
H891 H 0.5191 0.54593 0.8789 0.0
H892 H 0.51988 0.4997 0.95135 0.0
H893 H 0.48922 0.54147 0.01883 0.0
H894 H 0.47007 0.52264 0.9939 0.0
H895 H 0.49324 0.54539 0.97979 0.0
C896 C 0.47019 0.51355 0.90773 0.0
C897 C 0.48547 0.52674 0.88725 0.0
C898 C 0.47628 0.50969 0.93488 0.0
C899 C 0.49774 0.51903 0.94209 0.0
C900 C 0.51308 0.53196 0.9216 0.0
H901 H 0.53892 0.51347 0.11986 0.0
H902 H 0.53535 0.52628 0.07181 0.0
C903 C 0.50699 0.53588 0.8944 0.0
C904 C 0.50405 0.5148 0.97084 0.0
H905 H 0.49792 0.51828 0.04427 0.0
C906 C 0.5153 0.50394 0.9717 0.0
C907 C 0.49831 0.52068 -0.00275 0.0
C908 C 0.48722 0.53338 -0.00249 0.0
C909 C 0.52018 0.49796 -0.00156 0.0
C910 C 0.51335 0.50277 0.02479 0.0
C911 C 0.50291 0.51443 0.02395 0.0
C912 C 0.5161 0.49509 0.05342 0.0
C913 C 0.53249 0.48648 -0.00176 0.0
C914 C 0.50623 0.47336 0.05894 0.0
C915 C 0.50827 0.46602 0.08623 0.0
C916 C 0.52012 0.48031 0.10852 0.0
C917 C 0.52988 0.5021 0.10297 0.0
C918 C 0.5278 0.50943 0.07564 0.0
H919 H 0.54159 0.48935 0.9776 0.0
H920 H 0.54361 0.49137 0.01703 0.0
H921 H 0.52134 0.46925 4e-05 0.0
H922 H 0.4968 0.46207 0.04219 0.0
H923 H 0.50076 0.44915 0.08977 0.0
H924 H 0.01473 0.53261 0.61832 0.0
H925 H 0.99384 0.5235 0.57316 0.0
H926 H 0.02375 0.48903 0.54275 0.0
H927 H 0.04463 0.49806 0.5877 0.0
H928 H 0.0247 0.51801 0.50236 0.0
H929 H 0.94383 0.46663 0.54654 0.0
H930 H 0.95868 0.49205 0.56368 0.0
H931 H 0.96735 0.47314 0.56728 0.0
C932 C 0.01657 0.5228 0.60218 0.0
C933 C 0.03135 0.5161 0.60641 0.0
C934 C 0.00464 0.51761 0.57646 0.0
C935 C 0.00717 0.50547 0.5548 0.0
C936 C 0.02161 0.49844 0.55925 0.0
H937 H 0.93494 0.4431 0.40124 0.0
H938 H 0.95197 0.45283 0.44926 0.0
C939 C 0.03356 0.50367 0.58484 0.0
C940 C -0.00428 0.50099 0.52671 0.0
H941 H 0.9466 0.47505 0.49604 0.0
C942 C 0.00762 0.50866 0.50094 0.0
C943 C 0.97347 0.48868 0.52506 0.0
C944 C 0.96003 0.47947 0.55205 0.0
C945 C -0.00213 0.50421 0.47342 0.0
C946 C 0.97561 0.49209 0.47176 0.0
C947 C 0.96367 0.48449 0.49752 0.0
C948 C 0.96454 0.48635 0.44331 0.0
C949 C 0.01151 0.512 0.44635 0.0
C950 C 0.96575 0.50199 0.42435 0.0
C951 C 0.95625 0.49652 0.39679 0.0
C952 C 0.94527 0.47528 0.38785 0.0
C953 C 0.94362 0.45962 0.40728 0.0
C954 C 0.95316 0.46511 0.4348 0.0
H955 H 0.02824 0.51686 0.45113 0.0
H956 H 0.00555 0.49962 0.42915 0.0
H957 H 0.0111 0.5259 0.43745 0.0
H958 H 0.97425 0.51844 0.43075 0.0
H959 H 0.95788 0.50895 0.38226 0.0
loop_
_geom_bond_atom_site_label_1
_geom_bond_atom_site_label_2
_geom_bond_distance
_geom_bond_site_symmetry_2
_ccdc_geom_bond_type
Li0 N17 1.990 . S
Li0 O60 1.956 . S
Li0 O61 1.970 . S
Li0 O62 1.961 . S
Li1 N25 1.990 . S
Li1 O60 1.970 . S
Li1 O61 1.956 . S
Li1 O63 1.961 . S
Li2 N47 1.990 . S
Li2 O60 1.961 . S
Li2 O62 1.956 . S
Li2 O63 1.970 . S
Li3 N53 1.990 . S
Li3 O61 1.961 . S
Li3 O62 1.970 . S
Li3 O63 1.956 . S
C4 C6 1.348 . S
C4 C7 1.356 . S
C4 O60 1.325 . S
N5 C8 1.314 . S
N5 C9 1.279 . S
C6 C4 1.348 . S
C6 C8 1.353 . S
C6 H64 0.929 . S
C7 C4 1.356 . S
C7 C9 1.358 . S
C7 H65 0.930 . S
C8 N5 1.314 . S
C8 C6 1.353 . S
C8 H66 0.930 . S
C9 N5 1.279 . S
C9 C7 1.358 . S
C9 H67 0.930 . S
C10 C13 1.348 . S
C10 C14 1.356 . S
C10 O61 1.325 . S
C11 N12 1.279 . S
C11 C14 1.358 . S
C11 H68 0.930 . S
N12 C11 1.279 . S
N12 C15 1.314 . S
C13 C10 1.348 . S
C13 C15 1.353 . S
C13 H69 0.929 . S
C14 C10 1.356 . S
C14 C11 1.358 . S
C14 H70 0.930 . S
C15 N12 1.314 . S
C15 C13 1.353 . S
C15 H71 0.930 . S
C16 N17 1.314 . S
C16 C21 1.353 . S
C16 H22 0.930 . S
N17 Li0 1.990 . S
N17 C16 1.314 . S
N17 C19 1.279 . S
C18 C19 1.358 . S
C18 C20 1.356 . S
C18 H72 0.930 . S
C19 N17 1.279 . S
C19 C18 1.358 . S
C19 H23 0.930 . S
C20 C18 1.356 . S
C20 C21 1.348 . S
C21 C16 1.353 . S
C21 C20 1.348 . S
C21 H73 0.929 . S
H22 C16 0.930 . S
H23 C19 0.930 . S
C24 N25 1.314 . S
C24 C26 1.353 . S
C24 H30 0.930 . S
N25 Li1 1.990 . S
N25 C24 1.314 . S
N25 C28 1.279 . S
C26 C24 1.353 . S
C26 C29 1.348 . S
C26 H74 0.929 . S
C27 C28 1.358 . S
C27 C29 1.356 . S
C27 H75 0.930 . S
C28 N25 1.279 . S
C28 C27 1.358 . S
C28 H31 0.930 . S
C29 C26 1.348 . S
C29 C27 1.356 . S
H30 C24 0.930 . S
H31 C28 0.930 . S
C32 C34 1.348 . S
C32 C35 1.356 . S
C32 O62 1.325 . S
N33 C36 1.314 . S
N33 C37 1.279 . S
C34 C32 1.348 . S
C34 C36 1.353 . S
C34 H76 0.929 . S
C35 C32 1.356 . S
C35 C37 1.358 . S
C35 H77 0.930 . S
C36 N33 1.314 . S
C36 C34 1.353 . S
C36 H78 0.930 . S
C37 N33 1.279 . S
C37 C35 1.358 . S
C37 H79 0.930 . S
C38 C39 1.348 . S
C38 C40 1.356 . S
C38 O63 1.325 . S
C39 C38 1.348 . S
C39 C41 1.353 . S
C39 H80 0.929 . S
C40 C38 1.356 . S
C40 C42 1.358 . S
C40 H81 0.930 . S
C41 C39 1.353 . S
C41 N43 1.314 . S
C41 H82 0.930 . S
C42 C40 1.358 . S
C42 N43 1.279 . S
C42 H83 0.930 . S
N43 C41 1.314 . S
N43 C42 1.279 . S
C44 C46 1.353 . S
C44 N47 1.314 . S
C44 H50 0.930 . S
C45 N47 1.279 . S
C45 C48 1.358 . S
C45 H51 0.930 . S
C46 C44 1.353 . S
C46 C49 1.348 . S
C46 H84 0.929 . S
N47 Li2 1.990 . S
N47 C44 1.314 . S
N47 C45 1.279 . S
C48 C45 1.358 . S
C48 C49 1.356 . S
C48 H85 0.930 . S
C49 C46 1.348 . S
C49 C48 1.356 . S
H50 C44 0.930 . S
H51 C45 0.930 . S
C52 N53 1.314 . S
C52 C54 1.353 . S
C52 H58 0.930 . S
N53 Li3 1.990 . S
N53 C52 1.314 . S
N53 C56 1.279 . S
C54 C52 1.353 . S
C54 C57 1.348 . S
C54 H86 0.929 . S
C55 C56 1.358 . S
C55 C57 1.356 . S
C55 H87 0.930 . S
C56 N53 1.279 . S
C56 C55 1.358 . S
C56 H59 0.930 . S
C57 C54 1.348 . S
C57 C55 1.356 . S
H58 C52 0.930 . S
H59 C56 0.930 . S
O60 Li0 1.956 . S
O60 Li1 1.970 . S
O60 Li2 1.961 . S
O60 C4 1.325 . S
O61 Li0 1.970 . S
O61 Li1 1.956 . S
O61 Li3 1.961 . S
O61 C10 1.325 . S
O62 Li0 1.961 . S
O62 Li2 1.956 . S
O62 Li3 1.970 . S
O62 C32 1.325 . S
O63 Li1 1.961 . S
O63 Li2 1.970 . S
O63 Li3 1.956 . S
O63 C38 1.325 . S
H64 C6 0.929 . S
H65 C7 0.930 . S
H66 C8 0.930 . S
H67 C9 0.930 . S
H68 C11 0.930 . S
H69 C13 0.929 . S
H70 C14 0.930 . S
H71 C15 0.930 . S
H72 C18 0.930 . S
H73 C21 0.929 . S
H74 C26 0.929 . S
H75 C27 0.930 . S
H76 C34 0.929 . S
H77 C35 0.930 . S
H78 C36 0.930 . S
H79 C37 0.930 . S
H80 C39 0.929 . S
H81 C40 0.930 . S
H82 C41 0.930 . S
H83 C42 0.930 . S
H84 C46 0.929 . S
H85 C48 0.930 . S
H86 C54 0.929 . S
H87 C55 0.930 . S
Li88 N105 1.990 . S
Li88 O148 1.956 . S
Li88 O149 1.970 . S
Li88 O150 1.961 . S
Li89 N113 1.990 . S
Li89 O148 1.970 . S
Li89 O149 1.956 . S
Li89 O151 1.961 . S
Li90 N135 1.990 . S
Li90 O148 1.961 . S
Li90 O150 1.956 . S
Li90 O151 1.970 . S
Li91 N141 1.990 . S
Li91 O149 1.961 . S
Li91 O150 1.970 . S
Li91 O151 1.956 . S
C92 C94 1.348 . S
C92 C95 1.356 . S
C92 O148 1.325 . S
N93 C96 1.314 . S
N93 C97 1.279 . S
C94 C92 1.348 . S
C94 C96 1.353 . S
C94 H152 0.929 . S
C95 C92 1.356 . S
C95 C97 1.358 . S
C95 H153 0.930 . S
C96 N93 1.314 . S
C96 C94 1.353 . S
C96 H154 0.930 . S
C97 N93 1.279 . S
C97 C95 1.358 . S
C97 H155 0.930 . S
C98 C101 1.348 . S
C98 C102 1.356 . S
C98 O149 1.325 . S
C99 N100 1.279 . S
C99 C102 1.358 . S
C99 H156 0.930 . S
N100 C99 1.279 . S
N100 C103 1.314 . S
C101 C98 1.348 . S
C101 C103 1.353 . S
C101 H157 0.929 . S
C102 C98 1.356 . S
C102 C99 1.358 . S
C102 H158 0.930 . S
C103 N100 1.314 . S
C103 C101 1.353 . S
C103 H159 0.930 . S
C104 N105 1.314 . S
C104 C109 1.353 . S
C104 H110 0.930 . S
N105 Li88 1.990 . S
N105 C104 1.314 . S
N105 C107 1.279 . S
C106 C107 1.358 . S
C106 C108 1.356 . S
C106 H160 0.930 . S
C107 N105 1.279 . S
C107 C106 1.358 . S
C107 H111 0.930 . S
C108 C106 1.356 . S
C108 C109 1.348 . S
C109 C104 1.353 . S
C109 C108 1.348 . S
C109 H161 0.929 . S
H110 C104 0.930 . S
H111 C107 0.930 . S
C112 N113 1.314 . S
C112 C114 1.353 . S
C112 H118 0.930 . S
N113 Li89 1.990 . S
N113 C112 1.314 . S
N113 C116 1.279 . S
C114 C112 1.353 . S
C114 C117 1.348 . S
C114 H162 0.929 . S
C115 C116 1.358 . S
C115 C117 1.356 . S
C115 H163 0.930 . S
C116 N113 1.279 . S
C116 C115 1.358 . S
C116 H119 0.930 . S
C117 C114 1.348 . S
C117 C115 1.356 . S
H118 C112 0.930 . S
H119 C116 0.930 . S
C120 C122 1.348 . S
C120 C123 1.356 . S
C120 O150 1.325 . S
N121 C124 1.314 . S
N121 C125 1.279 . S
C122 C120 1.348 . S
C122 C124 1.353 . S
C122 H164 0.929 . S
C123 C120 1.356 . S
C123 C125 1.358 . S
C123 H165 0.930 . S
C124 N121 1.314 . S
C124 C122 1.353 . S
C124 H166 0.930 . S
C125 N121 1.279 . S
C125 C123 1.358 . S
C125 H167 0.930 . S
C126 C127 1.348 . S
C126 C128 1.356 . S
C126 O151 1.325 . S
C127 C126 1.348 . S
C127 C129 1.353 . S
C127 H168 0.929 . S
C128 C126 1.356 . S
C128 C130 1.358 . S
C128 H169 0.930 . S
C129 C127 1.353 . S
C129 N131 1.314 . S
C129 H170 0.930 . S
C130 C128 1.358 . S
C130 N131 1.279 . S
C130 H171 0.930 . S
N131 C129 1.314 . S
N131 C130 1.279 . S
C132 C134 1.353 . S
C132 N135 1.314 . S
C132 H138 0.930 . S
C133 N135 1.279 . S
C133 C136 1.358 . S
C133 H139 0.930 . S
C134 C132 1.353 . S
C134 C137 1.348 . S
C134 H172 0.929 . S
N135 Li90 1.990 . S
N135 C132 1.314 . S
N135 C133 1.279 . S
C136 C133 1.358 . S
C136 C137 1.356 . S
C136 H173 0.930 . S
C137 C134 1.348 . S
C137 C136 1.356 . S
H138 C132 0.930 . S
H139 C133 0.930 . S
C140 N141 1.314 . S
C140 C142 1.353 . S
C140 H146 0.930 . S
N141 Li91 1.990 . S
N141 C140 1.314 . S
N141 C144 1.279 . S
C142 C140 1.353 . S
C142 C145 1.348 . S
C142 H174 0.929 . S
C143 C144 1.358 . S
C143 C145 1.356 . S
C143 H175 0.930 . S
C144 N141 1.279 . S
C144 C143 1.358 . S
C144 H147 0.930 . S
C145 C142 1.348 . S
C145 C143 1.356 . S
H146 C140 0.930 . S
H147 C144 0.930 . S
O148 Li88 1.956 . S
O148 Li89 1.970 . S
O148 Li90 1.961 . S
O148 C92 1.325 . S
O149 Li88 1.970 . S
O149 Li89 1.956 . S
O149 Li91 1.961 . S
O149 C98 1.325 . S
O150 Li88 1.961 . S
O150 Li90 1.956 . S
O150 Li91 1.970 . S
O150 C120 1.325 . S
O151 Li89 1.961 . S
O151 Li90 1.970 . S
O151 Li91 1.956 . S
O151 C126 1.325 . S
H152 C94 0.929 . S
H153 C95 0.930 . S
H154 C96 0.930 . S
H155 C97 0.930 . S
H156 C99 0.930 . S
H157 C101 0.929 . S
H158 C102 0.930 . S
H159 C103 0.930 . S
H160 C106 0.930 . S
H161 C109 0.929 . S
H162 C114 0.929 . S
H163 C115 0.930 . S
H164 C122 0.929 . S
H165 C123 0.930 . S
H166 C124 0.930 . S
H167 C125 0.930 . S
H168 C127 0.929 . S
H169 C128 0.930 . S
H170 C129 0.930 . S
H171 C130 0.930 . S
H172 C134 0.929 . S
H173 C136 0.930 . S
H174 C142 0.929 . S
H175 C143 0.930 . S
Li176 N193 1.990 . S
Li176 O236 1.956 . S
Li176 O237 1.970 . S
Li176 O238 1.961 . S
Li177 N201 1.990 . S
Li177 O236 1.970 . S
Li177 O237 1.956 . S
Li177 O239 1.961 . S
Li178 N223 1.990 . S
Li178 O236 1.961 . S
Li178 O238 1.956 . S
Li178 O239 1.970 . S
Li179 N229 1.990 . S
Li179 O237 1.961 . S
Li179 O238 1.970 . S
Li179 O239 1.956 . S
C180 C182 1.348 . S
C180 C183 1.356 . S
C180 O236 1.325 . S
N181 C184 1.314 . S
N181 C185 1.279 . S
C182 C180 1.348 . S
C182 C184 1.353 . S
C182 H240 0.929 . S
C183 C180 1.356 . S
C183 C185 1.358 . S
C183 H241 0.930 . S
C184 N181 1.314 . S
C184 C182 1.353 . S
C184 H242 0.930 . S
C185 N181 1.279 . S
C185 C183 1.358 . S
C185 H243 0.930 . S
C186 C189 1.348 . S
C186 C190 1.356 . S
C186 O237 1.325 . S
C187 N188 1.279 . S
C187 C190 1.358 . S
C187 H244 0.930 . S
N188 C187 1.279 . S
N188 C191 1.314 . S
C189 C186 1.348 . S
C189 C191 1.353 . S
C189 H245 0.929 . S
C190 C186 1.356 . S
C190 C187 1.358 . S
C190 H246 0.930 . S
C191 N188 1.314 . S
C191 C189 1.353 . S
C191 H247 0.930 . S
C192 N193 1.314 . S
C192 C197 1.353 . S
C192 H198 0.930 . S
N193 Li176 1.990 . S
N193 C192 1.314 . S
N193 C195 1.279 . S
C194 C195 1.358 . S
C194 C196 1.356 . S
C194 H248 0.930 . S
C195 N193 1.279 . S
C195 C194 1.358 . S
C195 H199 0.930 . S
C196 C194 1.356 . S
C196 C197 1.348 . S
C197 C192 1.353 . S
C197 C196 1.348 . S
C197 H249 0.929 . S
H198 C192 0.930 . S
H199 C195 0.930 . S
C200 N201 1.314 . S
C200 C202 1.353 . S
C200 H206 0.930 . S
N201 Li177 1.990 . S
N201 C200 1.314 . S
N201 C204 1.279 . S
C202 C200 1.353 . S
C202 C205 1.348 . S
C202 H250 0.929 . S
C203 C204 1.358 . S
C203 C205 1.356 . S
C203 H251 0.930 . S
C204 N201 1.279 . S
C204 C203 1.358 . S
C204 H207 0.930 . S
C205 C202 1.348 . S
C205 C203 1.356 . S
H206 C200 0.930 . S
H207 C204 0.930 . S
C208 C210 1.348 . S
C208 C211 1.356 . S
C208 O238 1.325 . S
N209 C212 1.314 . S
N209 C213 1.279 . S
C210 C208 1.348 . S
C210 C212 1.353 . S
C210 H252 0.929 . S
C211 C208 1.356 . S
C211 C213 1.358 . S
C211 H253 0.930 . S
C212 N209 1.314 . S
C212 C210 1.353 . S
C212 H254 0.930 . S
C213 N209 1.279 . S
C213 C211 1.358 . S
C213 H255 0.930 . S
C214 C215 1.348 . S
C214 C216 1.356 . S
C214 O239 1.325 . S
C215 C214 1.348 . S
C215 C217 1.353 . S
C215 H256 0.929 . S
C216 C214 1.356 . S
C216 C218 1.358 . S
C216 H257 0.930 . S
C217 C215 1.353 . S
C217 N219 1.314 . S
C217 H258 0.930 . S
C218 C216 1.358 . S
C218 N219 1.279 . S
C218 H259 0.930 . S
N219 C217 1.314 . S
N219 C218 1.279 . S
C220 C222 1.353 . S
C220 N223 1.314 . S
C220 H226 0.930 . S
C221 N223 1.279 . S
C221 C224 1.358 . S
C221 H227 0.930 . S
C222 C220 1.353 . S
C222 C225 1.348 . S
C222 H260 0.929 . S
N223 Li178 1.990 . S
N223 C220 1.314 . S
N223 C221 1.279 . S
C224 C221 1.358 . S
C224 C225 1.356 . S
C224 H261 0.930 . S
C225 C222 1.348 . S
C225 C224 1.356 . S
H226 C220 0.930 . S
H227 C221 0.930 . S
C228 N229 1.314 . S
C228 C230 1.353 . S
C228 H234 0.930 . S
N229 Li179 1.990 . S
N229 C228 1.314 . S
N229 C232 1.279 . S
C230 C228 1.353 . S
C230 C233 1.348 . S
C230 H262 0.929 . S
C231 C232 1.358 . S
C231 C233 1.356 . S
C231 H263 0.930 . S
C232 N229 1.279 . S
C232 C231 1.358 . S
C232 H235 0.930 . S
C233 C230 1.348 . S
C233 C231 1.356 . S
H234 C228 0.930 . S
H235 C232 0.930 . S
O236 Li176 1.956 . S
O236 Li177 1.970 . S
O236 Li178 1.961 . S
O236 C180 1.325 . S
O237 Li176 1.970 . S
O237 Li177 1.956 . S
O237 Li179 1.961 . S
O237 C186 1.325 . S
O238 Li176 1.961 . S
O238 Li178 1.956 . S
O238 Li179 1.970 . S
O238 C208 1.325 . S
O239 Li177 1.961 . S
O239 Li178 1.970 . S
O239 Li179 1.956 . S
O239 C214 1.325 . S
H240 C182 0.929 . S
H241 C183 0.930 . S
H242 C184 0.930 . S
H243 C185 0.930 . S
H244 C187 0.930 . S
H245 C189 0.929 . S
H246 C190 0.930 . S
H247 C191 0.930 . S
H248 C194 0.930 . S
H249 C197 0.929 . S
H250 C202 0.929 . S
H251 C203 0.930 . S
H252 C210 0.929 . S
H253 C211 0.930 . S
H254 C212 0.930 . S
H255 C213 0.930 . S
H256 C215 0.929 . S
H257 C216 0.930 . S
H258 C217 0.930 . S
H259 C218 0.930 . S
H260 C222 0.929 . S
H261 C224 0.930 . S
H262 C230 0.929 . S
H263 C231 0.930 . S
Li264 N281 1.990 . S
Li264 O324 1.956 . S
Li264 O325 1.970 . S
Li264 O326 1.961 . S
Li265 N289 1.990 . S
Li265 O324 1.970 . S
Li265 O325 1.956 . S
Li265 O327 1.961 . S
Li266 N311 1.990 . S
Li266 O324 1.961 . S
Li266 O326 1.956 . S
Li266 O327 1.970 . S
Li267 N317 1.990 . S
Li267 O325 1.961 . S
Li267 O326 1.970 . S
Li267 O327 1.956 . S
C268 C270 1.348 . S
C268 C271 1.356 . S
C268 O324 1.325 . S
N269 C272 1.314 . S
N269 C273 1.279 . S
C270 C268 1.348 . S
C270 C272 1.353 . S
C270 H328 0.929 . S
C271 C268 1.356 . S
C271 C273 1.358 . S
C271 H329 0.930 . S
C272 N269 1.314 . S
C272 C270 1.353 . S
C272 H330 0.930 . S
C273 N269 1.279 . S
C273 C271 1.358 . S
C273 H331 0.930 . S
C274 C277 1.348 . S
C274 C278 1.356 . S
C274 O325 1.325 . S
C275 N276 1.279 . S
C275 C278 1.358 . S
C275 H332 0.930 . S
N276 C275 1.279 . S
N276 C279 1.314 . S
C277 C274 1.348 . S
C277 C279 1.353 . S
C277 H333 0.929 . S
C278 C274 1.356 . S
C278 C275 1.358 . S
C278 H334 0.930 . S
C279 N276 1.314 . S
C279 C277 1.353 . S
C279 H335 0.930 . S
C280 N281 1.314 . S
C280 C285 1.353 . S
C280 H286 0.930 . S
N281 Li264 1.990 . S
N281 C280 1.314 . S
N281 C283 1.279 . S
C282 C283 1.358 . S
C282 C284 1.356 . S
C282 H336 0.930 . S
C283 N281 1.279 . S
C283 C282 1.358 . S
C283 H287 0.930 . S
C284 C282 1.356 . S
C284 C285 1.348 . S
C285 C280 1.353 . S
C285 C284 1.348 . S
C285 H337 0.929 . S
H286 C280 0.930 . S
H287 C283 0.930 . S
C288 N289 1.314 . S
C288 C290 1.353 . S
C288 H294 0.930 . S
N289 Li265 1.990 . S
N289 C288 1.314 . S
N289 C292 1.279 . S
C290 C288 1.353 . S
C290 C293 1.348 . S
C290 H338 0.929 . S
C291 C292 1.358 . S
C291 C293 1.356 . S
C291 H339 0.930 . S
C292 N289 1.279 . S
C292 C291 1.358 . S
C292 H295 0.930 . S
C293 C290 1.348 . S
C293 C291 1.356 . S
H294 C288 0.930 . S
H295 C292 0.930 . S
C296 C298 1.348 . S
C296 C299 1.356 . S
C296 O326 1.325 . S
N297 C300 1.314 . S
N297 C301 1.279 . S
C298 C296 1.348 . S
C298 C300 1.353 . S
C298 H340 0.929 . S
C299 C296 1.356 . S
C299 C301 1.358 . S
C299 H341 0.930 . S
C300 N297 1.314 . S
C300 C298 1.353 . S
C300 H342 0.930 . S
C301 N297 1.279 . S
C301 C299 1.358 . S
C301 H343 0.930 . S
C302 C303 1.348 . S
C302 C304 1.356 . S
C302 O327 1.325 . S
C303 C302 1.348 . S
C303 C305 1.353 . S
C303 H344 0.929 . S
C304 C302 1.356 . S
C304 C306 1.358 . S
C304 H345 0.930 . S
C305 C303 1.353 . S
C305 N307 1.314 . S
C305 H346 0.930 . S
C306 C304 1.358 . S
C306 N307 1.279 . S
C306 H347 0.930 . S
N307 C305 1.314 . S
N307 C306 1.279 . S
C308 C310 1.353 . S
C308 N311 1.314 . S
C308 H314 0.930 . S
C309 N311 1.279 . S
C309 C312 1.358 . S
C309 H315 0.930 . S
C310 C308 1.353 . S
C310 C313 1.348 . S
C310 H348 0.929 . S
N311 Li266 1.990 . S
N311 C308 1.314 . S
N311 C309 1.279 . S
C312 C309 1.358 . S
C312 C313 1.356 . S
C312 H349 0.930 . S
C313 C310 1.348 . S
C313 C312 1.356 . S
H314 C308 0.930 . S
H315 C309 0.930 . S
C316 N317 1.314 . S
C316 C318 1.353 . S
C316 H322 0.930 . S
N317 Li267 1.990 . S
N317 C316 1.314 . S
N317 C320 1.279 . S
C318 C316 1.353 . S
C318 C321 1.348 . S
C318 H350 0.929 . S
C319 C320 1.358 . S
C319 C321 1.356 . S
C319 H351 0.930 . S
C320 N317 1.279 . S
C320 C319 1.358 . S
C320 H323 0.930 . S
C321 C318 1.348 . S
C321 C319 1.356 . S
H322 C316 0.930 . S
H323 C320 0.930 . S
O324 Li264 1.956 . S
O324 Li265 1.970 . S
O324 Li266 1.961 . S
O324 C268 1.325 . S
O325 Li264 1.970 . S
O325 Li265 1.956 . S
O325 Li267 1.961 . S
O325 C274 1.325 . S
O326 Li264 1.961 . S
O326 Li266 1.956 . S
O326 Li267 1.970 . S
O326 C296 1.325 . S
O327 Li265 1.961 . S
O327 Li266 1.970 . S
O327 Li267 1.956 . S
O327 C302 1.325 . S
H328 C270 0.929 . S
H329 C271 0.930 . S
H330 C272 0.930 . S
H331 C273 0.930 . S
H332 C275 0.930 . S
H333 C277 0.929 . S
H334 C278 0.930 . S
H335 C279 0.930 . S
H336 C282 0.930 . S
H337 C285 0.929 . S
H338 C290 0.929 . S
H339 C291 0.930 . S
H340 C298 0.929 . S
H341 C299 0.930 . S
H342 C300 0.930 . S
H343 C301 0.930 . S
H344 C303 0.929 . S
H345 C304 0.930 . S
H346 C305 0.930 . S
H347 C306 0.930 . S
H348 C310 0.929 . S
H349 C312 0.930 . S
H350 C318 0.929 . S
H351 C319 0.930 . S
Li352 N369 1.990 . S
Li352 O412 1.956 . S
Li352 O413 1.970 . S
Li352 O414 1.961 . S
Li353 N377 1.990 . S
Li353 O412 1.970 . S
Li353 O413 1.956 . S
Li353 O415 1.961 . S
Li354 N399 1.990 . S
Li354 O412 1.961 . S
Li354 O414 1.956 . S
Li354 O415 1.970 . S
Li355 N405 1.990 . S
Li355 O413 1.961 . S
Li355 O414 1.970 . S
Li355 O415 1.956 . S
C356 C358 1.348 . S
C356 C359 1.356 . S
C356 O412 1.325 . S
N357 C360 1.314 . S
N357 C361 1.279 . S
C358 C356 1.348 . S
C358 C360 1.353 . S
C358 H416 0.929 . S
C359 C356 1.356 . S
C359 C361 1.358 . S
C359 H417 0.930 . S
C360 N357 1.314 . S
C360 C358 1.353 . S
C360 H418 0.930 . S
C361 N357 1.279 . S
C361 C359 1.358 . S
C361 H419 0.930 . S
C362 C365 1.348 . S
C362 C366 1.356 . S
C362 O413 1.325 . S
C363 N364 1.279 . S
C363 C366 1.358 . S
C363 H420 0.930 . S
N364 C363 1.279 . S
N364 C367 1.314 . S
C365 C362 1.348 . S
C365 C367 1.353 . S
C365 H421 0.929 . S
C366 C362 1.356 . S
C366 C363 1.358 . S
C366 H422 0.930 . S
C367 N364 1.314 . S
C367 C365 1.353 . S
C367 H423 0.930 . S
C368 N369 1.314 . S
C368 C373 1.353 . S
C368 H374 0.930 . S
N369 Li352 1.990 . S
N369 C368 1.314 . S
N369 C371 1.279 . S
C370 C371 1.358 . S
C370 C372 1.356 . S
C370 H424 0.930 . S
C371 N369 1.279 . S
C371 C370 1.358 . S
C371 H375 0.930 . S
C372 C370 1.356 . S
C372 C373 1.348 . S
C373 C368 1.353 . S
C373 C372 1.348 . S
C373 H425 0.929 . S
H374 C368 0.930 . S
H375 C371 0.930 . S
C376 N377 1.314 . S
C376 C378 1.353 . S
C376 H382 0.930 . S
N377 Li353 1.990 . S
N377 C376 1.314 . S
N377 C380 1.279 . S
C378 C376 1.353 . S
C378 C381 1.348 . S
C378 H426 0.929 . S
C379 C380 1.358 . S
C379 C381 1.356 . S
C379 H427 0.930 . S
C380 N377 1.279 . S
C380 C379 1.358 . S
C380 H383 0.930 . S
C381 C378 1.348 . S
C381 C379 1.356 . S
H382 C376 0.930 . S
H383 C380 0.930 . S
C384 C386 1.348 . S
C384 C387 1.356 . S
C384 O414 1.325 . S
N385 C388 1.314 . S
N385 C389 1.279 . S
C386 C384 1.348 . S
C386 C388 1.353 . S
C386 H428 0.929 . S
C387 C384 1.356 . S
C387 C389 1.358 . S
C387 H429 0.930 . S
C388 N385 1.314 . S
C388 C386 1.353 . S
C388 H430 0.930 . S
C389 N385 1.279 . S
C389 C387 1.358 . S
C389 H431 0.930 . S
C390 C391 1.348 . S
C390 C392 1.356 . S
C390 O415 1.325 . S
C391 C390 1.348 . S
C391 C393 1.353 . S
C391 H432 0.929 . S
C392 C390 1.356 . S
C392 C394 1.358 . S
C392 H433 0.930 . S
C393 C391 1.353 . S
C393 N395 1.314 . S
C393 H434 0.930 . S
C394 C392 1.358 . S
C394 N395 1.279 . S
C394 H435 0.930 . S
N395 C393 1.314 . S
N395 C394 1.279 . S
C396 C398 1.353 . S
C396 N399 1.314 . S
C396 H402 0.930 . S
C397 N399 1.279 . S
C397 C400 1.358 . S
C397 H403 0.930 . S
C398 C396 1.353 . S
C398 C401 1.348 . S
C398 H436 0.929 . S
N399 Li354 1.990 . S
N399 C396 1.314 . S
N399 C397 1.279 . S
C400 C397 1.358 . S
C400 C401 1.356 . S
C400 H437 0.930 . S
C401 C398 1.348 . S
C401 C400 1.356 . S
H402 C396 0.930 . S
H403 C397 0.930 . S
C404 N405 1.314 . S
C404 C406 1.353 . S
C404 H410 0.930 . S
N405 Li355 1.990 . S
N405 C404 1.314 . S
N405 C408 1.279 . S
C406 C404 1.353 . S
C406 C409 1.348 . S
C406 H438 0.929 . S
C407 C408 1.358 . S
C407 C409 1.356 . S
C407 H439 0.930 . S
C408 N405 1.279 . S
C408 C407 1.358 . S
C408 H411 0.930 . S
C409 C406 1.348 . S
C409 C407 1.356 . S
H410 C404 0.930 . S
H411 C408 0.930 . S
O412 Li352 1.956 . S
O412 Li353 1.970 . S
O412 Li354 1.961 . S
O412 C356 1.325 . S
O413 Li352 1.970 . S
O413 Li353 1.956 . S
O413 Li355 1.961 . S
O413 C362 1.325 . S
O414 Li352 1.961 . S
O414 Li354 1.956 . S
O414 Li355 1.970 . S
O414 C384 1.325 . S
O415 Li353 1.961 . S
O415 Li354 1.970 . S
O415 Li355 1.956 . S
O415 C390 1.325 . S
H416 C358 0.929 . S
H417 C359 0.930 . S
H418 C360 0.930 . S
H419 C361 0.930 . S
H420 C363 0.930 . S
H421 C365 0.929 . S
H422 C366 0.930 . S
H423 C367 0.930 . S
H424 C370 0.930 . S
H425 C373 0.929 . S
H426 C378 0.929 . S
H427 C379 0.930 . S
H428 C386 0.929 . S
H429 C387 0.930 . S
H430 C388 0.930 . S
H431 C389 0.930 . S
H432 C391 0.929 . S
H433 C392 0.930 . S
H434 C393 0.930 . S
H435 C394 0.930 . S
H436 C398 0.929 . S
H437 C400 0.930 . S
H438 C406 0.929 . S
H439 C407 0.930 . S
Li440 N457 1.990 . S
Li440 O500 1.956 . S
Li440 O501 1.970 . S
Li440 O502 1.961 . S
Li441 N465 1.990 . S
Li441 O500 1.970 . S
Li441 O501 1.956 . S
Li441 O503 1.961 . S
Li442 N487 1.990 . S
Li442 O500 1.961 . S
Li442 O502 1.956 . S
Li442 O503 1.970 . S
Li443 N493 1.990 . S
Li443 O501 1.961 . S
Li443 O502 1.970 . S
Li443 O503 1.956 . S
C444 C446 1.348 . S
C444 C447 1.356 . S
C444 O500 1.325 . S
N445 C448 1.314 . S
N445 C449 1.279 . S
C446 C444 1.348 . S
C446 C448 1.353 . S
C446 H504 0.929 . S
C447 C444 1.356 . S
C447 C449 1.358 . S
C447 H505 0.930 . S
C448 N445 1.314 . S
C448 C446 1.353 . S
C448 H506 0.930 . S
C449 N445 1.279 . S
C449 C447 1.358 . S
C449 H507 0.930 . S
C450 C453 1.348 . S
C450 C454 1.356 . S
C450 O501 1.325 . S
C451 N452 1.279 . S
C451 C454 1.358 . S
C451 H508 0.930 . S
N452 C451 1.279 . S
N452 C455 1.314 . S
C453 C450 1.348 . S
C453 C455 1.353 . S
C453 H509 0.929 . S
C454 C450 1.356 . S
C454 C451 1.358 . S
C454 H510 0.930 . S
C455 N452 1.314 . S
C455 C453 1.353 . S
C455 H511 0.930 . S
C456 N457 1.314 . S
C456 C461 1.353 . S
C456 H462 0.930 . S
N457 Li440 1.990 . S
N457 C456 1.314 . S
N457 C459 1.279 . S
C458 C459 1.358 . S
C458 C460 1.356 . S
C458 H512 0.930 . S
C459 N457 1.279 . S
C459 C458 1.358 . S
C459 H463 0.930 . S
C460 C458 1.356 . S
C460 C461 1.348 . S
C461 C456 1.353 . S
C461 C460 1.348 . S
C461 H513 0.929 . S
H462 C456 0.930 . S
H463 C459 0.930 . S
C464 N465 1.314 . S
C464 C466 1.353 . S
C464 H470 0.930 . S
N465 Li441 1.990 . S
N465 C464 1.314 . S
N465 C468 1.279 . S
C466 C464 1.353 . S
C466 C469 1.348 . S
C466 H514 0.929 . S
C467 C468 1.358 . S
C467 C469 1.356 . S
C467 H515 0.930 . S
C468 N465 1.279 . S
C468 C467 1.358 . S
C468 H471 0.930 . S
C469 C466 1.348 . S
C469 C467 1.356 . S
H470 C464 0.930 . S
H471 C468 0.930 . S
C472 C474 1.348 . S
C472 C475 1.356 . S
C472 O502 1.325 . S
N473 C476 1.314 . S
N473 C477 1.279 . S
C474 C472 1.348 . S
C474 C476 1.353 . S
C474 H516 0.929 . S
C475 C472 1.356 . S
C475 C477 1.358 . S
C475 H517 0.930 . S
C476 N473 1.314 . S
C476 C474 1.353 . S
C476 H518 0.930 . S
C477 N473 1.279 . S
C477 C475 1.358 . S
C477 H519 0.930 . S
C478 C479 1.348 . S
C478 C480 1.356 . S
C478 O503 1.325 . S
C479 C478 1.348 . S
C479 C481 1.353 . S
C479 H520 0.929 . S
C480 C478 1.356 . S
C480 C482 1.358 . S
C480 H521 0.930 . S
C481 C479 1.353 . S
C481 N483 1.314 . S
C481 H522 0.930 . S
C482 C480 1.358 . S
C482 N483 1.279 . S
C482 H523 0.930 . S
N483 C481 1.314 . S
N483 C482 1.279 . S
C484 C486 1.353 . S
C484 N487 1.314 . S
C484 H490 0.930 . S
C485 N487 1.279 . S
C485 C488 1.358 . S
C485 H491 0.930 . S
C486 C484 1.353 . S
C486 C489 1.348 . S
C486 H524 0.929 . S
N487 Li442 1.990 . S
N487 C484 1.314 . S
N487 C485 1.279 . S
C488 C485 1.358 . S
C488 C489 1.356 . S
C488 H525 0.930 . S
C489 C486 1.348 . S
C489 C488 1.356 . S
H490 C484 0.930 . S
H491 C485 0.930 . S
C492 N493 1.314 . S
C492 C494 1.353 . S
C492 H498 0.930 . S
N493 Li443 1.990 . S
N493 C492 1.314 . S
N493 C496 1.279 . S
C494 C492 1.353 . S
C494 C497 1.348 . S
C494 H526 0.929 . S
C495 C496 1.358 . S
C495 C497 1.356 . S
C495 H527 0.930 . S
C496 N493 1.279 . S
C496 C495 1.358 . S
C496 H499 0.930 . S
C497 C494 1.348 . S
C497 C495 1.356 . S
H498 C492 0.930 . S
H499 C496 0.930 . S
O500 Li440 1.956 . S
O500 Li441 1.970 . S
O500 Li442 1.961 . S
O500 C444 1.325 . S
O501 Li440 1.970 . S
O501 Li441 1.956 . S
O501 Li443 1.961 . S
O501 C450 1.325 . S
O502 Li440 1.961 . S
O502 Li442 1.956 . S
O502 Li443 1.970 . S
O502 C472 1.325 . S
O503 Li441 1.961 . S
O503 Li442 1.970 . S
O503 Li443 1.956 . S
O503 C478 1.325 . S
H504 C446 0.929 . S
H505 C447 0.930 . S
H506 C448 0.930 . S
H507 C449 0.930 . S
H508 C451 0.930 . S
H509 C453 0.929 . S
H510 C454 0.930 . S
H511 C455 0.930 . S
H512 C458 0.930 . S
H513 C461 0.929 . S
H514 C466 0.929 . S
H515 C467 0.930 . S
H516 C474 0.929 . S
H517 C475 0.930 . S
H518 C476 0.930 . S
H519 C477 0.930 . S
H520 C479 0.929 . S
H521 C480 0.930 . S
H522 C481 0.930 . S
H523 C482 0.930 . S
H524 C486 0.929 . S
H525 C488 0.930 . S
H526 C494 0.929 . S
H527 C495 0.930 . S
H528 C536 0.929 . S
H529 C538 0.930 . S
H530 C540 0.930 . S
H531 C543 0.929 . S
H532 C546 0.930 . S
H533 C548 0.960 . S
H534 C548 0.960 . S
H535 C548 0.960 . S
C536 H528 0.929 . S
C536 C537 1.377 . S
C536 C538 1.384 . S
C537 C536 1.377 . S
C537 C543 1.390 . S
C538 H529 0.930 . S
C538 C536 1.384 . S
C538 C539 1.372 . S
C539 C538 1.372 . S
C539 C540 1.400 . S
C539 C544 1.490 . S
C540 H530 0.930 . S
C540 C539 1.400 . S
C540 C543 1.386 . S
H541 C557 0.930 . S
H542 C558 0.931 . S
C543 H531 0.929 . S
C543 C537 1.390 . S
C543 C540 1.386 . S
C544 C539 1.490 . S
C544 C546 1.395 . S
C544 C547 1.403 . S
H545 C551 0.930 . S
C546 H532 0.930 . S
C546 C544 1.395 . S
C546 C549 1.403 . S
C547 C544 1.403 . S
C547 C548 1.524 . S
C547 C551 1.400 . S
C548 H533 0.960 . S
C548 H534 0.960 . S
C548 H535 0.960 . S
C548 C547 1.524 . S
C549 C546 1.403 . S
C549 C550 1.392 . S
C549 C553 1.495 . S
C550 C549 1.392 . S
C550 C551 1.385 . S
C550 C552 1.478 . S
C551 H545 0.930 . S
C551 C547 1.400 . S
C551 C550 1.385 . S
C552 C550 1.478 . S
C552 C554 1.381 . S
C552 C558 1.383 . S
C553 C549 1.495 . S
C553 H559 0.959 . S
C553 H560 0.961 . S
C553 H561 0.960 . S
C554 C552 1.381 . S
C554 C555 1.394 . S
C554 H562 0.930 . S
C555 C554 1.394 . S
C555 C556 1.383 . S
C555 H563 0.929 . S
C556 C555 1.383 . S
C556 C557 1.377 . S
C557 H541 0.930 . S
C557 C556 1.377 . S
C557 C558 1.379 . S
C558 H542 0.931 . S
C558 C552 1.383 . S
C558 C557 1.379 . S
H559 C553 0.959 . S
H560 C553 0.961 . S
H561 C553 0.960 . S
H562 C554 0.930 . S
H563 C555 0.929 . S
H564 C572 0.929 . S
H565 C574 0.930 . S
H566 C576 0.930 . S
H567 C579 0.929 . S
H568 C582 0.930 . S
H569 C584 0.960 . S
H570 C584 0.960 . S
H571 C584 0.960 . S
C572 H564 0.929 . S
C572 C573 1.377 . S
C572 C574 1.384 . S
C573 C572 1.377 . S
C573 C579 1.390 . S
C574 H565 0.930 . S
C574 C572 1.384 . S
C574 C575 1.372 . S
C575 C574 1.372 . S
C575 C576 1.400 . S
C575 C580 1.490 . S
C576 H566 0.930 . S
C576 C575 1.400 . S
C576 C579 1.386 . S
H577 C593 0.930 . S
H578 C594 0.931 . S
C579 H567 0.929 . S
C579 C573 1.390 . S
C579 C576 1.386 . S
C580 C575 1.490 . S
C580 C582 1.395 . S
C580 C583 1.403 . S
H581 C587 0.930 . S
C582 H568 0.930 . S
C582 C580 1.395 . S
C582 C585 1.403 . S
C583 C580 1.403 . S
C583 C584 1.524 . S
C583 C587 1.400 . S
C584 H569 0.960 . S
C584 H570 0.960 . S
C584 H571 0.960 . S
C584 C583 1.524 . S
C585 C582 1.403 . S
C585 C586 1.392 . S
C585 C589 1.495 . S
C586 C585 1.392 . S
C586 C587 1.385 . S
C586 C588 1.478 . S
C587 H581 0.930 . S
C587 C583 1.400 . S
C587 C586 1.385 . S
C588 C586 1.478 . S
C588 C590 1.381 . S
C588 C594 1.383 . S
C589 C585 1.495 . S
C589 H595 0.959 . S
C589 H596 0.961 . S
C589 H597 0.960 . S
C590 C588 1.381 . S
C590 C591 1.394 . S
C590 H598 0.930 . S
C591 C590 1.394 . S
C591 C592 1.383 . S
C591 H599 0.929 . S
C592 C591 1.383 . S
C592 C593 1.377 . S
C593 H577 0.930 . S
C593 C592 1.377 . S
C593 C594 1.379 . S
C594 H578 0.931 . S
C594 C588 1.383 . S
C594 C593 1.379 . S
H595 C589 0.959 . S
H596 C589 0.961 . S
H597 C589 0.960 . S
H598 C590 0.930 . S
H599 C591 0.929 . S
H600 C608 0.929 . S
H601 C610 0.930 . S
H602 C612 0.930 . S
H603 C615 0.929 . S
H604 C618 0.930 . S
H605 C620 0.960 . S
H606 C620 0.960 . S
H607 C620 0.960 . S
C608 H600 0.929 . S
C608 C609 1.377 . S
C608 C610 1.384 . S
C609 C608 1.377 . S
C609 C615 1.390 . S
C610 H601 0.930 . S
C610 C608 1.384 . S
C610 C611 1.372 . S
C611 C610 1.372 . S
C611 C612 1.400 . S
C611 C616 1.490 . S
C612 H602 0.930 . S
C612 C611 1.400 . S
C612 C615 1.386 . S
H613 C629 0.930 . S
H614 C630 0.931 . S
C615 H603 0.929 . S
C615 C609 1.390 . S
C615 C612 1.386 . S
C616 C611 1.490 . S
C616 C618 1.395 . S
C616 C619 1.403 . S
H617 C623 0.930 . S
C618 H604 0.930 . S
C618 C616 1.395 . S
C618 C621 1.403 . S
C619 C616 1.403 . S
C619 C620 1.524 . S
C619 C623 1.400 . S
C620 H605 0.960 . S
C620 H606 0.960 . S
C620 H607 0.960 . S
C620 C619 1.524 . S
C621 C618 1.403 . S
C621 C622 1.392 . S
C621 C625 1.495 . S
C622 C621 1.392 . S
C622 C623 1.385 . S
C622 C624 1.478 . S
C623 H617 0.930 . S
C623 C619 1.400 . S
C623 C622 1.385 . S
C624 C622 1.478 . S
C624 C626 1.381 . S
C624 C630 1.383 . S
C625 C621 1.495 . S
C625 H631 0.959 . S
C625 H632 0.961 . S
C625 H633 0.960 . S
C626 C624 1.381 . S
C626 C627 1.394 . S
C626 H634 0.930 . S
C627 C626 1.394 . S
C627 C628 1.383 . S
C627 H635 0.929 . S
C628 C627 1.383 . S
C628 C629 1.377 . S
C629 H613 0.930 . S
C629 C628 1.377 . S
C629 C630 1.379 . S
C630 H614 0.931 . S
C630 C624 1.383 . S
C630 C629 1.379 . S
H631 C625 0.959 . S
H632 C625 0.961 . S
H633 C625 0.960 . S
H634 C626 0.930 . S
H635 C627 0.929 . S
H636 C644 0.929 . S
H637 C646 0.930 . S
H638 C648 0.930 . S
H639 C651 0.929 . S
H640 C654 0.930 . S
H641 C656 0.960 . S
H642 C656 0.960 . S
H643 C656 0.960 . S
C644 H636 0.929 . S
C644 C645 1.377 . S
C644 C646 1.384 . S
C645 C644 1.377 . S
C645 C651 1.390 . S
C646 H637 0.930 . S
C646 C644 1.384 . S
C646 C647 1.372 . S
C647 C646 1.372 . S
C647 C648 1.400 . S
C647 C652 1.490 . S
C648 H638 0.930 . S
C648 C647 1.400 . S
C648 C651 1.386 . S
H649 C665 0.930 . S
H650 C666 0.931 . S
C651 H639 0.929 . S
C651 C645 1.390 . S
C651 C648 1.386 . S
C652 C647 1.490 . S
C652 C654 1.395 . S
C652 C655 1.403 . S
H653 C659 0.930 . S
C654 H640 0.930 . S
C654 C652 1.395 . S
C654 C657 1.403 . S
C655 C652 1.403 . S
C655 C656 1.524 . S
C655 C659 1.400 . S
C656 H641 0.960 . S
C656 H642 0.960 . S
C656 H643 0.960 . S
C656 C655 1.524 . S
C657 C654 1.403 . S
C657 C658 1.392 . S
C657 C661 1.495 . S
C658 C657 1.392 . S
C658 C659 1.385 . S
C658 C660 1.478 . S
C659 H653 0.930 . S
C659 C655 1.400 . S
C659 C658 1.385 . S
C660 C658 1.478 . S
C660 C662 1.381 . S
C660 C666 1.383 . S
C661 C657 1.495 . S
C661 H667 0.959 . S
C661 H668 0.961 . S
C661 H669 0.960 . S
C662 C660 1.381 . S
C662 C663 1.394 . S
C662 H670 0.930 . S
C663 C662 1.394 . S
C663 C664 1.383 . S
C663 H671 0.929 . S
C664 C663 1.383 . S
C664 C665 1.377 . S
C665 H649 0.930 . S
C665 C664 1.377 . S
C665 C666 1.379 . S
C666 H650 0.931 . S
C666 C660 1.383 . S
C666 C665 1.379 . S
H667 C661 0.959 . S
H668 C661 0.961 . S
H669 C661 0.960 . S
H670 C662 0.930 . S
H671 C663 0.929 . S
H672 C680 0.929 . S
H673 C682 0.930 . S
H674 C684 0.930 . S
H675 C687 0.929 . S
H676 C690 0.930 . S
H677 C692 0.960 . S
H678 C692 0.960 . S
H679 C692 0.960 . S
C680 H672 0.929 . S
C680 C681 1.377 . S
C680 C682 1.384 . S
C681 C680 1.377 . S
C681 C687 1.390 . S
C682 H673 0.930 . S
C682 C680 1.384 . S
C682 C683 1.372 . S
C683 C682 1.372 . S
C683 C684 1.400 . S
C683 C688 1.490 . S
C684 H674 0.930 . S
C684 C683 1.400 . S
C684 C687 1.386 . S
H685 C701 0.930 . S
H686 C702 0.931 . S
C687 H675 0.929 . S
C687 C681 1.390 . S
C687 C684 1.386 . S
C688 C683 1.490 . S
C688 C690 1.395 . S
C688 C691 1.403 . S
H689 C695 0.930 . S
C690 H676 0.930 . S
C690 C688 1.395 . S
C690 C693 1.403 . S
C691 C688 1.403 . S
C691 C692 1.524 . S
C691 C695 1.400 . S
C692 H677 0.960 . S
C692 H678 0.960 . S
C692 H679 0.960 . S
C692 C691 1.524 . S
C693 C690 1.403 . S
C693 C694 1.392 . S
C693 C697 1.495 . S
C694 C693 1.392 . S
C694 C695 1.385 . S
C694 C696 1.478 . S
C695 H689 0.930 . S
C695 C691 1.400 . S
C695 C694 1.385 . S
C696 C694 1.478 . S
C696 C698 1.381 . S
C696 C702 1.383 . S
C697 C693 1.495 . S
C697 H703 0.959 . S
C697 H704 0.961 . S
C697 H705 0.960 . S
C698 C696 1.381 . S
C698 C699 1.394 . S
C698 H706 0.930 . S
C699 C698 1.394 . S
C699 C700 1.383 . S
C699 H707 0.929 . S
C700 C699 1.383 . S
C700 C701 1.377 . S
C701 H685 0.930 . S
C701 C700 1.377 . S
C701 C702 1.379 . S
C702 H686 0.931 . S
C702 C696 1.383 . S
C702 C701 1.379 . S
H703 C697 0.959 . S
H704 C697 0.961 . S
H705 C697 0.960 . S
H706 C698 0.930 . S
H707 C699 0.929 . S
H708 C716 0.929 . S
H709 C718 0.930 . S
H710 C720 0.930 . S
H711 C723 0.929 . S
H712 C726 0.930 . S
H713 C728 0.960 . S
H714 C728 0.960 . S
H715 C728 0.960 . S
C716 H708 0.929 . S
C716 C717 1.377 . S
C716 C718 1.384 . S
C717 C716 1.377 . S
C717 C723 1.390 . S
C718 H709 0.930 . S
C718 C716 1.384 . S
C718 C719 1.372 . S
C719 C718 1.372 . S
C719 C720 1.400 . S
C719 C724 1.490 . S
C720 H710 0.930 . S
C720 C719 1.400 . S
C720 C723 1.386 . S
H721 C737 0.930 . S
H722 C738 0.931 . S
C723 H711 0.929 . S
C723 C717 1.390 . S
C723 C720 1.386 . S
C724 C719 1.490 . S
C724 C726 1.395 . S
C724 C727 1.403 . S
H725 C731 0.930 . S
C726 H712 0.930 . S
C726 C724 1.395 . S
C726 C729 1.403 . S
C727 C724 1.403 . S
C727 C728 1.524 . S
C727 C731 1.400 . S
C728 H713 0.960 . S
C728 H714 0.960 . S
C728 H715 0.960 . S
C728 C727 1.524 . S
C729 C726 1.403 . S
C729 C730 1.392 . S
C729 C733 1.495 . S
C730 C729 1.392 . S
C730 C731 1.385 . S
C730 C732 1.478 . S
C731 H725 0.930 . S
C731 C727 1.400 . S
C731 C730 1.385 . S
C732 C730 1.478 . S
C732 C734 1.381 . S
C732 C738 1.383 . S
C733 C729 1.495 . S
C733 H739 0.959 . S
C733 H740 0.961 . S
C733 H741 0.960 . S
C734 C732 1.381 . S
C734 C735 1.394 . S
C734 H742 0.930 . S
C735 C734 1.394 . S
C735 C736 1.383 . S
C735 H743 0.929 . S
C736 C735 1.383 . S
C736 C737 1.377 . S
C737 H721 0.930 . S
C737 C736 1.377 . S
C737 C738 1.379 . S
C738 H722 0.931 . S
C738 C732 1.383 . S
C738 C737 1.379 . S
H739 C733 0.959 . S
H740 C733 0.961 . S
H741 C733 0.960 . S
H742 C734 0.930 . S
H743 C735 0.929 . S
H744 C752 0.929 . S
H745 C754 0.930 1_545 S
H746 C756 0.930 . S
H747 C759 0.929 . S
H748 C762 0.930 . S
H749 C764 0.960 . S
H750 C764 0.959 1_545 S
H751 C764 0.960 . S
C752 H744 0.929 . S
C752 C753 1.377 . S
C752 C754 1.384 . S
C753 C752 1.377 . S
C753 C759 1.390 . S
C754 H745 0.930 1_565 S
C754 C752 1.384 . S
C754 C755 1.372 . S
C755 C754 1.372 . S
C755 C756 1.400 . S
C755 C760 1.490 . S
C756 H746 0.930 . S
C756 C755 1.400 . S
C756 C759 1.386 . S
H757 C773 0.930 . S
H758 C774 0.931 1_565 S
C759 H747 0.929 . S
C759 C753 1.390 . S
C759 C756 1.386 . S
C760 C755 1.490 . S
C760 C762 1.395 . S
C760 C763 1.403 . S
H761 C767 0.930 . S
C762 H748 0.930 . S
C762 C760 1.395 . S
C762 C765 1.403 1_566 S
C763 C760 1.403 . S
C763 C764 1.524 . S
C763 C767 1.400 1_566 S
C764 H749 0.960 . S
C764 H750 0.959 1_565 S
C764 H751 0.960 . S
C764 C763 1.524 . S
C765 C762 1.403 1_544 S
C765 C766 1.392 . S
C765 C769 1.495 . S
C766 C765 1.392 . S
C766 C767 1.385 . S
C766 C768 1.478 . S
C767 H761 0.930 . S
C767 C763 1.400 1_544 S
C767 C766 1.385 . S
C768 C766 1.478 . S
C768 C770 1.381 . S
C768 C774 1.383 . S
C769 C765 1.495 . S
C769 H775 0.959 . S
C769 H776 0.961 . S
C769 H777 0.960 . S
C770 C768 1.381 . S
C770 C771 1.394 . S
C770 H778 0.930 . S
C771 C770 1.394 . S
C771 C772 1.383 . S
C771 H779 0.929 . S
C772 C771 1.383 . S
C772 C773 1.377 . S
C773 H757 0.930 . S
C773 C772 1.377 . S
C773 C774 1.379 . S
C774 H758 0.931 1_545 S
C774 C768 1.383 . S
C774 C773 1.379 . S
H775 C769 0.959 . S
H776 C769 0.961 . S
H777 C769 0.960 . S
H778 C770 0.930 . S
H779 C771 0.929 . S
H780 C788 0.929 . S
H781 C790 0.930 . S
H782 C792 0.930 . S
H783 C795 0.929 . S
H784 C798 0.930 . S
H785 C800 0.960 . S
H786 C800 0.960 . S
H787 C800 0.960 . S
C788 H780 0.929 . S
C788 C789 1.377 . S
C788 C790 1.384 . S
C789 C788 1.377 . S
C789 C795 1.390 . S
C790 H781 0.930 . S
C790 C788 1.384 . S
C790 C791 1.372 . S
C791 C790 1.372 . S
C791 C792 1.400 . S
C791 C796 1.490 . S
C792 H782 0.930 . S
C792 C791 1.400 . S
C792 C795 1.386 . S
H793 C809 0.930 . S
H794 C810 0.931 . S
C795 H783 0.929 . S
C795 C789 1.390 . S
C795 C792 1.386 . S
C796 C791 1.490 . S
C796 C798 1.395 . S
C796 C799 1.403 . S
H797 C803 0.930 . S
C798 H784 0.930 . S
C798 C796 1.395 . S
C798 C801 1.403 . S
C799 C796 1.403 . S
C799 C800 1.524 . S
C799 C803 1.400 . S
C800 H785 0.960 . S
C800 H786 0.960 . S
C800 H787 0.960 . S
C800 C799 1.524 . S
C801 C798 1.403 . S
C801 C802 1.392 . S
C801 C805 1.495 . S
C802 C801 1.392 . S
C802 C803 1.385 . S
C802 C804 1.478 . S
C803 H797 0.930 . S
C803 C799 1.400 . S
C803 C802 1.385 . S
C804 C802 1.478 . S
C804 C806 1.381 . S
C804 C810 1.383 . S
C805 C801 1.495 . S
C805 H811 0.959 . S
C805 H812 0.961 . S
C805 H813 0.960 . S
C806 C804 1.381 . S
C806 C807 1.394 . S
C806 H814 0.930 . S
C807 C806 1.394 . S
C807 C808 1.383 . S
C807 H815 0.929 . S
C808 C807 1.383 . S
C808 C809 1.377 . S
C809 H793 0.930 . S
C809 C808 1.377 . S
C809 C810 1.379 . S
C810 H794 0.931 . S
C810 C804 1.383 . S
C810 C809 1.379 . S
H811 C805 0.959 . S
H812 C805 0.961 . S
H813 C805 0.960 . S
H814 C806 0.930 . S
H815 C807 0.929 . S
H816 C824 0.929 . S
H817 C826 0.930 . S
H818 C828 0.930 . S
H819 C831 0.929 . S
H820 C834 0.930 . S
H821 C836 0.925 1_554 S
H822 C836 0.979 . S
H823 C836 0.975 . S
C824 H816 0.929 . S
C824 C825 1.377 . S
C824 C826 1.384 . S
C825 C824 1.377 . S
C825 C831 1.390 . S
C826 H817 0.930 . S
C826 C824 1.384 . S
C826 C827 1.372 . S
C827 C826 1.372 . S
C827 C828 1.400 . S
C827 C832 1.490 . S
C828 H818 0.930 . S
C828 C827 1.400 . S
C828 C831 1.386 . S
H829 C845 0.930 . S
H830 C846 0.931 . S
C831 H819 0.929 . S
C831 C825 1.390 . S
C831 C828 1.386 . S
C832 C827 1.490 . S
C832 C834 1.395 1_455 S
C832 C835 1.403 . S
H833 C839 0.930 . S
C834 H820 0.930 . S
C834 C832 1.395 1_655 S
C834 C837 1.403 . S
C835 C832 1.403 . S
C835 C836 1.526 . S
C835 C839 1.400 1_556 S
C836 H821 0.925 1_556 S
C836 H822 0.979 . S
C836 H823 0.975 . S
C836 C835 1.526 . S
C837 C834 1.403 . S
C837 C838 1.392 1_556 S
C837 C841 1.495 . S
C838 C837 1.392 1_554 S
C838 C839 1.385 1_655 S
C838 C840 1.478 . S
C839 H833 0.930 . S
C839 C835 1.400 1_554 S
C839 C838 1.385 1_455 S
C840 C838 1.478 . S
C840 C842 1.381 . S
C840 C846 1.383 . S
C841 C837 1.495 . S
C841 H847 0.959 . S
C841 H848 0.961 1_556 S
C841 H849 0.960 1_556 S
C842 C840 1.381 . S
C842 C843 1.394 . S
C842 H850 0.930 . S
C843 C842 1.394 . S
C843 C844 1.383 . S
C843 H851 0.929 . S
C844 C843 1.383 . S
C844 C845 1.377 . S
C845 H829 0.930 . S
C845 C844 1.377 . S
C845 C846 1.379 . S
C846 H830 0.931 . S
C846 C840 1.383 . S
C846 C845 1.379 . S
H847 C841 0.959 . S
H848 C841 0.961 1_554 S
H849 C841 0.960 1_554 S
H850 C842 0.930 . S
H851 C843 0.929 . S
H852 C860 0.929 . S
H853 C862 0.930 1_565 S
H854 C864 0.930 . S
H855 C867 0.929 . S
H856 C870 0.930 . S
H857 C872 0.960 . S
H858 C872 0.960 1_565 S
H859 C872 0.960 . S
C860 H852 0.929 . S
C860 C861 1.377 . S
C860 C862 1.384 . S
C861 C860 1.377 . S
C861 C867 1.390 . S
C862 H853 0.930 1_545 S
C862 C860 1.384 . S
C862 C863 1.372 . S
C863 C862 1.372 . S
C863 C864 1.400 . S
C863 C868 1.490 . S
C864 H854 0.930 . S
C864 C863 1.400 . S
C864 C867 1.386 . S
H865 C881 0.930 . S
H866 C882 0.931 1_545 S
C867 H855 0.929 . S
C867 C861 1.390 . S
C867 C864 1.386 . S
C868 C863 1.490 . S
C868 C870 1.395 . S
C868 C871 1.403 . S
H869 C875 0.930 . S
C870 H856 0.930 . S
C870 C868 1.395 . S
C870 C873 1.403 1_545 S
C871 C868 1.403 . S
C871 C872 1.524 . S
C871 C875 1.400 1_545 S
C872 H857 0.960 . S
C872 H858 0.960 1_545 S
C872 H859 0.960 . S
C872 C871 1.524 . S
C873 C870 1.403 1_565 S
C873 C874 1.392 . S
C873 C877 1.495 . S
C874 C873 1.392 . S
C874 C875 1.385 . S
C874 C876 1.478 . S
C875 H869 0.930 . S
C875 C871 1.400 1_565 S
C875 C874 1.385 . S
C876 C874 1.478 . S
C876 C878 1.381 . S
C876 C882 1.383 . S
C877 C873 1.495 . S
C877 H883 0.959 . S
C877 H884 0.961 . S
C877 H885 0.960 . S
C878 C876 1.381 . S
C878 C879 1.394 . S
C878 H886 0.930 . S
C879 C878 1.394 . S
C879 C880 1.383 . S
C879 H887 0.929 . S
C880 C879 1.383 . S
C880 C881 1.377 . S
C881 H865 0.930 . S
C881 C880 1.377 . S
C881 C882 1.379 . S
C882 H866 0.931 1_565 S
C882 C876 1.383 . S
C882 C881 1.379 . S
H883 C877 0.959 . S
H884 C877 0.961 . S
H885 C877 0.960 . S
H886 C878 0.930 . S
H887 C879 0.929 . S
H888 C896 0.929 . S
H889 C898 0.930 . S
H890 C900 0.930 . S
H891 C903 0.929 . S
H892 C906 0.930 . S
H893 C908 0.960 . S
H894 C908 0.960 1_556 S
H895 C908 0.960 1_556 S
C896 H888 0.929 . S
C896 C897 1.377 . S
C896 C898 1.384 . S
C897 C896 1.377 . S
C897 C903 1.390 . S
C898 H889 0.930 . S
C898 C896 1.384 . S
C898 C899 1.372 . S
C899 C898 1.372 . S
C899 C900 1.400 . S
C899 C904 1.490 . S
C900 H890 0.930 . S
C900 C899 1.400 . S
C900 C903 1.386 . S
H901 C917 0.930 . S
H902 C918 0.931 . S
C903 H891 0.929 . S
C903 C897 1.390 . S
C903 C900 1.386 . S
C904 C899 1.490 . S
C904 C906 1.395 . S
C904 C907 1.382 1_556 S
H905 C911 0.930 . S
C906 H892 0.930 . S
C906 C904 1.395 . S
C906 C909 1.378 1_556 S
C907 C904 1.382 1_554 S
C907 C908 1.525 . S
C907 C911 1.421 . S
C908 H893 0.960 . S
C908 H894 0.960 1_554 S
C908 H895 0.960 1_554 S
C908 C907 1.525 . S
C909 C906 1.378 1_554 S
C909 C910 1.418 . S
C909 C913 1.494 1_554 S
C910 C909 1.418 . S
C910 C911 1.385 . S
C910 C912 1.478 . S
C911 H905 0.930 . S
C911 C907 1.421 . S
C911 C910 1.385 . S
C912 C910 1.478 . S
C912 C914 1.381 . S
C912 C918 1.383 . S
C913 C909 1.494 1_556 S
C913 H919 0.969 . S
C913 H920 0.958 1_556 S
C913 H921 0.953 1_556 S
C914 C912 1.381 . S
C914 C915 1.394 . S
C914 H922 0.930 . S
C915 C914 1.394 . S
C915 C916 1.383 . S
C915 H923 0.929 . S
C916 C915 1.383 . S
C916 C917 1.377 . S
C917 H901 0.930 . S
C917 C916 1.377 . S
C917 C918 1.379 . S
C918 H902 0.931 . S
C918 C912 1.383 . S
C918 C917 1.379 . S
H919 C913 0.969 . S
H920 C913 0.958 1_554 S
H921 C913 0.953 1_554 S
H922 C914 0.930 . S
H923 C915 0.929 . S
H924 C932 0.929 . S
H925 C934 0.930 1_655 S
H926 C936 0.930 . S
H927 C939 0.929 . S
H928 C942 0.930 . S
H929 C944 0.960 . S
H930 C944 0.960 . S
H931 C944 0.960 . S
C932 H924 0.929 . S
C932 C933 1.377 . S
C932 C934 1.384 . S
C933 C932 1.377 . S
C933 C939 1.390 . S
C934 H925 0.930 1_455 S
C934 C932 1.384 . S
C934 C935 1.372 . S
C935 C934 1.372 . S
C935 C936 1.400 . S
C935 C940 1.490 . S
C936 H926 0.930 . S
C936 C935 1.400 . S
C936 C939 1.386 . S
H937 C953 0.930 . S
H938 C954 0.931 1_455 S
C939 H927 0.929 . S
C939 C933 1.390 . S
C939 C936 1.386 . S
C940 C935 1.490 . S
C940 C942 1.395 . S
C940 C943 1.403 . S
H941 C947 0.930 . S
C942 H928 0.930 . S
C942 C940 1.395 . S
C942 C945 1.403 1_455 S
C943 C940 1.403 . S
C943 C944 1.524 . S
C943 C947 1.400 1_455 S
C944 H929 0.960 . S
C944 H930 0.960 . S
C944 H931 0.960 . S
C944 C943 1.524 . S
C945 C942 1.403 1_655 S
C945 C946 1.392 . S
C945 C949 1.495 . S
C946 C945 1.392 . S
C946 C947 1.385 . S
C946 C948 1.478 . S
C947 H941 0.930 . S
C947 C943 1.400 1_655 S
C947 C946 1.385 . S
C948 C946 1.478 . S
C948 C950 1.381 . S
C948 C954 1.383 . S
C949 C945 1.495 . S
C949 H955 0.959 . S
C949 H956 0.961 . S
C949 H957 0.960 . S
C950 C948 1.381 . S
C950 C951 1.394 . S
C950 H958 0.930 . S
C951 C950 1.394 . S
C951 C952 1.383 . S
C951 H959 0.929 . S
C952 C951 1.383 . S
C952 C953 1.377 . S
C953 H937 0.930 . S
C953 C952 1.377 . S
C953 C954 1.379 . S
C954 H938 0.931 1_655 S
C954 C948 1.383 . S
C954 C953 1.379 . S
H955 C949 0.959 . S
H956 C949 0.961 . S
H957 C949 0.960 . S
H958 C950 0.930 . S
H959 C951 0.929 . S
C537 C20 0.628 . S
C556 C381 0.653 . S
C573 C137 0.631 . S
C592 C469 0.642 . S
C609 C29 0.630 . S
C628 C233 0.682 . S
C645 C313 0.628 . S
C664 C117 0.665 . S
C681 C401 0.631 . S
C700 C196 0.646 . S
C717 C321 0.633 . S
C736 C489 0.610 . S
C753 C293 1.205 . S
C772 C49 1.199 . S
C789 C372 1.214 . S
C808 C145 1.220 . S
C825 C460 1.212 . S
C844 C225 1.202 . S
C861 C57 1.205 . S
C880 C284 1.199 . S
C897 C108 1.212 . S
C916 C409 1.201 . S
C933 C497 1.214 . S
C952 C205 1.211 . S
