# Generated by pormake.
# Topology wjx, (5)-cn, num edge types: 1
# Building blocks:
#     Node 0, Type 0, BuildingBlock: XOMCOT_clean_sbu_0, # of connection points: 5
#     Node 1, Type 0, BuildingBlock: XOMCOT_clean_sbu_0, # of connection points: 5
#     Node 2, Type 0, BuildingBlock: XOMCOT_clean_sbu_0, # of connection points: 5
#     Node 3, Type 0, BuildingBlock: XOMCOT_clean_sbu_0, # of connection points: 5
#     Node 4, Type 0, BuildingBlock: XOMCOT_clean_sbu_0, # of connection points: 5
#     Node 5, Type 0, BuildingBlock: XOMCOT_clean_sbu_0, # of connection points: 5
#     Node 6, Type 0, BuildingBlock: XOMCOT_clean_sbu_0, # of connection points: 5
#     Node 7, Type 0, BuildingBlock: XOMCOT_clean_sbu_0, # of connection points: 5
#     Node 8, Type 0, BuildingBlock: XOMCOT_clean_sbu_0, # of connection points: 5
#     Node 9, Type 0, BuildingBlock: XOMCOT_clean_sbu_0, # of connection points: 5
#     Node 10, Type 0, BuildingBlock: XOMCOT_clean_sbu_0, # of connection points: 5
#     Node 11, Type 0, BuildingBlock: XOMCOT_clean_sbu_0, # of connection points: 5
#     Edge 12, Type (0, 0), BuildingBlock: XUDNAN_clean_linker_2, # of connection points: 2
#     Edge 13, Type (0, 0), BuildingBlock: XUDNAN_clean_linker_2, # of connection points: 2
#     Edge 14, Type (0, 0), BuildingBlock: XUDNAN_clean_linker_2, # of connection points: 2
#     Edge 15, Type (0, 0), BuildingBlock: XUDNAN_clean_linker_2, # of connection points: 2
#     Edge 16, Type (0, 0), BuildingBlock: XUDNAN_clean_linker_2, # of connection points: 2
#     Edge 17, Type (0, 0), BuildingBlock: XUDNAN_clean_linker_2, # of connection points: 2
#     Edge 18, Type (0, 0), BuildingBlock: XUDNAN_clean_linker_2, # of connection points: 2
#     Edge 19, Type (0, 0), BuildingBlock: XUDNAN_clean_linker_2, # of connection points: 2
#     Edge 20, Type (0, 0), BuildingBlock: XUDNAN_clean_linker_2, # of connection points: 2
#     Edge 21, Type (0, 0), BuildingBlock: XUDNAN_clean_linker_2, # of connection points: 2
#     Edge 22, Type (0, 0), BuildingBlock: XUDNAN_clean_linker_2, # of connection points: 2
#     Edge 23, Type (0, 0), BuildingBlock: XUDNAN_clean_linker_2, # of connection points: 2
#     Edge 24, Type (0, 0), BuildingBlock: XUDNAN_clean_linker_2, # of connection points: 2
#     Edge 25, Type (0, 0), BuildingBlock: XUDNAN_clean_linker_2, # of connection points: 2
#     Edge 26, Type (0, 0), BuildingBlock: XUDNAN_clean_linker_2, # of connection points: 2
#     Edge 27, Type (0, 0), BuildingBlock: XUDNAN_clean_linker_2, # of connection points: 2
#     Edge 28, Type (0, 0), BuildingBlock: XUDNAN_clean_linker_2, # of connection points: 2
#     Edge 29, Type (0, 0), BuildingBlock: XUDNAN_clean_linker_2, # of connection points: 2
#     Edge 30, Type (0, 0), BuildingBlock: XUDNAN_clean_linker_2, # of connection points: 2
#     Edge 31, Type (0, 0), BuildingBlock: XUDNAN_clean_linker_2, # of connection points: 2
#     Edge 32, Type (0, 0), BuildingBlock: XUDNAN_clean_linker_2, # of connection points: 2
#     Edge 33, Type (0, 0), BuildingBlock: XUDNAN_clean_linker_2, # of connection points: 2
#     Edge 34, Type (0, 0), BuildingBlock: XUDNAN_clean_linker_2, # of connection points: 2
#     Edge 35, Type (0, 0), BuildingBlock: XUDNAN_clean_linker_2, # of connection points: 2
#     Edge 36, Type (0, 0), BuildingBlock: XUDNAN_clean_linker_2, # of connection points: 2
#     Edge 37, Type (0, 0), BuildingBlock: XUDNAN_clean_linker_2, # of connection points: 2
#     Edge 38, Type (0, 0), BuildingBlock: XUDNAN_clean_linker_2, # of connection points: 2
#     Edge 39, Type (0, 0), BuildingBlock: XUDNAN_clean_linker_2, # of connection points: 2
#     Edge 40, Type (0, 0), BuildingBlock: XUDNAN_clean_linker_2, # of connection points: 2
#     Edge 41, Type (0, 0), BuildingBlock: XUDNAN_clean_linker_2, # of connection points: 2
# Relax obj value: 0.154
# Max RMSD: 0.142
# Mean RMSD: 0.142
data_MOF--net-wjx--node1-XOMCOT_clean_sbu_0--edge1-XUDNAN_clean_linker_2
_symmetry_space_group_name_H-M    P1
_symmetry_Int_Tables_number       1
_symmetry_cell_setting            triclinic
loop_
_symmetry_equiv_pos_as_xyz
'x, y, z'
_cell_length_a     72.233138
_cell_length_b     72.154236
_cell_length_c     17.625647
_cell_angle_alpha  90.023889
_cell_angle_beta   90.006032
_cell_angle_gamma 120.02705
loop_
_atom_site_label
_atom_site_type_symbol
_atom_site_fract_x
_atom_site_fract_y
_atom_site_fract_z
_atom_type_partial_charge
Co0 Co 0.1105 0.43142 0.13094 0.0
C1 C 0.11747 0.43611 0.2991 0.0
C2 C 0.11878 0.40915 0.2551 0.0
C3 C 0.12106 0.40951 0.33296 0.0
N4 N 0.11674 0.42598 0.23362 0.0
N5 N 0.12027 0.42654 0.36053 0.0
H6 H 0.11519 0.4497 0.30295 0.0
H7 H 0.11838 0.39725 0.21674 0.0
C8 C 0.15446 0.43634 0.12058 0.0
O9 O 0.15891 0.44452 0.18922 0.0
N10 N 0.10384 0.43658 0.02925 0.0
C11 C 0.09375 0.44756 1.01329 0.0
C12 C 0.0944 0.45081 0.93633 0.0
C13 C 0.11021 0.43296 0.96132 0.0
N14 N 0.10476 0.44169 0.90371 0.0
C15 C 0.11667 0.47157 0.18526 0.0
C16 C 0.15366 0.49767 0.1058 0.0
C17 C 0.14381 0.50715 0.14624 0.0
C18 C 0.12518 0.49371 0.18707 0.0
C19 C 0.14452 0.47538 0.10508 0.0
N20 N 0.1264 0.4625 0.14576 0.0
H21 H 0.10156 0.46169 0.21312 0.0
H22 H 0.15143 0.46871 0.0676 0.0
H23 H 0.08719 0.45364 0.05515 0.0
H24 H 0.11946 0.42506 0.95431 0.0
O25 O 0.08266 0.42559 0.16438 0.0
O26 O 0.0898 0.40112 0.12037 0.0
O27 O 0.13634 0.43083 0.09018 0.0
C28 C 0.07575 0.4057 0.14692 0.0
H29 H 0.1231 0.3981 0.36648 0.0
H30 H 0.08827 0.45975 0.90666 0.0
H31 H 0.16793 0.5073 0.07253 0.0
H32 H 0.11644 0.50005 0.21682 0.0
Co33 Co 0.68134 0.1112 0.50908 0.0
C34 C 0.68218 0.10812 0.67815 0.0
C35 C 0.71362 0.12771 0.63353 0.0
C36 C 0.71514 0.12631 0.71112 0.0
N37 N 0.69281 0.11698 0.61274 0.0
N38 N 0.69532 0.11391 0.73899 0.0
H39 H 0.6653 0.09676 0.68139 0.0
H40 H 0.72701 0.13525 0.595 0.0
C41 C 0.71679 0.15668 0.49574 0.0
O42 O 0.70867 0.1611 0.55513 0.0
N43 N 0.66987 0.10477 0.4069 0.0
C44 C 0.64891 0.09547 0.39017 0.0
C45 C 0.64625 0.09155 0.31363 0.0
C46 C 0.67981 0.10646 0.33995 0.0
N47 N 0.6656 0.09838 0.282 0.0
C48 C 0.65034 0.11968 0.57755 0.0
C49 C 0.65447 0.15076 0.4763 0.0
C50 C 0.63798 0.143 0.53 0.0
C51 C 0.63631 0.12759 0.58191 0.0
C52 C 0.66818 0.14228 0.4736 0.0
N53 N 0.66622 0.12706 0.52454 0.0
H54 H 0.64719 0.1064 0.61324 0.0
H55 H 0.67954 0.14708 0.4276 0.0
H56 H 0.63633 0.09141 0.4313 0.0
H57 H 0.69683 0.11267 0.3342 0.0
O58 O 0.65887 0.08335 0.54029 0.0
O59 O 0.69063 0.09024 0.49868 0.0
O60 O 0.70788 0.13752 0.47 0.0
C61 C 0.67167 0.07621 0.52339 0.0
H62 H 0.72976 0.13296 0.74389 0.0
H63 H 0.63117 0.08399 0.28345 0.0
H64 H 0.65589 0.16223 0.43375 0.0
H65 H 0.62355 0.1209 0.62347 0.0
Co66 Co 0.57411 0.68078 0.82075 0.0
C67 C 0.57619 0.68091 0.98806 0.0
C68 C 0.58867 0.71274 0.94478 0.0
C69 C 0.5905 0.7138 0.02283 0.0
N70 N 0.5796 0.6921 0.92315 0.0
N71 N 0.58277 0.69378 0.04982 0.0
H72 H 0.56925 0.66371 0.98997 0.0
H73 H 0.59421 0.7262 0.90669 0.0
C74 C 0.5629 0.70987 0.73283 0.0
O75 O 0.54812 0.69324 0.69566 0.0
N76 N 0.56886 0.6691 0.7179 0.0
C77 C 0.55776 0.64815 0.69922 0.0
C78 C 0.5597 0.64591 0.62295 0.0
C79 C 0.5779 0.67931 0.65181 0.0
N80 N 0.57229 0.66543 0.59299 0.0
C81 C 0.53413 0.64405 0.8586 0.0
C82 C 0.50949 0.66334 0.86665 0.0
C83 C 0.49954 0.64103 0.87518 0.0
C84 C 0.51235 0.63158 0.87235 0.0
C85 C 0.53161 0.67534 0.85301 0.0
N86 N 0.54344 0.66545 0.84392 0.0
H87 H 0.54339 0.63613 0.85942 0.0
H88 H 0.53904 0.69252 0.85111 0.0
H89 H 0.54963 0.635 0.73798 0.0
H90 H 0.58887 0.69635 0.64728 0.0
O91 O 0.58052 0.65901 0.85163 0.0
O92 O 0.60458 0.69074 0.80782 0.0
O93 O 0.57398 0.70736 0.78426 0.0
C94 C 0.60025 0.67206 0.83361 0.0
H95 H 0.59779 0.72824 0.05678 0.0
H96 H 0.55271 0.63096 0.59192 0.0
H97 H 0.50035 0.67145 0.87144 0.0
H98 H 0.5056 0.61447 0.87915 0.0
Co99 Co 0.88767 0.56678 0.13122 0.0
C100 C 0.88754 0.57034 0.30066 0.0
C101 C 0.86982 0.58299 0.24452 0.0
C102 C 0.86988 0.58658 0.32108 0.0
N103 N 0.88086 0.57284 0.23143 0.0
N104 N 0.88109 0.57878 0.35657 0.0
H105 H 0.89764 0.56342 0.30951 0.0
H106 H 0.86278 0.58813 0.20114 0.0
C107 C 0.84745 0.54946 0.04298 0.0
O108 O 0.85235 0.5353 0.01773 0.0
N109 N 0.8948 0.56176 0.02863 0.0
C110 C 0.90259 0.54928 1.00374 0.0
C111 C 0.90472 0.551 0.92584 0.0
C112 C 0.89307 0.57139 0.96522 0.0
N113 N 0.89864 0.56486 0.90148 0.0
C114 C 0.88607 0.52733 0.16815 0.0
C115 C 0.84253 0.50295 0.19242 0.0
C116 C 0.85496 0.49305 0.19534 0.0
C117 C 0.87708 0.50567 0.18525 0.0
C118 C 0.85235 0.5249 0.17669 0.0
N119 N 0.87362 0.53643 0.15846 0.0
H120 H 0.9032 0.53673 0.16249 0.0
H121 H 0.84274 0.5325 0.17889 0.0
H122 H 0.9068 0.53968 0.03835 0.0
H123 H 0.88719 0.58255 0.96586 0.0
O124 O 0.91596 0.57473 0.1647 0.0
O125 O 0.90706 0.5974 0.11546 0.0
O126 O 0.85995 0.56382 0.0901 0.0
C127 C 0.92191 0.5941 0.14339 0.0
H128 H 0.86252 0.59471 0.34849 0.0
H129 H 0.91063 0.54289 0.89011 0.0
H130 H 0.82548 0.49388 0.20312 0.0
H131 H 0.88737 0.49878 0.189 0.0
Co132 Co 0.31982 0.89028 0.45153 0.0
C133 C 0.31874 0.89205 0.61982 0.0
C134 C 0.29026 0.86508 0.57677 0.0
C135 C 0.28869 0.86536 0.65463 0.0
N136 N 0.30914 0.88184 0.5547 0.0
N137 N 0.30654 0.88242 0.68146 0.0
H138 H 0.33432 0.90632 0.62244 0.0
H139 H 0.2782 0.85345 0.5395 0.0
C140 C 0.29098 0.84968 0.36401 0.0
O141 O 0.30768 0.85068 0.33022 0.0
N142 N 0.33062 0.89938 0.34809 0.0
C143 C 0.35046 0.91537 0.33004 0.0
C144 C 0.35151 0.91959 0.25405 0.0
C145 C 0.31964 0.89476 0.28165 0.0
N146 N 0.33219 0.90666 0.22352 0.0
C147 C 0.35749 0.88673 0.45727 0.0
C148 C 0.33823 0.84396 0.49559 0.0
C149 C 0.36047 0.85562 0.4857 0.0
C150 C 0.37003 0.87727 0.46672 0.0
C151 C 0.32612 0.85404 0.48377 0.0
N152 N 0.33574 0.87508 0.46234 0.0
H153 H 0.36557 0.90372 0.44907 0.0
H154 H 0.30908 0.84496 0.49322 0.0
H155 H 0.36316 0.92475 0.36948 0.0
H156 H 0.30262 0.88398 0.27627 0.0
O157 O 0.34142 0.91795 0.48817 0.0
O158 O 0.30911 0.91023 0.45029 0.0
O159 O 0.29341 0.86411 0.41164 0.0
C160 C 0.32785 0.92446 0.47589 0.0
H161 H 0.27514 0.8543 0.6886 0.0
H162 H 0.36529 0.93177 0.22381 0.0
H163 H 0.33033 0.8273 0.51246 0.0
H164 H 0.38726 0.8871 0.46224 0.0
Co165 Co 0.43023 0.32266 0.80034 0.0
C166 C 0.42696 0.32001 0.97014 0.0
C167 C 0.411 0.28936 0.91483 0.0
C168 C 0.40708 0.28624 0.99115 0.0
N169 N 0.42348 0.31044 0.9013 0.0
N170 N 0.41692 0.30544 0.02609 0.0
H171 H 0.43561 0.33717 0.97858 0.0
H172 H 0.40426 0.27707 0.87177 0.0
C173 C 0.44172 0.29341 0.71492 0.0
O174 O 0.45721 0.31004 0.68006 0.0
N175 N 0.43607 0.33416 0.69719 0.0
C176 C 0.44939 0.35428 0.67244 0.0
C177 C 0.44786 0.35483 0.59469 0.0
C178 C 0.42609 0.32302 0.63383 0.0
N179 N 0.43325 0.33515 0.57037 0.0
C180 C 0.47064 0.35905 0.83494 0.0
C181 C 0.49407 0.33863 0.85143 0.0
C182 C 0.50467 0.36105 0.85154 0.0
C183 C 0.49259 0.37118 0.84565 0.0
C184 C 0.47185 0.327 0.83922 0.0
N185 N 0.46068 0.33738 0.82555 0.0
H186 H 0.4618 0.36741 0.83231 0.0
H187 H 0.4638 0.30975 0.8409 0.0
H188 H 0.45924 0.36801 0.70711 0.0
H189 H 0.41405 0.30622 0.63428 0.0
O190 O 0.42432 0.34471 0.83129 0.0
O191 O 0.40003 0.31333 0.78517 0.0
O192 O 0.43011 0.29598 0.76383 0.0
C193 C 0.4046 0.33199 0.81202 0.0
H194 H 0.39721 0.27097 0.0187 0.0
H195 H 0.45646 0.36881 0.55906 0.0
H196 H 0.50286 0.33025 0.85931 0.0
H197 H 0.50011 0.38846 0.84924 0.0
Co198 Co 0.56647 0.88428 0.57793 0.0
C199 C 0.5701 0.88518 0.40617 0.0
C200 C 0.58893 0.87414 0.46362 0.0
C201 C 0.59332 0.8753 0.38763 0.0
N202 N 0.57408 0.87991 0.47589 0.0
N203 N 0.58162 0.88235 0.35131 0.0
H204 H 0.56024 0.8922 0.3956 0.0
H205 H 0.59677 0.87015 0.50766 0.0
C206 C 0.55887 0.83942 0.58143 0.0
O207 O 0.54826 0.8358 0.51743 0.0
N208 N 0.56002 0.88888 0.68043 0.0
C209 C 0.54586 0.8947 0.70336 0.0
C210 C 0.54678 0.89647 0.78148 0.0
C211 C 0.56951 0.88745 0.7443 0.0
N212 N 0.56172 0.892 0.80703 0.0
C213 C 0.52782 0.87766 0.50878 0.0
C214 C 0.49986 0.8421 0.59188 0.0
C215 C 0.4914 0.85156 0.54384 0.0
C216 C 0.50585 0.86951 0.50153 0.0
C217 C 0.52205 0.85105 0.59855 0.0
N218 N 0.53582 0.86843 0.55616 0.0
H219 H 0.53835 0.89245 0.48032 0.0
H220 H 0.52803 0.84466 0.6412 0.0
H221 H 0.53573 0.89763 0.66598 0.0
H222 H 0.58187 0.88315 0.74465 0.0
O223 O 0.57217 0.91255 0.55045 0.0
O224 O 0.59645 0.9052 0.5948 0.0
O225 O 0.56671 0.85772 0.6138 0.0
C226 C 0.59188 0.91948 0.57035 0.0
H227 H 0.60471 0.87171 0.36135 0.0
H228 H 0.53758 0.90126 0.81652 0.0
H229 H 0.48954 0.82831 0.62628 0.0
H230 H 0.50046 0.87816 0.46629 0.0
Co231 Co 0.68578 0.56683 0.90238 0.0
C232 C 0.68757 0.57102 0.73044 0.0
C233 C 0.71738 0.59057 0.78761 0.0
C234 C 0.72037 0.59529 0.7119 0.0
N235 N 0.69697 0.57513 0.79982 0.0
N236 N 0.70166 0.58314 0.6758 0.0
H237 H 0.67078 0.56042 0.71997 0.0
H238 H 0.72925 0.59834 0.83163 0.0
C239 C 0.72015 0.55627 0.88954 0.0
O240 O 0.71113 0.54783 0.82409 0.0
N241 N 0.67546 0.55992 1.00546 0.0
C242 C 0.65541 0.546 0.02861 0.0
C243 C 0.65466 0.54687 0.10662 0.0
C244 C 0.68654 0.5693 0.06915 0.0
N245 N 0.67421 0.56161 0.13189 0.0
C246 C 0.65218 0.52842 0.83403 0.0
C247 C 0.65963 0.50009 0.91549 0.0
C248 C 0.64103 0.49184 0.87115 0.0
C249 C 0.63764 0.50645 0.82914 0.0
C250 C 0.67335 0.52216 0.92063 0.0
N251 N 0.66989 0.53617 0.87904 0.0
H252 H 0.64812 0.53922 0.80633 0.0
H253 H 0.68599 0.5279 0.96221 0.0
H254 H 0.64215 0.53623 0.99136 0.0
H255 H 0.7032 0.5817 0.06931 0.0
O256 O 0.66358 0.5733 0.88025 0.0
O257 O 0.69576 0.597 0.92244 0.0
O258 O 0.71233 0.56528 0.93109 0.0
C259 C 0.67684 0.59288 0.90022 0.0
H260 H 0.73518 0.60704 0.68556 0.0
H261 H 0.64064 0.53797 0.14175 0.0
H262 H 0.66322 0.48972 0.94898 0.0
H263 H 0.62321 0.50123 0.79631 0.0
Co264 Co 0.11331 0.68443 0.19689 0.0
C265 C 0.11809 0.68892 0.02462 0.0
C266 C 0.12181 0.71663 0.08311 0.0
C267 C 0.12475 0.72119 1.00706 0.0
N268 N 0.11794 0.69654 0.09496 0.0
N269 N 0.12243 0.70379 0.97031 0.0
H270 H 0.11553 0.67322 1.01215 0.0
H271 H 0.12268 0.72742 0.12742 0.0
C272 C 0.15838 0.72102 0.19917 0.0
O273 O 0.16169 0.71369 0.13537 0.0
N274 N 0.10875 0.67357 0.29955 0.0
C275 C 0.10022 0.65315 0.32302 0.0
C276 C 0.10127 0.65303 0.40134 0.0
C277 C 0.11467 0.68551 0.36323 0.0
N278 N 0.11051 0.67344 0.42642 0.0
C279 C 0.11938 0.65224 0.12652 0.0
C280 C 0.15439 0.65865 0.21065 0.0
C281 C 0.14568 0.64212 0.15702 0.0
C282 C 0.12802 0.63902 0.11462 0.0
C283 C 0.14556 0.67198 0.21929 0.0
N284 N 0.12862 0.66911 0.17567 0.0
H285 H 0.10464 0.64826 0.09811 0.0
H286 H 0.15174 0.68394 0.26354 0.0
H287 H 0.09414 0.6394 0.28584 0.0
H288 H 0.12196 0.70275 0.36308 0.0
O289 O 0.08507 0.66209 0.16941 0.0
O290 O 0.09256 0.69379 0.21379 0.0
O291 O 0.14012 0.71105 0.23168 0.0
C292 C 0.07823 0.67492 0.18933 0.0
H293 H 0.12822 0.73613 0.98066 0.0
H294 H 0.09625 0.63906 0.43671 0.0
H295 H 0.16761 0.66101 0.24628 0.0
H296 H 0.1203 0.6258 0.07505 0.0
Co297 Co 0.42893 0.11583 0.53945 0.0
C298 C 0.42443 0.11231 0.37046 0.0
C299 C 0.41333 0.13254 0.41498 0.0
C300 C 0.4103 0.13108 0.33743 0.0
N301 N 0.42303 0.12145 0.4358 0.0
N302 N 0.41727 0.11828 0.30959 0.0
H303 H 0.42961 0.10068 0.36729 0.0
H304 H 0.40785 0.14044 0.45344 0.0
C305 C 0.43949 0.1615 0.55272 0.0
O306 O 0.45193 0.1658 0.49314 0.0
N307 N 0.43413 0.10954 0.64163 0.0
C308 C 0.44576 0.10019 0.65833 0.0
C309 C 0.44447 0.09626 0.73486 0.0
C310 C 0.42589 0.11125 0.70858 0.0
N311 N 0.43198 0.10313 0.76651 0.0
C312 C 0.46798 0.12369 0.46951 0.0
C313 C 0.49551 0.15441 0.57077 0.0
C314 C 0.50382 0.1462 0.51708 0.0
C315 C 0.48981 0.13105 0.46498 0.0
C316 C 0.47341 0.1465 0.57355 0.0
N317 N 0.45985 0.13137 0.52285 0.0
H318 H 0.45762 0.1105 0.43387 0.0
H319 H 0.46711 0.15157 0.61964 0.0
H320 H 0.45421 0.09606 0.61717 0.0
H321 H 0.41506 0.11744 0.71431 0.0
O322 O 0.42325 0.08787 0.50883 0.0
O323 O 0.39865 0.09507 0.55107 0.0
O324 O 0.42908 0.14235 0.57835 0.0
C325 C 0.40341 0.08089 0.52664 0.0
H326 H 0.40261 0.13802 0.30465 0.0
H327 H 0.45193 0.08864 0.765 0.0
H328 H 0.50578 0.16572 0.61337 0.0
H329 H 0.49555 0.12405 0.42337 0.0
Co330 Co 0.319 0.43652 0.90218 0.0
C331 C 0.31716 0.4402 0.73242 0.0
C332 C 0.29009 0.4122 0.77745 0.0
C333 C 0.28766 0.41236 0.69997 0.0
N334 N 0.30855 0.42973 0.79808 0.0
N335 N 0.30467 0.43005 0.67186 0.0
H336 H 0.33219 0.45484 0.72787 0.0
H337 H 0.27896 0.40022 0.81641 0.0
C338 C 0.2821 0.44357 0.89169 0.0
O339 O 0.29066 0.45362 0.82789 0.0
N340 N 0.32938 0.44275 1.00533 0.0
C341 C 0.35022 0.45406 0.02455 0.0
C342 C 0.35178 0.4577 0.10131 0.0
C343 C 0.31844 0.43937 0.07092 0.0
N344 N 0.33187 0.44848 0.13024 0.0
C345 C 0.35323 0.47587 0.84437 0.0
C346 C 0.34326 0.50303 0.92201 0.0
C347 C 0.36233 0.51167 0.88089 0.0
C348 C 0.36722 0.4979 0.84141 0.0
C349 C 0.32972 0.48079 0.924 0.0
N350 N 0.33445 0.46742 0.88386 0.0
H351 H 0.35805 0.46555 0.81722 0.0
H352 H 0.31621 0.47444 0.96196 0.0
H353 H 0.36339 0.45997 0.98493 0.0
H354 H 0.30119 0.43136 0.07482 0.0
O355 O 0.34154 0.43066 0.87743 0.0
O356 O 0.30943 0.40631 0.9178 0.0
O357 O 0.29181 0.43636 0.93226 0.0
C358 C 0.3284 0.41084 0.89501 0.0
H359 H 0.27422 0.4006 0.6672 0.0
H360 H 0.3664 0.46681 0.13342 0.0
H361 H 0.33947 0.51326 0.95563 0.0
H362 H 0.38219 0.50407 0.81094 0.0
Co363 Co 0.8859 0.31763 0.24036 0.0
C364 C 0.88744 0.31447 0.07069 0.0
C365 C 0.85927 0.28814 0.11886 0.0
C366 C 0.85926 0.28472 0.04233 0.0
N367 N 0.87703 0.30668 0.13746 0.0
N368 N 0.87694 0.30118 1.01209 0.0
H369 H 0.90269 0.32906 0.06514 0.0
H370 H 0.84706 0.2774 0.15765 0.0
C371 C 0.84647 0.28842 0.33333 0.0
O372 O 0.84818 0.30494 0.37094 0.0
N373 N 0.8949 0.32821 0.3438 0.0
C374 C 0.90668 0.34869 0.36754 0.0
C375 C 0.90984 0.34895 0.4446 0.0
C376 C 0.89205 0.31635 0.40686 0.0
N377 N 0.90047 0.32859 0.46963 0.0
C378 C 0.88309 0.35539 0.22455 0.0
C379 C 0.83916 0.33688 0.22136 0.0
C380 C 0.85181 0.35927 0.22431 0.0
C381 C 0.87403 0.36839 0.2229 0.0
C382 C 0.84904 0.32432 0.22312 0.0
N383 N 0.87078 0.33368 0.23036 0.0
H384 H 0.90021 0.36309 0.22104 0.0
H385 H 0.83913 0.30717 0.21884 0.0
H386 H 0.9133 0.36268 0.33198 0.0
H387 H 0.88373 0.29906 0.40683 0.0
O388 O 0.91334 0.33934 0.20372 0.0
O389 O 0.90609 0.30711 0.24076 0.0
O390 O 0.85998 0.29111 0.28146 0.0
C391 C 0.92012 0.32601 0.2156 0.0
H392 H 0.84726 0.27102 1.01116 0.0
H393 H 0.91877 0.36312 0.47911 0.0
H394 H 0.82189 0.32919 0.21899 0.0
H395 H 0.88447 0.38559 0.22021 0.0
H396 H 0.04253 0.41298 0.16301 0.0
H397 H 0.05735 0.3618 0.1492 0.0
H398 H 0.01885 0.33508 0.16545 0.0
H399 H 0.00158 0.38961 0.30304 0.0
H400 H 0.98539 0.3993 0.26002 0.0
H401 H 0.01397 0.41395 0.24813 0.0
H402 H 0.00922 0.4119 0.10193 0.0
H403 H 0.98062 0.39725 0.1134 0.0
H404 H 0.99356 0.38617 0.05703 0.0
H405 H 0.97802 0.31406 0.18826 0.0
H406 H 0.93934 0.30116 0.20735 0.0
H407 H 0.95259 0.36676 0.19928 0.0
C408 C 0.03773 0.39616 0.16364 0.0
C409 C 0.0529 0.38943 0.15544 0.0
C410 C 0.04593 0.36726 0.1555 0.0
C411 C 0.02413 0.352 0.16483 0.0
C412 C 0.00955 0.35923 0.17305 0.0
C413 C 0.01615 0.38082 0.17176 0.0
C414 C 0.99752 0.38466 0.17993 0.0
C415 C 0.99975 0.39764 0.25207 0.0
C416 C 0.99509 0.39564 0.10883 0.0
C417 C 0.97935 0.36188 0.18676 0.0
C418 C 0.98645 0.34733 0.18321 0.0
C419 C 0.97232 0.32535 0.1905 0.0
C420 C 0.95042 0.31815 0.20144 0.0
C421 C 0.94296 0.33293 0.2041 0.0
C422 C 0.95771 0.35501 0.19655 0.0
H423 H 0.63064 0.04352 0.53369 0.0
H424 H 0.69615 0.05671 0.52775 0.0
H425 H 0.68317 0.01785 0.5414 0.0
H426 H 0.61046 0.00114 0.66992 0.0
H427 H 0.58501 0.98582 0.62309 0.0
H428 H 0.59968 0.01454 0.61449 0.0
H429 H 0.59855 0.01116 0.4679 0.0
H430 H 0.58383 0.98243 0.476 0.0
H431 H 0.60849 0.99538 0.42316 0.0
H432 H 0.6623 0.97697 0.55981 0.0
H433 H 0.63573 0.93827 0.57162 0.0
H434 H 0.58437 0.95279 0.55844 0.0
C435 C 0.64231 0.03829 0.53558 0.0
C436 C 0.66442 0.05312 0.53031 0.0
C437 C 0.67913 0.04558 0.53183 0.0
C438 C 0.6719 0.02357 0.53975 0.0
C439 C 0.64991 0.00935 0.54511 0.0
C440 C 0.63538 0.01648 0.5423 0.0
C441 C 0.6126 0.99811 0.54679 0.0
C442 C 0.60128 1.00002 0.6178 0.0
C443 C 0.60014 0.99669 0.47413 0.0
C444 C 0.61648 0.97943 0.55303 0.0
C445 C 0.63807 0.98615 0.55268 0.0
C446 C 0.64537 0.97159 0.55964 0.0
C447 C 0.63019 0.94966 0.56653 0.0
C448 C 0.60802 0.94253 0.56547 0.0
C449 C 0.60121 0.95771 0.55873 0.0
H450 H 0.63638 0.58581 0.89082 0.0
H451 H 0.70247 0.63694 0.89813 0.0
H452 H 0.6906 0.66362 0.8807 0.0
H453 H 0.61848 0.60784 0.74883 0.0
H454 H 0.5927 0.59855 0.792 0.0
H455 H 0.60665 0.58401 0.80648 0.0
H456 H 0.60438 0.58739 0.95226 0.0
H457 H 0.59026 0.60179 0.93823 0.0
H458 H 0.61441 0.6135 0.99406 0.0
H459 H 0.67046 0.68448 0.8554 0.0
H460 H 0.64442 0.69706 0.83575 0.0
H461 H 0.59236 0.63145 0.85 0.0
C462 C 0.64842 0.60263 0.88913 0.0
C463 C 0.67035 0.60933 0.89557 0.0
C464 C 0.68556 0.63149 0.8936 0.0
C465 C 0.67895 0.64671 0.88338 0.0
C466 C 0.6571 0.63945 0.87607 0.0
C467 C 0.64212 0.61788 0.87981 0.0
C468 C 0.61962 0.6139 0.87126 0.0
C469 C 0.60873 0.60027 0.80043 0.0
C470 C 0.60639 0.60354 0.94324 0.0
C471 C 0.62413 0.63657 0.86154 0.0
C472 C 0.64578 0.6512 0.86385 0.0
C473 C 0.65348 0.67311 0.85413 0.0
C474 C 0.63862 0.68012 0.8427 0.0
C475 C 0.61639 0.66526 0.84188 0.0
C476 C 0.60924 0.64327 0.8511 0.0
H477 H 0.04551 0.63399 0.18356 0.0
H478 H 0.05883 0.69962 0.18544 0.0
H479 H 0.01994 0.68662 0.1723 0.0
H480 H 0.00357 0.61341 0.04782 0.0
H481 H 0.98824 0.58808 0.09549 0.0
H482 H 0.0169 0.60286 0.10478 0.0
H483 H 0.0133 0.60226 0.25131 0.0
H484 H 0.98463 0.58738 0.24247 0.0
H485 H 0.99736 0.61225 0.29437 0.0
H486 H 0.97866 0.66529 0.15278 0.0
H487 H 0.94001 0.63824 0.13998 0.0
H488 H 0.95545 0.58756 0.15766 0.0
C489 C 0.04031 0.64569 0.18118 0.0
C490 C 0.05516 0.66781 0.18494 0.0
C491 C 0.04766 0.68257 0.18267 0.0
C492 C 0.02564 0.67532 0.17495 0.0
C493 C 0.01139 0.65329 0.17065 0.0
C494 C 0.01855 0.63876 0.17465 0.0
C495 C 1.00031 0.61596 0.17063 0.0
C496 C 0.00239 0.60441 0.1005 0.0
C497 C 0.99882 0.60375 0.24407 0.0
C498 C 0.98166 0.61976 0.16303 0.0
C499 C 0.98819 0.64133 0.16248 0.0
C500 C 0.97345 0.64838 0.15383 0.0
C501 C 0.95157 0.63295 0.14635 0.0
C502 C 0.94473 0.61083 0.14853 0.0
C503 C 0.9601 0.60434 0.15673 0.0
H504 H 0.41189 0.04834 0.5175 0.0
H505 H 0.35933 0.06116 0.52551 0.0
H506 H 0.33356 0.02216 0.51474 0.0
H507 H 0.3895 0.00583 0.38351 0.0
H508 H 0.40005 0.99079 0.42967 0.0
H509 H 0.41387 0.01951 0.43785 0.0
H510 H 0.41218 0.0163 0.58455 0.0
H511 H 0.39835 0.98757 0.57682 0.0
H512 H 0.38666 1.00042 0.6304 0.0
H513 H 0.31375 0.98109 0.49707 0.0
H514 H 0.30207 0.94255 0.4818 0.0
H515 H 0.36824 0.95791 0.49245 0.0
C516 C 0.39495 0.04301 0.51682 0.0
C517 C 0.38758 0.05776 0.52169 0.0
C518 C 0.3653 0.05009 0.5217 0.0
C519 C 0.35058 0.02799 0.5155 0.0
C520 C 0.35847 0.01386 0.51043 0.0
C521 C 0.38018 0.02116 0.51181 0.0
C522 C 0.3848 0.00295 0.50688 0.0
C523 C 0.39782 0.00489 0.43521 0.0
C524 C 0.39617 0.00175 0.57896 0.0
C525 C 0.36232 0.98416 0.5016 0.0
C526 C 0.34726 0.99064 0.50328 0.0
C527 C 0.32544 0.9759 0.49643 0.0
C528 C 0.31895 0.95406 0.48768 0.0
C529 C 0.33423 0.94723 0.48667 0.0
C530 C 0.35612 0.96256 0.49405 0.0
H531 H 0.36894 0.41806 0.88486 0.0
H532 H 0.30279 0.36696 0.8864 0.0
H533 H 0.31462 0.34047 0.86379 0.0
H534 H 0.38731 0.3977 0.73863 0.0
H535 H 0.4129 0.40631 0.78242 0.0
H536 H 0.39901 0.42077 0.80011 0.0
H537 H 0.40067 0.41552 0.94502 0.0
H538 H 0.41473 0.4012 0.9278 0.0
H539 H 0.39037 0.38889 0.98239 0.0
H540 H 0.33458 0.31986 0.8341 0.0
H541 H 0.36048 0.30728 0.81136 0.0
H542 H 0.41279 0.37254 0.83425 0.0
C543 C 0.3569 0.40129 0.88078 0.0
C544 C 0.33495 0.39453 0.88706 0.0
C545 C 0.31971 0.37243 0.882 0.0
C546 C 0.32629 0.35732 0.86884 0.0
C547 C 0.34814 0.36461 0.86179 0.0
C548 C 0.36316 0.38611 0.8686 0.0
C549 C 0.38566 0.39008 0.85985 0.0
C550 C 0.39687 0.40457 0.79116 0.0
C551 C 0.39861 0.39947 0.93313 0.0
C552 C 0.38107 0.36751 0.84621 0.0
C553 C 0.35939 0.35295 0.847 0.0
C554 C 0.35158 0.33116 0.83394 0.0
C555 C 0.36636 0.32416 0.82074 0.0
C556 C 0.38861 0.33891 0.82142 0.0
C557 C 0.39588 0.36081 0.83396 0.0
H558 H 0.10223 0.41047 0.80954 0.0
H559 H 0.12087 0.47757 0.82003 0.0
H560 H 0.12901 0.48129 0.68301 0.0
H561 H 0.14165 0.41569 0.66456 0.0
H562 H 0.12313 0.39111 0.6174 0.0
H563 H 0.12067 0.39405 0.71787 0.0
H564 H 0.08142 0.38483 0.69858 0.0
H565 H 0.08377 0.38193 0.59815 0.0
H566 H 0.07557 0.40027 0.63238 0.0
H567 H 0.13338 0.47758 0.54502 0.0
H568 H 0.1331 0.46658 0.41274 0.0
H569 H 0.11024 0.40131 0.48746 0.0
C570 C 0.10843 0.42597 0.78289 0.0
C571 C 0.11103 0.44379 0.82515 0.0
C572 C 0.11872 0.46376 0.78841 0.0
C573 C 0.12346 0.46603 0.71078 0.0
C574 C 0.12034 0.44813 0.67022 0.0
C575 C 0.11299 0.42846 0.7047 0.0
C576 C 0.10977 0.41155 0.64643 0.0
C577 C 0.1247 0.40257 0.66254 0.0
C578 C 0.08623 0.39359 0.64374 0.0
C579 C 0.11617 0.42477 0.57404 0.0
C580 C 0.1224 0.44586 0.58946 0.0
C581 C 0.12854 0.4611 0.53217 0.0
C582 C 0.12815 0.45463 0.45693 0.0
C583 C 0.12149 0.43302 0.43899 0.0
C584 C 0.11563 0.41798 0.4989 0.0
H585 H 0.71427 0.13671 0.86742 0.0
H586 H 0.66291 0.07566 0.7869 0.0
H587 H 0.65169 0.06435 0.91889 0.0
H588 H 0.7268 0.11622 0.03977 0.0
H589 H 0.73178 0.13908 0.09634 0.0
H590 H 0.73683 0.14204 0.99567 0.0
H591 H 0.71194 0.15804 0.9816 0.0
H592 H 0.70685 0.15517 0.08212 0.0
H593 H 0.68485 0.14315 0.01613 0.0
H594 H 0.64471 0.0602 0.0575 0.0
H595 H 0.64164 0.06379 0.19538 0.0
H596 H 0.69743 0.12733 0.19002 0.0
C597 C 0.70088 0.12084 0.87781 0.0
C598 C 0.68944 0.10707 0.81665 0.0
C599 C 0.67176 0.08658 0.83251 0.0
C600 C 0.66538 0.07994 0.90742 0.0
C601 C 0.67682 0.09394 0.96623 0.0
C602 C 0.69419 0.11398 0.95256 0.0
C603 C 0.70293 0.12628 0.02633 0.0
C604 C 0.72595 0.13119 0.04034 0.0
C605 C 0.70155 0.14688 0.02653 0.0
C606 C 0.68755 0.11012 0.08337 0.0
C607 C 0.67275 0.09153 0.04714 0.0
C608 C 0.65629 0.07459 0.08655 0.0
C609 C 0.65463 0.0768 0.16478 0.0
C610 C 0.6693 0.09578 0.20329 0.0
C611 C 0.68624 0.11252 0.16215 0.0
H612 H 0.57357 0.6966 0.50166 0.0
H613 H 0.5845 0.6428 0.50648 0.0
H614 H 0.58996 0.64544 0.36793 0.0
H615 H 0.54369 0.68213 0.33303 0.0
H616 H 0.55441 0.70887 0.29624 0.0
H617 H 0.5537 0.70461 0.39708 0.0
H618 H 0.59445 0.73081 0.40573 0.0
H619 H 0.59529 0.73539 0.30494 0.0
H620 H 0.61236 0.72657 0.34654 0.0
H621 H 0.59058 0.65122 0.2291 0.0
H622 H 0.58901 0.66166 0.09707 0.0
H623 H 0.57806 0.71211 0.17842 0.0
C624 C 0.57775 0.68585 0.47349 0.0
C625 C 0.57872 0.66953 0.51459 0.0
C626 C 0.58366 0.65535 0.47582 0.0
C627 C 0.5868 0.65675 0.39723 0.0
C628 C 0.58501 0.67248 0.35781 0.0
C629 C 0.58085 0.68698 0.39439 0.0
C630 C 0.57868 0.70157 0.33731 0.0
C631 C 0.55629 0.69914 0.34117 0.0
C632 C 0.59625 0.72497 0.34936 0.0
C633 C 0.58191 0.69272 0.2633 0.0
C634 C 0.58553 0.67595 0.27674 0.0
C635 C 0.58798 0.66448 0.21777 0.0
C636 C 0.58686 0.67039 0.14291 0.0
C637 C 0.58342 0.68768 0.12734 0.0
C638 C 0.58098 0.69901 0.18862 0.0
H639 H 0.89423 0.54196 0.77183 0.0
H640 H 0.90119 0.60188 0.85369 0.0
H641 H 0.89896 0.61226 0.7223 0.0
H642 H 0.92558 0.56356 0.59841 0.0
H643 H 0.90843 0.54026 0.54241 0.0
H644 H 0.91121 0.53762 0.64285 0.0
H645 H 0.87016 0.51948 0.65906 0.0
H646 H 0.86726 0.52204 0.55875 0.0
H647 H 0.85643 0.53301 0.6257 0.0
H648 H 0.89508 0.61594 0.58332 0.0
H649 H 0.88905 0.61247 0.4453 0.0
H650 H 0.88482 0.55037 0.4498 0.0
C651 C 0.89558 0.5574 0.76218 0.0
C652 C 0.89789 0.57109 0.82381 0.0
C653 C 0.89918 0.59097 0.80816 0.0
C654 C 0.89808 0.59709 0.73344 0.0
C655 C 0.89572 0.58321 0.67439 0.0
C656 C 0.89448 0.56377 0.68767 0.0
C657 C 0.89131 0.55161 0.61374 0.0
C658 C 0.91027 0.54806 0.59847 0.0
C659 C 0.87002 0.53027 0.61438 0.0
C660 C 0.8908 0.5672 0.55693 0.0
C661 C 0.89346 0.58534 0.59349 0.0
C662 C 0.89301 0.60182 0.55414 0.0
C663 C 0.88946 0.59965 0.47566 0.0
C664 C 0.88635 0.58111 0.43655 0.0
C665 C 0.88736 0.56481 0.47788 0.0
H666 H 0.30796 0.8724 0.13247 0.0
H667 H 0.34461 0.9417 0.13745 0.0
H668 H 0.34026 0.94284 0.99909 0.0
H669 H 0.32984 0.86611 0.96408 0.0
H670 H 0.30555 0.8439 0.92744 0.0
H671 H 0.30912 0.84824 0.02824 0.0
H672 H 0.27399 0.84944 0.03719 0.0
H673 H 0.27012 0.84486 0.93642 0.0
H674 H 0.27043 0.86782 0.97814 0.0
H675 H 0.33552 0.93672 0.86042 0.0
H676 H 0.3283 0.92363 0.72843 0.0
H677 H 0.29439 0.85813 0.80998 0.0
C678 C 0.31446 0.88775 0.10439 0.0
C679 C 0.32658 0.90699 0.14537 0.0
C680 C 0.33536 0.92682 0.10682 0.0
C681 C 0.33294 0.92762 0.02836 0.0
C682 C 0.3216 0.90842 0.98902 0.0
C683 C 0.31226 0.88882 0.02552 0.0
C684 C 0.30199 0.87061 0.96859 0.0
C685 C 0.31225 0.85638 0.97234 0.0
C686 C 0.27769 0.85741 0.98082 0.0
C687 C 0.30743 0.88308 0.89467 0.0
C688 C 0.31871 0.90486 0.90806 0.0
C689 C 0.32648 0.9197 0.84911 0.0
C690 C 0.32249 0.91212 0.77431 0.0
C691 C 0.3108 0.88989 0.75886 0.0
C692 C 0.30313 0.87522 0.8201 0.0
H693 H 0.44742 0.33533 0.12006 0.0
H694 H 0.38178 0.28317 0.11261 0.0
H695 H 0.37869 0.28589 0.25071 0.0
H696 H 0.46124 0.32028 0.29326 0.0
H697 H 0.47773 0.34714 0.32849 0.0
H698 H 0.4746 0.34229 0.22782 0.0
H699 H 0.46136 0.3695 0.21376 0.0
H700 H 0.46459 0.37454 0.31441 0.0
H701 H 0.43912 0.36625 0.27019 0.0
H702 H 0.38313 0.29235 0.39004 0.0
H703 H 0.39446 0.30362 0.52222 0.0
H704 H 0.45714 0.35183 0.44221 0.0
C705 C 0.43232 0.32482 0.14753 0.0
C706 C 0.41488 0.30893 0.10557 0.0
C707 C 0.39544 0.29523 0.14367 0.0
C708 C 0.39349 0.29672 0.22212 0.0
C709 C 0.41108 0.31208 0.26222 0.0
C710 C 0.43009 0.32604 0.22645 0.0
C711 C 0.44671 0.34058 0.28396 0.0
C712 C 0.46622 0.33737 0.28332 0.0
C713 C 0.45333 0.36412 0.26972 0.0
C714 C 0.4341 0.33239 0.35726 0.0
C715 C 0.41359 0.31596 0.34324 0.0
C716 C 0.39912 0.30532 0.4018 0.0
C717 C 0.40575 0.31172 0.47681 0.0
C718 C 0.42665 0.32865 0.49288 0.0
C719 C 0.44095 0.33908 0.4319 0.0
H720 H 0.53784 0.88373 0.93598 0.0
H721 H 0.60144 0.90231 0.8541 0.0
H722 H 0.61358 0.90364 0.98572 0.0
H723 H 0.5546 0.91664 0.10752 0.0
H724 H 0.53314 0.89678 0.16463 0.0
H725 H 0.52943 0.89806 0.06404 0.0
H726 H 0.51887 0.85823 0.05032 0.0
H727 H 0.52248 0.85681 0.15082 0.0
H728 H 0.53681 0.84954 0.08466 0.0
H729 H 0.61887 0.90248 0.12445 0.0
H730 H 0.61673 0.89715 0.26265 0.0
H731 H 0.54962 0.87874 0.25821 0.0
C732 C 0.55437 0.88831 0.9459 0.0
C733 C 0.5687 0.89291 0.88448 0.0
C734 C 0.59011 0.89847 0.89988 0.0
C735 C 0.5972 0.89944 0.97457 0.0
C736 C 0.5827 0.89476 0.03361 0.0
C737 C 0.5617 0.88921 0.0204 0.0
C738 C 0.54926 0.8841 0.09438 0.0
C739 C 0.54113 0.89984 0.10846 0.0
C740 C 0.53076 0.86078 0.09506 0.0
C741 C 0.56653 0.88748 0.15107 0.0
C742 C 0.5857 0.89379 0.11446 0.0
C743 C 0.60394 0.8975 0.15373 0.0
C744 C 0.60252 0.8943 0.23231 0.0
C745 C 0.58297 0.88733 0.27138 0.0
C746 C 0.56481 0.88424 0.2301 0.0
H747 H 0.67418 0.55057 0.58288 0.0
H748 H 0.72098 0.61838 0.58733 0.0
H749 H 0.71825 0.62016 0.44875 0.0
H750 H 0.69206 0.53844 0.41352 0.0
H751 H 0.66586 0.51966 0.37765 0.0
H752 H 0.6702 0.5237 0.47837 0.0
H753 H 0.64002 0.53305 0.48808 0.0
H754 H 0.63545 0.52886 0.3874 0.0
H755 H 0.64106 0.55396 0.42909 0.0
H756 H 0.71283 0.61438 0.30983 0.0
H757 H 0.7029 0.60172 0.17805 0.0
H758 H 0.65888 0.53783 0.26068 0.0
C759 C 0.68349 0.56583 0.55468 0.0
C760 C 0.69796 0.58429 0.59594 0.0
C761 C 0.71009 0.60395 0.55688 0.0
C762 C 0.70857 0.60517 0.47814 0.0
C763 C 0.69469 0.58662 0.43884 0.0
C764 C 0.68214 0.56735 0.47556 0.0
C765 C 0.66899 0.54975 0.41887 0.0
C766 C 0.67462 0.53183 0.42233 0.0
C767 C 0.64495 0.54088 0.43163 0.0
C768 C 0.67641 0.56211 0.34487 0.0
C769 C 0.69125 0.58335 0.35793 0.0
C770 C 0.70108 0.59782 0.29877 0.0
C771 C 0.69549 0.59045 0.22409 0.0
C772 C 0.68013 0.56881 0.20904 0.0
C773 C 0.67047 0.55451 0.2705 0.0
H774 H 0.09163 0.65164 0.55722 0.0
H775 H 0.14218 0.71257 0.47183 0.0
H776 H 0.15127 0.72613 0.60237 0.0
H777 H 0.0748 0.67282 0.70791 0.0
H778 H 0.06978 0.65182 0.77427 0.0
H779 H 0.0674 0.64644 0.67389 0.0
H780 H 0.09454 0.63304 0.68441 0.0
H781 H 0.09702 0.63841 0.78489 0.0
H782 H 0.12049 0.65024 0.72556 0.0
H783 H 0.15429 0.73382 0.74057 0.0
H784 H 0.15104 0.73507 0.87952 0.0
H785 H 0.09939 0.66912 0.87881 0.0
C786 C 0.10476 0.66775 0.56596 0.0
C787 C 0.11603 0.68105 0.50364 0.0
C788 C 0.13297 0.70214 0.51796 0.0
C789 C 0.13841 0.70997 0.59218 0.0
C790 C 0.1269 0.69653 0.65199 0.0
C791 C 0.11047 0.67585 0.64001 0.0
C792 C 0.10042 0.66498 0.7148 0.0
C793 C 0.07669 0.65865 0.71787 0.0
C794 C 0.1033 0.64551 0.72818 0.0
C795 C 0.11367 0.68288 0.7704 0.0
C796 C 0.12886 0.7009 0.73264 0.0
C797 C 0.14253 0.71978 0.77084 0.0
C798 C 0.14051 0.72038 0.84967 0.0
C799 C 0.12499 0.70222 0.88985 0.0
C800 C 0.11158 0.68313 0.84962 0.0
H801 H 0.4213 0.14119 0.18129 0.0
H802 H 0.41117 0.07994 0.26121 0.0
H803 H 0.41119 0.06871 0.12913 0.0
H804 H 0.38843 0.12091 1.00826 0.0
H805 H 0.40644 0.1438 0.95216 0.0
H806 H 0.40421 0.14668 0.05282 0.0
H807 H 0.44506 0.16255 0.06765 0.0
H808 H 0.44742 0.15975 0.96716 0.0
H809 H 0.45724 0.14762 0.03322 0.0
H810 H 0.41429 0.06471 0.99046 0.0
H811 H 0.42117 0.06843 0.85272 0.0
H812 H 0.42908 0.13204 0.85876 0.0
C813 C 0.41873 0.12529 0.17078 0.0
C814 C 0.41626 0.11145 0.23183 0.0
C815 C 0.41335 0.09092 0.21573 0.0
C816 C 0.41316 0.08433 0.14075 0.0
C817 C 0.41587 0.09841 0.08208 0.0
C818 C 0.4186 0.11847 0.09595 0.0
C819 C 0.42231 0.13085 0.02234 0.0
C820 C 0.40427 0.13585 1.00807 0.0
C821 C 0.44432 0.15141 0.02264 0.0
C822 C 0.42155 0.11472 0.96515 0.0
C823 C 0.41765 0.09607 1.00116 0.0
C824 C 0.41719 0.07915 0.96158 0.0
C825 C 0.42118 0.08144 0.88343 0.0
C826 C 0.4256 0.10048 0.84515 0.0
C827 C 0.42539 0.11719 0.88645 0.0
H828 H 0.29064 0.40499 0.5451 0.0
H829 H 0.32775 0.47093 0.62099 0.0
H830 H 0.33609 0.48286 0.48827 0.0
H831 H 0.32481 0.40872 0.39675 0.0
H832 H 0.30384 0.39155 0.33207 0.0
H833 H 0.29938 0.38819 0.43282 0.0
H834 H 0.26612 0.39265 0.41858 0.0
H835 H 0.2705 0.39606 0.31762 0.0
H836 H 0.26878 0.4162 0.37273 0.0
H837 H 0.34294 0.48754 0.34967 0.0
H838 H 0.34782 0.48456 0.21226 0.0
H839 H 0.30523 0.41601 0.22317 0.0
C840 C 0.30018 0.42196 0.53376 0.0
C841 C 0.30862 0.437 0.59379 0.0
C842 C 0.32138 0.45905 0.57635 0.0
C843 C 0.32604 0.46602 0.50099 0.0
C844 C 0.31768 0.45078 0.4434 0.0
C845 C 0.30495 0.42922 0.45864 0.0
C846 C 0.29893 0.41612 0.38608 0.0
C847 C 0.30724 0.40021 0.38701 0.0
C848 C 0.27464 0.40458 0.37299 0.0
C849 C 0.31069 0.43368 0.32793 0.0
C850 C 0.32129 0.45356 0.36245 0.0
C851 C 0.33446 0.47212 0.32181 0.0
C852 C 0.33718 0.47031 0.24407 0.0
C853 C 0.3267 0.45014 0.20765 0.0
C854 C 0.31297 0.43164 0.24977 0.0
H855 H 0.90391 0.35129 0.59833 0.0
H856 H 0.89325 0.28972 0.51891 0.0
H857 H 0.88867 0.27708 0.65111 0.0
H858 H 0.93374 0.3536 0.77075 0.0
H859 H 0.92195 0.36607 0.826 0.0
H860 H 0.92563 0.37079 0.72526 0.0
H861 H 0.88531 0.35784 0.70983 0.0
H862 H 0.88149 0.35308 0.81035 0.0
H863 H 0.86581 0.33175 0.74458 0.0
H864 H 0.88274 0.2702 0.79048 0.0
H865 H 0.87586 0.26957 0.92802 0.0
H866 H 0.8917 0.33589 0.91922 0.0
C867 C 0.90107 0.3353 0.60846 0.0
C868 C 0.89898 0.32155 0.54745 0.0
C869 C 0.89472 0.30054 0.56398 0.0
C870 C 0.89225 0.29325 0.63915 0.0
C871 C 0.89425 0.30717 0.69756 0.0
C872 C 0.89866 0.32779 0.68322 0.0
C873 C 0.89908 0.3392 0.75623 0.0
C874 C 0.92143 0.35856 0.77038 0.0
C875 C 0.8819 0.34585 0.75515 0.0
C876 C 0.89381 0.32162 0.81381 0.0
C877 C 0.89118 0.30332 0.77855 0.0
C878 C 0.88501 0.28451 0.81876 0.0
C879 C 0.8811 0.28428 0.89671 0.0
C880 C 0.88344 0.30272 0.93402 0.0
C881 C 0.89026 0.32175 0.8922 0.0
H882 H 0.14362 0.53437 0.25604 0.0
H883 H 0.16012 0.53266 0.0202 0.0
H884 H 0.16817 0.56982 1.00409 0.0
H885 H 0.11536 0.56037 0.22358 0.0
H886 H 0.12357 0.57629 0.3089 0.0
H887 H 0.12301 0.55112 0.30637 0.0
H888 H 0.16288 0.57008 0.34625 0.0
H889 H 0.16355 0.59539 0.34888 0.0
H890 H 0.18246 0.59234 0.29117 0.0
H891 H 0.1687 0.60458 1.00685 0.0
H892 H 0.16194 0.63453 0.02951 0.0
H893 H 0.1451 0.61421 0.26273 0.0
C894 C 0.1493 0.54191 0.20132 0.0
C895 C 0.15139 0.5305 0.13964 0.0
C896 C 0.15884 0.54107 0.069 0.0
C897 C 0.16338 0.56222 0.0591 0.0
C898 C 0.16054 0.57273 0.12041 0.0
C899 C 0.15381 0.563 0.19036 0.0
C900 C 0.14994 0.57701 0.24475 0.0
C901 C 0.12659 0.56551 0.27247 0.0
C902 C 0.16565 0.58413 0.31173 0.0
C903 C 0.15466 0.59573 0.19347 0.0
C904 C 0.16105 0.59307 0.12225 0.0
C905 C 0.16425 0.60713 0.06287 0.0
C906 C 0.16039 0.62406 0.07613 0.0
C907 C 0.15352 0.62684 0.14818 0.0
C908 C 0.15107 0.61278 0.20794 0.0
H909 H 0.59515 0.11568 0.52755 0.0
H910 H 0.64248 0.18324 0.52382 0.0
H911 H 0.61335 0.19211 0.52184 0.0
H912 H 0.55812 0.11876 0.40046 0.0
H913 H 0.53496 0.09846 0.44977 0.0
H914 H 0.55961 0.09794 0.45181 0.0
H915 H 0.55903 0.09807 0.59893 0.0
H916 H 0.53439 0.09863 0.59736 0.0
H917 H 0.55719 0.11901 0.64807 0.0
H918 H 0.57805 0.19297 0.52505 0.0
H919 H 0.54056 0.1857 0.52291 0.0
H920 H 0.51766 0.11755 0.52079 0.0
C921 C 0.59941 0.13236 0.5269 0.0
C922 C 0.621 0.14882 0.5269 0.0
C923 C 0.62597 0.17044 0.52408 0.0
C924 C 0.60956 0.17558 0.52323 0.0
C925 C 0.58835 0.15888 0.52424 0.0
C926 C 0.58334 0.1377 0.52524 0.0
C927 C 0.55948 0.12259 0.52423 0.0
C928 C 0.55265 0.10862 0.45228 0.0
C929 C 0.5521 0.10877 0.59645 0.0
C930 C 0.55169 0.13848 0.5229 0.0
C931 C 0.56846 0.15936 0.52348 0.0
C932 C 0.56485 0.17667 0.52402 0.0
C933 C 0.54358 0.17243 0.52308 0.0
C934 C 0.52633 0.1511 0.52063 0.0
C935 C 0.53057 0.13403 0.52118 0.0
H936 H 0.47837 0.60617 0.96796 0.0
H937 H 0.4675 0.64402 0.80176 0.0
H938 H 0.42899 0.61686 0.79981 0.0
H939 H 0.44768 0.55837 0.8798 0.0
H940 H 0.43765 0.54255 0.96484 0.0
H941 H 0.46297 0.56697 0.96645 0.0
H942 H 0.44987 0.58127 0.07682 0.0
H943 H 0.42447 0.55674 0.07598 0.0
H944 H 0.42547 0.58209 0.06632 0.0
H945 H 0.39277 0.58267 0.80098 0.0
H946 H 0.36283 0.54503 0.80532 0.0
H947 H 0.39847 0.52932 0.96463 0.0
C948 C 0.46785 0.60902 0.93226 0.0
C949 C 0.47599 0.62723 0.88486 0.0
C950 C 0.46162 0.63036 0.83938 0.0
C951 C 0.43971 0.61495 0.8377 0.0
C952 C 0.43244 0.59661 0.88225 0.0
C953 C 0.44613 0.59372 0.9292 0.0
C954 C 0.43518 0.57165 0.96444 0.0
C955 C 0.44654 0.55916 0.94252 0.0
C956 C 0.43365 0.57303 0.05104 0.0
C957 C 0.4134 0.56217 0.92775 0.0
C958 C 0.41189 0.57688 0.88171 0.0
C959 C 0.39367 0.57118 0.83798 0.0
C960 C 0.37678 0.54985 0.84066 0.0
C961 C 0.37845 0.5346 0.88593 0.0
C962 C 0.39681 0.54092 0.93066 0.0
H963 H 0.86443 0.39366 0.31625 0.0
H964 H 0.81948 0.35801 0.13709 0.0
H965 H 0.81011 0.38662 0.12651 0.0
H966 H 0.83522 0.42011 0.39873 0.0
H967 H 0.8601 0.44457 0.41478 0.0
H968 H 0.85909 0.41913 0.42062 0.0
H969 H 0.88946 0.43209 0.32096 0.0
H970 H 0.89047 0.45739 0.3144 0.0
H971 H 0.88613 0.44155 0.23015 0.0
H972 H 0.81069 0.42213 0.12055 0.0
H973 H 0.82171 0.46065 0.1175 0.0
H974 H 0.86735 0.47303 0.29726 0.0
C975 C 0.85214 0.39158 0.27629 0.0
C976 C 0.84265 0.37365 0.22751 0.0
C977 C 0.82672 0.37149 0.17569 0.0
C978 C 0.82136 0.38769 0.16928 0.0
C979 C 0.8319 0.40575 0.21576 0.0
C980 C 0.84683 0.4076 0.26886 0.0
C981 C 0.85812 0.42958 0.30484 0.0
C982 C 0.8528 0.42826 0.38979 0.0
C983 C 0.88247 0.4408 0.29173 0.0
C984 C 0.84809 0.4403 0.26102 0.0
C985 C 0.83259 0.42622 0.21125 0.0
C986 C 0.82247 0.43313 0.16043 0.0
C987 C 0.82877 0.455 0.15917 0.0
C988 C 0.8453 0.46969 0.20738 0.0
C989 C 0.85456 0.46206 0.26025 0.0
H990 H 0.46729 0.85316 0.42499 0.0
H991 H 0.46237 0.83441 0.66166 0.0
H992 H 0.42524 0.82697 0.66434 0.0
H993 H 0.44299 0.88324 0.45033 0.0
H994 H 0.42966 0.877 0.35966 0.0
H995 H 0.45393 0.87614 0.37093 0.0
H996 H 0.43464 0.83687 0.32329 0.0
H997 H 0.41021 0.83761 0.31205 0.0
H998 H 0.41053 0.81717 0.36982 0.0
H999 H 0.39017 0.82621 0.64689 0.0
H1000 H 0.36198 0.83478 0.61318 0.0
H1001 H 0.39102 0.8567 0.39218 0.0
C1002 C 0.45843 0.84724 0.47736 0.0
C1003 C 0.46801 0.8443 0.5429 0.0
C1004 C 0.4555 0.83634 0.60981 0.0
C1005 C 0.4343 0.83214 0.61211 0.0
C1006 C 0.42571 0.83598 0.54722 0.0
C1007 C 0.43744 0.8434 0.4811 0.0
C1008 C 0.42571 0.84899 0.42239 0.0
C1009 C 0.43885 0.87275 0.39956 0.0
C1010 C 0.41993 0.83428 0.35277 0.0
C1011 C 0.40593 0.84439 0.46682 0.0
C1012 C 0.40589 0.83634 0.53801 0.0
C1013 C 0.38987 0.83218 0.59086 0.0
C1014 C 0.37387 0.83699 0.57122 0.0
C1015 C 0.3743 0.84622 0.49999 0.0
C1016 C 0.39023 0.84941 0.44669 0.0
H1017 H 0.61205 0.46686 0.76019 0.0
H1018 H 0.63104 0.46404 0.99207 0.0
H1019 H 0.60157 0.42703 1.00231 0.0
H1020 H 0.55822 0.44248 0.80136 0.0
H1021 H 0.54918 0.42835 0.71253 0.0
H1022 H 0.57442 0.45283 0.71725 0.0
H1023 H 0.59336 0.43326 0.66275 0.0
H1024 H 0.5681 0.40861 0.65841 0.0
H1025 H 0.5902 0.40964 0.7096 0.0
H1026 H 0.56726 0.3918 0.99429 0.0
H1027 H 0.52977 0.36328 0.97131 0.0
H1028 H 0.5317 0.39012 0.74987 0.0
C1029 C 0.61029 0.45849 0.813 0.0
C1030 C 0.62434 0.46861 0.87472 0.0
C1031 C 0.62116 0.45674 0.9426 0.0
C1032 C 0.60429 0.43559 0.94934 0.0
C1033 C 0.5905 0.42637 0.88806 0.0
C1034 C 0.59326 0.43751 0.82129 0.0
C1035 C 0.57468 0.42514 0.76765 0.0
C1036 C 0.56347 0.43796 0.74865 0.0
C1037 C 0.58203 0.41878 0.69532 0.0
C1038 C 0.56065 0.40573 0.81588 0.0
C1039 C 0.57029 0.4064 0.88437 0.0
C1040 C 0.55971 0.39091 0.94034 0.0
C1041 C 0.5385 0.37472 0.92684 0.0
C1042 C 0.52812 0.37447 0.85859 0.0
C1043 C 0.53953 0.38982 0.80189 0.0
H1044 H 0.26629 0.44145 0.03626 0.0
H1045 H 0.25061 0.43905 0.79743 0.0
H1046 H 0.21576 0.43522 0.83102 0.0
H1047 H 0.21221 0.40389 0.10405 0.0
H1048 H 0.21493 0.41897 0.18901 0.0
H1049 H 0.23814 0.41991 0.14705 0.0
H1050 H 0.25678 0.46123 0.13984 0.0
H1051 H 0.23364 0.46044 0.18162 0.0
H1052 H 0.24364 0.47352 0.0916 0.0
H1053 H 0.18322 0.43234 0.88841 0.0
H1054 H 0.15519 0.43253 0.96678 0.0
H1055 H 0.19184 0.43857 0.16993 0.0
C1056 C 0.25534 0.43982 0.99133 0.0
C1057 C 0.26104 0.44042 0.91423 0.0
C1058 C 0.24655 0.43867 0.8568 0.0
C1059 C 0.22669 0.4364 0.87528 0.0
C1060 C 0.2216 0.43612 0.95155 0.0
C1061 C 0.23549 0.43792 1.00884 0.0
C1062 C 0.22641 0.43844 0.08604 0.0
C1063 C 0.2227 0.41915 0.13438 0.0
C1064 C 0.24099 0.45967 0.12718 0.0
C1065 C 0.20537 0.43678 0.06285 0.0
C1066 C 0.20289 0.4352 0.98499 0.0
C1067 C 0.18491 0.43352 0.9495 0.0
C1068 C 0.16901 0.43358 0.99467 0.0
C1069 C 0.17122 0.43551 0.0746 0.0
C1070 C 0.18969 0.43711 0.10899 0.0
H1071 H 0.81393 0.27616 0.43761 0.0
H1072 H 0.83781 0.25103 0.26299 0.0
H1073 H 0.80716 0.21487 0.28428 0.0
H1074 H 0.79512 0.2309 0.56398 0.0
H1075 H 0.7719 0.23215 0.59371 0.0
H1076 H 0.79568 0.25616 0.56433 0.0
H1077 H 0.77364 0.26321 0.46423 0.0
H1078 H 0.7498 0.23918 0.49314 0.0
H1079 H 0.7581 0.24281 0.39524 0.0
H1080 H 0.77347 0.18134 0.32293 0.0
H1081 H 0.74004 0.15281 0.37989 0.0
H1082 H 0.73848 0.19954 0.53112 0.0
C1083 C 0.81276 0.26307 0.40388 0.0
C1084 C 0.82829 0.26657 0.34821 0.0
C1085 C 0.82612 0.2489 0.30561 0.0
C1086 C 0.80874 0.22823 0.3173 0.0
C1087 C 0.79366 0.22539 0.37213 0.0
C1088 C 0.79555 0.24229 0.41505 0.0
C1089 C 0.77722 0.23483 0.47089 0.0
C1090 C 0.78548 0.23874 0.55309 0.0
C1091 C 0.7639 0.24565 0.45489 0.0
C1092 C 0.76474 0.21113 0.45255 0.0
C1093 C 0.77444 0.20601 0.39521 0.0
C1094 C 0.76577 0.18514 0.36808 0.0
C1095 C 0.74674 0.16904 0.40076 0.0
C1096 C 0.73662 0.17386 0.46022 0.0
C1097 C 0.74581 0.19525 0.48601 0.0
H1098 H 0.54133 0.79742 0.53582 0.0
H1099 H 0.58364 0.84284 0.7043 0.0
H1100 H 0.58965 0.81486 0.75954 0.0
H1101 H 0.51696 0.75175 0.66051 0.0
H1102 H 0.51523 0.73309 0.58894 0.0
H1103 H 0.51445 0.75676 0.5619 0.0
H1104 H 0.54645 0.76749 0.4711 0.0
H1105 H 0.54737 0.74389 0.49806 0.0
H1106 H 0.57088 0.76993 0.50769 0.0
H1107 H 0.5916 0.78217 0.79527 0.0
H1108 H 0.58805 0.74668 0.81299 0.0
H1109 H 0.54376 0.72203 0.62347 0.0
C1110 C 0.55187 0.80151 0.58433 0.0
C1111 C 0.56206 0.8224 0.61556 0.0
C1112 C 0.57564 0.82699 0.67931 0.0
C1113 C 0.5792 0.8112 0.71103 0.0
C1114 C 0.569 0.79084 0.67867 0.0
C1115 C 0.55551 0.7859 0.61702 0.0
C1116 C 0.54626 0.76265 0.5939 0.0
C1117 C 0.52177 0.75034 0.60181 0.0
C1118 C 0.55316 0.7609 0.51288 0.0
C1119 C 0.55666 0.7553 0.65219 0.0
C1120 C 0.5698 0.77186 0.70023 0.0
C1121 C 0.58128 0.76906 0.75818 0.0
C1122 C 0.57916 0.74879 0.76775 0.0
C1123 C 0.56553 0.73143 0.72002 0.0
C1124 C 0.55423 0.73488 0.66124 0.0
H1125 H 0.83263 0.57819 0.06118 0.0
H1126 H 0.81444 0.51462 0.97756 0.0
H1127 H 0.77946 0.50922 0.93979 0.0
H1128 H 0.77927 0.56477 0.13179 0.0
H1129 H 0.78165 0.58973 0.10152 0.0
H1130 H 0.80521 0.58862 0.12757 0.0
H1131 H 0.82211 0.60432 0.9968 0.0
H1132 H 0.79865 0.60553 0.97047 0.0
H1133 H 0.8077 0.59122 0.91151 0.0
H1134 H 0.74767 0.51064 0.9045 0.0
H1135 H 0.72001 0.51934 0.86926 0.0
H1136 H 0.75686 0.58193 0.97397 0.0
C1137 C 0.82117 0.56309 0.03557 0.0
C1138 C 0.82636 0.54684 0.02238 0.0
C1139 C 0.811 0.52739 0.98804 0.0
C1140 C 0.79096 0.52407 0.96665 0.0
C1141 C 0.78637 0.54034 0.97976 0.0
C1142 C 0.80091 0.55951 1.01314 0.0
C1143 C 0.7919 0.57458 0.01666 0.0
C1144 C 0.78936 0.57973 0.09932 0.0
C1145 C 0.80593 0.59513 0.97114 0.0
C1146 C 0.77024 0.56092 0.97893 0.0
C1147 C 0.76751 0.54119 0.95886 0.0
C1148 C 0.74949 0.52597 0.92031 0.0
C1149 C 0.73391 0.53111 0.9003 0.0
C1150 C 0.73631 0.55127 0.91891 0.0
C1151 C 0.75454 0.56629 0.96005 0.0
H1152 H 0.27847 0.81766 0.25663 0.0
H1153 H 0.25374 0.8409 0.43487 0.0
H1154 H 0.21758 0.8105 0.41291 0.0
H1155 H 0.23287 0.80015 0.13144 0.0
H1156 H 0.23379 0.77702 0.09803 0.0
H1157 H 0.25798 0.80049 0.12847 0.0
H1158 H 0.26502 0.77749 0.22433 0.0
H1159 H 0.24083 0.75396 0.19436 0.0
H1160 H 0.24477 0.76151 0.29308 0.0
H1161 H 0.18419 0.777 0.37506 0.0
H1162 H 0.15538 0.74384 0.31783 0.0
H1163 H 0.20104 0.74294 0.15971 0.0
C1164 C 0.26546 0.81636 0.2911 0.0
C1165 C 0.26911 0.83161 0.34829 0.0
C1166 C 0.25153 0.82938 0.3914 0.0
C1167 C 0.23085 0.81214 0.37928 0.0
C1168 C 0.22784 0.79733 0.32311 0.0
C1169 C 0.24459 0.79934 0.27911 0.0
C1170 C 0.23683 0.78139 0.22129 0.0
C1171 C 0.24059 0.7903 0.14 0.0
C1172 C 0.2475 0.76778 0.23406 0.0
C1173 C 0.21316 0.7689 0.24023 0.0
C1174 C 0.20837 0.77833 0.29944 0.0
C1175 C 0.18771 0.76953 0.32828 0.0
C1176 C 0.17145 0.75065 0.29546 0.0
C1177 C 0.17587 0.7408 0.23396 0.0
C1178 C 0.19707 0.75013 0.20624 0.0
H1179 H 0.46169 0.28104 0.60967 0.0
H1180 H 0.4141 0.2563 0.78898 0.0
H1181 H 0.40871 0.22017 0.76812 0.0
H1182 H 0.43472 0.2354 0.48583 0.0
H1183 H 0.45902 0.23664 0.4539 0.0
H1184 H 0.45936 0.26071 0.48347 0.0
H1185 H 0.48915 0.26818 0.58101 0.0
H1186 H 0.48888 0.24412 0.55184 0.0
H1187 H 0.48486 0.24801 0.65018 0.0
H1188 H 0.40863 0.1866 0.72878 0.0
H1189 H 0.41316 0.15794 0.67088 0.0
H1190 H 0.46036 0.20428 0.51589 0.0
C1191 C 0.45014 0.26804 0.64462 0.0
C1192 C 0.43836 0.27162 0.70115 0.0
C1193 C 0.42335 0.25408 0.74534 0.0
C1194 C 0.42017 0.23344 0.734 0.0
C1195 C 0.43206 0.23049 0.67805 0.0
C1196 C 0.44669 0.24728 0.63385 0.0
C1197 C 0.45722 0.23971 0.57695 0.0
C1198 C 0.45228 0.24333 0.4952 0.0
C1199 C 0.48147 0.25066 0.59086 0.0
C1200 C 0.44622 0.21606 0.59608 0.0
C1201 C 0.43182 0.21109 0.65476 0.0
C1202 C 0.41983 0.19029 0.68264 0.0
C1203 C 0.42253 0.17411 0.64939 0.0
C1204 C 0.43706 0.17878 0.58863 0.0
C1205 C 0.44907 0.20011 0.56206 0.0
loop_
_geom_bond_atom_site_label_1
_geom_bond_atom_site_label_2
_geom_bond_distance
_geom_bond_site_symmetry_2
_ccdc_geom_bond_type
Co0 N4 2.148 . S
Co0 N10 2.128 . S
Co0 N20 2.194 . S
Co0 O25 2.351 . S
Co0 O26 2.155 . S
Co0 O27 2.096 . S
C1 N4 1.301 . S
C1 N5 1.328 . S
C1 H6 0.930 . S
C2 C3 1.333 . S
C2 N4 1.317 . S
C2 H7 0.930 . S
C3 C2 1.333 . S
C3 N5 1.350 . S
C3 H29 0.931 . S
N4 Co0 2.148 . S
N4 C1 1.301 . S
N4 C2 1.317 . S
N5 C1 1.328 . S
N5 C3 1.350 . S
H6 C1 0.930 . S
H7 C2 0.930 . S
C8 O9 1.224 . S
C8 O27 1.247 . S
O9 C8 1.224 . S
N10 Co0 2.128 . S
N10 C11 1.355 1_554 S
N10 C13 1.311 1_554 S
C11 N10 1.355 1_556 S
C11 C12 1.363 . S
C11 H23 0.929 1_556 S
C12 C11 1.363 . S
C12 N14 1.375 . S
C12 H30 0.931 . S
C13 N10 1.311 1_556 S
C13 N14 1.347 . S
C13 H24 0.929 . S
N14 C12 1.375 . S
N14 C13 1.347 . S
C15 C18 1.365 . S
C15 N20 1.328 . S
C15 H21 0.929 . S
C16 C17 1.362 . S
C16 C19 1.378 . S
C16 H31 0.929 . S
C17 C16 1.362 . S
C17 C18 1.366 . S
C18 C15 1.365 . S
C18 C17 1.366 . S
C18 H32 0.930 . S
C19 C16 1.378 . S
C19 N20 1.315 . S
C19 H22 0.930 . S
N20 Co0 2.194 . S
N20 C15 1.328 . S
N20 C19 1.315 . S
H21 C15 0.929 . S
H22 C19 0.930 . S
H23 C11 0.929 1_554 S
H24 C13 0.929 . S
O25 Co0 2.351 . S
O25 C28 1.244 . S
O26 Co0 2.155 . S
O26 C28 1.240 . S
O27 Co0 2.096 . S
O27 C8 1.247 . S
C28 O25 1.244 . S
C28 O26 1.240 . S
H29 C3 0.931 . S
H30 C12 0.931 . S
H31 C16 0.929 . S
H32 C18 0.930 . S
Co33 N37 2.148 . S
Co33 N43 2.128 . S
Co33 N53 2.194 . S
Co33 O58 2.351 . S
Co33 O59 2.155 . S
Co33 O60 2.096 . S
C34 N37 1.301 . S
C34 N38 1.328 . S
C34 H39 0.930 . S
C35 C36 1.333 . S
C35 N37 1.317 . S
C35 H40 0.930 . S
C36 C35 1.333 . S
C36 N38 1.350 . S
C36 H62 0.931 . S
N37 Co33 2.148 . S
N37 C34 1.301 . S
N37 C35 1.317 . S
N38 C34 1.328 . S
N38 C36 1.350 . S
H39 C34 0.930 . S
H40 C35 0.930 . S
C41 O42 1.224 . S
C41 O60 1.247 . S
O42 C41 1.224 . S
N43 Co33 2.128 . S
N43 C44 1.355 . S
N43 C46 1.311 . S
C44 N43 1.355 . S
C44 C45 1.363 . S
C44 H56 0.929 . S
C45 C44 1.363 . S
C45 N47 1.375 . S
C45 H63 0.931 . S
C46 N43 1.311 . S
C46 N47 1.347 . S
C46 H57 0.929 . S
N47 C45 1.375 . S
N47 C46 1.347 . S
C48 C51 1.365 . S
C48 N53 1.328 . S
C48 H54 0.929 . S
C49 C50 1.362 . S
C49 C52 1.378 . S
C49 H64 0.929 . S
C50 C49 1.362 . S
C50 C51 1.366 . S
C51 C48 1.365 . S
C51 C50 1.366 . S
C51 H65 0.930 . S
C52 C49 1.378 . S
C52 N53 1.315 . S
C52 H55 0.930 . S
N53 Co33 2.194 . S
N53 C48 1.328 . S
N53 C52 1.315 . S
H54 C48 0.929 . S
H55 C52 0.930 . S
H56 C44 0.929 . S
H57 C46 0.929 . S
O58 Co33 2.351 . S
O58 C61 1.244 . S
O59 Co33 2.155 . S
O59 C61 1.240 . S
O60 Co33 2.096 . S
O60 C41 1.247 . S
C61 O58 1.244 . S
C61 O59 1.240 . S
H62 C36 0.931 . S
H63 C45 0.931 . S
H64 C49 0.929 . S
H65 C51 0.930 . S
Co66 N70 2.148 . S
Co66 N76 2.128 . S
Co66 N86 2.194 . S
Co66 O91 2.351 . S
Co66 O92 2.155 . S
Co66 O93 2.096 . S
C67 N70 1.301 . S
C67 N71 1.328 1_556 S
C67 H72 0.930 . S
C68 C69 1.333 1_556 S
C68 N70 1.317 . S
C68 H73 0.930 . S
C69 C68 1.333 1_554 S
C69 N71 1.350 . S
C69 H95 0.931 . S
N70 Co66 2.148 . S
N70 C67 1.301 . S
N70 C68 1.317 . S
N71 C67 1.328 1_554 S
N71 C69 1.350 . S
H72 C67 0.930 . S
H73 C68 0.930 . S
C74 O75 1.224 . S
C74 O93 1.247 . S
O75 C74 1.224 . S
N76 Co66 2.128 . S
N76 C77 1.355 . S
N76 C79 1.311 . S
C77 N76 1.355 . S
C77 C78 1.363 . S
C77 H89 0.929 . S
C78 C77 1.363 . S
C78 N80 1.375 . S
C78 H96 0.931 . S
C79 N76 1.311 . S
C79 N80 1.347 . S
C79 H90 0.929 . S
N80 C78 1.375 . S
N80 C79 1.347 . S
C81 C84 1.365 . S
C81 N86 1.328 . S
C81 H87 0.929 . S
C82 C83 1.362 . S
C82 C85 1.378 . S
C82 H97 0.929 . S
C83 C82 1.362 . S
C83 C84 1.366 . S
C84 C81 1.365 . S
C84 C83 1.366 . S
C84 H98 0.930 . S
C85 C82 1.378 . S
C85 N86 1.315 . S
C85 H88 0.930 . S
N86 Co66 2.194 . S
N86 C81 1.328 . S
N86 C85 1.315 . S
H87 C81 0.929 . S
H88 C85 0.930 . S
H89 C77 0.929 . S
H90 C79 0.929 . S
O91 Co66 2.351 . S
O91 C94 1.244 . S
O92 Co66 2.155 . S
O92 C94 1.240 . S
O93 Co66 2.096 . S
O93 C74 1.247 . S
C94 O91 1.244 . S
C94 O92 1.240 . S
H95 C69 0.931 . S
H96 C78 0.931 . S
H97 C82 0.929 . S
H98 C84 0.930 . S
Co99 N103 2.148 . S
Co99 N109 2.128 . S
Co99 N119 2.194 . S
Co99 O124 2.351 . S
Co99 O125 2.155 . S
Co99 O126 2.096 . S
C100 N103 1.301 . S
C100 N104 1.328 . S
C100 H105 0.930 . S
C101 C102 1.333 . S
C101 N103 1.317 . S
C101 H106 0.930 . S
C102 C101 1.333 . S
C102 N104 1.350 . S
C102 H128 0.931 . S
N103 Co99 2.148 . S
N103 C100 1.301 . S
N103 C101 1.317 . S
N104 C100 1.328 . S
N104 C102 1.350 . S
H105 C100 0.930 . S
H106 C101 0.930 . S
C107 O108 1.224 . S
C107 O126 1.247 . S
O108 C107 1.224 . S
N109 Co99 2.128 . S
N109 C110 1.355 1_554 S
N109 C112 1.311 1_554 S
C110 N109 1.355 1_556 S
C110 C111 1.363 . S
C110 H122 0.929 1_556 S
C111 C110 1.363 . S
C111 N113 1.375 . S
C111 H129 0.931 . S
C112 N109 1.311 1_556 S
C112 N113 1.347 . S
C112 H123 0.929 . S
N113 C111 1.375 . S
N113 C112 1.347 . S
C114 C117 1.365 . S
C114 N119 1.328 . S
C114 H120 0.929 . S
C115 C116 1.362 . S
C115 C118 1.378 . S
C115 H130 0.929 . S
C116 C115 1.362 . S
C116 C117 1.366 . S
C117 C114 1.365 . S
C117 C116 1.366 . S
C117 H131 0.930 . S
C118 C115 1.378 . S
C118 N119 1.315 . S
C118 H121 0.930 . S
N119 Co99 2.194 . S
N119 C114 1.328 . S
N119 C118 1.315 . S
H120 C114 0.929 . S
H121 C118 0.930 . S
H122 C110 0.929 1_554 S
H123 C112 0.929 . S
O124 Co99 2.351 . S
O124 C127 1.244 . S
O125 Co99 2.155 . S
O125 C127 1.240 . S
O126 Co99 2.096 . S
O126 C107 1.247 . S
C127 O124 1.244 . S
C127 O125 1.240 . S
H128 C102 0.931 . S
H129 C111 0.931 . S
H130 C115 0.929 . S
H131 C117 0.930 . S
Co132 N136 2.148 . S
Co132 N142 2.128 . S
Co132 N152 2.194 . S
Co132 O157 2.351 . S
Co132 O158 2.155 . S
Co132 O159 2.096 . S
C133 N136 1.301 . S
C133 N137 1.328 . S
C133 H138 0.930 . S
C134 C135 1.333 . S
C134 N136 1.317 . S
C134 H139 0.930 . S
C135 C134 1.333 . S
C135 N137 1.350 . S
C135 H161 0.931 . S
N136 Co132 2.148 . S
N136 C133 1.301 . S
N136 C134 1.317 . S
N137 C133 1.328 . S
N137 C135 1.350 . S
H138 C133 0.930 . S
H139 C134 0.930 . S
C140 O141 1.224 . S
C140 O159 1.247 . S
O141 C140 1.224 . S
N142 Co132 2.128 . S
N142 C143 1.355 . S
N142 C145 1.311 . S
C143 N142 1.355 . S
C143 C144 1.363 . S
C143 H155 0.929 . S
C144 C143 1.363 . S
C144 N146 1.375 . S
C144 H162 0.931 . S
C145 N142 1.311 . S
C145 N146 1.347 . S
C145 H156 0.929 . S
N146 C144 1.375 . S
N146 C145 1.347 . S
C147 C150 1.365 . S
C147 N152 1.328 . S
C147 H153 0.929 . S
C148 C149 1.362 . S
C148 C151 1.378 . S
C148 H163 0.929 . S
C149 C148 1.362 . S
C149 C150 1.366 . S
C150 C147 1.365 . S
C150 C149 1.366 . S
C150 H164 0.930 . S
C151 C148 1.378 . S
C151 N152 1.315 . S
C151 H154 0.930 . S
N152 Co132 2.194 . S
N152 C147 1.328 . S
N152 C151 1.315 . S
H153 C147 0.929 . S
H154 C151 0.930 . S
H155 C143 0.929 . S
H156 C145 0.929 . S
O157 Co132 2.351 . S
O157 C160 1.244 . S
O158 Co132 2.155 . S
O158 C160 1.240 . S
O159 Co132 2.096 . S
O159 C140 1.247 . S
C160 O157 1.244 . S
C160 O158 1.240 . S
H161 C135 0.931 . S
H162 C144 0.931 . S
H163 C148 0.929 . S
H164 C150 0.930 . S
Co165 N169 2.148 . S
Co165 N175 2.128 . S
Co165 N185 2.194 . S
Co165 O190 2.351 . S
Co165 O191 2.155 . S
Co165 O192 2.096 . S
C166 N169 1.301 . S
C166 N170 1.328 1_556 S
C166 H171 0.930 . S
C167 C168 1.333 1_556 S
C167 N169 1.317 . S
C167 H172 0.930 . S
C168 C167 1.333 1_554 S
C168 N170 1.350 . S
C168 H194 0.931 . S
N169 Co165 2.148 . S
N169 C166 1.301 . S
N169 C167 1.317 . S
N170 C166 1.328 1_554 S
N170 C168 1.350 . S
H171 C166 0.930 . S
H172 C167 0.930 . S
C173 O174 1.224 . S
C173 O192 1.247 . S
O174 C173 1.224 . S
N175 Co165 2.128 . S
N175 C176 1.355 . S
N175 C178 1.311 . S
C176 N175 1.355 . S
C176 C177 1.363 . S
C176 H188 0.929 . S
C177 C176 1.363 . S
C177 N179 1.375 . S
C177 H195 0.931 . S
C178 N175 1.311 . S
C178 N179 1.347 . S
C178 H189 0.929 . S
N179 C177 1.375 . S
N179 C178 1.347 . S
C180 C183 1.365 . S
C180 N185 1.328 . S
C180 H186 0.929 . S
C181 C182 1.362 . S
C181 C184 1.378 . S
C181 H196 0.929 . S
C182 C181 1.362 . S
C182 C183 1.366 . S
C183 C180 1.365 . S
C183 C182 1.366 . S
C183 H197 0.930 . S
C184 C181 1.378 . S
C184 N185 1.315 . S
C184 H187 0.930 . S
N185 Co165 2.194 . S
N185 C180 1.328 . S
N185 C184 1.315 . S
H186 C180 0.929 . S
H187 C184 0.930 . S
H188 C176 0.929 . S
H189 C178 0.929 . S
O190 Co165 2.351 . S
O190 C193 1.244 . S
O191 Co165 2.155 . S
O191 C193 1.240 . S
O192 Co165 2.096 . S
O192 C173 1.247 . S
C193 O190 1.244 . S
C193 O191 1.240 . S
H194 C168 0.931 . S
H195 C177 0.931 . S
H196 C181 0.929 . S
H197 C183 0.930 . S
Co198 N202 2.148 . S
Co198 N208 2.128 . S
Co198 N218 2.194 . S
Co198 O223 2.351 . S
Co198 O224 2.155 . S
Co198 O225 2.096 . S
C199 N202 1.301 . S
C199 N203 1.328 . S
C199 H204 0.930 . S
C200 C201 1.333 . S
C200 N202 1.317 . S
C200 H205 0.930 . S
C201 C200 1.333 . S
C201 N203 1.350 . S
C201 H227 0.931 . S
N202 Co198 2.148 . S
N202 C199 1.301 . S
N202 C200 1.317 . S
N203 C199 1.328 . S
N203 C201 1.350 . S
H204 C199 0.930 . S
H205 C200 0.930 . S
C206 O207 1.224 . S
C206 O225 1.247 . S
O207 C206 1.224 . S
N208 Co198 2.128 . S
N208 C209 1.355 . S
N208 C211 1.311 . S
C209 N208 1.355 . S
C209 C210 1.363 . S
C209 H221 0.929 . S
C210 C209 1.363 . S
C210 N212 1.375 . S
C210 H228 0.931 . S
C211 N208 1.311 . S
C211 N212 1.347 . S
C211 H222 0.929 . S
N212 C210 1.375 . S
N212 C211 1.347 . S
C213 C216 1.365 . S
C213 N218 1.328 . S
C213 H219 0.929 . S
C214 C215 1.362 . S
C214 C217 1.378 . S
C214 H229 0.929 . S
C215 C214 1.362 . S
C215 C216 1.366 . S
C216 C213 1.365 . S
C216 C215 1.366 . S
C216 H230 0.930 . S
C217 C214 1.378 . S
C217 N218 1.315 . S
C217 H220 0.930 . S
N218 Co198 2.194 . S
N218 C213 1.328 . S
N218 C217 1.315 . S
H219 C213 0.929 . S
H220 C217 0.930 . S
H221 C209 0.929 . S
H222 C211 0.929 . S
O223 Co198 2.351 . S
O223 C226 1.244 . S
O224 Co198 2.155 . S
O224 C226 1.240 . S
O225 Co198 2.096 . S
O225 C206 1.247 . S
C226 O223 1.244 . S
C226 O224 1.240 . S
H227 C201 0.931 . S
H228 C210 0.931 . S
H229 C214 0.929 . S
H230 C216 0.930 . S
Co231 N235 2.148 . S
Co231 N241 2.128 . S
Co231 N251 2.194 . S
Co231 O256 2.351 . S
Co231 O257 2.155 . S
Co231 O258 2.096 . S
C232 N235 1.301 . S
C232 N236 1.328 . S
C232 H237 0.930 . S
C233 C234 1.333 . S
C233 N235 1.317 . S
C233 H238 0.930 . S
C234 C233 1.333 . S
C234 N236 1.350 . S
C234 H260 0.931 . S
N235 Co231 2.148 . S
N235 C232 1.301 . S
N235 C233 1.317 . S
N236 C232 1.328 . S
N236 C234 1.350 . S
H237 C232 0.930 . S
H238 C233 0.930 . S
C239 O240 1.224 . S
C239 O258 1.247 . S
O240 C239 1.224 . S
N241 Co231 2.128 . S
N241 C242 1.355 1_556 S
N241 C244 1.311 1_556 S
C242 N241 1.355 1_554 S
C242 C243 1.363 . S
C242 H254 0.929 1_554 S
C243 C242 1.363 . S
C243 N245 1.375 . S
C243 H261 0.931 . S
C244 N241 1.311 1_554 S
C244 N245 1.347 . S
C244 H255 0.929 . S
N245 C243 1.375 . S
N245 C244 1.347 . S
C246 C249 1.365 . S
C246 N251 1.328 . S
C246 H252 0.929 . S
C247 C248 1.362 . S
C247 C250 1.378 . S
C247 H262 0.929 . S
C248 C247 1.362 . S
C248 C249 1.366 . S
C249 C246 1.365 . S
C249 C248 1.366 . S
C249 H263 0.930 . S
C250 C247 1.378 . S
C250 N251 1.315 . S
C250 H253 0.930 . S
N251 Co231 2.194 . S
N251 C246 1.328 . S
N251 C250 1.315 . S
H252 C246 0.929 . S
H253 C250 0.930 . S
H254 C242 0.929 1_556 S
H255 C244 0.929 . S
O256 Co231 2.351 . S
O256 C259 1.244 . S
O257 Co231 2.155 . S
O257 C259 1.240 . S
O258 Co231 2.096 . S
O258 C239 1.247 . S
C259 O256 1.244 . S
C259 O257 1.240 . S
H260 C234 0.931 . S
H261 C243 0.931 . S
H262 C247 0.929 . S
H263 C249 0.930 . S
Co264 N268 2.148 . S
Co264 N274 2.128 . S
Co264 N284 2.194 . S
Co264 O289 2.351 . S
Co264 O290 2.155 . S
Co264 O291 2.096 . S
C265 N268 1.301 . S
C265 N269 1.328 1_554 S
C265 H270 0.930 . S
C266 C267 1.333 1_554 S
C266 N268 1.317 . S
C266 H271 0.930 . S
C267 C266 1.333 1_556 S
C267 N269 1.350 . S
C267 H293 0.931 . S
N268 Co264 2.148 . S
N268 C265 1.301 . S
N268 C266 1.317 . S
N269 C265 1.328 1_556 S
N269 C267 1.350 . S
H270 C265 0.930 . S
H271 C266 0.930 . S
C272 O273 1.224 . S
C272 O291 1.247 . S
O273 C272 1.224 . S
N274 Co264 2.128 . S
N274 C275 1.355 . S
N274 C277 1.311 . S
C275 N274 1.355 . S
C275 C276 1.363 . S
C275 H287 0.929 . S
C276 C275 1.363 . S
C276 N278 1.375 . S
C276 H294 0.931 . S
C277 N274 1.311 . S
C277 N278 1.347 . S
C277 H288 0.929 . S
N278 C276 1.375 . S
N278 C277 1.347 . S
C279 C282 1.365 . S
C279 N284 1.328 . S
C279 H285 0.929 . S
C280 C281 1.362 . S
C280 C283 1.378 . S
C280 H295 0.929 . S
C281 C280 1.362 . S
C281 C282 1.366 . S
C282 C279 1.365 . S
C282 C281 1.366 . S
C282 H296 0.930 . S
C283 C280 1.378 . S
C283 N284 1.315 . S
C283 H286 0.930 . S
N284 Co264 2.194 . S
N284 C279 1.328 . S
N284 C283 1.315 . S
H285 C279 0.929 . S
H286 C283 0.930 . S
H287 C275 0.929 . S
H288 C277 0.929 . S
O289 Co264 2.351 . S
O289 C292 1.244 . S
O290 Co264 2.155 . S
O290 C292 1.240 . S
O291 Co264 2.096 . S
O291 C272 1.247 . S
C292 O289 1.244 . S
C292 O290 1.240 . S
H293 C267 0.931 . S
H294 C276 0.931 . S
H295 C280 0.929 . S
H296 C282 0.930 . S
Co297 N301 2.148 . S
Co297 N307 2.128 . S
Co297 N317 2.194 . S
Co297 O322 2.351 . S
Co297 O323 2.155 . S
Co297 O324 2.096 . S
C298 N301 1.301 . S
C298 N302 1.328 . S
C298 H303 0.930 . S
C299 C300 1.333 . S
C299 N301 1.317 . S
C299 H304 0.930 . S
C300 C299 1.333 . S
C300 N302 1.350 . S
C300 H326 0.931 . S
N301 Co297 2.148 . S
N301 C298 1.301 . S
N301 C299 1.317 . S
N302 C298 1.328 . S
N302 C300 1.350 . S
H303 C298 0.930 . S
H304 C299 0.930 . S
C305 O306 1.224 . S
C305 O324 1.247 . S
O306 C305 1.224 . S
N307 Co297 2.128 . S
N307 C308 1.355 . S
N307 C310 1.311 . S
C308 N307 1.355 . S
C308 C309 1.363 . S
C308 H320 0.929 . S
C309 C308 1.363 . S
C309 N311 1.375 . S
C309 H327 0.931 . S
C310 N307 1.311 . S
C310 N311 1.347 . S
C310 H321 0.929 . S
N311 C309 1.375 . S
N311 C310 1.347 . S
C312 C315 1.365 . S
C312 N317 1.328 . S
C312 H318 0.929 . S
C313 C314 1.362 . S
C313 C316 1.378 . S
C313 H328 0.929 . S
C314 C313 1.362 . S
C314 C315 1.366 . S
C315 C312 1.365 . S
C315 C314 1.366 . S
C315 H329 0.930 . S
C316 C313 1.378 . S
C316 N317 1.315 . S
C316 H319 0.930 . S
N317 Co297 2.194 . S
N317 C312 1.328 . S
N317 C316 1.315 . S
H318 C312 0.929 . S
H319 C316 0.930 . S
H320 C308 0.929 . S
H321 C310 0.929 . S
O322 Co297 2.351 . S
O322 C325 1.244 . S
O323 Co297 2.155 . S
O323 C325 1.240 . S
O324 Co297 2.096 . S
O324 C305 1.247 . S
C325 O322 1.244 . S
C325 O323 1.240 . S
H326 C300 0.931 . S
H327 C309 0.931 . S
H328 C313 0.929 . S
H329 C315 0.930 . S
Co330 N334 2.148 . S
Co330 N340 2.128 . S
Co330 N350 2.194 . S
Co330 O355 2.351 . S
Co330 O356 2.155 . S
Co330 O357 2.096 . S
C331 N334 1.301 . S
C331 N335 1.328 . S
C331 H336 0.930 . S
C332 C333 1.333 . S
C332 N334 1.317 . S
C332 H337 0.930 . S
C333 C332 1.333 . S
C333 N335 1.350 . S
C333 H359 0.931 . S
N334 Co330 2.148 . S
N334 C331 1.301 . S
N334 C332 1.317 . S
N335 C331 1.328 . S
N335 C333 1.350 . S
H336 C331 0.930 . S
H337 C332 0.930 . S
C338 O339 1.224 . S
C338 O357 1.247 . S
O339 C338 1.224 . S
N340 Co330 2.128 . S
N340 C341 1.355 1_556 S
N340 C343 1.311 1_556 S
C341 N340 1.355 1_554 S
C341 C342 1.363 . S
C341 H353 0.929 1_554 S
C342 C341 1.363 . S
C342 N344 1.375 . S
C342 H360 0.931 . S
C343 N340 1.311 1_554 S
C343 N344 1.347 . S
C343 H354 0.929 . S
N344 C342 1.375 . S
N344 C343 1.347 . S
C345 C348 1.365 . S
C345 N350 1.328 . S
C345 H351 0.929 . S
C346 C347 1.362 . S
C346 C349 1.378 . S
C346 H361 0.929 . S
C347 C346 1.362 . S
C347 C348 1.366 . S
C348 C345 1.365 . S
C348 C347 1.366 . S
C348 H362 0.930 . S
C349 C346 1.378 . S
C349 N350 1.315 . S
C349 H352 0.930 . S
N350 Co330 2.194 . S
N350 C345 1.328 . S
N350 C349 1.315 . S
H351 C345 0.929 . S
H352 C349 0.930 . S
H353 C341 0.929 1_556 S
H354 C343 0.929 . S
O355 Co330 2.351 . S
O355 C358 1.244 . S
O356 Co330 2.155 . S
O356 C358 1.240 . S
O357 Co330 2.096 . S
O357 C338 1.247 . S
C358 O355 1.244 . S
C358 O356 1.240 . S
H359 C333 0.931 . S
H360 C342 0.931 . S
H361 C346 0.929 . S
H362 C348 0.930 . S
Co363 N367 2.148 . S
Co363 N373 2.128 . S
Co363 N383 2.194 . S
Co363 O388 2.351 . S
Co363 O389 2.155 . S
Co363 O390 2.096 . S
C364 N367 1.301 . S
C364 N368 1.328 1_554 S
C364 H369 0.930 . S
C365 C366 1.333 1_554 S
C365 N367 1.317 . S
C365 H370 0.930 . S
C366 C365 1.333 1_556 S
C366 N368 1.350 . S
C366 H392 0.931 . S
N367 Co363 2.148 . S
N367 C364 1.301 . S
N367 C365 1.317 . S
N368 C364 1.328 1_556 S
N368 C366 1.350 . S
H369 C364 0.930 . S
H370 C365 0.930 . S
C371 O372 1.224 . S
C371 O390 1.247 . S
O372 C371 1.224 . S
N373 Co363 2.128 . S
N373 C374 1.355 . S
N373 C376 1.311 . S
C374 N373 1.355 . S
C374 C375 1.363 . S
C374 H386 0.929 . S
C375 C374 1.363 . S
C375 N377 1.375 . S
C375 H393 0.931 . S
C376 N373 1.311 . S
C376 N377 1.347 . S
C376 H387 0.929 . S
N377 C375 1.375 . S
N377 C376 1.347 . S
C378 C381 1.365 . S
C378 N383 1.328 . S
C378 H384 0.929 . S
C379 C380 1.362 . S
C379 C382 1.378 . S
C379 H394 0.929 . S
C380 C379 1.362 . S
C380 C381 1.366 . S
C381 C378 1.365 . S
C381 C380 1.366 . S
C381 H395 0.930 . S
C382 C379 1.378 . S
C382 N383 1.315 . S
C382 H385 0.930 . S
N383 Co363 2.194 . S
N383 C378 1.328 . S
N383 C382 1.315 . S
H384 C378 0.929 . S
H385 C382 0.930 . S
H386 C374 0.929 . S
H387 C376 0.929 . S
O388 Co363 2.351 . S
O388 C391 1.244 . S
O389 Co363 2.155 . S
O389 C391 1.240 . S
O390 Co363 2.096 . S
O390 C371 1.247 . S
C391 O388 1.244 . S
C391 O389 1.240 . S
H392 C366 0.931 . S
H393 C375 0.931 . S
H394 C379 0.929 . S
H395 C381 0.930 . S
H396 C408 0.930 . S
H397 C410 0.930 . S
H398 C411 0.930 . S
H399 C415 0.959 . S
H400 C415 0.959 . S
H401 C415 0.961 1_455 S
H402 C416 0.960 1_456 S
H403 C416 0.961 1_556 S
H404 C416 0.959 . S
H405 C419 0.929 . S
H406 C420 0.931 . S
H407 C422 0.930 . S
C408 H396 0.930 . S
C408 C409 1.399 . S
C408 C413 1.399 . S
C409 C408 1.399 . S
C409 C410 1.376 . S
C410 H397 0.930 . S
C410 C409 1.376 . S
C410 C411 1.388 . S
C411 H398 0.930 . S
C411 C410 1.388 . S
C411 C412 1.390 . S
C412 C411 1.390 . S
C412 C413 1.394 . S
C412 C418 1.465 1_455 S
C413 C408 1.399 . S
C413 C412 1.394 . S
C413 C414 1.516 1_455 S
C414 C413 1.516 1_655 S
C414 C415 1.502 . S
C414 C416 1.561 . S
C414 C417 1.526 . S
C415 H399 0.959 . S
C415 H400 0.959 . S
C415 H401 0.961 1_655 S
C415 C414 1.502 . S
C416 H402 0.960 1_654 S
C416 H403 0.961 1_554 S
C416 H404 0.959 . S
C416 C414 1.561 . S
C417 C414 1.526 . S
C417 C418 1.396 . S
C417 C422 1.390 . S
C418 C412 1.465 1_655 S
C418 C417 1.396 . S
C418 C419 1.399 . S
C419 H405 0.929 . S
C419 C418 1.399 . S
C419 C420 1.385 . S
C420 H406 0.931 . S
C420 C419 1.385 . S
C420 C421 1.389 . S
C421 C420 1.389 . S
C421 C422 1.387 . S
C422 H407 0.930 . S
C422 C417 1.390 . S
C422 C421 1.387 . S
H423 C435 0.930 . S
H424 C437 0.930 . S
H425 C438 0.930 . S
H426 C442 0.946 1_565 S
H427 C442 0.959 1_565 S
H428 C442 0.961 . S
H429 C443 0.960 . S
H430 C443 0.961 1_565 S
H431 C443 0.945 . S
H432 C446 0.929 . S
H433 C447 0.931 . S
H434 C449 0.930 . S
C435 H423 0.930 . S
C435 C436 1.399 . S
C435 C440 1.399 . S
C436 C435 1.399 . S
C436 C437 1.376 . S
C437 H424 0.930 . S
C437 C436 1.376 . S
C437 C438 1.388 . S
C438 H425 0.930 . S
C438 C437 1.388 . S
C438 C439 1.390 . S
C439 C438 1.390 . S
C439 C440 1.394 . S
C439 C445 1.465 1_545 S
C440 C435 1.399 . S
C440 C439 1.394 . S
C440 C441 1.516 . S
C441 C440 1.516 . S
C441 C442 1.502 . S
C441 C443 1.561 . S
C441 C444 1.526 1_545 S
C442 H426 0.946 1_545 S
C442 H427 0.959 1_545 S
C442 H428 0.961 . S
C442 C441 1.502 . S
C443 H429 0.960 . S
C443 H430 0.961 1_545 S
C443 H431 0.945 . S
C443 C441 1.561 . S
C444 C441 1.526 1_565 S
C444 C445 1.396 . S
C444 C449 1.390 . S
C445 C439 1.465 1_565 S
C445 C444 1.396 . S
C445 C446 1.399 . S
C446 H432 0.929 . S
C446 C445 1.399 . S
C446 C447 1.385 . S
C447 H433 0.931 . S
C447 C446 1.385 . S
C447 C448 1.389 . S
C448 C447 1.389 . S
C448 C449 1.387 . S
C449 H434 0.930 . S
C449 C444 1.390 . S
C449 C448 1.387 . S
H450 C462 0.930 . S
H451 C464 0.930 . S
H452 C465 0.930 . S
H453 C469 0.959 . S
H454 C469 0.959 . S
H455 C469 0.961 . S
H456 C470 0.960 . S
H457 C470 0.961 . S
H458 C470 0.959 . S
H459 C473 0.929 . S
H460 C474 0.931 . S
H461 C476 0.930 . S
C462 H450 0.930 . S
C462 C463 1.399 . S
C462 C467 1.399 . S
C463 C462 1.399 . S
C463 C464 1.376 . S
C464 H451 0.930 . S
C464 C463 1.376 . S
C464 C465 1.388 . S
C465 H452 0.930 . S
C465 C464 1.388 . S
C465 C466 1.390 . S
C466 C465 1.390 . S
C466 C467 1.394 . S
C466 C472 1.465 . S
C467 C462 1.399 . S
C467 C466 1.394 . S
C467 C468 1.516 . S
C468 C467 1.516 . S
C468 C469 1.502 . S
C468 C470 1.561 . S
C468 C471 1.526 . S
C469 H453 0.959 . S
C469 H454 0.959 . S
C469 H455 0.961 . S
C469 C468 1.502 . S
C470 H456 0.960 . S
C470 H457 0.961 . S
C470 H458 0.959 . S
C470 C468 1.561 . S
C471 C468 1.526 . S
C471 C472 1.396 . S
C471 C476 1.390 . S
C472 C466 1.465 . S
C472 C471 1.396 . S
C472 C473 1.399 . S
C473 H459 0.929 . S
C473 C472 1.399 . S
C473 C474 1.385 . S
C474 H460 0.931 . S
C474 C473 1.385 . S
C474 C475 1.389 . S
C475 C474 1.389 . S
C475 C476 1.387 . S
C476 H461 0.930 . S
C476 C471 1.390 . S
C476 C475 1.387 . S
H477 C489 0.930 . S
H478 C491 0.930 . S
H479 C492 0.930 . S
H480 C496 0.959 . S
H481 C496 0.959 . S
H482 C496 0.961 1_455 S
H483 C497 0.960 1_455 S
H484 C497 0.961 . S
H485 C497 0.959 . S
H486 C500 0.929 . S
H487 C501 0.931 . S
H488 C503 0.930 . S
C489 H477 0.930 . S
C489 C490 1.399 . S
C489 C494 1.399 . S
C490 C489 1.399 . S
C490 C491 1.376 . S
C491 H478 0.930 . S
C491 C490 1.376 . S
C491 C492 1.388 . S
C492 H479 0.930 . S
C492 C491 1.388 . S
C492 C493 1.390 . S
C493 C492 1.390 . S
C493 C494 1.394 . S
C493 C499 1.465 1_455 S
C494 C489 1.399 . S
C494 C493 1.394 . S
C494 C495 1.516 1_455 S
C495 C494 1.516 1_655 S
C495 C496 1.502 . S
C495 C497 1.561 . S
C495 C498 1.526 . S
C496 H480 0.959 . S
C496 H481 0.959 . S
C496 H482 0.961 1_655 S
C496 C495 1.502 . S
C497 H483 0.960 1_655 S
C497 H484 0.961 . S
C497 H485 0.959 . S
C497 C495 1.561 . S
C498 C495 1.526 . S
C498 C499 1.396 . S
C498 C503 1.390 . S
C499 C493 1.465 1_655 S
C499 C498 1.396 . S
C499 C500 1.399 . S
C500 H486 0.929 . S
C500 C499 1.399 . S
C500 C501 1.385 . S
C501 H487 0.931 . S
C501 C500 1.385 . S
C501 C502 1.389 . S
C502 C501 1.389 . S
C502 C503 1.387 . S
C503 H488 0.930 . S
C503 C498 1.390 . S
C503 C502 1.387 . S
H504 C516 0.930 . S
H505 C518 0.930 . S
H506 C519 0.930 . S
H507 C523 0.959 . S
H508 C523 0.959 . S
H509 C523 0.961 1_545 S
H510 C524 0.960 1_545 S
H511 C524 0.961 . S
H512 C524 0.959 . S
H513 C527 0.929 . S
H514 C528 0.931 . S
H515 C530 0.930 . S
C516 H504 0.930 . S
C516 C517 1.399 . S
C516 C521 1.399 . S
C517 C516 1.399 . S
C517 C518 1.376 . S
C518 H505 0.930 . S
C518 C517 1.376 . S
C518 C519 1.388 . S
C519 H506 0.930 . S
C519 C518 1.388 . S
C519 C520 1.390 . S
C520 C519 1.390 . S
C520 C521 1.394 . S
C520 C526 1.465 1_545 S
C521 C516 1.399 . S
C521 C520 1.394 . S
C521 C522 1.516 1_545 S
C522 C521 1.516 1_565 S
C522 C523 1.502 . S
C522 C524 1.561 . S
C522 C525 1.526 . S
C523 H507 0.959 . S
C523 H508 0.959 . S
C523 H509 0.961 1_565 S
C523 C522 1.502 . S
C524 H510 0.960 1_565 S
C524 H511 0.961 . S
C524 H512 0.959 . S
C524 C522 1.561 . S
C525 C522 1.526 . S
C525 C526 1.396 . S
C525 C530 1.390 . S
C526 C520 1.465 1_565 S
C526 C525 1.396 . S
C526 C527 1.399 . S
C527 H513 0.929 . S
C527 C526 1.399 . S
C527 C528 1.385 . S
C528 H514 0.931 . S
C528 C527 1.385 . S
C528 C529 1.389 . S
C529 C528 1.389 . S
C529 C530 1.387 . S
C530 H515 0.930 . S
C530 C525 1.390 . S
C530 C529 1.387 . S
H531 C543 0.930 . S
H532 C545 0.930 . S
H533 C546 0.930 . S
H534 C550 0.959 . S
H535 C550 0.959 . S
H536 C550 0.961 . S
H537 C551 0.960 1_554 S
H538 C551 0.958 1_554 S
H539 C551 0.959 . S
H540 C554 0.929 . S
H541 C555 0.931 . S
H542 C557 0.930 . S
C543 H531 0.930 . S
C543 C544 1.399 . S
C543 C548 1.399 . S
C544 C543 1.399 . S
C544 C545 1.376 . S
C545 H532 0.930 . S
C545 C544 1.376 . S
C545 C546 1.388 . S
C546 H533 0.930 . S
C546 C545 1.388 . S
C546 C547 1.390 . S
C547 C546 1.390 . S
C547 C548 1.394 . S
C547 C553 1.465 . S
C548 C543 1.399 . S
C548 C547 1.394 . S
C548 C549 1.516 . S
C549 C548 1.516 . S
C549 C550 1.502 . S
C549 C551 1.561 . S
C549 C552 1.526 . S
C550 H534 0.959 . S
C550 H535 0.959 . S
C550 H536 0.961 . S
C550 C549 1.502 . S
C551 H537 0.960 1_556 S
C551 H538 0.958 1_556 S
C551 H539 0.959 . S
C551 C549 1.561 . S
C552 C549 1.526 . S
C552 C553 1.396 . S
C552 C557 1.390 . S
C553 C547 1.465 . S
C553 C552 1.396 . S
C553 C554 1.399 . S
C554 H540 0.929 . S
C554 C553 1.399 . S
C554 C555 1.385 . S
C555 H541 0.931 . S
C555 C554 1.385 . S
C555 C556 1.389 . S
C556 C555 1.389 . S
C556 C557 1.387 . S
C557 H542 0.930 . S
C557 C552 1.390 . S
C557 C556 1.387 . S
H558 C570 0.930 . S
H559 C572 0.930 . S
H560 C573 0.930 . S
H561 C577 0.959 . S
H562 C577 0.959 . S
H563 C577 0.961 . S
H564 C578 0.960 . S
H565 C578 0.961 . S
H566 C578 0.959 . S
H567 C581 0.929 . S
H568 C582 0.931 . S
H569 C584 0.930 . S
C570 H558 0.930 . S
C570 C571 1.399 . S
C570 C575 1.399 . S
C571 C570 1.399 . S
C571 C572 1.376 . S
C572 H559 0.930 . S
C572 C571 1.376 . S
C572 C573 1.388 . S
C573 H560 0.930 . S
C573 C572 1.388 . S
C573 C574 1.390 . S
C574 C573 1.390 . S
C574 C575 1.394 . S
C574 C580 1.465 . S
C575 C570 1.399 . S
C575 C574 1.394 . S
C575 C576 1.516 . S
C576 C575 1.516 . S
C576 C577 1.502 . S
C576 C578 1.561 . S
C576 C579 1.526 . S
C577 H561 0.959 . S
C577 H562 0.959 . S
C577 H563 0.961 . S
C577 C576 1.502 . S
C578 H564 0.960 . S
C578 H565 0.961 . S
C578 H566 0.959 . S
C578 C576 1.561 . S
C579 C576 1.526 . S
C579 C580 1.396 . S
C579 C584 1.390 . S
C580 C574 1.465 . S
C580 C579 1.396 . S
C580 C581 1.399 . S
C581 H567 0.929 . S
C581 C580 1.399 . S
C581 C582 1.385 . S
C582 H568 0.931 . S
C582 C581 1.385 . S
C582 C583 1.389 . S
C583 C582 1.389 . S
C583 C584 1.387 . S
C584 H569 0.930 . S
C584 C579 1.390 . S
C584 C583 1.387 . S
H585 C597 0.930 . S
H586 C599 0.930 . S
H587 C600 0.930 . S
H588 C604 0.959 . S
H589 C604 0.959 1_554 S
H590 C604 0.961 . S
H591 C605 0.960 . S
H592 C605 0.961 . S
H593 C605 0.959 . S
H594 C608 0.929 . S
H595 C609 0.931 . S
H596 C611 0.930 . S
C597 H585 0.930 . S
C597 C598 1.399 . S
C597 C602 1.399 . S
C598 C597 1.399 . S
C598 C599 1.376 . S
C599 H586 0.930 . S
C599 C598 1.376 . S
C599 C600 1.388 . S
C600 H587 0.930 . S
C600 C599 1.388 . S
C600 C601 1.390 . S
C601 C600 1.390 . S
C601 C602 1.394 . S
C601 C607 1.475 . S
C602 C597 1.399 . S
C602 C601 1.394 . S
C602 C603 1.516 . S
C603 C602 1.516 . S
C603 C604 1.502 . S
C603 C605 1.561 . S
C603 C606 1.526 1_556 S
C604 H588 0.959 . S
C604 H589 0.959 1_556 S
C604 H590 0.961 . S
C604 C603 1.502 . S
C605 H591 0.960 . S
C605 H592 0.961 . S
C605 H593 0.959 . S
C605 C603 1.561 . S
C606 C603 1.526 1_554 S
C606 C607 1.393 1_554 S
C606 C611 1.390 . S
C607 C601 1.475 . S
C607 C606 1.393 1_556 S
C607 C608 1.393 1_556 S
C608 H594 0.929 . S
C608 C607 1.393 1_554 S
C608 C609 1.385 . S
C609 H595 0.931 . S
C609 C608 1.385 . S
C609 C610 1.389 . S
C610 C609 1.389 . S
C610 C611 1.387 . S
C611 H596 0.930 . S
C611 C606 1.390 . S
C611 C610 1.387 . S
H612 C624 0.930 . S
H613 C626 0.930 . S
H614 C627 0.930 . S
H615 C631 0.959 . S
H616 C631 0.959 . S
H617 C631 0.961 . S
H618 C632 0.960 . S
H619 C632 0.961 . S
H620 C632 0.959 . S
H621 C635 0.929 . S
H622 C636 0.931 . S
H623 C638 0.930 . S
C624 H612 0.930 . S
C624 C625 1.399 . S
C624 C629 1.399 . S
C625 C624 1.399 . S
C625 C626 1.376 . S
C626 H613 0.930 . S
C626 C625 1.376 . S
C626 C627 1.388 . S
C627 H614 0.930 . S
C627 C626 1.388 . S
C627 C628 1.390 . S
C628 C627 1.390 . S
C628 C629 1.394 . S
C628 C634 1.465 . S
C629 C624 1.399 . S
C629 C628 1.394 . S
C629 C630 1.516 . S
C630 C629 1.516 . S
C630 C631 1.502 . S
C630 C632 1.561 . S
C630 C633 1.526 . S
C631 H615 0.959 . S
C631 H616 0.959 . S
C631 H617 0.961 . S
C631 C630 1.502 . S
C632 H618 0.960 . S
C632 H619 0.961 . S
C632 H620 0.959 . S
C632 C630 1.561 . S
C633 C630 1.526 . S
C633 C634 1.396 . S
C633 C638 1.390 . S
C634 C628 1.465 . S
C634 C633 1.396 . S
C634 C635 1.399 . S
C635 H621 0.929 . S
C635 C634 1.399 . S
C635 C636 1.385 . S
C636 H622 0.931 . S
C636 C635 1.385 . S
C636 C637 1.389 . S
C637 C636 1.389 . S
C637 C638 1.387 . S
C638 H623 0.930 . S
C638 C633 1.390 . S
C638 C637 1.387 . S
H639 C651 0.930 . S
H640 C653 0.930 . S
H641 C654 0.930 . S
H642 C658 0.959 . S
H643 C658 0.959 . S
H644 C658 0.961 . S
H645 C659 0.960 . S
H646 C659 0.961 . S
H647 C659 0.959 . S
H648 C662 0.929 . S
H649 C663 0.931 . S
H650 C665 0.930 . S
C651 H639 0.930 . S
C651 C652 1.399 . S
C651 C656 1.399 . S
C652 C651 1.399 . S
C652 C653 1.376 . S
C653 H640 0.930 . S
C653 C652 1.376 . S
C653 C654 1.388 . S
C654 H641 0.930 . S
C654 C653 1.388 . S
C654 C655 1.390 . S
C655 C654 1.390 . S
C655 C656 1.394 . S
C655 C661 1.465 . S
C656 C651 1.399 . S
C656 C655 1.394 . S
C656 C657 1.516 . S
C657 C656 1.516 . S
C657 C658 1.502 . S
C657 C659 1.561 . S
C657 C660 1.526 . S
C658 H642 0.959 . S
C658 H643 0.959 . S
C658 H644 0.961 . S
C658 C657 1.502 . S
C659 H645 0.960 . S
C659 H646 0.961 . S
C659 H647 0.959 . S
C659 C657 1.561 . S
C660 C657 1.526 . S
C660 C661 1.396 . S
C660 C665 1.390 . S
C661 C655 1.465 . S
C661 C660 1.396 . S
C661 C662 1.399 . S
C662 H648 0.929 . S
C662 C661 1.399 . S
C662 C663 1.385 . S
C663 H649 0.931 . S
C663 C662 1.385 . S
C663 C664 1.389 . S
C664 C663 1.389 . S
C664 C665 1.387 . S
C665 H650 0.930 . S
C665 C660 1.390 . S
C665 C664 1.387 . S
H666 C678 0.930 . S
H667 C680 0.930 . S
H668 C681 0.930 . S
H669 C685 0.959 . S
H670 C685 0.959 . S
H671 C685 0.961 . S
H672 C686 0.960 1_554 S
H673 C686 0.961 . S
H674 C686 0.959 . S
H675 C689 0.929 . S
H676 C690 0.931 . S
H677 C692 0.930 . S
C678 H666 0.930 . S
C678 C679 1.399 . S
C678 C683 1.399 . S
C679 C678 1.399 . S
C679 C680 1.376 . S
C680 H667 0.930 . S
C680 C679 1.376 . S
C680 C681 1.388 . S
C681 H668 0.930 . S
C681 C680 1.388 . S
C681 C682 1.398 . S
C682 C681 1.398 . S
C682 C683 1.397 . S
C682 C688 1.453 1_554 S
C683 C678 1.399 . S
C683 C682 1.397 . S
C683 C684 1.516 1_554 S
C684 C683 1.516 1_556 S
C684 C685 1.502 . S
C684 C686 1.561 . S
C684 C687 1.526 . S
C685 H669 0.959 . S
C685 H670 0.959 . S
C685 H671 0.961 . S
C685 C684 1.502 . S
C686 H672 0.960 1_556 S
C686 H673 0.961 . S
C686 H674 0.959 . S
C686 C684 1.561 . S
C687 C684 1.526 . S
C687 C688 1.396 . S
C687 C692 1.390 . S
C688 C682 1.453 1_556 S
C688 C687 1.396 . S
C688 C689 1.399 . S
C689 H675 0.929 . S
C689 C688 1.399 . S
C689 C690 1.385 . S
C690 H676 0.931 . S
C690 C689 1.385 . S
C690 C691 1.389 . S
C691 C690 1.389 . S
C691 C692 1.387 . S
C692 H677 0.930 . S
C692 C687 1.390 . S
C692 C691 1.387 . S
H693 C705 0.930 . S
H694 C707 0.930 . S
H695 C708 0.930 . S
H696 C712 0.959 . S
H697 C712 0.959 . S
H698 C712 0.961 . S
H699 C713 0.960 . S
H700 C713 0.961 . S
H701 C713 0.959 . S
H702 C716 0.929 . S
H703 C717 0.931 . S
H704 C719 0.930 . S
C705 H693 0.930 . S
C705 C706 1.399 . S
C705 C710 1.399 . S
C706 C705 1.399 . S
C706 C707 1.376 . S
C707 H694 0.930 . S
C707 C706 1.376 . S
C707 C708 1.388 . S
C708 H695 0.930 . S
C708 C707 1.388 . S
C708 C709 1.390 . S
C709 C708 1.390 . S
C709 C710 1.394 . S
C709 C715 1.465 . S
C710 C705 1.399 . S
C710 C709 1.394 . S
C710 C711 1.516 . S
C711 C710 1.516 . S
C711 C712 1.502 . S
C711 C713 1.561 . S
C711 C714 1.526 . S
C712 H696 0.959 . S
C712 H697 0.959 . S
C712 H698 0.961 . S
C712 C711 1.502 . S
C713 H699 0.960 . S
C713 H700 0.961 . S
C713 H701 0.959 . S
C713 C711 1.561 . S
C714 C711 1.526 . S
C714 C715 1.396 . S
C714 C719 1.390 . S
C715 C709 1.465 . S
C715 C714 1.396 . S
C715 C716 1.399 . S
C716 H702 0.929 . S
C716 C715 1.399 . S
C716 C717 1.385 . S
C717 H703 0.931 . S
C717 C716 1.385 . S
C717 C718 1.389 . S
C718 C717 1.389 . S
C718 C719 1.387 . S
C719 H704 0.930 . S
C719 C714 1.390 . S
C719 C718 1.387 . S
H720 C732 0.930 . S
H721 C734 0.930 . S
H722 C735 0.930 . S
H723 C739 0.959 . S
H724 C739 0.959 . S
H725 C739 0.961 . S
H726 C740 0.960 . S
H727 C740 0.961 . S
H728 C740 0.959 . S
H729 C743 0.929 . S
H730 C744 0.931 . S
H731 C746 0.930 . S
C732 H720 0.930 . S
C732 C733 1.399 . S
C732 C737 1.399 . S
C733 C732 1.399 . S
C733 C734 1.376 . S
C734 H721 0.930 . S
C734 C733 1.376 . S
C734 C735 1.388 . S
C735 H722 0.930 . S
C735 C734 1.388 . S
C735 C736 1.390 . S
C736 C735 1.390 . S
C736 C737 1.394 . S
C736 C742 1.465 1_556 S
C737 C732 1.399 . S
C737 C736 1.394 . S
C737 C738 1.516 1_556 S
C738 C737 1.516 1_554 S
C738 C739 1.502 . S
C738 C740 1.561 . S
C738 C741 1.526 . S
C739 H723 0.959 . S
C739 H724 0.959 . S
C739 H725 0.961 . S
C739 C738 1.502 . S
C740 H726 0.960 . S
C740 H727 0.961 . S
C740 H728 0.959 . S
C740 C738 1.561 . S
C741 C738 1.526 . S
C741 C742 1.396 . S
C741 C746 1.390 . S
C742 C736 1.465 1_554 S
C742 C741 1.396 . S
C742 C743 1.399 . S
C743 H729 0.929 . S
C743 C742 1.399 . S
C743 C744 1.385 . S
C744 H730 0.931 . S
C744 C743 1.385 . S
C744 C745 1.389 . S
C745 C744 1.389 . S
C745 C746 1.387 . S
C746 H731 0.930 . S
C746 C741 1.390 . S
C746 C745 1.387 . S
H747 C759 0.930 . S
H748 C761 0.930 . S
H749 C762 0.930 . S
H750 C766 0.959 . S
H751 C766 0.959 . S
H752 C766 0.961 . S
H753 C767 0.960 . S
H754 C767 0.961 . S
H755 C767 0.959 . S
H756 C770 0.929 . S
H757 C771 0.931 . S
H758 C773 0.930 . S
C759 H747 0.930 . S
C759 C760 1.399 . S
C759 C764 1.399 . S
C760 C759 1.399 . S
C760 C761 1.376 . S
C761 H748 0.930 . S
C761 C760 1.376 . S
C761 C762 1.388 . S
C762 H749 0.930 . S
C762 C761 1.388 . S
C762 C763 1.390 . S
C763 C762 1.390 . S
C763 C764 1.394 . S
C763 C769 1.465 . S
C764 C759 1.399 . S
C764 C763 1.394 . S
C764 C765 1.516 . S
C765 C764 1.516 . S
C765 C766 1.502 . S
C765 C767 1.561 . S
C765 C768 1.526 . S
C766 H750 0.959 . S
C766 H751 0.959 . S
C766 H752 0.961 . S
C766 C765 1.502 . S
C767 H753 0.960 . S
C767 H754 0.961 . S
C767 H755 0.959 . S
C767 C765 1.561 . S
C768 C765 1.526 . S
C768 C769 1.396 . S
C768 C773 1.390 . S
C769 C763 1.465 . S
C769 C768 1.396 . S
C769 C770 1.399 . S
C770 H756 0.929 . S
C770 C769 1.399 . S
C770 C771 1.385 . S
C771 H757 0.931 . S
C771 C770 1.385 . S
C771 C772 1.389 . S
C772 C771 1.389 . S
C772 C773 1.387 . S
C773 H758 0.930 . S
C773 C768 1.390 . S
C773 C772 1.387 . S
H774 C786 0.930 . S
H775 C788 0.930 . S
H776 C789 0.930 . S
H777 C793 0.959 . S
H778 C793 0.959 . S
H779 C793 0.961 . S
H780 C794 0.960 . S
H781 C794 0.961 . S
H782 C794 0.959 . S
H783 C797 0.929 . S
H784 C798 0.931 . S
H785 C800 0.930 . S
C786 H774 0.930 . S
C786 C787 1.399 . S
C786 C791 1.399 . S
C787 C786 1.399 . S
C787 C788 1.376 . S
C788 H775 0.930 . S
C788 C787 1.376 . S
C788 C789 1.388 . S
C789 H776 0.930 . S
C789 C788 1.388 . S
C789 C790 1.390 . S
C790 C789 1.390 . S
C790 C791 1.394 . S
C790 C796 1.465 . S
C791 C786 1.399 . S
C791 C790 1.394 . S
C791 C792 1.516 . S
C792 C791 1.516 . S
C792 C793 1.502 . S
C792 C794 1.561 . S
C792 C795 1.526 . S
C793 H777 0.959 . S
C793 H778 0.959 . S
C793 H779 0.961 . S
C793 C792 1.502 . S
C794 H780 0.960 . S
C794 H781 0.961 . S
C794 H782 0.959 . S
C794 C792 1.561 . S
C795 C792 1.526 . S
C795 C796 1.396 . S
C795 C800 1.390 . S
C796 C790 1.465 . S
C796 C795 1.396 . S
C796 C797 1.399 . S
C797 H783 0.929 . S
C797 C796 1.399 . S
C797 C798 1.385 . S
C798 H784 0.931 . S
C798 C797 1.385 . S
C798 C799 1.389 . S
C799 C798 1.389 . S
C799 C800 1.387 . S
C800 H785 0.930 . S
C800 C795 1.390 . S
C800 C799 1.387 . S
H801 C813 0.930 . S
H802 C815 0.930 . S
H803 C816 0.930 . S
H804 C820 0.959 . S
H805 C820 0.959 1_556 S
H806 C820 0.961 . S
H807 C821 0.960 . S
H808 C821 0.961 . S
H809 C821 0.959 . S
H810 C824 0.929 . S
H811 C825 0.931 . S
H812 C827 0.930 . S
C813 H801 0.930 . S
C813 C814 1.399 . S
C813 C818 1.399 . S
C814 C813 1.399 . S
C814 C815 1.376 . S
C815 H802 0.930 . S
C815 C814 1.376 . S
C815 C816 1.388 . S
C816 H803 0.930 . S
C816 C815 1.388 . S
C816 C817 1.390 . S
C817 C816 1.390 . S
C817 C818 1.394 . S
C817 C823 1.478 . S
C818 C813 1.399 . S
C818 C817 1.394 . S
C818 C819 1.516 . S
C819 C818 1.516 . S
C819 C820 1.502 . S
C819 C821 1.561 . S
C819 C822 1.526 1_554 S
C820 H804 0.959 . S
C820 H805 0.959 1_554 S
C820 H806 0.961 . S
C820 C819 1.502 . S
C821 H807 0.960 . S
C821 H808 0.961 . S
C821 H809 0.959 . S
C821 C819 1.561 . S
C822 C819 1.526 1_556 S
C822 C823 1.392 1_556 S
C822 C827 1.390 . S
C823 C817 1.478 . S
C823 C822 1.392 1_554 S
C823 C824 1.390 1_554 S
C824 H810 0.929 . S
C824 C823 1.390 1_556 S
C824 C825 1.385 . S
C825 H811 0.931 . S
C825 C824 1.385 . S
C825 C826 1.389 . S
C826 C825 1.389 . S
C826 C827 1.387 . S
C827 H812 0.930 . S
C827 C822 1.390 . S
C827 C826 1.387 . S
H828 C840 0.930 . S
H829 C842 0.930 . S
H830 C843 0.930 . S
H831 C847 0.959 . S
H832 C847 0.959 . S
H833 C847 0.961 . S
H834 C848 0.960 . S
H835 C848 0.961 . S
H836 C848 0.959 . S
H837 C851 0.929 . S
H838 C852 0.931 . S
H839 C854 0.930 . S
C840 H828 0.930 . S
C840 C841 1.399 . S
C840 C845 1.399 . S
C841 C840 1.399 . S
C841 C842 1.376 . S
C842 H829 0.930 . S
C842 C841 1.376 . S
C842 C843 1.388 . S
C843 H830 0.930 . S
C843 C842 1.388 . S
C843 C844 1.390 . S
C844 C843 1.390 . S
C844 C845 1.394 . S
C844 C850 1.465 . S
C845 C840 1.399 . S
C845 C844 1.394 . S
C845 C846 1.516 . S
C846 C845 1.516 . S
C846 C847 1.502 . S
C846 C848 1.561 . S
C846 C849 1.526 . S
C847 H831 0.959 . S
C847 H832 0.959 . S
C847 H833 0.961 . S
C847 C846 1.502 . S
C848 H834 0.960 . S
C848 H835 0.961 . S
C848 H836 0.959 . S
C848 C846 1.561 . S
C849 C846 1.526 . S
C849 C850 1.396 . S
C849 C854 1.390 . S
C850 C844 1.465 . S
C850 C849 1.396 . S
C850 C851 1.399 . S
C851 H837 0.929 . S
C851 C850 1.399 . S
C851 C852 1.385 . S
C852 H838 0.931 . S
C852 C851 1.385 . S
C852 C853 1.389 . S
C853 C852 1.389 . S
C853 C854 1.387 . S
C854 H839 0.930 . S
C854 C849 1.390 . S
C854 C853 1.387 . S
H855 C867 0.930 . S
H856 C869 0.930 . S
H857 C870 0.930 . S
H858 C874 0.959 . S
H859 C874 0.959 . S
H860 C874 0.961 . S
H861 C875 0.960 . S
H862 C875 0.961 . S
H863 C875 0.959 . S
H864 C878 0.929 . S
H865 C879 0.931 . S
H866 C881 0.930 . S
C867 H855 0.930 . S
C867 C868 1.399 . S
C867 C872 1.399 . S
C868 C867 1.399 . S
C868 C869 1.376 . S
C869 H856 0.930 . S
C869 C868 1.376 . S
C869 C870 1.388 . S
C870 H857 0.930 . S
C870 C869 1.388 . S
C870 C871 1.390 . S
C871 C870 1.390 . S
C871 C872 1.394 . S
C871 C877 1.465 . S
C872 C867 1.399 . S
C872 C871 1.394 . S
C872 C873 1.516 . S
C873 C872 1.516 . S
C873 C874 1.502 . S
C873 C875 1.561 . S
C873 C876 1.526 . S
C874 H858 0.959 . S
C874 H859 0.959 . S
C874 H860 0.961 . S
C874 C873 1.502 . S
C875 H861 0.960 . S
C875 H862 0.961 . S
C875 H863 0.959 . S
C875 C873 1.561 . S
C876 C873 1.526 . S
C876 C877 1.396 . S
C876 C881 1.390 . S
C877 C871 1.465 . S
C877 C876 1.396 . S
C877 C878 1.399 . S
C878 H864 0.929 . S
C878 C877 1.399 . S
C878 C879 1.385 . S
C879 H865 0.931 . S
C879 C878 1.385 . S
C879 C880 1.389 . S
C880 C879 1.389 . S
C880 C881 1.387 . S
C881 H866 0.930 . S
C881 C876 1.390 . S
C881 C880 1.387 . S
H882 C894 0.930 . S
H883 C896 0.930 . S
H884 C897 0.930 . S
H885 C901 0.959 . S
H886 C901 0.959 . S
H887 C901 0.961 . S
H888 C902 0.960 . S
H889 C902 0.961 . S
H890 C902 0.959 . S
H891 C905 0.929 . S
H892 C906 0.931 . S
H893 C908 0.930 . S
C894 H882 0.930 . S
C894 C895 1.399 . S
C894 C899 1.399 . S
C895 C894 1.399 . S
C895 C896 1.376 . S
C896 H883 0.930 . S
C896 C895 1.376 . S
C896 C897 1.388 . S
C897 H884 0.930 . S
C897 C896 1.388 . S
C897 C898 1.390 . S
C898 C897 1.390 . S
C898 C899 1.394 . S
C898 C904 1.465 . S
C899 C894 1.399 . S
C899 C898 1.394 . S
C899 C900 1.516 . S
C900 C899 1.516 . S
C900 C901 1.502 . S
C900 C902 1.561 . S
C900 C903 1.526 . S
C901 H885 0.959 . S
C901 H886 0.959 . S
C901 H887 0.961 . S
C901 C900 1.502 . S
C902 H888 0.960 . S
C902 H889 0.961 . S
C902 H890 0.959 . S
C902 C900 1.561 . S
C903 C900 1.526 . S
C903 C904 1.396 . S
C903 C908 1.390 . S
C904 C898 1.465 . S
C904 C903 1.396 . S
C904 C905 1.399 . S
C905 H891 0.929 . S
C905 C904 1.399 . S
C905 C906 1.385 . S
C906 H892 0.931 . S
C906 C905 1.385 . S
C906 C907 1.389 . S
C907 C906 1.389 . S
C907 C908 1.387 . S
C908 H893 0.930 . S
C908 C903 1.390 . S
C908 C907 1.387 . S
H909 C921 0.930 . S
H910 C923 0.930 . S
H911 C924 0.930 . S
H912 C928 0.959 . S
H913 C928 0.959 . S
H914 C928 0.961 . S
H915 C929 0.960 . S
H916 C929 0.961 . S
H917 C929 0.959 . S
H918 C932 0.929 . S
H919 C933 0.931 . S
H920 C935 0.930 . S
C921 H909 0.930 . S
C921 C922 1.399 . S
C921 C926 1.399 . S
C922 C921 1.399 . S
C922 C923 1.376 . S
C923 H910 0.930 . S
C923 C922 1.376 . S
C923 C924 1.388 . S
C924 H911 0.930 . S
C924 C923 1.388 . S
C924 C925 1.390 . S
C925 C924 1.390 . S
C925 C926 1.394 . S
C925 C931 1.465 . S
C926 C921 1.399 . S
C926 C925 1.394 . S
C926 C927 1.516 . S
C927 C926 1.516 . S
C927 C928 1.502 . S
C927 C929 1.561 . S
C927 C930 1.526 . S
C928 H912 0.959 . S
C928 H913 0.959 . S
C928 H914 0.961 . S
C928 C927 1.502 . S
C929 H915 0.960 . S
C929 H916 0.961 . S
C929 H917 0.959 . S
C929 C927 1.561 . S
C930 C927 1.526 . S
C930 C931 1.396 . S
C930 C935 1.390 . S
C931 C925 1.465 . S
C931 C930 1.396 . S
C931 C932 1.399 . S
C932 H918 0.929 . S
C932 C931 1.399 . S
C932 C933 1.385 . S
C933 H919 0.931 . S
C933 C932 1.385 . S
C933 C934 1.389 . S
C934 C933 1.389 . S
C934 C935 1.387 . S
C935 H920 0.930 . S
C935 C930 1.390 . S
C935 C934 1.387 . S
H936 C948 0.930 . S
H937 C950 0.930 . S
H938 C951 0.930 . S
H939 C955 0.959 . S
H940 C955 0.959 . S
H941 C955 0.961 . S
H942 C956 0.960 1_554 S
H943 C956 0.961 1_554 S
H944 C956 0.959 . S
H945 C959 0.929 . S
H946 C960 0.931 . S
H947 C962 0.930 . S
C948 H936 0.930 . S
C948 C949 1.399 . S
C948 C953 1.399 . S
C949 C948 1.399 . S
C949 C950 1.376 . S
C950 H937 0.930 . S
C950 C949 1.376 . S
C950 C951 1.388 . S
C951 H938 0.930 . S
C951 C950 1.388 . S
C951 C952 1.390 . S
C952 C951 1.390 . S
C952 C953 1.394 . S
C952 C958 1.465 . S
C953 C948 1.399 . S
C953 C952 1.394 . S
C953 C954 1.516 . S
C954 C953 1.516 . S
C954 C955 1.502 . S
C954 C956 1.561 . S
C954 C957 1.526 . S
C955 H939 0.959 . S
C955 H940 0.959 . S
C955 H941 0.961 . S
C955 C954 1.502 . S
C956 H942 0.960 1_556 S
C956 H943 0.961 1_556 S
C956 H944 0.959 . S
C956 C954 1.561 . S
C957 C954 1.526 . S
C957 C958 1.396 . S
C957 C962 1.390 . S
C958 C952 1.465 . S
C958 C957 1.396 . S
C958 C959 1.399 . S
C959 H945 0.929 . S
C959 C958 1.399 . S
C959 C960 1.385 . S
C960 H946 0.931 . S
C960 C959 1.385 . S
C960 C961 1.389 . S
C961 C960 1.389 . S
C961 C962 1.387 . S
C962 H947 0.930 . S
C962 C957 1.390 . S
C962 C961 1.387 . S
H963 C975 0.930 . S
H964 C977 0.930 . S
H965 C978 0.930 . S
H966 C982 0.959 . S
H967 C982 0.959 . S
H968 C982 0.961 . S
H969 C983 0.960 . S
H970 C983 0.961 . S
H971 C983 0.959 . S
H972 C986 0.929 . S
H973 C987 0.931 . S
H974 C989 0.930 . S
C975 H963 0.930 . S
C975 C976 1.399 . S
C975 C980 1.399 . S
C976 C975 1.399 . S
C976 C977 1.376 . S
C977 H964 0.930 . S
C977 C976 1.376 . S
C977 C978 1.388 . S
C978 H965 0.930 . S
C978 C977 1.388 . S
C978 C979 1.390 . S
C979 C978 1.390 . S
C979 C980 1.394 . S
C979 C985 1.465 . S
C980 C975 1.399 . S
C980 C979 1.394 . S
C980 C981 1.516 . S
C981 C980 1.516 . S
C981 C982 1.502 . S
C981 C983 1.561 . S
C981 C984 1.526 . S
C982 H966 0.959 . S
C982 H967 0.959 . S
C982 H968 0.961 . S
C982 C981 1.502 . S
C983 H969 0.960 . S
C983 H970 0.961 . S
C983 H971 0.959 . S
C983 C981 1.561 . S
C984 C981 1.526 . S
C984 C985 1.396 . S
C984 C989 1.390 . S
C985 C979 1.465 . S
C985 C984 1.396 . S
C985 C986 1.399 . S
C986 H972 0.929 . S
C986 C985 1.399 . S
C986 C987 1.385 . S
C987 H973 0.931 . S
C987 C986 1.385 . S
C987 C988 1.389 . S
C988 C987 1.389 . S
C988 C989 1.387 . S
C989 H974 0.930 . S
C989 C984 1.390 . S
C989 C988 1.387 . S
H990 C1002 0.930 . S
H991 C1004 0.930 . S
H992 C1005 0.930 . S
H993 C1009 0.959 . S
H994 C1009 0.959 . S
H995 C1009 0.961 . S
H996 C1010 0.960 . S
H997 C1010 0.961 . S
H998 C1010 0.959 . S
H999 C1013 0.929 . S
H1000 C1014 0.931 . S
H1001 C1016 0.930 . S
C1002 H990 0.930 . S
C1002 C1003 1.399 . S
C1002 C1007 1.399 . S
C1003 C1002 1.399 . S
C1003 C1004 1.376 . S
C1004 H991 0.930 . S
C1004 C1003 1.376 . S
C1004 C1005 1.388 . S
C1005 H992 0.930 . S
C1005 C1004 1.388 . S
C1005 C1006 1.390 . S
C1006 C1005 1.390 . S
C1006 C1007 1.394 . S
C1006 C1012 1.465 . S
C1007 C1002 1.399 . S
C1007 C1006 1.394 . S
C1007 C1008 1.516 . S
C1008 C1007 1.516 . S
C1008 C1009 1.502 . S
C1008 C1010 1.561 . S
C1008 C1011 1.526 . S
C1009 H993 0.959 . S
C1009 H994 0.959 . S
C1009 H995 0.961 . S
C1009 C1008 1.502 . S
C1010 H996 0.960 . S
C1010 H997 0.961 . S
C1010 H998 0.959 . S
C1010 C1008 1.561 . S
C1011 C1008 1.526 . S
C1011 C1012 1.396 . S
C1011 C1016 1.390 . S
C1012 C1006 1.465 . S
C1012 C1011 1.396 . S
C1012 C1013 1.399 . S
C1013 H999 0.929 . S
C1013 C1012 1.399 . S
C1013 C1014 1.385 . S
C1014 H1000 0.931 . S
C1014 C1013 1.385 . S
C1014 C1015 1.389 . S
C1015 C1014 1.389 . S
C1015 C1016 1.387 . S
C1016 H1001 0.930 . S
C1016 C1011 1.390 . S
C1016 C1015 1.387 . S
H1017 C1029 0.930 . S
H1018 C1031 0.930 . S
H1019 C1032 0.930 . S
H1020 C1036 0.959 . S
H1021 C1036 0.959 . S
H1022 C1036 0.961 . S
H1023 C1037 0.960 . S
H1024 C1037 0.961 . S
H1025 C1037 0.959 . S
H1026 C1040 0.929 . S
H1027 C1041 0.931 . S
H1028 C1043 0.930 . S
C1029 H1017 0.930 . S
C1029 C1030 1.399 . S
C1029 C1034 1.399 . S
C1030 C1029 1.399 . S
C1030 C1031 1.376 . S
C1031 H1018 0.930 . S
C1031 C1030 1.376 . S
C1031 C1032 1.388 . S
C1032 H1019 0.930 . S
C1032 C1031 1.388 . S
C1032 C1033 1.390 . S
C1033 C1032 1.390 . S
C1033 C1034 1.394 . S
C1033 C1039 1.465 . S
C1034 C1029 1.399 . S
C1034 C1033 1.394 . S
C1034 C1035 1.516 . S
C1035 C1034 1.516 . S
C1035 C1036 1.502 . S
C1035 C1037 1.561 . S
C1035 C1038 1.526 . S
C1036 H1020 0.959 . S
C1036 H1021 0.959 . S
C1036 H1022 0.961 . S
C1036 C1035 1.502 . S
C1037 H1023 0.960 . S
C1037 H1024 0.961 . S
C1037 H1025 0.959 . S
C1037 C1035 1.561 . S
C1038 C1035 1.526 . S
C1038 C1039 1.396 . S
C1038 C1043 1.390 . S
C1039 C1033 1.465 . S
C1039 C1038 1.396 . S
C1039 C1040 1.399 . S
C1040 H1026 0.929 . S
C1040 C1039 1.399 . S
C1040 C1041 1.385 . S
C1041 H1027 0.931 . S
C1041 C1040 1.385 . S
C1041 C1042 1.389 . S
C1042 C1041 1.389 . S
C1042 C1043 1.387 . S
C1043 H1028 0.930 . S
C1043 C1038 1.390 . S
C1043 C1042 1.387 . S
H1044 C1056 0.931 . S
H1045 C1058 0.930 . S
H1046 C1059 0.930 . S
H1047 C1063 0.959 . S
H1048 C1063 0.959 . S
H1049 C1063 0.961 . S
H1050 C1064 0.960 . S
H1051 C1064 0.961 . S
H1052 C1064 0.959 1_556 S
H1053 C1067 0.929 . S
H1054 C1068 0.931 . S
H1055 C1070 0.930 . S
C1056 H1044 0.931 . S
C1056 C1057 1.399 . S
C1056 C1061 1.399 . S
C1057 C1056 1.399 . S
C1057 C1058 1.376 . S
C1058 H1045 0.930 . S
C1058 C1057 1.376 . S
C1058 C1059 1.388 . S
C1059 H1046 0.930 . S
C1059 C1058 1.388 . S
C1059 C1060 1.390 . S
C1060 C1059 1.390 . S
C1060 C1061 1.394 . S
C1060 C1066 1.465 . S
C1061 C1056 1.399 . S
C1061 C1060 1.394 . S
C1061 C1062 1.516 1_556 S
C1062 C1061 1.516 1_554 S
C1062 C1063 1.502 . S
C1062 C1064 1.561 . S
C1062 C1065 1.526 . S
C1063 H1047 0.959 . S
C1063 H1048 0.959 . S
C1063 H1049 0.961 . S
C1063 C1062 1.502 . S
C1064 H1050 0.960 . S
C1064 H1051 0.961 . S
C1064 H1052 0.959 1_554 S
C1064 C1062 1.561 . S
C1065 C1062 1.526 . S
C1065 C1066 1.396 1_554 S
C1065 C1070 1.390 . S
C1066 C1060 1.465 . S
C1066 C1065 1.396 1_556 S
C1066 C1067 1.399 . S
C1067 H1053 0.929 . S
C1067 C1066 1.399 . S
C1067 C1068 1.385 1_556 S
C1068 H1054 0.931 . S
C1068 C1067 1.385 1_554 S
C1068 C1069 1.389 . S
C1069 C1068 1.389 . S
C1069 C1070 1.387 . S
C1070 H1055 0.930 . S
C1070 C1065 1.390 . S
C1070 C1069 1.387 . S
H1071 C1083 0.930 . S
H1072 C1085 0.930 . S
H1073 C1086 0.930 . S
H1074 C1090 0.959 . S
H1075 C1090 0.959 . S
H1076 C1090 0.961 . S
H1077 C1091 0.960 . S
H1078 C1091 0.961 . S
H1079 C1091 0.959 . S
H1080 C1094 0.929 . S
H1081 C1095 0.931 . S
H1082 C1097 0.930 . S
C1083 H1071 0.930 . S
C1083 C1084 1.399 . S
C1083 C1088 1.399 . S
C1084 C1083 1.399 . S
C1084 C1085 1.376 . S
C1085 H1072 0.930 . S
C1085 C1084 1.376 . S
C1085 C1086 1.388 . S
C1086 H1073 0.930 . S
C1086 C1085 1.388 . S
C1086 C1087 1.390 . S
C1087 C1086 1.390 . S
C1087 C1088 1.394 . S
C1087 C1093 1.465 . S
C1088 C1083 1.399 . S
C1088 C1087 1.394 . S
C1088 C1089 1.516 . S
C1089 C1088 1.516 . S
C1089 C1090 1.502 . S
C1089 C1091 1.561 . S
C1089 C1092 1.526 . S
C1090 H1074 0.959 . S
C1090 H1075 0.959 . S
C1090 H1076 0.961 . S
C1090 C1089 1.502 . S
C1091 H1077 0.960 . S
C1091 H1078 0.961 . S
C1091 H1079 0.959 . S
C1091 C1089 1.561 . S
C1092 C1089 1.526 . S
C1092 C1093 1.396 . S
C1092 C1097 1.390 . S
C1093 C1087 1.465 . S
C1093 C1092 1.396 . S
C1093 C1094 1.399 . S
C1094 H1080 0.929 . S
C1094 C1093 1.399 . S
C1094 C1095 1.385 . S
C1095 H1081 0.931 . S
C1095 C1094 1.385 . S
C1095 C1096 1.389 . S
C1096 C1095 1.389 . S
C1096 C1097 1.387 . S
C1097 H1082 0.930 . S
C1097 C1092 1.390 . S
C1097 C1096 1.387 . S
H1098 C1110 0.930 . S
H1099 C1112 0.930 . S
H1100 C1113 0.930 . S
H1101 C1117 0.959 . S
H1102 C1117 0.959 . S
H1103 C1117 0.961 . S
H1104 C1118 0.960 . S
H1105 C1118 0.961 . S
H1106 C1118 0.959 . S
H1107 C1121 0.929 . S
H1108 C1122 0.931 . S
H1109 C1124 0.930 . S
C1110 H1098 0.930 . S
C1110 C1111 1.399 . S
C1110 C1115 1.399 . S
C1111 C1110 1.399 . S
C1111 C1112 1.376 . S
C1112 H1099 0.930 . S
C1112 C1111 1.376 . S
C1112 C1113 1.388 . S
C1113 H1100 0.930 . S
C1113 C1112 1.388 . S
C1113 C1114 1.390 . S
C1114 C1113 1.390 . S
C1114 C1115 1.394 . S
C1114 C1120 1.465 . S
C1115 C1110 1.399 . S
C1115 C1114 1.394 . S
C1115 C1116 1.516 . S
C1116 C1115 1.516 . S
C1116 C1117 1.502 . S
C1116 C1118 1.561 . S
C1116 C1119 1.526 . S
C1117 H1101 0.959 . S
C1117 H1102 0.959 . S
C1117 H1103 0.961 . S
C1117 C1116 1.502 . S
C1118 H1104 0.960 . S
C1118 H1105 0.961 . S
C1118 H1106 0.959 . S
C1118 C1116 1.561 . S
C1119 C1116 1.526 . S
C1119 C1120 1.396 . S
C1119 C1124 1.390 . S
C1120 C1114 1.465 . S
C1120 C1119 1.396 . S
C1120 C1121 1.399 . S
C1121 H1107 0.929 . S
C1121 C1120 1.399 . S
C1121 C1122 1.385 . S
C1122 H1108 0.931 . S
C1122 C1121 1.385 . S
C1122 C1123 1.389 . S
C1123 C1122 1.389 . S
C1123 C1124 1.387 . S
C1124 H1109 0.930 . S
C1124 C1119 1.390 . S
C1124 C1123 1.387 . S
H1125 C1137 0.930 . S
H1126 C1139 0.930 . S
H1127 C1140 0.930 . S
H1128 C1144 0.959 . S
H1129 C1144 0.959 . S
H1130 C1144 0.961 . S
H1131 C1145 0.960 . S
H1132 C1145 0.961 . S
H1133 C1145 0.959 . S
H1134 C1148 0.929 . S
H1135 C1149 0.931 . S
H1136 C1151 0.930 . S
C1137 H1125 0.930 . S
C1137 C1138 1.399 . S
C1137 C1142 1.399 . S
C1138 C1137 1.399 . S
C1138 C1139 1.376 . S
C1139 H1126 0.930 . S
C1139 C1138 1.376 . S
C1139 C1140 1.388 . S
C1140 H1127 0.930 . S
C1140 C1139 1.388 . S
C1140 C1141 1.390 . S
C1141 C1140 1.390 . S
C1141 C1142 1.394 . S
C1141 C1147 1.465 1_554 S
C1142 C1137 1.399 . S
C1142 C1141 1.394 . S
C1142 C1143 1.516 1_554 S
C1143 C1142 1.516 1_556 S
C1143 C1144 1.502 1_556 S
C1143 C1145 1.561 . S
C1143 C1146 1.526 . S
C1144 H1128 0.959 . S
C1144 H1129 0.959 . S
C1144 H1130 0.961 . S
C1144 C1143 1.502 1_554 S
C1145 H1131 0.960 . S
C1145 H1132 0.961 . S
C1145 H1133 0.959 . S
C1145 C1143 1.561 . S
C1146 C1143 1.526 . S
C1146 C1147 1.396 . S
C1146 C1151 1.390 . S
C1147 C1141 1.465 1_556 S
C1147 C1146 1.396 . S
C1147 C1148 1.399 . S
C1148 H1134 0.929 . S
C1148 C1147 1.399 . S
C1148 C1149 1.385 . S
C1149 H1135 0.931 . S
C1149 C1148 1.385 . S
C1149 C1150 1.389 . S
C1150 C1149 1.389 . S
C1150 C1151 1.387 . S
C1151 H1136 0.930 . S
C1151 C1146 1.390 . S
C1151 C1150 1.387 . S
H1152 C1164 0.930 . S
H1153 C1166 0.930 . S
H1154 C1167 0.930 . S
H1155 C1171 0.959 . S
H1156 C1171 0.959 . S
H1157 C1171 0.961 . S
H1158 C1172 0.960 . S
H1159 C1172 0.961 . S
H1160 C1172 0.959 . S
H1161 C1175 0.929 . S
H1162 C1176 0.931 . S
H1163 C1178 0.930 . S
C1164 H1152 0.930 . S
C1164 C1165 1.399 . S
C1164 C1169 1.399 . S
C1165 C1164 1.399 . S
C1165 C1166 1.376 . S
C1166 H1153 0.930 . S
C1166 C1165 1.376 . S
C1166 C1167 1.388 . S
C1167 H1154 0.930 . S
C1167 C1166 1.388 . S
C1167 C1168 1.390 . S
C1168 C1167 1.390 . S
C1168 C1169 1.394 . S
C1168 C1174 1.465 . S
C1169 C1164 1.399 . S
C1169 C1168 1.394 . S
C1169 C1170 1.516 . S
C1170 C1169 1.516 . S
C1170 C1171 1.502 . S
C1170 C1172 1.561 . S
C1170 C1173 1.526 . S
C1171 H1155 0.959 . S
C1171 H1156 0.959 . S
C1171 H1157 0.961 . S
C1171 C1170 1.502 . S
C1172 H1158 0.960 . S
C1172 H1159 0.961 . S
C1172 H1160 0.959 . S
C1172 C1170 1.561 . S
C1173 C1170 1.526 . S
C1173 C1174 1.396 . S
C1173 C1178 1.390 . S
C1174 C1168 1.465 . S
C1174 C1173 1.396 . S
C1174 C1175 1.399 . S
C1175 H1161 0.929 . S
C1175 C1174 1.399 . S
C1175 C1176 1.385 . S
C1176 H1162 0.931 . S
C1176 C1175 1.385 . S
C1176 C1177 1.389 . S
C1177 C1176 1.389 . S
C1177 C1178 1.387 . S
C1178 H1163 0.930 . S
C1178 C1173 1.390 . S
C1178 C1177 1.387 . S
H1179 C1191 0.930 . S
H1180 C1193 0.930 . S
H1181 C1194 0.930 . S
H1182 C1198 0.959 . S
H1183 C1198 0.959 . S
H1184 C1198 0.961 . S
H1185 C1199 0.960 . S
H1186 C1199 0.961 . S
H1187 C1199 0.959 . S
H1188 C1202 0.929 . S
H1189 C1203 0.931 . S
H1190 C1205 0.930 . S
C1191 H1179 0.930 . S
C1191 C1192 1.399 . S
C1191 C1196 1.399 . S
C1192 C1191 1.399 . S
C1192 C1193 1.376 . S
C1193 H1180 0.930 . S
C1193 C1192 1.376 . S
C1193 C1194 1.388 . S
C1194 H1181 0.930 . S
C1194 C1193 1.388 . S
C1194 C1195 1.390 . S
C1195 C1194 1.390 . S
C1195 C1196 1.394 . S
C1195 C1201 1.465 . S
C1196 C1191 1.399 . S
C1196 C1195 1.394 . S
C1196 C1197 1.516 . S
C1197 C1196 1.516 . S
C1197 C1198 1.502 . S
C1197 C1199 1.561 . S
C1197 C1200 1.526 . S
C1198 H1182 0.959 . S
C1198 H1183 0.959 . S
C1198 H1184 0.961 . S
C1198 C1197 1.502 . S
C1199 H1185 0.960 . S
C1199 H1186 0.961 . S
C1199 H1187 0.959 . S
C1199 C1197 1.561 . S
C1200 C1197 1.526 . S
C1200 C1201 1.396 . S
C1200 C1205 1.390 . S
C1201 C1195 1.465 . S
C1201 C1200 1.396 . S
C1201 C1202 1.399 . S
C1202 H1188 0.929 . S
C1202 C1201 1.399 . S
C1202 C1203 1.385 . S
C1203 H1189 0.931 . S
C1203 C1202 1.385 . S
C1203 C1204 1.389 . S
C1204 C1203 1.389 . S
C1204 C1205 1.387 . S
C1205 H1190 0.930 . S
C1205 C1200 1.390 . S
C1205 C1204 1.387 . S
C409 C28 1.309 . S
C421 C391 1.284 . S
C436 C61 1.252 . S
C448 C226 1.280 . S
C463 C259 1.256 . S
C475 C94 1.288 . S
C490 C292 1.306 . S
C502 C127 1.276 . S
C517 C325 1.309 . S
C529 C160 1.282 . S
C544 C358 1.309 . S
C556 C193 1.296 . S
C571 N14 1.393 . S
C583 N5 1.432 . S
C598 N38 1.448 . S
C610 N47 1.387 . S
C625 N80 1.389 . S
C637 N71 1.449 . S
C652 N113 1.437 . S
C664 N104 1.412 . S
C679 N146 1.400 . S
C691 N137 1.444 . S
C706 N170 1.417 . S
C718 N179 1.433 . S
C733 N212 1.433 . S
C745 N203 1.417 . S
C760 N236 1.443 . S
C772 N245 1.403 . S
C787 N278 1.446 . S
C799 N269 1.393 . S
C814 N302 1.447 . S
C826 N311 1.386 . S
C841 N335 1.397 . S
C853 N344 1.431 . S
C868 N377 1.446 . S
C880 N368 1.393 . S
C895 C17 1.610 . S
C907 C281 1.586 . S
C922 C50 1.599 . S
C934 C314 1.615 . S
C949 C83 1.615 . S
C961 C347 1.595 . S
C976 C380 1.583 . S
C988 C116 1.606 . S
C1003 C215 1.597 . S
C1015 C149 1.582 . S
C1030 C248 1.615 . S
C1042 C182 1.599 . S
C1057 C338 1.111 . S
C1069 C8 1.085 . S
C1084 C371 1.105 . S
C1096 C41 1.109 . S
C1111 C206 1.086 . S
C1123 C74 1.111 . S
C1138 C107 1.059 . S
C1150 C239 1.065 . S
C1165 C140 1.108 . S
C1177 C272 1.107 . S
C1192 C173 1.099 . S
C1204 C305 1.067 . S
