# Generated by pormake.
# Topology uoq, (4)-cn, num edge types: 1
# Building blocks:
#     Node 0, Type 0, BuildingBlock: UXUYUI_clean_sbu_0, # of connection points: 4
#     Node 1, Type 0, BuildingBlock: UXUYUI_clean_sbu_0, # of connection points: 4
#     Node 2, Type 0, BuildingBlock: UXUYUI_clean_sbu_0, # of connection points: 4
#     Node 3, Type 0, BuildingBlock: UXUYUI_clean_sbu_0, # of connection points: 4
#     Node 4, Type 0, BuildingBlock: UXUYUI_clean_sbu_0, # of connection points: 4
#     Node 5, Type 0, BuildingBlock: UXUYUI_clean_sbu_0, # of connection points: 4
#     Node 6, Type 0, BuildingBlock: UXUYUI_clean_sbu_0, # of connection points: 4
#     Node 7, Type 0, BuildingBlock: UXUYUI_clean_sbu_0, # of connection points: 4
#     Node 8, Type 0, BuildingBlock: UXUYUI_clean_sbu_0, # of connection points: 4
#     Node 9, Type 0, BuildingBlock: UXUYUI_clean_sbu_0, # of connection points: 4
#     Node 10, Type 0, BuildingBlock: UXUYUI_clean_sbu_0, # of connection points: 4
#     Node 11, Type 0, BuildingBlock: UXUYUI_clean_sbu_0, # of connection points: 4
#     Edge 12, Type (0, 0), BuildingBlock: OJICUG_clean_linker_0, # of connection points: 2
#     Edge 13, Type (0, 0), BuildingBlock: OJICUG_clean_linker_0, # of connection points: 2
#     Edge 14, Type (0, 0), BuildingBlock: OJICUG_clean_linker_0, # of connection points: 2
#     Edge 15, Type (0, 0), BuildingBlock: OJICUG_clean_linker_0, # of connection points: 2
#     Edge 16, Type (0, 0), BuildingBlock: OJICUG_clean_linker_0, # of connection points: 2
#     Edge 17, Type (0, 0), BuildingBlock: OJICUG_clean_linker_0, # of connection points: 2
#     Edge 18, Type (0, 0), BuildingBlock: OJICUG_clean_linker_0, # of connection points: 2
#     Edge 19, Type (0, 0), BuildingBlock: OJICUG_clean_linker_0, # of connection points: 2
#     Edge 20, Type (0, 0), BuildingBlock: OJICUG_clean_linker_0, # of connection points: 2
#     Edge 21, Type (0, 0), BuildingBlock: OJICUG_clean_linker_0, # of connection points: 2
#     Edge 22, Type (0, 0), BuildingBlock: OJICUG_clean_linker_0, # of connection points: 2
#     Edge 23, Type (0, 0), BuildingBlock: OJICUG_clean_linker_0, # of connection points: 2
#     Edge 24, Type (0, 0), BuildingBlock: OJICUG_clean_linker_0, # of connection points: 2
#     Edge 25, Type (0, 0), BuildingBlock: OJICUG_clean_linker_0, # of connection points: 2
#     Edge 26, Type (0, 0), BuildingBlock: OJICUG_clean_linker_0, # of connection points: 2
#     Edge 27, Type (0, 0), BuildingBlock: OJICUG_clean_linker_0, # of connection points: 2
#     Edge 28, Type (0, 0), BuildingBlock: OJICUG_clean_linker_0, # of connection points: 2
#     Edge 29, Type (0, 0), BuildingBlock: OJICUG_clean_linker_0, # of connection points: 2
#     Edge 30, Type (0, 0), BuildingBlock: OJICUG_clean_linker_0, # of connection points: 2
#     Edge 31, Type (0, 0), BuildingBlock: OJICUG_clean_linker_0, # of connection points: 2
#     Edge 32, Type (0, 0), BuildingBlock: OJICUG_clean_linker_0, # of connection points: 2
#     Edge 33, Type (0, 0), BuildingBlock: OJICUG_clean_linker_0, # of connection points: 2
#     Edge 34, Type (0, 0), BuildingBlock: OJICUG_clean_linker_0, # of connection points: 2
#     Edge 35, Type (0, 0), BuildingBlock: OJICUG_clean_linker_0, # of connection points: 2
# Relax obj value: 0.147
# Max RMSD: 0.104
# Mean RMSD: 0.104
data_MOF--net-uoq--node1-UXUYUI_clean_sbu_0--edge1-OJICUG_clean_linker_0
_symmetry_space_group_name_H-M    P1
_symmetry_Int_Tables_number       1
_symmetry_cell_setting            triclinic
loop_
_symmetry_equiv_pos_as_xyz
'x, y, z'
_cell_length_a     69.152317
_cell_length_b     69.219291
_cell_length_c     28.860808
_cell_angle_alpha  90.026317
_cell_angle_beta   90.025256
_cell_angle_gamma 119.99685
loop_
_atom_site_label
_atom_site_type_symbol
_atom_site_fract_x
_atom_site_fract_y
_atom_site_fract_z
_atom_type_partial_charge
Li0 Li 0.29158 0.44794 0.30303 0.0
Li1 Li 0.31503 0.43526 0.2667 0.0
Li2 Li 0.32597 0.47481 0.26926 0.0
Li3 Li 0.29539 0.45067 0.21802 0.0
C4 C 0.31942 0.45155 0.36727 0.0
N5 N 0.31291 0.44478 0.46166 0.0
C6 C 0.31214 0.4304 0.38599 0.0
C7 C 0.3235 0.46929 0.39657 0.0
C8 C 0.30893 0.42731 0.4338 0.0
C9 C 0.32009 0.46551 0.44419 0.0
C10 C 0.27324 0.40451 0.23032 0.0
C11 C 0.2761 0.38443 0.16481 0.0
N12 N 0.25502 0.3675 0.17323 0.0
C13 C 0.25161 0.38693 0.23828 0.0
C14 C 0.28561 0.40329 0.19326 0.0
C15 C 0.24269 0.36835 0.20905 0.0
C16 C 0.27214 0.45893 0.37666 0.0
N17 N 0.27169 0.44161 0.35357 0.0
C18 C 0.24557 0.41557 0.40784 0.0
C19 C 0.25863 0.42018 0.36798 0.0
C20 C 0.24634 0.43327 0.43313 0.0
C21 C 0.25967 0.45514 0.41692 0.0
H22 H 0.28263 0.47574 0.36452 0.0
H23 H 0.2588 0.40676 0.34913 0.0
C24 C 0.34912 0.42619 0.28215 0.0
N25 N 0.32665 0.41561 0.27619 0.0
C26 C 0.35946 0.41453 0.29791 0.0
C27 C 0.32331 0.38107 0.30124 0.0
C28 C 0.31366 0.3934 0.28488 0.0
C29 C 0.34651 0.39176 0.30897 0.0
H30 H 0.35893 0.44399 0.27692 0.0
H31 H 0.29572 0.38549 0.28165 0.0
C32 C 0.30155 0.49471 0.25801 0.0
N33 N 0.31177 0.53858 0.24882 0.0
C34 C 0.29836 0.50247 0.21559 0.0
C35 C 0.30985 0.50927 0.29582 0.0
C36 C 0.30366 0.5247 0.21162 0.0
C37 C 0.31494 0.53138 0.29046 0.0
C38 C 0.34386 0.47417 0.18911 0.0
C39 C 0.33946 0.48794 0.16091 0.0
C40 C 0.36566 0.47801 0.19254 0.0
C41 C 0.35697 0.50536 0.13666 0.0
C42 C 0.38273 0.49564 0.16783 0.0
N43 N 0.37807 0.50884 0.14063 0.0
C44 C 0.36587 0.50347 0.31404 0.0
C45 C 0.35785 0.52242 0.25556 0.0
C46 C 0.38478 0.52322 0.32751 0.0
N47 N 0.35247 0.50343 0.2795 0.0
C48 C 0.37677 0.54263 0.26777 0.0
C49 C 0.39029 0.54323 0.30479 0.0
H50 H 0.36182 0.48813 0.33155 0.0
H51 H 0.3473 0.52206 0.22759 0.0
C52 C 0.25805 0.44536 0.16984 0.0
N53 N 0.27833 0.44718 0.16282 0.0
C54 C 0.24448 0.44359 0.13229 0.0
C55 C 0.27271 0.44518 0.08065 0.0
C56 C 0.2857 0.44676 0.11933 0.0
C57 C 0.25181 0.4437 0.08684 0.0
H58 H 0.25256 0.44566 0.2048 0.0
H59 H 0.30174 0.44787 0.11461 0.0
O60 O 0.32196 0.45475 0.32038 0.0
O61 O 0.28204 0.42286 0.25851 0.0
O62 O 0.29614 0.47289 0.26267 0.0
O63 O 0.32695 0.45728 0.21377 0.0
H64 H 0.30866 0.41643 0.36383 0.0
H65 H 0.32893 0.48572 0.38262 0.0
H66 H 0.30316 0.41099 0.44873 0.0
H67 H 0.32303 0.47905 0.46723 0.0
H68 H 0.28547 0.38326 0.13602 0.0
H69 H 0.24179 0.38766 0.26674 0.0
H70 H 0.30236 0.4167 0.18647 0.0
H71 H 0.22596 0.35461 0.21481 0.0
H72 H 0.23546 0.39849 0.41944 0.0
H73 H 0.26042 0.46917 0.4352 0.0
H74 H 0.3774 0.42349 0.30248 0.0
H75 H 0.31258 0.36366 0.30984 0.0
H76 H 0.29185 0.49148 0.18598 0.0
H77 H 0.31295 0.50379 0.32862 0.0
H78 H 0.30131 0.53092 0.17896 0.0
H79 H 0.32158 0.54287 0.31931 0.0
H80 H 0.32279 0.48545 0.15831 0.0
H81 H 0.36943 0.46755 0.21403 0.0
H82 H 0.35379 0.5162 0.11492 0.0
H83 H 0.39969 0.49883 0.17029 0.0
H84 H 0.39508 0.52277 0.3553 0.0
H85 H 0.38048 0.55767 0.24914 0.0
H86 H 0.22863 0.4427 0.13881 0.0
H87 H 0.2789 0.44502 0.04628 0.0
Li88 Li 0.84587 0.28544 0.6332 0.0
Li89 Li 0.88345 0.30952 0.59589 0.0
Li90 Li 0.85557 0.32103 0.59788 0.0
Li91 Li 0.84941 0.29075 0.5479 0.0
C92 C 0.87287 0.33064 0.68286 0.0
N93 N 0.87775 0.36309 0.74517 0.0
C94 C 0.89176 0.35191 0.68111 0.0
C95 C 0.85654 0.32581 0.71651 0.0
C96 C 0.89388 0.36811 0.71283 0.0
C97 C 0.85931 0.34246 0.74769 0.0
C98 C 0.86988 0.26247 0.58278 0.0
C99 C 0.88365 0.24385 0.53348 0.0
N100 N 0.88549 0.23301 0.57105 0.0
C101 C 0.87162 0.25093 0.62079 0.0
C102 C 0.8757 0.25873 0.53866 0.0
C103 C 0.87967 0.2362 0.61419 0.0
C104 C 0.80872 0.25224 0.68086 0.0
N105 N 0.83119 0.26594 0.68261 0.0
C106 C 0.83263 0.25431 0.75971 0.0
C107 C 0.84329 0.26705 0.72064 0.0
C108 C 0.80931 0.24048 0.75952 0.0
C109 C 0.79735 0.23928 0.71922 0.0
H110 H 0.79962 0.25177 0.65002 0.0
H111 H 0.86115 0.27831 0.72096 0.0
C112 C 0.92907 0.34201 0.59644 0.0
N113 N 0.91449 0.32034 0.607 0.0
C114 C 0.95099 0.35237 0.61305 0.0
C115 C 0.94289 0.31762 0.64906 0.0
C116 C 0.92102 0.30801 0.63231 0.0
C117 C 0.95798 0.34026 0.64061 0.0
H118 H 0.92331 0.35161 0.57726 0.0
H119 H 0.90897 0.29111 0.64177 0.0
C120 C 0.81234 0.29492 0.56445 0.0
N121 N 0.78208 0.29987 0.51048 0.0
C122 C 0.81986 0.31135 0.53014 0.0
C123 C 0.78942 0.28104 0.57136 0.0
C124 C 0.80431 0.31358 0.5032 0.0
C125 C 0.77438 0.2838 0.54371 0.0
C126 C 0.8856 0.32653 0.50347 0.0
C127 C 0.88432 0.34059 0.47042 0.0
C128 C 0.89841 0.3165 0.49439 0.0
C129 C 0.89569 0.34416 0.42846 0.0
C130 C 0.90955 0.32049 0.45205 0.0
N131 N 0.90795 0.33411 0.42021 0.0
C132 C 0.86878 0.36682 0.59327 0.0
C133 C 0.83569 0.34447 0.63605 0.0
C134 C 0.86891 0.38619 0.60738 0.0
N135 N 0.85255 0.34657 0.60847 0.0
C136 C 0.83525 0.3634 0.65127 0.0
C137 C 0.85227 0.38469 0.63772 0.0
H138 H 0.8821 0.36796 0.5717 0.0
H139 H 0.8232 0.32813 0.64812 0.0
C140 C 0.82412 0.25152 0.49794 0.0
N141 N 0.83528 0.27406 0.49276 0.0
C142 C 0.81132 0.23761 0.46169 0.0
C143 C 0.82158 0.27031 0.41512 0.0
C144 C 0.83432 0.28363 0.4523 0.0
C145 C 0.80971 0.24693 0.41962 0.0
H146 H 0.82472 0.24434 0.53082 0.0
H147 H 0.8429 0.30157 0.44922 0.0
O148 O 0.87015 0.31477 0.65118 0.0
O149 O 0.86177 0.27674 0.58859 0.0
O150 O 0.82723 0.29222 0.59102 0.0
O151 O 0.8744 0.32278 0.54451 0.0
H152 H 0.90447 0.35597 0.6551 0.0
H153 H 0.84173 0.30949 0.7181 0.0
H154 H 0.90831 0.38471 0.71163 0.0
H155 H 0.84674 0.339 0.77371 0.0
H156 H 0.88828 0.24085 0.49956 0.0
H157 H 0.86696 0.25344 0.65508 0.0
H158 H 0.87391 0.26705 0.50863 0.0
H159 H 0.88126 0.22729 0.64337 0.0
H160 H 0.84241 0.25589 0.79028 0.0
H161 H 0.77939 0.22863 0.71758 0.0
H162 H 0.96216 0.36985 0.60556 0.0
H163 H 0.94754 0.30779 0.67064 0.0
H164 H 0.8375 0.32225 0.52417 0.0
H165 H 0.78329 0.26824 0.59775 0.0
H166 H 0.80991 0.32619 0.47648 0.0
H167 H 0.7566 0.27316 0.54865 0.0
H168 H 0.87453 0.34856 0.47704 0.0
H169 H 0.89986 0.30585 0.5198 0.0
H170 H 0.89475 0.35492 0.40247 0.0
H171 H 0.9195 0.3128 0.44454 0.0
H172 H 0.88214 0.40219 0.59531 0.0
H173 H 0.82225 0.36137 0.67504 0.0
H174 H 0.80219 0.21974 0.46715 0.0
H175 H 0.82096 0.27825 0.38328 0.0
Li176 Li 0.57737 0.88345 0.91895 0.0
Li177 Li 0.56196 0.84654 0.95392 0.0
Li178 Li 0.559 0.84939 0.87061 0.0
Li179 Li 0.53565 0.85656 0.9239 0.0
C180 C 0.60528 0.86969 0.88062 0.0
N181 N 0.64198 0.88669 0.82276 0.0
C182 C 0.62157 0.8636 0.88677 0.0
C183 C 0.60765 0.88442 0.84508 0.0
C184 C 0.64001 0.87239 0.85716 0.0
C185 C 0.62631 0.89283 0.81618 0.0
C186 C 0.56001 0.87098 0.02099 0.0
C187 C 0.54536 0.85387 0.09522 0.0
N188 N 0.56476 0.86915 0.11573 0.0
C189 C 0.57973 0.88662 0.04288 0.0
C190 C 0.5426 0.85458 0.04742 0.0
C191 C 0.58183 0.8854 0.09079 0.0
C192 C 0.59128 0.92874 0.92063 0.0
N193 N 0.59879 0.91417 0.92697 0.0
C194 C 0.63245 0.94273 0.96166 0.0
C195 C 0.61918 0.9208 0.94588 0.0
C196 C 0.62458 0.95791 0.95789 0.0
C197 C 0.60403 0.95081 0.9355 0.0
H198 H 0.57484 0.92289 0.90616 0.0
H199 H 0.6245 0.9087 0.9515 0.0
C200 C 0.5503 0.81028 0.01377 0.0
N201 N 0.56688 0.83104 1.0023 0.0
C202 C 0.55231 0.79968 0.05299 0.0
C203 C 0.58886 0.83167 0.06672 0.0
C204 C 0.58617 0.84161 0.02704 0.0
C205 C 0.57158 0.8106 0.08063 0.0
H206 H 0.53529 0.80216 0.99309 0.0
H207 H 0.59908 0.85813 0.0169 0.0
C208 C 0.54727 0.87868 0.82818 0.0
N209 N 0.53423 0.88511 0.74175 0.0
C210 C 0.52723 0.86229 0.80871 0.0
C211 C 0.56067 0.8984 0.80378 0.0
C212 C 0.52093 0.86583 0.76496 0.0
C213 C 0.55379 0.90133 0.76011 0.0
C214 C 0.51365 0.81282 0.9088 0.0
C215 C 0.50494 0.80454 0.86484 0.0
C216 C 0.49956 0.8053 0.94739 0.0
C217 C 0.48222 0.78904 0.86017 0.0
C218 C 0.47693 0.78981 0.94128 0.0
N219 N 0.4688 0.78207 0.89816 0.0
C220 C 0.55913 0.81527 0.82143 0.0
C221 C 0.56361 0.84417 0.77088 0.0
C222 C 0.56016 0.80289 0.78428 0.0
N223 N 0.56065 0.8354 0.81424 0.0
C224 C 0.56459 0.83223 0.73253 0.0
C225 C 0.56285 0.81126 0.73899 0.0
H226 H 0.55698 0.80877 0.85629 0.0
H227 H 0.56539 0.86044 0.76589 0.0
C228 C 0.50907 0.86781 0.9764 0.0
N229 N 0.50813 0.85617 0.93771 0.0
C230 C 0.49019 0.86799 0.99251 0.0
C231 C 0.4696 0.84524 0.92714 0.0
C232 C 0.48892 0.84516 0.9127 0.0
C233 C 0.46999 0.85665 0.96791 0.0
H234 H 0.52452 0.87692 0.9953 0.0
H235 H 0.4884 0.83611 0.88182 0.0
O236 O 0.58707 0.86105 0.90915 0.0
O237 O 0.55781 0.87158 0.9739 0.0
O238 O 0.55384 0.87549 0.87082 0.0
O239 O 0.53588 0.82801 0.91413 0.0
H240 H 0.61994 0.85219 0.91412 0.0
H241 H 0.59523 0.8893 0.83981 0.0
H242 H 0.65275 0.86782 0.8615 0.0
H243 H 0.62834 0.90422 0.78851 0.0
H244 H 0.53209 0.84114 0.11599 0.0
H245 H 0.59334 0.89948 0.02314 0.0
H246 H 0.5272 0.8424 0.03112 0.0
H247 H 0.59705 0.89732 0.10811 0.0
H248 H 0.64805 0.94734 0.97902 0.0
H249 H 0.59747 0.96198 0.9309 0.0
H250 H 0.5388 0.78321 0.06184 0.0
H251 H 0.60394 0.84072 0.08713 0.0
H252 H 0.51682 0.8469 0.82691 0.0
H253 H 0.57624 0.91129 0.81838 0.0
H254 H 0.5055 0.85321 0.7494 0.0
H255 H 0.564 0.91648 0.74079 0.0
H256 H 0.51552 0.81008 0.83454 0.0
H257 H 0.50595 0.81151 0.98166 0.0
H258 H 0.47525 0.78257 0.82633 0.0
H259 H 0.46582 0.78397 0.97081 0.0
H260 H 0.55852 0.78674 0.79097 0.0
H261 H 0.56702 0.83949 0.69831 0.0
H262 H 0.49149 0.87671 0.02451 0.0
H263 H 0.45462 0.83655 0.90635 0.0
Li264 Li 0.72146 0.56102 0.29624 0.0
Li265 Li 0.69769 0.57225 0.25889 0.0
Li266 Li 0.68556 0.53357 0.26246 0.0
Li267 Li 0.71707 0.55878 0.21028 0.0
C268 C 0.68525 0.54229 0.35544 0.0
N269 N 0.67276 0.51852 0.43743 0.0
C270 C 0.6725 0.54604 0.38791 0.0
C271 C 0.69166 0.52644 0.36468 0.0
C272 C 0.66636 0.53386 0.42917 0.0
C273 C 0.68517 0.5146 0.40631 0.0
C274 C 0.74147 0.60787 0.2548 0.0
C275 C 0.76201 0.64444 0.22047 0.0
N276 N 0.76378 0.65378 0.26288 0.0
C277 C 0.74354 0.61781 0.29805 0.0
C278 C 0.7508 0.62125 0.21566 0.0
C279 C 0.75486 0.64106 0.30141 0.0
C280 C 0.75752 0.56052 0.33969 0.0
N281 N 0.74179 0.56659 0.34521 0.0
C282 C 0.7532 0.57762 0.42345 0.0
C283 C 0.73958 0.57531 0.38575 0.0
C284 C 0.7691 0.57076 0.41933 0.0
C285 C 0.77142 0.56242 0.37657 0.0
H286 H 0.75893 0.55376 0.30691 0.0
H287 H 0.72679 0.57985 0.38925 0.0
C288 C 0.66518 0.5807 0.28938 0.0
N289 N 0.6853 0.59148 0.26777 0.0
C290 C 0.65487 0.59239 0.30495 0.0
C291 C 0.68578 0.62621 0.27443 0.0
C292 C 0.69533 0.61371 0.25861 0.0
C293 C 0.66549 0.61564 0.29909 0.0
H294 H 0.65734 0.56295 0.29556 0.0
H295 H 0.71104 0.62197 0.2404 0.0
C296 C 0.71389 0.51785 0.23051 0.0
N297 N 0.71109 0.4824 0.18085 0.0
C298 C 0.69806 0.50795 0.19521 0.0
C299 C 0.72823 0.50966 0.24067 0.0
C300 C 0.69694 0.49007 0.17045 0.0
C301 C 0.72656 0.49173 0.21516 0.0
C302 C 0.6769 0.56146 0.18145 0.0
C303 C 0.65425 0.5549 0.18321 0.0
C304 C 0.69154 0.58012 0.15541 0.0
C305 C 0.64662 0.56731 0.15911 0.0
C306 C 0.68326 0.59208 0.1318 0.0
N307 N 0.66117 0.58549 0.13416 0.0
C308 C 0.64033 0.50535 0.27955 0.0
C309 C 0.66096 0.48653 0.28427 0.0
C310 C 0.62108 0.48639 0.29501 0.0
N311 N 0.65975 0.50513 0.27454 0.0
C312 C 0.64205 0.46712 0.29971 0.0
C313 C 0.62178 0.46695 0.30581 0.0
H314 H 0.64006 0.52061 0.27341 0.0
H315 H 0.67673 0.48691 0.2818 0.0
C316 C 0.75619 0.57451 0.15763 0.0
N317 N 0.73364 0.56119 0.15517 0.0
C318 C 0.76972 0.57566 0.12052 0.0
C319 C 0.73661 0.54923 0.07896 0.0
C320 C 0.72366 0.54888 0.11662 0.0
C321 C 0.75999 0.56266 0.08077 0.0
H322 H 0.76372 0.58389 0.18894 0.0
H323 H 0.70569 0.5384 0.1155 0.0
O324 O 0.69119 0.55401 0.31474 0.0
O325 O 0.73055 0.58517 0.25071 0.0
O326 O 0.71537 0.53542 0.25523 0.0
O327 O 0.68491 0.55006 0.206 0.0
H328 H 0.66741 0.55824 0.38133 0.0
H329 H 0.70151 0.52326 0.34004 0.0
H330 H 0.65649 0.53659 0.45461 0.0
H331 H 0.69 0.50229 0.41388 0.0
H332 H 0.76928 0.65501 0.19049 0.0
H333 H 0.73622 0.6077 0.32853 0.0
H334 H 0.74934 0.6138 0.18193 0.0
H335 H 0.75649 0.64899 0.33462 0.0
H336 H 0.7507 0.58387 0.45599 0.0
H337 H 0.78364 0.55715 0.37192 0.0
H338 H 0.63885 0.58323 0.32209 0.0
H339 H 0.69466 0.64405 0.2688 0.0
H340 H 0.68669 0.51391 0.18707 0.0
H341 H 0.7405 0.51704 0.26805 0.0
H342 H 0.68478 0.48227 0.14301 0.0
H343 H 0.73756 0.48522 0.22266 0.0
H344 H 0.6427 0.54049 0.20318 0.0
H345 H 0.70914 0.58545 0.15388 0.0
H346 H 0.62915 0.5625 0.16033 0.0
H347 H 0.69441 0.60665 0.11173 0.0
H348 H 0.60603 0.48728 0.30016 0.0
H349 H 0.64339 0.45253 0.30737 0.0
H350 H 0.78767 0.58606 0.12352 0.0
H351 H 0.72844 0.53909 0.04878 0.0
Li352 Li 0.15952 0.71225 0.62755 0.0
Li353 Li 0.12577 0.69168 0.5849 0.0
Li354 Li 0.15092 0.6767 0.58938 0.0
Li355 Li 0.16037 0.71237 0.5417 0.0
C356 C 0.12072 0.67743 0.67559 0.0
N357 N 0.08967 0.66803 0.74484 0.0
C358 C 0.11589 0.69377 0.69044 0.0
C359 C 0.10988 0.65634 0.69621 0.0
C360 C 0.10011 0.68869 0.7254 0.0
C361 C 0.09422 0.65191 0.73113 0.0
C362 C 0.13867 0.73846 0.57612 0.0
C363 C 0.12578 0.75671 0.52357 0.0
N364 N 0.12253 0.76719 0.56008 0.0
C365 C 0.13555 0.7497 0.61306 0.0
C366 C 0.13406 0.74222 0.53094 0.0
C367 C 0.12724 0.76404 0.60426 0.0
C368 C 0.18673 0.75231 0.67646 0.0
N369 N 0.17354 0.72986 0.68072 0.0
C370 C 0.18152 0.73174 0.76156 0.0
C371 C 0.17081 0.71945 0.72208 0.0
C372 C 0.19557 0.75497 0.75837 0.0
C373 C 0.19805 0.76526 0.71502 0.0
H374 H 0.18877 0.76006 0.6429 0.0
H375 H 0.16057 0.70153 0.72435 0.0
C376 C 0.08205 0.65793 0.59758 0.0
N377 N 0.09397 0.68028 0.5898 0.0
C378 C 0.05977 0.64775 0.61134 0.0
C379 C 0.06184 0.68356 0.6071 0.0
C380 C 0.08421 0.69311 0.59342 0.0
C381 C 0.04943 0.66063 0.61726 0.0
H382 H 0.0903 0.64818 0.59586 0.0
H383 H 0.09389 0.71085 0.58774 0.0
C384 C 0.19847 0.71583 0.61178 0.0
N385 N 0.2363 0.736 0.66656 0.0
C386 C 0.21625 0.73679 0.59984 0.0
C387 C 0.19997 0.70507 0.65145 0.0
C388 C 0.23523 0.74672 0.628 0.0
C389 C 0.21922 0.71556 0.67873 0.0
C390 C 0.1171 0.66811 0.50746 0.0
C391 C 0.10673 0.64485 0.50618 0.0
C392 C 0.10759 0.67886 0.48359 0.0
C393 C 0.08671 0.6327 0.48183 0.0
C394 C 0.08755 0.66613 0.45966 0.0
N395 N 0.07759 0.6435 0.45933 0.0
C396 C 0.1339 0.63152 0.60789 0.0
C397 C 0.17315 0.65136 0.59739 0.0
C398 C 0.13444 0.61237 0.62081 0.0
N399 N 0.15309 0.65055 0.5971 0.0
C400 C 0.1745 0.63262 0.61065 0.0
C401 C 0.15498 0.61288 0.6232 0.0
H402 H 0.11823 0.63146 0.60795 0.0
H403 H 0.18818 0.66675 0.58888 0.0
C404 C 0.19032 0.75246 0.49705 0.0
N405 N 0.17593 0.73042 0.48924 0.0
C406 C 0.20304 0.76644 0.4608 0.0
C407 C 0.18534 0.73499 0.40861 0.0
C408 C 0.1731 0.72153 0.44604 0.0
C409 C 0.20075 0.75774 0.41583 0.0
H410 H 0.19204 0.75914 0.53166 0.0
H411 H 0.16151 0.70396 0.44076 0.0
O412 O 0.13557 0.68187 0.64025 0.0
O413 O 0.14696 0.72451 0.58411 0.0
O414 O 0.17943 0.70614 0.58556 0.0
O415 O 0.13652 0.68026 0.53175 0.0
H416 H 0.12406 0.7101 0.67472 0.0
H417 H 0.11345 0.6435 0.68528 0.0
H418 H 0.09611 0.70114 0.73698 0.0
H419 H 0.08564 0.63564 0.74727 0.0
H420 H 0.12204 0.75969 0.4888 0.0
H421 H 0.13956 0.74743 0.64815 0.0
H422 H 0.13702 0.73423 0.50183 0.0
H423 H 0.1246 0.77273 0.63253 0.0
H424 H 0.17878 0.72306 0.79422 0.0
H425 H 0.20899 0.78303 0.71062 0.0
H426 H 0.05114 0.63014 0.61957 0.0
H427 H 0.05451 0.69412 0.61065 0.0
H428 H 0.21538 0.74535 0.56929 0.0
H429 H 0.18622 0.68898 0.66158 0.0
H430 H 0.24908 0.76297 0.61927 0.0
H431 H 0.22053 0.7075 0.70974 0.0
H432 H 0.11403 0.63626 0.52383 0.0
H433 H 0.11547 0.69682 0.48386 0.0
H434 H 0.07843 0.61468 0.48079 0.0
H435 H 0.0799 0.67424 0.44137 0.0
H436 H 0.11903 0.5976 0.6307 0.0
H437 H 0.19064 0.63364 0.61165 0.0
H438 H 0.21445 0.78392 0.46784 0.0
H439 H 0.18313 0.72755 0.37459 0.0
Li440 Li 0.44848 0.15891 0.96541 0.0
Li441 Li 0.43332 0.12332 0.92898 0.0
Li442 Li 0.4743 0.14893 0.92883 0.0
Li443 Li 0.44792 0.15873 0.88222 0.0
C444 C 0.45473 0.12581 0.02238 0.0
N445 N 0.45604 0.10809 0.10746 0.0
C446 C 0.43507 0.10914 0.0427 0.0
C447 C 0.47504 0.1336 0.04573 0.0
C448 C 0.43608 0.10035 0.0856 0.0
C449 C 0.47535 0.1244 0.0886 0.0
C450 C 0.40628 0.14705 0.9479 0.0
C451 C 0.38347 0.16415 0.95672 0.0
N452 N 0.37608 0.15367 0.99818 0.0
C453 C 0.39824 0.13625 0.99033 0.0
C454 C 0.39869 0.16096 0.9307 0.0
C455 C 0.38307 0.13989 0.01535 0.0
C456 C 0.44155 0.1918 0.00926 0.0
N457 N 0.44579 0.17491 0.01752 0.0
C458 C 0.44684 0.18126 0.09913 0.0
C459 C 0.44845 0.16957 0.06148 0.0
C460 C 0.44239 0.19869 0.09176 0.0
C461 C 0.43974 0.20395 0.04602 0.0
H462 H 0.43964 0.19588 0.97401 0.0
H463 H 0.45206 0.15643 0.06777 0.0
C464 C 0.42251 0.07932 0.94272 0.0
N465 N 0.4129 0.09206 0.93584 0.0
C466 C 0.40969 0.0572 0.95706 0.0
C467 C 0.37703 0.06138 0.9558 0.0
C468 C 0.39053 0.08348 0.94109 0.0
C469 C 0.38671 0.04809 0.9652 0.0
H470 H 0.44041 0.08671 0.93934 0.0
H471 H 0.38335 0.09407 0.93616 0.0
C472 C 0.48587 0.19673 0.94898 0.0
N473 N 0.50846 0.23462 1.00288 0.0
C474 C 0.48621 0.21638 0.93628 0.0
C475 C 0.49726 0.19644 0.98873 0.0
C476 C 0.49768 0.23534 0.96407 0.0
C477 C 0.50851 0.21573 0.01564 0.0
C478 C 0.44535 0.11427 0.84859 0.0
C479 C 0.4559 0.10158 0.8457 0.0
C480 C 0.42491 0.10698 0.82628 0.0
C481 C 0.4457 0.08163 0.82064 0.0
C482 C 0.41525 0.08694 0.80157 0.0
N483 N 0.42575 0.07478 0.79931 0.0
C484 C 0.50005 0.12999 0.95127 0.0
C485 C 0.52202 0.16782 0.92889 0.0
C486 C 0.51902 0.12938 0.96536 0.0
N487 N 0.5018 0.14916 0.93481 0.0
C488 C 0.54158 0.1678 0.94143 0.0
C489 C 0.54027 0.14855 0.96123 0.0
H490 H 0.48371 0.11547 0.95602 0.0
H491 H 0.52291 0.18289 0.91587 0.0
C492 C 0.44294 0.19154 0.8346 0.0
N493 N 0.44549 0.1735 0.82788 0.0
C494 C 0.44201 0.20372 0.79687 0.0
C495 C 0.44595 0.17835 0.74559 0.0
C496 C 0.44696 0.16672 0.78443 0.0
C497 C 0.44358 0.19728 0.7514 0.0
H498 H 0.44186 0.19664 0.86946 0.0
H499 H 0.44907 0.15238 0.77988 0.0
O500 O 0.45415 0.13463 0.98021 0.0
O501 O 0.42145 0.144 0.92332 0.0
O502 O 0.47425 0.17778 0.92302 0.0
O503 O 0.45479 0.13357 0.87378 0.0
H504 H 0.41914 0.10301 0.02577 0.0
H505 H 0.49041 0.14673 0.03119 0.0
H506 H 0.42099 0.0874 0.10155 0.0
H507 H 0.49096 0.13028 0.10692 0.0
H508 H 0.37755 0.17496 0.94394 0.0
H509 H 0.40392 0.12543 0.00408 0.0
H510 H 0.40449 0.16922 0.89766 0.0
H511 H 0.3769 0.13181 0.04845 0.0
H512 H 0.44948 0.17691 0.13367 0.0
H513 H 0.43616 0.21718 0.03871 0.0
H514 H 0.41786 0.04755 0.96289 0.0
H515 H 0.35944 0.05516 0.96187 0.0
H516 H 0.47769 0.217 0.90542 0.0
H517 H 0.49716 0.18138 0.99901 0.0
H518 H 0.49797 0.25063 0.9548 0.0
H519 H 0.51723 0.21567 0.04671 0.0
H520 H 0.47171 0.10701 0.8629 0.0
H521 H 0.41651 0.11661 0.82845 0.0
H522 H 0.45361 0.07157 0.81823 0.0
H523 H 0.39939 0.08103 0.78429 0.0
H524 H 0.51677 0.11423 0.98118 0.0
H525 H 0.55746 0.18286 0.93632 0.0
H526 H 0.44055 0.21834 0.80347 0.0
H527 H 0.44691 0.17246 0.71139 0.0
Li528 Li 0.54034 0.68479 0.40254 0.0
Li529 Li 0.56447 0.71579 0.45567 0.0
Li530 Li 0.56861 0.71989 0.37135 0.0
Li531 Li 0.58081 0.69643 0.40823 0.0
C532 C 0.52174 0.71105 0.40956 0.0
N533 N 0.47865 0.70377 0.40971 0.0
C534 C 0.51125 0.71036 0.45142 0.0
C535 C 0.51041 0.70823 0.36778 0.0
C536 C 0.48944 0.70663 0.45076 0.0
C537 C 0.4886 0.70449 0.36859 0.0
C538 C 0.56538 0.67971 0.49804 0.0
C539 C 0.59642 0.68922 0.54937 0.0
N540 N 0.58269 0.6722 0.57787 0.0
C541 C 0.5516 0.66226 0.52773 0.0
C542 C 0.588 0.69329 0.50881 0.0
C543 C 0.56066 0.65876 0.56798 0.0
C544 C 0.51103 0.64597 0.35476 0.0
N545 N 0.51161 0.65919 0.39022 0.0
C546 C 0.47218 0.63607 0.40135 0.0
C547 C 0.49278 0.65432 0.41424 0.0
C548 C 0.47105 0.62267 0.36361 0.0
C549 C 0.4909 0.62771 0.34061 0.0
H550 H 0.52625 0.64954 0.33728 0.0
H551 H 0.49366 0.6646 0.44322 0.0
C552 C 0.56505 0.75129 0.50206 0.0
N553 N 0.56489 0.73189 0.51066 0.0
C554 C 0.565 0.76458 0.53847 0.0
C555 C 0.56409 0.73751 0.59243 0.0
C556 C 0.56425 0.72475 0.55486 0.0
C557 C 0.5645 0.7578 0.58457 0.0
H558 H 0.56512 0.75641 0.46662 0.0
H559 H 0.56358 0.70908 0.56126 0.0
C560 C 0.56319 0.68853 0.3065 0.0
N561 N 0.56567 0.68597 0.21136 0.0
C562 C 0.58097 0.68738 0.28634 0.0
C563 C 0.54654 0.68811 0.27832 0.0
C564 C 0.58195 0.68616 0.23815 0.0
C565 C 0.54814 0.6869 0.23028 0.0
C566 C 0.60935 0.74846 0.40034 0.0
C567 C 0.62193 0.74814 0.36278 0.0
C568 C 0.61345 0.7689 0.41844 0.0
C569 C 0.63825 0.76827 0.3436 0.0
C570 C 0.62993 0.78869 0.39832 0.0
N571 N 0.64187 0.78797 0.3616 0.0
C572 C 0.56389 0.7529 0.32531 0.0
C573 C 0.58629 0.74174 0.28408 0.0
C574 C 0.5649 0.76646 0.28854 0.0
N575 N 0.57402 0.74045 0.322 0.0
C576 C 0.58769 0.755 0.24647 0.0
C577 C 0.57649 0.76721 0.24798 0.0
H578 H 0.55456 0.75191 0.35613 0.0
H579 H 0.59458 0.73208 0.28234 0.0
C580 C 0.58913 0.66148 0.39902 0.0
N581 N 0.59995 0.68407 0.4028 0.0
C582 C 0.60077 0.65064 0.38635 0.0
C583 C 0.63463 0.68648 0.38247 0.0
C584 C 0.62239 0.69663 0.39616 0.0
C585 C 0.62369 0.66323 0.37668 0.0
H586 H 0.57123 0.65198 0.40386 0.0
H587 H 0.63066 0.71454 0.39978 0.0
O588 O 0.54309 0.71472 0.40945 0.0
O589 O 0.55673 0.68321 0.45841 0.0
O590 O 0.56193 0.68969 0.35363 0.0
O591 O 0.59316 0.72889 0.41931 0.0
H592 H 0.51975 0.71245 0.48409 0.0
H593 H 0.51837 0.70894 0.33508 0.0
H594 H 0.48107 0.70595 0.48288 0.0
H595 H 0.47959 0.70219 0.33652 0.0
H596 H 0.61387 0.69961 0.55819 0.0
H597 H 0.53407 0.65157 0.51976 0.0
H598 H 0.59896 0.70686 0.48628 0.0
H599 H 0.55017 0.64535 0.59135 0.0
H600 H 0.45729 0.63268 0.42027 0.0
H601 H 0.49093 0.61747 0.31228 0.0
H602 H 0.56555 0.78012 0.53044 0.0
H603 H 0.56325 0.73131 0.62724 0.0
H604 H 0.59397 0.68761 0.3076 0.0
H605 H 0.53257 0.68876 0.29341 0.0
H606 H 0.59567 0.68539 0.22205 0.0
H607 H 0.53544 0.68669 0.20804 0.0
H608 H 0.61875 0.73249 0.34781 0.0
H609 H 0.60413 0.76952 0.44784 0.0
H610 H 0.64795 0.76824 0.31423 0.0
H611 H 0.63324 0.80462 0.41195 0.0
H612 H 0.55641 0.77596 0.29158 0.0
H613 H 0.59672 0.75495 0.21586 0.0
H614 H 0.59173 0.63269 0.38199 0.0
H615 H 0.65235 0.69669 0.37576 0.0
Li616 Li 0.85328 0.5577 0.79837 0.0
Li617 Li 0.8588 0.53222 0.7471 0.0
Li618 Li 0.88706 0.57367 0.74719 0.0
Li619 Li 0.84974 0.55888 0.71389 0.0
C620 C 0.88455 0.54543 0.83824 0.0
N621 N 0.89711 0.53314 0.91885 0.0
C622 C 0.87132 0.52402 0.85633 0.0
C623 C 0.90431 0.56051 0.86079 0.0
C624 C 0.87791 0.51814 0.89723 0.0
C625 C 0.91033 0.55401 0.90161 0.0
C626 C 0.81415 0.5125 0.75989 0.0
C627 C 0.79014 0.47653 0.72512 0.0
N628 N 0.77973 0.46883 0.76654 0.0
C629 C 0.80316 0.50424 0.80207 0.0
C630 C 0.80756 0.49854 0.72105 0.0
C631 C 0.78582 0.48212 0.80474 0.0
C632 C 0.83188 0.57475 0.85439 0.0
N633 N 0.84015 0.56056 0.8554 0.0
C634 C 0.82488 0.54816 0.93131 0.0
C635 C 0.83706 0.54754 0.89315 0.0
C636 C 0.81601 0.56253 0.93092 0.0
C637 C 0.81998 0.57621 0.89209 0.0
H638 H 0.83393 0.5845 0.82364 0.0
H639 H 0.84319 0.53597 0.89305 0.0
C640 C 0.87233 0.50504 0.70484 0.0
N641 N 0.85748 0.50412 0.73687 0.0
C642 C 0.87214 0.48567 0.69074 0.0
C643 C 0.84177 0.46459 0.74389 0.0
C644 C 0.84272 0.48448 0.75739 0.0
C645 C 0.85647 0.46504 0.70974 0.0
H646 H 0.88414 0.52085 0.68948 0.0
H647 H 0.83137 0.48408 0.78355 0.0
C648 C 0.87625 0.60438 0.78117 0.0
N649 N 0.89746 0.64373 0.83091 0.0
C650 C 0.87573 0.6232 0.76544 0.0
C651 C 0.88754 0.60555 0.82216 0.0
C652 C 0.88656 0.64295 0.79108 0.0
C653 C 0.89815 0.62559 0.84684 0.0
C654 C 0.87348 0.5543 0.64774 0.0
C655 C 0.88796 0.57443 0.62577 0.0
C656 C 0.85866 0.53586 0.62128 0.0
C657 C 0.88714 0.57587 0.57759 0.0
C658 C 0.85832 0.53799 0.57319 0.0
N659 N 0.87244 0.55778 0.55253 0.0
C660 C 0.93043 0.58328 0.7328 0.0
C661 C 0.92665 0.6153 0.72437 0.0
C662 C 0.95219 0.59485 0.71558 0.0
N663 N 0.91804 0.59347 0.73609 0.0
C664 C 0.94848 0.62758 0.70723 0.0
C665 C 0.96131 0.61715 0.70145 0.0
H666 H 0.92299 0.5658 0.74153 0.0
H667 H 0.91626 0.62285 0.72594 0.0
C668 C 0.8139 0.54668 0.6521 0.0
N669 N 0.83444 0.56349 0.66436 0.0
C670 C 0.80345 0.54849 0.61243 0.0
C671 C 0.83491 0.58549 0.60009 0.0
C672 C 0.84484 0.58288 0.63999 0.0
C673 C 0.81416 0.56791 0.58543 0.0
H674 H 0.80576 0.5317 0.67261 0.0
H675 H 0.86116 0.59602 0.65075 0.0
O676 O 0.87862 0.55141 0.79784 0.0
O677 O 0.83106 0.53419 0.75659 0.0
O678 O 0.86584 0.58501 0.75616 0.0
O679 O 0.87362 0.55272 0.69497 0.0
H680 H 0.85596 0.5122 0.83937 0.0
H681 H 0.91491 0.57705 0.84681 0.0
H682 H 0.86774 0.50168 0.91182 0.0
H683 H 0.92554 0.56553 0.91953 0.0
H684 H 0.78499 0.46553 0.6954 0.0
H685 H 0.80785 0.51478 0.83238 0.0
H686 H 0.816 0.50452 0.68825 0.0
H687 H 0.77719 0.47552 0.83719 0.0
H688 H 0.82221 0.53735 0.96063 0.0
H689 H 0.81319 0.5873 0.8901 0.0
H690 H 0.88372 0.48678 0.6642 0.0
H691 H 0.82966 0.44905 0.75993 0.0
H692 H 0.86708 0.62255 0.73368 0.0
H693 H 0.88803 0.59114 0.83492 0.0
H694 H 0.88632 0.65766 0.77931 0.0
H695 H 0.90693 0.62673 0.87866 0.0
H696 H 0.89949 0.58888 0.64571 0.0
H697 H 0.84746 0.52012 0.6377 0.0
H698 H 0.89814 0.5914 0.56015 0.0
H699 H 0.84683 0.5239 0.5523 0.0
H700 H 0.96158 0.58624 0.71226 0.0
H701 H 0.95479 0.64468 0.69636 0.0
H702 H 0.78722 0.53477 0.60278 0.0
H703 H 0.84368 0.60072 0.58012 0.0
Li704 Li 0.32615 0.8582 0.0783 0.0
Li705 Li 0.2945 0.85133 0.12956 0.0
Li706 Li 0.28911 0.84597 0.04478 0.0
Li707 Li 0.31045 0.88342 0.07914 0.0
C708 C 0.2868 0.80774 0.07971 0.0
N709 N 0.2629 0.76278 0.05868 0.0
C710 C 0.26869 0.79318 0.10726 0.0
C711 C 0.29283 0.7994 0.04167 0.0
C712 C 0.25682 0.77051 0.09603 0.0
C713 C 0.28051 0.77663 0.03153 0.0
C714 C 0.33125 0.87844 0.1756 0.0
C715 C 0.32774 0.88779 0.25443 0.0
N716 N 0.3408 0.87938 0.26876 0.0
C717 C 0.34473 0.86999 0.191 0.0
C718 C 0.32278 0.88753 0.20743 0.0
C719 C 0.34934 0.8706 0.23829 0.0
C720 C 0.37161 0.87684 0.05789 0.0
N721 N 0.35298 0.85727 0.06845 0.0
C722 C 0.37207 0.83712 0.05347 0.0
C723 C 0.35299 0.83765 0.06758 0.0
C724 C 0.39125 0.85694 0.03952 0.0
C725 C 0.39084 0.87704 0.04258 0.0
H726 H 0.37123 0.89224 0.05955 0.0
H727 H 0.33808 0.82235 0.07697 0.0
C728 C 0.25971 0.83666 0.19594 0.0
N729 N 0.27973 0.83814 0.18714 0.0
C730 C 0.24695 0.82459 0.23416 0.0
C731 C 0.27586 0.81622 0.25441 0.0
C732 C 0.28796 0.82825 0.2155 0.0
C733 C 0.25487 0.81394 0.26376 0.0
H734 H 0.2533 0.84427 0.17243 0.0
H735 H 0.30354 0.82901 0.20698 0.0
C736 C 0.33269 0.87519 0.99049 0.0
N737 N 0.36379 0.88399 0.92167 0.0
C738 C 0.34961 0.8971 0.982 0.0
C739 C 0.33149 0.85779 0.96372 0.0
C740 C 0.36519 0.90119 0.9471 0.0
C741 C 0.3474 0.86257 0.92918 0.0
C742 C 0.26959 0.87468 0.08288 0.0
C743 C 0.26029 0.87583 0.04071 0.0
C744 C 0.27091 0.88845 0.11962 0.0
C745 C 0.25259 0.89093 0.03587 0.0
C746 C 0.26305 0.90334 0.11338 0.0
N747 N 0.25414 0.90427 0.07198 0.0
C748 C 0.25158 0.80905 1.00181 0.0
C749 C 0.27456 0.83942 0.95269 0.0
C750 C 0.23855 0.7968 0.96415 0.0
N751 N 0.26962 0.82965 0.9952 0.0
C752 C 0.26177 0.82793 0.91419 0.0
C753 C 0.2438 0.80617 0.91963 0.0
H754 H 0.24741 0.80202 0.03617 0.0
H755 H 0.28859 0.85609 0.94858 0.0
C756 C 0.33057 0.93027 0.09813 0.0
N757 N 0.3188 0.91374 0.067 0.0
C758 C 0.33966 0.95263 0.08511 0.0
C759 C 0.32373 0.94044 0.00884 0.0
C760 C 0.31486 0.91838 0.02339 0.0
C761 C 0.33682 0.95801 0.03946 0.0
H762 H 0.33363 0.92612 0.13246 0.0
H763 H 0.30579 0.90489 0.99909 0.0
O764 O 0.29861 0.83 0.09013 0.0
O765 O 0.32634 0.87777 0.12957 0.0
O766 O 0.31751 0.87079 0.02511 0.0
O767 O 0.27775 0.86044 0.08792 0.0
H768 H 0.2637 0.7993 0.13673 0.0
H769 H 0.30683 0.81037 0.0201 0.0
H770 H 0.24272 0.75908 0.11693 0.0
H771 H 0.28494 0.76998 1.00206 0.0
H772 H 0.3212 0.89465 0.27953 0.0
H773 H 0.35141 0.8629 0.16674 0.0
H774 H 0.31234 0.89416 0.19597 0.0
H775 H 0.35967 0.86403 0.25077 0.0
H776 H 0.37166 0.82128 0.05316 0.0
H777 H 0.40492 0.89277 0.03182 0.0
H778 H 0.23094 0.8234 0.2402 0.0
H779 H 0.28247 0.80802 0.27586 0.0
H780 H 0.35093 0.91076 1.00263 0.0
H781 H 0.31844 0.84078 0.96961 0.0
H782 H 0.37846 0.91804 0.94037 0.0
H783 H 0.34672 0.84925 0.90835 0.0
H784 H 0.2592 0.86532 0.01191 0.0
H785 H 0.27813 0.88777 0.15243 0.0
H786 H 0.24545 0.89209 1.00336 0.0
H787 H 0.26407 0.91419 0.14142 0.0
H788 H 0.22452 0.78019 0.96973 0.0
H789 H 0.26627 0.83571 0.88037 0.0
H790 H 0.34931 0.96556 0.1102 0.0
H791 H 0.32133 0.94363 0.97318 0.0
Li792 Li 0.47509 0.32727 0.41987 0.0
Li793 Li 0.44802 0.29399 0.46531 0.0
Li794 Li 0.44874 0.29297 0.38032 0.0
Li795 Li 0.43599 0.31512 0.4184 0.0
C796 C 0.48937 0.29751 0.44958 0.0
N797 N 0.5226 0.2976 0.50292 0.0
C798 C 0.49678 0.31043 0.48989 0.0
C799 C 0.49883 0.28462 0.43646 0.0
C800 C 0.51359 0.31025 0.51637 0.0
C801 C 0.51563 0.2849 0.46387 0.0
C802 C 0.44565 0.33481 0.49717 0.0
C803 C 0.41337 0.33004 0.53896 0.0
N804 N 0.42258 0.35259 0.54106 0.0
C805 C 0.45486 0.35792 0.49992 0.0
C806 C 0.42479 0.32073 0.51697 0.0
C807 C 0.44291 0.36658 0.52221 0.0
C808 C 0.50424 0.3726 0.40604 0.0
N809 N 0.50409 0.35308 0.41261 0.0
C810 C 0.54268 0.37037 0.39163 0.0
C811 C 0.52283 0.35167 0.40601 0.0
C812 C 0.54313 0.39058 0.38317 0.0
C813 C 0.52366 0.39164 0.39141 0.0
H814 H 0.48894 0.37307 0.40989 0.0
H815 H 0.52218 0.33583 0.40935 0.0
C816 C 0.4434 0.25619 0.51126 0.0
N817 N 0.44473 0.27619 0.51909 0.0
C818 C 0.44269 0.24284 0.54834 0.0
C819 C 0.44427 0.27068 0.60112 0.0
C820 C 0.4452 0.28363 0.56295 0.0
C821 C 0.4432 0.25004 0.5941 0.0
H822 H 0.44329 0.25078 0.47603 0.0
H823 H 0.44672 0.29979 0.56836 0.0
C824 C 0.46964 0.33181 0.32725 0.0
N825 N 0.49688 0.34877 0.25045 0.0
C826 C 0.46745 0.34655 0.29759 0.0
C827 C 0.4857 0.3257 0.31786 0.0
C828 C 0.48137 0.35494 0.25893 0.0
C829 C 0.4993 0.33445 0.27886 0.0
C830 C 0.40309 0.27072 0.39652 0.0
C831 C 0.40035 0.27987 0.35557 0.0
C832 C 0.38625 0.24974 0.41106 0.0
C833 C 0.38074 0.26788 0.32989 0.0
C834 C 0.36687 0.23826 0.38441 0.0
N835 N 0.36454 0.24749 0.34472 0.0
C836 C 0.44869 0.2573 0.33317 0.0
C837 C 0.43916 0.27945 0.28636 0.0
C838 C 0.44714 0.24419 0.29499 0.0
N839 N 0.44489 0.27463 0.32808 0.0
C840 C 0.43754 0.26688 0.24729 0.0
C841 C 0.44172 0.24909 0.25125 0.0
H842 H 0.45323 0.25389 0.36679 0.0
H843 H 0.43613 0.29326 0.28317 0.0
C844 C 0.42742 0.34876 0.39435 0.0
N845 N 0.4167 0.32747 0.41049 0.0
C846 C 0.4154 0.35919 0.38176 0.0
C847 C 0.38135 0.32571 0.40306 0.0
C848 C 0.39412 0.316 0.41603 0.0
C849 C 0.39202 0.34753 0.38521 0.0
H850 H 0.44536 0.35746 0.39019 0.0
H851 H 0.38595 0.29913 0.42924 0.0
O852 O 0.47267 0.29708 0.42339 0.0
O853 O 0.45672 0.32594 0.4743 0.0
O854 O 0.45638 0.32385 0.36572 0.0
O855 O 0.42223 0.28198 0.4221 0.0
H856 H 0.48965 0.32049 0.50068 0.0
H857 H 0.49323 0.27448 0.40543 0.0
H858 H 0.51948 0.32016 0.54763 0.0
H859 H 0.52311 0.27501 0.45412 0.0
H860 H 0.39714 0.31935 0.55416 0.0
H861 H 0.47101 0.36904 0.48486 0.0
H862 H 0.41735 0.30278 0.51471 0.0
H863 H 0.44979 0.38444 0.52445 0.0
H864 H 0.55718 0.36869 0.38493 0.0
H865 H 0.52328 0.4069 0.38557 0.0
H866 H 0.44169 0.227 0.54124 0.0
H867 H 0.445 0.27704 0.63576 0.0
H868 H 0.45514 0.35149 0.30444 0.0
H869 H 0.48773 0.31439 0.34048 0.0
H870 H 0.47987 0.36638 0.23569 0.0
H871 H 0.51182 0.32989 0.27123 0.0
H872 H 0.41316 0.29612 0.34384 0.0
H873 H 0.38816 0.2424 0.44261 0.0
H874 H 0.37839 0.2748 0.29819 0.0
H875 H 0.35369 0.222 0.39526 0.0
H876 H 0.45069 0.23073 0.29943 0.0
H877 H 0.43304 0.27102 0.21433 0.0
H878 H 0.42428 0.37596 0.36786 0.0
H879 H 0.36336 0.31625 0.40665 0.0
Li880 Li 0.15047 0.4686 0.74576 0.0
Li881 Li 0.15758 0.44308 0.79975 0.0
Li882 Li 0.15728 0.43929 0.71555 0.0
Li883 Li 0.12283 0.42887 0.75496 0.0
C884 C 0.19837 0.47306 0.73476 0.0
N885 N 0.23957 0.48636 0.69534 0.0
C886 C 0.21356 0.4684 0.75691 0.0
C887 C 0.20423 0.48466 0.69276 0.0
C888 C 0.2343 0.47525 0.7364 0.0
C889 C 0.22509 0.49117 0.6733 0.0
C890 C 0.11599 0.44428 0.83142 0.0
C891 C 0.09036 0.41629 0.88447 0.0
N892 N 0.07741 0.42597 0.88369 0.0
C893 C 0.10251 0.45402 0.83126 0.0
C894 C 0.10996 0.42532 0.85832 0.0
C895 C 0.08304 0.44448 0.8579 0.0
C896 C 0.13403 0.49691 0.72516 0.0
N897 N 0.15336 0.49692 0.73341 0.0
C898 C 0.17481 0.53514 0.71043 0.0
C899 C 0.17357 0.51558 0.72718 0.0
C900 C 0.15506 0.53544 0.70008 0.0
C901 C 0.13448 0.51607 0.70872 0.0
H902 H 0.11822 0.48171 0.72965 0.0
H903 H 0.1887 0.51501 0.7334 0.0
C904 C 0.16745 0.42276 0.87562 0.0
N905 N 0.17239 0.44249 0.85559 0.0
C906 C 0.17969 0.42233 0.91392 0.0
C907 C 0.20171 0.46253 0.91056 0.0
C908 C 0.18895 0.46219 0.87261 0.0
C909 C 0.19732 0.4424 0.93154 0.0
H910 H 0.15427 0.40732 0.86131 0.0
H911 H 0.1926 0.47764 0.85592 0.0
C912 C 0.12886 0.45075 0.65563 0.0
N913 N 0.11837 0.45958 0.5686 0.0
C914 C 0.10934 0.43499 0.63321 0.0
C915 C 0.14314 0.4709 0.63343 0.0
C916 C 0.10431 0.43978 0.58931 0.0
C917 C 0.13751 0.47509 0.58957 0.0
C918 C 0.13253 0.39453 0.74187 0.0
C919 C 0.12271 0.39136 0.69812 0.0
C920 C 0.13252 0.37662 0.76422 0.0
C921 C 0.11291 0.37029 0.67755 0.0
C922 C 0.12255 0.35579 0.74251 0.0
N923 N 0.11303 0.35308 0.69999 0.0
C924 C 0.18776 0.42793 0.67563 0.0
C925 C 0.16434 0.43179 0.62106 0.0
C926 C 0.19976 0.42504 0.64002 0.0
N927 N 0.17097 0.43211 0.66555 0.0
C928 C 0.17555 0.42855 0.58451 0.0
C929 C 0.19386 0.4257 0.59376 0.0
H930 H 0.1922 0.42743 0.71133 0.0
H931 H 0.15059 0.43437 0.61348 0.0
C932 C 0.08084 0.42145 0.73413 0.0
N933 N 0.09097 0.41036 0.75066 0.0
C934 C 0.05851 0.40986 0.72059 0.0
C935 C 0.05676 0.37558 0.74444 0.0
C936 C 0.07931 0.38791 0.75732 0.0
C937 C 0.04619 0.3865 0.72458 0.0
H938 H 0.09054 0.43929 0.72894 0.0
H939 H 0.08763 0.37943 0.77095 0.0
O940 O 0.17785 0.4662 0.75397 0.0
O941 O 0.13474 0.45288 0.80452 0.0
O942 O 0.13402 0.44634 0.69877 0.0
O943 O 0.14227 0.41502 0.76281 0.0
H944 H 0.20928 0.45929 0.78921 0.0
H945 H 0.19272 0.48841 0.67512 0.0
H946 H 0.24615 0.47163 0.75301 0.0
H947 H 0.22977 0.50001 0.64065 0.0
H948 H 0.0854 0.40154 0.90525 0.0
H949 H 0.10696 0.4687 0.81061 0.0
H950 H 0.12016 0.41751 0.8585 0.0
H951 H 0.07238 0.45178 0.85799 0.0
H952 H 0.19105 0.54956 0.70394 0.0
H953 H 0.11882 0.51557 0.70215 0.0
H954 H 0.17579 0.40642 0.92871 0.0
H955 H 0.21492 0.47841 0.92329 0.0
H956 H 0.09827 0.41908 0.6492 0.0
H957 H 0.15845 0.48319 0.6497 0.0
H958 H 0.08926 0.42772 0.57165 0.0
H959 H 0.14839 0.49066 0.57215 0.0
H960 H 0.12256 0.40497 0.68024 0.0
H961 H 0.14012 0.37878 0.79802 0.0
H962 H 0.10521 0.36762 0.64375 0.0
H963 H 0.12239 0.34177 0.75946 0.0
H964 H 0.21366 0.4226 0.64847 0.0
H965 H 0.17051 0.4292 0.54926 0.0
H966 H 0.05139 0.41911 0.70497 0.0
H967 H 0.04787 0.35767 0.74914 0.0
Li968 Li 0.71284 0.15155 0.13739 0.0
Li969 Li 0.6824 0.14632 0.08597 0.0
Li970 Li 0.69815 0.12012 0.08652 0.0
Li971 Li 0.72063 0.15728 0.05541 0.0
C972 C 0.67387 0.12391 0.18048 0.0
N973 N 0.65865 0.12009 0.2704 0.0
C974 C 0.66308 0.13544 0.19445 0.0
C975 C 0.67657 0.11012 0.21201 0.0
C976 C 0.65559 0.13337 0.24011 0.0
C977 C 0.66887 0.1085 0.25738 0.0
C978 C 0.72467 0.19377 0.11824 0.0
C979 C 0.72999 0.22468 0.1659 0.0
N980 N 0.75237 0.2325 0.16626 0.0
C981 C 0.74774 0.20217 0.11887 0.0
C982 C 0.71571 0.20513 0.1418 0.0
C983 C 0.76145 0.22175 0.14342 0.0
C984 C 0.7477 0.16688 0.20353 0.0
N985 N 0.7271 0.16432 0.19632 0.0
C986 C 0.7311 0.18605 0.26413 0.0
C987 C 0.7186 0.17348 0.22601 0.0
C988 C 0.75261 0.18931 0.27185 0.0
C989 C 0.76069 0.17919 0.24127 0.0
H990 H 0.7546 0.1603 0.17873 0.0
H991 H 0.70262 0.17207 0.21889 0.0
C992 C 0.64258 0.13171 0.03885 0.0
N993 N 0.65579 0.14707 0.07085 0.0
C994 C 0.62395 0.13186 0.02085 0.0
C995 C 0.63178 0.16273 0.07141 0.0
C996 C 0.65074 0.1624 0.08748 0.0
C997 C 0.61817 0.1475 0.03696 0.0
H998 H 0.64689 0.11965 0.02619 0.0
H999 H 0.66145 0.17445 0.11296 0.0
C1000 C 0.73764 0.1272 0.10803 0.0
N1001 N 0.7515 0.09676 0.1257 0.0
C1002 C 0.75159 0.12462 0.07671 0.0
C1003 C 0.73102 0.11454 0.14864 0.0
C1004 C 0.75835 0.10908 0.08617 0.0
C1005 C 0.73813 0.09918 0.15689 0.0
C1006 C 0.69081 0.13844 0.98781 0.0
C1007 C 0.69204 0.12496 0.95322 0.0
C1008 C 0.68983 0.15746 0.97547 0.0
C1009 C 0.6924 0.13082 0.90678 0.0
C1010 C 0.69024 0.16277 0.92866 0.0
N1011 N 0.69152 0.14946 0.89556 0.0
C1012 C 0.67213 0.07311 0.09769 0.0
C1013 C 0.69845 0.08532 0.03651 0.0
C1014 C 0.66284 0.05098 0.08296 0.0
N1015 N 0.6893 0.08975 0.07383 0.0
C1016 C 0.6896 0.06347 0.02039 0.0
C1017 C 0.67112 0.04596 0.04291 0.0
H1018 H 0.665 0.07711 0.12694 0.0
H1019 H 0.71192 0.09893 0.01783 0.0
C1020 C 0.7445 0.19469 0.99788 0.0
N1021 N 0.74027 0.17364 0.00657 0.0
C1022 C 0.75653 0.20603 0.95861 0.0
C1023 C 0.75983 0.1739 0.93822 0.0
C1024 C 0.74764 0.16314 0.97783 0.0
C1025 C 0.76414 0.19552 0.92796 0.0
H1026 H 0.73784 0.20238 0.02053 0.0
H1027 H 0.74318 0.14606 0.98457 0.0
O1028 O 0.68123 0.1257 0.13585 0.0
O1029 O 0.71095 0.17421 0.09569 0.0
O1030 O 0.73042 0.14198 0.09905 0.0
O1031 O 0.69118 0.13343 0.03358 0.0
H1032 H 0.66077 0.1461 0.17048 0.0
H1033 H 0.68435 0.1006 0.20155 0.0
H1034 H 0.64739 0.14237 0.25149 0.0
H1035 H 0.67094 0.09796 0.2822 0.0
H1036 H 0.72327 0.23358 0.18452 0.0
H1037 H 0.75492 0.19344 0.10121 0.0
H1038 H 0.6979 0.19879 0.142 0.0
H1039 H 0.7793 0.22834 0.14451 0.0
H1040 H 0.72413 0.19347 0.28683 0.0
H1041 H 0.77732 0.18158 0.2452 0.0
H1042 H 0.61459 0.12007 0.99371 0.0
H1043 H 0.62793 0.17482 0.08594 0.0
H1044 H 0.75716 0.13447 0.04543 0.0
H1045 H 0.72055 0.11662 0.17352 0.0
H1046 H 0.76905 0.10682 0.06211 0.0
H1047 H 0.73302 0.08921 0.18811 0.0
H1048 H 0.69278 0.11018 0.96205 0.0
H1049 H 0.68914 0.16824 1.00181 0.0
H1050 H 0.69342 0.12058 0.87965 0.0
H1051 H 0.68966 0.17752 0.91864 0.0
H1052 H 0.64888 0.03802 0.10198 0.0
H1053 H 0.69643 0.06055 0.98915 0.0
H1054 H 0.75958 0.22273 0.95194 0.0
H1055 H 0.76504 0.16509 0.91494 0.0
C1056 C 0.34992 0.35729 0.31973 0.0
C1057 C 0.35719 0.37975 0.33042 0.0
H1058 H 0.35517 0.32945 0.32882 0.0
C1059 C 0.37505 0.39089 0.36175 0.0
H1060 H 0.33632 0.34818 0.29561 0.0
C1061 C 0.38592 0.38023 0.38033 0.0
C1062 C 0.37907 0.35804 0.36863 0.0
H1063 H 0.38073 0.40794 0.37206 0.0
H1064 H 0.39981 0.38942 0.40379 0.0
C1065 C 0.3607 0.34653 0.33878 0.0
C1066 C 0.99411 0.34209 0.6625 0.0
C1067 C 0.98032 0.35161 0.66308 0.0
H1068 H 0.02579 0.34571 0.68056 0.0
C1069 C 0.98781 0.37202 0.6861 0.0
H1070 H 0.98876 0.32637 0.64498 0.0
C1071 C 0.00877 0.38288 0.70739 0.0
C1072 C 0.02298 0.37379 0.70568 0.0
H1073 H 0.97733 0.37952 0.68805 0.0
H1074 H 0.01382 0.39847 0.72517 0.0
C1075 C 0.01527 0.35311 0.68329 0.0
C1076 C 0.66028 0.99303 0.97969 0.0
C1077 C 0.63681 0.9804 0.97994 0.0
H1078 H 0.68956 0.02335 0.99992 0.0
C1079 C 0.6249 0.98926 1.0024 0.0
H1080 H 0.67001 0.98678 0.96264 0.0
C1081 C 0.63605 0.01027 0.02326 0.0
C1082 C 0.6595 0.02304 0.02267 0.0
H1083 H 0.60684 0.97989 0.00423 0.0
H1084 H 0.62618 0.01666 0.03906 0.0
C1085 C 0.67149 0.01409 1.00076 0.0
C1086 C 0.65785 0.64781 0.29797 0.0
C1087 C 0.65565 0.62861 0.31981 0.0
H1088 H 0.64964 0.6739 0.29914 0.0
C1089 C 0.64377 0.62174 0.36192 0.0
H1090 H 0.66661 0.65353 0.26534 0.0
C1091 C 0.63374 0.63319 0.38069 0.0
C1092 C 0.63569 0.65209 0.35845 0.0
H1093 H 0.64221 0.6075 0.38069 0.0
H1094 H 0.62443 0.62726 0.41271 0.0
C1095 C 0.64811 0.65949 0.31726 0.0
C1096 C 0.99935 0.65104 0.68988 0.0
C1097 C 0.98356 0.62889 0.67849 0.0
H1098 H 0.03259 0.67833 0.6801 0.0
C1099 C 0.98914 0.6178 0.64485 0.0
H1100 H 0.99557 0.66 0.71576 0.0
C1101 C 0.01019 0.62835 0.62399 0.0
C1102 C 0.02632 0.65025 0.63639 0.0
H1103 H 0.97717 0.60092 0.63448 0.0
H1104 H 0.01384 0.61926 0.59821 0.0
C1105 C 0.02053 0.66157 0.66921 0.0
C1106 C 0.37076 0.99635 0.03754 0.0
C1107 C 0.34884 0.98157 0.02266 0.0
H1108 H 0.39958 0.02876 0.03199 0.0
C1109 C 0.33914 0.98916 0.98965 0.0
H1110 H 0.37896 0.99111 0.06238 0.0
C1111 C 0.35125 0.01074 0.97128 0.0
C1112 C 0.37335 0.0253 0.98547 0.0
H1113 H 0.32221 0.97836 0.97772 0.0
H1114 H 0.34343 0.01583 0.94521 0.0
C1115 C 0.38279 0.0179 0.01938 0.0
C1116 C 0.20148 0.42828 0.00936 0.0
C1117 C 0.2113 0.44236 0.97098 0.0
H1118 H 0.20647 0.41754 0.0757 0.0
C1119 C 0.23463 0.45648 0.97055 0.0
H1120 H 0.18357 0.41729 0.01099 0.0
C1121 C 0.24777 0.45662 0.00766 0.0
C1122 C 0.23792 0.44279 0.04637 0.0
H1123 H 0.24279 0.46734 0.94132 0.0
H1124 H 0.26563 0.46793 0.00643 0.0
C1125 C 0.2146 0.42856 0.04665 0.0
C1126 C 0.78178 0.23823 0.35542 0.0
C1127 C 0.79525 0.2323 0.38139 0.0
H1128 H 0.75785 0.22942 0.30069 0.0
C1129 C 0.7944 0.212 0.37124 0.0
H1130 H 0.7818 0.25359 0.36261 0.0
C1131 C 0.78049 0.19803 0.33607 0.0
C1132 C 0.76697 0.20392 0.31018 0.0
H1133 H 0.80467 0.20698 0.39024 0.0
H1134 H 0.7802 0.18249 0.3294 0.0
C1135 C 0.76779 0.2242 0.32034 0.0
C1136 C 0.55226 0.79642 0.65761 0.0
C1137 C 0.56372 0.79805 0.69898 0.0
H1138 H 0.54298 0.78211 0.58985 0.0
C1139 C 0.57561 0.7865 0.70227 0.0
H1140 H 0.54267 0.80482 0.65413 0.0
C1141 C 0.57592 0.77356 0.66528 0.0
C1142 C 0.56428 0.77172 0.62399 0.0
H1143 H 0.5849 0.78765 0.73336 0.0
H1144 H 0.58555 0.76522 0.66891 0.0
C1145 C 0.55246 0.78337 0.62069 0.0
C1146 C 0.79181 0.58283 0.02481 0.0
C1147 C 0.77424 0.56268 0.0421 0.0
H1148 H 0.8187 0.59859 0.97601 0.0
C1149 C 0.77067 0.54249 0.02286 0.0
H1150 H 0.79491 0.59865 0.03884 0.0
C1151 C 0.78446 0.54245 0.98737 0.0
C1152 C 0.8019 0.56261 0.96979 0.0
H1153 H 0.7574 0.52669 0.03575 0.0
H1154 H 0.78125 0.52663 0.97313 0.0
C1155 C 0.80536 0.5828 0.98877 0.0
C1156 C 0.23747 0.78743 0.3832 0.0
C1157 C 0.21456 0.77228 0.37695 0.0
H1158 H 0.26812 0.8124 0.35256 0.0
C1159 C 0.205 0.77112 0.33329 0.0
H1160 H 0.24541 0.78861 0.41627 0.0
C1161 C 0.218 0.78481 0.29685 0.0
C1162 C 0.24095 0.79984 0.303 0.0
H1163 H 0.18738 0.75976 0.3274 0.0
H1164 H 0.21015 0.78336 0.26357 0.0
C1165 C 0.25053 0.80094 0.34661 0.0
C1166 C 0.45623 0.21329 0.67111 0.0
C1167 C 0.4431 0.21044 0.71061 0.0
H1168 H 0.46669 0.22806 0.6039 0.0
C1169 C 0.42984 0.22063 0.71107 0.0
H1170 H 0.467 0.20613 0.66961 0.0
C1171 C 0.4299 0.23347 0.67347 0.0
C1172 C 0.44303 0.2363 0.63413 0.0
H1173 H 0.41917 0.21854 0.74033 0.0
H1174 H 0.41938 0.24093 0.67495 0.0
C1175 C 0.45613 0.22597 0.63337 0.0
C1176 C 0.2308 0.43975 0.55531 0.0
C1177 C 0.20761 0.42522 0.55504 0.0
H1178 H 0.26126 0.45367 0.51657 0.0
C1179 C 0.1975 0.41196 0.51572 0.0
H1180 H 0.23896 0.45029 0.58503 0.0
C1181 C 0.21027 0.4138 0.47668 0.0
C1182 C 0.23327 0.4292 0.47614 0.0
H1183 H 0.17965 0.40057 0.5148 0.0
H1184 H 0.20202 0.40394 0.44623 0.0
C1185 C 0.2435 0.44182 0.51609 0.0
C1186 C 0.8057 0.21715 0.82905 0.0
C1187 C 0.79745 0.2283 0.80192 0.0
H1188 H 0.80162 0.19803 0.89037 0.0
C1189 C 0.77808 0.22838 0.81631 0.0
H1190 H 0.82053 0.21672 0.81861 0.0
C1191 C 0.76731 0.21772 0.85721 0.0
C1192 C 0.77562 0.2067 0.88451 0.0
H1193 H 0.77147 0.23704 0.79638 0.0
H1194 H 0.75236 0.218 0.86733 0.0
C1195 C 0.79482 0.20635 0.86988 0.0
C1196 C 0.5934 0.80142 0.13734 0.0
C1197 C 0.57326 0.80025 0.12432 0.0
H1198 H 0.61037 0.79224 0.18704 0.0
C1199 C 0.55455 0.78901 0.15333 0.0
H1200 H 0.60809 0.80989 0.11565 0.0
C1201 C 0.55578 0.77871 0.19385 0.0
C1202 C 0.57578 0.7795 0.2065 0.0
H1203 H 0.53888 0.78814 0.14472 0.0
H1204 H 0.54085 0.76966 0.21465 0.0
C1205 C 0.59465 0.79114 0.17801 0.0
C1206 C 0.78405 0.5521 0.47031 0.0
C1207 C 0.78206 0.57088 0.4603 0.0
H1208 H 0.79586 0.53654 0.51768 0.0
C1209 C 0.79152 0.58915 0.49087 0.0
H1210 H 0.77674 0.53769 0.44765 0.0
C1211 C 0.80244 0.58847 0.53111 0.0
C1212 C 0.80383 0.5694 0.54168 0.0
H1213 H 0.79034 0.6039 0.48381 0.0
H1214 H 0.80925 0.60259 0.55454 0.0
C1215 C 0.79477 0.55134 0.51063 0.0
C1216 C 0.21148 0.7899 0.80678 0.0
C1217 C 0.20783 0.76819 0.79987 0.0
H1218 H 0.2257 0.81892 0.85027 0.0
C1219 C 0.21602 0.75916 0.83301 0.0
H1220 H 0.20513 0.79728 0.78243 0.0
C1221 C 0.22735 0.77139 0.87221 0.0
C1222 C 0.23108 0.79306 0.87883 0.0
H1223 H 0.21403 0.74273 0.82841 0.0
H1224 H 0.23366 0.76408 0.89689 0.0
C1225 C 0.22313 0.80226 0.84573 0.0
C1226 C 0.43087 0.2006 0.17333 0.0
C1227 C 0.44109 0.21151 0.13173 0.0
H1228 H 0.4229 0.20388 0.24352 0.0
C1229 C 0.45083 0.23482 0.12931 0.0
H1230 H 0.42285 0.18262 0.1761 0.0
C1231 C 0.45074 0.24697 0.16791 0.0
C1232 C 0.44097 0.23608 0.20977 0.0
H1233 H 0.45912 0.24377 0.09803 0.0
H1234 H 0.45889 0.26497 0.16534 0.0
C1235 C 0.43088 0.21276 0.21196 0.0
C1236 C 0.425 0.57955 0.28692 0.0
C1237 C 0.41017 0.56442 0.31972 0.0
H1238 H 0.45575 0.60989 0.27508 0.0
C1239 C 0.41489 0.56926 0.36713 0.0
H1240 H 0.42189 0.57626 0.25018 0.0
C1241 C 0.43431 0.58847 0.38142 0.0
C1242 C 0.44953 0.60321 0.34862 0.0
H1243 H 0.40362 0.55808 0.39327 0.0
H1244 H 0.43774 0.59139 0.41816 0.0
C1245 C 0.4445 0.59869 0.30121 0.0
C1246 C 0.87487 0.44322 0.68592 0.0
C1247 C 0.85526 0.44417 0.69299 0.0
H1248 H 0.8893 0.4237 0.66404 0.0
C1249 C 0.83459 0.42535 0.68223 0.0
H1250 H 0.89103 0.45736 0.69447 0.0
C1251 C 0.83358 0.40611 0.66409 0.0
C1252 C 0.85322 0.4052 0.65662 0.0
H1253 H 0.81921 0.42569 0.68673 0.0
H1254 H 0.81741 0.3921 0.65516 0.0
C1255 C 0.87386 0.42395 0.66817 0.0
C1256 C 0.45165 0.8753 0.00957 0.0
C1257 C 0.44966 0.85677 0.98516 0.0
H1258 H 0.4354 0.88954 0.04748 0.0
C1259 C 0.42817 0.83827 0.97862 0.0
H1260 H 0.46775 0.89012 0.01464 0.0
C1261 C 0.40929 0.83832 0.99602 0.0
C1262 C 0.41137 0.85671 0.02118 0.0
H1263 H 0.42585 0.82354 0.96058 0.0
H1264 H 0.39306 0.82394 0.98927 0.0
C1265 C 0.43288 0.87515 0.02781 0.0
C1266 C 0.58023 0.44085 0.30846 0.0
C1267 C 0.6017 0.447 0.32492 0.0
H1268 H 0.54507 0.41823 0.31356 0.0
C1269 C 0.60375 0.43428 0.36064 0.0
H1270 H 0.57802 0.44998 0.28049 0.0
C1271 C 0.5848 0.41599 0.37955 0.0
C1272 C 0.56336 0.41005 0.3634 0.0
H1273 H 0.61997 0.43873 0.37474 0.0
H1274 H 0.58693 0.40673 0.4074 0.0
C1275 C 0.56132 0.42264 0.3275 0.0
C1276 C 0.14012 0.5716 0.62633 0.0
C1277 C 0.15597 0.59321 0.64076 0.0
H1278 H 0.12775 0.5366 0.63268 0.0
C1279 C 0.17205 0.5958 0.67378 0.0
H1280 H 0.12771 0.56909 0.60046 0.0
C1281 C 0.17192 0.57713 0.69282 0.0
C1282 C 0.15577 0.55546 0.67907 0.0
H1283 H 0.18432 0.61224 0.68601 0.0
H1284 H 0.18413 0.5797 0.71919 0.0
C1285 C 0.14008 0.55298 0.64506 0.0
C1286 C 0.57986 0.12833 1.00013 0.0
C1287 C 0.59828 0.14793 0.0175 0.0
H1288 H 0.54819 0.11331 0.96666 0.0
C1289 C 0.59757 0.16789 0.01524 0.0
H1290 H 0.57929 0.11245 1.00184 0.0
C1291 C 0.57893 0.16815 0.99694 0.0
C1292 C 0.56062 0.14856 0.97924 0.0
H1293 H 0.61144 0.18348 0.02731 0.0
H1294 H 0.57888 0.18375 0.99746 0.0
C1295 C 0.56157 0.12873 0.98064 0.0
loop_
_geom_bond_atom_site_label_1
_geom_bond_atom_site_label_2
_geom_bond_distance
_geom_bond_site_symmetry_2
_ccdc_geom_bond_type
Li0 N17 1.990 . S
Li0 O60 1.956 . S
Li0 O61 1.970 . S
Li0 O62 1.961 . S
Li1 N25 1.990 . S
Li1 O60 1.970 . S
Li1 O61 1.956 . S
Li1 O63 1.961 . S
Li2 N47 1.990 . S
Li2 O60 1.961 . S
Li2 O62 1.956 . S
Li2 O63 1.970 . S
Li3 N53 1.990 . S
Li3 O61 1.961 . S
Li3 O62 1.970 . S
Li3 O63 1.956 . S
C4 C6 1.348 . S
C4 C7 1.356 . S
C4 O60 1.325 . S
N5 C8 1.314 . S
N5 C9 1.279 . S
C6 C4 1.348 . S
C6 C8 1.353 . S
C6 H64 0.929 . S
C7 C4 1.356 . S
C7 C9 1.358 . S
C7 H65 0.930 . S
C8 N5 1.314 . S
C8 C6 1.353 . S
C8 H66 0.930 . S
C9 N5 1.279 . S
C9 C7 1.358 . S
C9 H67 0.930 . S
C10 C13 1.348 . S
C10 C14 1.356 . S
C10 O61 1.325 . S
C11 N12 1.279 . S
C11 C14 1.358 . S
C11 H68 0.930 . S
N12 C11 1.279 . S
N12 C15 1.314 . S
C13 C10 1.348 . S
C13 C15 1.353 . S
C13 H69 0.929 . S
C14 C10 1.356 . S
C14 C11 1.358 . S
C14 H70 0.930 . S
C15 N12 1.314 . S
C15 C13 1.353 . S
C15 H71 0.930 . S
C16 N17 1.314 . S
C16 C21 1.353 . S
C16 H22 0.930 . S
N17 Li0 1.990 . S
N17 C16 1.314 . S
N17 C19 1.279 . S
C18 C19 1.358 . S
C18 C20 1.356 . S
C18 H72 0.930 . S
C19 N17 1.279 . S
C19 C18 1.358 . S
C19 H23 0.930 . S
C20 C18 1.356 . S
C20 C21 1.348 . S
C21 C16 1.353 . S
C21 C20 1.348 . S
C21 H73 0.929 . S
H22 C16 0.930 . S
H23 C19 0.930 . S
C24 N25 1.314 . S
C24 C26 1.353 . S
C24 H30 0.930 . S
N25 Li1 1.990 . S
N25 C24 1.314 . S
N25 C28 1.279 . S
C26 C24 1.353 . S
C26 C29 1.348 . S
C26 H74 0.929 . S
C27 C28 1.358 . S
C27 C29 1.356 . S
C27 H75 0.930 . S
C28 N25 1.279 . S
C28 C27 1.358 . S
C28 H31 0.930 . S
C29 C26 1.348 . S
C29 C27 1.356 . S
H30 C24 0.930 . S
H31 C28 0.930 . S
C32 C34 1.348 . S
C32 C35 1.356 . S
C32 O62 1.325 . S
N33 C36 1.314 . S
N33 C37 1.279 . S
C34 C32 1.348 . S
C34 C36 1.353 . S
C34 H76 0.929 . S
C35 C32 1.356 . S
C35 C37 1.358 . S
C35 H77 0.930 . S
C36 N33 1.314 . S
C36 C34 1.353 . S
C36 H78 0.930 . S
C37 N33 1.279 . S
C37 C35 1.358 . S
C37 H79 0.930 . S
C38 C39 1.348 . S
C38 C40 1.356 . S
C38 O63 1.325 . S
C39 C38 1.348 . S
C39 C41 1.353 . S
C39 H80 0.929 . S
C40 C38 1.356 . S
C40 C42 1.358 . S
C40 H81 0.930 . S
C41 C39 1.353 . S
C41 N43 1.314 . S
C41 H82 0.930 . S
C42 C40 1.358 . S
C42 N43 1.279 . S
C42 H83 0.930 . S
N43 C41 1.314 . S
N43 C42 1.279 . S
C44 C46 1.353 . S
C44 N47 1.314 . S
C44 H50 0.930 . S
C45 N47 1.279 . S
C45 C48 1.358 . S
C45 H51 0.930 . S
C46 C44 1.353 . S
C46 C49 1.348 . S
C46 H84 0.929 . S
N47 Li2 1.990 . S
N47 C44 1.314 . S
N47 C45 1.279 . S
C48 C45 1.358 . S
C48 C49 1.356 . S
C48 H85 0.930 . S
C49 C46 1.348 . S
C49 C48 1.356 . S
H50 C44 0.930 . S
H51 C45 0.930 . S
C52 N53 1.314 . S
C52 C54 1.353 . S
C52 H58 0.930 . S
N53 Li3 1.990 . S
N53 C52 1.314 . S
N53 C56 1.279 . S
C54 C52 1.353 . S
C54 C57 1.348 . S
C54 H86 0.929 . S
C55 C56 1.358 . S
C55 C57 1.356 . S
C55 H87 0.930 . S
C56 N53 1.279 . S
C56 C55 1.358 . S
C56 H59 0.930 . S
C57 C54 1.348 . S
C57 C55 1.356 . S
H58 C52 0.930 . S
H59 C56 0.930 . S
O60 Li0 1.956 . S
O60 Li1 1.970 . S
O60 Li2 1.961 . S
O60 C4 1.325 . S
O61 Li0 1.970 . S
O61 Li1 1.956 . S
O61 Li3 1.961 . S
O61 C10 1.325 . S
O62 Li0 1.961 . S
O62 Li2 1.956 . S
O62 Li3 1.970 . S
O62 C32 1.325 . S
O63 Li1 1.961 . S
O63 Li2 1.970 . S
O63 Li3 1.956 . S
O63 C38 1.325 . S
H64 C6 0.929 . S
H65 C7 0.930 . S
H66 C8 0.930 . S
H67 C9 0.930 . S
H68 C11 0.930 . S
H69 C13 0.929 . S
H70 C14 0.930 . S
H71 C15 0.930 . S
H72 C18 0.930 . S
H73 C21 0.929 . S
H74 C26 0.929 . S
H75 C27 0.930 . S
H76 C34 0.929 . S
H77 C35 0.930 . S
H78 C36 0.930 . S
H79 C37 0.930 . S
H80 C39 0.929 . S
H81 C40 0.930 . S
H82 C41 0.930 . S
H83 C42 0.930 . S
H84 C46 0.929 . S
H85 C48 0.930 . S
H86 C54 0.929 . S
H87 C55 0.930 . S
Li88 N105 1.990 . S
Li88 O148 1.956 . S
Li88 O149 1.970 . S
Li88 O150 1.961 . S
Li89 N113 1.990 . S
Li89 O148 1.970 . S
Li89 O149 1.956 . S
Li89 O151 1.961 . S
Li90 N135 1.990 . S
Li90 O148 1.961 . S
Li90 O150 1.956 . S
Li90 O151 1.970 . S
Li91 N141 1.990 . S
Li91 O149 1.961 . S
Li91 O150 1.970 . S
Li91 O151 1.956 . S
C92 C94 1.348 . S
C92 C95 1.356 . S
C92 O148 1.325 . S
N93 C96 1.314 . S
N93 C97 1.279 . S
C94 C92 1.348 . S
C94 C96 1.353 . S
C94 H152 0.929 . S
C95 C92 1.356 . S
C95 C97 1.358 . S
C95 H153 0.930 . S
C96 N93 1.314 . S
C96 C94 1.353 . S
C96 H154 0.930 . S
C97 N93 1.279 . S
C97 C95 1.358 . S
C97 H155 0.930 . S
C98 C101 1.348 . S
C98 C102 1.356 . S
C98 O149 1.325 . S
C99 N100 1.279 . S
C99 C102 1.358 . S
C99 H156 0.930 . S
N100 C99 1.279 . S
N100 C103 1.314 . S
C101 C98 1.348 . S
C101 C103 1.353 . S
C101 H157 0.929 . S
C102 C98 1.356 . S
C102 C99 1.358 . S
C102 H158 0.930 . S
C103 N100 1.314 . S
C103 C101 1.353 . S
C103 H159 0.930 . S
C104 N105 1.314 . S
C104 C109 1.353 . S
C104 H110 0.930 . S
N105 Li88 1.990 . S
N105 C104 1.314 . S
N105 C107 1.279 . S
C106 C107 1.358 . S
C106 C108 1.356 . S
C106 H160 0.930 . S
C107 N105 1.279 . S
C107 C106 1.358 . S
C107 H111 0.930 . S
C108 C106 1.356 . S
C108 C109 1.348 . S
C109 C104 1.353 . S
C109 C108 1.348 . S
C109 H161 0.929 . S
H110 C104 0.930 . S
H111 C107 0.930 . S
C112 N113 1.314 . S
C112 C114 1.353 . S
C112 H118 0.930 . S
N113 Li89 1.990 . S
N113 C112 1.314 . S
N113 C116 1.279 . S
C114 C112 1.353 . S
C114 C117 1.348 . S
C114 H162 0.929 . S
C115 C116 1.358 . S
C115 C117 1.356 . S
C115 H163 0.930 . S
C116 N113 1.279 . S
C116 C115 1.358 . S
C116 H119 0.930 . S
C117 C114 1.348 . S
C117 C115 1.356 . S
H118 C112 0.930 . S
H119 C116 0.930 . S
C120 C122 1.348 . S
C120 C123 1.356 . S
C120 O150 1.325 . S
N121 C124 1.314 . S
N121 C125 1.279 . S
C122 C120 1.348 . S
C122 C124 1.353 . S
C122 H164 0.929 . S
C123 C120 1.356 . S
C123 C125 1.358 . S
C123 H165 0.930 . S
C124 N121 1.314 . S
C124 C122 1.353 . S
C124 H166 0.930 . S
C125 N121 1.279 . S
C125 C123 1.358 . S
C125 H167 0.930 . S
C126 C127 1.348 . S
C126 C128 1.356 . S
C126 O151 1.325 . S
C127 C126 1.348 . S
C127 C129 1.353 . S
C127 H168 0.929 . S
C128 C126 1.356 . S
C128 C130 1.358 . S
C128 H169 0.930 . S
C129 C127 1.353 . S
C129 N131 1.314 . S
C129 H170 0.930 . S
C130 C128 1.358 . S
C130 N131 1.279 . S
C130 H171 0.930 . S
N131 C129 1.314 . S
N131 C130 1.279 . S
C132 C134 1.353 . S
C132 N135 1.314 . S
C132 H138 0.930 . S
C133 N135 1.279 . S
C133 C136 1.358 . S
C133 H139 0.930 . S
C134 C132 1.353 . S
C134 C137 1.348 . S
C134 H172 0.929 . S
N135 Li90 1.990 . S
N135 C132 1.314 . S
N135 C133 1.279 . S
C136 C133 1.358 . S
C136 C137 1.356 . S
C136 H173 0.930 . S
C137 C134 1.348 . S
C137 C136 1.356 . S
H138 C132 0.930 . S
H139 C133 0.930 . S
C140 N141 1.314 . S
C140 C142 1.353 . S
C140 H146 0.930 . S
N141 Li91 1.990 . S
N141 C140 1.314 . S
N141 C144 1.279 . S
C142 C140 1.353 . S
C142 C145 1.348 . S
C142 H174 0.929 . S
C143 C144 1.358 . S
C143 C145 1.356 . S
C143 H175 0.930 . S
C144 N141 1.279 . S
C144 C143 1.358 . S
C144 H147 0.930 . S
C145 C142 1.348 . S
C145 C143 1.356 . S
H146 C140 0.930 . S
H147 C144 0.930 . S
O148 Li88 1.956 . S
O148 Li89 1.970 . S
O148 Li90 1.961 . S
O148 C92 1.325 . S
O149 Li88 1.970 . S
O149 Li89 1.956 . S
O149 Li91 1.961 . S
O149 C98 1.325 . S
O150 Li88 1.961 . S
O150 Li90 1.956 . S
O150 Li91 1.970 . S
O150 C120 1.325 . S
O151 Li89 1.961 . S
O151 Li90 1.970 . S
O151 Li91 1.956 . S
O151 C126 1.325 . S
H152 C94 0.929 . S
H153 C95 0.930 . S
H154 C96 0.930 . S
H155 C97 0.930 . S
H156 C99 0.930 . S
H157 C101 0.929 . S
H158 C102 0.930 . S
H159 C103 0.930 . S
H160 C106 0.930 . S
H161 C109 0.929 . S
H162 C114 0.929 . S
H163 C115 0.930 . S
H164 C122 0.929 . S
H165 C123 0.930 . S
H166 C124 0.930 . S
H167 C125 0.930 . S
H168 C127 0.929 . S
H169 C128 0.930 . S
H170 C129 0.930 . S
H171 C130 0.930 . S
H172 C134 0.929 . S
H173 C136 0.930 . S
H174 C142 0.929 . S
H175 C143 0.930 . S
Li176 N193 1.990 . S
Li176 O236 1.956 . S
Li176 O237 1.970 1_556 S
Li176 O238 1.961 . S
Li177 N201 1.990 1_556 S
Li177 O236 1.970 . S
Li177 O237 1.956 1_556 S
Li177 O239 1.961 . S
Li178 N223 1.990 . S
Li178 O236 1.961 . S
Li178 O238 1.956 . S
Li178 O239 1.970 . S
Li179 N229 1.990 . S
Li179 O237 1.961 1_556 S
Li179 O238 1.970 . S
Li179 O239 1.956 . S
C180 C182 1.348 . S
C180 C183 1.356 . S
C180 O236 1.325 . S
N181 C184 1.314 . S
N181 C185 1.279 . S
C182 C180 1.348 . S
C182 C184 1.353 . S
C182 H240 0.929 1_556 S
C183 C180 1.356 . S
C183 C185 1.358 . S
C183 H241 0.930 . S
C184 N181 1.314 . S
C184 C182 1.353 . S
C184 H242 0.930 . S
C185 N181 1.279 . S
C185 C183 1.358 . S
C185 H243 0.930 . S
C186 C189 1.348 . S
C186 C190 1.356 . S
C186 O237 1.325 . S
C187 N188 1.279 . S
C187 C190 1.358 . S
C187 H244 0.930 . S
N188 C187 1.279 . S
N188 C191 1.314 . S
C189 C186 1.348 . S
C189 C191 1.353 . S
C189 H245 0.929 . S
C190 C186 1.356 . S
C190 C187 1.358 . S
C190 H246 0.930 . S
C191 N188 1.314 . S
C191 C189 1.353 . S
C191 H247 0.930 . S
C192 N193 1.314 . S
C192 C197 1.353 . S
C192 H198 0.930 . S
N193 Li176 1.990 . S
N193 C192 1.314 . S
N193 C195 1.279 . S
C194 C195 1.358 . S
C194 C196 1.356 . S
C194 H248 0.930 . S
C195 N193 1.279 . S
C195 C194 1.358 . S
C195 H199 0.930 . S
C196 C194 1.356 . S
C196 C197 1.348 . S
C197 C192 1.353 . S
C197 C196 1.348 . S
C197 H249 0.929 . S
H198 C192 0.930 . S
H199 C195 0.930 . S
C200 N201 1.314 . S
C200 C202 1.353 . S
C200 H206 0.930 . S
N201 Li177 1.990 1_554 S
N201 C200 1.314 . S
N201 C204 1.279 . S
C202 C200 1.353 . S
C202 C205 1.348 . S
C202 H250 0.929 . S
C203 C204 1.358 . S
C203 C205 1.356 . S
C203 H251 0.930 . S
C204 N201 1.279 . S
C204 C203 1.358 . S
C204 H207 0.930 . S
C205 C202 1.348 . S
C205 C203 1.356 . S
H206 C200 0.930 . S
H207 C204 0.930 . S
C208 C210 1.348 . S
C208 C211 1.356 . S
C208 O238 1.325 . S
N209 C212 1.314 . S
N209 C213 1.279 . S
C210 C208 1.348 . S
C210 C212 1.353 . S
C210 H252 0.929 . S
C211 C208 1.356 . S
C211 C213 1.358 . S
C211 H253 0.930 . S
C212 N209 1.314 . S
C212 C210 1.353 . S
C212 H254 0.930 . S
C213 N209 1.279 . S
C213 C211 1.358 . S
C213 H255 0.930 . S
C214 C215 1.348 . S
C214 C216 1.356 . S
C214 O239 1.325 . S
C215 C214 1.348 . S
C215 C217 1.353 . S
C215 H256 0.929 . S
C216 C214 1.356 . S
C216 C218 1.358 . S
C216 H257 0.930 1_556 S
C217 C215 1.353 . S
C217 N219 1.314 . S
C217 H258 0.930 . S
C218 C216 1.358 . S
C218 N219 1.279 . S
C218 H259 0.930 1_556 S
N219 C217 1.314 . S
N219 C218 1.279 . S
C220 C222 1.353 . S
C220 N223 1.314 . S
C220 H226 0.930 . S
C221 N223 1.279 . S
C221 C224 1.358 . S
C221 H227 0.930 . S
C222 C220 1.353 . S
C222 C225 1.348 . S
C222 H260 0.929 . S
N223 Li178 1.990 . S
N223 C220 1.314 . S
N223 C221 1.279 . S
C224 C221 1.358 . S
C224 C225 1.356 . S
C224 H261 0.930 . S
C225 C222 1.348 . S
C225 C224 1.356 . S
H226 C220 0.930 . S
H227 C221 0.930 . S
C228 N229 1.314 . S
C228 C230 1.353 . S
C228 H234 0.930 . S
N229 Li179 1.990 . S
N229 C228 1.314 . S
N229 C232 1.279 . S
C230 C228 1.353 . S
C230 C233 1.348 . S
C230 H262 0.929 . S
C231 C232 1.358 . S
C231 C233 1.356 . S
C231 H263 0.930 . S
C232 N229 1.279 . S
C232 C231 1.358 . S
C232 H235 0.930 . S
C233 C230 1.348 . S
C233 C231 1.356 . S
H234 C228 0.930 . S
H235 C232 0.930 . S
O236 Li176 1.956 . S
O236 Li177 1.970 . S
O236 Li178 1.961 . S
O236 C180 1.325 . S
O237 Li176 1.970 1_554 S
O237 Li177 1.956 1_554 S
O237 Li179 1.961 1_554 S
O237 C186 1.325 . S
O238 Li176 1.961 . S
O238 Li178 1.956 . S
O238 Li179 1.970 . S
O238 C208 1.325 . S
O239 Li177 1.961 . S
O239 Li178 1.970 . S
O239 Li179 1.956 . S
O239 C214 1.325 . S
H240 C182 0.929 1_554 S
H241 C183 0.930 . S
H242 C184 0.930 . S
H243 C185 0.930 . S
H244 C187 0.930 . S
H245 C189 0.929 . S
H246 C190 0.930 . S
H247 C191 0.930 . S
H248 C194 0.930 . S
H249 C197 0.929 . S
H250 C202 0.929 . S
H251 C203 0.930 . S
H252 C210 0.929 . S
H253 C211 0.930 . S
H254 C212 0.930 . S
H255 C213 0.930 . S
H256 C215 0.929 . S
H257 C216 0.930 1_554 S
H258 C217 0.930 . S
H259 C218 0.930 1_554 S
H260 C222 0.929 . S
H261 C224 0.930 . S
H262 C230 0.929 . S
H263 C231 0.930 . S
Li264 N281 1.990 . S
Li264 O324 1.956 . S
Li264 O325 1.970 . S
Li264 O326 1.961 . S
Li265 N289 1.990 . S
Li265 O324 1.970 . S
Li265 O325 1.956 . S
Li265 O327 1.961 . S
Li266 N311 1.990 . S
Li266 O324 1.961 . S
Li266 O326 1.956 . S
Li266 O327 1.970 . S
Li267 N317 1.990 . S
Li267 O325 1.961 . S
Li267 O326 1.970 . S
Li267 O327 1.956 . S
C268 C270 1.348 . S
C268 C271 1.356 . S
C268 O324 1.325 . S
N269 C272 1.314 . S
N269 C273 1.279 . S
C270 C268 1.348 . S
C270 C272 1.353 . S
C270 H328 0.929 . S
C271 C268 1.356 . S
C271 C273 1.358 . S
C271 H329 0.930 . S
C272 N269 1.314 . S
C272 C270 1.353 . S
C272 H330 0.930 . S
C273 N269 1.279 . S
C273 C271 1.358 . S
C273 H331 0.930 . S
C274 C277 1.348 . S
C274 C278 1.356 . S
C274 O325 1.325 . S
C275 N276 1.279 . S
C275 C278 1.358 . S
C275 H332 0.930 . S
N276 C275 1.279 . S
N276 C279 1.314 . S
C277 C274 1.348 . S
C277 C279 1.353 . S
C277 H333 0.929 . S
C278 C274 1.356 . S
C278 C275 1.358 . S
C278 H334 0.930 . S
C279 N276 1.314 . S
C279 C277 1.353 . S
C279 H335 0.930 . S
C280 N281 1.314 . S
C280 C285 1.353 . S
C280 H286 0.930 . S
N281 Li264 1.990 . S
N281 C280 1.314 . S
N281 C283 1.279 . S
C282 C283 1.358 . S
C282 C284 1.356 . S
C282 H336 0.930 . S
C283 N281 1.279 . S
C283 C282 1.358 . S
C283 H287 0.930 . S
C284 C282 1.356 . S
C284 C285 1.348 . S
C285 C280 1.353 . S
C285 C284 1.348 . S
C285 H337 0.929 . S
H286 C280 0.930 . S
H287 C283 0.930 . S
C288 N289 1.314 . S
C288 C290 1.353 . S
C288 H294 0.930 . S
N289 Li265 1.990 . S
N289 C288 1.314 . S
N289 C292 1.279 . S
C290 C288 1.353 . S
C290 C293 1.348 . S
C290 H338 0.929 . S
C291 C292 1.358 . S
C291 C293 1.356 . S
C291 H339 0.930 . S
C292 N289 1.279 . S
C292 C291 1.358 . S
C292 H295 0.930 . S
C293 C290 1.348 . S
C293 C291 1.356 . S
H294 C288 0.930 . S
H295 C292 0.930 . S
C296 C298 1.348 . S
C296 C299 1.356 . S
C296 O326 1.325 . S
N297 C300 1.314 . S
N297 C301 1.279 . S
C298 C296 1.348 . S
C298 C300 1.353 . S
C298 H340 0.929 . S
C299 C296 1.356 . S
C299 C301 1.358 . S
C299 H341 0.930 . S
C300 N297 1.314 . S
C300 C298 1.353 . S
C300 H342 0.930 . S
C301 N297 1.279 . S
C301 C299 1.358 . S
C301 H343 0.930 . S
C302 C303 1.348 . S
C302 C304 1.356 . S
C302 O327 1.325 . S
C303 C302 1.348 . S
C303 C305 1.353 . S
C303 H344 0.929 . S
C304 C302 1.356 . S
C304 C306 1.358 . S
C304 H345 0.930 . S
C305 C303 1.353 . S
C305 N307 1.314 . S
C305 H346 0.930 . S
C306 C304 1.358 . S
C306 N307 1.279 . S
C306 H347 0.930 . S
N307 C305 1.314 . S
N307 C306 1.279 . S
C308 C310 1.353 . S
C308 N311 1.314 . S
C308 H314 0.930 . S
C309 N311 1.279 . S
C309 C312 1.358 . S
C309 H315 0.930 . S
C310 C308 1.353 . S
C310 C313 1.348 . S
C310 H348 0.929 . S
N311 Li266 1.990 . S
N311 C308 1.314 . S
N311 C309 1.279 . S
C312 C309 1.358 . S
C312 C313 1.356 . S
C312 H349 0.930 . S
C313 C310 1.348 . S
C313 C312 1.356 . S
H314 C308 0.930 . S
H315 C309 0.930 . S
C316 N317 1.314 . S
C316 C318 1.353 . S
C316 H322 0.930 . S
N317 Li267 1.990 . S
N317 C316 1.314 . S
N317 C320 1.279 . S
C318 C316 1.353 . S
C318 C321 1.348 . S
C318 H350 0.929 . S
C319 C320 1.358 . S
C319 C321 1.356 . S
C319 H351 0.930 . S
C320 N317 1.279 . S
C320 C319 1.358 . S
C320 H323 0.930 . S
C321 C318 1.348 . S
C321 C319 1.356 . S
H322 C316 0.930 . S
H323 C320 0.930 . S
O324 Li264 1.956 . S
O324 Li265 1.970 . S
O324 Li266 1.961 . S
O324 C268 1.325 . S
O325 Li264 1.970 . S
O325 Li265 1.956 . S
O325 Li267 1.961 . S
O325 C274 1.325 . S
O326 Li264 1.961 . S
O326 Li266 1.956 . S
O326 Li267 1.970 . S
O326 C296 1.325 . S
O327 Li265 1.961 . S
O327 Li266 1.970 . S
O327 Li267 1.956 . S
O327 C302 1.325 . S
H328 C270 0.929 . S
H329 C271 0.930 . S
H330 C272 0.930 . S
H331 C273 0.930 . S
H332 C275 0.930 . S
H333 C277 0.929 . S
H334 C278 0.930 . S
H335 C279 0.930 . S
H336 C282 0.930 . S
H337 C285 0.929 . S
H338 C290 0.929 . S
H339 C291 0.930 . S
H340 C298 0.929 . S
H341 C299 0.930 . S
H342 C300 0.930 . S
H343 C301 0.930 . S
H344 C303 0.929 . S
H345 C304 0.930 . S
H346 C305 0.930 . S
H347 C306 0.930 . S
H348 C310 0.929 . S
H349 C312 0.930 . S
H350 C318 0.929 . S
H351 C319 0.930 . S
Li352 N369 1.990 . S
Li352 O412 1.956 . S
Li352 O413 1.970 . S
Li352 O414 1.961 . S
Li353 N377 1.990 . S
Li353 O412 1.970 . S
Li353 O413 1.956 . S
Li353 O415 1.961 . S
Li354 N399 1.990 . S
Li354 O412 1.961 . S
Li354 O414 1.956 . S
Li354 O415 1.970 . S
Li355 N405 1.990 . S
Li355 O413 1.961 . S
Li355 O414 1.970 . S
Li355 O415 1.956 . S
C356 C358 1.348 . S
C356 C359 1.356 . S
C356 O412 1.325 . S
N357 C360 1.314 . S
N357 C361 1.279 . S
C358 C356 1.348 . S
C358 C360 1.353 . S
C358 H416 0.929 . S
C359 C356 1.356 . S
C359 C361 1.358 . S
C359 H417 0.930 . S
C360 N357 1.314 . S
C360 C358 1.353 . S
C360 H418 0.930 . S
C361 N357 1.279 . S
C361 C359 1.358 . S
C361 H419 0.930 . S
C362 C365 1.348 . S
C362 C366 1.356 . S
C362 O413 1.325 . S
C363 N364 1.279 . S
C363 C366 1.358 . S
C363 H420 0.930 . S
N364 C363 1.279 . S
N364 C367 1.314 . S
C365 C362 1.348 . S
C365 C367 1.353 . S
C365 H421 0.929 . S
C366 C362 1.356 . S
C366 C363 1.358 . S
C366 H422 0.930 . S
C367 N364 1.314 . S
C367 C365 1.353 . S
C367 H423 0.930 . S
C368 N369 1.314 . S
C368 C373 1.353 . S
C368 H374 0.930 . S
N369 Li352 1.990 . S
N369 C368 1.314 . S
N369 C371 1.279 . S
C370 C371 1.358 . S
C370 C372 1.356 . S
C370 H424 0.930 . S
C371 N369 1.279 . S
C371 C370 1.358 . S
C371 H375 0.930 . S
C372 C370 1.356 . S
C372 C373 1.348 . S
C373 C368 1.353 . S
C373 C372 1.348 . S
C373 H425 0.929 . S
H374 C368 0.930 . S
H375 C371 0.930 . S
C376 N377 1.314 . S
C376 C378 1.353 . S
C376 H382 0.930 . S
N377 Li353 1.990 . S
N377 C376 1.314 . S
N377 C380 1.279 . S
C378 C376 1.353 . S
C378 C381 1.348 . S
C378 H426 0.929 . S
C379 C380 1.358 . S
C379 C381 1.356 . S
C379 H427 0.930 . S
C380 N377 1.279 . S
C380 C379 1.358 . S
C380 H383 0.930 . S
C381 C378 1.348 . S
C381 C379 1.356 . S
H382 C376 0.930 . S
H383 C380 0.930 . S
C384 C386 1.348 . S
C384 C387 1.356 . S
C384 O414 1.325 . S
N385 C388 1.314 . S
N385 C389 1.279 . S
C386 C384 1.348 . S
C386 C388 1.353 . S
C386 H428 0.929 . S
C387 C384 1.356 . S
C387 C389 1.358 . S
C387 H429 0.930 . S
C388 N385 1.314 . S
C388 C386 1.353 . S
C388 H430 0.930 . S
C389 N385 1.279 . S
C389 C387 1.358 . S
C389 H431 0.930 . S
C390 C391 1.348 . S
C390 C392 1.356 . S
C390 O415 1.325 . S
C391 C390 1.348 . S
C391 C393 1.353 . S
C391 H432 0.929 . S
C392 C390 1.356 . S
C392 C394 1.358 . S
C392 H433 0.930 . S
C393 C391 1.353 . S
C393 N395 1.314 . S
C393 H434 0.930 . S
C394 C392 1.358 . S
C394 N395 1.279 . S
C394 H435 0.930 . S
N395 C393 1.314 . S
N395 C394 1.279 . S
C396 C398 1.353 . S
C396 N399 1.314 . S
C396 H402 0.930 . S
C397 N399 1.279 . S
C397 C400 1.358 . S
C397 H403 0.930 . S
C398 C396 1.353 . S
C398 C401 1.348 . S
C398 H436 0.929 . S
N399 Li354 1.990 . S
N399 C396 1.314 . S
N399 C397 1.279 . S
C400 C397 1.358 . S
C400 C401 1.356 . S
C400 H437 0.930 . S
C401 C398 1.348 . S
C401 C400 1.356 . S
H402 C396 0.930 . S
H403 C397 0.930 . S
C404 N405 1.314 . S
C404 C406 1.353 . S
C404 H410 0.930 . S
N405 Li355 1.990 . S
N405 C404 1.314 . S
N405 C408 1.279 . S
C406 C404 1.353 . S
C406 C409 1.348 . S
C406 H438 0.929 . S
C407 C408 1.358 . S
C407 C409 1.356 . S
C407 H439 0.930 . S
C408 N405 1.279 . S
C408 C407 1.358 . S
C408 H411 0.930 . S
C409 C406 1.348 . S
C409 C407 1.356 . S
H410 C404 0.930 . S
H411 C408 0.930 . S
O412 Li352 1.956 . S
O412 Li353 1.970 . S
O412 Li354 1.961 . S
O412 C356 1.325 . S
O413 Li352 1.970 . S
O413 Li353 1.956 . S
O413 Li355 1.961 . S
O413 C362 1.325 . S
O414 Li352 1.961 . S
O414 Li354 1.956 . S
O414 Li355 1.970 . S
O414 C384 1.325 . S
O415 Li353 1.961 . S
O415 Li354 1.970 . S
O415 Li355 1.956 . S
O415 C390 1.325 . S
H416 C358 0.929 . S
H417 C359 0.930 . S
H418 C360 0.930 . S
H419 C361 0.930 . S
H420 C363 0.930 . S
H421 C365 0.929 . S
H422 C366 0.930 . S
H423 C367 0.930 . S
H424 C370 0.930 . S
H425 C373 0.929 . S
H426 C378 0.929 . S
H427 C379 0.930 . S
H428 C386 0.929 . S
H429 C387 0.930 . S
H430 C388 0.930 . S
H431 C389 0.930 . S
H432 C391 0.929 . S
H433 C392 0.930 . S
H434 C393 0.930 . S
H435 C394 0.930 . S
H436 C398 0.929 . S
H437 C400 0.930 . S
H438 C406 0.929 . S
H439 C407 0.930 . S
Li440 N457 1.990 1_556 S
Li440 O500 1.956 1_556 S
Li440 O501 1.970 . S
Li440 O502 1.961 . S
Li441 N465 1.990 . S
Li441 O500 1.970 1_556 S
Li441 O501 1.956 . S
Li441 O503 1.961 . S
Li442 N487 1.990 . S
Li442 O500 1.961 1_556 S
Li442 O502 1.956 . S
Li442 O503 1.970 . S
Li443 N493 1.990 . S
Li443 O501 1.961 . S
Li443 O502 1.970 . S
Li443 O503 1.956 . S
C444 C446 1.348 . S
C444 C447 1.356 . S
C444 O500 1.325 . S
N445 C448 1.314 . S
N445 C449 1.279 . S
C446 C444 1.348 . S
C446 C448 1.353 . S
C446 H504 0.929 . S
C447 C444 1.356 . S
C447 C449 1.358 . S
C447 H505 0.930 . S
C448 N445 1.314 . S
C448 C446 1.353 . S
C448 H506 0.930 . S
C449 N445 1.279 . S
C449 C447 1.358 . S
C449 H507 0.930 . S
C450 C453 1.348 . S
C450 C454 1.356 . S
C450 O501 1.325 . S
C451 N452 1.279 . S
C451 C454 1.358 . S
C451 H508 0.930 . S
N452 C451 1.279 . S
N452 C455 1.314 . S
C453 C450 1.348 . S
C453 C455 1.353 . S
C453 H509 0.929 1_556 S
C454 C450 1.356 . S
C454 C451 1.358 . S
C454 H510 0.930 . S
C455 N452 1.314 . S
C455 C453 1.353 . S
C455 H511 0.930 . S
C456 N457 1.314 . S
C456 C461 1.353 . S
C456 H462 0.930 . S
N457 Li440 1.990 1_554 S
N457 C456 1.314 . S
N457 C459 1.279 . S
C458 C459 1.358 . S
C458 C460 1.356 . S
C458 H512 0.930 . S
C459 N457 1.279 . S
C459 C458 1.358 . S
C459 H463 0.930 . S
C460 C458 1.356 . S
C460 C461 1.348 . S
C461 C456 1.353 . S
C461 C460 1.348 . S
C461 H513 0.929 . S
H462 C456 0.930 . S
H463 C459 0.930 . S
C464 N465 1.314 . S
C464 C466 1.353 . S
C464 H470 0.930 . S
N465 Li441 1.990 . S
N465 C464 1.314 . S
N465 C468 1.279 . S
C466 C464 1.353 . S
C466 C469 1.348 . S
C466 H514 0.929 . S
C467 C468 1.358 . S
C467 C469 1.356 . S
C467 H515 0.930 . S
C468 N465 1.279 . S
C468 C467 1.358 . S
C468 H471 0.930 . S
C469 C466 1.348 . S
C469 C467 1.356 . S
H470 C464 0.930 . S
H471 C468 0.930 . S
C472 C474 1.348 . S
C472 C475 1.356 . S
C472 O502 1.325 . S
N473 C476 1.314 . S
N473 C477 1.279 . S
C474 C472 1.348 . S
C474 C476 1.353 . S
C474 H516 0.929 . S
C475 C472 1.356 . S
C475 C477 1.358 . S
C475 H517 0.930 1_556 S
C476 N473 1.314 . S
C476 C474 1.353 . S
C476 H518 0.930 . S
C477 N473 1.279 . S
C477 C475 1.358 . S
C477 H519 0.930 1_556 S
C478 C479 1.348 . S
C478 C480 1.356 . S
C478 O503 1.325 . S
C479 C478 1.348 . S
C479 C481 1.353 . S
C479 H520 0.929 . S
C480 C478 1.356 . S
C480 C482 1.358 . S
C480 H521 0.930 . S
C481 C479 1.353 . S
C481 N483 1.314 . S
C481 H522 0.930 . S
C482 C480 1.358 . S
C482 N483 1.279 . S
C482 H523 0.930 . S
N483 C481 1.314 . S
N483 C482 1.279 . S
C484 C486 1.353 . S
C484 N487 1.314 . S
C484 H490 0.930 . S
C485 N487 1.279 . S
C485 C488 1.358 . S
C485 H491 0.930 . S
C486 C484 1.353 . S
C486 C489 1.348 . S
C486 H524 0.929 . S
N487 Li442 1.990 . S
N487 C484 1.314 . S
N487 C485 1.279 . S
C488 C485 1.358 . S
C488 C489 1.356 . S
C488 H525 0.930 . S
C489 C486 1.348 . S
C489 C488 1.356 . S
H490 C484 0.930 . S
H491 C485 0.930 . S
C492 N493 1.314 . S
C492 C494 1.353 . S
C492 H498 0.930 . S
N493 Li443 1.990 . S
N493 C492 1.314 . S
N493 C496 1.279 . S
C494 C492 1.353 . S
C494 C497 1.348 . S
C494 H526 0.929 . S
C495 C496 1.358 . S
C495 C497 1.356 . S
C495 H527 0.930 . S
C496 N493 1.279 . S
C496 C495 1.358 . S
C496 H499 0.930 . S
C497 C494 1.348 . S
C497 C495 1.356 . S
H498 C492 0.930 . S
H499 C496 0.930 . S
O500 Li440 1.956 1_554 S
O500 Li441 1.970 1_554 S
O500 Li442 1.961 1_554 S
O500 C444 1.325 . S
O501 Li440 1.970 . S
O501 Li441 1.956 . S
O501 Li443 1.961 . S
O501 C450 1.325 . S
O502 Li440 1.961 . S
O502 Li442 1.956 . S
O502 Li443 1.970 . S
O502 C472 1.325 . S
O503 Li441 1.961 . S
O503 Li442 1.970 . S
O503 Li443 1.956 . S
O503 C478 1.325 . S
H504 C446 0.929 . S
H505 C447 0.930 . S
H506 C448 0.930 . S
H507 C449 0.930 . S
H508 C451 0.930 . S
H509 C453 0.929 1_554 S
H510 C454 0.930 . S
H511 C455 0.930 . S
H512 C458 0.930 . S
H513 C461 0.929 . S
H514 C466 0.929 . S
H515 C467 0.930 . S
H516 C474 0.929 . S
H517 C475 0.930 1_554 S
H518 C476 0.930 . S
H519 C477 0.930 1_554 S
H520 C479 0.929 . S
H521 C480 0.930 . S
H522 C481 0.930 . S
H523 C482 0.930 . S
H524 C486 0.929 . S
H525 C488 0.930 . S
H526 C494 0.929 . S
H527 C495 0.930 . S
Li528 N545 1.990 . S
Li528 O588 1.956 . S
Li528 O589 1.970 . S
Li528 O590 1.961 . S
Li529 N553 1.990 . S
Li529 O588 1.970 . S
Li529 O589 1.956 . S
Li529 O591 1.961 . S
Li530 N575 1.990 . S
Li530 O588 1.961 . S
Li530 O590 1.956 . S
Li530 O591 1.970 . S
Li531 N581 1.990 . S
Li531 O589 1.961 . S
Li531 O590 1.970 . S
Li531 O591 1.956 . S
C532 C534 1.348 . S
C532 C535 1.356 . S
C532 O588 1.325 . S
N533 C536 1.314 . S
N533 C537 1.279 . S
C534 C532 1.348 . S
C534 C536 1.353 . S
C534 H592 0.929 . S
C535 C532 1.356 . S
C535 C537 1.358 . S
C535 H593 0.930 . S
C536 N533 1.314 . S
C536 C534 1.353 . S
C536 H594 0.930 . S
C537 N533 1.279 . S
C537 C535 1.358 . S
C537 H595 0.930 . S
C538 C541 1.348 . S
C538 C542 1.356 . S
C538 O589 1.325 . S
C539 N540 1.279 . S
C539 C542 1.358 . S
C539 H596 0.930 . S
N540 C539 1.279 . S
N540 C543 1.314 . S
C541 C538 1.348 . S
C541 C543 1.353 . S
C541 H597 0.929 . S
C542 C538 1.356 . S
C542 C539 1.358 . S
C542 H598 0.930 . S
C543 N540 1.314 . S
C543 C541 1.353 . S
C543 H599 0.930 . S
C544 N545 1.314 . S
C544 C549 1.353 . S
C544 H550 0.930 . S
N545 Li528 1.990 . S
N545 C544 1.314 . S
N545 C547 1.279 . S
C546 C547 1.358 . S
C546 C548 1.356 . S
C546 H600 0.930 . S
C547 N545 1.279 . S
C547 C546 1.358 . S
C547 H551 0.930 . S
C548 C546 1.356 . S
C548 C549 1.348 . S
C549 C544 1.353 . S
C549 C548 1.348 . S
C549 H601 0.929 . S
H550 C544 0.930 . S
H551 C547 0.930 . S
C552 N553 1.314 . S
C552 C554 1.353 . S
C552 H558 0.930 . S
N553 Li529 1.990 . S
N553 C552 1.314 . S
N553 C556 1.279 . S
C554 C552 1.353 . S
C554 C557 1.348 . S
C554 H602 0.929 . S
C555 C556 1.358 . S
C555 C557 1.356 . S
C555 H603 0.930 . S
C556 N553 1.279 . S
C556 C555 1.358 . S
C556 H559 0.930 . S
C557 C554 1.348 . S
C557 C555 1.356 . S
H558 C552 0.930 . S
H559 C556 0.930 . S
C560 C562 1.348 . S
C560 C563 1.356 . S
C560 O590 1.325 . S
N561 C564 1.314 . S
N561 C565 1.279 . S
C562 C560 1.348 . S
C562 C564 1.353 . S
C562 H604 0.929 . S
C563 C560 1.356 . S
C563 C565 1.358 . S
C563 H605 0.930 . S
C564 N561 1.314 . S
C564 C562 1.353 . S
C564 H606 0.930 . S
C565 N561 1.279 . S
C565 C563 1.358 . S
C565 H607 0.930 . S
C566 C567 1.348 . S
C566 C568 1.356 . S
C566 O591 1.325 . S
C567 C566 1.348 . S
C567 C569 1.353 . S
C567 H608 0.929 . S
C568 C566 1.356 . S
C568 C570 1.358 . S
C568 H609 0.930 . S
C569 C567 1.353 . S
C569 N571 1.314 . S
C569 H610 0.930 . S
C570 C568 1.358 . S
C570 N571 1.279 . S
C570 H611 0.930 . S
N571 C569 1.314 . S
N571 C570 1.279 . S
C572 C574 1.353 . S
C572 N575 1.314 . S
C572 H578 0.930 . S
C573 N575 1.279 . S
C573 C576 1.358 . S
C573 H579 0.930 . S
C574 C572 1.353 . S
C574 C577 1.348 . S
C574 H612 0.929 . S
N575 Li530 1.990 . S
N575 C572 1.314 . S
N575 C573 1.279 . S
C576 C573 1.358 . S
C576 C577 1.356 . S
C576 H613 0.930 . S
C577 C574 1.348 . S
C577 C576 1.356 . S
H578 C572 0.930 . S
H579 C573 0.930 . S
C580 N581 1.314 . S
C580 C582 1.353 . S
C580 H586 0.930 . S
N581 Li531 1.990 . S
N581 C580 1.314 . S
N581 C584 1.279 . S
C582 C580 1.353 . S
C582 C585 1.348 . S
C582 H614 0.929 . S
C583 C584 1.358 . S
C583 C585 1.356 . S
C583 H615 0.930 . S
C584 N581 1.279 . S
C584 C583 1.358 . S
C584 H587 0.930 . S
C585 C582 1.348 . S
C585 C583 1.356 . S
H586 C580 0.930 . S
H587 C584 0.930 . S
O588 Li528 1.956 . S
O588 Li529 1.970 . S
O588 Li530 1.961 . S
O588 C532 1.325 . S
O589 Li528 1.970 . S
O589 Li529 1.956 . S
O589 Li531 1.961 . S
O589 C538 1.325 . S
O590 Li528 1.961 . S
O590 Li530 1.956 . S
O590 Li531 1.970 . S
O590 C560 1.325 . S
O591 Li529 1.961 . S
O591 Li530 1.970 . S
O591 Li531 1.956 . S
O591 C566 1.325 . S
H592 C534 0.929 . S
H593 C535 0.930 . S
H594 C536 0.930 . S
H595 C537 0.930 . S
H596 C539 0.930 . S
H597 C541 0.929 . S
H598 C542 0.930 . S
H599 C543 0.930 . S
H600 C546 0.930 . S
H601 C549 0.929 . S
H602 C554 0.929 . S
H603 C555 0.930 . S
H604 C562 0.929 . S
H605 C563 0.930 . S
H606 C564 0.930 . S
H607 C565 0.930 . S
H608 C567 0.929 . S
H609 C568 0.930 . S
H610 C569 0.930 . S
H611 C570 0.930 . S
H612 C574 0.929 . S
H613 C576 0.930 . S
H614 C582 0.929 . S
H615 C583 0.930 . S
Li616 N633 1.990 . S
Li616 O676 1.956 . S
Li616 O677 1.970 . S
Li616 O678 1.961 . S
Li617 N641 1.990 . S
Li617 O676 1.970 . S
Li617 O677 1.956 . S
Li617 O679 1.961 . S
Li618 N663 1.990 . S
Li618 O676 1.961 . S
Li618 O678 1.956 . S
Li618 O679 1.970 . S
Li619 N669 1.990 . S
Li619 O677 1.961 . S
Li619 O678 1.970 . S
Li619 O679 1.956 . S
C620 C622 1.348 . S
C620 C623 1.356 . S
C620 O676 1.325 . S
N621 C624 1.314 . S
N621 C625 1.279 . S
C622 C620 1.348 . S
C622 C624 1.353 . S
C622 H680 0.929 . S
C623 C620 1.356 . S
C623 C625 1.358 . S
C623 H681 0.930 . S
C624 N621 1.314 . S
C624 C622 1.353 . S
C624 H682 0.930 . S
C625 N621 1.279 . S
C625 C623 1.358 . S
C625 H683 0.930 . S
C626 C629 1.348 . S
C626 C630 1.356 . S
C626 O677 1.325 . S
C627 N628 1.279 . S
C627 C630 1.358 . S
C627 H684 0.930 . S
N628 C627 1.279 . S
N628 C631 1.314 . S
C629 C626 1.348 . S
C629 C631 1.353 . S
C629 H685 0.929 . S
C630 C626 1.356 . S
C630 C627 1.358 . S
C630 H686 0.930 . S
C631 N628 1.314 . S
C631 C629 1.353 . S
C631 H687 0.930 . S
C632 N633 1.314 . S
C632 C637 1.353 . S
C632 H638 0.930 . S
N633 Li616 1.990 . S
N633 C632 1.314 . S
N633 C635 1.279 . S
C634 C635 1.358 . S
C634 C636 1.356 . S
C634 H688 0.930 . S
C635 N633 1.279 . S
C635 C634 1.358 . S
C635 H639 0.930 . S
C636 C634 1.356 . S
C636 C637 1.348 . S
C637 C632 1.353 . S
C637 C636 1.348 . S
C637 H689 0.929 . S
H638 C632 0.930 . S
H639 C635 0.930 . S
C640 N641 1.314 . S
C640 C642 1.353 . S
C640 H646 0.930 . S
N641 Li617 1.990 . S
N641 C640 1.314 . S
N641 C644 1.279 . S
C642 C640 1.353 . S
C642 C645 1.348 . S
C642 H690 0.929 . S
C643 C644 1.358 . S
C643 C645 1.356 . S
C643 H691 0.930 . S
C644 N641 1.279 . S
C644 C643 1.358 . S
C644 H647 0.930 . S
C645 C642 1.348 . S
C645 C643 1.356 . S
H646 C640 0.930 . S
H647 C644 0.930 . S
C648 C650 1.348 . S
C648 C651 1.356 . S
C648 O678 1.325 . S
N649 C652 1.314 . S
N649 C653 1.279 . S
C650 C648 1.348 . S
C650 C652 1.353 . S
C650 H692 0.929 . S
C651 C648 1.356 . S
C651 C653 1.358 . S
C651 H693 0.930 . S
C652 N649 1.314 . S
C652 C650 1.353 . S
C652 H694 0.930 . S
C653 N649 1.279 . S
C653 C651 1.358 . S
C653 H695 0.930 . S
C654 C655 1.348 . S
C654 C656 1.356 . S
C654 O679 1.325 . S
C655 C654 1.348 . S
C655 C657 1.353 . S
C655 H696 0.929 . S
C656 C654 1.356 . S
C656 C658 1.358 . S
C656 H697 0.930 . S
C657 C655 1.353 . S
C657 N659 1.314 . S
C657 H698 0.930 . S
C658 C656 1.358 . S
C658 N659 1.279 . S
C658 H699 0.930 . S
N659 C657 1.314 . S
N659 C658 1.279 . S
C660 C662 1.353 . S
C660 N663 1.314 . S
C660 H666 0.930 . S
C661 N663 1.279 . S
C661 C664 1.358 . S
C661 H667 0.930 . S
C662 C660 1.353 . S
C662 C665 1.348 . S
C662 H700 0.929 . S
N663 Li618 1.990 . S
N663 C660 1.314 . S
N663 C661 1.279 . S
C664 C661 1.358 . S
C664 C665 1.356 . S
C664 H701 0.930 . S
C665 C662 1.348 . S
C665 C664 1.356 . S
H666 C660 0.930 . S
H667 C661 0.930 . S
C668 N669 1.314 . S
C668 C670 1.353 . S
C668 H674 0.930 . S
N669 Li619 1.990 . S
N669 C668 1.314 . S
N669 C672 1.279 . S
C670 C668 1.353 . S
C670 C673 1.348 . S
C670 H702 0.929 . S
C671 C672 1.358 . S
C671 C673 1.356 . S
C671 H703 0.930 . S
C672 N669 1.279 . S
C672 C671 1.358 . S
C672 H675 0.930 . S
C673 C670 1.348 . S
C673 C671 1.356 . S
H674 C668 0.930 . S
H675 C672 0.930 . S
O676 Li616 1.956 . S
O676 Li617 1.970 . S
O676 Li618 1.961 . S
O676 C620 1.325 . S
O677 Li616 1.970 . S
O677 Li617 1.956 . S
O677 Li619 1.961 . S
O677 C626 1.325 . S
O678 Li616 1.961 . S
O678 Li618 1.956 . S
O678 Li619 1.970 . S
O678 C648 1.325 . S
O679 Li617 1.961 . S
O679 Li618 1.970 . S
O679 Li619 1.956 . S
O679 C654 1.325 . S
H680 C622 0.929 . S
H681 C623 0.930 . S
H682 C624 0.930 . S
H683 C625 0.930 . S
H684 C627 0.930 . S
H685 C629 0.929 . S
H686 C630 0.930 . S
H687 C631 0.930 . S
H688 C634 0.930 . S
H689 C637 0.929 . S
H690 C642 0.929 . S
H691 C643 0.930 . S
H692 C650 0.929 . S
H693 C651 0.930 . S
H694 C652 0.930 . S
H695 C653 0.930 . S
H696 C655 0.929 . S
H697 C656 0.930 . S
H698 C657 0.930 . S
H699 C658 0.930 . S
H700 C662 0.929 . S
H701 C664 0.930 . S
H702 C670 0.929 . S
H703 C671 0.930 . S
Li704 N721 1.990 . S
Li704 O764 1.956 . S
Li704 O765 1.970 . S
Li704 O766 1.961 1_554 S
Li705 N729 1.990 . S
Li705 O764 1.970 . S
Li705 O765 1.956 . S
Li705 O767 1.961 . S
Li706 N751 1.990 1_554 S
Li706 O764 1.961 . S
Li706 O766 1.956 1_554 S
Li706 O767 1.970 . S
Li707 N757 1.990 . S
Li707 O765 1.961 . S
Li707 O766 1.970 1_554 S
Li707 O767 1.956 . S
C708 C710 1.348 . S
C708 C711 1.356 . S
C708 O764 1.325 . S
N709 C712 1.314 . S
N709 C713 1.279 . S
C710 C708 1.348 . S
C710 C712 1.353 . S
C710 H768 0.929 . S
C711 C708 1.356 . S
C711 C713 1.358 . S
C711 H769 0.930 1_554 S
C712 N709 1.314 . S
C712 C710 1.353 . S
C712 H770 0.930 . S
C713 N709 1.279 . S
C713 C711 1.358 . S
C713 H771 0.930 1_554 S
C714 C717 1.348 . S
C714 C718 1.356 . S
C714 O765 1.325 . S
C715 N716 1.279 . S
C715 C718 1.358 . S
C715 H772 0.930 . S
N716 C715 1.279 . S
N716 C719 1.314 . S
C717 C714 1.348 . S
C717 C719 1.353 . S
C717 H773 0.929 . S
C718 C714 1.356 . S
C718 C715 1.358 . S
C718 H774 0.930 . S
C719 N716 1.314 . S
C719 C717 1.353 . S
C719 H775 0.930 . S
C720 N721 1.314 . S
C720 C725 1.353 . S
C720 H726 0.930 . S
N721 Li704 1.990 . S
N721 C720 1.314 . S
N721 C723 1.279 . S
C722 C723 1.358 . S
C722 C724 1.356 . S
C722 H776 0.930 . S
C723 N721 1.279 . S
C723 C722 1.358 . S
C723 H727 0.930 . S
C724 C722 1.356 . S
C724 C725 1.348 . S
C725 C720 1.353 . S
C725 C724 1.348 . S
C725 H777 0.929 . S
H726 C720 0.930 . S
H727 C723 0.930 . S
C728 N729 1.314 . S
C728 C730 1.353 . S
C728 H734 0.930 . S
N729 Li705 1.990 . S
N729 C728 1.314 . S
N729 C732 1.279 . S
C730 C728 1.353 . S
C730 C733 1.348 . S
C730 H778 0.929 . S
C731 C732 1.358 . S
C731 C733 1.356 . S
C731 H779 0.930 . S
C732 N729 1.279 . S
C732 C731 1.358 . S
C732 H735 0.930 . S
C733 C730 1.348 . S
C733 C731 1.356 . S
H734 C728 0.930 . S
H735 C732 0.930 . S
C736 C738 1.348 . S
C736 C739 1.356 . S
C736 O766 1.325 . S
N737 C740 1.314 . S
N737 C741 1.279 . S
C738 C736 1.348 . S
C738 C740 1.353 . S
C738 H780 0.929 . S
C739 C736 1.356 . S
C739 C741 1.358 . S
C739 H781 0.930 . S
C740 N737 1.314 . S
C740 C738 1.353 . S
C740 H782 0.930 . S
C741 N737 1.279 . S
C741 C739 1.358 . S
C741 H783 0.930 . S
C742 C743 1.348 . S
C742 C744 1.356 . S
C742 O767 1.325 . S
C743 C742 1.348 . S
C743 C745 1.353 . S
C743 H784 0.929 1_554 S
C744 C742 1.356 . S
C744 C746 1.358 . S
C744 H785 0.930 . S
C745 C743 1.353 . S
C745 N747 1.314 . S
C745 H786 0.930 . S
C746 C744 1.358 . S
C746 N747 1.279 . S
C746 H787 0.930 . S
N747 C745 1.314 . S
N747 C746 1.279 . S
C748 C750 1.353 . S
C748 N751 1.314 . S
C748 H754 0.930 . S
C749 N751 1.279 . S
C749 C752 1.358 . S
C749 H755 0.930 . S
C750 C748 1.353 . S
C750 C753 1.348 . S
C750 H788 0.929 . S
N751 Li706 1.990 1_556 S
N751 C748 1.314 . S
N751 C749 1.279 . S
C752 C749 1.358 . S
C752 C753 1.356 . S
C752 H789 0.930 . S
C753 C750 1.348 . S
C753 C752 1.356 . S
H754 C748 0.930 . S
H755 C749 0.930 . S
C756 N757 1.314 . S
C756 C758 1.353 . S
C756 H762 0.930 . S
N757 Li707 1.990 . S
N757 C756 1.314 . S
N757 C760 1.279 . S
C758 C756 1.353 . S
C758 C761 1.348 . S
C758 H790 0.929 . S
C759 C760 1.358 . S
C759 C761 1.356 . S
C759 H791 0.930 . S
C760 N757 1.279 . S
C760 C759 1.358 . S
C760 H763 0.930 . S
C761 C758 1.348 . S
C761 C759 1.356 . S
H762 C756 0.930 . S
H763 C760 0.930 . S
O764 Li704 1.956 . S
O764 Li705 1.970 . S
O764 Li706 1.961 . S
O764 C708 1.325 . S
O765 Li704 1.970 . S
O765 Li705 1.956 . S
O765 Li707 1.961 . S
O765 C714 1.325 . S
O766 Li704 1.961 1_556 S
O766 Li706 1.956 1_556 S
O766 Li707 1.970 1_556 S
O766 C736 1.325 . S
O767 Li705 1.961 . S
O767 Li706 1.970 . S
O767 Li707 1.956 . S
O767 C742 1.325 . S
H768 C710 0.929 . S
H769 C711 0.930 1_556 S
H770 C712 0.930 . S
H771 C713 0.930 1_556 S
H772 C715 0.930 . S
H773 C717 0.929 . S
H774 C718 0.930 . S
H775 C719 0.930 . S
H776 C722 0.930 . S
H777 C725 0.929 . S
H778 C730 0.929 . S
H779 C731 0.930 . S
H780 C738 0.929 . S
H781 C739 0.930 . S
H782 C740 0.930 . S
H783 C741 0.930 . S
H784 C743 0.929 1_556 S
H785 C744 0.930 . S
H786 C745 0.930 . S
H787 C746 0.930 . S
H788 C750 0.929 . S
H789 C752 0.930 . S
H790 C758 0.929 . S
H791 C759 0.930 . S
Li792 N809 1.990 . S
Li792 O852 1.956 . S
Li792 O853 1.970 . S
Li792 O854 1.961 . S
Li793 N817 1.990 . S
Li793 O852 1.970 . S
Li793 O853 1.956 . S
Li793 O855 1.961 . S
Li794 N839 1.990 . S
Li794 O852 1.961 . S
Li794 O854 1.956 . S
Li794 O855 1.970 . S
Li795 N845 1.990 . S
Li795 O853 1.961 . S
Li795 O854 1.970 . S
Li795 O855 1.956 . S
C796 C798 1.348 . S
C796 C799 1.356 . S
C796 O852 1.325 . S
N797 C800 1.314 . S
N797 C801 1.279 . S
C798 C796 1.348 . S
C798 C800 1.353 . S
C798 H856 0.929 . S
C799 C796 1.356 . S
C799 C801 1.358 . S
C799 H857 0.930 . S
C800 N797 1.314 . S
C800 C798 1.353 . S
C800 H858 0.930 . S
C801 N797 1.279 . S
C801 C799 1.358 . S
C801 H859 0.930 . S
C802 C805 1.348 . S
C802 C806 1.356 . S
C802 O853 1.325 . S
C803 N804 1.279 . S
C803 C806 1.358 . S
C803 H860 0.930 . S
N804 C803 1.279 . S
N804 C807 1.314 . S
C805 C802 1.348 . S
C805 C807 1.353 . S
C805 H861 0.929 . S
C806 C802 1.356 . S
C806 C803 1.358 . S
C806 H862 0.930 . S
C807 N804 1.314 . S
C807 C805 1.353 . S
C807 H863 0.930 . S
C808 N809 1.314 . S
C808 C813 1.353 . S
C808 H814 0.930 . S
N809 Li792 1.990 . S
N809 C808 1.314 . S
N809 C811 1.279 . S
C810 C811 1.358 . S
C810 C812 1.356 . S
C810 H864 0.930 . S
C811 N809 1.279 . S
C811 C810 1.358 . S
C811 H815 0.930 . S
C812 C810 1.356 . S
C812 C813 1.348 . S
C813 C808 1.353 . S
C813 C812 1.348 . S
C813 H865 0.929 . S
H814 C808 0.930 . S
H815 C811 0.930 . S
C816 N817 1.314 . S
C816 C818 1.353 . S
C816 H822 0.930 . S
N817 Li793 1.990 . S
N817 C816 1.314 . S
N817 C820 1.279 . S
C818 C816 1.353 . S
C818 C821 1.348 . S
C818 H866 0.929 . S
C819 C820 1.358 . S
C819 C821 1.356 . S
C819 H867 0.930 . S
C820 N817 1.279 . S
C820 C819 1.358 . S
C820 H823 0.930 . S
C821 C818 1.348 . S
C821 C819 1.356 . S
H822 C816 0.930 . S
H823 C820 0.930 . S
C824 C826 1.348 . S
C824 C827 1.356 . S
C824 O854 1.325 . S
N825 C828 1.314 . S
N825 C829 1.279 . S
C826 C824 1.348 . S
C826 C828 1.353 . S
C826 H868 0.929 . S
C827 C824 1.356 . S
C827 C829 1.358 . S
C827 H869 0.930 . S
C828 N825 1.314 . S
C828 C826 1.353 . S
C828 H870 0.930 . S
C829 N825 1.279 . S
C829 C827 1.358 . S
C829 H871 0.930 . S
C830 C831 1.348 . S
C830 C832 1.356 . S
C830 O855 1.325 . S
C831 C830 1.348 . S
C831 C833 1.353 . S
C831 H872 0.929 . S
C832 C830 1.356 . S
C832 C834 1.358 . S
C832 H873 0.930 . S
C833 C831 1.353 . S
C833 N835 1.314 . S
C833 H874 0.930 . S
C834 C832 1.358 . S
C834 N835 1.279 . S
C834 H875 0.930 . S
N835 C833 1.314 . S
N835 C834 1.279 . S
C836 C838 1.353 . S
C836 N839 1.314 . S
C836 H842 0.930 . S
C837 N839 1.279 . S
C837 C840 1.358 . S
C837 H843 0.930 . S
C838 C836 1.353 . S
C838 C841 1.348 . S
C838 H876 0.929 . S
N839 Li794 1.990 . S
N839 C836 1.314 . S
N839 C837 1.279 . S
C840 C837 1.358 . S
C840 C841 1.356 . S
C840 H877 0.930 . S
C841 C838 1.348 . S
C841 C840 1.356 . S
H842 C836 0.930 . S
H843 C837 0.930 . S
C844 N845 1.314 . S
C844 C846 1.353 . S
C844 H850 0.930 . S
N845 Li795 1.990 . S
N845 C844 1.314 . S
N845 C848 1.279 . S
C846 C844 1.353 . S
C846 C849 1.348 . S
C846 H878 0.929 . S
C847 C848 1.358 . S
C847 C849 1.356 . S
C847 H879 0.930 . S
C848 N845 1.279 . S
C848 C847 1.358 . S
C848 H851 0.930 . S
C849 C846 1.348 . S
C849 C847 1.356 . S
H850 C844 0.930 . S
H851 C848 0.930 . S
O852 Li792 1.956 . S
O852 Li793 1.970 . S
O852 Li794 1.961 . S
O852 C796 1.325 . S
O853 Li792 1.970 . S
O853 Li793 1.956 . S
O853 Li795 1.961 . S
O853 C802 1.325 . S
O854 Li792 1.961 . S
O854 Li794 1.956 . S
O854 Li795 1.970 . S
O854 C824 1.325 . S
O855 Li793 1.961 . S
O855 Li794 1.970 . S
O855 Li795 1.956 . S
O855 C830 1.325 . S
H856 C798 0.929 . S
H857 C799 0.930 . S
H858 C800 0.930 . S
H859 C801 0.930 . S
H860 C803 0.930 . S
H861 C805 0.929 . S
H862 C806 0.930 . S
H863 C807 0.930 . S
H864 C810 0.930 . S
H865 C813 0.929 . S
H866 C818 0.929 . S
H867 C819 0.930 . S
H868 C826 0.929 . S
H869 C827 0.930 . S
H870 C828 0.930 . S
H871 C829 0.930 . S
H872 C831 0.929 . S
H873 C832 0.930 . S
H874 C833 0.930 . S
H875 C834 0.930 . S
H876 C838 0.929 . S
H877 C840 0.930 . S
H878 C846 0.929 . S
H879 C847 0.930 . S
Li880 N897 1.990 . S
Li880 O940 1.956 . S
Li880 O941 1.970 . S
Li880 O942 1.961 . S
Li881 N905 1.990 . S
Li881 O940 1.970 . S
Li881 O941 1.956 . S
Li881 O943 1.961 . S
Li882 N927 1.990 . S
Li882 O940 1.961 . S
Li882 O942 1.956 . S
Li882 O943 1.970 . S
Li883 N933 1.990 . S
Li883 O941 1.961 . S
Li883 O942 1.970 . S
Li883 O943 1.956 . S
C884 C886 1.348 . S
C884 C887 1.356 . S
C884 O940 1.325 . S
N885 C888 1.314 . S
N885 C889 1.279 . S
C886 C884 1.348 . S
C886 C888 1.353 . S
C886 H944 0.929 . S
C887 C884 1.356 . S
C887 C889 1.358 . S
C887 H945 0.930 . S
C888 N885 1.314 . S
C888 C886 1.353 . S
C888 H946 0.930 . S
C889 N885 1.279 . S
C889 C887 1.358 . S
C889 H947 0.930 . S
C890 C893 1.348 . S
C890 C894 1.356 . S
C890 O941 1.325 . S
C891 N892 1.279 . S
C891 C894 1.358 . S
C891 H948 0.930 . S
N892 C891 1.279 . S
N892 C895 1.314 . S
C893 C890 1.348 . S
C893 C895 1.353 . S
C893 H949 0.929 . S
C894 C890 1.356 . S
C894 C891 1.358 . S
C894 H950 0.930 . S
C895 N892 1.314 . S
C895 C893 1.353 . S
C895 H951 0.930 . S
C896 N897 1.314 . S
C896 C901 1.353 . S
C896 H902 0.930 . S
N897 Li880 1.990 . S
N897 C896 1.314 . S
N897 C899 1.279 . S
C898 C899 1.358 . S
C898 C900 1.356 . S
C898 H952 0.930 . S
C899 N897 1.279 . S
C899 C898 1.358 . S
C899 H903 0.930 . S
C900 C898 1.356 . S
C900 C901 1.348 . S
C901 C896 1.353 . S
C901 C900 1.348 . S
C901 H953 0.929 . S
H902 C896 0.930 . S
H903 C899 0.930 . S
C904 N905 1.314 . S
C904 C906 1.353 . S
C904 H910 0.930 . S
N905 Li881 1.990 . S
N905 C904 1.314 . S
N905 C908 1.279 . S
C906 C904 1.353 . S
C906 C909 1.348 . S
C906 H954 0.929 . S
C907 C908 1.358 . S
C907 C909 1.356 . S
C907 H955 0.930 . S
C908 N905 1.279 . S
C908 C907 1.358 . S
C908 H911 0.930 . S
C909 C906 1.348 . S
C909 C907 1.356 . S
H910 C904 0.930 . S
H911 C908 0.930 . S
C912 C914 1.348 . S
C912 C915 1.356 . S
C912 O942 1.325 . S
N913 C916 1.314 . S
N913 C917 1.279 . S
C914 C912 1.348 . S
C914 C916 1.353 . S
C914 H956 0.929 . S
C915 C912 1.356 . S
C915 C917 1.358 . S
C915 H957 0.930 . S
C916 N913 1.314 . S
C916 C914 1.353 . S
C916 H958 0.930 . S
C917 N913 1.279 . S
C917 C915 1.358 . S
C917 H959 0.930 . S
C918 C919 1.348 . S
C918 C920 1.356 . S
C918 O943 1.325 . S
C919 C918 1.348 . S
C919 C921 1.353 . S
C919 H960 0.929 . S
C920 C918 1.356 . S
C920 C922 1.358 . S
C920 H961 0.930 . S
C921 C919 1.353 . S
C921 N923 1.314 . S
C921 H962 0.930 . S
C922 C920 1.358 . S
C922 N923 1.279 . S
C922 H963 0.930 . S
N923 C921 1.314 . S
N923 C922 1.279 . S
C924 C926 1.353 . S
C924 N927 1.314 . S
C924 H930 0.930 . S
C925 N927 1.279 . S
C925 C928 1.358 . S
C925 H931 0.930 . S
C926 C924 1.353 . S
C926 C929 1.348 . S
C926 H964 0.929 . S
N927 Li882 1.990 . S
N927 C924 1.314 . S
N927 C925 1.279 . S
C928 C925 1.358 . S
C928 C929 1.356 . S
C928 H965 0.930 . S
C929 C926 1.348 . S
C929 C928 1.356 . S
H930 C924 0.930 . S
H931 C925 0.930 . S
C932 N933 1.314 . S
C932 C934 1.353 . S
C932 H938 0.930 . S
N933 Li883 1.990 . S
N933 C932 1.314 . S
N933 C936 1.279 . S
C934 C932 1.353 . S
C934 C937 1.348 . S
C934 H966 0.929 . S
C935 C936 1.358 . S
C935 C937 1.356 . S
C935 H967 0.930 . S
C936 N933 1.279 . S
C936 C935 1.358 . S
C936 H939 0.930 . S
C937 C934 1.348 . S
C937 C935 1.356 . S
H938 C932 0.930 . S
H939 C936 0.930 . S
O940 Li880 1.956 . S
O940 Li881 1.970 . S
O940 Li882 1.961 . S
O940 C884 1.325 . S
O941 Li880 1.970 . S
O941 Li881 1.956 . S
O941 Li883 1.961 . S
O941 C890 1.325 . S
O942 Li880 1.961 . S
O942 Li882 1.956 . S
O942 Li883 1.970 . S
O942 C912 1.325 . S
O943 Li881 1.961 . S
O943 Li882 1.970 . S
O943 Li883 1.956 . S
O943 C918 1.325 . S
H944 C886 0.929 . S
H945 C887 0.930 . S
H946 C888 0.930 . S
H947 C889 0.930 . S
H948 C891 0.930 . S
H949 C893 0.929 . S
H950 C894 0.930 . S
H951 C895 0.930 . S
H952 C898 0.930 . S
H953 C901 0.929 . S
H954 C906 0.929 . S
H955 C907 0.930 . S
H956 C914 0.929 . S
H957 C915 0.930 . S
H958 C916 0.930 . S
H959 C917 0.930 . S
H960 C919 0.929 . S
H961 C920 0.930 . S
H962 C921 0.930 . S
H963 C922 0.930 . S
H964 C926 0.929 . S
H965 C928 0.930 . S
H966 C934 0.929 . S
H967 C935 0.930 . S
Li968 N985 1.990 . S
Li968 O1028 1.956 . S
Li968 O1029 1.970 . S
Li968 O1030 1.961 . S
Li969 N993 1.990 . S
Li969 O1028 1.970 . S
Li969 O1029 1.956 . S
Li969 O1031 1.961 1_554 S
Li970 N1015 1.990 . S
Li970 O1028 1.961 . S
Li970 O1030 1.956 . S
Li970 O1031 1.970 1_554 S
Li971 N1021 1.990 1_554 S
Li971 O1029 1.961 . S
Li971 O1030 1.970 . S
Li971 O1031 1.956 1_554 S
C972 C974 1.348 . S
C972 C975 1.356 . S
C972 O1028 1.325 . S
N973 C976 1.314 . S
N973 C977 1.279 . S
C974 C972 1.348 . S
C974 C976 1.353 . S
C974 H1032 0.929 . S
C975 C972 1.356 . S
C975 C977 1.358 . S
C975 H1033 0.930 . S
C976 N973 1.314 . S
C976 C974 1.353 . S
C976 H1034 0.930 . S
C977 N973 1.279 . S
C977 C975 1.358 . S
C977 H1035 0.930 . S
C978 C981 1.348 . S
C978 C982 1.356 . S
C978 O1029 1.325 . S
C979 N980 1.279 . S
C979 C982 1.358 . S
C979 H1036 0.930 1_554 S
N980 C979 1.279 . S
N980 C983 1.314 . S
C981 C978 1.348 . S
C981 C983 1.353 . S
C981 H1037 0.929 . S
C982 C978 1.356 . S
C982 C979 1.358 . S
C982 H1038 0.930 1_554 S
C983 N980 1.314 . S
C983 C981 1.353 . S
C983 H1039 0.930 . S
C984 N985 1.314 . S
C984 C989 1.353 . S
C984 H990 0.930 . S
N985 Li968 1.990 . S
N985 C984 1.314 . S
N985 C987 1.279 . S
C986 C987 1.358 . S
C986 C988 1.356 . S
C986 H1040 0.930 . S
C987 N985 1.279 . S
C987 C986 1.358 . S
C987 H991 0.930 . S
C988 C986 1.356 . S
C988 C989 1.348 . S
C989 C984 1.353 . S
C989 C988 1.348 . S
C989 H1041 0.929 . S
H990 C984 0.930 . S
H991 C987 0.930 . S
C992 N993 1.314 . S
C992 C994 1.353 . S
C992 H998 0.930 . S
N993 Li969 1.990 . S
N993 C992 1.314 . S
N993 C996 1.279 . S
C994 C992 1.353 . S
C994 C997 1.348 . S
C994 H1042 0.929 . S
C995 C996 1.358 . S
C995 C997 1.356 . S
C995 H1043 0.930 . S
C996 N993 1.279 . S
C996 C995 1.358 . S
C996 H999 0.930 . S
C997 C994 1.348 . S
C997 C995 1.356 . S
H998 C992 0.930 . S
H999 C996 0.930 . S
C1000 C1002 1.348 . S
C1000 C1003 1.356 . S
C1000 O1030 1.325 . S
N1001 C1004 1.314 . S
N1001 C1005 1.279 . S
C1002 C1000 1.348 . S
C1002 C1004 1.353 . S
C1002 H1044 0.929 1_554 S
C1003 C1000 1.356 . S
C1003 C1005 1.358 . S
C1003 H1045 0.930 . S
C1004 N1001 1.314 . S
C1004 C1002 1.353 . S
C1004 H1046 0.930 . S
C1005 N1001 1.279 . S
C1005 C1003 1.358 . S
C1005 H1047 0.930 . S
C1006 C1007 1.348 . S
C1006 C1008 1.356 . S
C1006 O1031 1.325 . S
C1007 C1006 1.348 . S
C1007 C1009 1.353 . S
C1007 H1048 0.929 . S
C1008 C1006 1.356 . S
C1008 C1010 1.358 . S
C1008 H1049 0.930 . S
C1009 C1007 1.353 . S
C1009 N1011 1.314 . S
C1009 H1050 0.930 . S
C1010 C1008 1.358 . S
C1010 N1011 1.279 . S
C1010 H1051 0.930 . S
N1011 C1009 1.314 . S
N1011 C1010 1.279 . S
C1012 C1014 1.353 . S
C1012 N1015 1.314 . S
C1012 H1018 0.930 . S
C1013 N1015 1.279 . S
C1013 C1016 1.358 . S
C1013 H1019 0.930 . S
C1014 C1012 1.353 . S
C1014 C1017 1.348 . S
C1014 H1052 0.929 . S
N1015 Li970 1.990 . S
N1015 C1012 1.314 . S
N1015 C1013 1.279 . S
C1016 C1013 1.358 . S
C1016 C1017 1.356 . S
C1016 H1053 0.930 . S
C1017 C1014 1.348 . S
C1017 C1016 1.356 . S
H1018 C1012 0.930 . S
H1019 C1013 0.930 . S
C1020 N1021 1.314 . S
C1020 C1022 1.353 . S
C1020 H1026 0.930 . S
N1021 Li971 1.990 1_556 S
N1021 C1020 1.314 . S
N1021 C1024 1.279 . S
C1022 C1020 1.353 . S
C1022 C1025 1.348 . S
C1022 H1054 0.929 . S
C1023 C1024 1.358 . S
C1023 C1025 1.356 . S
C1023 H1055 0.930 . S
C1024 N1021 1.279 . S
C1024 C1023 1.358 . S
C1024 H1027 0.930 . S
C1025 C1022 1.348 . S
C1025 C1023 1.356 . S
H1026 C1020 0.930 . S
H1027 C1024 0.930 . S
O1028 Li968 1.956 . S
O1028 Li969 1.970 . S
O1028 Li970 1.961 . S
O1028 C972 1.325 . S
O1029 Li968 1.970 . S
O1029 Li969 1.956 . S
O1029 Li971 1.961 . S
O1029 C978 1.325 . S
O1030 Li968 1.961 . S
O1030 Li970 1.956 . S
O1030 Li971 1.970 . S
O1030 C1000 1.325 . S
O1031 Li969 1.961 1_556 S
O1031 Li970 1.970 1_556 S
O1031 Li971 1.956 1_556 S
O1031 C1006 1.325 . S
H1032 C974 0.929 . S
H1033 C975 0.930 . S
H1034 C976 0.930 . S
H1035 C977 0.930 . S
H1036 C979 0.930 1_556 S
H1037 C981 0.929 . S
H1038 C982 0.930 1_556 S
H1039 C983 0.930 . S
H1040 C986 0.930 . S
H1041 C989 0.929 . S
H1042 C994 0.929 . S
H1043 C995 0.930 . S
H1044 C1002 0.929 1_556 S
H1045 C1003 0.930 . S
H1046 C1004 0.930 . S
H1047 C1005 0.930 . S
H1048 C1007 0.929 . S
H1049 C1008 0.930 . S
H1050 C1009 0.930 . S
H1051 C1010 0.930 . S
H1052 C1014 0.929 . S
H1053 C1016 0.930 . S
H1054 C1022 0.929 . S
H1055 C1023 0.930 . S
C1056 C1057 1.387 . S
C1056 H1060 0.950 . S
C1056 C1065 1.390 . S
C1057 C1056 1.387 . S
C1057 C1059 1.387 . S
H1058 C1065 0.950 . S
C1059 C1057 1.387 . S
C1059 C1061 1.390 . S
C1059 H1063 0.950 . S
H1060 C1056 0.950 . S
C1061 C1059 1.390 . S
C1061 C1062 1.387 . S
C1061 H1064 0.950 . S
C1062 C1061 1.387 . S
C1062 C1065 1.387 . S
H1063 C1059 0.950 . S
H1064 C1061 0.950 . S
C1065 C1056 1.390 . S
C1065 H1058 0.950 . S
C1065 C1062 1.387 . S
C1066 C1067 1.387 . S
C1066 H1070 0.950 . S
C1066 C1075 1.390 1_655 S
C1067 C1066 1.387 . S
C1067 C1069 1.387 . S
H1068 C1075 0.950 . S
C1069 C1067 1.387 . S
C1069 C1071 1.390 1_655 S
C1069 H1073 0.950 . S
H1070 C1066 0.950 . S
C1071 C1069 1.390 1_455 S
C1071 C1072 1.387 . S
C1071 H1074 0.950 . S
C1072 C1071 1.387 . S
C1072 C1075 1.387 . S
H1073 C1069 0.950 . S
H1074 C1071 0.950 . S
C1075 C1066 1.390 1_455 S
C1075 H1068 0.950 . S
C1075 C1072 1.387 . S
C1076 C1077 1.387 . S
C1076 H1080 0.950 . S
C1076 C1085 1.390 1_566 S
C1077 C1076 1.387 . S
C1077 C1079 1.387 . S
H1078 C1085 0.950 . S
C1079 C1077 1.387 . S
C1079 C1081 1.390 1_566 S
C1079 H1083 0.950 . S
H1080 C1076 0.950 . S
C1081 C1079 1.390 1_544 S
C1081 C1082 1.387 . S
C1081 H1084 0.950 . S
C1082 C1081 1.387 . S
C1082 C1085 1.387 . S
H1083 C1079 0.950 . S
H1084 C1081 0.950 . S
C1085 C1076 1.390 1_544 S
C1085 H1078 0.950 . S
C1085 C1082 1.387 . S
C1086 C1087 1.387 . S
C1086 H1090 0.950 . S
C1086 C1095 1.390 . S
C1087 C1086 1.387 . S
C1087 C1089 1.387 . S
H1088 C1095 0.950 . S
C1089 C1087 1.387 . S
C1089 C1091 1.390 . S
C1089 H1093 0.950 . S
H1090 C1086 0.950 . S
C1091 C1089 1.390 . S
C1091 C1092 1.387 . S
C1091 H1094 0.950 . S
C1092 C1091 1.387 . S
C1092 C1095 1.387 . S
H1093 C1089 0.950 . S
H1094 C1091 0.950 . S
C1095 C1086 1.390 . S
C1095 H1088 0.950 . S
C1095 C1092 1.387 . S
C1096 C1097 1.387 . S
C1096 H1100 0.950 . S
C1096 C1105 1.390 1_655 S
C1097 C1096 1.387 . S
C1097 C1099 1.387 . S
H1098 C1105 0.950 . S
C1099 C1097 1.387 . S
C1099 C1101 1.390 1_655 S
C1099 H1103 0.950 . S
H1100 C1096 0.950 . S
C1101 C1099 1.390 1_455 S
C1101 C1102 1.387 . S
C1101 H1104 0.950 . S
C1102 C1101 1.387 . S
C1102 C1105 1.387 . S
H1103 C1099 0.950 . S
H1104 C1101 0.950 . S
C1105 C1096 1.390 1_455 S
C1105 H1098 0.950 . S
C1105 C1102 1.387 . S
C1106 C1107 1.387 . S
C1106 H1110 0.950 . S
C1106 C1115 1.390 1_564 S
C1107 C1106 1.387 . S
C1107 C1109 1.387 . S
H1108 C1115 0.950 . S
C1109 C1107 1.387 . S
C1109 C1111 1.390 1_564 S
C1109 H1113 0.950 . S
H1110 C1106 0.950 . S
C1111 C1109 1.390 1_546 S
C1111 C1112 1.387 . S
C1111 H1114 0.950 . S
C1112 C1111 1.387 . S
C1112 C1115 1.387 . S
H1113 C1109 0.950 . S
H1114 C1111 0.950 . S
C1115 C1106 1.390 1_546 S
C1115 H1108 0.950 . S
C1115 C1112 1.387 . S
C1116 C1117 1.387 . S
C1116 H1120 0.950 . S
C1116 C1125 1.390 1_556 S
C1117 C1116 1.387 . S
C1117 C1119 1.387 . S
H1118 C1125 0.950 . S
C1119 C1117 1.387 . S
C1119 C1121 1.390 1_556 S
C1119 H1123 0.950 . S
H1120 C1116 0.950 . S
C1121 C1119 1.390 1_554 S
C1121 C1122 1.387 . S
C1121 H1124 0.950 . S
C1122 C1121 1.387 . S
C1122 C1125 1.387 . S
H1123 C1119 0.950 . S
H1124 C1121 0.950 . S
C1125 C1116 1.390 1_554 S
C1125 H1118 0.950 . S
C1125 C1122 1.387 . S
C1126 C1127 1.387 . S
C1126 H1130 0.950 . S
C1126 C1135 1.390 . S
C1127 C1126 1.387 . S
C1127 C1129 1.387 . S
H1128 C1135 0.950 . S
C1129 C1127 1.387 . S
C1129 C1131 1.390 . S
C1129 H1133 0.950 . S
H1130 C1126 0.950 . S
C1131 C1129 1.390 . S
C1131 C1132 1.387 . S
C1131 H1134 0.950 . S
C1132 C1131 1.387 . S
C1132 C1135 1.387 . S
H1133 C1129 0.950 . S
H1134 C1131 0.950 . S
C1135 C1126 1.390 . S
C1135 H1128 0.950 . S
C1135 C1132 1.387 . S
C1136 C1137 1.387 . S
C1136 H1140 0.950 . S
C1136 C1145 1.390 . S
C1137 C1136 1.387 . S
C1137 C1139 1.387 . S
H1138 C1145 0.950 . S
C1139 C1137 1.387 . S
C1139 C1141 1.390 . S
C1139 H1143 0.950 . S
H1140 C1136 0.950 . S
C1141 C1139 1.390 . S
C1141 C1142 1.387 . S
C1141 H1144 0.950 . S
C1142 C1141 1.387 . S
C1142 C1145 1.387 . S
H1143 C1139 0.950 . S
H1144 C1141 0.950 . S
C1145 C1136 1.390 . S
C1145 H1138 0.950 . S
C1145 C1142 1.387 . S
C1146 C1147 1.387 . S
C1146 H1150 0.950 . S
C1146 C1155 1.390 1_554 S
C1147 C1146 1.387 . S
C1147 C1149 1.387 . S
H1148 C1155 0.950 . S
C1149 C1147 1.387 . S
C1149 C1151 1.390 1_554 S
C1149 H1153 0.950 . S
H1150 C1146 0.950 . S
C1151 C1149 1.390 1_556 S
C1151 C1152 1.387 . S
C1151 H1154 0.950 . S
C1152 C1151 1.387 . S
C1152 C1155 1.387 . S
H1153 C1149 0.950 . S
H1154 C1151 0.950 . S
C1155 C1146 1.390 1_556 S
C1155 H1148 0.950 . S
C1155 C1152 1.387 . S
C1156 C1157 1.387 . S
C1156 H1160 0.950 . S
C1156 C1165 1.390 . S
C1157 C1156 1.387 . S
C1157 C1159 1.387 . S
H1158 C1165 0.950 . S
C1159 C1157 1.387 . S
C1159 C1161 1.390 . S
C1159 H1163 0.950 . S
H1160 C1156 0.950 . S
C1161 C1159 1.390 . S
C1161 C1162 1.387 . S
C1161 H1164 0.950 . S
C1162 C1161 1.387 . S
C1162 C1165 1.387 . S
H1163 C1159 0.950 . S
H1164 C1161 0.950 . S
C1165 C1156 1.390 . S
C1165 H1158 0.950 . S
C1165 C1162 1.387 . S
C1166 C1167 1.387 . S
C1166 H1170 0.950 . S
C1166 C1175 1.390 . S
C1167 C1166 1.387 . S
C1167 C1169 1.387 . S
H1168 C1175 0.950 . S
C1169 C1167 1.387 . S
C1169 C1171 1.390 . S
C1169 H1173 0.950 . S
H1170 C1166 0.950 . S
C1171 C1169 1.390 . S
C1171 C1172 1.387 . S
C1171 H1174 0.950 . S
C1172 C1171 1.387 . S
C1172 C1175 1.387 . S
H1173 C1169 0.950 . S
H1174 C1171 0.950 . S
C1175 C1166 1.390 . S
C1175 H1168 0.950 . S
C1175 C1172 1.387 . S
C1176 C1177 1.387 . S
C1176 H1180 0.950 . S
C1176 C1185 1.390 . S
C1177 C1176 1.387 . S
C1177 C1179 1.387 . S
H1178 C1185 0.950 . S
C1179 C1177 1.387 . S
C1179 C1181 1.390 . S
C1179 H1183 0.950 . S
H1180 C1176 0.950 . S
C1181 C1179 1.390 . S
C1181 C1182 1.387 . S
C1181 H1184 0.950 . S
C1182 C1181 1.387 . S
C1182 C1185 1.387 . S
H1183 C1179 0.950 . S
H1184 C1181 0.950 . S
C1185 C1176 1.390 . S
C1185 H1178 0.950 . S
C1185 C1182 1.387 . S
C1186 C1187 1.387 . S
C1186 H1190 0.950 . S
C1186 C1195 1.390 . S
C1187 C1186 1.387 . S
C1187 C1189 1.387 . S
H1188 C1195 0.950 . S
C1189 C1187 1.387 . S
C1189 C1191 1.390 . S
C1189 H1193 0.950 . S
H1190 C1186 0.950 . S
C1191 C1189 1.390 . S
C1191 C1192 1.387 . S
C1191 H1194 0.950 . S
C1192 C1191 1.387 . S
C1192 C1195 1.387 . S
H1193 C1189 0.950 . S
H1194 C1191 0.950 . S
C1195 C1186 1.390 . S
C1195 H1188 0.950 . S
C1195 C1192 1.387 . S
C1196 C1197 1.387 . S
C1196 H1200 0.950 . S
C1196 C1205 1.390 . S
C1197 C1196 1.387 . S
C1197 C1199 1.387 . S
H1198 C1205 0.950 . S
C1199 C1197 1.387 . S
C1199 C1201 1.390 . S
C1199 H1203 0.950 . S
H1200 C1196 0.950 . S
C1201 C1199 1.390 . S
C1201 C1202 1.387 . S
C1201 H1204 0.950 . S
C1202 C1201 1.387 . S
C1202 C1205 1.387 . S
H1203 C1199 0.950 . S
H1204 C1201 0.950 . S
C1205 C1196 1.390 . S
C1205 H1198 0.950 . S
C1205 C1202 1.387 . S
C1206 C1207 1.387 . S
C1206 H1210 0.950 . S
C1206 C1215 1.390 . S
C1207 C1206 1.387 . S
C1207 C1209 1.387 . S
H1208 C1215 0.950 . S
C1209 C1207 1.387 . S
C1209 C1211 1.390 . S
C1209 H1213 0.950 . S
H1210 C1206 0.950 . S
C1211 C1209 1.390 . S
C1211 C1212 1.387 . S
C1211 H1214 0.950 . S
C1212 C1211 1.387 . S
C1212 C1215 1.387 . S
H1213 C1209 0.950 . S
H1214 C1211 0.950 . S
C1215 C1206 1.390 . S
C1215 H1208 0.950 . S
C1215 C1212 1.387 . S
C1216 C1217 1.387 . S
C1216 H1220 0.950 . S
C1216 C1225 1.390 . S
C1217 C1216 1.387 . S
C1217 C1219 1.387 . S
H1218 C1225 0.950 . S
C1219 C1217 1.387 . S
C1219 C1221 1.390 . S
C1219 H1223 0.950 . S
H1220 C1216 0.950 . S
C1221 C1219 1.390 . S
C1221 C1222 1.387 . S
C1221 H1224 0.950 . S
C1222 C1221 1.387 . S
C1222 C1225 1.387 . S
H1223 C1219 0.950 . S
H1224 C1221 0.950 . S
C1225 C1216 1.390 . S
C1225 H1218 0.950 . S
C1225 C1222 1.387 . S
C1226 C1227 1.387 . S
C1226 H1230 0.950 . S
C1226 C1235 1.390 . S
C1227 C1226 1.387 . S
C1227 C1229 1.387 . S
H1228 C1235 0.950 . S
C1229 C1227 1.387 . S
C1229 C1231 1.390 . S
C1229 H1233 0.950 . S
H1230 C1226 0.950 . S
C1231 C1229 1.390 . S
C1231 C1232 1.387 . S
C1231 H1234 0.950 . S
C1232 C1231 1.387 . S
C1232 C1235 1.387 . S
H1233 C1229 0.950 . S
H1234 C1231 0.950 . S
C1235 C1226 1.390 . S
C1235 H1228 0.950 . S
C1235 C1232 1.387 . S
C1236 C1237 1.387 . S
C1236 H1240 0.950 . S
C1236 C1245 1.390 . S
C1237 C1236 1.387 . S
C1237 C1239 1.387 . S
H1238 C1245 0.950 . S
C1239 C1237 1.387 . S
C1239 C1241 1.390 . S
C1239 H1243 0.950 . S
H1240 C1236 0.950 . S
C1241 C1239 1.390 . S
C1241 C1242 1.387 . S
C1241 H1244 0.950 . S
C1242 C1241 1.387 . S
C1242 C1245 1.387 . S
H1243 C1239 0.950 . S
H1244 C1241 0.950 . S
C1245 C1236 1.390 . S
C1245 H1238 0.950 . S
C1245 C1242 1.387 . S
C1246 C1247 1.387 . S
C1246 H1250 0.950 . S
C1246 C1255 1.390 . S
C1247 C1246 1.387 . S
C1247 C1249 1.387 . S
H1248 C1255 0.950 . S
C1249 C1247 1.387 . S
C1249 C1251 1.390 . S
C1249 H1253 0.950 . S
H1250 C1246 0.950 . S
C1251 C1249 1.390 . S
C1251 C1252 1.387 . S
C1251 H1254 0.950 . S
C1252 C1251 1.387 . S
C1252 C1255 1.387 . S
H1253 C1249 0.950 . S
H1254 C1251 0.950 . S
C1255 C1246 1.390 . S
C1255 H1248 0.950 . S
C1255 C1252 1.387 . S
C1256 C1257 1.387 . S
C1256 H1260 0.950 . S
C1256 C1265 1.390 1_556 S
C1257 C1256 1.387 . S
C1257 C1259 1.387 . S
H1258 C1265 0.950 . S
C1259 C1257 1.387 . S
C1259 C1261 1.390 1_556 S
C1259 H1263 0.950 . S
H1260 C1256 0.950 . S
C1261 C1259 1.390 1_554 S
C1261 C1262 1.387 . S
C1261 H1264 0.950 . S
C1262 C1261 1.387 . S
C1262 C1265 1.387 . S
H1263 C1259 0.950 . S
H1264 C1261 0.950 . S
C1265 C1256 1.390 1_554 S
C1265 H1258 0.950 . S
C1265 C1262 1.387 . S
C1266 C1267 1.387 . S
C1266 H1270 0.950 . S
C1266 C1275 1.390 . S
C1267 C1266 1.387 . S
C1267 C1269 1.387 . S
H1268 C1275 0.950 . S
C1269 C1267 1.387 . S
C1269 C1271 1.390 . S
C1269 H1273 0.950 . S
H1270 C1266 0.950 . S
C1271 C1269 1.390 . S
C1271 C1272 1.387 . S
C1271 H1274 0.950 . S
C1272 C1271 1.387 . S
C1272 C1275 1.387 . S
H1273 C1269 0.950 . S
H1274 C1271 0.950 . S
C1275 C1266 1.390 . S
C1275 H1268 0.950 . S
C1275 C1272 1.387 . S
C1276 C1277 1.387 . S
C1276 H1280 0.950 . S
C1276 C1285 1.390 . S
C1277 C1276 1.387 . S
C1277 C1279 1.387 . S
H1278 C1285 0.950 . S
C1279 C1277 1.387 . S
C1279 C1281 1.390 . S
C1279 H1283 0.950 . S
H1280 C1276 0.950 . S
C1281 C1279 1.390 . S
C1281 C1282 1.387 . S
C1281 H1284 0.950 . S
C1282 C1281 1.387 . S
C1282 C1285 1.387 . S
H1283 C1279 0.950 . S
H1284 C1281 0.950 . S
C1285 C1276 1.390 . S
C1285 H1278 0.950 . S
C1285 C1282 1.387 . S
C1286 C1287 1.387 . S
C1286 H1290 0.950 . S
C1286 C1295 1.390 1_554 S
C1287 C1286 1.387 . S
C1287 C1289 1.387 . S
H1288 C1295 0.950 . S
C1289 C1287 1.387 . S
C1289 C1291 1.390 1_554 S
C1289 H1293 0.950 . S
H1290 C1286 0.950 . S
C1291 C1289 1.390 1_556 S
C1291 C1292 1.387 . S
C1291 H1294 0.950 . S
C1292 C1291 1.387 . S
C1292 C1295 1.387 . S
H1293 C1289 0.950 . S
H1294 C1291 0.950 . S
C1295 C1286 1.390 1_556 S
C1295 H1288 0.950 . S
C1295 C1292 1.387 . S
C1057 C29 1.498 . S
C1062 C849 1.497 . S
C1067 C117 1.498 . S
C1072 C937 1.497 . S
C1077 C196 1.497 . S
C1082 C1017 1.497 . S
C1087 C293 1.499 . S
C1092 C585 1.497 . S
C1097 C665 1.498 . S
C1102 C381 1.497 . S
C1107 C761 1.499 . S
C1112 C469 1.499 . S
C1117 C909 1.899 . S
C1122 C57 1.899 . S
C1127 C145 1.898 . S
C1132 C988 1.899 . S
C1137 C225 1.899 . S
C1142 C557 1.899 . S
C1147 C321 1.899 . S
C1152 C636 1.899 . S
C1157 C409 1.899 . S
C1162 C733 1.899 . S
C1167 C497 1.898 . S
C1172 C821 1.899 . S
C1177 C929 0.463 . S
C1182 C20 0.463 . S
C1187 C108 0.470 . S
C1192 C1025 0.471 . S
C1197 C205 0.468 . S
C1202 C577 0.470 . S
C1207 C284 0.463 . S
C1212 C673 0.463 . S
C1217 C372 0.469 . S
C1222 C753 0.471 . S
C1227 C460 0.469 . S
C1232 C841 0.466 . S
C1237 C49 1.684 . S
C1242 C548 1.684 . S
C1247 C645 1.684 . S
C1252 C137 1.684 . S
C1257 C233 1.683 . S
C1262 C724 1.683 . S
C1267 C313 1.683 . S
C1272 C812 1.684 . S
C1277 C401 1.683 . S
C1282 C900 1.683 . S
C1287 C997 1.683 . S
C1292 C489 1.683 . S
