# Generated by pormake.
# Topology atn, (4)-cn, num edge types: 1
# Building blocks:
#     Node 0, Type 0, BuildingBlock: AZAVOO_clean_sbu_0, # of connection points: 4
#     Node 1, Type 0, BuildingBlock: AZAVOO_clean_sbu_0, # of connection points: 4
#     Node 2, Type 0, BuildingBlock: AZAVOO_clean_sbu_0, # of connection points: 4
#     Node 3, Type 0, BuildingBlock: AZAVOO_clean_sbu_0, # of connection points: 4
#     Node 4, Type 0, BuildingBlock: AZAVOO_clean_sbu_0, # of connection points: 4
#     Node 5, Type 0, BuildingBlock: AZAVOO_clean_sbu_0, # of connection points: 4
#     Node 6, Type 0, BuildingBlock: AZAVOO_clean_sbu_0, # of connection points: 4
#     Node 7, Type 0, BuildingBlock: AZAVOO_clean_sbu_0, # of connection points: 4
#     Node 8, Type 0, BuildingBlock: AZAVOO_clean_sbu_0, # of connection points: 4
#     Node 9, Type 0, BuildingBlock: AZAVOO_clean_sbu_0, # of connection points: 4
#     Node 10, Type 0, BuildingBlock: AZAVOO_clean_sbu_0, # of connection points: 4
#     Node 11, Type 0, BuildingBlock: AZAVOO_clean_sbu_0, # of connection points: 4
#     Node 12, Type 0, BuildingBlock: AZAVOO_clean_sbu_0, # of connection points: 4
#     Node 13, Type 0, BuildingBlock: AZAVOO_clean_sbu_0, # of connection points: 4
#     Node 14, Type 0, BuildingBlock: AZAVOO_clean_sbu_0, # of connection points: 4
#     Node 15, Type 0, BuildingBlock: AZAVOO_clean_sbu_0, # of connection points: 4
#     Edge 16, Type (0, 0), BuildingBlock: XUDNAN_clean_linker_2, # of connection points: 2
#     Edge 17, Type (0, 0), BuildingBlock: XUDNAN_clean_linker_2, # of connection points: 2
#     Edge 18, Type (0, 0), BuildingBlock: XUDNAN_clean_linker_2, # of connection points: 2
#     Edge 19, Type (0, 0), BuildingBlock: XUDNAN_clean_linker_2, # of connection points: 2
#     Edge 20, Type (0, 0), BuildingBlock: XUDNAN_clean_linker_2, # of connection points: 2
#     Edge 21, Type (0, 0), BuildingBlock: XUDNAN_clean_linker_2, # of connection points: 2
#     Edge 22, Type (0, 0), BuildingBlock: XUDNAN_clean_linker_2, # of connection points: 2
#     Edge 23, Type (0, 0), BuildingBlock: XUDNAN_clean_linker_2, # of connection points: 2
#     Edge 24, Type (0, 0), BuildingBlock: XUDNAN_clean_linker_2, # of connection points: 2
#     Edge 25, Type (0, 0), BuildingBlock: XUDNAN_clean_linker_2, # of connection points: 2
#     Edge 26, Type (0, 0), BuildingBlock: XUDNAN_clean_linker_2, # of connection points: 2
#     Edge 27, Type (0, 0), BuildingBlock: XUDNAN_clean_linker_2, # of connection points: 2
#     Edge 28, Type (0, 0), BuildingBlock: XUDNAN_clean_linker_2, # of connection points: 2
#     Edge 29, Type (0, 0), BuildingBlock: XUDNAN_clean_linker_2, # of connection points: 2
#     Edge 30, Type (0, 0), BuildingBlock: XUDNAN_clean_linker_2, # of connection points: 2
#     Edge 31, Type (0, 0), BuildingBlock: XUDNAN_clean_linker_2, # of connection points: 2
#     Edge 32, Type (0, 0), BuildingBlock: XUDNAN_clean_linker_2, # of connection points: 2
#     Edge 33, Type (0, 0), BuildingBlock: XUDNAN_clean_linker_2, # of connection points: 2
#     Edge 34, Type (0, 0), BuildingBlock: XUDNAN_clean_linker_2, # of connection points: 2
#     Edge 35, Type (0, 0), BuildingBlock: XUDNAN_clean_linker_2, # of connection points: 2
#     Edge 36, Type (0, 0), BuildingBlock: XUDNAN_clean_linker_2, # of connection points: 2
#     Edge 37, Type (0, 0), BuildingBlock: XUDNAN_clean_linker_2, # of connection points: 2
#     Edge 38, Type (0, 0), BuildingBlock: XUDNAN_clean_linker_2, # of connection points: 2
#     Edge 39, Type (0, 0), BuildingBlock: XUDNAN_clean_linker_2, # of connection points: 2
#     Edge 40, Type (0, 0), BuildingBlock: XUDNAN_clean_linker_2, # of connection points: 2
#     Edge 41, Type (0, 0), BuildingBlock: XUDNAN_clean_linker_2, # of connection points: 2
#     Edge 42, Type (0, 0), BuildingBlock: XUDNAN_clean_linker_2, # of connection points: 2
#     Edge 43, Type (0, 0), BuildingBlock: XUDNAN_clean_linker_2, # of connection points: 2
#     Edge 44, Type (0, 0), BuildingBlock: XUDNAN_clean_linker_2, # of connection points: 2
#     Edge 45, Type (0, 0), BuildingBlock: XUDNAN_clean_linker_2, # of connection points: 2
#     Edge 46, Type (0, 0), BuildingBlock: XUDNAN_clean_linker_2, # of connection points: 2
#     Edge 47, Type (0, 0), BuildingBlock: XUDNAN_clean_linker_2, # of connection points: 2
# Relax obj value: 0.125
# Max RMSD: 0.132
# Mean RMSD: 0.132
data_MOF--net-atn--node1-AZAVOO_clean_sbu_0--edge1-XUDNAN_clean_linker_2
_symmetry_space_group_name_H-M    P1
_symmetry_Int_Tables_number       1
_symmetry_cell_setting            triclinic
loop_
_symmetry_equiv_pos_as_xyz
'x, y, z'
_cell_length_a     60.616165
_cell_length_b     60.629295
_cell_length_c     26.310236
_cell_angle_alpha  90.059214
_cell_angle_beta   89.971495
_cell_angle_gamma 89.968233
loop_
_atom_site_label
_atom_site_type_symbol
_atom_site_fract_x
_atom_site_fract_y
_atom_site_fract_z
_atom_type_partial_charge
Mg0 Mg 0.18998 0.37621 0.04815 0.0
O1 O 0.22565 0.36453 0.03753 0.0
O2 O 0.23552 0.37011 0.95642 0.0
Mg3 Mg 0.20705 0.38781 0.91683 0.0
C4 C 0.23958 0.36314 0.00121 0.0
C5 C 0.17388 0.37158 0.15783 0.0
O6 O 0.15653 0.37975 0.13458 0.0
O7 O 0.20228 0.41166 0.05192 0.0
O8 O 0.21051 0.41767 0.97003 0.0
O9 O 0.178 0.34374 0.02124 0.0
O10 O 0.18445 0.37218 0.97076 0.0
C11 C 0.20878 0.42428 0.016 0.0
C12 C 0.17958 0.35162 0.97572 0.0
O13 O 0.19194 0.37012 0.13345 0.0
Mg14 Mg 0.61865 0.17783 0.03151 0.0
O15 O 0.63787 0.21 0.03484 0.0
O16 O 0.6381 0.22595 0.95833 0.0
Mg17 Mg 0.61836 0.20331 0.90534 0.0
C18 C 0.64353 0.22565 0.00522 0.0
C19 C 0.62742 0.15996 0.13882 0.0
O20 O 0.6335 0.14324 0.11024 0.0
O21 O 0.58691 0.19767 0.02944 0.0
O22 O 0.58647 0.2107 0.94972 0.0
O23 O 0.64933 0.16013 0.01033 0.0
O24 O 0.62629 0.17501 0.95482 0.0
C25 C 0.57764 0.20831 0.99346 0.0
C26 C 0.6449 0.16546 0.96382 0.0
O27 O 0.61909 0.17687 0.11773 0.0
Mg28 Mg 0.78359 0.6016 0.97865 0.0
O29 O 0.75795 0.62738 0.95464 0.0
O30 O 0.74423 0.61769 0.87898 0.0
Mg31 Mg 0.75987 0.58511 0.85528 0.0
C32 C 0.74525 0.63086 0.91675 0.0
C33 C 0.8044 0.61377 0.08092 0.0
O34 O 0.81834 0.59951 0.06121 0.0
O35 O 0.75577 0.57785 0.00117 0.0
O36 O 0.74447 0.56785 0.92346 0.0
O37 O 0.8094 0.61908 0.93318 0.0
O38 O 0.78833 0.59239 0.90325 0.0
C39 C 0.74353 0.56624 0.97182 0.0
C40 C 0.80308 0.60712 0.8951 0.0
O41 O 0.78658 0.61781 0.05713 0.0
Mg42 Mg 0.38213 0.78326 0.93373 0.0
O43 O 0.36293 0.75246 0.95618 0.0
O44 O 0.37023 0.72503 0.90195 0.0
Mg45 Mg 0.3967 0.73774 0.84752 0.0
C46 C 0.36 0.73281 0.94033 0.0
C47 C 0.35069 0.80259 0.01485 0.0
O48 O 0.33695 0.79613 0.97922 0.0
O49 O 0.41364 0.76939 0.96751 0.0
O50 O 0.42182 0.74236 0.91237 0.0
O51 O 0.35596 0.79222 0.87841 0.0
O52 O 0.38496 0.77174 0.85925 0.0
C53 C 0.42614 0.75381 0.95196 0.0
C54 C 0.36664 0.78054 0.84531 0.0
O55 O 0.37128 0.79951 0.00834 0.0
Mg56 Mg 0.1839 0.62827 0.98649 0.0
O57 O 0.21836 0.64358 0.00051 0.0
O58 O 0.22355 0.64253 0.08491 0.0
Mg59 Mg 0.19456 0.62599 0.12408 0.0
C60 C 0.22993 0.64767 0.04017 0.0
C61 C 0.19147 0.64586 0.87742 0.0
O62 O 0.19696 0.66314 0.90479 0.0
O63 O 0.19847 0.59351 0.99825 0.0
O64 O 0.20303 0.5943 0.08247 0.0
O65 O 0.16807 0.66128 0.99842 0.0
O66 O 0.17508 0.63746 0.05979 0.0
C67 C 0.20428 0.5843 0.03992 0.0
C68 C 0.16875 0.65687 0.04642 0.0
O69 O 0.18775 0.62767 0.89997 0.0
Mg70 Mg 0.37469 0.2088 0.99669 0.0
O71 O 0.35948 0.24371 0.00623 0.0
O72 O 0.36589 0.25259 0.08755 0.0
Mg73 Mg 0.38382 0.22533 0.12919 0.0
C74 C 0.35807 0.25714 0.04376 0.0
C75 C 0.38225 0.19253 0.89132 0.0
O76 O 0.39503 0.1809 0.92148 0.0
O77 O 0.40971 0.22325 0.99592 0.0
O78 O 0.41363 0.23109 0.07842 0.0
O79 O 0.34286 0.19345 0.02078 0.0
O80 O 0.36962 0.20272 0.07345 0.0
C81 C 0.42123 0.23033 0.03323 0.0
C82 C 0.34991 0.19534 0.06698 0.0
O83 O 0.3717 0.2087 0.91029 0.0
Mg84 Mg 0.77481 0.38487 0.02387 0.0
O85 O 0.74989 0.35765 0.04391 0.0
O86 O 0.74181 0.36157 0.12641 0.0
Mg87 Mg 0.7611 0.39034 0.15949 0.0
C88 C 0.73953 0.35165 0.08392 0.0
C89 C 0.78748 0.38493 0.9122 0.0
O90 O 0.80106 0.39915 0.9332 0.0
O91 O 0.7472 0.41078 0.02508 0.0
O92 O 0.74227 0.41433 0.10892 0.0
O93 O 0.80298 0.36336 0.04596 0.0
O94 O 0.78553 0.38557 0.09911 0.0
C95 C 0.73801 0.42011 0.06334 0.0
C96 C 0.80029 0.37063 0.09176 0.0
O97 O 0.772 0.37698 0.93921 0.0
Mg98 Mg 0.62397 0.80562 0.97264 0.0
O99 O 0.64314 0.77324 0.96194 0.0
O100 O 0.64447 0.75619 0.03724 0.0
Mg101 Mg 0.62456 0.77615 0.09434 0.0
C102 C 0.64944 0.7573 0.99017 0.0
C103 C 0.62058 0.83132 0.8745 0.0
O104 O 0.61529 0.84557 0.91016 0.0
O105 O 0.59139 0.78699 0.97323 0.0
O106 O 0.593 0.76957 0.04836 0.0
O107 O 0.65481 0.8223 0.99663 0.0
O108 O 0.63168 0.80578 0.04938 0.0
C109 C 0.58317 0.77417 0.00677 0.0
C110 C 0.65013 0.81583 0.04226 0.0
O111 O 0.62392 0.81137 0.88713 0.0
Mg112 Mg 0.70954 0.88483 0.44682 0.0
O113 O 0.73641 0.86057 0.4723 0.0
O114 O 0.7633 0.86138 0.41415 0.0
Mg115 Mg 0.75465 0.88689 0.35395 0.0
C116 C 0.75489 0.85379 0.455 0.0
C117 C 0.6883 0.86397 0.54455 0.0
O118 O 0.69435 0.84574 0.52137 0.0
O119 O 0.73017 0.91408 0.47098 0.0
O120 O 0.75689 0.91524 0.41217 0.0
O121 O 0.69392 0.85863 0.40046 0.0
O122 O 0.71954 0.88142 0.37173 0.0
C123 C 0.74732 0.92294 0.45164 0.0
C124 C 0.70684 0.86475 0.36385 0.0
O125 O 0.6927 0.88248 0.52422 0.0
Mg126 Mg 0.10908 0.71753 0.45549 0.0
O127 O 0.12856 0.74892 0.47126 0.0
O128 O 0.12098 0.77398 0.41139 0.0
Mg129 Mg 0.0953 0.7589 0.35776 0.0
C130 C 0.13124 0.7679 0.45136 0.0
C131 C 0.13678 0.70638 0.55582 0.0
O132 O 0.15062 0.72087 0.53692 0.0
O133 O 0.07794 0.73401 0.48597 0.0
O134 O 0.06931 0.75629 0.42083 0.0
O135 O 0.13524 0.70547 0.40235 0.0
O136 O 0.10697 0.72602 0.37906 0.0
C137 C 0.065 0.74767 0.46401 0.0
C138 C 0.12492 0.71611 0.36692 0.0
O139 O 0.1187 0.70252 0.5328 0.0
Mg140 Mg 0.30344 0.11699 0.47027 0.0
O141 O 0.26954 0.12985 0.49387 0.0
O142 O 0.2455 0.12158 0.43202 0.0
Mg143 Mg 0.26399 0.10272 0.36961 0.0
C144 C 0.25013 0.13017 0.47505 0.0
C145 C 0.31531 0.14125 0.5726 0.0
O146 O 0.30297 0.1567 0.55219 0.0
O147 O 0.29229 0.0824 0.48978 0.0
O148 O 0.27063 0.07358 0.4238 0.0
O149 O 0.31103 0.14795 0.42899 0.0
O150 O 0.29432 0.11922 0.39438 0.0
C151 C 0.2804 0.06864 0.46531 0.0
C152 C 0.3014 0.13914 0.39003 0.0
O153 O 0.31762 0.12294 0.5495 0.0
Mg154 Mg 0.87945 0.31574 0.50124 0.0
O155 O 0.86026 0.2843 0.48261 0.0
O156 O 0.8718 0.27087 0.40796 0.0
Mg157 Mg 0.89984 0.29297 0.38011 0.0
C158 C 0.85933 0.27002 0.44699 0.0
C159 C 0.86201 0.33536 0.60131 0.0
O160 O 0.87131 0.35241 0.57919 0.0
O161 O 0.90875 0.29431 0.52547 0.0
O162 O 0.92064 0.28322 0.44885 0.0
O163 O 0.85617 0.33574 0.4541 0.0
O164 O 0.88664 0.3204 0.42468 0.0
C165 C 0.92252 0.284 0.49718 0.0
C166 C 0.86889 0.33127 0.4159 0.0
O167 O 0.86348 0.31656 0.58004 0.0
Mg168 Mg 0.71922 0.11775 0.55778 0.0
O169 O 0.74729 0.14098 0.53598 0.0
O170 O 0.7742 0.13768 0.59347 0.0
Mg171 Mg 0.76377 0.11133 0.65076 0.0
C172 C 0.76614 0.1464 0.55346 0.0
C173 C 0.6958 0.14362 0.47394 0.0
O174 O 0.69907 0.15852 0.5094 0.0
O175 O 0.73842 0.08831 0.52956 0.0
O176 O 0.76433 0.08394 0.58948 0.0
O177 O 0.70453 0.143 0.60787 0.0
O178 O 0.72881 0.11827 0.63398 0.0
C179 C 0.75466 0.07778 0.54868 0.0
C180 C 0.7165 0.13503 0.64418 0.0
O181 O 0.70301 0.12415 0.48095 0.0
Mg182 Mg 0.87447 0.68808 0.50287 0.0
O183 O 0.85072 0.71648 0.52139 0.0
O184 O 0.85335 0.72435 0.60431 0.0
Mg185 Mg 0.87943 0.7018 0.63879 0.0
C186 C 0.84499 0.72765 0.56047 0.0
C187 C 0.87007 0.67411 0.39258 0.0
O188 O 0.87951 0.65724 0.41516 0.0
O189 O 0.90357 0.71245 0.50503 0.0
O190 O 0.90559 0.71777 0.58902 0.0
O191 O 0.84927 0.66298 0.52447 0.0
O192 O 0.87294 0.67774 0.57844 0.0
C193 C 0.91281 0.72106 0.5441 0.0
C194 C 0.85633 0.66499 0.5706 0.0
O195 O 0.86729 0.69179 0.4179 0.0
Mg196 Mg 0.31132 0.86449 0.46512 0.0
O197 O 0.2763 0.8524 0.48603 0.0
O198 O 0.2739 0.85466 0.57093 0.0
Mg199 Mg 0.30589 0.86806 0.604 0.0
C200 C 0.26562 0.84986 0.52767 0.0
C201 C 0.3217 0.86206 0.35516 0.0
O202 O 0.34042 0.86118 0.38026 0.0
O203 O 0.30021 0.90029 0.47869 0.0
O204 O 0.29912 0.90049 0.56358 0.0
O205 O 0.32445 0.83017 0.47466 0.0
O206 O 0.32189 0.8548 0.53642 0.0
C207 C 0.29713 0.91029 0.52095 0.0
C208 C 0.32585 0.83484 0.52248 0.0
O209 O 0.304 0.86514 0.3802 0.0
Mg210 Mg 0.11884 0.27887 0.57541 0.0
O211 O 0.13545 0.24479 0.57762 0.0
O212 O 0.12869 0.23025 0.65426 0.0
Mg213 Mg 0.10771 0.25411 0.70061 0.0
C214 C 0.1375 0.22929 0.61022 0.0
C215 C 0.12043 0.3002 0.46909 0.0
O216 O 0.10849 0.31457 0.49448 0.0
O217 O 0.08482 0.26299 0.56582 0.0
O218 O 0.07903 0.25079 0.64493 0.0
O219 O 0.14893 0.29423 0.60912 0.0
O220 O 0.12117 0.28051 0.65371 0.0
C221 C 0.07249 0.25395 0.59938 0.0
C222 C 0.14062 0.28889 0.65266 0.0
O223 O 0.12576 0.28219 0.49058 0.0
H224 H 0.2015 0.55303 0.9636 0.0
H225 H 0.22288 0.56256 0.11971 0.0
H226 H 0.22972 0.52285 0.12782 0.0
H227 H 0.17248 0.50506 0.98331 0.0
H228 H 0.1803 0.49151 0.92501 0.0
H229 H 0.17994 0.52113 0.92829 0.0
H230 H 0.22084 0.52249 0.8997 0.0
H231 H 0.22127 0.4928 0.89585 0.0
H232 H 0.24127 0.50704 0.9345 0.0
H233 H 0.22857 0.48199 0.12433 0.0
H234 H 0.22282 0.4424 0.1057 0.0
H235 H 0.20426 0.45899 0.9511 0.0
C236 C 0.2082 0.54684 -0.00103 0.0
C237 C 0.2115 0.56097 0.041 0.0
C238 C 0.22004 0.55213 0.08692 0.0
C239 C 0.22409 0.52955 0.09199 0.0
C240 C 0.21987 0.51596 0.0506 0.0
C241 C 0.21251 0.52425 0.00464 0.0
C242 C 0.20801 0.50578 0.96727 0.0
C243 C 0.18375 0.50588 0.94999 0.0
C244 C 0.22379 0.50711 0.92163 0.0
C245 C 0.21309 0.48592 0.0002 0.0
C246 C 0.22 0.49217 0.04807 0.0
C247 C 0.2237 0.47681 0.0866 0.0
C248 C 0.22026 0.45442 0.07584 0.0
C249 C 0.21339 0.44768 0.02688 0.0
C250 C 0.21003 0.46366 0.98856 0.0
H251 H 0.44874 0.21865 0.9542 0.0
H252 H 0.44717 0.25368 0.09821 0.0
H253 H 0.4876 0.25586 0.09791 0.0
H254 H 0.4919 0.18553 0.9807 0.0
H255 H 0.50497 0.18605 0.91916 0.0
H256 H 0.47581 0.19092 0.92442 0.0
H257 H 0.48003 0.22843 0.87843 0.0
H258 H 0.50925 0.22352 0.87217 0.0
H259 H 0.49948 0.24843 0.90214 0.0
H260 H 0.52723 0.24704 0.0926 0.0
H261 H 0.56453 0.23217 0.07554 0.0
H262 H 0.54157 0.20532 0.93232 0.0
C263 C 0.45688 0.22755 0.98456 0.0
C264 C 0.44479 0.23588 0.0263 0.0
C265 C 0.45607 0.24704 0.06591 0.0
C266 C 0.47907 0.24845 0.06607 0.0
C267 C 0.49059 0.239 0.02588 0.0
C268 C 0.47995 0.22926 0.98514 0.0
C269 C 0.49639 0.21872 0.9491 0.0
C270 C 0.492 0.19384 0.94304 0.0
C271 C 0.49628 0.23048 0.89739 0.0
C272 C 0.51771 0.22299 0.97754 0.0
C273 C 0.51397 0.23482 0.02163 0.0
C274 C 0.53056 0.23842 0.05739 0.0
C275 C 0.55158 0.22979 0.04769 0.0
C276 C 0.5558 0.21801 0.00238 0.0
C277 C 0.53876 0.21483 0.96659 0.0
H278 H 0.72816 0.44114 0.97388 0.0
H279 H 0.72016 0.44639 0.13729 0.0
H280 H 0.71071 0.48548 0.1285 0.0
H281 H 0.75595 0.48499 0.95554 0.0
H282 H 0.74384 0.49459 0.89702 0.0
H283 H 0.74232 0.46599 0.91312 0.0
H284 H 0.69974 0.46697 0.90574 0.0
H285 H 0.7011 0.49576 0.88879 0.0
H286 H 0.6842 0.48706 0.94145 0.0
H287 H 0.71586 0.52465 0.10657 0.0
H288 H 0.72964 0.55968 0.07057 0.0
H289 H 0.73027 0.52987 0.92071 0.0
C290 C 0.72328 0.45024 0.00747 0.0
C291 C 0.72529 0.44075 0.05617 0.0
C292 C 0.71896 0.45325 0.09941 0.0
C293 C 0.71343 0.47556 0.09485 0.0
C294 C 0.71353 0.485 0.04668 0.0
C295 C 0.71744 0.47253 0.00341 0.0
C296 C 0.71975 0.48711 0.95709 0.0
C297 C 0.74177 0.48292 0.92917 0.0
C298 C 0.70001 0.48405 0.92116 0.0
C299 C 0.71917 0.50962 0.98203 0.0
C300 C 0.71506 0.50816 0.03358 0.0
C301 C 0.71807 0.52622 0.06592 0.0
C302 C 0.72605 0.54604 0.04529 0.0
C303 C 0.73074 0.5476 0.9928 0.0
C304 C 0.72623 0.52943 0.96078 0.0
H305 H 0.54681 0.79896 0.98994 0.0
H306 H 0.56874 0.73167 0.01235 0.0
H307 H 0.52994 0.71871 0.00751 0.0
H308 H 0.49815 0.79386 0.06899 0.0
H309 H 0.48175 0.8119 0.02981 0.0
H310 H 0.5112 0.81562 0.03332 0.0
H311 H 0.51421 0.81229 0.93526 0.0
H312 H 0.48477 0.80898 0.93145 0.0
H313 H 0.5027 0.78848 0.90387 0.0
H314 H 0.48892 0.71329 0.99294 0.0
H315 H 0.44894 0.71603 0.97378 0.0
H316 H 0.45396 0.7873 0.9727 0.0
C317 C 0.54337 0.78148 0.99317 0.0
C318 C 0.56054 0.76615 0.00032 0.0
C319 C 0.55563 0.7435 0.00607 0.0
C320 C 0.53372 0.73607 0.00366 0.0
C321 C 0.51704 0.75166 0.9971 0.0
C322 C 0.52163 0.77392 0.99254 0.0
C323 C 0.50078 0.78739 0.98715 0.0
C324 C 0.4978 0.80312 0.03253 0.0
C325 C 0.50061 0.80002 0.93642 0.0
C326 C 0.48374 0.76921 0.98785 0.0
C327 C 0.49339 0.74868 0.99336 0.0
C328 C 0.4811 0.72929 0.98989 0.0
C329 C 0.45846 0.73096 0.97925 0.0
C330 C 0.44841 0.75186 0.97344 0.0
C331 C 0.46112 0.77116 0.97908 0.0
H332 H 0.72493 0.04828 0.5146 0.0
H333 H 0.79489 0.05693 0.54207 0.0
H334 H 0.80136 0.01771 0.51881 0.0
H335 H 0.72169 0.99659 0.57332 0.0
H336 H 0.70113 0.98578 0.53055 0.0
H337 H 0.70255 0.01498 0.54243 0.0
H338 H 0.70662 0.02259 0.44589 0.0
H339 H 0.70478 0.99343 0.43359 0.0
H340 H 0.72812 0.00888 0.41052 0.0
H341 H 0.79948 0.97705 0.49153 0.0
H342 H 0.78919 0.93859 0.4687 0.0
H343 H 0.72011 0.95694 0.47145 0.0
C344 C 0.74171 0.04211 0.51429 0.0
C345 C 0.75952 0.05564 0.52873 0.0
C346 C 0.78112 0.04679 0.53014 0.0
C347 C 0.7849 0.02459 0.51716 0.0
C348 C 0.7668 0.01152 0.50418 0.0
C349 C 0.74562 0.02 0.50316 0.0
C350 C 0.72868 0.00236 0.49256 0.0
C351 C 0.71257 -0.00022 0.53739 0.0
C352 C 0.71633 0.00709 0.44267 0.0
C353 C 0.74357 0.98254 0.48758 0.0
C354 C 0.76554 0.98809 0.49346 0.0
C355 C 0.78231 0.97249 0.48757 0.0
C356 C 0.77636 0.95075 0.47485 0.0
C357 C 0.75389 0.94488 0.46977 0.0
C358 C 0.73739 0.96093 0.47673 0.0
H359 H 0.93679 0.72961 0.45707 0.0
H360 H 0.93713 0.73922 0.62075 0.0
H361 H 0.97529 0.7524 0.61646 0.0
H362 H 0.98787 0.70826 0.44598 0.0
H363 H 0.99564 0.72178 0.38767 0.0
H364 H 0.96702 0.71703 0.40149 0.0
H365 H 0.95877 0.75873 0.39142 0.0
H366 H 0.98744 0.76363 0.37696 0.0
H367 H 0.97429 0.77852 0.428 0.0
H368 H 0.01527 0.7559 0.59798 0.0
H369 H 0.0533 0.75456 0.56337 0.0
H370 H 0.02681 0.74651 0.41156 0.0
C371 C 0.94463 0.73521 0.49173 0.0
C372 C 0.93393 0.73315 0.53917 0.0
C373 C 0.9449 0.74048 0.5838 0.0
C374 C 0.96664 0.7481 0.58187 0.0
C375 C 0.97709 0.74889 0.53492 0.0
C376 C 0.9663 0.74323 0.49041 0.0
C377 C 0.98189 0.74398 0.4455 0.0
C378 C 0.98318 0.72142 0.41863 0.0
C379 C 0.9752 0.76231 0.40827 0.0
C380 C 0.00329 0.74955 0.47228 0.0
C381 C 0.00017 0.75243 0.52387 0.0
C382 C 0.0179 0.75456 0.55741 0.0
C383 C 0.03939 0.75366 0.53764 0.0
C384 C 0.04279 0.75103 0.48489 0.0
C385 C 0.02453 0.74938 0.45187 0.0
H386 H 0.27705 0.03103 0.40865 0.0
H387 H 0.2818 0.05486 0.56382 0.0
H388 H 0.28303 0.01642 0.59478 0.0
H389 H 0.24453 0.9805 0.43512 0.0
H390 H 0.25964 0.96443 0.3891 0.0
H391 H 0.2559 0.99363 0.37953 0.0
H392 H 0.29823 -0.00149 0.37182 0.0
H393 H 0.30212 0.96941 0.38169 0.0
H394 H 0.3158 0.98898 0.42253 0.0
H395 H 0.28639 0.97626 0.60841 0.0
H396 H 0.29344 0.93648 0.60482 0.0
H397 H 0.28857 0.93817 0.43998 0.0
C398 C 0.27776 0.0281 0.44922 0.0
C399 C 0.27904 0.04581 0.48404 0.0
C400 C 0.28068 0.04145 0.53669 0.0
C401 C 0.2813 0.01972 0.55457 0.0
C402 C 0.28046 0.00262 0.5192 0.0
C403 C 0.27881 0.0065 0.46762 0.0
C404 C 0.28039 0.98521 0.43752 0.0
C405 C 0.25883 0.98068 0.40862 0.0
C406 C 0.30033 0.98556 0.40127 0.0
C407 C 0.2837 0.96881 0.48023 0.0
C408 C 0.28328 0.97924 0.52698 0.0
C409 C 0.2866 0.96785 0.5721 0.0
C410 C 0.29064 0.9452 0.56951 0.0
C411 C 0.29162 0.93409 0.52201 0.0
C412 C 0.28789 0.94612 0.47682 0.0
H413 H 0.05044 0.26059 0.50929 0.0
H414 H 0.04083 0.23926 0.66531 0.0
H415 H 0.00067 0.24071 0.6534 0.0
H416 H 0.01017 0.29901 0.5066 0.0
H417 H 0.00065 0.29389 0.44279 0.0
H418 H 0.02858 0.28734 0.45988 0.0
H419 H 0.02293 0.24688 0.4308 0.0
H420 H 0.99499 0.25339 0.41273 0.0
H421 H 0.00031 0.2311 0.45632 0.0
H422 H 0.96217 0.25195 0.6306 0.0
H423 H 0.92781 0.26727 0.59362 0.0
H424 H 0.96228 0.27888 0.45161 0.0
C425 C 0.03993 0.25547 0.5404 0.0
C426 C 0.04888 0.24996 0.58824 0.0
C427 C 0.03447 0.24359 0.62818 0.0
C428 C 0.01156 0.24434 0.62187 0.0
C429 C 0.00326 0.25099 0.57508 0.0
C430 C 0.01699 0.25587 0.53457 0.0
C431 C 0.00394 0.26411 0.48946 0.0
C432 C 0.01127 0.28747 0.47382 0.0
C433 C 0.00564 0.2479 0.44468 0.0
C434 C 0.98096 0.26421 0.51191 0.0
C435 C 0.98083 0.25651 0.56126 0.0
C436 C 0.96189 0.25739 0.59145 0.0
C437 C 0.94253 0.26625 0.57039 0.0
C438 C 0.94235 0.27389 0.51964 0.0
C439 C 0.96178 0.2726 0.49013 0.0
H440 H 0.26078 0.33316 0.94123 0.0
H441 H 0.26554 0.36817 0.08455 0.0
H442 H 0.30007 0.34822 0.10427 0.0
H443 H 0.27579 0.28221 0.99088 0.0
H444 H 0.29089 0.27287 0.93588 0.0
H445 H 0.26893 0.29256 0.92864 0.0
H446 H 0.29577 0.31947 0.88365 0.0
H447 H 0.31788 0.29982 0.89086 0.0
H448 H 0.32097 0.32748 0.91496 0.0
H449 H 0.33182 0.32293 0.11164 0.0
H450 H 0.35682 0.29111 0.11158 0.0
H451 H 0.33043 0.27017 0.96576 0.0
C452 C 0.2695 0.337 0.97606 0.0
C453 C 0.26088 0.35241 0.01112 0.0
C454 C 0.27211 0.35652 0.0572 0.0
C455 C 0.29175 0.3454 0.06847 0.0
C456 C 0.29972 0.33005 0.03348 0.0
C457 C 0.28887 0.32564 0.98843 0.0
C458 C 0.29936 0.30635 0.96069 0.0
C459 C 0.28276 0.28738 0.95365 0.0
C460 C 0.30907 0.31373 0.9095 0.0
C461 C 0.31742 0.30023 0.99792 0.0
C462 C 0.31761 0.31451 0.03894 0.0
C463 C 0.33196 0.31173 0.07959 0.0
C464 C 0.34607 0.2935 0.07918 0.0
C465 C 0.34556 0.27801 0.03873 0.0
C466 C 0.3314 0.2818 0.99694 0.0
H467 H 0.72374 0.33028 -0.00109 0.0
H468 H 0.72144 0.32947 0.16401 0.0
H469 H 0.69659 0.29742 0.16128 0.0
H470 H 0.66666 0.3158 0.97959 0.0
H471 H 0.67211 0.29879 0.92477 0.0
H472 H 0.69 0.32165 0.9393 0.0
H473 H 0.7237 0.29533 0.94012 0.0
H474 H 0.70592 0.27239 0.92555 0.0
H475 H 0.72338 0.27146 0.98093 0.0
H476 H 0.67274 0.26527 0.14146 0.0
H477 H 0.65027 0.23527 0.10542 0.0
H478 H 0.66701 0.25722 0.95302 0.0
C479 C 0.71804 0.32334 0.03449 0.0
C480 C 0.72457 0.33241 0.08167 0.0
C481 C 0.71663 0.3229 0.12736 0.0
C482 C 0.70253 0.30465 0.12627 0.0
C483 C 0.6964 0.29616 0.07923 0.0
C484 C 0.70379 0.30519 0.03414 0.0
C485 C 0.69444 0.29294 0.98877 0.0
C486 C 0.67994 0.30821 0.9562 0.0
C487 C 0.71297 0.2824 0.95698 0.0
C488 C 0.68073 0.27558 0.01554 0.0
C489 C 0.6822 0.27773 0.0677 0.0
C490 C 0.67137 0.26344 0.10067 0.0
C491 C 0.65868 0.24642 0.07977 0.0
C492 C 0.65681 0.24392 0.02637 0.0
C493 C 0.66796 0.2588 0.99396 0.0
H494 H 0.73227 0.65545 -0.00122 0.0
H495 H 0.72585 0.65076 0.83479 0.0
H496 H 0.7014 0.68337 0.8351 0.0
H497 H 0.67633 0.66991 0.02264 0.0
H498 H 0.68271 0.68844 0.07418 0.0
H499 H 0.70069 0.66553 0.06062 0.0
H500 H 0.7338 0.69229 0.05163 0.0
H501 H 0.71593 0.7153 0.06528 0.0
H502 H 0.73203 0.71502 0.00767 0.0
H503 H 0.67756 0.71658 0.85358 0.0
H504 H 0.65469 0.74662 0.88944 0.0
H505 H 0.67568 0.7282 0.04136 0.0
C506 C 0.72591 0.6614 0.96286 0.0
C507 C 0.73104 0.65065 0.91674 0.0
C508 C 0.72209 0.65874 0.87061 0.0
C509 C 0.70826 0.67729 0.87036 0.0
C510 C 0.70341 0.68741 0.91658 0.0
C511 C 0.71187 0.67968 0.96199 0.0
C512 C 0.70338 0.69292 0.00664 0.0
C513 C 0.68998 0.67832 0.04315 0.0
C514 C 0.72242 0.70457 0.03442 0.0
C515 C 0.68877 0.70926 0.97928 0.0
C516 C 0.68916 0.70599 0.92733 0.0
C517 C 0.67708 0.71927 0.89424 0.0
C518 C 0.66417 0.73629 0.91491 0.0
C519 C 0.66328 0.73965 0.96817 0.0
C520 C 0.67582 0.72593 0.00052 0.0
H521 H 0.25501 0.65407 0.95387 0.0
H522 H 0.25242 0.66882 0.11544 0.0
H523 H 0.28665 0.6903 0.10807 0.0
H524 H 0.3152 0.64852 0.94696 0.0
H525 H 0.31691 0.66112 0.88506 0.0
H526 H 0.29252 0.64603 0.90302 0.0
H527 H 0.26842 0.68028 0.88322 0.0
H528 H 0.2927 0.69544 0.86514 0.0
H529 H 0.27465 0.7062 0.91366 0.0
H530 H 0.31903 0.71276 0.08263 0.0
H531 H 0.34911 0.73335 0.04067 0.0
H532 H 0.33248 0.70246 0.89688 0.0
C533 C 0.26175 0.66168 0.98773 0.0
C534 C 0.25102 0.65972 0.03521 0.0
C535 C 0.26038 0.66993 0.07866 0.0
C536 C 0.27983 0.68221 0.07494 0.0
C537 C 0.28993 0.68391 0.02765 0.0
C538 C 0.28139 0.67379 0.98487 0.0
C539 C 0.29542 0.67859 0.93852 0.0
C540 C 0.30562 0.65729 0.91714 0.0
C541 C 0.28199 0.69086 0.89774 0.0
C542 C 0.31286 0.69335 0.96186 0.0
C543 C 0.30931 0.69623 0.01332 0.0
C544 C 0.32226 0.71036 0.04255 0.0
C545 C 0.33923 0.722 0.01845 0.0
C546 C 0.34326 0.71918 0.96587 0.0
C547 C 0.33007 0.70446 0.93742 0.0
H548 H 0.83579 0.75081 0.47406 0.0
H549 H 0.81831 0.74564 0.63358 0.0
H550 H 0.79269 0.77714 0.62412 0.0
H551 H 0.83666 0.80933 0.4704 0.0
H552 H 0.82562 0.81117 0.40694 0.0
H553 H 0.84137 0.78733 0.42552 0.0
H554 H 0.8089 0.76183 0.39987 0.0
H555 H 0.7931 0.78559 0.38086 0.0
H556 H 0.78195 0.76656 0.42676 0.0
H557 H 0.76888 0.80932 0.59664 0.0
H558 H 0.75008 0.84054 0.5542 0.0
H559 H 0.7852 0.82552 0.41452 0.0
C560 C 0.82635 0.7561 0.50685 0.0
C561 C 0.82887 0.7457 0.55444 0.0
C562 C 0.81658 0.7534 0.59673 0.0
C563 C 0.80198 0.77122 0.59171 0.0
C564 C 0.80008 0.78128 0.54432 0.0
C565 C 0.81203 0.77405 0.50273 0.0
C566 C 0.80782 0.7883 0.45662 0.0
C567 C 0.82914 0.79971 0.43886 0.0
C568 C 0.79731 0.77476 0.41349 0.0
C569 C 0.79166 0.8047 0.47874 0.0
C570 C 0.78719 0.80029 0.5292 0.0
C571 C 0.77234 0.813 0.5572 0.0
C572 C 0.76176 0.83068 0.53283 0.0
C573 C 0.76637 0.83559 0.48128 0.0
C574 C 0.78157 0.82241 0.45419 0.0
H575 H 0.23873 0.84262 0.44476 0.0
H576 H 0.24224 0.8341 0.60855 0.0
H577 H 0.20642 0.81514 0.60743 0.0
H578 H 0.17839 0.85161 0.43928 0.0
H579 H 0.1756 0.83666 0.38038 0.0
H580 H 0.2008 0.85124 0.39421 0.0
H581 H 0.22312 0.81523 0.38074 0.0
H582 H 0.19804 0.80057 0.36689 0.0
H583 H 0.21599 0.79099 0.4168 0.0
H584 H 0.17276 0.79338 0.58805 0.0
H585 H 0.14208 0.7718 0.55136 0.0
H586 H 0.15883 0.79604 0.40116 0.0
C587 C 0.23182 0.83705 0.48046 0.0
C588 C 0.24334 0.83991 0.5267 0.0
C589 C 0.23373 0.83226 0.5726 0.0
C590 C 0.21335 0.82145 0.57245 0.0
C591 C 0.20258 0.81866 0.52624 0.0
C592 C 0.21131 0.82642 0.48113 0.0
C593 C 0.19671 0.82043 0.4365 0.0
C594 C 0.18732 0.84123 0.41111 0.0
C595 C 0.20921 0.80594 0.39799 0.0
C596 C 0.1788 0.80753 0.46349 0.0
C597 C 0.18251 0.80675 0.51528 0.0
C598 C 0.16936 0.79424 0.54773 0.0
C599 C 0.15204 0.78201 0.5266 0.0
C600 C 0.14794 0.78261 0.47369 0.0
C601 C 0.16127 0.79582 0.44194 0.0
H602 H 0.21709 0.15602 0.43751 0.0
H603 H 0.2442 0.12985 0.57753 0.0
H604 H 0.21555 0.14964 0.62667 0.0
H605 H 0.20768 0.20937 0.48607 0.0
H606 H 0.18271 0.21415 0.45057 0.0
H607 H 0.2034 0.19571 0.42598 0.0
H608 H 0.17429 0.16453 0.41953 0.0
H609 H 0.15349 0.18291 0.44421 0.0
H610 H 0.15866 0.1569 0.47512 0.0
H611 H 0.18499 0.17297 0.66042 0.0
H612 H 0.15717 0.20158 0.67811 0.0
H613 H 0.15166 0.21498 0.51646 0.0
C614 C 0.21665 0.15415 0.47844 0.0
C615 C 0.23252 0.14121 0.50391 0.0
C616 C 0.23201 0.13962 0.55753 0.0
C617 C 0.21577 0.15067 0.58562 0.0
C618 C 0.20042 0.16347 0.55945 0.0
C619 C 0.20088 0.1655 0.50713 0.0
C620 C 0.18395 0.18208 0.48883 0.0
C621 C 0.19511 0.20147 0.46126 0.0
C622 C 0.16657 0.17093 0.45492 0.0
C623 C 0.17411 0.18924 0.53911 0.0
C624 C 0.18353 0.17794 0.5792 0.0
C625 C 0.17742 0.18189 0.62937 0.0
C626 C 0.16155 0.19814 0.63897 0.0
C627 C 0.15224 0.21053 0.59864 0.0
C628 C 0.15846 0.20578 0.54804 0.0
H629 H 0.84651 0.24989 0.53465 0.0
H630 H 0.83788 0.24788 0.37107 0.0
H631 H 0.81245 0.21616 0.38031 0.0
H632 H 0.8481 0.19134 0.55127 0.0
H633 H 0.8339 0.19191 0.61147 0.0
H634 H 0.85031 0.21517 0.59202 0.0
H635 H 0.81653 0.24096 0.60326 0.0
H636 H 0.80003 0.21779 0.62291 0.0
H637 H 0.7912 0.2347 0.5704 0.0
H638 H 0.78705 0.1854 0.40828 0.0
H639 H 0.7661 0.15594 0.45196 0.0
H640 H 0.79411 0.17639 0.5962 0.0
C641 C 0.83907 0.2429 0.50084 0.0
C642 C 0.84388 0.25141 0.45219 0.0
C643 C 0.8343 0.24157 0.40868 0.0
C644 C 0.81983 0.22363 0.41359 0.0
C645 C 0.8155 0.21556 0.46218 0.0
C646 C 0.82505 0.22472 0.50496 0.0
C647 C 0.8186 0.21232 0.55256 0.0
C648 C 0.83894 0.20208 0.57832 0.0
C649 C 0.80583 0.22734 0.58944 0.0
C650 C 0.80381 0.1948 0.52996 0.0
C651 C 0.80198 0.1971 0.47786 0.0
C652 C 0.78853 0.1833 0.44898 0.0
C653 C 0.77669 0.16667 0.47406 0.0
C654 C 0.77874 0.16378 0.52724 0.0
C655 C 0.79254 0.178 0.55536 0.0
H656 H 0.10779 0.3335 0.40495 0.0
H657 H 0.15688 0.28202 0.42393 0.0
H658 H 0.17697 0.29596 0.34887 0.0
H659 H 0.10732 0.33177 0.26653 0.0
H660 H 0.10337 0.36113 0.26061 0.0
H661 H 0.0929 0.34681 0.31549 0.0
H662 H 0.11469 0.37346 0.3739 0.0
H663 H 0.12554 0.38761 0.31917 0.0
H664 H 0.1441 0.3762 0.36577 0.0
H665 H 0.19301 0.31708 0.27498 0.0
H666 H 0.20074 0.34012 0.19968 0.0
H667 H 0.14024 0.37666 0.22647 0.0
C668 C 0.12264 0.32502 0.393 0.0
C669 C 0.13079 0.3067 0.42038 0.0
C670 C 0.15024 0.296 0.4034 0.0
C671 C 0.16188 0.30391 0.36104 0.0
C672 C 0.1537 0.32236 0.33571 0.0
C673 C 0.13428 0.33249 0.35039 0.0
C674 C 0.12872 0.35166 0.31577 0.0
C675 C 0.10678 0.34759 0.28794 0.0
C676 C 0.12824 0.37352 0.34544 0.0
C677 C 0.14812 0.35081 0.2795 0.0
C678 C 0.1625 0.33399 0.29208 0.0
C679 C 0.18178 0.33019 0.26455 0.0
C680 C 0.18613 0.34349 0.22206 0.0
C681 C 0.17109 0.36018 0.20715 0.0
C682 C 0.15204 0.36404 0.23688 0.0
H683 H 0.68922 0.11844 0.38819 0.0
H684 H 0.67362 0.18197 0.45568 0.0
H685 H 0.65207 0.19189 0.37969 0.0
H686 H 0.69671 0.13832 0.26227 0.0
H687 H 0.68471 0.11445 0.2322 0.0
H688 H 0.69785 0.11183 0.29321 0.0
H689 H 0.66202 0.09495 0.33031 0.0
H690 H 0.64871 0.09766 0.26941 0.0
H691 H 0.63644 0.10995 0.32506 0.0
H692 H 0.63316 0.19549 0.29572 0.0
H693 H 0.61999 0.1933 0.20713 0.0
H694 H 0.64811 0.12763 0.1938 0.0
C695 C 0.68116 0.13438 0.38711 0.0
C696 C 0.68306 0.1494 0.42795 0.0
C697 C 0.67242 0.17018 0.42486 0.0
C698 C 0.66004 0.17594 0.38196 0.0
C699 C 0.65846 0.16077 0.34242 0.0
C700 C 0.6688 0.14046 0.34443 0.0
C701 C 0.66532 0.12762 0.29569 0.0
C702 C 0.68746 0.12278 0.26929 0.0
C703 C 0.65235 0.10628 0.30574 0.0
C704 C 0.65168 0.14403 0.26579 0.0
C705 C 0.64771 0.16294 0.29365 0.0
C706 C 0.63605 0.18071 0.27357 0.0
C707 C 0.6286 0.1793 0.22324 0.0
C708 C 0.63298 0.16029 0.19353 0.0
C709 C 0.64436 0.14233 0.21557 0.0
H710 H 0.87746 0.64067 0.325 0.0
H711 H 0.8382 0.69976 0.34729 0.0
H712 H 0.8169 0.69096 0.26962 0.0
H713 H 0.8792 0.64346 0.18573 0.0
H714 H 0.8777 0.61391 0.1791 0.0
H715 H 0.89052 0.62587 0.23439 0.0
H716 H 0.86411 0.60347 0.29211 0.0
H717 H 0.85098 0.59171 0.23706 0.0
H718 H 0.83471 0.60619 0.28378 0.0
H719 H 0.79775 0.67358 0.19298 0.0
H720 H 0.78524 0.65146 0.11923 0.0
H721 H 0.83789 0.60449 0.14712 0.0
C722 C 0.86463 0.65199 0.31314 0.0
C723 C 0.85952 0.67092 0.34224 0.0
C724 C 0.84255 0.68526 0.32541 0.0
C725 C 0.83027 0.68031 0.2815 0.0
C726 C 0.83532 0.66112 0.25457 0.0
C727 C 0.85238 0.64741 0.26934 0.0
C728 C 0.85442 0.62767 0.23438 0.0
C729 C 0.87678 0.62774 0.20675 0.0
C730 C 0.85083 0.60598 0.26359 0.0
C731 C 0.83561 0.63216 0.19803 0.0
C732 C 0.8247 0.65146 0.21029 0.0
C733 C 0.80634 0.65856 0.18279 0.0
C734 C 0.79926 0.64581 0.14116 0.0
C735 C 0.81061 0.62627 0.12727 0.0
C736 C 0.82891 0.61939 0.1565 0.0
H737 H 0.35709 0.85277 0.29454 0.0
H738 H 0.2857 0.85852 0.29186 0.0
H739 H 0.28551 0.84562 0.20257 0.0
H740 H 0.36695 0.86974 0.1627 0.0
H741 H 0.38916 0.85028 0.15454 0.0
H742 H 0.38365 0.86185 0.21637 0.0
H743 H 0.37995 0.82246 0.25355 0.0
H744 H 0.38525 0.81077 0.19185 0.0
H745 H 0.36045 0.80352 0.22577 0.0
H746 H 0.2931 0.82941 0.11575 0.0
H747 H 0.3077 0.81224 0.03761 0.0
H748 H 0.37418 0.81693 0.09805 0.0
C749 C 0.34139 0.8517 0.27504 0.0
C750 C 0.32139 0.85674 0.3002 0.0
C751 C 0.30124 0.85488 0.27331 0.0
C752 C 0.30098 0.84754 0.22262 0.0
C753 C 0.321 0.84223 0.19942 0.0
C754 C 0.34084 0.84438 0.2247 0.0
C755 C 0.35999 0.83664 0.19222 0.0
C756 C 0.37587 0.85577 0.18078 0.0
C757 C 0.37211 0.81719 0.21735 0.0
C758 C 0.34781 0.82939 0.14491 0.0
C759 C 0.32535 0.83286 0.14968 0.0
C760 C 0.31066 0.82681 0.11146 0.0
C761 C 0.31914 0.817 0.06724 0.0
C762 C 0.34211 0.81326 0.06157 0.0
C763 C 0.35657 0.81965 0.10103 0.0
H764 H 0.16669 0.71737 0.62983 0.0
H765 H 0.12116 0.66586 0.58405 0.0
H766 H 0.13304 0.64319 0.65712 0.0
H767 H 0.21048 0.68208 0.67662 0.0
H768 H 0.21686 0.69968 0.72987 0.0
H769 H 0.20579 0.71138 0.67234 0.0
H770 H 0.17374 0.72905 0.72337 0.0
H771 H 0.18487 0.71764 0.78105 0.0
H772 H 0.15675 0.71185 0.76324 0.0
H773 H 0.15007 0.62603 0.73505 0.0
H774 H 0.16692 0.61783 0.81831 0.0
H775 H 0.19997 0.68133 0.81574 0.0
C776 C 0.1593 0.70128 0.63508 0.0
C777 C 0.1431 0.69331 0.60109 0.0
C778 C 0.13356 0.67231 0.60967 0.0
C779 C 0.14034 0.65924 0.65083 0.0
C780 C 0.1565 0.66749 0.68338 0.0
C781 C 0.1656 0.68817 0.67645 0.0
C782 C 0.18155 0.69379 0.71888 0.0
C783 C 0.20507 0.69691 0.69817 0.0
C784 C 0.17375 0.71429 0.74838 0.0
C785 C 0.17987 0.67311 0.75097 0.0
C786 C 0.16566 0.65797 0.72934 0.0
C787 C 0.16123 0.63776 0.75236 0.0
C788 C 0.171 0.63319 0.79956 0.0
C789 C 0.18478 0.64893 0.82366 0.0
C790 C 0.18959 0.66892 0.79829 0.0
H791 H 0.31007 0.17564 0.63992 0.0
H792 H 0.34985 0.11741 0.61049 0.0
H793 H 0.37286 0.1261 0.68509 0.0
H794 H 0.35417 0.21097 0.68379 0.0
H795 H 0.33784 0.22379 0.73291 0.0
H796 H 0.32472 0.21356 0.67614 0.0
H797 H 0.29868 0.18929 0.73058 0.0
H798 H 0.31153 0.19964 0.78746 0.0
H799 H 0.31032 0.17035 0.77605 0.0
H800 H 0.3917 0.14097 0.7619 0.0
H801 H 0.40284 0.15879 0.84194 0.0
H802 H 0.35035 0.20696 0.82408 0.0
C803 C 0.32363 0.16473 0.64917 0.0
C804 C 0.32821 0.14588 0.6192 0.0
C805 C 0.34598 0.13191 0.63287 0.0
C806 C 0.35925 0.13678 0.675 0.0
C807 C 0.35447 0.15561 0.70333 0.0
C808 C 0.33694 0.16922 0.69149 0.0
C809 C 0.33481 0.18784 0.72976 0.0
C810 C 0.33809 0.21038 0.7041 0.0
C811 C 0.31252 0.1867 0.75762 0.0
C812 C 0.35383 0.18247 0.7651 0.0
C813 C 0.36508 0.16396 0.74865 0.0
C814 C 0.38301 0.15547 0.77522 0.0
C815 C 0.38924 0.16577 0.82065 0.0
C816 C 0.37747 0.18428 0.83943 0.0
C817 C 0.3598 0.19297 0.81059 0.0
H818 H 0.81636 0.4012 0.84179 0.0
H819 H 0.7717 0.34663 0.86971 0.0
H820 H 0.78555 0.32796 0.79237 0.0
H821 H 0.81191 0.40016 0.70212 0.0
H822 H 0.84055 0.4073 0.6938 0.0
H823 H 0.82575 0.41686 0.749 0.0
H824 H 0.8554 0.39909 0.80691 0.0
H825 H 0.87008 0.38915 0.75199 0.0
H826 H 0.8614 0.37009 0.80056 0.0
H827 H 0.80722 0.31364 0.7164 0.0
H828 H 0.83172 0.30684 0.64274 0.0
H829 H 0.86125 0.37139 0.66398 0.0
C830 C 0.80917 0.38552 0.83117 0.0
C831 C 0.79293 0.37539 0.86183 0.0
C832 C 0.78402 0.3548 0.84663 0.0
C833 C 0.79189 0.34401 0.80291 0.0
C834 C 0.80845 0.35415 0.77449 0.0
C835 C 0.81667 0.37465 0.78753 0.0
C836 C 0.83468 0.38186 0.75128 0.0
C837 C 0.8278 0.40278 0.72233 0.0
C838 C 0.85669 0.38524 0.77938 0.0
C839 C 0.83566 0.36204 0.71635 0.0
C840 C 0.82048 0.34617 0.73038 0.0
C841 C 0.81897 0.32607 0.70475 0.0
C842 C 0.83306 0.3223 0.66318 0.0
C843 C 0.84835 0.3386 0.64747 0.0
C844 C 0.84965 0.35864 0.67477 0.0
H845 H 0.64007 0.80824 0.79621 0.0
H846 H 0.6137 0.87257 0.8362 0.0
H847 H 0.62681 0.88746 0.75448 0.0
H848 H 0.68868 0.82723 0.73972 0.0
H849 H 0.68933 0.80704 0.68941 0.0
H850 H 0.67597 0.80064 0.74869 0.0
H851 H 0.63973 0.79148 0.70097 0.0
H852 H 0.65306 0.7976 0.64139 0.0
H853 H 0.6279 0.81161 0.65859 0.0
H854 H 0.64577 0.8963 0.67268 0.0
H855 H 0.66721 0.89792 0.59304 0.0
H856 H 0.68096 0.82781 0.60515 0.0
C857 C 0.63661 0.82533 0.78731 0.0
C858 C 0.62581 0.83923 0.82264 0.0
C859 C 0.6219 0.86158 0.80978 0.0
C860 C 0.6293 0.87021 0.76343 0.0
C861 C 0.64047 0.85626 0.73015 0.0
C862 C 0.6439 0.83424 0.74113 0.0
C863 C 0.65722 0.82307 0.69965 0.0
C864 C 0.67909 0.81397 0.72064 0.0
C865 C 0.64366 0.80486 0.6736 0.0
C866 C 0.66111 0.84238 0.66422 0.0
C867 C 0.65126 0.86135 0.68251 0.0
C868 C 0.65333 0.8815 0.65761 0.0
C869 C 0.66564 0.88227 0.61252 0.0
C870 C 0.67569 0.86299 0.59271 0.0
C871 C 0.67332 0.8428 0.61905 0.0
H872 H 0.85449 0.67754 0.67053 0.0
H873 H 0.83352 0.62623 0.56634 0.0
H874 H 0.8179 0.60532 0.63874 0.0
H875 H 0.87121 0.64284 0.7716 0.0
H876 H 0.86132 0.66108 0.82074 0.0
H877 H 0.87012 0.67217 0.76061 0.0
H878 H 0.83217 0.69129 0.7492 0.0
H879 H 0.8233 0.68042 0.80952 0.0
H880 H 0.80731 0.67507 0.75311 0.0
H881 H 0.80648 0.58947 0.72299 0.0
H882 H 0.79713 0.58095 0.81196 0.0
H883 H 0.82544 0.64334 0.86001 0.0
C884 C 0.84685 0.66189 0.66265 0.0
C885 C 0.84554 0.65335 0.6129 0.0
C886 C 0.83467 0.63304 0.60431 0.0
C887 C 0.82588 0.62104 0.64514 0.0
C888 C 0.82796 0.62978 0.69394 0.0
C889 C 0.83794 0.64987 0.70271 0.0
C890 C 0.83789 0.65582 0.75854 0.0
C891 C 0.86154 0.6581 0.77906 0.0
C892 C 0.82436 0.67689 0.76814 0.0
C893 C 0.82655 0.63574 0.7801 0.0
C894 C 0.82099 0.62091 0.74222 0.0
C895 C 0.81054 0.60104 0.75288 0.0
C896 C 0.80527 0.59641 0.80352 0.0
C897 C 0.81033 0.61164 0.84274 0.0
C898 C 0.82137 0.63141 0.83083 0.0
H899 H 0.30483 0.82942 0.61241 0.0
H900 H 0.35654 0.80187 0.51831 0.0
H901 H 0.36792 0.77772 0.58966 0.0
H902 H 0.33506 0.8365 0.71638 0.0
H903 H 0.31401 0.8299 0.76233 0.0
H904 H 0.3063 0.84006 0.70089 0.0
H905 H 0.28192 0.80555 0.68605 0.0
H906 H 0.2895 0.79525 0.74791 0.0
H907 H 0.29379 0.77842 0.69226 0.0
H908 H 0.3785 0.76336 0.67516 0.0
H909 H 0.38759 0.76006 0.76602 0.0
H910 H 0.32903 0.79767 0.80464 0.0
C911 C 0.31831 0.81809 0.60657 0.0
C912 C 0.33011 0.81769 0.56054 0.0
C913 C 0.34731 0.80226 0.55356 0.0
C914 C 0.35379 0.78849 0.59377 0.0
C915 C 0.34251 0.79015 0.63995 0.0
C916 C 0.32488 0.80438 0.64617 0.0
C917 C 0.31744 0.80555 0.70094 0.0
C918 C 0.31828 0.8294 0.72129 0.0
C919 C 0.29429 0.79559 0.70714 0.0
C920 C 0.33473 0.79112 0.72542 0.0
C921 C 0.34863 0.78182 0.68952 0.0
C922 C 0.36739 0.77002 0.7035 0.0
C923 C 0.37244 0.76828 0.7553 0.0
C924 C 0.35893 0.77855 0.79238 0.0
C925 C 0.33946 0.78939 0.77718 0.0
H926 H 0.16038 0.3264 0.68424 0.0
H927 H 0.14686 0.25893 0.72801 0.0
H928 H 0.16052 0.26663 0.81463 0.0
H929 H 0.20977 0.33556 0.77055 0.0
H930 H 0.20106 0.36339 0.78403 0.0
H931 H 0.19531 0.35125 0.72286 0.0
H932 H 0.15376 0.35992 0.735 0.0
H933 H 0.15929 0.37177 0.79625 0.0
H934 H 0.13965 0.3496 0.79045 0.0
H935 H 0.16974 0.28299 0.89866 0.0
H936 H 0.17438 0.30676 0.97417 0.0
H937 H 0.17985 0.36399 0.87597 0.0
C938 C 0.16125 0.3131 0.71162 0.0
C939 C 0.15281 0.2921 0.69997 0.0
C940 C 0.15327 0.27514 0.73675 0.0
C941 C 0.16114 0.27933 0.78579 0.0
C942 C 0.16841 0.30056 0.7971 0.0
C943 C 0.1687 0.31715 0.76096 0.0
C944 C 0.17427 0.3392 0.78451 0.0
C945 C 0.19643 0.34785 0.76428 0.0
C946 C 0.15563 0.3561 0.77606 0.0
C947 C 0.17602 0.33259 0.83972 0.0
C948 C 0.17311 0.31018 0.8461 0.0
C949 C 0.17249 0.30051 0.89411 0.0
C950 C 0.17496 0.31415 0.93674 0.0
C951 C 0.1777 0.3372 0.9309 0.0
C952 C 0.17832 0.34641 0.88171 0.0
H953 H 0.64116 0.17727 0.86406 0.0
H954 H 0.6855 0.14566 0.97096 0.0
H955 H 0.71211 0.13902 0.9013 0.0
H956 H 0.64888 0.14229 0.76436 0.0
H957 H 0.64774 0.16315 0.71565 0.0
H958 H 0.63371 0.16748 0.77495 0.0
H959 H 0.65513 0.20407 0.78799 0.0
H960 H 0.66933 0.1998 0.72857 0.0
H961 H 0.68486 0.20394 0.7862 0.0
H962 H 0.73121 0.13156 0.81784 0.0
H963 H 0.74088 0.1238 0.72837 0.0
H964 H 0.68511 0.16315 0.67877 0.0
C965 C 0.65668 0.16955 0.87343 0.0
C966 C 0.66132 0.16222 0.92309 0.0
C967 C 0.68164 0.15152 0.93313 0.0
C968 C 0.69691 0.14781 0.89392 0.0
C969 C 0.69175 0.1553 0.84528 0.0
C970 C 0.67218 0.16614 0.83516 0.0
C971 C 0.6697 0.17122 0.77931 0.0
C972 C 0.64879 0.16038 0.75731 0.0
C973 C 0.66977 0.19625 0.76999 0.0
C974 C 0.69043 0.16058 0.75905 0.0
C975 C 0.70311 0.15169 0.79762 0.0
C976 C 0.72173 0.13892 0.78741 0.0
C977 C 0.7271 0.13459 0.73648 0.0
C978 C 0.71387 0.14306 0.69667 0.0
C979 C 0.69582 0.15684 0.70832 0.0
H980 H 0.82914 0.34715 0.38178 0.0
H981 H 0.89434 0.32724 0.33083 0.0
H982 H 0.88326 0.33335 0.24202 0.0
H983 H 0.79853 0.32328 0.27856 0.0
H984 H 0.77918 0.34579 0.27445 0.0
H985 H 0.79198 0.33928 0.33436 0.0
H986 H 0.80638 0.37943 0.34177 0.0
H987 H 0.7935 0.38609 0.28206 0.0
H988 H 0.8226 0.39091 0.29079 0.0
H989 H 0.86493 0.34084 0.1585 0.0
H990 H 0.84146 0.3527 0.08659 0.0
H991 H 0.78907 0.36892 0.19261 0.0
C992 C 0.84108 0.34412 0.35196 0.0
C993 C 0.86244 0.3363 0.36317 0.0
C994 C 0.87769 0.33272 0.32311 0.0
C995 C 0.8716 0.33621 0.27249 0.0
C996 C 0.85029 0.34351 0.26263 0.0
C997 C 0.83534 0.34769 0.30119 0.0
C998 C 0.81371 0.35612 0.2803 0.0
C999 C 0.79473 0.34016 0.29266 0.0
C1000 C 0.80877 0.37953 0.29989 0.0
C1001 C 0.81893 0.35614 0.2241 0.0
C1002 C 0.84001 0.34857 0.2146 0.0
C1003 C 0.84841 0.3469 0.16542 0.0
C1004 C 0.83496 0.35356 0.1249 0.0
C1005 C 0.81356 0.36201 0.13411 0.0
C1006 C 0.80545 0.36301 0.18429 0.0
H1007 H 0.64323 0.80642 0.14233 0.0
H1008 H 0.6911 0.83485 0.0387 0.0
H1009 H 0.71453 0.84516 0.11171 0.0
H1010 H 0.64487 0.84668 0.2305 0.0
H1011 H 0.64209 0.82921 0.28553 0.0
H1012 H 0.63133 0.82029 0.22537 0.0
H1013 H 0.6547 0.78454 0.23055 0.0
H1014 H 0.66549 0.79331 0.29114 0.0
H1015 H 0.68409 0.78642 0.24005 0.0
H1016 H 0.72918 0.85784 0.19513 0.0
H1017 H 0.73408 0.8718 0.28219 0.0
H1018 H 0.67725 0.83396 0.33156 0.0
C1019 C 0.65898 0.81411 0.13473 0.0
C1020 C 0.66544 0.81967 0.08485 0.0
C1021 C 0.6859 0.83033 0.07667 0.0
C1022 C 0.69937 0.83613 0.11786 0.0
C1023 C 0.69223 0.83087 0.16674 0.0
C1024 C 0.67261 0.81989 0.17529 0.0
C1025 C 0.66742 0.81832 0.23139 0.0
C1026 C 0.64512 0.82929 0.24389 0.0
C1027 C 0.66797 0.79421 0.24933 0.0
C1028 C 0.68655 0.83125 0.25299 0.0
C1029 C 0.7009 0.83799 0.21521 0.0
C1030 C 0.71842 0.85218 0.22523 0.0
C1031 C 0.72105 0.86006 0.27491 0.0
C1032 C 0.70619 0.85377 0.31385 0.0
C1033 C 0.68914 0.8387 0.30285 0.0
H1034 H 0.16214 0.6967 0.32881 0.0
H1035 H 0.1044 0.73438 0.28459 0.0
H1036 H 0.11381 0.72902 0.19461 0.0
H1037 H 0.19827 0.71352 0.21642 0.0
H1038 H 0.20992 0.6862 0.21292 0.0
H1039 H 0.20182 0.69751 0.27355 0.0
H1040 H 0.17699 0.66341 0.28933 0.0
H1041 H 0.18478 0.65213 0.22882 0.0
H1042 H 0.15603 0.65642 0.24344 0.0
H1043 H 0.12502 0.71358 0.11063 0.0
H1044 H 0.1375 0.68923 0.04058 0.0
H1045 H 0.18828 0.66264 0.13874 0.0
C1046 C 0.15196 0.70451 0.30021 0.0
C1047 C 0.13269 0.71612 0.31379 0.0
C1048 C 0.11946 0.72569 0.27526 0.0
C1049 C 0.12468 0.72277 0.22387 0.0
C1050 C 0.14331 0.71046 0.21162 0.0
C1051 C 0.15695 0.70173 0.24873 0.0
C1052 C 0.17426 0.68677 0.22585 0.0
C1053 C 0.19744 0.6966 0.23258 0.0
C1054 C 0.17291 0.66331 0.24818 0.0
C1055 C 0.16724 0.68724 0.17076 0.0
C1056 C 0.14972 0.7014 0.16294 0.0
C1057 C 0.13907 0.70281 0.11601 0.0
C1058 C 0.1462 0.68893 0.07652 0.0
C1059 C 0.16349 0.67371 0.0848 0.0
C1060 C 0.17461 0.67356 0.13178 0.0
H1061 H 0.32919 0.17095 0.35717 0.0
H1062 H 0.27227 0.13254 0.31146 0.0
H1063 H 0.27527 0.14749 0.22452 0.0
H1064 H 0.32039 0.21933 0.26995 0.0
H1065 H 0.3496 0.22147 0.25807 0.0
H1066 H 0.33982 0.21181 0.31882 0.0
H1067 H 0.36329 0.1763 0.30847 0.0
H1068 H 0.37296 0.18573 0.24777 0.0
H1069 H 0.35953 0.1593 0.25287 0.0
H1070 H 0.28777 0.16255 0.14002 0.0
H1071 H 0.30928 0.17536 0.06575 0.0
H1072 H 0.3591 0.20143 0.16766 0.0
C1073 C 0.31683 0.16637 0.32939 0.0
C1074 C 0.3004 0.15077 0.34102 0.0
C1075 C 0.28498 0.14451 0.3033 0.0
C1076 C 0.28647 0.15304 0.25388 0.0
C1077 C 0.3035 0.16772 0.243 0.0
C1078 C 0.31837 0.17438 0.27985 0.0
C1079 C 0.33703 0.18765 0.25726 0.0
C1080 C 0.33668 0.21148 0.27721 0.0
C1081 C 0.35951 0.17657 0.26717 0.0
C1082 C 0.33082 0.18669 0.20175 0.0
C1083 C 0.31118 0.17564 0.19421 0.0
C1084 C 0.30298 0.17157 0.14556 0.0
C1085 C 0.31534 0.17883 0.10364 0.0
C1086 C 0.33584 0.1896 0.1108 0.0
C1087 C 0.3434 0.19371 0.16057 0.0
loop_
_geom_bond_atom_site_label_1
_geom_bond_atom_site_label_2
_geom_bond_distance
_geom_bond_site_symmetry_2
_ccdc_geom_bond_type
Mg0 O1 2.026 1_556 S
Mg0 O7 1.984 1_556 S
Mg0 O9 2.120 . S
Mg0 O10 2.263 . S
Mg0 O13 2.000 1_556 S
O1 Mg0 2.026 1_554 S
O1 C4 1.250 1_554 S
O2 Mg3 2.028 . S
O2 C4 1.248 . S
Mg3 O2 2.028 . S
Mg3 O8 2.032 . S
Mg3 O10 2.079 . S
C4 O1 1.250 1_556 S
C4 O2 1.248 . S
C5 O6 1.264 . S
C5 O13 1.249 . S
O6 C5 1.264 . S
O7 Mg0 1.984 1_554 S
O7 C11 1.246 1_554 S
O8 Mg3 2.032 . S
O8 C11 1.259 . S
O9 Mg0 2.120 . S
O9 C12 1.252 . S
O10 Mg0 2.263 . S
O10 Mg3 2.079 . S
O10 C12 1.273 . S
C11 O7 1.246 1_556 S
C11 O8 1.259 . S
C12 O9 1.252 . S
C12 O10 1.273 . S
O13 Mg0 2.000 1_554 S
O13 C5 1.249 . S
Mg14 O15 2.026 1_556 S
Mg14 O21 1.984 1_556 S
Mg14 O23 2.120 . S
Mg14 O24 2.263 . S
Mg14 O27 2.000 1_556 S
O15 Mg14 2.026 1_554 S
O15 C18 1.250 1_554 S
O16 Mg17 2.028 . S
O16 C18 1.248 . S
Mg17 O16 2.028 . S
Mg17 O22 2.032 . S
Mg17 O24 2.079 . S
C18 O15 1.250 1_556 S
C18 O16 1.248 . S
C19 O20 1.264 . S
C19 O27 1.249 . S
O20 C19 1.264 . S
O21 Mg14 1.984 1_554 S
O21 C25 1.246 1_554 S
O22 Mg17 2.032 . S
O22 C25 1.259 . S
O23 Mg14 2.120 . S
O23 C26 1.252 . S
O24 Mg14 2.263 . S
O24 Mg17 2.079 . S
O24 C26 1.273 . S
C25 O21 1.246 1_556 S
C25 O22 1.259 . S
C26 O23 1.252 . S
C26 O24 1.273 . S
O27 Mg14 2.000 1_554 S
O27 C19 1.249 . S
Mg28 O29 2.026 1_556 S
Mg28 O35 1.984 1_556 S
Mg28 O37 2.120 . S
Mg28 O38 2.263 . S
Mg28 O41 2.000 1_556 S
O29 Mg28 2.026 1_554 S
O29 C32 1.250 1_554 S
O30 Mg31 2.028 . S
O30 C32 1.248 . S
Mg31 O30 2.028 . S
Mg31 O36 2.032 . S
Mg31 O38 2.079 . S
C32 O29 1.250 1_556 S
C32 O30 1.248 . S
C33 O34 1.264 . S
C33 O41 1.249 . S
O34 C33 1.264 . S
O35 Mg28 1.984 1_554 S
O35 C39 1.246 1_554 S
O36 Mg31 2.032 . S
O36 C39 1.259 . S
O37 Mg28 2.120 . S
O37 C40 1.252 . S
O38 Mg28 2.263 . S
O38 Mg31 2.079 . S
O38 C40 1.273 . S
C39 O35 1.246 1_556 S
C39 O36 1.259 . S
C40 O37 1.252 . S
C40 O38 1.273 . S
O41 Mg28 2.000 1_554 S
O41 C33 1.249 . S
Mg42 O43 2.026 1_556 S
Mg42 O49 1.984 1_556 S
Mg42 O51 2.120 . S
Mg42 O52 2.263 . S
Mg42 O55 2.000 1_556 S
O43 Mg42 2.026 1_554 S
O43 C46 1.250 1_554 S
O44 Mg45 2.028 . S
O44 C46 1.248 . S
Mg45 O44 2.028 . S
Mg45 O50 2.032 . S
Mg45 O52 2.079 . S
C46 O43 1.250 1_556 S
C46 O44 1.248 . S
C47 O48 1.264 . S
C47 O55 1.249 . S
O48 C47 1.264 . S
O49 Mg42 1.984 1_554 S
O49 C53 1.246 1_554 S
O50 Mg45 2.032 . S
O50 C53 1.259 . S
O51 Mg42 2.120 . S
O51 C54 1.252 . S
O52 Mg42 2.263 . S
O52 Mg45 2.079 . S
O52 C54 1.273 . S
C53 O49 1.246 1_556 S
C53 O50 1.259 . S
C54 O51 1.252 . S
C54 O52 1.273 . S
O55 Mg42 2.000 1_554 S
O55 C47 1.249 . S
Mg56 O57 2.028 1_554 S
Mg56 O63 1.986 1_554 S
Mg56 O65 2.114 . S
Mg56 O66 2.251 . S
Mg56 O69 2.010 1_554 S
O57 Mg56 2.028 1_556 S
O57 C60 1.250 1_556 S
O58 Mg59 2.028 . S
O58 C60 1.248 . S
Mg59 O58 2.028 . S
Mg59 O64 2.032 . S
Mg59 O66 2.079 . S
C60 O57 1.250 1_554 S
C60 O58 1.248 . S
C61 O62 1.264 . S
C61 O69 1.249 . S
O62 C61 1.264 . S
O63 Mg56 1.986 1_556 S
O63 C67 1.246 1_556 S
O64 Mg59 2.032 . S
O64 C67 1.259 . S
O65 Mg56 2.114 . S
O65 C68 1.252 . S
O66 Mg56 2.251 . S
O66 Mg59 2.079 . S
O66 C68 1.273 . S
C67 O63 1.246 1_554 S
C67 O64 1.259 . S
C68 O65 1.252 . S
C68 O66 1.273 . S
O69 Mg56 2.010 1_556 S
O69 C61 1.249 . S
Mg70 O71 2.028 1_554 S
Mg70 O77 1.986 1_554 S
Mg70 O79 2.114 . S
Mg70 O80 2.251 . S
Mg70 O83 2.010 1_554 S
O71 Mg70 2.028 1_556 S
O71 C74 1.250 1_556 S
O72 Mg73 2.028 . S
O72 C74 1.248 . S
Mg73 O72 2.028 . S
Mg73 O78 2.032 . S
Mg73 O80 2.079 . S
C74 O71 1.250 1_554 S
C74 O72 1.248 . S
C75 O76 1.264 . S
C75 O83 1.249 . S
O76 C75 1.264 . S
O77 Mg70 1.986 1_556 S
O77 C81 1.246 1_556 S
O78 Mg73 2.032 . S
O78 C81 1.259 . S
O79 Mg70 2.114 . S
O79 C82 1.252 . S
O80 Mg70 2.251 . S
O80 Mg73 2.079 . S
O80 C82 1.273 . S
C81 O77 1.246 1_554 S
C81 O78 1.259 . S
C82 O79 1.252 . S
C82 O80 1.273 . S
O83 Mg70 2.010 1_556 S
O83 C75 1.249 . S
Mg84 O85 2.028 1_554 S
Mg84 O91 1.986 1_554 S
Mg84 O93 2.114 . S
Mg84 O94 2.251 . S
Mg84 O97 2.010 1_554 S
O85 Mg84 2.028 1_556 S
O85 C88 1.250 1_556 S
O86 Mg87 2.028 . S
O86 C88 1.248 . S
Mg87 O86 2.028 . S
Mg87 O92 2.032 . S
Mg87 O94 2.079 . S
C88 O85 1.250 1_554 S
C88 O86 1.248 . S
C89 O90 1.264 . S
C89 O97 1.249 . S
O90 C89 1.264 . S
O91 Mg84 1.986 1_556 S
O91 C95 1.246 1_556 S
O92 Mg87 2.032 . S
O92 C95 1.259 . S
O93 Mg84 2.114 . S
O93 C96 1.252 . S
O94 Mg84 2.251 . S
O94 Mg87 2.079 . S
O94 C96 1.273 . S
C95 O91 1.246 1_554 S
C95 O92 1.259 . S
C96 O93 1.252 . S
C96 O94 1.273 . S
O97 Mg84 2.010 1_556 S
O97 C89 1.249 . S
Mg98 O99 2.028 1_554 S
Mg98 O105 1.986 1_554 S
Mg98 O107 2.114 . S
Mg98 O108 2.251 . S
Mg98 O111 2.010 1_554 S
O99 Mg98 2.028 1_556 S
O99 C102 1.250 1_556 S
O100 Mg101 2.028 . S
O100 C102 1.248 . S
Mg101 O100 2.028 . S
Mg101 O106 2.032 . S
Mg101 O108 2.079 . S
C102 O99 1.250 1_554 S
C102 O100 1.248 . S
C103 O104 1.264 . S
C103 O111 1.249 . S
O104 C103 1.264 . S
O105 Mg98 1.986 1_556 S
O105 C109 1.246 1_556 S
O106 Mg101 2.032 . S
O106 C109 1.259 . S
O107 Mg98 2.114 . S
O107 C110 1.252 . S
O108 Mg98 2.251 . S
O108 Mg101 2.079 . S
O108 C110 1.273 . S
C109 O105 1.246 1_554 S
C109 O106 1.259 . S
C110 O107 1.252 . S
C110 O108 1.273 . S
O111 Mg98 2.010 1_556 S
O111 C103 1.249 . S
Mg112 O113 2.028 . S
Mg112 O119 1.986 . S
Mg112 O121 2.114 . S
Mg112 O122 2.251 . S
Mg112 O125 2.010 . S
O113 Mg112 2.028 . S
O113 C116 1.250 . S
O114 Mg115 2.028 . S
O114 C116 1.248 . S
Mg115 O114 2.028 . S
Mg115 O120 2.032 . S
Mg115 O122 2.079 . S
C116 O113 1.250 . S
C116 O114 1.248 . S
C117 O118 1.264 . S
C117 O125 1.249 . S
O118 C117 1.264 . S
O119 Mg112 1.986 . S
O119 C123 1.246 . S
O120 Mg115 2.032 . S
O120 C123 1.259 . S
O121 Mg112 2.114 . S
O121 C124 1.252 . S
O122 Mg112 2.251 . S
O122 Mg115 2.079 . S
O122 C124 1.273 . S
C123 O119 1.246 . S
C123 O120 1.259 . S
C124 O121 1.252 . S
C124 O122 1.273 . S
O125 Mg112 2.010 . S
O125 C117 1.249 . S
Mg126 O127 2.028 . S
Mg126 O133 1.986 . S
Mg126 O135 2.114 . S
Mg126 O136 2.251 . S
Mg126 O139 2.010 . S
O127 Mg126 2.028 . S
O127 C130 1.250 . S
O128 Mg129 2.028 . S
O128 C130 1.248 . S
Mg129 O128 2.028 . S
Mg129 O134 2.032 . S
Mg129 O136 2.079 . S
C130 O127 1.250 . S
C130 O128 1.248 . S
C131 O132 1.264 . S
C131 O139 1.249 . S
O132 C131 1.264 . S
O133 Mg126 1.986 . S
O133 C137 1.246 . S
O134 Mg129 2.032 . S
O134 C137 1.259 . S
O135 Mg126 2.114 . S
O135 C138 1.252 . S
O136 Mg126 2.251 . S
O136 Mg129 2.079 . S
O136 C138 1.273 . S
C137 O133 1.246 . S
C137 O134 1.259 . S
C138 O135 1.252 . S
C138 O136 1.273 . S
O139 Mg126 2.010 . S
O139 C131 1.249 . S
Mg140 O141 2.028 . S
Mg140 O147 1.986 . S
Mg140 O149 2.114 . S
Mg140 O150 2.251 . S
Mg140 O153 2.010 . S
O141 Mg140 2.028 . S
O141 C144 1.250 . S
O142 Mg143 2.028 . S
O142 C144 1.248 . S
Mg143 O142 2.028 . S
Mg143 O148 2.032 . S
Mg143 O150 2.079 . S
C144 O141 1.250 . S
C144 O142 1.248 . S
C145 O146 1.264 . S
C145 O153 1.249 . S
O146 C145 1.264 . S
O147 Mg140 1.986 . S
O147 C151 1.246 . S
O148 Mg143 2.032 . S
O148 C151 1.259 . S
O149 Mg140 2.114 . S
O149 C152 1.252 . S
O150 Mg140 2.251 . S
O150 Mg143 2.079 . S
O150 C152 1.273 . S
C151 O147 1.246 . S
C151 O148 1.259 . S
C152 O149 1.252 . S
C152 O150 1.273 . S
O153 Mg140 2.010 . S
O153 C145 1.249 . S
Mg154 O155 2.028 . S
Mg154 O161 1.986 . S
Mg154 O163 2.114 . S
Mg154 O164 2.251 . S
Mg154 O167 2.010 . S
O155 Mg154 2.028 . S
O155 C158 1.250 . S
O156 Mg157 2.028 . S
O156 C158 1.248 . S
Mg157 O156 2.028 . S
Mg157 O162 2.032 . S
Mg157 O164 2.079 . S
C158 O155 1.250 . S
C158 O156 1.248 . S
C159 O160 1.264 . S
C159 O167 1.249 . S
O160 C159 1.264 . S
O161 Mg154 1.986 . S
O161 C165 1.246 . S
O162 Mg157 2.032 . S
O162 C165 1.259 . S
O163 Mg154 2.114 . S
O163 C166 1.252 . S
O164 Mg154 2.251 . S
O164 Mg157 2.079 . S
O164 C166 1.273 . S
C165 O161 1.246 . S
C165 O162 1.259 . S
C166 O163 1.252 . S
C166 O164 1.273 . S
O167 Mg154 2.010 . S
O167 C159 1.249 . S
Mg168 O169 2.028 . S
Mg168 O175 1.986 . S
Mg168 O177 2.114 . S
Mg168 O178 2.251 . S
Mg168 O181 2.010 . S
O169 Mg168 2.028 . S
O169 C172 1.250 . S
O170 Mg171 2.028 . S
O170 C172 1.248 . S
Mg171 O170 2.028 . S
Mg171 O176 2.032 . S
Mg171 O178 2.079 . S
C172 O169 1.250 . S
C172 O170 1.248 . S
C173 O174 1.264 . S
C173 O181 1.249 . S
O174 C173 1.264 . S
O175 Mg168 1.986 . S
O175 C179 1.246 . S
O176 Mg171 2.032 . S
O176 C179 1.259 . S
O177 Mg168 2.114 . S
O177 C180 1.252 . S
O178 Mg168 2.251 . S
O178 Mg171 2.079 . S
O178 C180 1.273 . S
C179 O175 1.246 . S
C179 O176 1.259 . S
C180 O177 1.252 . S
C180 O178 1.273 . S
O181 Mg168 2.010 . S
O181 C173 1.249 . S
Mg182 O183 2.028 . S
Mg182 O189 1.986 . S
Mg182 O191 2.114 . S
Mg182 O192 2.251 . S
Mg182 O195 2.010 . S
O183 Mg182 2.028 . S
O183 C186 1.250 . S
O184 Mg185 2.028 . S
O184 C186 1.248 . S
Mg185 O184 2.028 . S
Mg185 O190 2.032 . S
Mg185 O192 2.079 . S
C186 O183 1.250 . S
C186 O184 1.248 . S
C187 O188 1.264 . S
C187 O195 1.249 . S
O188 C187 1.264 . S
O189 Mg182 1.986 . S
O189 C193 1.246 . S
O190 Mg185 2.032 . S
O190 C193 1.259 . S
O191 Mg182 2.114 . S
O191 C194 1.252 . S
O192 Mg182 2.251 . S
O192 Mg185 2.079 . S
O192 C194 1.273 . S
C193 O189 1.246 . S
C193 O190 1.259 . S
C194 O191 1.252 . S
C194 O192 1.273 . S
O195 Mg182 2.010 . S
O195 C187 1.249 . S
Mg196 O197 2.028 . S
Mg196 O203 1.986 . S
Mg196 O205 2.114 . S
Mg196 O206 2.251 . S
Mg196 O209 2.010 . S
O197 Mg196 2.028 . S
O197 C200 1.250 . S
O198 Mg199 2.028 . S
O198 C200 1.248 . S
Mg199 O198 2.028 . S
Mg199 O204 2.032 . S
Mg199 O206 2.079 . S
C200 O197 1.250 . S
C200 O198 1.248 . S
C201 O202 1.264 . S
C201 O209 1.249 . S
O202 C201 1.264 . S
O203 Mg196 1.986 . S
O203 C207 1.246 . S
O204 Mg199 2.032 . S
O204 C207 1.259 . S
O205 Mg196 2.114 . S
O205 C208 1.252 . S
O206 Mg196 2.251 . S
O206 Mg199 2.079 . S
O206 C208 1.273 . S
C207 O203 1.246 . S
C207 O204 1.259 . S
C208 O205 1.252 . S
C208 O206 1.273 . S
O209 Mg196 2.010 . S
O209 C201 1.249 . S
Mg210 O211 2.028 . S
Mg210 O217 1.986 . S
Mg210 O219 2.114 . S
Mg210 O220 2.251 . S
Mg210 O223 2.010 . S
O211 Mg210 2.028 . S
O211 C214 1.250 . S
O212 Mg213 2.028 . S
O212 C214 1.248 . S
Mg213 O212 2.028 . S
Mg213 O218 2.032 . S
Mg213 O220 2.079 . S
C214 O211 1.250 . S
C214 O212 1.248 . S
C215 O216 1.264 . S
C215 O223 1.249 . S
O216 C215 1.264 . S
O217 Mg210 1.986 . S
O217 C221 1.246 . S
O218 Mg213 2.032 . S
O218 C221 1.259 . S
O219 Mg210 2.114 . S
O219 C222 1.252 . S
O220 Mg210 2.251 . S
O220 Mg213 2.079 . S
O220 C222 1.273 . S
C221 O217 1.246 . S
C221 O218 1.259 . S
C222 O219 1.252 . S
C222 O220 1.273 . S
O223 Mg210 2.010 . S
O223 C215 1.249 . S
H224 C236 0.930 . S
H225 C238 0.930 . S
H226 C239 0.930 . S
H227 C243 0.959 1_554 S
H228 C243 0.959 . S
H229 C243 0.961 . S
H230 C244 0.960 . S
H231 C244 0.961 . S
H232 C244 0.959 . S
H233 C247 0.929 . S
H234 C248 0.931 . S
H235 C250 0.930 . S
C236 H224 0.930 . S
C236 C237 1.399 1_556 S
C236 C241 1.399 . S
C237 C236 1.399 1_554 S
C237 C238 1.376 . S
C238 H225 0.930 . S
C238 C237 1.376 . S
C238 C239 1.388 . S
C239 H226 0.930 . S
C239 C238 1.388 . S
C239 C240 1.390 . S
C240 C239 1.390 . S
C240 C241 1.394 1_554 S
C240 C246 1.465 . S
C241 C236 1.399 . S
C241 C240 1.394 1_556 S
C241 C242 1.516 . S
C242 C241 1.516 . S
C242 C243 1.502 . S
C242 C244 1.561 . S
C242 C245 1.526 . S
C243 H227 0.959 1_556 S
C243 H228 0.959 . S
C243 H229 0.961 . S
C243 C242 1.502 . S
C244 H230 0.960 . S
C244 H231 0.961 . S
C244 H232 0.959 . S
C244 C242 1.561 . S
C245 C242 1.526 . S
C245 C246 1.396 1_556 S
C245 C250 1.390 . S
C246 C240 1.465 . S
C246 C245 1.396 1_554 S
C246 C247 1.399 . S
C247 H233 0.929 . S
C247 C246 1.399 . S
C247 C248 1.385 . S
C248 H234 0.931 . S
C248 C247 1.385 . S
C248 C249 1.389 1_554 S
C249 C248 1.389 1_556 S
C249 C250 1.387 . S
C250 H235 0.930 . S
C250 C245 1.390 . S
C250 C249 1.387 . S
H251 C263 0.930 . S
H252 C265 0.930 . S
H253 C266 0.930 . S
H254 C270 0.963 . S
H255 C270 0.958 1_556 S
H256 C270 0.960 1_556 S
H257 C271 0.960 . S
H258 C271 0.961 . S
H259 C271 0.959 . S
H260 C274 0.929 . S
H261 C275 0.931 . S
H262 C277 0.930 . S
C263 H251 0.930 . S
C263 C264 1.399 1_556 S
C263 C268 1.399 . S
C264 C263 1.399 1_554 S
C264 C265 1.376 . S
C265 H252 0.930 . S
C265 C264 1.376 . S
C265 C266 1.388 . S
C266 H253 0.930 . S
C266 C265 1.388 . S
C266 C267 1.390 . S
C267 C266 1.390 . S
C267 C268 1.394 1_554 S
C267 C273 1.465 . S
C268 C263 1.399 . S
C268 C267 1.394 1_556 S
C268 C269 1.516 . S
C269 C268 1.516 . S
C269 C270 1.500 1_556 S
C269 C271 1.561 . S
C269 C272 1.526 . S
C270 H254 0.963 . S
C270 H255 0.958 1_554 S
C270 H256 0.960 1_554 S
C270 C269 1.500 1_554 S
C271 H257 0.960 . S
C271 H258 0.961 . S
C271 H259 0.959 . S
C271 C269 1.561 . S
C272 C269 1.526 . S
C272 C273 1.396 1_556 S
C272 C277 1.390 . S
C273 C267 1.465 . S
C273 C272 1.396 1_554 S
C273 C274 1.399 . S
C274 H260 0.929 . S
C274 C273 1.399 . S
C274 C275 1.385 . S
C275 H261 0.931 . S
C275 C274 1.385 . S
C275 C276 1.389 1_554 S
C276 C275 1.389 1_556 S
C276 C277 1.387 . S
C277 H262 0.930 . S
C277 C272 1.390 . S
C277 C276 1.387 . S
H278 C290 0.930 . S
H279 C292 0.930 . S
H280 C293 0.930 . S
H281 C297 0.959 . S
H282 C297 0.959 . S
H283 C297 0.961 . S
H284 C298 0.960 . S
H285 C298 0.961 . S
H286 C298 0.959 . S
H287 C301 0.929 . S
H288 C302 0.931 . S
H289 C304 0.930 . S
C290 H278 0.930 . S
C290 C291 1.399 1_556 S
C290 C295 1.399 . S
C291 C290 1.399 1_554 S
C291 C292 1.376 . S
C292 H279 0.930 . S
C292 C291 1.376 . S
C292 C293 1.388 . S
C293 H280 0.930 . S
C293 C292 1.388 . S
C293 C294 1.390 . S
C294 C293 1.390 . S
C294 C295 1.394 1_554 S
C294 C300 1.465 . S
C295 C290 1.399 . S
C295 C294 1.394 1_556 S
C295 C296 1.516 . S
C296 C295 1.516 . S
C296 C297 1.502 . S
C296 C298 1.561 . S
C296 C299 1.526 . S
C297 H281 0.959 . S
C297 H282 0.959 . S
C297 H283 0.961 . S
C297 C296 1.502 . S
C298 H284 0.960 . S
C298 H285 0.961 . S
C298 H286 0.959 . S
C298 C296 1.561 . S
C299 C296 1.526 . S
C299 C300 1.396 1_556 S
C299 C304 1.390 . S
C300 C294 1.465 . S
C300 C299 1.396 1_554 S
C300 C301 1.399 . S
C301 H287 0.929 . S
C301 C300 1.399 . S
C301 C302 1.385 . S
C302 H288 0.931 . S
C302 C301 1.385 . S
C302 C303 1.409 . S
C303 C302 1.409 . S
C303 C304 1.372 1_554 S
C304 H289 0.930 . S
C304 C299 1.390 . S
C304 C303 1.372 1_556 S
H305 C317 0.930 . S
H306 C319 0.930 . S
H307 C320 0.930 . S
H308 C324 0.959 . S
H309 C324 0.959 . S
H310 C324 0.961 . S
H311 C325 0.960 . S
H312 C325 0.961 . S
H313 C325 0.959 . S
H314 C328 0.929 . S
H315 C329 0.931 . S
H316 C331 0.930 . S
C317 H305 0.930 . S
C317 C318 1.399 . S
C317 C322 1.399 . S
C318 C317 1.399 . S
C318 C319 1.376 1_554 S
C319 H306 0.930 . S
C319 C318 1.376 1_556 S
C319 C320 1.388 . S
C320 H307 0.930 . S
C320 C319 1.388 . S
C320 C321 1.390 . S
C321 C320 1.390 . S
C321 C322 1.394 1_556 S
C321 C327 1.465 . S
C322 C317 1.399 . S
C322 C321 1.394 1_554 S
C322 C323 1.516 . S
C323 C322 1.516 . S
C323 C324 1.502 . S
C323 C325 1.561 1_554 S
C323 C326 1.526 . S
C324 H308 0.959 . S
C324 H309 0.959 . S
C324 H310 0.961 . S
C324 C323 1.502 . S
C325 H311 0.960 . S
C325 H312 0.961 . S
C325 H313 0.959 . S
C325 C323 1.561 1_556 S
C326 C323 1.526 . S
C326 C327 1.396 1_554 S
C326 C331 1.390 . S
C327 C321 1.465 . S
C327 C326 1.396 1_556 S
C327 C328 1.399 . S
C328 H314 0.929 . S
C328 C327 1.399 . S
C328 C329 1.385 . S
C329 H315 0.931 . S
C329 C328 1.385 . S
C329 C330 1.389 . S
C330 C329 1.389 . S
C330 C331 1.387 1_556 S
C331 H316 0.930 . S
C331 C326 1.390 . S
C331 C330 1.387 1_554 S
H332 C344 0.930 . S
H333 C346 0.930 . S
H334 C347 0.930 . S
H335 C351 0.953 1_565 S
H336 C351 0.920 1_565 S
H337 C351 1.007 . S
H338 C352 0.960 . S
H339 C352 0.961 1_565 S
H340 C352 0.959 . S
H341 C355 0.929 . S
H342 C356 0.931 . S
H343 C358 0.930 . S
C344 H332 0.930 . S
C344 C345 1.399 . S
C344 C349 1.399 . S
C345 C344 1.399 . S
C345 C346 1.376 . S
C346 H333 0.930 . S
C346 C345 1.376 . S
C346 C347 1.388 . S
C347 H334 0.930 . S
C347 C346 1.388 . S
C347 C348 1.390 . S
C348 C347 1.390 . S
C348 C349 1.394 . S
C348 C354 1.465 1_545 S
C349 C344 1.399 . S
C349 C348 1.394 . S
C349 C350 1.557 . S
C350 C349 1.557 . S
C350 C351 1.502 . S
C350 C352 1.564 . S
C350 C353 1.483 1_545 S
C351 H335 0.953 1_545 S
C351 H336 0.920 1_545 S
C351 H337 1.007 . S
C351 C350 1.502 . S
C352 H338 0.960 . S
C352 H339 0.961 1_545 S
C352 H340 0.959 . S
C352 C350 1.564 . S
C353 C350 1.483 1_565 S
C353 C354 1.396 . S
C353 C358 1.390 . S
C354 C348 1.465 1_565 S
C354 C353 1.396 . S
C354 C355 1.399 . S
C355 H341 0.929 . S
C355 C354 1.399 . S
C355 C356 1.385 . S
C356 H342 0.931 . S
C356 C355 1.385 . S
C356 C357 1.389 . S
C357 C356 1.389 . S
C357 C358 1.387 . S
C358 H343 0.930 . S
C358 C353 1.390 . S
C358 C357 1.387 . S
H359 C371 0.930 . S
H360 C373 0.930 . S
H361 C374 0.930 . S
H362 C378 0.959 1_455 S
H363 C378 0.958 1_455 S
H364 C378 0.962 . S
H365 C379 0.960 1_655 S
H366 C379 0.961 . S
H367 C379 0.959 . S
H368 C382 0.929 . S
H369 C383 0.931 . S
H370 C385 0.930 . S
C371 H359 0.930 . S
C371 C372 1.399 . S
C371 C376 1.399 . S
C372 C371 1.399 . S
C372 C373 1.376 . S
C373 H360 0.930 . S
C373 C372 1.376 . S
C373 C374 1.388 . S
C374 H361 0.930 . S
C374 C373 1.388 . S
C374 C375 1.390 . S
C375 C374 1.390 . S
C375 C376 1.394 . S
C375 C381 1.465 1_655 S
C376 C371 1.399 . S
C376 C375 1.394 . S
C376 C377 1.512 1_655 S
C377 C376 1.512 1_455 S
C377 C378 1.502 1_455 S
C377 C379 1.561 . S
C377 C380 1.530 . S
C378 H362 0.959 1_655 S
C378 H363 0.958 1_655 S
C378 H364 0.962 . S
C378 C377 1.502 1_655 S
C379 H365 0.960 1_455 S
C379 H366 0.961 . S
C379 H367 0.959 . S
C379 C377 1.561 . S
C380 C377 1.530 . S
C380 C381 1.396 . S
C380 C385 1.390 . S
C381 C375 1.465 1_455 S
C381 C380 1.396 . S
C381 C382 1.399 . S
C382 H368 0.929 . S
C382 C381 1.399 . S
C382 C383 1.385 . S
C383 H369 0.931 . S
C383 C382 1.385 . S
C383 C384 1.389 . S
C384 C383 1.389 . S
C384 C385 1.387 . S
C385 H370 0.930 . S
C385 C380 1.390 . S
C385 C384 1.387 . S
H386 C398 0.930 . S
H387 C400 0.930 . S
H388 C401 0.930 . S
H389 C405 0.959 . S
H390 C405 0.959 . S
H391 C405 0.961 1_545 S
H392 C406 0.960 1_545 S
H393 C406 0.961 . S
H394 C406 0.959 . S
H395 C409 0.929 . S
H396 C410 0.931 . S
H397 C412 0.930 . S
C398 H386 0.930 . S
C398 C399 1.399 . S
C398 C403 1.399 . S
C399 C398 1.399 . S
C399 C400 1.376 . S
C400 H387 0.930 . S
C400 C399 1.376 . S
C400 C401 1.388 . S
C401 H388 0.930 . S
C401 C400 1.388 . S
C401 C402 1.390 . S
C402 C401 1.390 . S
C402 C403 1.394 . S
C402 C408 1.465 1_545 S
C403 C398 1.399 . S
C403 C402 1.394 . S
C403 C404 1.516 1_545 S
C404 C403 1.516 1_565 S
C404 C405 1.502 . S
C404 C406 1.561 . S
C404 C407 1.526 . S
C405 H389 0.959 . S
C405 H390 0.959 . S
C405 H391 0.961 1_565 S
C405 C404 1.502 . S
C406 H392 0.960 1_565 S
C406 H393 0.961 . S
C406 H394 0.959 . S
C406 C404 1.561 . S
C407 C404 1.526 . S
C407 C408 1.396 . S
C407 C412 1.390 . S
C408 C402 1.465 1_565 S
C408 C407 1.396 . S
C408 C409 1.399 . S
C409 H395 0.929 . S
C409 C408 1.399 . S
C409 C410 1.385 . S
C410 H396 0.931 . S
C410 C409 1.385 . S
C410 C411 1.389 . S
C411 C410 1.389 . S
C411 C412 1.387 . S
C412 H397 0.930 . S
C412 C407 1.390 . S
C412 C411 1.387 . S
H413 C425 0.930 . S
H414 C427 0.930 . S
H415 C428 0.930 . S
H416 C432 0.958 1_655 S
H417 C432 0.933 1_655 S
H418 C432 0.990 . S
H419 C433 0.932 1_455 S
H420 C433 0.986 . S
H421 C433 0.963 . S
H422 C436 0.929 . S
H423 C437 0.931 . S
H424 C439 0.930 . S
C425 H413 0.930 . S
C425 C426 1.399 . S
C425 C430 1.399 . S
C426 C425 1.399 . S
C426 C427 1.376 . S
C427 H414 0.930 . S
C427 C426 1.376 . S
C427 C428 1.388 . S
C428 H415 0.930 . S
C428 C427 1.388 . S
C428 C429 1.390 . S
C429 C428 1.390 . S
C429 C430 1.394 . S
C429 C435 1.465 1_455 S
C430 C425 1.399 . S
C430 C429 1.394 . S
C430 C431 1.519 . S
C431 C430 1.519 . S
C431 C432 1.501 . S
C431 C433 1.561 1_455 S
C431 C434 1.523 1_455 S
C432 H416 0.958 1_455 S
C432 H417 0.933 1_455 S
C432 H418 0.990 . S
C432 C431 1.501 . S
C433 H419 0.932 1_655 S
C433 H420 0.986 . S
C433 H421 0.963 . S
C433 C431 1.561 1_655 S
C434 C431 1.523 1_655 S
C434 C435 1.396 . S
C434 C439 1.390 . S
C435 C429 1.465 1_655 S
C435 C434 1.396 . S
C435 C436 1.399 . S
C436 H422 0.929 . S
C436 C435 1.399 . S
C436 C437 1.385 . S
C437 H423 0.931 . S
C437 C436 1.385 . S
C437 C438 1.389 . S
C438 C437 1.389 . S
C438 C439 1.387 . S
C439 H424 0.930 . S
C439 C434 1.390 . S
C439 C438 1.387 . S
H440 C452 0.930 . S
H441 C454 0.930 . S
H442 C455 0.930 . S
H443 C459 0.959 . S
H444 C459 0.959 . S
H445 C459 0.961 . S
H446 C460 0.960 . S
H447 C460 0.961 . S
H448 C460 0.959 . S
H449 C463 0.929 . S
H450 C464 0.931 . S
H451 C466 0.930 . S
C452 H440 0.930 . S
C452 C453 1.399 1_556 S
C452 C457 1.399 . S
C453 C452 1.399 1_554 S
C453 C454 1.376 . S
C454 H441 0.930 . S
C454 C453 1.376 . S
C454 C455 1.388 . S
C455 H442 0.930 . S
C455 C454 1.388 . S
C455 C456 1.390 . S
C456 C455 1.390 . S
C456 C457 1.394 1_554 S
C456 C462 1.465 . S
C457 C452 1.399 . S
C457 C456 1.394 1_556 S
C457 C458 1.516 . S
C458 C457 1.516 . S
C458 C459 1.502 . S
C458 C460 1.561 . S
C458 C461 1.526 . S
C459 H443 0.959 . S
C459 H444 0.959 . S
C459 H445 0.961 . S
C459 C458 1.502 . S
C460 H446 0.960 . S
C460 H447 0.961 . S
C460 H448 0.959 . S
C460 C458 1.561 . S
C461 C458 1.526 . S
C461 C462 1.396 1_556 S
C461 C466 1.390 . S
C462 C456 1.465 . S
C462 C461 1.396 1_554 S
C462 C463 1.399 . S
C463 H449 0.929 . S
C463 C462 1.399 . S
C463 C464 1.385 . S
C464 H450 0.931 . S
C464 C463 1.385 . S
C464 C465 1.389 . S
C465 C464 1.389 . S
C465 C466 1.387 1_554 S
C466 H451 0.930 . S
C466 C461 1.390 . S
C466 C465 1.387 1_556 S
H467 C479 0.930 . S
H468 C481 0.930 . S
H469 C482 0.930 . S
H470 C486 0.959 . S
H471 C486 0.959 . S
H472 C486 0.961 . S
H473 C487 0.960 . S
H474 C487 0.961 . S
H475 C487 0.959 . S
H476 C490 0.929 . S
H477 C491 0.931 . S
H478 C493 0.930 . S
C479 H467 0.930 . S
C479 C480 1.399 1_556 S
C479 C484 1.399 . S
C480 C479 1.399 1_554 S
C480 C481 1.376 . S
C481 H468 0.930 . S
C481 C480 1.376 . S
C481 C482 1.388 . S
C482 H469 0.930 . S
C482 C481 1.388 . S
C482 C483 1.390 . S
C483 C482 1.390 . S
C483 C484 1.394 1_554 S
C483 C489 1.465 . S
C484 C479 1.399 . S
C484 C483 1.394 1_556 S
C484 C485 1.516 . S
C485 C484 1.516 . S
C485 C486 1.502 . S
C485 C487 1.561 . S
C485 C488 1.526 . S
C486 H470 0.959 . S
C486 H471 0.959 . S
C486 H472 0.961 . S
C486 C485 1.502 . S
C487 H473 0.960 . S
C487 H474 0.961 . S
C487 H475 0.959 . S
C487 C485 1.561 . S
C488 C485 1.526 . S
C488 C489 1.396 1_556 S
C488 C493 1.390 . S
C489 C483 1.465 . S
C489 C488 1.396 1_554 S
C489 C490 1.399 . S
C490 H476 0.929 . S
C490 C489 1.399 . S
C490 C491 1.385 . S
C491 H477 0.931 . S
C491 C490 1.385 . S
C491 C492 1.389 . S
C492 C491 1.389 . S
C492 C493 1.387 1_554 S
C493 H478 0.930 . S
C493 C488 1.390 . S
C493 C492 1.387 1_556 S
H494 C506 0.930 . S
H495 C508 0.930 . S
H496 C509 0.930 . S
H497 C513 0.959 . S
H498 C513 0.959 . S
H499 C513 0.961 . S
H500 C514 0.960 . S
H501 C514 0.961 . S
H502 C514 0.959 . S
H503 C517 0.929 . S
H504 C518 0.931 . S
H505 C520 0.930 . S
C506 H494 0.930 . S
C506 C507 1.399 1_554 S
C506 C511 1.399 . S
C507 C506 1.399 1_556 S
C507 C508 1.376 . S
C508 H495 0.930 . S
C508 C507 1.376 . S
C508 C509 1.388 . S
C509 H496 0.930 . S
C509 C508 1.388 . S
C509 C510 1.390 . S
C510 C509 1.390 . S
C510 C511 1.394 1_556 S
C510 C516 1.465 . S
C511 C506 1.399 . S
C511 C510 1.394 1_554 S
C511 C512 1.516 . S
C512 C511 1.516 . S
C512 C513 1.502 . S
C512 C514 1.561 . S
C512 C515 1.526 . S
C513 H497 0.959 . S
C513 H498 0.959 . S
C513 H499 0.961 . S
C513 C512 1.502 . S
C514 H500 0.960 . S
C514 H501 0.961 . S
C514 H502 0.959 . S
C514 C512 1.561 . S
C515 C512 1.526 . S
C515 C516 1.396 1_554 S
C515 C520 1.390 . S
C516 C510 1.465 . S
C516 C515 1.396 1_556 S
C516 C517 1.399 . S
C517 H503 0.929 . S
C517 C516 1.399 . S
C517 C518 1.385 . S
C518 H504 0.931 . S
C518 C517 1.385 . S
C518 C519 1.389 . S
C519 C518 1.389 . S
C519 C520 1.387 1_556 S
C520 H505 0.930 . S
C520 C515 1.390 . S
C520 C519 1.387 1_554 S
H521 C533 0.930 . S
H522 C535 0.930 . S
H523 C536 0.930 . S
H524 C540 0.959 . S
H525 C540 0.959 . S
H526 C540 0.961 . S
H527 C541 0.960 . S
H528 C541 0.961 . S
H529 C541 0.959 . S
H530 C544 0.929 . S
H531 C545 0.931 . S
H532 C547 0.930 . S
C533 H521 0.930 . S
C533 C534 1.399 1_556 S
C533 C538 1.399 . S
C534 C533 1.399 1_554 S
C534 C535 1.376 . S
C535 H522 0.930 . S
C535 C534 1.376 . S
C535 C536 1.388 . S
C536 H523 0.930 . S
C536 C535 1.388 . S
C536 C537 1.390 . S
C537 C536 1.390 . S
C537 C538 1.394 1_554 S
C537 C543 1.465 . S
C538 C533 1.399 . S
C538 C537 1.394 1_556 S
C538 C539 1.516 . S
C539 C538 1.516 . S
C539 C540 1.502 . S
C539 C541 1.561 . S
C539 C542 1.526 . S
C540 H524 0.959 . S
C540 H525 0.959 . S
C540 H526 0.961 . S
C540 C539 1.502 . S
C541 H527 0.960 . S
C541 H528 0.961 . S
C541 H529 0.959 . S
C541 C539 1.561 . S
C542 C539 1.526 . S
C542 C543 1.396 1_556 S
C542 C547 1.390 . S
C543 C537 1.465 . S
C543 C542 1.396 1_554 S
C543 C544 1.399 . S
C544 H530 0.929 . S
C544 C543 1.399 . S
C544 C545 1.385 . S
C545 H531 0.931 . S
C545 C544 1.385 . S
C545 C546 1.389 . S
C546 C545 1.389 . S
C546 C547 1.387 1_554 S
C547 H532 0.930 . S
C547 C542 1.390 . S
C547 C546 1.387 1_556 S
H548 C560 0.930 . S
H549 C562 0.930 . S
H550 C563 0.930 . S
H551 C567 0.959 . S
H552 C567 0.959 . S
H553 C567 0.961 . S
H554 C568 0.960 . S
H555 C568 0.961 . S
H556 C568 0.959 . S
H557 C571 0.929 . S
H558 C572 0.931 . S
H559 C574 0.930 . S
C560 H548 0.930 . S
C560 C561 1.399 . S
C560 C565 1.399 . S
C561 C560 1.399 . S
C561 C562 1.376 . S
C562 H549 0.930 . S
C562 C561 1.376 . S
C562 C563 1.388 . S
C563 H550 0.930 . S
C563 C562 1.388 . S
C563 C564 1.390 . S
C564 C563 1.390 . S
C564 C565 1.394 . S
C564 C570 1.465 . S
C565 C560 1.399 . S
C565 C564 1.394 . S
C565 C566 1.516 . S
C566 C565 1.516 . S
C566 C567 1.502 . S
C566 C568 1.561 . S
C566 C569 1.526 . S
C567 H551 0.959 . S
C567 H552 0.959 . S
C567 H553 0.961 . S
C567 C566 1.502 . S
C568 H554 0.960 . S
C568 H555 0.961 . S
C568 H556 0.959 . S
C568 C566 1.561 . S
C569 C566 1.526 . S
C569 C570 1.396 . S
C569 C574 1.390 . S
C570 C564 1.465 . S
C570 C569 1.396 . S
C570 C571 1.399 . S
C571 H557 0.929 . S
C571 C570 1.399 . S
C571 C572 1.385 . S
C572 H558 0.931 . S
C572 C571 1.385 . S
C572 C573 1.389 . S
C573 C572 1.389 . S
C573 C574 1.387 . S
C574 H559 0.930 . S
C574 C569 1.390 . S
C574 C573 1.387 . S
H575 C587 0.930 . S
H576 C589 0.930 . S
H577 C590 0.930 . S
H578 C594 0.959 . S
H579 C594 0.959 . S
H580 C594 0.961 . S
H581 C595 0.960 . S
H582 C595 0.961 . S
H583 C595 0.959 . S
H584 C598 0.929 . S
H585 C599 0.931 . S
H586 C601 0.930 . S
C587 H575 0.930 . S
C587 C588 1.399 . S
C587 C592 1.399 . S
C588 C587 1.399 . S
C588 C589 1.376 . S
C589 H576 0.930 . S
C589 C588 1.376 . S
C589 C590 1.388 . S
C590 H577 0.930 . S
C590 C589 1.388 . S
C590 C591 1.390 . S
C591 C590 1.390 . S
C591 C592 1.394 . S
C591 C597 1.465 . S
C592 C587 1.399 . S
C592 C591 1.394 . S
C592 C593 1.516 . S
C593 C592 1.516 . S
C593 C594 1.502 . S
C593 C595 1.561 . S
C593 C596 1.526 . S
C594 H578 0.959 . S
C594 H579 0.959 . S
C594 H580 0.961 . S
C594 C593 1.502 . S
C595 H581 0.960 . S
C595 H582 0.961 . S
C595 H583 0.959 . S
C595 C593 1.561 . S
C596 C593 1.526 . S
C596 C597 1.396 . S
C596 C601 1.390 . S
C597 C591 1.465 . S
C597 C596 1.396 . S
C597 C598 1.399 . S
C598 H584 0.929 . S
C598 C597 1.399 . S
C598 C599 1.385 . S
C599 H585 0.931 . S
C599 C598 1.385 . S
C599 C600 1.389 . S
C600 C599 1.389 . S
C600 C601 1.387 . S
C601 H586 0.930 . S
C601 C596 1.390 . S
C601 C600 1.387 . S
H602 C614 0.930 . S
H603 C616 0.930 . S
H604 C617 0.930 . S
H605 C621 0.959 . S
H606 C621 0.959 . S
H607 C621 0.961 . S
H608 C622 0.960 . S
H609 C622 0.961 . S
H610 C622 0.959 . S
H611 C625 0.929 . S
H612 C626 0.931 . S
H613 C628 0.930 . S
C614 H602 0.930 . S
C614 C615 1.399 . S
C614 C619 1.399 . S
C615 C614 1.399 . S
C615 C616 1.376 . S
C616 H603 0.930 . S
C616 C615 1.376 . S
C616 C617 1.388 . S
C617 H604 0.930 . S
C617 C616 1.388 . S
C617 C618 1.390 . S
C618 C617 1.390 . S
C618 C619 1.394 . S
C618 C624 1.465 . S
C619 C614 1.399 . S
C619 C618 1.394 . S
C619 C620 1.516 . S
C620 C619 1.516 . S
C620 C621 1.502 . S
C620 C622 1.561 . S
C620 C623 1.526 . S
C621 H605 0.959 . S
C621 H606 0.959 . S
C621 H607 0.961 . S
C621 C620 1.502 . S
C622 H608 0.960 . S
C622 H609 0.961 . S
C622 H610 0.959 . S
C622 C620 1.561 . S
C623 C620 1.526 . S
C623 C624 1.396 . S
C623 C628 1.390 . S
C624 C618 1.465 . S
C624 C623 1.396 . S
C624 C625 1.399 . S
C625 H611 0.929 . S
C625 C624 1.399 . S
C625 C626 1.385 . S
C626 H612 0.931 . S
C626 C625 1.385 . S
C626 C627 1.389 . S
C627 C626 1.389 . S
C627 C628 1.387 . S
C628 H613 0.930 . S
C628 C623 1.390 . S
C628 C627 1.387 . S
H629 C641 0.930 . S
H630 C643 0.930 . S
H631 C644 0.930 . S
H632 C648 0.959 . S
H633 C648 0.959 . S
H634 C648 0.961 . S
H635 C649 0.960 . S
H636 C649 0.961 . S
H637 C649 0.959 . S
H638 C652 0.929 . S
H639 C653 0.931 . S
H640 C655 0.930 . S
C641 H629 0.930 . S
C641 C642 1.399 . S
C641 C646 1.399 . S
C642 C641 1.399 . S
C642 C643 1.376 . S
C643 H630 0.930 . S
C643 C642 1.376 . S
C643 C644 1.388 . S
C644 H631 0.930 . S
C644 C643 1.388 . S
C644 C645 1.390 . S
C645 C644 1.390 . S
C645 C646 1.394 . S
C645 C651 1.465 . S
C646 C641 1.399 . S
C646 C645 1.394 . S
C646 C647 1.516 . S
C647 C646 1.516 . S
C647 C648 1.502 . S
C647 C649 1.561 . S
C647 C650 1.526 . S
C648 H632 0.959 . S
C648 H633 0.959 . S
C648 H634 0.961 . S
C648 C647 1.502 . S
C649 H635 0.960 . S
C649 H636 0.961 . S
C649 H637 0.959 . S
C649 C647 1.561 . S
C650 C647 1.526 . S
C650 C651 1.396 . S
C650 C655 1.390 . S
C651 C645 1.465 . S
C651 C650 1.396 . S
C651 C652 1.399 . S
C652 H638 0.929 . S
C652 C651 1.399 . S
C652 C653 1.385 . S
C653 H639 0.931 . S
C653 C652 1.385 . S
C653 C654 1.389 . S
C654 C653 1.389 . S
C654 C655 1.387 . S
C655 H640 0.930 . S
C655 C650 1.390 . S
C655 C654 1.387 . S
H656 C668 0.930 . S
H657 C670 0.930 . S
H658 C671 0.930 . S
H659 C675 0.959 . S
H660 C675 0.959 . S
H661 C675 0.961 . S
H662 C676 0.960 . S
H663 C676 0.961 . S
H664 C676 0.959 . S
H665 C679 0.929 . S
H666 C680 0.931 . S
H667 C682 0.930 . S
C668 H656 0.930 . S
C668 C669 1.399 . S
C668 C673 1.399 . S
C669 C668 1.399 . S
C669 C670 1.376 . S
C670 H657 0.930 . S
C670 C669 1.376 . S
C670 C671 1.388 . S
C671 H658 0.930 . S
C671 C670 1.388 . S
C671 C672 1.390 . S
C672 C671 1.390 . S
C672 C673 1.394 . S
C672 C678 1.465 . S
C673 C668 1.399 . S
C673 C672 1.394 . S
C673 C674 1.516 . S
C674 C673 1.516 . S
C674 C675 1.502 . S
C674 C676 1.561 . S
C674 C677 1.526 . S
C675 H659 0.959 . S
C675 H660 0.959 . S
C675 H661 0.961 . S
C675 C674 1.502 . S
C676 H662 0.960 . S
C676 H663 0.961 . S
C676 H664 0.959 . S
C676 C674 1.561 . S
C677 C674 1.526 . S
C677 C678 1.396 . S
C677 C682 1.390 . S
C678 C672 1.465 . S
C678 C677 1.396 . S
C678 C679 1.399 . S
C679 H665 0.929 . S
C679 C678 1.399 . S
C679 C680 1.385 . S
C680 H666 0.931 . S
C680 C679 1.385 . S
C680 C681 1.389 . S
C681 C680 1.389 . S
C681 C682 1.387 . S
C682 H667 0.930 . S
C682 C677 1.390 . S
C682 C681 1.387 . S
H683 C695 0.930 . S
H684 C697 0.930 . S
H685 C698 0.930 . S
H686 C702 0.959 . S
H687 C702 0.959 . S
H688 C702 0.961 . S
H689 C703 0.960 . S
H690 C703 0.961 . S
H691 C703 0.959 . S
H692 C706 0.929 . S
H693 C707 0.931 . S
H694 C709 0.930 . S
C695 H683 0.930 . S
C695 C696 1.399 . S
C695 C700 1.399 . S
C696 C695 1.399 . S
C696 C697 1.376 . S
C697 H684 0.930 . S
C697 C696 1.376 . S
C697 C698 1.388 . S
C698 H685 0.930 . S
C698 C697 1.388 . S
C698 C699 1.390 . S
C699 C698 1.390 . S
C699 C700 1.394 . S
C699 C705 1.465 . S
C700 C695 1.399 . S
C700 C699 1.394 . S
C700 C701 1.516 . S
C701 C700 1.516 . S
C701 C702 1.502 . S
C701 C703 1.561 . S
C701 C704 1.526 . S
C702 H686 0.959 . S
C702 H687 0.959 . S
C702 H688 0.961 . S
C702 C701 1.502 . S
C703 H689 0.960 . S
C703 H690 0.961 . S
C703 H691 0.959 . S
C703 C701 1.561 . S
C704 C701 1.526 . S
C704 C705 1.396 . S
C704 C709 1.390 . S
C705 C699 1.465 . S
C705 C704 1.396 . S
C705 C706 1.399 . S
C706 H692 0.929 . S
C706 C705 1.399 . S
C706 C707 1.385 . S
C707 H693 0.931 . S
C707 C706 1.385 . S
C707 C708 1.389 . S
C708 C707 1.389 . S
C708 C709 1.387 . S
C709 H694 0.930 . S
C709 C704 1.390 . S
C709 C708 1.387 . S
H710 C722 0.930 . S
H711 C724 0.930 . S
H712 C725 0.930 . S
H713 C729 0.959 . S
H714 C729 0.959 . S
H715 C729 0.961 . S
H716 C730 0.960 . S
H717 C730 0.961 . S
H718 C730 0.959 . S
H719 C733 0.929 . S
H720 C734 0.931 . S
H721 C736 0.930 . S
C722 H710 0.930 . S
C722 C723 1.399 . S
C722 C727 1.399 . S
C723 C722 1.399 . S
C723 C724 1.376 . S
C724 H711 0.930 . S
C724 C723 1.376 . S
C724 C725 1.388 . S
C725 H712 0.930 . S
C725 C724 1.388 . S
C725 C726 1.390 . S
C726 C725 1.390 . S
C726 C727 1.394 . S
C726 C732 1.465 . S
C727 C722 1.399 . S
C727 C726 1.394 . S
C727 C728 1.516 . S
C728 C727 1.516 . S
C728 C729 1.502 . S
C728 C730 1.561 . S
C728 C731 1.526 . S
C729 H713 0.959 . S
C729 H714 0.959 . S
C729 H715 0.961 . S
C729 C728 1.502 . S
C730 H716 0.960 . S
C730 H717 0.961 . S
C730 H718 0.959 . S
C730 C728 1.561 . S
C731 C728 1.526 . S
C731 C732 1.396 . S
C731 C736 1.390 . S
C732 C726 1.465 . S
C732 C731 1.396 . S
C732 C733 1.399 . S
C733 H719 0.929 . S
C733 C732 1.399 . S
C733 C734 1.385 . S
C734 H720 0.931 . S
C734 C733 1.385 . S
C734 C735 1.389 . S
C735 C734 1.389 . S
C735 C736 1.387 . S
C736 H721 0.930 . S
C736 C731 1.390 . S
C736 C735 1.387 . S
H737 C749 0.930 . S
H738 C751 0.930 . S
H739 C752 0.930 . S
H740 C756 0.959 . S
H741 C756 0.959 . S
H742 C756 0.961 . S
H743 C757 0.960 . S
H744 C757 0.961 . S
H745 C757 0.959 . S
H746 C760 0.929 . S
H747 C761 0.931 . S
H748 C763 0.930 . S
C749 H737 0.930 . S
C749 C750 1.399 . S
C749 C754 1.399 . S
C750 C749 1.399 . S
C750 C751 1.376 . S
C751 H738 0.930 . S
C751 C750 1.376 . S
C751 C752 1.388 . S
C752 H739 0.930 . S
C752 C751 1.388 . S
C752 C753 1.390 . S
C753 C752 1.390 . S
C753 C754 1.394 . S
C753 C759 1.465 . S
C754 C749 1.399 . S
C754 C753 1.394 . S
C754 C755 1.516 . S
C755 C754 1.516 . S
C755 C756 1.502 . S
C755 C757 1.561 . S
C755 C758 1.526 . S
C756 H740 0.959 . S
C756 H741 0.959 . S
C756 H742 0.961 . S
C756 C755 1.502 . S
C757 H743 0.960 . S
C757 H744 0.961 . S
C757 H745 0.959 . S
C757 C755 1.561 . S
C758 C755 1.526 . S
C758 C759 1.396 . S
C758 C763 1.390 . S
C759 C753 1.465 . S
C759 C758 1.396 . S
C759 C760 1.399 . S
C760 H746 0.929 . S
C760 C759 1.399 . S
C760 C761 1.385 . S
C761 H747 0.931 . S
C761 C760 1.385 . S
C761 C762 1.389 . S
C762 C761 1.389 . S
C762 C763 1.387 . S
C763 H748 0.930 . S
C763 C758 1.390 . S
C763 C762 1.387 . S
H764 C776 0.930 . S
H765 C778 0.930 . S
H766 C779 0.930 . S
H767 C783 0.959 . S
H768 C783 0.959 . S
H769 C783 0.961 . S
H770 C784 0.960 . S
H771 C784 0.961 . S
H772 C784 0.959 . S
H773 C787 0.929 . S
H774 C788 0.931 . S
H775 C790 0.930 . S
C776 H764 0.930 . S
C776 C777 1.399 . S
C776 C781 1.399 . S
C777 C776 1.399 . S
C777 C778 1.376 . S
C778 H765 0.930 . S
C778 C777 1.376 . S
C778 C779 1.388 . S
C779 H766 0.930 . S
C779 C778 1.388 . S
C779 C780 1.390 . S
C780 C779 1.390 . S
C780 C781 1.394 . S
C780 C786 1.465 . S
C781 C776 1.399 . S
C781 C780 1.394 . S
C781 C782 1.516 . S
C782 C781 1.516 . S
C782 C783 1.502 . S
C782 C784 1.561 . S
C782 C785 1.526 . S
C783 H767 0.959 . S
C783 H768 0.959 . S
C783 H769 0.961 . S
C783 C782 1.502 . S
C784 H770 0.960 . S
C784 H771 0.961 . S
C784 H772 0.959 . S
C784 C782 1.561 . S
C785 C782 1.526 . S
C785 C786 1.396 . S
C785 C790 1.390 . S
C786 C780 1.465 . S
C786 C785 1.396 . S
C786 C787 1.399 . S
C787 H773 0.929 . S
C787 C786 1.399 . S
C787 C788 1.385 . S
C788 H774 0.931 . S
C788 C787 1.385 . S
C788 C789 1.389 . S
C789 C788 1.389 . S
C789 C790 1.387 . S
C790 H775 0.930 . S
C790 C785 1.390 . S
C790 C789 1.387 . S
H791 C803 0.930 . S
H792 C805 0.930 . S
H793 C806 0.930 . S
H794 C810 0.959 . S
H795 C810 0.959 . S
H796 C810 0.961 . S
H797 C811 0.960 . S
H798 C811 0.961 . S
H799 C811 0.959 . S
H800 C814 0.929 . S
H801 C815 0.931 . S
H802 C817 0.930 . S
C803 H791 0.930 . S
C803 C804 1.399 . S
C803 C808 1.399 . S
C804 C803 1.399 . S
C804 C805 1.376 . S
C805 H792 0.930 . S
C805 C804 1.376 . S
C805 C806 1.388 . S
C806 H793 0.930 . S
C806 C805 1.388 . S
C806 C807 1.390 . S
C807 C806 1.390 . S
C807 C808 1.394 . S
C807 C813 1.465 . S
C808 C803 1.399 . S
C808 C807 1.394 . S
C808 C809 1.516 . S
C809 C808 1.516 . S
C809 C810 1.502 . S
C809 C811 1.561 . S
C809 C812 1.526 . S
C810 H794 0.959 . S
C810 H795 0.959 . S
C810 H796 0.961 . S
C810 C809 1.502 . S
C811 H797 0.960 . S
C811 H798 0.961 . S
C811 H799 0.959 . S
C811 C809 1.561 . S
C812 C809 1.526 . S
C812 C813 1.396 . S
C812 C817 1.390 . S
C813 C807 1.465 . S
C813 C812 1.396 . S
C813 C814 1.399 . S
C814 H800 0.929 . S
C814 C813 1.399 . S
C814 C815 1.385 . S
C815 H801 0.931 . S
C815 C814 1.385 . S
C815 C816 1.389 . S
C816 C815 1.389 . S
C816 C817 1.387 . S
C817 H802 0.930 . S
C817 C812 1.390 . S
C817 C816 1.387 . S
H818 C830 0.930 . S
H819 C832 0.930 . S
H820 C833 0.930 . S
H821 C837 0.959 . S
H822 C837 0.959 . S
H823 C837 0.961 . S
H824 C838 0.960 . S
H825 C838 0.961 . S
H826 C838 0.959 . S
H827 C841 0.929 . S
H828 C842 0.931 . S
H829 C844 0.930 . S
C830 H818 0.930 . S
C830 C831 1.399 . S
C830 C835 1.399 . S
C831 C830 1.399 . S
C831 C832 1.376 . S
C832 H819 0.930 . S
C832 C831 1.376 . S
C832 C833 1.388 . S
C833 H820 0.930 . S
C833 C832 1.388 . S
C833 C834 1.390 . S
C834 C833 1.390 . S
C834 C835 1.394 . S
C834 C840 1.465 . S
C835 C830 1.399 . S
C835 C834 1.394 . S
C835 C836 1.516 . S
C836 C835 1.516 . S
C836 C837 1.502 . S
C836 C838 1.561 . S
C836 C839 1.526 . S
C837 H821 0.959 . S
C837 H822 0.959 . S
C837 H823 0.961 . S
C837 C836 1.502 . S
C838 H824 0.960 . S
C838 H825 0.961 . S
C838 H826 0.959 . S
C838 C836 1.561 . S
C839 C836 1.526 . S
C839 C840 1.396 . S
C839 C844 1.390 . S
C840 C834 1.465 . S
C840 C839 1.396 . S
C840 C841 1.399 . S
C841 H827 0.929 . S
C841 C840 1.399 . S
C841 C842 1.385 . S
C842 H828 0.931 . S
C842 C841 1.385 . S
C842 C843 1.389 . S
C843 C842 1.389 . S
C843 C844 1.387 . S
C844 H829 0.930 . S
C844 C839 1.390 . S
C844 C843 1.387 . S
H845 C857 0.930 . S
H846 C859 0.930 . S
H847 C860 0.930 . S
H848 C864 0.959 . S
H849 C864 0.959 . S
H850 C864 0.961 . S
H851 C865 0.960 . S
H852 C865 0.961 . S
H853 C865 0.959 . S
H854 C868 0.929 . S
H855 C869 0.931 . S
H856 C871 0.930 . S
C857 H845 0.930 . S
C857 C858 1.399 . S
C857 C862 1.399 . S
C858 C857 1.399 . S
C858 C859 1.376 . S
C859 H846 0.930 . S
C859 C858 1.376 . S
C859 C860 1.388 . S
C860 H847 0.930 . S
C860 C859 1.388 . S
C860 C861 1.390 . S
C861 C860 1.390 . S
C861 C862 1.394 . S
C861 C867 1.465 . S
C862 C857 1.399 . S
C862 C861 1.394 . S
C862 C863 1.516 . S
C863 C862 1.516 . S
C863 C864 1.502 . S
C863 C865 1.561 . S
C863 C866 1.526 . S
C864 H848 0.959 . S
C864 H849 0.959 . S
C864 H850 0.961 . S
C864 C863 1.502 . S
C865 H851 0.960 . S
C865 H852 0.961 . S
C865 H853 0.959 . S
C865 C863 1.561 . S
C866 C863 1.526 . S
C866 C867 1.396 . S
C866 C871 1.390 . S
C867 C861 1.465 . S
C867 C866 1.396 . S
C867 C868 1.399 . S
C868 H854 0.929 . S
C868 C867 1.399 . S
C868 C869 1.385 . S
C869 H855 0.931 . S
C869 C868 1.385 . S
C869 C870 1.389 . S
C870 C869 1.389 . S
C870 C871 1.387 . S
C871 H856 0.930 . S
C871 C866 1.390 . S
C871 C870 1.387 . S
H872 C884 0.930 . S
H873 C886 0.930 . S
H874 C887 0.930 . S
H875 C891 0.959 . S
H876 C891 0.959 . S
H877 C891 0.961 . S
H878 C892 0.960 . S
H879 C892 0.961 . S
H880 C892 0.959 . S
H881 C895 0.929 . S
H882 C896 0.931 . S
H883 C898 0.930 . S
C884 H872 0.930 . S
C884 C885 1.399 . S
C884 C889 1.399 . S
C885 C884 1.399 . S
C885 C886 1.376 . S
C886 H873 0.930 . S
C886 C885 1.376 . S
C886 C887 1.388 . S
C887 H874 0.930 . S
C887 C886 1.388 . S
C887 C888 1.390 . S
C888 C887 1.390 . S
C888 C889 1.394 . S
C888 C894 1.465 . S
C889 C884 1.399 . S
C889 C888 1.394 . S
C889 C890 1.516 . S
C890 C889 1.516 . S
C890 C891 1.502 . S
C890 C892 1.561 . S
C890 C893 1.526 . S
C891 H875 0.959 . S
C891 H876 0.959 . S
C891 H877 0.961 . S
C891 C890 1.502 . S
C892 H878 0.960 . S
C892 H879 0.961 . S
C892 H880 0.959 . S
C892 C890 1.561 . S
C893 C890 1.526 . S
C893 C894 1.396 . S
C893 C898 1.390 . S
C894 C888 1.465 . S
C894 C893 1.396 . S
C894 C895 1.399 . S
C895 H881 0.929 . S
C895 C894 1.399 . S
C895 C896 1.385 . S
C896 H882 0.931 . S
C896 C895 1.385 . S
C896 C897 1.389 . S
C897 C896 1.389 . S
C897 C898 1.387 . S
C898 H883 0.930 . S
C898 C893 1.390 . S
C898 C897 1.387 . S
H899 C911 0.930 . S
H900 C913 0.930 . S
H901 C914 0.930 . S
H902 C918 0.959 . S
H903 C918 0.959 . S
H904 C918 0.961 . S
H905 C919 0.960 . S
H906 C919 0.961 . S
H907 C919 0.959 . S
H908 C922 0.929 . S
H909 C923 0.931 . S
H910 C925 0.930 . S
C911 H899 0.930 . S
C911 C912 1.399 . S
C911 C916 1.399 . S
C912 C911 1.399 . S
C912 C913 1.376 . S
C913 H900 0.930 . S
C913 C912 1.376 . S
C913 C914 1.388 . S
C914 H901 0.930 . S
C914 C913 1.388 . S
C914 C915 1.390 . S
C915 C914 1.390 . S
C915 C916 1.394 . S
C915 C921 1.465 . S
C916 C911 1.399 . S
C916 C915 1.394 . S
C916 C917 1.516 . S
C917 C916 1.516 . S
C917 C918 1.502 . S
C917 C919 1.561 . S
C917 C920 1.526 . S
C918 H902 0.959 . S
C918 H903 0.959 . S
C918 H904 0.961 . S
C918 C917 1.502 . S
C919 H905 0.960 . S
C919 H906 0.961 . S
C919 H907 0.959 . S
C919 C917 1.561 . S
C920 C917 1.526 . S
C920 C921 1.396 . S
C920 C925 1.390 . S
C921 C915 1.465 . S
C921 C920 1.396 . S
C921 C922 1.399 . S
C922 H908 0.929 . S
C922 C921 1.399 . S
C922 C923 1.385 . S
C923 H909 0.931 . S
C923 C922 1.385 . S
C923 C924 1.389 . S
C924 C923 1.389 . S
C924 C925 1.387 . S
C925 H910 0.930 . S
C925 C920 1.390 . S
C925 C924 1.387 . S
H926 C938 0.930 . S
H927 C940 0.930 . S
H928 C941 0.930 . S
H929 C945 0.959 . S
H930 C945 0.959 . S
H931 C945 0.961 . S
H932 C946 0.960 . S
H933 C946 0.961 . S
H934 C946 0.959 . S
H935 C949 0.929 . S
H936 C950 0.931 . S
H937 C952 0.930 . S
C938 H926 0.930 . S
C938 C939 1.399 . S
C938 C943 1.399 . S
C939 C938 1.399 . S
C939 C940 1.376 . S
C940 H927 0.930 . S
C940 C939 1.376 . S
C940 C941 1.388 . S
C941 H928 0.930 . S
C941 C940 1.388 . S
C941 C942 1.390 . S
C942 C941 1.390 . S
C942 C943 1.394 . S
C942 C948 1.465 . S
C943 C938 1.399 . S
C943 C942 1.394 . S
C943 C944 1.516 . S
C944 C943 1.516 . S
C944 C945 1.502 . S
C944 C946 1.561 . S
C944 C947 1.526 . S
C945 H929 0.959 . S
C945 H930 0.959 . S
C945 H931 0.961 . S
C945 C944 1.502 . S
C946 H932 0.960 . S
C946 H933 0.961 . S
C946 H934 0.959 . S
C946 C944 1.561 . S
C947 C944 1.526 . S
C947 C948 1.396 . S
C947 C952 1.390 . S
C948 C942 1.465 . S
C948 C947 1.396 . S
C948 C949 1.399 . S
C949 H935 0.929 . S
C949 C948 1.399 . S
C949 C950 1.385 . S
C950 H936 0.931 . S
C950 C949 1.385 . S
C950 C951 1.389 . S
C951 C950 1.389 . S
C951 C952 1.387 . S
C952 H937 0.930 . S
C952 C947 1.390 . S
C952 C951 1.387 . S
H953 C965 0.930 . S
H954 C967 0.930 . S
H955 C968 0.930 . S
H956 C972 0.959 . S
H957 C972 0.959 . S
H958 C972 0.961 . S
H959 C973 0.960 . S
H960 C973 0.961 . S
H961 C973 0.959 . S
H962 C976 0.929 . S
H963 C977 0.931 . S
H964 C979 0.930 . S
C965 H953 0.930 . S
C965 C966 1.399 . S
C965 C970 1.399 . S
C966 C965 1.399 . S
C966 C967 1.376 . S
C967 H954 0.930 . S
C967 C966 1.376 . S
C967 C968 1.388 . S
C968 H955 0.930 . S
C968 C967 1.388 . S
C968 C969 1.390 . S
C969 C968 1.390 . S
C969 C970 1.394 . S
C969 C975 1.465 . S
C970 C965 1.399 . S
C970 C969 1.394 . S
C970 C971 1.516 . S
C971 C970 1.516 . S
C971 C972 1.502 . S
C971 C973 1.561 . S
C971 C974 1.526 . S
C972 H956 0.959 . S
C972 H957 0.959 . S
C972 H958 0.961 . S
C972 C971 1.502 . S
C973 H959 0.960 . S
C973 H960 0.961 . S
C973 H961 0.959 . S
C973 C971 1.561 . S
C974 C971 1.526 . S
C974 C975 1.396 . S
C974 C979 1.390 . S
C975 C969 1.465 . S
C975 C974 1.396 . S
C975 C976 1.399 . S
C976 H962 0.929 . S
C976 C975 1.399 . S
C976 C977 1.385 . S
C977 H963 0.931 . S
C977 C976 1.385 . S
C977 C978 1.389 . S
C978 C977 1.389 . S
C978 C979 1.387 . S
C979 H964 0.930 . S
C979 C974 1.390 . S
C979 C978 1.387 . S
H980 C992 0.930 . S
H981 C994 0.930 . S
H982 C995 0.930 . S
H983 C999 0.959 . S
H984 C999 0.959 . S
H985 C999 0.961 . S
H986 C1000 0.960 . S
H987 C1000 0.961 . S
H988 C1000 0.959 . S
H989 C1003 0.929 . S
H990 C1004 0.931 . S
H991 C1006 0.930 . S
C992 H980 0.930 . S
C992 C993 1.399 . S
C992 C997 1.399 . S
C993 C992 1.399 . S
C993 C994 1.376 . S
C994 H981 0.930 . S
C994 C993 1.376 . S
C994 C995 1.388 . S
C995 H982 0.930 . S
C995 C994 1.388 . S
C995 C996 1.390 . S
C996 C995 1.390 . S
C996 C997 1.394 . S
C996 C1002 1.465 . S
C997 C992 1.399 . S
C997 C996 1.394 . S
C997 C998 1.516 . S
C998 C997 1.516 . S
C998 C999 1.502 . S
C998 C1000 1.561 . S
C998 C1001 1.526 . S
C999 H983 0.959 . S
C999 H984 0.959 . S
C999 H985 0.961 . S
C999 C998 1.502 . S
C1000 H986 0.960 . S
C1000 H987 0.961 . S
C1000 H988 0.959 . S
C1000 C998 1.561 . S
C1001 C998 1.526 . S
C1001 C1002 1.396 . S
C1001 C1006 1.390 . S
C1002 C996 1.465 . S
C1002 C1001 1.396 . S
C1002 C1003 1.399 . S
C1003 H989 0.929 . S
C1003 C1002 1.399 . S
C1003 C1004 1.385 . S
C1004 H990 0.931 . S
C1004 C1003 1.385 . S
C1004 C1005 1.389 . S
C1005 C1004 1.389 . S
C1005 C1006 1.387 . S
C1006 H991 0.930 . S
C1006 C1001 1.390 . S
C1006 C1005 1.387 . S
H1007 C1019 0.930 . S
H1008 C1021 0.930 . S
H1009 C1022 0.930 . S
H1010 C1026 0.959 . S
H1011 C1026 0.959 . S
H1012 C1026 0.961 . S
H1013 C1027 0.960 . S
H1014 C1027 0.961 . S
H1015 C1027 0.959 . S
H1016 C1030 0.929 . S
H1017 C1031 0.931 . S
H1018 C1033 0.930 . S
C1019 H1007 0.930 . S
C1019 C1020 1.399 . S
C1019 C1024 1.399 . S
C1020 C1019 1.399 . S
C1020 C1021 1.376 . S
C1021 H1008 0.930 . S
C1021 C1020 1.376 . S
C1021 C1022 1.388 . S
C1022 H1009 0.930 . S
C1022 C1021 1.388 . S
C1022 C1023 1.390 . S
C1023 C1022 1.390 . S
C1023 C1024 1.394 . S
C1023 C1029 1.465 . S
C1024 C1019 1.399 . S
C1024 C1023 1.394 . S
C1024 C1025 1.516 . S
C1025 C1024 1.516 . S
C1025 C1026 1.502 . S
C1025 C1027 1.561 . S
C1025 C1028 1.526 . S
C1026 H1010 0.959 . S
C1026 H1011 0.959 . S
C1026 H1012 0.961 . S
C1026 C1025 1.502 . S
C1027 H1013 0.960 . S
C1027 H1014 0.961 . S
C1027 H1015 0.959 . S
C1027 C1025 1.561 . S
C1028 C1025 1.526 . S
C1028 C1029 1.396 . S
C1028 C1033 1.390 . S
C1029 C1023 1.465 . S
C1029 C1028 1.396 . S
C1029 C1030 1.399 . S
C1030 H1016 0.929 . S
C1030 C1029 1.399 . S
C1030 C1031 1.385 . S
C1031 H1017 0.931 . S
C1031 C1030 1.385 . S
C1031 C1032 1.389 . S
C1032 C1031 1.389 . S
C1032 C1033 1.387 . S
C1033 H1018 0.930 . S
C1033 C1028 1.390 . S
C1033 C1032 1.387 . S
H1034 C1046 0.930 . S
H1035 C1048 0.930 . S
H1036 C1049 0.930 . S
H1037 C1053 0.959 . S
H1038 C1053 0.959 . S
H1039 C1053 0.961 . S
H1040 C1054 0.960 . S
H1041 C1054 0.961 . S
H1042 C1054 0.959 . S
H1043 C1057 0.929 . S
H1044 C1058 0.931 . S
H1045 C1060 0.930 . S
C1046 H1034 0.930 . S
C1046 C1047 1.399 . S
C1046 C1051 1.399 . S
C1047 C1046 1.399 . S
C1047 C1048 1.376 . S
C1048 H1035 0.930 . S
C1048 C1047 1.376 . S
C1048 C1049 1.388 . S
C1049 H1036 0.930 . S
C1049 C1048 1.388 . S
C1049 C1050 1.390 . S
C1050 C1049 1.390 . S
C1050 C1051 1.394 . S
C1050 C1056 1.465 . S
C1051 C1046 1.399 . S
C1051 C1050 1.394 . S
C1051 C1052 1.516 . S
C1052 C1051 1.516 . S
C1052 C1053 1.502 . S
C1052 C1054 1.561 . S
C1052 C1055 1.526 . S
C1053 H1037 0.959 . S
C1053 H1038 0.959 . S
C1053 H1039 0.961 . S
C1053 C1052 1.502 . S
C1054 H1040 0.960 . S
C1054 H1041 0.961 . S
C1054 H1042 0.959 . S
C1054 C1052 1.561 . S
C1055 C1052 1.526 . S
C1055 C1056 1.396 . S
C1055 C1060 1.390 . S
C1056 C1050 1.465 . S
C1056 C1055 1.396 . S
C1056 C1057 1.399 . S
C1057 H1043 0.929 . S
C1057 C1056 1.399 . S
C1057 C1058 1.385 . S
C1058 H1044 0.931 . S
C1058 C1057 1.385 . S
C1058 C1059 1.389 . S
C1059 C1058 1.389 . S
C1059 C1060 1.387 . S
C1060 H1045 0.930 . S
C1060 C1055 1.390 . S
C1060 C1059 1.387 . S
H1061 C1073 0.930 . S
H1062 C1075 0.930 . S
H1063 C1076 0.930 . S
H1064 C1080 0.959 . S
H1065 C1080 0.959 . S
H1066 C1080 0.961 . S
H1067 C1081 0.960 . S
H1068 C1081 0.961 . S
H1069 C1081 0.959 . S
H1070 C1084 0.929 . S
H1071 C1085 0.931 . S
H1072 C1087 0.930 . S
C1073 H1061 0.930 . S
C1073 C1074 1.399 . S
C1073 C1078 1.399 . S
C1074 C1073 1.399 . S
C1074 C1075 1.376 . S
C1075 H1062 0.930 . S
C1075 C1074 1.376 . S
C1075 C1076 1.388 . S
C1076 H1063 0.930 . S
C1076 C1075 1.388 . S
C1076 C1077 1.390 . S
C1077 C1076 1.390 . S
C1077 C1078 1.394 . S
C1077 C1083 1.465 . S
C1078 C1073 1.399 . S
C1078 C1077 1.394 . S
C1078 C1079 1.516 . S
C1079 C1078 1.516 . S
C1079 C1080 1.502 . S
C1079 C1081 1.561 . S
C1079 C1082 1.526 . S
C1080 H1064 0.959 . S
C1080 H1065 0.959 . S
C1080 H1066 0.961 . S
C1080 C1079 1.502 . S
C1081 H1067 0.960 . S
C1081 H1068 0.961 . S
C1081 H1069 0.959 . S
C1081 C1079 1.561 . S
C1082 C1079 1.526 . S
C1082 C1083 1.396 . S
C1082 C1087 1.390 . S
C1083 C1077 1.465 . S
C1083 C1082 1.396 . S
C1083 C1084 1.399 . S
C1084 H1070 0.929 . S
C1084 C1083 1.399 . S
C1084 C1085 1.385 . S
C1085 H1071 0.931 . S
C1085 C1084 1.385 . S
C1085 C1086 1.389 . S
C1086 C1085 1.389 . S
C1086 C1087 1.387 . S
C1087 H1072 0.930 . S
C1087 C1082 1.390 . S
C1087 C1086 1.387 . S
C237 C67 1.182 . S
C249 C11 1.196 . S
C264 C81 1.188 . S
C276 C25 1.191 . S
C291 C95 1.171 . S
C303 C39 1.200 1_554 S
C318 C109 1.203 . S
C330 C53 1.176 . S
C345 C179 1.172 . S
C357 C123 1.205 . S
C372 C193 1.180 . S
C384 C137 1.192 . S
C399 C151 1.204 . S
C411 C207 1.170 . S
C426 C221 1.174 . S
C438 C165 1.199 . S
C453 C4 1.124 1_554 S
C465 C74 1.080 . S
C480 C88 1.070 . S
C492 C18 1.128 1_554 S
C507 C32 1.069 . S
C519 C102 1.129 1_556 S
C534 C60 1.072 . S
C546 C46 1.126 1_554 S
C561 C186 1.087 . S
C573 C116 1.111 . S
C588 C200 1.066 . S
C600 C130 1.132 . S
C615 C144 1.133 . S
C627 C214 1.070 . S
C642 C158 1.068 . S
C654 C172 1.130 . S
C669 C215 1.267 . S
C681 C5 1.257 . S
C696 C173 1.192 . S
C708 C19 1.256 . S
C723 C187 1.250 . S
C735 C33 1.269 . S
C750 C201 1.230 . S
C762 C47 1.157 . S
C777 C131 1.125 . S
C789 C61 1.121 . S
C804 C145 1.234 . S
C816 C75 1.162 . S
C831 C89 1.169 . S
C843 C159 1.241 . S
C858 C103 1.112 . S
C870 C117 1.153 . S
C885 C194 1.667 . S
C897 C40 1.677 . S
C912 C208 1.672 . S
C924 C54 1.677 . S
C939 C222 1.677 . S
C951 C12 1.669 . S
C966 C26 1.665 . S
C978 C180 1.676 . S
C993 C166 1.676 . S
C1005 C96 1.675 . S
C1020 C110 1.666 . S
C1032 C124 1.677 . S
C1047 C138 1.676 . S
C1059 C68 1.675 . S
C1074 C152 1.676 . S
C1086 C82 1.674 . S
