# Generated by pormake.
# Topology bcu-j, (5)-cn, num edge types: 1
# Building blocks:
#     Node 0, Type 0, BuildingBlock: XOMCOT_clean_sbu_0, # of connection points: 5
#     Node 1, Type 0, BuildingBlock: XOMCOT_clean_sbu_0, # of connection points: 5
#     Node 2, Type 0, BuildingBlock: XOMCOT_clean_sbu_0, # of connection points: 5
#     Node 3, Type 0, BuildingBlock: XOMCOT_clean_sbu_0, # of connection points: 5
#     Node 4, Type 0, BuildingBlock: XOMCOT_clean_sbu_0, # of connection points: 5
#     Node 5, Type 0, BuildingBlock: XOMCOT_clean_sbu_0, # of connection points: 5
#     Node 6, Type 0, BuildingBlock: XOMCOT_clean_sbu_0, # of connection points: 5
#     Node 7, Type 0, BuildingBlock: XOMCOT_clean_sbu_0, # of connection points: 5
#     Node 8, Type 0, BuildingBlock: XOMCOT_clean_sbu_0, # of connection points: 5
#     Node 9, Type 0, BuildingBlock: XOMCOT_clean_sbu_0, # of connection points: 5
#     Node 10, Type 0, BuildingBlock: XOMCOT_clean_sbu_0, # of connection points: 5
#     Node 11, Type 0, BuildingBlock: XOMCOT_clean_sbu_0, # of connection points: 5
#     Node 12, Type 0, BuildingBlock: XOMCOT_clean_sbu_0, # of connection points: 5
#     Node 13, Type 0, BuildingBlock: XOMCOT_clean_sbu_0, # of connection points: 5
#     Node 14, Type 0, BuildingBlock: XOMCOT_clean_sbu_0, # of connection points: 5
#     Node 15, Type 0, BuildingBlock: XOMCOT_clean_sbu_0, # of connection points: 5
#     Edge 16, Type (0, 0), BuildingBlock: XUDNAN_clean_linker_2, # of connection points: 2
#     Edge 17, Type (0, 0), BuildingBlock: XUDNAN_clean_linker_2, # of connection points: 2
#     Edge 18, Type (0, 0), BuildingBlock: XUDNAN_clean_linker_2, # of connection points: 2
#     Edge 19, Type (0, 0), BuildingBlock: XUDNAN_clean_linker_2, # of connection points: 2
#     Edge 20, Type (0, 0), BuildingBlock: XUDNAN_clean_linker_2, # of connection points: 2
#     Edge 21, Type (0, 0), BuildingBlock: XUDNAN_clean_linker_2, # of connection points: 2
#     Edge 22, Type (0, 0), BuildingBlock: XUDNAN_clean_linker_2, # of connection points: 2
#     Edge 23, Type (0, 0), BuildingBlock: XUDNAN_clean_linker_2, # of connection points: 2
#     Edge 24, Type (0, 0), BuildingBlock: XUDNAN_clean_linker_2, # of connection points: 2
#     Edge 25, Type (0, 0), BuildingBlock: XUDNAN_clean_linker_2, # of connection points: 2
#     Edge 26, Type (0, 0), BuildingBlock: XUDNAN_clean_linker_2, # of connection points: 2
#     Edge 27, Type (0, 0), BuildingBlock: XUDNAN_clean_linker_2, # of connection points: 2
#     Edge 28, Type (0, 0), BuildingBlock: XUDNAN_clean_linker_2, # of connection points: 2
#     Edge 29, Type (0, 0), BuildingBlock: XUDNAN_clean_linker_2, # of connection points: 2
#     Edge 30, Type (0, 0), BuildingBlock: XUDNAN_clean_linker_2, # of connection points: 2
#     Edge 31, Type (0, 0), BuildingBlock: XUDNAN_clean_linker_2, # of connection points: 2
#     Edge 32, Type (0, 0), BuildingBlock: XUDNAN_clean_linker_2, # of connection points: 2
#     Edge 33, Type (0, 0), BuildingBlock: XUDNAN_clean_linker_2, # of connection points: 2
#     Edge 34, Type (0, 0), BuildingBlock: XUDNAN_clean_linker_2, # of connection points: 2
#     Edge 35, Type (0, 0), BuildingBlock: XUDNAN_clean_linker_2, # of connection points: 2
#     Edge 36, Type (0, 0), BuildingBlock: XUDNAN_clean_linker_2, # of connection points: 2
#     Edge 37, Type (0, 0), BuildingBlock: XUDNAN_clean_linker_2, # of connection points: 2
#     Edge 38, Type (0, 0), BuildingBlock: XUDNAN_clean_linker_2, # of connection points: 2
#     Edge 39, Type (0, 0), BuildingBlock: XUDNAN_clean_linker_2, # of connection points: 2
#     Edge 40, Type (0, 0), BuildingBlock: XUDNAN_clean_linker_2, # of connection points: 2
#     Edge 41, Type (0, 0), BuildingBlock: XUDNAN_clean_linker_2, # of connection points: 2
#     Edge 42, Type (0, 0), BuildingBlock: XUDNAN_clean_linker_2, # of connection points: 2
#     Edge 43, Type (0, 0), BuildingBlock: XUDNAN_clean_linker_2, # of connection points: 2
#     Edge 44, Type (0, 0), BuildingBlock: XUDNAN_clean_linker_2, # of connection points: 2
#     Edge 45, Type (0, 0), BuildingBlock: XUDNAN_clean_linker_2, # of connection points: 2
#     Edge 46, Type (0, 0), BuildingBlock: XUDNAN_clean_linker_2, # of connection points: 2
#     Edge 47, Type (0, 0), BuildingBlock: XUDNAN_clean_linker_2, # of connection points: 2
#     Edge 48, Type (0, 0), BuildingBlock: XUDNAN_clean_linker_2, # of connection points: 2
#     Edge 49, Type (0, 0), BuildingBlock: XUDNAN_clean_linker_2, # of connection points: 2
#     Edge 50, Type (0, 0), BuildingBlock: XUDNAN_clean_linker_2, # of connection points: 2
#     Edge 51, Type (0, 0), BuildingBlock: XUDNAN_clean_linker_2, # of connection points: 2
#     Edge 52, Type (0, 0), BuildingBlock: XUDNAN_clean_linker_2, # of connection points: 2
#     Edge 53, Type (0, 0), BuildingBlock: XUDNAN_clean_linker_2, # of connection points: 2
#     Edge 54, Type (0, 0), BuildingBlock: XUDNAN_clean_linker_2, # of connection points: 2
#     Edge 55, Type (0, 0), BuildingBlock: XUDNAN_clean_linker_2, # of connection points: 2
# Relax obj value: 0.623
# Max RMSD: 0.318
# Mean RMSD: 0.317
data_MOF--net-bcu-j--node1-XOMCOT_clean_sbu_0--edge1-XUDNAN_clean_linker_2
_symmetry_space_group_name_H-M    P1
_symmetry_Int_Tables_number       1
_symmetry_cell_setting            triclinic
loop_
_symmetry_equiv_pos_as_xyz
'x, y, z'
_cell_length_a     41.253005
_cell_length_b     41.494076
_cell_length_c     49.470782
_cell_angle_alpha  89.786204
_cell_angle_beta   90.270338
_cell_angle_gamma 89.969659
loop_
_atom_site_label
_atom_site_type_symbol
_atom_site_fract_x
_atom_site_fract_y
_atom_site_fract_z
_atom_type_partial_charge
Co0 Co 0.97085 0.13613 0.62526 0.0
C1 C 0.0301 0.1024 0.60535 0.0
C2 C 0.01725 0.14354 0.58112 0.0
C3 C 0.0455 0.13055 0.57113 0.0
N4 N 0.0074 0.12571 0.60238 0.0
N5 N 0.05352 0.10493 0.58654 0.0
H6 H 0.03009 0.08425 0.62108 0.0
H7 H 0.00514 0.16503 0.57386 0.0
C8 C 0.99177 0.20021 0.63416 0.0
O9 O 0.97047 0.20442 0.61463 0.0
N10 N 0.93451 0.14787 0.64756 0.0
C11 C 0.90496 0.15624 0.63824 0.0
C12 C 0.88769 0.16995 0.65898 0.0
C13 C 0.93488 0.15663 0.67377 0.0
N14 N 0.9067 0.17049 0.68124 0.0
C15 C 0.92804 0.08359 0.61608 0.0
C16 C 0.93662 0.08456 0.56075 0.0
C17 C 0.92731 0.05569 0.57355 0.0
C18 C 0.91958 0.05655 0.60109 0.0
C19 C 0.94406 0.11132 0.57649 0.0
N20 N 0.94315 0.10895 0.60388 0.0
H21 H 0.9257 0.08273 0.63782 0.0
H22 H 0.9543 0.13245 0.56701 0.0
H23 H 0.89731 0.15463 0.61735 0.0
H24 H 0.95594 0.15475 0.68671 0.0
O25 O 0.98179 0.09994 0.6499 0.0
O26 O 0.00353 0.14542 0.65556 0.0
O27 O 0.99706 0.17147 0.64305 0.0
C28 C 0.00199 0.11586 0.66348 0.0
H29 H 0.05983 0.13998 0.55462 0.0
H30 H 0.86405 0.18107 0.65712 0.0
H31 H 0.94228 0.08543 0.53941 0.0
H32 H 0.911 0.03523 0.61153 0.0
Co33 Co 0.33644 0.03448 0.62937 0.0
C34 C 0.37113 0.09277 0.61364 0.0
C35 C 0.32173 0.10306 0.6236 0.0
C36 C 0.33876 0.13157 0.62292 0.0
N37 N 0.34223 0.07875 0.61817 0.0
N38 N 0.3701 0.12505 0.61722 0.0
H39 H 0.39297 0.07894 0.61055 0.0
H40 H 0.29716 0.10001 0.63071 0.0
C41 C 0.27364 0.01964 0.60166 0.0
O42 O 0.2879 0.99501 0.59007 0.0
N43 N 0.33016 0.99046 0.64228 0.0
C44 C 0.35309 0.97024 0.65224 0.0
C45 C 0.33845 0.94564 0.66624 0.0
C46 C 0.30192 0.97815 0.65147 0.0
N47 N 0.30626 0.95073 0.6658 0.0
C48 C 0.37657 6e-05 0.59244 0.0
C49 C 0.36129 0.03752 0.54798 0.0
C50 C 0.3898 0.01901 0.54763 0.0
C51 C 0.39616 0.99871 0.56964 0.0
C52 C 0.34186 0.03771 0.57117 0.0
N53 N 0.35064 0.02044 0.59367 0.0
H54 H 0.38489 0.98737 0.60997 0.0
H55 H 0.3217 0.05433 0.57198 0.0
H56 H 0.37889 0.97457 0.65217 0.0
H57 H 0.27907 0.99087 0.6506 0.0
O58 O 0.37846 0.03574 0.6459 0.0
O59 O 0.33296 0.04987 0.6664 0.0
O60 O 0.28941 0.03749 0.61806 0.0
C61 C 0.36457 0.04817 0.6669 0.0
H62 H 0.32928 0.1547 0.62905 0.0
H63 H 0.3507 0.92706 0.67783 0.0
H64 H 0.35525 0.05339 0.53127 0.0
H65 H 0.41808 0.98436 0.57058 0.0
Co66 Co 0.53685 0.36476 0.62141 0.0
C67 C 0.47763 0.3988 0.60363 0.0
C68 C 0.48016 0.35122 0.58705 0.0
C69 C 0.45004 0.3641 0.58113 0.0
N70 N 0.49721 0.37293 0.60143 0.0
N71 N 0.44843 0.39385 0.59194 0.0
H72 H 0.4837 0.42005 0.61517 0.0
H73 H 0.4881 0.32687 0.58299 0.0
C74 C 0.52577 0.29884 0.63242 0.0
O75 O 0.55037 0.29728 0.61571 0.0
N76 N 0.57635 0.3558 0.64119 0.0
C77 C 0.60424 0.34592 0.6298 0.0
C78 C 0.6234 0.33179 0.64945 0.0
C79 C 0.57921 0.34817 0.66763 0.0
N80 N 0.60756 0.3334 0.67315 0.0
C81 C 0.57111 0.4222 0.60806 0.0
C82 C 0.5533 0.41723 0.55429 0.0
C83 C 0.55883 0.44795 0.56537 0.0
C84 C 0.57126 0.44974 0.59183 0.0
C85 C 0.55437 0.39027 0.57107 0.0
N86 N 0.55941 0.39397 0.59803 0.0
H87 H 0.57657 0.42442 0.62937 0.0
H88 H 0.5459 0.36736 0.56342 0.0
H89 H 0.60881 0.34587 0.60829 0.0
H90 H 0.55964 0.34967 0.68202 0.0
O91 O 0.5256 0.39937 0.64733 0.0
O92 O 0.5083 0.35201 0.65339 0.0
O93 O 0.51555 0.32671 0.64005 0.0
C94 C 0.50789 0.38145 0.66157 0.0
H95 H 0.42994 0.35145 0.57186 0.0
H96 H 0.64582 0.31883 0.64618 0.0
H97 H 0.54413 0.4141 0.53395 0.0
H98 H 0.57762 0.47264 0.60084 0.0
Co99 Co 0.16459 0.47469 0.63693 0.0
C100 C 0.13027 0.412 0.63939 0.0
C101 C 0.18188 0.40712 0.64355 0.0
C102 C 0.16796 0.37794 0.64929 0.0
N103 N 0.15834 0.42854 0.63738 0.0
N104 N 0.13561 0.38115 0.64693 0.0
H105 H 0.10648 0.4228 0.6375 0.0
H106 H 0.20733 0.41269 0.64579 0.0
C107 C 0.22835 0.47717 0.60748 0.0
O108 O 0.21551 0.49464 0.58801 0.0
N109 N 0.17285 0.52093 0.63875 0.0
C110 C 0.15143 0.54526 0.64222 0.0
C111 C 0.16694 0.57102 0.65399 0.0
C112 C 0.20074 0.53238 0.64943 0.0
N113 N 0.19791 0.56263 0.65915 0.0
C114 C 0.12569 0.49664 0.59259 0.0
C115 C 0.14005 0.44659 0.55808 0.0
C116 C 0.11377 0.46688 0.55192 0.0
C117 C 0.1076 0.49283 0.56906 0.0
C118 C 0.1583 0.45186 0.58172 0.0
N119 N 0.1504 0.47617 0.59917 0.0
H120 H 0.11732 0.51423 0.60657 0.0
H121 H 0.17727 0.43494 0.58697 0.0
H122 H 0.12541 0.54334 0.64075 0.0
H123 H 0.22102 0.51695 0.65426 0.0
O124 O 0.12281 0.48076 0.65284 0.0
O125 O 0.16848 0.47267 0.67599 0.0
O126 O 0.21134 0.46748 0.62736 0.0
C127 C 0.13716 0.47698 0.67605 0.0
H128 H 0.18053 0.35635 0.65584 0.0
H129 H 0.15511 0.59262 0.66114 0.0
H130 H 0.14561 0.42613 0.54538 0.0
H131 H 0.08703 0.50859 0.56561 0.0
Co132 Co 0.97876 0.38237 0.86646 0.0
C133 C 0.04067 0.41715 0.8782 0.0
C134 C 0.02166 0.39268 0.9129 0.0
C135 C 0.0511 0.40592 0.91979 0.0
N136 N 0.0151 0.39958 0.8868 0.0
N137 N 0.06306 0.4212 0.89792 0.0
H138 H 0.04386 0.42554 0.85771 0.0
H139 H 0.00675 0.37788 0.92585 0.0
C140 C 0.01528 0.32546 0.86677 0.0
O141 O 0.00276 0.32619 0.89112 0.0
N142 N 0.94252 0.36475 0.84678 0.0
C143 C 0.91638 0.38067 0.83715 0.0
C144 C 0.89793 0.35965 0.82204 0.0
C145 C 0.93964 0.33443 0.8375 0.0
N146 N 0.91283 0.33073 0.82217 0.0
C147 C 0.94121 0.43724 0.88333 0.0
C148 C 0.9307 0.41168 0.93429 0.0
C149 C 0.92598 0.44482 0.92989 0.0
C150 C 0.92857 0.45683 0.90344 0.0
C151 C 0.94217 0.39261 0.91326 0.0
N152 N 0.94965 0.40618 0.88903 0.0
H153 H 0.94602 0.44785 0.86384 0.0
H154 H 0.94854 0.36772 0.91715 0.0
H155 H 0.91171 0.40607 0.83982 0.0
H156 H 0.95724 0.3156 0.8411 0.0
O157 O 0.98288 0.41677 0.83863 0.0
O158 O 0.00821 0.37272 0.83447 0.0
O159 O 0.00894 0.34884 0.85031 0.0
C160 C 0.00176 0.40052 0.82407 0.0
H161 H 0.06312 0.4038 0.93921 0.0
H162 H 0.87638 0.36566 0.81051 0.0
H163 H 0.92892 0.40115 0.95427 0.0
H164 H 0.92388 0.48196 0.89889 0.0
Co165 Co 0.15504 0.02603 0.85231 0.0
C166 C 0.1255 0.09139 0.85527 0.0
C167 C 0.17029 0.08884 0.87735 0.0
C168 C 0.15893 0.11991 0.87851 0.0
N169 N 0.1493 0.07078 0.86286 0.0
N170 N 0.13098 0.12148 0.86444 0.0
H171 H 0.1048 0.08485 0.84298 0.0
H172 H 0.19282 0.08056 0.88607 0.0
C173 C 0.2248 0.01831 0.8595 0.0
O174 O 0.22489 0.00979 0.83396 0.0
N175 N 0.16149 0.98127 0.84209 0.0
C176 C 0.17188 0.95722 0.85846 0.0
C177 C 0.18022 0.93101 0.84283 0.0
C178 C 0.16329 0.9691 0.81691 0.0
N179 N 0.17433 0.93862 0.81679 0.0
C180 C 0.10545 0.99459 0.88151 0.0
C181 C 0.12377 0.01538 0.93237 0.0
C182 C 0.09431 -0.00112 0.92919 0.0
C183 C 0.08564 0.98774 0.90348 0.0
C184 C 0.14292 0.0218 0.90976 0.0
N185 N 0.13317 0.01207 0.8847 0.0
H186 H 0.09808 0.98658 0.86165 0.0
H187 H 0.16486 0.03564 0.91231 0.0
H188 H 0.17562 0.95947 0.88002 0.0
H189 H 0.16032 0.98305 0.79865 0.0
O190 O 0.11776 0.02863 0.8291 0.0
O191 O 0.16789 0.041 0.81655 0.0
O192 O 0.19812 0.02521 0.87095 0.0
C193 C 0.13717 0.03897 0.81045 0.0
H194 H 0.17098 0.1401 0.88804 0.0
H195 H 0.1918 0.90906 0.84979 0.0
H196 H 0.13124 0.02454 0.9519 0.0
H197 H 0.06338 0.97442 0.90027 0.0
Co198 Co 0.52153 0.12041 0.85683 0.0
C199 C 0.4593 0.09244 0.87614 0.0
C200 C 0.48947 0.11018 0.90827 0.0
C201 C 0.46173 0.09753 0.91937 0.0
N202 N 0.4878 0.10721 0.88123 0.0
N203 N 0.44281 0.08639 0.89915 0.0
H204 H 0.4505 0.08667 0.85612 0.0
H205 H 0.50966 0.12062 0.91915 0.0
C206 C 0.5078 0.18458 0.87486 0.0
O207 O 0.52965 0.17589 0.89287 0.0
N208 N 0.55586 0.13367 0.83287 0.0
C209 C 0.57232 0.11467 0.81568 0.0
C210 C 0.59084 0.13388 0.79903 0.0
C211 C 0.56467 0.16405 0.82656 0.0
N212 N 0.58584 0.16495 0.80584 0.0
C213 C 0.53505 0.05276 0.85713 0.0
C214 C 0.57537 0.05671 0.90191 0.0
C215 C 0.56236 0.02686 0.89441 0.0
C216 C 0.54355 0.02474 0.87091 0.0
C217 C 0.56622 0.0843 0.8875 0.0
N218 N 0.54501 0.08207 0.86644 0.0
H219 H 0.51806 0.05079 0.84062 0.0
H220 H 0.57332 0.10781 0.89482 0.0
H221 H 0.56981 0.08879 0.81438 0.0
H222 H 0.5542 0.18524 0.83563 0.0
O223 O 0.49873 0.10075 0.82524 0.0
O224 O 0.49048 0.14943 0.83585 0.0
O225 O 0.50078 0.165 0.85545 0.0
C226 C 0.48391 0.1264 0.81939 0.0
H227 H 0.45604 0.09639 0.94069 0.0
H228 H 0.60586 0.12562 0.78257 0.0
H229 H 0.58964 0.05912 0.92023 0.0
H230 H 0.53307 0.00197 0.86472 0.0
Co231 Co 0.35149 0.46603 0.84669 0.0
C232 C 0.37261 0.40281 0.86879 0.0
C233 C 0.32468 0.40085 0.85208 0.0
C234 C 0.33415 0.36997 0.85885 0.0
N235 N 0.34883 0.42148 0.85842 0.0
N236 N 0.36423 0.3715 0.86944 0.0
H237 H 0.39659 0.41106 0.8738 0.0
H238 H 0.3024 0.40762 0.84193 0.0
C239 C 0.29426 0.46271 0.8837 0.0
O240 O 0.31045 0.44318 0.8998 0.0
N241 N 0.35374 0.50988 0.83405 0.0
C242 C 0.38074 0.52665 0.82798 0.0
C243 C 0.37217 0.55238 0.81168 0.0
C244 C 0.32924 0.52571 0.82181 0.0
N245 N 0.33978 0.55176 0.80814 0.0
C246 C 0.40855 0.47083 0.87899 0.0
C247 C 0.38288 0.50388 0.92218 0.0
C248 C 0.41521 0.49347 0.92337 0.0
C249 C 0.4281 0.47745 0.90115 0.0
C250 C 0.36378 0.49622 0.89949 0.0
N251 N 0.37628 0.47826 0.87884 0.0
H252 H 0.41967 0.45889 0.86213 0.0
H253 H 0.33926 0.50515 0.89858 0.0
H254 H 0.40516 0.51895 0.83275 0.0
H255 H 0.30482 0.51628 0.82028 0.0
O256 O 0.38712 0.45469 0.82367 0.0
O257 O 0.33537 0.45322 0.81136 0.0
O258 O 0.30814 0.47559 0.86335 0.0
C259 C 0.36563 0.44873 0.80521 0.0
H260 H 0.32057 0.34805 0.85534 0.0
H261 H 0.38859 0.56868 0.80147 0.0
H262 H 0.37244 0.5174 0.93868 0.0
H263 H 0.45334 0.47019 0.90081 0.0
Co264 Co 0.01681 0.8654 0.37112 0.0
C265 C 0.95351 0.89301 0.38908 0.0
C266 C 0.96563 0.84839 0.40887 0.0
C267 C 0.93671 0.85933 0.41912 0.0
N268 N 0.97631 0.86961 0.39027 0.0
N269 N 0.92913 0.88719 0.40655 0.0
H270 H 0.95477 0.91407 0.37617 0.0
H271 H 0.97817 0.82652 0.41467 0.0
C272 C 0.00339 0.80458 0.35497 0.0
O273 O 0.02598 0.80249 0.37373 0.0
N274 N 0.05767 0.86004 0.35258 0.0
C275 C 0.08539 0.84949 0.36416 0.0
C276 C 0.10673 0.84067 0.34415 0.0
C277 C 0.06271 0.85787 0.32572 0.0
N278 N 0.09234 0.84607 0.32006 0.0
C279 C 0.04379 0.91828 0.40079 0.0
C280 C 0.03979 0.88383 0.44876 0.0
C281 C 0.03888 0.91757 0.44932 0.0
C282 C 0.04423 0.93476 0.42525 0.0
C283 C 0.03989 0.86835 0.42388 0.0
N284 N 0.03847 0.88591 0.40065 0.0
H285 H 0.04428 0.93194 0.38219 0.0
H286 H 0.0363 0.84255 0.42314 0.0
H287 H 0.08886 0.84573 0.38561 0.0
H288 H 0.04414 0.86143 0.31053 0.0
O289 O 0.00865 0.90571 0.35076 0.0
O290 O 0.99115 0.86104 0.33588 0.0
O291 O 0.99576 0.83289 0.34633 0.0
C292 C 0.99306 0.89178 0.33222 0.0
H293 H 0.92211 0.84758 0.43438 0.0
H294 H 0.12992 0.82891 0.34705 0.0
H295 H 0.03608 0.86961 0.46688 0.0
H296 H 0.04486 0.96086 0.42507 0.0
Co297 Co 0.65407 0.97971 0.3686 0.0
C298 C 0.61314 0.92295 0.38216 0.0
C299 C 0.66384 0.91364 0.38832 0.0
C300 C 0.64707 0.88566 0.39302 0.0
N301 N 0.64263 0.93708 0.38157 0.0
N302 N 0.61525 0.8914 0.38891 0.0
H303 H 0.59088 0.935 0.3764 0.0
H304 H 0.6899 0.9161 0.38878 0.0
C305 C 0.71361 0.98474 0.40539 0.0
O306 O 0.69869 0.00342 0.42268 0.0
N307 N 0.66713 0.02196 0.35488 0.0
C308 C 0.68041 0.04657 0.36893 0.0
C309 C 0.69024 0.07024 0.35111 0.0
C310 C 0.669 0.03133 0.32875 0.0
N311 N 0.68276 0.06054 0.32593 0.0
C312 C 0.61436 0.02442 0.39576 0.0
C313 C 0.61052 0.99188 0.44443 0.0
C314 C 0.58869 0.01715 0.43914 0.0
C315 C 0.59167 0.0341 0.41478 0.0
C316 C 0.63339 0.98318 0.42485 0.0
N317 N 0.6347 -0.00097 0.40057 0.0
H318 H 0.61355 0.03578 0.37609 0.0
H319 H 0.64874 0.96254 0.42866 0.0
H320 H 0.68344 0.04721 0.39057 0.0
H321 H 0.66255 0.01648 0.3117 0.0
O322 O 0.61533 0.98117 0.34694 0.0
O323 O 0.66233 0.96049 0.3336 0.0
O324 O 0.69905 0.97433 0.38434 0.0
C325 C 0.63189 0.96664 0.32838 0.0
H326 H 0.65766 0.86263 0.39838 0.0
H327 H 0.70275 0.09235 0.35617 0.0
H328 H 0.60911 0.97815 0.46305 0.0
H329 H 0.57486 0.05317 0.40942 0.0
Co330 Co 0.4825 0.63051 0.36211 0.0
C331 C 0.55206 0.6169 0.37573 0.0
C332 C 0.51888 0.5853 0.39601 0.0
C333 C 0.54966 0.57458 0.40098 0.0
N334 N 0.52007 0.61199 0.38035 0.0
N335 N 0.57052 0.59414 0.38812 0.0
H336 H 0.56139 0.63504 0.36205 0.0
H337 H 0.49717 0.57274 0.40186 0.0
C338 C 0.47842 0.69943 0.37859 0.0
O339 O 0.44705 0.69553 0.3817 0.0
N340 N 0.44495 0.64803 0.3433 0.0
C341 C 0.41353 0.63898 0.34453 0.0
C342 C 0.39567 0.65767 0.32693 0.0
C343 C 0.44569 0.67178 0.32463 0.0
N344 N 0.41592 0.67836 0.31456 0.0
C345 C 0.43856 0.59768 0.3972 0.0
C346 C 0.46133 0.62656 0.4438 0.0
C347 C 0.44553 0.5969 0.44562 0.0
C348 C 0.43175 0.58373 0.42224 0.0
C349 C 0.46802 0.63946 0.41845 0.0
N350 N 0.45809 0.6242 0.39537 0.0
H351 H 0.43223 0.58417 0.37936 0.0
H352 H 0.48531 0.65882 0.41787 0.0
H353 H 0.40363 0.6202 0.35701 0.0
H354 H 0.46772 0.68382 0.31844 0.0
O355 O 0.47543 0.58919 0.34482 0.0
O356 O 0.5055 0.62905 0.32855 0.0
O357 O 0.49638 0.6754 0.37249 0.0
C358 C 0.49483 0.59976 0.32607 0.0
H359 H 0.55625 0.55299 0.41204 0.0
H360 H 0.36974 0.65633 0.3237 0.0
H361 H 0.47294 0.63709 0.46137 0.0
H362 H 0.41978 0.5605 0.42292 0.0
Co363 Co 0.85259 0.51126 0.36129 0.0
C364 C 0.87626 0.57925 0.35794 0.0
C365 C 0.85897 0.56691 0.39744 0.0
C366 C 0.86942 0.59837 0.3978 0.0
N367 N 0.86307 0.5549 0.37238 0.0
N368 N 0.88006 0.60601 0.37288 0.0
H369 H 0.88431 0.57749 0.3373 0.0
H370 H 0.84949 0.55358 0.41448 0.0
C371 C 0.78751 0.4997 0.38694 0.0
O372 O 0.78496 0.47 0.37828 0.0
N373 N 0.8426 0.46756 0.34994 0.0
C374 C 0.86157 0.44115 0.35248 0.0
C375 C 0.84905 0.41681 0.33663 0.0
C376 C 0.81941 0.45903 0.33201 0.0
N377 N 0.82243 0.42817 0.32396 0.0
C378 C 0.91394 0.50451 0.38561 0.0
C379 C 0.89662 0.46719 0.42962 0.0
C380 C 0.92918 0.47665 0.42666 0.0
C381 C 0.93758 0.49532 0.40416 0.0
C382 C 0.87337 0.47719 0.41042 0.0
N383 N 0.8824 0.49558 0.38877 0.0
H384 H 0.921 0.51941 0.3687 0.0
H385 H 0.84836 0.47002 0.41279 0.0
H386 H 0.88411 0.44 0.36366 0.0
H387 H 0.80138 0.47554 0.32407 0.0
O388 O 0.88228 0.51378 0.33145 0.0
O389 O 0.83065 0.52848 0.32976 0.0
O390 O 0.81487 0.514 0.387 0.0
C391 C 0.85839 0.52596 0.31751 0.0
H392 H 0.86935 0.61435 0.41505 0.0
H393 H 0.85936 0.39306 0.33389 0.0
H394 H 0.88914 0.45277 0.44677 0.0
H395 H 0.96239 0.5028 0.40078 0.0
Co396 Co 0.98908 0.66356 0.13833 0.0
C397 C 0.93176 0.62675 0.11989 0.0
C398 C 0.9235 0.67788 0.1187 0.0
C399 C 0.89505 0.66246 0.11206 0.0
N400 N 0.94641 0.65548 0.12364 0.0
N401 N 0.90029 0.63037 0.11289 0.0
H402 H 0.94337 0.60376 0.12369 0.0
H403 H 0.92682 0.70359 0.12093 0.0
C404 C 0.01383 0.71981 0.10613 0.0
O405 O 0.04286 0.70687 0.10514 0.0
N406 N 0.03129 0.67277 0.15383 0.0
C407 C 0.05652 0.65333 0.16014 0.0
C408 C 0.07957 0.67109 0.1739 0.0
C409 C 0.03916 0.70168 0.16425 0.0
N410 N 0.06858 0.70151 0.17609 0.0
C411 C 0.0167 0.6086 0.11388 0.0
C412 C 0.99536 0.62465 0.06259 0.0
C413 C 1.00079 0.59227 0.06914 0.0
C414 C 0.01389 0.58462 0.09444 0.0
C415 C 0.99847 0.64795 0.08263 0.0
N416 N 0.00703 0.63945 0.10844 0.0
H417 H 0.02189 0.60095 0.13424 0.0
H418 H 0.98903 0.67157 0.07809 0.0
H419 H 0.05807 0.62788 0.15626 0.0
H420 H 0.02299 0.72225 0.16408 0.0
O421 O 0.98336 0.6285 0.16328 0.0
O422 O 0.96871 0.67909 0.17096 0.0
O423 O 0.99044 0.70537 0.11789 0.0
C424 C 0.9693 0.64916 0.17899 0.0
H425 H 0.87205 0.67396 0.10767 0.0
H426 H 0.10223 0.66221 0.18216 0.0
H427 H 0.98489 0.63146 0.04327 0.0
H428 H 0.01859 0.5598 0.10011 0.0
Co429 Co 0.85888 6e-05 0.13849 0.0
C430 C 0.90071 0.94606 0.11991 0.0
C431 C 0.85402 0.93052 0.13404 0.0
C432 C 0.8708 0.90405 0.12536 0.0
N433 N 0.87252 0.95682 0.13028 0.0
N434 N 0.90001 0.91382 0.1163 0.0
H435 H 0.92089 0.96149 0.11466 0.0
H436 H 0.83002 0.93061 0.14272 0.0
C437 C 0.79641 0.0034 0.10657 0.0
O438 O 0.80398 0.03183 0.09669 0.0
N439 N 0.84386 0.04297 0.14799 0.0
C440 C 0.86163 0.06847 0.15639 0.0
C441 C 0.84181 0.0898 0.16969 0.0
C442 C 0.81366 0.0491 0.15704 0.0
N443 N 0.81167 0.07746 0.17013 0.0
C444 C 0.90143 0.03456 0.10406 0.0
C445 C 0.89078 0.99627 0.05931 0.0
C446 C 0.91952 0.01401 0.06131 0.0
C447 C 0.9236 0.035 0.08303 0.0
C448 C 0.86883 0.9968 0.08083 0.0
N449 N 0.87544 0.01427 0.10365 0.0
H450 H 0.90799 0.04725 0.12206 0.0
H451 H 0.84916 0.97965 0.0806 0.0
H452 H 0.8877 0.06996 0.15647 0.0
H453 H 0.79453 0.03127 0.15731 0.0
O454 O 0.8976 0.00615 0.1595 0.0
O455 O 0.85141 0.98623 0.17534 0.0
O456 O 0.81538 0.98899 0.12305 0.0
C457 C 0.88162 0.99386 0.17963 0.0
H458 H 0.86238 0.87937 0.12621 0.0
H459 H 0.84962 0.11103 0.18057 0.0
H460 H 0.88705 0.97954 0.04283 0.0
H461 H 0.94559 0.04907 0.08516 0.0
Co462 Co 0.51393 0.84765 0.13079 0.0
C463 C 0.57431 0.8735 0.10838 0.0
C464 C 0.57969 0.82368 0.11948 0.0
C465 C 0.60901 0.83493 0.11018 0.0
N466 N 0.5581 0.84797 0.11836 0.0
N467 N 0.60558 0.86631 0.10333 0.0
H468 H 0.56376 0.89724 0.10611 0.0
H469 H 0.57478 0.79977 0.12721 0.0
C470 C 0.48873 0.78248 0.11631 0.0
O471 O 0.46304 0.79563 0.10502 0.0
N472 N 0.46981 0.8468 0.14406 0.0
C473 C 0.44121 0.85615 0.13309 0.0
C474 C 0.41646 0.84684 0.15024 0.0
C475 C 0.46198 0.83219 0.16741 0.0
N476 N 0.42989 0.83213 0.17188 0.0
C477 C 0.49064 0.88722 0.08793 0.0
C478 C 0.51663 0.84895 0.0478 0.0
C479 C 0.50932 0.88112 0.04209 0.0
C480 C 0.4944 0.89986 0.06194 0.0
C481 C 0.51217 0.83716 0.07387 0.0
N482 N 0.50072 0.85667 0.09391 0.0
H483 H 0.48269 0.90307 0.10386 0.0
H484 H 0.52219 0.81377 0.07848 0.0
H485 H 0.43797 0.86742 0.11359 0.0
H486 H 0.47939 0.81991 0.18024 0.0
O487 O 0.51911 0.89131 0.14388 0.0
O488 O 0.53002 0.84697 0.16738 0.0
O489 O 0.51161 0.79987 0.12576 0.0
C490 C 0.5297 0.87823 0.1662 0.0
H491 H 0.63131 0.82124 0.10922 0.0
H492 H 0.39071 0.84987 0.14678 0.0
H493 H 0.52843 0.83392 0.03291 0.0
H494 H 0.4888 0.92501 0.05823 0.0
Co495 Co 0.64172 0.49453 0.1404 0.0
C496 C 0.59831 0.5494 0.12721 0.0
C497 C 0.64671 0.56419 0.13775 0.0
C498 C 0.62794 0.59118 0.13479 0.0
N499 N 0.62823 0.53807 0.13299 0.0
N500 N 0.5976 0.58185 0.12834 0.0
H501 H 0.57725 0.53431 0.124 0.0
H502 H 0.67159 0.56363 0.14462 0.0
C503 C 0.70819 0.4922 0.11555 0.0
O504 O 0.70147 0.46434 0.10438 0.0
N505 N 0.65662 0.45115 0.14919 0.0
C506 C 0.65733 0.42347 0.13481 0.0
C507 C 0.67317 0.40001 0.14989 0.0
C508 C 0.67207 0.44396 0.17248 0.0
N509 N 0.6819 0.41312 0.17368 0.0
C510 C 0.60287 0.46306 0.10134 0.0
C511 C 0.61841 0.50494 0.05979 0.0
C512 C 0.58979 0.48686 0.05803 0.0
C513 C 0.58312 0.46436 0.07841 0.0
C514 C 0.63792 0.50244 0.08289 0.0
N515 N 0.62904 0.48295 0.10392 0.0
H516 H 0.59528 0.44829 0.11819 0.0
H517 H 0.65776 0.5192 0.08518 0.0
H518 H 0.64859 0.42054 0.11437 0.0
H519 H 0.67771 0.4614 0.18797 0.0
O520 O 0.60083 0.48595 0.15784 0.0
O521 O 0.64416 0.50649 0.1781 0.0
O522 O 0.68699 0.50683 0.12963 0.0
C523 C 0.61395 0.49761 0.17961 0.0
H524 H 0.6356 0.61579 0.13822 0.0
H525 H 0.6784 0.37557 0.14368 0.0
H526 H 0.62442 0.52251 0.04437 0.0
H527 H 0.56113 0.45011 0.07792 0.0
H528 H 0.04961 0.14278 0.69645 0.0
H529 H 0.00432 0.05228 0.67359 0.0
H530 H 0.04128 0.02288 0.70348 0.0
H531 H 0.13326 0.10877 0.7046 0.0
H532 H 0.14243 0.13326 0.73367 0.0
H533 H 0.11514 0.1481 0.70788 0.0
H534 H 0.06991 0.15705 0.74364 0.0
H535 H 0.09812 0.14379 0.76911 0.0
H536 H 0.05923 0.12428 0.76593 0.0
H537 H 0.07711 0.00324 0.73811 0.0
H538 H 0.1088 0.99439 0.77954 0.0
H539 H 0.13381 0.09582 0.78184 0.0
C540 C 0.04776 0.1168 0.69774 0.0
C541 C 0.02408 0.09985 0.68274 0.0
C542 C 0.02217 0.06586 0.68495 0.0
C543 C 0.0433 0.0488 0.70167 0.0
C544 C 0.06635 0.06596 0.71617 0.0
C545 C 0.06875 0.09915 0.7147 0.0
C546 C 0.0942 0.11137 0.73446 0.0
C547 C 0.12296 0.12626 0.71924 0.0
C548 C 0.07944 0.13552 0.75448 0.0
C549 C 0.10396 0.08001 0.74831 0.0
C550 C 0.08812 0.05415 0.73668 0.0
C551 C 0.09041 0.02303 0.74703 0.0
C552 C 0.10858 0.01819 0.77048 0.0
C553 C 0.12455 0.0442 0.78312 0.0
C554 C 0.12284 0.07543 0.77172 0.0
H555 H 0.34925 0.06597 0.7193 0.0
H556 H 0.42526 0.07031 0.65904 0.0
H557 H 0.45874 0.10287 0.68949 0.0
H558 H 0.365 0.14702 0.75063 0.0
H559 H 0.35823 0.13203 0.78438 0.0
H560 H 0.3368 0.11451 0.75618 0.0
H561 H 0.35825 0.0582 0.76975 0.0
H562 H 0.38005 0.07578 0.79759 0.0
H563 H 0.4014 0.05185 0.77311 0.0
H564 H 0.48652 0.12977 0.72686 0.0
H565 H 0.51054 0.14078 0.77167 0.0
H566 H 0.41964 0.11635 0.8099 0.0
C567 C 0.37277 0.07418 0.71253 0.0
C568 C 0.38449 0.06588 0.68672 0.0
C569 C 0.41567 0.07645 0.67869 0.0
C570 C 0.43479 0.09534 0.69573 0.0
C571 C 0.4227 0.1032 0.72102 0.0
C572 C 0.39271 0.09251 0.72969 0.0
C573 C 0.38782 0.10033 0.75928 0.0
C574 C 0.36033 0.12494 0.76282 0.0
C575 C 0.3815 0.06962 0.77586 0.0
C576 C 0.42044 0.11514 0.7662 0.0
C577 C 0.43958 0.11787 0.74344 0.0
C578 C 0.47162 0.12837 0.74478 0.0
C579 C 0.48503 0.13472 0.77022 0.0
C580 C 0.46652 0.13011 0.79381 0.0
C581 C 0.43366 0.12111 0.79187 0.0
H582 H 0.38714 0.39077 0.7871 0.0
H583 H 0.37053 0.49012 0.76378 0.0
H584 H 0.40292 0.48198 0.72248 0.0
H585 H 0.46535 0.38462 0.76888 0.0
H586 H 0.4646 0.34472 0.75462 0.0
H587 H 0.43546 0.35576 0.77989 0.0
H588 H 0.38811 0.34085 0.74788 0.0
H589 H 0.41703 0.32871 0.72266 0.0
H590 H 0.38634 0.35813 0.71441 0.0
H591 H 0.44692 0.46749 0.69181 0.0
H592 H 0.48981 0.44364 0.66425 0.0
H593 H 0.47381 0.35062 0.70244 0.0
C594 C 0.38914 0.41018 0.77249 0.0
C595 C 0.3761 0.44089 0.77795 0.0
C596 C 0.37985 0.46633 0.75928 0.0
C597 C 0.39836 0.46194 0.736 0.0
C598 C 0.41222 0.43177 0.73164 0.0
C599 C 0.40686 0.40589 0.74871 0.0
C600 C 0.42595 0.3765 0.73975 0.0
C601 C 0.44921 0.36474 0.76212 0.0
C602 C 0.40298 0.34944 0.73062 0.0
C603 C 0.44432 0.39057 0.71601 0.0
C604 C 0.43614 0.42259 0.71204 0.0
C605 C 0.45263 0.44215 0.69392 0.0
C606 C 0.47728 0.42838 0.67862 0.0
C607 C 0.48457 0.3951 0.6808 0.0
C608 C 0.46807 0.37593 0.69992 0.0
H609 H 0.0584 0.38141 0.79923 0.0
H610 H 0.98122 0.4525 0.79605 0.0
H611 H 0.00993 0.48172 0.76005 0.0
H612 H 0.12368 0.43684 0.78928 0.0
H613 H 0.14725 0.41055 0.7681 0.0
H614 H 0.12034 0.39374 0.79303 0.0
H615 H 0.09072 0.36061 0.756 0.0
H616 H 0.11816 0.37672 0.73119 0.0
H617 H 0.07503 0.381 0.72647 0.0
H618 H 0.04587 0.50335 0.72493 0.0
H619 H 0.08638 0.51435 0.68949 0.0
H620 H 0.14215 0.43127 0.71574 0.0
C621 C 0.04741 0.4028 0.79055 0.0
C622 C 0.01758 0.41471 0.80026 0.0
C623 C 0.00406 0.44302 0.78881 0.0
C624 C 0.02022 0.45987 0.76846 0.0
C625 C 0.04998 0.44816 0.75984 0.0
C626 C 0.06341 0.42016 0.77019 0.0
C627 C 0.09585 0.41317 0.75711 0.0
C628 C 0.12341 0.41361 0.77814 0.0
C629 C 0.09486 0.38097 0.74178 0.0
C630 C 0.09832 0.44157 0.7378 0.0
C631 C 0.07153 0.46142 0.73985 0.0
C632 C 0.06716 0.48825 0.72326 0.0
C633 C 0.09029 0.49442 0.70335 0.0
C634 C 0.11753 0.47411 0.70051 0.0
C635 C 0.12203 0.44776 0.71827 0.0
H636 H 0.93915 0.8788 0.30052 0.0
H637 H 0.01824 0.94636 0.31218 0.0
H638 H 0.996 0.98125 0.27638 0.0
H639 H 0.93272 0.88781 0.22765 0.0
H640 H 0.88908 0.88571 0.22711 0.0
H641 H 0.91159 0.86537 0.25339 0.0
H642 H 0.8785 0.89613 0.28953 0.0
H643 H 0.85624 0.91691 0.26332 0.0
H644 H 0.87761 0.93955 0.28881 0.0
H645 H 0.96687 0.00841 0.23955 0.0
H646 H 0.93247 0.02582 0.20129 0.0
H647 H 0.86997 0.94309 0.21384 0.0
C648 C 0.95185 0.90073 0.29516 0.0
C649 C 0.98042 0.90993 0.30891 0.0
C650 C 0.99626 0.93899 0.30183 0.0
C651 C 0.98381 0.95901 0.2816 0.0
C652 C 0.95525 0.94984 0.26882 0.0
C653 C 0.9394 0.92143 0.27512 0.0
C654 C 0.90891 0.91779 0.25813 0.0
C655 C 0.9107 0.88737 0.24052 0.0
C656 C 0.87852 0.91759 0.27602 0.0
C657 C 0.91062 0.94827 0.2411 0.0
C658 C 0.93755 0.96636 0.2478 0.0
C659 C 0.9455 0.99468 0.2342 0.0
C660 C 0.92584 0.00441 0.21259 0.0
C661 C 0.89848 0.98602 0.205 0.0
C662 C 0.89035 0.95797 0.21976 0.0
H663 H 0.63402 0.9107 0.29947 0.0
H664 H 0.59519 0.00775 0.29893 0.0
H665 H 0.56625 0.99651 0.2561 0.0
H666 H 0.64294 0.90095 0.22637 0.0
H667 H 0.62965 0.85958 0.22691 0.0
H668 H 0.6499 0.87637 0.25597 0.0
H669 H 0.60126 0.85997 0.28605 0.0
H670 H 0.58078 0.84336 0.25706 0.0
H671 H 0.56112 0.87371 0.27717 0.0
H672 H 0.541 0.97449 0.21383 0.0
H673 H 0.51862 0.94207 0.17619 0.0
H674 H 0.57033 0.85817 0.20643 0.0
C675 C 0.61993 0.92965 0.28993 0.0
C676 C 0.61704 0.96018 0.302 0.0
C677 C 0.59769 0.98427 0.28966 0.0
C678 C 0.58127 0.97813 0.26539 0.0
C679 C 0.58407 0.94759 0.25409 0.0
C680 C 0.60269 0.92364 0.26603 0.0
C681 C 0.59957 0.8922 0.25083 0.0
C682 C 0.63247 0.88167 0.23934 0.0
C683 C 0.5848 0.86576 0.26885 0.0
C684 C 0.57636 0.90226 0.22855 0.0
C685 C 0.56803 0.9344 0.23058 0.0
C686 C 0.54725 0.94926 0.21204 0.0
C687 C 0.53466 0.93073 0.19078 0.0
C688 C 0.54254 0.89767 0.18863 0.0
C689 C 0.56359 0.88334 0.2078 0.0
H690 H 0.54975 0.60876 0.29721 0.0
H691 H 0.46891 0.54305 0.30723 0.0
H692 H 0.49211 0.50747 0.27202 0.0
H693 H 0.55853 0.6011 0.22582 0.0
H694 H 0.60214 0.60302 0.22702 0.0
H695 H 0.57858 0.62292 0.25253 0.0
H696 H 0.60979 0.59123 0.28981 0.0
H697 H 0.63321 0.57094 0.26436 0.0
H698 H 0.6106 0.54782 0.28875 0.0
H699 H 0.5231 0.48115 0.23361 0.0
H700 H 0.56006 0.4653 0.1966 0.0
H701 H 0.62229 0.54642 0.21527 0.0
C702 C 0.53673 0.58701 0.29186 0.0
C703 C 0.50734 0.57875 0.30459 0.0
C704 C 0.49138 0.54981 0.2975 0.0
C705 C 0.50441 0.5295 0.27762 0.0
C706 C 0.53362 0.53833 0.26555 0.0
C707 C 0.54964 0.56633 0.27257 0.0
C708 C 0.58082 0.57035 0.25701 0.0
C709 C 0.57994 0.60116 0.23957 0.0
C710 C 0.61034 0.57005 0.27613 0.0
C711 C 0.57975 0.54042 0.23976 0.0
C712 C 0.55227 0.52231 0.2448 0.0
C713 C 0.54495 0.49484 0.22983 0.0
C714 C 0.56602 0.486 0.20892 0.0
C715 C 0.59422 0.50431 0.20359 0.0
C716 C 0.60137 0.53148 0.21951 0.0
H717 H 0.90959 0.51757 0.28386 0.0
H718 H 0.82358 0.57583 0.29592 0.0
H719 H 0.84354 0.61523 0.26236 0.0
H720 H 0.96439 0.57957 0.27957 0.0
H721 H 0.98914 0.56232 0.2534 0.0
H722 H 0.96656 0.53644 0.27569 0.0
H723 H 0.93772 0.50951 0.23493 0.0
H724 H 0.96113 0.53444 0.21242 0.0
H725 H 0.91751 0.53441 0.2101 0.0
H726 H 0.87675 0.65178 0.23223 0.0
H727 H 0.91543 0.67728 0.20055 0.0
H728 H 0.97855 0.59404 0.20769 0.0
C729 C 0.89441 0.53801 0.27869 0.0
C730 C 0.86503 0.54363 0.29231 0.0
C731 C 0.84595 0.57084 0.28535 0.0
C732 C 0.85728 0.59356 0.26658 0.0
C733 C 0.88735 0.58825 0.25468 0.0
C734 C 0.90515 0.56064 0.25983 0.0
C735 C 0.937 0.56091 0.24487 0.0
C736 C 0.96597 0.55974 0.26457 0.0
C737 C 0.93841 0.53318 0.22435 0.0
C738 C 0.93466 0.59327 0.23091 0.0
C739 C 0.90604 0.60888 0.23701 0.0
C740 C 0.89906 0.63961 0.22704 0.0
C741 C 0.92133 0.65408 0.2094 0.0
C742 C 0.94991 0.6376 0.20187 0.0
C743 C 0.95687 0.60716 0.21322 0.0
H744 H 0.99222 0.96362 0.44776 0.0
H745 H 0.05087 0.90699 0.50347 0.0
H746 H 0.02 0.92957 0.54184 0.0
H747 H 0.98948 0.03403 0.48714 0.0
H748 H 0.94856 0.04402 0.47729 0.0
H749 H 0.97378 0.0212 0.45485 0.0
H750 H 0.9299 0.97621 0.45331 0.0
H751 H 0.90495 -0.00101 0.47616 0.0
H752 H 0.91629 0.95822 0.48451 0.0
H753 H 0.9852 0.96046 0.57359 0.0
H754 H 0.95591 0.00325 0.59707 0.0
H755 H 0.91879 0.03889 0.52026 0.0
C756 C 0.99906 0.95631 0.46804 0.0
C757 C 0.02424 0.93389 0.47274 0.0
C758 C 0.03173 0.92428 0.49952 0.0
C759 C 0.01413 0.93668 0.52132 0.0
C760 C 0.989 0.95828 0.51582 0.0
C761 C 0.98178 0.9683 0.48986 0.0
C762 C 0.95536 0.99352 0.48939 0.0
C763 C 0.96754 0.02505 0.47642 0.0
C764 C 0.92482 0.98097 0.47498 0.0
C765 C 0.94968 0.99719 0.51935 0.0
C766 C 0.96871 0.97604 0.53419 0.0
C767 C 0.96979 0.97678 0.56224 0.0
C768 C 0.95263 0.00109 0.57543 0.0
C769 C 0.93488 0.02454 0.56049 0.0
C770 C 0.932 0.02131 0.53221 0.0
H771 H 0.54881 0.97349 0.4645 0.0
H772 H 0.5645 0.07614 0.45359 0.0
H773 H 0.51329 0.08741 0.47738 0.0
H774 H 0.46366 0.97401 0.45457 0.0
H775 H 0.45516 0.94426 0.48022 0.0
H776 H 0.49359 0.94392 0.46308 0.0
H777 H 0.52398 0.94738 0.50894 0.0
H778 H 0.48567 0.94703 0.52625 0.0
H779 H 0.51409 0.97926 0.53215 0.0
H780 H 0.45944 0.08753 0.50078 0.0
H781 H 0.41016 0.07687 0.52736 0.0
H782 H 0.42934 0.97412 0.52327 0.0
C783 C 0.54188 0.99836 0.46765 0.0
C784 C 0.56069 0.02394 0.4571 0.0
C785 C 0.55036 0.05614 0.46126 0.0
C786 C 0.52128 0.06279 0.4747 0.0
C787 C 0.5028 0.037 0.48402 0.0
C788 C 0.51292 0.00545 0.48109 0.0
C789 C 0.4886 0.98219 0.4932 0.0
C790 C 0.47442 0.95978 0.47146 0.0
C791 C 0.504 0.96283 0.51652 0.0
C792 C 0.46328 0.00561 0.50341 0.0
C793 C 0.47181 0.03708 0.49767 0.0
C794 C 0.45247 0.06298 0.50536 0.0
C795 C 0.42425 0.05664 0.52017 0.0
C796 C 0.41566 0.02464 0.52727 0.0
C797 C 0.43518 -0.00116 0.51815 0.0
H798 H 0.5526 0.46018 0.51066 0.0
H799 H 0.5313 0.50095 0.58949 0.0
H800 H 0.49807 0.54276 0.56778 0.0
H801 H 0.55173 0.53441 0.47093 0.0
H802 H 0.53165 0.51459 0.44313 0.0
H803 H 0.55789 0.49194 0.46526 0.0
H804 H 0.50998 0.45226 0.47336 0.0
H805 H 0.48356 0.47634 0.45238 0.0
H806 H 0.47242 0.46744 0.4868 0.0
H807 H 0.4648 0.57919 0.53736 0.0
H808 H 0.43773 0.60888 0.49988 0.0
H809 H 0.47533 0.53934 0.44283 0.0
C810 C 0.5413 0.47798 0.52349 0.0
C811 C 0.54496 0.47702 0.55188 0.0
C812 C 0.52985 0.50131 0.56765 0.0
C813 C 0.51036 0.52501 0.55555 0.0
C814 C 0.50579 0.52392 0.52772 0.0
C815 C 0.52102 0.50117 0.51189 0.0
C816 C 0.51064 0.50389 0.48267 0.0
C817 C 0.53972 0.51171 0.46444 0.0
C818 C 0.49311 0.47315 0.47327 0.0
C819 C 0.48745 0.53196 0.48451 0.0
C820 C 0.48495 0.54333 0.51061 0.0
C821 C 0.46625 0.5703 0.51686 0.0
C822 C 0.45073 0.5868 0.4956 0.0
C823 C 0.45372 0.57582 0.4687 0.0
C824 C 0.47159 0.54758 0.46333 0.0
H825 H 0.97589 0.516 0.44754 0.0
H826 H 0.94065 0.41763 0.45076 0.0
H827 H 0.98685 0.40283 0.48069 0.0
H828 H 0.06057 0.4972 0.44507 0.0
H829 H 0.07232 0.53083 0.46587 0.0
H830 H 0.0364 0.53341 0.44512 0.0
H831 H 0.00188 0.54711 0.48722 0.0
H832 H 0.03775 0.5451 0.508 0.0
H833 H 0.00305 0.52061 0.51617 0.0
H834 H 0.03819 0.39931 0.51016 0.0
H835 H 0.08562 0.40867 0.54002 0.0
H836 H 0.08695 0.50912 0.51561 0.0
C837 C 0.97788 0.49127 0.45445 0.0
C838 C 0.9548 0.46788 0.44666 0.0
C839 C 0.95795 0.43597 0.45661 0.0
C840 C 0.98428 0.42732 0.47337 0.0
C841 C 0.00712 0.45089 0.48001 0.0
C842 C 0.00386 0.4823 0.47103 0.0
C843 C 0.03098 0.50347 0.48141 0.0
C844 C 0.05126 0.51701 0.45797 0.0
C845 C 0.01761 0.53066 0.49926 0.0
C846 C 0.05009 0.47919 0.49785 0.0
C847 C 0.03622 0.4489 0.49668 0.0
C848 C 0.04929 0.42291 0.51105 0.0
C849 C 0.07646 0.42836 0.52773 0.0
C850 C 0.09011 0.45958 0.53001 0.0
C851 C 0.07714 0.48497 0.51423 0.0
H852 H 0.95712 0.50252 0.933 0.0
H853 H 0.89696 0.43722 0.97981 0.0
H854 H 0.90875 0.46907 0.02084 0.0
H855 H 0.01749 0.51141 0.97855 0.0
H856 H 0.02505 0.55359 0.97245 0.0
H857 H 0.00827 0.52899 0.94603 0.0
H858 H 0.9589 0.56726 0.94116 0.0
H859 H 0.97601 0.59271 0.96698 0.0
H860 H 0.93542 0.57728 0.9706 0.0
H861 H 0.93326 0.50358 0.05726 0.0
H862 H 0.96286 0.54242 0.08578 0.0
H863 H 0.00543 0.58551 0.01423 0.0
C864 C 0.94504 0.49556 0.9515 0.0
C865 C 0.92593 0.46735 0.95308 0.0
C866 C 0.91181 0.45862 0.97811 0.0
C867 C 0.91832 0.47659 0.00149 0.0
C868 C 0.93858 0.50335 -0.00071 0.0
C869 C 0.95109 0.51322 0.9748 0.0
C870 C 0.97375 0.54158 0.97794 0.0
C871 C 0.00816 0.53337 0.96817 0.0
C872 C 0.9602 0.57148 0.96331 0.0
C873 C 0.97287 0.54559 0.0082 0.0
C874 C 0.95245 0.52334 0.02017 0.0
C875 C 0.94898 0.52135 0.04808 0.0
C876 C 0.96623 0.54321 0.06409 0.0
C877 C 0.98654 0.56679 0.05212 0.0
C878 C 0.99 0.56778 0.02383 0.0
H879 H 0.02884 0.00916 0.92902 0.0
H880 H 0.10893 0.981 0.9812 0.0
H881 H 0.07148 0.97807 0.02 0.0
H882 H 0.99047 0.05988 0.97522 0.0
H883 H 0.94971 0.04925 0.96549 0.0
H884 H 0.98205 0.04626 0.94134 0.0
H885 H 0.96799 0.9862 0.93326 0.0
H886 H 0.93546 0.98902 0.95733 0.0
H887 H 0.96649 0.95881 0.96161 0.0
H888 H 0.0267 0.9816 0.05321 0.0
H889 H 0.97721 0.99222 0.07949 0.0
H890 H 0.92563 0.01781 0.0059 0.0
C891 C 0.03836 0.00164 0.94849 0.0
C892 C 0.07174 0.99506 0.95214 0.0
C893 C 0.08347 0.98623 0.97805 0.0
C894 C 0.06236 0.9843 0.00011 0.0
C895 C 0.02967 0.99125 0.99584 0.0
C896 C 0.01766 -0.00032 0.9707 0.0
C897 C 0.98188 0.00786 0.97192 0.0
C898 C 0.97568 0.04289 0.96297 0.0
C899 C 0.96177 0.98404 0.95503 0.0
C900 C 0.97577 0.00338 0.00184 0.0
C901 C 0.00367 0.99351 0.01515 0.0
C902 C 0.00468 0.98912 0.04301 0.0
C903 C 0.97657 0.99538 0.05774 0.0
C904 C 0.9479 0.00603 0.04461 0.0
C905 C 0.94727 0.00953 0.01627 0.0
H906 H 0.50917 0.00181 0.91741 0.0
H907 H 0.61385 0.99361 0.91637 0.0
H908 H 0.61102 0.9509 0.95168 0.0
H909 H 0.50167 0.99617 0.98763 0.0
H910 H 0.46395 0.97428 0.98689 0.0
H911 H 0.47421 0.00087 0.95943 0.0
H912 H 0.46721 0.95396 0.92546 0.0
H913 H 0.45688 0.92715 0.95283 0.0
H914 H 0.48972 0.91715 0.93046 0.0
H915 H 0.59634 0.91109 0.98821 0.0
H916 H 0.57199 0.88048 0.02594 0.0
H917 H 0.47705 0.9177 0.00445 0.0
C918 C 0.53142 0.99038 0.92419 0.0
C919 C 0.5617 0.00011 0.91393 0.0
C920 C 0.59049 0.98584 0.92386 0.0
C921 C 0.58902 0.96165 0.94375 0.0
C922 C 0.55863 0.95261 0.95354 0.0
C923 C 0.53038 0.96679 0.94423 0.0
C924 C 0.50106 0.9552 0.95969 0.0
C925 C 0.48426 0.9833 0.97427 0.0
C926 C 0.47733 0.9373 0.94099 0.0
C927 C 0.51718 0.93243 0.97947 0.0
C928 C 0.5503 0.93083 0.97529 0.0
C929 C 0.57044 0.91192 0.99149 0.0
C930 C 0.55639 0.89453 0.01272 0.0
C931 C 0.52266 0.89655 0.0177 0.0
C932 C 0.50283 0.91559 0.00079 0.0
H933 H 0.44994 0.44869 0.95117 0.0
H934 H 0.42926 0.55103 0.94786 0.0
H935 H 0.47217 0.5608 0.98223 0.0
H936 H 0.46799 0.44466 0.02406 0.0
H937 H 0.49946 0.41507 0.0194 0.0
H938 H 0.46548 0.41654 0.99643 0.0
H939 H 0.50514 0.42207 0.95621 0.0
H940 H 0.53923 0.42127 0.97905 0.0
H941 H 0.53411 0.45458 0.95594 0.0
H942 H 0.52096 0.55932 0.01371 0.0
H943 H 0.56707 0.54641 0.04398 0.0
H944 H 0.55489 0.44472 0.02671 0.0
C945 C 0.45405 0.47308 0.95813 0.0
C946 C 0.43639 0.49917 0.94706 0.0
C947 C 0.44236 0.53077 0.95643 0.0
C948 C 0.46682 0.5365 0.97572 0.0
C949 C 0.48463 0.51028 0.98552 0.0
C950 C 0.47807 0.47913 0.9774 0.0
C951 C 0.50097 0.45515 0.9905 0.0
C952 C 0.48236 0.43146 0.00868 0.0
C953 C 0.52105 0.43722 0.96915 0.0
C954 C 0.52191 0.47767 0.00698 0.0
C955 C 0.51225 0.50939 0.00377 0.0
C956 C 0.52857 0.53456 0.01648 0.0
C957 C 0.55495 0.52702 0.03338 0.0
C958 C 0.56465 0.49458 0.03749 0.0
C959 C 0.54797 0.46971 0.02393 0.0
H960 H 0.95189 0.1979 0.71419 0.0
H961 H 0.84823 0.18517 0.70313 0.0
H962 H 0.83822 0.22189 0.7414 0.0
H963 H 0.95089 0.20324 0.78904 0.0
H964 H 0.98247 0.23323 0.78923 0.0
H965 H 0.98141 0.20314 0.76307 0.0
H966 H 0.9813 0.24806 0.72658 0.0
H967 H 0.98227 0.27826 0.75252 0.0
H968 H 0.95045 0.27883 0.72742 0.0
H969 H 0.83971 0.26507 0.77709 0.0
H970 H 0.85284 0.30937 0.80879 0.0
H971 H 0.95531 0.2916 0.79693 0.0
C972 C 0.92706 0.20177 0.72027 0.0
C973 C 0.90082 0.18845 0.70562 0.0
C974 C 0.86871 0.19526 0.7139 0.0
C975 C 0.86279 0.21592 0.73572 0.0
C976 C 0.88927 0.22924 0.74923 0.0
C977 C 0.92078 0.22211 0.74201 0.0
C978 C 0.945 0.24124 0.75844 0.0
C979 C 0.96618 0.21887 0.77599 0.0
C980 C 0.96596 0.26287 0.74014 0.0
C981 C 0.92216 0.26091 0.77556 0.0
C982 C 0.89011 0.2536 0.77009 0.0
C983 C 0.86471 0.27056 0.78194 0.0
C984 C 0.87233 0.29572 0.79975 0.0
C985 C 0.90501 0.30349 0.80555 0.0
C986 C 0.93012 0.28555 0.79349 0.0
H987 H 0.31558 0.92984 0.71705 0.0
H988 H 0.24317 0.94042 0.65404 0.0
H989 H 0.20059 0.9237 0.6862 0.0
H990 H 0.2743 0.86175 0.75649 0.0
H991 H 0.28664 0.87952 0.7881 0.0
H992 H 0.31212 0.88334 0.75874 0.0
H993 H 0.3117 0.94551 0.76394 0.0
H994 H 0.28647 0.94184 0.79318 0.0
H995 H 0.27341 0.96643 0.76505 0.0
H996 H 0.16569 0.91824 0.72622 0.0
H997 H 0.14127 0.92735 0.77105 0.0
H998 H 0.23568 0.91969 0.80861 0.0
C999 C 0.29099 0.92706 0.70973 0.0
C1000 C 0.28259 0.93582 0.683 0.0
C1001 C 0.24996 0.93347 0.67442 0.0
C1002 C 0.22575 0.92377 0.69249 0.0
C1003 C 0.23464 0.91638 0.71905 0.0
C1004 C 0.26656 0.91779 0.72764 0.0
C1005 C 0.26918 0.91432 0.75807 0.0
C1006 C 0.28659 0.88285 0.7658 0.0
C1007 C 0.28616 0.94377 0.77078 0.0
C1008 C 0.23364 0.9129 0.76545 0.0
C1009 C 0.21413 0.91315 0.74258 0.0
C1010 C 0.18061 0.91687 0.74424 0.0
C1011 C 0.16689 0.92191 0.76971 0.0
C1012 C 0.18661 0.92323 0.7931 0.0
C1013 C 0.22012 0.91723 0.79107 0.0
H1014 H 0.60122 0.16943 0.75251 0.0
H1015 H 0.59317 0.22522 0.82617 0.0
H1016 H 0.60447 0.27496 0.80039 0.0
H1017 H 0.66656 0.21834 0.72105 0.0
H1018 H 0.6493 0.21392 0.68772 0.0
H1019 H 0.6443 0.18237 0.71251 0.0
H1020 H 0.58186 0.18539 0.70626 0.0
H1021 H 0.58678 0.21678 0.68148 0.0
H1022 H 0.56155 0.2235 0.71056 0.0
H1023 H 0.60888 0.31904 0.76572 0.0
H1024 H 0.60816 0.3537 0.72472 0.0
H1025 H 0.61654 0.26921 0.67435 0.0
C1026 C 0.60285 0.19191 0.76343 0.0
C1027 C 0.59635 0.19334 0.79143 0.0
C1028 C 0.59779 0.22352 0.80471 0.0
C1029 C 0.60443 0.25189 0.79027 0.0
C1030 C 0.60995 0.24967 0.76258 0.0
C1031 C 0.60954 0.2204 0.74933 0.0
C1032 C 0.61382 0.2248 0.71915 0.0
C1033 C 0.64538 0.20891 0.70955 0.0
C1034 C 0.58425 0.21186 0.70346 0.0
C1035 C 0.61589 0.26116 0.71741 0.0
C1036 C 0.61371 0.2751 0.74269 0.0
C1037 C 0.61156 0.30842 0.74591 0.0
C1038 C 0.61121 0.32791 0.72266 0.0
C1039 C 0.61339 0.31402 0.69671 0.0
C1040 C 0.61628 0.28032 0.69412 0.0
H1041 H 0.26278 0.55287 0.66446 0.0
H1042 H 0.18127 0.60266 0.70059 0.0
H1043 H 0.21455 0.61508 0.74032 0.0
H1044 H 0.28511 0.51274 0.72017 0.0
H1045 H 0.32839 0.51454 0.71548 0.0
H1046 H 0.3018 0.5171 0.68674 0.0
H1047 H 0.32767 0.57136 0.67267 0.0
H1048 H 0.35475 0.56891 0.70134 0.0
H1049 H 0.32954 0.604 0.69659 0.0
H1050 H 0.25059 0.60993 0.78023 0.0
H1051 H 0.28882 0.59085 0.81564 0.0
H1052 H 0.34793 0.54586 0.75461 0.0
C1053 C 0.25224 0.5673 0.68034 0.0
C1054 C 0.21926 0.57662 0.67919 0.0
C1055 C 0.20645 0.59546 0.70051 0.0
C1056 C 0.22523 0.60262 0.72338 0.0
C1057 C 0.25697 0.59124 0.72458 0.0
C1058 C 0.27065 0.57447 0.70339 0.0
C1059 C 0.30367 0.56119 0.71113 0.0
C1060 C 0.30477 0.52422 0.70822 0.0
C1061 C 0.3305 0.57734 0.69444 0.0
C1062 C 0.30547 0.57134 0.74048 0.0
C1063 C 0.27851 0.58913 0.74774 0.0
C1064 C 0.27241 0.59717 0.77461 0.0
C1065 C 0.29409 0.5863 0.79458 0.0
C1066 C 0.32156 0.56798 0.7875 0.0
C1067 C 0.32772 0.56108 0.76013 0.0
H1068 H 0.09934 0.69863 0.22437 0.0
H1069 H 0.06785 0.76391 0.16109 0.0
H1070 H 0.08302 0.81042 0.18943 0.0
H1071 H 0.06526 0.73874 0.27531 0.0
H1072 H 0.09628 0.73174 0.30044 0.0
H1073 H 0.09143 0.70404 0.27296 0.0
H1074 H 0.15164 0.71205 0.2598 0.0
H1075 H 0.15671 0.73988 0.28742 0.0
H1076 H 0.16678 0.75211 0.25348 0.0
H1077 H 0.08961 0.84849 0.22711 0.0
H1078 H 0.08685 0.87524 0.27163 0.0
H1079 H 0.11485 0.78615 0.31095 0.0
C1080 C 0.09715 0.72274 0.21614 0.0
C1081 C 0.08285 0.72789 0.19055 0.0
C1082 C 0.07895 0.75968 0.18066 0.0
C1083 C 0.08772 0.78616 0.19653 0.0
C1084 C 0.1005 0.78041 0.22222 0.0
C1085 C 0.10549 0.74945 0.23193 0.0
C1086 C 0.11462 0.74976 0.26162 0.0
C1087 C 0.09045 0.72992 0.27856 0.0
C1088 C 0.14952 0.73775 0.26582 0.0
C1089 C 0.11194 0.78547 0.26747 0.0
C1090 C 0.10456 0.80281 0.24431 0.0
C1091 C 0.09645 0.83542 0.24523 0.0
C1092 C 0.09488 0.85043 0.27051 0.0
C1093 C 0.10138 0.83286 0.29444 0.0
C1094 C 0.11109 0.80033 0.29279 0.0
H1095 H 0.81768 0.09875 0.22144 0.0
H1096 H 0.74762 0.07356 0.15968 0.0
H1097 H 0.70346 0.07818 0.19311 0.0
H1098 H 0.78719 0.05131 0.26948 0.0
H1099 H 0.79476 0.07724 0.29797 0.0
H1100 H 0.81931 0.08073 0.26827 0.0
H1101 H 0.80472 0.14132 0.26423 0.0
H1102 H 0.78017 0.13808 0.29418 0.0
H1103 H 0.76276 0.15344 0.26323 0.0
H1104 H 0.66948 0.0744 0.23409 0.0
H1105 H 0.64836 0.06153 0.2795 0.0
H1106 H 0.74034 0.08868 0.31514 0.0
C1107 C 0.79286 0.09586 0.21471 0.0
C1108 C 0.78581 0.08644 0.18794 0.0
C1109 C 0.75326 0.08122 0.18007 0.0
C1110 C 0.72812 0.08394 0.19888 0.0
C1111 C 0.73599 0.092 0.22546 0.0
C1112 C 0.7676 0.09813 0.23336 0.0
C1113 C 0.7704 0.10113 0.26379 0.0
C1114 C 0.7943 0.07611 0.27554 0.0
C1115 C 0.78008 0.13555 0.27183 0.0
C1116 C 0.73583 0.09387 0.27191 0.0
C1117 C 0.71619 0.08946 0.24947 0.0
C1118 C 0.68434 0.07867 0.25179 0.0
C1119 C 0.67259 0.07129 0.2776 0.0
C1120 C 0.69265 0.07456 0.3007 0.0
C1121 C 0.72425 0.08703 0.29786 0.0
H1122 H 0.44645 0.73512 0.30588 0.0
H1123 H 0.36682 0.67566 0.27788 0.0
H1124 H 0.35495 0.71529 0.24176 0.0
H1125 H 0.4091 0.81459 0.28937 0.0
H1126 H 0.44744 0.83111 0.27883 0.0
H1127 H 0.44619 0.80073 0.30495 0.0
H1128 H 0.48583 0.76509 0.27758 0.0
H1129 H 0.4874 0.7954 0.25162 0.0
H1130 H 0.47584 0.75477 0.24316 0.0
H1131 H 0.35715 0.75726 0.20478 0.0
H1132 H 0.37487 0.79629 0.16979 0.0
H1133 H 0.45174 0.82876 0.22294 0.0
C1134 C 0.42628 0.73063 0.29235 0.0
C1135 C 0.40757 0.70235 0.29465 0.0
C1136 C 0.38122 0.69739 0.27666 0.0
C1137 C 0.37428 0.71979 0.25612 0.0
C1138 C 0.3936 0.74723 0.25412 0.0
C1139 C 0.41897 0.75276 0.2719 0.0
C1140 C 0.43807 0.78234 0.26404 0.0
C1141 C 0.435 0.80876 0.28558 0.0
C1142 C 0.47387 0.77387 0.25877 0.0
C1143 C 0.42054 0.79169 0.23829 0.0
C1144 C 0.39455 0.77159 0.23308 0.0
C1145 C 0.37695 0.77363 0.20894 0.0
C1146 C 0.387 0.79593 0.18924 0.0
C1147 C 0.41455 0.81546 0.19383 0.0
C1148 C 0.43047 0.81417 0.21909 0.0
H1149 H 0.67368 0.42464 0.22643 0.0
H1150 H 0.73385 0.37312 0.16972 0.0
H1151 H 0.77367 0.36197 0.2063 0.0
H1152 H 0.73331 0.46644 0.25498 0.0
H1153 H 0.7179 0.46654 0.28903 0.0
H1154 H 0.69043 0.46238 0.26105 0.0
H1155 H 0.66844 0.40899 0.28117 0.0
H1156 H 0.69566 0.41325 0.30956 0.0
H1157 H 0.69623 0.37693 0.28967 0.0
H1158 H 0.81151 0.36658 0.24651 0.0
H1159 H 0.84319 0.38609 0.2858 0.0
H1160 H 0.75845 0.43624 0.31532 0.0
C1161 C 0.69469 0.40997 0.22203 0.0
C1162 C 0.70078 0.39961 0.19542 0.0
C1163 C 0.72858 0.38077 0.19012 0.0
C1164 C 0.75131 0.37447 0.21078 0.0
C1165 C 0.74549 0.38683 0.23655 0.0
C1166 C 0.71751 0.40383 0.24226 0.0
C1167 C 0.7188 0.41875 0.27009 0.0
C1168 C 0.71491 0.45569 0.26867 0.0
C1169 C 0.69327 0.40356 0.28873 0.0
C1170 C 0.75265 0.40919 0.27862 0.0
C1171 C 0.76745 0.39008 0.25942 0.0
C1172 C 0.79987 0.38086 0.26194 0.0
C1173 C 0.81769 0.39201 0.28431 0.0
C1174 C 0.80315 0.41261 0.30353 0.0
C1175 C 0.77005 0.42047 0.30091 0.0
H1176 H 0.22934 0.05022 0.63402 0.0
H1177 H 0.24039 0.0057 0.5554 0.0
H1178 H 0.18391 0.02037 0.54383 0.0
H1179 H 0.1447 0.02437 0.64389 0.0
H1180 H 0.13352 0.06106 0.66088 0.0
H1181 H 0.17448 0.04617 0.66334 0.0
H1182 H 0.19605 0.1008 0.6454 0.0
H1183 H 0.15518 0.11575 0.64296 0.0
H1184 H 0.181 0.11637 0.61366 0.0
H1185 H 0.12836 0.04473 0.53908 0.0
H1186 H 0.07562 0.07306 0.54315 0.0
H1187 H 0.09846 0.09745 0.62603 0.0
C1188 C 0.21975 0.04341 0.61445 0.0
C1189 C 0.23926 0.02697 0.5955 0.0
C1190 C 0.22583 0.0182 0.57021 0.0
C1191 C 0.1938 0.02647 0.56346 0.0
C1192 C 0.17527 0.0429 0.58246 0.0
C1193 C 0.18754 0.05081 0.60763 0.0
C1194 C 0.16244 0.06847 0.62435 0.0
C1195 C 0.15324 0.04884 0.64961 0.0
C1196 C 0.17439 0.10236 0.63203 0.0
C1197 C 0.1345 0.07006 0.60434 0.0
C1198 C 0.14249 0.05529 0.58026 0.0
C1199 C 0.12158 0.05578 0.55801 0.0
C1200 C 0.09181 0.07189 0.56042 0.0
C1201 C 0.08304 0.08672 0.58497 0.0
C1202 C 0.10448 0.08549 0.60728 0.0
H1203 H 0.36925 0.19085 0.62163 0.0
H1204 H 0.43434 0.10826 0.62174 0.0
H1205 H 0.47984 0.14367 0.63197 0.0
H1206 H 0.42267 0.24464 0.58951 0.0
H1207 H 0.41067 0.27922 0.60902 0.0
H1208 H 0.38241 0.2469 0.60342 0.0
H1209 H 0.37471 0.24111 0.65521 0.0
H1210 H 0.40338 0.27317 0.66096 0.0
H1211 H 0.40957 0.23433 0.6766 0.0
H1212 H 0.51929 0.18774 0.63927 0.0
H1213 H 0.55017 0.23873 0.6394 0.0
H1214 H 0.46025 0.29279 0.63651 0.0
C1215 C 0.39287 0.17994 0.62413 0.0
C1216 C 0.39752 0.1463 0.62122 0.0
C1217 C 0.42939 0.13362 0.62393 0.0
C1218 C 0.45569 0.15361 0.63002 0.0
C1219 C 0.44999 0.18635 0.63334 0.0
C1220 C 0.41947 0.19954 0.63029 0.0
C1221 C 0.42037 0.23587 0.63324 0.0
C1222 C 0.40833 0.25263 0.60725 0.0
C1223 C 0.40084 0.24675 0.65798 0.0
C1224 C 0.45635 0.24101 0.63762 0.0
C1225 C 0.47291 0.21203 0.63796 0.0
C1226 C 0.50661 0.21058 0.63946 0.0
C1227 C 0.52392 0.23956 0.63956 0.0
C1228 C 0.50745 0.26942 0.63836 0.0
C1229 C 0.47327 0.27019 0.63826 0.0
H1230 H 0.39697 0.40324 0.55786 0.0
H1231 H 0.43324 0.42406 0.63818 0.0
H1232 H 0.38236 0.45152 0.64933 0.0
H1233 H 0.35095 0.4798 0.54947 0.0
H1234 H 0.31799 0.46062 0.53171 0.0
H1235 H 0.35852 0.44471 0.52906 0.0
H1236 H 0.33807 0.38891 0.54525 0.0
H1237 H 0.29755 0.40464 0.54802 0.0
H1238 H 0.31668 0.38582 0.57686 0.0
H1239 H 0.32615 0.47041 0.65391 0.0
H1240 H 0.26809 0.48373 0.65067 0.0
H1241 H 0.26718 0.45483 0.56651 0.0
C1242 C 0.39423 0.4141 0.57758 0.0
C1243 C 0.41935 0.41203 0.59708 0.0
C1244 C 0.41482 0.42618 0.62277 0.0
C1245 C 0.38583 0.44162 0.62933 0.0
C1246 C 0.36152 0.44311 0.60982 0.0
C1247 C 0.36539 0.43014 0.58434 0.0
C1248 C 0.33471 0.43432 0.56758 0.0
C1249 C 0.34092 0.45617 0.543 0.0
C1250 C 0.32094 0.40146 0.55893 0.0
C1251 C 0.31284 0.45074 0.58796 0.0
C1252 C 0.32895 0.45545 0.61218 0.0
C1253 C 0.31342 0.46757 0.63489 0.0
C1254 C 0.28044 0.47501 0.63287 0.0
C1255 C 0.26347 0.47089 0.60822 0.0
C1256 C 0.27994 0.45897 0.58536 0.0
H1257 H 0.07997 0.36823 0.62025 0.0
H1258 H 0.13883 0.33969 0.68896 0.0
H1259 H 0.10238 0.29366 0.69755 0.0
H1260 H 0.99939 0.34013 0.6485 0.0
H1261 H 0.98616 0.32643 0.61573 0.0
H1262 H 0.01284 0.3607 0.61842 0.0
H1263 H 0.05371 0.33268 0.58655 0.0
H1264 H 0.02741 0.29833 0.58393 0.0
H1265 H 0.06872 0.29311 0.59517 0.0
H1266 H 0.06562 0.2465 0.69414 0.0
H1267 H 0.03054 0.20173 0.67924 0.0
H1268 H 0.99533 0.26065 0.6126 0.0
C1269 C 0.08436 0.35284 0.6376 0.0
C1270 C 0.11201 0.35726 0.65395 0.0
C1271 C 0.11779 0.33635 0.67612 0.0
C1272 C 0.0971 0.31038 0.68128 0.0
C1273 C 0.07067 0.30581 0.66413 0.0
C1274 C 0.06404 0.32661 0.64286 0.0
C1275 C 0.03646 0.31417 0.62555 0.0
C1276 C 0.00696 0.3367 0.62716 0.0
C1277 C 0.04724 0.30927 0.59608 0.0
C1278 C 0.02987 0.28237 0.63955 0.0
C1279 C 0.04938 0.2783 0.66208 0.0
C1280 C 0.04972 0.24963 0.67687 0.0
C1281 C 0.02991 0.22427 0.66814 0.0
C1282 C 0.01027 0.22778 0.64478 0.0
C1283 C 0.00979 0.25744 0.63074 0.0
H1284 H 0.2536 0.42874 0.91708 0.0
H1285 H 0.25444 0.50439 0.85621 0.0
H1286 H 0.19467 0.50505 0.856 0.0
H1287 H 0.18995 0.38534 0.88963 0.0
H1288 H 0.17212 0.37361 0.92138 0.0
H1289 H 0.21483 0.38198 0.91957 0.0
H1290 H 0.20926 0.42465 0.9574 0.0
H1291 H 0.16649 0.4162 0.9595 0.0
H1292 H 0.18021 0.45684 0.95355 0.0
H1293 H 0.13505 0.4929 0.85828 0.0
H1294 H 0.08 0.47068 0.86487 0.0
H1295 H 0.11816 0.4033 0.92422 0.0
C1296 C 0.24126 0.4461 0.90427 0.0
C1297 C 0.25877 0.46661 0.88676 0.0
C1298 C 0.24161 0.4885 0.86989 0.0
C1299 C 0.20762 0.48908 0.86962 0.0
C1300 C 0.1911 0.46781 0.88648 0.0
C1301 C 0.20733 0.44697 0.90372 0.0
C1302 C 0.18392 0.42501 0.9184 0.0
C1303 C 0.19061 0.38939 0.91184 0.0
C1304 C 0.18504 0.43105 0.94903 0.0
C1305 C 0.15208 0.4362 0.90623 0.0
C1306 C 0.15669 0.46101 0.88796 0.0
C1307 C 0.13108 0.47383 0.87288 0.0
C1308 C 0.09996 0.46093 0.8766 0.0
C1309 C 0.09472 0.43549 0.89524 0.0
C1310 C 0.1212 0.42327 0.91034 0.0
H1311 H 0.12107 0.17102 0.89844 0.0
H1312 H 0.09902 0.13639 0.818 0.0
H1313 H 0.06981 0.18738 0.80782 0.0
H1314 H 0.04454 0.20852 0.9095 0.0
H1315 H 0.06153 0.24137 0.92863 0.0
H1316 H 0.08157 0.20285 0.92844 0.0
H1317 H 0.13437 0.23041 0.91191 0.0
H1318 H 0.11432 0.26899 0.91173 0.0
H1319 H 0.13351 0.25443 0.88147 0.0
H1320 H 0.04376 0.24358 0.80683 0.0
H1321 H 0.01744 0.29601 0.81713 0.0
H1322 H 0.05537 0.29108 0.89889 0.0
C1323 C 0.11027 0.17431 0.87864 0.0
C1324 C 0.11247 0.1501 0.85888 0.0
C1325 C 0.09745 0.1548 0.83336 0.0
C1326 C 0.0811 0.18371 0.82739 0.0
C1327 C 0.07979 0.20739 0.8473 0.0
C1328 C 0.0936 0.20267 0.87255 0.0
C1329 C 0.08737 0.2308 0.89106 0.0
C1330 C 0.06757 0.22025 0.91586 0.0
C1331 C 0.1193 0.24712 0.89953 0.0
C1332 C 0.06779 0.25216 0.8724 0.0
C1333 C 0.06401 0.23866 0.84707 0.0
C1334 C 0.04656 0.25431 0.8266 0.0
C1335 C 0.03194 0.2841 0.83252 0.0
C1336 C 0.03452 0.29732 0.85876 0.0
C1337 C 0.05307 0.28136 0.87867 0.0
H1338 H 0.41439 0.04283 0.86566 0.0
H1339 H 0.39843 0.09983 0.93768 0.0
H1340 H 0.34195 0.08068 0.93953 0.0
H1341 H 0.34359 0.0587 0.83407 0.0
H1342 H 0.3361 0.01911 0.82048 0.0
H1343 H 0.3769 0.0314 0.82781 0.0
H1344 H 0.38552 0.98223 0.8587 0.0
H1345 H 0.34476 0.96906 0.85141 0.0
H1346 H 0.35765 0.97464 0.88594 0.0
H1347 H 0.28573 0.06179 0.93005 0.0
H1348 H 0.23381 0.04603 0.90915 0.0
H1349 H 0.28579 0.00198 0.84272 0.0
C1350 C 0.39914 0.05081 0.88207 0.0
C1351 C 0.41084 0.07278 0.90156 0.0
C1352 C 0.39017 0.08264 0.92277 0.0
C1353 C 0.35804 0.07185 0.92401 0.0
C1354 C 0.34705 0.05074 0.90416 0.0
C1355 C 0.36707 0.03999 0.88375 0.0
C1356 C 0.3485 0.01956 0.86363 0.0
C1357 C 0.35141 0.03306 0.83479 0.0
C1358 C 0.35978 0.98428 0.86502 0.0
C1359 C 0.31447 0.02308 0.8745 0.0
C1360 C 0.31433 0.04011 0.89845 0.0
C1361 C 0.28557 0.04805 0.9115 0.0
C1362 C 0.25617 0.03912 0.89937 0.0
C1363 C 0.25574 0.02309 0.87413 0.0
C1364 C 0.28534 0.01422 0.86201 0.0
H1365 H 0.37007 0.31472 0.84292 0.0
H1366 H 0.40754 0.37003 0.91029 0.0
H1367 H 0.44868 0.32787 0.91915 0.0
H1368 H 0.38221 0.23472 0.87251 0.0
H1369 H 0.39427 0.21709 0.84086 0.0
H1370 H 0.36657 0.25066 0.8411 0.0
H1371 H 0.40487 0.28228 0.80917 0.0
H1372 H 0.43289 0.24898 0.80913 0.0
H1373 H 0.44652 0.2885 0.81902 0.0
H1374 H 0.48662 0.28098 0.91963 0.0
H1375 H 0.51828 0.23129 0.91267 0.0
H1376 H 0.4568 0.20694 0.84419 0.0
C1377 C 0.38647 0.31748 0.8599 0.0
C1378 C 0.38559 0.34534 0.87615 0.0
C1379 C 0.40797 0.34873 0.89772 0.0
C1380 C 0.43133 0.32498 0.90286 0.0
C1381 C 0.43205 0.29811 0.88611 0.0
C1382 C 0.41018 0.29414 0.86512 0.0
C1383 C 0.41709 0.26361 0.84948 0.0
C1384 C 0.38832 0.24013 0.8511 0.0
C1385 C 0.42587 0.27131 0.81996 0.0
C1386 C 0.44615 0.25102 0.86506 0.0
C1387 C 0.45437 0.2713 0.88608 0.0
C1388 C 0.48039 0.26483 0.90328 0.0
C1389 C 0.49826 0.23658 0.89912 0.0
C1390 C 0.49004 0.21523 0.8779 0.0
C1391 C 0.46378 0.22279 0.86055 0.0
H1392 H 0.886 0.90784 0.36886 0.0
H1393 H 0.90728 0.90767 0.45456 0.0
H1394 H 0.85599 0.9369 0.46335 0.0
H1395 H 0.8438 0.98611 0.365 0.0
H1396 H 0.81376 0.97159 0.34145 0.0
H1397 H 0.85391 0.95447 0.34163 0.0
H1398 H 0.82948 0.8976 0.34828 0.0
H1399 H 0.78927 0.91445 0.34827 0.0
H1400 H 0.80283 0.89013 0.3764 0.0
H1401 H 0.80162 0.9643 0.46285 0.0
H1402 H 0.74607 0.98406 0.45378 0.0
H1403 H 0.75792 0.9624 0.36863 0.0
C1404 C 0.88003 0.91472 0.38933 0.0
C1405 C 0.90062 0.90624 0.41108 0.0
C1406 C 0.89177 0.91443 0.43775 0.0
C1407 C 0.86281 0.93101 0.44286 0.0
C1408 C 0.8427 0.9387 0.42105 0.0
C1409 C 0.85074 0.93057 0.39482 0.0
C1410 C 0.82343 0.93886 0.37536 0.0
C1411 C 0.83439 0.96427 0.35464 0.0
C1412 C 0.81049 0.90845 0.36126 0.0
C1413 C 0.79869 0.95262 0.39478 0.0
C1414 C 0.81053 0.95284 0.42095 0.0
C1415 C 0.79208 0.96428 0.44244 0.0
C1416 C 0.76057 0.9755 0.43709 0.0
C1417 C 0.74758 0.97467 0.41056 0.0
C1418 C 0.76709 0.96321 0.38917 0.0
H1419 H 0.62123 0.82789 0.37734 0.0
H1420 H 0.55138 0.90113 0.39973 0.0
H1421 H 0.50795 0.85987 0.39962 0.0
H1422 H 0.56917 0.78377 0.33288 0.0
H1423 H 0.58554 0.74513 0.34262 0.0
H1424 H 0.6106 0.78059 0.34432 0.0
H1425 H 0.62251 0.76895 0.39495 0.0
H1426 H 0.59748 0.73347 0.39341 0.0
H1427 H 0.5892 0.76421 0.41809 0.0
H1428 H 0.47246 0.80974 0.39739 0.0
H1429 H 0.44787 0.75572 0.39262 0.0
H1430 H 0.5421 0.71617 0.37233 0.0
C1431 C 0.59692 0.8353 0.38256 0.0
C1432 C 0.58973 0.86772 0.38878 0.0
C1433 C 0.55737 0.87646 0.39477 0.0
C1434 C 0.53262 0.85318 0.39486 0.0
C1435 C 0.54071 0.82136 0.38881 0.0
C1436 C 0.5721 0.81251 0.38269 0.0
C1437 C 0.57465 0.7769 0.37668 0.0
C1438 C 0.58563 0.77128 0.34739 0.0
C1439 C 0.59729 0.75989 0.397 0.0
C1440 C 0.5398 0.76689 0.38063 0.0
C1441 C 0.52051 0.79281 0.38754 0.0
C1442 C 0.48737 0.78929 0.39203 0.0
C1443 C 0.47365 0.7585 0.38931 0.0
C1444 C 0.49308 0.73166 0.38223 0.0
C1445 C 0.52658 0.7361 0.37791 0.0
H1446 H 0.72411 0.48031 0.38181 0.0
H1447 H 0.78346 0.56362 0.40099 0.0
H1448 H 0.73452 0.59786 0.40115 0.0
H1449 H 0.67026 0.52035 0.33684 0.0
H1450 H 0.6349 0.4983 0.34747 0.0
H1451 H 0.67439 0.47997 0.34998 0.0
H1452 H 0.66581 0.46952 0.4012 0.0
H1453 H 0.62606 0.48725 0.3987 0.0
H1454 H 0.65494 0.50263 0.42286 0.0
H1455 H 0.67846 0.62382 0.39672 0.0
H1456 H 0.61968 0.6371 0.39374 0.0
H1457 H 0.59828 0.53684 0.37778 0.0
C1458 C 0.72686 0.50562 0.38655 0.0
C1459 C 0.75776 0.51913 0.39148 0.0
C1460 C 0.76011 0.55254 0.39729 0.0
C1461 C 0.73243 0.5723 0.39724 0.0
C1462 C 0.7025 0.55836 0.39141 0.0
C1463 C 0.69954 0.52567 0.38658 0.0
C1464 C 0.6647 0.51652 0.38084 0.0
C1465 C 0.66086 0.50299 0.35208 0.0
C1466 C 0.65214 0.49257 0.40218 0.0
C1467 C 0.64847 0.54907 0.38339 0.0
C1468 C 0.6706 0.57307 0.38917 0.0
C1469 C 0.66093 0.60515 0.39231 0.0
C1470 C 0.62767 0.61259 0.39037 0.0
C1471 C 0.60469 0.58798 0.38566 0.0
C1472 C 0.61545 0.55605 0.38157 0.0
H1473 H 0.91845 0.64423 0.40296 0.0
H1474 H 0.87535 0.6344 0.32342 0.0
H1475 H 0.90153 0.68548 0.30901 0.0
H1476 H 0.91203 0.73032 0.40836 0.0
H1477 H 0.95052 0.73413 0.42543 0.0
H1478 H 0.92714 0.69777 0.42911 0.0
H1479 H 0.97622 0.66411 0.41258 0.0
H1480 H 0.99969 0.70038 0.40877 0.0
H1481 H 0.99446 0.6736 0.38048 0.0
H1482 H 0.93207 0.73985 0.30455 0.0
H1483 H 0.96715 0.78843 0.30962 0.0
H1484 H 0.99119 0.75812 0.39126 0.0
C1485 C 0.91416 0.65306 0.38265 0.0
C1486 C 0.89466 0.63575 0.36441 0.0
C1487 C 0.89028 0.64751 0.33768 0.0
C1488 C 0.90491 0.67648 0.3294 0.0
C1489 C 0.92407 0.69306 0.34803 0.0
C1490 C 0.92886 0.68145 0.37402 0.0
C1491 C 0.9515 0.70258 0.39001 0.0
C1492 C 0.93426 0.71706 0.41468 0.0
C1493 C 0.98229 0.68406 0.39844 0.0
C1494 C 0.95878 0.72799 0.36907 0.0
C1495 C 0.94256 0.72262 0.34502 0.0
C1496 C 0.94512 0.74406 0.32323 0.0
C1497 C 0.96496 0.7715 0.32622 0.0
C1498 C 0.98225 0.77654 0.35059 0.0
C1499 C 0.97888 0.75451 0.37212 0.0
H1500 H 0.83763 0.63343 0.1285 0.0
H1501 H 0.9087 0.57082 0.09163 0.0
H1502 H 0.86715 0.52787 0.08733 0.0
H1503 H 0.79833 0.57233 0.16741 0.0
H1504 H 0.75853 0.58966 0.16328 0.0
H1505 H 0.7938 0.61518 0.16261 0.0
H1506 H 0.77639 0.63727 0.11563 0.0
H1507 H 0.74107 0.6118 0.11616 0.0
H1508 H 0.76902 0.6095 0.08834 0.0
H1509 H 0.81649 0.49206 0.08693 0.0
H1510 H 0.76275 0.46615 0.09215 0.0
H1511 H 0.72649 0.55297 0.13024 0.0
C1512 C 0.84436 0.61083 0.11922 0.0
C1513 C 0.87627 0.60543 0.11015 0.0
C1514 C 0.88437 0.57525 0.09876 0.0
C1515 C 0.86091 0.55086 0.09616 0.0
C1516 C 0.82957 0.55704 0.10532 0.0
C1517 C 0.82141 0.58627 0.11677 0.0
C1518 C 0.78647 0.58678 0.1258 0.0
C1519 C 0.78416 0.59124 0.1566 0.0
C1520 C 0.7671 0.61288 0.11056 0.0
C1521 C 0.77603 0.55335 0.11748 0.0
C1522 C 0.80106 0.53649 0.10561 0.0
C1523 C 0.79677 0.50507 0.09625 0.0
C1524 C 0.76615 0.49057 0.09926 0.0
C1525 C 0.74034 0.50745 0.11165 0.0
C1526 C 0.74559 0.53926 0.12076 0.0
H1527 H 0.9593 0.74234 0.08281 0.0
H1528 H 0.05458 0.77162 0.11013 0.0
H1529 H 0.0382 0.82889 0.10621 0.0
H1530 H 0.94274 0.81596 0.03688 0.0
H1531 H 0.90072 0.81541 0.04669 0.0
H1532 H 0.92299 0.77815 0.04404 0.0
H1533 H 0.90725 0.76389 0.09329 0.0
H1534 H 0.88553 0.80108 0.09634 0.0
H1535 H 0.91743 0.7915 0.12008 0.0
H1536 H 0.00706 0.88092 0.11055 0.0
H1537 H 0.96529 0.92191 0.12086 0.0
H1538 H 0.89113 0.85849 0.08909 0.0
C1539 C 0.97712 0.76094 0.0867 0.0
C1540 C 0.00812 0.75289 0.0966 0.0
C1541 C 0.03084 0.77752 0.10208 0.0
C1542 C 0.02169 0.81007 0.09994 0.0
C1543 C 0.99009 0.8173 0.09163 0.0
C1544 C 0.96841 0.7933 0.08444 0.0
C1545 C 0.93469 0.80651 0.07999 0.0
C1546 C 0.92471 0.80386 0.05012 0.0
C1547 C 0.90981 0.78977 0.09854 0.0
C1548 C 0.94006 0.84119 0.08793 0.0
C1549 C 0.97224 0.84733 0.09394 0.0
C1550 C 0.98199 0.87667 0.1051 0.0
C1551 C 0.95814 0.89982 0.11092 0.0
C1552 C 0.92501 0.89319 0.10591 0.0
C1553 C 0.91627 0.86408 0.09325 0.0
H1554 H 0.77921 0.94196 0.11885 0.0
H1555 H 0.744 0.02796 0.07804 0.0
H1556 H 0.69177 0.00025 0.06887 0.0
H1557 H 0.73995 0.88297 0.07548 0.0
H1558 H 0.73177 0.85625 0.10344 0.0
H1559 H 0.76683 0.88212 0.10432 0.0
H1560 H 0.74764 0.906 0.1499 0.0
H1561 H 0.71263 0.88023 0.14921 0.0
H1562 H 0.70762 0.92322 0.15218 0.0
H1563 H 0.64179 0.96344 0.06754 0.0
H1564 H 0.59934 0.92215 0.07463 0.0
H1565 H 0.66908 0.86197 0.11704 0.0
C1566 C 0.76078 0.95506 0.10772 0.0
C1567 C 0.7657 0.98719 0.09919 0.0
C1568 C 0.74079 0.00328 0.08469 0.0
C1569 C 0.71111 0.98771 0.07938 0.0
C1570 C 0.70702 0.95608 0.08853 0.0
C1571 C 0.73136 0.94002 0.10231 0.0
C1572 C 0.72079 0.90694 0.1115 0.0
C1573 C 0.74104 0.88051 0.09786 0.0
C1574 C 0.72224 0.90395 0.14253 0.0
C1575 C 0.6863 0.90692 0.10124 0.0
C1576 C 0.67873 0.93526 0.08783 0.0
C1577 C 0.64761 0.94111 0.07784 0.0
C1578 C 0.62362 0.91761 0.0821 0.0
C1579 C 0.63087 0.88876 0.09637 0.0
C1580 C 0.66282 0.88334 0.10557 0.0
H1581 H 0.58382 0.62939 0.16265 0.0
H1582 H 0.55046 0.58199 0.09 0.0
H1583 H 0.5097 0.6254 0.08287 0.0
H1584 H 0.50329 0.66599 0.18319 0.0
H1585 H 0.52352 0.70192 0.19475 0.0
H1586 H 0.54356 0.66339 0.19734 0.0
H1587 H 0.59226 0.6863 0.17047 0.0
H1588 H 0.57237 0.72459 0.16753 0.0
H1589 H 0.58534 0.70382 0.13753 0.0
H1590 H 0.48043 0.67928 0.07956 0.0
H1591 H 0.46611 0.73739 0.08024 0.0
H1592 H 0.52066 0.74872 0.15464 0.0
C1593 C 0.56716 0.62775 0.14573 0.0
C1594 C 0.57001 0.60273 0.12681 0.0
C1595 C 0.54816 0.60102 0.10479 0.0
C1596 C 0.52505 0.62552 0.10066 0.0
C1597 C 0.52396 0.65096 0.11909 0.0
C1598 C 0.54423 0.65184 0.14145 0.0
C1599 C 0.54175 0.6834 0.15634 0.0
C1600 C 0.52715 0.67837 0.18457 0.0
C1601 C 0.57488 0.70051 0.15803 0.0
C1602 C 0.51853 0.70112 0.13794 0.0
C1603 C 0.5077 0.6819 0.11696 0.0
C1604 C 0.48821 0.69429 0.09621 0.0
C1605 C 0.48024 0.72725 0.0967 0.0
C1606 C 0.49247 0.74728 0.11744 0.0
C1607 C 0.51103 0.7338 0.13857 0.0
loop_
_geom_bond_atom_site_label_1
_geom_bond_atom_site_label_2
_geom_bond_distance
_geom_bond_site_symmetry_2
_ccdc_geom_bond_type
Co0 N4 2.148 . S
Co0 N10 2.128 1_455 S
Co0 N20 2.194 1_455 S
Co0 O25 2.351 1_455 S
Co0 O26 2.155 . S
Co0 O27 2.096 . S
C1 N4 1.301 . S
C1 N5 1.328 . S
C1 H6 0.930 . S
C2 C3 1.333 . S
C2 N4 1.317 . S
C2 H7 0.930 . S
C3 C2 1.333 . S
C3 N5 1.350 . S
C3 H29 0.931 . S
N4 Co0 2.148 . S
N4 C1 1.301 . S
N4 C2 1.317 . S
N5 C1 1.328 . S
N5 C3 1.350 . S
H6 C1 0.930 . S
H7 C2 0.930 . S
C8 O9 1.224 . S
C8 O27 1.247 . S
O9 C8 1.224 . S
N10 Co0 2.128 1_655 S
N10 C11 1.355 . S
N10 C13 1.311 . S
C11 N10 1.355 . S
C11 C12 1.363 . S
C11 H23 0.929 . S
C12 C11 1.363 . S
C12 N14 1.375 . S
C12 H30 0.931 . S
C13 N10 1.311 . S
C13 N14 1.347 . S
C13 H24 0.929 . S
N14 C12 1.375 . S
N14 C13 1.347 . S
C15 C18 1.365 . S
C15 N20 1.328 . S
C15 H21 0.929 . S
C16 C17 1.362 . S
C16 C19 1.378 . S
C16 H31 0.929 . S
C17 C16 1.362 . S
C17 C18 1.366 . S
C18 C15 1.365 . S
C18 C17 1.366 . S
C18 H32 0.930 . S
C19 C16 1.378 . S
C19 N20 1.315 . S
C19 H22 0.930 . S
N20 Co0 2.194 1_655 S
N20 C15 1.328 . S
N20 C19 1.315 . S
H21 C15 0.929 . S
H22 C19 0.930 . S
H23 C11 0.929 . S
H24 C13 0.929 . S
O25 Co0 2.351 1_655 S
O25 C28 1.245 1_655 S
O26 Co0 2.155 . S
O26 C28 1.240 . S
O27 Co0 2.096 . S
O27 C8 1.247 . S
C28 O25 1.245 1_455 S
C28 O26 1.240 . S
H29 C3 0.931 . S
H30 C12 0.931 . S
H31 C16 0.929 . S
H32 C18 0.930 . S
Co33 N37 2.148 . S
Co33 N43 2.128 1_545 S
Co33 N53 2.194 1_545 S
Co33 O58 2.350 1_545 S
Co33 O59 2.155 . S
Co33 O60 2.096 . S
C34 N37 1.301 . S
C34 N38 1.328 . S
C34 H39 0.930 . S
C35 C36 1.333 . S
C35 N37 1.317 . S
C35 H40 0.930 . S
C36 C35 1.333 . S
C36 N38 1.350 . S
C36 H62 0.931 . S
N37 Co33 2.148 . S
N37 C34 1.301 . S
N37 C35 1.317 . S
N38 C34 1.328 . S
N38 C36 1.350 . S
H39 C34 0.930 . S
H40 C35 0.930 . S
C41 O42 1.224 . S
C41 O60 1.247 . S
O42 C41 1.224 . S
N43 Co33 2.128 1_565 S
N43 C44 1.355 . S
N43 C46 1.311 . S
C44 N43 1.355 . S
C44 C45 1.363 . S
C44 H56 0.929 . S
C45 C44 1.363 . S
C45 N47 1.375 . S
C45 H63 0.931 . S
C46 N43 1.311 . S
C46 N47 1.347 . S
C46 H57 0.929 . S
N47 C45 1.375 . S
N47 C46 1.347 . S
C48 C51 1.365 . S
C48 N53 1.328 . S
C48 H54 0.929 . S
C49 C50 1.362 . S
C49 C52 1.378 . S
C49 H64 0.929 . S
C50 C49 1.362 . S
C50 C51 1.366 . S
C51 C48 1.365 . S
C51 C50 1.366 . S
C51 H65 0.930 . S
C52 C49 1.378 . S
C52 N53 1.315 . S
C52 H55 0.930 . S
N53 Co33 2.194 1_565 S
N53 C48 1.328 . S
N53 C52 1.315 . S
H54 C48 0.929 . S
H55 C52 0.930 . S
H56 C44 0.929 . S
H57 C46 0.929 . S
O58 Co33 2.350 1_565 S
O58 C61 1.241 1_565 S
O59 Co33 2.155 . S
O59 C61 1.240 . S
O60 Co33 2.096 . S
O60 C41 1.247 . S
C61 O58 1.241 1_545 S
C61 O59 1.240 . S
H62 C36 0.931 . S
H63 C45 0.931 . S
H64 C49 0.929 . S
H65 C51 0.930 . S
Co66 N70 2.148 . S
Co66 N76 2.128 . S
Co66 N86 2.194 . S
Co66 O91 2.351 . S
Co66 O92 2.155 . S
Co66 O93 2.096 . S
C67 N70 1.301 . S
C67 N71 1.328 . S
C67 H72 0.930 . S
C68 C69 1.333 . S
C68 N70 1.317 . S
C68 H73 0.930 . S
C69 C68 1.333 . S
C69 N71 1.350 . S
C69 H95 0.931 . S
N70 Co66 2.148 . S
N70 C67 1.301 . S
N70 C68 1.317 . S
N71 C67 1.328 . S
N71 C69 1.350 . S
H72 C67 0.930 . S
H73 C68 0.930 . S
C74 O75 1.224 . S
C74 O93 1.247 . S
O75 C74 1.224 . S
N76 Co66 2.128 . S
N76 C77 1.355 . S
N76 C79 1.311 . S
C77 N76 1.355 . S
C77 C78 1.363 . S
C77 H89 0.929 . S
C78 C77 1.363 . S
C78 N80 1.375 . S
C78 H96 0.931 . S
C79 N76 1.311 . S
C79 N80 1.347 . S
C79 H90 0.929 . S
N80 C78 1.375 . S
N80 C79 1.347 . S
C81 C84 1.365 . S
C81 N86 1.328 . S
C81 H87 0.929 . S
C82 C83 1.362 . S
C82 C85 1.378 . S
C82 H97 0.929 . S
C83 C82 1.362 . S
C83 C84 1.366 . S
C84 C81 1.365 . S
C84 C83 1.366 . S
C84 H98 0.930 . S
C85 C82 1.378 . S
C85 N86 1.315 . S
C85 H88 0.930 . S
N86 Co66 2.194 . S
N86 C81 1.328 . S
N86 C85 1.315 . S
H87 C81 0.929 . S
H88 C85 0.930 . S
H89 C77 0.929 . S
H90 C79 0.929 . S
O91 Co66 2.351 . S
O91 C94 1.244 . S
O92 Co66 2.155 . S
O92 C94 1.240 . S
O93 Co66 2.096 . S
O93 C74 1.247 . S
C94 O91 1.244 . S
C94 O92 1.240 . S
H95 C69 0.931 . S
H96 C78 0.931 . S
H97 C82 0.929 . S
H98 C84 0.930 . S
Co99 N103 2.148 . S
Co99 N109 2.128 . S
Co99 N119 2.194 . S
Co99 O124 2.351 . S
Co99 O125 2.155 . S
Co99 O126 2.096 . S
C100 N103 1.301 . S
C100 N104 1.328 . S
C100 H105 0.930 . S
C101 C102 1.333 . S
C101 N103 1.317 . S
C101 H106 0.930 . S
C102 C101 1.333 . S
C102 N104 1.350 . S
C102 H128 0.931 . S
N103 Co99 2.148 . S
N103 C100 1.301 . S
N103 C101 1.317 . S
N104 C100 1.328 . S
N104 C102 1.350 . S
H105 C100 0.930 . S
H106 C101 0.930 . S
C107 O108 1.224 . S
C107 O126 1.247 . S
O108 C107 1.224 . S
N109 Co99 2.128 . S
N109 C110 1.355 . S
N109 C112 1.311 . S
C110 N109 1.355 . S
C110 C111 1.363 . S
C110 H122 0.929 . S
C111 C110 1.363 . S
C111 N113 1.375 . S
C111 H129 0.931 . S
C112 N109 1.311 . S
C112 N113 1.347 . S
C112 H123 0.929 . S
N113 C111 1.375 . S
N113 C112 1.347 . S
C114 C117 1.365 . S
C114 N119 1.328 . S
C114 H120 0.929 . S
C115 C116 1.362 . S
C115 C118 1.378 . S
C115 H130 0.929 . S
C116 C115 1.362 . S
C116 C117 1.366 . S
C117 C114 1.365 . S
C117 C116 1.366 . S
C117 H131 0.930 . S
C118 C115 1.378 . S
C118 N119 1.315 . S
C118 H121 0.930 . S
N119 Co99 2.194 . S
N119 C114 1.328 . S
N119 C118 1.315 . S
H120 C114 0.929 . S
H121 C118 0.930 . S
H122 C110 0.929 . S
H123 C112 0.929 . S
O124 Co99 2.351 . S
O124 C127 1.244 . S
O125 Co99 2.155 . S
O125 C127 1.240 . S
O126 Co99 2.096 . S
O126 C107 1.247 . S
C127 O124 1.244 . S
C127 O125 1.240 . S
H128 C102 0.931 . S
H129 C111 0.931 . S
H130 C115 0.929 . S
H131 C117 0.930 . S
Co132 N136 2.148 . S
Co132 N142 2.128 1_455 S
Co132 N152 2.194 1_455 S
Co132 O157 2.350 1_455 S
Co132 O158 2.155 . S
Co132 O159 2.096 . S
C133 N136 1.301 . S
C133 N137 1.328 . S
C133 H138 0.930 . S
C134 C135 1.333 . S
C134 N136 1.317 . S
C134 H139 0.930 . S
C135 C134 1.333 . S
C135 N137 1.350 . S
C135 H161 0.931 . S
N136 Co132 2.148 . S
N136 C133 1.301 . S
N136 C134 1.317 . S
N137 C133 1.328 . S
N137 C135 1.350 . S
H138 C133 0.930 . S
H139 C134 0.930 . S
C140 O141 1.224 . S
C140 O159 1.247 . S
O141 C140 1.224 . S
N142 Co132 2.128 1_655 S
N142 C143 1.355 . S
N142 C145 1.311 . S
C143 N142 1.355 . S
C143 C144 1.363 . S
C143 H155 0.929 . S
C144 C143 1.363 . S
C144 N146 1.375 . S
C144 H162 0.931 . S
C145 N142 1.311 . S
C145 N146 1.347 . S
C145 H156 0.929 . S
N146 C144 1.375 . S
N146 C145 1.347 . S
C147 C150 1.365 . S
C147 N152 1.328 . S
C147 H153 0.929 . S
C148 C149 1.362 . S
C148 C151 1.378 . S
C148 H163 0.929 . S
C149 C148 1.362 . S
C149 C150 1.366 . S
C150 C147 1.365 . S
C150 C149 1.366 . S
C150 H164 0.930 . S
C151 C148 1.378 . S
C151 N152 1.315 . S
C151 H154 0.930 . S
N152 Co132 2.194 1_655 S
N152 C147 1.328 . S
N152 C151 1.315 . S
H153 C147 0.929 . S
H154 C151 0.930 . S
H155 C143 0.929 . S
H156 C145 0.929 . S
O157 Co132 2.350 1_655 S
O157 C160 1.241 1_655 S
O158 Co132 2.155 . S
O158 C160 1.240 . S
O159 Co132 2.096 . S
O159 C140 1.247 . S
C160 O157 1.241 1_455 S
C160 O158 1.240 . S
H161 C135 0.931 . S
H162 C144 0.931 . S
H163 C148 0.929 . S
H164 C150 0.930 . S
Co165 N169 2.148 . S
Co165 N175 2.128 1_545 S
Co165 N185 2.194 1_545 S
Co165 O190 2.351 1_545 S
Co165 O191 2.155 . S
Co165 O192 2.096 . S
C166 N169 1.301 . S
C166 N170 1.328 . S
C166 H171 0.930 . S
C167 C168 1.333 . S
C167 N169 1.317 . S
C167 H172 0.930 . S
C168 C167 1.333 . S
C168 N170 1.350 . S
C168 H194 0.931 . S
N169 Co165 2.148 . S
N169 C166 1.301 . S
N169 C167 1.317 . S
N170 C166 1.328 . S
N170 C168 1.350 . S
H171 C166 0.930 . S
H172 C167 0.930 . S
C173 O174 1.224 . S
C173 O192 1.247 . S
O174 C173 1.224 . S
N175 Co165 2.128 1_565 S
N175 C176 1.355 . S
N175 C178 1.311 . S
C176 N175 1.355 . S
C176 C177 1.363 . S
C176 H188 0.929 . S
C177 C176 1.363 . S
C177 N179 1.375 . S
C177 H195 0.931 . S
C178 N175 1.311 . S
C178 N179 1.347 . S
C178 H189 0.929 . S
N179 C177 1.375 . S
N179 C178 1.347 . S
C180 C183 1.365 . S
C180 N185 1.328 . S
C180 H186 0.929 . S
C181 C182 1.362 . S
C181 C184 1.378 . S
C181 H196 0.929 . S
C182 C181 1.362 . S
C182 C183 1.366 . S
C183 C180 1.365 . S
C183 C182 1.366 . S
C183 H197 0.930 . S
C184 C181 1.378 . S
C184 N185 1.315 . S
C184 H187 0.930 . S
N185 Co165 2.194 1_565 S
N185 C180 1.328 . S
N185 C184 1.315 . S
H186 C180 0.929 . S
H187 C184 0.930 . S
H188 C176 0.929 . S
H189 C178 0.929 . S
O190 Co165 2.351 1_565 S
O190 C193 1.245 1_565 S
O191 Co165 2.155 . S
O191 C193 1.240 . S
O192 Co165 2.096 . S
O192 C173 1.247 . S
C193 O190 1.245 1_545 S
C193 O191 1.240 . S
H194 C168 0.931 . S
H195 C177 0.931 . S
H196 C181 0.929 . S
H197 C183 0.930 . S
Co198 N202 2.148 . S
Co198 N208 2.128 . S
Co198 N218 2.194 . S
Co198 O223 2.351 . S
Co198 O224 2.155 . S
Co198 O225 2.096 . S
C199 N202 1.301 . S
C199 N203 1.328 . S
C199 H204 0.930 . S
C200 C201 1.333 . S
C200 N202 1.317 . S
C200 H205 0.930 . S
C201 C200 1.333 . S
C201 N203 1.350 . S
C201 H227 0.931 . S
N202 Co198 2.148 . S
N202 C199 1.301 . S
N202 C200 1.317 . S
N203 C199 1.328 . S
N203 C201 1.350 . S
H204 C199 0.930 . S
H205 C200 0.930 . S
C206 O207 1.224 . S
C206 O225 1.247 . S
O207 C206 1.224 . S
N208 Co198 2.128 . S
N208 C209 1.355 . S
N208 C211 1.311 . S
C209 N208 1.355 . S
C209 C210 1.363 . S
C209 H221 0.929 . S
C210 C209 1.363 . S
C210 N212 1.375 . S
C210 H228 0.931 . S
C211 N208 1.311 . S
C211 N212 1.347 . S
C211 H222 0.929 . S
N212 C210 1.375 . S
N212 C211 1.347 . S
C213 C216 1.365 . S
C213 N218 1.328 . S
C213 H219 0.929 . S
C214 C215 1.362 . S
C214 C217 1.378 . S
C214 H229 0.929 . S
C215 C214 1.362 . S
C215 C216 1.366 . S
C216 C213 1.365 . S
C216 C215 1.366 . S
C216 H230 0.930 . S
C217 C214 1.378 . S
C217 N218 1.315 . S
C217 H220 0.930 . S
N218 Co198 2.194 . S
N218 C213 1.328 . S
N218 C217 1.315 . S
H219 C213 0.929 . S
H220 C217 0.930 . S
H221 C209 0.929 . S
H222 C211 0.929 . S
O223 Co198 2.351 . S
O223 C226 1.244 . S
O224 Co198 2.155 . S
O224 C226 1.240 . S
O225 Co198 2.096 . S
O225 C206 1.247 . S
C226 O223 1.244 . S
C226 O224 1.240 . S
H227 C201 0.931 . S
H228 C210 0.931 . S
H229 C214 0.929 . S
H230 C216 0.930 . S
Co231 N235 2.148 . S
Co231 N241 2.128 . S
Co231 N251 2.194 . S
Co231 O256 2.351 . S
Co231 O257 2.155 . S
Co231 O258 2.096 . S
C232 N235 1.301 . S
C232 N236 1.328 . S
C232 H237 0.930 . S
C233 C234 1.333 . S
C233 N235 1.317 . S
C233 H238 0.930 . S
C234 C233 1.333 . S
C234 N236 1.350 . S
C234 H260 0.931 . S
N235 Co231 2.148 . S
N235 C232 1.301 . S
N235 C233 1.317 . S
N236 C232 1.328 . S
N236 C234 1.350 . S
H237 C232 0.930 . S
H238 C233 0.930 . S
C239 O240 1.224 . S
C239 O258 1.247 . S
O240 C239 1.224 . S
N241 Co231 2.128 . S
N241 C242 1.355 . S
N241 C244 1.311 . S
C242 N241 1.355 . S
C242 C243 1.363 . S
C242 H254 0.929 . S
C243 C242 1.363 . S
C243 N245 1.375 . S
C243 H261 0.931 . S
C244 N241 1.311 . S
C244 N245 1.347 . S
C244 H255 0.929 . S
N245 C243 1.375 . S
N245 C244 1.347 . S
C246 C249 1.365 . S
C246 N251 1.328 . S
C246 H252 0.929 . S
C247 C248 1.362 . S
C247 C250 1.378 . S
C247 H262 0.929 . S
C248 C247 1.362 . S
C248 C249 1.366 . S
C249 C246 1.365 . S
C249 C248 1.366 . S
C249 H263 0.930 . S
C250 C247 1.378 . S
C250 N251 1.315 . S
C250 H253 0.930 . S
N251 Co231 2.194 . S
N251 C246 1.328 . S
N251 C250 1.315 . S
H252 C246 0.929 . S
H253 C250 0.930 . S
H254 C242 0.929 . S
H255 C244 0.929 . S
O256 Co231 2.351 . S
O256 C259 1.244 . S
O257 Co231 2.155 . S
O257 C259 1.240 . S
O258 Co231 2.096 . S
O258 C239 1.247 . S
C259 O256 1.244 . S
C259 O257 1.240 . S
H260 C234 0.931 . S
H261 C243 0.931 . S
H262 C247 0.929 . S
H263 C249 0.930 . S
Co264 N268 2.148 . S
Co264 N274 2.128 1_655 S
Co264 N284 2.194 1_655 S
Co264 O289 2.351 1_655 S
Co264 O290 2.155 . S
Co264 O291 2.096 . S
C265 N268 1.301 . S
C265 N269 1.328 . S
C265 H270 0.930 . S
C266 C267 1.333 . S
C266 N268 1.317 . S
C266 H271 0.930 . S
C267 C266 1.333 . S
C267 N269 1.350 . S
C267 H293 0.931 . S
N268 Co264 2.148 . S
N268 C265 1.301 . S
N268 C266 1.317 . S
N269 C265 1.328 . S
N269 C267 1.350 . S
H270 C265 0.930 . S
H271 C266 0.930 . S
C272 O273 1.224 . S
C272 O291 1.247 . S
O273 C272 1.224 . S
N274 Co264 2.128 1_455 S
N274 C275 1.355 . S
N274 C277 1.311 . S
C275 N274 1.355 . S
C275 C276 1.363 . S
C275 H287 0.929 . S
C276 C275 1.363 . S
C276 N278 1.375 . S
C276 H294 0.931 . S
C277 N274 1.311 . S
C277 N278 1.347 . S
C277 H288 0.929 . S
N278 C276 1.375 . S
N278 C277 1.347 . S
C279 C282 1.365 . S
C279 N284 1.328 . S
C279 H285 0.929 . S
C280 C281 1.362 . S
C280 C283 1.378 . S
C280 H295 0.929 . S
C281 C280 1.362 . S
C281 C282 1.366 . S
C282 C279 1.365 . S
C282 C281 1.366 . S
C282 H296 0.930 . S
C283 C280 1.378 . S
C283 N284 1.315 . S
C283 H286 0.930 . S
N284 Co264 2.194 1_455 S
N284 C279 1.328 . S
N284 C283 1.315 . S
H285 C279 0.929 . S
H286 C283 0.930 . S
H287 C275 0.929 . S
H288 C277 0.929 . S
O289 Co264 2.351 1_455 S
O289 C292 1.245 1_455 S
O290 Co264 2.155 . S
O290 C292 1.240 . S
O291 Co264 2.096 . S
O291 C272 1.247 . S
C292 O289 1.245 1_655 S
C292 O290 1.240 . S
H293 C267 0.931 . S
H294 C276 0.931 . S
H295 C280 0.929 . S
H296 C282 0.930 . S
Co297 N301 2.148 . S
Co297 N307 2.128 1_565 S
Co297 N317 2.194 1_565 S
Co297 O322 2.350 1_565 S
Co297 O323 2.155 . S
Co297 O324 2.096 . S
C298 N301 1.301 . S
C298 N302 1.328 . S
C298 H303 0.930 . S
C299 C300 1.333 . S
C299 N301 1.317 . S
C299 H304 0.930 . S
C300 C299 1.333 . S
C300 N302 1.350 . S
C300 H326 0.931 . S
N301 Co297 2.148 . S
N301 C298 1.301 . S
N301 C299 1.317 . S
N302 C298 1.328 . S
N302 C300 1.350 . S
H303 C298 0.930 . S
H304 C299 0.930 . S
C305 O306 1.224 . S
C305 O324 1.247 . S
O306 C305 1.224 . S
N307 Co297 2.128 1_545 S
N307 C308 1.355 . S
N307 C310 1.311 . S
C308 N307 1.355 . S
C308 C309 1.363 . S
C308 H320 0.929 . S
C309 C308 1.363 . S
C309 N311 1.375 . S
C309 H327 0.931 . S
C310 N307 1.311 . S
C310 N311 1.347 . S
C310 H321 0.929 . S
N311 C309 1.375 . S
N311 C310 1.347 . S
C312 C315 1.365 . S
C312 N317 1.328 . S
C312 H318 0.929 . S
C313 C314 1.362 . S
C313 C316 1.378 . S
C313 H328 0.929 . S
C314 C313 1.362 . S
C314 C315 1.366 . S
C315 C312 1.365 . S
C315 C314 1.366 . S
C315 H329 0.930 . S
C316 C313 1.378 . S
C316 N317 1.315 . S
C316 H319 0.930 . S
N317 Co297 2.194 1_545 S
N317 C312 1.328 . S
N317 C316 1.315 . S
H318 C312 0.929 . S
H319 C316 0.930 . S
H320 C308 0.929 . S
H321 C310 0.929 . S
O322 Co297 2.350 1_545 S
O322 C325 1.241 1_545 S
O323 Co297 2.155 . S
O323 C325 1.240 . S
O324 Co297 2.096 . S
O324 C305 1.247 . S
C325 O322 1.241 1_565 S
C325 O323 1.240 . S
H326 C300 0.931 . S
H327 C309 0.931 . S
H328 C313 0.929 . S
H329 C315 0.930 . S
Co330 N334 2.148 . S
Co330 N340 2.128 . S
Co330 N350 2.194 . S
Co330 O355 2.351 . S
Co330 O356 2.155 . S
Co330 O357 2.096 . S
C331 N334 1.301 . S
C331 N335 1.328 . S
C331 H336 0.930 . S
C332 C333 1.333 . S
C332 N334 1.317 . S
C332 H337 0.930 . S
C333 C332 1.333 . S
C333 N335 1.350 . S
C333 H359 0.931 . S
N334 Co330 2.148 . S
N334 C331 1.301 . S
N334 C332 1.317 . S
N335 C331 1.328 . S
N335 C333 1.350 . S
H336 C331 0.930 . S
H337 C332 0.930 . S
C338 O339 1.224 . S
C338 O357 1.247 . S
O339 C338 1.224 . S
N340 Co330 2.128 . S
N340 C341 1.355 . S
N340 C343 1.311 . S
C341 N340 1.355 . S
C341 C342 1.363 . S
C341 H353 0.929 . S
C342 C341 1.363 . S
C342 N344 1.375 . S
C342 H360 0.931 . S
C343 N340 1.311 . S
C343 N344 1.347 . S
C343 H354 0.929 . S
N344 C342 1.375 . S
N344 C343 1.347 . S
C345 C348 1.365 . S
C345 N350 1.328 . S
C345 H351 0.929 . S
C346 C347 1.362 . S
C346 C349 1.378 . S
C346 H361 0.929 . S
C347 C346 1.362 . S
C347 C348 1.366 . S
C348 C345 1.365 . S
C348 C347 1.366 . S
C348 H362 0.930 . S
C349 C346 1.378 . S
C349 N350 1.315 . S
C349 H352 0.930 . S
N350 Co330 2.194 . S
N350 C345 1.328 . S
N350 C349 1.315 . S
H351 C345 0.929 . S
H352 C349 0.930 . S
H353 C341 0.929 . S
H354 C343 0.929 . S
O355 Co330 2.351 . S
O355 C358 1.244 . S
O356 Co330 2.155 . S
O356 C358 1.240 . S
O357 Co330 2.096 . S
O357 C338 1.247 . S
C358 O355 1.244 . S
C358 O356 1.240 . S
H359 C333 0.931 . S
H360 C342 0.931 . S
H361 C346 0.929 . S
H362 C348 0.930 . S
Co363 N367 2.148 . S
Co363 N373 2.128 . S
Co363 N383 2.194 . S
Co363 O388 2.351 . S
Co363 O389 2.155 . S
Co363 O390 2.096 . S
C364 N367 1.301 . S
C364 N368 1.328 . S
C364 H369 0.930 . S
C365 C366 1.333 . S
C365 N367 1.317 . S
C365 H370 0.930 . S
C366 C365 1.333 . S
C366 N368 1.350 . S
C366 H392 0.931 . S
N367 Co363 2.148 . S
N367 C364 1.301 . S
N367 C365 1.317 . S
N368 C364 1.328 . S
N368 C366 1.350 . S
H369 C364 0.930 . S
H370 C365 0.930 . S
C371 O372 1.224 . S
C371 O390 1.247 . S
O372 C371 1.224 . S
N373 Co363 2.128 . S
N373 C374 1.355 . S
N373 C376 1.311 . S
C374 N373 1.355 . S
C374 C375 1.363 . S
C374 H386 0.929 . S
C375 C374 1.363 . S
C375 N377 1.375 . S
C375 H393 0.931 . S
C376 N373 1.311 . S
C376 N377 1.347 . S
C376 H387 0.929 . S
N377 C375 1.375 . S
N377 C376 1.347 . S
C378 C381 1.365 . S
C378 N383 1.328 . S
C378 H384 0.929 . S
C379 C380 1.362 . S
C379 C382 1.378 . S
C379 H394 0.929 . S
C380 C379 1.362 . S
C380 C381 1.366 . S
C381 C378 1.365 . S
C381 C380 1.366 . S
C381 H395 0.930 . S
C382 C379 1.378 . S
C382 N383 1.315 . S
C382 H385 0.930 . S
N383 Co363 2.194 . S
N383 C378 1.328 . S
N383 C382 1.315 . S
H384 C378 0.929 . S
H385 C382 0.930 . S
H386 C374 0.929 . S
H387 C376 0.929 . S
O388 Co363 2.351 . S
O388 C391 1.244 . S
O389 Co363 2.155 . S
O389 C391 1.240 . S
O390 Co363 2.096 . S
O390 C371 1.247 . S
C391 O388 1.244 . S
C391 O389 1.240 . S
H392 C366 0.931 . S
H393 C375 0.931 . S
H394 C379 0.929 . S
H395 C381 0.930 . S
Co396 N400 2.148 . S
Co396 N406 2.128 1_655 S
Co396 N416 2.194 1_655 S
Co396 O421 2.350 1_655 S
Co396 O422 2.155 . S
Co396 O423 2.096 . S
C397 N400 1.301 . S
C397 N401 1.328 . S
C397 H402 0.930 . S
C398 C399 1.333 . S
C398 N400 1.317 . S
C398 H403 0.930 . S
C399 C398 1.333 . S
C399 N401 1.350 . S
C399 H425 0.931 . S
N400 Co396 2.148 . S
N400 C397 1.301 . S
N400 C398 1.317 . S
N401 C397 1.328 . S
N401 C399 1.350 . S
H402 C397 0.930 . S
H403 C398 0.930 . S
C404 O405 1.224 . S
C404 O423 1.247 . S
O405 C404 1.224 . S
N406 Co396 2.128 1_455 S
N406 C407 1.355 . S
N406 C409 1.311 . S
C407 N406 1.355 . S
C407 C408 1.363 . S
C407 H419 0.929 . S
C408 C407 1.363 . S
C408 N410 1.375 . S
C408 H426 0.931 . S
C409 N406 1.311 . S
C409 N410 1.347 . S
C409 H420 0.929 . S
N410 C408 1.375 . S
N410 C409 1.347 . S
C411 C414 1.365 . S
C411 N416 1.328 . S
C411 H417 0.929 . S
C412 C413 1.362 . S
C412 C415 1.378 . S
C412 H427 0.929 . S
C413 C412 1.362 . S
C413 C414 1.366 . S
C414 C411 1.365 . S
C414 C413 1.366 . S
C414 H428 0.930 . S
C415 C412 1.378 . S
C415 N416 1.315 . S
C415 H418 0.930 . S
N416 Co396 2.194 1_455 S
N416 C411 1.328 . S
N416 C415 1.315 . S
H417 C411 0.929 . S
H418 C415 0.930 . S
H419 C407 0.929 . S
H420 C409 0.929 . S
O421 Co396 2.350 1_455 S
O421 C424 1.241 1_455 S
O422 Co396 2.155 . S
O422 C424 1.240 . S
O423 Co396 2.096 . S
O423 C404 1.247 . S
C424 O421 1.241 1_655 S
C424 O422 1.240 . S
H425 C399 0.931 . S
H426 C408 0.931 . S
H427 C412 0.929 . S
H428 C414 0.930 . S
Co429 N433 2.148 . S
Co429 N439 2.128 1_565 S
Co429 N449 2.194 1_565 S
Co429 O454 2.351 1_565 S
Co429 O455 2.155 . S
Co429 O456 2.096 . S
C430 N433 1.301 . S
C430 N434 1.328 . S
C430 H435 0.930 . S
C431 C432 1.333 . S
C431 N433 1.317 . S
C431 H436 0.930 . S
C432 C431 1.333 . S
C432 N434 1.350 . S
C432 H458 0.931 . S
N433 Co429 2.148 . S
N433 C430 1.301 . S
N433 C431 1.317 . S
N434 C430 1.328 . S
N434 C432 1.350 . S
H435 C430 0.930 . S
H436 C431 0.930 . S
C437 O438 1.224 . S
C437 O456 1.247 . S
O438 C437 1.224 . S
N439 Co429 2.128 1_545 S
N439 C440 1.355 . S
N439 C442 1.311 . S
C440 N439 1.355 . S
C440 C441 1.363 . S
C440 H452 0.929 . S
C441 C440 1.363 . S
C441 N443 1.375 . S
C441 H459 0.931 . S
C442 N439 1.311 . S
C442 N443 1.347 . S
C442 H453 0.929 . S
N443 C441 1.375 . S
N443 C442 1.347 . S
C444 C447 1.365 . S
C444 N449 1.328 . S
C444 H450 0.929 . S
C445 C446 1.362 . S
C445 C448 1.378 . S
C445 H460 0.929 . S
C446 C445 1.362 . S
C446 C447 1.366 . S
C447 C444 1.365 . S
C447 C446 1.366 . S
C447 H461 0.930 . S
C448 C445 1.378 . S
C448 N449 1.315 . S
C448 H451 0.930 . S
N449 Co429 2.194 1_545 S
N449 C444 1.328 . S
N449 C448 1.315 . S
H450 C444 0.929 . S
H451 C448 0.930 . S
H452 C440 0.929 . S
H453 C442 0.929 . S
O454 Co429 2.351 1_545 S
O454 C457 1.245 1_545 S
O455 Co429 2.155 . S
O455 C457 1.240 . S
O456 Co429 2.096 . S
O456 C437 1.247 . S
C457 O454 1.245 1_565 S
C457 O455 1.240 . S
H458 C432 0.931 . S
H459 C441 0.931 . S
H460 C445 0.929 . S
H461 C447 0.930 . S
Co462 N466 2.148 . S
Co462 N472 2.128 . S
Co462 N482 2.194 . S
Co462 O487 2.351 . S
Co462 O488 2.155 . S
Co462 O489 2.096 . S
C463 N466 1.301 . S
C463 N467 1.328 . S
C463 H468 0.930 . S
C464 C465 1.333 . S
C464 N466 1.317 . S
C464 H469 0.930 . S
C465 C464 1.333 . S
C465 N467 1.350 . S
C465 H491 0.931 . S
N466 Co462 2.148 . S
N466 C463 1.301 . S
N466 C464 1.317 . S
N467 C463 1.328 . S
N467 C465 1.350 . S
H468 C463 0.930 . S
H469 C464 0.930 . S
C470 O471 1.224 . S
C470 O489 1.247 . S
O471 C470 1.224 . S
N472 Co462 2.128 . S
N472 C473 1.355 . S
N472 C475 1.311 . S
C473 N472 1.355 . S
C473 C474 1.363 . S
C473 H485 0.929 . S
C474 C473 1.363 . S
C474 N476 1.375 . S
C474 H492 0.931 . S
C475 N472 1.311 . S
C475 N476 1.347 . S
C475 H486 0.929 . S
N476 C474 1.375 . S
N476 C475 1.347 . S
C477 C480 1.365 . S
C477 N482 1.328 . S
C477 H483 0.929 . S
C478 C479 1.362 . S
C478 C481 1.378 . S
C478 H493 0.929 . S
C479 C478 1.362 . S
C479 C480 1.366 . S
C480 C477 1.365 . S
C480 C479 1.366 . S
C480 H494 0.930 . S
C481 C478 1.378 . S
C481 N482 1.315 . S
C481 H484 0.930 . S
N482 Co462 2.194 . S
N482 C477 1.328 . S
N482 C481 1.315 . S
H483 C477 0.929 . S
H484 C481 0.930 . S
H485 C473 0.929 . S
H486 C475 0.929 . S
O487 Co462 2.351 . S
O487 C490 1.244 . S
O488 Co462 2.155 . S
O488 C490 1.240 . S
O489 Co462 2.096 . S
O489 C470 1.247 . S
C490 O487 1.244 . S
C490 O488 1.240 . S
H491 C465 0.931 . S
H492 C474 0.931 . S
H493 C478 0.929 . S
H494 C480 0.930 . S
Co495 N499 2.148 . S
Co495 N505 2.128 . S
Co495 N515 2.194 . S
Co495 O520 2.351 . S
Co495 O521 2.155 . S
Co495 O522 2.096 . S
C496 N499 1.301 . S
C496 N500 1.328 . S
C496 H501 0.930 . S
C497 C498 1.333 . S
C497 N499 1.317 . S
C497 H502 0.930 . S
C498 C497 1.333 . S
C498 N500 1.350 . S
C498 H524 0.931 . S
N499 Co495 2.148 . S
N499 C496 1.301 . S
N499 C497 1.317 . S
N500 C496 1.328 . S
N500 C498 1.350 . S
H501 C496 0.930 . S
H502 C497 0.930 . S
C503 O504 1.224 . S
C503 O522 1.247 . S
O504 C503 1.224 . S
N505 Co495 2.128 . S
N505 C506 1.355 . S
N505 C508 1.311 . S
C506 N505 1.355 . S
C506 C507 1.363 . S
C506 H518 0.929 . S
C507 C506 1.363 . S
C507 N509 1.375 . S
C507 H525 0.931 . S
C508 N505 1.311 . S
C508 N509 1.347 . S
C508 H519 0.929 . S
N509 C507 1.375 . S
N509 C508 1.347 . S
C510 C513 1.365 . S
C510 N515 1.328 . S
C510 H516 0.929 . S
C511 C512 1.362 . S
C511 C514 1.378 . S
C511 H526 0.929 . S
C512 C511 1.362 . S
C512 C513 1.366 . S
C513 C510 1.365 . S
C513 C512 1.366 . S
C513 H527 0.930 . S
C514 C511 1.378 . S
C514 N515 1.315 . S
C514 H517 0.930 . S
N515 Co495 2.194 . S
N515 C510 1.328 . S
N515 C514 1.315 . S
H516 C510 0.929 . S
H517 C514 0.930 . S
H518 C506 0.929 . S
H519 C508 0.929 . S
O520 Co495 2.351 . S
O520 C523 1.244 . S
O521 Co495 2.155 . S
O521 C523 1.240 . S
O522 Co495 2.096 . S
O522 C503 1.247 . S
C523 O520 1.244 . S
C523 O521 1.240 . S
H524 C498 0.931 . S
H525 C507 0.931 . S
H526 C511 0.929 . S
H527 C513 0.930 . S
H528 C540 0.930 . S
H529 C542 0.930 . S
H530 C543 0.930 . S
H531 C547 0.959 . S
H532 C547 0.959 . S
H533 C547 0.961 . S
H534 C548 0.960 . S
H535 C548 0.961 . S
H536 C548 0.959 . S
H537 C551 0.929 . S
H538 C552 0.931 . S
H539 C554 0.930 . S
C540 H528 0.930 . S
C540 C541 1.399 . S
C540 C545 1.399 . S
C541 C540 1.399 . S
C541 C542 1.376 1_455 S
C542 H529 0.930 . S
C542 C541 1.376 1_655 S
C542 C543 1.388 1_655 S
C543 H530 0.930 . S
C543 C542 1.388 1_455 S
C543 C544 1.390 . S
C544 C543 1.390 . S
C544 C545 1.394 . S
C544 C550 1.465 . S
C545 C540 1.399 . S
C545 C544 1.394 . S
C545 C546 1.516 . S
C546 C545 1.516 . S
C546 C547 1.502 . S
C546 C548 1.561 . S
C546 C549 1.526 . S
C547 H531 0.959 . S
C547 H532 0.959 . S
C547 H533 0.961 . S
C547 C546 1.502 . S
C548 H534 0.960 . S
C548 H535 0.961 . S
C548 H536 0.959 . S
C548 C546 1.561 . S
C549 C546 1.526 . S
C549 C550 1.396 . S
C549 C554 1.390 . S
C550 C544 1.465 . S
C550 C549 1.396 . S
C550 C551 1.399 1_545 S
C551 H537 0.929 . S
C551 C550 1.399 1_565 S
C551 C552 1.385 . S
C552 H538 0.931 . S
C552 C551 1.385 . S
C552 C553 1.389 1_565 S
C553 C552 1.389 1_545 S
C553 C554 1.387 . S
C554 H539 0.930 . S
C554 C549 1.390 . S
C554 C553 1.387 . S
H555 C567 0.930 . S
H556 C569 0.930 . S
H557 C570 0.930 . S
H558 C574 0.959 . S
H559 C574 0.959 . S
H560 C574 0.961 . S
H561 C575 0.960 . S
H562 C575 0.961 . S
H563 C575 0.959 . S
H564 C578 0.929 . S
H565 C579 0.931 . S
H566 C581 0.930 . S
C567 H555 0.930 . S
C567 C568 1.399 . S
C567 C572 1.399 . S
C568 C567 1.399 . S
C568 C569 1.376 1_545 S
C569 H556 0.930 . S
C569 C568 1.376 1_565 S
C569 C570 1.388 . S
C570 H557 0.930 . S
C570 C569 1.388 . S
C570 C571 1.390 1_565 S
C571 C570 1.390 1_545 S
C571 C572 1.394 . S
C571 C577 1.465 . S
C572 C567 1.399 . S
C572 C571 1.394 . S
C572 C573 1.516 . S
C573 C572 1.516 . S
C573 C574 1.502 . S
C573 C575 1.561 . S
C573 C576 1.526 . S
C574 H558 0.959 . S
C574 H559 0.959 . S
C574 H560 0.961 . S
C574 C573 1.502 . S
C575 H561 0.960 . S
C575 H562 0.961 . S
C575 H563 0.959 . S
C575 C573 1.561 . S
C576 C573 1.526 . S
C576 C577 1.396 . S
C576 C581 1.390 . S
C577 C571 1.465 . S
C577 C576 1.396 . S
C577 C578 1.399 . S
C578 H564 0.929 . S
C578 C577 1.399 . S
C578 C579 1.385 . S
C579 H565 0.931 . S
C579 C578 1.385 . S
C579 C580 1.389 . S
C580 C579 1.389 . S
C580 C581 1.387 . S
C581 H566 0.930 . S
C581 C576 1.390 . S
C581 C580 1.387 . S
H582 C594 0.930 . S
H583 C596 0.930 . S
H584 C597 0.930 . S
H585 C601 0.959 . S
H586 C601 0.959 . S
H587 C601 0.961 . S
H588 C602 0.960 . S
H589 C602 0.961 . S
H590 C602 0.959 . S
H591 C605 0.929 . S
H592 C606 0.931 . S
H593 C608 0.930 . S
C594 H582 0.930 . S
C594 C595 1.399 . S
C594 C599 1.399 . S
C595 C594 1.399 . S
C595 C596 1.376 . S
C596 H583 0.930 . S
C596 C595 1.376 . S
C596 C597 1.388 . S
C597 H584 0.930 . S
C597 C596 1.388 . S
C597 C598 1.390 . S
C598 C597 1.390 . S
C598 C599 1.394 . S
C598 C604 1.465 . S
C599 C594 1.399 . S
C599 C598 1.394 . S
C599 C600 1.516 . S
C600 C599 1.516 . S
C600 C601 1.502 . S
C600 C602 1.561 . S
C600 C603 1.526 . S
C601 H585 0.959 . S
C601 H586 0.959 . S
C601 H587 0.961 . S
C601 C600 1.502 . S
C602 H588 0.960 . S
C602 H589 0.961 . S
C602 H590 0.959 . S
C602 C600 1.561 . S
C603 C600 1.526 . S
C603 C604 1.396 . S
C603 C608 1.390 . S
C604 C598 1.465 . S
C604 C603 1.396 . S
C604 C605 1.399 . S
C605 H591 0.929 . S
C605 C604 1.399 . S
C605 C606 1.385 . S
C606 H592 0.931 . S
C606 C605 1.385 . S
C606 C607 1.389 . S
C607 C606 1.389 . S
C607 C608 1.387 . S
C608 H593 0.930 . S
C608 C603 1.390 . S
C608 C607 1.387 . S
H609 C621 0.930 . S
H610 C623 0.930 . S
H611 C624 0.930 . S
H612 C628 0.959 . S
H613 C628 0.959 . S
H614 C628 0.961 . S
H615 C629 0.960 . S
H616 C629 0.961 . S
H617 C629 0.959 . S
H618 C632 0.929 . S
H619 C633 0.931 . S
H620 C635 0.930 . S
C621 H609 0.930 . S
C621 C622 1.399 . S
C621 C626 1.399 . S
C622 C621 1.399 . S
C622 C623 1.376 1_455 S
C623 H610 0.930 . S
C623 C622 1.376 1_655 S
C623 C624 1.388 1_655 S
C624 H611 0.930 . S
C624 C623 1.388 1_455 S
C624 C625 1.390 . S
C625 C624 1.390 . S
C625 C626 1.394 . S
C625 C631 1.465 . S
C626 C621 1.399 . S
C626 C625 1.394 . S
C626 C627 1.516 . S
C627 C626 1.516 . S
C627 C628 1.502 . S
C627 C629 1.561 . S
C627 C630 1.526 . S
C628 H612 0.959 . S
C628 H613 0.959 . S
C628 H614 0.961 . S
C628 C627 1.502 . S
C629 H615 0.960 . S
C629 H616 0.961 . S
C629 H617 0.959 . S
C629 C627 1.561 . S
C630 C627 1.526 . S
C630 C631 1.396 . S
C630 C635 1.390 . S
C631 C625 1.465 . S
C631 C630 1.396 . S
C631 C632 1.399 . S
C632 H618 0.929 . S
C632 C631 1.399 . S
C632 C633 1.385 . S
C633 H619 0.931 . S
C633 C632 1.385 . S
C633 C634 1.389 . S
C634 C633 1.389 . S
C634 C635 1.387 . S
C635 H620 0.930 . S
C635 C630 1.390 . S
C635 C634 1.387 . S
H636 C648 0.930 . S
H637 C650 0.930 . S
H638 C651 0.930 . S
H639 C655 0.959 1_455 S
H640 C655 0.959 . S
H641 C655 0.961 1_455 S
H642 C656 0.960 . S
H643 C656 0.961 . S
H644 C656 0.959 . S
H645 C659 0.929 . S
H646 C660 0.931 . S
H647 C662 0.930 . S
C648 H636 0.930 . S
C648 C649 1.399 . S
C648 C653 1.399 . S
C649 C648 1.399 . S
C649 C650 1.376 . S
C650 H637 0.930 . S
C650 C649 1.376 . S
C650 C651 1.388 . S
C651 H638 0.930 . S
C651 C650 1.388 . S
C651 C652 1.390 . S
C652 C651 1.390 . S
C652 C653 1.394 . S
C652 C658 1.465 . S
C653 C648 1.399 . S
C653 C652 1.394 . S
C653 C654 1.516 . S
C654 C653 1.516 . S
C654 C655 1.502 . S
C654 C656 1.561 . S
C654 C657 1.526 . S
C655 H639 0.959 1_655 S
C655 H640 0.959 . S
C655 H641 0.961 1_655 S
C655 C654 1.502 . S
C656 H642 0.960 . S
C656 H643 0.961 . S
C656 H644 0.959 . S
C656 C654 1.561 . S
C657 C654 1.526 . S
C657 C658 1.396 . S
C657 C662 1.390 . S
C658 C652 1.465 . S
C658 C657 1.396 . S
C658 C659 1.399 1_565 S
C659 H645 0.929 . S
C659 C658 1.399 1_545 S
C659 C660 1.385 . S
C660 H646 0.931 . S
C660 C659 1.385 . S
C660 C661 1.389 1_545 S
C661 C660 1.389 1_565 S
C661 C662 1.387 . S
C662 H647 0.930 . S
C662 C657 1.390 . S
C662 C661 1.387 . S
H663 C675 0.930 . S
H664 C677 0.930 . S
H665 C678 0.930 . S
H666 C682 0.959 . S
H667 C682 0.959 . S
H668 C682 0.961 . S
H669 C683 0.960 . S
H670 C683 0.961 . S
H671 C683 0.959 . S
H672 C686 0.929 . S
H673 C687 0.931 . S
H674 C689 0.930 . S
C675 H663 0.930 . S
C675 C676 1.399 . S
C675 C680 1.399 . S
C676 C675 1.399 . S
C676 C677 1.376 1_565 S
C677 H664 0.930 . S
C677 C676 1.376 1_545 S
C677 C678 1.388 . S
C678 H665 0.930 . S
C678 C677 1.388 . S
C678 C679 1.390 1_545 S
C679 C678 1.390 1_565 S
C679 C680 1.394 . S
C679 C685 1.465 . S
C680 C675 1.399 . S
C680 C679 1.394 . S
C680 C681 1.516 . S
C681 C680 1.516 . S
C681 C682 1.502 . S
C681 C683 1.561 . S
C681 C684 1.526 . S
C682 H666 0.959 . S
C682 H667 0.959 . S
C682 H668 0.961 . S
C682 C681 1.502 . S
C683 H669 0.960 . S
C683 H670 0.961 . S
C683 H671 0.959 . S
C683 C681 1.561 . S
C684 C681 1.526 . S
C684 C685 1.396 . S
C684 C689 1.390 . S
C685 C679 1.465 . S
C685 C684 1.396 . S
C685 C686 1.399 . S
C686 H672 0.929 . S
C686 C685 1.399 . S
C686 C687 1.385 . S
C687 H673 0.931 . S
C687 C686 1.385 . S
C687 C688 1.389 . S
C688 C687 1.389 . S
C688 C689 1.387 . S
C689 H674 0.930 . S
C689 C684 1.390 . S
C689 C688 1.387 . S
H690 C702 0.930 . S
H691 C704 0.930 . S
H692 C705 0.930 . S
H693 C709 0.959 . S
H694 C709 0.959 . S
H695 C709 0.961 . S
H696 C710 0.960 . S
H697 C710 0.961 . S
H698 C710 0.959 . S
H699 C713 0.929 . S
H700 C714 0.931 . S
H701 C716 0.930 . S
C702 H690 0.930 . S
C702 C703 1.399 . S
C702 C707 1.399 . S
C703 C702 1.399 . S
C703 C704 1.376 . S
C704 H691 0.930 . S
C704 C703 1.376 . S
C704 C705 1.388 . S
C705 H692 0.930 . S
C705 C704 1.388 . S
C705 C706 1.390 . S
C706 C705 1.390 . S
C706 C707 1.394 . S
C706 C712 1.465 . S
C707 C702 1.399 . S
C707 C706 1.394 . S
C707 C708 1.516 . S
C708 C707 1.516 . S
C708 C709 1.502 . S
C708 C710 1.561 . S
C708 C711 1.526 . S
C709 H693 0.959 . S
C709 H694 0.959 . S
C709 H695 0.961 . S
C709 C708 1.502 . S
C710 H696 0.960 . S
C710 H697 0.961 . S
C710 H698 0.959 . S
C710 C708 1.561 . S
C711 C708 1.526 . S
C711 C712 1.396 . S
C711 C716 1.390 . S
C712 C706 1.465 . S
C712 C711 1.396 . S
C712 C713 1.399 . S
C713 H699 0.929 . S
C713 C712 1.399 . S
C713 C714 1.385 . S
C714 H700 0.931 . S
C714 C713 1.385 . S
C714 C715 1.389 . S
C715 C714 1.389 . S
C715 C716 1.387 . S
C716 H701 0.930 . S
C716 C711 1.390 . S
C716 C715 1.387 . S
H717 C729 0.930 . S
H718 C731 0.930 . S
H719 C732 0.930 . S
H720 C736 0.959 . S
H721 C736 0.959 . S
H722 C736 0.961 . S
H723 C737 0.960 . S
H724 C737 0.961 . S
H725 C737 0.959 . S
H726 C740 0.929 . S
H727 C741 0.931 . S
H728 C743 0.930 . S
C729 H717 0.930 . S
C729 C730 1.399 . S
C729 C734 1.399 . S
C730 C729 1.399 . S
C730 C731 1.376 . S
C731 H718 0.930 . S
C731 C730 1.376 . S
C731 C732 1.388 . S
C732 H719 0.930 . S
C732 C731 1.388 . S
C732 C733 1.390 . S
C733 C732 1.390 . S
C733 C734 1.394 . S
C733 C739 1.465 . S
C734 C729 1.399 . S
C734 C733 1.394 . S
C734 C735 1.516 . S
C735 C734 1.516 . S
C735 C736 1.502 . S
C735 C737 1.561 . S
C735 C738 1.526 . S
C736 H720 0.959 . S
C736 H721 0.959 . S
C736 H722 0.961 . S
C736 C735 1.502 . S
C737 H723 0.960 . S
C737 H724 0.961 . S
C737 H725 0.959 . S
C737 C735 1.561 . S
C738 C735 1.526 . S
C738 C739 1.396 . S
C738 C743 1.390 . S
C739 C733 1.465 . S
C739 C738 1.396 . S
C739 C740 1.399 . S
C740 H726 0.929 . S
C740 C739 1.399 . S
C740 C741 1.385 . S
C741 H727 0.931 . S
C741 C740 1.385 . S
C741 C742 1.389 . S
C742 C741 1.389 . S
C742 C743 1.387 . S
C743 H728 0.930 . S
C743 C738 1.390 . S
C743 C742 1.387 . S
H744 C756 0.930 . S
H745 C758 0.930 . S
H746 C759 0.930 . S
H747 C763 0.959 . S
H748 C763 0.959 1_655 S
H749 C763 0.961 . S
H750 C764 0.960 . S
H751 C764 0.961 . S
H752 C764 0.959 . S
H753 C767 0.929 . S
H754 C768 0.931 . S
H755 C770 0.930 . S
C756 H744 0.930 . S
C756 C757 1.399 . S
C756 C761 1.399 . S
C757 C756 1.399 . S
C757 C758 1.376 . S
C758 H745 0.930 . S
C758 C757 1.376 . S
C758 C759 1.388 . S
C759 H746 0.930 . S
C759 C758 1.388 . S
C759 C760 1.390 . S
C760 C759 1.390 . S
C760 C761 1.394 . S
C760 C766 1.465 1_455 S
C761 C756 1.399 . S
C761 C760 1.394 . S
C761 C762 1.516 1_465 S
C762 C761 1.516 1_645 S
C762 C763 1.502 1_655 S
C762 C764 1.561 . S
C762 C765 1.526 . S
C763 H747 0.959 . S
C763 H748 0.959 1_455 S
C763 H749 0.961 . S
C763 C762 1.502 1_455 S
C764 H750 0.960 . S
C764 H751 0.961 . S
C764 H752 0.959 . S
C764 C762 1.561 . S
C765 C762 1.526 . S
C765 C766 1.396 1_545 S
C765 C770 1.390 . S
C766 C760 1.465 1_655 S
C766 C765 1.396 1_565 S
C766 C767 1.399 . S
C767 H753 0.929 . S
C767 C766 1.399 . S
C767 C768 1.385 1_565 S
C768 H754 0.931 . S
C768 C767 1.385 1_545 S
C768 C769 1.389 . S
C769 C768 1.389 . S
C769 C770 1.387 . S
C770 H755 0.930 . S
C770 C765 1.390 . S
C770 C769 1.387 . S
H771 C783 0.930 . S
H772 C785 0.930 . S
H773 C786 0.930 . S
H774 C790 0.959 . S
H775 C790 0.959 . S
H776 C790 0.961 . S
H777 C791 0.960 . S
H778 C791 0.961 . S
H779 C791 0.959 . S
H780 C794 0.929 . S
H781 C795 0.931 . S
H782 C797 0.930 . S
C783 H771 0.930 . S
C783 C784 1.399 . S
C783 C788 1.399 . S
C784 C783 1.399 . S
C784 C785 1.376 . S
C785 H772 0.930 . S
C785 C784 1.376 . S
C785 C786 1.388 . S
C786 H773 0.930 . S
C786 C785 1.388 . S
C786 C787 1.390 . S
C787 C786 1.390 . S
C787 C788 1.394 . S
C787 C793 1.465 1_545 S
C788 C783 1.399 . S
C788 C787 1.394 . S
C788 C789 1.516 1_545 S
C789 C788 1.516 1_565 S
C789 C790 1.502 . S
C789 C791 1.561 . S
C789 C792 1.526 . S
C790 H774 0.959 . S
C790 H775 0.959 . S
C790 H776 0.961 . S
C790 C789 1.502 . S
C791 H777 0.960 . S
C791 H778 0.961 . S
C791 H779 0.959 . S
C791 C789 1.561 . S
C792 C789 1.526 . S
C792 C793 1.396 . S
C792 C797 1.390 . S
C793 C787 1.465 1_565 S
C793 C792 1.396 . S
C793 C794 1.399 1_565 S
C794 H780 0.929 . S
C794 C793 1.399 1_545 S
C794 C795 1.385 1_545 S
C795 H781 0.931 . S
C795 C794 1.385 1_565 S
C795 C796 1.389 . S
C796 C795 1.389 . S
C796 C797 1.387 . S
C797 H782 0.930 . S
C797 C792 1.390 . S
C797 C796 1.387 . S
H798 C810 0.930 . S
H799 C812 0.930 . S
H800 C813 0.930 . S
H801 C817 0.959 . S
H802 C817 0.959 . S
H803 C817 0.961 . S
H804 C818 0.960 . S
H805 C818 0.961 . S
H806 C818 0.959 . S
H807 C821 0.929 . S
H808 C822 0.931 . S
H809 C824 0.930 . S
C810 H798 0.930 . S
C810 C811 1.399 . S
C810 C815 1.399 . S
C811 C810 1.399 . S
C811 C812 1.376 . S
C812 H799 0.930 . S
C812 C811 1.376 . S
C812 C813 1.388 . S
C813 H800 0.930 . S
C813 C812 1.388 . S
C813 C814 1.390 . S
C814 C813 1.390 . S
C814 C815 1.394 . S
C814 C820 1.465 . S
C815 C810 1.399 . S
C815 C814 1.394 . S
C815 C816 1.516 . S
C816 C815 1.516 . S
C816 C817 1.502 . S
C816 C818 1.561 . S
C816 C819 1.526 . S
C817 H801 0.959 . S
C817 H802 0.959 . S
C817 H803 0.961 . S
C817 C816 1.502 . S
C818 H804 0.960 . S
C818 H805 0.961 . S
C818 H806 0.959 . S
C818 C816 1.561 . S
C819 C816 1.526 . S
C819 C820 1.396 . S
C819 C824 1.390 . S
C820 C814 1.465 . S
C820 C819 1.396 . S
C820 C821 1.399 . S
C821 H807 0.929 . S
C821 C820 1.399 . S
C821 C822 1.385 . S
C822 H808 0.931 . S
C822 C821 1.385 . S
C822 C823 1.389 . S
C823 C822 1.389 . S
C823 C824 1.387 . S
C824 H809 0.930 . S
C824 C819 1.390 . S
C824 C823 1.387 . S
H825 C837 0.930 . S
H826 C839 0.930 . S
H827 C840 0.930 . S
H828 C844 0.959 . S
H829 C844 0.959 . S
H830 C844 0.961 . S
H831 C845 0.960 . S
H832 C845 0.961 . S
H833 C845 0.959 . S
H834 C848 0.929 . S
H835 C849 0.931 . S
H836 C851 0.930 . S
C837 H825 0.930 . S
C837 C838 1.399 . S
C837 C842 1.399 . S
C838 C837 1.399 . S
C838 C839 1.376 . S
C839 H826 0.930 . S
C839 C838 1.376 . S
C839 C840 1.388 . S
C840 H827 0.930 . S
C840 C839 1.388 . S
C840 C841 1.390 . S
C841 C840 1.390 . S
C841 C842 1.394 . S
C841 C847 1.465 1_655 S
C842 C837 1.399 . S
C842 C841 1.394 . S
C842 C843 1.516 1_655 S
C843 C842 1.516 1_455 S
C843 C844 1.502 . S
C843 C845 1.561 1_455 S
C843 C846 1.526 . S
C844 H828 0.959 . S
C844 H829 0.959 . S
C844 H830 0.961 . S
C844 C843 1.502 . S
C845 H831 0.960 . S
C845 H832 0.961 . S
C845 H833 0.959 . S
C845 C843 1.561 1_655 S
C846 C843 1.526 . S
C846 C847 1.396 . S
C846 C851 1.390 . S
C847 C841 1.465 1_455 S
C847 C846 1.396 . S
C847 C848 1.399 . S
C848 H834 0.929 . S
C848 C847 1.399 . S
C848 C849 1.385 . S
C849 H835 0.931 . S
C849 C848 1.385 . S
C849 C850 1.389 . S
C850 C849 1.389 . S
C850 C851 1.387 . S
C851 H836 0.930 . S
C851 C846 1.390 . S
C851 C850 1.387 . S
H852 C864 0.930 . S
H853 C866 0.930 . S
H854 C867 0.919 1_554 S
H855 C871 0.959 . S
H856 C871 0.959 . S
H857 C871 0.961 . S
H858 C872 0.960 . S
H859 C872 0.961 . S
H860 C872 0.959 . S
H861 C875 0.929 . S
H862 C876 0.931 . S
H863 C878 0.930 . S
C864 H852 0.930 . S
C864 C865 1.399 . S
C864 C869 1.399 . S
C865 C864 1.399 . S
C865 C866 1.376 . S
C866 H853 0.930 . S
C866 C865 1.376 . S
C866 C867 1.399 . S
C867 H854 0.919 1_556 S
C867 C866 1.399 . S
C867 C868 1.391 . S
C868 C867 1.391 . S
C868 C869 1.394 . S
C868 C874 1.465 1_556 S
C869 C864 1.399 . S
C869 C868 1.394 . S
C869 C870 1.516 1_655 S
C870 C869 1.516 1_455 S
C870 C871 1.502 . S
C870 C872 1.561 . S
C870 C873 1.526 1_556 S
C871 H855 0.959 . S
C871 H856 0.959 . S
C871 H857 0.961 . S
C871 C870 1.502 . S
C872 H858 0.960 . S
C872 H859 0.961 . S
C872 H860 0.959 . S
C872 C870 1.561 . S
C873 C870 1.526 1_554 S
C873 C874 1.396 1_455 S
C873 C878 1.390 . S
C874 C868 1.465 1_554 S
C874 C873 1.396 1_655 S
C874 C875 1.399 . S
C875 H861 0.929 . S
C875 C874 1.399 . S
C875 C876 1.385 1_655 S
C876 H862 0.931 . S
C876 C875 1.385 1_455 S
C876 C877 1.389 . S
C877 C876 1.389 . S
C877 C878 1.387 . S
C878 H863 0.930 . S
C878 C873 1.390 . S
C878 C877 1.387 . S
H879 C891 0.930 . S
H880 C893 0.930 . S
H881 C894 0.930 . S
H882 C898 0.959 . S
H883 C898 0.959 . S
H884 C898 0.961 . S
H885 C899 0.960 . S
H886 C899 0.961 . S
H887 C899 0.959 . S
H888 C902 0.929 1_565 S
H889 C903 0.931 . S
H890 C905 0.930 . S
C891 H879 0.930 . S
C891 C892 1.399 . S
C891 C896 1.399 . S
C892 C891 1.399 . S
C892 C893 1.376 . S
C893 H880 0.930 . S
C893 C892 1.376 . S
C893 C894 1.388 1_556 S
C894 H881 0.930 . S
C894 C893 1.388 1_554 S
C894 C895 1.390 . S
C895 C894 1.390 . S
C895 C896 1.394 1_554 S
C895 C901 1.465 1_465 S
C896 C891 1.399 . S
C896 C895 1.394 1_556 S
C896 C897 1.516 1_465 S
C897 C896 1.516 1_645 S
C897 C898 1.502 . S
C897 C899 1.561 1_545 S
C897 C900 1.526 1_556 S
C898 H882 0.959 . S
C898 H883 0.959 . S
C898 H884 0.961 . S
C898 C897 1.502 . S
C899 H885 0.960 . S
C899 H886 0.961 . S
C899 H887 0.959 . S
C899 C897 1.561 1_565 S
C900 C897 1.526 1_554 S
C900 C901 1.396 . S
C900 C905 1.390 . S
C901 C895 1.465 1_645 S
C901 C900 1.396 . S
C901 C902 1.399 1_655 S
C902 H888 0.929 1_545 S
C902 C901 1.399 1_455 S
C902 C903 1.385 1_455 S
C903 H889 0.931 . S
C903 C902 1.385 1_655 S
C903 C904 1.389 . S
C904 C903 1.389 . S
C904 C905 1.387 . S
C905 H890 0.930 . S
C905 C900 1.390 . S
C905 C904 1.387 . S
H906 C918 0.930 . S
H907 C920 0.930 . S
H908 C921 0.930 1_554 S
H909 C925 0.959 . S
H910 C925 0.959 . S
H911 C925 0.961 . S
H912 C926 0.960 . S
H913 C926 0.961 . S
H914 C926 0.959 . S
H915 C929 0.929 . S
H916 C930 0.931 . S
H917 C932 0.930 . S
C918 H906 0.930 . S
C918 C919 1.399 . S
C918 C923 1.399 . S
C919 C918 1.399 . S
C919 C920 1.376 . S
C920 H907 0.930 . S
C920 C919 1.376 . S
C920 C921 1.388 . S
C921 H908 0.930 1_556 S
C921 C920 1.388 . S
C921 C922 1.390 . S
C922 C921 1.390 . S
C922 C923 1.394 . S
C922 C928 1.465 1_546 S
C923 C918 1.399 . S
C923 C922 1.394 . S
C923 C924 1.516 . S
C924 C923 1.516 . S
C924 C925 1.502 . S
C924 C926 1.561 1_545 S
C924 C927 1.526 1_546 S
C925 H909 0.959 . S
C925 H910 0.959 . S
C925 H911 0.961 . S
C925 C924 1.502 . S
C926 H912 0.960 . S
C926 H913 0.961 . S
C926 H914 0.959 . S
C926 C924 1.561 1_565 S
C927 C924 1.526 1_564 S
C927 C928 1.396 . S
C927 C932 1.390 . S
C928 C922 1.465 1_564 S
C928 C927 1.396 . S
C928 C929 1.399 . S
C929 H915 0.929 . S
C929 C928 1.399 . S
C929 C930 1.385 . S
C930 H916 0.931 . S
C930 C929 1.385 . S
C930 C931 1.389 . S
C931 C930 1.389 . S
C931 C932 1.387 . S
C932 H917 0.930 . S
C932 C927 1.390 . S
C932 C931 1.387 . S
H933 C945 0.930 . S
H934 C947 0.930 . S
H935 C948 0.930 . S
H936 C952 0.959 . S
H937 C952 0.959 . S
H938 C952 0.961 . S
H939 C953 0.960 . S
H940 C953 0.972 . S
H941 C953 0.959 . S
H942 C956 0.929 . S
H943 C957 0.931 . S
H944 C959 0.930 . S
C945 H933 0.930 . S
C945 C946 1.399 . S
C945 C950 1.399 . S
C946 C945 1.399 . S
C946 C947 1.376 . S
C947 H934 0.930 . S
C947 C946 1.376 . S
C947 C948 1.388 . S
C948 H935 0.930 . S
C948 C947 1.388 . S
C948 C949 1.390 . S
C949 C948 1.390 . S
C949 C950 1.394 . S
C949 C955 1.465 1_556 S
C950 C945 1.399 . S
C950 C949 1.394 . S
C950 C951 1.516 1_556 S
C951 C950 1.516 1_554 S
C951 C952 1.502 . S
C951 C953 1.561 1_554 S
C951 C954 1.526 . S
C952 H936 0.959 . S
C952 H937 0.959 . S
C952 H938 0.961 . S
C952 C951 1.502 . S
C953 H939 0.960 . S
C953 H940 0.972 . S
C953 H941 0.959 . S
C953 C951 1.561 1_556 S
C954 C951 1.526 . S
C954 C955 1.396 . S
C954 C959 1.390 . S
C955 C949 1.465 1_554 S
C955 C954 1.396 . S
C955 C956 1.399 . S
C956 H942 0.929 . S
C956 C955 1.399 . S
C956 C957 1.385 . S
C957 H943 0.931 . S
C957 C956 1.385 . S
C957 C958 1.389 . S
C958 C957 1.389 . S
C958 C959 1.387 . S
C959 H944 0.930 . S
C959 C954 1.390 . S
C959 C958 1.387 . S
H960 C972 0.930 . S
H961 C974 0.930 . S
H962 C975 0.930 . S
H963 C979 0.959 . S
H964 C979 0.959 . S
H965 C979 0.961 . S
H966 C980 0.960 . S
H967 C980 0.961 . S
H968 C980 0.959 . S
H969 C983 0.929 . S
H970 C984 0.931 . S
H971 C986 0.930 . S
C972 H960 0.930 . S
C972 C973 1.399 . S
C972 C977 1.399 . S
C973 C972 1.399 . S
C973 C974 1.376 . S
C974 H961 0.930 . S
C974 C973 1.376 . S
C974 C975 1.388 . S
C975 H962 0.930 . S
C975 C974 1.388 . S
C975 C976 1.390 . S
C976 C975 1.390 . S
C976 C977 1.394 . S
C976 C982 1.465 . S
C977 C972 1.399 . S
C977 C976 1.394 . S
C977 C978 1.516 . S
C978 C977 1.516 . S
C978 C979 1.502 . S
C978 C980 1.561 . S
C978 C981 1.526 . S
C979 H963 0.959 . S
C979 H964 0.959 . S
C979 H965 0.961 . S
C979 C978 1.502 . S
C980 H966 0.960 . S
C980 H967 0.961 . S
C980 H968 0.959 . S
C980 C978 1.561 . S
C981 C978 1.526 . S
C981 C982 1.396 . S
C981 C986 1.390 . S
C982 C976 1.465 . S
C982 C981 1.396 . S
C982 C983 1.399 . S
C983 H969 0.929 . S
C983 C982 1.399 . S
C983 C984 1.385 . S
C984 H970 0.931 . S
C984 C983 1.385 . S
C984 C985 1.389 . S
C985 C984 1.389 . S
C985 C986 1.387 . S
C986 H971 0.930 . S
C986 C981 1.390 . S
C986 C985 1.387 . S
H987 C999 0.930 . S
H988 C1001 0.930 . S
H989 C1002 0.930 . S
H990 C1006 0.959 . S
H991 C1006 0.959 . S
H992 C1006 0.961 . S
H993 C1007 0.960 . S
H994 C1007 0.961 . S
H995 C1007 0.959 . S
H996 C1010 0.929 . S
H997 C1011 0.931 . S
H998 C1013 0.930 . S
C999 H987 0.930 . S
C999 C1000 1.399 . S
C999 C1004 1.399 . S
C1000 C999 1.399 . S
C1000 C1001 1.376 . S
C1001 H988 0.930 . S
C1001 C1000 1.376 . S
C1001 C1002 1.388 . S
C1002 H989 0.930 . S
C1002 C1001 1.388 . S
C1002 C1003 1.390 . S
C1003 C1002 1.390 . S
C1003 C1004 1.394 . S
C1003 C1009 1.465 . S
C1004 C999 1.399 . S
C1004 C1003 1.394 . S
C1004 C1005 1.516 . S
C1005 C1004 1.516 . S
C1005 C1006 1.502 . S
C1005 C1007 1.561 . S
C1005 C1008 1.526 . S
C1006 H990 0.959 . S
C1006 H991 0.959 . S
C1006 H992 0.961 . S
C1006 C1005 1.502 . S
C1007 H993 0.960 . S
C1007 H994 0.961 . S
C1007 H995 0.959 . S
C1007 C1005 1.561 . S
C1008 C1005 1.526 . S
C1008 C1009 1.396 . S
C1008 C1013 1.390 . S
C1009 C1003 1.465 . S
C1009 C1008 1.396 . S
C1009 C1010 1.399 . S
C1010 H996 0.929 . S
C1010 C1009 1.399 . S
C1010 C1011 1.385 . S
C1011 H997 0.931 . S
C1011 C1010 1.385 . S
C1011 C1012 1.389 . S
C1012 C1011 1.389 . S
C1012 C1013 1.387 . S
C1013 H998 0.930 . S
C1013 C1008 1.390 . S
C1013 C1012 1.387 . S
H1014 C1026 0.930 . S
H1015 C1028 0.930 . S
H1016 C1029 0.930 . S
H1017 C1033 0.959 . S
H1018 C1033 0.959 . S
H1019 C1033 0.961 . S
H1020 C1034 0.960 . S
H1021 C1034 0.961 . S
H1022 C1034 0.959 . S
H1023 C1037 0.929 . S
H1024 C1038 0.931 . S
H1025 C1040 0.930 . S
C1026 H1014 0.930 . S
C1026 C1027 1.399 . S
C1026 C1031 1.399 . S
C1027 C1026 1.399 . S
C1027 C1028 1.376 . S
C1028 H1015 0.930 . S
C1028 C1027 1.376 . S
C1028 C1029 1.388 . S
C1029 H1016 0.930 . S
C1029 C1028 1.388 . S
C1029 C1030 1.390 . S
C1030 C1029 1.390 . S
C1030 C1031 1.394 . S
C1030 C1036 1.465 . S
C1031 C1026 1.399 . S
C1031 C1030 1.394 . S
C1031 C1032 1.516 . S
C1032 C1031 1.516 . S
C1032 C1033 1.502 . S
C1032 C1034 1.561 . S
C1032 C1035 1.526 . S
C1033 H1017 0.959 . S
C1033 H1018 0.959 . S
C1033 H1019 0.961 . S
C1033 C1032 1.502 . S
C1034 H1020 0.960 . S
C1034 H1021 0.961 . S
C1034 H1022 0.959 . S
C1034 C1032 1.561 . S
C1035 C1032 1.526 . S
C1035 C1036 1.396 . S
C1035 C1040 1.390 . S
C1036 C1030 1.465 . S
C1036 C1035 1.396 . S
C1036 C1037 1.399 . S
C1037 H1023 0.929 . S
C1037 C1036 1.399 . S
C1037 C1038 1.385 . S
C1038 H1024 0.931 . S
C1038 C1037 1.385 . S
C1038 C1039 1.389 . S
C1039 C1038 1.389 . S
C1039 C1040 1.387 . S
C1040 H1025 0.930 . S
C1040 C1035 1.390 . S
C1040 C1039 1.387 . S
H1041 C1053 0.930 . S
H1042 C1055 0.930 . S
H1043 C1056 0.930 . S
H1044 C1060 0.959 . S
H1045 C1060 0.959 . S
H1046 C1060 0.961 . S
H1047 C1061 0.960 . S
H1048 C1061 0.961 . S
H1049 C1061 0.959 . S
H1050 C1064 0.929 . S
H1051 C1065 0.931 . S
H1052 C1067 0.930 . S
C1053 H1041 0.930 . S
C1053 C1054 1.399 . S
C1053 C1058 1.399 . S
C1054 C1053 1.399 . S
C1054 C1055 1.376 . S
C1055 H1042 0.930 . S
C1055 C1054 1.376 . S
C1055 C1056 1.388 . S
C1056 H1043 0.930 . S
C1056 C1055 1.388 . S
C1056 C1057 1.390 . S
C1057 C1056 1.390 . S
C1057 C1058 1.394 . S
C1057 C1063 1.465 . S
C1058 C1053 1.399 . S
C1058 C1057 1.394 . S
C1058 C1059 1.516 . S
C1059 C1058 1.516 . S
C1059 C1060 1.502 . S
C1059 C1061 1.561 . S
C1059 C1062 1.526 . S
C1060 H1044 0.959 . S
C1060 H1045 0.959 . S
C1060 H1046 0.961 . S
C1060 C1059 1.502 . S
C1061 H1047 0.960 . S
C1061 H1048 0.961 . S
C1061 H1049 0.959 . S
C1061 C1059 1.561 . S
C1062 C1059 1.526 . S
C1062 C1063 1.396 . S
C1062 C1067 1.390 . S
C1063 C1057 1.465 . S
C1063 C1062 1.396 . S
C1063 C1064 1.399 . S
C1064 H1050 0.929 . S
C1064 C1063 1.399 . S
C1064 C1065 1.385 . S
C1065 H1051 0.931 . S
C1065 C1064 1.385 . S
C1065 C1066 1.389 . S
C1066 C1065 1.389 . S
C1066 C1067 1.387 . S
C1067 H1052 0.930 . S
C1067 C1062 1.390 . S
C1067 C1066 1.387 . S
H1068 C1080 0.930 . S
H1069 C1082 0.930 . S
H1070 C1083 0.930 . S
H1071 C1087 0.959 . S
H1072 C1087 0.959 . S
H1073 C1087 0.961 . S
H1074 C1088 0.960 . S
H1075 C1088 0.961 . S
H1076 C1088 0.959 . S
H1077 C1091 0.929 . S
H1078 C1092 0.931 . S
H1079 C1094 0.930 . S
C1080 H1068 0.930 . S
C1080 C1081 1.399 . S
C1080 C1085 1.399 . S
C1081 C1080 1.399 . S
C1081 C1082 1.376 . S
C1082 H1069 0.930 . S
C1082 C1081 1.376 . S
C1082 C1083 1.388 . S
C1083 H1070 0.930 . S
C1083 C1082 1.388 . S
C1083 C1084 1.390 . S
C1084 C1083 1.390 . S
C1084 C1085 1.394 . S
C1084 C1090 1.465 . S
C1085 C1080 1.399 . S
C1085 C1084 1.394 . S
C1085 C1086 1.516 . S
C1086 C1085 1.516 . S
C1086 C1087 1.502 . S
C1086 C1088 1.561 . S
C1086 C1089 1.526 . S
C1087 H1071 0.959 . S
C1087 H1072 0.959 . S
C1087 H1073 0.961 . S
C1087 C1086 1.502 . S
C1088 H1074 0.960 . S
C1088 H1075 0.961 . S
C1088 H1076 0.959 . S
C1088 C1086 1.561 . S
C1089 C1086 1.526 . S
C1089 C1090 1.396 . S
C1089 C1094 1.390 . S
C1090 C1084 1.465 . S
C1090 C1089 1.396 . S
C1090 C1091 1.399 . S
C1091 H1077 0.929 . S
C1091 C1090 1.399 . S
C1091 C1092 1.385 . S
C1092 H1078 0.931 . S
C1092 C1091 1.385 . S
C1092 C1093 1.389 . S
C1093 C1092 1.389 . S
C1093 C1094 1.387 . S
C1094 H1079 0.930 . S
C1094 C1089 1.390 . S
C1094 C1093 1.387 . S
H1095 C1107 0.930 . S
H1096 C1109 0.930 . S
H1097 C1110 0.930 . S
H1098 C1114 0.959 . S
H1099 C1114 0.959 . S
H1100 C1114 0.961 . S
H1101 C1115 0.960 . S
H1102 C1115 0.961 . S
H1103 C1115 0.959 . S
H1104 C1118 0.929 . S
H1105 C1119 0.931 . S
H1106 C1121 0.930 . S
C1107 H1095 0.930 . S
C1107 C1108 1.399 . S
C1107 C1112 1.399 . S
C1108 C1107 1.399 . S
C1108 C1109 1.376 . S
C1109 H1096 0.930 . S
C1109 C1108 1.376 . S
C1109 C1110 1.388 . S
C1110 H1097 0.930 . S
C1110 C1109 1.388 . S
C1110 C1111 1.390 . S
C1111 C1110 1.390 . S
C1111 C1112 1.394 . S
C1111 C1117 1.465 . S
C1112 C1107 1.399 . S
C1112 C1111 1.394 . S
C1112 C1113 1.516 . S
C1113 C1112 1.516 . S
C1113 C1114 1.502 . S
C1113 C1115 1.561 . S
C1113 C1116 1.526 . S
C1114 H1098 0.959 . S
C1114 H1099 0.959 . S
C1114 H1100 0.961 . S
C1114 C1113 1.502 . S
C1115 H1101 0.960 . S
C1115 H1102 0.961 . S
C1115 H1103 0.959 . S
C1115 C1113 1.561 . S
C1116 C1113 1.526 . S
C1116 C1117 1.396 . S
C1116 C1121 1.390 . S
C1117 C1111 1.465 . S
C1117 C1116 1.396 . S
C1117 C1118 1.399 . S
C1118 H1104 0.929 . S
C1118 C1117 1.399 . S
C1118 C1119 1.385 . S
C1119 H1105 0.931 . S
C1119 C1118 1.385 . S
C1119 C1120 1.389 . S
C1120 C1119 1.389 . S
C1120 C1121 1.387 . S
C1121 H1106 0.930 . S
C1121 C1116 1.390 . S
C1121 C1120 1.387 . S
H1122 C1134 0.930 . S
H1123 C1136 0.930 . S
H1124 C1137 0.930 . S
H1125 C1141 0.959 . S
H1126 C1141 0.959 . S
H1127 C1141 0.961 . S
H1128 C1142 0.960 . S
H1129 C1142 0.961 . S
H1130 C1142 0.959 . S
H1131 C1145 0.929 . S
H1132 C1146 0.931 . S
H1133 C1148 0.930 . S
C1134 H1122 0.930 . S
C1134 C1135 1.399 . S
C1134 C1139 1.399 . S
C1135 C1134 1.399 . S
C1135 C1136 1.376 . S
C1136 H1123 0.930 . S
C1136 C1135 1.376 . S
C1136 C1137 1.388 . S
C1137 H1124 0.930 . S
C1137 C1136 1.388 . S
C1137 C1138 1.390 . S
C1138 C1137 1.390 . S
C1138 C1139 1.394 . S
C1138 C1144 1.465 . S
C1139 C1134 1.399 . S
C1139 C1138 1.394 . S
C1139 C1140 1.516 . S
C1140 C1139 1.516 . S
C1140 C1141 1.502 . S
C1140 C1142 1.561 . S
C1140 C1143 1.526 . S
C1141 H1125 0.959 . S
C1141 H1126 0.959 . S
C1141 H1127 0.961 . S
C1141 C1140 1.502 . S
C1142 H1128 0.960 . S
C1142 H1129 0.961 . S
C1142 H1130 0.959 . S
C1142 C1140 1.561 . S
C1143 C1140 1.526 . S
C1143 C1144 1.396 . S
C1143 C1148 1.390 . S
C1144 C1138 1.465 . S
C1144 C1143 1.396 . S
C1144 C1145 1.399 . S
C1145 H1131 0.929 . S
C1145 C1144 1.399 . S
C1145 C1146 1.385 . S
C1146 H1132 0.931 . S
C1146 C1145 1.385 . S
C1146 C1147 1.389 . S
C1147 C1146 1.389 . S
C1147 C1148 1.387 . S
C1148 H1133 0.930 . S
C1148 C1143 1.390 . S
C1148 C1147 1.387 . S
H1149 C1161 0.930 . S
H1150 C1163 0.930 . S
H1151 C1164 0.930 . S
H1152 C1168 0.959 . S
H1153 C1168 0.959 . S
H1154 C1168 0.961 . S
H1155 C1169 0.960 . S
H1156 C1169 0.961 . S
H1157 C1169 0.959 . S
H1158 C1172 0.929 . S
H1159 C1173 0.931 . S
H1160 C1175 0.930 . S
C1161 H1149 0.930 . S
C1161 C1162 1.399 . S
C1161 C1166 1.399 . S
C1162 C1161 1.399 . S
C1162 C1163 1.376 . S
C1163 H1150 0.930 . S
C1163 C1162 1.376 . S
C1163 C1164 1.388 . S
C1164 H1151 0.930 . S
C1164 C1163 1.388 . S
C1164 C1165 1.390 . S
C1165 C1164 1.390 . S
C1165 C1166 1.394 . S
C1165 C1171 1.465 . S
C1166 C1161 1.399 . S
C1166 C1165 1.394 . S
C1166 C1167 1.516 . S
C1167 C1166 1.516 . S
C1167 C1168 1.502 . S
C1167 C1169 1.561 . S
C1167 C1170 1.526 . S
C1168 H1152 0.959 . S
C1168 H1153 0.959 . S
C1168 H1154 0.961 . S
C1168 C1167 1.502 . S
C1169 H1155 0.960 . S
C1169 H1156 0.961 . S
C1169 H1157 0.959 . S
C1169 C1167 1.561 . S
C1170 C1167 1.526 . S
C1170 C1171 1.396 . S
C1170 C1175 1.390 . S
C1171 C1165 1.465 . S
C1171 C1170 1.396 . S
C1171 C1172 1.399 . S
C1172 H1158 0.929 . S
C1172 C1171 1.399 . S
C1172 C1173 1.385 . S
C1173 H1159 0.931 . S
C1173 C1172 1.385 . S
C1173 C1174 1.389 . S
C1174 C1173 1.389 . S
C1174 C1175 1.387 . S
C1175 H1160 0.930 . S
C1175 C1170 1.390 . S
C1175 C1174 1.387 . S
H1176 C1188 0.930 . S
H1177 C1190 0.930 . S
H1178 C1191 0.930 . S
H1179 C1195 0.959 . S
H1180 C1195 0.959 . S
H1181 C1195 0.961 . S
H1182 C1196 0.960 . S
H1183 C1196 0.961 . S
H1184 C1196 0.959 . S
H1185 C1199 0.929 . S
H1186 C1200 0.931 . S
H1187 C1202 0.930 . S
C1188 H1176 0.930 . S
C1188 C1189 1.399 . S
C1188 C1193 1.399 . S
C1189 C1188 1.399 . S
C1189 C1190 1.376 . S
C1190 H1177 0.930 . S
C1190 C1189 1.376 . S
C1190 C1191 1.388 . S
C1191 H1178 0.930 . S
C1191 C1190 1.388 . S
C1191 C1192 1.390 . S
C1192 C1191 1.390 . S
C1192 C1193 1.394 . S
C1192 C1198 1.465 . S
C1193 C1188 1.399 . S
C1193 C1192 1.394 . S
C1193 C1194 1.516 . S
C1194 C1193 1.516 . S
C1194 C1195 1.502 . S
C1194 C1196 1.561 . S
C1194 C1197 1.526 . S
C1195 H1179 0.959 . S
C1195 H1180 0.959 . S
C1195 H1181 0.961 . S
C1195 C1194 1.502 . S
C1196 H1182 0.960 . S
C1196 H1183 0.961 . S
C1196 H1184 0.959 . S
C1196 C1194 1.561 . S
C1197 C1194 1.526 . S
C1197 C1198 1.396 . S
C1197 C1202 1.390 . S
C1198 C1192 1.465 . S
C1198 C1197 1.396 . S
C1198 C1199 1.399 . S
C1199 H1185 0.929 . S
C1199 C1198 1.399 . S
C1199 C1200 1.385 . S
C1200 H1186 0.931 . S
C1200 C1199 1.385 . S
C1200 C1201 1.389 . S
C1201 C1200 1.389 . S
C1201 C1202 1.387 . S
C1202 H1187 0.930 . S
C1202 C1197 1.390 . S
C1202 C1201 1.387 . S
H1203 C1215 0.930 . S
H1204 C1217 0.930 . S
H1205 C1218 0.930 . S
H1206 C1222 0.959 . S
H1207 C1222 0.959 . S
H1208 C1222 0.961 . S
H1209 C1223 0.960 . S
H1210 C1223 0.961 . S
H1211 C1223 0.959 . S
H1212 C1226 0.929 . S
H1213 C1227 0.931 . S
H1214 C1229 0.930 . S
C1215 H1203 0.930 . S
C1215 C1216 1.399 . S
C1215 C1220 1.399 . S
C1216 C1215 1.399 . S
C1216 C1217 1.376 . S
C1217 H1204 0.930 . S
C1217 C1216 1.376 . S
C1217 C1218 1.388 . S
C1218 H1205 0.930 . S
C1218 C1217 1.388 . S
C1218 C1219 1.390 . S
C1219 C1218 1.390 . S
C1219 C1220 1.394 . S
C1219 C1225 1.465 . S
C1220 C1215 1.399 . S
C1220 C1219 1.394 . S
C1220 C1221 1.516 . S
C1221 C1220 1.516 . S
C1221 C1222 1.502 . S
C1221 C1223 1.561 . S
C1221 C1224 1.526 . S
C1222 H1206 0.959 . S
C1222 H1207 0.959 . S
C1222 H1208 0.961 . S
C1222 C1221 1.502 . S
C1223 H1209 0.960 . S
C1223 H1210 0.961 . S
C1223 H1211 0.959 . S
C1223 C1221 1.561 . S
C1224 C1221 1.526 . S
C1224 C1225 1.396 . S
C1224 C1229 1.390 . S
C1225 C1219 1.465 . S
C1225 C1224 1.396 . S
C1225 C1226 1.399 . S
C1226 H1212 0.929 . S
C1226 C1225 1.399 . S
C1226 C1227 1.385 . S
C1227 H1213 0.931 . S
C1227 C1226 1.385 . S
C1227 C1228 1.389 . S
C1228 C1227 1.389 . S
C1228 C1229 1.387 . S
C1229 H1214 0.930 . S
C1229 C1224 1.390 . S
C1229 C1228 1.387 . S
H1230 C1242 0.930 . S
H1231 C1244 0.930 . S
H1232 C1245 0.930 . S
H1233 C1249 0.959 . S
H1234 C1249 0.959 . S
H1235 C1249 0.961 . S
H1236 C1250 0.960 . S
H1237 C1250 0.961 . S
H1238 C1250 0.959 . S
H1239 C1253 0.929 . S
H1240 C1254 0.931 . S
H1241 C1256 0.930 . S
C1242 H1230 0.930 . S
C1242 C1243 1.399 . S
C1242 C1247 1.399 . S
C1243 C1242 1.399 . S
C1243 C1244 1.376 . S
C1244 H1231 0.930 . S
C1244 C1243 1.376 . S
C1244 C1245 1.388 . S
C1245 H1232 0.930 . S
C1245 C1244 1.388 . S
C1245 C1246 1.390 . S
C1246 C1245 1.390 . S
C1246 C1247 1.394 . S
C1246 C1252 1.465 . S
C1247 C1242 1.399 . S
C1247 C1246 1.394 . S
C1247 C1248 1.516 . S
C1248 C1247 1.516 . S
C1248 C1249 1.502 . S
C1248 C1250 1.561 . S
C1248 C1251 1.526 . S
C1249 H1233 0.959 . S
C1249 H1234 0.959 . S
C1249 H1235 0.961 . S
C1249 C1248 1.502 . S
C1250 H1236 0.960 . S
C1250 H1237 0.961 . S
C1250 H1238 0.959 . S
C1250 C1248 1.561 . S
C1251 C1248 1.526 . S
C1251 C1252 1.396 . S
C1251 C1256 1.390 . S
C1252 C1246 1.465 . S
C1252 C1251 1.396 . S
C1252 C1253 1.399 . S
C1253 H1239 0.929 . S
C1253 C1252 1.399 . S
C1253 C1254 1.385 . S
C1254 H1240 0.931 . S
C1254 C1253 1.385 . S
C1254 C1255 1.389 . S
C1255 C1254 1.389 . S
C1255 C1256 1.387 . S
C1256 H1241 0.930 . S
C1256 C1251 1.390 . S
C1256 C1255 1.387 . S
H1257 C1269 0.930 . S
H1258 C1271 0.930 . S
H1259 C1272 0.930 . S
H1260 C1276 0.954 1_655 S
H1261 C1276 0.956 1_655 S
H1262 C1276 0.960 1_655 S
H1263 C1277 0.960 . S
H1264 C1277 0.961 . S
H1265 C1277 0.959 . S
H1266 C1280 0.929 . S
H1267 C1281 0.931 . S
H1268 C1283 0.930 . S
C1269 H1257 0.930 . S
C1269 C1270 1.399 . S
C1269 C1274 1.399 . S
C1270 C1269 1.399 . S
C1270 C1271 1.376 . S
C1271 H1258 0.930 . S
C1271 C1270 1.376 . S
C1271 C1272 1.388 . S
C1272 H1259 0.930 . S
C1272 C1271 1.388 . S
C1272 C1273 1.390 . S
C1273 C1272 1.390 . S
C1273 C1274 1.394 . S
C1273 C1279 1.465 . S
C1274 C1269 1.399 . S
C1274 C1273 1.394 . S
C1274 C1275 1.516 . S
C1275 C1274 1.516 . S
C1275 C1276 1.511 . S
C1275 C1277 1.561 . S
C1275 C1278 1.526 . S
C1276 H1260 0.954 1_455 S
C1276 H1261 0.956 1_455 S
C1276 H1262 0.960 1_455 S
C1276 C1275 1.511 . S
C1277 H1263 0.960 . S
C1277 H1264 0.961 . S
C1277 H1265 0.959 . S
C1277 C1275 1.561 . S
C1278 C1275 1.526 . S
C1278 C1279 1.396 . S
C1278 C1283 1.390 . S
C1279 C1273 1.465 . S
C1279 C1278 1.396 . S
C1279 C1280 1.399 . S
C1280 H1266 0.929 . S
C1280 C1279 1.399 . S
C1280 C1281 1.385 . S
C1281 H1267 0.931 . S
C1281 C1280 1.385 . S
C1281 C1282 1.389 . S
C1282 C1281 1.389 . S
C1282 C1283 1.387 . S
C1283 H1268 0.930 . S
C1283 C1278 1.390 . S
C1283 C1282 1.387 . S
H1284 C1296 0.930 . S
H1285 C1298 0.930 . S
H1286 C1299 0.930 . S
H1287 C1303 0.959 . S
H1288 C1303 0.959 . S
H1289 C1303 0.961 . S
H1290 C1304 0.960 . S
H1291 C1304 0.961 . S
H1292 C1304 0.959 . S
H1293 C1307 0.929 . S
H1294 C1308 0.931 . S
H1295 C1310 0.930 . S
C1296 H1284 0.930 . S
C1296 C1297 1.399 . S
C1296 C1301 1.399 . S
C1297 C1296 1.399 . S
C1297 C1298 1.376 . S
C1298 H1285 0.930 . S
C1298 C1297 1.376 . S
C1298 C1299 1.388 . S
C1299 H1286 0.930 . S
C1299 C1298 1.388 . S
C1299 C1300 1.390 . S
C1300 C1299 1.390 . S
C1300 C1301 1.394 . S
C1300 C1306 1.465 . S
C1301 C1296 1.399 . S
C1301 C1300 1.394 . S
C1301 C1302 1.516 . S
C1302 C1301 1.516 . S
C1302 C1303 1.502 . S
C1302 C1304 1.561 . S
C1302 C1305 1.526 . S
C1303 H1287 0.959 . S
C1303 H1288 0.959 . S
C1303 H1289 0.961 . S
C1303 C1302 1.502 . S
C1304 H1290 0.960 . S
C1304 H1291 0.961 . S
C1304 H1292 0.959 . S
C1304 C1302 1.561 . S
C1305 C1302 1.526 . S
C1305 C1306 1.396 . S
C1305 C1310 1.390 . S
C1306 C1300 1.465 . S
C1306 C1305 1.396 . S
C1306 C1307 1.399 . S
C1307 H1293 0.929 . S
C1307 C1306 1.399 . S
C1307 C1308 1.385 . S
C1308 H1294 0.931 . S
C1308 C1307 1.385 . S
C1308 C1309 1.389 . S
C1309 C1308 1.389 . S
C1309 C1310 1.387 . S
C1310 H1295 0.930 . S
C1310 C1305 1.390 . S
C1310 C1309 1.387 . S
H1311 C1323 0.930 . S
H1312 C1325 0.930 . S
H1313 C1326 0.930 . S
H1314 C1330 0.959 . S
H1315 C1330 0.959 . S
H1316 C1330 0.961 . S
H1317 C1331 0.960 . S
H1318 C1331 0.961 . S
H1319 C1331 0.959 . S
H1320 C1334 0.911 1_655 S
H1321 C1335 0.931 1_655 S
H1322 C1337 0.930 . S
C1323 H1311 0.930 . S
C1323 C1324 1.399 . S
C1323 C1328 1.399 . S
C1324 C1323 1.399 . S
C1324 C1325 1.376 . S
C1325 H1312 0.930 . S
C1325 C1324 1.376 . S
C1325 C1326 1.388 . S
C1326 H1313 0.930 . S
C1326 C1325 1.388 . S
C1326 C1327 1.390 . S
C1327 C1326 1.390 . S
C1327 C1328 1.394 . S
C1327 C1333 1.465 . S
C1328 C1323 1.399 . S
C1328 C1327 1.394 . S
C1328 C1329 1.516 . S
C1329 C1328 1.516 . S
C1329 C1330 1.502 . S
C1329 C1331 1.561 . S
C1329 C1332 1.526 . S
C1330 H1314 0.959 . S
C1330 H1315 0.959 . S
C1330 H1316 0.961 . S
C1330 C1329 1.502 . S
C1331 H1317 0.960 . S
C1331 H1318 0.961 . S
C1331 H1319 0.959 . S
C1331 C1329 1.561 . S
C1332 C1329 1.526 . S
C1332 C1333 1.396 . S
C1332 C1337 1.390 . S
C1333 C1327 1.465 . S
C1333 C1332 1.396 . S
C1333 C1334 1.399 . S
C1334 H1320 0.911 1_455 S
C1334 C1333 1.399 . S
C1334 C1335 1.385 . S
C1335 H1321 0.931 1_455 S
C1335 C1334 1.385 . S
C1335 C1336 1.389 . S
C1336 C1335 1.389 . S
C1336 C1337 1.387 . S
C1337 H1322 0.930 . S
C1337 C1332 1.390 . S
C1337 C1336 1.387 . S
H1338 C1350 0.930 . S
H1339 C1352 0.930 . S
H1340 C1353 0.930 . S
H1341 C1357 0.959 . S
H1342 C1357 0.959 . S
H1343 C1357 0.961 . S
H1344 C1358 0.960 . S
H1345 C1358 0.961 . S
H1346 C1358 0.959 1_545 S
H1347 C1361 0.929 . S
H1348 C1362 0.931 . S
H1349 C1364 0.930 1_565 S
C1350 H1338 0.930 . S
C1350 C1351 1.399 . S
C1350 C1355 1.399 . S
C1351 C1350 1.399 . S
C1351 C1352 1.376 . S
C1352 H1339 0.930 . S
C1352 C1351 1.376 . S
C1352 C1353 1.388 . S
C1353 H1340 0.930 . S
C1353 C1352 1.388 . S
C1353 C1354 1.390 . S
C1354 C1353 1.390 . S
C1354 C1355 1.394 . S
C1354 C1360 1.465 . S
C1355 C1350 1.399 . S
C1355 C1354 1.394 . S
C1355 C1356 1.516 . S
C1356 C1355 1.516 . S
C1356 C1357 1.502 1_545 S
C1356 C1358 1.561 1_545 S
C1356 C1359 1.526 . S
C1357 H1341 0.959 . S
C1357 H1342 0.959 . S
C1357 H1343 0.961 . S
C1357 C1356 1.502 1_565 S
C1358 H1344 0.960 . S
C1358 H1345 0.961 . S
C1358 H1346 0.959 1_565 S
C1358 C1356 1.561 1_565 S
C1359 C1356 1.526 . S
C1359 C1360 1.396 . S
C1359 C1364 1.390 . S
C1360 C1354 1.465 . S
C1360 C1359 1.396 . S
C1360 C1361 1.399 . S
C1361 H1347 0.929 . S
C1361 C1360 1.399 . S
C1361 C1362 1.385 . S
C1362 H1348 0.931 . S
C1362 C1361 1.385 . S
C1362 C1363 1.389 . S
C1363 C1362 1.389 . S
C1363 C1364 1.387 . S
C1364 H1349 0.930 1_545 S
C1364 C1359 1.390 . S
C1364 C1363 1.387 . S
H1365 C1377 0.930 . S
H1366 C1379 0.930 . S
H1367 C1380 0.930 . S
H1368 C1384 0.959 . S
H1369 C1384 0.959 . S
H1370 C1384 0.961 . S
H1371 C1385 0.960 . S
H1372 C1385 0.961 . S
H1373 C1385 0.959 . S
H1374 C1388 0.929 . S
H1375 C1389 0.931 . S
H1376 C1391 0.930 . S
C1377 H1365 0.930 . S
C1377 C1378 1.399 . S
C1377 C1382 1.399 . S
C1378 C1377 1.399 . S
C1378 C1379 1.376 . S
C1379 H1366 0.930 . S
C1379 C1378 1.376 . S
C1379 C1380 1.388 . S
C1380 H1367 0.930 . S
C1380 C1379 1.388 . S
C1380 C1381 1.390 . S
C1381 C1380 1.390 . S
C1381 C1382 1.394 . S
C1381 C1387 1.465 . S
C1382 C1377 1.399 . S
C1382 C1381 1.394 . S
C1382 C1383 1.516 . S
C1383 C1382 1.516 . S
C1383 C1384 1.502 . S
C1383 C1385 1.561 . S
C1383 C1386 1.526 . S
C1384 H1368 0.959 . S
C1384 H1369 0.959 . S
C1384 H1370 0.961 . S
C1384 C1383 1.502 . S
C1385 H1371 0.960 . S
C1385 H1372 0.961 . S
C1385 H1373 0.959 . S
C1385 C1383 1.561 . S
C1386 C1383 1.526 . S
C1386 C1387 1.396 . S
C1386 C1391 1.390 . S
C1387 C1381 1.465 . S
C1387 C1386 1.396 . S
C1387 C1388 1.399 . S
C1388 H1374 0.929 . S
C1388 C1387 1.399 . S
C1388 C1389 1.385 . S
C1389 H1375 0.931 . S
C1389 C1388 1.385 . S
C1389 C1390 1.389 . S
C1390 C1389 1.389 . S
C1390 C1391 1.387 . S
C1391 H1376 0.930 . S
C1391 C1386 1.390 . S
C1391 C1390 1.387 . S
H1392 C1404 0.930 . S
H1393 C1406 0.930 . S
H1394 C1407 0.930 . S
H1395 C1411 0.959 1_545 S
H1396 C1411 0.959 . S
H1397 C1411 0.961 . S
H1398 C1412 0.960 . S
H1399 C1412 0.961 . S
H1400 C1412 0.959 . S
H1401 C1415 0.929 . S
H1402 C1416 0.931 . S
H1403 C1418 0.930 . S
C1404 H1392 0.930 . S
C1404 C1405 1.399 . S
C1404 C1409 1.399 . S
C1405 C1404 1.399 . S
C1405 C1406 1.376 . S
C1406 H1393 0.930 . S
C1406 C1405 1.376 . S
C1406 C1407 1.388 . S
C1407 H1394 0.930 . S
C1407 C1406 1.388 . S
C1407 C1408 1.390 . S
C1408 C1407 1.390 . S
C1408 C1409 1.394 . S
C1408 C1414 1.465 . S
C1409 C1404 1.399 . S
C1409 C1408 1.394 . S
C1409 C1410 1.516 . S
C1410 C1409 1.516 . S
C1410 C1411 1.502 . S
C1410 C1412 1.561 . S
C1410 C1413 1.526 . S
C1411 H1395 0.959 1_565 S
C1411 H1396 0.959 . S
C1411 H1397 0.961 . S
C1411 C1410 1.502 . S
C1412 H1398 0.960 . S
C1412 H1399 0.961 . S
C1412 H1400 0.959 . S
C1412 C1410 1.561 . S
C1413 C1410 1.526 . S
C1413 C1414 1.396 . S
C1413 C1418 1.390 . S
C1414 C1408 1.465 . S
C1414 C1413 1.396 . S
C1414 C1415 1.399 . S
C1415 H1401 0.929 . S
C1415 C1414 1.399 . S
C1415 C1416 1.385 . S
C1416 H1402 0.931 . S
C1416 C1415 1.385 . S
C1416 C1417 1.389 . S
C1417 C1416 1.389 . S
C1417 C1418 1.387 . S
C1418 H1403 0.930 . S
C1418 C1413 1.390 . S
C1418 C1417 1.387 . S
H1419 C1431 0.930 . S
H1420 C1433 0.930 . S
H1421 C1434 0.930 . S
H1422 C1438 0.959 . S
H1423 C1438 0.959 . S
H1424 C1438 0.961 . S
H1425 C1439 0.960 . S
H1426 C1439 0.961 . S
H1427 C1439 0.959 . S
H1428 C1442 0.929 . S
H1429 C1443 0.931 . S
H1430 C1445 0.930 . S
C1431 H1419 0.930 . S
C1431 C1432 1.399 . S
C1431 C1436 1.399 . S
C1432 C1431 1.399 . S
C1432 C1433 1.376 . S
C1433 H1420 0.930 . S
C1433 C1432 1.376 . S
C1433 C1434 1.388 . S
C1434 H1421 0.930 . S
C1434 C1433 1.388 . S
C1434 C1435 1.390 . S
C1435 C1434 1.390 . S
C1435 C1436 1.394 . S
C1435 C1441 1.465 . S
C1436 C1431 1.399 . S
C1436 C1435 1.394 . S
C1436 C1437 1.516 . S
C1437 C1436 1.516 . S
C1437 C1438 1.502 . S
C1437 C1439 1.561 . S
C1437 C1440 1.526 . S
C1438 H1422 0.959 . S
C1438 H1423 0.959 . S
C1438 H1424 0.961 . S
C1438 C1437 1.502 . S
C1439 H1425 0.960 . S
C1439 H1426 0.961 . S
C1439 H1427 0.959 . S
C1439 C1437 1.561 . S
C1440 C1437 1.526 . S
C1440 C1441 1.396 . S
C1440 C1445 1.390 . S
C1441 C1435 1.465 . S
C1441 C1440 1.396 . S
C1441 C1442 1.399 . S
C1442 H1428 0.929 . S
C1442 C1441 1.399 . S
C1442 C1443 1.385 . S
C1443 H1429 0.931 . S
C1443 C1442 1.385 . S
C1443 C1444 1.389 . S
C1444 C1443 1.389 . S
C1444 C1445 1.387 . S
C1445 H1430 0.930 . S
C1445 C1440 1.390 . S
C1445 C1444 1.387 . S
H1446 C1458 0.930 . S
H1447 C1460 0.930 . S
H1448 C1461 0.930 . S
H1449 C1465 0.959 . S
H1450 C1465 0.959 . S
H1451 C1465 0.961 . S
H1452 C1466 0.960 . S
H1453 C1466 0.961 . S
H1454 C1466 0.959 . S
H1455 C1469 0.929 . S
H1456 C1470 0.931 . S
H1457 C1472 0.930 . S
C1458 H1446 0.930 . S
C1458 C1459 1.399 . S
C1458 C1463 1.399 . S
C1459 C1458 1.399 . S
C1459 C1460 1.376 . S
C1460 H1447 0.930 . S
C1460 C1459 1.376 . S
C1460 C1461 1.388 . S
C1461 H1448 0.930 . S
C1461 C1460 1.388 . S
C1461 C1462 1.390 . S
C1462 C1461 1.390 . S
C1462 C1463 1.394 . S
C1462 C1468 1.465 . S
C1463 C1458 1.399 . S
C1463 C1462 1.394 . S
C1463 C1464 1.516 . S
C1464 C1463 1.516 . S
C1464 C1465 1.502 . S
C1464 C1466 1.561 . S
C1464 C1467 1.526 . S
C1465 H1449 0.959 . S
C1465 H1450 0.959 . S
C1465 H1451 0.961 . S
C1465 C1464 1.502 . S
C1466 H1452 0.960 . S
C1466 H1453 0.961 . S
C1466 H1454 0.959 . S
C1466 C1464 1.561 . S
C1467 C1464 1.526 . S
C1467 C1468 1.396 . S
C1467 C1472 1.390 . S
C1468 C1462 1.465 . S
C1468 C1467 1.396 . S
C1468 C1469 1.399 . S
C1469 H1455 0.929 . S
C1469 C1468 1.399 . S
C1469 C1470 1.385 . S
C1470 H1456 0.931 . S
C1470 C1469 1.385 . S
C1470 C1471 1.389 . S
C1471 C1470 1.389 . S
C1471 C1472 1.387 . S
C1472 H1457 0.930 . S
C1472 C1467 1.390 . S
C1472 C1471 1.387 . S
H1473 C1485 0.930 . S
H1474 C1487 0.930 . S
H1475 C1488 0.930 . S
H1476 C1492 0.959 . S
H1477 C1492 0.959 . S
H1478 C1492 0.961 . S
H1479 C1493 0.960 . S
H1480 C1493 0.961 . S
H1481 C1493 0.959 . S
H1482 C1496 0.929 . S
H1483 C1497 0.931 . S
H1484 C1499 0.930 . S
C1485 H1473 0.930 . S
C1485 C1486 1.399 . S
C1485 C1490 1.399 . S
C1486 C1485 1.399 . S
C1486 C1487 1.376 . S
C1487 H1474 0.930 . S
C1487 C1486 1.376 . S
C1487 C1488 1.388 . S
C1488 H1475 0.930 . S
C1488 C1487 1.388 . S
C1488 C1489 1.390 . S
C1489 C1488 1.390 . S
C1489 C1490 1.394 . S
C1489 C1495 1.465 . S
C1490 C1485 1.399 . S
C1490 C1489 1.394 . S
C1490 C1491 1.516 . S
C1491 C1490 1.516 . S
C1491 C1492 1.502 . S
C1491 C1493 1.561 . S
C1491 C1494 1.526 . S
C1492 H1476 0.959 . S
C1492 H1477 0.959 . S
C1492 H1478 0.961 . S
C1492 C1491 1.502 . S
C1493 H1479 0.960 . S
C1493 H1480 0.961 . S
C1493 H1481 0.959 . S
C1493 C1491 1.561 . S
C1494 C1491 1.526 . S
C1494 C1495 1.396 . S
C1494 C1499 1.390 . S
C1495 C1489 1.465 . S
C1495 C1494 1.396 . S
C1495 C1496 1.399 . S
C1496 H1482 0.929 . S
C1496 C1495 1.399 . S
C1496 C1497 1.385 . S
C1497 H1483 0.931 . S
C1497 C1496 1.385 . S
C1497 C1498 1.389 . S
C1498 C1497 1.389 . S
C1498 C1499 1.387 . S
C1499 H1484 0.930 . S
C1499 C1494 1.390 . S
C1499 C1498 1.387 . S
H1500 C1512 0.930 . S
H1501 C1514 0.930 . S
H1502 C1515 0.930 . S
H1503 C1519 0.959 . S
H1504 C1519 0.959 . S
H1505 C1519 0.961 . S
H1506 C1520 0.960 . S
H1507 C1520 0.961 . S
H1508 C1520 0.959 . S
H1509 C1523 0.929 . S
H1510 C1524 0.931 . S
H1511 C1526 0.930 . S
C1512 H1500 0.930 . S
C1512 C1513 1.399 . S
C1512 C1517 1.399 . S
C1513 C1512 1.399 . S
C1513 C1514 1.376 . S
C1514 H1501 0.930 . S
C1514 C1513 1.376 . S
C1514 C1515 1.388 . S
C1515 H1502 0.930 . S
C1515 C1514 1.388 . S
C1515 C1516 1.390 . S
C1516 C1515 1.390 . S
C1516 C1517 1.394 . S
C1516 C1522 1.465 . S
C1517 C1512 1.399 . S
C1517 C1516 1.394 . S
C1517 C1518 1.516 . S
C1518 C1517 1.516 . S
C1518 C1519 1.502 . S
C1518 C1520 1.561 . S
C1518 C1521 1.526 . S
C1519 H1503 0.959 . S
C1519 H1504 0.959 . S
C1519 H1505 0.961 . S
C1519 C1518 1.502 . S
C1520 H1506 0.960 . S
C1520 H1507 0.961 . S
C1520 H1508 0.959 . S
C1520 C1518 1.561 . S
C1521 C1518 1.526 . S
C1521 C1522 1.396 . S
C1521 C1526 1.390 . S
C1522 C1516 1.465 . S
C1522 C1521 1.396 . S
C1522 C1523 1.399 . S
C1523 H1509 0.929 . S
C1523 C1522 1.399 . S
C1523 C1524 1.385 . S
C1524 H1510 0.931 . S
C1524 C1523 1.385 . S
C1524 C1525 1.389 . S
C1525 C1524 1.389 . S
C1525 C1526 1.387 . S
C1526 H1511 0.930 . S
C1526 C1521 1.390 . S
C1526 C1525 1.387 . S
H1527 C1539 0.930 . S
H1528 C1541 0.930 . S
H1529 C1542 0.930 . S
H1530 C1546 0.959 . S
H1531 C1546 0.959 . S
H1532 C1546 0.961 . S
H1533 C1547 0.960 . S
H1534 C1547 0.961 . S
H1535 C1547 0.959 . S
H1536 C1550 0.929 . S
H1537 C1551 0.931 . S
H1538 C1553 0.930 . S
C1539 H1527 0.930 . S
C1539 C1540 1.399 . S
C1539 C1544 1.399 . S
C1540 C1539 1.399 . S
C1540 C1541 1.376 . S
C1541 H1528 0.930 . S
C1541 C1540 1.376 . S
C1541 C1542 1.388 . S
C1542 H1529 0.930 . S
C1542 C1541 1.388 . S
C1542 C1543 1.390 . S
C1543 C1542 1.390 . S
C1543 C1544 1.394 . S
C1543 C1549 1.465 . S
C1544 C1539 1.399 . S
C1544 C1543 1.394 . S
C1544 C1545 1.516 . S
C1545 C1544 1.516 . S
C1545 C1546 1.502 1_655 S
C1545 C1547 1.561 . S
C1545 C1548 1.526 . S
C1546 H1530 0.959 . S
C1546 H1531 0.959 . S
C1546 H1532 0.961 . S
C1546 C1545 1.502 1_455 S
C1547 H1533 0.960 . S
C1547 H1534 0.961 . S
C1547 H1535 0.959 . S
C1547 C1545 1.561 . S
C1548 C1545 1.526 . S
C1548 C1549 1.396 . S
C1548 C1553 1.390 . S
C1549 C1543 1.465 . S
C1549 C1548 1.396 . S
C1549 C1550 1.399 . S
C1550 H1536 0.929 . S
C1550 C1549 1.399 . S
C1550 C1551 1.385 . S
C1551 H1537 0.931 . S
C1551 C1550 1.385 . S
C1551 C1552 1.389 . S
C1552 C1551 1.389 . S
C1552 C1553 1.387 . S
C1553 H1538 0.930 . S
C1553 C1548 1.390 . S
C1553 C1552 1.387 . S
H1554 C1566 0.930 . S
H1555 C1568 0.930 1_545 S
H1556 C1569 0.930 1_545 S
H1557 C1573 0.959 . S
H1558 C1573 0.959 . S
H1559 C1573 0.961 . S
H1560 C1574 0.960 . S
H1561 C1574 0.961 . S
H1562 C1574 0.959 . S
H1563 C1577 0.929 . S
H1564 C1578 0.931 . S
H1565 C1580 0.930 . S
C1566 H1554 0.930 . S
C1566 C1567 1.399 . S
C1566 C1571 1.399 . S
C1567 C1566 1.399 . S
C1567 C1568 1.376 . S
C1568 H1555 0.930 1_565 S
C1568 C1567 1.376 . S
C1568 C1569 1.388 . S
C1569 H1556 0.930 1_565 S
C1569 C1568 1.388 . S
C1569 C1570 1.390 . S
C1570 C1569 1.390 . S
C1570 C1571 1.394 . S
C1570 C1576 1.465 . S
C1571 C1566 1.399 . S
C1571 C1570 1.394 . S
C1571 C1572 1.516 . S
C1572 C1571 1.516 . S
C1572 C1573 1.502 . S
C1572 C1574 1.561 . S
C1572 C1575 1.526 . S
C1573 H1557 0.959 . S
C1573 H1558 0.959 . S
C1573 H1559 0.961 . S
C1573 C1572 1.502 . S
C1574 H1560 0.960 . S
C1574 H1561 0.961 . S
C1574 H1562 0.959 . S
C1574 C1572 1.561 . S
C1575 C1572 1.526 . S
C1575 C1576 1.396 . S
C1575 C1580 1.390 . S
C1576 C1570 1.465 . S
C1576 C1575 1.396 . S
C1576 C1577 1.399 . S
C1577 H1563 0.929 . S
C1577 C1576 1.399 . S
C1577 C1578 1.385 . S
C1578 H1564 0.931 . S
C1578 C1577 1.385 . S
C1578 C1579 1.389 . S
C1579 C1578 1.389 . S
C1579 C1580 1.387 . S
C1580 H1565 0.930 . S
C1580 C1575 1.390 . S
C1580 C1579 1.387 . S
H1581 C1593 0.930 . S
H1582 C1595 0.930 . S
H1583 C1596 0.930 . S
H1584 C1600 0.959 . S
H1585 C1600 0.959 . S
H1586 C1600 0.961 . S
H1587 C1601 0.960 . S
H1588 C1601 0.961 . S
H1589 C1601 0.959 . S
H1590 C1604 0.929 . S
H1591 C1605 0.931 . S
H1592 C1607 0.930 . S
C1593 H1581 0.930 . S
C1593 C1594 1.399 . S
C1593 C1598 1.399 . S
C1594 C1593 1.399 . S
C1594 C1595 1.376 . S
C1595 H1582 0.930 . S
C1595 C1594 1.376 . S
C1595 C1596 1.388 . S
C1596 H1583 0.930 . S
C1596 C1595 1.388 . S
C1596 C1597 1.390 . S
C1597 C1596 1.390 . S
C1597 C1598 1.394 . S
C1597 C1603 1.465 . S
C1598 C1593 1.399 . S
C1598 C1597 1.394 . S
C1598 C1599 1.516 . S
C1599 C1598 1.516 . S
C1599 C1600 1.502 . S
C1599 C1601 1.561 . S
C1599 C1602 1.526 . S
C1600 H1584 0.959 . S
C1600 H1585 0.959 . S
C1600 H1586 0.961 . S
C1600 C1599 1.502 . S
C1601 H1587 0.960 . S
C1601 H1588 0.961 . S
C1601 H1589 0.959 . S
C1601 C1599 1.561 . S
C1602 C1599 1.526 . S
C1602 C1603 1.396 . S
C1602 C1607 1.390 . S
C1603 C1597 1.465 . S
C1603 C1602 1.396 . S
C1603 C1604 1.399 . S
C1604 H1590 0.929 . S
C1604 C1603 1.399 . S
C1604 C1605 1.385 . S
C1605 H1591 0.931 . S
C1605 C1604 1.385 . S
C1605 C1606 1.389 . S
C1606 C1605 1.389 . S
C1606 C1607 1.387 . S
C1607 H1592 0.930 . S
C1607 C1602 1.390 . S
C1607 C1606 1.387 . S
C541 C28 0.366 . S
C553 C193 0.367 . S
C568 C61 0.351 . S
C580 C226 0.337 . S
C595 C259 0.306 . S
C607 C94 0.280 . S
C622 C160 0.367 . S
C634 C127 0.368 . S
C649 C292 0.226 . S
C661 C457 0.315 . S
C676 C325 0.347 . S
C688 C490 0.271 . S
C703 C358 0.191 . S
C715 C523 0.299 . S
C730 C391 0.093 . S
C742 C424 0.194 . S
C757 C281 1.738 . S
C769 C17 1.724 . S
C784 C314 1.718 . S
C796 C50 1.646 . S
C811 C83 1.687 . S
C823 C347 1.776 . S
C838 C380 1.821 . S
C850 C116 1.740 . S
C865 C149 1.748 . S
C877 C413 1.630 . S
C892 C182 1.788 . S
C904 C446 1.702 . S
C919 C215 1.839 . S
C931 C479 1.730 . S
C946 C248 1.739 . S
C958 C512 1.721 . S
C973 N14 1.759 . S
C985 N146 1.788 . S
C1000 N47 1.732 . S
C1012 N179 1.693 . S
C1027 N212 1.797 . S
C1039 N80 1.753 . S
C1054 N113 1.832 . S
C1066 N245 1.821 . S
C1081 N410 1.745 . S
C1093 N278 1.693 . S
C1108 N443 1.724 . S
C1120 N311 1.703 . S
C1135 N344 1.744 . S
C1147 N476 1.803 . S
C1162 N509 1.821 . S
C1174 N377 1.816 . S
C1189 C41 1.476 . S
C1201 N5 1.368 . S
C1216 N38 1.422 . S
C1228 C74 1.470 . S
C1243 N71 1.354 . S
C1255 C107 1.519 . S
C1270 N104 1.335 . S
C1282 C8 1.503 . S
C1297 C239 1.490 . S
C1309 N137 1.326 . S
C1324 N170 1.365 . S
C1336 C140 1.465 . S
C1351 N203 1.349 . S
C1363 C173 1.505 . S
C1378 N236 1.453 . S
C1390 C206 1.503 . S
C1405 N269 1.343 . S
C1417 C305 1.470 . S
C1432 N302 1.353 . S
C1444 C338 1.479 . S
C1459 C371 1.523 . S
C1471 N335 1.348 . S
C1486 N368 1.407 . S
C1498 C272 1.493 . S
C1513 N401 1.379 . S
C1525 C503 1.474 . S
C1540 C404 1.487 . S
C1552 N434 1.314 . S
C1567 C437 1.482 . S
C1579 N467 1.436 . S
C1594 N500 1.371 . S
C1606 C470 1.515 . S
