# Generated by pormake.
# Topology bcg, (8)-cn, num edge types: 1
# Building blocks:
#     Node 0, Type 0, BuildingBlock: TAGTUT_clean_sbu_1, # of connection points: 8
#     Node 1, Type 0, BuildingBlock: TAGTUT_clean_sbu_1, # of connection points: 8
#     Node 2, Type 0, BuildingBlock: TAGTUT_clean_sbu_1, # of connection points: 8
#     Node 3, Type 0, BuildingBlock: TAGTUT_clean_sbu_1, # of connection points: 8
#     Edge 4, Type (0, 0), BuildingBlock: XIVTED_clean_linker_0, # of connection points: 2
#     Edge 5, Type (0, 0), BuildingBlock: XIVTED_clean_linker_0, # of connection points: 2
#     Edge 6, Type (0, 0), BuildingBlock: XIVTED_clean_linker_0, # of connection points: 2
#     Edge 7, Type (0, 0), BuildingBlock: XIVTED_clean_linker_0, # of connection points: 2
#     Edge 8, Type (0, 0), BuildingBlock: XIVTED_clean_linker_0, # of connection points: 2
#     Edge 9, Type (0, 0), BuildingBlock: XIVTED_clean_linker_0, # of connection points: 2
#     Edge 10, Type (0, 0), BuildingBlock: XIVTED_clean_linker_0, # of connection points: 2
#     Edge 11, Type (0, 0), BuildingBlock: XIVTED_clean_linker_0, # of connection points: 2
#     Edge 12, Type (0, 0), BuildingBlock: XIVTED_clean_linker_0, # of connection points: 2
#     Edge 13, Type (0, 0), BuildingBlock: XIVTED_clean_linker_0, # of connection points: 2
#     Edge 14, Type (0, 0), BuildingBlock: XIVTED_clean_linker_0, # of connection points: 2
#     Edge 15, Type (0, 0), BuildingBlock: XIVTED_clean_linker_0, # of connection points: 2
#     Edge 16, Type (0, 0), BuildingBlock: XIVTED_clean_linker_0, # of connection points: 2
#     Edge 17, Type (0, 0), BuildingBlock: XIVTED_clean_linker_0, # of connection points: 2
#     Edge 18, Type (0, 0), BuildingBlock: XIVTED_clean_linker_0, # of connection points: 2
#     Edge 19, Type (0, 0), BuildingBlock: XIVTED_clean_linker_0, # of connection points: 2
# Relax obj value: 0.095
# Max RMSD: 0.205
# Mean RMSD: 0.205
data_MOF--net-bcg--node1-TAGTUT_clean_sbu_1--edge1-XIVTED_clean_linker_0
_symmetry_space_group_name_H-M    P1
_symmetry_Int_Tables_number       1
_symmetry_cell_setting            triclinic
loop_
_symmetry_equiv_pos_as_xyz
'x, y, z'
_cell_length_a     15.400446
_cell_length_b     26.99252
_cell_length_c     33.386036
_cell_angle_alpha  83.596643
_cell_angle_beta   89.928027
_cell_angle_gamma 90.093969
loop_
_atom_site_label
_atom_site_type_symbol
_atom_site_fract_x
_atom_site_fract_y
_atom_site_fract_z
_atom_type_partial_charge
C0 C 0.22041 0.23977 0.15438 0.0
C1 C 0.4409 0.27142 0.08208 0.0
C2 C 0.26517 0.38152 0.97608 0.0
Mg3 Mg 0.29565 0.19506 0.07994 0.0
O4 O 0.22582 0.24437 0.05279 0.0
Mg5 Mg 0.2348 0.31432 0.06627 0.0
Mg6 Mg 0.2433 0.25861 -0.00646 0.0
O7 O 0.26084 0.27293 0.93433 0.0
Mg8 Mg 0.19105 0.32236 0.9073 0.0
Mg9 Mg 0.25218 0.20309 0.9207 0.0
C10 C 0.22232 0.13566 0.01098 0.0
C11 C 0.43071 0.22424 0.96931 0.0
O12 O 0.20956 0.28184 0.13275 0.0
O13 O 0.24955 0.20106 0.13989 0.0
O14 O 0.38173 0.30496 0.08084 0.0
O15 O 0.42345 0.22623 0.077 0.0
O16 O 0.25219 0.1339 0.04706 0.0
O17 O 0.22048 0.17702 0.98776 0.0
C18 C 0.05604 0.29308 0.01782 0.0
O19 O 0.10469 0.27417 0.99271 0.0
O20 O 0.08689 0.31292 0.04823 0.0
O21 O 0.27786 0.23589 0.85417 0.0
O22 O 0.23712 0.31654 0.84741 0.0
O23 O 0.10536 0.21248 0.90609 0.0
C24 C 0.26673 0.27809 0.83273 0.0
O25 O 0.06325 0.29112 0.91016 0.0
O26 O 0.23542 0.3835 0.93998 0.0
C27 C 0.04602 0.24592 0.90497 0.0
O28 O 0.2659 0.34016 -0.00073 0.0
O29 O 0.38197 0.2431 -0.00559 0.0
O30 O 0.39997 0.20443 0.93886 0.0
C31 C 0.72634 0.73965 0.15571 0.0
C32 C 0.94525 0.77105 0.08249 0.0
C33 C 0.7673 0.87936 0.97618 0.0
Mg34 Mg 0.80062 0.69417 0.08152 0.0
O35 O 0.72979 0.7431 0.05442 0.0
Mg36 Mg 0.73864 0.81335 0.06712 0.0
Mg37 Mg 0.74625 0.75647 -0.00486 0.0
O38 O 0.76289 0.76972 0.93584 0.0
Mg39 Mg 0.69277 0.81867 0.90841 0.0
Mg40 Mg 0.75382 0.69938 0.92331 0.0
C41 C 0.72559 0.63356 0.01393 0.0
C42 C 0.93358 0.72133 0.97074 0.0
O43 O 0.71452 0.78148 0.13386 0.0
O44 O 0.75587 0.70092 0.14142 0.0
O45 O 0.88568 0.80435 0.08119 0.0
O46 O 0.92825 0.72566 0.07785 0.0
O47 O 0.75617 0.63214 0.04984 0.0
O48 O 0.7236 0.67469 0.99048 0.0
C49 C 0.55888 0.79139 0.01968 0.0
O50 O 0.60701 0.77175 -0.00526 0.0
O51 O 0.59046 0.81185 0.04963 0.0
O52 O 0.77806 0.73073 0.85662 0.0
O53 O 0.7378 0.81148 0.84854 0.0
O54 O 0.6068 0.70853 0.9091 0.0
C55 C 0.76675 0.77242 0.83453 0.0
O56 O 0.56501 0.78743 0.91214 0.0
O57 O 0.73729 0.8806 0.94017 0.0
C58 C 0.54758 0.74206 0.9076 0.0
O59 O 0.76857 0.83834 -0.00018 0.0
O60 O 0.88546 0.74118 -0.00445 0.0
O61 O 0.90199 0.70072 0.94086 0.0
C62 C 0.21932 0.77626 0.33363 0.0
C63 C 0.44252 0.74859 0.40404 0.0
C64 C 0.27185 0.63553 0.51208 0.0
Mg65 Mg 0.29329 0.82238 0.40739 0.0
O66 O 0.2272 0.7718 0.43547 0.0
Mg67 Mg 0.23959 0.70211 0.42175 0.0
Mg68 Mg 0.24629 0.75819 0.49469 0.0
O69 O 0.26545 0.74456 0.55389 0.0
Mg70 Mg 0.19954 0.69392 0.58196 0.0
Mg71 Mg 0.25314 0.81421 0.56769 0.0
C72 C 0.2208 0.8808 0.4773 0.0
C73 C 0.43544 0.79897 0.51876 0.0
O74 O 0.21218 0.73394 0.35533 0.0
O75 O 0.24532 0.81578 0.34797 0.0
O76 O 0.38557 0.71369 0.4065 0.0
O77 O 0.42225 0.79364 0.40805 0.0
O78 O 0.25003 0.88279 0.44106 0.0
O79 O 0.21938 0.8394 0.50053 0.0
C80 C 0.05717 0.7174 0.47061 0.0
O81 O 0.10259 0.73818 0.49622 0.0
O82 O 0.09195 0.70044 0.43976 0.0
O83 O 0.2809 0.78225 0.63413 0.0
O84 O 0.24771 0.70042 0.64131 0.0
O85 O 0.10723 0.80266 0.58299 0.0
C86 C 0.27385 0.73985 0.65574 0.0
O87 O 0.07064 0.7227 0.58136 0.0
O88 O 0.24285 0.63348 0.54836 0.0
C89 C 0.05031 0.76775 0.5854 0.0
O90 O 0.27291 0.67695 0.48889 0.0
O91 O 0.39002 0.77819 0.49315 0.0
O92 O 0.40068 0.81593 0.54961 0.0
C93 C 0.72049 0.27256 0.33313 0.0
C94 C 0.94103 0.24195 0.40518 0.0
C95 C 0.76351 0.13407 0.51305 0.0
Mg96 Mg 0.79665 0.31849 0.40683 0.0
O97 O 0.72598 0.26974 0.43449 0.0
Mg98 Mg 0.73461 0.19939 0.42195 0.0
Mg99 Mg 0.74309 0.25685 0.49379 0.0
O100 O 0.76034 0.244 0.55309 0.0
Mg101 Mg 0.69031 0.19511 0.58097 0.0
Mg102 Mg 0.75163 0.31436 0.56554 0.0
C103 C 0.72383 0.3797 0.47469 0.0
C104 C 0.93053 0.29269 0.51734 0.0
O105 O 0.70917 0.23074 0.35514 0.0
O106 O 0.75032 0.31142 0.34719 0.0
O107 O 0.8814 0.20854 0.40687 0.0
O108 O 0.92421 0.2873 0.40987 0.0
O109 O 0.75444 0.38069 0.43877 0.0
O110 O 0.72018 0.33867 0.49827 0.0
C111 C 0.55567 0.22109 0.47017 0.0
O112 O 0.60407 0.24097 0.49486 0.0
O113 O 0.58689 0.20063 0.44015 0.0
O114 O 0.77725 0.28331 0.63231 0.0
O115 O 0.73665 0.20255 0.64059 0.0
O116 O 0.60488 0.30498 0.58065 0.0
C117 C 0.76619 0.24159 0.65447 0.0
O118 O 0.56255 0.22607 0.57789 0.0
O119 O 0.73341 0.13306 0.54907 0.0
C120 C 0.54547 0.27142 0.58247 0.0
O121 O 0.76576 0.17501 0.4893 0.0
O122 O 0.88213 0.27272 0.49271 0.0
O123 O 0.89931 0.31324 0.54731 0.0
H124 H 0.49942 0.30488 -0.00233 0.0
H125 H 0.98723 0.21245 0.98951 0.0
H126 H 0.57336 0.1684 0.95047 0.0
H127 H 0.91342 0.34895 0.03669 0.0
H128 H 0.83673 0.19585 0.9756 0.0
H129 H 0.64993 0.3215 0.0116 0.0
C130 C 0.54768 0.27811 0.99033 0.0
C131 C 0.52377 0.23443 0.97367 0.0
C132 C 0.85289 0.22942 0.989 0.0
C133 C 0.69733 0.25412 0.98905 0.0
C134 C 0.939 0.23923 -0.00314 0.0
C135 C 0.96295 0.28291 0.01351 0.0
C136 C 0.78936 0.26324 -0.00186 0.0
C137 C 0.89762 0.31515 0.02359 0.0
C138 C 0.63379 0.28793 -0.0018 0.0
C139 C 0.58912 0.2022 0.96358 0.0
N140 N 0.81331 0.30477 0.01547 0.0
N141 N 0.67342 0.2126 0.97171 0.0
H142 H 0.07366 0.66382 0.9516 0.0
H143 H 0.41865 0.84842 0.03938 0.0
H144 H 0.00576 0.80129 -0.00122 0.0
H145 H 0.48689 0.71164 0.99122 0.0
H146 H 0.26491 0.83095 0.02619 0.0
H147 H 0.2274 0.68113 0.96495 0.0
C148 C 0.09112 0.69748 0.96459 0.0
C149 C 0.02716 0.73048 0.97491 0.0
C150 C 0.31397 0.80495 0.01844 0.0
C151 C 0.20085 0.75052 0.9904 0.0
C152 C 0.40126 0.81489 0.0262 0.0
C153 C 0.46531 0.78213 0.01555 0.0
C154 C 0.29161 0.7619 0.00025 0.0
C155 C 0.43965 0.73877 -0.00118 0.0
C156 C 0.1784 0.70732 0.97244 0.0
C157 C 0.05292 0.77397 0.99142 0.0
N158 N 0.35507 0.7301 0.99151 0.0
N159 N 0.13748 0.78256 -0.00116 0.0
H160 H 0.55218 0.76017 0.57525 0.0
H161 H 0.9402 0.75585 0.41406 0.0
H162 H 0.53508 0.82842 0.45281 0.0
H163 H 0.95767 0.68827 0.53669 0.0
H164 H 0.78964 0.77987 0.42664 0.0
H165 H 0.70272 0.73615 0.56266 0.0
C166 C 0.58086 0.77104 0.54593 0.0
C167 C 0.53103 0.79587 0.51479 0.0
C168 C 0.82618 0.75956 0.45083 0.0
C169 C 0.70199 0.76702 0.49961 0.0
C170 C 0.91162 0.74513 0.44342 0.0
C171 C 0.96157 0.72048 0.4746 0.0
C172 C 0.79058 0.74934 0.48977 0.0
C173 C 0.92191 0.70832 0.51225 0.0
C174 C 0.66629 0.75661 0.53851 0.0
C175 C 0.57078 0.80822 0.4772 0.0
N176 N 0.83917 0.72311 0.51891 0.0
N177 N 0.65352 0.79342 0.47052 0.0
H178 H 0.07108 0.34914 0.53776 0.0
H179 H 0.41513 0.16466 0.44973 0.0
H180 H 0.002 0.21343 0.48798 0.0
H181 H 0.48422 0.30025 0.49966 0.0
H182 H 0.26137 0.18249 0.46241 0.0
H183 H 0.22485 0.33124 0.52515 0.0
C184 C 0.08826 0.31581 0.52427 0.0
C185 C 0.024 0.28348 0.51302 0.0
C186 C 0.31065 0.20812 0.4707 0.0
C187 C 0.19771 0.26273 0.49846 0.0
C188 C 0.39795 0.19795 0.46326 0.0
C189 C 0.46221 0.23027 0.47452 0.0
C190 C 0.28851 0.25096 0.48917 0.0
C191 C 0.43682 0.27338 0.49164 0.0
C192 C 0.17557 0.30561 0.51687 0.0
C193 C 0.04939 0.24032 0.49598 0.0
N194 N 0.35222 0.2823 0.4986 0.0
N195 N 0.134 0.23138 0.48905 0.0
H196 H 0.63587 0.62256 0.94409 0.0
H197 H 0.35686 0.39076 0.04576 0.0
H198 H 0.68752 0.54747 0.06255 0.0
H199 H 0.30181 0.46869 0.92869 0.0
H200 H 0.47627 0.44871 0.0533 0.0
H201 H 0.51677 0.56439 0.93682 0.0
C202 C 0.62313 0.59355 0.96834 0.0
C203 C 0.6711 0.59087 0.00425 0.0
C204 C 0.43761 0.45334 0.02607 0.0
C205 C 0.53389 0.52399 -0.00363 0.0
C206 C 0.36889 0.42034 0.0219 0.0
C207 C 0.31989 0.42388 0.98626 0.0
C208 C 0.45743 0.49048 -0.0056 0.0
C209 C 0.33792 0.46392 0.95664 0.0
C210 C 0.55457 0.56042 0.96431 0.0
C211 C 0.65224 0.55152 0.03436 0.0
N212 N 0.40564 0.49518 0.96118 0.0
N213 N 0.5847 0.52008 0.02991 0.0
H214 H 0.70244 0.46969 0.42868 0.0
H215 H 0.28984 0.54354 0.55519 0.0
H216 H 0.62086 0.38837 0.54099 0.0
H217 H 0.37861 0.63014 0.44645 0.0
H218 H 0.40576 0.48379 0.54814 0.0
H219 H 0.58642 0.52968 0.43511 0.0
C220 C 0.66133 0.46479 0.45518 0.0
C221 C 0.67102 0.42308 0.4841 0.0
C222 C 0.39959 0.5157 0.52561 0.0
C223 C 0.53601 0.49137 0.49104 0.0
C224 C 0.33255 0.54967 0.5293 0.0
C225 C 0.32479 0.59272 0.50162 0.0
C226 C 0.45968 0.52457 0.49396 0.0
C227 C 0.38225 0.59808 0.46871 0.0
C228 C 0.59425 0.49888 0.45854 0.0
C229 C 0.61549 0.41924 0.5177 0.0
N230 N 0.44778 0.56482 0.46603 0.0
N231 N 0.54983 0.45248 0.52001 0.0
H232 H 0.12555 0.12708 0.94268 0.0
H233 H 0.86202 0.88941 0.04482 0.0
H234 H 0.19217 0.04698 0.05755 0.0
H235 H 0.79905 0.96709 0.92857 0.0
H236 H 0.97976 0.94874 0.05126 0.0
H237 H 0.00776 0.06785 0.93609 0.0
C238 C 0.11651 0.09672 0.96621 0.0
C239 C 0.16831 0.09291 0.00099 0.0
C240 C 0.93976 0.95301 0.02445 0.0
C241 C 0.0324 0.02488 -0.00601 0.0
C242 C 0.87193 0.91923 0.02092 0.0
C243 C 0.8212 0.92232 0.98583 0.0
C244 C 0.95689 0.99052 0.9927 0.0
C245 C 0.83661 0.96266 0.95612 0.0
C246 C 0.04862 0.063 0.96261 0.0
C247 C 0.1538 0.05198 0.03026 0.0
N248 N 0.90346 0.99473 0.96004 0.0
N249 N 0.0868 0.02001 0.02631 0.0
H250 H 0.78552 0.04409 0.55895 0.0
H251 H 0.20174 0.97253 0.43383 0.0
H252 H 0.86755 0.12599 0.44699 0.0
H253 H 0.1134 0.88609 0.54272 0.0
H254 H 0.08449 0.03163 0.44036 0.0
H255 H 0.90286 0.98485 0.5529 0.0
C256 C 0.82703 0.04927 0.5326 0.0
C257 C 0.81707 0.09096 0.50368 0.0
C258 C 0.09105 0.9999 0.46304 0.0
C259 C 0.95361 0.02352 0.49719 0.0
C260 C 0.15886 0.96632 0.45964 0.0
C261 C 0.16713 0.92347 0.48751 0.0
C262 C 0.03072 0.99083 0.49457 0.0
C263 C 0.1094 0.91798 0.52031 0.0
C264 C 0.89487 0.01561 0.52946 0.0
C265 C 0.87312 0.09515 0.47026 0.0
N266 N 0.04313 0.95084 0.52269 0.0
N267 N 0.93952 0.06233 0.46818 0.0
H268 H 0.70597 0.19566 0.28674 0.0
H269 H 0.49893 0.35957 0.10638 0.0
H270 H 0.69991 0.35632 0.27973 0.0
H271 H 0.57593 0.20681 0.10063 0.0
H272 H 0.59862 0.36406 0.1624 0.0
H273 H 0.67726 0.2014 0.21459 0.0
C274 C 0.69841 0.23216 0.27003 0.0
C275 C 0.70339 0.27552 0.28944 0.0
C276 C 0.59553 0.32992 0.14821 0.0
C277 C 0.67139 0.28247 0.20666 0.0
C278 C 0.5389 0.32743 0.11594 0.0
C279 C 0.52536 0.28181 0.10039 0.0
C280 C 0.63783 0.2864 0.16492 0.0
C281 C 0.58128 0.24209 0.113 0.0
C282 C 0.68328 0.23548 0.22868 0.0
C283 C 0.69529 0.32188 0.26607 0.0
N284 N 0.63287 0.24467 0.1456 0.0
N285 N 0.67825 0.32411 0.22601 0.0
H286 H 0.71109 0.65572 0.20955 0.0
H287 H 0.57354 0.81571 0.38363 0.0
H288 H 0.70867 0.81651 0.20186 0.0
H289 H 0.50586 0.6606 0.3818 0.0
H290 H 0.6772 0.80863 0.32975 0.0
H291 H 0.68183 0.65182 0.28187 0.0
C292 C 0.70484 0.6902 0.22307 0.0
C293 C 0.71012 0.73657 0.19947 0.0
C294 C 0.64125 0.7758 0.34185 0.0
C295 C 0.67886 0.7322 0.28215 0.0
C296 C 0.58247 0.7796 0.37303 0.0
C297 C 0.52777 0.73927 0.38599 0.0
C298 C 0.64454 0.73159 0.32348 0.0
C299 C 0.54424 0.69324 0.37161 0.0
C300 C 0.68889 0.68787 0.26436 0.0
C301 C 0.70289 0.77998 0.21869 0.0
N302 N 0.59928 0.69101 0.34007 0.0
N303 N 0.68694 0.77671 0.25885 0.0
H304 H 0.2829 0.81653 0.7026 0.0
H305 H 0.49003 0.65347 0.88396 0.0
H306 H 0.29872 0.65615 0.70879 0.0
H307 H 0.41211 0.80627 0.88865 0.0
H308 H 0.39167 0.64847 0.82755 0.0
H309 H 0.30948 0.81074 0.77491 0.0
C310 C 0.29223 0.78009 0.71915 0.0
C311 C 0.29056 0.73685 0.69946 0.0
C312 C 0.39426 0.68274 0.84158 0.0
C313 C 0.32003 0.72983 0.78246 0.0
C314 C 0.45009 0.68551 0.8741 0.0
C315 C 0.46315 0.73132 0.88942 0.0
C316 C 0.35224 0.72614 0.82443 0.0
C317 C 0.40719 0.77087 0.87644 0.0
C318 C 0.30614 0.77671 0.7606 0.0
C319 C 0.30082 0.69053 0.72265 0.0
N320 N 0.35641 0.76801 0.84361 0.0
N321 N 0.31649 0.68829 0.76283 0.0
H322 H 0.28468 0.36291 0.78014 0.0
H323 H 0.40817 0.20775 0.60008 0.0
H324 H 0.28342 0.20232 0.78526 0.0
H325 H 0.48972 0.35963 0.60732 0.0
H326 H 0.30822 0.21435 0.65588 0.0
H327 H 0.31363 0.36837 0.70772 0.0
C328 C 0.2901 0.3288 0.76604 0.0
C329 C 0.28367 0.28202 0.78895 0.0
C330 C 0.34645 0.24663 0.64453 0.0
C331 C 0.3145 0.2882 0.7061 0.0
C332 C 0.40313 0.24309 0.61242 0.0
C333 C 0.46104 0.28227 0.60063 0.0
C334 C 0.34766 0.2897 0.66448 0.0
C335 C 0.44895 0.3277 0.61667 0.0
C336 C 0.3059 0.33202 0.72469 0.0
C337 C 0.28999 0.23913 0.76898 0.0
N338 N 0.39543 0.32972 0.64878 0.0
N339 N 0.30567 0.24326 0.72873 0.0
H340 H 0.21185 0.69921 0.28715 0.0
H341 H 0.00268 0.8601 0.10528 0.0
H342 H 0.19386 0.85958 0.28018 0.0
H343 H 0.08108 0.70717 0.10169 0.0
H344 H 0.10166 0.86598 0.16133 0.0
H345 H 0.18557 0.70432 0.21488 0.0
C346 C 0.20209 0.73552 0.27043 0.0
C347 C 0.203 0.77894 0.28989 0.0
C348 C 0.09904 0.8315 0.14762 0.0
C349 C 0.17383 0.78517 0.20691 0.0
C350 C 0.04284 0.8282 0.11531 0.0
C351 C 0.02976 0.78212 0.10043 0.0
C352 C 0.1414 0.78833 0.165 0.0
C353 C 0.08601 0.74278 0.11358 0.0
C354 C 0.18836 0.7385 0.229 0.0
C355 C 0.1923 0.82507 0.26649 0.0
N356 N 0.13717 0.74616 0.1462 0.0
N357 N 0.17675 0.82692 0.22632 0.0
H358 H -0.00298 0.15339 0.38101 0.0
H359 H 0.21042 0.31619 0.20131 0.0
H360 H 0.07792 0.30563 0.38682 0.0
H361 H 0.19679 0.15575 0.20736 0.0
H362 H 0.18224 0.31023 0.2735 0.0
H363 H 0.09728 0.14814 0.32522 0.0
C364 C 0.03793 0.18525 0.37151 0.0
C365 C 0.02538 0.231 0.38698 0.0
C366 C 0.18645 0.27621 0.25921 0.0
C367 C 0.13856 0.22551 0.32273 0.0
C368 C 0.20128 0.27968 0.21784 0.0
C369 C 0.20389 0.23649 0.19814 0.0
C370 C 0.1724 0.22926 0.28099 0.0
C371 C 0.19394 0.19008 0.22126 0.0
C372 C 0.09491 0.18231 0.33938 0.0
C373 C 0.0825 0.2703 0.37448 0.0
N374 N 0.17713 0.18773 0.26138 0.0
N375 N 0.13447 0.2673 0.34202 0.0
H376 H 0.98763 0.15735 0.88163 0.0
H377 H 0.77946 0.31903 0.70032 0.0
H378 H 0.9112 0.31049 0.88585 0.0
H379 H 0.78743 0.15833 0.70839 0.0
H380 H 0.80795 0.31416 0.77242 0.0
H381 H 0.88753 0.15204 0.82588 0.0
C382 C 0.94772 0.18942 0.87179 0.0
C383 C 0.9615 0.23535 0.88681 0.0
C384 C 0.80241 0.27987 0.75859 0.0
C385 C 0.84856 0.22979 0.8226 0.0
C386 C 0.7874 0.2827 0.71726 0.0
C387 C 0.78306 0.23908 0.69815 0.0
C388 C 0.81485 0.23313 0.7809 0.0
C389 C 0.79159 0.19296 0.72181 0.0
C390 C 0.89085 0.18645 0.83968 0.0
C391 C 0.90564 0.27496 0.87388 0.0
N392 N 0.80854 0.19121 0.76185 0.0
N393 N 0.85379 0.27189 0.84145 0.0
H394 H 0.98585 0.85601 0.60663 0.0
H395 H 0.77501 0.69487 0.78881 0.0
H396 H 0.92039 0.70034 0.60682 0.0
H397 H 0.79013 0.85543 0.78046 0.0
H398 H 0.80301 0.69913 0.71675 0.0
H399 H 0.88307 0.86138 0.66148 0.0
C400 C 0.94776 0.82334 0.61716 0.0
C401 C 0.9651 0.77699 0.60351 0.0
C402 C 0.79926 0.73356 0.73049 0.0
C403 C 0.84897 0.7827 0.66664 0.0
C404 C 0.78448 0.73105 0.77179 0.0
C405 C 0.78253 0.77477 0.79081 0.0
C406 C 0.81401 0.78006 0.7081 0.0
C407 C 0.79265 0.82073 0.76708 0.0
C408 C 0.88931 0.82638 0.64873 0.0
C409 C 0.91168 0.73647 0.61738 0.0
N410 N 0.80953 0.82214 0.72703 0.0
N411 N 0.85801 0.73983 0.64914 0.0
loop_
_geom_bond_atom_site_label_1
_geom_bond_atom_site_label_2
_geom_bond_distance
_geom_bond_site_symmetry_2
_ccdc_geom_bond_type
C0 O12 1.241 . S
C0 O13 1.280 . S
C1 O14 1.277 . S
C1 O15 1.245 . S
C2 O26 1.247 . S
C2 O28 1.289 1_556 S
Mg3 O4 1.926 . S
Mg3 O13 1.984 . S
Mg3 O15 1.988 . S
Mg3 O16 2.061 . S
O4 Mg3 1.926 . S
O4 Mg5 1.986 . S
O4 Mg6 1.939 . S
Mg5 O4 1.986 . S
Mg5 O12 2.042 . S
Mg5 O14 2.041 . S
Mg5 O20 2.038 . S
Mg5 O28 2.238 . S
Mg6 O4 1.939 . S
Mg6 O7 1.895 1_554 S
Mg6 O17 2.098 1_554 S
Mg6 O19 2.075 1_554 S
Mg6 O28 2.115 . S
Mg6 O29 2.083 . S
O7 Mg6 1.895 1_556 S
O7 Mg8 1.926 . S
O7 Mg9 1.986 . S
Mg8 O7 1.926 . S
Mg8 O22 1.984 . S
Mg8 O25 1.988 . S
Mg8 O26 2.061 . S
Mg9 O7 1.986 . S
Mg9 O17 2.238 . S
Mg9 O21 2.042 . S
Mg9 O23 2.041 . S
Mg9 O30 2.038 . S
C10 O16 1.247 . S
C10 O17 1.289 1_554 S
C11 O29 1.245 1_556 S
C11 O30 1.274 . S
O12 C0 1.241 . S
O12 Mg5 2.042 . S
O13 C0 1.280 . S
O13 Mg3 1.984 . S
O14 C1 1.277 . S
O14 Mg5 2.041 . S
O15 C1 1.245 . S
O15 Mg3 1.988 . S
O16 Mg3 2.061 . S
O16 C10 1.247 . S
O17 Mg6 2.098 1_556 S
O17 Mg9 2.238 . S
O17 C10 1.289 1_556 S
C18 O19 1.245 1_554 S
C18 O20 1.274 . S
O19 Mg6 2.075 1_556 S
O19 C18 1.245 1_556 S
O20 Mg5 2.038 . S
O20 C18 1.274 . S
O21 Mg9 2.042 . S
O21 C24 1.241 . S
O22 Mg8 1.984 . S
O22 C24 1.280 . S
O23 Mg9 2.041 . S
O23 C27 1.277 . S
C24 O21 1.241 . S
C24 O22 1.280 . S
O25 Mg8 1.988 . S
O25 C27 1.245 . S
O26 C2 1.247 . S
O26 Mg8 2.061 . S
C27 O23 1.277 . S
C27 O25 1.245 . S
O28 C2 1.289 1_554 S
O28 Mg5 2.238 . S
O28 Mg6 2.115 . S
O29 Mg6 2.083 . S
O29 C11 1.245 1_554 S
O30 Mg9 2.038 . S
O30 C11 1.274 . S
C31 O43 1.241 . S
C31 O44 1.280 . S
C32 O45 1.277 . S
C32 O46 1.245 . S
C33 O57 1.247 . S
C33 O59 1.289 1_556 S
Mg34 O35 1.926 . S
Mg34 O44 1.984 . S
Mg34 O46 1.988 . S
Mg34 O47 2.061 . S
O35 Mg34 1.926 . S
O35 Mg36 1.986 . S
O35 Mg37 1.939 . S
Mg36 O35 1.986 . S
Mg36 O43 2.042 . S
Mg36 O45 2.041 . S
Mg36 O51 2.038 . S
Mg36 O59 2.238 . S
Mg37 O35 1.939 . S
Mg37 O38 1.895 1_554 S
Mg37 O48 2.098 1_554 S
Mg37 O50 2.075 1_554 S
Mg37 O59 2.115 . S
Mg37 O60 2.083 . S
O38 Mg37 1.895 1_556 S
O38 Mg39 1.926 . S
O38 Mg40 1.986 . S
Mg39 O38 1.926 . S
Mg39 O53 1.984 . S
Mg39 O56 1.988 . S
Mg39 O57 2.061 . S
Mg40 O38 1.986 . S
Mg40 O48 2.238 . S
Mg40 O52 2.042 . S
Mg40 O54 2.041 . S
Mg40 O61 2.038 . S
C41 O47 1.247 . S
C41 O48 1.289 1_554 S
C42 O60 1.245 1_556 S
C42 O61 1.274 . S
O43 C31 1.241 . S
O43 Mg36 2.042 . S
O44 C31 1.280 . S
O44 Mg34 1.984 . S
O45 C32 1.277 . S
O45 Mg36 2.041 . S
O46 C32 1.245 . S
O46 Mg34 1.988 . S
O47 Mg34 2.061 . S
O47 C41 1.247 . S
O48 Mg37 2.098 1_556 S
O48 Mg40 2.238 . S
O48 C41 1.289 1_556 S
C49 O50 1.245 1_554 S
C49 O51 1.274 . S
O50 Mg37 2.075 1_556 S
O50 C49 1.245 1_556 S
O51 Mg36 2.038 . S
O51 C49 1.274 . S
O52 Mg40 2.042 . S
O52 C55 1.241 . S
O53 Mg39 1.984 . S
O53 C55 1.280 . S
O54 Mg40 2.041 . S
O54 C58 1.277 . S
C55 O52 1.241 . S
C55 O53 1.280 . S
O56 Mg39 1.988 . S
O56 C58 1.245 . S
O57 C33 1.247 . S
O57 Mg39 2.061 . S
C58 O54 1.277 . S
C58 O56 1.245 . S
O59 C33 1.289 1_554 S
O59 Mg36 2.238 . S
O59 Mg37 2.115 . S
O60 Mg37 2.083 . S
O60 C42 1.245 1_554 S
O61 Mg40 2.038 . S
O61 C42 1.274 . S
C62 O74 1.241 . S
C62 O75 1.280 . S
C63 O76 1.277 . S
C63 O77 1.245 . S
C64 O88 1.247 . S
C64 O90 1.289 . S
Mg65 O66 1.926 . S
Mg65 O75 1.984 . S
Mg65 O77 1.988 . S
Mg65 O78 2.061 . S
O66 Mg65 1.926 . S
O66 Mg67 1.986 . S
O66 Mg68 1.917 . S
Mg67 O66 1.986 . S
Mg67 O74 2.042 . S
Mg67 O76 2.041 . S
Mg67 O82 2.038 . S
Mg67 O90 2.238 . S
Mg68 O66 1.917 . S
Mg68 O69 1.917 . S
Mg68 O79 2.106 . S
Mg68 O81 2.079 . S
Mg68 O90 2.106 . S
Mg68 O91 2.079 . S
O69 Mg68 1.917 . S
O69 Mg70 1.926 . S
O69 Mg71 1.986 . S
Mg70 O69 1.926 . S
Mg70 O84 1.984 . S
Mg70 O87 1.988 . S
Mg70 O88 2.061 . S
Mg71 O69 1.986 . S
Mg71 O79 2.238 . S
Mg71 O83 2.042 . S
Mg71 O85 2.041 . S
Mg71 O92 2.038 . S
C72 O78 1.247 . S
C72 O79 1.289 . S
C73 O91 1.245 . S
C73 O92 1.274 . S
O74 C62 1.241 . S
O74 Mg67 2.042 . S
O75 C62 1.280 . S
O75 Mg65 1.984 . S
O76 C63 1.277 . S
O76 Mg67 2.041 . S
O77 C63 1.245 . S
O77 Mg65 1.988 . S
O78 Mg65 2.061 . S
O78 C72 1.247 . S
O79 Mg68 2.106 . S
O79 Mg71 2.238 . S
O79 C72 1.289 . S
C80 O81 1.245 . S
C80 O82 1.274 . S
O81 Mg68 2.079 . S
O81 C80 1.245 . S
O82 Mg67 2.038 . S
O82 C80 1.274 . S
O83 Mg71 2.042 . S
O83 C86 1.241 . S
O84 Mg70 1.984 . S
O84 C86 1.280 . S
O85 Mg71 2.041 . S
O85 C89 1.277 . S
C86 O83 1.241 . S
C86 O84 1.280 . S
O87 Mg70 1.988 . S
O87 C89 1.245 . S
O88 C64 1.247 . S
O88 Mg70 2.061 . S
C89 O85 1.277 . S
C89 O87 1.245 . S
O90 C64 1.289 . S
O90 Mg67 2.238 . S
O90 Mg68 2.106 . S
O91 Mg68 2.079 . S
O91 C73 1.245 . S
O92 Mg71 2.038 . S
O92 C73 1.274 . S
C93 O105 1.241 . S
C93 O106 1.280 . S
C94 O107 1.277 . S
C94 O108 1.245 . S
C95 O119 1.247 . S
C95 O121 1.289 . S
Mg96 O97 1.926 . S
Mg96 O106 1.984 . S
Mg96 O108 1.988 . S
Mg96 O109 2.061 . S
O97 Mg96 1.926 . S
O97 Mg98 1.986 . S
O97 Mg99 1.917 . S
Mg98 O97 1.986 . S
Mg98 O105 2.042 . S
Mg98 O107 2.041 . S
Mg98 O113 2.038 . S
Mg98 O121 2.238 . S
Mg99 O97 1.917 . S
Mg99 O100 1.917 . S
Mg99 O110 2.106 . S
Mg99 O112 2.079 . S
Mg99 O121 2.106 . S
Mg99 O122 2.079 . S
O100 Mg99 1.917 . S
O100 Mg101 1.926 . S
O100 Mg102 1.986 . S
Mg101 O100 1.926 . S
Mg101 O115 1.984 . S
Mg101 O118 1.988 . S
Mg101 O119 2.061 . S
Mg102 O100 1.986 . S
Mg102 O110 2.238 . S
Mg102 O114 2.042 . S
Mg102 O116 2.041 . S
Mg102 O123 2.038 . S
C103 O109 1.247 . S
C103 O110 1.289 . S
C104 O122 1.245 . S
C104 O123 1.274 . S
O105 C93 1.241 . S
O105 Mg98 2.042 . S
O106 C93 1.280 . S
O106 Mg96 1.984 . S
O107 C94 1.277 . S
O107 Mg98 2.041 . S
O108 C94 1.245 . S
O108 Mg96 1.988 . S
O109 Mg96 2.061 . S
O109 C103 1.247 . S
O110 Mg99 2.106 . S
O110 Mg102 2.238 . S
O110 C103 1.289 . S
C111 O112 1.245 . S
C111 O113 1.274 . S
O112 Mg99 2.079 . S
O112 C111 1.245 . S
O113 Mg98 2.038 . S
O113 C111 1.274 . S
O114 Mg102 2.042 . S
O114 C117 1.241 . S
O115 Mg101 1.984 . S
O115 C117 1.280 . S
O116 Mg102 2.041 . S
O116 C120 1.277 . S
C117 O114 1.241 . S
C117 O115 1.280 . S
O118 Mg101 1.988 . S
O118 C120 1.245 . S
O119 C95 1.247 . S
O119 Mg101 2.061 . S
C120 O116 1.277 . S
C120 O118 1.245 . S
O121 C95 1.289 . S
O121 Mg98 2.238 . S
O121 Mg99 2.106 . S
O122 Mg99 2.079 . S
O122 C104 1.245 . S
O123 Mg102 2.038 . S
O123 C104 1.274 . S
H124 C130 0.930 . S
H125 C134 0.930 . S
H126 C139 0.929 . S
H127 C137 0.929 . S
H128 C132 0.929 . S
H129 C138 0.929 . S
C130 H124 0.930 . S
C130 C131 1.367 . S
C130 C138 1.378 . S
C131 C130 1.367 . S
C131 C139 1.433 1_556 S
C132 H128 0.929 . S
C132 C134 1.378 . S
C132 C136 1.350 . S
C133 C136 1.463 1_556 S
C133 C138 1.350 . S
C133 N141 1.428 1_556 S
C134 H125 0.930 . S
C134 C132 1.378 . S
C134 C135 1.367 . S
C135 C134 1.367 . S
C135 C137 1.433 1_554 S
C136 C132 1.350 . S
C136 C133 1.463 1_554 S
C136 N140 1.427 1_554 S
C137 H127 0.929 . S
C137 C135 1.433 1_556 S
C137 N140 1.384 . S
C138 H129 0.929 . S
C138 C130 1.378 . S
C138 C133 1.350 . S
C139 H126 0.929 . S
C139 C131 1.433 1_554 S
C139 N141 1.384 . S
N140 C136 1.427 1_556 S
N140 C137 1.384 . S
N141 C133 1.428 1_554 S
N141 C139 1.384 . S
H142 C148 0.930 . S
H143 C152 0.930 . S
H144 C157 0.929 . S
H145 C155 0.929 . S
H146 C150 0.929 . S
H147 C156 0.929 . S
C148 H142 0.930 . S
C148 C149 1.367 . S
C148 C156 1.378 . S
C149 C148 1.367 . S
C149 C157 1.433 1_556 S
C150 H146 0.929 . S
C150 C152 1.378 . S
C150 C154 1.350 . S
C151 C154 1.461 1_556 S
C151 C156 1.368 . S
C151 N159 1.410 1_556 S
C152 H143 0.930 . S
C152 C150 1.378 . S
C152 C153 1.367 . S
C153 C152 1.367 . S
C153 C155 1.433 1_554 S
C154 C150 1.350 . S
C154 C151 1.461 1_554 S
C154 N158 1.427 1_554 S
C155 H145 0.929 . S
C155 C153 1.433 1_556 S
C155 N158 1.384 . S
C156 H147 0.929 . S
C156 C148 1.378 . S
C156 C151 1.368 . S
C157 H144 0.929 . S
C157 C149 1.433 1_554 S
C157 N159 1.384 . S
N158 C154 1.427 1_556 S
N158 C155 1.384 . S
N159 C151 1.410 1_554 S
N159 C157 1.384 . S
H160 C166 0.930 . S
H161 C170 0.930 . S
H162 C175 0.929 . S
H163 C173 0.929 . S
H164 C168 0.929 . S
H165 C174 0.929 . S
C166 H160 0.930 . S
C166 C167 1.367 . S
C166 C174 1.378 . S
C167 C166 1.367 . S
C167 C175 1.433 . S
C168 H164 0.929 . S
C168 C170 1.378 . S
C168 C172 1.350 . S
C169 C172 1.463 . S
C169 C174 1.350 . S
C169 N177 1.427 . S
C170 H161 0.930 . S
C170 C168 1.378 . S
C170 C171 1.367 . S
C171 C170 1.367 . S
C171 C173 1.433 . S
C172 C168 1.350 . S
C172 C169 1.463 . S
C172 N176 1.427 . S
C173 H163 0.929 . S
C173 C171 1.433 . S
C173 N176 1.384 . S
C174 H165 0.929 . S
C174 C166 1.378 . S
C174 C169 1.350 . S
C175 H162 0.929 . S
C175 C167 1.433 . S
C175 N177 1.384 . S
N176 C172 1.427 . S
N176 C173 1.384 . S
N177 C169 1.427 . S
N177 C175 1.384 . S
H178 C184 0.930 . S
H179 C188 0.930 . S
H180 C193 0.929 . S
H181 C191 0.929 . S
H182 C186 0.929 . S
H183 C192 0.929 . S
C184 H178 0.930 . S
C184 C185 1.367 . S
C184 C192 1.378 . S
C185 C184 1.367 . S
C185 C193 1.433 . S
C186 H182 0.929 . S
C186 C188 1.378 . S
C186 C190 1.350 . S
C187 C190 1.463 . S
C187 C192 1.350 . S
C187 N195 1.427 . S
C188 H179 0.930 . S
C188 C186 1.378 . S
C188 C189 1.367 . S
C189 C188 1.367 . S
C189 C191 1.433 . S
C190 C186 1.350 . S
C190 C187 1.463 . S
C190 N194 1.427 . S
C191 H181 0.929 . S
C191 C189 1.433 . S
C191 N194 1.384 . S
C192 H183 0.929 . S
C192 C184 1.378 . S
C192 C187 1.350 . S
C193 H180 0.929 . S
C193 C185 1.433 . S
C193 N195 1.384 . S
N194 C190 1.427 . S
N194 C191 1.384 . S
N195 C187 1.427 . S
N195 C193 1.384 . S
H196 C202 0.930 . S
H197 C206 0.930 . S
H198 C211 0.929 . S
H199 C209 0.929 . S
H200 C204 0.929 . S
H201 C210 0.929 . S
C202 H196 0.930 . S
C202 C203 1.369 1_556 S
C202 C210 1.378 . S
C203 C202 1.369 1_554 S
C203 C211 1.431 . S
C204 H200 0.929 . S
C204 C206 1.378 . S
C204 C208 1.350 . S
C205 C208 1.463 1_556 S
C205 C210 1.356 . S
C205 N213 1.420 1_556 S
C206 H197 0.930 . S
C206 C204 1.378 . S
C206 C207 1.367 . S
C207 C206 1.367 . S
C207 C209 1.433 1_554 S
C208 C204 1.350 . S
C208 C205 1.463 1_554 S
C208 N212 1.427 1_554 S
C209 H199 0.929 . S
C209 C207 1.433 1_556 S
C209 N212 1.384 . S
C210 H201 0.929 . S
C210 C202 1.378 . S
C210 C205 1.356 . S
C211 H198 0.929 . S
C211 C203 1.431 . S
C211 N213 1.384 . S
N212 C208 1.427 1_556 S
N212 C209 1.384 . S
N213 C205 1.420 1_554 S
N213 C211 1.384 . S
H214 C220 0.930 . S
H215 C224 0.930 . S
H216 C229 0.929 . S
H217 C227 0.929 . S
H218 C222 0.929 . S
H219 C228 0.929 . S
C220 H214 0.930 . S
C220 C221 1.367 . S
C220 C228 1.378 . S
C221 C220 1.367 . S
C221 C229 1.433 . S
C222 H218 0.929 . S
C222 C224 1.378 . S
C222 C226 1.350 . S
C223 C226 1.463 . S
C223 C228 1.350 . S
C223 N231 1.427 . S
C224 H215 0.930 . S
C224 C222 1.378 . S
C224 C225 1.367 . S
C225 C224 1.367 . S
C225 C227 1.433 . S
C226 C222 1.350 . S
C226 C223 1.463 . S
C226 N230 1.427 . S
C227 H217 0.929 . S
C227 C225 1.433 . S
C227 N230 1.384 . S
C228 H219 0.929 . S
C228 C220 1.378 . S
C228 C223 1.350 . S
C229 H216 0.929 . S
C229 C221 1.433 . S
C229 N231 1.384 . S
N230 C226 1.427 . S
N230 C227 1.384 . S
N231 C223 1.427 . S
N231 C229 1.384 . S
H232 C238 0.930 . S
H233 C242 0.930 . S
H234 C247 0.929 . S
H235 C245 0.929 . S
H236 C240 0.929 . S
H237 C246 0.929 . S
C238 H232 0.930 . S
C238 C239 1.370 . S
C238 C246 1.378 1_455 S
C239 C238 1.370 . S
C239 C247 1.429 1_554 S
C240 H236 0.929 . S
C240 C242 1.378 1_455 S
C240 C244 1.347 1_456 S
C241 C244 1.462 1_445 S
C241 C246 1.355 1_455 S
C241 N249 1.424 1_554 S
C242 H233 0.930 . S
C242 C240 1.378 1_655 S
C242 C243 1.364 1_556 S
C243 C242 1.364 1_554 S
C243 C245 1.437 . S
C244 C240 1.347 1_654 S
C244 C241 1.462 1_665 S
C244 N248 1.430 . S
C245 H235 0.929 . S
C245 C243 1.437 . S
C245 N248 1.384 . S
C246 H237 0.929 . S
C246 C238 1.378 1_655 S
C246 C241 1.355 1_655 S
C247 H234 0.929 . S
C247 C239 1.429 1_556 S
C247 N249 1.384 . S
N248 C244 1.430 . S
N248 C245 1.384 . S
N249 C241 1.424 1_556 S
N249 C247 1.384 . S
H250 C256 0.930 . S
H251 C260 0.930 . S
H252 C265 0.929 . S
H253 C263 0.929 . S
H254 C258 0.929 1_655 S
H255 C264 0.929 1_455 S
C256 H250 0.930 . S
C256 C257 1.367 . S
C256 C264 1.378 . S
C257 C256 1.367 . S
C257 C265 1.433 . S
C258 H254 0.929 1_455 S
C258 C260 1.378 . S
C258 C262 1.350 . S
C259 C262 1.463 1_645 S
C259 C264 1.350 . S
C259 N267 1.427 . S
C260 H251 0.930 . S
C260 C258 1.378 . S
C260 C261 1.367 . S
C261 C260 1.367 . S
C261 C263 1.433 . S
C262 C258 1.350 . S
C262 C259 1.463 1_465 S
C262 N266 1.427 . S
C263 H253 0.929 . S
C263 C261 1.433 . S
C263 N266 1.384 . S
C264 H255 0.929 1_655 S
C264 C256 1.378 . S
C264 C259 1.350 . S
C265 H252 0.929 . S
C265 C257 1.433 . S
C265 N267 1.384 . S
N266 C262 1.427 . S
N266 C263 1.384 . S
N267 C259 1.427 . S
N267 C265 1.384 . S
H268 C274 0.930 . S
H269 C278 0.930 . S
H270 C283 0.929 . S
H271 C281 0.929 . S
H272 C276 0.929 . S
H273 C282 0.929 . S
C274 H268 0.930 . S
C274 C275 1.367 . S
C274 C282 1.378 . S
C275 C274 1.367 . S
C275 C283 1.433 . S
C276 H272 0.929 . S
C276 C278 1.378 . S
C276 C280 1.350 . S
C277 C280 1.463 . S
C277 C282 1.350 . S
C277 N285 1.427 . S
C278 H269 0.930 . S
C278 C276 1.378 . S
C278 C279 1.367 . S
C279 C278 1.367 . S
C279 C281 1.433 . S
C280 C276 1.350 . S
C280 C277 1.463 . S
C280 N284 1.427 . S
C281 H271 0.929 . S
C281 C279 1.433 . S
C281 N284 1.384 . S
C282 H273 0.929 . S
C282 C274 1.378 . S
C282 C277 1.350 . S
C283 H270 0.929 . S
C283 C275 1.433 . S
C283 N285 1.384 . S
N284 C280 1.427 . S
N284 C281 1.384 . S
N285 C277 1.427 . S
N285 C283 1.384 . S
H286 C292 0.930 . S
H287 C296 0.930 . S
H288 C301 0.929 . S
H289 C299 0.929 . S
H290 C294 0.929 . S
H291 C300 0.929 . S
C292 H286 0.930 . S
C292 C293 1.367 . S
C292 C300 1.378 . S
C293 C292 1.367 . S
C293 C301 1.433 . S
C294 H290 0.929 . S
C294 C296 1.378 . S
C294 C298 1.350 . S
C295 C298 1.463 . S
C295 C300 1.350 . S
C295 N303 1.427 . S
C296 H287 0.930 . S
C296 C294 1.378 . S
C296 C297 1.367 . S
C297 C296 1.367 . S
C297 C299 1.433 . S
C298 C294 1.350 . S
C298 C295 1.463 . S
C298 N302 1.427 . S
C299 H289 0.929 . S
C299 C297 1.433 . S
C299 N302 1.384 . S
C300 H291 0.929 . S
C300 C292 1.378 . S
C300 C295 1.350 . S
C301 H288 0.929 . S
C301 C293 1.433 . S
C301 N303 1.384 . S
N302 C298 1.427 . S
N302 C299 1.384 . S
N303 C295 1.427 . S
N303 C301 1.384 . S
H304 C310 0.930 . S
H305 C314 0.930 . S
H306 C319 0.929 . S
H307 C317 0.929 . S
H308 C312 0.929 . S
H309 C318 0.929 . S
C310 H304 0.930 . S
C310 C311 1.367 . S
C310 C318 1.378 . S
C311 C310 1.367 . S
C311 C319 1.433 . S
C312 H308 0.929 . S
C312 C314 1.378 . S
C312 C316 1.350 . S
C313 C316 1.463 . S
C313 C318 1.350 . S
C313 N321 1.427 . S
C314 H305 0.930 . S
C314 C312 1.378 . S
C314 C315 1.367 . S
C315 C314 1.367 . S
C315 C317 1.433 . S
C316 C312 1.350 . S
C316 C313 1.463 . S
C316 N320 1.427 . S
C317 H307 0.929 . S
C317 C315 1.433 . S
C317 N320 1.384 . S
C318 H309 0.929 . S
C318 C310 1.378 . S
C318 C313 1.350 . S
C319 H306 0.929 . S
C319 C311 1.433 . S
C319 N321 1.384 . S
N320 C316 1.427 . S
N320 C317 1.384 . S
N321 C313 1.427 . S
N321 C319 1.384 . S
H322 C328 0.930 . S
H323 C332 0.930 . S
H324 C337 0.929 . S
H325 C335 0.929 . S
H326 C330 0.929 . S
H327 C336 0.929 . S
C328 H322 0.930 . S
C328 C329 1.367 . S
C328 C336 1.378 . S
C329 C328 1.367 . S
C329 C337 1.433 . S
C330 H326 0.929 . S
C330 C332 1.378 . S
C330 C334 1.350 . S
C331 C334 1.463 . S
C331 C336 1.350 . S
C331 N339 1.427 . S
C332 H323 0.930 . S
C332 C330 1.378 . S
C332 C333 1.367 . S
C333 C332 1.367 . S
C333 C335 1.433 . S
C334 C330 1.350 . S
C334 C331 1.463 . S
C334 N338 1.427 . S
C335 H325 0.929 . S
C335 C333 1.433 . S
C335 N338 1.384 . S
C336 H327 0.929 . S
C336 C328 1.378 . S
C336 C331 1.350 . S
C337 H324 0.929 . S
C337 C329 1.433 . S
C337 N339 1.384 . S
N338 C334 1.427 . S
N338 C335 1.384 . S
N339 C331 1.427 . S
N339 C337 1.384 . S
H340 C346 0.933 . S
H341 C350 0.930 . S
H342 C355 0.929 . S
H343 C353 0.929 . S
H344 C348 0.929 . S
H345 C354 0.929 . S
C346 H340 0.933 . S
C346 C347 1.362 1_655 S
C346 C354 1.380 . S
C347 C346 1.362 1_455 S
C347 C355 1.433 . S
C348 H344 0.929 . S
C348 C350 1.378 1_455 S
C348 C352 1.350 1_455 S
C349 C352 1.463 . S
C349 C354 1.351 . S
C349 N357 1.426 1_655 S
C350 H341 0.930 . S
C350 C348 1.378 1_655 S
C350 C351 1.367 . S
C351 C350 1.367 . S
C351 C353 1.433 . S
C352 C348 1.350 1_655 S
C352 C349 1.463 . S
C352 N356 1.427 . S
C353 H343 0.929 . S
C353 C351 1.433 . S
C353 N356 1.384 . S
C354 H345 0.929 . S
C354 C346 1.380 . S
C354 C349 1.351 . S
C355 H342 0.929 . S
C355 C347 1.433 . S
C355 N357 1.384 . S
N356 C352 1.427 . S
N356 C353 1.384 . S
N357 C349 1.426 1_455 S
N357 C355 1.384 . S
H358 C364 0.930 . S
H359 C368 0.930 . S
H360 C373 0.929 . S
H361 C371 0.929 . S
H362 C366 0.929 . S
H363 C372 0.929 . S
C364 H358 0.930 . S
C364 C365 1.367 . S
C364 C372 1.378 . S
C365 C364 1.367 . S
C365 C373 1.433 . S
C366 H362 0.929 . S
C366 C368 1.378 . S
C366 C370 1.350 . S
C367 C370 1.463 1_655 S
C367 C372 1.350 . S
C367 N375 1.427 1_655 S
C368 H359 0.930 . S
C368 C366 1.378 . S
C368 C369 1.367 . S
C369 C368 1.367 . S
C369 C371 1.433 1_455 S
C370 C366 1.350 . S
C370 C367 1.463 1_455 S
C370 N374 1.427 1_455 S
C371 H361 0.929 . S
C371 C369 1.433 1_655 S
C371 N374 1.384 . S
C372 H363 0.929 . S
C372 C364 1.378 . S
C372 C367 1.350 . S
C373 H360 0.929 . S
C373 C365 1.433 . S
C373 N375 1.384 1_655 S
N374 C370 1.427 1_655 S
N374 C371 1.384 . S
N375 C367 1.427 1_455 S
N375 C373 1.384 1_455 S
H376 C382 0.930 . S
H377 C386 0.930 . S
H378 C391 0.929 1_655 S
H379 C389 0.929 . S
H380 C384 0.929 . S
H381 C390 0.929 . S
C382 H376 0.930 . S
C382 C383 1.367 . S
C382 C390 1.378 . S
C383 C382 1.367 . S
C383 C391 1.433 . S
C384 H380 0.929 . S
C384 C386 1.378 . S
C384 C388 1.350 . S
C385 C388 1.463 1_455 S
C385 C390 1.350 . S
C385 N393 1.427 1_455 S
C386 H377 0.930 . S
C386 C384 1.378 . S
C386 C387 1.367 . S
C387 C386 1.367 . S
C387 C389 1.433 1_655 S
C388 C384 1.350 . S
C388 C385 1.463 1_655 S
C388 N392 1.427 1_655 S
C389 H379 0.929 . S
C389 C387 1.433 1_455 S
C389 N392 1.384 . S
C390 H381 0.929 . S
C390 C382 1.378 . S
C390 C385 1.350 . S
C391 H378 0.929 1_455 S
C391 C383 1.433 . S
C391 N393 1.384 1_455 S
N392 C388 1.427 1_455 S
N392 C389 1.384 . S
N393 C385 1.427 1_655 S
N393 C391 1.384 1_655 S
H394 C400 0.930 . S
H395 C404 0.930 . S
H396 C409 0.929 . S
H397 C407 0.929 . S
H398 C402 0.929 . S
H399 C408 0.929 . S
C400 H394 0.930 . S
C400 C401 1.367 . S
C400 C408 1.378 1_455 S
C401 C400 1.367 . S
C401 C409 1.433 . S
C402 H398 0.929 . S
C402 C404 1.378 . S
C402 C406 1.351 . S
C403 C406 1.464 . S
C403 C408 1.350 1_455 S
C403 N411 1.427 . S
C404 H395 0.930 . S
C404 C402 1.378 . S
C404 C405 1.367 1_455 S
C405 C404 1.367 1_655 S
C405 C407 1.433 . S
C406 C402 1.351 . S
C406 C403 1.464 . S
C406 N410 1.425 1_455 S
C407 H397 0.929 . S
C407 C405 1.433 . S
C407 N410 1.384 . S
C408 H399 0.929 . S
C408 C400 1.378 1_655 S
C408 C403 1.350 1_655 S
C409 H396 0.929 . S
C409 C401 1.433 . S
C409 N411 1.384 . S
N410 C406 1.425 1_655 S
N410 C407 1.384 . S
N411 C403 1.427 . S
N411 C409 1.384 . S
C131 C11 1.540 . S
C135 C18 1.540 1_655 S
C149 C42 1.542 1_455 S
C153 C49 1.542 . S
C167 C73 1.540 . S
C171 C80 1.540 1_655 S
C185 C104 1.549 1_455 S
C189 C111 1.549 . S
C203 C41 1.600 . S
C207 C2 1.601 1_554 S
C221 C103 1.593 . S
C225 C64 1.593 . S
C239 C10 1.602 . S
C243 C33 1.592 1_554 S
C257 C95 1.593 . S
C261 C72 1.593 . S
C275 C93 1.116 . S
C279 C1 1.134 . S
C293 C31 1.120 . S
C297 C63 1.123 . S
C311 C86 1.135 . S
C315 C58 1.147 . S
C329 C24 1.131 . S
C333 C120 1.132 . S
C347 C62 1.129 . S
C351 C32 1.145 . S
C365 C94 1.131 . S
C369 C0 1.113 . S
C383 C27 1.130 . S
C387 C117 1.112 . S
C401 C89 1.145 . S
C405 C55 1.129 . S
