# Generated by pormake.
# Topology hcp, (12)-cn, num edge types: 1
# Building blocks:
#     Node 0, Type 0, BuildingBlock: ZALLEG_clean_sbu_0, # of connection points: 12
#     Node 1, Type 0, BuildingBlock: ZALLEG_clean_sbu_0, # of connection points: 12
#     Edge 2, Type (0, 0), BuildingBlock: ZUJKAS_clean_linker_0, # of connection points: 2
#     Edge 3, Type (0, 0), BuildingBlock: ZUJKAS_clean_linker_0, # of connection points: 2
#     Edge 4, Type (0, 0), BuildingBlock: ZUJKAS_clean_linker_0, # of connection points: 2
#     Edge 5, Type (0, 0), BuildingBlock: ZUJKAS_clean_linker_0, # of connection points: 2
#     Edge 6, Type (0, 0), BuildingBlock: ZUJKAS_clean_linker_0, # of connection points: 2
#     Edge 7, Type (0, 0), BuildingBlock: ZUJKAS_clean_linker_0, # of connection points: 2
#     Edge 8, Type (0, 0), BuildingBlock: ZUJKAS_clean_linker_0, # of connection points: 2
#     Edge 9, Type (0, 0), BuildingBlock: ZUJKAS_clean_linker_0, # of connection points: 2
#     Edge 10, Type (0, 0), BuildingBlock: ZUJKAS_clean_linker_0, # of connection points: 2
#     Edge 11, Type (0, 0), BuildingBlock: ZUJKAS_clean_linker_0, # of connection points: 2
#     Edge 12, Type (0, 0), BuildingBlock: ZUJKAS_clean_linker_0, # of connection points: 2
#     Edge 13, Type (0, 0), BuildingBlock: ZUJKAS_clean_linker_0, # of connection points: 2
# Relax obj value: 0.186
# Max RMSD: 0.270
# Mean RMSD: 0.270
data_MOF--net-hcp--node1-ZALLEG_clean_sbu_0--edge1-ZUJKAS_clean_linker_0
_symmetry_space_group_name_H-M    P1
_symmetry_Int_Tables_number       1
_symmetry_cell_setting            triclinic
loop_
_symmetry_equiv_pos_as_xyz
'x, y, z'
_cell_length_a     23.053677
_cell_length_b     23.076749
_cell_length_c     35.578771
_cell_angle_alpha  90.002445
_cell_angle_beta   90.127884
_cell_angle_gamma 119.94013
loop_
_atom_site_label
_atom_site_type_symbol
_atom_site_fract_x
_atom_site_fract_y
_atom_site_fract_z
_atom_type_partial_charge
H0 H 0.58457 0.17572 0.26221 0.0
O1 O 0.60621 0.22231 0.27133 0.0
Tb2 Tb 0.55616 0.27167 0.25112 0.0
Tb3 Tb 0.60902 0.22427 0.33048 0.0
Tb4 Tb 0.70431 0.27457 0.25199 0.0
O5 O 0.5534 0.26812 0.3106 0.0
O6 O 0.65419 0.32205 0.22989 0.0
O7 O 0.60171 0.36935 0.2712 0.0
O8 O 0.65325 0.32179 0.35129 0.0
O9 O 0.7534 0.37392 0.27194 0.0
O10 O 0.70749 0.27555 0.3114 0.0
H11 H 0.5071 0.24364 0.32023 0.0
H12 H 0.65454 0.32224 0.2021 0.0
Tb13 Tb 0.60011 0.36618 0.33032 0.0
Tb14 Tb 0.7014 0.41962 0.25182 0.0
H15 H 0.57675 0.39102 0.26205 0.0
H16 H 0.65312 0.32179 0.379 0.0
Tb17 Tb 0.75107 0.37506 0.33104 0.0
H18 H 0.80009 0.39893 0.26304 0.0
H19 H 0.73204 0.25381 0.3212 0.0
O20 O 0.69986 0.42204 0.31122 0.0
H21 H 0.72142 0.46829 0.32096 0.0
O22 O 0.47431 0.17067 0.26304 0.0
O23 O 0.83296 0.476 0.32011 0.0
O24 O 0.76638 0.32753 0.37927 0.0
O25 O 0.54527 0.32861 0.20315 0.0
O26 O 0.6282 0.14241 0.31939 0.0
O27 O 0.68164 0.50112 0.26355 0.0
O28 O 0.76971 0.43105 0.20416 0.0
O29 O 0.54567 0.20846 0.37849 0.0
O30 O 0.64856 0.20694 0.20393 0.0
O31 O 0.64697 0.42923 0.37858 0.0
O32 O 0.49909 0.34678 0.31876 0.0
O33 O 0.80534 0.29415 0.26424 0.0
O34 O 0.5106 0.13769 0.31784 0.0
O35 O 0.79878 0.50702 0.26412 0.0
O36 O 0.64989 0.42999 0.20318 0.0
O37 O 0.66443 0.22331 0.38249 0.0
O38 O 0.46848 0.2816 0.26278 0.0
O39 O 0.83831 0.36388 0.31881 0.0
O40 O 0.7513 0.43155 0.38275 0.0
O41 O 0.54704 0.21038 0.20229 0.0
O42 O 0.5436 0.31052 0.38207 0.0
O43 O 0.76672 0.3265 0.2037 0.0
O44 O 0.69438 0.17711 0.26394 0.0
O45 O 0.61126 0.4644 0.31772 0.0
C46 C 0.46655 0.12728 0.29031 0.0
C47 C 0.84185 0.51849 0.29223 0.0
C48 C 0.72557 0.26914 0.39549 0.0
C49 C 0.58845 0.38993 0.18953 0.0
C50 C 0.66229 0.13375 0.29171 0.0
C51 C 0.64504 0.50846 0.29035 0.0
C52 C 0.78804 0.38805 0.19039 0.0
C53 C 0.52817 0.2493 0.39487 0.0
C54 C 0.58785 0.18935 0.18943 0.0
C55 C 0.70521 0.44688 0.39525 0.0
C56 C 0.45676 0.31309 0.29077 0.0
C57 C 0.84894 0.33044 0.29132 0.0
H58 H 0.17421 0.58594 0.7636 0.0
O59 O 0.22087 0.60848 0.77276 0.0
Tb60 Tb 0.22262 0.61146 0.83188 0.0
Tb61 Tb 0.27194 0.56 0.75312 0.0
Tb62 Tb 0.27157 0.70639 0.75302 0.0
O63 O 0.26821 0.55731 0.81253 0.0
O64 O 0.27225 0.70967 0.81248 0.0
O65 O 0.32013 0.65749 0.85294 0.0
O66 O 0.36975 0.60723 0.77328 0.0
O67 O 0.37085 0.75721 0.77328 0.0
O68 O 0.32072 0.65769 0.73148 0.0
H69 H 0.24451 0.51106 0.82225 0.0
H70 H 0.24959 0.73334 0.82217 0.0
Tb71 Tb 0.36631 0.6059 0.8324 0.0
Tb72 Tb 0.37177 0.75515 0.83245 0.0
H73 H 0.32 0.65745 0.88065 0.0
H74 H 0.3924 0.58315 0.76429 0.0
Tb75 Tb 0.41826 0.70662 0.75362 0.0
H76 H 0.395 0.80384 0.76425 0.0
H77 H 0.32088 0.65772 0.70368 0.0
O78 O 0.42049 0.70556 0.81304 0.0
H79 H 0.46675 0.72813 0.82292 0.0
O80 O 0.13722 0.51245 0.81938 0.0
O81 O 0.50429 0.8048 0.76573 0.0
O82 O 0.43009 0.65543 0.70532 0.0
O83 O 0.21994 0.666 0.88364 0.0
O84 O 0.20934 0.54865 0.70461 0.0
O85 O 0.42869 0.75695 0.88443 0.0
O86 O 0.35803 0.84056 0.82002 0.0
O87 O 0.28426 0.47398 0.76501 0.0
O88 O 0.17324 0.69433 0.7647 0.0
O89 O 0.46556 0.6196 0.8204 0.0
O90 O 0.31125 0.54906 0.88415 0.0
O91 O 0.32306 0.7689 0.70459 0.0
O92 O 0.17164 0.47674 0.76505 0.0
O93 O 0.47208 0.83839 0.82142 0.0
O94 O 0.32289 0.76925 0.88053 0.0
O95 O 0.32936 0.5503 0.70513 0.0
O96 O 0.20793 0.54874 0.88009 0.0
O97 O 0.42864 0.77383 0.70557 0.0
O98 O 0.5014 0.6896 0.76605 0.0
O99 O 0.13956 0.62864 0.8204 0.0
O100 O 0.34945 0.50576 0.82105 0.0
O101 O 0.28862 0.8066 0.76522 0.0
O102 O 0.20463 0.64928 0.70477 0.0
O103 O 0.42888 0.65394 0.8807 0.0
C104 C 0.12776 0.46842 0.79211 0.0
C105 C 0.51487 0.84788 0.79361 0.0
C106 C 0.39063 0.59395 0.69161 0.0
C107 C 0.26466 0.72743 0.89665 0.0
C108 C 0.18728 0.58818 0.69101 0.0
C109 C 0.44528 0.71191 0.89719 0.0
C110 C 0.32385 0.85024 0.79253 0.0
C111 C 0.31651 0.46322 0.79301 0.0
C112 C 0.13017 0.66198 0.79253 0.0
C113 C 0.50963 0.6541 0.79322 0.0
C114 C 0.24959 0.53247 0.89675 0.0
C115 C 0.38488 0.79093 0.69143 0.0
H116 H 0.26808 0.67483 0.96418 0.0
H117 H 0.31354 0.74164 1.02166 0.0
H118 H 0.29981 0.90349 0.97025 0.0
H119 H 0.25649 0.83761 0.91267 0.0
H120 H 0.44013 0.87209 1.01293 0.0
H121 H 0.23943 0.89867 0.08248 0.0
H122 H 0.22219 0.82818 0.05283 0.0
H123 H 0.24322 0.90723 1.03215 0.0
C124 C 0.27109 0.72308 0.96601 0.0
C125 C 0.25749 0.75045 0.93418 0.0
C126 C 0.29816 0.76175 0.99867 0.0
C127 C 0.31034 0.8278 1.00033 0.0
C128 C 0.29027 0.85252 0.9699 0.0
H129 H 0.51138 0.18784 0.13096 0.0
H130 H 0.44821 0.09751 0.08626 0.0
C131 C 0.26451 0.81441 0.93711 0.0
C132 C 0.35225 0.87432 1.03091 0.0
H133 H 0.35139 0.97682 0.09992 0.0
C134 C 0.42069 0.89441 1.03238 0.0
C135 C 0.32705 0.90386 0.05597 0.0
C136 C 0.25384 0.88321 0.05616 0.0
C137 C 0.46511 0.94541 0.05696 0.0
C138 C 0.44018 0.97608 0.08168 0.0
C139 C 0.37109 0.95402 0.08099 0.0
C140 C 0.48462 0.0333 0.10708 0.0
C141 C 0.53877 0.96812 0.05468 0.0
C142 C 0.5281 0.02888 0.1334 0.0
C143 C 0.56588 0.08173 0.15857 0.0
C144 C 0.55979 0.13941 0.15847 0.0
C145 C 0.51751 0.14425 0.13164 0.0
C146 C 0.48086 0.09223 0.1062 0.0
H147 H 0.55174 0.95346 1.0276 0.0
H148 H 0.56977 0.02321 0.05783 0.0
H149 H 0.55208 0.94428 0.07763 0.0
H150 H 0.53102 0.98363 0.13552 0.0
H151 H 0.59677 0.07581 0.17948 0.0
H152 H 0.50204 0.67477 0.65056 0.0
H153 H 0.56075 0.64352 0.60567 0.0
H154 H 0.41016 0.43607 0.61745 0.0
H155 H 0.35029 0.467 0.66337 0.0
H156 H 0.61348 0.55508 0.61827 0.0
H157 H 0.42749 0.47108 0.50153 0.0
H158 H 0.42683 0.52234 0.5397 0.0
H159 H 0.39751 0.4352 0.54723 0.0
C160 C 0.4806 0.62228 0.6437 0.0
C161 C 0.42092 0.57343 0.66087 0.0
C162 C 0.51475 0.60455 0.61795 0.0
C163 C 0.49028 0.53752 0.60812 0.0
C164 C 0.42993 0.4883 0.62439 0.0
H165 H 0.70794 0.39713 0.46428 0.0
H166 H 0.66063 0.41825 0.52103 0.0
C167 C 0.39553 0.50607 0.65053 0.0
C168 C 0.52898 0.52066 0.58088 0.0
H169 H 0.52789 0.47124 0.49013 0.0
C170 C 0.59445 0.53588 0.5904 0.0
C171 C 0.50453 0.49623 0.54439 0.0
C172 C 0.43544 0.4805 0.53225 0.0
C173 C 0.63624 0.52845 0.56425 0.0
C174 C 0.61225 0.50554 0.52754 0.0
C175 C 0.54635 0.48891 0.5183 0.0
C176 C 0.65531 0.50189 0.49737 0.0
C177 C 0.70664 0.54747 0.57546 0.0
C178 C 0.67155 0.54395 0.46597 0.0
C179 C 0.69937 0.53247 0.43388 0.0
C180 C 0.71133 0.47842 0.43231 0.0
C181 C 0.70128 0.44036 0.46503 0.0
C182 C 0.67319 0.45181 0.49731 0.0
H183 H 0.72018 0.57107 0.60373 0.0
H184 H 0.71163 0.50206 0.57577 0.0
H185 H 0.74281 0.58261 0.55457 0.0
H186 H 0.65836 0.58291 0.4653 0.0
H187 H 0.70487 0.56151 0.40883 0.0
H188 H 0.80815 0.30794 0.14241 0.0
H189 H 0.90088 0.33854 0.09948 0.0
H190 H 0.97944 0.5467 0.12625 0.0
H191 H 0.8856 0.51619 0.16992 0.0
H192 H 0.98495 0.52247 0.04877 0.0
H193 H 0.09243 0.39642 0.13224 0.0
H194 H 0.00534 0.34201 0.12205 0.0
H195 H 0.03064 0.41478 0.15099 0.0
C196 C 0.84474 0.36047 0.1392 0.0
C197 C 0.83933 0.40955 0.16 0.0
C198 C 0.89828 0.37781 0.11473 0.0
C199 C 0.94849 0.44474 0.11034 0.0
C200 C 0.94182 0.49454 0.12952 0.0
H201 H 0.30562 0.58376 0.96497 0.0
H202 H 0.24014 0.5651 1.02274 0.0
C203 C 0.88782 0.47712 0.15424 0.0
C204 C 0.00684 0.46144 0.08526 0.0
H205 H 0.12783 0.41994 0.06754 0.0
C206 C 0.01691 0.50105 0.05329 0.0
C207 C 0.04938 0.43416 0.09116 0.0
C208 C 0.04446 0.39507 0.12618 0.0
C209 C 0.06544 0.51074 1.02617 0.0
C210 C 0.10477 0.4798 1.03091 0.0
C211 C 0.09721 0.44304 0.06372 0.0
C212 C 0.14977 0.48141 1.00037 0.0
C213 C 0.07314 0.5523 0.99182 0.0
C214 C 0.12213 0.43813 0.96955 0.0
C215 C 0.15961 0.44843 0.93681 0.0
C216 C 0.22564 0.50213 0.93419 0.0
C217 C 0.2556 0.54097 0.96648 0.0
C218 C 0.2178 0.53095 0.99932 0.0
H219 H 0.0448 0.57941 0.99428 0.0
H220 H 0.12681 0.58922 0.98708 0.0
H221 H 0.05463 0.51929 0.96673 0.0
H222 H 0.06983 0.39962 0.96971 0.0
H223 H 0.13464 0.41873 0.91214 0.0
H224 H 0.51213 0.89204 0.67241 0.0
H225 H 0.54083 0.98425 0.62784 0.0
H226 H 0.33292 0.89607 0.59679 0.0
H227 H 0.30408 0.80521 0.64095 0.0
H228 H 0.52343 -0.00928 0.55098 0.0
H229 H 0.3764 0.08301 0.62675 0.0
H230 H 0.3962 0.02329 0.6471 0.0
H231 H 0.32656 -0.004 0.61521 0.0
C232 C 0.47277 0.89186 0.65563 0.0
C233 C 0.4057 0.8413 0.66057 0.0
C234 C 0.48914 0.94491 0.63036 0.0
C235 C 0.43876 0.94847 0.60969 0.0
C236 C 0.37252 0.89602 0.6132 0.0
H237 H 0.41361 0.13493 0.41027 0.0
H238 H 0.39353 0.06992 0.46795 0.0
C239 C 0.35619 0.84355 0.63835 0.0
C240 C 0.45431 0.00609 0.58416 0.0
H241 H 0.40528 0.12024 0.56263 0.0
C242 C 0.49847 0.01974 0.55397 0.0
C243 C 0.42241 0.04489 0.58806 0.0
C244 C 0.37833 0.0366 0.62127 0.0
C245 C 0.50855 0.06817 0.52665 0.0
C246 C 0.47348 0.10384 0.52938 0.0
C247 C 0.43167 0.09249 0.56036 0.0
C248 C 0.47628 0.14896 0.49854 0.0
C249 C 0.55499 0.07966 0.49415 0.0
C250 C 0.52688 0.21651 0.49736 0.0
C251 C 0.53735 0.25447 0.46452 0.0
C252 C 0.49793 0.22516 0.43231 0.0
C253 C 0.44361 0.1595 0.43493 0.0
C254 C 0.43277 0.12189 0.46773 0.0
H255 H 0.58145 0.05073 0.49702 0.0
H256 H 0.52595 0.0649 0.4675 0.0
H257 H 0.59274 0.13365 0.49205 0.0
H258 H 0.56127 0.23838 0.52075 0.0
H259 H 0.58075 0.30409 0.46298 0.0
H260 H 0.66924 0.49621 0.14525 0.0
H261 H 0.63808 0.55792 0.10233 0.0
H262 H 0.42936 0.41694 0.12085 0.0
H263 H 0.46031 0.35422 0.16492 0.0
H264 H 0.46725 0.45566 1.04273 0.0
H265 H 0.55943 0.67704 0.13565 0.0
H266 H 0.61924 0.64971 0.12894 0.0
H267 H 0.54175 0.59603 0.1526 0.0
C268 C 0.61647 0.47764 0.14033 0.0
C269 C 0.56731 0.42012 0.15902 0.0
C270 C 0.5988 0.51357 0.11579 0.0
C271 C 0.53144 0.49333 0.10901 0.0
C272 C 0.48179 0.43409 0.12602 0.0
H273 H 0.39396 0.71485 0.96558 0.0
H274 H 0.41267 0.66596 1.02253 0.0
C275 C 0.49953 0.39792 0.15097 0.0
C276 C 0.51436 0.53439 0.08368 0.0
H277 H 0.5436 0.69402 0.07061 0.0
C278 C 0.48292 0.50738 0.04913 0.0
C279 C 0.53429 0.60197 0.09201 0.0
C280 C 0.56496 0.63285 0.12947 0.0
C281 C 0.4742 0.54696 1.02204 0.0
C282 C 0.49795 0.61554 1.02946 0.0
C283 C 0.52621 0.64177 0.06472 0.0
C284 C 0.49675 0.66055 0.99973 0.0
C285 C 0.44107 0.51567 0.9851 0.0
C286 C 0.54055 0.67808 0.96909 0.0
C287 C 0.53037 0.7067 0.93687 0.0
C288 C 0.47616 0.71844 0.93456 0.0
C289 C 0.43708 0.70803 0.96685 0.0
C290 C 0.44711 0.67901 0.99922 0.0
H291 H 0.41474 0.46017 0.98621 0.0
H292 H 0.40457 0.53163 0.97702 0.0
H293 H 0.47969 0.53267 0.96277 0.0
H294 H 0.57938 0.66466 0.9689 0.0
H295 H 0.56035 0.71269 0.91219 0.0
H296 H 0.83965 0.26793 0.40999 0.0
H297 H 0.90719 0.3152 0.46666 0.0
H298 H 0.7403 0.31522 0.52096 0.0
H299 H 0.67232 0.26729 0.464 0.0
H300 H 0.92388 0.44728 0.49041 0.0
H301 H 0.83552 0.25716 0.60465 0.0
H302 H 0.82587 0.2335 0.55561 0.0
H303 H 0.77455 0.26344 0.57571 0.0
C304 C 0.816 0.27403 0.4348 0.0
C305 C 0.7502 0.26267 0.43274 0.0
C306 C 0.85509 0.30228 0.467 0.0
C307 C 0.8292 0.31947 0.498 0.0
C308 C 0.76134 0.30199 0.49753 0.0
H309 H 0.09805 0.62643 0.66413 0.0
H310 H 0.00667 0.5657 0.61845 0.0
C311 C 0.72204 0.27351 0.46514 0.0
C312 C 0.87583 0.36338 0.52801 0.0
H313 H 0.92644 0.36406 0.6185 0.0
C314 C 0.924 0.42937 0.51858 0.0
C315 C 0.87586 0.34006 0.56472 0.0
C316 C 0.82549 0.26964 0.57609 0.0
C317 C 0.97324 0.47194 0.54449 0.0
C318 C 0.97449 0.44812 0.58093 0.0
C319 C 0.92526 0.38258 0.59066 0.0
C320 C 0.03056 0.48758 0.60782 0.0
C321 C 0.02546 0.54117 0.53221 0.0
C322 C 0.07485 0.46463 0.61669 0.0
C323 C 0.12708 0.49932 0.64225 0.0
C324 C 0.13651 0.55798 0.66017 0.0
C325 C 0.09294 0.58201 0.65068 0.0
C326 C 0.04042 0.54708 0.62471 0.0
H327 H 0.02253 0.54913 0.50163 0.0
H328 H 0.0183 0.57879 0.5478 0.0
H329 H 0.07639 0.55017 0.53888 0.0
H330 H 0.0688 0.41934 0.60387 0.0
H331 H 0.15945 0.47902 0.64843 0.0
H332 H 0.61888 0.03957 0.34702 0.0
H333 H 0.61619 0.93277 0.34566 0.0
H334 H 0.7049 0.97772 0.23527 0.0
H335 H 0.70723 0.08474 0.23591 0.0
H336 H 0.58633 0.84845 0.24411 0.0
H337 H 0.77933 0.90353 0.35379 0.0
H338 H 0.71501 0.9219 0.36702 0.0
H339 H 0.7717 0.96832 0.32971 0.0
C340 C 0.63813 0.0271 0.32245 0.0
C341 C 0.66342 0.07069 0.29157 0.0
C342 C 0.63684 0.96625 0.32188 0.0
C343 C 0.66106 0.94832 0.29057 0.0
C344 C 0.68643 -0.00857 0.25972 0.0
H345 H 0.68282 0.59817 0.23295 0.0
H346 H 0.68237 0.70343 0.2323 0.0
C347 C 0.68788 0.05247 0.26024 0.0
C348 C 0.6576 0.88325 0.28965 0.0
H349 H 0.71512 0.79076 0.33363 0.0
C350 C 0.61465 0.83569 0.26347 0.0
C351 C 0.69467 0.8675 0.31513 0.0
C352 C 0.74325 0.91811 0.34283 0.0
C353 C 0.6068 0.7716 0.26255 0.0
C354 C 0.64357 0.75574 0.28822 0.0
C355 C 0.68674 0.80344 0.31427 0.0
C356 C 0.63975 0.69047 0.28788 0.0
C357 C 0.55859 0.72111 0.23467 0.0
C358 C 0.61661 0.64925 0.31963 0.0
C359 C 0.61729 0.58928 0.32032 0.0
C360 C 0.64171 0.5703 0.28933 0.0
C361 C 0.66411 0.6116 0.25739 0.0
C362 C 0.66331 0.6714 0.25675 0.0
H363 H 0.52248 0.7356 0.22366 0.0
H364 H 0.58712 0.71769 0.21052 0.0
H365 H 0.5302 0.67075 0.24762 0.0
H366 H 0.59873 0.66389 0.34396 0.0
H367 H 0.59993 0.55862 0.34536 0.0
H368 H 0.03734 0.62005 0.84844 0.0
H369 H 0.93063 0.61795 0.84747 0.0
H370 H 0.97305 0.70307 0.73614 0.0
H371 H 0.07985 0.70491 0.73639 0.0
H372 H 0.91246 0.7328 0.83477 0.0
H373 H 0.78564 0.52826 0.72949 0.0
H374 H 0.85926 0.54231 0.75516 0.0
H375 H 0.86683 0.59594 0.71669 0.0
C376 C 0.02406 0.63817 0.82365 0.0
C377 C 0.06684 0.6624 0.7924 0.0
C378 C 0.96326 0.63701 0.82325 0.0
C379 C 0.94442 0.65964 0.7916 0.0
C380 C -0.01298 0.68466 0.76055 0.0
H381 H 0.60085 0.69378 0.73662 0.0
H382 H 0.70723 0.69513 0.73707 0.0
C383 C 0.04799 0.686 0.7609 0.0
C384 C 0.88023 0.65783 0.79139 0.0
H385 H 0.72661 0.5819 0.7499 0.0
C386 C 0.8716 0.69981 0.81635 0.0
C387 C 0.82781 0.61452 0.7672 0.0
C388 C 0.83481 0.56723 0.74076 0.0
C389 C 0.81131 0.70025 0.81744 0.0
C390 C 0.75881 0.65681 0.79332 0.0
C391 C 0.76747 0.61489 0.76831 0.0
C392 C 0.69455 0.65487 0.79326 0.0
C393 C 0.80448 0.74777 0.84378 0.0
C394 C 0.65262 0.63083 0.82464 0.0
C395 C 0.59193 0.63007 0.82462 0.0
C396 C 0.57271 0.65324 0.79311 0.0
C397 C 0.61464 0.67626 0.76148 0.0
C398 C 0.67517 0.67688 0.76156 0.0
H399 H 0.8538 0.78719 0.85462 0.0
H400 H 0.77939 0.77214 0.82947 0.0
H401 H 0.7732 0.71937 0.86814 0.0
H402 H 0.66698 0.61288 0.8491 0.0
H403 H 0.56064 0.61206 0.84939 0.0
H404 H 0.3746 0.07484 0.23373 0.0
H405 H 0.26785 0.97045 0.23461 0.0
H406 H 0.30981 0.92954 0.34662 0.0
H407 H 0.41654 0.03438 0.34646 0.0
H408 H 0.24556 0.83696 0.24783 0.0
H409 H 0.12489 0.92115 0.35314 0.0
H410 H 0.19914 0.97879 0.32756 0.0
H411 H 0.20514 0.9321 0.36625 0.0
C412 C 0.3612 0.04384 0.25864 0.0
C413 C 0.4037 0.06304 0.29017 0.0
C414 C 0.30041 0.98425 0.25897 0.0
C415 C 0.28124 0.9434 0.29083 0.0
C416 C 0.32391 0.96139 0.32203 0.0
H417 H 0.93482 0.57054 0.34838 0.0
H418 H 0.04197 0.67442 0.34707 0.0
C419 C 0.38486 0.02096 0.32175 0.0
C420 C 0.21619 0.88186 0.29138 0.0
H421 H 0.06369 0.80798 0.33383 0.0
C422 C 0.20559 0.83042 0.2665 0.0
C423 C 0.16476 0.87441 0.31582 0.0
C424 C 0.17354 0.92965 0.34205 0.0
C425 C 0.14446 0.77053 0.26583 0.0
C426 C 0.09308 0.76306 0.29031 0.0
C427 C 0.10367 0.81451 0.31516 0.0
C428 C 0.02805 0.70151 0.29096 0.0
C429 C 0.13557 0.71532 0.23954 0.0
C430 C 0.98499 0.68369 0.25996 0.0
C431 C 0.92373 0.62445 0.26052 0.0
C432 C 0.90496 0.58253 0.29217 0.0
C433 C 0.94799 0.60149 0.32346 0.0
C434 C 0.00908 0.66075 0.32286 0.0
H435 H 0.18414 0.72396 0.22823 0.0
H436 H 0.11029 0.66621 0.25408 0.0
H437 H 0.10358 0.71266 0.2155 0.0
H438 H -0.00106 0.71548 0.23535 0.0
H439 H 0.89172 0.61123 0.23596 0.0
H440 H 0.36112 0.41312 0.8483 0.0
H441 H 0.36375 0.30883 0.84696 0.0
H442 H 0.27458 0.26518 0.73643 0.0
H443 H 0.27215 0.36967 0.73706 0.0
H444 H 0.24868 0.17607 0.83529 0.0
H445 H 0.4484 0.25146 0.72752 0.0
H446 H 0.43558 0.31147 0.75341 0.0
H447 H 0.38026 0.26501 0.71551 0.0
C448 C 0.34221 0.38157 0.82361 0.0
C449 C 0.3166 0.39971 0.79271 0.0
C450 C 0.34373 0.32213 0.82299 0.0
C451 C 0.32011 0.28045 0.79144 0.0
C452 C 0.29383 0.29771 0.76074 0.0
H453 H 0.28323 0.90153 0.73592 0.0
H454 H 0.28232 0.00672 0.73621 0.0
C455 C 0.29213 0.35709 0.76132 0.0
C456 C 0.32176 0.21798 0.79105 0.0
H457 H 0.39481 0.13895 0.74804 0.0
C458 C 0.28067 0.16776 0.81637 0.0
C459 C 0.36365 0.20818 0.76614 0.0
C460 C 0.40995 0.26196 0.73924 0.0
C461 C 0.27974 0.10682 0.81714 0.0
C462 C 0.32184 0.09709 0.79236 0.0
C463 C 0.36282 0.14726 0.76696 0.0
C464 C 0.32371 0.03471 0.79224 0.0
C465 C 0.23306 0.05296 0.84391 0.0
C466 C 0.34834 0.01698 0.82353 0.0
C467 C 0.34885 0.95698 0.8236 0.0
C468 C 0.32486 0.91426 0.79225 0.0
C469 C 0.30136 0.93303 0.76066 0.0
C470 C 0.301 -0.00693 0.76065 0.0
H471 H 0.19382 0.06294 0.85492 0.0
H472 H 0.20837 0.00328 0.82992 0.0
H473 H 0.26226 0.0507 0.86814 0.0
H474 H 0.36694 0.04948 0.84788 0.0
H475 H 0.36733 0.94392 0.84833 0.0
H476 H 0.40408 0.35229 0.34712 0.0
H477 H 0.29962 0.35445 0.346 0.0
H478 H 0.25909 0.2729 0.23371 0.0
H479 H 0.36423 0.27113 0.23412 0.0
H480 H 0.2485 0.39154 0.24567 0.0
H481 H 0.10711 0.19062 0.3502 0.0
H482 H 0.18954 0.25337 0.3649 0.0
H483 H 0.17997 0.19958 0.32603 0.0
C484 C 0.373 0.33451 0.32218 0.0
C485 C 0.39234 0.31148 0.29068 0.0
C486 C 0.31324 0.33545 0.32175 0.0
C487 C 0.27196 0.31313 0.28997 0.0
C488 C 0.29065 0.28987 0.25851 0.0
H489 H 0.90255 0.29694 0.23295 0.0
H490 H 0.00834 0.29746 0.2321 0.0
C491 C 0.35046 0.28875 0.2589 0.0
C492 C 0.21045 0.31677 0.2892 0.0
H493 H 0.05956 0.25697 0.33214 0.0
C494 C 0.20685 0.36195 0.26433 0.0
C495 C 0.15698 0.27806 0.31381 0.0
C496 C 0.15807 0.22721 0.34006 0.0
C497 C 0.15093 0.37042 0.26393 0.0
C498 C 0.09766 0.33203 0.28875 0.0
C499 C 0.10116 0.28661 0.31346 0.0
C500 C 0.03639 0.33616 0.28865 0.0
C501 C 0.14965 0.42097 0.23751 0.0
C502 C 0.01745 0.35713 0.32099 0.0
C503 C 0.95672 0.35639 0.32179 0.0
C504 C 0.91419 0.33403 0.29031 0.0
C505 C 0.934 0.31392 0.25779 0.0
C506 C -0.00535 0.3148 0.25704 0.0
H507 H 0.20059 0.45767 0.22741 0.0
H508 H 0.1184 0.39459 0.21264 0.0
H509 H 0.12746 0.44849 0.25136 0.0
H510 H 0.04931 0.37327 0.34568 0.0
H511 H 0.94262 0.37195 0.34725 0.0
H512 H 0.03307 0.41979 0.84728 0.0
H513 H 0.9278 0.3137 0.84716 0.0
H514 H 0.97277 0.26816 0.73715 0.0
H515 H 0.07777 0.37441 0.73652 0.0
H516 H 0.83982 0.24886 0.74722 0.0
H517 H 0.91452 0.12756 0.8575 0.0
H518 H 0.92674 0.20867 0.86931 0.0
H519 H 0.9746 0.20068 0.83199 0.0
C520 C 0.02059 0.38741 0.82297 0.0
C521 C 0.06387 0.40525 0.79198 0.0
C522 C 0.96073 0.32681 0.8231 0.0
C523 C 0.94365 0.28341 0.79238 0.0
C524 C -0.01411 0.30133 0.76115 0.0
H525 H 0.60925 0.8962 0.73823 0.0
H526 H 0.71372 0.00299 0.73762 0.0
C527 C 0.0458 0.36184 0.76096 0.0
C528 C 0.88122 0.2192 0.79266 0.0
H529 H 0.80165 0.06863 0.83705 0.0
C530 C 0.83129 0.20921 0.7667 0.0
C531 C 0.87115 0.16825 0.81822 0.0
C532 C 0.9247 0.17632 0.84568 0.0
C533 C 0.77032 0.14919 0.76603 0.0
C534 C 0.7602 0.09831 0.79165 0.0
C535 C 0.81017 0.10827 0.81757 0.0
C536 C 0.69775 0.03416 0.79211 0.0
C537 C 0.71682 0.14094 0.73848 0.0
C538 C 0.65565 0.01658 0.82338 0.0
C539 C 0.59619 0.95566 0.824 0.0
C540 C 0.57844 0.91145 0.79338 0.0
C541 C 0.62149 0.9291 0.76228 0.0
C542 C 0.68088 -0.00987 0.76171 0.0
H543 H 0.72724 0.18954 0.72631 0.0
H544 H 0.71444 0.10798 0.7151 0.0
H545 H 0.66699 0.11709 0.75224 0.0
H546 H 0.66861 0.05026 0.84713 0.0
H547 H 0.5643 0.94342 0.84846 0.0
loop_
_geom_bond_atom_site_label_1
_geom_bond_atom_site_label_2
_geom_bond_distance
_geom_bond_site_symmetry_2
_ccdc_geom_bond_type
H0 O1 0.850 . S
O1 H0 0.850 . S
O1 Tb2 2.341 . S
O1 Tb3 2.341 . S
O1 Tb4 2.341 . S
Tb2 O1 2.341 . S
Tb2 O5 2.341 . S
Tb2 O6 2.341 . S
Tb2 O7 2.341 . S
Tb2 O22 2.344 . S
Tb2 O25 2.344 . S
Tb2 O38 2.344 . S
Tb2 O41 2.344 . S
Tb3 O1 2.341 . S
Tb3 O5 2.341 . S
Tb3 O8 2.341 . S
Tb3 O10 2.341 . S
Tb3 O26 2.344 . S
Tb3 O29 2.344 . S
Tb3 O34 2.344 . S
Tb3 O37 2.344 . S
Tb4 O1 2.341 . S
Tb4 O6 2.341 . S
Tb4 O9 2.341 . S
Tb4 O10 2.341 . S
Tb4 O30 2.344 . S
Tb4 O33 2.344 . S
Tb4 O43 2.344 . S
Tb4 O44 2.344 . S
O5 Tb2 2.341 . S
O5 Tb3 2.341 . S
O5 H11 0.850 . S
O5 Tb13 2.341 . S
O6 Tb2 2.341 . S
O6 Tb4 2.341 . S
O6 H12 0.850 . S
O6 Tb14 2.341 . S
O7 Tb2 2.341 . S
O7 Tb13 2.341 . S
O7 Tb14 2.341 . S
O7 H15 0.850 . S
O8 Tb3 2.341 . S
O8 Tb13 2.341 . S
O8 H16 0.850 . S
O8 Tb17 2.341 . S
O9 Tb4 2.341 . S
O9 Tb14 2.341 . S
O9 Tb17 2.341 . S
O9 H18 0.850 . S
O10 Tb3 2.341 . S
O10 Tb4 2.341 . S
O10 Tb17 2.341 . S
O10 H19 0.850 . S
H11 O5 0.850 . S
H12 O6 0.850 . S
Tb13 O5 2.341 . S
Tb13 O7 2.341 . S
Tb13 O8 2.341 . S
Tb13 O20 2.341 . S
Tb13 O31 2.344 . S
Tb13 O32 2.344 . S
Tb13 O42 2.344 . S
Tb13 O45 2.344 . S
Tb14 O6 2.341 . S
Tb14 O7 2.341 . S
Tb14 O9 2.341 . S
Tb14 O20 2.341 . S
Tb14 O27 2.344 . S
Tb14 O28 2.344 . S
Tb14 O35 2.344 . S
Tb14 O36 2.344 . S
H15 O7 0.850 . S
H16 O8 0.850 . S
Tb17 O8 2.341 . S
Tb17 O9 2.341 . S
Tb17 O10 2.341 . S
Tb17 O20 2.341 . S
Tb17 O23 2.344 . S
Tb17 O24 2.344 . S
Tb17 O39 2.344 . S
Tb17 O40 2.344 . S
H18 O9 0.850 . S
H19 O10 0.850 . S
O20 Tb13 2.341 . S
O20 Tb14 2.341 . S
O20 Tb17 2.341 . S
O20 H21 0.850 . S
H21 O20 0.850 . S
O22 Tb2 2.344 . S
O22 C46 1.272 . S
O23 Tb17 2.344 . S
O23 C47 1.272 . S
O24 Tb17 2.344 . S
O24 C48 1.272 . S
O25 Tb2 2.344 . S
O25 C49 1.272 . S
O26 Tb3 2.344 . S
O26 C50 1.272 . S
O27 Tb14 2.344 . S
O27 C51 1.272 . S
O28 Tb14 2.344 . S
O28 C52 1.272 . S
O29 Tb3 2.344 . S
O29 C53 1.272 . S
O30 Tb4 2.344 . S
O30 C54 1.272 . S
O31 Tb13 2.344 . S
O31 C55 1.272 . S
O32 Tb13 2.344 . S
O32 C56 1.272 . S
O33 Tb4 2.344 . S
O33 C57 1.272 . S
O34 Tb3 2.344 . S
O34 C46 1.272 . S
O35 Tb14 2.344 . S
O35 C47 1.272 . S
O36 Tb14 2.344 . S
O36 C49 1.272 . S
O37 Tb3 2.344 . S
O37 C48 1.272 . S
O38 Tb2 2.344 . S
O38 C56 1.272 . S
O39 Tb17 2.344 . S
O39 C57 1.272 . S
O40 Tb17 2.344 . S
O40 C55 1.272 . S
O41 Tb2 2.344 . S
O41 C54 1.272 . S
O42 Tb13 2.344 . S
O42 C53 1.272 . S
O43 Tb4 2.344 . S
O43 C52 1.272 . S
O44 Tb4 2.344 . S
O44 C50 1.272 . S
O45 Tb13 2.344 . S
O45 C51 1.272 . S
C46 O22 1.272 . S
C46 O34 1.272 . S
C47 O23 1.272 . S
C47 O35 1.272 . S
C48 O24 1.272 . S
C48 O37 1.272 . S
C49 O25 1.272 . S
C49 O36 1.272 . S
C50 O26 1.272 . S
C50 O44 1.272 . S
C51 O27 1.272 . S
C51 O45 1.272 . S
C52 O28 1.272 . S
C52 O43 1.272 . S
C53 O29 1.272 . S
C53 O42 1.272 . S
C54 O30 1.272 . S
C54 O41 1.272 . S
C55 O31 1.272 . S
C55 O40 1.272 . S
C56 O32 1.272 . S
C56 O38 1.272 . S
C57 O33 1.272 . S
C57 O39 1.272 . S
H58 O59 0.850 . S
O59 H58 0.850 . S
O59 Tb60 2.341 . S
O59 Tb61 2.341 . S
O59 Tb62 2.341 . S
Tb60 O59 2.341 . S
Tb60 O63 2.341 . S
Tb60 O64 2.341 . S
Tb60 O65 2.341 . S
Tb60 O80 2.344 . S
Tb60 O83 2.344 . S
Tb60 O96 2.344 . S
Tb60 O99 2.344 . S
Tb61 O59 2.341 . S
Tb61 O63 2.341 . S
Tb61 O66 2.341 . S
Tb61 O68 2.341 . S
Tb61 O84 2.344 . S
Tb61 O87 2.344 . S
Tb61 O92 2.344 . S
Tb61 O95 2.344 . S
Tb62 O59 2.341 . S
Tb62 O64 2.341 . S
Tb62 O67 2.341 . S
Tb62 O68 2.341 . S
Tb62 O88 2.344 . S
Tb62 O91 2.344 . S
Tb62 O101 2.344 . S
Tb62 O102 2.344 . S
O63 Tb60 2.341 . S
O63 Tb61 2.341 . S
O63 H69 0.850 . S
O63 Tb71 2.341 . S
O64 Tb60 2.341 . S
O64 Tb62 2.341 . S
O64 H70 0.850 . S
O64 Tb72 2.341 . S
O65 Tb60 2.341 . S
O65 Tb71 2.341 . S
O65 Tb72 2.341 . S
O65 H73 0.850 . S
O66 Tb61 2.341 . S
O66 Tb71 2.341 . S
O66 H74 0.850 . S
O66 Tb75 2.341 . S
O67 Tb62 2.341 . S
O67 Tb72 2.341 . S
O67 Tb75 2.341 . S
O67 H76 0.850 . S
O68 Tb61 2.341 . S
O68 Tb62 2.341 . S
O68 Tb75 2.341 . S
O68 H77 0.850 . S
H69 O63 0.850 . S
H70 O64 0.850 . S
Tb71 O63 2.341 . S
Tb71 O65 2.341 . S
Tb71 O66 2.341 . S
Tb71 O78 2.341 . S
Tb71 O89 2.344 . S
Tb71 O90 2.344 . S
Tb71 O100 2.344 . S
Tb71 O103 2.344 . S
Tb72 O64 2.341 . S
Tb72 O65 2.341 . S
Tb72 O67 2.341 . S
Tb72 O78 2.341 . S
Tb72 O85 2.344 . S
Tb72 O86 2.344 . S
Tb72 O93 2.344 . S
Tb72 O94 2.344 . S
H73 O65 0.850 . S
H74 O66 0.850 . S
Tb75 O66 2.341 . S
Tb75 O67 2.341 . S
Tb75 O68 2.341 . S
Tb75 O78 2.341 . S
Tb75 O81 2.344 . S
Tb75 O82 2.344 . S
Tb75 O97 2.344 . S
Tb75 O98 2.344 . S
H76 O67 0.850 . S
H77 O68 0.850 . S
O78 Tb71 2.341 . S
O78 Tb72 2.341 . S
O78 Tb75 2.341 . S
O78 H79 0.850 . S
H79 O78 0.850 . S
O80 Tb60 2.344 . S
O80 C104 1.272 . S
O81 Tb75 2.344 . S
O81 C105 1.272 . S
O82 Tb75 2.344 . S
O82 C106 1.272 . S
O83 Tb60 2.344 . S
O83 C107 1.272 . S
O84 Tb61 2.344 . S
O84 C108 1.272 . S
O85 Tb72 2.344 . S
O85 C109 1.272 . S
O86 Tb72 2.344 . S
O86 C110 1.272 . S
O87 Tb61 2.344 . S
O87 C111 1.272 . S
O88 Tb62 2.344 . S
O88 C112 1.272 . S
O89 Tb71 2.344 . S
O89 C113 1.272 . S
O90 Tb71 2.344 . S
O90 C114 1.272 . S
O91 Tb62 2.344 . S
O91 C115 1.272 . S
O92 Tb61 2.344 . S
O92 C104 1.272 . S
O93 Tb72 2.344 . S
O93 C105 1.272 . S
O94 Tb72 2.344 . S
O94 C107 1.272 . S
O95 Tb61 2.344 . S
O95 C106 1.272 . S
O96 Tb60 2.344 . S
O96 C114 1.272 . S
O97 Tb75 2.344 . S
O97 C115 1.272 . S
O98 Tb75 2.344 . S
O98 C113 1.272 . S
O99 Tb60 2.344 . S
O99 C112 1.272 . S
O100 Tb71 2.344 . S
O100 C111 1.272 . S
O101 Tb62 2.344 . S
O101 C110 1.272 . S
O102 Tb62 2.344 . S
O102 C108 1.272 . S
O103 Tb71 2.344 . S
O103 C109 1.272 . S
C104 O80 1.272 . S
C104 O92 1.272 . S
C105 O81 1.272 . S
C105 O93 1.272 . S
C106 O82 1.272 . S
C106 O95 1.272 . S
C107 O83 1.272 . S
C107 O94 1.272 . S
C108 O84 1.272 . S
C108 O102 1.272 . S
C109 O85 1.272 . S
C109 O103 1.272 . S
C110 O86 1.272 . S
C110 O101 1.272 . S
C111 O87 1.272 . S
C111 O100 1.272 . S
C112 O88 1.272 . S
C112 O99 1.272 . S
C113 O89 1.272 . S
C113 O98 1.272 . S
C114 O90 1.272 . S
C114 O96 1.272 . S
C115 O91 1.272 . S
C115 O97 1.272 . S
H116 C124 0.929 . S
H117 C126 0.930 . S
H118 C128 0.930 . S
H119 C131 0.929 . S
H120 C134 0.930 . S
H121 C136 0.960 1_545 S
H122 C136 0.960 . S
H123 C136 0.960 1_545 S
C124 H116 0.929 . S
C124 C125 1.377 . S
C124 C126 1.384 . S
C125 C124 1.377 . S
C125 C131 1.390 . S
C126 H117 0.930 . S
C126 C124 1.384 . S
C126 C127 1.372 . S
C127 C126 1.372 . S
C127 C128 1.400 . S
C127 C132 1.490 . S
C128 H118 0.930 . S
C128 C127 1.400 . S
C128 C131 1.386 . S
H129 C145 0.930 . S
H130 C146 0.931 . S
C131 H119 0.929 . S
C131 C125 1.390 . S
C131 C128 1.386 . S
C132 C127 1.490 . S
C132 C134 1.395 . S
C132 C135 1.403 . S
H133 C139 0.930 . S
C134 H120 0.930 . S
C134 C132 1.395 . S
C134 C137 1.403 1_556 S
C135 C132 1.403 . S
C135 C136 1.524 . S
C135 C139 1.400 1_566 S
C136 H121 0.960 1_565 S
C136 H122 0.960 . S
C136 H123 0.960 1_565 S
C136 C135 1.524 . S
C137 C134 1.403 1_554 S
C137 C138 1.392 1_565 S
C137 C141 1.495 . S
C138 C137 1.392 1_545 S
C138 C139 1.385 . S
C138 C140 1.478 . S
C139 H133 0.930 . S
C139 C135 1.400 1_544 S
C139 C138 1.385 . S
C140 C138 1.478 . S
C140 C142 1.381 . S
C140 C146 1.383 . S
C141 C137 1.495 . S
C141 H147 0.959 . S
C141 H148 0.961 . S
C141 H149 0.960 . S
C142 C140 1.381 . S
C142 C143 1.394 . S
C142 H150 0.930 1_545 S
C143 C142 1.394 . S
C143 C144 1.383 . S
C143 H151 0.929 . S
C144 C143 1.383 . S
C144 C145 1.377 . S
C145 H129 0.930 . S
C145 C144 1.377 . S
C145 C146 1.379 . S
C146 H130 0.931 . S
C146 C140 1.383 . S
C146 C145 1.379 . S
H147 C141 0.959 . S
H148 C141 0.961 . S
H149 C141 0.960 . S
H150 C142 0.930 1_565 S
H151 C143 0.929 . S
H152 C160 0.929 . S
H153 C162 0.930 . S
H154 C164 0.930 . S
H155 C167 0.929 . S
H156 C170 0.930 . S
H157 C172 0.960 . S
H158 C172 0.960 . S
H159 C172 0.960 . S
C160 H152 0.929 . S
C160 C161 1.377 . S
C160 C162 1.384 . S
C161 C160 1.377 . S
C161 C167 1.390 . S
C162 H153 0.930 . S
C162 C160 1.384 . S
C162 C163 1.372 . S
C163 C162 1.372 . S
C163 C164 1.400 . S
C163 C168 1.490 . S
C164 H154 0.930 . S
C164 C163 1.400 . S
C164 C167 1.386 . S
H165 C181 0.930 . S
H166 C182 0.931 . S
C167 H155 0.929 . S
C167 C161 1.390 . S
C167 C164 1.386 . S
C168 C163 1.490 . S
C168 C170 1.395 . S
C168 C171 1.403 . S
H169 C175 0.930 . S
C170 H156 0.930 . S
C170 C168 1.395 . S
C170 C173 1.403 . S
C171 C168 1.403 . S
C171 C172 1.524 . S
C171 C175 1.400 . S
C172 H157 0.960 . S
C172 H158 0.960 . S
C172 H159 0.960 . S
C172 C171 1.524 . S
C173 C170 1.403 . S
C173 C174 1.392 . S
C173 C177 1.495 . S
C174 C173 1.392 . S
C174 C175 1.385 . S
C174 C176 1.478 . S
C175 H169 0.930 . S
C175 C171 1.400 . S
C175 C174 1.385 . S
C176 C174 1.478 . S
C176 C178 1.381 . S
C176 C182 1.383 . S
C177 C173 1.495 . S
C177 H183 0.959 . S
C177 H184 0.961 . S
C177 H185 0.960 . S
C178 C176 1.381 . S
C178 C179 1.394 . S
C178 H186 0.930 . S
C179 C178 1.394 . S
C179 C180 1.383 . S
C179 H187 0.929 . S
C180 C179 1.383 . S
C180 C181 1.377 . S
C181 H165 0.930 . S
C181 C180 1.377 . S
C181 C182 1.379 . S
C182 H166 0.931 . S
C182 C176 1.383 . S
C182 C181 1.379 . S
H183 C177 0.959 . S
H184 C177 0.961 . S
H185 C177 0.960 . S
H186 C178 0.930 . S
H187 C179 0.929 . S
H188 C196 0.929 . S
H189 C198 0.930 . S
H190 C200 0.930 . S
H191 C203 0.929 . S
H192 C206 0.930 . S
H193 C208 0.960 . S
H194 C208 0.960 . S
H195 C208 0.960 . S
C196 H188 0.929 . S
C196 C197 1.377 . S
C196 C198 1.384 . S
C197 C196 1.377 . S
C197 C203 1.390 . S
C198 H189 0.930 . S
C198 C196 1.384 . S
C198 C199 1.372 . S
C199 C198 1.372 . S
C199 C200 1.400 . S
C199 C204 1.490 . S
C200 H190 0.930 . S
C200 C199 1.400 . S
C200 C203 1.386 . S
H201 C217 0.930 . S
H202 C218 0.931 . S
C203 H191 0.929 . S
C203 C197 1.390 . S
C203 C200 1.386 . S
C204 C199 1.490 . S
C204 C206 1.395 1_554 S
C204 C207 1.403 1_655 S
H205 C211 0.930 1_554 S
C206 H192 0.930 . S
C206 C204 1.395 1_556 S
C206 C209 1.403 . S
C207 C204 1.403 1_455 S
C207 C208 1.524 . S
C207 C211 1.399 1_554 S
C208 H193 0.960 . S
C208 H194 0.960 . S
C208 H195 0.960 . S
C208 C207 1.524 . S
C209 C206 1.403 . S
C209 C210 1.392 1_655 S
C209 C213 1.495 . S
C210 C209 1.392 1_455 S
C210 C211 1.386 . S
C210 C212 1.478 . S
C211 H205 0.930 1_556 S
C211 C207 1.399 1_556 S
C211 C210 1.386 . S
C212 C210 1.478 . S
C212 C214 1.381 . S
C212 C218 1.383 . S
C213 C209 1.495 . S
C213 H219 0.959 . S
C213 H220 0.961 . S
C213 H221 0.960 . S
C214 C212 1.381 . S
C214 C215 1.394 . S
C214 H222 0.930 . S
C215 C214 1.394 . S
C215 C216 1.383 . S
C215 H223 0.929 . S
C216 C215 1.383 . S
C216 C217 1.377 . S
C217 H201 0.930 . S
C217 C216 1.377 . S
C217 C218 1.379 . S
C218 H202 0.931 . S
C218 C212 1.383 . S
C218 C217 1.379 . S
H219 C213 0.959 . S
H220 C213 0.961 . S
H221 C213 0.960 . S
H222 C214 0.930 . S
H223 C215 0.929 . S
H224 C232 0.929 . S
H225 C234 0.930 . S
H226 C236 0.930 . S
H227 C239 0.929 . S
H228 C242 0.930 . S
H229 C244 0.960 . S
H230 C244 0.960 . S
H231 C244 0.960 . S
C232 H224 0.929 . S
C232 C233 1.377 . S
C232 C234 1.384 . S
C233 C232 1.377 . S
C233 C239 1.390 . S
C234 H225 0.930 . S
C234 C232 1.384 . S
C234 C235 1.372 . S
C235 C234 1.372 . S
C235 C236 1.400 . S
C235 C240 1.490 . S
C236 H226 0.930 . S
C236 C235 1.400 . S
C236 C239 1.386 . S
H237 C253 0.930 . S
H238 C254 0.931 . S
C239 H227 0.929 . S
C239 C233 1.390 . S
C239 C236 1.386 . S
C240 C235 1.490 . S
C240 C242 1.395 . S
C240 C243 1.403 1_565 S
H241 C247 0.930 . S
C242 H228 0.930 . S
C242 C240 1.395 . S
C242 C245 1.403 1_565 S
C243 C240 1.403 1_545 S
C243 C244 1.524 . S
C243 C247 1.400 . S
C244 H229 0.960 . S
C244 H230 0.960 . S
C244 H231 0.960 . S
C244 C243 1.524 . S
C245 C242 1.403 1_545 S
C245 C246 1.392 . S
C245 C249 1.495 . S
C246 C245 1.392 . S
C246 C247 1.385 . S
C246 C248 1.478 . S
C247 H241 0.930 . S
C247 C243 1.400 . S
C247 C246 1.385 . S
C248 C246 1.478 . S
C248 C250 1.381 . S
C248 C254 1.383 . S
C249 C245 1.495 . S
C249 H255 0.959 1_545 S
C249 H256 0.961 1_545 S
C249 H257 0.960 . S
C250 C248 1.381 . S
C250 C251 1.394 . S
C250 H258 0.930 . S
C251 C250 1.394 . S
C251 C252 1.383 . S
C251 H259 0.929 . S
C252 C251 1.383 . S
C252 C253 1.377 . S
C253 H237 0.930 . S
C253 C252 1.377 . S
C253 C254 1.379 . S
C254 H238 0.931 . S
C254 C248 1.383 . S
C254 C253 1.379 . S
H255 C249 0.959 1_565 S
H256 C249 0.961 1_565 S
H257 C249 0.960 . S
H258 C250 0.930 . S
H259 C251 0.929 . S
H260 C268 0.929 . S
H261 C270 0.930 . S
H262 C272 0.930 . S
H263 C275 0.929 . S
H264 C278 0.930 . S
H265 C280 0.960 . S
H266 C280 0.960 . S
H267 C280 0.960 . S
C268 H260 0.929 . S
C268 C269 1.377 . S
C268 C270 1.384 . S
C269 C268 1.377 . S
C269 C275 1.390 . S
C270 H261 0.930 . S
C270 C268 1.384 . S
C270 C271 1.372 . S
C271 C270 1.372 . S
C271 C272 1.400 . S
C271 C276 1.490 . S
C272 H262 0.930 . S
C272 C271 1.400 . S
C272 C275 1.386 . S
H273 C289 0.930 . S
H274 C290 0.931 . S
C275 H263 0.929 . S
C275 C269 1.390 . S
C275 C272 1.386 . S
C276 C271 1.490 . S
C276 C278 1.395 . S
C276 C279 1.403 . S
H277 C283 0.930 . S
C278 H264 0.930 . S
C278 C276 1.395 . S
C278 C281 1.403 1_554 S
C279 C276 1.403 . S
C279 C280 1.524 . S
C279 C283 1.400 1_554 S
C280 H265 0.960 . S
C280 H266 0.960 . S
C280 H267 0.960 . S
C280 C279 1.524 . S
C281 C278 1.403 1_556 S
C281 C282 1.392 . S
C281 C285 1.495 . S
C282 C281 1.392 . S
C282 C283 1.385 . S
C282 C284 1.478 . S
C283 H277 0.930 . S
C283 C279 1.400 1_556 S
C283 C282 1.385 . S
C284 C282 1.478 . S
C284 C286 1.381 . S
C284 C290 1.383 . S
C285 C281 1.495 . S
C285 H291 0.959 . S
C285 H292 0.961 . S
C285 H293 0.960 . S
C286 C284 1.381 . S
C286 C287 1.394 . S
C286 H294 0.930 . S
C287 C286 1.394 . S
C287 C288 1.383 . S
C287 H295 0.929 . S
C288 C287 1.383 . S
C288 C289 1.377 . S
C289 H273 0.930 . S
C289 C288 1.377 . S
C289 C290 1.379 . S
C290 H274 0.931 . S
C290 C284 1.383 . S
C290 C289 1.379 . S
H291 C285 0.959 . S
H292 C285 0.961 . S
H293 C285 0.960 . S
H294 C286 0.930 . S
H295 C287 0.929 . S
H296 C304 0.929 . S
H297 C306 0.930 . S
H298 C308 0.930 . S
H299 C311 0.929 . S
H300 C314 0.930 . S
H301 C316 0.960 . S
H302 C316 0.960 . S
H303 C316 0.960 . S
C304 H296 0.929 . S
C304 C305 1.377 . S
C304 C306 1.384 . S
C305 C304 1.377 . S
C305 C311 1.390 . S
C306 H297 0.930 . S
C306 C304 1.384 . S
C306 C307 1.372 . S
C307 C306 1.372 . S
C307 C308 1.400 . S
C307 C312 1.490 . S
C308 H298 0.930 . S
C308 C307 1.400 . S
C308 C311 1.386 . S
H309 C325 0.930 . S
H310 C326 0.931 1_655 S
C311 H299 0.929 . S
C311 C305 1.390 . S
C311 C308 1.386 . S
C312 C307 1.490 . S
C312 C314 1.395 . S
C312 C315 1.403 . S
H313 C319 0.930 . S
C314 H300 0.930 . S
C314 C312 1.395 . S
C314 C317 1.403 1_655 S
C315 C312 1.403 . S
C315 C316 1.524 . S
C315 C319 1.400 . S
C316 H301 0.960 . S
C316 H302 0.960 . S
C316 H303 0.960 . S
C316 C315 1.524 . S
C317 C314 1.403 1_455 S
C317 C318 1.392 . S
C317 C321 1.495 . S
C318 C317 1.392 . S
C318 C319 1.385 1_455 S
C318 C320 1.478 . S
C319 H313 0.930 . S
C319 C315 1.400 . S
C319 C318 1.385 1_655 S
C320 C318 1.478 . S
C320 C322 1.381 . S
C320 C326 1.383 . S
C321 C317 1.495 . S
C321 H327 0.959 . S
C321 H328 0.961 . S
C321 H329 0.960 . S
C322 C320 1.381 . S
C322 C323 1.394 . S
C322 H330 0.930 . S
C323 C322 1.394 . S
C323 C324 1.383 . S
C323 H331 0.929 . S
C324 C323 1.383 . S
C324 C325 1.377 . S
C325 H309 0.930 . S
C325 C324 1.377 . S
C325 C326 1.379 . S
C326 H310 0.931 1_455 S
C326 C320 1.383 . S
C326 C325 1.379 . S
H327 C321 0.959 . S
H328 C321 0.961 . S
H329 C321 0.960 . S
H330 C322 0.930 . S
H331 C323 0.929 . S
H332 C340 0.929 . S
H333 C342 0.930 . S
H334 C344 0.930 . S
H335 C347 0.929 . S
H336 C350 0.930 . S
H337 C352 0.960 . S
H338 C352 0.960 . S
H339 C352 0.960 . S
C340 H332 0.929 . S
C340 C341 1.377 . S
C340 C342 1.384 1_545 S
C341 C340 1.377 . S
C341 C347 1.390 . S
C342 H333 0.930 . S
C342 C340 1.384 1_565 S
C342 C343 1.372 . S
C343 C342 1.372 . S
C343 C344 1.400 1_565 S
C343 C348 1.490 . S
C344 H334 0.930 . S
C344 C343 1.400 1_545 S
C344 C347 1.386 . S
H345 C361 0.930 . S
H346 C362 0.931 . S
C347 H335 0.929 . S
C347 C341 1.390 . S
C347 C344 1.386 . S
C348 C343 1.490 . S
C348 C350 1.395 . S
C348 C351 1.403 . S
H349 C355 0.930 . S
C350 H336 0.930 . S
C350 C348 1.395 . S
C350 C353 1.403 . S
C351 C348 1.403 . S
C351 C352 1.524 . S
C351 C355 1.400 . S
C352 H337 0.960 . S
C352 H338 0.960 . S
C352 H339 0.960 . S
C352 C351 1.524 . S
C353 C350 1.403 . S
C353 C354 1.392 . S
C353 C357 1.495 . S
C354 C353 1.392 . S
C354 C355 1.385 . S
C354 C356 1.478 . S
C355 H349 0.930 . S
C355 C351 1.400 . S
C355 C354 1.385 . S
C356 C354 1.478 . S
C356 C358 1.381 . S
C356 C362 1.383 . S
C357 C353 1.495 . S
C357 H363 0.959 . S
C357 H364 0.961 . S
C357 H365 0.960 . S
C358 C356 1.381 . S
C358 C359 1.394 . S
C358 H366 0.930 . S
C359 C358 1.394 . S
C359 C360 1.383 . S
C359 H367 0.929 . S
C360 C359 1.383 . S
C360 C361 1.377 . S
C361 H345 0.930 . S
C361 C360 1.377 . S
C361 C362 1.379 . S
C362 H346 0.931 . S
C362 C356 1.383 . S
C362 C361 1.379 . S
H363 C357 0.959 . S
H364 C357 0.961 . S
H365 C357 0.960 . S
H366 C358 0.930 . S
H367 C359 0.929 . S
H368 C376 0.929 . S
H369 C378 0.930 1_655 S
H370 C380 0.930 . S
H371 C383 0.929 . S
H372 C386 0.930 . S
H373 C388 0.960 . S
H374 C388 0.960 . S
H375 C388 0.960 . S
C376 H368 0.929 . S
C376 C377 1.377 . S
C376 C378 1.384 . S
C377 C376 1.377 . S
C377 C383 1.390 . S
C378 H369 0.930 1_455 S
C378 C376 1.384 . S
C378 C379 1.372 1_455 S
C379 C378 1.372 1_655 S
C379 C380 1.400 . S
C379 C384 1.490 . S
C380 H370 0.930 . S
C380 C379 1.400 . S
C380 C383 1.386 1_655 S
H381 C397 0.930 . S
H382 C398 0.931 . S
C383 H371 0.929 . S
C383 C377 1.390 . S
C383 C380 1.386 1_455 S
C384 C379 1.490 . S
C384 C386 1.395 . S
C384 C387 1.403 . S
H385 C391 0.930 . S
C386 H372 0.930 . S
C386 C384 1.395 . S
C386 C389 1.403 . S
C387 C384 1.403 . S
C387 C388 1.524 . S
C387 C391 1.400 . S
C388 H373 0.960 . S
C388 H374 0.960 . S
C388 H375 0.960 . S
C388 C387 1.524 . S
C389 C386 1.403 . S
C389 C390 1.392 . S
C389 C393 1.495 . S
C390 C389 1.392 . S
C390 C391 1.385 . S
C390 C392 1.478 . S
C391 H385 0.930 . S
C391 C387 1.400 . S
C391 C390 1.385 . S
C392 C390 1.478 . S
C392 C394 1.381 . S
C392 C398 1.383 . S
C393 C389 1.495 . S
C393 H399 0.959 . S
C393 H400 0.961 . S
C393 H401 0.960 . S
C394 C392 1.381 . S
C394 C395 1.394 . S
C394 H402 0.930 . S
C395 C394 1.394 . S
C395 C396 1.383 . S
C395 H403 0.929 . S
C396 C395 1.383 . S
C396 C397 1.377 . S
C397 H381 0.930 . S
C397 C396 1.377 . S
C397 C398 1.379 . S
C398 H382 0.931 . S
C398 C392 1.383 . S
C398 C397 1.379 . S
H399 C393 0.959 . S
H400 C393 0.961 . S
H401 C393 0.960 . S
H402 C394 0.930 . S
H403 C395 0.929 . S
H404 C412 0.929 . S
H405 C414 0.930 . S
H406 C416 0.927 . S
H407 C419 0.929 . S
H408 C422 0.930 . S
H409 C424 0.960 . S
H410 C424 0.960 . S
H411 C424 0.960 . S
C412 H404 0.929 . S
C412 C413 1.377 . S
C412 C414 1.384 1_545 S
C413 C412 1.377 . S
C413 C419 1.390 . S
C414 H405 0.930 . S
C414 C412 1.384 1_565 S
C414 C415 1.372 . S
C415 C414 1.372 . S
C415 C416 1.407 . S
C415 C420 1.490 . S
C416 H406 0.927 . S
C416 C415 1.407 . S
C416 C419 1.381 1_565 S
H417 C433 0.930 . S
H418 C434 0.931 1_455 S
C419 H407 0.929 . S
C419 C413 1.390 . S
C419 C416 1.381 1_545 S
C420 C415 1.490 . S
C420 C422 1.395 . S
C420 C423 1.403 . S
H421 C427 0.930 . S
C422 H408 0.930 . S
C422 C420 1.395 . S
C422 C425 1.403 . S
C423 C420 1.403 . S
C423 C424 1.524 . S
C423 C427 1.400 . S
C424 H409 0.960 . S
C424 H410 0.960 . S
C424 H411 0.960 . S
C424 C423 1.524 . S
C425 C422 1.403 . S
C425 C426 1.392 . S
C425 C429 1.495 . S
C426 C425 1.392 . S
C426 C427 1.385 . S
C426 C428 1.478 . S
C427 H421 0.930 . S
C427 C423 1.400 . S
C427 C426 1.385 . S
C428 C426 1.478 . S
C428 C430 1.381 . S
C428 C434 1.383 1_455 S
C429 C425 1.495 . S
C429 H435 0.959 . S
C429 H436 0.961 . S
C429 H437 0.960 . S
C430 C428 1.381 . S
C430 C431 1.394 1_455 S
C430 H438 0.930 . S
C431 C430 1.394 1_655 S
C431 C432 1.383 . S
C431 H439 0.929 . S
C432 C431 1.383 . S
C432 C433 1.377 . S
C433 H417 0.930 . S
C433 C432 1.377 . S
C433 C434 1.379 . S
C434 H418 0.931 1_655 S
C434 C428 1.383 1_655 S
C434 C433 1.379 . S
H435 C429 0.959 . S
H436 C429 0.961 . S
H437 C429 0.960 . S
H438 C430 0.930 . S
H439 C431 0.929 . S
H440 C448 0.929 . S
H441 C450 0.930 . S
H442 C452 0.930 . S
H443 C455 0.929 . S
H444 C458 0.930 . S
H445 C460 0.960 . S
H446 C460 0.960 . S
H447 C460 0.960 . S
C448 H440 0.929 . S
C448 C449 1.377 . S
C448 C450 1.384 . S
C449 C448 1.377 . S
C449 C455 1.390 . S
C450 H441 0.930 . S
C450 C448 1.384 . S
C450 C451 1.372 . S
C451 C450 1.372 . S
C451 C452 1.400 . S
C451 C456 1.490 . S
C452 H442 0.930 . S
C452 C451 1.400 . S
C452 C455 1.386 . S
H453 C469 0.930 . S
H454 C470 0.931 . S
C455 H443 0.929 . S
C455 C449 1.390 . S
C455 C452 1.386 . S
C456 C451 1.490 . S
C456 C458 1.395 . S
C456 C459 1.403 . S
H457 C463 0.930 . S
C458 H444 0.930 . S
C458 C456 1.395 . S
C458 C461 1.403 . S
C459 C456 1.403 . S
C459 C460 1.524 . S
C459 C463 1.400 . S
C460 H445 0.960 . S
C460 H446 0.960 . S
C460 H447 0.960 . S
C460 C459 1.524 . S
C461 C458 1.403 . S
C461 C462 1.392 . S
C461 C465 1.495 . S
C462 C461 1.392 . S
C462 C463 1.385 . S
C462 C464 1.478 . S
C463 H457 0.930 . S
C463 C459 1.400 . S
C463 C462 1.385 . S
C464 C462 1.478 . S
C464 C466 1.381 . S
C464 C470 1.383 1_545 S
C465 C461 1.495 . S
C465 H471 0.959 . S
C465 H472 0.961 . S
C465 H473 0.960 . S
C466 C464 1.381 . S
C466 C467 1.394 1_545 S
C466 H474 0.930 . S
C467 C466 1.394 1_565 S
C467 C468 1.383 . S
C467 H475 0.926 . S
C468 C467 1.383 . S
C468 C469 1.377 . S
C469 H453 0.930 . S
C469 C468 1.377 . S
C469 C470 1.379 . S
C470 H454 0.931 . S
C470 C464 1.383 1_565 S
C470 C469 1.379 . S
H471 C465 0.959 . S
H472 C465 0.961 . S
H473 C465 0.960 . S
H474 C466 0.930 . S
H475 C467 0.926 . S
H476 C484 0.929 . S
H477 C486 0.930 . S
H478 C488 0.930 . S
H479 C491 0.929 . S
H480 C494 0.930 . S
H481 C496 0.960 . S
H482 C496 0.960 . S
H483 C496 0.960 . S
C484 H476 0.929 . S
C484 C485 1.377 . S
C484 C486 1.384 . S
C485 C484 1.377 . S
C485 C491 1.390 . S
C486 H477 0.930 . S
C486 C484 1.384 . S
C486 C487 1.372 . S
C487 C486 1.372 . S
C487 C488 1.400 . S
C487 C492 1.490 . S
C488 H478 0.930 . S
C488 C487 1.400 . S
C488 C491 1.386 . S
H489 C505 0.930 . S
H490 C506 0.931 . S
C491 H479 0.929 . S
C491 C485 1.390 . S
C491 C488 1.386 . S
C492 C487 1.490 . S
C492 C494 1.395 . S
C492 C495 1.403 . S
H493 C499 0.930 . S
C494 H480 0.930 . S
C494 C492 1.395 . S
C494 C497 1.403 . S
C495 C492 1.403 . S
C495 C496 1.524 . S
C495 C499 1.400 . S
C496 H481 0.960 . S
C496 H482 0.960 . S
C496 H483 0.960 . S
C496 C495 1.524 . S
C497 C494 1.403 . S
C497 C498 1.392 . S
C497 C501 1.495 . S
C498 C497 1.392 . S
C498 C499 1.385 . S
C498 C500 1.478 . S
C499 H493 0.930 . S
C499 C495 1.400 . S
C499 C498 1.385 . S
C500 C498 1.478 . S
C500 C502 1.381 . S
C500 C506 1.383 1_455 S
C501 C497 1.495 . S
C501 H507 0.959 . S
C501 H508 0.961 . S
C501 H509 0.960 . S
C502 C500 1.381 . S
C502 C503 1.394 1_455 S
C502 H510 0.930 . S
C503 C502 1.394 1_655 S
C503 C504 1.383 . S
C503 H511 0.929 . S
C504 C503 1.383 . S
C504 C505 1.377 . S
C505 H489 0.930 . S
C505 C504 1.377 . S
C505 C506 1.379 . S
C506 H490 0.931 . S
C506 C500 1.383 1_655 S
C506 C505 1.379 . S
H507 C501 0.959 . S
H508 C501 0.961 . S
H509 C501 0.960 . S
H510 C502 0.930 . S
H511 C503 0.929 . S
H512 C520 0.929 . S
H513 C522 0.930 . S
H514 C524 0.930 . S
H515 C527 0.929 . S
H516 C530 0.930 . S
H517 C532 0.960 . S
H518 C532 0.960 . S
H519 C532 0.960 . S
C520 H512 0.929 . S
C520 C521 1.377 . S
C520 C522 1.384 1_455 S
C521 C520 1.377 . S
C521 C527 1.390 . S
C522 H513 0.930 . S
C522 C520 1.384 1_655 S
C522 C523 1.372 . S
C523 C522 1.372 . S
C523 C524 1.400 1_655 S
C523 C528 1.490 . S
C524 H514 0.930 . S
C524 C523 1.400 1_455 S
C524 C527 1.386 . S
H525 C541 0.930 . S
H526 C542 0.931 . S
C527 H515 0.929 . S
C527 C521 1.390 . S
C527 C524 1.386 . S
C528 C523 1.490 . S
C528 C530 1.395 . S
C528 C531 1.403 . S
H529 C535 0.930 . S
C530 H516 0.930 . S
C530 C528 1.395 . S
C530 C533 1.403 . S
C531 C528 1.403 . S
C531 C532 1.524 . S
C531 C535 1.400 . S
C532 H517 0.960 . S
C532 H518 0.960 . S
C532 H519 0.960 . S
C532 C531 1.524 . S
C533 C530 1.403 . S
C533 C534 1.392 . S
C533 C537 1.495 . S
C534 C533 1.392 . S
C534 C535 1.385 . S
C534 C536 1.478 . S
C535 H529 0.930 . S
C535 C531 1.400 . S
C535 C534 1.385 . S
C536 C534 1.478 . S
C536 C538 1.381 . S
C536 C542 1.383 1_545 S
C537 C533 1.495 . S
C537 H543 0.959 . S
C537 H544 0.961 . S
C537 H545 0.960 . S
C538 C536 1.381 . S
C538 C539 1.394 1_545 S
C538 H546 0.930 . S
C539 C538 1.394 1_565 S
C539 C540 1.383 . S
C539 H547 0.929 . S
C540 C539 1.383 . S
C540 C541 1.377 . S
C541 H525 0.930 . S
C541 C540 1.377 . S
C541 C542 1.379 . S
C542 H526 0.931 . S
C542 C536 1.383 1_565 S
C542 C541 1.379 . S
H543 C537 0.959 . S
H544 C537 0.961 . S
H545 C537 0.960 . S
H546 C538 0.930 . S
H547 C539 0.929 . S
C125 C107 1.759 . S
C144 C54 1.862 . S
C161 C106 1.856 . S
C180 C55 1.765 . S
C197 C52 1.855 . S
C216 C114 1.736 . S
C233 C115 1.858 . S
C252 C53 1.724 . S
C269 C49 1.856 . S
C288 C109 1.758 . S
C305 C48 1.759 . S
C324 C108 1.861 . S
C341 C50 1.008 . S
C360 C51 1.017 . S
C377 C112 1.007 . S
C396 C113 0.993 . S
C413 C46 1.008 . S
C432 C47 0.992 . S
C449 C111 1.008 . S
C468 C110 1.016 . S
C485 C56 1.007 . S
C504 C57 1.010 . S
C521 C104 1.010 . S
C540 C105 0.995 . S
