# Generated by pormake.
# Topology vch, (7)-cn, num edge types: 1
# Building blocks:
#     Node 0, Type 0, BuildingBlock: NUHQUE_clean_sbu_2, # of connection points: 7
#     Node 1, Type 0, BuildingBlock: NUHQUE_clean_sbu_2, # of connection points: 7
#     Node 2, Type 0, BuildingBlock: NUHQUE_clean_sbu_2, # of connection points: 7
#     Node 3, Type 0, BuildingBlock: NUHQUE_clean_sbu_2, # of connection points: 7
#     Node 4, Type 0, BuildingBlock: NUHQUE_clean_sbu_2, # of connection points: 7
#     Node 5, Type 0, BuildingBlock: NUHQUE_clean_sbu_2, # of connection points: 7
#     Node 6, Type 0, BuildingBlock: NUHQUE_clean_sbu_2, # of connection points: 7
#     Node 7, Type 0, BuildingBlock: NUHQUE_clean_sbu_2, # of connection points: 7
#     Node 8, Type 0, BuildingBlock: NUHQUE_clean_sbu_2, # of connection points: 7
#     Node 9, Type 0, BuildingBlock: NUHQUE_clean_sbu_2, # of connection points: 7
#     Node 10, Type 0, BuildingBlock: NUHQUE_clean_sbu_2, # of connection points: 7
#     Node 11, Type 0, BuildingBlock: NUHQUE_clean_sbu_2, # of connection points: 7
#     Node 12, Type 0, BuildingBlock: NUHQUE_clean_sbu_2, # of connection points: 7
#     Node 13, Type 0, BuildingBlock: NUHQUE_clean_sbu_2, # of connection points: 7
#     Node 14, Type 0, BuildingBlock: NUHQUE_clean_sbu_2, # of connection points: 7
#     Node 15, Type 0, BuildingBlock: NUHQUE_clean_sbu_2, # of connection points: 7
#     Edge 16, Type (0, 0), BuildingBlock: TEMPAE_clean_linker_10, # of connection points: 2
#     Edge 17, Type (0, 0), BuildingBlock: TEMPAE_clean_linker_10, # of connection points: 2
#     Edge 18, Type (0, 0), BuildingBlock: TEMPAE_clean_linker_10, # of connection points: 2
#     Edge 19, Type (0, 0), BuildingBlock: TEMPAE_clean_linker_10, # of connection points: 2
#     Edge 20, Type (0, 0), BuildingBlock: TEMPAE_clean_linker_10, # of connection points: 2
#     Edge 21, Type (0, 0), BuildingBlock: TEMPAE_clean_linker_10, # of connection points: 2
#     Edge 22, Type (0, 0), BuildingBlock: TEMPAE_clean_linker_10, # of connection points: 2
#     Edge 23, Type (0, 0), BuildingBlock: TEMPAE_clean_linker_10, # of connection points: 2
#     Edge 24, Type (0, 0), BuildingBlock: TEMPAE_clean_linker_10, # of connection points: 2
#     Edge 25, Type (0, 0), BuildingBlock: TEMPAE_clean_linker_10, # of connection points: 2
#     Edge 26, Type (0, 0), BuildingBlock: TEMPAE_clean_linker_10, # of connection points: 2
#     Edge 27, Type (0, 0), BuildingBlock: TEMPAE_clean_linker_10, # of connection points: 2
#     Edge 28, Type (0, 0), BuildingBlock: TEMPAE_clean_linker_10, # of connection points: 2
#     Edge 29, Type (0, 0), BuildingBlock: TEMPAE_clean_linker_10, # of connection points: 2
#     Edge 30, Type (0, 0), BuildingBlock: TEMPAE_clean_linker_10, # of connection points: 2
#     Edge 31, Type (0, 0), BuildingBlock: TEMPAE_clean_linker_10, # of connection points: 2
#     Edge 32, Type (0, 0), BuildingBlock: TEMPAE_clean_linker_10, # of connection points: 2
#     Edge 33, Type (0, 0), BuildingBlock: TEMPAE_clean_linker_10, # of connection points: 2
#     Edge 34, Type (0, 0), BuildingBlock: TEMPAE_clean_linker_10, # of connection points: 2
#     Edge 35, Type (0, 0), BuildingBlock: TEMPAE_clean_linker_10, # of connection points: 2
#     Edge 36, Type (0, 0), BuildingBlock: TEMPAE_clean_linker_10, # of connection points: 2
#     Edge 37, Type (0, 0), BuildingBlock: TEMPAE_clean_linker_10, # of connection points: 2
#     Edge 38, Type (0, 0), BuildingBlock: TEMPAE_clean_linker_10, # of connection points: 2
#     Edge 39, Type (0, 0), BuildingBlock: TEMPAE_clean_linker_10, # of connection points: 2
#     Edge 40, Type (0, 0), BuildingBlock: TEMPAE_clean_linker_10, # of connection points: 2
#     Edge 41, Type (0, 0), BuildingBlock: TEMPAE_clean_linker_10, # of connection points: 2
#     Edge 42, Type (0, 0), BuildingBlock: TEMPAE_clean_linker_10, # of connection points: 2
#     Edge 43, Type (0, 0), BuildingBlock: TEMPAE_clean_linker_10, # of connection points: 2
#     Edge 44, Type (0, 0), BuildingBlock: TEMPAE_clean_linker_10, # of connection points: 2
#     Edge 45, Type (0, 0), BuildingBlock: TEMPAE_clean_linker_10, # of connection points: 2
#     Edge 46, Type (0, 0), BuildingBlock: TEMPAE_clean_linker_10, # of connection points: 2
#     Edge 47, Type (0, 0), BuildingBlock: TEMPAE_clean_linker_10, # of connection points: 2
#     Edge 48, Type (0, 0), BuildingBlock: TEMPAE_clean_linker_10, # of connection points: 2
#     Edge 49, Type (0, 0), BuildingBlock: TEMPAE_clean_linker_10, # of connection points: 2
#     Edge 50, Type (0, 0), BuildingBlock: TEMPAE_clean_linker_10, # of connection points: 2
#     Edge 51, Type (0, 0), BuildingBlock: TEMPAE_clean_linker_10, # of connection points: 2
#     Edge 52, Type (0, 0), BuildingBlock: TEMPAE_clean_linker_10, # of connection points: 2
#     Edge 53, Type (0, 0), BuildingBlock: TEMPAE_clean_linker_10, # of connection points: 2
#     Edge 54, Type (0, 0), BuildingBlock: TEMPAE_clean_linker_10, # of connection points: 2
#     Edge 55, Type (0, 0), BuildingBlock: TEMPAE_clean_linker_10, # of connection points: 2
#     Edge 56, Type (0, 0), BuildingBlock: TEMPAE_clean_linker_10, # of connection points: 2
#     Edge 57, Type (0, 0), BuildingBlock: TEMPAE_clean_linker_10, # of connection points: 2
#     Edge 58, Type (0, 0), BuildingBlock: TEMPAE_clean_linker_10, # of connection points: 2
#     Edge 59, Type (0, 0), BuildingBlock: TEMPAE_clean_linker_10, # of connection points: 2
#     Edge 60, Type (0, 0), BuildingBlock: TEMPAE_clean_linker_10, # of connection points: 2
#     Edge 61, Type (0, 0), BuildingBlock: TEMPAE_clean_linker_10, # of connection points: 2
#     Edge 62, Type (0, 0), BuildingBlock: TEMPAE_clean_linker_10, # of connection points: 2
#     Edge 63, Type (0, 0), BuildingBlock: TEMPAE_clean_linker_10, # of connection points: 2
#     Edge 64, Type (0, 0), BuildingBlock: TEMPAE_clean_linker_10, # of connection points: 2
#     Edge 65, Type (0, 0), BuildingBlock: TEMPAE_clean_linker_10, # of connection points: 2
#     Edge 66, Type (0, 0), BuildingBlock: TEMPAE_clean_linker_10, # of connection points: 2
#     Edge 67, Type (0, 0), BuildingBlock: TEMPAE_clean_linker_10, # of connection points: 2
#     Edge 68, Type (0, 0), BuildingBlock: TEMPAE_clean_linker_10, # of connection points: 2
#     Edge 69, Type (0, 0), BuildingBlock: TEMPAE_clean_linker_10, # of connection points: 2
#     Edge 70, Type (0, 0), BuildingBlock: TEMPAE_clean_linker_10, # of connection points: 2
#     Edge 71, Type (0, 0), BuildingBlock: TEMPAE_clean_linker_10, # of connection points: 2
# Relax obj value: 0.144
# Max RMSD: 0.214
# Mean RMSD: 0.214
data_MOF--net-vch--node1-NUHQUE_clean_sbu_2--edge1-TEMPAE_clean_linker_10
_symmetry_space_group_name_H-M    P1
_symmetry_Int_Tables_number       1
_symmetry_cell_setting            triclinic
loop_
_symmetry_equiv_pos_as_xyz
'x, y, z'
_cell_length_a     21.716155
_cell_length_b     52.239609
_cell_length_c     67.68547
_cell_angle_alpha  89.974272
_cell_angle_beta   89.931997
_cell_angle_gamma 90.042236
loop_
_atom_site_label
_atom_site_type_symbol
_atom_site_fract_x
_atom_site_fract_y
_atom_site_fract_z
_atom_type_partial_charge
O0 O 0.18039 0.11093 0.0712 0.0
Tb1 Tb 0.15908 0.11843 0.10195 0.0
Eu2 Eu 0.98011 0.10228 0.13284 0.0
C3 C 0.17996 0.12977 0.05834 0.0
O4 O 0.16103 0.15251 0.06396 0.0
C5 C 0.09038 0.07385 0.12215 0.0
O6 O 0.97581 0.10431 0.16588 0.0
C7 C 0.87363 0.08973 0.11848 0.0
C8 C 0.98375 0.12585 0.17554 0.0
O9 O 0.99527 0.14699 0.16569 0.0
C10 C 0.04991 0.15857 0.11446 0.0
C11 C 0.81995 0.09995 0.10763 0.0
C12 C 0.82492 0.10765 0.08774 0.0
C13 C 0.77253 0.11553 0.07725 0.0
C14 C 0.71524 0.11565 0.08676 0.0
C15 C 0.70897 0.10736 0.10636 0.0
C16 C 0.76171 0.09989 0.11685 0.0
O17 O 0.08579 0.09548 0.11269 0.0
O18 O 0.04411 0.06881 0.13352 0.0
O19 O 0.22981 0.10045 0.12029 0.0
O20 O 0.23813 0.13983 0.11303 0.0
C21 C 0.26398 0.12076 0.12221 0.0
O22 O 0.01019 0.14244 0.123 0.0
O23 O 0.10383 0.15286 0.1061 0.0
O24 O 0.88128 0.09781 0.1367 0.0
O25 O 0.92572 0.08676 0.10873 0.0
H26 H 0.86909 0.10717 0.08028 0.0
H27 H 0.67458 0.12131 0.07856 0.0
H28 H 0.75709 0.09306 0.13191 0.0
O29 O 0.35457 0.88587 0.09017 0.0
Tb30 Tb 0.33968 0.88162 0.12193 0.0
Eu31 Eu 0.50565 0.89505 0.12504 0.0
C32 C 0.33495 0.9065 0.08085 0.0
O33 O 0.31594 0.92612 0.09132 0.0
C34 C 0.39609 0.93218 0.13078 0.0
O35 O 0.502 0.89886 0.15851 0.0
C36 C 0.61299 0.90588 0.11009 0.0
C37 C 0.49579 0.8789 0.17029 0.0
O38 O 0.49247 0.85596 0.16242 0.0
C39 C 0.43979 0.83765 0.12099 0.0
C40 C 0.66813 0.89449 0.10043 0.0
C41 C 0.6725 0.89291 0.07959 0.0
C42 C 0.7275 0.88483 0.07036 0.0
C43 C 0.77778 0.87834 0.08238 0.0
C44 C 0.77418 0.87937 0.10304 0.0
C45 C 0.71947 0.88765 0.11198 0.0
O46 O 0.37437 0.91223 0.14007 0.0
O47 O 0.44409 0.92892 0.11939 0.0
O48 O 0.24669 0.8926 0.11362 0.0
O49 O 0.25789 0.86697 0.13759 0.0
C50 C 0.21796 0.87935 0.12691 0.0
O51 O 0.48624 0.85348 0.1176 0.0
O52 O 0.38342 0.8448 0.12572 0.0
O53 O 0.60404 0.90114 0.12899 0.0
O54 O 0.56154 0.90673 0.09988 0.0
H55 H 0.63348 0.89838 0.07058 0.0
H56 H 0.82164 0.8737 0.07563 0.0
H57 H 0.71749 0.88926 0.12794 0.0
O58 O 0.63956 0.89271 0.42995 0.0
Tb59 Tb 0.63301 0.89053 0.39786 0.0
Eu60 Eu 0.45826 0.90255 0.36422 0.0
C61 C 0.66796 0.91228 0.43822 0.0
O62 O 0.68388 0.93185 0.42714 0.0
C63 C 0.56631 0.93319 0.37328 0.0
O64 O 0.44844 0.89828 0.33097 0.0
C65 C 0.35741 0.91445 0.38292 0.0
C66 C 0.49842 0.89629 0.31997 0.0
O67 O 0.55225 0.89641 0.32882 0.0
C68 C 0.53335 0.84766 0.38339 0.0
C69 C 0.30567 0.90517 0.39551 0.0
C70 C 0.30943 0.90592 0.41639 0.0
C71 C 0.25782 0.89974 0.42812 0.0
C72 C 0.20231 0.89347 0.41876 0.0
C73 C 0.19725 0.89262 0.39811 0.0
C74 C 0.24928 0.89842 0.38658 0.0
O75 O 0.564 0.91144 0.38269 0.0
O76 O 0.51879 0.93732 0.36227 0.0
O77 O 0.71794 0.9114 0.39229 0.0
O78 O 0.71092 0.87304 0.38217 0.0
C79 C 0.74681 0.89298 0.38336 0.0
O80 O 0.49327 0.86289 0.37402 0.0
O81 O 0.5845 0.8546 0.39293 0.0
O82 O 0.35873 0.90735 0.36425 0.0
O83 O 0.41252 0.91633 0.39086 0.0
H84 H 0.35198 0.91155 0.42351 0.0
H85 H 0.16166 0.89038 0.42776 0.0
H86 H 0.24543 0.89825 0.37063 0.0
O87 O 0.83426 0.08967 0.43134 0.0
Tb88 Tb 0.84858 0.10105 0.40085 0.0
Eu89 Eu 0.01978 0.09126 0.36429 0.0
C90 C 0.84362 0.1063 0.44559 0.0
O91 O 0.86776 0.12867 0.44124 0.0
C92 C 0.91174 0.06086 0.37401 0.0
O93 O 0.02261 0.10015 0.33197 0.0
C94 C 0.12585 0.07573 0.37719 0.0
C95 C 0.97566 0.11159 0.32356 0.0
O96 O 0.92729 0.11745 0.33433 0.0
C97 C 0.95254 0.14371 0.38904 0.0
C98 C 0.17793 0.08258 0.39022 0.0
C99 C 0.16984 0.08395 0.41085 0.0
C100 C 0.22072 0.08716 0.42325 0.0
C101 C 0.27938 0.09004 0.41506 0.0
C102 C 0.28898 0.08835 0.39461 0.0
C103 C 0.23775 0.08484 0.38219 0.0
O104 O 0.91878 0.08048 0.38573 0.0
O105 O 0.95454 0.05843 0.36084 0.0
O106 O 0.7732 0.08529 0.38318 0.0
O107 O 0.76751 0.12372 0.39314 0.0
C108 C 0.73923 0.10579 0.38336 0.0
O109 O 0.98992 0.12936 0.378 0.0
O110 O 0.90204 0.13638 0.39874 0.0
O111 O 0.11947 0.08874 0.36068 0.0
O112 O 0.07308 0.06984 0.38566 0.0
H113 H 0.12467 0.08136 0.41738 0.0
H114 H 0.31812 0.09314 0.42488 0.0
H115 H 0.2446 0.0828 0.3664 0.0
O116 O 0.85029 0.88015 0.91422 0.0
Tb117 Tb 0.83634 0.88339 0.88243 0.0
Eu118 Eu 0.9981 0.89708 0.88324 0.0
C119 C 0.84266 0.89991 0.92605 0.0
O120 O 0.83602 0.92287 0.91848 0.0
C121 C 0.89071 0.93664 0.87756 0.0
O122 O 0.99079 0.90003 0.84986 0.0
C123 C 0.10854 0.90728 0.89605 0.0
C124 C 0.00328 0.88059 0.83812 0.0
O125 O 0.01989 0.85868 0.84602 0.0
C126 C 0.93616 0.84128 0.88243 0.0
C127 C 0.16434 0.89681 0.90596 0.0
C128 C 0.17166 0.89905 0.92666 0.0
C129 C 0.22759 0.89227 0.93578 0.0
C130 C 0.27523 0.88232 0.92412 0.0
C131 C 0.26962 0.88036 0.90356 0.0
C132 C 0.2142 0.88776 0.89452 0.0
O133 O 0.86414 0.91819 0.86764 0.0
O134 O 0.93847 0.93171 0.88879 0.0
O135 O 0.74351 0.89328 0.8918 0.0
O136 O 0.75407 0.86809 0.86748 0.0
C137 C 0.71432 0.87982 0.87872 0.0
O138 O 0.9725 0.85675 0.89249 0.0
O139 O 0.88716 0.84978 0.87306 0.0
O140 O 0.09683 0.90004 0.87782 0.0
O141 O 0.0585 0.91042 0.90675 0.0
H142 H 0.13516 0.90725 0.93557 0.0
H143 H 0.31849 0.87721 0.93107 0.0
H144 H 0.21067 0.88708 0.87856 0.0
O145 O 0.71763 0.14066 0.91964 0.0
Tb146 Tb 0.69681 0.13967 0.88839 0.0
Eu147 Eu 0.51164 0.11933 0.86371 0.0
C148 C 0.68377 0.12836 0.93261 0.0
O149 O 0.63457 0.11596 0.92662 0.0
C150 C 0.62667 0.09164 0.87299 0.0
O151 O 0.52583 0.12851 0.83162 0.0
C152 C 0.40177 0.1033 0.872 0.0
C153 C 0.50311 0.14923 0.82339 0.0
O154 O 0.47101 0.16535 0.83416 0.0
C155 C 0.57951 0.17095 0.87609 0.0
C156 C 0.34633 0.10728 0.88417 0.0
C157 C 0.34847 0.10836 0.905 0.0
C158 C 0.29354 0.11036 0.91592 0.0
C159 C 0.23751 0.11238 0.9058 0.0
C160 C 0.23433 0.11014 0.88519 0.0
C161 C 0.28922 0.10781 0.87446 0.0
O162 O 0.62378 0.11315 0.88274 0.0
O163 O 0.57774 0.0863 0.86273 0.0
O164 O 0.76388 0.11752 0.87146 0.0
O165 O 0.77673 0.15766 0.87486 0.0
C166 C 0.7994 0.13684 0.86723 0.0
O167 O 0.54664 0.15175 0.88324 0.0
O168 O 0.64022 0.17127 0.87786 0.0
O169 O 0.41308 0.12027 0.85808 0.0
O170 O 0.45154 0.09443 0.88069 0.0
H171 H 0.39211 0.10688 0.91266 0.0
H172 H 0.19569 0.11548 0.91422 0.0
H173 H 0.28765 0.10566 0.85853 0.0
O174 O 0.33368 0.10699 0.57448 0.0
Tb175 Tb 0.35077 0.11301 0.60557 0.0
Eu176 Eu 0.52954 0.10464 0.63914 0.0
C177 C 0.28364 0.09469 0.56907 0.0
O178 O 0.24727 0.08509 0.58272 0.0
C179 C 0.42079 0.07141 0.62944 0.0
O180 O 0.50905 0.1197 0.6695 0.0
C181 C 0.64163 0.08909 0.63463 0.0
C182 C 0.53234 0.14123 0.67621 0.0
O183 O 0.56811 0.15506 0.66473 0.0
C184 C 0.45906 0.14905 0.61691 0.0
C185 C 0.69437 0.08891 0.62109 0.0
C186 C 0.68756 0.08798 0.60037 0.0
C187 C 0.74011 0.08671 0.58823 0.0
C188 C 0.79854 0.08743 0.59699 0.0
C189 C 0.80578 0.08781 0.61757 0.0
C190 C 0.75324 0.08859 0.62952 0.0
O191 O 0.42482 0.08883 0.61561 0.0
O192 O 0.46502 0.07124 0.64245 0.0
O193 O 0.28304 0.09403 0.62443 0.0
O194 O 0.26787 0.13252 0.61547 0.0
C195 C 0.24586 0.11347 0.62561 0.0
O196 O 0.49403 0.12886 0.61386 0.0
O197 O 0.39999 0.14822 0.61239 0.0
O198 O 0.62775 0.11109 0.64299 0.0
O199 O 0.59347 0.07523 0.62973 0.0
H200 H 0.64205 0.08771 0.59382 0.0
H201 H 0.83889 0.08799 0.58755 0.0
H202 H 0.75792 0.08855 0.64547 0.0
O203 O 0.1961 0.89205 0.58625 0.0
Tb204 Tb 0.17567 0.8868 0.61756 0.0
Eu205 Eu 0.98705 0.90374 0.64403 0.0
C206 C 0.16826 0.90812 0.57426 0.0
O207 O 0.12245 0.92215 0.58085 0.0
C208 C 0.10119 0.93253 0.63705 0.0
O209 O 0.975 0.89933 0.67718 0.0
C210 C 0.88584 0.91527 0.62551 0.0
C211 C 0.02317 0.9006 0.68898 0.0
O212 O 0.07778 0.90429 0.68109 0.0
C213 C 0.06203 0.84743 0.62788 0.0
C214 C 0.83202 0.90577 0.61409 0.0
C215 C 0.83278 0.90633 0.59318 0.0
C216 C 0.77901 0.90094 0.5824 0.0
C217 C 0.72549 0.89401 0.59255 0.0
C218 C 0.72243 0.89483 0.61321 0.0
C219 C 0.7762 0.9002 0.62396 0.0
O220 O 0.10561 0.90849 0.63193 0.0
O221 O 0.04808 0.93843 0.64442 0.0
O222 O 0.25595 0.90174 0.63308 0.0
O223 O 0.24752 0.8616 0.62912 0.0
C224 C 0.28189 0.87972 0.63634 0.0
O225 O 0.01991 0.86345 0.6353 0.0
O226 O 0.1179 0.8529 0.62084 0.0
O227 O 0.88813 0.91033 0.64456 0.0
O228 O 0.94027 0.91506 0.61695 0.0
H229 H 0.87385 0.91235 0.58533 0.0
H230 H 0.68452 0.88931 0.58414 0.0
H231 H 0.77364 0.90152 0.63991 0.0
O232 O 0.64834 0.59723 0.07287 0.0
Tb233 Tb 0.63048 0.60661 0.10366 0.0
Eu234 Eu 0.45036 0.59315 0.13419 0.0
C235 C 0.70508 0.59275 0.06693 0.0
O236 O 0.74984 0.59311 0.07996 0.0
C237 C 0.55721 0.56196 0.12403 0.0
O238 O 0.44692 0.59887 0.16705 0.0
C239 C 0.3429 0.58324 0.11939 0.0
C240 C 0.49307 0.61005 0.17615 0.0
O241 O 0.54075 0.61773 0.16574 0.0
C242 C 0.52362 0.64804 0.1152 0.0
C243 C 0.28849 0.59473 0.10969 0.0
C244 C 0.29096 0.60312 0.08988 0.0
C245 C 0.23708 0.61089 0.08005 0.0
C246 C 0.181 0.61034 0.09031 0.0
C247 C 0.17757 0.60187 0.1099 0.0
C248 C 0.2315 0.5944 0.11966 0.0
O249 O 0.55772 0.58479 0.11615 0.0
O250 O 0.50827 0.5577 0.13444 0.0
O251 O 0.7091 0.6297 0.11276 0.0
O252 O 0.70037 0.59196 0.12409 0.0
C253 C 0.73435 0.6125 0.12405 0.0
O254 O 0.48368 0.63298 0.12472 0.0
O255 O 0.57512 0.64124 0.10587 0.0
O256 O 0.35155 0.58844 0.13819 0.0
O257 O 0.3944 0.5817 0.10916 0.0
H258 H 0.33429 0.60297 0.08194 0.0
H259 H 0.13877 0.61542 0.08274 0.0
H260 H 0.22858 0.58713 0.13464 0.0
O261 O 0.81409 0.39279 0.07454 0.0
Tb262 Tb 0.8315 0.38732 0.1062 0.0
Eu263 Eu 0.00317 0.40038 0.14386 0.0
C264 C 0.82564 0.41349 0.06399 0.0
O265 O 0.85471 0.43302 0.07185 0.0
C266 C 0.8999 0.43203 0.12822 0.0
O267 O 0.99612 0.40029 0.17747 0.0
C268 C 0.11276 0.41059 0.13039 0.0
C269 C 0.02228 0.38254 0.18851 0.0
O270 O 0.05363 0.36423 0.17979 0.0
C271 C 0.93621 0.3462 0.12104 0.0
C272 C 0.16377 0.40022 0.11815 0.0
C273 C 0.15523 0.39379 0.09803 0.0
C274 C 0.20546 0.38582 0.08641 0.0
C275 C 0.26406 0.38463 0.09493 0.0
C276 C 0.274 0.39187 0.1146 0.0
C277 C 0.22347 0.39915 0.12629 0.0
O278 O 0.90269 0.40991 0.11918 0.0
O279 O 0.94375 0.43538 0.14099 0.0
O280 O 0.75955 0.40117 0.12641 0.0
O281 O 0.7511 0.36416 0.11403 0.0
C282 C 0.7248 0.38097 0.12541 0.0
O283 O 0.97237 0.36115 0.1321 0.0
O284 O 0.88726 0.35313 0.11045 0.0
O285 O 0.10312 0.40015 0.14781 0.0
O286 O 0.06168 0.41719 0.12129 0.0
H287 H 0.11006 0.39524 0.09134 0.0
H288 H 0.30299 0.37897 0.08588 0.0
H289 H 0.23098 0.4051 0.14144 0.0
O290 O 0.15152 0.37269 0.41951 0.0
Tb291 Tb 0.16165 0.3732 0.38745 0.0
Eu292 Eu 0.99548 0.38939 0.38378 0.0
C293 C 0.16238 0.3931 0.4304 0.0
O294 O 0.16856 0.41551 0.42185 0.0
C295 C 0.10873 0.4253 0.37955 0.0
O296 O 0.00565 0.39162 0.3503 0.0
C297 C 0.88669 0.40131 0.39713 0.0
C298 C 0.97463 0.37654 0.33823 0.0
O299 O 0.93676 0.35954 0.34582 0.0
C300 C 0.0564 0.33188 0.38758 0.0
C301 C 0.8319 0.39048 0.40745 0.0
C302 C 0.82638 0.39209 0.42826 0.0
C303 C 0.77185 0.38432 0.43786 0.0
C304 C 0.72374 0.37421 0.42649 0.0
C305 C 0.72762 0.37288 0.40584 0.0
C306 C 0.78174 0.38111 0.39638 0.0
O307 O 0.12995 0.4053 0.3702 0.0
O308 O 0.0582 0.42284 0.3899 0.0
O309 O 0.25455 0.38512 0.39498 0.0
O310 O 0.24313 0.35695 0.37269 0.0
C311 C 0.28316 0.3704 0.38259 0.0
O312 O 0.01437 0.34856 0.39341 0.0
O313 O 0.11165 0.33825 0.38108 0.0
O314 O 0.89699 0.39432 0.37874 0.0
O315 O 0.93751 0.40396 0.40747 0.0
H316 H 0.86328 0.4004 0.4369 0.0
H317 H 0.68154 0.36835 0.43378 0.0
H318 H 0.78409 0.38072 0.38039 0.0
O319 O 0.34318 0.62306 0.43302 0.0
Tb320 Tb 0.35603 0.61261 0.40226 0.0
Eu321 Eu 0.51566 0.60238 0.3682 0.0
C322 C 0.35514 0.60651 0.44713 0.0
O323 O 0.38158 0.58469 0.44256 0.0
C324 C 0.41615 0.56718 0.38436 0.0
O325 O 0.51479 0.60323 0.335 0.0
C326 C 0.62463 0.58949 0.38067 0.0
C327 C 0.49184 0.62252 0.32496 0.0
O328 O 0.46855 0.64215 0.3345 0.0
C329 C 0.44489 0.65741 0.38471 0.0
C330 C 0.67973 0.59961 0.39103 0.0
C331 C 0.67573 0.60836 0.41068 0.0
C332 C 0.7287 0.61641 0.42079 0.0
C333 C 0.78562 0.61596 0.41105 0.0
C334 C 0.79108 0.60732 0.39153 0.0
C335 C 0.73787 0.59889 0.38159 0.0
O336 O 0.42533 0.58414 0.39817 0.0
O337 O 0.44949 0.56948 0.36848 0.0
O338 O 0.26782 0.59348 0.40657 0.0
O339 O 0.28408 0.61243 0.37934 0.0
C340 C 0.24404 0.59928 0.38956 0.0
O341 O 0.49054 0.64291 0.37779 0.0
O342 O 0.39142 0.6494 0.39211 0.0
O343 O 0.61414 0.59818 0.36276 0.0
O344 O 0.57392 0.58606 0.39108 0.0
H345 H 0.63177 0.60853 0.41827 0.0
H346 H 0.82691 0.62107 0.41915 0.0
H347 H 0.74174 0.59165 0.36664 0.0
O348 O 0.33348 0.38298 0.93345 0.0
Tb349 Tb 0.34425 0.38824 0.90171 0.0
Eu350 Eu 0.5181 0.3969 0.86334 0.0
C351 C 0.28078 0.37386 0.94013 0.0
O352 O 0.23908 0.36653 0.92727 0.0
C353 C 0.41266 0.43043 0.87756 0.0
O354 O 0.5028 0.39035 0.83045 0.0
C355 C 0.62982 0.40965 0.87253 0.0
C356 C 0.53506 0.37395 0.81984 0.0
O357 O 0.57565 0.35931 0.82874 0.0
C358 C 0.438 0.3515 0.88257 0.0
C359 C 0.68063 0.40531 0.88665 0.0
C360 C 0.6764 0.4107 0.90714 0.0
C361 C 0.72869 0.4078 0.91937 0.0
C362 C 0.78351 0.39863 0.91094 0.0
C363 C 0.78846 0.39395 0.89066 0.0
C364 C 0.73695 0.39725 0.87865 0.0
O365 O 0.4178 0.41262 0.89113 0.0
O366 O 0.45497 0.43104 0.8638 0.0
O367 O 0.26154 0.41141 0.89803 0.0
O368 O 0.27027 0.37657 0.88198 0.0
C369 C 0.23489 0.39605 0.88553 0.0
O370 O 0.47693 0.37019 0.88631 0.0
O371 O 0.38245 0.35252 0.89047 0.0
O372 O 0.61643 0.3906 0.86057 0.0
O373 O 0.58148 0.42282 0.87831 0.0
H374 H 0.63372 0.41782 0.91335 0.0
H375 H 0.82387 0.39613 0.92015 0.0
H376 H 0.74109 0.39398 0.86287 0.0
O377 O 0.12992 0.62143 0.92409 0.0
Tb378 Tb 0.13066 0.61179 0.89293 0.0
Eu379 Eu 0.97289 0.60017 0.86631 0.0
C380 C 0.12827 0.60334 0.93758 0.0
O381 O 0.12006 0.57945 0.93217 0.0
C382 C 0.07699 0.56233 0.87848 0.0
O383 O 0.98355 0.6105 0.83422 0.0
C384 C 0.86723 0.57906 0.87433 0.0
C385 C 0.95743 0.63075 0.82632 0.0
O386 O 0.92318 0.64571 0.8374 0.0
C387 C 0.033 0.65208 0.88097 0.0
C388 C 0.81286 0.5802 0.8876 0.0
C389 C 0.81972 0.57995 0.90832 0.0
C390 C 0.76794 0.57766 0.92063 0.0
C391 C 0.70921 0.57612 0.91223 0.0
C392 C 0.70104 0.57705 0.89169 0.0
C393 C 0.75315 0.57919 0.8794 0.0
O394 O 0.07756 0.57674 0.89425 0.0
O395 O 0.04646 0.57012 0.86296 0.0
O396 O 0.20392 0.5972 0.87333 0.0
O397 O 0.22792 0.61581 0.90006 0.0
C398 C 0.24961 0.60436 0.88454 0.0
O399 O 0.9894 0.63534 0.88508 0.0
O400 O 0.09053 0.64487 0.87826 0.0
O401 O 0.87372 0.59715 0.86096 0.0
O402 O 0.91975 0.57163 0.88216 0.0
H403 H 0.86515 0.58081 0.91491 0.0
H404 H 0.66932 0.57489 0.92185 0.0
H405 H 0.74736 0.57934 0.86349 0.0
O406 O 0.8239 0.63313 0.57691 0.0
Tb407 Tb 0.84317 0.62284 0.60723 0.0
Eu408 Eu 0.01656 0.61462 0.63783 0.0
C409 C 0.84413 0.61834 0.56265 0.0
O410 O 0.8797 0.59885 0.56714 0.0
C411 C 0.91668 0.57868 0.62414 0.0
O412 O 0.99084 0.62293 0.66939 0.0
C413 C 0.13202 0.60417 0.63282 0.0
C414 C 0.0106 0.64315 0.67904 0.0
O415 O 0.04579 0.65991 0.66995 0.0
C416 C 0.94087 0.66174 0.6214 0.0
C417 C 0.18651 0.61082 0.62095 0.0
C418 C 0.18334 0.61492 0.60036 0.0
C419 C 0.23731 0.62026 0.58955 0.0
C420 C 0.29376 0.62125 0.59957 0.0
C421 C 0.2974 0.61726 0.62 0.0
C422 C 0.24356 0.612 0.63061 0.0
O423 O 0.91911 0.59712 0.61111 0.0
O424 O 0.95845 0.57911 0.63796 0.0
O425 O 0.76223 0.59838 0.60808 0.0
O426 O 0.77608 0.62515 0.63129 0.0
C427 C 0.73986 0.60737 0.62448 0.0
O428 O 0.98023 0.64388 0.616 0.0
O429 O 0.88133 0.65844 0.61846 0.0
O430 O 0.11247 0.62155 0.6454 0.0
O431 O 0.08747 0.59146 0.62402 0.0
H432 H 0.13943 0.61383 0.59281 0.0
H433 H 0.33591 0.62399 0.59121 0.0
H434 H 0.24609 0.60861 0.6464 0.0
O435 O 0.671 0.37726 0.59527 0.0
Tb436 Tb 0.6889 0.37553 0.62704 0.0
Eu437 Eu 0.52855 0.38849 0.62536 0.0
C438 C 0.68935 0.39741 0.58506 0.0
O439 O 0.70987 0.41748 0.59472 0.0
C440 C 0.63501 0.42798 0.63304 0.0
O441 O 0.53401 0.38821 0.65892 0.0
C442 C 0.41925 0.39883 0.61157 0.0
C443 C 0.50515 0.37095 0.66974 0.0
O444 O 0.47245 0.35324 0.66081 0.0
C445 C 0.59088 0.33254 0.62543 0.0
C446 C 0.36281 0.38787 0.60228 0.0
C447 C 0.35672 0.38657 0.58145 0.0
C448 C 0.30069 0.37886 0.57266 0.0
C449 C 0.25116 0.37251 0.58506 0.0
C450 C 0.25617 0.37345 0.60567 0.0
C451 C 0.31182 0.38138 0.61422 0.0
O452 O 0.65934 0.40907 0.64298 0.0
O453 O 0.58883 0.42338 0.62105 0.0
O454 O 0.78173 0.38377 0.61664 0.0
O455 O 0.77172 0.36181 0.6427 0.0
C456 C 0.81126 0.37204 0.63055 0.0
O457 O 0.55391 0.34826 0.61583 0.0
O458 O 0.6403 0.3407 0.63474 0.0
O459 O 0.43005 0.39357 0.63026 0.0
O460 O 0.46976 0.40015 0.60087 0.0
H461 H 0.39513 0.39195 0.57211 0.0
H462 H 0.2067 0.36803 0.57867 0.0
H463 H 0.31484 0.38296 0.63016 0.0
C464 C 0.63237 0.11587 0.13357 0.0
C465 C 0.64628 0.10537 0.11503 0.0
C466 C 0.57096 0.11742 0.14019 0.0
C467 C 0.52282 0.10859 0.12781 0.0
C468 C 0.53735 0.0963 0.10975 0.0
C469 C 0.59881 0.09464 0.10371 0.0
C470 C 0.55777 0.1299 0.15983 0.0
C471 C 0.48772 0.08642 0.09607 0.0
C472 C 0.35345 0.09889 0.13814 0.0
C473 C 0.32873 0.12047 0.12874 0.0
C474 C 0.41753 0.09604 0.14016 0.0
C475 C 0.45722 0.11481 0.13201 0.0
C476 C 0.43204 0.13768 0.1242 0.0
C477 C 0.36798 0.14035 0.12288 0.0
C478 C 0.44296 0.07224 0.14978 0.0
C479 C 0.47256 0.1582 0.11532 0.0
H480 H 0.66901 0.124 0.14245 0.0
H481 H 0.60963 0.08583 0.08963 0.0
H482 H 0.5483 0.15054 0.15749 0.0
H483 H 0.51685 0.12129 0.16708 0.0
H484 H 0.59784 0.12829 0.16994 0.0
H485 H 0.50699 0.07621 0.08307 0.0
H486 H 0.45659 0.07315 0.10408 0.0
H487 H 0.4594 0.10266 0.09068 0.0
H488 H 0.32295 0.0837 0.14302 0.0
H489 H 0.34891 0.15716 0.11576 0.0
H490 H 0.47681 0.0776 0.16133 0.0
H491 H 0.46782 0.06053 0.13869 0.0
H492 H 0.40624 0.06033 0.1566 0.0
H493 H 0.51033 0.16327 0.1256 0.0
H494 H 0.44635 0.17584 0.11171 0.0
H495 H 0.49393 0.15087 0.10153 0.0
C496 C 0.1149 0.89095 0.11437 0.0
C497 C 0.15035 0.87818 0.12853 0.0
C498 C 0.05067 0.88929 0.11449 0.0
C499 C 0.02085 0.87478 0.12937 0.0
C500 C 0.05626 0.86261 0.14423 0.0
C501 C 0.12097 0.86426 0.14353 0.0
C502 C 0.01492 0.90246 0.09824 0.0
C503 C 0.02601 0.84742 0.16053 0.0
C504 C 0.85234 0.8919 0.12847 0.0
C505 C 0.8306 0.87403 0.11469 0.0
C506 C 0.91322 0.89066 0.13542 0.0
C507 C 0.95299 0.87132 0.12817 0.0
C508 C 0.92898 0.85163 0.11607 0.0
C509 C 0.86787 0.85314 0.10958 0.0
C510 C 0.93661 0.91158 0.14882 0.0
C511 C 0.96954 0.83062 0.108 0.0
H512 H 0.13751 0.90185 0.1028 0.0
H513 H 0.14847 0.85452 0.15457 0.0
H514 H 0.98865 0.88808 0.0896 0.0
H515 H 0.98117 0.91602 0.10469 0.0
H516 H 0.04525 0.91321 0.08793 0.0
H517 H 0.0588 0.84277 0.1726 0.0
H518 H 0.9865 0.85813 0.16684 0.0
H519 H 0.00777 0.82923 0.15445 0.0
H520 H 0.82364 0.90803 0.13256 0.0
H521 H 0.85063 0.83899 0.09925 0.0
H522 H 0.96197 0.92597 0.1399 0.0
H523 H 0.96899 0.90378 0.15997 0.0
H524 H 0.89827 0.92146 0.15656 0.0
H525 H 0.99961 0.8386 0.09623 0.0
H526 H 0.94216 0.8147 0.10157 0.0
H527 H 0.99983 0.82278 0.1197 0.0
C528 C 0.85032 0.91127 0.38893 0.0
C529 C 0.81339 0.89333 0.37918 0.0
C530 C 0.91458 0.90993 0.38793 0.0
C531 C 0.94269 0.89054 0.3764 0.0
C532 C 0.90545 0.87359 0.36524 0.0
C533 C 0.84095 0.87485 0.36709 0.0
C534 C 0.95217 0.92819 0.40036 0.0
C535 C 0.93349 0.85346 0.35205 0.0
C536 C 0.11445 0.90246 0.37314 0.0
C537 C 0.1357 0.88772 0.3891 0.0
C538 C 0.05227 0.90163 0.36738 0.0
C539 C 0.01024 0.88638 0.37824 0.0
C540 C 0.03247 0.8699 0.39322 0.0
C541 C 0.09508 0.87037 0.39813 0.0
C542 C 0.03089 0.91842 0.3506 0.0
C543 C 0.98937 0.85347 0.40535 0.0
H544 H 0.82901 0.92553 0.39833 0.0
H545 H 0.81227 0.8611 0.35939 0.0
H546 H 0.97796 0.91727 0.41173 0.0
H547 H 0.98643 0.93834 0.39107 0.0
H548 H 0.92313 0.94269 0.40793 0.0
H549 H 0.90019 0.84673 0.34073 0.0
H550 H 0.97523 0.86087 0.34448 0.0
H551 H 0.94742 0.83673 0.36108 0.0
H552 H 0.1453 0.91583 0.36591 0.0
H553 H 0.11155 0.85819 0.40997 0.0
H554 H 0.00936 0.93601 0.35664 0.0
H555 H 0.99576 0.90842 0.34153 0.0
H556 H 0.0698 0.92423 0.34091 0.0
H557 H 0.95821 0.86593 0.4141 0.0
H558 H 0.01444 0.84067 0.41569 0.0
H559 H 0.96018 0.84153 0.39559 0.0
C560 C 0.64831 0.08698 0.36603 0.0
C561 C 0.67375 0.10657 0.37756 0.0
C562 C 0.58418 0.08476 0.36377 0.0
C563 C 0.54488 0.1021 0.37378 0.0
C564 C 0.57077 0.12307 0.38414 0.0
C565 C 0.635 0.12521 0.3857 0.0
C566 C 0.55864 0.06264 0.35202 0.0
C567 C 0.53081 0.14188 0.39521 0.0
C568 C 0.36957 0.10345 0.37025 0.0
C569 C 0.35333 0.08899 0.38695 0.0
C570 C 0.43188 0.10671 0.36491 0.0
C571 C 0.47861 0.09572 0.3768 0.0
C572 C 0.46203 0.07998 0.39297 0.0
C573 C 0.39984 0.07644 0.39757 0.0
C574 C 0.44765 0.12282 0.34711 0.0
C575 C 0.51 0.0681 0.40626 0.0
H576 H 0.67833 0.07272 0.35953 0.0
H577 H 0.65461 0.14045 0.39456 0.0
H578 H 0.54625 0.04681 0.36222 0.0
H579 H 0.51635 0.06832 0.34395 0.0
H580 H 0.5929 0.05527 0.34124 0.0
H581 H 0.55744 0.15865 0.40059 0.0
H582 H 0.49282 0.14882 0.38569 0.0
H583 H 0.50968 0.13217 0.40814 0.0
H584 H 0.33394 0.11306 0.36186 0.0
H585 H 0.38766 0.06449 0.41008 0.0
H586 H 0.48521 0.11384 0.33841 0.0
H587 H 0.46419 0.14187 0.35203 0.0
H588 H 0.40713 0.1257 0.33735 0.0
H589 H 0.54452 0.05764 0.39736 0.0
H590 H 0.48965 0.05464 0.41719 0.0
H591 H 0.5347 0.08341 0.41441 0.0
C592 C 0.36272 0.85328 0.89805 0.0
C593 C 0.32548 0.87373 0.89195 0.0
C594 C 0.42418 0.8514 0.89184 0.0
C595 C 0.44877 0.87034 0.8791 0.0
C596 C 0.40919 0.88919 0.87102 0.0
C597 C 0.34786 0.89072 0.87761 0.0
C598 C 0.46439 0.83088 0.90077 0.0
C599 C 0.43317 0.90944 0.85709 0.0
C600 C 0.61122 0.89082 0.8919 0.0
C601 C 0.64651 0.8779 0.87775 0.0
C602 C 0.54696 0.8888 0.89217 0.0
C603 C 0.51685 0.8736 0.87779 0.0
C604 C 0.55209 0.86096 0.8631 0.0
C605 C 0.6168 0.86316 0.86331 0.0
C606 C 0.51142 0.90256 0.90819 0.0
C607 C 0.52158 0.84482 0.84744 0.0
H608 H 0.34518 0.83991 0.90895 0.0
H609 H 0.3193 0.90657 0.87284 0.0
H610 H 0.49563 0.82257 0.88951 0.0
H611 H 0.49348 0.83948 0.9125 0.0
H612 H 0.43669 0.81523 0.90746 0.0
H613 H 0.39519 0.91902 0.84897 0.0
H614 H 0.45841 0.92419 0.86567 0.0
H615 H 0.46583 0.9011 0.84625 0.0
H616 H 0.63399 0.9023 0.90307 0.0
H617 H 0.64408 0.85321 0.85231 0.0
H618 H 0.48573 0.88849 0.91732 0.0
H619 H 0.47716 0.91568 0.90149 0.0
H620 H 0.54184 0.91388 0.91807 0.0
H621 H 0.50017 0.82775 0.85437 0.0
H622 H 0.55476 0.83829 0.836 0.0
H623 H 0.4842 0.85577 0.84015 0.0
C624 C 0.1229 0.09841 0.88504 0.0
C625 C 0.1731 0.10977 0.87534 0.0
C626 C 0.0628 0.10195 0.87829 0.0
C627 C 0.05271 0.11585 0.86062 0.0
C628 C 0.1036 0.12456 0.84939 0.0
C629 C 0.16332 0.12194 0.85711 0.0
C630 C 0.01008 0.09271 0.89108 0.0
C631 C 0.09541 0.138 0.82984 0.0
C632 C 0.88277 0.1121 0.85057 0.0
C633 C 0.86295 0.13444 0.86008 0.0
C634 C 0.9459 0.10729 0.84802 0.0
C635 C 0.98925 0.12455 0.85617 0.0
C636 C 0.96908 0.14819 0.8641 0.0
C637 C 0.90595 0.15306 0.86555 0.0
C638 C 0.96635 0.08305 0.83785 0.0
C639 C 0.01363 0.16711 0.87308 0.0
H640 H 0.13021 0.08778 0.89859 0.0
H641 H 0.20171 0.13046 0.84925 0.0
H642 H 0.9828 0.10934 0.89632 0.0
H643 H 0.97876 0.08029 0.88245 0.0
H644 H 0.0261 0.08178 0.90418 0.0
H645 H 0.13391 0.13323 0.81966 0.0
H646 H 0.05125 0.13284 0.82262 0.0
H647 H 0.09634 0.159 0.8322 0.0
H648 H 0.84922 0.09792 0.84598 0.0
H649 H 0.89044 0.17046 0.87272 0.0
H650 H 0.98648 0.06962 0.84875 0.0
H651 H 0.00287 0.0875 0.82688 0.0
H652 H 0.92758 0.07328 0.83024 0.0
H653 H 0.03691 0.15827 0.88598 0.0
H654 H 0.99045 0.18493 0.87808 0.0
H655 H 0.04969 0.17234 0.86222 0.0
C656 C 0.88324 0.10289 0.64266 0.0
C657 C 0.86862 0.08774 0.62617 0.0
C658 C 0.94464 0.10591 0.64871 0.0
C659 C 0.99212 0.09447 0.63745 0.0
C660 C 0.97714 0.07754 0.62187 0.0
C661 C 0.9155 0.07387 0.6168 0.0
C662 C 0.95877 0.12254 0.66634 0.0
C663 C 0.02627 0.06472 0.60956 0.0
C664 C 0.13883 0.12924 0.62555 0.0
C665 C 0.18247 0.11213 0.633 0.0
C666 C 0.07593 0.12479 0.6283 0.0
C667 C 0.05669 0.10323 0.63942 0.0
C668 C 0.101 0.08768 0.64896 0.0
C669 C 0.16371 0.092 0.64526 0.0
C670 C 0.03043 0.14158 0.61745 0.0
C671 C 0.08275 0.06537 0.66187 0.0
H672 H 0.84736 0.11342 0.65025 0.0
H673 H 0.90429 0.06109 0.60471 0.0
H674 H 0.99877 0.11496 0.6747 0.0
H675 H 0.97045 0.14215 0.6613 0.0
H676 H 0.91854 0.1239 0.67645 0.0
H677 H 0.00673 0.0522 0.59787 0.0
H678 H 0.05591 0.07938 0.60242 0.0
H679 H 0.05595 0.05293 0.61921 0.0
H680 H 0.15355 0.1449 0.61614 0.0
H681 H 0.19779 0.07904 0.65128 0.0
H682 H 0.99455 0.1487 0.62771 0.0
H683 H 0.00694 0.13019 0.60584 0.0
H684 H 0.05291 0.15831 0.61032 0.0
H685 H 0.11654 0.06273 0.67401 0.0
H686 H 0.08276 0.04757 0.65294 0.0
H687 H 0.03624 0.06795 0.66838 0.0
C688 C 0.38179 0.857 0.6337 0.0
C689 C 0.34687 0.87674 0.64203 0.0
C690 C 0.44635 0.85801 0.63396 0.0
C691 C 0.47617 0.87895 0.64323 0.0
C692 C 0.4408 0.89699 0.65395 0.0
C693 C 0.37631 0.89589 0.65295 0.0
C694 C 0.48206 0.83844 0.62223 0.0
C695 C 0.47076 0.9189 0.66482 0.0
C696 C 0.65156 0.8782 0.64 0.0
C697 C 0.661 0.89279 0.62285 0.0
C698 C 0.59178 0.87455 0.64765 0.0
C699 C 0.54065 0.88523 0.63758 0.0
C700 C 0.55053 0.90096 0.62084 0.0
C701 C 0.61045 0.90495 0.61401 0.0
C702 C 0.5834 0.85856 0.66601 0.0
C703 C 0.49763 0.91276 0.60952 0.0
H704 H 0.35892 0.84208 0.62533 0.0
H705 H 0.34902 0.91077 0.65981 0.0
H706 H 0.49915 0.8474 0.60839 0.0
H707 H 0.52269 0.8317 0.63064 0.0
H708 H 0.45331 0.82162 0.61824 0.0
H709 H 0.43941 0.92713 0.67614 0.0
H710 H 0.51396 0.9126 0.6721 0.0
H711 H 0.48268 0.93428 0.65417 0.0
H712 H 0.69047 0.869 0.64706 0.0
H713 H 0.61758 0.91713 0.60123 0.0
H714 H 0.57047 0.83878 0.66175 0.0
H715 H 0.54605 0.86631 0.67547 0.0
H716 H 0.62651 0.85757 0.6748 0.0
H717 H 0.46608 0.89752 0.60421 0.0
H718 H 0.51343 0.92404 0.59655 0.0
H719 H 0.47067 0.92558 0.61929 0.0
C720 C 0.83755 0.63274 0.12351 0.0
C721 C 0.79867 0.61361 0.1309 0.0
C722 C 0.90158 0.6307 0.12536 0.0
C723 C 0.92705 0.60928 0.13524 0.0
C724 C 0.8876 0.59165 0.14486 0.0
C725 C 0.82358 0.59376 0.1423 0.0
C726 C 0.94185 0.65 0.11488 0.0
C727 C 0.91301 0.56939 0.15645 0.0
C728 C 0.0695 0.58654 0.1088 0.0
C729 C 0.1161 0.5993 0.11917 0.0
C730 C 0.00801 0.58822 0.11477 0.0
C731 C 0.99279 0.60277 0.13173 0.0
C732 C 0.04034 0.61363 0.14337 0.0
C733 C 0.10179 0.61189 0.13685 0.0
C734 C 0.95899 0.57606 0.10198 0.0
C735 C 0.02622 0.6285 0.16192 0.0
H736 H 0.81832 0.64826 0.11485 0.0
H737 H 0.79339 0.57919 0.14835 0.0
H738 H 0.97951 0.65657 0.12469 0.0
H739 H 0.96336 0.64088 0.10177 0.0
H740 H 0.91537 0.66698 0.10984 0.0
H741 H 0.87884 0.56213 0.16732 0.0
H742 H 0.92471 0.5536 0.14616 0.0
H743 H 0.95567 0.57485 0.16442 0.0
H744 H 0.08094 0.57634 0.09533 0.0
H745 H 0.13796 0.6216 0.14495 0.0
H746 H 0.92988 0.5912 0.09528 0.0
H747 H 0.92851 0.56369 0.11104 0.0
H748 H 0.97891 0.5643 0.08989 0.0
H749 H 0.01323 0.64837 0.15792 0.0
H750 H 0.06689 0.62944 0.17184 0.0
H751 H 0.98706 0.61988 0.17011 0.0
C752 C 0.35583 0.3814 0.13972 0.0
C753 C 0.33832 0.39321 0.12199 0.0
C754 C 0.41844 0.37956 0.145 0.0
C755 C 0.46407 0.38959 0.13214 0.0
C756 C 0.44604 0.40299 0.11491 0.0
C757 C 0.38352 0.40478 0.11016 0.0
C758 C 0.4359 0.36595 0.16382 0.0
C759 C 0.49295 0.41427 0.10086 0.0
C760 C 0.63359 0.40058 0.14202 0.0
C761 C 0.65964 0.38008 0.13161 0.0
C762 C 0.56941 0.40272 0.14413 0.0
C763 C 0.53068 0.38416 0.13528 0.0
C764 C 0.55721 0.36233 0.12622 0.0
C765 C 0.62146 0.36048 0.12462 0.0
C766 C 0.54342 0.42596 0.15439 0.0
C767 C 0.51781 0.34213 0.11648 0.0
H768 H 0.32096 0.37261 0.14898 0.0
H769 H 0.36997 0.41452 0.0967 0.0
H770 H 0.45671 0.34713 0.16021 0.0
H771 H 0.4709 0.37716 0.17206 0.0
H772 H 0.39544 0.36267 0.17356 0.0
H773 H 0.47114 0.4249 0.08849 0.0
H774 H 0.52408 0.42751 0.10886 0.0
H775 H 0.52178 0.39875 0.09455 0.0
H776 H 0.66312 0.41566 0.14761 0.0
H777 H 0.64151 0.34453 0.11664 0.0
H778 H 0.49897 0.42163 0.16177 0.0
H779 H 0.53525 0.44126 0.14332 0.0
H780 H 0.57615 0.43351 0.16557 0.0
H781 H 0.48004 0.33604 0.12647 0.0
H782 H 0.54495 0.32498 0.11219 0.0
H783 H 0.49637 0.35024 0.10298 0.0
C784 C 0.64884 0.38228 0.37987 0.0
C785 C 0.67143 0.36586 0.39456 0.0
C786 C 0.58765 0.38028 0.37331 0.0
C787 C 0.54836 0.36164 0.38184 0.0
C788 C 0.57315 0.3432 0.39494 0.0
C789 C 0.63458 0.34545 0.40103 0.0
C790 C 0.56346 0.39987 0.3589 0.0
C791 C 0.53314 0.32295 0.40438 0.0
C792 C 0.38651 0.3826 0.3947 0.0
C793 C 0.35083 0.36877 0.38119 0.0
C794 C 0.45074 0.3807 0.39473 0.0
C795 C 0.48036 0.36482 0.38067 0.0
C796 C 0.4447 0.35141 0.36652 0.0
C797 C 0.38001 0.35337 0.36705 0.0
C798 C 0.48673 0.39524 0.4102 0.0
C799 C 0.47473 0.33468 0.35112 0.0
H800 H 0.67709 0.39807 0.37475 0.0
H801 H 0.65237 0.33239 0.4121 0.0
H802 H 0.53069 0.39101 0.34835 0.0
H803 H 0.53833 0.41499 0.36712 0.0
H804 H 0.60135 0.4091 0.35045 0.0
H805 H 0.56097 0.30765 0.41145 0.0
H806 H 0.50389 0.33196 0.4159 0.0
H807 H 0.50205 0.3141 0.39334 0.0
H808 H 0.36408 0.39459 0.40561 0.0
H809 H 0.35237 0.34277 0.35653 0.0
H810 H 0.52042 0.40821 0.40301 0.0
H811 H 0.51309 0.38164 0.41953 0.0
H812 H 0.45656 0.40686 0.41997 0.0
H813 H 0.51304 0.34507 0.34379 0.0
H814 H 0.44147 0.32827 0.33969 0.0
H815 H 0.49473 0.31751 0.3583 0.0
C816 C 0.15452 0.60253 0.36611 0.0
C817 C 0.17834 0.59537 0.38454 0.0
C818 C 0.09053 0.60212 0.36258 0.0
C819 C 0.04969 0.59495 0.37799 0.0
C820 C 0.07413 0.58627 0.3962 0.0
C821 C 0.13803 0.58642 0.39917 0.0
C822 C 0.06654 0.6105 0.3427 0.0
C823 C 0.03268 0.57835 0.41307 0.0
C824 C 0.89462 0.6265 0.3854 0.0
C825 C 0.85401 0.60588 0.38277 0.0
C826 C 0.95819 0.62365 0.38251 0.0
C827 C 0.98198 0.5997 0.37638 0.0
C828 C 0.94059 0.57959 0.37165 0.0
C829 C 0.87695 0.58284 0.37506 0.0
C830 C 1.0002 0.64565 0.38785 0.0
C831 C 0.96364 0.55399 0.36448 0.0
H832 H 0.18563 0.6092 0.35468 0.0
H833 H 0.15624 0.58063 0.41339 0.0
H834 H 0.02921 0.59755 0.33765 0.0
H835 H 0.04682 0.63002 0.34392 0.0
H836 H 0.10351 0.61088 0.33135 0.0
H837 H 0.059 0.57081 0.42588 0.0
H838 H 0.00519 0.59505 0.41807 0.0
H839 H 0.99991 0.5634 0.40812 0.0
H840 H 0.87695 0.64446 0.39108 0.0
H841 H 0.84592 0.56681 0.37298 0.0
H842 H 0.03387 0.64925 0.37584 0.0
H843 H 0.02669 0.64067 0.40133 0.0
H844 H 0.97433 0.6636 0.39073 0.0
H845 H 0.00432 0.55624 0.35469 0.0
H846 H 0.92718 0.5434 0.35638 0.0
H847 H 0.97774 0.54222 0.37734 0.0
C848 C 0.1471 0.38101 0.86504 0.0
C849 C 0.1703 0.39772 0.8794 0.0
C850 C 0.08356 0.37927 0.86161 0.0
C851 C 0.04294 0.39433 0.87308 0.0
C852 C 0.06672 0.41252 0.88659 0.0
C853 C 0.13031 0.414 0.88956 0.0
C854 C 0.05996 0.36014 0.84673 0.0
C855 C 0.02488 0.42905 0.89907 0.0
C856 C 0.87234 0.40405 0.8667 0.0
C857 C 0.84982 0.38872 0.88211 0.0
C858 C 0.93527 0.40422 0.86204 0.0
C859 C 0.97602 0.38892 0.87324 0.0
C860 C 0.95244 0.37142 0.88734 0.0
C861 C 0.88937 0.37144 0.89152 0.0
C862 C 0.95864 0.42254 0.8465 0.0
C863 C 0.99438 0.3546 0.8995 0.0
H864 H 0.17834 0.36853 0.85707 0.0
H865 H 0.14834 0.42677 0.90074 0.0
H866 H 0.04372 0.34274 0.85457 0.0
H867 H 0.02037 0.36803 0.83836 0.0
H868 H 0.09647 0.35436 0.83612 0.0
H869 H 0.05086 0.44338 0.90786 0.0
H870 H 0.9914 0.43932 0.88959 0.0
H871 H 0.9982 0.4168 0.90939 0.0
H872 H 0.8418 0.41742 0.85935 0.0
H873 H 0.8716 0.35923 0.90317 0.0
H874 H 0.99654 0.41383 0.8378 0.0
H875 H 0.97716 0.43994 0.85379 0.0
H876 H 0.92136 0.4285 0.83626 0.0
H877 H 0.0281 0.34464 0.8899 0.0
H878 H 0.96835 0.34003 0.90809 0.0
H879 H 0.02076 0.36665 0.91002 0.0
C880 C 0.33691 0.58447 0.86541 0.0
C881 C 0.31595 0.59939 0.88125 0.0
C882 C 0.4001 0.57889 0.86317 0.0
C883 C 0.44297 0.58843 0.87717 0.0
C884 C 0.42171 0.60386 0.89298 0.0
C885 C 0.3587 0.60912 0.89479 0.0
C886 C 0.42041 0.56222 0.84619 0.0
C887 C 0.4654 0.61436 0.90834 0.0
C888 C 0.59523 0.5582 0.89089 0.0
C889 C 0.63725 0.57638 0.8837 0.0
C890 C 0.53186 0.56056 0.88729 0.0
C891 C 0.50979 0.58167 0.87626 0.0
C892 C 0.55257 0.59869 0.86737 0.0
C893 C 0.61594 0.59586 0.87121 0.0
C894 C 0.48818 0.54156 0.89657 0.0
C895 C 0.53107 0.62108 0.85512 0.0
H896 H 0.3039 0.57686 0.85495 0.0
H897 H 0.34277 0.62067 0.90708 0.0
H898 H 0.46463 0.56904 0.83985 0.0
H899 H 0.42757 0.5424 0.8516 0.0
H900 H 0.38526 0.56161 0.83428 0.0
H901 H 0.44166 0.62656 0.91942 0.0
H902 H 0.48826 0.59834 0.91622 0.0
H903 H 0.50199 0.62589 0.90113 0.0
H904 H 0.61174 0.54282 0.90026 0.0
H905 H 0.64825 0.60991 0.86557 0.0
H906 H 0.45992 0.55126 0.90801 0.0
H907 H 0.51272 0.52526 0.90357 0.0
H908 H 0.45627 0.53392 0.88524 0.0
H909 H 0.49475 0.61496 0.8446 0.0
H910 H 0.56947 0.62997 0.8467 0.0
H911 H 0.51071 0.63581 0.86496 0.0
C912 C 0.65441 0.61397 0.64864 0.0
C913 C 0.67673 0.60254 0.63134 0.0
C914 C 0.591 0.61418 0.65275 0.0
C915 C 0.54966 0.60327 0.63897 0.0
C916 C 0.57284 0.58959 0.62249 0.0
C917 C 0.63626 0.58931 0.61896 0.0
C918 C 0.56819 0.62789 0.67095 0.0
C919 C 0.53052 0.57748 0.60745 0.0
C920 C 0.3767 0.59632 0.64149 0.0
C921 C 0.35872 0.61694 0.62954 0.0
C922 C 0.43884 0.59287 0.6466 0.0
C923 C 0.48345 0.6102 0.63925 0.0
C924 C 0.46446 0.63237 0.62886 0.0
C925 C 0.40218 0.63558 0.62433 0.0
C926 C 0.45706 0.5696 0.65843 0.0
C927 C 0.5104 0.65143 0.62075 0.0
H928 H 0.68597 0.62393 0.65837 0.0
H929 H 0.65365 0.58027 0.60566 0.0
H930 H 0.55474 0.64771 0.66697 0.0
H931 H 0.52709 0.61821 0.67723 0.0
H932 H 0.6045 0.62898 0.68247 0.0
H933 H 0.55603 0.56576 0.59647 0.0
H934 H 0.49609 0.56508 0.61486 0.0
H935 H 0.50502 0.59268 0.59944 0.0
H936 H 0.34312 0.58194 0.64568 0.0
H937 H 0.38794 0.65187 0.61551 0.0
H938 H 0.49636 0.57391 0.66836 0.0
H939 H 0.47159 0.55412 0.64824 0.0
H940 H 0.41793 0.56235 0.66743 0.0
H941 H 0.54247 0.65775 0.63251 0.0
H942 H 0.48768 0.6686 0.61439 0.0
H943 H 0.53828 0.64221 0.60899 0.0
C944 C 0.17713 0.38687 0.63058 0.0
C945 C 0.20013 0.36827 0.61762 0.0
C946 C 0.11596 0.38564 0.63739 0.0
C947 C 0.07722 0.36547 0.63092 0.0
C948 C 0.10255 0.3452 0.61966 0.0
C949 C 0.16379 0.34682 0.61321 0.0
C950 C 0.09116 0.40734 0.64974 0.0
C951 C 0.06325 0.32327 0.61245 0.0
C952 C 0.90956 0.35838 0.64719 0.0
C953 C 0.87912 0.37083 0.63167 0.0
C954 C 0.9744 0.35706 0.64762 0.0
C955 C 0.00901 0.36823 0.63206 0.0
C956 C 0.97811 0.38117 0.61658 0.0
C957 C 0.91377 0.38238 0.61665 0.0
C958 C 0.00576 0.34339 0.66446 0.0
C959 C 0.01292 0.39328 0.59962 0.0
H960 H 0.2051 0.40347 0.63405 0.0
H961 H 0.18186 0.33223 0.6034 0.0
H962 H 0.06509 0.4207 0.64014 0.0
H963 H 0.05907 0.40013 0.66123 0.0
H964 H 0.12878 0.41825 0.65701 0.0
H965 H 0.09162 0.30713 0.60686 0.0
H966 H 0.03279 0.3161 0.62438 0.0
H967 H 0.03337 0.33007 0.60023 0.0
H968 H 0.88278 0.34956 0.65888 0.0
H969 H 0.89043 0.39214 0.60466 0.0
H970 H 0.04285 0.35552 0.67073 0.0
H971 H 0.02765 0.3256 0.65894 0.0
H972 H 0.97298 0.33824 0.67643 0.0
H973 H 0.0463 0.40756 0.6053 0.0
H974 H 0.9819 0.40299 0.58894 0.0
H975 H 0.03952 0.37844 0.59158 0.0
C976 C 0.18569 0.14207 0.02274 0.0
C977 C 0.20417 0.12589 0.03813 0.0
C978 C 0.2081 0.13862 0.00347 0.0
C979 C 0.25131 0.11893 0.9996 0.0
C980 C 0.27172 0.10307 0.01524 0.0
C981 C 0.2472 0.1065 0.03428 0.0
C982 C 0.18398 0.15556 0.98713 0.0
C983 C 0.31881 0.08229 0.01181 0.0
C984 C 0.24679 0.09424 0.94714 0.0
C985 C 0.29189 0.10932 0.93786 0.0
C986 C 0.235 0.0964 0.96739 0.0
C987 C 0.27033 0.1136 0.97886 0.0
C988 C 0.31955 0.12726 0.96994 0.0
C989 C 0.32957 0.12509 0.94943 0.0
C990 C 0.18183 0.08157 0.97619 0.0
C991 C 0.35941 0.14519 0.98183 0.0
H992 H 0.1525 0.15709 0.02568 0.0
H993 H 0.26236 0.0942 0.04623 0.0
H994 H 0.22273 0.16522 0.97947 0.0
H995 H 0.15961 0.14371 0.97599 0.0
H996 H 0.15169 0.1704 0.99268 0.0
H997 H 0.33447 0.07338 0.02584 0.0
H998 H 0.29888 0.06712 1.00231 0.0
H999 H 0.35944 0.09018 0.00393 0.0
H1000 H 0.21851 0.08154 0.9383 0.0
H1001 H 0.36465 0.13668 0.94235 0.0
H1002 H 0.14539 0.09508 0.98102 0.0
H1003 H 0.19703 0.07079 0.98942 0.0
H1004 H 0.16135 0.06786 0.96551 0.0
H1005 H 0.33269 0.16259 0.98566 0.0
H1006 H 0.40122 0.15116 0.97354 0.0
H1007 H 0.37373 0.13603 0.99588 0.0
C1008 C 0.33729 0.88427 0.0479 0.0
C1009 C 0.32309 0.90598 0.05921 0.0
C1010 C 0.32031 0.88269 0.02788 0.0
C1011 C 0.28808 0.90324 0.01893 0.0
C1012 C 0.27453 0.92536 0.03019 0.0
C1013 C 0.29236 0.9265 0.05012 0.0
C1014 C 0.33634 0.85889 0.01632 0.0
C1015 C 0.24039 0.94773 0.02126 0.0
C1016 C 0.29531 0.90837 0.96297 0.0
C1017 C 0.23951 0.89703 0.95716 0.0
C1018 C 0.31119 0.91079 0.98296 0.0
C1019 C 0.27008 0.90187 0.99766 0.0
C1020 C 0.21255 0.89129 0.99196 0.0
C1021 C 0.19788 0.88902 0.97175 0.0
C1022 C 0.3727 0.92237 0.98832 0.0
C1023 C 0.16722 0.88178 0.0072 0.0
H1024 H 0.36082 0.8683 0.05477 0.0
H1025 H 0.28088 0.94336 0.0587 0.0
H1026 H 0.2937 0.84981 0.01064 0.0
H1027 H 0.36504 0.86403 1.00333 0.0
H1028 H 0.36174 0.84465 0.02537 0.0
H1029 H 0.23334 0.96353 0.032 0.0
H1030 H 0.26621 0.9553 0.00837 0.0
H1031 H 0.19476 0.94133 0.0158 0.0
H1032 H 0.3272 0.91509 0.95177 0.0
H1033 H 0.1548 0.88023 0.96736 0.0
H1034 H 0.40105 0.90806 0.9963 0.0
H1035 H 0.36606 0.93888 0.9984 0.0
H1036 H 0.39875 0.92898 0.97513 0.0
H1037 H 0.18775 0.86565 0.01558 0.0
H1038 H 0.1234 0.87518 1.00045 0.0
H1039 H 0.15679 0.89717 0.01798 0.0
C1040 C 0.66729 0.89184 0.47183 0.0
C1041 C 0.68831 0.9112 0.45915 0.0
C1042 C 0.68788 0.89037 0.49149 0.0
C1043 C 0.7311 0.90852 0.4986 0.0
C1044 C 0.75333 0.92781 0.48576 0.0
C1045 C 0.73139 0.92902 0.46626 0.0
C1046 C 0.66238 0.86971 0.5048 0.0
C1047 C 0.79969 0.94741 0.49268 0.0
C1048 C 0.72644 0.92104 0.55373 0.0
C1049 C 0.77416 0.90542 0.56078 0.0
C1050 C 0.71319 0.92271 0.53354 0.0
C1051 C 0.74892 0.90856 0.51989 0.0
C1052 C 0.79944 0.89382 0.52679 0.0
C1053 C 0.81152 0.8924 0.54723 0.0
C1054 C 0.65917 0.93877 0.52692 0.0
C1055 C 0.83912 0.87877 0.51265 0.0
H1056 H 0.63427 0.87793 0.46644 0.0
H1057 H 0.74857 0.94389 0.45652 0.0
H1058 H 0.70055 0.85844 0.51134 0.0
H1059 H 0.63655 0.87857 0.51719 0.0
H1060 H 0.63108 0.85644 0.49683 0.0
H1061 H 0.81582 0.95998 0.48048 0.0
H1062 H 0.77888 0.95958 0.50433 0.0
H1063 H 0.84015 0.93772 0.49931 0.0
H1064 H 0.69793 0.93137 0.56421 0.0
H1065 H 0.8483 0.88028 0.55267 0.0
H1066 H 0.62371 0.9263 0.52009 0.0
H1067 H 0.67402 0.95274 0.51553 0.0
H1068 H 0.63763 0.94941 0.53934 0.0
H1069 H 0.81152 0.86316 0.50594 0.0
H1070 H 0.87976 0.8702 0.52008 0.0
H1071 H 0.85532 0.89125 0.50043 0.0
C1072 C 0.84711 0.11445 0.48188 0.0
C1073 C 0.82193 0.10102 0.46592 0.0
C1074 C 0.82558 0.11046 0.5012 0.0
C1075 C 0.77658 0.09306 0.50459 0.0
C1076 C 0.75028 0.07971 0.48846 0.0
C1077 C 0.77383 0.08361 0.46933 0.0
C1078 C 0.85597 0.12464 0.51802 0.0
C1079 C 0.69718 0.06144 0.49142 0.0
C1080 C 0.77503 0.06702 0.55668 0.0
C1081 C 0.73676 0.08465 0.56638 0.0
C1082 C 0.78551 0.06857 0.53631 0.0
C1083 C 0.75593 0.08792 0.52521 0.0
C1084 C 0.7125 0.10419 0.53458 0.0
C1085 C 0.70363 0.10247 0.55516 0.0
C1086 C 0.83237 0.05089 0.52703 0.0
C1087 C 0.67871 0.12459 0.52314 0.0
H1088 H 0.88427 0.12792 0.4793 0.0
H1089 H 0.75359 0.07345 0.45697 0.0
H1090 H 0.8214 0.13633 0.52602 0.0
H1091 H 0.87538 0.11075 0.52875 0.0
H1092 H 0.8936 0.13744 0.51289 0.0
H1093 H 0.67976 0.0536 0.47723 0.0
H1094 H 0.71167 0.04525 0.50094 0.0
H1095 H 0.65882 0.07131 0.49912 0.0
H1096 H 0.79994 0.05293 0.56532 0.0
H1097 H 0.67394 0.11609 0.56259 0.0
H1098 H 0.874 0.06203 0.52293 0.0
H1099 H 0.81392 0.04223 0.51331 0.0
H1100 H 0.84643 0.03525 0.53721 0.0
H1101 H 0.71085 0.14047 0.5196 0.0
H1102 H 0.63939 0.13255 0.53167 0.0
H1103 H 0.6613 0.11683 0.50895 0.0
C1104 C 0.85404 0.91037 0.96189 0.0
C1105 C 0.82668 0.89569 0.94701 0.0
C1106 C 0.83559 0.90769 0.98173 0.0
C1107 C 0.78657 0.89084 0.98661 0.0
C1108 C 0.75808 0.87635 0.97146 0.0
C1109 C 0.77933 0.87859 0.95191 0.0
C1110 C 0.86875 0.9228 0.99747 0.0
C1111 C 0.70412 0.859 0.97583 0.0
C1112 C 0.77482 0.86649 0.03944 0.0
C1113 C 0.73556 0.88458 0.04833 0.0
C1114 C 0.79165 0.86832 0.01946 0.0
C1115 C 0.76627 0.88794 0.00761 0.0
C1116 C 0.72311 0.90514 0.01602 0.0
C1117 C 0.70903 0.90354 0.03632 0.0
C1118 C 0.83874 0.84985 0.01128 0.0
C1119 C 0.69305 0.92572 0.0037 0.0
H1120 H 0.89028 0.92376 0.95802 0.0
H1121 H 0.75717 0.8677 0.94027 0.0
H1122 H 0.83627 0.93612 0.00482 0.0
H1123 H 0.88668 0.90965 0.00899 0.0
H1124 H 0.90779 0.93408 0.99138 0.0
H1125 H 0.68554 0.84983 0.96228 0.0
H1126 H 0.718 0.84376 0.98632 0.0
H1127 H 0.66672 0.87011 0.983 0.0
H1128 H 0.79409 0.85117 0.04827 0.0
H1129 H 0.67892 0.91773 0.04285 0.0
H1130 H 0.87938 0.86063 0.00579 0.0
H1131 H 0.81931 0.83923 0.99855 0.0
H1132 H 0.85451 0.83578 0.0225 0.0
H1133 H 0.72782 0.94027 0.99943 0.0
H1134 H 0.65519 0.93549 0.01177 0.0
H1135 H 0.67425 0.91742 0.98988 0.0
C1136 C 0.75645 0.14031 0.95975 0.0
C1137 C 0.70228 0.12794 0.95365 0.0
C1138 C 0.77516 0.13979 0.97959 0.0
C1139 C 0.73878 0.12662 0.99364 0.0
C1140 C 0.6841 0.11408 0.98759 0.0
C1141 C 0.66653 0.11488 0.96766 0.0
C1142 C 0.83372 0.15336 0.98551 0.0
C1143 C 0.644 0.09987 1.00219 0.0
C1144 C 0.80161 0.10355 0.04276 0.0
C1145 C 0.77501 0.12118 0.05582 0.0
C1146 C 0.79294 0.10582 0.02229 0.0
C1147 C 0.75691 0.12621 0.0148 0.0
C1148 C 0.73361 0.14504 0.02784 0.0
C1149 C 0.74298 0.14229 0.04821 0.0
C1150 C 0.81885 0.08546 0.00882 0.0
C1151 C 0.69548 0.1672 0.02042 0.0
H1152 H 0.78449 0.1504 0.94902 0.0
H1153 H 0.62471 0.10525 0.96307 0.0
H1154 H 0.82333 0.16833 0.99664 0.0
H1155 H 0.86596 0.13961 0.9925 0.0
H1156 H 0.85721 0.16248 0.97273 0.0
H1157 H 0.60325 0.09094 0.99506 0.0
H1158 H 0.67113 0.08465 0.00959 0.0
H1159 H 0.62771 0.11318 0.01384 0.0
H1160 H 0.82593 0.08709 0.04862 0.0
H1161 H 0.72288 0.15607 0.05831 0.0
H1162 H 0.84275 0.09431 0.99604 0.0
H1163 H 0.78066 0.07362 1.00289 0.0
H1164 H 0.85165 0.07266 0.01662 0.0
H1165 H 0.71902 0.17688 0.00793 0.0
H1166 H 0.68629 0.18154 0.03218 0.0
H1167 H 0.6507 0.15997 0.01484 0.0
C1168 C 0.24946 0.06703 0.45505 0.0
C1169 C 0.2149 0.08544 0.44491 0.0
C1170 C 0.25302 0.06724 0.47567 0.0
C1171 C 0.22167 0.08652 0.48635 0.0
C1172 C 0.18359 0.10423 0.47624 0.0
C1173 C 0.18046 0.10342 0.45551 0.0
C1174 C 0.29347 0.04781 0.48589 0.0
C1175 C 0.14939 0.125 0.48717 0.0
C1176 C 0.21549 0.07842 0.54205 0.0
C1177 C 0.26681 0.09283 0.54798 0.0
C1178 C 0.19903 0.07668 0.52205 0.0
C1179 C 0.23465 0.08973 0.50772 0.0
C1180 C 0.28582 0.10466 0.51367 0.0
C1181 C 0.30139 0.10596 0.53372 0.0
C1182 C 0.14443 0.06046 0.51621 0.0
C1183 C 0.32488 0.11892 0.4988 0.0
H1184 H 0.27558 0.053 0.44672 0.0
H1185 H 0.15384 0.11763 0.44756 0.0
H1186 H 0.33472 0.05752 0.49201 0.0
H1187 H 0.26858 0.03886 0.49844 0.0
H1188 H 0.30909 0.03247 0.47569 0.0
H1189 H 0.11577 0.13504 0.47754 0.0
H1190 H 0.12459 0.11693 0.50009 0.0
H1191 H 0.1828 0.13928 0.49286 0.0
H1192 H 0.18842 0.06828 0.55302 0.0
H1193 H 0.34079 0.11729 0.5382 0.0
H1194 H 0.1602 0.04405 0.50712 0.0
H1195 H 0.1121 0.07177 0.50701 0.0
H1196 H 0.11911 0.05291 0.52924 0.0
H1197 H 0.34751 0.1051 0.48869 0.0
H1198 H 0.3611 0.13074 0.50595 0.0
H1199 H 0.29554 0.13161 0.48964 0.0
C1200 C 0.22935 0.88135 0.46104 0.0
C1201 C 0.25865 0.90078 0.45018 0.0
C1202 C 0.21912 0.88372 0.48143 0.0
C1203 C 0.23953 0.90593 0.49147 0.0
C1204 C 0.27229 0.92501 0.48084 0.0
C1205 C 0.28133 0.92226 0.46029 0.0
C1206 C 0.18414 0.86283 0.49207 0.0
C1207 C 0.29572 0.94878 0.49102 0.0
C1208 C 0.15124 0.9211 0.53882 0.0
C1209 C 0.18845 0.90962 0.55324 0.0
C1210 C 0.16839 0.92088 0.51874 0.0
C1211 C 0.22454 0.90921 0.51292 0.0
C1212 C 0.26351 0.8986 0.52754 0.0
C1213 C 0.24484 0.89877 0.54744 0.0
C1214 C 0.12518 0.93222 0.50364 0.0
C1215 C 0.32411 0.88633 0.52209 0.0
H1216 H 0.21241 0.86454 0.45338 0.0
H1217 H 0.30361 0.93743 0.45201 0.0
H1218 H 0.21152 0.85554 0.50469 0.0
H1219 H 0.14063 0.8707 0.49817 0.0
H1220 H 0.17272 0.8465 0.48223 0.0
H1221 H 0.32549 0.96053 0.4812 0.0
H1222 H 0.25618 0.96067 0.49587 0.0
H1223 H 0.32223 0.94358 0.50444 0.0
H1224 H 0.10771 0.92958 0.54314 0.0
H1225 H 0.2744 0.89011 0.55847 0.0
H1226 H 0.10766 0.91685 0.49382 0.0
H1227 H 0.15001 0.9462 0.4942 0.0
H1228 H 0.08523 0.94198 0.5106 0.0
H1229 H 0.31552 0.86859 0.51352 0.0
H1230 H 0.35195 0.88134 0.5353 0.0
H1231 H 0.35146 0.89935 0.51254 0.0
C1232 C 0.67533 0.59426 0.03125 0.0
C1233 C 0.71904 0.58835 0.04577 0.0
C1234 C 0.68906 0.59146 0.01109 0.0
C1235 C 0.74765 0.58217 0.00529 0.0
C1236 C 0.79156 0.57566 0.01988 0.0
C1237 C 0.77688 0.57899 0.03995 0.0
C1238 C 0.64107 0.5988 0.99598 0.0
C1239 C 0.85406 0.56527 0.0143 0.0
C1240 C 0.75055 0.55609 0.953 0.0
C1241 C 0.77348 0.57709 0.9424 0.0
C1242 C 0.74554 0.55685 0.97366 0.0
C1243 C 0.76246 0.57943 0.98388 0.0
C1244 C 0.7884 0.60025 0.97328 0.0
C1245 C 0.79404 0.59874 0.95263 0.0
C1246 C 0.71915 0.534 0.98442 0.0
C1247 C 0.8066 0.62472 0.9836 0.0
H1248 H 0.63067 0.60159 0.03562 0.0
H1249 H 0.81079 0.57421 0.0511 0.0
H1250 H 0.65958 0.61389 0.98607 0.0
H1251 H 0.62955 0.58202 0.98664 0.0
H1252 H 0.59803 0.60598 1.00292 0.0
H1253 H 0.88246 0.56052 0.02744 0.0
H1254 H 0.84869 0.54777 0.00517 0.0
H1255 H 0.87931 0.5795 0.00521 0.0
H1256 H 0.7347 0.53935 0.945 0.0
H1257 H 0.8112 0.61504 0.94435 0.0
H1258 H 0.67243 0.53869 0.98998 0.0
H1259 H 0.74795 0.52908 0.9974 0.0
H1260 H 0.71568 0.5169 0.97472 0.0
H1261 H 0.76478 0.63432 0.98942 0.0
H1262 H 0.83088 0.6382 0.97356 0.0
H1263 H 0.83686 0.62053 0.99639 0.0
C1264 C 0.78186 0.42715 0.94855 0.0
C1265 C 0.72957 0.41486 0.94079 0.0
C1266 C 0.79195 0.4288 0.96895 0.0
C1267 C 0.74715 0.4191 0.98217 0.0
C1268 C 0.69118 0.40913 0.97452 0.0
C1269 C 0.68333 0.40679 0.95388 0.0
C1270 C 0.85284 0.43914 0.97624 0.0
C1271 C 0.6409 0.39975 0.9881 0.0
C1272 C 0.80897 0.39345 0.03095 0.0
C1273 C 0.80387 0.41484 0.04329 0.0
C1274 C 0.78973 0.39449 0.01114 0.0
C1275 C 0.76222 0.41716 0.00369 0.0
C1276 C 0.75452 0.43848 0.01641 0.0
C1277 C 0.77665 0.43725 0.03595 0.0
C1278 C 0.80102 0.37163 0.99798 0.0
C1279 C 0.72332 0.46263 0.00937 0.0
H1280 H 0.81696 0.43428 0.93855 0.0
H1281 H 0.64253 0.39751 0.94808 0.0
H1282 H 0.84535 0.45471 0.98709 0.0
H1283 H 0.87858 0.4237 0.9839 0.0
H1284 H 0.882 0.44664 0.96405 0.0
H1285 H 0.59654 0.39723 0.98018 0.0
H1286 H 0.65434 0.38104 0.99453 0.0
H1287 H 0.63398 0.41332 1.00052 0.0
H1288 H 0.82994 0.37612 0.03664 0.0
H1289 H 0.77165 0.45366 0.04562 0.0
H1290 H 0.83123 0.37723 0.98546 0.0
H1291 H 0.75697 0.36477 0.99163 0.0
H1292 H 0.82307 0.35552 0.00602 0.0
H1293 H 0.75314 0.47263 0.99853 0.0
H1294 H 0.71338 0.47603 0.02171 0.0
H1295 H 0.67952 0.45791 1.00176 0.0
C1296 C 0.15829 0.40454 0.46631 0.0
C1297 C 0.18345 0.38988 0.451 0.0
C1298 C 0.18064 0.40231 0.48576 0.0
C1299 C 0.23126 0.38593 0.48978 0.0
C1300 C 0.25787 0.37168 0.47415 0.0
C1301 C 0.23285 0.37345 0.45504 0.0
C1302 C 0.14953 0.41719 0.50206 0.0
C1303 C 0.31334 0.35483 0.47754 0.0
C1304 C 0.31515 0.39813 0.53855 0.0
C1305 C 0.2906 0.37883 0.55071 0.0
C1306 C 0.29829 0.40008 0.51848 0.0
C1307 C 0.25444 0.38283 0.51047 0.0
C1308 C 0.23126 0.36282 0.52245 0.0
C1309 C 0.25073 0.36071 0.54215 0.0
C1310 C 0.32609 0.42107 0.506 0.0
C1311 C 0.1837 0.34422 0.51473 0.0
H1312 H 0.1205 0.41743 0.46309 0.0
H1313 H 0.25329 0.36259 0.44306 0.0
H1314 H 0.13311 0.40386 0.51371 0.0
H1315 H 0.1829 0.43045 0.50907 0.0
H1316 H 0.10972 0.4285 0.49661 0.0
H1317 H 0.3311 0.34639 0.46359 0.0
H1318 H 0.35075 0.36607 0.48456 0.0
H1319 H 0.30136 0.33904 0.48779 0.0
H1320 H 0.34577 0.41232 0.54485 0.0
H1321 H 0.23292 0.34516 0.55109 0.0
H1322 H 0.29043 0.43554 0.50248 0.0
H1323 H 0.34306 0.41317 0.49178 0.0
H1324 H 0.36485 0.43083 0.51361 0.0
H1325 H 0.14214 0.35485 0.50987 0.0
H1326 H 0.16967 0.32991 0.52602 0.0
H1327 H 0.20189 0.33389 0.50167 0.0
C1328 C 0.20828 0.60498 0.55561 0.0
C1329 C 0.23772 0.62304 0.56766 0.0
C1330 C 0.22033 0.60403 0.53518 0.0
C1331 C 0.26333 0.62133 0.52675 0.0
C1332 C 0.28945 0.64078 0.53862 0.0
C1333 C 0.27574 0.64157 0.55885 0.0
C1334 C 0.19023 0.58342 0.52291 0.0
C1335 C 0.33567 0.65956 0.53032 0.0
C1336 C 0.35917 0.59778 0.4834 0.0
C1337 C 0.33305 0.61109 0.46752 0.0
C1338 C 0.33686 0.601 0.50271 0.0
C1339 C 0.28618 0.6175 0.50619 0.0
C1340 C 0.2592 0.63082 0.49017 0.0
C1341 C 0.28344 0.62769 0.47105 0.0
C1342 C 0.36784 0.58685 0.51944 0.0
C1343 C 0.20436 0.64812 0.49321 0.0
H1344 H 0.17893 0.59058 0.56229 0.0
H1345 H 0.29772 0.65589 0.56806 0.0
H1346 H 0.17314 0.59144 0.50876 0.0
H1347 H 0.22466 0.56846 0.51927 0.0
H1348 H 0.1512 0.57421 0.53082 0.0
H1349 H 0.34724 0.67496 0.54102 0.0
H1350 H 0.37866 0.64925 0.52642 0.0
H1351 H 0.3179 0.66849 0.51661 0.0
H1352 H 0.39749 0.58494 0.48074 0.0
H1353 H 0.26247 0.63775 0.45877 0.0
H1354 H 0.33417 0.57415 0.52693 0.0
H1355 H 0.38487 0.6007 0.5306 0.0
H1356 H 0.40724 0.57505 0.51429 0.0
H1357 H 0.16609 0.6372 0.50008 0.0
H1358 H 0.18775 0.65661 0.47914 0.0
H1359 H 0.21644 0.66386 0.50349 0.0
C1360 C 0.22659 0.35877 0.05674 0.0
C1361 C 0.20012 0.3809 0.06486 0.0
C1362 C 0.23517 0.35627 0.03628 0.0
C1363 C 0.21722 0.37646 0.02357 0.0
C1364 C 0.18706 0.39819 0.03159 0.0
C1365 C 0.1787 0.40011 0.05216 0.0
C1366 C 0.26663 0.33262 0.02838 0.0
C1367 C 0.167 0.4201 0.01857 0.0
C1368 C 0.30674 0.38414 0.97544 0.0
C1369 C 0.26592 0.37367 0.96158 0.0
C1370 C 0.29131 0.38523 0.99562 0.0
C1371 C 0.23374 0.37555 1.00215 0.0
C1372 C 0.19263 0.36473 0.98826 0.0
C1373 C 0.20915 0.36394 0.96819 0.0
C1374 C 0.33651 0.39692 0.00995 0.0
C1375 C 0.13105 0.35406 0.99461 0.0
H1376 H 0.24318 0.34389 0.06656 0.0
H1377 H 0.15896 0.41737 0.05841 0.0
H1378 H 0.23996 0.3244 0.01593 0.0
H1379 H 0.31282 0.3378 0.02259 0.0
H1380 H 0.27236 0.31767 0.03991 0.0
H1381 H 0.13923 0.43445 0.02677 0.0
H1382 H 0.20821 0.4298 0.01238 0.0
H1383 H 0.13951 0.41291 0.00593 0.0
H1384 H 0.35054 0.39178 0.97049 0.0
H1385 H 0.17716 0.35582 0.95763 0.0
H1386 H 0.3494 0.38265 0.02137 0.0
H1387 H 0.31482 0.41332 0.0177 0.0
H1388 H 0.37913 0.40374 1.00253 0.0
H1389 H 0.13781 0.33865 0.00567 0.0
H1390 H 0.10438 0.34618 0.982 0.0
H1391 H 0.10332 0.36926 1.0018 0.0
C1392 C 0.12076 0.59431 0.97358 0.0
C1393 C 0.14498 0.6091 0.95819 0.0
C1394 C 0.14047 0.59793 0.9931 0.0
C1395 C 0.18705 0.6162 0.99718 0.0
C1396 C 0.21136 0.63134 0.98167 0.0
C1397 C 0.18931 0.62785 0.96235 0.0
C1398 C 0.11208 0.5819 0.00931 0.0
C1399 C 0.26222 0.65047 0.98534 0.0
C1400 C 0.19602 0.63522 0.05101 0.0
C1401 C 0.23632 0.61657 0.05849 0.0
C1402 C 0.18195 0.63632 0.03082 0.0
C1403 C 0.21049 0.61892 0.0177 0.0
C1404 C 0.25624 0.60197 0.02483 0.0
C1405 C 0.26816 0.60078 0.0452 0.0
C1406 C 0.13258 0.65457 0.02388 0.0
C1407 C 0.28925 0.5837 0.01117 0.0
H1408 H 0.08647 0.57981 0.97033 0.0
H1409 H 0.20881 0.63901 0.95036 0.0
H1410 H 0.14757 0.56924 0.01588 0.0
H1411 H 0.09443 0.59443 0.02128 0.0
H1412 H 0.07361 0.5698 0.00385 0.0
H1413 H 0.27387 0.66166 0.97188 0.0
H1414 H 0.24893 0.66394 0.99726 0.0
H1415 H 0.30416 0.64026 0.99038 0.0
H1416 H 0.17245 0.64796 0.06114 0.0
H1417 H 0.29932 0.58629 0.05076 0.0
H1418 H 0.09054 0.64354 0.02006 0.0
H1419 H 0.14749 0.66486 0.01037 0.0
H1420 H 0.12033 0.66887 0.03538 0.0
H1421 H 0.2574 0.5681 0.00679 0.0
H1422 H 0.33022 0.57498 0.01832 0.0
H1423 H 0.30414 0.59366 0.99749 0.0
C1424 C 0.85089 0.60875 0.52663 0.0
C1425 C 0.82244 0.62197 0.54215 0.0
C1426 C 0.8286 0.61062 0.50727 0.0
C1427 C 0.77608 0.62587 0.50335 0.0
C1428 C 0.74748 0.63951 0.5189 0.0
C1429 C 0.77126 0.63752 0.53814 0.0
C1430 C 0.86097 0.59605 0.49102 0.0
C1431 C 0.69111 0.65574 0.5153 0.0
C1432 C 0.76304 0.64315 0.44932 0.0
C1433 C 0.72745 0.62275 0.44216 0.0
C1434 C 0.77576 0.64554 0.46953 0.0
C1435 C 0.75166 0.62725 0.48288 0.0
C1436 C 0.71072 0.60813 0.47596 0.0
C1437 C 0.69922 0.60605 0.45561 0.0
C1438 C 0.81937 0.66628 0.47629 0.0
C1439 C 0.68321 0.58853 0.48979 0.0
H1440 H 0.89055 0.59678 0.52963 0.0
H1441 H 0.74877 0.64765 0.55011 0.0
H1442 H 0.82885 0.58203 0.48429 0.0
H1443 H 0.87568 0.60941 0.47917 0.0
H1444 H 0.90212 0.58558 0.49646 0.0
H1445 H 0.67546 0.66578 0.52887 0.0
H1446 H 0.70073 0.67021 0.50369 0.0
H1447 H 0.65294 0.64353 0.50983 0.0
H1448 H 0.78411 0.65636 0.43895 0.0
H1449 H 0.67182 0.5902 0.45016 0.0
H1450 H 0.86452 0.6576 0.48003 0.0
H1451 H 0.80173 0.67577 0.48981 0.0
H1452 H 0.82689 0.68104 0.46471 0.0
H1453 H 0.71939 0.57474 0.4943 0.0
H1454 H 0.64508 0.57769 0.48274 0.0
H1455 H 0.66554 0.59784 0.50339 0.0
C1456 C 0.7231 0.41713 0.55309 0.0
C1457 C 0.69716 0.39625 0.56323 0.0
C1458 C 0.73683 0.41575 0.53283 0.0
C1459 C 0.72402 0.39299 0.52227 0.0
C1460 C 0.69669 0.372 0.53229 0.0
C1461 C 0.68368 0.37385 0.55264 0.0
C1462 C 0.76573 0.43862 0.52277 0.0
C1463 C 0.68168 0.34748 0.52152 0.0
C1464 C 0.70565 0.39754 0.46649 0.0
C1465 C 0.76216 0.38797 0.45954 0.0
C1466 C 0.69278 0.39923 0.48677 0.0
C1467 C 0.73773 0.39145 0.50064 0.0
C1468 C 0.79562 0.38247 0.4938 0.0
C1469 C 0.80718 0.38084 0.47332 0.0
C1470 C 0.63066 0.40908 0.49334 0.0
C1471 C 0.845 0.37423 0.50811 0.0
H1472 H 0.73389 0.43454 0.56108 0.0
H1473 H 0.66387 0.35759 0.56031 0.0
H1474 H 0.81078 0.43315 0.51628 0.0
H1475 H 0.73602 0.44521 0.51046 0.0
H1476 H 0.77306 0.45488 0.53308 0.0
H1477 H 0.66033 0.33295 0.53137 0.0
H1478 H 0.64964 0.35147 0.50914 0.0
H1479 H 0.72424 0.33927 0.51503 0.0
H1480 H 0.67102 0.40364 0.45597 0.0
H1481 H 0.8508 0.37337 0.46811 0.0
H1482 H 0.63656 0.42617 0.50287 0.0
H1483 H 0.60675 0.3943 0.50228 0.0
H1484 H 0.60069 0.41432 0.48067 0.0
H1485 H 0.85598 0.39012 0.51839 0.0
H1486 H 0.88799 0.36827 0.50049 0.0
H1487 H 0.82805 0.35799 0.51718 0.0
C1488 C 0.16507 0.04611 0.10457 0.0
C1489 C 0.14554 0.05776 0.12208 0.0
C1490 C 0.21163 0.02747 0.10489 0.0
C1491 C 0.24053 0.02131 0.12304 0.0
C1492 C 0.22418 0.03474 0.14043 0.0
C1493 C 0.17545 0.05228 0.13986 0.0
C1494 C 0.2266 0.01311 0.08614 0.0
C1495 C 0.25624 0.02973 0.15983 0.0
C1496 C 0.29416 0.95365 0.13282 0.0
C1497 C 0.35745 0.9553 0.12898 0.0
C1498 C 0.2556 0.97481 0.13023 0.0
C1499 C 0.28133 0.99859 0.12451 0.0
C1500 C 0.34545 0.00057 0.12093 0.0
C1501 C 0.38269 0.97869 0.12284 0.0
C1502 C 0.18718 0.9716 0.13356 0.0
C1503 C 0.37479 0.02564 0.11504 0.0
H1504 H 0.14133 0.05042 0.09088 0.0
H1505 H 0.16038 0.06162 0.15333 0.0
H1506 H 0.27692 0.01318 0.08342 0.0
H1507 H 0.21216 0.99282 0.08773 0.0
H1508 H 0.20307 0.02138 0.07305 0.0
H1509 H 0.24506 0.0445 0.17107 0.0
H1510 H 0.24201 0.01077 0.16565 0.0
H1511 H 0.30691 0.02926 0.15767 0.0
H1512 H 0.27424 0.93556 0.13739 0.0
H1513 H 0.43163 0.97998 0.11982 0.0
H1514 H 0.16121 0.9788 0.12059 0.0
H1515 H 0.1726 0.98302 0.14656 0.0
H1516 H 0.17405 0.9513 0.13614 0.0
H1517 H 0.36488 0.02962 0.09927 0.0
H1518 H 0.42558 0.02523 0.11694 0.0
H1519 H 0.35566 0.0417 0.12382 0.0
C1520 C 0.81943 0.04149 0.35838 0.0
C1521 C 0.85873 0.04352 0.37465 0.0
C1522 C 0.7702 0.02408 0.35854 0.0
C1523 C 0.76309 0.0072 0.37478 0.0
C1524 C 0.80398 0.00882 0.39104 0.0
C1525 C 0.85045 0.0275 0.39099 0.0
C1526 C 0.72621 0.02371 0.34129 0.0
C1527 C 0.79946 0.99052 0.40826 0.0
C1528 C 0.60928 0.97474 0.3839 0.0
C1529 C 0.6176 0.95137 0.37423 0.0
C1530 C 0.65635 0.99312 0.38421 0.0
C1531 C 0.71305 0.98778 0.37473 0.0
C1532 C 0.72141 0.9641 0.36488 0.0
C1533 C 0.67265 0.94645 0.36424 0.0
C1534 C 0.64458 0.01852 0.39413 0.0
C1535 C 0.7819 0.9573 0.35521 0.0
H1536 H 0.82648 0.05391 0.34574 0.0
H1537 H 0.88191 0.02892 0.40337 0.0
H1538 H 0.73547 0.0067 0.33197 0.0
H1539 H 0.67787 0.02236 0.34653 0.0
H1540 H 0.73093 0.04107 0.33191 0.0
H1541 H 0.83877 0.99253 0.41863 0.0
H1542 H 0.75617 0.99397 0.41654 0.0
H1543 H 0.79798 0.97049 0.40284 0.0
H1544 H 0.56559 0.97871 0.39104 0.0
H1545 H 0.67782 0.92862 0.35621 0.0
H1546 H 0.64322 0.03379 0.38276 0.0
H1547 H 0.68228 0.02339 0.4045 0.0
H1548 H 0.60044 0.01859 0.40243 0.0
H1549 H 0.78277 0.93718 0.3499 0.0
H1550 H 0.82034 0.96012 0.36579 0.0
H1551 H 0.79044 0.97011 0.34244 0.0
C1552 C 0.79634 0.96311 0.87858 0.0
C1553 C 0.86069 0.96192 0.87801 0.0
C1554 C 0.76561 0.98664 0.87856 0.0
C1555 C 0.80005 0.00961 0.87722 0.0
C1556 C 0.86526 0.00856 0.87665 0.0
C1557 C 0.895 0.98463 0.87747 0.0
C1558 C 0.6961 0.98683 0.87975 0.0
C1559 C 0.90332 0.03261 0.87476 0.0
C1560 C 0.69882 0.06171 0.85628 0.0
C1561 C 0.68004 0.07435 0.87347 0.0
C1562 C 0.74305 0.04219 0.85707 0.0
C1563 C 0.76666 0.03439 0.87563 0.0
C1564 C 0.75018 0.0481 0.8929 0.0
C1565 C 0.70759 0.06824 0.89154 0.0
C1566 C 0.76144 0.0288 0.83821 0.0
C1567 C 0.77302 0.0401 0.91303 0.0
H1568 H 0.76986 0.94552 0.87924 0.0
H1569 H 0.94485 0.98362 0.87699 0.0
H1570 H 0.68064 -0.00037 0.89185 0.0
H1571 H 0.67667 0.99438 0.86576 0.0
H1572 H 0.67671 0.96742 0.88235 0.0
H1573 H 0.95313 0.02844 0.87287 0.0
H1574 H 0.88731 0.04409 0.86196 0.0
H1575 H 0.89737 0.04462 0.88812 0.0
H1576 H 0.67775 0.06668 0.84227 0.0
H1577 H 0.69262 0.07798 0.90484 0.0
H1578 H 0.73955 0.00962 0.83766 0.0
H1579 H 0.81206 0.02597 0.83769 0.0
H1580 H 0.74708 0.03972 0.8249 0.0
H1581 H 0.74986 0.02202 0.91743 0.0
H1582 H 0.7633 0.05481 0.92446 0.0
H1583 H 0.82323 0.03633 0.91273 0.0
C1584 C 0.20465 0.95013 0.64505 0.0
C1585 C 0.14948 0.952 0.63459 0.0
C1586 C 0.24958 0.96938 0.64374 0.0
C1587 C 0.23695 0.99183 0.63268 0.0
C1588 C 0.17953 0.99441 0.62298 0.0
C1589 C 0.13667 0.9743 0.6239 0.0
C1590 C 0.31065 0.96514 0.6539 0.0
C1591 C 0.16251 0.01874 0.61226 0.0
C1592 C 0.33377 0.04969 0.64661 0.0
C1593 C 0.37139 0.05224 0.62995 0.0
C1594 C 0.28794 0.03073 0.64734 0.0
C1595 C 0.28293 0.01291 0.63163 0.0
C1596 C 0.32253 0.01498 0.61507 0.0
C1597 C 0.3651 0.03517 0.61417 0.0
C1598 C 0.24576 0.02945 0.66506 0.0
C1599 C 0.32167 0.99531 0.59873 0.0
H1600 H 0.21199 0.9339 0.65473 0.0
H1601 H 0.09252 0.9762 0.61657 0.0
H1602 H 0.33275 0.9832 0.65872 0.0
H1603 H 0.30536 0.95252 0.667 0.0
H1604 H 0.34243 0.95561 0.64336 0.0
H1605 H 0.11642 0.01747 0.60523 0.0
H1606 H 0.16274 0.03499 0.62283 0.0
H1607 H 0.19689 0.02321 0.60064 0.0
H1608 H 0.33932 0.06288 0.65885 0.0
H1609 H 0.39549 0.03693 0.60151 0.0
H1610 H 0.25656 0.01216 0.67391 0.0
H1611 H 0.1971 0.02783 0.66021 0.0
H1612 H 0.25046 0.04651 0.67473 0.0
H1613 H 0.32968 0.97598 0.60504 0.0
H1614 H 0.35727 0.99912 0.5873 0.0
H1615 H 0.27594 0.99496 0.59147 0.0
C1616 C 0.85151 0.47381 0.13717 0.0
C1617 C 0.85022 0.45131 0.12583 0.0
C1618 C 0.80519 0.49237 0.13536 0.0
C1619 C 0.75571 0.48817 0.12219 0.0
C1620 C 0.75487 0.46588 0.11037 0.0
C1621 C 0.80285 0.44806 0.11209 0.0
C1622 C 0.80926 0.51652 0.1475 0.0
C1623 C 0.70282 0.46063 0.09616 0.0
C1624 C 0.60817 0.52232 0.13611 0.0
C1625 C 0.60762 0.54296 0.12286 0.0
C1626 C 0.65505 0.50393 0.13555 0.0
C1627 C 0.70335 0.50647 0.12163 0.0
C1628 C 0.70215 0.52683 0.1078 0.0
C1629 C 0.65356 0.54457 0.1084 0.0
C1630 C 0.65318 0.48188 0.14998 0.0
C1631 C 0.75284 0.53069 0.0928 0.0
H1632 H 0.88882 0.47698 0.1475 0.0
H1633 H 0.80203 0.43118 0.10304 0.0
H1634 H 0.81181 0.53329 0.13746 0.0
H1635 H 0.76736 0.51881 0.15672 0.0
H1636 H 0.85013 0.51662 0.15735 0.0
H1637 H 0.70944 0.44249 0.08786 0.0
H1638 H 0.65865 0.45948 0.10439 0.0
H1639 H 0.69879 0.47659 0.08542 0.0
H1640 H 0.572 0.52057 0.14708 0.0
H1641 H 0.65203 0.55988 0.0977 0.0
H1642 H 0.69354 0.48282 0.15998 0.0
H1643 H 0.65591 0.46347 0.14186 0.0
H1644 H 0.61064 0.48189 0.1591 0.0
H1645 H 0.77642 0.51259 0.08883 0.0
H1646 H 0.78767 0.54395 0.09908 0.0
H1647 H 0.73456 0.53947 0.07907 0.0
C1648 C 0.12101 0.47251 0.3853 0.0
C1649 C 0.14695 0.44866 0.38076 0.0
C1650 C 0.15793 0.49465 0.3862 0.0
C1651 C 0.22229 0.49256 0.3831 0.0
C1652 C 0.24858 0.46838 0.37886 0.0
C1653 C 0.21047 0.44687 0.37742 0.0
C1654 C 0.12815 0.52022 0.39023 0.0
C1655 C 0.31714 0.46513 0.3759 0.0
C1656 C 0.32991 0.54538 0.36671 0.0
C1657 C 0.3605 0.55102 0.38438 0.0
C1658 C 0.28065 0.528 0.3664 0.0
C1659 C 0.26312 0.51539 0.38406 0.0
C1660 C 0.29185 0.52208 0.40211 0.0
C1661 C 0.33992 0.54005 0.40207 0.0
C1662 C 0.24978 0.52204 0.34697 0.0
C1663 C 0.27515 0.50887 0.42122 0.0
H1664 H 0.0718 0.47394 0.38776 0.0
H1665 H 0.23083 0.42848 0.37396 0.0
H1666 H 0.14818 0.52889 0.40372 0.0
H1667 H 0.13757 0.53354 0.37781 0.0
H1668 H 0.07751 0.51863 0.39222 0.0
H1669 H 0.33045 0.44477 0.37378 0.0
H1670 H 0.33233 0.47616 0.36276 0.0
H1671 H 0.34247 0.47276 0.38885 0.0
H1672 H 0.34514 0.55424 0.35306 0.0
H1673 H 0.36365 0.54446 0.41573 0.0
H1674 H 0.19899 0.52168 0.34875 0.0
H1675 H 0.26426 0.50279 0.34184 0.0
H1676 H 0.26187 0.53621 0.33535 0.0
H1677 H 0.22449 0.50832 0.42323 0.0
H1678 H 0.2961 0.51844 0.43424 0.0
H1679 H 0.29159 0.48877 0.42075 0.0
C1680 C 0.36633 0.47142 0.88795 0.0
C1681 C 0.36144 0.44865 0.87722 0.0
C1682 C 0.3195 0.48986 0.88722 0.0
C1683 C 0.26604 0.485 0.87585 0.0
C1684 C 0.26099 0.46187 0.86502 0.0
C1685 C 0.30986 0.44427 0.86536 0.0
C1686 C 0.32766 0.51468 0.89835 0.0
C1687 C 0.20352 0.45547 0.8535 0.0
C1688 C 0.12672 0.52347 0.89208 0.0
C1689 C 0.12208 0.54148 0.87687 0.0
C1690 C 0.17163 0.50424 0.89149 0.0
C1691 C 0.21484 0.50387 0.87577 0.0
C1692 C 0.21065 0.5223 0.86046 0.0
C1693 C 0.16311 0.5405 0.86093 0.0
C1694 C 0.17372 0.4852 0.90827 0.0
C1695 C 0.25794 0.52354 0.84412 0.0
H1696 H 0.40735 0.47495 0.89666 0.0
H1697 H 0.30714 0.42677 0.85679 0.0
H1698 H 0.32904 0.53087 0.88773 0.0
H1699 H 0.28817 0.518 0.90841 0.0
H1700 H 0.37055 0.5149 0.90726 0.0
H1701 H 0.20477 0.43577 0.84736 0.0
H1702 H 0.16239 0.45737 0.86314 0.0
H1703 H 0.19779 0.46912 0.84111 0.0
H1704 H 0.09503 0.5244 0.90446 0.0
H1705 H 0.15989 0.55477 0.84934 0.0
H1706 H 0.19873 0.49386 0.9209 0.0
H1707 H 0.19733 0.46718 0.90417 0.0
H1708 H 0.12647 0.48056 0.91347 0.0
H1709 H 0.30478 0.5252 0.85054 0.0
H1710 H 0.25019 0.53999 0.83402 0.0
H1711 H 0.25689 0.50567 0.8353 0.0
C1712 C 0.83891 0.55411 0.64359 0.0
C1713 C 0.86394 0.561 0.62527 0.0
C1714 C 0.79295 0.53527 0.64492 0.0
C1715 C 0.77347 0.5224 0.62759 0.0
C1716 C 0.79677 0.53017 0.60896 0.0
C1717 C 0.84134 0.54962 0.60802 0.0
C1718 C 0.76769 0.5282 0.66497 0.0
C1719 C 0.77812 0.51669 0.59018 0.0
C1720 C 0.73296 0.45241 0.63435 0.0
C1721 C 0.66882 0.45249 0.6321 0.0
C1722 C 0.76725 0.47499 0.63262 0.0
C1723 C 0.7365 0.49848 0.62927 0.0
C1724 C 0.67145 0.49881 0.62746 0.0
C1725 C 0.63838 0.47565 0.6285 0.0
C1726 C 0.83661 0.47358 0.63414 0.0
C1727 C 0.63692 0.52354 0.62448 0.0
H1728 H 0.85593 0.5632 0.6569 0.0
H1729 H 0.86091 0.555 0.59387 0.0
H1730 H 0.71681 0.5264 0.6644 0.0
H1731 H 0.78645 0.50936 0.66954 0.0
H1732 H 0.78004 0.54256 0.67641 0.0
H1733 H 0.79554 0.52666 0.57679 0.0
H1734 H 0.79672 0.4969 0.59027 0.0
H1735 H 0.7273 0.5152 0.58918 0.0
H1736 H 0.75678 0.43448 0.63688 0.0
H1737 H 0.58874 0.4757 0.62681 0.0
H1738 H 0.85266 0.48497 0.64697 0.0
H1739 H 0.85805 0.48191 0.62071 0.0
H1740 H 0.85343 0.45362 0.63589 0.0
H1741 H 0.65067 0.53767 0.6359 0.0
H1742 H 0.58621 0.52085 0.62519 0.0
H1743 H 0.64882 0.53178 0.60988 0.0
C1744 C 0.06692 0.2043 0.10414 0.0
C1745 C 0.03266 0.18613 0.11482 0.0
C1746 C 0.05214 0.23044 0.10489 0.0
C1747 C 0.00213 0.23871 0.11669 0.0
C1748 C 0.9672 0.22056 0.12744 0.0
C1749 C 0.98267 0.19453 0.12632 0.0
C1750 C 0.09013 0.24925 0.09308 0.0
C1751 C 0.91364 0.22865 0.14025 0.0
C1752 C 0.99655 0.30824 0.13313 0.0
C1753 C 0.95343 0.31868 0.11995 0.0
C1754 C 0.01295 0.28226 0.13221 0.0
C1755 C 0.98592 0.26634 0.11769 0.0
C1756 C 0.94276 0.27671 0.10427 0.0
C1757 C 0.92692 0.30269 0.10558 0.0
C1758 C 0.0589 0.27182 0.14687 0.0
C1759 C 0.91322 0.26035 0.0885 0.0
H1760 H 0.10543 0.19815 0.09512 0.0
H1761 H 0.95579 0.18083 0.13471 0.0
H1762 H 0.06014 0.25989 0.08266 0.0
H1763 H 0.11137 0.26354 0.1031 0.0
H1764 H 0.12726 0.23972 0.0845 0.0
H1765 H 0.89142 0.21217 0.14782 0.0
H1766 H 0.92952 0.24245 0.15162 0.0
H1767 H 0.87851 0.23854 0.13115 0.0
H1768 H 0.01723 0.32028 0.14435 0.0
H1769 H 0.89393 0.31045 0.09519 0.0
H1770 H 0.09885 0.26347 0.13894 0.0
H1771 H 0.03748 0.25621 0.15563 0.0
H1772 H 0.07597 0.28674 0.15719 0.0
H1773 H 0.94924 0.25166 0.079 0.0
H1774 H 0.88121 0.27144 0.07899 0.0
H1775 H 0.88723 0.24442 0.09545 0.0
C1776 C 0.40604 0.79327 0.11269 0.0
C1777 C 0.45199 0.80993 0.11947 0.0
C1778 C 0.41698 0.76687 0.11118 0.0
C1779 C 0.47461 0.75687 0.11716 0.0
C1780 C 0.52101 0.77362 0.12417 0.0
C1781 C 0.50941 0.80003 0.12497 0.0
C1782 C 0.36695 0.74969 0.10316 0.0
C1783 C 0.58248 0.76361 0.13114 0.0
C1784 C 0.48046 0.68674 0.13179 0.0
C1785 C 0.50943 0.67571 0.11534 0.0
C1786 C 0.46923 0.71315 0.13262 0.0
C1787 C 0.48602 0.72882 0.11641 0.0
C1788 C 0.51417 0.71771 0.09959 0.0
C1789 C 0.52628 0.69132 0.09936 0.0
C1790 C 0.44041 0.72437 0.151 0.0
C1791 C 0.53142 0.73371 0.08183 0.0
H1792 H 0.36179 0.80095 0.10826 0.0
H1793 H 0.5448 0.81288 0.13038 0.0
H1794 H 0.38473 0.73857 0.09041 0.0
H1795 H 0.35258 0.73572 0.11461 0.0
H1796 H 0.32578 0.76063 0.09833 0.0
H1797 H 0.61329 0.77915 0.13641 0.0
H1798 H 0.57547 0.74973 0.14336 0.0
H1799 H 0.60595 0.75325 0.11898 0.0
H1800 H 0.46805 0.67478 0.14427 0.0
H1801 H 0.54833 0.68282 0.08657 0.0
H1802 H 0.39652 0.73403 0.14723 0.0
H1803 H 0.47142 0.73908 0.1574 0.0
H1804 H 0.43098 0.70961 0.16243 0.0
H1805 H 0.49034 0.74407 0.07627 0.0
H1806 H 0.55075 0.72198 0.06963 0.0
H1807 H 0.56597 0.74834 0.08609 0.0
C1808 C 0.50113 0.69586 0.37173 0.0
C1809 C 0.45515 0.68553 0.38399 0.0
C1810 C 0.51259 0.7223 0.37121 0.0
C1811 C 0.47766 0.73888 0.38336 0.0
C1812 C 0.43084 0.72868 0.39564 0.0
C1813 C 0.41994 0.70216 0.39574 0.0
C1814 C 0.56252 0.73246 0.35776 0.0
C1815 C 0.39291 0.74575 0.40891 0.0
C1816 C 0.54926 0.80309 0.39639 0.0
C1817 C 0.51878 0.8198 0.38341 0.0
C1818 C 0.53585 0.77679 0.39665 0.0
C1819 C 0.49116 0.76684 0.38353 0.0
C1820 C 0.46019 0.78351 0.37039 0.0
C1821 C 0.47418 0.80977 0.37053 0.0
C1822 C 0.56962 0.75965 0.41097 0.0
C1823 C 0.41261 0.77356 0.35606 0.0
H1824 H 0.52827 0.6833 0.36243 0.0
H1825 H 0.38453 0.69443 0.40534 0.0
H1826 H 0.54325 0.74713 0.34766 0.0
H1827 H 0.59888 0.7419 0.36667 0.0
H1828 H 0.58414 0.71713 0.34875 0.0
H1829 H 0.35747 0.7349 0.41731 0.0
H1830 H 0.42341 0.75569 0.41959 0.0
H1831 H 0.3696 0.76071 0.40003 0.0
H1832 H 0.58346 0.81053 0.40653 0.0
H1833 H 0.45047 0.82237 0.36035 0.0
H1834 H 0.59581 0.74486 0.40275 0.0
H1835 H 0.53616 0.74949 0.42059 0.0
H1836 H 0.6022 0.77045 0.42048 0.0
H1837 H 0.43379 0.75916 0.34611 0.0
H1838 H 0.39233 0.78904 0.34689 0.0
H1839 H 0.37496 0.76382 0.36422 0.0
C1840 C 0.08652 0.28632 0.39336 0.0
C1841 C 0.04091 0.30439 0.38892 0.0
C1842 C 0.07224 0.26015 0.39467 0.0
C1843 C 0.01132 0.25182 0.39083 0.0
C1844 C 0.96514 0.27003 0.38629 0.0
C1845 C 0.98033 0.29614 0.38568 0.0
C1846 C 0.12238 0.2414 0.40005 0.0
C1847 C 0.90009 0.26187 0.38155 0.0
C1848 C 0.99201 0.1834 0.37303 0.0
C1849 C 0.96807 0.17125 0.38985 0.0
C1850 C 0.00556 0.20964 0.37311 0.0
C1851 C 0.99657 0.22398 0.39062 0.0
C1852 C 0.97327 0.21174 0.40776 0.0
C1853 C 0.95837 0.18555 0.40708 0.0
C1854 C 0.02873 0.22208 0.35437 0.0
C1855 C 0.96456 0.22626 0.42684 0.0
H1856 H 0.13326 0.2927 0.39609 0.0
H1857 H 0.94509 0.31009 0.38212 0.0
H1858 H 0.10752 0.22943 0.41274 0.0
H1859 H 0.13124 0.22831 0.38747 0.0
H1860 H 0.1662 0.25113 0.40397 0.0
H1861 H 0.86949 0.27844 0.37849 0.0
H1862 H 0.90023 0.24915 0.36842 0.0
H1863 H 0.88041 0.25077 0.39401 0.0
H1864 H 0.99879 0.17245 0.35959 0.0
H1865 H 0.94016 0.17616 0.42013 0.0
H1866 H 0.07515 0.23033 0.35683 0.0
H1867 H 0.99782 0.23806 0.35011 0.0
H1868 H 0.03145 0.20837 0.34185 0.0
H1869 H 0.00874 0.23517 0.43137 0.0
H1870 H 0.94794 0.21376 0.43901 0.0
H1871 H 0.93092 0.24198 0.42468 0.0
C1872 C 0.92546 0.79785 0.86717 0.0
C1873 C 0.94996 0.8135 0.88206 0.0
C1874 C 0.93879 0.77155 0.86649 0.0
C1875 C 0.97659 0.76055 0.88126 0.0
C1876 C 0.00108 0.77623 0.8964 0.0
C1877 C 0.98796 0.80255 0.89651 0.0
C1878 C 0.91276 0.75557 0.84989 0.0
C1879 C 0.0408 0.76516 0.91259 0.0
C1880 C 0.96453 0.6888 0.89006 0.0
C1881 C 0.01805 0.67975 0.88079 0.0
C1882 C 0.95061 0.71505 0.8904 0.0
C1883 C 0.99053 0.73263 0.8809 0.0
C1884 C 0.04406 0.72356 0.87121 0.0
C1885 C 0.05747 0.69726 0.87143 0.0
C1886 C 0.89361 0.72401 0.90116 0.0
C1887 C 0.08714 0.74164 0.86058 0.0
H1888 H 0.89653 0.80622 0.85585 0.0
H1889 H 0.00682 0.81451 0.90811 0.0
H1890 H 0.95073 0.74614 0.84167 0.0
H1891 H 0.88305 0.74019 0.85598 0.0
H1892 H 0.88521 0.76713 0.83934 0.0
H1893 H 0.05533 0.77985 0.9235 0.0
H1894 H 0.01529 0.74984 0.92049 0.0
H1895 H 0.0826 0.7563 0.90612 0.0
H1896 H 0.93397 0.67541 0.8974 0.0
H1897 H 0.09862 0.69038 0.86407 0.0
H1898 H 0.86269 0.73427 0.89081 0.0
H1899 H 0.90657 0.73773 0.91296 0.0
H1900 H 0.86763 0.70793 0.90795 0.0
H1901 H 0.06145 0.75265 0.84925 0.0
H1902 H 0.12577 0.73144 0.85324 0.0
H1903 H 0.10658 0.75566 0.87118 0.0
C1904 C 0.56844 0.21115 0.85679 0.0
C1905 C 0.54976 0.19585 0.8727 0.0
C1906 C 0.54768 0.2365 0.85496 0.0
C1907 C 0.50962 0.24699 0.86989 0.0
C1908 C 0.48897 0.23124 0.88563 0.0
C1909 C 0.50853 0.20567 0.88665 0.0
C1910 C 0.56847 0.25228 0.8375 0.0
C1911 C 0.44938 0.24179 0.90208 0.0
C1912 C 0.51912 0.3178 0.88199 0.0
C1913 C 0.46093 0.32632 0.87602 0.0
C1914 C 0.53647 0.29214 0.87945 0.0
C1915 C 0.49539 0.27487 0.8701 0.0
C1916 C 0.43864 0.28396 0.8626 0.0
C1917 C 0.42154 0.3095 0.86601 0.0
C1918 C 0.59692 0.28314 0.888 0.0
C1919 C 0.39481 0.26646 0.85179 0.0
H1920 H 0.60024 0.2034 0.84597 0.0
H1921 H 0.49472 0.19385 0.89907 0.0
H1922 H 0.52925 0.26318 0.83122 0.0
H1923 H 0.60354 0.26638 0.84235 0.0
H1924 H 0.58897 0.24023 0.82568 0.0
H1925 H 0.43583 0.22683 0.91293 0.0
H1926 H 0.4749 0.25707 0.91 0.0
H1927 H 0.40703 0.25056 0.89596 0.0
H1928 H 0.54944 0.33075 0.88987 0.0
H1929 H 0.37662 0.31617 0.86129 0.0
H1930 H 0.62455 0.27321 0.87656 0.0
H1931 H 0.58796 0.26916 0.90002 0.0
H1932 H 0.62468 0.29917 0.89409 0.0
H1933 H 0.41995 0.25474 0.84075 0.0
H1934 H 0.35786 0.2773 0.84414 0.0
H1935 H 0.37294 0.2531 0.86243 0.0
C1936 C 0.45103 0.1925 0.63159 0.0
C1937 C 0.48661 0.17407 0.62183 0.0
C1938 C 0.47253 0.21762 0.63398 0.0
C1939 C 0.53036 0.2246 0.62594 0.0
C1940 C 0.56778 0.20572 0.61688 0.0
C1941 C 0.5457 0.18052 0.61515 0.0
C1942 C 0.432 0.23696 0.64427 0.0
C1943 C 0.62935 0.21248 0.60791 0.0
C1944 C 0.54215 0.29411 0.61003 0.0
C1945 C 0.57741 0.30478 0.62527 0.0
C1946 C 0.52821 0.26789 0.6098 0.0
C1947 C 0.54878 0.25204 0.62545 0.0
C1948 C 0.58446 0.26269 0.64089 0.0
C1949 C 0.59894 0.28891 0.6405 0.0
C1950 C 0.49086 0.25719 0.5929 0.0
C1951 C 0.60592 0.24654 0.65806 0.0
H1952 H 0.40558 0.18742 0.63697 0.0
H1953 H 0.5732 0.16628 0.60754 0.0
H1954 H 0.45885 0.24782 0.6554 0.0
H1955 H 0.41433 0.25095 0.63332 0.0
H1956 H 0.39205 0.22782 0.65173 0.0
H1957 H 0.65526 0.19524 0.60309 0.0
H1958 H 0.62215 0.22504 0.59489 0.0
H1959 H 0.6579 0.22329 0.61861 0.0
H1960 H 0.5258 0.30625 0.59815 0.0
H1961 H 0.62581 0.29712 0.65241 0.0
H1962 H 0.44609 0.24994 0.59849 0.0
H1963 H 0.51538 0.24078 0.58608 0.0
H1964 H 0.4817 0.27173 0.58128 0.0
H1965 H 0.56545 0.23887 0.66617 0.0
H1966 H 0.63492 0.25755 0.66857 0.0
H1967 H 0.63267 0.22988 0.65264 0.0
C1968 C 0.99431 0.69991 0.60791 0.0
C1969 C 0.96291 0.68816 0.62353 0.0
C1970 C 0.01091 0.72584 0.60893 0.0
C1971 C 0.9974 0.74 0.62625 0.0
C1972 C 0.96753 0.72783 0.64235 0.0
C1973 C 0.94952 0.70209 0.64063 0.0
C1974 C 0.04123 0.73825 0.59126 0.0
C1975 C 0.95422 0.74202 0.6613 0.0
C1976 C 0.08842 0.80149 0.63314 0.0
C1977 C 0.04503 0.82007 0.62775 0.0
C1978 C 0.07298 0.77539 0.63329 0.0
C1979 C 0.01337 0.76768 0.62727 0.0
C1980 C 0.9695 0.78641 0.62169 0.0
C1981 C 0.98558 0.81244 0.62232 0.0
C1982 C 0.12036 0.75608 0.63994 0.0
C1983 C 0.90604 0.77892 0.61465 0.0
H1984 H 0.0039 0.68903 0.59462 0.0
H1985 H 0.92524 0.69279 0.65267 0.0
H1986 H 0.01252 0.75441 0.58595 0.0
H1987 H 0.08665 0.74625 0.59548 0.0
H1988 H 0.04806 0.72459 0.57887 0.0
H1989 H 0.93519 0.72925 0.67293 0.0
H1990 H 0.99694 0.75107 0.66696 0.0
H1991 H 0.92065 0.75758 0.65847 0.0
H1992 H 0.13421 0.80743 0.63758 0.0
H1993 H 0.95215 0.82683 0.61807 0.0
H1994 H 0.13224 0.74311 0.62754 0.0
H1995 H 0.10119 0.74405 0.65198 0.0
H1996 H 0.1633 0.76533 0.64529 0.0
H1997 H 0.90989 0.76617 0.6016 0.0
H1998 H 0.87767 0.7958 0.61056 0.0
H1999 H 0.88159 0.76805 0.62635 0.0
C2000 C 0.92355 0.12546 0.2924 0.0
C2001 C 0.97668 0.11691 0.30213 0.0
C2002 C 0.92324 0.12905 0.27186 0.0
C2003 C 0.97743 0.12409 0.26087 0.0
C2004 C 0.03175 0.11631 0.2707 0.0
C2005 C 0.03066 0.11274 0.29121 0.0
C2006 C 0.86441 0.13728 0.26183 0.0
C2007 C 0.09053 0.11098 0.25948 0.0
C2008 C 0.96404 0.10348 0.20746 0.0
C2009 C 0.98023 0.12594 0.19735 0.0
C2010 C 0.96182 0.10282 0.22812 0.0
C2011 C 0.97635 0.12516 0.23897 0.0
C2012 C 0.9919 0.14803 0.2289 0.0
C2013 C 0.99356 0.14816 0.20815 0.0
C2014 C 0.94483 0.07808 0.23835 0.0
C2015 C 0.00779 0.17217 0.24003 0.0
H2016 H 0.88172 0.12877 0.30077 0.0
H2017 H 0.07206 0.10634 0.29865 0.0
H2018 H 0.873 0.15417 0.25228 0.0
H2019 H 0.84754 0.12164 0.25215 0.0
H2020 H 0.82759 0.14212 0.27261 0.0
H2021 H 0.12983 0.10682 0.26947 0.0
H2022 H 0.08373 0.0943 0.24957 0.0
H2023 H 0.10277 0.12759 0.25004 0.0
H2024 H 0.95336 0.08624 0.19923 0.0
H2025 H 0.00603 0.1656 0.20043 0.0
H2026 H 0.90518 0.08121 0.24842 0.0
H2027 H 0.98396 0.0714 0.24753 0.0
H2028 H 0.93263 0.06269 0.22774 0.0
H2029 H 0.9698 0.17731 0.25026 0.0
H2030 H 0.01658 0.18861 0.23 0.0
H2031 H 0.04946 0.16893 0.24917 0.0
C2032 C 0.4959 0.90643 0.20092 0.0
C2033 C 0.49288 0.88207 0.1922 0.0
C2034 C 0.49416 0.90946 0.22162 0.0
C2035 C 0.48935 0.88763 0.234 0.0
C2036 C 0.48553 0.86304 0.22527 0.0
C2037 C 0.4873 0.86056 0.20456 0.0
C2038 C 0.49835 0.93603 0.23026 0.0
C2039 C 0.48052 0.83922 0.23782 0.0
C2040 C 0.54955 0.89158 0.28687 0.0
C2041 C 0.4952 0.89421 0.29798 0.0
C2042 C 0.5482 0.88962 0.26615 0.0
C2043 C 0.49109 0.89034 0.25608 0.0
C2044 C 0.43599 0.89312 0.26716 0.0
C2045 C 0.43868 0.89499 0.28795 0.0
C2046 C 0.6081 0.88662 0.25503 0.0
C2047 C 0.37415 0.89402 0.25704 0.0
H2048 H 0.50001 0.92319 0.19158 0.0
H2049 H 0.48477 0.84164 0.19806 0.0
H2050 H 0.45855 0.93962 0.24017 0.0
H2051 H 0.54065 0.93772 0.23935 0.0
H2052 H 0.49937 0.95111 0.21869 0.0
H2053 H 0.47582 0.82158 0.22879 0.0
H2054 H 0.52204 0.83736 0.24725 0.0
H2055 H 0.44018 0.84067 0.24783 0.0
H2056 H 0.59356 0.89097 0.29438 0.0
H2057 H 0.39642 0.89707 0.29633 0.0
H2058 H 0.61336 0.90235 0.24413 0.0
H2059 H 0.60785 0.86837 0.24665 0.0
H2060 H 0.64872 0.88672 0.26499 0.0
H2061 H 0.37325 0.9099 0.24616 0.0
H2062 H 0.33566 0.89671 0.26767 0.0
H2063 H 0.36633 0.87599 0.24875 0.0
C2064 C 0.95946 0.8927 0.71961 0.0
C2065 C 0.01673 0.89796 0.71084 0.0
C2066 C 0.95362 0.88997 0.74027 0.0
C2067 C 0.00621 0.89264 0.7525 0.0
C2068 C 0.06397 0.89812 0.74372 0.0
C2069 C 0.06852 0.90067 0.72308 0.0
C2070 C 0.89123 0.88405 0.74899 0.0
C2071 C 0.12124 0.9012 0.75614 0.0
C2072 C 0.9896 0.9075 0.80754 0.0
C2073 C 0.00081 0.88352 0.81621 0.0
C2074 C 0.98993 0.91065 0.78686 0.0
C2075 C 0.00145 0.88931 0.77446 0.0
C2076 C 0.01138 0.86496 0.78312 0.0
C2077 C 0.01108 0.86238 0.80382 0.0
C2078 C 0.9793 0.93696 0.77829 0.0
C2079 C 0.02352 0.84167 0.77051 0.0
H2080 H 0.91915 0.89057 0.71034 0.0
H2081 H 0.11301 0.90479 0.71654 0.0
H2082 H 0.89296 0.86557 0.75707 0.0
H2083 H 0.8783 0.89902 0.75985 0.0
H2084 H 0.85471 0.88287 0.73755 0.0
H2085 H 0.16249 0.90588 0.7471 0.0
H2086 H 0.11436 0.91663 0.76718 0.0
H2087 H 0.1304 0.88328 0.76442 0.0
H2088 H 0.98152 0.92397 0.81692 0.0
H2089 H 0.01948 0.84374 0.8103 0.0
H2090 H 0.94101 0.93639 0.76747 0.0
H2091 H 0.02109 0.94336 0.77023 0.0
H2092 H 0.96822 0.95136 0.78984 0.0
H2093 H 0.98604 0.83919 0.75955 0.0
H2094 H 0.02727 0.82388 0.77943 0.0
H2095 H 0.067 0.8443 0.76213 0.0
C2096 C 0.47557 0.17161 0.79179 0.0
C2097 C 0.51047 0.15317 0.80185 0.0
C2098 C 0.47823 0.1736 0.77109 0.0
C2099 C 0.51696 0.15686 0.7603 0.0
C2100 C 0.55445 0.13908 0.7705 0.0
C2101 C 0.55062 0.13741 0.79112 0.0
C2102 C 0.4376 0.19279 0.76072 0.0
C2103 C 0.59681 0.12102 0.75957 0.0
C2104 C 0.47908 0.13488 0.70848 0.0
C2105 C 0.52292 0.14814 0.6972 0.0
C2106 C 0.47435 0.13869 0.72891 0.0
C2107 C 0.51471 0.15609 0.73835 0.0
C2108 C 0.55681 0.17059 0.72691 0.0
C2109 C 0.56029 0.1665 0.70641 0.0
C2110 C 0.42833 0.12303 0.74054 0.0
C2111 C 0.6005 0.18935 0.73644 0.0
H2112 H 0.4446 0.18392 0.8 0.0
H2113 H 0.57831 0.12331 0.79879 0.0
H2114 H 0.46461 0.20395 0.74978 0.0
H2115 H 0.40094 0.18254 0.7525 0.0
H2116 H 0.41546 0.20628 0.77123 0.0
H2117 H 0.6264 0.10976 0.76975 0.0
H2118 H 0.5691 0.10748 0.7506 0.0
H2119 H 0.62686 0.13184 0.74926 0.0
H2120 H 0.44945 0.1209 0.70144 0.0
H2121 H 0.5941 0.17691 0.69777 0.0
H2122 H 0.40081 0.13558 0.75038 0.0
H2123 H 0.45312 0.10915 0.75005 0.0
H2124 H 0.39639 0.11223 0.7308 0.0
H2125 H 0.57551 0.20198 0.7469 0.0
H2126 H 0.62462 0.20144 0.72536 0.0
H2127 H 0.63557 0.17872 0.74507 0.0
C2128 C 0.54199 0.62462 0.2077 0.0
C2129 C 0.49188 0.61344 0.19788 0.0
C2130 C 0.54214 0.62726 0.22834 0.0
C2131 C 0.49093 0.61852 0.23942 0.0
C2132 C 0.43981 0.60759 0.22957 0.0
C2133 C 0.44091 0.60517 0.20893 0.0
C2134 C 0.59752 0.639 0.23832 0.0
C2135 C 0.38436 0.59804 0.24088 0.0
C2136 C 0.51556 0.60037 0.29312 0.0
C2137 C 0.49203 0.62181 0.30307 0.0
C2138 C 0.5157 0.59915 0.27243 0.0
C2139 C 0.4918 0.61986 0.26137 0.0
C2140 C 0.46826 0.64163 0.27128 0.0
C2141 C 0.46861 0.64234 0.29204 0.0
C2142 C 0.54118 0.57559 0.2624 0.0
C2143 C 0.44247 0.6641 0.25996 0.0
H2144 H 0.58152 0.63112 0.19928 0.0
H2145 H 0.40191 0.59657 0.20146 0.0
H2146 H 0.58311 0.65545 0.2476 0.0
H2147 H 0.6192 0.62475 0.24828 0.0
H2148 H 0.63262 0.64571 0.22755 0.0
H2149 H 0.34746 0.59086 0.23097 0.0
H2150 H 0.39825 0.58232 0.25096 0.0
H2151 H 0.36522 0.61362 0.25017 0.0
H2152 H 0.53378 0.58441 0.3015 0.0
H2153 H 0.45042 0.65899 0.2996 0.0
H2154 H 0.57939 0.58101 0.25233 0.0
H2155 H 0.50492 0.56649 0.25324 0.0
H2156 H 0.55858 0.56123 0.27313 0.0
H2157 H 0.47798 0.6719 0.24981 0.0
H2158 H 0.42657 0.67971 0.26987 0.0
H2159 H 0.40312 0.65776 0.25074 0.0
C2160 C 0.97844 0.40086 0.22009 0.0
C2161 C 0.01637 0.38293 0.21054 0.0
C2162 C 0.97174 0.40093 0.24084 0.0
C2163 C 0.00397 0.38274 0.25246 0.0
C2164 C 0.04294 0.36483 0.24291 0.0
C2165 C 0.04849 0.36509 0.22216 0.0
C2166 C 0.92944 0.42028 0.25032 0.0
C2167 C 0.07848 0.34517 0.25462 0.0
C2168 C 0.02696 0.39453 0.30787 0.0
C2169 C 0.9818 0.37864 0.31631 0.0
C2170 C 0.03445 0.39621 0.28718 0.0
C2171 C 0.9956 0.38183 0.27451 0.0
C2172 C 0.94949 0.36601 0.28296 0.0
C2173 C 0.94335 0.36454 0.30365 0.0
C2174 C 0.08447 0.41318 0.27889 0.0
C2175 C 0.90672 0.35046 0.27011 0.0
H2176 H 0.95335 0.41474 0.21133 0.0
H2177 H 0.07813 0.35119 0.21505 0.0
H2178 H 0.89179 0.41025 0.25828 0.0
H2179 H 0.95509 0.43172 0.2614 0.0
H2180 H 0.90872 0.43352 0.23934 0.0
H2181 H 0.10843 0.33314 0.24509 0.0
H2182 H 0.10763 0.35482 0.26582 0.0
H2183 H 0.04604 0.3325 0.26268 0.0
H2184 H 0.05701 0.40549 0.31744 0.0
H2185 H 0.9081 0.35227 0.30991 0.0
H2186 H 0.06429 0.42747 0.26866 0.0
H2187 H 0.11751 0.4015 0.27022 0.0
H2188 H 0.11019 0.42347 0.29064 0.0
H2189 H 0.88216 0.3632 0.25963 0.0
H2190 H 0.87208 0.33969 0.27889 0.0
H2191 H 0.93371 0.33663 0.26118 0.0
C2192 C 0.4735 0.35451 0.70322 0.0
C2193 C 0.50876 0.37155 0.69178 0.0
C2194 C 0.47614 0.35478 0.72401 0.0
C2195 C 0.51529 0.37242 0.73377 0.0
C2196 C 0.55102 0.38968 0.72232 0.0
C2197 C 0.54721 0.38909 0.70153 0.0
C2198 C 0.43699 0.33613 0.73556 0.0
C2199 C 0.59365 0.4087 0.73205 0.0
C2200 C 0.48508 0.38844 0.78811 0.0
C2201 C 0.52836 0.37299 0.79787 0.0
C2202 C 0.4801 0.38836 0.76733 0.0
C2203 C 0.51949 0.37255 0.75592 0.0
C2204 C 0.56296 0.35679 0.7657 0.0
C2205 C 0.56676 0.35716 0.78647 0.0
C2206 C 0.4328 0.40533 0.75758 0.0
C2207 C 0.60597 0.33967 0.75418 0.0
H2208 H 0.44348 0.3409 0.69592 0.0
H2209 H 0.57474 0.40232 0.6929 0.0
H2210 H 0.46682 0.32354 0.74464 0.0
H2211 H 0.40639 0.34667 0.74586 0.0
H2212 H 0.40813 0.32393 0.72582 0.0
H2213 H 0.61812 0.42091 0.72112 0.0
H2214 H 0.56718 0.42124 0.74219 0.0
H2215 H 0.62835 0.39843 0.74108 0.0
H2216 H 0.45513 0.40075 0.7967 0.0
H2217 H 0.60048 0.34516 0.79377 0.0
H2218 H 0.40121 0.39359 0.74843 0.0
H2219 H 0.45598 0.4191 0.74754 0.0
H2220 H 0.40505 0.41625 0.7685 0.0
H2221 H 0.57904 0.32607 0.74503 0.0
H2222 H 0.63714 0.32854 0.76394 0.0
H2223 H 0.63441 0.35135 0.74395 0.0
C2224 C 0.03036 0.66283 0.71226 0.0
C2225 C 0.99741 0.64553 0.70045 0.0
C2226 C 0.02268 0.66315 0.73289 0.0
C2227 C 0.98069 0.64592 0.74186 0.0
C2228 C 0.94518 0.62931 0.7299 0.0
C2229 C 0.95414 0.62925 0.70938 0.0
C2230 C 0.06153 0.68108 0.74515 0.0
C2231 C 0.89944 0.61083 0.73885 0.0
C2232 C 0.00868 0.62194 0.79399 0.0
C2233 C 0.96545 0.63597 0.80494 0.0
C2234 C 0.01528 0.62561 0.77357 0.0
C2235 C 0.97739 0.64362 0.76377 0.0
C2236 C 0.93454 0.65826 0.77478 0.0
C2237 C 0.92924 0.65434 0.79527 0.0
C2238 C 0.06193 0.60975 0.76242 0.0
C2239 C 0.89313 0.67753 0.76482 0.0
H2240 H 0.06382 0.6755 0.70548 0.0
H2241 H 0.928 0.616 0.70035 0.0
H2242 H 0.03222 0.69198 0.75561 0.0
H2243 H 0.09468 0.66982 0.75408 0.0
H2244 H 0.08779 0.69485 0.73588 0.0
H2245 H 0.87176 0.60078 0.72744 0.0
H2246 H 0.92424 0.59628 0.74774 0.0
H2247 H 0.86766 0.62107 0.74896 0.0
H2248 H 0.03724 0.60786 0.80134 0.0
H2249 H 0.89576 0.66527 0.80363 0.0
H2250 H 0.09316 0.62238 0.75384 0.0
H2251 H 0.03796 0.59713 0.75171 0.0
H2252 H 0.09017 0.59761 0.77238 0.0
H2253 H 0.92092 0.69123 0.75601 0.0
H2254 H 0.86488 0.68846 0.7756 0.0
H2255 H 0.86176 0.66755 0.75444 0.0
loop_
_geom_bond_atom_site_label_1
_geom_bond_atom_site_label_2
_geom_bond_distance
_geom_bond_site_symmetry_2
_ccdc_geom_bond_type
O0 Tb1 2.292 . S
O0 C3 1.255 . S
Tb1 O0 2.292 . S
Tb1 O17 2.326 . S
Tb1 O19 2.500 . S
Tb1 O20 2.473 . S
Tb1 O23 2.324 . S
Eu2 O6 2.292 1_455 S
Eu2 C7 2.852 1_455 S
Eu2 O18 2.324 . S
Eu2 O22 2.326 . S
Eu2 O24 2.500 1_455 S
Eu2 O25 2.473 1_455 S
C3 O0 1.255 . S
C3 O4 1.247 . S
O4 C3 1.247 . S
C5 O17 1.242 . S
C5 O18 1.258 . S
O6 Eu2 2.292 1_655 S
O6 C8 1.255 . S
C7 Eu2 2.852 1_655 S
C7 C11 1.503 . S
C7 O24 1.273 . S
C7 O25 1.257 . S
C8 O6 1.255 . S
C8 O9 1.247 1_655 S
O9 C8 1.247 1_455 S
C10 O22 1.242 . S
C10 O23 1.258 . S
C11 C7 1.503 . S
C11 C12 1.379 . S
C11 C16 1.392 . S
C12 C11 1.379 . S
C12 C13 1.404 . S
C12 H26 0.929 . S
C13 C12 1.404 . S
C13 C14 1.389 . S
C14 C13 1.389 . S
C14 C15 1.399 . S
C14 H27 0.931 . S
C15 C14 1.399 . S
C15 C16 1.390 . S
C16 C11 1.392 . S
C16 C15 1.390 . S
C16 H28 0.929 . S
O17 Tb1 2.326 . S
O17 C5 1.242 . S
O18 Eu2 2.324 . S
O18 C5 1.258 . S
O19 Tb1 2.500 . S
O19 C21 1.273 . S
O20 Tb1 2.473 . S
O20 C21 1.257 . S
C21 O19 1.273 . S
C21 O20 1.257 . S
O22 Eu2 2.326 . S
O22 C10 1.242 . S
O23 Tb1 2.324 . S
O23 C10 1.258 . S
O24 Eu2 2.500 1_655 S
O24 C7 1.273 . S
O25 Eu2 2.473 1_655 S
O25 C7 1.257 . S
H26 C12 0.929 . S
H27 C14 0.931 . S
H28 C16 0.929 . S
O29 Tb30 2.292 . S
O29 C32 1.255 . S
Tb30 O29 2.292 . S
Tb30 O46 2.326 . S
Tb30 O48 2.500 . S
Tb30 O49 2.473 . S
Tb30 O52 2.324 . S
Eu31 O35 2.292 . S
Eu31 C36 2.852 . S
Eu31 O47 2.324 . S
Eu31 O51 2.326 . S
Eu31 O53 2.500 . S
Eu31 O54 2.473 . S
C32 O29 1.255 . S
C32 O33 1.247 . S
O33 C32 1.247 . S
C34 O46 1.242 . S
C34 O47 1.258 . S
O35 Eu31 2.292 . S
O35 C37 1.255 . S
C36 Eu31 2.852 . S
C36 C40 1.503 . S
C36 O53 1.273 . S
C36 O54 1.257 . S
C37 O35 1.255 . S
C37 O38 1.247 . S
O38 C37 1.247 . S
C39 O51 1.242 . S
C39 O52 1.258 . S
C40 C36 1.503 . S
C40 C41 1.379 . S
C40 C45 1.392 . S
C41 C40 1.379 . S
C41 C42 1.404 . S
C41 H55 0.929 . S
C42 C41 1.404 . S
C42 C43 1.389 . S
C43 C42 1.389 . S
C43 C44 1.399 . S
C43 H56 0.931 . S
C44 C43 1.399 . S
C44 C45 1.390 . S
C45 C40 1.392 . S
C45 C44 1.390 . S
C45 H57 0.929 . S
O46 Tb30 2.326 . S
O46 C34 1.242 . S
O47 Eu31 2.324 . S
O47 C34 1.258 . S
O48 Tb30 2.500 . S
O48 C50 1.273 . S
O49 Tb30 2.473 . S
O49 C50 1.257 . S
C50 O48 1.273 . S
C50 O49 1.257 . S
O51 Eu31 2.326 . S
O51 C39 1.242 . S
O52 Tb30 2.324 . S
O52 C39 1.258 . S
O53 Eu31 2.500 . S
O53 C36 1.273 . S
O54 Eu31 2.473 . S
O54 C36 1.257 . S
H55 C41 0.929 . S
H56 C43 0.931 . S
H57 C45 0.929 . S
O58 Tb59 2.292 . S
O58 C61 1.255 . S
Tb59 O58 2.292 . S
Tb59 O75 2.326 . S
Tb59 O77 2.500 . S
Tb59 O78 2.473 . S
Tb59 O81 2.324 . S
Eu60 O64 2.292 . S
Eu60 C65 2.852 . S
Eu60 O76 2.324 . S
Eu60 O80 2.326 . S
Eu60 O82 2.500 . S
Eu60 O83 2.473 . S
C61 O58 1.255 . S
C61 O62 1.247 . S
O62 C61 1.247 . S
C63 O75 1.242 . S
C63 O76 1.258 . S
O64 Eu60 2.292 . S
O64 C66 1.255 . S
C65 Eu60 2.852 . S
C65 C69 1.503 . S
C65 O82 1.273 . S
C65 O83 1.257 . S
C66 O64 1.255 . S
C66 O67 1.247 . S
O67 C66 1.247 . S
C68 O80 1.242 . S
C68 O81 1.258 . S
C69 C65 1.503 . S
C69 C70 1.379 . S
C69 C74 1.392 . S
C70 C69 1.379 . S
C70 C71 1.404 . S
C70 H84 0.929 . S
C71 C70 1.404 . S
C71 C72 1.389 . S
C72 C71 1.389 . S
C72 C73 1.399 . S
C72 H85 0.931 . S
C73 C72 1.399 . S
C73 C74 1.390 . S
C74 C69 1.392 . S
C74 C73 1.390 . S
C74 H86 0.929 . S
O75 Tb59 2.326 . S
O75 C63 1.242 . S
O76 Eu60 2.324 . S
O76 C63 1.258 . S
O77 Tb59 2.500 . S
O77 C79 1.273 . S
O78 Tb59 2.473 . S
O78 C79 1.257 . S
C79 O77 1.273 . S
C79 O78 1.257 . S
O80 Eu60 2.326 . S
O80 C68 1.242 . S
O81 Tb59 2.324 . S
O81 C68 1.258 . S
O82 Eu60 2.500 . S
O82 C65 1.273 . S
O83 Eu60 2.473 . S
O83 C65 1.257 . S
H84 C70 0.929 . S
H85 C72 0.931 . S
H86 C74 0.929 . S
O87 Tb88 2.292 . S
O87 C90 1.255 . S
Tb88 O87 2.292 . S
Tb88 O104 2.326 . S
Tb88 O106 2.500 . S
Tb88 O107 2.473 . S
Tb88 O110 2.324 . S
Eu89 O93 2.292 1_655 S
Eu89 C94 2.852 1_655 S
Eu89 O105 2.324 . S
Eu89 O109 2.326 . S
Eu89 O111 2.500 1_655 S
Eu89 O112 2.473 1_655 S
C90 O87 1.255 . S
C90 O91 1.247 . S
O91 C90 1.247 . S
C92 O104 1.242 . S
C92 O105 1.258 . S
O93 Eu89 2.292 1_455 S
O93 C95 1.255 . S
C94 Eu89 2.852 1_455 S
C94 C98 1.503 . S
C94 O111 1.273 . S
C94 O112 1.257 . S
C95 O93 1.255 . S
C95 O96 1.247 1_455 S
O96 C95 1.247 1_655 S
C97 O109 1.242 . S
C97 O110 1.258 . S
C98 C94 1.503 . S
C98 C99 1.379 . S
C98 C103 1.392 . S
C99 C98 1.379 . S
C99 C100 1.404 . S
C99 H113 0.929 . S
C100 C99 1.404 . S
C100 C101 1.389 . S
C101 C100 1.389 . S
C101 C102 1.399 . S
C101 H114 0.931 . S
C102 C101 1.399 . S
C102 C103 1.390 . S
C103 C98 1.392 . S
C103 C102 1.390 . S
C103 H115 0.929 . S
O104 Tb88 2.326 . S
O104 C92 1.242 . S
O105 Eu89 2.324 . S
O105 C92 1.258 . S
O106 Tb88 2.500 . S
O106 C108 1.273 . S
O107 Tb88 2.473 . S
O107 C108 1.257 . S
C108 O106 1.273 . S
C108 O107 1.257 . S
O109 Eu89 2.326 . S
O109 C97 1.242 . S
O110 Tb88 2.324 . S
O110 C97 1.258 . S
O111 Eu89 2.500 1_455 S
O111 C94 1.273 . S
O112 Eu89 2.473 1_455 S
O112 C94 1.257 . S
H113 C99 0.929 . S
H114 C101 0.931 . S
H115 C103 0.929 . S
O116 Tb117 2.292 . S
O116 C119 1.255 . S
Tb117 O116 2.292 . S
Tb117 O133 2.326 . S
Tb117 O135 2.500 . S
Tb117 O136 2.473 . S
Tb117 O139 2.324 . S
Eu118 O122 2.292 1_655 S
Eu118 C123 2.852 1_655 S
Eu118 O134 2.324 . S
Eu118 O138 2.326 . S
Eu118 O140 2.500 1_655 S
Eu118 O141 2.473 1_655 S
C119 O116 1.255 . S
C119 O120 1.247 . S
O120 C119 1.247 . S
C121 O133 1.242 . S
C121 O134 1.258 . S
O122 Eu118 2.292 1_455 S
O122 C124 1.255 . S
C123 Eu118 2.852 1_455 S
C123 C127 1.503 . S
C123 O140 1.273 . S
C123 O141 1.257 . S
C124 O122 1.255 . S
C124 O125 1.247 1_455 S
O125 C124 1.247 1_655 S
C126 O138 1.242 . S
C126 O139 1.258 . S
C127 C123 1.503 . S
C127 C128 1.379 . S
C127 C132 1.392 . S
C128 C127 1.379 . S
C128 C129 1.404 . S
C128 H142 0.929 . S
C129 C128 1.404 . S
C129 C130 1.389 . S
C130 C129 1.389 . S
C130 C131 1.399 . S
C130 H143 0.931 . S
C131 C130 1.399 . S
C131 C132 1.390 . S
C132 C127 1.392 . S
C132 C131 1.390 . S
C132 H144 0.929 . S
O133 Tb117 2.326 . S
O133 C121 1.242 . S
O134 Eu118 2.324 . S
O134 C121 1.258 . S
O135 Tb117 2.500 . S
O135 C137 1.273 . S
O136 Tb117 2.473 . S
O136 C137 1.257 . S
C137 O135 1.273 . S
C137 O136 1.257 . S
O138 Eu118 2.326 . S
O138 C126 1.242 . S
O139 Tb117 2.324 . S
O139 C126 1.258 . S
O140 Eu118 2.500 1_455 S
O140 C123 1.273 . S
O141 Eu118 2.473 1_455 S
O141 C123 1.257 . S
H142 C128 0.929 . S
H143 C130 0.931 . S
H144 C132 0.929 . S
O145 Tb146 2.292 . S
O145 C148 1.255 . S
Tb146 O145 2.292 . S
Tb146 O162 2.326 . S
Tb146 O164 2.500 . S
Tb146 O165 2.473 . S
Tb146 O168 2.324 . S
Eu147 O151 2.292 . S
Eu147 C152 2.852 . S
Eu147 O163 2.324 . S
Eu147 O167 2.326 . S
Eu147 O169 2.500 . S
Eu147 O170 2.473 . S
C148 O145 1.255 . S
C148 O149 1.247 . S
O149 C148 1.247 . S
C150 O162 1.242 . S
C150 O163 1.258 . S
O151 Eu147 2.292 . S
O151 C153 1.255 . S
C152 Eu147 2.852 . S
C152 C156 1.503 . S
C152 O169 1.273 . S
C152 O170 1.257 . S
C153 O151 1.255 . S
C153 O154 1.247 . S
O154 C153 1.247 . S
C155 O167 1.242 . S
C155 O168 1.258 . S
C156 C152 1.503 . S
C156 C157 1.379 . S
C156 C161 1.392 . S
C157 C156 1.379 . S
C157 C158 1.404 . S
C157 H171 0.929 . S
C158 C157 1.404 . S
C158 C159 1.389 . S
C159 C158 1.389 . S
C159 C160 1.399 . S
C159 H172 0.931 . S
C160 C159 1.399 . S
C160 C161 1.390 . S
C161 C156 1.392 . S
C161 C160 1.390 . S
C161 H173 0.929 . S
O162 Tb146 2.326 . S
O162 C150 1.242 . S
O163 Eu147 2.324 . S
O163 C150 1.258 . S
O164 Tb146 2.500 . S
O164 C166 1.273 . S
O165 Tb146 2.473 . S
O165 C166 1.257 . S
C166 O164 1.273 . S
C166 O165 1.257 . S
O167 Eu147 2.326 . S
O167 C155 1.242 . S
O168 Tb146 2.324 . S
O168 C155 1.258 . S
O169 Eu147 2.500 . S
O169 C152 1.273 . S
O170 Eu147 2.473 . S
O170 C152 1.257 . S
H171 C157 0.929 . S
H172 C159 0.931 . S
H173 C161 0.929 . S
O174 Tb175 2.292 . S
O174 C177 1.255 . S
Tb175 O174 2.292 . S
Tb175 O191 2.326 . S
Tb175 O193 2.500 . S
Tb175 O194 2.473 . S
Tb175 O197 2.324 . S
Eu176 O180 2.292 . S
Eu176 C181 2.852 . S
Eu176 O192 2.324 . S
Eu176 O196 2.326 . S
Eu176 O198 2.500 . S
Eu176 O199 2.473 . S
C177 O174 1.255 . S
C177 O178 1.247 . S
O178 C177 1.247 . S
C179 O191 1.242 . S
C179 O192 1.258 . S
O180 Eu176 2.292 . S
O180 C182 1.255 . S
C181 Eu176 2.852 . S
C181 C185 1.503 . S
C181 O198 1.273 . S
C181 O199 1.257 . S
C182 O180 1.255 . S
C182 O183 1.247 . S
O183 C182 1.247 . S
C184 O196 1.242 . S
C184 O197 1.258 . S
C185 C181 1.503 . S
C185 C186 1.379 . S
C185 C190 1.392 . S
C186 C185 1.379 . S
C186 C187 1.404 . S
C186 H200 0.929 . S
C187 C186 1.404 . S
C187 C188 1.389 . S
C188 C187 1.389 . S
C188 C189 1.399 . S
C188 H201 0.931 . S
C189 C188 1.399 . S
C189 C190 1.390 . S
C190 C185 1.392 . S
C190 C189 1.390 . S
C190 H202 0.929 . S
O191 Tb175 2.326 . S
O191 C179 1.242 . S
O192 Eu176 2.324 . S
O192 C179 1.258 . S
O193 Tb175 2.500 . S
O193 C195 1.273 . S
O194 Tb175 2.473 . S
O194 C195 1.257 . S
C195 O193 1.273 . S
C195 O194 1.257 . S
O196 Eu176 2.326 . S
O196 C184 1.242 . S
O197 Tb175 2.324 . S
O197 C184 1.258 . S
O198 Eu176 2.500 . S
O198 C181 1.273 . S
O199 Eu176 2.473 . S
O199 C181 1.257 . S
H200 C186 0.929 . S
H201 C188 0.931 . S
H202 C190 0.929 . S
O203 Tb204 2.292 . S
O203 C206 1.255 . S
Tb204 O203 2.292 . S
Tb204 O220 2.326 . S
Tb204 O222 2.500 . S
Tb204 O223 2.473 . S
Tb204 O226 2.324 . S
Eu205 O209 2.292 1_455 S
Eu205 C210 2.852 1_455 S
Eu205 O221 2.324 . S
Eu205 O225 2.326 . S
Eu205 O227 2.500 1_455 S
Eu205 O228 2.473 1_455 S
C206 O203 1.255 . S
C206 O207 1.247 . S
O207 C206 1.247 . S
C208 O220 1.242 . S
C208 O221 1.258 . S
O209 Eu205 2.292 1_655 S
O209 C211 1.255 . S
C210 Eu205 2.852 1_655 S
C210 C214 1.503 . S
C210 O227 1.273 . S
C210 O228 1.257 . S
C211 O209 1.255 . S
C211 O212 1.247 1_655 S
O212 C211 1.247 1_455 S
C213 O225 1.242 . S
C213 O226 1.258 . S
C214 C210 1.503 . S
C214 C215 1.379 . S
C214 C219 1.392 . S
C215 C214 1.379 . S
C215 C216 1.404 . S
C215 H229 0.929 . S
C216 C215 1.404 . S
C216 C217 1.389 . S
C217 C216 1.389 . S
C217 C218 1.399 . S
C217 H230 0.931 . S
C218 C217 1.399 . S
C218 C219 1.390 . S
C219 C214 1.392 . S
C219 C218 1.390 . S
C219 H231 0.929 . S
O220 Tb204 2.326 . S
O220 C208 1.242 . S
O221 Eu205 2.324 . S
O221 C208 1.258 . S
O222 Tb204 2.500 . S
O222 C224 1.273 . S
O223 Tb204 2.473 . S
O223 C224 1.257 . S
C224 O222 1.273 . S
C224 O223 1.257 . S
O225 Eu205 2.326 . S
O225 C213 1.242 . S
O226 Tb204 2.324 . S
O226 C213 1.258 . S
O227 Eu205 2.500 1_655 S
O227 C210 1.273 . S
O228 Eu205 2.473 1_655 S
O228 C210 1.257 . S
H229 C215 0.929 . S
H230 C217 0.931 . S
H231 C219 0.929 . S
O232 Tb233 2.292 . S
O232 C235 1.255 . S
Tb233 O232 2.292 . S
Tb233 O249 2.326 . S
Tb233 O251 2.500 . S
Tb233 O252 2.473 . S
Tb233 O255 2.324 . S
Eu234 O238 2.292 . S
Eu234 C239 2.852 . S
Eu234 O250 2.324 . S
Eu234 O254 2.326 . S
Eu234 O256 2.500 . S
Eu234 O257 2.473 . S
C235 O232 1.255 . S
C235 O236 1.247 . S
O236 C235 1.247 . S
C237 O249 1.242 . S
C237 O250 1.258 . S
O238 Eu234 2.292 . S
O238 C240 1.255 . S
C239 Eu234 2.852 . S
C239 C243 1.503 . S
C239 O256 1.273 . S
C239 O257 1.257 . S
C240 O238 1.255 . S
C240 O241 1.247 . S
O241 C240 1.247 . S
C242 O254 1.242 . S
C242 O255 1.258 . S
C243 C239 1.503 . S
C243 C244 1.379 . S
C243 C248 1.392 . S
C244 C243 1.379 . S
C244 C245 1.404 . S
C244 H258 0.929 . S
C245 C244 1.404 . S
C245 C246 1.389 . S
C246 C245 1.389 . S
C246 C247 1.399 . S
C246 H259 0.931 . S
C247 C246 1.399 . S
C247 C248 1.390 . S
C248 C243 1.392 . S
C248 C247 1.390 . S
C248 H260 0.929 . S
O249 Tb233 2.326 . S
O249 C237 1.242 . S
O250 Eu234 2.324 . S
O250 C237 1.258 . S
O251 Tb233 2.500 . S
O251 C253 1.273 . S
O252 Tb233 2.473 . S
O252 C253 1.257 . S
C253 O251 1.273 . S
C253 O252 1.257 . S
O254 Eu234 2.326 . S
O254 C242 1.242 . S
O255 Tb233 2.324 . S
O255 C242 1.258 . S
O256 Eu234 2.500 . S
O256 C239 1.273 . S
O257 Eu234 2.473 . S
O257 C239 1.257 . S
H258 C244 0.929 . S
H259 C246 0.931 . S
H260 C248 0.929 . S
O261 Tb262 2.292 . S
O261 C264 1.255 . S
Tb262 O261 2.292 . S
Tb262 O278 2.326 . S
Tb262 O280 2.500 . S
Tb262 O281 2.473 . S
Tb262 O284 2.324 . S
Eu263 O267 2.292 1_655 S
Eu263 C268 2.852 1_655 S
Eu263 O279 2.324 . S
Eu263 O283 2.326 . S
Eu263 O285 2.500 1_655 S
Eu263 O286 2.473 1_655 S
C264 O261 1.255 . S
C264 O265 1.247 . S
O265 C264 1.247 . S
C266 O278 1.242 . S
C266 O279 1.258 . S
O267 Eu263 2.292 1_455 S
O267 C269 1.255 . S
C268 Eu263 2.852 1_455 S
C268 C272 1.503 . S
C268 O285 1.273 . S
C268 O286 1.257 . S
C269 O267 1.255 . S
C269 O270 1.247 1_455 S
O270 C269 1.247 1_655 S
C271 O283 1.242 . S
C271 O284 1.258 . S
C272 C268 1.503 . S
C272 C273 1.379 . S
C272 C277 1.392 . S
C273 C272 1.379 . S
C273 C274 1.404 . S
C273 H287 0.929 . S
C274 C273 1.404 . S
C274 C275 1.389 . S
C275 C274 1.389 . S
C275 C276 1.399 . S
C275 H288 0.931 . S
C276 C275 1.399 . S
C276 C277 1.390 . S
C277 C272 1.392 . S
C277 C276 1.390 . S
C277 H289 0.929 . S
O278 Tb262 2.326 . S
O278 C266 1.242 . S
O279 Eu263 2.324 . S
O279 C266 1.258 . S
O280 Tb262 2.500 . S
O280 C282 1.273 . S
O281 Tb262 2.473 . S
O281 C282 1.257 . S
C282 O280 1.273 . S
C282 O281 1.257 . S
O283 Eu263 2.326 . S
O283 C271 1.242 . S
O284 Tb262 2.324 . S
O284 C271 1.258 . S
O285 Eu263 2.500 1_455 S
O285 C268 1.273 . S
O286 Eu263 2.473 1_455 S
O286 C268 1.257 . S
H287 C273 0.929 . S
H288 C275 0.931 . S
H289 C277 0.929 . S
O290 Tb291 2.292 . S
O290 C293 1.255 . S
Tb291 O290 2.292 . S
Tb291 O307 2.326 . S
Tb291 O309 2.500 . S
Tb291 O310 2.473 . S
Tb291 O313 2.324 . S
Eu292 O296 2.292 1_455 S
Eu292 C297 2.852 1_455 S
Eu292 O308 2.324 . S
Eu292 O312 2.326 . S
Eu292 O314 2.500 1_455 S
Eu292 O315 2.473 1_455 S
C293 O290 1.255 . S
C293 O294 1.247 . S
O294 C293 1.247 . S
C295 O307 1.242 . S
C295 O308 1.258 . S
O296 Eu292 2.292 1_655 S
O296 C298 1.255 . S
C297 Eu292 2.852 1_655 S
C297 C301 1.503 . S
C297 O314 1.273 . S
C297 O315 1.257 . S
C298 O296 1.255 . S
C298 O299 1.247 1_655 S
O299 C298 1.247 1_455 S
C300 O312 1.242 . S
C300 O313 1.258 . S
C301 C297 1.503 . S
C301 C302 1.379 . S
C301 C306 1.392 . S
C302 C301 1.379 . S
C302 C303 1.404 . S
C302 H316 0.929 . S
C303 C302 1.404 . S
C303 C304 1.389 . S
C304 C303 1.389 . S
C304 C305 1.399 . S
C304 H317 0.931 . S
C305 C304 1.399 . S
C305 C306 1.390 . S
C306 C301 1.392 . S
C306 C305 1.390 . S
C306 H318 0.929 . S
O307 Tb291 2.326 . S
O307 C295 1.242 . S
O308 Eu292 2.324 . S
O308 C295 1.258 . S
O309 Tb291 2.500 . S
O309 C311 1.273 . S
O310 Tb291 2.473 . S
O310 C311 1.257 . S
C311 O309 1.273 . S
C311 O310 1.257 . S
O312 Eu292 2.326 . S
O312 C300 1.242 . S
O313 Tb291 2.324 . S
O313 C300 1.258 . S
O314 Eu292 2.500 1_655 S
O314 C297 1.273 . S
O315 Eu292 2.473 1_655 S
O315 C297 1.257 . S
H316 C302 0.929 . S
H317 C304 0.931 . S
H318 C306 0.929 . S
O319 Tb320 2.292 . S
O319 C322 1.255 . S
Tb320 O319 2.292 . S
Tb320 O336 2.326 . S
Tb320 O338 2.500 . S
Tb320 O339 2.473 . S
Tb320 O342 2.324 . S
Eu321 O325 2.292 . S
Eu321 C326 2.852 . S
Eu321 O337 2.324 . S
Eu321 O341 2.326 . S
Eu321 O343 2.500 . S
Eu321 O344 2.473 . S
C322 O319 1.255 . S
C322 O323 1.247 . S
O323 C322 1.247 . S
C324 O336 1.242 . S
C324 O337 1.258 . S
O325 Eu321 2.292 . S
O325 C327 1.255 . S
C326 Eu321 2.852 . S
C326 C330 1.503 . S
C326 O343 1.273 . S
C326 O344 1.257 . S
C327 O325 1.255 . S
C327 O328 1.247 . S
O328 C327 1.247 . S
C329 O341 1.242 . S
C329 O342 1.258 . S
C330 C326 1.503 . S
C330 C331 1.379 . S
C330 C335 1.392 . S
C331 C330 1.379 . S
C331 C332 1.404 . S
C331 H345 0.929 . S
C332 C331 1.404 . S
C332 C333 1.389 . S
C333 C332 1.389 . S
C333 C334 1.399 . S
C333 H346 0.931 . S
C334 C333 1.399 . S
C334 C335 1.390 . S
C335 C330 1.392 . S
C335 C334 1.390 . S
C335 H347 0.929 . S
O336 Tb320 2.326 . S
O336 C324 1.242 . S
O337 Eu321 2.324 . S
O337 C324 1.258 . S
O338 Tb320 2.500 . S
O338 C340 1.273 . S
O339 Tb320 2.473 . S
O339 C340 1.257 . S
C340 O338 1.273 . S
C340 O339 1.257 . S
O341 Eu321 2.326 . S
O341 C329 1.242 . S
O342 Tb320 2.324 . S
O342 C329 1.258 . S
O343 Eu321 2.500 . S
O343 C326 1.273 . S
O344 Eu321 2.473 . S
O344 C326 1.257 . S
H345 C331 0.929 . S
H346 C333 0.931 . S
H347 C335 0.929 . S
O348 Tb349 2.292 . S
O348 C351 1.255 . S
Tb349 O348 2.292 . S
Tb349 O365 2.326 . S
Tb349 O367 2.500 . S
Tb349 O368 2.473 . S
Tb349 O371 2.324 . S
Eu350 O354 2.292 . S
Eu350 C355 2.852 . S
Eu350 O366 2.324 . S
Eu350 O370 2.326 . S
Eu350 O372 2.500 . S
Eu350 O373 2.473 . S
C351 O348 1.255 . S
C351 O352 1.247 . S
O352 C351 1.247 . S
C353 O365 1.242 . S
C353 O366 1.258 . S
O354 Eu350 2.292 . S
O354 C356 1.255 . S
C355 Eu350 2.852 . S
C355 C359 1.503 . S
C355 O372 1.273 . S
C355 O373 1.257 . S
C356 O354 1.255 . S
C356 O357 1.247 . S
O357 C356 1.247 . S
C358 O370 1.242 . S
C358 O371 1.258 . S
C359 C355 1.503 . S
C359 C360 1.379 . S
C359 C364 1.392 . S
C360 C359 1.379 . S
C360 C361 1.404 . S
C360 H374 0.929 . S
C361 C360 1.404 . S
C361 C362 1.389 . S
C362 C361 1.389 . S
C362 C363 1.399 . S
C362 H375 0.931 . S
C363 C362 1.399 . S
C363 C364 1.390 . S
C364 C359 1.392 . S
C364 C363 1.390 . S
C364 H376 0.929 . S
O365 Tb349 2.326 . S
O365 C353 1.242 . S
O366 Eu350 2.324 . S
O366 C353 1.258 . S
O367 Tb349 2.500 . S
O367 C369 1.273 . S
O368 Tb349 2.473 . S
O368 C369 1.257 . S
C369 O367 1.273 . S
C369 O368 1.257 . S
O370 Eu350 2.326 . S
O370 C358 1.242 . S
O371 Tb349 2.324 . S
O371 C358 1.258 . S
O372 Eu350 2.500 . S
O372 C355 1.273 . S
O373 Eu350 2.473 . S
O373 C355 1.257 . S
H374 C360 0.929 . S
H375 C362 0.931 . S
H376 C364 0.929 . S
O377 Tb378 2.292 . S
O377 C380 1.255 . S
Tb378 O377 2.292 . S
Tb378 O394 2.326 . S
Tb378 O396 2.500 . S
Tb378 O397 2.473 . S
Tb378 O400 2.324 . S
Eu379 O383 2.292 1_455 S
Eu379 C384 2.852 1_455 S
Eu379 O395 2.324 . S
Eu379 O399 2.326 . S
Eu379 O401 2.500 1_455 S
Eu379 O402 2.473 1_455 S
C380 O377 1.255 . S
C380 O381 1.247 . S
O381 C380 1.247 . S
C382 O394 1.242 . S
C382 O395 1.258 . S
O383 Eu379 2.292 1_655 S
O383 C385 1.255 . S
C384 Eu379 2.852 1_655 S
C384 C388 1.503 . S
C384 O401 1.273 . S
C384 O402 1.257 . S
C385 O383 1.255 . S
C385 O386 1.247 1_655 S
O386 C385 1.247 1_455 S
C387 O399 1.242 . S
C387 O400 1.258 . S
C388 C384 1.503 . S
C388 C389 1.379 . S
C388 C393 1.392 . S
C389 C388 1.379 . S
C389 C390 1.404 . S
C389 H403 0.929 . S
C390 C389 1.404 . S
C390 C391 1.389 . S
C391 C390 1.389 . S
C391 C392 1.399 . S
C391 H404 0.931 . S
C392 C391 1.399 . S
C392 C393 1.390 . S
C393 C388 1.392 . S
C393 C392 1.390 . S
C393 H405 0.929 . S
O394 Tb378 2.326 . S
O394 C382 1.242 . S
O395 Eu379 2.324 . S
O395 C382 1.258 . S
O396 Tb378 2.500 . S
O396 C398 1.273 . S
O397 Tb378 2.473 . S
O397 C398 1.257 . S
C398 O396 1.273 . S
C398 O397 1.257 . S
O399 Eu379 2.326 . S
O399 C387 1.242 . S
O400 Tb378 2.324 . S
O400 C387 1.258 . S
O401 Eu379 2.500 1_655 S
O401 C384 1.273 . S
O402 Eu379 2.473 1_655 S
O402 C384 1.257 . S
H403 C389 0.929 . S
H404 C391 0.931 . S
H405 C393 0.929 . S
O406 Tb407 2.292 . S
O406 C409 1.255 . S
Tb407 O406 2.292 . S
Tb407 O423 2.326 . S
Tb407 O425 2.500 . S
Tb407 O426 2.473 . S
Tb407 O429 2.324 . S
Eu408 O412 2.292 1_655 S
Eu408 C413 2.852 1_655 S
Eu408 O424 2.324 . S
Eu408 O428 2.326 . S
Eu408 O430 2.500 1_655 S
Eu408 O431 2.473 1_655 S
C409 O406 1.255 . S
C409 O410 1.247 . S
O410 C409 1.247 . S
C411 O423 1.242 . S
C411 O424 1.258 . S
O412 Eu408 2.292 1_455 S
O412 C414 1.255 . S
C413 Eu408 2.852 1_455 S
C413 C417 1.503 . S
C413 O430 1.273 . S
C413 O431 1.257 . S
C414 O412 1.255 . S
C414 O415 1.247 1_455 S
O415 C414 1.247 1_655 S
C416 O428 1.242 . S
C416 O429 1.258 . S
C417 C413 1.503 . S
C417 C418 1.379 . S
C417 C422 1.392 . S
C418 C417 1.379 . S
C418 C419 1.404 . S
C418 H432 0.929 . S
C419 C418 1.404 . S
C419 C420 1.389 . S
C420 C419 1.389 . S
C420 C421 1.399 . S
C420 H433 0.931 . S
C421 C420 1.399 . S
C421 C422 1.390 . S
C422 C417 1.392 . S
C422 C421 1.390 . S
C422 H434 0.929 . S
O423 Tb407 2.326 . S
O423 C411 1.242 . S
O424 Eu408 2.324 . S
O424 C411 1.258 . S
O425 Tb407 2.500 . S
O425 C427 1.273 . S
O426 Tb407 2.473 . S
O426 C427 1.257 . S
C427 O425 1.273 . S
C427 O426 1.257 . S
O428 Eu408 2.326 . S
O428 C416 1.242 . S
O429 Tb407 2.324 . S
O429 C416 1.258 . S
O430 Eu408 2.500 1_455 S
O430 C413 1.273 . S
O431 Eu408 2.473 1_455 S
O431 C413 1.257 . S
H432 C418 0.929 . S
H433 C420 0.931 . S
H434 C422 0.929 . S
O435 Tb436 2.292 . S
O435 C438 1.255 . S
Tb436 O435 2.292 . S
Tb436 O452 2.326 . S
Tb436 O454 2.500 . S
Tb436 O455 2.473 . S
Tb436 O458 2.324 . S
Eu437 O441 2.292 . S
Eu437 C442 2.852 . S
Eu437 O453 2.324 . S
Eu437 O457 2.326 . S
Eu437 O459 2.500 . S
Eu437 O460 2.473 . S
C438 O435 1.255 . S
C438 O439 1.247 . S
O439 C438 1.247 . S
C440 O452 1.242 . S
C440 O453 1.258 . S
O441 Eu437 2.292 . S
O441 C443 1.255 . S
C442 Eu437 2.852 . S
C442 C446 1.503 . S
C442 O459 1.273 . S
C442 O460 1.257 . S
C443 O441 1.255 . S
C443 O444 1.247 . S
O444 C443 1.247 . S
C445 O457 1.242 . S
C445 O458 1.258 . S
C446 C442 1.503 . S
C446 C447 1.379 . S
C446 C451 1.392 . S
C447 C446 1.379 . S
C447 C448 1.404 . S
C447 H461 0.929 . S
C448 C447 1.404 . S
C448 C449 1.389 . S
C449 C448 1.389 . S
C449 C450 1.399 . S
C449 H462 0.931 . S
C450 C449 1.399 . S
C450 C451 1.390 . S
C451 C446 1.392 . S
C451 C450 1.390 . S
C451 H463 0.929 . S
O452 Tb436 2.326 . S
O452 C440 1.242 . S
O453 Eu437 2.324 . S
O453 C440 1.258 . S
O454 Tb436 2.500 . S
O454 C456 1.273 . S
O455 Tb436 2.473 . S
O455 C456 1.257 . S
C456 O454 1.273 . S
C456 O455 1.257 . S
O457 Eu437 2.326 . S
O457 C445 1.242 . S
O458 Tb436 2.324 . S
O458 C445 1.258 . S
O459 Eu437 2.500 . S
O459 C442 1.273 . S
O460 Eu437 2.473 . S
O460 C442 1.257 . S
H461 C447 0.929 . S
H462 C449 0.931 . S
H463 C451 0.929 . S
C464 C465 1.391 . S
C464 C466 1.394 . S
C464 H480 0.931 . S
C465 C464 1.391 . S
C465 C469 1.376 . S
C466 C464 1.394 . S
C466 C467 1.369 . S
C466 C470 1.531 . S
C467 C466 1.369 . S
C467 C468 1.410 . S
C467 C475 1.503 . S
C468 C467 1.410 . S
C468 C469 1.392 . S
C468 C471 1.511 . S
C469 C465 1.376 . S
C469 C468 1.392 . S
C469 H481 0.929 . S
C470 C466 1.531 . S
C470 H482 0.960 . S
C470 H483 0.962 . S
C470 H484 0.960 . S
C471 C468 1.511 . S
C471 H485 0.961 . S
C471 H486 0.961 . S
C471 H487 0.961 . S
C472 C473 1.370 . S
C472 C474 1.363 . S
C472 H488 0.931 . S
C473 C472 1.370 . S
C473 C477 1.408 . S
C474 C472 1.363 . S
C474 C475 1.370 . S
C474 C478 1.524 . S
C475 C467 1.503 . S
C475 C474 1.370 . S
C475 C476 1.403 . S
C476 C475 1.403 . S
C476 C477 1.404 . S
C476 C479 1.539 . S
C477 C473 1.408 . S
C477 C476 1.404 . S
C477 H489 0.930 . S
C478 C474 1.524 . S
C478 H490 0.956 . S
C478 H491 0.961 . S
C478 H492 0.961 . S
C479 C476 1.539 . S
C479 H493 0.958 . S
C479 H494 0.961 . S
C479 H495 0.960 . S
H480 C464 0.931 . S
H481 C469 0.929 . S
H482 C470 0.960 . S
H483 C470 0.962 . S
H484 C470 0.960 . S
H485 C471 0.961 . S
H486 C471 0.961 . S
H487 C471 0.961 . S
H488 C472 0.931 . S
H489 C477 0.930 . S
H490 C478 0.956 . S
H491 C478 0.961 . S
H492 C478 0.961 . S
H493 C479 0.958 . S
H494 C479 0.961 . S
H495 C479 0.960 . S
C496 C497 1.391 . S
C496 C498 1.394 . S
C496 H512 0.931 . S
C497 C496 1.391 . S
C497 C501 1.376 . S
C498 C496 1.394 . S
C498 C499 1.369 . S
C498 C502 1.531 . S
C499 C498 1.369 . S
C499 C500 1.410 . S
C499 C507 1.503 1_455 S
C500 C499 1.410 . S
C500 C501 1.392 . S
C500 C503 1.511 . S
C501 C497 1.376 . S
C501 C500 1.392 . S
C501 H513 0.929 . S
C502 C498 1.531 . S
C502 H514 0.960 . S
C502 H515 0.962 . S
C502 H516 0.960 . S
C503 C500 1.511 . S
C503 H517 0.961 . S
C503 H518 0.961 1_455 S
C503 H519 0.961 . S
C504 C505 1.370 . S
C504 C506 1.363 . S
C504 H520 0.931 . S
C505 C504 1.370 . S
C505 C509 1.408 . S
C506 C504 1.363 . S
C506 C507 1.370 . S
C506 C510 1.524 . S
C507 C499 1.503 1_655 S
C507 C506 1.370 . S
C507 C508 1.403 . S
C508 C507 1.403 . S
C508 C509 1.404 . S
C508 C511 1.539 . S
C509 C505 1.408 . S
C509 C508 1.404 . S
C509 H521 0.930 . S
C510 C506 1.524 . S
C510 H522 0.956 . S
C510 H523 0.969 . S
C510 H524 0.961 . S
C511 C508 1.539 . S
C511 H525 0.958 . S
C511 H526 0.961 . S
C511 H527 0.960 1_655 S
H512 C496 0.931 . S
H513 C501 0.929 . S
H514 C502 0.960 . S
H515 C502 0.962 . S
H516 C502 0.960 . S
H517 C503 0.961 . S
H518 C503 0.961 1_655 S
H519 C503 0.961 . S
H520 C504 0.931 . S
H521 C509 0.930 . S
H522 C510 0.956 . S
H523 C510 0.969 . S
H524 C510 0.961 . S
H525 C511 0.958 . S
H526 C511 0.961 . S
H527 C511 0.960 1_455 S
C528 C529 1.391 . S
C528 C530 1.394 . S
C528 H544 0.931 . S
C529 C528 1.391 . S
C529 C533 1.376 . S
C530 C528 1.394 . S
C530 C531 1.369 . S
C530 C534 1.531 . S
C531 C530 1.369 . S
C531 C532 1.410 . S
C531 C539 1.503 1_655 S
C532 C531 1.410 . S
C532 C533 1.392 . S
C532 C535 1.511 . S
C533 C529 1.376 . S
C533 C532 1.392 . S
C533 H545 0.929 . S
C534 C530 1.531 . S
C534 H546 0.960 . S
C534 H547 0.962 . S
C534 H548 0.960 . S
C535 C532 1.511 . S
C535 H549 0.961 . S
C535 H550 0.961 . S
C535 H551 0.961 . S
C536 C537 1.370 . S
C536 C538 1.363 . S
C536 H552 0.931 . S
C537 C536 1.370 . S
C537 C541 1.408 . S
C538 C536 1.363 . S
C538 C539 1.370 . S
C538 C542 1.524 . S
C539 C531 1.503 1_455 S
C539 C538 1.370 . S
C539 C540 1.403 . S
C540 C539 1.403 . S
C540 C541 1.404 . S
C540 C543 1.539 . S
C541 C537 1.408 . S
C541 C540 1.404 . S
C541 H553 0.930 . S
C542 C538 1.524 . S
C542 H554 0.956 . S
C542 H555 0.968 . S
C542 H556 0.961 . S
C543 C540 1.539 . S
C543 H557 0.958 . S
C543 H558 0.961 . S
C543 H559 0.960 1_455 S
H544 C528 0.931 . S
H545 C533 0.929 . S
H546 C534 0.960 . S
H547 C534 0.962 . S
H548 C534 0.960 . S
H549 C535 0.961 . S
H550 C535 0.961 . S
H551 C535 0.961 . S
H552 C536 0.931 . S
H553 C541 0.930 . S
H554 C542 0.956 . S
H555 C542 0.968 . S
H556 C542 0.961 . S
H557 C543 0.958 . S
H558 C543 0.961 . S
H559 C543 0.960 1_655 S
C560 C561 1.391 . S
C560 C562 1.394 . S
C560 H576 0.931 . S
C561 C560 1.391 . S
C561 C565 1.376 . S
C562 C560 1.394 . S
C562 C563 1.369 . S
C562 C566 1.531 . S
C563 C562 1.369 . S
C563 C564 1.410 . S
C563 C571 1.503 . S
C564 C563 1.410 . S
C564 C565 1.392 . S
C564 C567 1.511 . S
C565 C561 1.376 . S
C565 C564 1.392 . S
C565 H577 0.929 . S
C566 C562 1.531 . S
C566 H578 0.960 . S
C566 H579 0.962 . S
C566 H580 0.960 . S
C567 C564 1.511 . S
C567 H581 0.961 . S
C567 H582 0.961 . S
C567 H583 0.961 . S
C568 C569 1.370 . S
C568 C570 1.363 . S
C568 H584 0.931 . S
C569 C568 1.370 . S
C569 C573 1.408 . S
C570 C568 1.363 . S
C570 C571 1.370 . S
C570 C574 1.524 . S
C571 C563 1.503 . S
C571 C570 1.370 . S
C571 C572 1.403 . S
C572 C571 1.403 . S
C572 C573 1.404 . S
C572 C575 1.539 . S
C573 C569 1.408 . S
C573 C572 1.404 . S
C573 H585 0.930 . S
C574 C570 1.524 . S
C574 H586 0.956 . S
C574 H587 0.961 . S
C574 H588 0.961 . S
C575 C572 1.539 . S
C575 H589 0.958 . S
C575 H590 0.961 . S
C575 H591 0.960 . S
H576 C560 0.931 . S
H577 C565 0.929 . S
H578 C566 0.960 . S
H579 C566 0.962 . S
H580 C566 0.960 . S
H581 C567 0.961 . S
H582 C567 0.961 . S
H583 C567 0.961 . S
H584 C568 0.931 . S
H585 C573 0.930 . S
H586 C574 0.956 . S
H587 C574 0.961 . S
H588 C574 0.961 . S
H589 C575 0.958 . S
H590 C575 0.961 . S
H591 C575 0.960 . S
C592 C593 1.391 . S
C592 C594 1.394 . S
C592 H608 0.931 . S
C593 C592 1.391 . S
C593 C597 1.376 . S
C594 C592 1.394 . S
C594 C595 1.369 . S
C594 C598 1.531 . S
C595 C594 1.369 . S
C595 C596 1.410 . S
C595 C603 1.503 . S
C596 C595 1.410 . S
C596 C597 1.392 . S
C596 C599 1.511 . S
C597 C593 1.376 . S
C597 C596 1.392 . S
C597 H609 0.929 . S
C598 C594 1.531 . S
C598 H610 0.960 . S
C598 H611 0.962 . S
C598 H612 0.960 . S
C599 C596 1.511 . S
C599 H613 0.961 . S
C599 H614 0.961 . S
C599 H615 0.961 . S
C600 C601 1.370 . S
C600 C602 1.363 . S
C600 H616 0.931 . S
C601 C600 1.370 . S
C601 C605 1.408 . S
C602 C600 1.363 . S
C602 C603 1.370 . S
C602 C606 1.524 . S
C603 C595 1.503 . S
C603 C602 1.370 . S
C603 C604 1.403 . S
C604 C603 1.403 . S
C604 C605 1.404 . S
C604 C607 1.539 . S
C605 C601 1.408 . S
C605 C604 1.404 . S
C605 H617 0.930 . S
C606 C602 1.524 . S
C606 H618 0.956 . S
C606 H619 0.961 . S
C606 H620 0.961 . S
C607 C604 1.539 . S
C607 H621 0.958 . S
C607 H622 0.961 . S
C607 H623 0.960 . S
H608 C592 0.931 . S
H609 C597 0.929 . S
H610 C598 0.960 . S
H611 C598 0.962 . S
H612 C598 0.960 . S
H613 C599 0.961 . S
H614 C599 0.961 . S
H615 C599 0.961 . S
H616 C600 0.931 . S
H617 C605 0.930 . S
H618 C606 0.956 . S
H619 C606 0.961 . S
H620 C606 0.961 . S
H621 C607 0.958 . S
H622 C607 0.961 . S
H623 C607 0.960 . S
C624 C625 1.391 . S
C624 C626 1.394 . S
C624 H640 0.931 . S
C625 C624 1.391 . S
C625 C629 1.376 . S
C626 C624 1.394 . S
C626 C627 1.369 . S
C626 C630 1.531 . S
C627 C626 1.369 . S
C627 C628 1.410 . S
C627 C635 1.503 1_455 S
C628 C627 1.410 . S
C628 C629 1.392 . S
C628 C631 1.511 . S
C629 C625 1.376 . S
C629 C628 1.392 . S
C629 H641 0.929 . S
C630 C626 1.531 . S
C630 H642 0.960 1_455 S
C630 H643 0.962 1_455 S
C630 H644 0.960 . S
C631 C628 1.511 . S
C631 H645 0.961 . S
C631 H646 0.961 1_455 S
C631 H647 0.961 . S
C632 C633 1.370 . S
C632 C634 1.363 . S
C632 H648 0.931 . S
C633 C632 1.370 . S
C633 C637 1.408 . S
C634 C632 1.363 . S
C634 C635 1.370 . S
C634 C638 1.524 . S
C635 C627 1.503 1_655 S
C635 C634 1.370 . S
C635 C636 1.403 . S
C636 C635 1.403 . S
C636 C637 1.404 . S
C636 C639 1.539 . S
C637 C633 1.408 . S
C637 C636 1.404 . S
C637 H649 0.930 . S
C638 C634 1.524 . S
C638 H650 0.956 . S
C638 H651 0.961 . S
C638 H652 0.961 . S
C639 C636 1.539 . S
C639 H653 0.958 . S
C639 H654 0.961 . S
C639 H655 0.960 . S
H640 C624 0.931 . S
H641 C629 0.929 . S
H642 C630 0.960 1_655 S
H643 C630 0.962 1_655 S
H644 C630 0.960 . S
H645 C631 0.961 . S
H646 C631 0.961 1_655 S
H647 C631 0.961 . S
H648 C632 0.931 . S
H649 C637 0.930 . S
H650 C638 0.956 . S
H651 C638 0.961 . S
H652 C638 0.961 . S
H653 C639 0.958 . S
H654 C639 0.961 . S
H655 C639 0.960 . S
C656 C657 1.391 . S
C656 C658 1.394 . S
C656 H672 0.931 . S
C657 C656 1.391 . S
C657 C661 1.376 . S
C658 C656 1.394 . S
C658 C659 1.369 . S
C658 C662 1.531 . S
C659 C658 1.369 . S
C659 C660 1.410 . S
C659 C667 1.503 1_655 S
C660 C659 1.410 . S
C660 C661 1.392 . S
C660 C663 1.511 . S
C661 C657 1.376 . S
C661 C660 1.392 . S
C661 H673 0.929 . S
C662 C658 1.531 . S
C662 H674 0.960 1_655 S
C662 H675 0.962 . S
C662 H676 0.960 . S
C663 C660 1.511 . S
C663 H677 0.961 . S
C663 H678 0.961 1_655 S
C663 H679 0.961 1_655 S
C664 C665 1.370 . S
C664 C666 1.363 . S
C664 H680 0.931 . S
C665 C664 1.370 . S
C665 C669 1.408 . S
C666 C664 1.363 . S
C666 C667 1.370 . S
C666 C670 1.524 . S
C667 C659 1.503 1_455 S
C667 C666 1.370 . S
C667 C668 1.403 . S
C668 C667 1.403 . S
C668 C669 1.404 . S
C668 C671 1.539 . S
C669 C665 1.408 . S
C669 C668 1.404 . S
C669 H681 0.930 . S
C670 C666 1.524 . S
C670 H682 0.956 . S
C670 H683 0.961 . S
C670 H684 0.961 . S
C671 C668 1.539 . S
C671 H685 0.958 . S
C671 H686 0.961 . S
C671 H687 0.960 . S
H672 C656 0.931 . S
H673 C661 0.929 . S
H674 C662 0.960 1_455 S
H675 C662 0.962 . S
H676 C662 0.960 . S
H677 C663 0.961 . S
H678 C663 0.961 1_455 S
H679 C663 0.961 1_455 S
H680 C664 0.931 . S
H681 C669 0.930 . S
H682 C670 0.956 . S
H683 C670 0.961 . S
H684 C670 0.961 . S
H685 C671 0.958 . S
H686 C671 0.961 . S
H687 C671 0.960 . S
C688 C689 1.391 . S
C688 C690 1.394 . S
C688 H704 0.931 . S
C689 C688 1.391 . S
C689 C693 1.376 . S
C690 C688 1.394 . S
C690 C691 1.369 . S
C690 C694 1.531 . S
C691 C690 1.369 . S
C691 C692 1.410 . S
C691 C699 1.503 . S
C692 C691 1.410 . S
C692 C693 1.392 . S
C692 C695 1.511 . S
C693 C689 1.376 . S
C693 C692 1.392 . S
C693 H705 0.929 . S
C694 C690 1.531 . S
C694 H706 0.960 . S
C694 H707 0.962 . S
C694 H708 0.960 . S
C695 C692 1.511 . S
C695 H709 0.961 . S
C695 H710 0.961 . S
C695 H711 0.961 . S
C696 C697 1.370 . S
C696 C698 1.363 . S
C696 H712 0.931 . S
C697 C696 1.370 . S
C697 C701 1.408 . S
C698 C696 1.363 . S
C698 C699 1.370 . S
C698 C702 1.524 . S
C699 C691 1.503 . S
C699 C698 1.370 . S
C699 C700 1.403 . S
C700 C699 1.403 . S
C700 C701 1.404 . S
C700 C703 1.539 . S
C701 C697 1.408 . S
C701 C700 1.404 . S
C701 H713 0.930 . S
C702 C698 1.524 . S
C702 H714 0.956 . S
C702 H715 0.961 . S
C702 H716 0.961 . S
C703 C700 1.539 . S
C703 H717 0.958 . S
C703 H718 0.961 . S
C703 H719 0.960 . S
H704 C688 0.931 . S
H705 C693 0.929 . S
H706 C694 0.960 . S
H707 C694 0.962 . S
H708 C694 0.960 . S
H709 C695 0.961 . S
H710 C695 0.961 . S
H711 C695 0.961 . S
H712 C696 0.931 . S
H713 C701 0.930 . S
H714 C702 0.956 . S
H715 C702 0.961 . S
H716 C702 0.961 . S
H717 C703 0.958 . S
H718 C703 0.961 . S
H719 C703 0.960 . S
C720 C721 1.391 . S
C720 C722 1.394 . S
C720 H736 0.931 . S
C721 C720 1.391 . S
C721 C725 1.376 . S
C722 C720 1.394 . S
C722 C723 1.369 . S
C722 C726 1.531 . S
C723 C722 1.369 . S
C723 C724 1.410 . S
C723 C731 1.503 1_655 S
C724 C723 1.410 . S
C724 C725 1.392 . S
C724 C727 1.511 . S
C725 C721 1.376 . S
C725 C724 1.392 . S
C725 H737 0.929 . S
C726 C722 1.531 . S
C726 H738 0.960 . S
C726 H739 0.962 . S
C726 H740 0.960 . S
C727 C724 1.511 . S
C727 H741 0.961 . S
C727 H742 0.961 1_655 S
C727 H743 0.961 . S
C728 C729 1.370 . S
C728 C730 1.363 . S
C728 H744 0.931 . S
C729 C728 1.370 . S
C729 C733 1.408 . S
C730 C728 1.363 . S
C730 C731 1.370 . S
C730 C734 1.524 . S
C731 C723 1.503 1_455 S
C731 C730 1.370 . S
C731 C732 1.403 . S
C732 C731 1.403 . S
C732 C733 1.404 . S
C732 C735 1.539 . S
C733 C729 1.408 . S
C733 C732 1.404 . S
C733 H745 0.930 . S
C734 C730 1.524 . S
C734 H746 0.956 1_455 S
C734 H747 0.961 1_455 S
C734 H748 0.961 . S
C735 C732 1.539 . S
C735 H749 0.958 . S
C735 H750 0.961 . S
C735 H751 0.960 . S
H736 C720 0.931 . S
H737 C725 0.929 . S
H738 C726 0.960 . S
H739 C726 0.962 . S
H740 C726 0.960 . S
H741 C727 0.961 . S
H742 C727 0.961 1_455 S
H743 C727 0.961 . S
H744 C728 0.931 . S
H745 C733 0.930 . S
H746 C734 0.956 1_655 S
H747 C734 0.961 1_655 S
H748 C734 0.961 . S
H749 C735 0.958 . S
H750 C735 0.961 . S
H751 C735 0.960 . S
C752 C753 1.391 . S
C752 C754 1.394 . S
C752 H768 0.931 . S
C753 C752 1.391 . S
C753 C757 1.376 . S
C754 C752 1.394 . S
C754 C755 1.369 . S
C754 C758 1.531 . S
C755 C754 1.369 . S
C755 C756 1.410 . S
C755 C763 1.503 . S
C756 C755 1.410 . S
C756 C757 1.392 . S
C756 C759 1.511 . S
C757 C753 1.376 . S
C757 C756 1.392 . S
C757 H769 0.929 . S
C758 C754 1.531 . S
C758 H770 0.960 . S
C758 H771 0.962 . S
C758 H772 0.960 . S
C759 C756 1.511 . S
C759 H773 0.961 . S
C759 H774 0.961 . S
C759 H775 0.961 . S
C760 C761 1.370 . S
C760 C762 1.363 . S
C760 H776 0.931 . S
C761 C760 1.370 . S
C761 C765 1.408 . S
C762 C760 1.363 . S
C762 C763 1.370 . S
C762 C766 1.524 . S
C763 C755 1.503 . S
C763 C762 1.370 . S
C763 C764 1.403 . S
C764 C763 1.403 . S
C764 C765 1.404 . S
C764 C767 1.539 . S
C765 C761 1.408 . S
C765 C764 1.404 . S
C765 H777 0.930 . S
C766 C762 1.524 . S
C766 H778 0.956 . S
C766 H779 0.961 . S
C766 H780 0.961 . S
C767 C764 1.539 . S
C767 H781 0.958 . S
C767 H782 0.961 . S
C767 H783 0.960 . S
H768 C752 0.931 . S
H769 C757 0.929 . S
H770 C758 0.960 . S
H771 C758 0.962 . S
H772 C758 0.960 . S
H773 C759 0.961 . S
H774 C759 0.961 . S
H775 C759 0.961 . S
H776 C760 0.931 . S
H777 C765 0.930 . S
H778 C766 0.956 . S
H779 C766 0.961 . S
H780 C766 0.961 . S
H781 C767 0.958 . S
H782 C767 0.961 . S
H783 C767 0.960 . S
C784 C785 1.391 . S
C784 C786 1.394 . S
C784 H800 0.931 . S
C785 C784 1.391 . S
C785 C789 1.376 . S
C786 C784 1.394 . S
C786 C787 1.369 . S
C786 C790 1.531 . S
C787 C786 1.369 . S
C787 C788 1.410 . S
C787 C795 1.503 . S
C788 C787 1.410 . S
C788 C789 1.392 . S
C788 C791 1.511 . S
C789 C785 1.376 . S
C789 C788 1.392 . S
C789 H801 0.929 . S
C790 C786 1.531 . S
C790 H802 0.960 . S
C790 H803 0.962 . S
C790 H804 0.960 . S
C791 C788 1.511 . S
C791 H805 0.961 . S
C791 H806 0.961 . S
C791 H807 0.961 . S
C792 C793 1.370 . S
C792 C794 1.363 . S
C792 H808 0.931 . S
C793 C792 1.370 . S
C793 C797 1.408 . S
C794 C792 1.363 . S
C794 C795 1.370 . S
C794 C798 1.524 . S
C795 C787 1.503 . S
C795 C794 1.370 . S
C795 C796 1.403 . S
C796 C795 1.403 . S
C796 C797 1.404 . S
C796 C799 1.539 . S
C797 C793 1.408 . S
C797 C796 1.404 . S
C797 H809 0.930 . S
C798 C794 1.524 . S
C798 H810 0.956 . S
C798 H811 0.961 . S
C798 H812 0.961 . S
C799 C796 1.539 . S
C799 H813 0.958 . S
C799 H814 0.961 . S
C799 H815 0.960 . S
H800 C784 0.931 . S
H801 C789 0.929 . S
H802 C790 0.960 . S
H803 C790 0.962 . S
H804 C790 0.960 . S
H805 C791 0.961 . S
H806 C791 0.961 . S
H807 C791 0.961 . S
H808 C792 0.931 . S
H809 C797 0.930 . S
H810 C798 0.956 . S
H811 C798 0.961 . S
H812 C798 0.961 . S
H813 C799 0.958 . S
H814 C799 0.961 . S
H815 C799 0.960 . S
C816 C817 1.391 . S
C816 C818 1.394 . S
C816 H832 0.931 . S
C817 C816 1.391 . S
C817 C821 1.376 . S
C818 C816 1.394 . S
C818 C819 1.369 . S
C818 C822 1.531 . S
C819 C818 1.369 . S
C819 C820 1.410 . S
C819 C827 1.503 1_455 S
C820 C819 1.410 . S
C820 C821 1.392 . S
C820 C823 1.511 . S
C821 C817 1.376 . S
C821 C820 1.392 . S
C821 H833 0.929 . S
C822 C818 1.531 . S
C822 H834 0.960 1_455 S
C822 H835 0.962 . S
C822 H836 0.960 . S
C823 C820 1.511 . S
C823 H837 0.961 . S
C823 H838 0.961 . S
C823 H839 0.961 . S
C824 C825 1.370 . S
C824 C826 1.363 . S
C824 H840 0.931 . S
C825 C824 1.370 . S
C825 C829 1.408 . S
C826 C824 1.363 . S
C826 C827 1.370 . S
C826 C830 1.524 . S
C827 C819 1.503 1_655 S
C827 C826 1.370 . S
C827 C828 1.403 . S
C828 C827 1.403 . S
C828 C829 1.404 . S
C828 C831 1.539 . S
C829 C825 1.408 . S
C829 C828 1.404 . S
C829 H841 0.930 . S
C830 C826 1.524 . S
C830 H842 0.956 1_655 S
C830 H843 0.961 1_655 S
C830 H844 0.961 . S
C831 C828 1.539 . S
C831 H845 0.958 . S
C831 H846 0.961 . S
C831 H847 0.960 1_655 S
H832 C816 0.931 . S
H833 C821 0.929 . S
H834 C822 0.960 1_655 S
H835 C822 0.962 . S
H836 C822 0.960 . S
H837 C823 0.961 . S
H838 C823 0.961 . S
H839 C823 0.961 . S
H840 C824 0.931 . S
H841 C829 0.930 . S
H842 C830 0.956 1_455 S
H843 C830 0.961 1_455 S
H844 C830 0.961 . S
H845 C831 0.958 . S
H846 C831 0.961 . S
H847 C831 0.960 1_455 S
C848 C849 1.391 . S
C848 C850 1.394 . S
C848 H864 0.931 . S
C849 C848 1.391 . S
C849 C853 1.376 . S
C850 C848 1.394 . S
C850 C851 1.369 . S
C850 C854 1.531 . S
C851 C850 1.369 . S
C851 C852 1.410 . S
C851 C859 1.503 1_455 S
C852 C851 1.410 . S
C852 C853 1.392 . S
C852 C855 1.511 . S
C853 C849 1.376 . S
C853 C852 1.392 . S
C853 H865 0.929 . S
C854 C850 1.531 . S
C854 H866 0.960 1_455 S
C854 H867 0.962 . S
C854 H868 0.960 . S
C855 C852 1.511 . S
C855 H869 0.961 . S
C855 H870 0.961 . S
C855 H871 0.961 . S
C856 C857 1.370 . S
C856 C858 1.363 . S
C856 H872 0.931 . S
C857 C856 1.370 . S
C857 C861 1.408 . S
C858 C856 1.363 . S
C858 C859 1.370 . S
C858 C862 1.524 . S
C859 C851 1.503 1_655 S
C859 C858 1.370 . S
C859 C860 1.403 . S
C860 C859 1.403 . S
C860 C861 1.404 . S
C860 C863 1.539 . S
C861 C857 1.408 . S
C861 C860 1.404 . S
C861 H873 0.930 . S
C862 C858 1.524 . S
C862 H874 0.956 1_655 S
C862 H875 0.961 1_655 S
C862 H876 0.961 . S
C863 C860 1.539 . S
C863 H877 0.958 . S
C863 H878 0.961 . S
C863 H879 0.960 1_655 S
H864 C848 0.931 . S
H865 C853 0.929 . S
H866 C854 0.960 1_655 S
H867 C854 0.962 . S
H868 C854 0.960 . S
H869 C855 0.961 . S
H870 C855 0.961 . S
H871 C855 0.961 . S
H872 C856 0.931 . S
H873 C861 0.930 . S
H874 C862 0.956 1_455 S
H875 C862 0.961 1_455 S
H876 C862 0.961 . S
H877 C863 0.958 . S
H878 C863 0.961 . S
H879 C863 0.960 1_455 S
C880 C881 1.391 . S
C880 C882 1.394 . S
C880 H896 0.931 . S
C881 C880 1.391 . S
C881 C885 1.376 . S
C882 C880 1.394 . S
C882 C883 1.369 . S
C882 C886 1.531 . S
C883 C882 1.369 . S
C883 C884 1.410 . S
C883 C891 1.503 . S
C884 C883 1.410 . S
C884 C885 1.392 . S
C884 C887 1.511 . S
C885 C881 1.376 . S
C885 C884 1.392 . S
C885 H897 0.929 . S
C886 C882 1.531 . S
C886 H898 0.960 . S
C886 H899 0.962 . S
C886 H900 0.960 . S
C887 C884 1.511 . S
C887 H901 0.961 . S
C887 H902 0.961 . S
C887 H903 0.961 . S
C888 C889 1.370 . S
C888 C890 1.363 . S
C888 H904 0.931 . S
C889 C888 1.370 . S
C889 C893 1.408 . S
C890 C888 1.363 . S
C890 C891 1.370 . S
C890 C894 1.524 . S
C891 C883 1.503 . S
C891 C890 1.370 . S
C891 C892 1.403 . S
C892 C891 1.403 . S
C892 C893 1.404 . S
C892 C895 1.539 . S
C893 C889 1.408 . S
C893 C892 1.404 . S
C893 H905 0.930 . S
C894 C890 1.524 . S
C894 H906 0.956 . S
C894 H907 0.961 . S
C894 H908 0.961 . S
C895 C892 1.539 . S
C895 H909 0.958 . S
C895 H910 0.961 . S
C895 H911 0.960 . S
H896 C880 0.931 . S
H897 C885 0.929 . S
H898 C886 0.960 . S
H899 C886 0.962 . S
H900 C886 0.960 . S
H901 C887 0.961 . S
H902 C887 0.961 . S
H903 C887 0.961 . S
H904 C888 0.931 . S
H905 C893 0.930 . S
H906 C894 0.956 . S
H907 C894 0.961 . S
H908 C894 0.961 . S
H909 C895 0.958 . S
H910 C895 0.961 . S
H911 C895 0.960 . S
C912 C913 1.391 . S
C912 C914 1.394 . S
C912 H928 0.931 . S
C913 C912 1.391 . S
C913 C917 1.376 . S
C914 C912 1.394 . S
C914 C915 1.369 . S
C914 C918 1.531 . S
C915 C914 1.369 . S
C915 C916 1.410 . S
C915 C923 1.503 . S
C916 C915 1.410 . S
C916 C917 1.392 . S
C916 C919 1.511 . S
C917 C913 1.376 . S
C917 C916 1.392 . S
C917 H929 0.929 . S
C918 C914 1.531 . S
C918 H930 0.960 . S
C918 H931 0.962 . S
C918 H932 0.960 . S
C919 C916 1.511 . S
C919 H933 0.961 . S
C919 H934 0.961 . S
C919 H935 0.961 . S
C920 C921 1.370 . S
C920 C922 1.363 . S
C920 H936 0.931 . S
C921 C920 1.370 . S
C921 C925 1.408 . S
C922 C920 1.363 . S
C922 C923 1.370 . S
C922 C926 1.524 . S
C923 C915 1.503 . S
C923 C922 1.370 . S
C923 C924 1.403 . S
C924 C923 1.403 . S
C924 C925 1.404 . S
C924 C927 1.539 . S
C925 C921 1.408 . S
C925 C924 1.404 . S
C925 H937 0.930 . S
C926 C922 1.524 . S
C926 H938 0.956 . S
C926 H939 0.961 . S
C926 H940 0.961 . S
C927 C924 1.539 . S
C927 H941 0.958 . S
C927 H942 0.961 . S
C927 H943 0.960 . S
H928 C912 0.931 . S
H929 C917 0.929 . S
H930 C918 0.960 . S
H931 C918 0.962 . S
H932 C918 0.960 . S
H933 C919 0.961 . S
H934 C919 0.961 . S
H935 C919 0.961 . S
H936 C920 0.931 . S
H937 C925 0.930 . S
H938 C926 0.956 . S
H939 C926 0.961 . S
H940 C926 0.961 . S
H941 C927 0.958 . S
H942 C927 0.961 . S
H943 C927 0.960 . S
C944 C945 1.391 . S
C944 C946 1.394 . S
C944 H960 0.931 . S
C945 C944 1.391 . S
C945 C949 1.376 . S
C946 C944 1.394 . S
C946 C947 1.369 . S
C946 C950 1.531 . S
C947 C946 1.369 . S
C947 C948 1.410 . S
C947 C955 1.503 1_455 S
C948 C947 1.410 . S
C948 C949 1.392 . S
C948 C951 1.511 . S
C949 C945 1.376 . S
C949 C948 1.392 . S
C949 H961 0.929 . S
C950 C946 1.531 . S
C950 H962 0.960 1_455 S
C950 H963 0.962 . S
C950 H964 0.960 . S
C951 C948 1.511 . S
C951 H965 0.961 . S
C951 H966 0.961 1_455 S
C951 H967 0.961 1_455 S
C952 C953 1.370 . S
C952 C954 1.363 . S
C952 H968 0.931 . S
C953 C952 1.370 . S
C953 C957 1.408 . S
C954 C952 1.363 . S
C954 C955 1.370 . S
C954 C958 1.524 . S
C955 C947 1.503 1_655 S
C955 C954 1.370 . S
C955 C956 1.403 . S
C956 C955 1.403 . S
C956 C957 1.404 . S
C956 C959 1.539 . S
C957 C953 1.408 . S
C957 C956 1.404 . S
C957 H969 0.930 . S
C958 C954 1.524 . S
C958 H970 0.956 . S
C958 H971 0.961 . S
C958 H972 0.961 . S
C959 C956 1.539 . S
C959 H973 0.958 . S
C959 H974 0.961 . S
C959 H975 0.960 . S
H960 C944 0.931 . S
H961 C949 0.929 . S
H962 C950 0.960 1_655 S
H963 C950 0.962 . S
H964 C950 0.960 . S
H965 C951 0.961 . S
H966 C951 0.961 1_655 S
H967 C951 0.961 1_655 S
H968 C952 0.931 . S
H969 C957 0.930 . S
H970 C958 0.956 . S
H971 C958 0.961 . S
H972 C958 0.961 . S
H973 C959 0.958 . S
H974 C959 0.961 . S
H975 C959 0.960 . S
C976 C977 1.391 . S
C976 C978 1.394 . S
C976 H992 0.931 . S
C977 C976 1.391 . S
C977 C981 1.376 . S
C978 C976 1.394 . S
C978 C979 1.369 . S
C978 C982 1.531 1_554 S
C979 C978 1.369 . S
C979 C980 1.410 . S
C979 C987 1.503 1_554 S
C980 C979 1.410 . S
C980 C981 1.392 . S
C980 C983 1.511 . S
C981 C977 1.376 . S
C981 C980 1.392 . S
C981 H993 0.929 . S
C982 C978 1.531 1_556 S
C982 H994 0.960 . S
C982 H995 0.962 . S
C982 H996 0.960 . S
C983 C980 1.511 . S
C983 H997 0.961 . S
C983 H998 0.982 . S
C983 H999 0.961 . S
C984 C985 1.370 . S
C984 C986 1.363 . S
C984 H1000 0.931 . S
C985 C984 1.370 . S
C985 C989 1.408 . S
C986 C984 1.363 . S
C986 C987 1.370 . S
C986 C990 1.524 . S
C987 C979 1.503 1_556 S
C987 C986 1.370 . S
C987 C988 1.403 . S
C988 C987 1.403 . S
C988 C989 1.404 . S
C988 C991 1.539 . S
C989 C985 1.408 . S
C989 C988 1.404 . S
C989 H1001 0.930 . S
C990 C986 1.524 . S
C990 H1002 0.956 . S
C990 H1003 0.961 . S
C990 H1004 0.961 . S
C991 C988 1.539 . S
C991 H1005 0.958 . S
C991 H1006 0.961 . S
C991 H1007 0.960 1_556 S
H992 C976 0.931 . S
H993 C981 0.929 . S
H994 C982 0.960 . S
H995 C982 0.962 . S
H996 C982 0.960 . S
H997 C983 0.961 . S
H998 C983 0.982 . S
H999 C983 0.961 . S
H1000 C984 0.931 . S
H1001 C989 0.930 . S
H1002 C990 0.956 . S
H1003 C990 0.961 . S
H1004 C990 0.961 . S
H1005 C991 0.958 . S
H1006 C991 0.961 . S
H1007 C991 0.960 1_554 S
C1008 C1009 1.391 . S
C1008 C1010 1.394 . S
C1008 H1024 0.931 . S
C1009 C1008 1.391 . S
C1009 C1013 1.376 . S
C1010 C1008 1.394 . S
C1010 C1011 1.369 . S
C1010 C1014 1.531 1_554 S
C1011 C1010 1.369 . S
C1011 C1012 1.410 . S
C1011 C1019 1.503 1_554 S
C1012 C1011 1.410 . S
C1012 C1013 1.392 . S
C1012 C1015 1.511 . S
C1013 C1009 1.376 . S
C1013 C1012 1.392 . S
C1013 H1025 0.929 . S
C1014 C1010 1.531 1_556 S
C1014 H1026 0.960 . S
C1014 H1027 0.962 . S
C1014 H1028 0.960 . S
C1015 C1012 1.511 . S
C1015 H1029 0.961 . S
C1015 H1030 0.961 . S
C1015 H1031 0.961 . S
C1016 C1017 1.370 . S
C1016 C1018 1.363 . S
C1016 H1032 0.931 . S
C1017 C1016 1.370 . S
C1017 C1021 1.408 . S
C1018 C1016 1.363 . S
C1018 C1019 1.370 . S
C1018 C1022 1.524 . S
C1019 C1011 1.503 1_556 S
C1019 C1018 1.370 . S
C1019 C1020 1.403 . S
C1020 C1019 1.403 . S
C1020 C1021 1.404 . S
C1020 C1023 1.539 . S
C1021 C1017 1.408 . S
C1021 C1020 1.404 . S
C1021 H1033 0.930 . S
C1022 C1018 1.524 . S
C1022 H1034 0.956 . S
C1022 H1035 0.961 . S
C1022 H1036 0.961 . S
C1023 C1020 1.539 . S
C1023 H1037 0.958 . S
C1023 H1038 0.961 . S
C1023 H1039 0.960 . S
H1024 C1008 0.931 . S
H1025 C1013 0.929 . S
H1026 C1014 0.960 . S
H1027 C1014 0.962 . S
H1028 C1014 0.960 . S
H1029 C1015 0.961 . S
H1030 C1015 0.961 . S
H1031 C1015 0.961 . S
H1032 C1016 0.931 . S
H1033 C1021 0.930 . S
H1034 C1022 0.956 . S
H1035 C1022 0.961 . S
H1036 C1022 0.961 . S
H1037 C1023 0.958 . S
H1038 C1023 0.961 . S
H1039 C1023 0.960 . S
C1040 C1041 1.391 . S
C1040 C1042 1.394 . S
C1040 H1056 0.931 . S
C1041 C1040 1.391 . S
C1041 C1045 1.376 . S
C1042 C1040 1.394 . S
C1042 C1043 1.369 . S
C1042 C1046 1.531 . S
C1043 C1042 1.369 . S
C1043 C1044 1.410 . S
C1043 C1051 1.503 . S
C1044 C1043 1.410 . S
C1044 C1045 1.392 . S
C1044 C1047 1.511 . S
C1045 C1041 1.376 . S
C1045 C1044 1.392 . S
C1045 H1057 0.929 . S
C1046 C1042 1.531 . S
C1046 H1058 0.960 . S
C1046 H1059 0.962 . S
C1046 H1060 0.960 . S
C1047 C1044 1.511 . S
C1047 H1061 0.961 . S
C1047 H1062 0.961 . S
C1047 H1063 0.961 . S
C1048 C1049 1.370 . S
C1048 C1050 1.363 . S
C1048 H1064 0.931 . S
C1049 C1048 1.370 . S
C1049 C1053 1.408 . S
C1050 C1048 1.363 . S
C1050 C1051 1.370 . S
C1050 C1054 1.524 . S
C1051 C1043 1.503 . S
C1051 C1050 1.370 . S
C1051 C1052 1.403 . S
C1052 C1051 1.403 . S
C1052 C1053 1.404 . S
C1052 C1055 1.539 . S
C1053 C1049 1.408 . S
C1053 C1052 1.404 . S
C1053 H1065 0.930 . S
C1054 C1050 1.524 . S
C1054 H1066 0.956 . S
C1054 H1067 0.961 . S
C1054 H1068 0.961 . S
C1055 C1052 1.539 . S
C1055 H1069 0.958 . S
C1055 H1070 0.961 . S
C1055 H1071 0.960 . S
H1056 C1040 0.931 . S
H1057 C1045 0.929 . S
H1058 C1046 0.960 . S
H1059 C1046 0.962 . S
H1060 C1046 0.960 . S
H1061 C1047 0.961 . S
H1062 C1047 0.961 . S
H1063 C1047 0.961 . S
H1064 C1048 0.931 . S
H1065 C1053 0.930 . S
H1066 C1054 0.956 . S
H1067 C1054 0.961 . S
H1068 C1054 0.961 . S
H1069 C1055 0.958 . S
H1070 C1055 0.961 . S
H1071 C1055 0.960 . S
C1072 C1073 1.391 . S
C1072 C1074 1.394 . S
C1072 H1088 0.931 . S
C1073 C1072 1.391 . S
C1073 C1077 1.376 . S
C1074 C1072 1.394 . S
C1074 C1075 1.369 . S
C1074 C1078 1.531 . S
C1075 C1074 1.369 . S
C1075 C1076 1.410 . S
C1075 C1083 1.503 . S
C1076 C1075 1.410 . S
C1076 C1077 1.392 . S
C1076 C1079 1.511 . S
C1077 C1073 1.376 . S
C1077 C1076 1.392 . S
C1077 H1089 0.929 . S
C1078 C1074 1.531 . S
C1078 H1090 0.960 . S
C1078 H1091 0.962 . S
C1078 H1092 0.960 . S
C1079 C1076 1.511 . S
C1079 H1093 0.961 . S
C1079 H1094 0.961 . S
C1079 H1095 0.961 . S
C1080 C1081 1.370 . S
C1080 C1082 1.363 . S
C1080 H1096 0.931 . S
C1081 C1080 1.370 . S
C1081 C1085 1.408 . S
C1082 C1080 1.363 . S
C1082 C1083 1.370 . S
C1082 C1086 1.524 . S
C1083 C1075 1.503 . S
C1083 C1082 1.370 . S
C1083 C1084 1.403 . S
C1084 C1083 1.403 . S
C1084 C1085 1.404 . S
C1084 C1087 1.539 . S
C1085 C1081 1.408 . S
C1085 C1084 1.404 . S
C1085 H1097 0.930 . S
C1086 C1082 1.524 . S
C1086 H1098 0.956 . S
C1086 H1099 0.961 . S
C1086 H1100 0.961 . S
C1087 C1084 1.539 . S
C1087 H1101 0.958 . S
C1087 H1102 0.961 . S
C1087 H1103 0.960 . S
H1088 C1072 0.931 . S
H1089 C1077 0.929 . S
H1090 C1078 0.960 . S
H1091 C1078 0.962 . S
H1092 C1078 0.960 . S
H1093 C1079 0.961 . S
H1094 C1079 0.961 . S
H1095 C1079 0.961 . S
H1096 C1080 0.931 . S
H1097 C1085 0.930 . S
H1098 C1086 0.956 . S
H1099 C1086 0.961 . S
H1100 C1086 0.961 . S
H1101 C1087 0.958 . S
H1102 C1087 0.961 . S
H1103 C1087 0.960 . S
C1104 C1105 1.391 . S
C1104 C1106 1.394 . S
C1104 H1120 0.931 . S
C1105 C1104 1.391 . S
C1105 C1109 1.376 . S
C1106 C1104 1.394 . S
C1106 C1107 1.369 . S
C1106 C1110 1.531 1_556 S
C1107 C1106 1.369 . S
C1107 C1108 1.410 . S
C1107 C1115 1.503 1_556 S
C1108 C1107 1.410 . S
C1108 C1109 1.392 . S
C1108 C1111 1.511 . S
C1109 C1105 1.376 . S
C1109 C1108 1.392 . S
C1109 H1121 0.929 . S
C1110 C1106 1.531 1_554 S
C1110 H1122 0.960 . S
C1110 H1123 0.962 . S
C1110 H1124 0.960 . S
C1111 C1108 1.511 . S
C1111 H1125 0.961 . S
C1111 H1126 0.961 . S
C1111 H1127 0.961 . S
C1112 C1113 1.370 . S
C1112 C1114 1.363 . S
C1112 H1128 0.931 . S
C1113 C1112 1.370 . S
C1113 C1117 1.408 . S
C1114 C1112 1.363 . S
C1114 C1115 1.370 . S
C1114 C1118 1.524 . S
C1115 C1107 1.503 1_554 S
C1115 C1114 1.370 . S
C1115 C1116 1.403 . S
C1116 C1115 1.403 . S
C1116 C1117 1.404 . S
C1116 C1119 1.539 . S
C1117 C1113 1.408 . S
C1117 C1116 1.404 . S
C1117 H1129 0.930 . S
C1118 C1114 1.524 . S
C1118 H1130 0.956 . S
C1118 H1131 0.961 . S
C1118 H1132 0.961 . S
C1119 C1116 1.539 . S
C1119 H1133 0.958 . S
C1119 H1134 0.961 . S
C1119 H1135 1.004 . S
H1120 C1104 0.931 . S
H1121 C1109 0.929 . S
H1122 C1110 0.960 . S
H1123 C1110 0.962 . S
H1124 C1110 0.960 . S
H1125 C1111 0.961 . S
H1126 C1111 0.961 . S
H1127 C1111 0.961 . S
H1128 C1112 0.931 . S
H1129 C1117 0.930 . S
H1130 C1118 0.956 . S
H1131 C1118 0.961 . S
H1132 C1118 0.961 . S
H1133 C1119 0.958 . S
H1134 C1119 0.961 . S
H1135 C1119 1.004 . S
C1136 C1137 1.391 . S
C1136 C1138 1.394 . S
C1136 H1152 0.931 . S
C1137 C1136 1.391 . S
C1137 C1141 1.376 . S
C1138 C1136 1.394 . S
C1138 C1139 1.369 . S
C1138 C1142 1.531 . S
C1139 C1138 1.369 . S
C1139 C1140 1.410 . S
C1139 C1147 1.503 1_556 S
C1140 C1139 1.410 . S
C1140 C1141 1.392 . S
C1140 C1143 1.511 1_556 S
C1141 C1137 1.376 . S
C1141 C1140 1.392 . S
C1141 H1153 0.929 . S
C1142 C1138 1.531 . S
C1142 H1154 0.960 . S
C1142 H1155 0.962 . S
C1142 H1156 0.960 . S
C1143 C1140 1.511 1_554 S
C1143 H1157 0.961 . S
C1143 H1158 0.961 . S
C1143 H1159 0.961 . S
C1144 C1145 1.370 . S
C1144 C1146 1.363 . S
C1144 H1160 0.931 . S
C1145 C1144 1.370 . S
C1145 C1149 1.408 . S
C1146 C1144 1.363 . S
C1146 C1147 1.370 . S
C1146 C1150 1.524 . S
C1147 C1139 1.503 1_554 S
C1147 C1146 1.370 . S
C1147 C1148 1.403 . S
C1148 C1147 1.403 . S
C1148 C1149 1.404 . S
C1148 C1151 1.539 . S
C1149 C1145 1.408 . S
C1149 C1148 1.404 . S
C1149 H1161 0.930 . S
C1150 C1146 1.524 . S
C1150 H1162 0.922 1_554 S
C1150 H1163 0.961 . S
C1150 H1164 0.961 . S
C1151 C1148 1.539 . S
C1151 H1165 0.958 . S
C1151 H1166 0.961 . S
C1151 H1167 0.960 . S
H1152 C1136 0.931 . S
H1153 C1141 0.929 . S
H1154 C1142 0.960 . S
H1155 C1142 0.962 . S
H1156 C1142 0.960 . S
H1157 C1143 0.961 . S
H1158 C1143 0.961 . S
H1159 C1143 0.961 . S
H1160 C1144 0.931 . S
H1161 C1149 0.930 . S
H1162 C1150 0.922 1_556 S
H1163 C1150 0.961 . S
H1164 C1150 0.961 . S
H1165 C1151 0.958 . S
H1166 C1151 0.961 . S
H1167 C1151 0.960 . S
C1168 C1169 1.391 . S
C1168 C1170 1.394 . S
C1168 H1184 0.931 . S
C1169 C1168 1.391 . S
C1169 C1173 1.376 . S
C1170 C1168 1.394 . S
C1170 C1171 1.369 . S
C1170 C1174 1.531 . S
C1171 C1170 1.369 . S
C1171 C1172 1.410 . S
C1171 C1179 1.503 . S
C1172 C1171 1.410 . S
C1172 C1173 1.392 . S
C1172 C1175 1.511 . S
C1173 C1169 1.376 . S
C1173 C1172 1.392 . S
C1173 H1185 0.929 . S
C1174 C1170 1.531 . S
C1174 H1186 0.960 . S
C1174 H1187 0.962 . S
C1174 H1188 0.960 . S
C1175 C1172 1.511 . S
C1175 H1189 0.961 . S
C1175 H1190 0.961 . S
C1175 H1191 0.961 . S
C1176 C1177 1.370 . S
C1176 C1178 1.363 . S
C1176 H1192 0.931 . S
C1177 C1176 1.370 . S
C1177 C1181 1.408 . S
C1178 C1176 1.363 . S
C1178 C1179 1.370 . S
C1178 C1182 1.524 . S
C1179 C1171 1.503 . S
C1179 C1178 1.370 . S
C1179 C1180 1.403 . S
C1180 C1179 1.403 . S
C1180 C1181 1.404 . S
C1180 C1183 1.539 . S
C1181 C1177 1.408 . S
C1181 C1180 1.404 . S
C1181 H1193 0.930 . S
C1182 C1178 1.524 . S
C1182 H1194 0.956 . S
C1182 H1195 0.961 . S
C1182 H1196 0.961 . S
C1183 C1180 1.539 . S
C1183 H1197 0.958 . S
C1183 H1198 0.961 . S
C1183 H1199 0.960 . S
H1184 C1168 0.931 . S
H1185 C1173 0.929 . S
H1186 C1174 0.960 . S
H1187 C1174 0.962 . S
H1188 C1174 0.960 . S
H1189 C1175 0.961 . S
H1190 C1175 0.961 . S
H1191 C1175 0.961 . S
H1192 C1176 0.931 . S
H1193 C1181 0.930 . S
H1194 C1182 0.956 . S
H1195 C1182 0.961 . S
H1196 C1182 0.961 . S
H1197 C1183 0.958 . S
H1198 C1183 0.961 . S
H1199 C1183 0.960 . S
C1200 C1201 1.391 . S
C1200 C1202 1.394 . S
C1200 H1216 0.931 . S
C1201 C1200 1.391 . S
C1201 C1205 1.376 . S
C1202 C1200 1.394 . S
C1202 C1203 1.369 . S
C1202 C1206 1.531 . S
C1203 C1202 1.369 . S
C1203 C1204 1.410 . S
C1203 C1211 1.503 . S
C1204 C1203 1.410 . S
C1204 C1205 1.392 . S
C1204 C1207 1.511 . S
C1205 C1201 1.376 . S
C1205 C1204 1.392 . S
C1205 H1217 0.929 . S
C1206 C1202 1.531 . S
C1206 H1218 0.960 . S
C1206 H1219 0.962 . S
C1206 H1220 0.960 . S
C1207 C1204 1.511 . S
C1207 H1221 0.961 . S
C1207 H1222 0.961 . S
C1207 H1223 0.961 . S
C1208 C1209 1.370 . S
C1208 C1210 1.363 . S
C1208 H1224 0.931 . S
C1209 C1208 1.370 . S
C1209 C1213 1.408 . S
C1210 C1208 1.363 . S
C1210 C1211 1.370 . S
C1210 C1214 1.524 . S
C1211 C1203 1.503 . S
C1211 C1210 1.370 . S
C1211 C1212 1.403 . S
C1212 C1211 1.403 . S
C1212 C1213 1.404 . S
C1212 C1215 1.539 . S
C1213 C1209 1.408 . S
C1213 C1212 1.404 . S
C1213 H1225 0.930 . S
C1214 C1210 1.524 . S
C1214 H1226 0.956 . S
C1214 H1227 0.961 . S
C1214 H1228 0.961 . S
C1215 C1212 1.539 . S
C1215 H1229 0.958 . S
C1215 H1230 0.961 . S
C1215 H1231 0.960 . S
H1216 C1200 0.931 . S
H1217 C1205 0.929 . S
H1218 C1206 0.960 . S
H1219 C1206 0.962 . S
H1220 C1206 0.960 . S
H1221 C1207 0.961 . S
H1222 C1207 0.961 . S
H1223 C1207 0.961 . S
H1224 C1208 0.931 . S
H1225 C1213 0.930 . S
H1226 C1214 0.956 . S
H1227 C1214 0.961 . S
H1228 C1214 0.961 . S
H1229 C1215 0.958 . S
H1230 C1215 0.961 . S
H1231 C1215 0.960 . S
C1232 C1233 1.391 . S
C1232 C1234 1.394 . S
C1232 H1248 0.931 . S
C1233 C1232 1.391 . S
C1233 C1237 1.376 . S
C1234 C1232 1.394 . S
C1234 C1235 1.369 . S
C1234 C1238 1.531 1_554 S
C1235 C1234 1.369 . S
C1235 C1236 1.410 . S
C1235 C1243 1.503 1_554 S
C1236 C1235 1.410 . S
C1236 C1237 1.392 . S
C1236 C1239 1.511 . S
C1237 C1233 1.376 . S
C1237 C1236 1.392 . S
C1237 H1249 0.929 . S
C1238 C1234 1.531 1_556 S
C1238 H1250 0.960 . S
C1238 H1251 0.962 . S
C1238 H1252 0.960 . S
C1239 C1236 1.511 . S
C1239 H1253 0.961 . S
C1239 H1254 0.994 . S
C1239 H1255 0.961 . S
C1240 C1241 1.370 . S
C1240 C1242 1.363 . S
C1240 H1256 0.931 . S
C1241 C1240 1.370 . S
C1241 C1245 1.408 . S
C1242 C1240 1.363 . S
C1242 C1243 1.370 . S
C1242 C1246 1.524 . S
C1243 C1235 1.503 1_556 S
C1243 C1242 1.370 . S
C1243 C1244 1.403 . S
C1244 C1243 1.403 . S
C1244 C1245 1.404 . S
C1244 C1247 1.539 . S
C1245 C1241 1.408 . S
C1245 C1244 1.404 . S
C1245 H1257 0.930 . S
C1246 C1242 1.524 . S
C1246 H1258 0.956 . S
C1246 H1259 0.961 . S
C1246 H1260 0.961 . S
C1247 C1244 1.539 . S
C1247 H1261 0.958 . S
C1247 H1262 0.961 . S
C1247 H1263 0.960 1_556 S
H1248 C1232 0.931 . S
H1249 C1237 0.929 . S
H1250 C1238 0.960 . S
H1251 C1238 0.962 . S
H1252 C1238 0.960 . S
H1253 C1239 0.961 . S
H1254 C1239 0.994 . S
H1255 C1239 0.961 . S
H1256 C1240 0.931 . S
H1257 C1245 0.930 . S
H1258 C1246 0.956 . S
H1259 C1246 0.961 . S
H1260 C1246 0.961 . S
H1261 C1247 0.958 . S
H1262 C1247 0.961 . S
H1263 C1247 0.960 1_554 S
C1264 C1265 1.391 . S
C1264 C1266 1.394 . S
C1264 H1280 0.931 . S
C1265 C1264 1.391 . S
C1265 C1269 1.376 . S
C1266 C1264 1.394 . S
C1266 C1267 1.369 . S
C1266 C1270 1.531 . S
C1267 C1266 1.369 . S
C1267 C1268 1.410 . S
C1267 C1275 1.503 1_556 S
C1268 C1267 1.410 . S
C1268 C1269 1.392 . S
C1268 C1271 1.511 . S
C1269 C1265 1.376 . S
C1269 C1268 1.392 . S
C1269 H1281 0.929 . S
C1270 C1266 1.531 . S
C1270 H1282 0.960 . S
C1270 H1283 0.962 . S
C1270 H1284 0.960 . S
C1271 C1268 1.511 . S
C1271 H1285 0.961 . S
C1271 H1286 0.961 1_556 S
C1271 H1287 0.961 1_556 S
C1272 C1273 1.370 . S
C1272 C1274 1.363 . S
C1272 H1288 0.931 . S
C1273 C1272 1.370 . S
C1273 C1277 1.408 . S
C1274 C1272 1.363 . S
C1274 C1275 1.370 . S
C1274 C1278 1.524 1_554 S
C1275 C1267 1.503 1_554 S
C1275 C1274 1.370 . S
C1275 C1276 1.403 . S
C1276 C1275 1.403 . S
C1276 C1277 1.404 . S
C1276 C1279 1.539 . S
C1277 C1273 1.408 . S
C1277 C1276 1.404 . S
C1277 H1289 0.930 . S
C1278 C1274 1.524 1_556 S
C1278 H1290 0.956 . S
C1278 H1291 0.961 . S
C1278 H1292 0.961 1_556 S
C1279 C1276 1.539 . S
C1279 H1293 0.958 . S
C1279 H1294 0.961 . S
C1279 H1295 0.997 . S
H1280 C1264 0.931 . S
H1281 C1269 0.929 . S
H1282 C1270 0.960 . S
H1283 C1270 0.962 . S
H1284 C1270 0.960 . S
H1285 C1271 0.961 . S
H1286 C1271 0.961 1_554 S
H1287 C1271 0.961 1_554 S
H1288 C1272 0.931 . S
H1289 C1277 0.930 . S
H1290 C1278 0.956 . S
H1291 C1278 0.961 . S
H1292 C1278 0.961 1_554 S
H1293 C1279 0.958 . S
H1294 C1279 0.961 . S
H1295 C1279 0.997 . S
C1296 C1297 1.391 . S
C1296 C1298 1.394 . S
C1296 H1312 0.931 . S
C1297 C1296 1.391 . S
C1297 C1301 1.376 . S
C1298 C1296 1.394 . S
C1298 C1299 1.369 . S
C1298 C1302 1.531 . S
C1299 C1298 1.369 . S
C1299 C1300 1.410 . S
C1299 C1307 1.503 . S
C1300 C1299 1.410 . S
C1300 C1301 1.392 . S
C1300 C1303 1.511 . S
C1301 C1297 1.376 . S
C1301 C1300 1.392 . S
C1301 H1313 0.929 . S
C1302 C1298 1.531 . S
C1302 H1314 0.960 . S
C1302 H1315 0.962 . S
C1302 H1316 0.960 . S
C1303 C1300 1.511 . S
C1303 H1317 0.961 . S
C1303 H1318 0.961 . S
C1303 H1319 0.961 . S
C1304 C1305 1.370 . S
C1304 C1306 1.363 . S
C1304 H1320 0.931 . S
C1305 C1304 1.370 . S
C1305 C1309 1.408 . S
C1306 C1304 1.363 . S
C1306 C1307 1.370 . S
C1306 C1310 1.524 . S
C1307 C1299 1.503 . S
C1307 C1306 1.370 . S
C1307 C1308 1.403 . S
C1308 C1307 1.403 . S
C1308 C1309 1.404 . S
C1308 C1311 1.539 . S
C1309 C1305 1.408 . S
C1309 C1308 1.404 . S
C1309 H1321 0.930 . S
C1310 C1306 1.524 . S
C1310 H1322 0.956 . S
C1310 H1323 0.961 . S
C1310 H1324 0.961 . S
C1311 C1308 1.539 . S
C1311 H1325 0.958 . S
C1311 H1326 0.961 . S
C1311 H1327 0.960 . S
H1312 C1296 0.931 . S
H1313 C1301 0.929 . S
H1314 C1302 0.960 . S
H1315 C1302 0.962 . S
H1316 C1302 0.960 . S
H1317 C1303 0.961 . S
H1318 C1303 0.961 . S
H1319 C1303 0.961 . S
H1320 C1304 0.931 . S
H1321 C1309 0.930 . S
H1322 C1310 0.956 . S
H1323 C1310 0.961 . S
H1324 C1310 0.961 . S
H1325 C1311 0.958 . S
H1326 C1311 0.961 . S
H1327 C1311 0.960 . S
C1328 C1329 1.391 . S
C1328 C1330 1.394 . S
C1328 H1344 0.931 . S
C1329 C1328 1.391 . S
C1329 C1333 1.376 . S
C1330 C1328 1.394 . S
C1330 C1331 1.369 . S
C1330 C1334 1.531 . S
C1331 C1330 1.369 . S
C1331 C1332 1.410 . S
C1331 C1339 1.503 . S
C1332 C1331 1.410 . S
C1332 C1333 1.392 . S
C1332 C1335 1.511 . S
C1333 C1329 1.376 . S
C1333 C1332 1.392 . S
C1333 H1345 0.929 . S
C1334 C1330 1.531 . S
C1334 H1346 0.960 . S
C1334 H1347 0.962 . S
C1334 H1348 0.960 . S
C1335 C1332 1.511 . S
C1335 H1349 0.961 . S
C1335 H1350 0.961 . S
C1335 H1351 0.961 . S
C1336 C1337 1.370 . S
C1336 C1338 1.363 . S
C1336 H1352 0.931 . S
C1337 C1336 1.370 . S
C1337 C1341 1.408 . S
C1338 C1336 1.363 . S
C1338 C1339 1.370 . S
C1338 C1342 1.524 . S
C1339 C1331 1.503 . S
C1339 C1338 1.370 . S
C1339 C1340 1.403 . S
C1340 C1339 1.403 . S
C1340 C1341 1.404 . S
C1340 C1343 1.539 . S
C1341 C1337 1.408 . S
C1341 C1340 1.404 . S
C1341 H1353 0.930 . S
C1342 C1338 1.524 . S
C1342 H1354 0.956 . S
C1342 H1355 0.961 . S
C1342 H1356 0.961 . S
C1343 C1340 1.539 . S
C1343 H1357 0.958 . S
C1343 H1358 0.961 . S
C1343 H1359 0.960 . S
H1344 C1328 0.931 . S
H1345 C1333 0.929 . S
H1346 C1334 0.960 . S
H1347 C1334 0.962 . S
H1348 C1334 0.960 . S
H1349 C1335 0.961 . S
H1350 C1335 0.961 . S
H1351 C1335 0.961 . S
H1352 C1336 0.931 . S
H1353 C1341 0.930 . S
H1354 C1342 0.956 . S
H1355 C1342 0.961 . S
H1356 C1342 0.961 . S
H1357 C1343 0.958 . S
H1358 C1343 0.961 . S
H1359 C1343 0.960 . S
C1360 C1361 1.391 . S
C1360 C1362 1.394 . S
C1360 H1376 0.931 . S
C1361 C1360 1.391 . S
C1361 C1365 1.376 . S
C1362 C1360 1.394 . S
C1362 C1363 1.369 . S
C1362 C1366 1.531 . S
C1363 C1362 1.369 . S
C1363 C1364 1.410 . S
C1363 C1371 1.503 1_554 S
C1364 C1363 1.410 . S
C1364 C1365 1.392 . S
C1364 C1367 1.511 . S
C1365 C1361 1.376 . S
C1365 C1364 1.392 . S
C1365 H1377 0.929 . S
C1366 C1362 1.531 . S
C1366 H1378 0.986 . S
C1366 H1379 0.962 . S
C1366 H1380 0.960 . S
C1367 C1364 1.511 . S
C1367 H1381 0.961 . S
C1367 H1382 0.961 . S
C1367 H1383 0.961 . S
C1368 C1369 1.370 . S
C1368 C1370 1.363 . S
C1368 H1384 0.931 . S
C1369 C1368 1.370 . S
C1369 C1373 1.408 . S
C1370 C1368 1.363 . S
C1370 C1371 1.370 . S
C1370 C1374 1.524 1_556 S
C1371 C1363 1.503 1_556 S
C1371 C1370 1.370 . S
C1371 C1372 1.403 . S
C1372 C1371 1.403 . S
C1372 C1373 1.404 . S
C1372 C1375 1.539 . S
C1373 C1369 1.408 . S
C1373 C1372 1.404 . S
C1373 H1385 0.930 . S
C1374 C1370 1.524 1_554 S
C1374 H1386 0.956 . S
C1374 H1387 0.961 . S
C1374 H1388 0.961 . S
C1375 C1372 1.539 . S
C1375 H1389 0.958 . S
C1375 H1390 0.961 . S
C1375 H1391 0.960 . S
H1376 C1360 0.931 . S
H1377 C1365 0.929 . S
H1378 C1366 0.986 . S
H1379 C1366 0.962 . S
H1380 C1366 0.960 . S
H1381 C1367 0.961 . S
H1382 C1367 0.961 . S
H1383 C1367 0.961 . S
H1384 C1368 0.931 . S
H1385 C1373 0.930 . S
H1386 C1374 0.956 . S
H1387 C1374 0.961 . S
H1388 C1374 0.961 . S
H1389 C1375 0.958 . S
H1390 C1375 0.961 . S
H1391 C1375 0.960 . S
C1392 C1393 1.391 . S
C1392 C1394 1.394 . S
C1392 H1408 0.931 . S
C1393 C1392 1.391 . S
C1393 C1397 1.376 . S
C1394 C1392 1.394 . S
C1394 C1395 1.369 . S
C1394 C1398 1.531 1_556 S
C1395 C1394 1.369 . S
C1395 C1396 1.410 . S
C1395 C1403 1.503 1_556 S
C1396 C1395 1.410 . S
C1396 C1397 1.392 . S
C1396 C1399 1.511 . S
C1397 C1393 1.376 . S
C1397 C1396 1.392 . S
C1397 H1409 0.929 . S
C1398 C1394 1.531 1_554 S
C1398 H1410 0.960 . S
C1398 H1411 0.962 . S
C1398 H1412 0.960 . S
C1399 C1396 1.511 . S
C1399 H1413 0.961 . S
C1399 H1414 0.961 . S
C1399 H1415 0.961 . S
C1400 C1401 1.370 . S
C1400 C1402 1.363 . S
C1400 H1416 0.931 . S
C1401 C1400 1.370 . S
C1401 C1405 1.408 . S
C1402 C1400 1.363 . S
C1402 C1403 1.370 . S
C1402 C1406 1.524 . S
C1403 C1395 1.503 1_554 S
C1403 C1402 1.370 . S
C1403 C1404 1.403 . S
C1404 C1403 1.403 . S
C1404 C1405 1.404 . S
C1404 C1407 1.539 . S
C1405 C1401 1.408 . S
C1405 C1404 1.404 . S
C1405 H1417 0.930 . S
C1406 C1402 1.524 . S
C1406 H1418 0.956 . S
C1406 H1419 0.961 . S
C1406 H1420 0.961 . S
C1407 C1404 1.539 . S
C1407 H1421 0.958 . S
C1407 H1422 0.961 . S
C1407 H1423 0.960 1_554 S
H1408 C1392 0.931 . S
H1409 C1397 0.929 . S
H1410 C1398 0.960 . S
H1411 C1398 0.962 . S
H1412 C1398 0.960 . S
H1413 C1399 0.961 . S
H1414 C1399 0.961 . S
H1415 C1399 0.961 . S
H1416 C1400 0.931 . S
H1417 C1405 0.930 . S
H1418 C1406 0.956 . S
H1419 C1406 0.961 . S
H1420 C1406 0.961 . S
H1421 C1407 0.958 . S
H1422 C1407 0.961 . S
H1423 C1407 0.960 1_556 S
C1424 C1425 1.391 . S
C1424 C1426 1.394 . S
C1424 H1440 0.931 . S
C1425 C1424 1.391 . S
C1425 C1429 1.376 . S
C1426 C1424 1.394 . S
C1426 C1427 1.369 . S
C1426 C1430 1.531 . S
C1427 C1426 1.369 . S
C1427 C1428 1.410 . S
C1427 C1435 1.503 . S
C1428 C1427 1.410 . S
C1428 C1429 1.392 . S
C1428 C1431 1.511 . S
C1429 C1425 1.376 . S
C1429 C1428 1.392 . S
C1429 H1441 0.929 . S
C1430 C1426 1.531 . S
C1430 H1442 0.960 . S
C1430 H1443 0.962 . S
C1430 H1444 0.960 . S
C1431 C1428 1.511 . S
C1431 H1445 0.961 . S
C1431 H1446 0.961 . S
C1431 H1447 0.961 . S
C1432 C1433 1.370 . S
C1432 C1434 1.363 . S
C1432 H1448 0.931 . S
C1433 C1432 1.370 . S
C1433 C1437 1.408 . S
C1434 C1432 1.363 . S
C1434 C1435 1.370 . S
C1434 C1438 1.524 . S
C1435 C1427 1.503 . S
C1435 C1434 1.370 . S
C1435 C1436 1.403 . S
C1436 C1435 1.403 . S
C1436 C1437 1.404 . S
C1436 C1439 1.539 . S
C1437 C1433 1.408 . S
C1437 C1436 1.404 . S
C1437 H1449 0.930 . S
C1438 C1434 1.524 . S
C1438 H1450 0.956 . S
C1438 H1451 0.961 . S
C1438 H1452 0.961 . S
C1439 C1436 1.539 . S
C1439 H1453 0.958 . S
C1439 H1454 0.961 . S
C1439 H1455 0.960 . S
H1440 C1424 0.931 . S
H1441 C1429 0.929 . S
H1442 C1430 0.960 . S
H1443 C1430 0.962 . S
H1444 C1430 0.960 . S
H1445 C1431 0.961 . S
H1446 C1431 0.961 . S
H1447 C1431 0.961 . S
H1448 C1432 0.931 . S
H1449 C1437 0.930 . S
H1450 C1438 0.956 . S
H1451 C1438 0.961 . S
H1452 C1438 0.961 . S
H1453 C1439 0.958 . S
H1454 C1439 0.961 . S
H1455 C1439 0.960 . S
C1456 C1457 1.391 . S
C1456 C1458 1.394 . S
C1456 H1472 0.931 . S
C1457 C1456 1.391 . S
C1457 C1461 1.376 . S
C1458 C1456 1.394 . S
C1458 C1459 1.369 . S
C1458 C1462 1.531 . S
C1459 C1458 1.369 . S
C1459 C1460 1.410 . S
C1459 C1467 1.503 . S
C1460 C1459 1.410 . S
C1460 C1461 1.392 . S
C1460 C1463 1.511 . S
C1461 C1457 1.376 . S
C1461 C1460 1.392 . S
C1461 H1473 0.929 . S
C1462 C1458 1.531 . S
C1462 H1474 0.960 . S
C1462 H1475 0.962 . S
C1462 H1476 0.960 . S
C1463 C1460 1.511 . S
C1463 H1477 0.961 . S
C1463 H1478 0.961 . S
C1463 H1479 0.961 . S
C1464 C1465 1.370 . S
C1464 C1466 1.363 . S
C1464 H1480 0.931 . S
C1465 C1464 1.370 . S
C1465 C1469 1.408 . S
C1466 C1464 1.363 . S
C1466 C1467 1.370 . S
C1466 C1470 1.524 . S
C1467 C1459 1.503 . S
C1467 C1466 1.370 . S
C1467 C1468 1.403 . S
C1468 C1467 1.403 . S
C1468 C1469 1.404 . S
C1468 C1471 1.539 . S
C1469 C1465 1.408 . S
C1469 C1468 1.404 . S
C1469 H1481 0.930 . S
C1470 C1466 1.524 . S
C1470 H1482 0.956 . S
C1470 H1483 0.961 . S
C1470 H1484 0.961 . S
C1471 C1468 1.539 . S
C1471 H1485 0.958 . S
C1471 H1486 0.961 . S
C1471 H1487 0.960 . S
H1472 C1456 0.931 . S
H1473 C1461 0.929 . S
H1474 C1462 0.960 . S
H1475 C1462 0.962 . S
H1476 C1462 0.960 . S
H1477 C1463 0.961 . S
H1478 C1463 0.961 . S
H1479 C1463 0.961 . S
H1480 C1464 0.931 . S
H1481 C1469 0.930 . S
H1482 C1470 0.956 . S
H1483 C1470 0.961 . S
H1484 C1470 0.961 . S
H1485 C1471 0.958 . S
H1486 C1471 0.961 . S
H1487 C1471 0.960 . S
C1488 C1489 1.391 . S
C1488 C1490 1.394 . S
C1488 H1504 0.931 . S
C1489 C1488 1.391 . S
C1489 C1493 1.376 . S
C1490 C1488 1.394 . S
C1490 C1491 1.369 . S
C1490 C1494 1.531 . S
C1491 C1490 1.369 . S
C1491 C1492 1.410 . S
C1491 C1499 1.503 1_545 S
C1492 C1491 1.410 . S
C1492 C1493 1.392 . S
C1492 C1495 1.511 . S
C1493 C1489 1.376 . S
C1493 C1492 1.392 . S
C1493 H1505 0.929 . S
C1494 C1490 1.531 . S
C1494 H1506 0.960 . S
C1494 H1507 0.962 . S
C1494 H1508 0.960 . S
C1495 C1492 1.511 . S
C1495 H1509 0.961 . S
C1495 H1510 0.961 1_545 S
C1495 H1511 0.961 . S
C1496 C1497 1.370 . S
C1496 C1498 1.363 . S
C1496 H1512 0.931 . S
C1497 C1496 1.370 . S
C1497 C1501 1.408 . S
C1498 C1496 1.363 . S
C1498 C1499 1.370 . S
C1498 C1502 1.524 . S
C1499 C1491 1.503 1_565 S
C1499 C1498 1.370 . S
C1499 C1500 1.403 . S
C1500 C1499 1.403 . S
C1500 C1501 1.404 . S
C1500 C1503 1.539 1_565 S
C1501 C1497 1.408 . S
C1501 C1500 1.404 . S
C1501 H1513 0.930 . S
C1502 C1498 1.524 . S
C1502 H1514 0.956 . S
C1502 H1515 0.961 . S
C1502 H1516 0.961 . S
C1503 C1500 1.539 1_545 S
C1503 H1517 0.958 . S
C1503 H1518 0.961 . S
C1503 H1519 0.960 . S
H1504 C1488 0.931 . S
H1505 C1493 0.929 . S
H1506 C1494 0.960 . S
H1507 C1494 0.962 . S
H1508 C1494 0.960 . S
H1509 C1495 0.961 . S
H1510 C1495 0.961 1_565 S
H1511 C1495 0.961 . S
H1512 C1496 0.931 . S
H1513 C1501 0.930 . S
H1514 C1502 0.956 . S
H1515 C1502 0.961 . S
H1516 C1502 0.961 . S
H1517 C1503 0.958 . S
H1518 C1503 0.961 . S
H1519 C1503 0.960 . S
C1520 C1521 1.391 . S
C1520 C1522 1.394 . S
C1520 H1536 0.931 . S
C1521 C1520 1.391 . S
C1521 C1525 1.376 . S
C1522 C1520 1.394 . S
C1522 C1523 1.369 . S
C1522 C1526 1.531 1_545 S
C1523 C1522 1.369 . S
C1523 C1524 1.410 . S
C1523 C1531 1.503 1_545 S
C1524 C1523 1.410 . S
C1524 C1525 1.392 . S
C1524 C1527 1.511 . S
C1525 C1521 1.376 . S
C1525 C1524 1.392 . S
C1525 H1537 0.929 . S
C1526 C1522 1.531 1_565 S
C1526 H1538 0.960 . S
C1526 H1539 0.962 1_565 S
C1526 H1540 0.961 . S
C1527 C1524 1.511 . S
C1527 H1541 0.961 . S
C1527 H1542 0.961 . S
C1527 H1543 0.961 . S
C1528 C1529 1.370 . S
C1528 C1530 1.363 . S
C1528 H1544 0.931 . S
C1529 C1528 1.370 . S
C1529 C1533 1.408 . S
C1530 C1528 1.363 . S
C1530 C1531 1.370 . S
C1530 C1534 1.524 1_565 S
C1531 C1523 1.503 1_565 S
C1531 C1530 1.370 . S
C1531 C1532 1.403 . S
C1532 C1531 1.403 . S
C1532 C1533 1.404 . S
C1532 C1535 1.539 . S
C1533 C1529 1.408 . S
C1533 C1532 1.404 . S
C1533 H1545 0.930 . S
C1534 C1530 1.524 1_545 S
C1534 H1546 0.956 . S
C1534 H1547 0.961 . S
C1534 H1548 0.961 . S
C1535 C1532 1.539 . S
C1535 H1549 0.958 . S
C1535 H1550 0.961 . S
C1535 H1551 0.960 . S
H1536 C1520 0.931 . S
H1537 C1525 0.929 . S
H1538 C1526 0.960 . S
H1539 C1526 0.962 1_545 S
H1540 C1526 0.961 . S
H1541 C1527 0.961 . S
H1542 C1527 0.961 . S
H1543 C1527 0.961 . S
H1544 C1528 0.931 . S
H1545 C1533 0.930 . S
H1546 C1534 0.956 . S
H1547 C1534 0.961 . S
H1548 C1534 0.961 . S
H1549 C1535 0.958 . S
H1550 C1535 0.961 . S
H1551 C1535 0.960 . S
C1552 C1553 1.391 . S
C1552 C1554 1.394 . S
C1552 H1568 0.931 . S
C1553 C1552 1.391 . S
C1553 C1557 1.376 . S
C1554 C1552 1.394 . S
C1554 C1555 1.369 . S
C1554 C1558 1.531 . S
C1555 C1554 1.369 . S
C1555 C1556 1.410 . S
C1555 C1563 1.503 1_565 S
C1556 C1555 1.410 . S
C1556 C1557 1.392 . S
C1556 C1559 1.511 1_565 S
C1557 C1553 1.376 . S
C1557 C1556 1.392 . S
C1557 H1569 0.929 . S
C1558 C1554 1.531 . S
C1558 H1570 0.960 . S
C1558 H1571 0.962 . S
C1558 H1572 0.960 . S
C1559 C1556 1.511 1_545 S
C1559 H1573 0.961 . S
C1559 H1574 0.961 . S
C1559 H1575 0.961 . S
C1560 C1561 1.370 . S
C1560 C1562 1.363 . S
C1560 H1576 0.931 . S
C1561 C1560 1.370 . S
C1561 C1565 1.408 . S
C1562 C1560 1.363 . S
C1562 C1563 1.370 . S
C1562 C1566 1.524 1_545 S
C1563 C1555 1.503 1_545 S
C1563 C1562 1.370 . S
C1563 C1564 1.403 . S
C1564 C1563 1.403 . S
C1564 C1565 1.404 . S
C1564 C1567 1.539 . S
C1565 C1561 1.408 . S
C1565 C1564 1.404 . S
C1565 H1577 0.930 . S
C1566 C1562 1.524 1_565 S
C1566 H1578 0.956 . S
C1566 H1579 0.961 . S
C1566 H1580 0.961 . S
C1567 C1564 1.539 . S
C1567 H1581 0.958 . S
C1567 H1582 0.961 . S
C1567 H1583 0.960 . S
H1568 C1552 0.931 . S
H1569 C1557 0.929 . S
H1570 C1558 0.960 . S
H1571 C1558 0.962 . S
H1572 C1558 0.960 . S
H1573 C1559 0.961 . S
H1574 C1559 0.961 . S
H1575 C1559 0.961 . S
H1576 C1560 0.931 . S
H1577 C1565 0.930 . S
H1578 C1566 0.956 . S
H1579 C1566 0.961 . S
H1580 C1566 0.961 . S
H1581 C1567 0.958 . S
H1582 C1567 0.961 . S
H1583 C1567 0.960 . S
C1584 C1585 1.391 . S
C1584 C1586 1.394 . S
C1584 H1600 0.931 . S
C1585 C1584 1.391 . S
C1585 C1589 1.376 . S
C1586 C1584 1.394 . S
C1586 C1587 1.369 . S
C1586 C1590 1.531 . S
C1587 C1586 1.369 . S
C1587 C1588 1.410 . S
C1587 C1595 1.503 1_565 S
C1588 C1587 1.410 . S
C1588 C1589 1.392 . S
C1588 C1591 1.511 1_565 S
C1589 C1585 1.376 . S
C1589 C1588 1.392 . S
C1589 H1601 0.929 . S
C1590 C1586 1.531 . S
C1590 H1602 0.960 . S
C1590 H1603 0.962 . S
C1590 H1604 0.960 . S
C1591 C1588 1.511 1_545 S
C1591 H1605 0.961 . S
C1591 H1606 0.961 . S
C1591 H1607 0.961 . S
C1592 C1593 1.370 . S
C1592 C1594 1.363 . S
C1592 H1608 0.931 . S
C1593 C1592 1.370 . S
C1593 C1597 1.408 . S
C1594 C1592 1.363 . S
C1594 C1595 1.370 . S
C1594 C1598 1.524 . S
C1595 C1587 1.503 1_545 S
C1595 C1594 1.370 . S
C1595 C1596 1.403 . S
C1596 C1595 1.403 . S
C1596 C1597 1.404 . S
C1596 C1599 1.539 . S
C1597 C1593 1.408 . S
C1597 C1596 1.404 . S
C1597 H1609 0.930 . S
C1598 C1594 1.524 . S
C1598 H1610 0.956 1_545 S
C1598 H1611 0.961 . S
C1598 H1612 0.961 . S
C1599 C1596 1.539 . S
C1599 H1613 0.958 1_545 S
C1599 H1614 0.961 . S
C1599 H1615 0.960 . S
H1600 C1584 0.931 . S
H1601 C1589 0.929 . S
H1602 C1590 0.960 . S
H1603 C1590 0.962 . S
H1604 C1590 0.960 . S
H1605 C1591 0.961 . S
H1606 C1591 0.961 . S
H1607 C1591 0.961 . S
H1608 C1592 0.931 . S
H1609 C1597 0.930 . S
H1610 C1598 0.956 1_565 S
H1611 C1598 0.961 . S
H1612 C1598 0.961 . S
H1613 C1599 0.958 1_565 S
H1614 C1599 0.961 . S
H1615 C1599 0.960 . S
C1616 C1617 1.391 . S
C1616 C1618 1.394 . S
C1616 H1632 0.931 . S
C1617 C1616 1.391 . S
C1617 C1621 1.376 . S
C1618 C1616 1.394 . S
C1618 C1619 1.369 . S
C1618 C1622 1.531 . S
C1619 C1618 1.369 . S
C1619 C1620 1.410 . S
C1619 C1627 1.503 . S
C1620 C1619 1.410 . S
C1620 C1621 1.392 . S
C1620 C1623 1.511 . S
C1621 C1617 1.376 . S
C1621 C1620 1.392 . S
C1621 H1633 0.929 . S
C1622 C1618 1.531 . S
C1622 H1634 0.960 . S
C1622 H1635 0.962 . S
C1622 H1636 0.960 . S
C1623 C1620 1.511 . S
C1623 H1637 0.961 . S
C1623 H1638 0.961 . S
C1623 H1639 0.961 . S
C1624 C1625 1.370 . S
C1624 C1626 1.363 . S
C1624 H1640 0.931 . S
C1625 C1624 1.370 . S
C1625 C1629 1.408 . S
C1626 C1624 1.363 . S
C1626 C1627 1.370 . S
C1626 C1630 1.524 . S
C1627 C1619 1.503 . S
C1627 C1626 1.370 . S
C1627 C1628 1.403 . S
C1628 C1627 1.403 . S
C1628 C1629 1.404 . S
C1628 C1631 1.539 . S
C1629 C1625 1.408 . S
C1629 C1628 1.404 . S
C1629 H1641 0.930 . S
C1630 C1626 1.524 . S
C1630 H1642 0.956 . S
C1630 H1643 0.961 . S
C1630 H1644 0.961 . S
C1631 C1628 1.539 . S
C1631 H1645 0.958 . S
C1631 H1646 0.961 . S
C1631 H1647 0.960 . S
H1632 C1616 0.931 . S
H1633 C1621 0.929 . S
H1634 C1622 0.960 . S
H1635 C1622 0.962 . S
H1636 C1622 0.960 . S
H1637 C1623 0.961 . S
H1638 C1623 0.961 . S
H1639 C1623 0.961 . S
H1640 C1624 0.931 . S
H1641 C1629 0.930 . S
H1642 C1630 0.956 . S
H1643 C1630 0.961 . S
H1644 C1630 0.961 . S
H1645 C1631 0.958 . S
H1646 C1631 0.961 . S
H1647 C1631 0.960 . S
C1648 C1649 1.391 . S
C1648 C1650 1.394 . S
C1648 H1664 0.931 . S
C1649 C1648 1.391 . S
C1649 C1653 1.376 . S
C1650 C1648 1.394 . S
C1650 C1651 1.369 . S
C1650 C1654 1.531 . S
C1651 C1650 1.369 . S
C1651 C1652 1.410 . S
C1651 C1659 1.503 . S
C1652 C1651 1.410 . S
C1652 C1653 1.392 . S
C1652 C1655 1.511 . S
C1653 C1649 1.376 . S
C1653 C1652 1.392 . S
C1653 H1665 0.929 . S
C1654 C1650 1.531 . S
C1654 H1666 0.960 . S
C1654 H1667 0.962 . S
C1654 H1668 0.960 . S
C1655 C1652 1.511 . S
C1655 H1669 0.961 . S
C1655 H1670 0.961 . S
C1655 H1671 0.961 . S
C1656 C1657 1.370 . S
C1656 C1658 1.363 . S
C1656 H1672 0.931 . S
C1657 C1656 1.370 . S
C1657 C1661 1.408 . S
C1658 C1656 1.363 . S
C1658 C1659 1.370 . S
C1658 C1662 1.524 . S
C1659 C1651 1.503 . S
C1659 C1658 1.370 . S
C1659 C1660 1.403 . S
C1660 C1659 1.403 . S
C1660 C1661 1.404 . S
C1660 C1663 1.539 . S
C1661 C1657 1.408 . S
C1661 C1660 1.404 . S
C1661 H1673 0.930 . S
C1662 C1658 1.524 . S
C1662 H1674 0.956 . S
C1662 H1675 0.961 . S
C1662 H1676 0.961 . S
C1663 C1660 1.539 . S
C1663 H1677 0.958 . S
C1663 H1678 0.961 . S
C1663 H1679 0.960 . S
H1664 C1648 0.931 . S
H1665 C1653 0.929 . S
H1666 C1654 0.960 . S
H1667 C1654 0.962 . S
H1668 C1654 0.960 . S
H1669 C1655 0.961 . S
H1670 C1655 0.961 . S
H1671 C1655 0.961 . S
H1672 C1656 0.931 . S
H1673 C1661 0.930 . S
H1674 C1662 0.956 . S
H1675 C1662 0.961 . S
H1676 C1662 0.961 . S
H1677 C1663 0.958 . S
H1678 C1663 0.961 . S
H1679 C1663 0.960 . S
C1680 C1681 1.391 . S
C1680 C1682 1.394 . S
C1680 H1696 0.931 . S
C1681 C1680 1.391 . S
C1681 C1685 1.376 . S
C1682 C1680 1.394 . S
C1682 C1683 1.369 . S
C1682 C1686 1.531 . S
C1683 C1682 1.369 . S
C1683 C1684 1.410 . S
C1683 C1691 1.503 . S
C1684 C1683 1.410 . S
C1684 C1685 1.392 . S
C1684 C1687 1.511 . S
C1685 C1681 1.376 . S
C1685 C1684 1.392 . S
C1685 H1697 0.929 . S
C1686 C1682 1.531 . S
C1686 H1698 0.960 . S
C1686 H1699 0.962 . S
C1686 H1700 0.960 . S
C1687 C1684 1.511 . S
C1687 H1701 0.961 . S
C1687 H1702 0.961 . S
C1687 H1703 0.961 . S
C1688 C1689 1.370 . S
C1688 C1690 1.363 . S
C1688 H1704 0.931 . S
C1689 C1688 1.370 . S
C1689 C1693 1.408 . S
C1690 C1688 1.363 . S
C1690 C1691 1.370 . S
C1690 C1694 1.524 . S
C1691 C1683 1.503 . S
C1691 C1690 1.370 . S
C1691 C1692 1.403 . S
C1692 C1691 1.403 . S
C1692 C1693 1.404 . S
C1692 C1695 1.539 . S
C1693 C1689 1.408 . S
C1693 C1692 1.404 . S
C1693 H1705 0.930 . S
C1694 C1690 1.524 . S
C1694 H1706 0.956 . S
C1694 H1707 0.961 . S
C1694 H1708 0.961 . S
C1695 C1692 1.539 . S
C1695 H1709 0.958 . S
C1695 H1710 0.961 . S
C1695 H1711 0.960 . S
H1696 C1680 0.931 . S
H1697 C1685 0.929 . S
H1698 C1686 0.960 . S
H1699 C1686 0.962 . S
H1700 C1686 0.960 . S
H1701 C1687 0.961 . S
H1702 C1687 0.961 . S
H1703 C1687 0.961 . S
H1704 C1688 0.931 . S
H1705 C1693 0.930 . S
H1706 C1694 0.956 . S
H1707 C1694 0.961 . S
H1708 C1694 0.961 . S
H1709 C1695 0.958 . S
H1710 C1695 0.961 . S
H1711 C1695 0.960 . S
C1712 C1713 1.391 . S
C1712 C1714 1.394 . S
C1712 H1728 0.931 . S
C1713 C1712 1.391 . S
C1713 C1717 1.376 . S
C1714 C1712 1.394 . S
C1714 C1715 1.369 . S
C1714 C1718 1.531 . S
C1715 C1714 1.369 . S
C1715 C1716 1.410 . S
C1715 C1723 1.503 . S
C1716 C1715 1.410 . S
C1716 C1717 1.392 . S
C1716 C1719 1.511 . S
C1717 C1713 1.376 . S
C1717 C1716 1.392 . S
C1717 H1729 0.929 . S
C1718 C1714 1.531 . S
C1718 H1730 0.960 . S
C1718 H1731 0.962 . S
C1718 H1732 0.960 . S
C1719 C1716 1.511 . S
C1719 H1733 0.961 . S
C1719 H1734 0.961 . S
C1719 H1735 0.961 . S
C1720 C1721 1.370 . S
C1720 C1722 1.363 . S
C1720 H1736 0.931 . S
C1721 C1720 1.370 . S
C1721 C1725 1.408 . S
C1722 C1720 1.363 . S
C1722 C1723 1.370 . S
C1722 C1726 1.524 . S
C1723 C1715 1.503 . S
C1723 C1722 1.370 . S
C1723 C1724 1.403 . S
C1724 C1723 1.403 . S
C1724 C1725 1.404 . S
C1724 C1727 1.539 . S
C1725 C1721 1.408 . S
C1725 C1724 1.404 . S
C1725 H1737 0.930 . S
C1726 C1722 1.524 . S
C1726 H1738 0.956 . S
C1726 H1739 0.961 . S
C1726 H1740 0.961 . S
C1727 C1724 1.539 . S
C1727 H1741 0.958 . S
C1727 H1742 0.961 . S
C1727 H1743 0.960 . S
H1728 C1712 0.931 . S
H1729 C1717 0.929 . S
H1730 C1718 0.960 . S
H1731 C1718 0.962 . S
H1732 C1718 0.960 . S
H1733 C1719 0.961 . S
H1734 C1719 0.961 . S
H1735 C1719 0.961 . S
H1736 C1720 0.931 . S
H1737 C1725 0.930 . S
H1738 C1726 0.956 . S
H1739 C1726 0.961 . S
H1740 C1726 0.961 . S
H1741 C1727 0.958 . S
H1742 C1727 0.961 . S
H1743 C1727 0.960 . S
C1744 C1745 1.391 . S
C1744 C1746 1.394 . S
C1744 H1760 0.931 . S
C1745 C1744 1.391 . S
C1745 C1749 1.376 1_455 S
C1746 C1744 1.394 . S
C1746 C1747 1.369 1_455 S
C1746 C1750 1.531 . S
C1747 C1746 1.369 1_655 S
C1747 C1748 1.410 . S
C1747 C1755 1.503 . S
C1748 C1747 1.410 . S
C1748 C1749 1.392 . S
C1748 C1751 1.511 . S
C1749 C1745 1.376 1_655 S
C1749 C1748 1.392 . S
C1749 H1761 0.929 . S
C1750 C1746 1.531 . S
C1750 H1762 0.960 . S
C1750 H1763 0.962 . S
C1750 H1764 0.960 . S
C1751 C1748 1.511 . S
C1751 H1765 0.961 . S
C1751 H1766 0.961 . S
C1751 H1767 0.961 . S
C1752 C1753 1.370 1_455 S
C1752 C1754 1.363 . S
C1752 H1768 0.931 . S
C1753 C1752 1.370 1_655 S
C1753 C1757 1.408 . S
C1754 C1752 1.363 . S
C1754 C1755 1.370 1_455 S
C1754 C1758 1.524 . S
C1755 C1747 1.503 . S
C1755 C1754 1.370 1_655 S
C1755 C1756 1.403 . S
C1756 C1755 1.403 . S
C1756 C1757 1.404 . S
C1756 C1759 1.539 . S
C1757 C1753 1.408 . S
C1757 C1756 1.404 . S
C1757 H1769 0.930 . S
C1758 C1754 1.524 . S
C1758 H1770 0.956 . S
C1758 H1771 0.961 . S
C1758 H1772 0.961 . S
C1759 C1756 1.539 . S
C1759 H1773 0.958 . S
C1759 H1774 0.961 . S
C1759 H1775 0.960 . S
H1760 C1744 0.931 . S
H1761 C1749 0.929 . S
H1762 C1750 0.960 . S
H1763 C1750 0.962 . S
H1764 C1750 0.960 . S
H1765 C1751 0.961 . S
H1766 C1751 0.961 . S
H1767 C1751 0.961 . S
H1768 C1752 0.931 . S
H1769 C1757 0.930 . S
H1770 C1758 0.956 . S
H1771 C1758 0.961 . S
H1772 C1758 0.961 . S
H1773 C1759 0.958 . S
H1774 C1759 0.961 . S
H1775 C1759 0.960 . S
C1776 C1777 1.391 . S
C1776 C1778 1.394 . S
C1776 H1792 0.931 . S
C1777 C1776 1.391 . S
C1777 C1781 1.376 . S
C1778 C1776 1.394 . S
C1778 C1779 1.369 . S
C1778 C1782 1.531 . S
C1779 C1778 1.369 . S
C1779 C1780 1.410 . S
C1779 C1787 1.503 . S
C1780 C1779 1.410 . S
C1780 C1781 1.392 . S
C1780 C1783 1.511 . S
C1781 C1777 1.376 . S
C1781 C1780 1.392 . S
C1781 H1793 0.929 . S
C1782 C1778 1.531 . S
C1782 H1794 0.960 . S
C1782 H1795 0.962 . S
C1782 H1796 0.960 . S
C1783 C1780 1.511 . S
C1783 H1797 0.961 . S
C1783 H1798 0.961 . S
C1783 H1799 0.961 . S
C1784 C1785 1.370 . S
C1784 C1786 1.363 . S
C1784 H1800 0.931 . S
C1785 C1784 1.370 . S
C1785 C1789 1.408 . S
C1786 C1784 1.363 . S
C1786 C1787 1.370 . S
C1786 C1790 1.524 . S
C1787 C1779 1.503 . S
C1787 C1786 1.370 . S
C1787 C1788 1.403 . S
C1788 C1787 1.403 . S
C1788 C1789 1.404 . S
C1788 C1791 1.539 . S
C1789 C1785 1.408 . S
C1789 C1788 1.404 . S
C1789 H1801 0.930 . S
C1790 C1786 1.524 . S
C1790 H1802 0.956 . S
C1790 H1803 0.961 . S
C1790 H1804 0.961 . S
C1791 C1788 1.539 . S
C1791 H1805 0.958 . S
C1791 H1806 0.961 . S
C1791 H1807 0.960 . S
H1792 C1776 0.931 . S
H1793 C1781 0.929 . S
H1794 C1782 0.960 . S
H1795 C1782 0.962 . S
H1796 C1782 0.960 . S
H1797 C1783 0.961 . S
H1798 C1783 0.961 . S
H1799 C1783 0.961 . S
H1800 C1784 0.931 . S
H1801 C1789 0.930 . S
H1802 C1790 0.956 . S
H1803 C1790 0.961 . S
H1804 C1790 0.961 . S
H1805 C1791 0.958 . S
H1806 C1791 0.961 . S
H1807 C1791 0.960 . S
C1808 C1809 1.391 . S
C1808 C1810 1.394 . S
C1808 H1824 0.931 . S
C1809 C1808 1.391 . S
C1809 C1813 1.376 . S
C1810 C1808 1.394 . S
C1810 C1811 1.369 . S
C1810 C1814 1.531 . S
C1811 C1810 1.369 . S
C1811 C1812 1.410 . S
C1811 C1819 1.503 . S
C1812 C1811 1.410 . S
C1812 C1813 1.392 . S
C1812 C1815 1.511 . S
C1813 C1809 1.376 . S
C1813 C1812 1.392 . S
C1813 H1825 0.929 . S
C1814 C1810 1.531 . S
C1814 H1826 0.960 . S
C1814 H1827 0.962 . S
C1814 H1828 0.960 . S
C1815 C1812 1.511 . S
C1815 H1829 0.961 . S
C1815 H1830 0.961 . S
C1815 H1831 0.961 . S
C1816 C1817 1.370 . S
C1816 C1818 1.363 . S
C1816 H1832 0.931 . S
C1817 C1816 1.370 . S
C1817 C1821 1.408 . S
C1818 C1816 1.363 . S
C1818 C1819 1.370 . S
C1818 C1822 1.524 . S
C1819 C1811 1.503 . S
C1819 C1818 1.370 . S
C1819 C1820 1.403 . S
C1820 C1819 1.403 . S
C1820 C1821 1.404 . S
C1820 C1823 1.539 . S
C1821 C1817 1.408 . S
C1821 C1820 1.404 . S
C1821 H1833 0.930 . S
C1822 C1818 1.524 . S
C1822 H1834 0.956 . S
C1822 H1835 0.961 . S
C1822 H1836 0.961 . S
C1823 C1820 1.539 . S
C1823 H1837 0.958 . S
C1823 H1838 0.961 . S
C1823 H1839 0.960 . S
H1824 C1808 0.931 . S
H1825 C1813 0.929 . S
H1826 C1814 0.960 . S
H1827 C1814 0.962 . S
H1828 C1814 0.960 . S
H1829 C1815 0.961 . S
H1830 C1815 0.961 . S
H1831 C1815 0.961 . S
H1832 C1816 0.931 . S
H1833 C1821 0.930 . S
H1834 C1822 0.956 . S
H1835 C1822 0.961 . S
H1836 C1822 0.961 . S
H1837 C1823 0.958 . S
H1838 C1823 0.961 . S
H1839 C1823 0.960 . S
C1840 C1841 1.391 . S
C1840 C1842 1.394 . S
C1840 H1856 0.931 . S
C1841 C1840 1.391 . S
C1841 C1845 1.376 1_455 S
C1842 C1840 1.394 . S
C1842 C1843 1.369 1_455 S
C1842 C1846 1.531 . S
C1843 C1842 1.369 1_655 S
C1843 C1844 1.410 . S
C1843 C1851 1.503 . S
C1844 C1843 1.410 . S
C1844 C1845 1.392 . S
C1844 C1847 1.511 . S
C1845 C1841 1.376 1_655 S
C1845 C1844 1.392 . S
C1845 H1857 0.929 . S
C1846 C1842 1.531 . S
C1846 H1858 0.960 . S
C1846 H1859 0.962 . S
C1846 H1860 0.960 . S
C1847 C1844 1.511 . S
C1847 H1861 0.961 . S
C1847 H1862 0.961 . S
C1847 H1863 0.961 . S
C1848 C1849 1.370 1_455 S
C1848 C1850 1.363 . S
C1848 H1864 0.931 . S
C1849 C1848 1.370 1_655 S
C1849 C1853 1.408 . S
C1850 C1848 1.363 . S
C1850 C1851 1.370 1_455 S
C1850 C1854 1.524 . S
C1851 C1843 1.503 . S
C1851 C1850 1.370 1_655 S
C1851 C1852 1.403 . S
C1852 C1851 1.403 . S
C1852 C1853 1.404 . S
C1852 C1855 1.539 . S
C1853 C1849 1.408 . S
C1853 C1852 1.404 . S
C1853 H1865 0.930 . S
C1854 C1850 1.524 . S
C1854 H1866 0.956 . S
C1854 H1867 0.961 . S
C1854 H1868 0.961 . S
C1855 C1852 1.539 . S
C1855 H1869 0.958 . S
C1855 H1870 0.961 . S
C1855 H1871 0.960 . S
H1856 C1840 0.931 . S
H1857 C1845 0.929 . S
H1858 C1846 0.960 . S
H1859 C1846 0.962 . S
H1860 C1846 0.960 . S
H1861 C1847 0.961 . S
H1862 C1847 0.961 . S
H1863 C1847 0.961 . S
H1864 C1848 0.931 . S
H1865 C1853 0.930 . S
H1866 C1854 0.956 . S
H1867 C1854 0.961 . S
H1868 C1854 0.961 . S
H1869 C1855 0.958 . S
H1870 C1855 0.961 . S
H1871 C1855 0.960 . S
C1872 C1873 1.391 . S
C1872 C1874 1.394 . S
C1872 H1888 0.931 . S
C1873 C1872 1.391 . S
C1873 C1877 1.376 1_655 S
C1874 C1872 1.394 . S
C1874 C1875 1.369 1_655 S
C1874 C1878 1.531 . S
C1875 C1874 1.369 1_455 S
C1875 C1876 1.410 . S
C1875 C1883 1.503 . S
C1876 C1875 1.410 . S
C1876 C1877 1.392 . S
C1876 C1879 1.511 . S
C1877 C1873 1.376 1_455 S
C1877 C1876 1.392 . S
C1877 H1889 0.929 . S
C1878 C1874 1.531 . S
C1878 H1890 0.960 . S
C1878 H1891 0.962 . S
C1878 H1892 0.960 . S
C1879 C1876 1.511 . S
C1879 H1893 0.961 . S
C1879 H1894 0.961 . S
C1879 H1895 0.961 . S
C1880 C1881 1.370 1_655 S
C1880 C1882 1.363 . S
C1880 H1896 0.931 . S
C1881 C1880 1.370 1_455 S
C1881 C1885 1.408 . S
C1882 C1880 1.363 . S
C1882 C1883 1.370 1_655 S
C1882 C1886 1.524 . S
C1883 C1875 1.503 . S
C1883 C1882 1.370 1_455 S
C1883 C1884 1.403 . S
C1884 C1883 1.403 . S
C1884 C1885 1.404 . S
C1884 C1887 1.539 . S
C1885 C1881 1.408 . S
C1885 C1884 1.404 . S
C1885 H1897 0.930 . S
C1886 C1882 1.524 . S
C1886 H1898 0.956 . S
C1886 H1899 0.961 1_655 S
C1886 H1900 0.961 . S
C1887 C1884 1.539 . S
C1887 H1901 0.958 1_455 S
C1887 H1902 0.961 . S
C1887 H1903 0.960 . S
H1888 C1872 0.931 . S
H1889 C1877 0.929 . S
H1890 C1878 0.960 . S
H1891 C1878 0.962 . S
H1892 C1878 0.960 . S
H1893 C1879 0.961 . S
H1894 C1879 0.961 . S
H1895 C1879 0.961 . S
H1896 C1880 0.931 . S
H1897 C1885 0.930 . S
H1898 C1886 0.956 . S
H1899 C1886 0.961 1_455 S
H1900 C1886 0.961 . S
H1901 C1887 0.958 1_655 S
H1902 C1887 0.961 . S
H1903 C1887 0.960 . S
C1904 C1905 1.391 . S
C1904 C1906 1.394 . S
C1904 H1920 0.931 . S
C1905 C1904 1.391 . S
C1905 C1909 1.376 . S
C1906 C1904 1.394 . S
C1906 C1907 1.369 . S
C1906 C1910 1.531 . S
C1907 C1906 1.369 . S
C1907 C1908 1.410 . S
C1907 C1915 1.503 . S
C1908 C1907 1.410 . S
C1908 C1909 1.392 . S
C1908 C1911 1.511 . S
C1909 C1905 1.376 . S
C1909 C1908 1.392 . S
C1909 H1921 0.929 . S
C1910 C1906 1.531 . S
C1910 H1922 0.960 . S
C1910 H1923 0.962 . S
C1910 H1924 0.960 . S
C1911 C1908 1.511 . S
C1911 H1925 0.961 . S
C1911 H1926 0.961 . S
C1911 H1927 0.961 . S
C1912 C1913 1.370 . S
C1912 C1914 1.363 . S
C1912 H1928 0.931 . S
C1913 C1912 1.370 . S
C1913 C1917 1.408 . S
C1914 C1912 1.363 . S
C1914 C1915 1.370 . S
C1914 C1918 1.524 . S
C1915 C1907 1.503 . S
C1915 C1914 1.370 . S
C1915 C1916 1.403 . S
C1916 C1915 1.403 . S
C1916 C1917 1.404 . S
C1916 C1919 1.539 . S
C1917 C1913 1.408 . S
C1917 C1916 1.404 . S
C1917 H1929 0.930 . S
C1918 C1914 1.524 . S
C1918 H1930 0.956 . S
C1918 H1931 0.961 . S
C1918 H1932 0.961 . S
C1919 C1916 1.539 . S
C1919 H1933 0.958 . S
C1919 H1934 0.961 . S
C1919 H1935 0.960 . S
H1920 C1904 0.931 . S
H1921 C1909 0.929 . S
H1922 C1910 0.960 . S
H1923 C1910 0.962 . S
H1924 C1910 0.960 . S
H1925 C1911 0.961 . S
H1926 C1911 0.961 . S
H1927 C1911 0.961 . S
H1928 C1912 0.931 . S
H1929 C1917 0.930 . S
H1930 C1918 0.956 . S
H1931 C1918 0.961 . S
H1932 C1918 0.961 . S
H1933 C1919 0.958 . S
H1934 C1919 0.961 . S
H1935 C1919 0.960 . S
C1936 C1937 1.391 . S
C1936 C1938 1.394 . S
C1936 H1952 0.931 . S
C1937 C1936 1.391 . S
C1937 C1941 1.376 . S
C1938 C1936 1.394 . S
C1938 C1939 1.369 . S
C1938 C1942 1.531 . S
C1939 C1938 1.369 . S
C1939 C1940 1.410 . S
C1939 C1947 1.503 . S
C1940 C1939 1.410 . S
C1940 C1941 1.392 . S
C1940 C1943 1.511 . S
C1941 C1937 1.376 . S
C1941 C1940 1.392 . S
C1941 H1953 0.929 . S
C1942 C1938 1.531 . S
C1942 H1954 0.960 . S
C1942 H1955 0.962 . S
C1942 H1956 0.960 . S
C1943 C1940 1.511 . S
C1943 H1957 0.961 . S
C1943 H1958 0.961 . S
C1943 H1959 0.961 . S
C1944 C1945 1.370 . S
C1944 C1946 1.363 . S
C1944 H1960 0.931 . S
C1945 C1944 1.370 . S
C1945 C1949 1.408 . S
C1946 C1944 1.363 . S
C1946 C1947 1.370 . S
C1946 C1950 1.524 . S
C1947 C1939 1.503 . S
C1947 C1946 1.370 . S
C1947 C1948 1.403 . S
C1948 C1947 1.403 . S
C1948 C1949 1.404 . S
C1948 C1951 1.539 . S
C1949 C1945 1.408 . S
C1949 C1948 1.404 . S
C1949 H1961 0.930 . S
C1950 C1946 1.524 . S
C1950 H1962 0.956 . S
C1950 H1963 0.961 . S
C1950 H1964 0.961 . S
C1951 C1948 1.539 . S
C1951 H1965 0.958 . S
C1951 H1966 0.961 . S
C1951 H1967 0.960 . S
H1952 C1936 0.931 . S
H1953 C1941 0.929 . S
H1954 C1942 0.960 . S
H1955 C1942 0.962 . S
H1956 C1942 0.960 . S
H1957 C1943 0.961 . S
H1958 C1943 0.961 . S
H1959 C1943 0.961 . S
H1960 C1944 0.931 . S
H1961 C1949 0.930 . S
H1962 C1950 0.956 . S
H1963 C1950 0.961 . S
H1964 C1950 0.961 . S
H1965 C1951 0.958 . S
H1966 C1951 0.961 . S
H1967 C1951 0.960 . S
C1968 C1969 1.391 1_455 S
C1968 C1970 1.394 . S
C1968 H1984 0.931 . S
C1969 C1968 1.391 1_655 S
C1969 C1973 1.376 . S
C1970 C1968 1.394 . S
C1970 C1971 1.369 1_455 S
C1970 C1974 1.531 . S
C1971 C1970 1.369 1_655 S
C1971 C1972 1.410 . S
C1971 C1979 1.503 . S
C1972 C1971 1.410 . S
C1972 C1973 1.392 . S
C1972 C1975 1.511 . S
C1973 C1969 1.376 . S
C1973 C1972 1.392 . S
C1973 H1985 0.929 . S
C1974 C1970 1.531 . S
C1974 H1986 0.960 . S
C1974 H1987 0.962 . S
C1974 H1988 0.960 . S
C1975 C1972 1.511 . S
C1975 H1989 0.961 . S
C1975 H1990 0.961 . S
C1975 H1991 0.961 . S
C1976 C1977 1.370 . S
C1976 C1978 1.363 . S
C1976 H1992 0.931 . S
C1977 C1976 1.370 . S
C1977 C1981 1.408 1_455 S
C1978 C1976 1.363 . S
C1978 C1979 1.370 1_455 S
C1978 C1982 1.524 . S
C1979 C1971 1.503 . S
C1979 C1978 1.370 1_655 S
C1979 C1980 1.403 . S
C1980 C1979 1.403 . S
C1980 C1981 1.404 . S
C1980 C1983 1.539 . S
C1981 C1977 1.408 1_655 S
C1981 C1980 1.404 . S
C1981 H1993 0.930 . S
C1982 C1978 1.524 . S
C1982 H1994 0.956 . S
C1982 H1995 0.961 . S
C1982 H1996 0.961 . S
C1983 C1980 1.539 . S
C1983 H1997 0.958 . S
C1983 H1998 0.961 . S
C1983 H1999 0.960 . S
H1984 C1968 0.931 . S
H1985 C1973 0.929 . S
H1986 C1974 0.960 . S
H1987 C1974 0.962 . S
H1988 C1974 0.960 . S
H1989 C1975 0.961 . S
H1990 C1975 0.961 . S
H1991 C1975 0.961 . S
H1992 C1976 0.931 . S
H1993 C1981 0.930 . S
H1994 C1982 0.956 . S
H1995 C1982 0.961 . S
H1996 C1982 0.961 . S
H1997 C1983 0.958 . S
H1998 C1983 0.961 . S
H1999 C1983 0.960 . S
C2000 C2001 1.391 1_655 S
C2000 C2002 1.394 . S
C2000 H2016 0.931 . S
C2001 C2000 1.391 1_455 S
C2001 C2005 1.376 . S
C2002 C2000 1.394 . S
C2002 C2003 1.369 1_655 S
C2002 C2006 1.531 . S
C2003 C2002 1.369 1_455 S
C2003 C2004 1.410 . S
C2003 C2011 1.503 1_455 S
C2004 C2003 1.410 . S
C2004 C2005 1.392 . S
C2004 C2007 1.511 . S
C2005 C2001 1.376 . S
C2005 C2004 1.392 . S
C2005 H2017 0.929 . S
C2006 C2002 1.531 . S
C2006 H2018 0.960 . S
C2006 H2019 0.962 . S
C2006 H2020 0.960 . S
C2007 C2004 1.511 . S
C2007 H2021 0.961 . S
C2007 H2022 0.961 . S
C2007 H2023 0.961 . S
C2008 C2009 1.370 . S
C2008 C2010 1.363 . S
C2008 H2024 0.931 . S
C2009 C2008 1.370 . S
C2009 C2013 1.408 . S
C2010 C2008 1.363 . S
C2010 C2011 1.370 . S
C2010 C2014 1.524 1_655 S
C2011 C2003 1.503 1_655 S
C2011 C2010 1.370 . S
C2011 C2012 1.403 . S
C2012 C2011 1.403 . S
C2012 C2013 1.404 . S
C2012 C2015 1.539 . S
C2013 C2009 1.408 . S
C2013 C2012 1.404 . S
C2013 H2025 0.930 . S
C2014 C2010 1.524 1_455 S
C2014 H2026 0.956 1_455 S
C2014 H2027 0.961 . S
C2014 H2028 0.961 . S
C2015 C2012 1.539 . S
C2015 H2029 0.958 . S
C2015 H2030 0.961 1_655 S
C2015 H2031 0.960 1_655 S
H2016 C2000 0.931 . S
H2017 C2005 0.929 . S
H2018 C2006 0.960 . S
H2019 C2006 0.962 . S
H2020 C2006 0.960 . S
H2021 C2007 0.961 . S
H2022 C2007 0.961 . S
H2023 C2007 0.961 . S
H2024 C2008 0.931 . S
H2025 C2013 0.930 . S
H2026 C2014 0.956 1_655 S
H2027 C2014 0.961 . S
H2028 C2014 0.961 . S
H2029 C2015 0.958 . S
H2030 C2015 0.961 1_455 S
H2031 C2015 0.960 1_455 S
C2032 C2033 1.391 . S
C2032 C2034 1.394 . S
C2032 H2048 0.931 . S
C2033 C2032 1.391 . S
C2033 C2037 1.376 . S
C2034 C2032 1.394 . S
C2034 C2035 1.369 . S
C2034 C2038 1.531 . S
C2035 C2034 1.369 . S
C2035 C2036 1.410 . S
C2035 C2043 1.503 . S
C2036 C2035 1.410 . S
C2036 C2037 1.392 . S
C2036 C2039 1.511 . S
C2037 C2033 1.376 . S
C2037 C2036 1.392 . S
C2037 H2049 0.929 . S
C2038 C2034 1.531 . S
C2038 H2050 0.960 . S
C2038 H2051 0.962 . S
C2038 H2052 0.960 . S
C2039 C2036 1.511 . S
C2039 H2053 0.961 . S
C2039 H2054 0.961 . S
C2039 H2055 0.961 . S
C2040 C2041 1.370 . S
C2040 C2042 1.363 . S
C2040 H2056 0.931 . S
C2041 C2040 1.370 . S
C2041 C2045 1.408 . S
C2042 C2040 1.363 . S
C2042 C2043 1.370 . S
C2042 C2046 1.524 . S
C2043 C2035 1.503 . S
C2043 C2042 1.370 . S
C2043 C2044 1.403 . S
C2044 C2043 1.403 . S
C2044 C2045 1.404 . S
C2044 C2047 1.539 . S
C2045 C2041 1.408 . S
C2045 C2044 1.404 . S
C2045 H2057 0.930 . S
C2046 C2042 1.524 . S
C2046 H2058 0.956 . S
C2046 H2059 0.961 . S
C2046 H2060 0.961 . S
C2047 C2044 1.539 . S
C2047 H2061 0.958 . S
C2047 H2062 0.961 . S
C2047 H2063 0.960 . S
H2048 C2032 0.931 . S
H2049 C2037 0.929 . S
H2050 C2038 0.960 . S
H2051 C2038 0.962 . S
H2052 C2038 0.960 . S
H2053 C2039 0.961 . S
H2054 C2039 0.961 . S
H2055 C2039 0.961 . S
H2056 C2040 0.931 . S
H2057 C2045 0.930 . S
H2058 C2046 0.956 . S
H2059 C2046 0.961 . S
H2060 C2046 0.961 . S
H2061 C2047 0.958 . S
H2062 C2047 0.961 . S
H2063 C2047 0.960 . S
C2064 C2065 1.391 . S
C2064 C2066 1.394 . S
C2064 H2080 0.931 . S
C2065 C2064 1.391 . S
C2065 C2069 1.376 1_655 S
C2066 C2064 1.394 . S
C2066 C2067 1.369 . S
C2066 C2070 1.531 . S
C2067 C2066 1.369 . S
C2067 C2068 1.410 1_655 S
C2067 C2075 1.503 1_655 S
C2068 C2067 1.410 1_455 S
C2068 C2069 1.392 . S
C2068 C2071 1.511 . S
C2069 C2065 1.376 1_455 S
C2069 C2068 1.392 . S
C2069 H2081 0.929 . S
C2070 C2066 1.531 . S
C2070 H2082 0.960 . S
C2070 H2083 0.962 . S
C2070 H2084 0.960 . S
C2071 C2068 1.511 . S
C2071 H2085 0.961 . S
C2071 H2086 0.961 . S
C2071 H2087 0.961 . S
C2072 C2073 1.370 . S
C2072 C2074 1.363 . S
C2072 H2088 0.931 . S
C2073 C2072 1.370 . S
C2073 C2077 1.408 . S
C2074 C2072 1.363 . S
C2074 C2075 1.370 . S
C2074 C2078 1.524 . S
C2075 C2067 1.503 1_455 S
C2075 C2074 1.370 . S
C2075 C2076 1.403 . S
C2076 C2075 1.403 . S
C2076 C2077 1.404 . S
C2076 C2079 1.539 1_455 S
C2077 C2073 1.408 . S
C2077 C2076 1.404 . S
C2077 H2089 0.930 . S
C2078 C2074 1.524 . S
C2078 H2090 0.956 1_455 S
C2078 H2091 0.961 . S
C2078 H2092 0.961 . S
C2079 C2076 1.539 1_655 S
C2079 H2093 0.958 . S
C2079 H2094 0.961 1_655 S
C2079 H2095 0.960 1_655 S
H2080 C2064 0.931 . S
H2081 C2069 0.929 . S
H2082 C2070 0.960 . S
H2083 C2070 0.962 . S
H2084 C2070 0.960 . S
H2085 C2071 0.961 . S
H2086 C2071 0.961 . S
H2087 C2071 0.961 . S
H2088 C2072 0.931 . S
H2089 C2077 0.930 . S
H2090 C2078 0.956 1_655 S
H2091 C2078 0.961 . S
H2092 C2078 0.961 . S
H2093 C2079 0.958 . S
H2094 C2079 0.961 1_455 S
H2095 C2079 0.960 1_455 S
C2096 C2097 1.391 . S
C2096 C2098 1.394 . S
C2096 H2112 0.931 . S
C2097 C2096 1.391 . S
C2097 C2101 1.376 . S
C2098 C2096 1.394 . S
C2098 C2099 1.369 . S
C2098 C2102 1.531 . S
C2099 C2098 1.369 . S
C2099 C2100 1.410 . S
C2099 C2107 1.503 . S
C2100 C2099 1.410 . S
C2100 C2101 1.392 . S
C2100 C2103 1.511 . S
C2101 C2097 1.376 . S
C2101 C2100 1.392 . S
C2101 H2113 0.929 . S
C2102 C2098 1.531 . S
C2102 H2114 0.960 . S
C2102 H2115 0.962 . S
C2102 H2116 0.960 . S
C2103 C2100 1.511 . S
C2103 H2117 0.961 . S
C2103 H2118 0.961 . S
C2103 H2119 0.961 . S
C2104 C2105 1.370 . S
C2104 C2106 1.363 . S
C2104 H2120 0.931 . S
C2105 C2104 1.370 . S
C2105 C2109 1.408 . S
C2106 C2104 1.363 . S
C2106 C2107 1.370 . S
C2106 C2110 1.524 . S
C2107 C2099 1.503 . S
C2107 C2106 1.370 . S
C2107 C2108 1.403 . S
C2108 C2107 1.403 . S
C2108 C2109 1.404 . S
C2108 C2111 1.539 . S
C2109 C2105 1.408 . S
C2109 C2108 1.404 . S
C2109 H2121 0.930 . S
C2110 C2106 1.524 . S
C2110 H2122 0.956 . S
C2110 H2123 0.961 . S
C2110 H2124 0.961 . S
C2111 C2108 1.539 . S
C2111 H2125 0.958 . S
C2111 H2126 0.961 . S
C2111 H2127 0.960 . S
H2112 C2096 0.931 . S
H2113 C2101 0.929 . S
H2114 C2102 0.960 . S
H2115 C2102 0.962 . S
H2116 C2102 0.960 . S
H2117 C2103 0.961 . S
H2118 C2103 0.961 . S
H2119 C2103 0.961 . S
H2120 C2104 0.931 . S
H2121 C2109 0.930 . S
H2122 C2110 0.956 . S
H2123 C2110 0.961 . S
H2124 C2110 0.961 . S
H2125 C2111 0.958 . S
H2126 C2111 0.961 . S
H2127 C2111 0.960 . S
C2128 C2129 1.391 . S
C2128 C2130 1.394 . S
C2128 H2144 0.931 . S
C2129 C2128 1.391 . S
C2129 C2133 1.376 . S
C2130 C2128 1.394 . S
C2130 C2131 1.369 . S
C2130 C2134 1.531 . S
C2131 C2130 1.369 . S
C2131 C2132 1.410 . S
C2131 C2139 1.503 . S
C2132 C2131 1.410 . S
C2132 C2133 1.392 . S
C2132 C2135 1.511 . S
C2133 C2129 1.376 . S
C2133 C2132 1.392 . S
C2133 H2145 0.929 . S
C2134 C2130 1.531 . S
C2134 H2146 0.960 . S
C2134 H2147 0.962 . S
C2134 H2148 0.960 . S
C2135 C2132 1.511 . S
C2135 H2149 0.961 . S
C2135 H2150 0.961 . S
C2135 H2151 0.961 . S
C2136 C2137 1.370 . S
C2136 C2138 1.363 . S
C2136 H2152 0.931 . S
C2137 C2136 1.370 . S
C2137 C2141 1.408 . S
C2138 C2136 1.363 . S
C2138 C2139 1.370 . S
C2138 C2142 1.524 . S
C2139 C2131 1.503 . S
C2139 C2138 1.370 . S
C2139 C2140 1.403 . S
C2140 C2139 1.403 . S
C2140 C2141 1.404 . S
C2140 C2143 1.539 . S
C2141 C2137 1.408 . S
C2141 C2140 1.404 . S
C2141 H2153 0.930 . S
C2142 C2138 1.524 . S
C2142 H2154 0.956 . S
C2142 H2155 0.961 . S
C2142 H2156 0.961 . S
C2143 C2140 1.539 . S
C2143 H2157 0.958 . S
C2143 H2158 0.961 . S
C2143 H2159 0.960 . S
H2144 C2128 0.931 . S
H2145 C2133 0.929 . S
H2146 C2134 0.960 . S
H2147 C2134 0.962 . S
H2148 C2134 0.960 . S
H2149 C2135 0.961 . S
H2150 C2135 0.961 . S
H2151 C2135 0.961 . S
H2152 C2136 0.931 . S
H2153 C2141 0.930 . S
H2154 C2142 0.956 . S
H2155 C2142 0.961 . S
H2156 C2142 0.961 . S
H2157 C2143 0.958 . S
H2158 C2143 0.961 . S
H2159 C2143 0.960 . S
C2160 C2161 1.391 1_655 S
C2160 C2162 1.394 . S
C2160 H2176 0.931 . S
C2161 C2160 1.391 1_455 S
C2161 C2165 1.376 . S
C2162 C2160 1.394 . S
C2162 C2163 1.369 . S
C2162 C2166 1.531 . S
C2163 C2162 1.369 . S
C2163 C2164 1.410 1_655 S
C2163 C2171 1.503 . S
C2164 C2163 1.410 1_455 S
C2164 C2165 1.392 . S
C2164 C2167 1.511 . S
C2165 C2161 1.376 . S
C2165 C2164 1.392 . S
C2165 H2177 0.929 . S
C2166 C2162 1.531 . S
C2166 H2178 0.960 . S
C2166 H2179 0.962 . S
C2166 H2180 0.960 . S
C2167 C2164 1.511 . S
C2167 H2181 0.961 . S
C2167 H2182 0.961 . S
C2167 H2183 0.961 1_455 S
C2168 C2169 1.370 1_455 S
C2168 C2170 1.363 . S
C2168 H2184 0.931 . S
C2169 C2168 1.370 1_655 S
C2169 C2173 1.408 . S
C2170 C2168 1.363 . S
C2170 C2171 1.370 1_455 S
C2170 C2174 1.524 . S
C2171 C2163 1.503 . S
C2171 C2170 1.370 1_655 S
C2171 C2172 1.403 . S
C2172 C2171 1.403 . S
C2172 C2173 1.404 . S
C2172 C2175 1.539 . S
C2173 C2169 1.408 . S
C2173 C2172 1.404 . S
C2173 H2185 0.930 . S
C2174 C2170 1.524 . S
C2174 H2186 0.956 . S
C2174 H2187 0.961 . S
C2174 H2188 0.961 . S
C2175 C2172 1.539 . S
C2175 H2189 0.958 . S
C2175 H2190 0.961 . S
C2175 H2191 0.960 . S
H2176 C2160 0.931 . S
H2177 C2165 0.929 . S
H2178 C2166 0.960 . S
H2179 C2166 0.962 . S
H2180 C2166 0.960 . S
H2181 C2167 0.961 . S
H2182 C2167 0.961 . S
H2183 C2167 0.961 1_655 S
H2184 C2168 0.931 . S
H2185 C2173 0.930 . S
H2186 C2174 0.956 . S
H2187 C2174 0.961 . S
H2188 C2174 0.961 . S
H2189 C2175 0.958 . S
H2190 C2175 0.961 . S
H2191 C2175 0.960 . S
C2192 C2193 1.391 . S
C2192 C2194 1.394 . S
C2192 H2208 0.931 . S
C2193 C2192 1.391 . S
C2193 C2197 1.376 . S
C2194 C2192 1.394 . S
C2194 C2195 1.369 . S
C2194 C2198 1.531 . S
C2195 C2194 1.369 . S
C2195 C2196 1.410 . S
C2195 C2203 1.503 . S
C2196 C2195 1.410 . S
C2196 C2197 1.392 . S
C2196 C2199 1.511 . S
C2197 C2193 1.376 . S
C2197 C2196 1.392 . S
C2197 H2209 0.929 . S
C2198 C2194 1.531 . S
C2198 H2210 0.960 . S
C2198 H2211 0.962 . S
C2198 H2212 0.960 . S
C2199 C2196 1.511 . S
C2199 H2213 0.961 . S
C2199 H2214 0.961 . S
C2199 H2215 0.961 . S
C2200 C2201 1.370 . S
C2200 C2202 1.363 . S
C2200 H2216 0.931 . S
C2201 C2200 1.370 . S
C2201 C2205 1.408 . S
C2202 C2200 1.363 . S
C2202 C2203 1.370 . S
C2202 C2206 1.524 . S
C2203 C2195 1.503 . S
C2203 C2202 1.370 . S
C2203 C2204 1.403 . S
C2204 C2203 1.403 . S
C2204 C2205 1.404 . S
C2204 C2207 1.539 . S
C2205 C2201 1.408 . S
C2205 C2204 1.404 . S
C2205 H2217 0.930 . S
C2206 C2202 1.524 . S
C2206 H2218 0.956 . S
C2206 H2219 0.961 . S
C2206 H2220 0.961 . S
C2207 C2204 1.539 . S
C2207 H2221 0.958 . S
C2207 H2222 0.961 . S
C2207 H2223 0.960 . S
H2208 C2192 0.931 . S
H2209 C2197 0.929 . S
H2210 C2198 0.960 . S
H2211 C2198 0.962 . S
H2212 C2198 0.960 . S
H2213 C2199 0.961 . S
H2214 C2199 0.961 . S
H2215 C2199 0.961 . S
H2216 C2200 0.931 . S
H2217 C2205 0.930 . S
H2218 C2206 0.956 . S
H2219 C2206 0.961 . S
H2220 C2206 0.961 . S
H2221 C2207 0.958 . S
H2222 C2207 0.961 . S
H2223 C2207 0.960 . S
C2224 C2225 1.391 . S
C2224 C2226 1.394 . S
C2224 H2240 0.931 . S
C2225 C2224 1.391 . S
C2225 C2229 1.376 1_455 S
C2226 C2224 1.394 . S
C2226 C2227 1.369 1_455 S
C2226 C2230 1.531 . S
C2227 C2226 1.369 1_655 S
C2227 C2228 1.410 . S
C2227 C2235 1.503 . S
C2228 C2227 1.410 . S
C2228 C2229 1.392 . S
C2228 C2231 1.511 . S
C2229 C2225 1.376 1_655 S
C2229 C2228 1.392 . S
C2229 H2241 0.929 . S
C2230 C2226 1.531 . S
C2230 H2242 0.960 . S
C2230 H2243 0.962 . S
C2230 H2244 0.960 . S
C2231 C2228 1.511 . S
C2231 H2245 0.961 . S
C2231 H2246 0.961 . S
C2231 H2247 0.961 . S
C2232 C2233 1.370 1_455 S
C2232 C2234 1.363 . S
C2232 H2248 0.931 . S
C2233 C2232 1.370 1_655 S
C2233 C2237 1.408 . S
C2234 C2232 1.363 . S
C2234 C2235 1.370 1_455 S
C2234 C2238 1.524 . S
C2235 C2227 1.503 . S
C2235 C2234 1.370 1_655 S
C2235 C2236 1.403 . S
C2236 C2235 1.403 . S
C2236 C2237 1.404 . S
C2236 C2239 1.539 . S
C2237 C2233 1.408 . S
C2237 C2236 1.404 . S
C2237 H2249 0.930 . S
C2238 C2234 1.524 . S
C2238 H2250 0.956 . S
C2238 H2251 0.961 . S
C2238 H2252 0.961 . S
C2239 C2236 1.539 . S
C2239 H2253 0.958 . S
C2239 H2254 0.961 . S
C2239 H2255 0.960 . S
H2240 C2224 0.931 . S
H2241 C2229 0.929 . S
H2242 C2230 0.960 . S
H2243 C2230 0.962 . S
H2244 C2230 0.960 . S
H2245 C2231 0.961 . S
H2246 C2231 0.961 . S
H2247 C2231 0.961 . S
H2248 C2232 0.931 . S
H2249 C2237 0.930 . S
H2250 C2238 0.956 . S
H2251 C2238 0.961 . S
H2252 C2238 0.961 . S
H2253 C2239 0.958 . S
H2254 C2239 0.961 . S
H2255 C2239 0.960 . S
C465 C15 2.111 . S
C473 C21 1.982 . S
C497 C50 1.956 . S
C505 C44 2.109 . S
C529 C79 1.957 . S
C537 C73 2.107 . S
C561 C108 1.963 . S
C569 C102 2.105 . S
C593 C131 2.114 . S
C601 C137 2.008 . S
C625 C160 2.119 . S
C633 C166 1.991 . S
C657 C189 2.089 . S
C665 C195 1.993 . S
C689 C224 1.962 . S
C697 C218 2.104 . S
C721 C253 2.005 . S
C729 C247 2.118 . S
C753 C276 2.110 . S
C761 C282 1.981 . S
C785 C305 2.114 . S
C793 C311 2.007 . S
C817 C340 2.017 . S
C825 C334 2.108 . S
C849 C369 1.976 . S
C857 C363 2.115 . S
C881 C398 1.998 . S
C889 C392 2.118 . S
C913 C427 1.964 . S
C921 C421 2.112 . S
C945 C450 2.088 . S
C953 C456 1.990 . S
C977 C3 1.007 . S
C985 C158 1.029 . S
C1009 C32 0.982 . S
C1017 C129 1.016 . S
C1041 C61 0.992 . S
C1049 C216 1.023 . S
C1073 C90 1.004 . S
C1081 C187 1.028 . S
C1105 C119 1.059 . S
C1113 C42 1.025 . S
C1137 C148 0.978 . S
C1145 C13 1.003 . S
C1169 C100 1.012 . S
C1177 C177 1.008 . S
C1201 C71 1.038 . S
C1209 C206 1.017 . S
C1233 C235 1.007 . S
C1241 C390 1.029 . S
C1265 C361 1.034 . S
C1273 C264 1.038 . S
C1297 C293 0.985 . S
C1305 C448 0.998 . S
C1329 C419 1.057 . S
C1337 C322 1.024 . S
C1361 C274 1.058 . S
C1369 C351 1.032 . S
C1393 C380 1.060 . S
C1401 C245 1.027 . S
C1425 C409 1.058 . S
C1433 C332 1.024 . S
C1457 C438 1.036 . S
C1465 C303 1.032 . S
C1489 C5 1.299 . S
C1497 C34 1.311 . S
C1521 C92 1.322 . S
C1529 C63 1.317 . S
C1553 C121 1.336 . S
C1561 C150 1.321 . S
C1585 C208 1.337 . S
C1593 C179 1.325 . S
C1617 C266 1.322 . S
C1625 C237 1.317 . S
C1649 C295 1.338 . S
C1657 C324 1.325 . S
C1681 C353 1.284 . S
C1689 C382 1.303 . S
C1713 C411 1.304 . S
C1721 C440 1.317 . S
C1745 C10 1.556 . S
C1753 C271 1.548 . S
C1777 C39 1.556 . S
C1785 C242 1.548 . S
C1809 C329 1.563 . S
C1817 C68 1.578 . S
C1841 C300 1.556 . S
C1849 C97 1.548 . S
C1873 C126 1.588 . S
C1881 C387 1.567 . S
C1905 C155 1.593 . S
C1913 C358 1.562 . S
C1937 C184 1.593 . S
C1945 C445 1.562 . S
C1969 C416 1.523 . S
C1977 C213 1.571 . S
C2001 C95 1.367 . S
C2009 C8 1.360 . S
C2033 C37 1.310 . S
C2041 C66 1.375 . S
C2065 C211 1.374 . S
C2073 C124 1.363 . S
C2097 C153 1.304 . S
C2105 C182 1.372 . S
C2129 C240 1.382 . S
C2137 C327 1.353 . S
C2161 C269 1.310 . S
C2169 C298 1.374 . S
C2193 C443 1.359 . S
C2201 C356 1.369 . S
C2225 C414 1.328 . S
C2233 C385 1.374 . S
