# Generated by pormake.
# Topology wiv, (6)-cn, num edge types: 1
# Building blocks:
#     Node 0, Type 0, BuildingBlock: BETDEL_clean_sbu_0, # of connection points: 6
#     Node 1, Type 0, BuildingBlock: BETDEL_clean_sbu_0, # of connection points: 6
#     Node 2, Type 0, BuildingBlock: BETDEL_clean_sbu_0, # of connection points: 6
#     Node 3, Type 0, BuildingBlock: BETDEL_clean_sbu_0, # of connection points: 6
#     Node 4, Type 0, BuildingBlock: BETDEL_clean_sbu_0, # of connection points: 6
#     Node 5, Type 0, BuildingBlock: BETDEL_clean_sbu_0, # of connection points: 6
#     Node 6, Type 0, BuildingBlock: BETDEL_clean_sbu_0, # of connection points: 6
#     Node 7, Type 0, BuildingBlock: BETDEL_clean_sbu_0, # of connection points: 6
#     Node 8, Type 0, BuildingBlock: BETDEL_clean_sbu_0, # of connection points: 6
#     Node 9, Type 0, BuildingBlock: BETDEL_clean_sbu_0, # of connection points: 6
#     Node 10, Type 0, BuildingBlock: BETDEL_clean_sbu_0, # of connection points: 6
#     Node 11, Type 0, BuildingBlock: BETDEL_clean_sbu_0, # of connection points: 6
#     Node 12, Type 0, BuildingBlock: BETDEL_clean_sbu_0, # of connection points: 6
#     Node 13, Type 0, BuildingBlock: BETDEL_clean_sbu_0, # of connection points: 6
#     Node 14, Type 0, BuildingBlock: BETDEL_clean_sbu_0, # of connection points: 6
#     Node 15, Type 0, BuildingBlock: BETDEL_clean_sbu_0, # of connection points: 6
#     Edge 16, Type (0, 0), None
#     Edge 17, Type (0, 0), None
#     Edge 18, Type (0, 0), None
#     Edge 19, Type (0, 0), None
#     Edge 20, Type (0, 0), None
#     Edge 21, Type (0, 0), None
#     Edge 22, Type (0, 0), None
#     Edge 23, Type (0, 0), None
#     Edge 24, Type (0, 0), None
#     Edge 25, Type (0, 0), None
#     Edge 26, Type (0, 0), None
#     Edge 27, Type (0, 0), None
#     Edge 28, Type (0, 0), None
#     Edge 29, Type (0, 0), None
#     Edge 30, Type (0, 0), None
#     Edge 31, Type (0, 0), None
#     Edge 32, Type (0, 0), None
#     Edge 33, Type (0, 0), None
#     Edge 34, Type (0, 0), None
#     Edge 35, Type (0, 0), None
#     Edge 36, Type (0, 0), None
#     Edge 37, Type (0, 0), None
#     Edge 38, Type (0, 0), None
#     Edge 39, Type (0, 0), None
#     Edge 40, Type (0, 0), None
#     Edge 41, Type (0, 0), None
#     Edge 42, Type (0, 0), None
#     Edge 43, Type (0, 0), None
#     Edge 44, Type (0, 0), None
#     Edge 45, Type (0, 0), None
#     Edge 46, Type (0, 0), None
#     Edge 47, Type (0, 0), None
#     Edge 48, Type (0, 0), None
#     Edge 49, Type (0, 0), None
#     Edge 50, Type (0, 0), None
#     Edge 51, Type (0, 0), None
#     Edge 52, Type (0, 0), None
#     Edge 53, Type (0, 0), None
#     Edge 54, Type (0, 0), None
#     Edge 55, Type (0, 0), None
#     Edge 56, Type (0, 0), None
#     Edge 57, Type (0, 0), None
#     Edge 58, Type (0, 0), None
#     Edge 59, Type (0, 0), None
#     Edge 60, Type (0, 0), None
#     Edge 61, Type (0, 0), None
#     Edge 62, Type (0, 0), None
#     Edge 63, Type (0, 0), None
# Relax obj value: 0.109
# Max RMSD: 0.159
# Mean RMSD: 0.159
data_MOF--net-wiv--node1-BETDEL_clean_sbu_0--edge1-none
_symmetry_space_group_name_H-M    P1
_symmetry_Int_Tables_number       1
_symmetry_cell_setting            triclinic
loop_
_symmetry_equiv_pos_as_xyz
'x, y, z'
_cell_length_a     24.881585
_cell_length_b     24.877527
_cell_length_c     8.8451415
_cell_angle_alpha  90.004468
_cell_angle_beta   90.006185
_cell_angle_gamma 90.001554
loop_
_atom_site_label
_atom_site_type_symbol
_atom_site_fract_x
_atom_site_fract_y
_atom_site_fract_z
_atom_type_partial_charge
Dy0 Dy 0.3135 0.10367 0.31938 0.0
C1 C 0.35481 0.09617 0.74835 0.0
C2 C 0.33179 0.09241 0.61401 0.0
Dy3 Dy 0.37213 0.07988 1.04176 0.0
O4 O 0.29371 0.12371 0.56089 0.0
O5 O 0.34961 0.06002 0.51188 0.0
O6 O 0.31145 0.19183 0.34219 0.0
O7 O 0.35308 0.15557 0.15924 0.0
C8 C 0.34218 0.19965 0.22646 0.0
C9 C 0.3611 -0.00397 0.23063 0.0
O10 O 0.44849 0.10209 0.1587 0.0
O11 O 0.40141 0.09355 0.37974 0.0
O12 O 0.39057 0.06182 0.79986 0.0
O13 O 0.33749 0.12802 0.85348 0.0
O14 O 0.40138 0.0014 0.13697 0.0
O15 O 0.32532 0.03047 0.20076 0.0
O16 O 0.24334 0.0923 0.14195 0.0
O17 O 0.2935 0.05155 0.95695 0.0
C18 C 0.44718 0.09901 0.30796 0.0
C19 C 0.24822 0.07275 0.99909 0.0
Dy20 Dy 0.07959 0.57945 0.08885 0.0
C21 C 0.09215 0.61973 0.51674 0.0
C22 C 0.09587 0.59676 0.38232 0.0
Dy23 Dy 0.1035 0.63801 0.81136 0.0
O24 O 0.06155 0.56099 0.33078 0.0
O25 O 0.12769 0.61413 0.27719 0.0
O26 O 0.00103 0.5503 0.99437 0.0
O27 O 0.03025 0.62632 0.92958 0.0
C28 C -0.00433 0.59055 0.90059 0.0
C29 C 0.19944 0.60924 0.90419 0.0
O30 O 0.09221 0.70818 0.98884 0.0
O31 O 0.05128 0.65809 0.17362 0.0
O32 O 0.12344 0.65784 0.56984 0.0
O33 O 0.05983 0.60185 0.61894 0.0
O34 O 0.19162 0.64 0.78851 0.0
O35 O 0.15537 0.59838 0.97154 0.0
O36 O 0.10172 0.50303 0.9721 0.0
O37 O 0.09332 0.5501 0.751 0.0
C38 C 0.07259 0.70333 0.1316 0.0
C39 C 0.09872 0.50433 0.82283 0.0
Dy40 Dy 0.63813 0.84802 0.3192 0.0
C41 C 0.59674 0.85539 0.74809 0.0
C42 C 0.61982 0.85921 0.61385 0.0
Dy43 Dy 0.5794 0.87171 1.04146 0.0
O44 O 0.65789 0.8279 0.5607 0.0
O45 O 0.60206 0.89165 0.51179 0.0
O46 O 0.64016 0.75985 0.34202 0.0
O47 O 0.59847 0.79609 0.15923 0.0
C48 C 0.60936 0.752 0.22645 0.0
C49 C 0.5905 0.95565 0.22998 0.0
O50 O 0.50313 0.84945 0.15878 0.0
O51 O 0.55028 0.85837 0.37961 0.0
O52 O 0.56095 0.88971 0.79954 0.0
O53 O 0.61407 0.82354 0.85324 0.0
O54 O 0.55021 0.95027 0.13636 0.0
O55 O 0.62625 0.92116 0.20028 0.0
O56 O 0.70827 0.85946 0.14185 0.0
O57 O 0.65803 0.90004 0.95669 0.0
C58 C 0.5045 0.85272 0.30802 0.0
C59 C 0.70335 0.87894 0.99896 0.0
Dy60 Dy 0.87163 0.37211 0.08924 0.0
C61 C 0.85901 0.33179 0.51703 0.0
C62 C 0.85529 0.35477 0.38264 0.0
Dy63 Dy 0.84771 0.31349 0.81164 0.0
O64 O 0.88961 0.39057 0.33121 0.0
O65 O 0.8235 0.3374 0.27743 0.0
O66 O 0.95019 0.40125 0.99479 0.0
O67 O 0.92094 0.32524 0.92994 0.0
C68 C 0.95552 0.361 0.90095 0.0
C69 C 0.7518 0.34234 0.90449 0.0
O70 O 0.85908 0.24334 0.98915 0.0
O71 O 0.89997 0.29348 0.17398 0.0
O72 O 0.82773 0.29367 0.57009 0.0
O73 O 0.89134 0.34966 0.61924 0.0
O74 O 0.75957 0.31153 0.7889 0.0
O75 O 0.79589 0.35318 0.97177 0.0
O76 O 0.84946 0.44849 0.97238 0.0
O77 O 0.85792 0.40139 0.75132 0.0
C78 C 0.8787 0.24821 0.13191 0.0
C79 C 0.85248 0.44717 0.82312 0.0
Dy80 Dy 0.31329 0.34791 1.06147 0.0
C81 C 0.35467 0.35542 0.6326 0.0
C82 C 0.33159 0.35917 0.76686 0.0
Dy83 Dy 0.37197 0.37173 0.33922 0.0
O84 O 0.29358 0.32778 0.81995 0.0
O85 O 0.34929 0.39164 0.86898 0.0
O86 O 0.31135 0.25972 1.03867 0.0
O87 O 0.35294 0.29608 0.22164 0.0
C88 C 0.34207 0.25198 0.15447 0.0
C89 C 0.36084 0.45559 0.15041 0.0
O90 O 0.44829 0.34948 0.22215 0.0
O91 O 0.40118 0.35811 1.00114 0.0
O92 O 0.39036 0.38984 0.58113 0.0
O93 O 0.33742 0.32352 0.52747 0.0
O94 O 0.40113 0.45027 0.24408 0.0
O95 O 0.3251 0.4211 0.18022 0.0
O96 O 0.24313 0.35919 0.23886 0.0
O97 O 0.29328 0.39991 0.42399 0.0
C98 C 0.44695 0.35259 0.07288 0.0
C99 C 0.24801 0.37868 0.38177 0.0
Dy100 Dy 0.37166 0.57945 0.79164 0.0
C101 C 0.35906 0.61976 0.36376 0.0
C102 C 0.35536 0.59681 0.49821 0.0
Dy103 Dy 0.34771 0.63805 0.06917 0.0
O104 O 0.38963 0.56098 0.54967 0.0
O105 O 0.32359 0.61424 0.6034 0.0
O106 O 0.45019 0.5503 0.88627 0.0
O107 O 0.42096 0.62631 0.95103 0.0
C108 C 0.45552 0.59055 0.9801 0.0
C109 C 0.2518 0.60933 0.9761 0.0
O110 O 0.35918 0.7082 0.89171 0.0
O111 O 0.40009 0.65806 0.70694 0.0
O112 O 0.32784 0.65792 0.31072 0.0
O113 O 0.39132 0.60179 0.26151 0.0
O114 O 0.25956 0.64007 0.09187 0.0
O115 O 0.29588 0.59844 0.90883 0.0
O116 O 0.34948 0.50305 0.90834 0.0
O117 O 0.35779 0.55012 0.1295 0.0
C118 C 0.37885 0.70334 0.749 0.0
C119 C 0.3524 0.50435 1.05762 0.0
Dy120 Dy 0.63789 0.60362 1.06164 0.0
C121 C 0.59661 0.59614 0.63264 0.0
C122 C 0.61961 0.59236 0.767 0.0
Dy123 Dy 0.57926 0.57987 0.33923 0.0
O124 O 0.65774 0.62361 0.82014 0.0
O125 O 0.60173 0.56002 0.86913 0.0
O126 O 0.64001 0.69179 1.03875 0.0
O127 O 0.59838 0.65557 0.22186 0.0
C128 C 0.60934 0.69962 0.15459 0.0
C129 C 0.59029 0.49598 0.15046 0.0
O130 O 0.50292 0.60206 0.22223 0.0
O131 O 0.55001 0.59344 1.00122 0.0
O132 O 0.56079 0.56185 0.58114 0.0
O133 O 0.61399 0.62796 0.52751 0.0
O134 O 0.55 0.50136 0.24408 0.0
O135 O 0.62607 0.53043 0.18028 0.0
O136 O 0.70803 0.59213 0.23904 0.0
O137 O 0.65784 0.5514 0.42399 0.0
C138 C 0.50425 0.59894 0.07298 0.0
C139 C 0.70314 0.57256 0.38185 0.0
Dy140 Dy 0.57959 0.37207 0.79179 0.0
C141 C 0.59221 0.33182 0.36391 0.0
C142 C 0.59589 0.3548 0.49833 0.0
Dy143 Dy 0.60356 0.31355 0.06931 0.0
O144 O 0.56151 0.3905 0.54985 0.0
O145 O 0.62775 0.33748 0.60346 0.0
O146 O 0.50104 0.4012 0.88627 0.0
O147 O 0.53028 0.32516 0.95107 0.0
C148 C 0.49567 0.36091 0.97991 0.0
C149 C 0.69945 0.34235 0.97642 0.0
O150 O 0.59239 0.24337 0.89178 0.0
O151 O 0.55138 0.29341 0.70701 0.0
O152 O 0.62356 0.29376 0.31083 0.0
O153 O 0.55985 0.34964 0.26171 0.0
O154 O 0.6917 0.31166 0.09229 0.0
O155 O 0.65538 0.35319 0.90906 0.0
O156 O 0.6017 0.4485 0.90846 0.0
O157 O 0.59331 0.40145 0.12961 0.0
C158 C 0.57277 0.2482 0.74899 0.0
C159 C 0.59871 0.44721 1.05772 0.0
Dy160 Dy 0.81329 0.60358 0.81918 0.0
C161 C 0.85451 0.59609 0.24823 0.0
C162 C 0.83154 0.59231 0.11382 0.0
Dy163 Dy 0.87186 0.57981 0.54163 0.0
O164 O 0.79338 0.62352 1.06068 0.0
O165 O 0.84948 0.56 1.01167 0.0
O166 O 0.81123 0.69175 0.84207 0.0
O167 O 0.85287 0.65552 0.6591 0.0
C168 C 0.84199 0.69959 0.72641 0.0
C169 C 0.86082 0.4959 0.73021 0.0
O170 O 0.94822 0.60204 0.65854 0.0
O171 O 0.90117 0.59336 0.87959 0.0
O172 O 0.89035 0.56183 0.29971 0.0
O173 O 0.83708 0.62788 0.35338 0.0
O174 O 0.90115 0.50133 0.63674 0.0
O175 O 0.82505 0.53037 0.70054 0.0
O176 O 0.74312 0.59214 0.64185 0.0
O177 O 0.79327 0.55136 0.4569 0.0
C178 C 0.94692 0.59891 0.80779 0.0
C179 C 0.74799 0.57254 0.49906 0.0
Dy180 Dy 0.57985 0.07946 0.58895 0.0
C181 C 0.59249 0.11982 1.01671 0.0
C182 C 0.59621 0.09678 0.88237 0.0
Dy183 Dy 0.60375 0.13809 0.31135 0.0
O184 O 0.56183 0.06106 0.8309 0.0
O185 O 0.62806 0.11407 0.77719 0.0
O186 O 0.50128 0.05035 0.49448 0.0
O187 O 0.53053 0.12638 0.42976 0.0
C188 C 0.49591 0.09065 0.40089 0.0
C189 C 0.69966 0.10922 0.40424 0.0
O190 O 0.59244 0.20823 0.48896 0.0
O191 O 0.55156 0.15809 0.67374 0.0
O192 O 0.62386 0.15785 0.06986 0.0
O193 O 0.56005 0.10207 0.1188 0.0
O194 O 0.69189 0.14002 0.28863 0.0
O195 O 0.65556 0.09839 0.47146 0.0
O196 O 0.602 0.00309 0.47202 0.0
O197 O 0.59343 0.05019 0.25099 0.0
C198 C 0.57284 0.20335 0.63175 0.0
C199 C 0.59892 0.00441 0.32277 0.0
Dy200 Dy 0.13788 0.34793 0.81931 0.0
C201 C 0.09643 0.3553 0.24815 0.0
C202 C 0.11955 0.35911 0.11395 0.0
Dy203 Dy 0.07918 0.37161 0.54155 0.0
O204 O 0.15755 0.32771 1.0608 0.0
O205 O 0.10191 0.39164 1.01193 0.0
O206 O 0.1399 0.25977 0.84222 0.0
O207 O 0.09826 0.29599 0.65931 0.0
C208 C 0.10915 0.25192 0.72654 0.0
C209 C 0.09033 0.45558 0.72995 0.0
O210 O 0.00289 0.34937 0.6588 0.0
O211 O 0.05001 0.3583 0.87967 0.0
O212 O 0.06075 0.38972 0.29967 0.0
O213 O 0.11365 0.32337 0.35323 0.0
O214 O 0.04998 0.45016 0.63653 0.0
O215 O 0.12606 0.42106 0.70032 0.0
O216 O 0.20804 0.35925 0.64193 0.0
O217 O 0.15784 0.39979 0.45663 0.0
C218 C 0.00424 0.35264 0.80803 0.0
C219 C 0.20314 0.37866 0.49894 0.0
Dy220 Dy 0.37187 0.87208 0.58917 0.0
C221 C 0.35934 0.83191 1.01716 0.0
C222 C 0.35562 0.8548 0.88266 0.0
Dy223 Dy 0.34796 0.8136 0.31174 0.0
O224 O 0.38986 0.89065 0.83111 0.0
O225 O 0.32387 0.83731 0.77751 0.0
O226 O 0.4504 0.90129 0.49472 0.0
O227 O 0.42123 0.82522 0.42992 0.0
C228 C 0.4558 0.861 0.40108 0.0
C229 C 0.25199 0.84233 0.40444 0.0
O230 O 0.35929 0.74339 0.48906 0.0
O231 O 0.4002 0.79346 0.67397 0.0
O232 O 0.32819 0.79368 0.07017 0.0
O233 O 0.39152 0.84997 0.11948 0.0
O234 O 0.25984 0.81158 0.28873 0.0
O235 O 0.29604 0.8532 0.47194 0.0
O236 O 0.34971 0.94853 0.47263 0.0
O237 O 0.35814 0.90151 0.25145 0.0
C238 C 0.37891 0.74821 0.63183 0.0
C239 C 0.35269 0.94726 0.32336 0.0
Dy240 Dy 0.81342 0.84796 0.56156 0.0
C241 C 0.85476 0.85543 0.13263 0.0
C242 C 0.83173 0.85921 0.26694 0.0
Dy243 Dy 0.8721 0.8717 0.83924 0.0
O244 O 0.79364 0.82791 0.32004 0.0
O245 O 0.84954 0.8916 0.36907 0.0
O246 O 0.81129 0.75979 0.53872 0.0
O247 O 0.85294 0.79603 0.72178 0.0
C248 C 0.84197 0.75197 0.65455 0.0
C249 C 0.86106 0.95559 0.6505 0.0
O250 O 0.94843 0.84947 0.7222 0.0
O251 O 0.90132 0.85809 0.5012 0.0
O252 O 0.89054 0.88976 0.08116 0.0
O253 O 0.83743 0.82357 1.02749 0.0
O254 O 0.90135 0.95021 0.74413 0.0
O255 O 0.82529 0.92113 0.68029 0.0
O256 O 0.74329 0.85942 0.73891 0.0
O257 O 0.7935 0.9001 0.92398 0.0
C258 C 0.94709 0.85258 0.57294 0.0
C259 C 0.74819 0.87895 0.88176 0.0
Dy260 Dy 0.87181 0.07944 0.2917 0.0
C261 C 0.85919 0.11975 0.86393 0.0
C262 C 0.85548 0.09676 0.9983 0.0
Dy263 Dy 0.84786 0.13804 0.56935 0.0
O264 O 0.88984 0.06101 1.04977 0.0
O265 O 0.82365 0.11409 0.10346 0.0
O266 O 0.95036 0.05032 0.38618 0.0
O267 O 0.9211 0.12631 0.45107 0.0
C268 C 0.95568 0.09056 0.48005 0.0
C269 C 0.75198 0.10925 0.47626 0.0
O270 O 0.85915 0.2082 0.39191 0.0
O271 O 0.90005 0.15811 0.20702 0.0
O272 O 0.82787 0.15783 0.81086 0.0
O273 O 0.89155 0.10192 0.76176 0.0
O274 O 0.75971 0.13995 0.59212 0.0
O275 O 0.79607 0.09839 0.40903 0.0
O276 O 0.84963 0.00306 0.40849 0.0
O277 O 0.85807 0.05012 0.62964 0.0
C278 C 0.87874 0.20335 0.24912 0.0
C279 C 0.85264 0.00436 0.55775 0.0
Dy280 Dy 0.13806 0.10365 0.56158 0.0
C281 C 0.09674 0.09612 0.13262 0.0
C282 C 0.11978 0.09237 0.26694 0.0
Dy283 Dy 0.07942 0.0798 0.83924 0.0
O284 O 0.15784 0.12371 0.32007 0.0
O285 O 0.10199 0.05997 0.36906 0.0
O286 O 0.13999 0.19183 0.53879 0.0
O287 O 0.09842 0.15548 0.72177 0.0
C288 C 0.10928 0.19957 0.65459 0.0
C289 C 0.09052 -0.00405 0.65034 0.0
O290 O 0.00309 0.10202 0.7222 0.0
O291 O 0.05018 0.09342 0.50117 0.0
O292 O 0.061 0.06175 0.08114 0.0
O293 O 0.11405 0.12798 1.02748 0.0
O294 O 0.05023 0.00129 0.74402 0.0
O295 O 0.12627 0.03044 0.6802 0.0
O296 O 0.20822 0.09231 0.73903 0.0
O297 O 0.15808 0.05152 0.92401 0.0
C298 C 0.00442 0.09892 0.57294 0.0
C299 C 0.20335 0.07275 0.88187 0.0
Dy300 Dy 0.0797 0.87204 0.2917 0.0
C301 C 0.0923 0.83179 0.8637 0.0
C302 C 0.09598 0.85471 0.9982 0.0
Dy303 Dy 0.10369 0.81351 0.56907 0.0
O304 O 0.06168 0.8905 1.04972 0.0
O305 O 0.12777 0.8373 0.10338 0.0
O306 O 0.00119 0.90121 0.38636 0.0
O307 O 0.03039 0.82515 0.45102 0.0
C308 C -0.00419 0.86091 0.47996 0.0
C309 C 0.1996 0.84223 0.47621 0.0
O310 O 0.09232 0.74335 0.39154 0.0
O311 O 0.05129 0.79344 0.20691 0.0
O312 O 0.12355 0.79365 0.81064 0.0
O313 O 0.06005 0.84974 0.76142 0.0
O314 O 0.19182 0.8115 0.59197 0.0
O315 O 0.15554 0.85312 0.40879 0.0
O316 O 0.10183 0.94848 0.40827 0.0
O317 O 0.09359 0.90143 0.62945 0.0
C318 C 0.07262 0.74819 0.24885 0.0
C319 C 0.09894 0.9472 0.55755 0.0
loop_
_geom_bond_atom_site_label_1
_geom_bond_atom_site_label_2
_geom_bond_distance
_geom_bond_site_symmetry_2
_ccdc_geom_bond_type
Dy0 O4 2.398 . S
Dy0 O5 2.491 . S
Dy0 O6 2.403 . S
Dy0 O7 2.664 . S
Dy0 O11 2.326 . S
Dy0 O15 2.310 . S
Dy0 O16 2.351 . S
C1 O12 1.185 . S
C1 O13 1.355 . S
C2 O4 1.185 . S
C2 O5 1.355 . S
Dy3 O7 2.310 1_556 S
Dy3 O10 2.351 1_556 S
Dy3 O12 2.398 . S
Dy3 O13 2.491 . S
Dy3 O14 2.403 1_556 S
Dy3 O15 2.664 1_556 S
Dy3 O17 2.326 . S
O4 Dy0 2.398 . S
O4 C2 1.185 . S
O5 Dy0 2.491 . S
O5 C2 1.355 . S
O6 Dy0 2.403 . S
O6 C8 1.254 . S
O7 Dy0 2.664 . S
O7 Dy3 2.310 1_554 S
O7 C8 1.268 . S
C8 O6 1.254 . S
C8 O7 1.268 . S
C9 O14 1.254 . S
C9 O15 1.268 . S
O10 Dy3 2.351 1_554 S
O10 C18 1.249 . S
O11 Dy0 2.326 . S
O11 C18 1.267 . S
O12 C1 1.185 . S
O12 Dy3 2.398 . S
O13 C1 1.355 . S
O13 Dy3 2.491 . S
O14 Dy3 2.403 1_554 S
O14 C9 1.254 . S
O15 Dy0 2.310 . S
O15 Dy3 2.664 1_554 S
O15 C9 1.268 . S
O16 Dy0 2.351 . S
O16 C19 1.249 1_554 S
O17 Dy3 2.326 . S
O17 C19 1.267 . S
C18 O10 1.249 . S
C18 O11 1.267 . S
C19 O16 1.249 1_556 S
C19 O17 1.267 . S
Dy20 O24 2.398 . S
Dy20 O25 2.491 . S
Dy20 O26 2.403 1_554 S
Dy20 O27 2.664 1_554 S
Dy20 O31 2.326 . S
Dy20 O35 2.310 1_554 S
Dy20 O36 2.351 1_554 S
C21 O32 1.185 . S
C21 O33 1.355 . S
C22 O24 1.185 . S
C22 O25 1.355 . S
Dy23 O27 2.310 . S
Dy23 O30 2.351 . S
Dy23 O32 2.398 . S
Dy23 O33 2.491 . S
Dy23 O34 2.403 . S
Dy23 O35 2.664 . S
Dy23 O37 2.326 . S
O24 Dy20 2.398 . S
O24 C22 1.185 . S
O25 Dy20 2.491 . S
O25 C22 1.355 . S
O26 Dy20 2.403 1_556 S
O26 C28 1.254 . S
O27 Dy20 2.664 1_556 S
O27 Dy23 2.310 . S
O27 C28 1.268 . S
C28 O26 1.254 . S
C28 O27 1.268 . S
C29 O34 1.254 . S
C29 O35 1.268 . S
O30 Dy23 2.351 . S
O30 C38 1.249 1_556 S
O31 Dy20 2.326 . S
O31 C38 1.267 . S
O32 C21 1.185 . S
O32 Dy23 2.398 . S
O33 C21 1.355 . S
O33 Dy23 2.491 . S
O34 Dy23 2.403 . S
O34 C29 1.254 . S
O35 Dy20 2.310 1_556 S
O35 Dy23 2.664 . S
O35 C29 1.268 . S
O36 Dy20 2.351 1_556 S
O36 C39 1.249 . S
O37 Dy23 2.326 . S
O37 C39 1.267 . S
C38 O30 1.249 1_554 S
C38 O31 1.267 . S
C39 O36 1.249 . S
C39 O37 1.267 . S
Dy40 O44 2.398 . S
Dy40 O45 2.491 . S
Dy40 O46 2.403 . S
Dy40 O47 2.664 . S
Dy40 O51 2.326 . S
Dy40 O55 2.310 . S
Dy40 O56 2.351 . S
C41 O52 1.185 . S
C41 O53 1.355 . S
C42 O44 1.185 . S
C42 O45 1.355 . S
Dy43 O47 2.310 1_556 S
Dy43 O50 2.351 1_556 S
Dy43 O52 2.398 . S
Dy43 O53 2.491 . S
Dy43 O54 2.403 1_556 S
Dy43 O55 2.664 1_556 S
Dy43 O57 2.326 . S
O44 Dy40 2.398 . S
O44 C42 1.185 . S
O45 Dy40 2.491 . S
O45 C42 1.355 . S
O46 Dy40 2.403 . S
O46 C48 1.254 . S
O47 Dy40 2.664 . S
O47 Dy43 2.310 1_554 S
O47 C48 1.268 . S
C48 O46 1.254 . S
C48 O47 1.268 . S
C49 O54 1.254 . S
C49 O55 1.268 . S
O50 Dy43 2.351 1_554 S
O50 C58 1.249 . S
O51 Dy40 2.326 . S
O51 C58 1.267 . S
O52 C41 1.185 . S
O52 Dy43 2.398 . S
O53 C41 1.355 . S
O53 Dy43 2.491 . S
O54 Dy43 2.403 1_554 S
O54 C49 1.254 . S
O55 Dy40 2.310 . S
O55 Dy43 2.664 1_554 S
O55 C49 1.268 . S
O56 Dy40 2.351 . S
O56 C59 1.249 1_554 S
O57 Dy43 2.326 . S
O57 C59 1.267 . S
C58 O50 1.249 . S
C58 O51 1.267 . S
C59 O56 1.249 1_556 S
C59 O57 1.267 . S
Dy60 O64 2.398 . S
Dy60 O65 2.491 . S
Dy60 O66 2.403 1_554 S
Dy60 O67 2.664 1_554 S
Dy60 O71 2.326 . S
Dy60 O75 2.310 1_554 S
Dy60 O76 2.351 1_554 S
C61 O72 1.185 . S
C61 O73 1.355 . S
C62 O64 1.185 . S
C62 O65 1.355 . S
Dy63 O67 2.310 . S
Dy63 O70 2.351 . S
Dy63 O72 2.398 . S
Dy63 O73 2.491 . S
Dy63 O74 2.403 . S
Dy63 O75 2.664 . S
Dy63 O77 2.326 . S
O64 Dy60 2.398 . S
O64 C62 1.185 . S
O65 Dy60 2.491 . S
O65 C62 1.355 . S
O66 Dy60 2.403 1_556 S
O66 C68 1.254 . S
O67 Dy60 2.664 1_556 S
O67 Dy63 2.310 . S
O67 C68 1.268 . S
C68 O66 1.254 . S
C68 O67 1.268 . S
C69 O74 1.254 . S
C69 O75 1.268 . S
O70 Dy63 2.351 . S
O70 C78 1.249 1_556 S
O71 Dy60 2.326 . S
O71 C78 1.267 . S
O72 C61 1.185 . S
O72 Dy63 2.398 . S
O73 C61 1.355 . S
O73 Dy63 2.491 . S
O74 Dy63 2.403 . S
O74 C69 1.254 . S
O75 Dy60 2.310 1_556 S
O75 Dy63 2.664 . S
O75 C69 1.268 . S
O76 Dy60 2.351 1_556 S
O76 C79 1.249 . S
O77 Dy63 2.326 . S
O77 C79 1.267 . S
C78 O70 1.249 1_554 S
C78 O71 1.267 . S
C79 O76 1.249 . S
C79 O77 1.267 . S
Dy80 O84 2.398 . S
Dy80 O85 2.491 . S
Dy80 O86 2.403 1_556 S
Dy80 O87 2.664 1_556 S
Dy80 O91 2.326 . S
Dy80 O95 2.310 1_556 S
Dy80 O96 2.351 1_556 S
C81 O92 1.185 . S
C81 O93 1.355 . S
C82 O84 1.185 . S
C82 O85 1.355 . S
Dy83 O87 2.310 . S
Dy83 O90 2.351 . S
Dy83 O92 2.398 . S
Dy83 O93 2.491 . S
Dy83 O94 2.403 . S
Dy83 O95 2.664 . S
Dy83 O97 2.326 . S
O84 Dy80 2.398 . S
O84 C82 1.185 . S
O85 Dy80 2.491 . S
O85 C82 1.355 . S
O86 Dy80 2.403 1_554 S
O86 C88 1.254 . S
O87 Dy80 2.664 1_554 S
O87 Dy83 2.310 . S
O87 C88 1.268 . S
C88 O86 1.254 . S
C88 O87 1.268 . S
C89 O94 1.254 . S
C89 O95 1.268 . S
O90 Dy83 2.351 . S
O90 C98 1.249 1_554 S
O91 Dy80 2.326 . S
O91 C98 1.267 . S
O92 C81 1.185 . S
O92 Dy83 2.398 . S
O93 C81 1.355 . S
O93 Dy83 2.491 . S
O94 Dy83 2.403 . S
O94 C89 1.254 . S
O95 Dy80 2.310 1_554 S
O95 Dy83 2.664 . S
O95 C89 1.268 . S
O96 Dy80 2.351 1_554 S
O96 C99 1.249 . S
O97 Dy83 2.326 . S
O97 C99 1.267 . S
C98 O90 1.249 1_556 S
C98 O91 1.267 . S
C99 O96 1.249 . S
C99 O97 1.267 . S
Dy100 O104 2.398 . S
Dy100 O105 2.491 . S
Dy100 O106 2.403 . S
Dy100 O107 2.664 . S
Dy100 O111 2.326 . S
Dy100 O115 2.310 . S
Dy100 O116 2.351 . S
C101 O112 1.185 . S
C101 O113 1.355 . S
C102 O104 1.185 . S
C102 O105 1.355 . S
Dy103 O107 2.310 1_554 S
Dy103 O110 2.351 1_554 S
Dy103 O112 2.398 . S
Dy103 O113 2.491 . S
Dy103 O114 2.403 1_554 S
Dy103 O115 2.664 1_554 S
Dy103 O117 2.326 . S
O104 Dy100 2.398 . S
O104 C102 1.185 . S
O105 Dy100 2.491 . S
O105 C102 1.355 . S
O106 Dy100 2.403 . S
O106 C108 1.254 . S
O107 Dy100 2.664 . S
O107 Dy103 2.310 1_556 S
O107 C108 1.268 . S
C108 O106 1.254 . S
C108 O107 1.268 . S
C109 O114 1.254 . S
C109 O115 1.268 . S
O110 Dy103 2.351 1_556 S
O110 C118 1.249 . S
O111 Dy100 2.326 . S
O111 C118 1.267 . S
O112 C101 1.185 . S
O112 Dy103 2.398 . S
O113 C101 1.355 . S
O113 Dy103 2.491 . S
O114 Dy103 2.403 1_556 S
O114 C109 1.254 . S
O115 Dy100 2.310 . S
O115 Dy103 2.664 1_556 S
O115 C109 1.268 . S
O116 Dy100 2.351 . S
O116 C119 1.249 1_556 S
O117 Dy103 2.326 . S
O117 C119 1.267 . S
C118 O110 1.249 . S
C118 O111 1.267 . S
C119 O116 1.249 1_554 S
C119 O117 1.267 . S
Dy120 O124 2.398 . S
Dy120 O125 2.491 . S
Dy120 O126 2.403 1_556 S
Dy120 O127 2.664 1_556 S
Dy120 O131 2.326 . S
Dy120 O135 2.310 1_556 S
Dy120 O136 2.351 1_556 S
C121 O132 1.185 . S
C121 O133 1.355 . S
C122 O124 1.185 . S
C122 O125 1.355 . S
Dy123 O127 2.310 . S
Dy123 O130 2.351 . S
Dy123 O132 2.398 . S
Dy123 O133 2.491 . S
Dy123 O134 2.403 . S
Dy123 O135 2.664 . S
Dy123 O137 2.326 . S
O124 Dy120 2.398 . S
O124 C122 1.185 . S
O125 Dy120 2.491 . S
O125 C122 1.355 . S
O126 Dy120 2.403 1_554 S
O126 C128 1.254 . S
O127 Dy120 2.664 1_554 S
O127 Dy123 2.310 . S
O127 C128 1.268 . S
C128 O126 1.254 . S
C128 O127 1.268 . S
C129 O134 1.254 . S
C129 O135 1.268 . S
O130 Dy123 2.351 . S
O130 C138 1.249 1_554 S
O131 Dy120 2.326 . S
O131 C138 1.267 . S
O132 C121 1.185 . S
O132 Dy123 2.398 . S
O133 C121 1.355 . S
O133 Dy123 2.491 . S
O134 Dy123 2.403 . S
O134 C129 1.254 . S
O135 Dy120 2.310 1_554 S
O135 Dy123 2.664 . S
O135 C129 1.268 . S
O136 Dy120 2.351 1_554 S
O136 C139 1.249 . S
O137 Dy123 2.326 . S
O137 C139 1.267 . S
C138 O130 1.249 1_556 S
C138 O131 1.267 . S
C139 O136 1.249 . S
C139 O137 1.267 . S
Dy140 O144 2.398 . S
Dy140 O145 2.491 . S
Dy140 O146 2.403 . S
Dy140 O147 2.664 . S
Dy140 O151 2.326 . S
Dy140 O155 2.310 . S
Dy140 O156 2.351 . S
C141 O152 1.185 . S
C141 O153 1.355 . S
C142 O144 1.185 . S
C142 O145 1.355 . S
Dy143 O147 2.310 1_554 S
Dy143 O150 2.351 1_554 S
Dy143 O152 2.398 . S
Dy143 O153 2.491 . S
Dy143 O154 2.403 1_554 S
Dy143 O155 2.664 1_554 S
Dy143 O157 2.326 . S
O144 Dy140 2.398 . S
O144 C142 1.185 . S
O145 Dy140 2.491 . S
O145 C142 1.355 . S
O146 Dy140 2.403 . S
O146 C148 1.254 . S
O147 Dy140 2.664 . S
O147 Dy143 2.310 1_556 S
O147 C148 1.268 . S
C148 O146 1.254 . S
C148 O147 1.268 . S
C149 O154 1.254 . S
C149 O155 1.268 . S
O150 Dy143 2.351 1_556 S
O150 C158 1.249 . S
O151 Dy140 2.326 . S
O151 C158 1.267 . S
O152 C141 1.185 . S
O152 Dy143 2.398 . S
O153 C141 1.355 . S
O153 Dy143 2.491 . S
O154 Dy143 2.403 1_556 S
O154 C149 1.254 . S
O155 Dy140 2.310 . S
O155 Dy143 2.664 1_556 S
O155 C149 1.268 . S
O156 Dy140 2.351 . S
O156 C159 1.249 1_556 S
O157 Dy143 2.326 . S
O157 C159 1.267 . S
C158 O150 1.249 . S
C158 O151 1.267 . S
C159 O156 1.249 1_554 S
C159 O157 1.267 . S
Dy160 O164 2.398 1_556 S
Dy160 O165 2.492 . S
Dy160 O166 2.403 . S
Dy160 O167 2.664 . S
Dy160 O171 2.326 . S
Dy160 O175 2.310 . S
Dy160 O176 2.351 . S
C161 O172 1.185 . S
C161 O173 1.355 . S
C162 O164 1.185 . S
C162 O165 1.355 1_554 S
Dy163 O167 2.310 . S
Dy163 O170 2.351 . S
Dy163 O172 2.398 . S
Dy163 O173 2.491 . S
Dy163 O174 2.403 . S
Dy163 O175 2.664 . S
Dy163 O177 2.326 . S
O164 Dy160 2.398 1_554 S
O164 C162 1.185 . S
O165 Dy160 2.492 . S
O165 C162 1.355 1_556 S
O166 Dy160 2.403 . S
O166 C168 1.254 . S
O167 Dy160 2.664 . S
O167 Dy163 2.310 . S
O167 C168 1.268 . S
C168 O166 1.254 . S
C168 O167 1.268 . S
C169 O174 1.254 . S
C169 O175 1.268 . S
O170 Dy163 2.351 . S
O170 C178 1.249 . S
O171 Dy160 2.326 . S
O171 C178 1.267 . S
O172 C161 1.185 . S
O172 Dy163 2.398 . S
O173 C161 1.355 . S
O173 Dy163 2.491 . S
O174 Dy163 2.403 . S
O174 C169 1.254 . S
O175 Dy160 2.310 . S
O175 Dy163 2.664 . S
O175 C169 1.268 . S
O176 Dy160 2.351 . S
O176 C179 1.249 . S
O177 Dy163 2.326 . S
O177 C179 1.267 . S
C178 O170 1.249 . S
C178 O171 1.267 . S
C179 O176 1.249 . S
C179 O177 1.267 . S
Dy180 O184 2.398 . S
Dy180 O185 2.491 . S
Dy180 O186 2.403 . S
Dy180 O187 2.664 . S
Dy180 O191 2.326 . S
Dy180 O195 2.310 . S
Dy180 O196 2.351 . S
C181 O192 1.185 . S
C181 O193 1.355 1_556 S
C182 O184 1.185 . S
C182 O185 1.355 . S
Dy183 O187 2.310 . S
Dy183 O190 2.351 . S
Dy183 O192 2.398 1_554 S
Dy183 O193 2.492 . S
Dy183 O194 2.403 . S
Dy183 O195 2.664 . S
Dy183 O197 2.326 . S
O184 Dy180 2.398 . S
O184 C182 1.185 . S
O185 Dy180 2.491 . S
O185 C182 1.355 . S
O186 Dy180 2.403 . S
O186 C188 1.254 . S
O187 Dy180 2.664 . S
O187 Dy183 2.310 . S
O187 C188 1.268 . S
C188 O186 1.254 . S
C188 O187 1.268 . S
C189 O194 1.254 . S
C189 O195 1.268 . S
O190 Dy183 2.351 . S
O190 C198 1.249 . S
O191 Dy180 2.326 . S
O191 C198 1.267 . S
O192 C181 1.185 . S
O192 Dy183 2.398 1_556 S
O193 C181 1.355 1_554 S
O193 Dy183 2.492 . S
O194 Dy183 2.403 . S
O194 C189 1.254 . S
O195 Dy180 2.310 . S
O195 Dy183 2.664 . S
O195 C189 1.268 . S
O196 Dy180 2.351 . S
O196 C199 1.249 . S
O197 Dy183 2.326 . S
O197 C199 1.267 . S
C198 O190 1.249 . S
C198 O191 1.267 . S
C199 O196 1.249 . S
C199 O197 1.267 . S
Dy200 O204 2.398 1_556 S
Dy200 O205 2.492 . S
Dy200 O206 2.403 . S
Dy200 O207 2.664 . S
Dy200 O211 2.326 . S
Dy200 O215 2.310 . S
Dy200 O216 2.351 . S
C201 O212 1.185 . S
C201 O213 1.355 . S
C202 O204 1.185 . S
C202 O205 1.355 1_554 S
Dy203 O207 2.310 . S
Dy203 O210 2.351 . S
Dy203 O212 2.398 . S
Dy203 O213 2.491 . S
Dy203 O214 2.403 . S
Dy203 O215 2.664 . S
Dy203 O217 2.326 . S
O204 Dy200 2.398 1_554 S
O204 C202 1.185 . S
O205 Dy200 2.492 . S
O205 C202 1.355 1_556 S
O206 Dy200 2.403 . S
O206 C208 1.254 . S
O207 Dy200 2.664 . S
O207 Dy203 2.310 . S
O207 C208 1.268 . S
C208 O206 1.254 . S
C208 O207 1.268 . S
C209 O214 1.254 . S
C209 O215 1.268 . S
O210 Dy203 2.351 . S
O210 C218 1.249 . S
O211 Dy200 2.326 . S
O211 C218 1.267 . S
O212 C201 1.185 . S
O212 Dy203 2.398 . S
O213 C201 1.355 . S
O213 Dy203 2.491 . S
O214 Dy203 2.403 . S
O214 C209 1.254 . S
O215 Dy200 2.310 . S
O215 Dy203 2.664 . S
O215 C209 1.268 . S
O216 Dy200 2.351 . S
O216 C219 1.249 . S
O217 Dy203 2.326 . S
O217 C219 1.267 . S
C218 O210 1.249 . S
C218 O211 1.267 . S
C219 O216 1.249 . S
C219 O217 1.267 . S
Dy220 O224 2.398 . S
Dy220 O225 2.491 . S
Dy220 O226 2.403 . S
Dy220 O227 2.664 . S
Dy220 O231 2.326 . S
Dy220 O235 2.310 . S
Dy220 O236 2.351 . S
C221 O232 1.185 . S
C221 O233 1.355 1_556 S
C222 O224 1.185 . S
C222 O225 1.355 . S
Dy223 O227 2.310 . S
Dy223 O230 2.351 . S
Dy223 O232 2.398 1_554 S
Dy223 O233 2.492 . S
Dy223 O234 2.403 . S
Dy223 O235 2.664 . S
Dy223 O237 2.326 . S
O224 Dy220 2.398 . S
O224 C222 1.185 . S
O225 Dy220 2.491 . S
O225 C222 1.355 . S
O226 Dy220 2.403 . S
O226 C228 1.254 . S
O227 Dy220 2.664 . S
O227 Dy223 2.310 . S
O227 C228 1.268 . S
C228 O226 1.254 . S
C228 O227 1.268 . S
C229 O234 1.254 . S
C229 O235 1.268 . S
O230 Dy223 2.351 . S
O230 C238 1.249 . S
O231 Dy220 2.326 . S
O231 C238 1.267 . S
O232 C221 1.185 . S
O232 Dy223 2.398 1_556 S
O233 C221 1.355 1_554 S
O233 Dy223 2.492 . S
O234 Dy223 2.403 . S
O234 C229 1.254 . S
O235 Dy220 2.310 . S
O235 Dy223 2.664 . S
O235 C229 1.268 . S
O236 Dy220 2.351 . S
O236 C239 1.249 . S
O237 Dy223 2.326 . S
O237 C239 1.267 . S
C238 O230 1.249 . S
C238 O231 1.267 . S
C239 O236 1.249 . S
C239 O237 1.267 . S
Dy240 O244 2.398 . S
Dy240 O245 2.491 . S
Dy240 O246 2.403 . S
Dy240 O247 2.664 . S
Dy240 O251 2.326 . S
Dy240 O255 2.310 . S
Dy240 O256 2.351 . S
C241 O252 1.185 . S
C241 O253 1.355 1_554 S
C242 O244 1.185 . S
C242 O245 1.355 . S
Dy243 O247 2.310 . S
Dy243 O250 2.351 . S
Dy243 O252 2.398 1_556 S
Dy243 O253 2.491 . S
Dy243 O254 2.403 . S
Dy243 O255 2.664 . S
Dy243 O257 2.326 . S
O244 Dy240 2.398 . S
O244 C242 1.185 . S
O245 Dy240 2.491 . S
O245 C242 1.355 . S
O246 Dy240 2.403 . S
O246 C248 1.254 . S
O247 Dy240 2.664 . S
O247 Dy243 2.310 . S
O247 C248 1.268 . S
C248 O246 1.254 . S
C248 O247 1.268 . S
C249 O254 1.254 . S
C249 O255 1.268 . S
O250 Dy243 2.351 . S
O250 C258 1.249 . S
O251 Dy240 2.326 . S
O251 C258 1.267 . S
O252 C241 1.185 . S
O252 Dy243 2.398 1_554 S
O253 C241 1.355 1_556 S
O253 Dy243 2.491 . S
O254 Dy243 2.403 . S
O254 C249 1.254 . S
O255 Dy240 2.310 . S
O255 Dy243 2.664 . S
O255 C249 1.268 . S
O256 Dy240 2.351 . S
O256 C259 1.249 . S
O257 Dy243 2.326 . S
O257 C259 1.267 . S
C258 O250 1.249 . S
C258 O251 1.267 . S
C259 O256 1.249 . S
C259 O257 1.267 . S
Dy260 O264 2.398 1_554 S
Dy260 O265 2.491 . S
Dy260 O266 2.403 . S
Dy260 O267 2.664 . S
Dy260 O271 2.326 . S
Dy260 O275 2.310 . S
Dy260 O276 2.351 . S
C261 O272 1.185 . S
C261 O273 1.355 . S
C262 O264 1.185 . S
C262 O265 1.355 1_556 S
Dy263 O267 2.310 . S
Dy263 O270 2.351 . S
Dy263 O272 2.398 . S
Dy263 O273 2.491 . S
Dy263 O274 2.403 . S
Dy263 O275 2.664 . S
Dy263 O277 2.326 . S
O264 Dy260 2.398 1_556 S
O264 C262 1.185 . S
O265 Dy260 2.491 . S
O265 C262 1.355 1_554 S
O266 Dy260 2.403 . S
O266 C268 1.254 . S
O267 Dy260 2.664 . S
O267 Dy263 2.310 . S
O267 C268 1.268 . S
C268 O266 1.254 . S
C268 O267 1.268 . S
C269 O274 1.254 . S
C269 O275 1.268 . S
O270 Dy263 2.351 . S
O270 C278 1.249 . S
O271 Dy260 2.326 . S
O271 C278 1.267 . S
O272 C261 1.185 . S
O272 Dy263 2.398 . S
O273 C261 1.355 . S
O273 Dy263 2.491 . S
O274 Dy263 2.403 . S
O274 C269 1.254 . S
O275 Dy260 2.310 . S
O275 Dy263 2.664 . S
O275 C269 1.268 . S
O276 Dy260 2.351 . S
O276 C279 1.249 . S
O277 Dy263 2.326 . S
O277 C279 1.267 . S
C278 O270 1.249 . S
C278 O271 1.267 . S
C279 O276 1.249 . S
C279 O277 1.267 . S
Dy280 O284 2.398 . S
Dy280 O285 2.491 . S
Dy280 O286 2.403 . S
Dy280 O287 2.664 . S
Dy280 O291 2.326 . S
Dy280 O295 2.310 . S
Dy280 O296 2.351 . S
C281 O292 1.185 . S
C281 O293 1.355 1_554 S
C282 O284 1.185 . S
C282 O285 1.355 . S
Dy283 O287 2.310 . S
Dy283 O290 2.351 . S
Dy283 O292 2.398 1_556 S
Dy283 O293 2.491 . S
Dy283 O294 2.403 . S
Dy283 O295 2.664 . S
Dy283 O297 2.326 . S
O284 Dy280 2.398 . S
O284 C282 1.185 . S
O285 Dy280 2.491 . S
O285 C282 1.355 . S
O286 Dy280 2.403 . S
O286 C288 1.254 . S
O287 Dy280 2.664 . S
O287 Dy283 2.310 . S
O287 C288 1.268 . S
C288 O286 1.254 . S
C288 O287 1.268 . S
C289 O294 1.254 . S
C289 O295 1.268 . S
O290 Dy283 2.351 . S
O290 C298 1.249 . S
O291 Dy280 2.326 . S
O291 C298 1.267 . S
O292 C281 1.185 . S
O292 Dy283 2.398 1_554 S
O293 C281 1.355 1_556 S
O293 Dy283 2.491 . S
O294 Dy283 2.403 . S
O294 C289 1.254 . S
O295 Dy280 2.310 . S
O295 Dy283 2.664 . S
O295 C289 1.268 . S
O296 Dy280 2.351 . S
O296 C299 1.249 . S
O297 Dy283 2.326 . S
O297 C299 1.267 . S
C298 O290 1.249 . S
C298 O291 1.267 . S
C299 O296 1.249 . S
C299 O297 1.267 . S
Dy300 O304 2.398 1_554 S
Dy300 O305 2.491 . S
Dy300 O306 2.403 . S
Dy300 O307 2.664 . S
Dy300 O311 2.326 . S
Dy300 O315 2.310 . S
Dy300 O316 2.351 . S
C301 O312 1.185 . S
C301 O313 1.355 . S
C302 O304 1.185 . S
C302 O305 1.355 1_556 S
Dy303 O307 2.310 . S
Dy303 O310 2.351 . S
Dy303 O312 2.398 . S
Dy303 O313 2.491 . S
Dy303 O314 2.403 . S
Dy303 O315 2.664 . S
Dy303 O317 2.326 . S
O304 Dy300 2.398 1_556 S
O304 C302 1.185 . S
O305 Dy300 2.491 . S
O305 C302 1.355 1_554 S
O306 Dy300 2.403 . S
O306 C308 1.254 . S
O307 Dy300 2.664 . S
O307 Dy303 2.310 . S
O307 C308 1.268 . S
C308 O306 1.254 . S
C308 O307 1.268 . S
C309 O314 1.254 . S
C309 O315 1.268 . S
O310 Dy303 2.351 . S
O310 C318 1.249 . S
O311 Dy300 2.326 . S
O311 C318 1.267 . S
O312 C301 1.185 . S
O312 Dy303 2.398 . S
O313 C301 1.355 . S
O313 Dy303 2.491 . S
O314 Dy303 2.403 . S
O314 C309 1.254 . S
O315 Dy300 2.310 . S
O315 Dy303 2.664 . S
O315 C309 1.268 . S
O316 Dy300 2.351 . S
O316 C319 1.249 . S
O317 Dy303 2.326 . S
O317 C319 1.267 . S
C318 O310 1.249 . S
C318 O311 1.267 . S
C319 O316 1.249 . S
C319 O317 1.267 . S
C239 C9 1.720 1_565 S
C178 C28 1.720 1_655 S
C49 C199 1.720 1_565 S
C68 C218 1.720 1_655 S
C89 C119 1.720 . S
C138 C108 1.720 . S
C129 C159 1.720 . S
C98 C148 1.720 . S
C79 C169 1.720 . S
C188 C18 1.720 . S
C39 C209 1.720 . S
C58 C228 1.720 . S
C249 C279 1.720 1_565 S
C298 C268 1.720 1_455 S
C319 C289 1.720 1_565 S
C308 C258 1.720 1_455 S
C8 C88 1.119 . S
C109 C29 1.119 . S
C48 C128 1.119 . S
C69 C149 1.119 . S
C168 C248 1.119 . S
C269 C189 1.119 . S
C208 C288 1.119 . S
C229 C309 1.119 . S
C299 C19 2.451 . S
C38 C318 2.451 . S
C59 C259 2.451 . S
C78 C278 2.451 . S
C99 C219 2.451 . S
C118 C238 2.451 . S
C139 C179 2.451 . S
C198 C158 2.451 . S
C2 C1 1.413 . S
C21 C22 1.413 . S
C42 C41 1.413 . S
C62 C61 1.413 . S
C81 C82 1.413 . S
C101 C102 1.413 . S
C122 C121 1.413 . S
C142 C141 1.413 . S
C162 C161 1.413 . S
C182 C181 1.413 . S
C201 C202 1.413 . S
C221 C222 1.413 . S
C242 C241 1.413 . S
C262 C261 1.413 . S
C281 C282 1.413 . S
C301 C302 1.413 . S
