# Generated by pormake.
# Topology yfz, (5)-cn, num edge types: 1
# Building blocks:
#     Node 0, Type 0, BuildingBlock: BEQFEK_clean_sbu_0, # of connection points: 5
#     Node 1, Type 0, BuildingBlock: BEQFEK_clean_sbu_0, # of connection points: 5
#     Node 2, Type 0, BuildingBlock: BEQFEK_clean_sbu_0, # of connection points: 5
#     Node 3, Type 0, BuildingBlock: BEQFEK_clean_sbu_0, # of connection points: 5
#     Node 4, Type 0, BuildingBlock: BEQFEK_clean_sbu_0, # of connection points: 5
#     Node 5, Type 0, BuildingBlock: BEQFEK_clean_sbu_0, # of connection points: 5
#     Node 6, Type 0, BuildingBlock: BEQFEK_clean_sbu_0, # of connection points: 5
#     Node 7, Type 0, BuildingBlock: BEQFEK_clean_sbu_0, # of connection points: 5
#     Edge 8, Type (0, 0), None
#     Edge 9, Type (0, 0), None
#     Edge 10, Type (0, 0), None
#     Edge 11, Type (0, 0), None
#     Edge 12, Type (0, 0), None
#     Edge 13, Type (0, 0), None
#     Edge 14, Type (0, 0), None
#     Edge 15, Type (0, 0), None
#     Edge 16, Type (0, 0), None
#     Edge 17, Type (0, 0), None
#     Edge 18, Type (0, 0), None
#     Edge 19, Type (0, 0), None
#     Edge 20, Type (0, 0), None
#     Edge 21, Type (0, 0), None
#     Edge 22, Type (0, 0), None
#     Edge 23, Type (0, 0), None
#     Edge 24, Type (0, 0), None
#     Edge 25, Type (0, 0), None
#     Edge 26, Type (0, 0), None
#     Edge 27, Type (0, 0), None
# Relax obj value: 0.262
# Max RMSD: 0.199
# Mean RMSD: 0.199
data_MOF--net-yfz--node1-BEQFEK_clean_sbu_0--edge1-none
_symmetry_space_group_name_H-M    P1
_symmetry_Int_Tables_number       1
_symmetry_cell_setting            triclinic
loop_
_symmetry_equiv_pos_as_xyz
'x, y, z'
_cell_length_a     24.251534
_cell_length_b     24.251533
_cell_length_c     10.78969
_cell_angle_alpha  89.99821
_cell_angle_beta   90.001783
_cell_angle_gamma 90.0
loop_
_atom_site_label
_atom_site_type_symbol
_atom_site_fract_x
_atom_site_fract_y
_atom_site_fract_z
_atom_type_partial_charge
Co0 Co 0.59387 0.1034 0.17672 0.0
Co1 Co 0.62796 0.12988 0.44236 0.0
C2 C 0.71622 0.10499 0.26859 0.0
O3 O 0.6775 0.09904 0.18987 0.0
O4 O 0.70525 0.11633 0.38171 0.0
C5 C 0.6151 0.08534 0.92358 0.0
O6 O 0.66533 0.07408 0.96035 0.0
C7 C 0.64153 0.11347 0.7001 0.0
C8 C 0.56385 0.14781 0.7746 0.0
C9 C 0.60783 0.11396 0.80461 0.0
N10 N 0.61761 0.14362 0.61238 0.0
N11 N 0.5716 0.16496 0.65725 0.0
C12 C 0.69004 0.0785 0.671 0.0
H13 H 0.68557 0.0595 0.57869 0.0
H14 H 0.69688 0.04619 0.74192 0.0
H15 H 0.72555 0.1064 0.65722 0.0
C16 C 0.50562 0.04113 0.33802 0.0
N17 N 0.55424 0.06662 0.31298 0.0
N18 N 0.58287 0.06688 0.41609 0.0
C19 C 0.55636 0.03801 0.50558 0.0
C20 C 0.50458 0.02464 0.46353 0.0
C21 C 0.46161 0.03166 0.24349 0.0
H22 H 0.45805 0.06826 0.18224 0.0
H23 H 0.47338 -0.00397 0.18467 0.0
H24 H 0.42142 0.02278 0.28854 0.0
O25 O 0.57747 0.18181 0.1736 0.0
O26 O 0.60215 0.20035 0.36564 0.0
H27 H 0.58504 0.01964 0.69059 0.0
H28 H 0.56588 0.96054 0.60569 0.0
C29 C 0.58594 0.00147 0.59704 0.0
H30 H 0.62851 0.99291 0.56625 0.0
H31 H 0.54301 0.18692 0.60447 0.0
O32 O 0.57557 0.08517 0.00194 0.0
C33 C 0.58425 0.2159 0.26065 0.0
Co34 Co 0.38727 0.59387 0.67673 0.0
Co35 Co 0.36078 0.62795 0.94236 0.0
C36 C 0.38567 0.71622 0.76859 0.0
O37 O 0.39162 0.6775 0.68987 0.0
O38 O 0.37433 0.70524 0.88171 0.0
C39 C 0.40532 0.6151 0.42359 0.0
O40 O 0.41658 0.66533 0.46035 0.0
C41 C 0.37719 0.64153 0.20011 0.0
C42 C 0.34286 0.56384 0.27461 0.0
C43 C 0.3767 0.60784 0.30462 0.0
N44 N 0.34705 0.61761 0.11238 0.0
N45 N 0.32571 0.5716 0.15726 0.0
C46 C 0.41216 0.69004 0.171 0.0
H47 H 0.43116 0.68557 0.07869 0.0
H48 H 0.44447 0.69688 0.24192 0.0
H49 H 0.38425 0.72555 0.15722 0.0
C50 C 0.44954 0.50562 0.83802 0.0
N51 N 0.42404 0.55424 0.81299 0.0
N52 N 0.42377 0.58286 0.9161 0.0
C53 C 0.45265 0.55635 0.00559 0.0
C54 C 0.46602 0.50458 0.96353 0.0
C55 C 0.45902 0.46161 0.74349 0.0
H56 H 0.42242 0.45806 0.68222 0.0
H57 H 0.49465 0.47339 0.68468 0.0
H58 H 0.46789 0.42142 0.78853 0.0
O59 O 0.30885 0.57747 0.67361 0.0
O60 O 0.29031 0.60215 0.86565 0.0
H61 H 0.47101 0.58503 0.1906 0.0
H62 H 0.53012 0.56587 0.10571 0.0
C63 C 0.48918 0.58593 0.09706 0.0
H64 H 0.49774 0.6285 0.06628 0.0
H65 H 0.30374 0.54301 0.10448 0.0
O66 O 0.40549 0.57557 0.50196 0.0
C67 C 0.27476 0.58425 0.76066 0.0
Co68 Co 0.8968 0.38727 0.17673 0.0
Co69 Co 0.86272 0.36077 0.44237 0.0
C70 C 0.77446 0.38567 0.2686 0.0
O71 O 0.81317 0.39163 0.18988 0.0
O72 O 0.78543 0.37432 0.38171 0.0
C73 C 0.87557 0.40531 0.92359 0.0
O74 O 0.82534 0.41656 0.96035 0.0
C75 C 0.84914 0.37718 0.70011 0.0
C76 C 0.92683 0.34285 0.77462 0.0
C77 C 0.88284 0.37669 0.80462 0.0
N78 N 0.87307 0.34703 0.61239 0.0
N79 N 0.91908 0.3257 0.65727 0.0
C80 C 0.80063 0.41214 0.671 0.0
H81 H 0.80509 0.43114 0.57868 0.0
H82 H 0.79379 0.44446 0.74191 0.0
H83 H 0.76512 0.38423 0.65726 0.0
C84 C 0.98505 0.44954 0.33802 0.0
N85 N 0.93643 0.42405 0.31299 0.0
N86 N 0.90781 0.42377 0.4161 0.0
C87 C 0.93432 0.45264 0.50559 0.0
C88 C 0.98609 0.46603 0.46353 0.0
C89 C 0.02906 0.45903 0.24348 0.0
H90 H 0.0326 0.42244 0.1822 0.0
H91 H 0.01728 0.49467 0.18469 0.0
H92 H 0.06925 0.4679 0.28853 0.0
O93 O 0.9132 0.30886 0.17361 0.0
O94 O 0.88853 0.2903 0.36566 0.0
H95 H 0.90565 0.471 0.69061 0.0
H96 H 0.92479 0.53011 0.6057 0.0
C97 C 0.90474 0.48917 0.59707 0.0
H98 H 0.86216 0.49772 0.5663 0.0
H99 H 0.94768 0.30374 0.60449 0.0
O100 O 0.9151 0.40549 0.00195 0.0
C101 C 0.90642 0.27476 0.26066 0.0
Co102 Co 0.10339 0.8968 0.67672 0.0
Co103 Co 0.12989 0.86272 0.94236 0.0
C104 C 0.10499 0.77446 0.7686 0.0
O105 O 0.09904 0.81317 0.68988 0.0
O106 O 0.11634 0.78543 0.88171 0.0
C107 C 0.08535 0.87558 0.42358 0.0
O108 O 0.07409 0.82534 0.46035 0.0
C109 C 0.11348 0.84914 0.20011 0.0
C110 C 0.14781 0.92683 0.2746 0.0
C111 C 0.11397 0.88284 0.30461 0.0
N112 N 0.14363 0.87307 0.11239 0.0
N113 N 0.16496 0.91908 0.15726 0.0
C114 C 0.07852 0.80063 0.17101 0.0
H115 H 0.05952 0.8051 0.07868 0.0
H116 H 0.0462 0.79379 0.24191 0.0
H117 H 0.10643 0.76512 0.15726 0.0
C118 C 0.04113 0.98505 0.83802 0.0
N119 N 0.06662 0.93643 0.81298 0.0
N120 N 0.06689 0.90781 0.91609 0.0
C121 C 0.03802 0.93431 0.00558 0.0
C122 C 0.02464 0.98609 0.96353 0.0
C123 C 0.03164 0.02906 0.74349 0.0
H124 H 0.06824 0.03262 0.68222 0.0
H125 H -0.00399 0.01729 0.68468 0.0
H126 H 0.02277 0.06925 0.78853 0.0
O127 O 0.18181 0.9132 0.67361 0.0
O128 O 0.20036 0.88853 0.86565 0.0
H129 H 0.01965 0.90564 0.1906 0.0
H130 H 0.96055 0.92478 0.10568 0.0
C131 C 0.00148 0.90473 0.09705 0.0
H132 H 0.99293 0.86216 0.06627 0.0
H133 H 0.18692 0.94767 0.10448 0.0
O134 O 0.08517 0.9151 0.50194 0.0
C135 C 0.2159 0.90642 0.76065 0.0
Co136 Co 0.59392 0.38736 0.31612 0.0
Co137 Co 0.62797 0.36091 0.05044 0.0
C138 C 0.71625 0.38571 0.22424 0.0
O139 O 0.67755 0.39165 0.30298 0.0
O140 O 0.70526 0.37444 0.11109 0.0
C141 C 0.61519 0.40547 0.56924 0.0
O142 O 0.66541 0.41676 0.53248 0.0
C143 C 0.6416 0.37736 0.79276 0.0
C144 C 0.56399 0.3429 0.7181 0.0
C145 C 0.60794 0.37682 0.68818 0.0
N146 N 0.61768 0.34718 0.88042 0.0
N147 N 0.57173 0.32576 0.83545 0.0
C148 C 0.69002 0.41244 0.82203 0.0
H149 H 0.68539 0.43152 0.91421 0.0
H150 H 0.69694 0.44468 0.75098 0.0
H151 H 0.72555 0.3846 0.83628 0.0
C152 C 0.50565 0.44966 0.15508 0.0
N153 N 0.55429 0.42417 0.17992 0.0
N154 N 0.58285 0.42391 0.07671 0.0
C155 C 0.55628 0.45279 0.98731 0.0
C156 C 0.50457 0.46623 0.02965 0.0
C157 C 0.46167 0.45908 0.24973 0.0
H158 H 0.45827 0.42252 0.31115 0.0
H159 H 0.47338 0.4948 0.30834 0.0
H160 H 0.42143 0.46781 0.20477 0.0
O161 O 0.57747 0.30896 0.3192 0.0
O162 O 0.60215 0.29043 0.12713 0.0
H163 H 0.58496 0.47102 0.80223 0.0
H164 H 0.56558 0.53017 0.8867 0.0
C165 C 0.58577 0.48931 0.89566 0.0
H166 H 0.6283 0.49805 0.92648 0.0
H167 H 0.54315 0.30375 0.88817 0.0
O168 O 0.57566 0.40561 0.49089 0.0
C169 C 0.58424 0.27489 0.23211 0.0
Co170 Co 0.10331 0.59392 0.81613 0.0
Co171 Co 0.12975 0.62797 0.55045 0.0
C172 C 0.10495 0.71625 0.72424 0.0
O173 O 0.09902 0.67754 0.80298 0.0
O174 O 0.11622 0.70527 0.61109 0.0
C175 C 0.08519 0.61518 0.06925 0.0
O176 O 0.07389 0.66541 0.03248 0.0
C177 C 0.1133 0.6416 0.29277 0.0
C178 C 0.14776 0.564 0.21811 0.0
C179 C 0.11384 0.60794 0.18819 0.0
N180 N 0.14348 0.61768 0.38043 0.0
N181 N 0.1649 0.57173 0.33547 0.0
C182 C 0.07822 0.69002 0.32202 0.0
H183 H 0.05913 0.68539 0.41421 0.0
H184 H 0.04598 0.69694 0.25097 0.0
H185 H 0.10606 0.72554 0.33628 0.0
C186 C 0.04101 0.50564 0.65508 0.0
N187 N 0.06649 0.55429 0.67993 0.0
N188 N 0.06675 0.58285 0.57672 0.0
C189 C 0.03787 0.55628 0.48732 0.0
C190 C 0.02444 0.50458 0.52966 0.0
C191 C 0.0316 0.46167 0.74972 0.0
H192 H 0.06816 0.45826 0.81113 0.0
H193 H -0.00412 0.47337 0.80836 0.0
H194 H 0.02286 0.42143 0.70476 0.0
O195 O 0.1817 0.57747 0.81921 0.0
O196 O 0.20023 0.60215 0.62714 0.0
H197 H 0.01963 0.58498 0.30225 0.0
H198 H 0.96049 0.56559 0.38672 0.0
C199 C 0.00134 0.58578 0.39568 0.0
H200 H 0.9926 0.6283 0.42651 0.0
H201 H 0.18691 0.54316 0.38818 0.0
O202 O 0.08505 0.57565 0.9909 0.0
C203 C 0.21577 0.58424 0.73212 0.0
Co204 Co 0.89676 0.1033 0.31612 0.0
Co205 Co 0.86271 0.12975 0.05044 0.0
C206 C 0.77442 0.10495 0.22423 0.0
O207 O 0.81313 0.09901 0.30298 0.0
O208 O 0.78541 0.11623 0.11109 0.0
C209 C 0.87549 0.0852 0.56925 0.0
O210 O 0.82526 0.07391 0.53248 0.0
C211 C 0.84907 0.11331 0.79276 0.0
C212 C 0.92668 0.14776 0.7181 0.0
C213 C 0.88273 0.11385 0.68819 0.0
N214 N 0.87299 0.14349 0.88042 0.0
N215 N 0.91895 0.16491 0.83546 0.0
C216 C 0.80065 0.07824 0.82202 0.0
H217 H 0.80527 0.05916 0.91421 0.0
H218 H 0.79374 0.046 0.75098 0.0
H219 H 0.76512 0.10608 0.83624 0.0
C220 C 0.98503 0.041 0.15508 0.0
N221 N 0.93639 0.06649 0.17993 0.0
N222 N 0.90782 0.06676 0.07672 0.0
C223 C 0.93439 0.03787 0.98731 0.0
C224 C 0.98609 0.02444 0.02965 0.0
C225 C 0.029 0.03158 0.24973 0.0
H226 H 0.03241 0.06814 0.31115 0.0
H227 H 0.0173 -0.00414 0.30834 0.0
H228 H 0.06924 0.02285 0.20477 0.0
O229 O 0.91321 0.1817 0.3192 0.0
O230 O 0.88852 0.20023 0.12714 0.0
H231 H 0.9057 0.01964 0.80224 0.0
H232 H 0.92507 0.9605 0.88673 0.0
C233 C 0.90489 0.00136 0.89567 0.0
H234 H 0.86236 0.99263 0.92649 0.0
H235 H 0.94753 0.18692 0.88818 0.0
O236 O 0.91502 0.08505 0.4909 0.0
C237 C 0.90644 0.21577 0.23212 0.0
Co238 Co 0.38736 0.89675 0.81612 0.0
Co239 Co 0.36091 0.86271 0.55044 0.0
C240 C 0.38571 0.77442 0.72423 0.0
O241 O 0.39165 0.81313 0.80298 0.0
O242 O 0.37443 0.78541 0.61109 0.0
C243 C 0.40546 0.87549 0.06924 0.0
O244 O 0.41675 0.82526 0.03248 0.0
C245 C 0.37735 0.84907 0.29276 0.0
C246 C 0.3429 0.92668 0.21809 0.0
C247 C 0.37681 0.88273 0.18818 0.0
N248 N 0.34717 0.873 0.38042 0.0
N249 N 0.32576 0.91895 0.33544 0.0
C250 C 0.41242 0.80065 0.32202 0.0
H251 H 0.4315 0.80527 0.41421 0.0
H252 H 0.44466 0.79373 0.25099 0.0
H253 H 0.38458 0.76512 0.33624 0.0
C254 C 0.44966 0.98503 0.65508 0.0
N255 N 0.42417 0.93639 0.67992 0.0
N256 N 0.4239 0.90783 0.57671 0.0
C257 C 0.45279 0.9344 0.48731 0.0
C258 C 0.46623 0.9861 0.52965 0.0
C259 C 0.45909 0.02899 0.74973 0.0
H260 H 0.42254 0.0324 0.81116 0.0
H261 H 0.49482 0.01729 0.80833 0.0
H262 H 0.46782 0.06924 0.70477 0.0
O263 O 0.30896 0.9132 0.81919 0.0
O264 O 0.29043 0.88853 0.62713 0.0
H265 H 0.47101 0.90572 0.30222 0.0
H266 H 0.53016 0.92508 0.38671 0.0
C267 C 0.48929 0.9049 0.39566 0.0
H268 H 0.49802 0.86237 0.42646 0.0
H269 H 0.30375 0.94753 0.38816 0.0
O270 O 0.40561 0.91502 0.99089 0.0
C271 C 0.27489 0.90644 0.73211 0.0
loop_
_geom_bond_atom_site_label_1
_geom_bond_atom_site_label_2
_geom_bond_distance
_geom_bond_site_symmetry_2
_ccdc_geom_bond_type
Co0 O3 1.970 . S
Co0 N17 1.989 . S
Co0 O25 1.967 . S
Co0 O32 1.920 . S
Co1 O4 1.966 . S
Co1 N10 2.022 . S
Co1 N18 1.993 . S
Co1 O26 1.941 . S
C2 O3 1.258 . S
C2 O4 1.263 . S
O3 Co0 1.970 . S
O3 C2 1.258 . S
O4 Co1 1.966 . S
O4 C2 1.263 . S
C5 O6 1.235 . S
C5 O32 1.289 1_556 S
O6 C5 1.235 . S
C7 C9 1.400 . S
C7 N10 1.351 . S
C7 C12 1.501 . S
C8 C9 1.387 . S
C8 N11 1.341 . S
C9 C7 1.400 . S
C9 C8 1.387 . S
N10 Co1 2.022 . S
N10 C7 1.351 . S
N10 N11 1.365 . S
N11 C8 1.341 . S
N11 N10 1.365 . S
N11 H31 0.862 . S
C12 C7 1.501 . S
C12 H13 0.961 . S
C12 H14 0.961 . S
C12 H15 0.960 . S
H13 C12 0.961 . S
H14 C12 0.961 . S
H15 C12 0.960 . S
C16 N17 1.342 . S
C16 C20 1.401 . S
C16 C21 1.499 . S
N17 Co0 1.989 . S
N17 C16 1.342 . S
N17 N18 1.388 . S
N18 Co1 1.993 . S
N18 N17 1.388 . S
N18 C19 1.346 . S
C19 N18 1.346 . S
C19 C20 1.396 . S
C19 C29 1.510 . S
C20 C16 1.401 . S
C20 C19 1.396 . S
C21 C16 1.499 . S
C21 H22 0.959 . S
C21 H23 0.960 1_545 S
C21 H24 0.961 . S
H22 C21 0.959 . S
H23 C21 0.960 1_565 S
H24 C21 0.961 . S
O25 Co0 1.967 . S
O25 C33 1.258 . S
O26 Co1 1.941 . S
O26 C33 1.266 . S
H27 C29 0.959 . S
H28 C29 0.961 . S
C29 C19 1.510 . S
C29 H27 0.959 . S
C29 H28 0.961 . S
C29 H30 0.960 . S
H30 C29 0.960 . S
H31 N11 0.862 . S
O32 Co0 1.920 . S
O32 C5 1.289 1_554 S
C33 O25 1.258 . S
C33 O26 1.266 . S
Co34 O37 1.970 . S
Co34 N51 1.989 . S
Co34 O59 1.967 . S
Co34 O66 1.920 . S
Co35 O38 1.966 . S
Co35 N44 2.022 1_556 S
Co35 N52 1.993 . S
Co35 O60 1.941 . S
C36 O37 1.258 . S
C36 O38 1.263 . S
O37 Co34 1.970 . S
O37 C36 1.258 . S
O38 Co35 1.966 . S
O38 C36 1.263 . S
C39 O40 1.235 . S
C39 O66 1.289 . S
O40 C39 1.235 . S
C41 C43 1.400 . S
C41 N44 1.351 . S
C41 C46 1.501 . S
C42 C43 1.387 . S
C42 N45 1.341 . S
C43 C41 1.400 . S
C43 C42 1.387 . S
N44 Co35 2.022 1_554 S
N44 C41 1.351 . S
N44 N45 1.365 . S
N45 C42 1.341 . S
N45 N44 1.365 . S
N45 H65 0.862 . S
C46 C41 1.501 . S
C46 H47 0.961 . S
C46 H48 0.961 . S
C46 H49 0.960 . S
H47 C46 0.961 . S
H48 C46 0.961 . S
H49 C46 0.960 . S
C50 N51 1.342 . S
C50 C54 1.401 . S
C50 C55 1.499 . S
N51 Co34 1.989 . S
N51 C50 1.342 . S
N51 N52 1.388 . S
N52 Co35 1.993 . S
N52 N51 1.388 . S
N52 C53 1.346 . S
C53 N52 1.346 . S
C53 C54 1.396 . S
C53 C63 1.510 1_556 S
C54 C50 1.401 . S
C54 C53 1.396 . S
C55 C50 1.499 . S
C55 H56 0.959 . S
C55 H57 0.960 . S
C55 H58 0.961 . S
H56 C55 0.959 . S
H57 C55 0.960 . S
H58 C55 0.961 . S
O59 Co34 1.967 . S
O59 C67 1.258 . S
O60 Co35 1.941 . S
O60 C67 1.266 . S
H61 C63 0.959 . S
H62 C63 0.961 . S
C63 C53 1.510 1_554 S
C63 H61 0.959 . S
C63 H62 0.961 . S
C63 H64 0.960 . S
H64 C63 0.960 . S
H65 N45 0.862 . S
O66 Co34 1.920 . S
O66 C39 1.289 . S
C67 O59 1.258 . S
C67 O60 1.266 . S
Co68 O71 1.970 . S
Co68 N85 1.989 . S
Co68 O93 1.967 . S
Co68 O100 1.920 . S
Co69 O72 1.966 . S
Co69 N78 2.022 . S
Co69 N86 1.993 . S
Co69 O94 1.941 . S
C70 O71 1.258 . S
C70 O72 1.263 . S
O71 Co68 1.970 . S
O71 C70 1.258 . S
O72 Co69 1.966 . S
O72 C70 1.263 . S
C73 O74 1.235 . S
C73 O100 1.289 1_556 S
O74 C73 1.235 . S
C75 C77 1.400 . S
C75 N78 1.351 . S
C75 C80 1.501 . S
C76 C77 1.387 . S
C76 N79 1.341 . S
C77 C75 1.400 . S
C77 C76 1.387 . S
N78 Co69 2.022 . S
N78 C75 1.351 . S
N78 N79 1.365 . S
N79 C76 1.341 . S
N79 N78 1.365 . S
N79 H99 0.862 . S
C80 C75 1.501 . S
C80 H81 0.961 . S
C80 H82 0.961 . S
C80 H83 0.960 . S
H81 C80 0.961 . S
H82 C80 0.961 . S
H83 C80 0.960 . S
C84 N85 1.342 . S
C84 C88 1.401 1_655 S
C84 C89 1.499 1_655 S
N85 Co68 1.989 . S
N85 C84 1.342 . S
N85 N86 1.388 . S
N86 Co69 1.993 . S
N86 N85 1.388 . S
N86 C87 1.346 . S
C87 N86 1.346 . S
C87 C88 1.396 1_655 S
C87 C97 1.510 . S
C88 C84 1.401 1_455 S
C88 C87 1.396 1_455 S
C89 C84 1.499 1_455 S
C89 H90 0.959 1_455 S
C89 H91 0.960 . S
C89 H92 0.961 . S
H90 C89 0.959 1_655 S
H91 C89 0.960 . S
H92 C89 0.961 . S
O93 Co68 1.967 . S
O93 C101 1.258 . S
O94 Co69 1.941 . S
O94 C101 1.266 . S
H95 C97 0.971 . S
H96 C97 0.961 . S
C97 C87 1.510 . S
C97 H95 0.971 . S
C97 H96 0.961 . S
C97 H98 0.960 . S
H98 C97 0.960 . S
H99 N79 0.862 . S
O100 Co68 1.920 . S
O100 C73 1.289 1_554 S
C101 O93 1.258 . S
C101 O94 1.266 . S
Co102 O105 1.970 . S
Co102 N119 1.989 . S
Co102 O127 1.967 . S
Co102 O134 1.920 . S
Co103 O106 1.966 . S
Co103 N112 2.022 1_556 S
Co103 N120 1.993 . S
Co103 O128 1.941 . S
C104 O105 1.258 . S
C104 O106 1.263 . S
O105 Co102 1.970 . S
O105 C104 1.258 . S
O106 Co103 1.966 . S
O106 C104 1.263 . S
C107 O108 1.235 . S
C107 O134 1.289 . S
O108 C107 1.235 . S
C109 C111 1.400 . S
C109 N112 1.351 . S
C109 C114 1.501 . S
C110 C111 1.387 . S
C110 N113 1.341 . S
C111 C109 1.400 . S
C111 C110 1.387 . S
N112 Co103 2.022 1_554 S
N112 C109 1.351 . S
N112 N113 1.365 . S
N113 C110 1.341 . S
N113 N112 1.365 . S
N113 H133 0.862 . S
C114 C109 1.501 . S
C114 H115 0.961 . S
C114 H116 0.961 . S
C114 H117 0.960 . S
H115 C114 0.961 . S
H116 C114 0.961 . S
H117 C114 0.960 . S
C118 N119 1.342 . S
C118 C122 1.401 1_565 S
C118 C123 1.499 1_565 S
N119 Co102 1.989 . S
N119 C118 1.342 . S
N119 N120 1.388 . S
N120 Co103 1.993 . S
N120 N119 1.388 . S
N120 C121 1.346 . S
C121 N120 1.346 . S
C121 C122 1.396 1_565 S
C121 C131 1.510 1_556 S
C122 C118 1.401 1_545 S
C122 C121 1.396 1_545 S
C123 C118 1.499 1_545 S
C123 H124 0.959 1_545 S
C123 H125 0.960 1_455 S
C123 H126 0.961 . S
H124 C123 0.959 1_565 S
H125 C123 0.960 1_655 S
H126 C123 0.961 . S
O127 Co102 1.967 . S
O127 C135 1.258 . S
O128 Co103 1.941 . S
O128 C135 1.266 . S
H129 C131 0.971 . S
H130 C131 0.961 . S
C131 C121 1.510 1_554 S
C131 H129 0.971 . S
C131 H130 0.961 . S
C131 H132 0.960 . S
H132 C131 0.960 . S
H133 N113 0.862 . S
O134 Co102 1.920 . S
O134 C107 1.289 . S
C135 O127 1.258 . S
C135 O128 1.266 . S
Co136 O139 1.970 . S
Co136 N153 1.989 . S
Co136 O161 1.967 . S
Co136 O168 1.920 . S
Co137 O140 1.966 . S
Co137 N146 2.022 1_554 S
Co137 N154 1.993 . S
Co137 O162 1.941 . S
C138 O139 1.258 . S
C138 O140 1.263 . S
O139 Co136 1.970 . S
O139 C138 1.258 . S
O140 Co137 1.966 . S
O140 C138 1.263 . S
C141 O142 1.235 . S
C141 O168 1.289 . S
O142 C141 1.235 . S
C143 C145 1.400 . S
C143 N146 1.351 . S
C143 C148 1.501 . S
C144 C145 1.387 . S
C144 N147 1.341 . S
C145 C143 1.400 . S
C145 C144 1.387 . S
N146 Co137 2.022 1_556 S
N146 C143 1.351 . S
N146 N147 1.365 . S
N147 C144 1.341 . S
N147 N146 1.365 . S
N147 H167 0.862 . S
C148 C143 1.501 . S
C148 H149 0.961 . S
C148 H150 0.961 . S
C148 H151 0.960 . S
H149 C148 0.961 . S
H150 C148 0.961 . S
H151 C148 0.960 . S
C152 N153 1.342 . S
C152 C156 1.401 . S
C152 C157 1.499 . S
N153 Co136 1.989 . S
N153 C152 1.342 . S
N153 N154 1.388 . S
N154 Co137 1.993 . S
N154 N153 1.388 . S
N154 C155 1.346 . S
C155 N154 1.346 . S
C155 C156 1.396 . S
C155 C165 1.510 1_554 S
C156 C152 1.401 . S
C156 C155 1.396 . S
C157 C152 1.499 . S
C157 H158 0.959 . S
C157 H159 0.960 . S
C157 H160 0.961 . S
H158 C157 0.959 . S
H159 C157 0.960 . S
H160 C157 0.961 . S
O161 Co136 1.967 . S
O161 C169 1.258 . S
O162 Co137 1.941 . S
O162 C169 1.266 . S
H163 C165 0.959 . S
H164 C165 0.961 . S
C165 C155 1.510 1_556 S
C165 H163 0.959 . S
C165 H164 0.961 . S
C165 H166 0.960 . S
H166 C165 0.960 . S
H167 N147 0.862 . S
O168 Co136 1.920 . S
O168 C141 1.289 . S
C169 O161 1.258 . S
C169 O162 1.266 . S
Co170 O173 1.970 . S
Co170 N187 1.989 . S
Co170 O195 1.967 . S
Co170 O202 1.920 . S
Co171 O174 1.966 . S
Co171 N180 2.022 . S
Co171 N188 1.993 . S
Co171 O196 1.941 . S
C172 O173 1.258 . S
C172 O174 1.263 . S
O173 Co170 1.970 . S
O173 C172 1.258 . S
O174 Co171 1.966 . S
O174 C172 1.263 . S
C175 O176 1.235 . S
C175 O202 1.289 1_554 S
O176 C175 1.235 . S
C177 C179 1.400 . S
C177 N180 1.351 . S
C177 C182 1.501 . S
C178 C179 1.387 . S
C178 N181 1.341 . S
C179 C177 1.400 . S
C179 C178 1.387 . S
N180 Co171 2.022 . S
N180 C177 1.351 . S
N180 N181 1.365 . S
N181 C178 1.341 . S
N181 N180 1.365 . S
N181 H201 0.862 . S
C182 C177 1.501 . S
C182 H183 0.961 . S
C182 H184 0.961 . S
C182 H185 0.960 . S
H183 C182 0.961 . S
H184 C182 0.961 . S
H185 C182 0.960 . S
C186 N187 1.342 . S
C186 C190 1.401 . S
C186 C191 1.499 . S
N187 Co170 1.989 . S
N187 C186 1.342 . S
N187 N188 1.388 . S
N188 Co171 1.993 . S
N188 N187 1.388 . S
N188 C189 1.346 . S
C189 N188 1.346 . S
C189 C190 1.396 . S
C189 C199 1.510 . S
C190 C186 1.401 . S
C190 C189 1.396 . S
C191 C186 1.499 . S
C191 H192 0.959 . S
C191 H193 0.960 1_455 S
C191 H194 0.961 . S
H192 C191 0.959 . S
H193 C191 0.960 1_655 S
H194 C191 0.961 . S
O195 Co170 1.967 . S
O195 C203 1.258 . S
O196 Co171 1.941 . S
O196 C203 1.266 . S
H197 C199 0.959 . S
H198 C199 0.961 . S
C199 C189 1.510 . S
C199 H197 0.959 . S
C199 H198 0.961 . S
C199 H200 0.960 . S
H200 C199 0.960 . S
H201 N181 0.862 . S
O202 Co170 1.920 . S
O202 C175 1.289 1_556 S
C203 O195 1.258 . S
C203 O196 1.266 . S
Co204 O207 1.970 . S
Co204 N221 1.989 . S
Co204 O229 1.967 . S
Co204 O236 1.920 . S
Co205 O208 1.966 . S
Co205 N214 2.022 1_554 S
Co205 N222 1.993 . S
Co205 O230 1.941 . S
C206 O207 1.258 . S
C206 O208 1.263 . S
O207 Co204 1.970 . S
O207 C206 1.258 . S
O208 Co205 1.966 . S
O208 C206 1.263 . S
C209 O210 1.235 . S
C209 O236 1.289 . S
O210 C209 1.235 . S
C211 C213 1.400 . S
C211 N214 1.351 . S
C211 C216 1.501 . S
C212 C213 1.387 . S
C212 N215 1.341 . S
C213 C211 1.400 . S
C213 C212 1.387 . S
N214 Co205 2.022 1_556 S
N214 C211 1.351 . S
N214 N215 1.365 . S
N215 C212 1.341 . S
N215 N214 1.365 . S
N215 H235 0.862 . S
C216 C211 1.501 . S
C216 H217 0.961 . S
C216 H218 0.961 . S
C216 H219 0.960 . S
H217 C216 0.961 . S
H218 C216 0.961 . S
H219 C216 0.960 . S
C220 N221 1.342 . S
C220 C224 1.401 1_655 S
C220 C225 1.499 1_655 S
N221 Co204 1.989 . S
N221 C220 1.342 . S
N221 N222 1.388 . S
N222 Co205 1.993 . S
N222 N221 1.388 . S
N222 C223 1.346 . S
C223 N222 1.346 . S
C223 C224 1.396 1_655 S
C223 C233 1.510 1_554 S
C224 C220 1.401 1_455 S
C224 C223 1.396 1_455 S
C225 C220 1.499 1_455 S
C225 H226 0.959 1_455 S
C225 H227 0.960 1_545 S
C225 H228 0.961 . S
H226 C225 0.959 1_655 S
H227 C225 0.960 1_565 S
H228 C225 0.961 . S
O229 Co204 1.967 . S
O229 C237 1.258 . S
O230 Co205 1.941 . S
O230 C237 1.266 . S
H231 C233 0.971 . S
H232 C233 0.961 . S
C233 C223 1.510 1_556 S
C233 H231 0.971 . S
C233 H232 0.961 . S
C233 H234 0.960 . S
H234 C233 0.960 . S
H235 N215 0.862 . S
O236 Co204 1.920 . S
O236 C209 1.289 . S
C237 O229 1.258 . S
C237 O230 1.266 . S
Co238 O241 1.970 . S
Co238 N255 1.989 . S
Co238 O263 1.967 . S
Co238 O270 1.920 . S
Co239 O242 1.966 . S
Co239 N248 2.022 . S
Co239 N256 1.993 . S
Co239 O264 1.941 . S
C240 O241 1.258 . S
C240 O242 1.263 . S
O241 Co238 1.970 . S
O241 C240 1.258 . S
O242 Co239 1.966 . S
O242 C240 1.263 . S
C243 O244 1.235 . S
C243 O270 1.289 1_554 S
O244 C243 1.235 . S
C245 C247 1.400 . S
C245 N248 1.351 . S
C245 C250 1.501 . S
C246 C247 1.387 . S
C246 N249 1.341 . S
C247 C245 1.400 . S
C247 C246 1.387 . S
N248 Co239 2.022 . S
N248 C245 1.351 . S
N248 N249 1.365 . S
N249 C246 1.341 . S
N249 N248 1.365 . S
N249 H269 0.862 . S
C250 C245 1.501 . S
C250 H251 0.961 . S
C250 H252 0.961 . S
C250 H253 0.960 . S
H251 C250 0.961 . S
H252 C250 0.961 . S
H253 C250 0.960 . S
C254 N255 1.342 . S
C254 C258 1.401 1_565 S
C254 C259 1.499 1_565 S
N255 Co238 1.989 . S
N255 C254 1.342 . S
N255 N256 1.388 . S
N256 Co239 1.993 . S
N256 N255 1.388 . S
N256 C257 1.346 . S
C257 N256 1.346 . S
C257 C258 1.396 1_565 S
C257 C267 1.510 . S
C258 C254 1.401 1_545 S
C258 C257 1.396 1_545 S
C259 C254 1.499 1_545 S
C259 H260 0.959 1_545 S
C259 H261 0.960 . S
C259 H262 0.961 . S
H260 C259 0.959 1_565 S
H261 C259 0.960 . S
H262 C259 0.961 . S
O263 Co238 1.967 . S
O263 C271 1.258 . S
O264 Co239 1.941 . S
O264 C271 1.266 . S
H265 C267 0.971 . S
H266 C267 0.961 . S
C267 C257 1.510 . S
C267 H265 0.971 . S
C267 H266 0.961 . S
C267 H268 0.960 . S
H268 C267 0.960 . S
H269 N249 0.862 . S
O270 Co238 1.920 . S
O270 C243 1.289 1_556 S
C271 O263 1.258 . S
C271 O264 1.266 . S
C258 C20 2.263 . S
C156 C54 2.263 1_554 S
C88 C190 2.263 . S
C224 C122 2.263 1_554 S
C33 C169 1.331 . S
C203 C67 1.331 . S
C237 C101 1.331 . S
C271 C135 1.331 . S
C240 C36 1.755 . S
C70 C138 1.755 . S
C104 C172 1.755 . S
C206 C2 1.755 . S
C9 C5 2.021 . S
C39 C43 2.021 . S
C73 C77 2.021 . S
C111 C107 2.021 . S
C141 C145 2.021 . S
C175 C179 2.021 . S
C209 C213 2.021 . S
C247 C243 2.021 . S
