# Generated by pormake.
# Topology ukd, (4)-cn, num edge types: 1
# Building blocks:
#     Node 0, Type 0, BuildingBlock: UXUYUI_clean_sbu_0, # of connection points: 4
#     Node 1, Type 0, BuildingBlock: UXUYUI_clean_sbu_0, # of connection points: 4
#     Node 2, Type 0, BuildingBlock: UXUYUI_clean_sbu_0, # of connection points: 4
#     Node 3, Type 0, BuildingBlock: UXUYUI_clean_sbu_0, # of connection points: 4
#     Node 4, Type 0, BuildingBlock: UXUYUI_clean_sbu_0, # of connection points: 4
#     Node 5, Type 0, BuildingBlock: UXUYUI_clean_sbu_0, # of connection points: 4
#     Node 6, Type 0, BuildingBlock: UXUYUI_clean_sbu_0, # of connection points: 4
#     Node 7, Type 0, BuildingBlock: UXUYUI_clean_sbu_0, # of connection points: 4
#     Node 8, Type 0, BuildingBlock: UXUYUI_clean_sbu_0, # of connection points: 4
#     Node 9, Type 0, BuildingBlock: UXUYUI_clean_sbu_0, # of connection points: 4
#     Node 10, Type 0, BuildingBlock: UXUYUI_clean_sbu_0, # of connection points: 4
#     Node 11, Type 0, BuildingBlock: UXUYUI_clean_sbu_0, # of connection points: 4
#     Node 12, Type 0, BuildingBlock: UXUYUI_clean_sbu_0, # of connection points: 4
#     Node 13, Type 0, BuildingBlock: UXUYUI_clean_sbu_0, # of connection points: 4
#     Node 14, Type 0, BuildingBlock: UXUYUI_clean_sbu_0, # of connection points: 4
#     Node 15, Type 0, BuildingBlock: UXUYUI_clean_sbu_0, # of connection points: 4
#     Node 16, Type 0, BuildingBlock: UXUYUI_clean_sbu_0, # of connection points: 4
#     Node 17, Type 0, BuildingBlock: UXUYUI_clean_sbu_0, # of connection points: 4
#     Node 18, Type 0, BuildingBlock: UXUYUI_clean_sbu_0, # of connection points: 4
#     Node 19, Type 0, BuildingBlock: UXUYUI_clean_sbu_0, # of connection points: 4
#     Node 20, Type 0, BuildingBlock: UXUYUI_clean_sbu_0, # of connection points: 4
#     Node 21, Type 0, BuildingBlock: UXUYUI_clean_sbu_0, # of connection points: 4
#     Node 22, Type 0, BuildingBlock: UXUYUI_clean_sbu_0, # of connection points: 4
#     Node 23, Type 0, BuildingBlock: UXUYUI_clean_sbu_0, # of connection points: 4
#     Node 24, Type 0, BuildingBlock: UXUYUI_clean_sbu_0, # of connection points: 4
#     Node 25, Type 0, BuildingBlock: UXUYUI_clean_sbu_0, # of connection points: 4
#     Node 26, Type 0, BuildingBlock: UXUYUI_clean_sbu_0, # of connection points: 4
#     Node 27, Type 0, BuildingBlock: UXUYUI_clean_sbu_0, # of connection points: 4
#     Node 28, Type 0, BuildingBlock: UXUYUI_clean_sbu_0, # of connection points: 4
#     Node 29, Type 0, BuildingBlock: UXUYUI_clean_sbu_0, # of connection points: 4
#     Node 30, Type 0, BuildingBlock: UXUYUI_clean_sbu_0, # of connection points: 4
#     Node 31, Type 0, BuildingBlock: UXUYUI_clean_sbu_0, # of connection points: 4
#     Edge 32, Type (0, 0), BuildingBlock: OJICUG_clean_linker_0, # of connection points: 2
#     Edge 33, Type (0, 0), BuildingBlock: OJICUG_clean_linker_0, # of connection points: 2
#     Edge 34, Type (0, 0), BuildingBlock: OJICUG_clean_linker_0, # of connection points: 2
#     Edge 35, Type (0, 0), BuildingBlock: OJICUG_clean_linker_0, # of connection points: 2
#     Edge 36, Type (0, 0), BuildingBlock: OJICUG_clean_linker_0, # of connection points: 2
#     Edge 37, Type (0, 0), BuildingBlock: OJICUG_clean_linker_0, # of connection points: 2
#     Edge 38, Type (0, 0), BuildingBlock: OJICUG_clean_linker_0, # of connection points: 2
#     Edge 39, Type (0, 0), BuildingBlock: OJICUG_clean_linker_0, # of connection points: 2
#     Edge 40, Type (0, 0), BuildingBlock: OJICUG_clean_linker_0, # of connection points: 2
#     Edge 41, Type (0, 0), BuildingBlock: OJICUG_clean_linker_0, # of connection points: 2
#     Edge 42, Type (0, 0), BuildingBlock: OJICUG_clean_linker_0, # of connection points: 2
#     Edge 43, Type (0, 0), BuildingBlock: OJICUG_clean_linker_0, # of connection points: 2
#     Edge 44, Type (0, 0), BuildingBlock: OJICUG_clean_linker_0, # of connection points: 2
#     Edge 45, Type (0, 0), BuildingBlock: OJICUG_clean_linker_0, # of connection points: 2
#     Edge 46, Type (0, 0), BuildingBlock: OJICUG_clean_linker_0, # of connection points: 2
#     Edge 47, Type (0, 0), BuildingBlock: OJICUG_clean_linker_0, # of connection points: 2
#     Edge 48, Type (0, 0), BuildingBlock: OJICUG_clean_linker_0, # of connection points: 2
#     Edge 49, Type (0, 0), BuildingBlock: OJICUG_clean_linker_0, # of connection points: 2
#     Edge 50, Type (0, 0), BuildingBlock: OJICUG_clean_linker_0, # of connection points: 2
#     Edge 51, Type (0, 0), BuildingBlock: OJICUG_clean_linker_0, # of connection points: 2
#     Edge 52, Type (0, 0), BuildingBlock: OJICUG_clean_linker_0, # of connection points: 2
#     Edge 53, Type (0, 0), BuildingBlock: OJICUG_clean_linker_0, # of connection points: 2
#     Edge 54, Type (0, 0), BuildingBlock: OJICUG_clean_linker_0, # of connection points: 2
#     Edge 55, Type (0, 0), BuildingBlock: OJICUG_clean_linker_0, # of connection points: 2
#     Edge 56, Type (0, 0), BuildingBlock: OJICUG_clean_linker_0, # of connection points: 2
#     Edge 57, Type (0, 0), BuildingBlock: OJICUG_clean_linker_0, # of connection points: 2
#     Edge 58, Type (0, 0), BuildingBlock: OJICUG_clean_linker_0, # of connection points: 2
#     Edge 59, Type (0, 0), BuildingBlock: OJICUG_clean_linker_0, # of connection points: 2
#     Edge 60, Type (0, 0), BuildingBlock: OJICUG_clean_linker_0, # of connection points: 2
#     Edge 61, Type (0, 0), BuildingBlock: OJICUG_clean_linker_0, # of connection points: 2
#     Edge 62, Type (0, 0), BuildingBlock: OJICUG_clean_linker_0, # of connection points: 2
#     Edge 63, Type (0, 0), BuildingBlock: OJICUG_clean_linker_0, # of connection points: 2
#     Edge 64, Type (0, 0), BuildingBlock: OJICUG_clean_linker_0, # of connection points: 2
#     Edge 65, Type (0, 0), BuildingBlock: OJICUG_clean_linker_0, # of connection points: 2
#     Edge 66, Type (0, 0), BuildingBlock: OJICUG_clean_linker_0, # of connection points: 2
#     Edge 67, Type (0, 0), BuildingBlock: OJICUG_clean_linker_0, # of connection points: 2
#     Edge 68, Type (0, 0), BuildingBlock: OJICUG_clean_linker_0, # of connection points: 2
#     Edge 69, Type (0, 0), BuildingBlock: OJICUG_clean_linker_0, # of connection points: 2
#     Edge 70, Type (0, 0), BuildingBlock: OJICUG_clean_linker_0, # of connection points: 2
#     Edge 71, Type (0, 0), BuildingBlock: OJICUG_clean_linker_0, # of connection points: 2
#     Edge 72, Type (0, 0), BuildingBlock: OJICUG_clean_linker_0, # of connection points: 2
#     Edge 73, Type (0, 0), BuildingBlock: OJICUG_clean_linker_0, # of connection points: 2
#     Edge 74, Type (0, 0), BuildingBlock: OJICUG_clean_linker_0, # of connection points: 2
#     Edge 75, Type (0, 0), BuildingBlock: OJICUG_clean_linker_0, # of connection points: 2
#     Edge 76, Type (0, 0), BuildingBlock: OJICUG_clean_linker_0, # of connection points: 2
#     Edge 77, Type (0, 0), BuildingBlock: OJICUG_clean_linker_0, # of connection points: 2
#     Edge 78, Type (0, 0), BuildingBlock: OJICUG_clean_linker_0, # of connection points: 2
#     Edge 79, Type (0, 0), BuildingBlock: OJICUG_clean_linker_0, # of connection points: 2
#     Edge 80, Type (0, 0), BuildingBlock: OJICUG_clean_linker_0, # of connection points: 2
#     Edge 81, Type (0, 0), BuildingBlock: OJICUG_clean_linker_0, # of connection points: 2
#     Edge 82, Type (0, 0), BuildingBlock: OJICUG_clean_linker_0, # of connection points: 2
#     Edge 83, Type (0, 0), BuildingBlock: OJICUG_clean_linker_0, # of connection points: 2
#     Edge 84, Type (0, 0), BuildingBlock: OJICUG_clean_linker_0, # of connection points: 2
#     Edge 85, Type (0, 0), BuildingBlock: OJICUG_clean_linker_0, # of connection points: 2
#     Edge 86, Type (0, 0), BuildingBlock: OJICUG_clean_linker_0, # of connection points: 2
#     Edge 87, Type (0, 0), BuildingBlock: OJICUG_clean_linker_0, # of connection points: 2
#     Edge 88, Type (0, 0), BuildingBlock: OJICUG_clean_linker_0, # of connection points: 2
#     Edge 89, Type (0, 0), BuildingBlock: OJICUG_clean_linker_0, # of connection points: 2
#     Edge 90, Type (0, 0), BuildingBlock: OJICUG_clean_linker_0, # of connection points: 2
#     Edge 91, Type (0, 0), BuildingBlock: OJICUG_clean_linker_0, # of connection points: 2
#     Edge 92, Type (0, 0), BuildingBlock: OJICUG_clean_linker_0, # of connection points: 2
#     Edge 93, Type (0, 0), BuildingBlock: OJICUG_clean_linker_0, # of connection points: 2
#     Edge 94, Type (0, 0), BuildingBlock: OJICUG_clean_linker_0, # of connection points: 2
#     Edge 95, Type (0, 0), BuildingBlock: OJICUG_clean_linker_0, # of connection points: 2
# Relax obj value: 0.229
# Max RMSD: 0.213
# Mean RMSD: 0.213
data_MOF--net-ukd--node1-UXUYUI_clean_sbu_0--edge1-OJICUG_clean_linker_0
_symmetry_space_group_name_H-M    P1
_symmetry_Int_Tables_number       1
_symmetry_cell_setting            triclinic
loop_
_symmetry_equiv_pos_as_xyz
'x, y, z'
_cell_length_a     50.584959
_cell_length_b     50.58227
_cell_length_c     94.258658
_cell_angle_alpha  89.998874
_cell_angle_beta   90.001406
_cell_angle_gamma 90.00059
loop_
_atom_site_label
_atom_site_type_symbol
_atom_site_fract_x
_atom_site_fract_y
_atom_site_fract_z
_atom_type_partial_charge
Li0 Li 0.21015 0.19369 0.34406 0.0
Li1 Li 0.22452 0.23747 0.35035 0.0
Li2 Li 0.23462 0.2188 0.32661 0.0
Li3 Li 0.25627 0.20132 0.34852 0.0
C4 C 0.17667 0.22989 0.32799 0.0
N5 N 0.12906 0.23501 0.31385 0.0
C6 C 0.15547 0.243 0.33442 0.0
C7 C 0.17369 0.21962 0.31431 0.0
C8 C 0.13155 0.2453 0.32712 0.0
C9 C 0.14946 0.22236 0.30736 0.0
C10 C 0.20953 0.20639 0.3732 0.0
C11 C 0.2 0.20249 0.39818 0.0
N12 N 0.17454 0.20972 0.39563 0.0
C13 C 0.18329 0.21379 0.37083 0.0
C14 C 0.218 0.20069 0.38697 0.0
C15 C 0.1659 0.21535 0.38231 0.0
C16 C 0.18959 0.14824 0.35676 0.0
N17 N 0.18314 0.16762 0.34739 0.0
C18 C 0.13926 0.15047 0.34534 0.0
C19 C 0.15861 0.1688 0.34153 0.0
C20 C 0.1452 0.13038 0.35516 0.0
C21 C 0.17099 0.1292 0.36069 0.0
H22 H 0.20918 0.1478 0.36136 0.0
H23 H 0.15366 0.18423 0.33415 0.0
C24 C 0.20151 0.28702 0.35116 0.0
N25 N 0.21453 0.26938 0.35946 0.0
C26 C 0.19028 0.3096 0.35709 0.0
C27 C 0.20753 0.29635 0.37993 0.0
C28 C 0.2182 0.27379 0.37355 0.0
C29 C 0.19282 0.31438 0.37173 0.0
H30 H 0.19901 0.28301 0.33997 0.0
H31 H 0.2288 0.25951 0.3799 0.0
C32 C 0.23353 0.15628 0.32936 0.0
N33 N 0.21745 0.10504 0.32398 0.0
C34 C 0.24389 0.13534 0.33728 0.0
C35 C 0.21529 0.15113 0.31858 0.0
C36 C 0.23544 0.10958 0.33442 0.0
C37 C 0.20732 0.1251 0.31606 0.0
C38 C 0.27687 0.25291 0.34737 0.0
C39 C 0.29195 0.27181 0.3402 0.0
C40 C 0.28001 0.24967 0.362 0.0
C41 C 0.30999 0.28718 0.34781 0.0
C42 C 0.29825 0.26543 0.36923 0.0
N43 N 0.31274 0.2837 0.36205 0.0
C44 C 0.23261 0.25246 0.30311 0.0
C45 C 0.24917 0.2096 0.29808 0.0
C46 C 0.23548 0.25989 0.28894 0.0
N47 N 0.23939 0.2277 0.30734 0.0
C48 C 0.25243 0.2162 0.2838 0.0
C49 C 0.24551 0.24164 0.27906 0.0
H50 H 0.2249 0.26638 0.31078 0.0
H51 H 0.25432 0.19003 0.30178 0.0
C52 C 0.28436 0.16904 0.367 0.0
N53 N 0.28742 0.18602 0.35597 0.0
C54 C 0.30603 0.15523 0.37232 0.0
C55 C 0.33381 0.1773 0.35513 0.0
C56 C 0.31149 0.19059 0.35005 0.0
C57 C 0.33119 0.15903 0.3663 0.0
H58 H 0.26487 0.16558 0.37133 0.0
H59 H 0.31325 0.20419 0.34125 0.0
O60 O 0.20032 0.22764 0.33496 0.0
O61 O 0.22706 0.20496 0.36217 0.0
O62 O 0.2411 0.18169 0.33222 0.0
O63 O 0.25911 0.23777 0.34003 0.0
H64 H 0.15739 0.25129 0.34495 0.0
H65 H 0.18982 0.20958 0.30911 0.0
H66 H 0.11497 0.2553 0.33199 0.0
H67 H 0.14688 0.21442 0.29679 0.0
H68 H 0.20629 0.19818 0.4089 0.0
H69 H 0.17643 0.21824 0.36027 0.0
H70 H 0.2383 0.19506 0.38899 0.0
H71 H 0.14553 0.22104 0.38062 0.0
H72 H 0.11961 0.15266 0.34095 0.0
H73 H 0.17678 0.1139 0.3681 0.0
H74 H 0.17882 0.32255 0.35033 0.0
H75 H 0.21042 0.29939 0.39119 0.0
H76 H 0.2581 0.13893 0.34561 0.0
H77 H 0.20723 0.16705 0.31228 0.0
H78 H 0.24315 0.0932 0.34054 0.0
H79 H 0.19306 0.12086 0.30781 0.0
H80 H 0.28971 0.27455 0.32887 0.0
H81 H 0.26853 0.23515 0.36774 0.0
H82 H 0.3218 0.30189 0.3424 0.0
H83 H 0.30088 0.26313 0.38055 0.0
H84 H 0.23019 0.27978 0.28578 0.0
H85 H 0.25991 0.20143 0.27652 0.0
H86 H 0.30284 0.14098 0.38072 0.0
H87 H 0.35282 0.18108 0.35026 0.0
Li88 Li 0.01198 0.97416 0.60055 0.0
Li89 Li 0.05615 0.95982 0.59565 0.0
Li90 Li 0.04829 0.00596 0.5996 0.0
Li91 Li 0.03296 0.98385 0.57728 0.0
C92 C 0.03986 0.96045 0.62459 0.0
N93 N 0.03247 0.92716 0.64749 0.0
C94 C 0.0339 0.93379 0.62242 0.0
C95 C 0.04202 0.97021 0.63841 0.0
C96 C 0.03027 0.91726 0.63413 0.0
C97 C 0.03822 0.95306 0.64985 0.0
C98 C 0.02311 0.92554 0.57888 0.0
C99 C 0.03322 0.8982 0.55862 0.0
N100 N 0.02192 0.87717 0.56524 0.0
C101 C 0.01133 0.9037 0.58542 0.0
C102 C 0.03394 0.92283 0.56531 0.0
C103 C 0.01104 0.87939 0.57838 0.0
C104 C 0.96311 0.9493 0.60085 0.0
N105 N 0.97934 0.96435 0.60899 0.0
C106 C 0.95033 0.95982 0.62886 0.0
C107 C 0.97323 0.97018 0.62269 0.0
C108 C 0.93369 0.94324 0.62087 0.0
C109 C 0.9402 0.93839 0.6066 0.0
H110 H 0.96846 0.94505 0.58998 0.0
H111 H 0.98644 0.9823 0.62893 0.0
C112 C 0.09787 0.9381 0.61118 0.0
N113 N 0.08216 0.93306 0.59979 0.0
C114 C 0.11667 0.91967 0.61559 0.0
C115 C 0.10344 0.89137 0.59622 0.0
C116 C 0.08494 0.91041 0.59216 0.0
C117 C 0.1194 0.89572 0.60819 0.0
H118 H 0.09565 0.95647 0.61693 0.0
H119 H 0.07281 0.90686 0.58299 0.0
C120 C 0.99656 0.0263 0.5967 0.0
N121 N 0.96344 0.06196 0.60999 0.0
C122 C 0.97738 0.03983 0.58889 0.0
C123 C 0.9989 0.03087 0.61127 0.0
C124 C 0.96082 0.0578 0.59581 0.0
C125 C 0.98196 0.04898 0.6178 0.0
C126 C 0.09501 0.98231 0.58225 0.0
C127 C 0.11463 0.99135 0.59149 0.0
C128 C 0.10159 0.96456 0.57144 0.0
C129 C 0.14052 0.98223 0.58986 0.0
C130 C 0.12771 0.9559 0.57017 0.0
N131 N 0.14646 0.96481 0.57934 0.0
C132 C 0.07706 0.03569 0.61923 0.0
C133 C 0.06139 0.06035 0.59955 0.0
C134 C 0.09096 0.05756 0.62427 0.0
N135 N 0.06303 0.03739 0.60698 0.0
C136 C 0.07498 0.08277 0.60422 0.0
C137 C 0.09044 0.0814 0.6166 0.0
H138 H 0.07832 0.017 0.62475 0.0
H139 H 0.05015 0.06098 0.58979 0.0
C140 C 0.00064 0.98511 0.55327 0.0
N141 N 0.02588 0.98876 0.55778 0.0
C142 C 0.99428 0.9883 0.53897 0.0
C143 C 0.04006 0.99893 0.53424 0.0
C144 C 0.0455 0.99565 0.54866 0.0
C145 C 0.01414 0.99523 0.52921 0.0
H146 H 0.98547 0.97974 0.56084 0.0
H147 H 0.06539 0.99848 0.55258 0.0
O148 O 0.04308 0.97716 0.6133 0.0
O149 O 0.02319 0.94961 0.58553 0.0
O150 O 0.01279 0.00856 0.59006 0.0
O151 O 0.06941 0.99039 0.58395 0.0
H152 H 0.03217 0.92595 0.61182 0.0
H153 H 0.04641 0.99086 0.64028 0.0
H154 H 0.02567 0.89658 0.63259 0.0
H155 H 0.03979 0.96036 0.66061 0.0
H156 H 0.04169 0.89581 0.54815 0.0
H157 H 0.00239 0.90545 0.5958 0.0
H158 H 0.04303 0.93944 0.56003 0.0
H159 H 0.00209 0.86232 0.58335 0.0
H160 H 0.94594 0.96446 0.63983 0.0
H161 H 0.92833 0.92543 0.60004 0.0
H162 H 0.12888 0.92412 0.62472 0.0
H163 H 0.10469 0.87314 0.59024 0.0
H164 H 0.97531 0.03646 0.5776 0.0
H165 H 0.01356 0.02052 0.61751 0.0
H166 H 0.94588 0.06843 0.58989 0.0
H167 H 0.98353 0.05269 0.62907 0.0
H168 H 0.10987 0.00503 0.59993 0.0
H169 H 0.08665 0.95732 0.56422 0.0
H170 H 0.15588 0.98892 0.59699 0.0
H171 H 0.13304 0.94202 0.56192 0.0
H172 H 0.10297 0.05541 0.63371 0.0
H173 H 0.07384 0.1008 0.59806 0.0
H174 H 0.97397 0.98566 0.53564 0.0
H175 H 0.05605 0.00396 0.52709 0.0
Li176 Li 0.28884 0.80802 0.84469 0.0
Li177 Li 0.27613 0.76314 0.85038 0.0
Li178 Li 0.26595 0.78256 0.82644 0.0
Li179 Li 0.2425 0.79809 0.84844 0.0
C180 C 0.32708 0.77032 0.83741 0.0
N181 N 0.38003 0.76028 0.84212 0.0
C182 C 0.33719 0.77068 0.8512 0.0
C183 C 0.34386 0.76482 0.82601 0.0
C184 C 0.36402 0.76555 0.85337 0.0
C185 C 0.37058 0.75981 0.82861 0.0
C186 C 0.2709 0.79198 0.87639 0.0
C187 C 0.24689 0.78092 0.8977 0.0
N188 N 0.26908 0.78543 0.90548 0.0
C189 C 0.29339 0.79677 0.88462 0.0
C190 C 0.24739 0.78419 0.88298 0.0
C191 C 0.29209 0.79323 0.89931 0.0
C192 C 0.30938 0.85199 0.85881 0.0
N193 N 0.31463 0.83468 0.84817 0.0
C194 C 0.35691 0.85443 0.8443 0.0
C195 C 0.33753 0.83598 0.84067 0.0
C196 C 0.35244 0.87219 0.85556 0.0
C197 C 0.32792 0.87116 0.8626 0.0
H198 H 0.2908 0.85072 0.86446 0.0
H199 H 0.34102 0.82238 0.83204 0.0
C200 C 0.30149 0.71435 0.85037 0.0
N201 N 0.28742 0.73068 0.85898 0.0
C202 C 0.31357 0.69174 0.85583 0.0
C203 C 0.29488 0.70196 0.87875 0.0
C204 C 0.28342 0.72459 0.87287 0.0
C205 C 0.31075 0.68547 0.87028 0.0
H206 H 0.30409 0.71937 0.83931 0.0
H207 H 0.27174 0.73737 0.8795 0.0
C208 C 0.2669 0.84311 0.82832 0.0
N209 N 0.28681 0.89168 0.8203 0.0
C210 C 0.25931 0.86595 0.8356 0.0
C211 C 0.2845 0.84493 0.81694 0.0
C212 C 0.26963 0.89034 0.83139 0.0
C213 C 0.29437 0.86969 0.81306 0.0
C214 C 0.21971 0.74854 0.84134 0.0
C215 C 0.20221 0.74557 0.82998 0.0
C216 C 0.21352 0.73757 0.85453 0.0
C217 C 0.1785 0.73194 0.83208 0.0
C218 C 0.18962 0.7241 0.8562 0.0
N219 N 0.17274 0.7216 0.84504 0.0
C220 C 0.27499 0.75323 0.80173 0.0
C221 C 0.24702 0.79042 0.79865 0.0
C222 C 0.27256 0.74667 0.78741 0.0
N223 N 0.26231 0.77476 0.807 0.0
C224 C 0.24406 0.78462 0.78425 0.0
C225 C 0.25691 0.76247 0.77845 0.0
H226 H 0.28689 0.7411 0.80871 0.0
H227 H 0.23718 0.80742 0.80319 0.0
C228 C 0.21456 0.83231 0.86556 0.0
N229 N 0.21082 0.81311 0.85569 0.0
C230 C 0.19312 0.84623 0.87104 0.0
C231 C 0.16413 0.82056 0.85601 0.0
C232 C 0.18624 0.80703 0.85083 0.0
C233 C 0.16747 0.84058 0.8662 0.0
H234 H 0.23439 0.83721 0.86896 0.0
H235 H 0.18378 0.79221 0.84271 0.0
O236 O 0.30093 0.77549 0.835 0.0
O237 O 0.27177 0.7957 0.86203 0.0
O238 O 0.25769 0.81897 0.83255 0.0
O239 O 0.24293 0.76187 0.83946 0.0
H240 H 0.32445 0.77484 0.86012 0.0
H241 H 0.3363 0.76452 0.81526 0.0
H242 H 0.37212 0.76577 0.86399 0.0
H243 H 0.38382 0.75557 0.81989 0.0
H244 H 0.22888 0.77476 0.90292 0.0
H245 H 0.31163 0.80325 0.87974 0.0
H246 H 0.22976 0.7805 0.87682 0.0
H247 H 0.30937 0.79676 0.9058 0.0
H248 H 0.37548 0.85408 0.83861 0.0
H249 H 0.3231 0.8848 0.87105 0.0
H250 H 0.32579 0.67991 0.84886 0.0
H251 H 0.29157 0.69764 0.88986 0.0
H252 H 0.2458 0.8648 0.84448 0.0
H253 H 0.29072 0.82737 0.81129 0.0
H254 H 0.26405 0.90818 0.83696 0.0
H255 H 0.30812 0.87141 0.80431 0.0
H256 H 0.20684 0.75386 0.81968 0.0
H257 H 0.22705 0.7394 0.86336 0.0
H258 H 0.16469 0.7296 0.82341 0.0
H259 H 0.1845 0.71557 0.86636 0.0
H260 H 0.2825 0.72921 0.78345 0.0
H261 H 0.23207 0.79752 0.77771 0.0
H262 H 0.19673 0.86192 0.87861 0.0
H263 H 0.1447 0.81562 0.85197 0.0
Li264 Li 0.44114 0.03813 0.09478 0.0
Li265 Li 0.48566 0.02504 0.09983 0.0
Li266 Li 0.4649 0.01385 0.07665 0.0
Li267 Li 0.4503 0.99192 0.09929 0.0
C268 C 0.47285 0.07328 0.07858 0.0
N269 N 0.47191 0.12301 0.06643 0.0
C270 C 0.48149 0.09527 0.08629 0.0
C271 C 0.4641 0.07656 0.06462 0.0
C272 C 0.48074 0.12025 0.07998 0.0
C273 C 0.46369 0.10187 0.05869 0.0
C274 C 0.45836 0.0356 0.1246 0.0
C275 C 0.46347 0.03699 0.15002 0.0
N276 N 0.46712 0.0636 0.14931 0.0
C277 C 0.46208 0.06294 0.12412 0.0
C278 C 0.45898 0.02248 0.13764 0.0
C279 C 0.4665 0.07676 0.13673 0.0
C280 C 0.39979 0.05973 0.11056 0.0
N281 N 0.41466 0.06447 0.09882 0.0
C282 C 0.39241 0.10562 0.09507 0.0
C283 C 0.41084 0.0866 0.09088 0.0
C284 C 0.37749 0.10171 0.10748 0.0
C285 C 0.38104 0.0781 0.11509 0.0
H286 H 0.40271 0.04169 0.11652 0.0
H287 H 0.42212 0.08976 0.08135 0.0
C288 C 0.53243 0.05341 0.10007 0.0
N289 N 0.51792 0.03661 0.10818 0.0
C290 C 0.55421 0.06644 0.1058 0.0
C291 C 0.54707 0.04312 0.12786 0.0
C292 C 0.52512 0.03074 0.12173 0.0
C293 C 0.56137 0.0618 0.11995 0.0
H294 H 0.5265 0.05742 0.08927 0.0
H295 H 0.51334 0.01723 0.12796 0.0
C296 C 0.40336 0.01509 0.08106 0.0
N297 N 0.35261 0.03359 0.07675 0.0
C298 C 0.38278 0.0067 0.08986 0.0
C299 C 0.39811 0.03274 0.07 0.0
C300 C 0.35726 0.01632 0.08753 0.0
C301 C 0.37233 0.04191 0.06801 0.0
C302 C 0.50288 0.97328 0.09646 0.0
C303 C 0.52265 0.96044 0.08874 0.0
C304 C 0.50069 0.96888 0.11105 0.0
C305 C 0.53993 0.94331 0.09577 0.0
C306 C 0.51835 0.95163 0.11769 0.0
N307 N 0.53744 0.93931 0.10997 0.0
C308 C 0.4972 0.01306 0.0527 0.0
C309 C 0.45271 0.00108 0.04806 0.0
C310 C 0.5037 0.00997 0.03841 0.0
N311 N 0.47207 0.00869 0.05718 0.0
C312 C 0.4583 0.99791 0.03365 0.0
C313 C 0.4841 0.00243 0.02863 0.0
H314 H 0.51217 0.01897 0.06026 0.0
H315 H 0.43292 0.99763 0.05197 0.0
C316 C 0.41898 0.96384 0.11818 0.0
N317 N 0.43618 0.96068 0.10727 0.0
C318 C 0.40546 0.94214 0.12369 0.0
C319 C 0.42845 0.91408 0.10697 0.0
C320 C 0.4414 0.93645 0.1017 0.0
C321 C 0.40982 0.91682 0.11796 0.0
H322 H 0.41502 0.98345 0.12225 0.0
H323 H 0.45513 0.9346 0.09296 0.0
O324 O 0.47377 0.0486 0.0845 0.0
O325 O 0.45442 0.02158 0.11237 0.0
O326 O 0.42863 0.00657 0.08346 0.0
O327 O 0.48591 0.99016 0.08972 0.0
H328 H 0.48884 0.0931 0.09699 0.0
H329 H 0.45753 0.05982 0.05843 0.0
H330 H 0.48727 0.13744 0.08585 0.0
H331 H 0.45682 0.1047 0.04793 0.0
H332 H 0.46409 0.02709 0.16019 0.0
H333 H 0.46152 0.07336 0.11413 0.0
H334 H 0.4562 0.00128 0.13817 0.0
H335 H 0.46945 0.09794 0.13651 0.0
H336 H 0.39047 0.12352 0.08886 0.0
H337 H 0.36956 0.07388 0.12452 0.0
H338 H 0.56501 0.08046 0.09933 0.0
H339 H 0.55204 0.0391 0.13883 0.0
H340 H 0.38651 0.99311 0.09849 0.0
H341 H 0.41384 0.03959 0.06316 0.0
H342 H 0.34116 0.01011 0.09431 0.0
H343 H 0.36801 0.05572 0.05956 0.0
H344 H 0.52461 0.96369 0.07743 0.0
H345 H 0.48556 0.9787 0.11721 0.0
H346 H 0.55533 0.93323 0.08993 0.0
H347 H 0.51689 0.94806 0.12898 0.0
H348 H 0.52394 0.01323 0.03509 0.0
H349 H 0.44248 0.99237 0.0265 0.0
H350 H 0.39094 0.94542 0.13194 0.0
H351 H 0.43268 0.89496 0.10234 0.0
Li352 Li 0.25603 0.79842 0.15096 0.0
Li353 Li 0.23175 0.78444 0.17212 0.0
Li354 Li 0.22057 0.76693 0.14856 0.0
Li355 Li 0.21024 0.81278 0.15508 0.0
C356 C 0.27914 0.75379 0.15908 0.0
N357 N 0.33141 0.73807 0.15847 0.0
C358 C 0.29429 0.75433 0.17148 0.0
C359 C 0.29047 0.74502 0.14641 0.0
C360 C 0.32071 0.74635 0.17094 0.0
C361 C 0.31697 0.73723 0.1463 0.0
C362 C 0.23962 0.84688 0.16922 0.0
C363 C 0.21792 0.88318 0.18103 0.0
N364 N 0.23329 0.90049 0.17369 0.0
C365 C 0.25528 0.86501 0.16183 0.0
C366 C 0.22087 0.856 0.17895 0.0
C367 C 0.25176 0.89204 0.16423 0.0
C368 C 0.29071 0.81959 0.1306 0.0
N369 N 0.28919 0.81061 0.14416 0.0
C370 C 0.33265 0.82661 0.14913 0.0
C371 C 0.30963 0.81359 0.15337 0.0
C372 C 0.33437 0.83728 0.13538 0.0
C373 C 0.31319 0.83304 0.12597 0.0
H374 H 0.27389 0.81761 0.12362 0.0
H375 H 0.30759 0.80696 0.16422 0.0
C376 C 0.23202 0.75059 0.19602 0.0
N377 N 0.23521 0.77602 0.1917 0.0
C378 C 0.23475 0.74401 0.21034 0.0
C379 C 0.24475 0.78979 0.2154 0.0
C380 C 0.24157 0.79552 0.20101 0.0
C381 C 0.24128 0.76375 0.22022 0.0
H382 H 0.22754 0.73538 0.18833 0.0
H383 H 0.24439 0.8155 0.19726 0.0
C384 C 0.21874 0.79317 0.12403 0.0
N385 N 0.20191 0.77851 0.09728 0.0
C386 C 0.19463 0.80247 0.11878 0.0
C387 C 0.23441 0.77664 0.11564 0.0
C388 C 0.18645 0.79478 0.10523 0.0
C389 C 0.22551 0.76937 0.10216 0.0
C390 C 0.18202 0.76892 0.1741 0.0
C391 C 0.17712 0.74173 0.17407 0.0
C392 C 0.17295 0.78443 0.18537 0.0
C393 C 0.16337 0.73044 0.18541 0.0
C394 C 0.15934 0.77238 0.19653 0.0
N395 N 0.15488 0.74587 0.19632 0.0
C396 C 0.2198 0.71358 0.13887 0.0
C397 C 0.18264 0.73972 0.13265 0.0
C398 C 0.20811 0.69122 0.1328 0.0
N399 N 0.20685 0.73714 0.13875 0.0
C400 C 0.17048 0.71807 0.12624 0.0
C401 C 0.18307 0.69336 0.12646 0.0
H402 H 0.23882 0.712 0.14403 0.0
H403 H 0.17244 0.75848 0.13314 0.0
C404 C 0.19231 0.86258 0.14503 0.0
N405 N 0.18517 0.84017 0.152 0.0
C406 C 0.17335 0.88165 0.14163 0.0
C407 C 0.14005 0.85399 0.15248 0.0
C408 C 0.15969 0.83566 0.15583 0.0
C409 C 0.14667 0.8773 0.14515 0.0
H410 H 0.21262 0.86536 0.14179 0.0
H411 H 0.15444 0.81738 0.16105 0.0
O412 O 0.25331 0.76169 0.15936 0.0
O413 O 0.24257 0.82034 0.16693 0.0
O414 O 0.22698 0.80023 0.13732 0.0
O415 O 0.19576 0.78029 0.1632 0.0
H416 H 0.28582 0.76106 0.18138 0.0
H417 H 0.27895 0.74433 0.13675 0.0
H418 H 0.33273 0.7468 0.18043 0.0
H419 H 0.32604 0.73052 0.13656 0.0
H420 H 0.20338 0.89052 0.18846 0.0
H421 H 0.26987 0.85835 0.15425 0.0
H422 H 0.20855 0.84223 0.18473 0.0
H423 H 0.26367 0.9063 0.15855 0.0
H424 H 0.34852 0.8291 0.15672 0.0
H425 H 0.31324 0.84132 0.11538 0.0
H426 H 0.2323 0.72362 0.21359 0.0
H427 H 0.24966 0.8056 0.22268 0.0
H428 H 0.18227 0.81529 0.12512 0.0
H429 H 0.25316 0.76937 0.11954 0.0
H430 H 0.16777 0.80171 0.10105 0.0
H431 H 0.23736 0.75647 0.09558 0.0
H432 H 0.18403 0.72942 0.16545 0.0
H433 H 0.17659 0.8055 0.18554 0.0
H434 H 0.15953 0.7094 0.18557 0.0
H435 H 0.15236 0.78411 0.20536 0.0
H436 H 0.21832 0.67242 0.13322 0.0
H437 H 0.15094 0.72036 0.1217 0.0
H438 H 0.17952 0.89936 0.13611 0.0
H439 H 0.11975 0.84934 0.15513 0.0
Li440 Li 0.46428 0.98302 0.42206 0.0
Li441 Li 0.45104 0.00713 0.40069 0.0
Li442 Li 0.43766 0.96101 0.40465 0.0
Li443 Li 0.48365 0.97214 0.39902 0.0
C444 C 0.40181 0.98891 0.41754 0.0
N445 N 0.34815 0.97943 0.41961 0.0
C446 C 0.38401 0.00338 0.40928 0.0
C447 C 0.3923 0.96972 0.42692 0.0
C448 C 0.35696 0.99829 0.41047 0.0
C449 C 0.36511 0.96518 0.42778 0.0
C450 C 0.49536 0.03093 0.40986 0.0
C451 C 0.51461 0.0686 0.39806 0.0
N452 N 0.51199 0.08295 0.41018 0.0
C453 C 0.49298 0.046 0.42222 0.0
C454 C 0.50638 0.04224 0.3977 0.0
C455 C 0.50146 0.07229 0.42216 0.0
C456 C 0.49783 0.98739 0.44571 0.0
N457 N 0.47205 0.98678 0.44168 0.0
C458 C 0.45793 0.99232 0.46567 0.0
C459 C 0.45217 0.98927 0.45128 0.0
C460 C 0.4844 0.99291 0.47019 0.0
C461 C 0.5045 0.99036 0.45999 0.0
H462 H 0.51322 0.98573 0.43779 0.0
H463 H 0.43186 0.98898 0.44776 0.0
C464 C 0.42895 0.04051 0.38001 0.0
N465 N 0.43849 0.0399 0.39348 0.0
C466 C 0.41519 0.0626 0.37511 0.0
C467 C 0.42233 0.08355 0.39783 0.0
C468 C 0.43564 0.06088 0.40235 0.0
C469 C 0.41118 0.08435 0.38417 0.0
H470 H 0.43067 0.02324 0.37333 0.0
H471 H 0.44254 0.05955 0.41317 0.0
C472 C 0.48141 0.93462 0.42473 0.0
N473 N 0.50491 0.91092 0.44794 0.0
C474 C 0.50885 0.93146 0.42521 0.0
C475 C 0.46591 0.92557 0.43601 0.0
C476 C 0.52035 0.91943 0.43704 0.0
C477 C 0.47817 0.91371 0.44766 0.0
C478 C 0.45961 0.97178 0.3738 0.0
C479 C 0.45227 0.94784 0.36753 0.0
C480 C 0.47577 0.9894 0.36637 0.0
C481 C 0.4615 0.9418 0.35394 0.0
C482 C 0.48461 0.98261 0.35281 0.0
N483 N 0.47736 0.95915 0.34693 0.0
C484 C 0.39151 0.94257 0.39129 0.0
C485 C 0.41152 0.91155 0.40677 0.0
C486 C 0.37242 0.92408 0.38729 0.0
N487 N 0.4106 0.93596 0.40079 0.0
C488 C 0.39284 0.89242 0.40308 0.0
C489 C 0.37315 0.89847 0.39306 0.0
H490 H 0.39147 0.96209 0.38659 0.0
H491 H 0.42718 0.90669 0.41412 0.0
C492 C 0.53757 0.97257 0.38999 0.0
N493 N 0.51425 0.95921 0.38963 0.0
C494 C 0.56021 0.96155 0.38386 0.0
C495 C 0.53418 0.9236 0.3769 0.0
C496 C 0.51224 0.93511 0.38336 0.0
C497 C 0.55861 0.93674 0.37721 0.0
H498 H 0.53871 0.99147 0.39532 0.0
H499 H 0.49365 0.92458 0.38365 0.0
O500 O 0.42841 0.99322 0.41633 0.0
O501 O 0.48722 0.00515 0.4097 0.0
O502 O 0.46983 0.94691 0.4134 0.0
O503 O 0.45107 0.97792 0.38716 0.0
H504 H 0.39097 0.01826 0.40194 0.0
H505 H 0.4058 0.95816 0.4333 0.0
H506 H 0.34296 0.00927 0.4041 0.0
H507 H 0.3575 0.95025 0.43492 0.0
H508 H 0.52311 0.07764 0.38871 0.0
H509 H 0.48442 0.03762 0.43172 0.0
H510 H 0.50856 0.0308 0.38808 0.0
H511 H 0.49961 0.08423 0.43163 0.0
H512 H 0.44182 0.99397 0.47319 0.0
H513 H 0.52516 0.99114 0.46296 0.0
H514 H 0.4065 0.06192 0.36462 0.0
H515 H 0.42001 0.09987 0.40516 0.0
H516 H 0.52117 0.93843 0.41662 0.0
H517 H 0.44467 0.92805 0.43586 0.0
H518 H 0.54157 0.91697 0.43759 0.0
H519 H 0.46643 0.90681 0.45651 0.0
H520 H 0.4398 0.93398 0.37316 0.0
H521 H 0.48149 0.00806 0.37105 0.0
H522 H 0.4561 0.92329 0.34898 0.0
H523 H 0.49723 0.996 0.34696 0.0
H524 H 0.35748 0.92967 0.37963 0.0
H525 H 0.39445 0.87282 0.40761 0.0
H526 H 0.57876 0.9722 0.38435 0.0
H527 H 0.53228 0.9042 0.37213 0.0
Li528 Li 0.2432 0.2015 0.65083 0.0
Li529 Li 0.26533 0.21769 0.67298 0.0
Li530 Li 0.2749 0.2379 0.64947 0.0
Li531 Li 0.28954 0.19388 0.65484 0.0
C532 C 0.22258 0.25303 0.65306 0.0
N533 N 0.18655 0.28487 0.63917 0.0
C534 C 0.20814 0.27192 0.66061 0.0
C535 C 0.21872 0.25033 0.63845 0.0
C536 C 0.19001 0.28783 0.65339 0.0
C537 C 0.20041 0.26662 0.63162 0.0
C538 C 0.26739 0.1558 0.66923 0.0
C539 C 0.29468 0.12508 0.6822 0.0
N540 N 0.28556 0.10505 0.67391 0.0
C541 C 0.25813 0.13491 0.66091 0.0
C542 C 0.28567 0.15087 0.68003 0.0
C543 C 0.2676 0.10938 0.66342 0.0
C544 C 0.21443 0.17074 0.63181 0.0
N545 N 0.21199 0.18626 0.64349 0.0
C546 C 0.16619 0.17545 0.64553 0.0
C547 C 0.18849 0.18914 0.6503 0.0
C548 C 0.16825 0.15862 0.6337 0.0
C549 C 0.19272 0.15671 0.6267 0.0
H550 H 0.23353 0.16853 0.62679 0.0
H551 H 0.18726 0.20155 0.65962 0.0
C552 C 0.26654 0.24989 0.69709 0.0
N553 N 0.26073 0.22514 0.69245 0.0
C554 C 0.26351 0.25635 0.71139 0.0
C555 C 0.24854 0.2117 0.71584 0.0
C556 C 0.25183 0.20612 0.70144 0.0
C557 C 0.25442 0.23712 0.721 0.0
H558 H 0.2735 0.26459 0.68963 0.0
H559 H 0.24736 0.1866 0.69741 0.0
C560 C 0.288 0.20886 0.62552 0.0
N561 N 0.31976 0.21524 0.60192 0.0
C562 C 0.3149 0.21436 0.62712 0.0
C563 C 0.27723 0.20661 0.61192 0.0
C564 C 0.33064 0.2175 0.61506 0.0
C565 C 0.29361 0.20991 0.60012 0.0
C566 C 0.32385 0.2287 0.67076 0.0
C567 C 0.34492 0.24038 0.66348 0.0
C568 C 0.32774 0.21919 0.68453 0.0
C569 C 0.36966 0.24192 0.67002 0.0
C570 C 0.35277 0.22114 0.69071 0.0
N571 N 0.37304 0.23234 0.68338 0.0
C572 C 0.29901 0.28701 0.64912 0.0
C573 C 0.27996 0.27593 0.62695 0.0
C574 C 0.3103 0.30974 0.64338 0.0
N575 N 0.28478 0.27034 0.64081 0.0
C576 C 0.29069 0.29866 0.62076 0.0
C577 C 0.30661 0.31566 0.62893 0.0
H578 H 0.30242 0.28211 0.66014 0.0
H579 H 0.26837 0.26246 0.62058 0.0
C580 C 0.31044 0.15024 0.64057 0.0
N581 N 0.3164 0.16788 0.65098 0.0
C582 C 0.32882 0.13118 0.63641 0.0
C583 C 0.35926 0.14866 0.65377 0.0
C584 C 0.34012 0.1671 0.65774 0.0
C585 C 0.35388 0.13045 0.64287 0.0
H586 H 0.29135 0.15112 0.63542 0.0
H587 H 0.34453 0.18091 0.66608 0.0
O588 O 0.24046 0.23741 0.66001 0.0
O589 O 0.25892 0.18103 0.66668 0.0
O590 O 0.27206 0.20614 0.63714 0.0
O591 O 0.29941 0.22724 0.66458 0.0
H592 H 0.21095 0.27425 0.67193 0.0
H593 H 0.22972 0.23586 0.63242 0.0
H594 H 0.17869 0.30253 0.65909 0.0
H595 H 0.19723 0.26476 0.62031 0.0
H596 H 0.30898 0.12101 0.69045 0.0
H597 H 0.24399 0.1384 0.6525 0.0
H598 H 0.29302 0.16683 0.68657 0.0
H599 H 0.26075 0.09304 0.657 0.0
H600 H 0.14767 0.17766 0.65118 0.0
H601 H 0.19539 0.14361 0.61772 0.0
H602 H 0.26793 0.27628 0.71484 0.0
H603 H 0.2418 0.19618 0.72288 0.0
H604 H 0.32351 0.21616 0.63754 0.0
H605 H 0.25639 0.20256 0.6105 0.0
H606 H 0.3515 0.22175 0.61615 0.0
H607 H 0.28553 0.20829 0.58953 0.0
H608 H 0.34225 0.24824 0.65291 0.0
H609 H 0.31171 0.21024 0.69038 0.0
H610 H 0.38615 0.25081 0.66448 0.0
H611 H 0.35609 0.21374 0.70133 0.0
H612 H 0.32268 0.3219 0.65009 0.0
H613 H 0.2869 0.30261 0.60966 0.0
H614 H 0.32344 0.11728 0.62818 0.0
H615 H 0.37833 0.14925 0.65896 0.0
Li616 Li 0.04999 0.99445 0.90036 0.0
Li617 Li 0.03555 0.01732 0.92195 0.0
Li618 Li 0.01717 0.03056 0.89886 0.0
Li619 Li 0.06383 0.0398 0.9056 0.0
C620 C 0.00233 0.97196 0.90983 0.0
N621 N 0.97971 0.92248 0.91246 0.0
C622 C 0.00804 0.95619 0.92161 0.0
C623 C 0.98482 0.96273 0.89948 0.0
C624 C 0.99649 0.93119 0.92272 0.0
C625 C 0.97367 0.93761 0.90098 0.0
C626 C 0.09832 0.00963 0.91867 0.0
C627 C 0.13518 0.03119 0.93008 0.0
N628 N 0.15214 0.01585 0.9225 0.0
C629 C 0.11613 0.994 0.91104 0.0
C630 C 0.10791 0.02829 0.92833 0.0
C631 C 0.14326 0.99746 0.91311 0.0
C632 C 0.07316 0.96082 0.87958 0.0
N633 N 0.06249 0.96162 0.89282 0.0
C634 C 0.0771 0.91744 0.89737 0.0
C635 C 0.06415 0.94047 0.90168 0.0
C636 C 0.08887 0.91632 0.88389 0.0
C637 C 0.08627 0.93823 0.87484 0.0
H638 H 0.07296 0.97816 0.87294 0.0
H639 H 0.05673 0.94194 0.91238 0.0
C640 C 0.00076 0.0119 0.94521 0.0
N641 N 0.02665 0.01252 0.94139 0.0
C642 C 0.9937 0.00862 0.95943 0.0
C643 C 0.04011 0.00631 0.96544 0.0
C644 C 0.04625 0.00967 0.95112 0.0
C645 C 0.01353 0.00578 0.96977 0.0
H646 H 0.9856 0.01394 0.93719 0.0
H647 H 0.06666 0.01002 0.94778 0.0
C648 C 0.04465 0.02302 0.87342 0.0
N649 N 0.03295 0.01893 0.84489 0.0
C650 C 0.05799 0.03875 0.86356 0.0
C651 C 0.02534 0.00525 0.86879 0.0
C652 C 0.0518 0.03638 0.84917 0.0
C653 C 0.01971 0.00346 0.85432 0.0
C654 C 0.02075 0.06618 0.92575 0.0
C655 C 0.99346 0.06997 0.92683 0.0
C656 C 0.03726 0.07439 0.93679 0.0
C657 C 0.9831 0.08168 0.93905 0.0
C658 C 0.02613 0.08597 0.94885 0.0
N659 N 0.9995 0.08933 0.94972 0.0
C660 C 0.96259 0.03837 0.89286 0.0
C661 C 0.99256 0.06357 0.87906 0.0
C662 C 0.9411 0.05149 0.88672 0.0
N663 N 0.98768 0.04493 0.88909 0.0
C664 C 0.97174 0.07675 0.87246 0.0
C665 C 0.94553 0.07133 0.87651 0.0
H666 H 0.95934 0.02372 0.90104 0.0
H667 H 0.01272 0.06873 0.87644 0.0
C668 C 0.11302 0.05813 0.89515 0.0
N669 N 0.0911 0.065 0.90263 0.0
C670 C 0.1321 0.07711 0.89184 0.0
C671 C 0.10541 0.10992 0.90377 0.0
C672 C 0.08706 0.09024 0.90702 0.0
C673 C 0.12823 0.10357 0.89594 0.0
H674 H 0.11542 0.03801 0.8915 0.0
H675 H 0.06913 0.0953 0.91262 0.0
O676 O 0.01319 0.99661 0.90861 0.0
O677 O 0.07167 0.00671 0.9167 0.0
O678 O 0.05022 0.02537 0.88755 0.0
O679 O 0.03121 0.0541 0.91404 0.0
H680 H 0.02151 0.96302 0.92973 0.0
H681 H 0.97977 0.97488 0.89044 0.0
H682 H 0.0009 0.91869 0.93173 0.0
H683 H 0.96015 0.93018 0.89303 0.0
H684 H 0.14285 0.04567 0.93745 0.0
H685 H 0.10916 0.97945 0.90352 0.0
H686 H 0.09446 0.04063 0.93429 0.0
H687 H 0.15726 0.98557 0.90723 0.0
H688 H 0.07869 0.90105 0.90472 0.0
H689 H 0.09565 0.93859 0.86452 0.0
H690 H 0.97297 0.00796 0.96225 0.0
H691 H 0.05603 0.00448 0.97306 0.0
H692 H 0.07292 0.05268 0.86701 0.0
H693 H 0.01491 0.99295 0.87631 0.0
H694 H 0.06195 0.04842 0.84141 0.0
H695 H 0.00483 0.98977 0.85058 0.0
H696 H 0.9804 0.06372 0.9184 0.0
H697 H 0.05842 0.0716 0.93613 0.0
H698 H 0.962 0.0846 0.94007 0.0
H699 H 0.03866 0.09224 0.95752 0.0
H700 H 0.92136 0.04685 0.89038 0.0
H701 H 0.97624 0.0914 0.86445 0.0
H702 H 0.14945 0.07114 0.88593 0.0
H703 H 0.10112 0.13007 0.90688 0.0
Li704 Li 0.74133 0.79932 0.64976 0.0
Li705 Li 0.78646 0.8146 0.6548 0.0
Li706 Li 0.77739 0.76834 0.64857 0.0
Li707 Li 0.76402 0.78648 0.6715 0.0
C708 C 0.78101 0.79349 0.62388 0.0
N709 N 0.80057 0.77765 0.59787 0.0
C710 C 0.80545 0.80287 0.61914 0.0
C711 C 0.76639 0.77626 0.61534 0.0
C712 C 0.81502 0.79458 0.60597 0.0
C713 C 0.77666 0.76841 0.60225 0.0
C714 C 0.7556 0.84877 0.66778 0.0
C715 C 0.77689 0.88593 0.67905 0.0
N716 N 0.76117 0.90267 0.67154 0.0
C717 C 0.73961 0.86635 0.6602 0.0
C718 C 0.77434 0.85862 0.67732 0.0
C719 C 0.74274 0.89353 0.66225 0.0
C720 C 0.68752 0.81505 0.65031 0.0
N721 N 0.70892 0.81112 0.64183 0.0
C722 C 0.68817 0.83421 0.62277 0.0
C723 C 0.70936 0.81978 0.62819 0.0
C724 C 0.66637 0.83969 0.6315 0.0
C725 C 0.6657 0.82913 0.64525 0.0
H726 H 0.6881 0.80886 0.66128 0.0
H727 H 0.72687 0.817 0.6218 0.0
C728 C 0.83648 0.83923 0.65594 0.0
N729 N 0.81102 0.84242 0.65169 0.0
C730 C 0.8556 0.85791 0.65225 0.0
C731 C 0.82174 0.88323 0.64031 0.0
C732 C 0.80336 0.86387 0.64405 0.0
C733 C 0.84843 0.88015 0.64414 0.0
H734 H 0.84215 0.82165 0.6617 0.0
H735 H 0.7831 0.86556 0.64051 0.0
C736 C 0.71796 0.75508 0.6576 0.0
N737 N 0.66571 0.73964 0.65567 0.0
C738 C 0.70146 0.75672 0.66946 0.0
C739 C 0.70798 0.7454 0.64479 0.0
C740 C 0.67508 0.74884 0.66826 0.0
C741 C 0.68147 0.73776 0.64402 0.0
C742 C 0.8131 0.77164 0.67506 0.0
C743 C 0.81626 0.74423 0.67589 0.0
C744 C 0.82206 0.78765 0.68615 0.0
C745 C 0.8282 0.73326 0.68789 0.0
C746 C 0.83384 0.77591 0.69798 0.0
N747 N 0.83663 0.74919 0.6986 0.0
C748 C 0.81781 0.74226 0.63449 0.0
C749 C 0.78041 0.715 0.63838 0.0
C750 C 0.83143 0.72138 0.62824 0.0
N751 N 0.79278 0.73878 0.63934 0.0
C752 C 0.79355 0.69332 0.63243 0.0
C753 C 0.81957 0.69628 0.62737 0.0
H754 H 0.82733 0.76126 0.63567 0.0
H755 H 0.76064 0.7127 0.64258 0.0
C756 C 0.75676 0.79794 0.70069 0.0
N757 N 0.75953 0.77823 0.69101 0.0
C758 C 0.75374 0.79196 0.71505 0.0
C759 C 0.75619 0.74549 0.70918 0.0
C760 C 0.75912 0.75238 0.69493 0.0
C761 C 0.75348 0.76542 0.71947 0.0
H762 H 0.75692 0.8183 0.69726 0.0
H763 H 0.76106 0.73713 0.68695 0.0
O764 O 0.77146 0.80105 0.63684 0.0
O765 O 0.75304 0.82209 0.66583 0.0
O766 O 0.74378 0.76287 0.65852 0.0
O767 O 0.80084 0.78271 0.66358 0.0
H768 H 0.81704 0.81619 0.62561 0.0
H769 H 0.74741 0.7689 0.61884 0.0
H770 H 0.83397 0.80156 0.60219 0.0
H771 H 0.76564 0.75497 0.59556 0.0
H772 H 0.79143 0.89382 0.68632 0.0
H773 H 0.72506 0.85916 0.65274 0.0
H774 H 0.78704 0.84533 0.68318 0.0
H775 H 0.73056 0.90735 0.65642 0.0
H776 H 0.68936 0.84215 0.61212 0.0
H777 H 0.6494 0.8334 0.65235 0.0
H778 H 0.87596 0.85429 0.65521 0.0
H779 H 0.81514 0.90013 0.63421 0.0
H780 H 0.70886 0.76423 0.67945 0.0
H781 H 0.72053 0.74389 0.63554 0.0
H782 H 0.66204 0.75012 0.67733 0.0
H783 H 0.67344 0.73034 0.63416 0.0
H784 H 0.80931 0.73154 0.66744 0.0
H785 H 0.81968 0.80889 0.68568 0.0
H786 H 0.83065 0.71207 0.68872 0.0
H787 H 0.84071 0.78804 0.70669 0.0
H788 H 0.85119 0.72491 0.62426 0.0
H789 H 0.78369 0.67433 0.6322 0.0
H790 H 0.75196 0.80795 0.72263 0.0
H791 H 0.7557 0.72478 0.71208 0.0
Li792 Li 0.98474 0.03022 0.3983 0.0
Li793 Li 0.967 0.01866 0.42176 0.0
Li794 Li 0.95262 0.99466 0.40047 0.0
Li795 Li 0.93878 0.04068 0.40498 0.0
C796 C 0.99914 0.97201 0.40829 0.0
N797 N 0.0191 0.92123 0.40723 0.0
C798 C 0.99982 0.95648 0.42055 0.0
C799 C 0.00886 0.96185 0.39554 0.0
C800 C 0.00994 0.93082 0.41979 0.0
C801 C 0.01878 0.93608 0.3952 0.0
C802 C 0.98308 0.06785 0.42419 0.0
C803 C 0.9799 0.0897 0.44686 0.0
N804 N 0.00656 0.09319 0.44688 0.0
C805 C 0.01042 0.07178 0.42439 0.0
C806 C 0.96764 0.07701 0.43546 0.0
C807 C 0.02193 0.08461 0.43597 0.0
C808 C 0.01176 0.06654 0.38117 0.0
N809 N 0.01467 0.04356 0.38848 0.0
C810 C 0.06106 0.04309 0.38368 0.0
C811 C 0.03864 0.03164 0.38981 0.0
C812 C 0.05853 0.06673 0.376 0.0
C813 C 0.03348 0.0783 0.37461 0.0
H814 H 0.9927 0.07613 0.38078 0.0
H815 H 0.04046 0.0137 0.39597 0.0
C816 C 0.95614 0.01023 0.45079 0.0
N817 N 0.97574 0.0148 0.44124 0.0
C818 C 0.96211 0.00706 0.46514 0.0
C819 C 0.00835 0.01338 0.45957 0.0
C820 C 0.00149 0.01622 0.4453 0.0
C821 C 0.98851 0.00865 0.46969 0.0
H822 H 0.93587 0.00892 0.44725 0.0
H823 H 0.01669 0.01944 0.43742 0.0
C824 C 0.95731 0.03103 0.37353 0.0
N825 N 0.96968 0.04481 0.34597 0.0
C826 C 0.94796 0.05477 0.36783 0.0
C827 C 0.97268 0.01417 0.36518 0.0
C828 C 0.9545 0.06141 0.35388 0.0
C829 C 0.9788 0.02153 0.35128 0.0
C830 C 0.90439 0.01116 0.41886 0.0
C831 C 0.88621 0.99513 0.41175 0.0
C832 C 0.89533 0.03045 0.42831 0.0
C833 C 0.85919 0.99886 0.4141 0.0
C834 C 0.86816 0.03359 0.43035 0.0
N835 N 0.8508 0.01787 0.42326 0.0
C836 C 0.94131 0.93936 0.40081 0.0
C837 C 0.92719 0.96292 0.38046 0.0
C838 C 0.92877 0.91645 0.39598 0.0
N839 N 0.94021 0.96198 0.39305 0.0
C840 C 0.91394 0.94068 0.37538 0.0
C841 C 0.91421 0.91705 0.38326 0.0
H842 H 0.95099 0.93932 0.41102 0.0
H843 H 0.92591 0.98136 0.37472 0.0
C844 C 0.91648 0.09148 0.40565 0.0
N845 N 0.91164 0.06603 0.4019 0.0
C846 C 0.89833 0.1113 0.40233 0.0
C847 C 0.87016 0.07822 0.39167 0.0
C848 C 0.88907 0.05908 0.39502 0.0
C849 C 0.87483 0.10488 0.39512 0.0
H850 H 0.93488 0.09655 0.4108 0.0
H851 H 0.88601 0.03877 0.39186 0.0
O852 O 0.98933 0.99717 0.40883 0.0
O853 O 0.9715 0.05485 0.41309 0.0
O854 O 0.95131 0.02429 0.3872 0.0
O855 O 0.93091 0.00801 0.4166 0.0
H856 H 0.9924 0.96407 0.43052 0.0
H857 H 0.00873 0.97373 0.386 0.0
H858 H 0.01046 0.91851 0.42917 0.0
H859 H 0.02627 0.92791 0.38539 0.0
H860 H 0.96822 0.09673 0.4557 0.0
H861 H 0.02267 0.06479 0.41576 0.0
H862 H 0.94645 0.07413 0.43546 0.0
H863 H 0.04308 0.08767 0.43631 0.0
H864 H 0.08018 0.03378 0.38504 0.0
H865 H 0.03092 0.09683 0.36901 0.0
H866 H 0.94622 0.00364 0.47262 0.0
H867 H 0.02897 0.01439 0.46261 0.0
H868 H 0.93598 0.06802 0.37415 0.0
H869 H 0.97983 0.99562 0.3694 0.0
H870 H 0.94754 0.07979 0.34934 0.0
H871 H 0.99079 0.00873 0.34471 0.0
H872 H 0.89283 0.98004 0.40445 0.0
H873 H 0.90914 0.04305 0.43389 0.0
H874 H 0.84489 0.98667 0.40862 0.0
H875 H 0.86087 0.04856 0.43756 0.0
H876 H 0.92989 0.89872 0.40238 0.0
H877 H 0.9025 0.94255 0.36573 0.0
H878 H 0.90323 0.13156 0.40493 0.0
H879 H 0.85229 0.0722 0.38624 0.0
Li880 Li 0.72211 0.23247 0.14902 0.0
Li881 Li 0.73272 0.21425 0.17243 0.0
Li882 Li 0.75666 0.19961 0.15128 0.0
Li883 Li 0.7103 0.18688 0.15548 0.0
C884 C 0.78059 0.24497 0.15919 0.0
N885 N 0.83225 0.26254 0.15807 0.0
C886 C 0.796 0.2455 0.17149 0.0
C887 C 0.79136 0.25359 0.14634 0.0
C888 C 0.8221 0.25442 0.1707 0.0
C889 C 0.81755 0.26231 0.14599 0.0
C890 C 0.6844 0.23196 0.17474 0.0
C891 C 0.66231 0.22967 0.19738 0.0
N892 N 0.66039 0.25649 0.19753 0.0
C893 C 0.68212 0.25948 0.17508 0.0
C894 C 0.67431 0.21688 0.18593 0.0
C895 C 0.66992 0.27152 0.18671 0.0
C896 C 0.68549 0.26071 0.13289 0.0
N897 N 0.70966 0.26264 0.1391 0.0
C898 C 0.71301 0.30808 0.13238 0.0
C899 C 0.72354 0.28566 0.13897 0.0
C900 C 0.68818 0.30652 0.12577 0.0
C901 C 0.67449 0.28241 0.12596 0.0
H902 H 0.67453 0.24242 0.13359 0.0
H903 H 0.74246 0.28678 0.14426 0.0
C904 C 0.73834 0.20295 0.20166 0.0
N905 N 0.73639 0.22271 0.19195 0.0
C906 C 0.74129 0.20888 0.21603 0.0
C907 C 0.74026 0.25539 0.21012 0.0
C908 C 0.73737 0.24855 0.19586 0.0
C909 C 0.74233 0.2354 0.22042 0.0
H910 H 0.73769 0.18258 0.19824 0.0
H911 H 0.73609 0.26383 0.18786 0.0
C912 C 0.71988 0.20609 0.12437 0.0
N913 N 0.70453 0.22077 0.09737 0.0
C914 C 0.69523 0.19835 0.11911 0.0
C915 C 0.73685 0.22102 0.11584 0.0
C916 C 0.6878 0.20604 0.10544 0.0
C917 C 0.72869 0.22833 0.10224 0.0
C918 C 0.73855 0.15142 0.16911 0.0
C919 C 0.75431 0.13313 0.16189 0.0
C920 C 0.71867 0.14247 0.17822 0.0
C921 C 0.74974 0.10613 0.16383 0.0
C922 C 0.71469 0.11531 0.17985 0.0
N923 N 0.73018 0.09785 0.17267 0.0
C924 C 0.81148 0.1868 0.15212 0.0
C925 C 0.78876 0.17506 0.13108 0.0
C926 C 0.83449 0.17456 0.14724 0.0
N927 N 0.78926 0.18681 0.14402 0.0
C928 C 0.8111 0.16208 0.12592 0.0
C929 C 0.83437 0.16135 0.1341 0.0
H930 H 0.81113 0.19549 0.16258 0.0
H931 H 0.77061 0.17468 0.12503 0.0
C932 C 0.65892 0.16587 0.15592 0.0
N933 N 0.68426 0.16052 0.15211 0.0
C934 C 0.63857 0.14871 0.15204 0.0
C935 C 0.6709 0.12034 0.14084 0.0
C936 C 0.69061 0.13826 0.14477 0.0
C937 C 0.64444 0.12583 0.14422 0.0
H938 H 0.65437 0.18396 0.16151 0.0
H939 H 0.71084 0.1349 0.14153 0.0
O940 O 0.75501 0.2363 0.15974 0.0
O941 O 0.69682 0.21983 0.16363 0.0
O942 O 0.72738 0.19907 0.13778 0.0
O943 O 0.74253 0.17795 0.16725 0.0
H944 H 0.78799 0.23887 0.18152 0.0
H945 H 0.77964 0.25346 0.13675 0.0
H946 H 0.8343 0.25481 0.18012 0.0
H947 H 0.82619 0.26893 0.13611 0.0
H948 H 0.65457 0.21827 0.20616 0.0
H949 H 0.68991 0.27145 0.16654 0.0
H950 H 0.67601 0.19556 0.18584 0.0
H951 H 0.66812 0.29281 0.18716 0.0
H952 H 0.72403 0.32644 0.13251 0.0
H953 H 0.65505 0.28062 0.12123 0.0
H954 H 0.74254 0.19286 0.22362 0.0
H955 H 0.74134 0.27608 0.21301 0.0
H956 H 0.68185 0.18678 0.12556 0.0
H957 H 0.75608 0.22696 0.11972 0.0
H958 H 0.66872 0.20035 0.10127 0.0
H959 H 0.74156 0.24001 0.09555 0.0
H960 H 0.76983 0.13968 0.15483 0.0
H961 H 0.7062 0.15635 0.18383 0.0
H962 H 0.76172 0.09176 0.15827 0.0
H963 H 0.69926 0.1081 0.18679 0.0
H964 H 0.85192 0.17488 0.15389 0.0
H965 H 0.80959 0.15168 0.11592 0.0
H966 H 0.61838 0.15358 0.15484 0.0
H967 H 0.67611 0.1031 0.13463 0.0
Li968 Li 0.51471 0.97053 0.89756 0.0
Li969 Li 0.53224 0.98137 0.92117 0.0
Li970 Li 0.54699 0.00584 0.90009 0.0
Li971 Li 0.56057 0.95966 0.90434 0.0
C972 C 0.50058 0.02855 0.90799 0.0
N973 N 0.48101 0.0795 0.90731 0.0
C974 C 0.5 0.04375 0.92036 0.0
C975 C 0.49094 0.03911 0.89531 0.0
C976 C 0.49008 0.06951 0.91979 0.0
C977 C 0.48122 0.06496 0.89517 0.0
C978 C 0.51595 0.9321 0.92316 0.0
C979 C 0.51885 0.90975 0.94571 0.0
N980 N 0.49221 0.90606 0.94555 0.0
C981 C 0.48864 0.92796 0.92318 0.0
C982 C 0.53124 0.92279 0.93446 0.0
C983 C 0.477 0.91477 0.93461 0.0
C984 C 0.48724 0.93558 0.87965 0.0
N985 N 0.48465 0.95782 0.88763 0.0
C986 C 0.43799 0.95838 0.88369 0.0
C987 C 0.46072 0.96946 0.88967 0.0
C988 C 0.44017 0.93546 0.87539 0.0
C989 C 0.46518 0.92427 0.87319 0.0
H990 H 0.5063 0.92613 0.87869 0.0
H991 H 0.45917 0.98677 0.89635 0.0
C992 C 0.54274 0.98949 0.95026 0.0
N993 N 0.52328 0.98479 0.94065 0.0
C994 C 0.53662 0.99235 0.96461 0.0
C995 C 0.49052 0.98542 0.95892 0.0
C996 C 0.49752 0.98294 0.94465 0.0
C997 C 0.51022 0.99027 0.96909 0.0
H998 H 0.56301 0.99117 0.94677 0.0
H999 H 0.48241 0.97965 0.93672 0.0
C1000 C 0.54261 0.97022 0.87286 0.0
N1001 N 0.53093 0.95735 0.84508 0.0
C1002 C 0.55233 0.94681 0.86696 0.0
C1003 C 0.52721 0.98723 0.86461 0.0
C1004 C 0.54614 0.94062 0.8529 0.0
C1005 C 0.52144 0.98032 0.85059 0.0
C1006 C 0.5949 0.98873 0.91857 0.0
C1007 C 0.61324 0.00477 0.91157 0.0
C1008 C 0.60375 0.96932 0.928 0.0
C1009 C 0.64021 0.00092 0.91402 0.0
C1010 C 0.63088 0.96606 0.93014 0.0
N1011 N 0.6484 0.98178 0.92316 0.0
C1012 C 0.55864 0.06105 0.90086 0.0
C1013 C 0.57235 0.038 0.88026 0.0
C1014 C 0.57116 0.08405 0.89614 0.0
N1015 N 0.55955 0.03864 0.89292 0.0
C1016 C 0.58554 0.06035 0.87527 0.0
C1017 C 0.58546 0.08376 0.88333 0.0
H1018 H 0.54912 0.06083 0.9111 0.0
H1019 H 0.57348 0.01972 0.87436 0.0
C1020 C 0.58283 0.90881 0.90487 0.0
N1021 N 0.5877 0.93432 0.90122 0.0
C1022 C 0.60106 0.88906 0.90155 0.0
C1023 C 0.62933 0.9223 0.89111 0.0
C1024 C 0.61036 0.94137 0.89445 0.0
C1025 C 0.62465 0.89559 0.89446 0.0
H1026 H 0.56438 0.90366 0.90993 0.0
H1027 H 0.61344 0.96173 0.89138 0.0
O1028 O 0.51021 0.00331 0.90833 0.0
O1029 O 0.52766 0.94543 0.91221 0.0
O1030 O 0.5483 0.97652 0.88663 0.0
O1031 O 0.56842 0.99202 0.91621 0.0
H1032 H 0.50735 0.03585 0.93028 0.0
H1033 H 0.49099 0.02748 0.88568 0.0
H1034 H 0.48965 0.08158 0.92927 0.0
H1035 H 0.47381 0.07345 0.88542 0.0
H1036 H 0.5304 0.90261 0.95457 0.0
H1037 H 0.47651 0.93503 0.91452 0.0
H1038 H 0.5524 0.92583 0.9346 0.0
H1039 H 0.45587 0.91154 0.9348 0.0
H1040 H 0.41889 0.96732 0.88569 0.0
H1041 H 0.46744 0.90626 0.86708 0.0
H1042 H 0.5524 0.9959 0.97214 0.0
H1043 H 0.4699 0.98404 0.96192 0.0
H1044 H 0.56433 0.93345 0.8732 0.0
H1045 H 0.51977 0.00552 0.86899 0.0
H1046 H 0.55339 0.9225 0.84821 0.0
H1047 H 0.50944 0.99324 0.8441 0.0
H1048 H 0.60677 0.01995 0.90428 0.0
H1049 H 0.58982 0.95673 0.93349 0.0
H1050 H 0.65463 0.01311 0.90864 0.0
H1051 H 0.63801 0.95099 0.93733 0.0
H1052 H 0.57022 0.10161 0.90269 0.0
H1053 H 0.59679 0.05873 0.86554 0.0
H1054 H 0.59615 0.86876 0.90406 0.0
H1055 H 0.64727 0.92841 0.88578 0.0
Li1056 Li 0.76306 0.22058 0.82949 0.0
Li1057 Li 0.77385 0.23732 0.85366 0.0
Li1058 Li 0.7871 0.19262 0.84661 0.0
Li1059 Li 0.74005 0.2038 0.85078 0.0
C1060 C 0.8178 0.22502 0.82821 0.0
N1061 N 0.85608 0.22229 0.80738 0.0
C1062 C 0.83547 0.24595 0.82632 0.0
C1063 C 0.81955 0.20271 0.81952 0.0
C1064 C 0.85469 0.2442 0.81571 0.0
C1065 C 0.83907 0.20169 0.80906 0.0
C1066 C 0.71518 0.25025 0.84243 0.0
C1067 C 0.67846 0.27299 0.85327 0.0
N1068 N 0.6641 0.26951 0.84122 0.0
C1069 C 0.70019 0.24723 0.83008 0.0
C1070 C 0.70437 0.26354 0.85406 0.0
C1071 C 0.67435 0.25698 0.8297 0.0
C1072 C 0.74494 0.21346 0.80157 0.0
N1073 N 0.7596 0.22946 0.81005 0.0
C1074 C 0.7693 0.258 0.79055 0.0
C1075 C 0.7716 0.25149 0.8049 0.0
C1076 C 0.75449 0.24168 0.78145 0.0
C1077 C 0.74222 0.21913 0.78716 0.0
H1078 H 0.73521 0.19634 0.80603 0.0
H1079 H 0.78289 0.26402 0.81195 0.0
C1080 C 0.80693 0.26426 0.8727 0.0
N1081 N 0.7862 0.26739 0.86368 0.0
C1082 C 0.81845 0.28618 0.8792 0.0
C1083 C 0.78746 0.31426 0.86676 0.0
C1084 C 0.77616 0.29169 0.86071 0.0
C1085 C 0.80902 0.31158 0.87603 0.0
H1086 H 0.81512 0.24481 0.87446 0.0
H1087 H 0.76 0.2936 0.85326 0.0
C1088 C 0.75341 0.15732 0.83165 0.0
N1089 N 0.74876 0.10406 0.82561 0.0
C1090 C 0.74486 0.1397 0.84211 0.0
C1091 C 0.75976 0.14781 0.81814 0.0
C1092 C 0.74256 0.11286 0.83884 0.0
C1093 C 0.75727 0.12083 0.8153 0.0
C1094 C 0.76982 0.21012 0.87852 0.0
C1095 C 0.7898 0.20064 0.88741 0.0
C1096 C 0.75009 0.22643 0.88407 0.0
C1097 C 0.78995 0.20806 0.90169 0.0
C1098 C 0.75092 0.2334 0.89841 0.0
N1099 N 0.77069 0.22418 0.90684 0.0
C1100 C 0.83459 0.17791 0.85805 0.0
C1101 C 0.81666 0.14307 0.84431 0.0
C1102 C 0.85607 0.16224 0.86192 0.0
N1103 N 0.81525 0.16808 0.84957 0.0
C1104 C 0.83797 0.12671 0.84782 0.0
C1105 C 0.85799 0.13617 0.85685 0.0
H1106 H 0.83305 0.19794 0.86199 0.0
H1107 H 0.8014 0.13566 0.83741 0.0
C1108 C 0.68571 0.18896 0.84914 0.0
N1109 N 0.7075 0.18947 0.85758 0.0
C1110 C 0.66286 0.17579 0.85356 0.0
C1111 C 0.68547 0.16351 0.87514 0.0
C1112 C 0.70765 0.1773 0.87043 0.0
C1113 C 0.66268 0.16229 0.86661 0.0
H1114 H 0.68633 0.1979 0.83876 0.0
H1115 H 0.72547 0.17704 0.87672 0.0
O1116 O 0.79851 0.22677 0.83832 0.0
O1117 O 0.74057 0.24098 0.84296 0.0
O1118 O 0.75555 0.18373 0.83456 0.0
O1119 O 0.76962 0.20353 0.86443 0.0
H1120 H 0.83422 0.26342 0.83292 0.0
H1121 H 0.80591 0.18643 0.8208 0.0
H1122 H 0.86846 0.26028 0.81409 0.0
H1123 H 0.84066 0.18455 0.80225 0.0
H1124 H 0.66981 0.2832 0.86223 0.0
H1125 H 0.70827 0.23721 0.82093 0.0
H1126 H 0.71591 0.26675 0.86356 0.0
H1127 H 0.66245 0.25456 0.82025 0.0
H1128 H 0.77874 0.27581 0.78668 0.0
H1129 H 0.73085 0.2058 0.78057 0.0
H1130 H 0.83539 0.28342 0.88608 0.0
H1131 H 0.7798 0.3336 0.86402 0.0
H1132 H 0.74034 0.14659 0.85268 0.0
H1133 H 0.76679 0.16106 0.80996 0.0
H1134 H 0.73595 0.09901 0.84682 0.0
H1135 H 0.76217 0.1132 0.8049 0.0
H1136 H 0.80505 0.18773 0.88335 0.0
H1137 H 0.73431 0.23356 0.87738 0.0
H1138 H 0.80538 0.20099 0.90867 0.0
H1139 H 0.73582 0.24611 0.90283 0.0
H1140 H 0.87071 0.17038 0.86907 0.0
H1141 H 0.8388 0.10695 0.84344 0.0
H1142 H 0.6458 0.17567 0.84663 0.0
H1143 H 0.68678 0.15284 0.88507 0.0
Li1144 Li 0.56098 0.04062 0.59403 0.0
Li1145 Li 0.54777 0.99449 0.59872 0.0
Li1146 Li 0.53317 0.01832 0.5773 0.0
Li1147 Li 0.51463 0.02991 0.60055 0.0
C1148 C 0.59574 0.01142 0.58001 0.0
N1149 N 0.6491 0.01878 0.57507 0.0
C1150 C 0.61432 0.99474 0.58636 0.0
C1151 C 0.6043 0.03164 0.571 0.0
C1152 C 0.6412 0.99882 0.58377 0.0
C1153 C 0.63136 0.03511 0.56869 0.0
C1154 C 0.5425 0.02635 0.62588 0.0
C1155 C 0.52213 0.00906 0.64705 0.0
N1156 N 0.53152 0.03009 0.65451 0.0
C1157 C 0.55211 0.0477 0.63375 0.0
C1158 C 0.52752 0.00678 0.63257 0.0
C1159 C 0.54629 0.04927 0.64821 0.0
C1160 C 0.58417 0.09139 0.59413 0.0
N1161 N 0.58817 0.06563 0.59757 0.0
C1162 C 0.6296 0.07608 0.60838 0.0
C1163 C 0.61028 0.0577 0.60456 0.0
C1164 C 0.62579 0.10304 0.60532 0.0
C1165 C 0.60276 0.11052 0.59795 0.0
H1166 H 0.56611 0.09721 0.58885 0.0
H1167 H 0.61267 0.03714 0.60742 0.0
C1168 C 0.55807 0.93856 0.60034 0.0
N1169 N 0.56128 0.96259 0.60661 0.0
C1170 C 0.57243 0.9167 0.60516 0.0
C1171 C 0.59289 0.94474 0.6228 0.0
C1172 C 0.57789 0.96587 0.61781 0.0
C1173 C 0.59064 0.91997 0.61624 0.0
H1174 H 0.5456 0.93658 0.59113 0.0
H1175 H 0.58075 0.98531 0.62231 0.0
C1176 C 0.51688 0.06712 0.57442 0.0
N1177 N 0.49406 0.09117 0.55113 0.0
C1178 C 0.48942 0.06957 0.57353 0.0
C1179 C 0.53276 0.07714 0.56354 0.0
C1180 C 0.47825 0.08175 0.56166 0.0
C1181 C 0.52084 0.08915 0.55183 0.0
C1182 C 0.50017 0.97182 0.59017 0.0
C1183 C 0.50169 0.95608 0.578 0.0
C1184 C 0.4868 0.96246 0.60213 0.0
C1185 C 0.49009 0.93102 0.57809 0.0
C1186 C 0.4755 0.93727 0.6018 0.0
N1187 N 0.47737 0.9222 0.58989 0.0
C1188 C 0.54399 0.01193 0.54805 0.0
C1189 C 0.4985 0.01318 0.55406 0.0
C1190 C 0.53781 0.00859 0.53373 0.0
N1191 N 0.52441 0.0142 0.55783 0.0
C1192 C 0.4914 0.00994 0.53985 0.0
C1193 C 0.5112 0.00752 0.52947 0.0
H1194 H 0.56441 0.01262 0.55136 0.0
H1195 H 0.48336 0.01473 0.56212 0.0
C1196 C 0.48756 0.0633 0.61938 0.0
N1197 N 0.48443 0.04271 0.61028 0.0
C1198 C 0.4656 0.07496 0.62578 0.0
C1199 C 0.4375 0.04438 0.61306 0.0
C1200 C 0.46009 0.03293 0.60712 0.0
C1201 C 0.44018 0.06578 0.62244 0.0
H1202 H 0.50705 0.07126 0.62132 0.0
H1203 H 0.45819 0.01688 0.59961 0.0
O1204 O 0.56933 0.00792 0.58254 0.0
O1205 O 0.54783 0.02464 0.6117 0.0
O1206 O 0.52816 0.05466 0.58579 0.0
O1207 O 0.51117 0.9965 0.59025 0.0
H1208 H 0.60809 0.9788 0.59322 0.0
H1209 H 0.59022 0.04473 0.56599 0.0
H1210 H 0.65579 0.98612 0.58867 0.0
H1211 H 0.63826 0.05082 0.56184 0.0
H1212 H 0.5105 0.9941 0.65237 0.0
H1213 H 0.56381 0.06297 0.6287 0.0
H1214 H 0.5202 0.99002 0.62664 0.0
H1215 H 0.55348 0.06574 0.65443 0.0
H1216 H 0.6471 0.06923 0.61386 0.0
H1217 H 0.59856 0.13105 0.59561 0.0
H1218 H 0.57059 0.89793 0.59972 0.0
H1219 H 0.60691 0.94795 0.63131 0.0
H1220 H 0.47684 0.0619 0.58184 0.0
H1221 H 0.55405 0.07547 0.56409 0.0
H1222 H 0.45701 0.08364 0.56078 0.0
H1223 H 0.53287 0.09683 0.54329 0.0
H1224 H 0.51197 0.96302 0.56865 0.0
H1225 H 0.48508 0.97457 0.61155 0.0
H1226 H 0.49124 0.91855 0.56879 0.0
H1227 H 0.46517 0.92974 0.611 0.0
H1228 H 0.55369 0.00709 0.52607 0.0
H1229 H 0.47067 0.00886 0.53706 0.0
H1230 H 0.46838 0.09175 0.63275 0.0
H1231 H 0.41816 0.0369 0.6102 0.0
Li1232 Li 0.71267 0.81292 0.34651 0.0
Li1233 Li 0.75902 0.79933 0.35027 0.0
Li1234 Li 0.73436 0.78526 0.32916 0.0
Li1235 Li 0.72411 0.76707 0.35267 0.0
C1236 C 0.74146 0.84781 0.33231 0.0
N1237 N 0.73472 0.9014 0.32795 0.0
C1238 C 0.75689 0.86601 0.33979 0.0
C1239 C 0.72276 0.85685 0.32253 0.0
C1240 C 0.75316 0.89303 0.33744 0.0
C1241 C 0.71959 0.88402 0.32051 0.0
C1242 C 0.72325 0.79258 0.37744 0.0
C1243 C 0.73275 0.76855 0.39894 0.0
N1244 N 0.70914 0.77644 0.40439 0.0
C1245 C 0.69917 0.80063 0.38328 0.0
C1246 C 0.7403 0.77659 0.38535 0.0
C1247 C 0.69236 0.79219 0.39692 0.0
C1248 C 0.66148 0.8341 0.34635 0.0
N1249 N 0.68692 0.83961 0.34987 0.0
C1250 C 0.67396 0.8809 0.36008 0.0
C1251 C 0.69348 0.86242 0.35664 0.0
C1252 C 0.64736 0.87558 0.35676 0.0
C1253 C 0.64133 0.85183 0.34971 0.0
H1254 H 0.65669 0.81551 0.34134 0.0
H1255 H 0.71379 0.866 0.35965 0.0
C1256 C 0.81358 0.81289 0.34861 0.0
N1257 N 0.79198 0.812 0.35717 0.0
C1258 C 0.83655 0.82573 0.35311 0.0
C1259 C 0.81447 0.83671 0.37506 0.0
C1260 C 0.79215 0.82322 0.37025 0.0
C1261 C 0.83701 0.83855 0.36636 0.0
H1262 H 0.81267 0.80459 0.33807 0.0
H1263 H 0.77446 0.82291 0.37668 0.0
C1264 C 0.68422 0.76957 0.32752 0.0
N1265 N 0.65523 0.74789 0.30558 0.0
C1266 C 0.67851 0.74254 0.32745 0.0
C1267 C 0.67502 0.78562 0.31651 0.0
C1268 C 0.66384 0.73195 0.31625 0.0
C1269 C 0.66047 0.77427 0.30549 0.0
C1270 C 0.78242 0.75452 0.34133 0.0
C1271 C 0.79654 0.75481 0.32858 0.0
C1272 C 0.79463 0.74549 0.35372 0.0
C1273 C 0.82283 0.74634 0.32849 0.0
C1274 C 0.82096 0.73722 0.35318 0.0
N1275 N 0.8344 0.73782 0.34069 0.0
C1276 C 0.7446 0.79669 0.30038 0.0
C1277 C 0.73285 0.75214 0.30502 0.0
C1278 C 0.74738 0.79121 0.28594 0.0
N1279 N 0.73732 0.77726 0.30954 0.0
C1280 C 0.73502 0.74587 0.29065 0.0
C1281 C 0.74245 0.76554 0.28093 0.0
H1282 H 0.74844 0.81639 0.3043 0.0
H1283 H 0.72773 0.73695 0.31261 0.0
C1284 C 0.68715 0.73911 0.36871 0.0
N1285 N 0.71125 0.73692 0.36245 0.0
C1286 C 0.67569 0.71737 0.37539 0.0
C1287 C 0.7137 0.69118 0.36869 0.0
C1288 C 0.72469 0.71364 0.36235 0.0
C1289 C 0.68887 0.69296 0.37529 0.0
H1290 H 0.67656 0.75765 0.36822 0.0
H1291 H 0.74362 0.71238 0.35706 0.0
O1292 O 0.74468 0.82128 0.33451 0.0
O1293 O 0.7301 0.80029 0.36404 0.0
O1294 O 0.69875 0.78028 0.33832 0.0
O1295 O 0.75669 0.76274 0.34165 0.0
H1296 H 0.7715 0.8594 0.34737 0.0
H1297 H 0.71071 0.84302 0.31663 0.0
H1298 H 0.76489 0.90735 0.3432 0.0
H1299 H 0.70509 0.8913 0.31303 0.0
H1300 H 0.74567 0.75604 0.40515 0.0
H1301 H 0.68578 0.81304 0.3773 0.0
H1302 H 0.75907 0.77035 0.381 0.0
H1303 H 0.67372 0.79812 0.40155 0.0
H1304 H 0.67963 0.89897 0.36542 0.0
H1305 H 0.62113 0.84646 0.34725 0.0
H1306 H 0.85344 0.82624 0.34606 0.0
H1307 H 0.81341 0.84675 0.38518 0.0
H1308 H 0.68548 0.72983 0.33589 0.0
H1309 H 0.67922 0.80658 0.31644 0.0
H1310 H 0.65935 0.71104 0.31601 0.0
H1311 H 0.65335 0.78643 0.29685 0.0
H1312 H 0.78739 0.76169 0.31889 0.0
H1313 H 0.7839 0.74495 0.36364 0.0
H1314 H 0.83404 0.74657 0.31871 0.0
H1315 H 0.83071 0.73031 0.3627 0.0
H1316 H 0.75309 0.80692 0.27876 0.0
H1317 H 0.73144 0.72575 0.28722 0.0
H1318 H 0.65628 0.71936 0.38012 0.0
H1319 H 0.72435 0.67261 0.36835 0.0
Li1320 Li 0.93973 0.96249 0.09471 0.0
Li1321 Li 0.95288 0.00881 0.09863 0.0
Li1322 Li 0.96691 0.9845 0.07745 0.0
Li1323 Li 0.98556 0.97408 0.10077 0.0
C1324 C 0.90428 0.99087 0.08094 0.0
N1325 N 0.85067 0.98302 0.07726 0.0
C1326 C 0.8861 0.00709 0.08793 0.0
C1327 C 0.89521 0.9708 0.07199 0.0
C1328 C 0.85907 0.00278 0.08594 0.0
C1329 C 0.86802 0.96709 0.0703 0.0
C1330 C 0.95987 0.97249 0.12563 0.0
C1331 C 0.98284 0.98167 0.14749 0.0
N1332 N 0.97521 0.95772 0.15261 0.0
C1333 C 0.95207 0.94805 0.13113 0.0
C1334 C 0.9752 0.98955 0.13389 0.0
C1335 C 0.96009 0.94091 0.14479 0.0
C1336 C 0.91779 0.91131 0.09502 0.0
N1337 N 0.9131 0.93695 0.09848 0.0
C1338 C 0.87249 0.9252 0.10979 0.0
C1339 C 0.89104 0.94419 0.10573 0.0
C1340 C 0.87702 0.89837 0.10667 0.0
C1341 C 0.89997 0.89162 0.09905 0.0
H1342 H 0.93583 0.90604 0.08957 0.0
H1343 H 0.88814 0.96466 0.10864 0.0
C1344 C 0.93954 0.06368 0.09794 0.0
N1345 N 0.94 0.04134 0.10595 0.0
C1346 C 0.92661 0.08629 0.10286 0.0
C1347 C 0.91459 0.06231 0.12408 0.0
C1348 C 0.92819 0.0404 0.11887 0.0
C1349 C 0.91326 0.08563 0.11596 0.0
H1350 H 0.94828 0.06367 0.08749 0.0
H1351 H 0.92813 0.02216 0.12483 0.0
C1352 C 0.98404 0.93585 0.07525 0.0
N1353 N 0.0077 0.91108 0.05244 0.0
C1354 C 0.01154 0.9335 0.07465 0.0
C1355 C 0.96855 0.92544 0.06432 0.0
C1356 C 0.02313 0.92092 0.06301 0.0
C1357 C 0.98089 0.91305 0.05285 0.0
C1358 C 0.99781 0.03257 0.0902 0.0
C1359 C 0.99762 0.0477 0.07779 0.0
C1360 C 0.00689 0.04372 0.10286 0.0
C1361 C 0.00628 0.07391 0.0783 0.0
C1362 C 0.01534 0.07001 0.10293 0.0
N1363 N 0.01486 0.08444 0.09075 0.0
C1364 C 0.95506 0.9898 0.04822 0.0
C1365 C 0.00075 0.98833 0.05377 0.0
C1366 C 0.96075 0.9924 0.0338 0.0
N1367 N 0.97498 0.98775 0.05783 0.0
C1368 C 0.00735 0.99082 0.03945 0.0
C1369 C 0.9872 0.99295 0.02925 0.0
H1370 H 0.93476 0.98951 0.05175 0.0
H1371 H 0.01616 0.98701 0.06169 0.0
C1372 C 0.0136 0.93718 0.11669 0.0
N1373 N 0.01575 0.96139 0.11056 0.0
C1374 C 0.0352 0.92585 0.12355 0.0
C1375 C 0.06126 0.96417 0.11722 0.0
C1376 C 0.03892 0.97503 0.1107 0.0
C1377 C 0.05946 0.93928 0.12375 0.0
H1378 H 0.99517 0.92643 0.11599 0.0
H1379 H 0.04019 0.99403 0.10549 0.0
O1380 O 0.93083 0.99461 0.08285 0.0
O1381 O 0.95252 0.9797 0.11221 0.0
O1382 O 0.97234 0.94865 0.08638 0.0
O1383 O 0.9894 0.00689 0.08993 0.0
H1384 H 0.89274 0.02278 0.09486 0.0
H1385 H 0.90901 0.95799 0.06655 0.0
H1386 H 0.84477 0.01512 0.09133 0.0
H1387 H 0.86072 0.95151 0.06348 0.0
H1388 H 0.99483 0.99461 0.15398 0.0
H1389 H 0.94018 0.93462 0.12488 0.0
H1390 H 0.9812 0.00861 0.12982 0.0
H1391 H 0.95435 0.92199 0.14916 0.0
H1392 H 0.855 0.93148 0.11548 0.0
H1393 H 0.90471 0.87123 0.09666 0.0
H1394 H 0.92646 0.1038 0.09626 0.0
H1395 H 0.90412 0.06038 0.13403 0.0
H1396 H 0.02383 0.94155 0.08299 0.0
H1397 H 0.94723 0.92715 0.06463 0.0
H1398 H 0.0444 0.91908 0.06236 0.0
H1399 H 0.96917 0.90505 0.04427 0.0
H1400 H 0.99062 0.03939 0.06791 0.0
H1401 H 0.00733 0.03222 0.11253 0.0
H1402 H 0.00613 0.0859 0.06879 0.0
H1403 H 0.02231 0.07895 0.11266 0.0
H1404 H 0.94461 0.99374 0.02628 0.0
H1405 H 0.02799 0.99155 0.03644 0.0
H1406 H 0.03322 0.90637 0.12821 0.0
H1407 H 0.07974 0.97499 0.11711 0.0
Li1408 Li 0.72275 0.73484 0.85044 0.0
Li1409 Li 0.71099 0.68935 0.84405 0.0
Li1410 Li 0.75714 0.70246 0.84782 0.0
Li1411 Li 0.73291 0.71703 0.82692 0.0
C1412 C 0.7201 0.70899 0.8749 0.0
N1413 N 0.70285 0.72491 0.90137 0.0
C1414 C 0.69575 0.70022 0.8801 0.0
C1415 C 0.73579 0.72565 0.88322 0.0
C1416 C 0.68736 0.70853 0.8935 0.0
C1417 C 0.72668 0.73355 0.89655 0.0
C1418 C 0.68433 0.73424 0.82498 0.0
C1419 C 0.66161 0.73183 0.80253 0.0
N1420 N 0.65943 0.75864 0.80242 0.0
C1421 C 0.68178 0.76175 0.82469 0.0
C1422 C 0.67406 0.71912 0.81386 0.0
C1423 C 0.66914 0.77371 0.81318 0.0
C1424 C 0.72359 0.78795 0.86084 0.0
N1425 N 0.70985 0.76487 0.86034 0.0
C1426 C 0.67374 0.78421 0.87292 0.0
C1427 C 0.68532 0.7627 0.8661 0.0
C1428 C 0.68724 0.80841 0.87346 0.0
C1429 C 0.71248 0.81022 0.86733 0.0
H1430 H 0.74286 0.78923 0.85593 0.0
H1431 H 0.67453 0.74433 0.86514 0.0
C1432 C 0.69223 0.64017 0.85434 0.0
N1433 N 0.68535 0.66258 0.84729 0.0
C1434 C 0.6731 0.62129 0.85771 0.0
C1435 C 0.64011 0.64917 0.84674 0.0
C1436 C 0.65994 0.66731 0.84341 0.0
C1437 C 0.64649 0.62583 0.8541 0.0
H1438 H 0.7125 0.63722 0.85761 0.0
H1439 H 0.65492 0.68559 0.83812 0.0
C1440 C 0.78163 0.74565 0.83979 0.0
N1441 N 0.83481 0.75792 0.84053 0.0
C1442 C 0.79698 0.74335 0.82753 0.0
C1443 C 0.79325 0.75438 0.8524 0.0
C1444 C 0.82386 0.74962 0.82812 0.0
C1445 C 0.82019 0.76042 0.85257 0.0
C1446 C 0.73884 0.65433 0.82984 0.0
C1447 C 0.75432 0.6358 0.83706 0.0
C1448 C 0.71918 0.64566 0.82051 0.0
C1449 C 0.7498 0.60886 0.83485 0.0
C1450 C 0.71523 0.61856 0.81861 0.0
N1451 N 0.7305 0.60088 0.82576 0.0
C1452 C 0.79325 0.68323 0.86819 0.0
C1453 C 0.809 0.68345 0.8445 0.0
C1454 C 0.81556 0.66931 0.87268 0.0
N1455 N 0.79021 0.68952 0.85428 0.0
C1456 C 0.83166 0.66963 0.84853 0.0
C1457 C 0.83478 0.66167 0.86272 0.0
H1458 H 0.77772 0.68775 0.87567 0.0
H1459 H 0.80573 0.68815 0.83345 0.0
C1460 C 0.73651 0.75152 0.80351 0.0
N1461 N 0.7361 0.72564 0.80738 0.0
C1462 C 0.73902 0.75849 0.78924 0.0
C1463 C 0.74104 0.71205 0.78327 0.0
C1464 C 0.73842 0.70599 0.79764 0.0
C1465 C 0.74138 0.73861 0.7789 0.0
H1466 H 0.73504 0.76673 0.81153 0.0
H1467 H 0.73837 0.6856 0.80102 0.0
O1468 O 0.72849 0.7014 0.86173 0.0
O1469 O 0.69719 0.72219 0.83598 0.0
O1470 O 0.75538 0.73927 0.83948 0.0
O1471 O 0.74278 0.68081 0.83196 0.0
H1472 H 0.68333 0.68734 0.87382 0.0
H1473 H 0.75468 0.7326 0.87935 0.0
H1474 H 0.6685 0.70202 0.89763 0.0
H1475 H 0.73853 0.74658 0.90305 0.0
H1476 H 0.65373 0.7204 0.7938 0.0
H1477 H 0.68972 0.77377 0.83317 0.0
H1478 H 0.67595 0.69782 0.81391 0.0
H1479 H 0.66713 0.79499 0.81277 0.0
H1480 H 0.65402 0.78222 0.87727 0.0
H1481 H 0.72337 0.82865 0.86749 0.0
H1482 H 0.67908 0.60353 0.86326 0.0
H1483 H 0.61988 0.65395 0.84402 0.0
H1484 H 0.78831 0.73654 0.81769 0.0
H1485 H 0.78161 0.75631 0.86197 0.0
H1486 H 0.83602 0.74781 0.81874 0.0
H1487 H 0.82948 0.76707 0.86227 0.0
H1488 H 0.7695 0.64207 0.84439 0.0
H1489 H 0.70685 0.65971 0.81494 0.0
H1490 H 0.76157 0.59431 0.84039 0.0
H1491 H 0.69998 0.61159 0.81149 0.0
H1492 H 0.81688 0.66322 0.88367 0.0
H1493 H 0.84607 0.66435 0.84052 0.0
H1494 H 0.73959 0.77921 0.78637 0.0
H1495 H 0.74257 0.6961 0.77565 0.0
Li1496 Li 0.51988 0.47068 0.09961 0.0
Li1497 Li 0.56558 0.45975 0.0933 0.0
Li1498 Li 0.55177 0.50565 0.09742 0.0
Li1499 Li 0.53786 0.48186 0.07625 0.0
C1500 C 0.54538 0.46811 0.12421 0.0
N1501 N 0.52934 0.45071 0.15062 0.0
C1502 C 0.55444 0.44391 0.12947 0.0
C1503 C 0.52837 0.48357 0.13243 0.0
C1504 C 0.54606 0.43544 0.14284 0.0
C1505 C 0.52041 0.47438 0.14574 0.0
C1506 C 0.52136 0.43319 0.07378 0.0
C1507 C 0.52447 0.41118 0.05115 0.0
N1508 N 0.49769 0.40883 0.05083 0.0
C1509 C 0.49388 0.43048 0.07326 0.0
C1510 C 0.53682 0.42337 0.06267 0.0
C1511 C 0.48229 0.41811 0.06156 0.0
C1512 C 0.46662 0.47004 0.10979 0.0
N1513 N 0.49004 0.45688 0.10929 0.0
C1514 C 0.47136 0.41989 0.12142 0.0
C1515 C 0.49272 0.43224 0.11485 0.0
C1516 C 0.44681 0.43274 0.12191 0.0
C1517 C 0.44452 0.45817 0.11603 0.0
H1518 H 0.46495 0.48942 0.10503 0.0
H1519 H 0.51136 0.42195 0.11389 0.0
C1520 C 0.61476 0.44076 0.10368 0.0
N1521 N 0.59238 0.43411 0.09654 0.0
C1522 C 0.63326 0.42137 0.10725 0.0
C1523 C 0.6051 0.38867 0.09624 0.0
C1524 C 0.58736 0.40873 0.09271 0.0
C1525 C 0.62836 0.39477 0.10376 0.0
H1526 H 0.61792 0.46101 0.10691 0.0
H1527 H 0.56909 0.40389 0.08737 0.0
C1528 C 0.50807 0.52966 0.08938 0.0
N1529 N 0.49438 0.58248 0.09036 0.0
C1530 C 0.51032 0.54536 0.07723 0.0
C1531 C 0.49867 0.54074 0.10198 0.0
C1532 C 0.50333 0.57205 0.07796 0.0
C1533 C 0.49192 0.56751 0.10227 0.0
C1534 C 0.60049 0.48856 0.07962 0.0
C1535 C 0.61856 0.50417 0.08708 0.0
C1536 C 0.60972 0.46926 0.07023 0.0
C1537 C 0.64562 0.50012 0.08506 0.0
C1538 C 0.63694 0.46578 0.06853 0.0
N1539 N 0.65417 0.48115 0.07592 0.0
C1540 C 0.57035 0.54133 0.11817 0.0
C1541 C 0.56929 0.55817 0.09471 0.0
C1542 C 0.58355 0.56388 0.12293 0.0
N1543 N 0.56397 0.53874 0.10425 0.0
C1544 C 0.5823 0.58114 0.09901 0.0
C1545 C 0.59033 0.58388 0.11322 0.0
H1546 H 0.56647 0.5253 0.12546 0.0
H1547 H 0.56459 0.55527 0.08363 0.0
C1548 C 0.50352 0.48627 0.05285 0.0
N1549 N 0.52939 0.48557 0.05672 0.0
C1550 C 0.49655 0.48932 0.03862 0.0
C1551 C 0.543 0.49118 0.03264 0.0
C1552 C 0.54906 0.48804 0.04699 0.0
C1553 C 0.51644 0.49188 0.02829 0.0
H1554 H 0.48831 0.48464 0.06087 0.0
H1555 H 0.56945 0.48771 0.05038 0.0
O1556 O 0.55306 0.47658 0.11106 0.0
O1557 O 0.53305 0.44582 0.08496 0.0
O1558 O 0.51511 0.50357 0.08893 0.0
O1559 O 0.5739 0.49206 0.08152 0.0
H1560 H 0.56761 0.43168 0.12325 0.0
H1561 H 0.52121 0.50235 0.12852 0.0
H1562 H 0.55281 0.4167 0.14702 0.0
H1563 H 0.50711 0.48607 0.15218 0.0
H1564 H 0.53617 0.40364 0.04243 0.0
H1565 H 0.48161 0.43808 0.08173 0.0
H1566 H 0.55811 0.4254 0.06289 0.0
H1567 H 0.46103 0.41598 0.06099 0.0
H1568 H 0.47375 0.40006 0.12557 0.0
H1569 H 0.42581 0.46859 0.11616 0.0
H1570 H 0.65096 0.42715 0.11291 0.0
H1571 H 0.60003 0.36847 0.0936 0.0
H1572 H 0.51764 0.53712 0.0674 0.0
H1573 H 0.49673 0.52882 0.11145 0.0
H1574 H 0.50509 0.58448 0.06867 0.0
H1575 H 0.48473 0.57639 0.11198 0.0
H1576 H 0.61183 0.51911 0.09444 0.0
H1577 H 0.59603 0.45685 0.06446 0.0
H1578 H 0.65983 0.512 0.0908 0.0
H1579 H 0.64435 0.45081 0.06137 0.0
H1580 H 0.58975 0.56486 0.13391 0.0
H1581 H 0.58689 0.59612 0.09119 0.0
H1582 H 0.47583 0.49015 0.03576 0.0
H1583 H 0.55896 0.49284 0.02503 0.0
Li1584 Li 0.78918 0.31153 0.34445 0.0
Li1585 Li 0.77743 0.26605 0.35108 0.0
Li1586 Li 0.76658 0.28383 0.32763 0.0
Li1587 Li 0.74293 0.29871 0.34874 0.0
C1588 C 0.81494 0.26639 0.32523 0.0
N1589 N 0.83877 0.24186 0.30239 0.0
C1590 C 0.81712 0.23886 0.32485 0.0
C1591 C 0.82505 0.28147 0.31405 0.0
C1592 C 0.82922 0.22682 0.3132 0.0
C1593 C 0.83696 0.26869 0.30257 0.0
C1594 C 0.78033 0.29247 0.37555 0.0
C1595 C 0.7728 0.26957 0.39762 0.0
N1596 N 0.79696 0.27754 0.40229 0.0
C1597 C 0.805 0.30062 0.3806 0.0
C1598 C 0.76399 0.277 0.38415 0.0
C1599 C 0.81308 0.2928 0.39414 0.0
C1600 C 0.8086 0.36073 0.35446 0.0
N1601 N 0.81515 0.33807 0.34756 0.0
C1602 C 0.86071 0.35039 0.34736 0.0
C1603 C 0.84055 0.3327 0.3439 0.0
C1604 C 0.85469 0.37395 0.35461 0.0
C1605 C 0.82809 0.37919 0.35794 0.0
H1606 H 0.78831 0.3642 0.35756 0.0
H1607 H 0.84529 0.31422 0.33874 0.0
C1608 C 0.77652 0.21297 0.36142 0.0
N1609 N 0.79029 0.23604 0.361 0.0
C1610 C 0.78752 0.19065 0.3679 0.0
C1611 C 0.82626 0.21657 0.37364 0.0
C1612 C 0.81477 0.23814 0.36682 0.0
C1613 C 0.81271 0.19239 0.3741 0.0
H1614 H 0.7573 0.21173 0.35644 0.0
H1615 H 0.82561 0.25647 0.36589 0.0
C1616 C 0.76061 0.34665 0.33056 0.0
N1617 N 0.76837 0.40017 0.32643 0.0
C1618 C 0.74475 0.36503 0.33765 0.0
C1619 C 0.78031 0.3555 0.3213 0.0
C1620 C 0.749 0.392 0.33542 0.0
C1621 C 0.78397 0.38264 0.31939 0.0
C1622 C 0.71856 0.25412 0.34108 0.0
C1623 C 0.70296 0.25437 0.32885 0.0
C1624 C 0.70766 0.24578 0.35394 0.0
C1625 C 0.67652 0.24653 0.32973 0.0
C1626 C 0.68113 0.23814 0.3544 0.0
N1627 N 0.66624 0.23868 0.34238 0.0
C1628 C 0.76164 0.24925 0.30432 0.0
C1629 C 0.76063 0.29479 0.29839 0.0
C1630 C 0.75854 0.24226 0.29009 0.0
N1631 N 0.76272 0.27513 0.30814 0.0
C1632 C 0.75746 0.28871 0.28405 0.0
C1633 C 0.75635 0.26214 0.27974 0.0
H1634 H 0.763 0.23406 0.31236 0.0
H1635 H 0.76131 0.31518 0.30174 0.0
C1636 C 0.70995 0.32205 0.36907 0.0
N1637 N 0.71031 0.31177 0.35577 0.0
C1638 C 0.68777 0.33566 0.37395 0.0
C1639 C 0.6662 0.32676 0.35157 0.0
C1640 C 0.68902 0.31374 0.34704 0.0
C1641 C 0.66558 0.33862 0.36507 0.0
H1642 H 0.72742 0.32087 0.37565 0.0
H1643 H 0.69013 0.30617 0.33634 0.0
O1644 O 0.80257 0.27851 0.33636 0.0
O1645 O 0.77221 0.2996 0.36225 0.0
O1646 O 0.75691 0.32015 0.33268 0.0
O1647 O 0.74443 0.26185 0.34045 0.0
H1648 H 0.8093 0.22688 0.33339 0.0
H1649 H 0.82344 0.3028 0.31417 0.0
H1650 H 0.83092 0.20552 0.31272 0.0
H1651 H 0.8447 0.28009 0.2938 0.0
H1652 H 0.76043 0.25746 0.40436 0.0
H1653 H 0.81789 0.31261 0.37409 0.0
H1654 H 0.74478 0.27069 0.38043 0.0
H1655 H 0.83219 0.29881 0.39816 0.0
H1656 H 0.8809 0.34507 0.34485 0.0
H1657 H 0.82236 0.39715 0.36338 0.0
H1658 H 0.77661 0.17223 0.36799 0.0
H1659 H 0.84594 0.21849 0.37804 0.0
H1660 H 0.7294 0.35859 0.34484 0.0
H1661 H 0.79287 0.34156 0.3158 0.0
H1662 H 0.73693 0.40644 0.34087 0.0
H1663 H 0.79925 0.38976 0.31233 0.0
H1664 H 0.71107 0.26081 0.3188 0.0
H1665 H 0.71953 0.24532 0.36348 0.0
H1666 H 0.66416 0.24677 0.32037 0.0
H1667 H 0.67239 0.23176 0.36429 0.0
H1668 H 0.75741 0.22154 0.28726 0.0
H1669 H 0.75612 0.30465 0.27641 0.0
H1670 H 0.68865 0.34493 0.38429 0.0
H1671 H 0.64958 0.32818 0.34438 0.0
Li1672 Li 0.93886 0.5399 0.5946 0.0
Li1673 Li 0.984 0.52747 0.60124 0.0
Li1674 Li 0.96604 0.51641 0.57782 0.0
Li1675 Li 0.95089 0.49356 0.59908 0.0
C1676 C 0.98425 0.5645 0.57517 0.0
N1677 N 0.00901 0.58784 0.55225 0.0
C1678 C 0.01181 0.56625 0.57474 0.0
C1679 C 0.96927 0.57476 0.56399 0.0
C1680 C 0.02396 0.57812 0.56305 0.0
C1681 C 0.98217 0.58643 0.55248 0.0
C1682 C 0.95847 0.53164 0.62557 0.0
C1683 C 0.98218 0.5246 0.64744 0.0
N1684 N 0.97551 0.54939 0.65173 0.0
C1685 C 0.9517 0.55698 0.63023 0.0
C1686 C 0.97368 0.51523 0.63427 0.0
C1687 C 0.96055 0.56561 0.64348 0.0
C1688 C 0.8903 0.56138 0.60466 0.0
N1689 N 0.91319 0.56676 0.59766 0.0
C1690 C 0.90368 0.61298 0.59789 0.0
C1691 C 0.91996 0.5919 0.5941 0.0
C1692 C 0.88017 0.60809 0.60535 0.0
C1693 C 0.87318 0.58188 0.60847 0.0
H1694 H 0.88582 0.54129 0.60776 0.0
H1695 H 0.93855 0.59568 0.58883 0.0
C1696 C 0.03613 0.5261 0.61337 0.0
N1697 N 0.01394 0.54068 0.61114 0.0
C1698 C 0.05814 0.53755 0.61994 0.0
C1699 C 0.03372 0.57847 0.62199 0.0
C1700 C 0.0124 0.56637 0.61525 0.0
C1701 C 0.05708 0.56412 0.62429 0.0
H1702 H 0.03692 0.5058 0.60981 0.0
H1703 H 0.99469 0.57761 0.61304 0.0
C1704 C 0.90309 0.51198 0.58102 0.0
N1705 N 0.8497 0.52103 0.57715 0.0
C1706 C 0.88447 0.49691 0.58841 0.0
C1707 C 0.89456 0.53155 0.5716 0.0
C1708 C 0.85756 0.5018 0.58631 0.0
C1709 C 0.86748 0.53587 0.56982 0.0
C1710 C 0.99442 0.46801 0.59141 0.0
C1711 C 0.99351 0.45242 0.57918 0.0
C1712 C 0.00219 0.45675 0.60429 0.0
C1713 C 0.00016 0.42566 0.58008 0.0
C1714 C 0.00864 0.42991 0.60476 0.0
N1715 N 0.00749 0.41505 0.59275 0.0
C1716 C 0.00026 0.51095 0.55435 0.0
C1717 C 0.95464 0.51 0.54864 0.0
C1718 C 0.00701 0.50777 0.54009 0.0
N1719 N 0.97445 0.51215 0.5583 0.0
C1720 C 0.96047 0.50672 0.53427 0.0
C1721 C 0.98696 0.50558 0.52984 0.0
H1722 H 0.01559 0.51234 0.56232 0.0
H1723 H 0.93429 0.51075 0.55209 0.0
C1724 C 0.92833 0.46003 0.61966 0.0
N1725 N 0.93728 0.46111 0.60609 0.0
C1726 C 0.91435 0.43795 0.62441 0.0
C1727 C 0.92012 0.41802 0.60131 0.0
C1728 C 0.93365 0.44065 0.59695 0.0
C1729 C 0.90955 0.41674 0.61509 0.0
H1730 H 0.93087 0.47687 0.62658 0.0
H1731 H 0.94027 0.44236 0.58609 0.0
O1732 O 0.972 0.55239 0.58635 0.0
O1733 O 0.95043 0.523 0.61252 0.0
O1734 O 0.92953 0.50765 0.583 0.0
O1735 O 0.98782 0.4942 0.59077 0.0
H1736 H 0.02372 0.55827 0.58326 0.0
H1737 H 0.94792 0.57348 0.56415 0.0
H1738 H 0.04528 0.5795 0.56254 0.0
H1739 H 0.97083 0.5943 0.54371 0.0
H1740 H 0.9941 0.51217 0.65425 0.0
H1741 H 0.93997 0.56996 0.62363 0.0
H1742 H 0.97903 0.49554 0.63083 0.0
H1743 H 0.95559 0.58523 0.6472 0.0
H1744 H 0.90969 0.63297 0.59533 0.0
H1745 H 0.85539 0.57743 0.6144 0.0
H1746 H 0.07583 0.52585 0.62152 0.0
H1747 H 0.03225 0.59913 0.6249 0.0
H1748 H 0.89066 0.48171 0.59576 0.0
H1749 H 0.9087 0.54352 0.56586 0.0
H1750 H 0.84293 0.49034 0.592 0.0
H1751 H 0.86061 0.55106 0.56263 0.0
H1752 H 0.98749 0.4608 0.56913 0.0
H1753 H 0.00307 0.46857 0.61384 0.0
H1754 H 0.99941 0.41331 0.57072 0.0
H1755 H 0.01456 0.42089 0.61467 0.0
H1756 H 0.02768 0.50661 0.53717 0.0
H1757 H 0.9444 0.50536 0.52671 0.0
H1758 H 0.90617 0.43822 0.63502 0.0
H1759 H 0.91723 0.4021 0.59379 0.0
Li1760 Li 0.75507 0.29988 0.65116 0.0
Li1761 Li 0.73349 0.2835 0.67336 0.0
Li1762 Li 0.72297 0.26395 0.64982 0.0
Li1763 Li 0.70897 0.30807 0.65566 0.0
C1764 C 0.77519 0.24811 0.65282 0.0
N1765 N 0.81039 0.21632 0.6383 0.0
C1766 C 0.7899 0.22906 0.66008 0.0
C1767 C 0.77835 0.251 0.63816 0.0
C1768 C 0.80762 0.21318 0.65255 0.0
C1769 C 0.79626 0.23473 0.63102 0.0
C1770 C 0.7327 0.34563 0.67023 0.0
C1771 C 0.70716 0.37672 0.68396 0.0
N1772 N 0.71689 0.39683 0.67592 0.0
C1773 C 0.74266 0.36662 0.66221 0.0
C1774 C 0.71501 0.35072 0.68128 0.0
C1775 C 0.73435 0.39236 0.66522 0.0
C1776 C 0.78281 0.33222 0.63265 0.0
N1777 N 0.78615 0.31487 0.64348 0.0
C1778 C 0.83265 0.32311 0.64385 0.0
C1779 C 0.81041 0.30986 0.64905 0.0
C1780 C 0.82973 0.34182 0.63291 0.0
C1781 C 0.80437 0.34604 0.62721 0.0
H1782 H 0.76317 0.33601 0.62858 0.0
H1783 H 0.8124 0.29597 0.65772 0.0
C1784 C 0.72882 0.25284 0.69804 0.0
N1785 N 0.73838 0.27597 0.69281 0.0
C1786 C 0.73138 0.247 0.71244 0.0
C1787 C 0.75409 0.28865 0.71571 0.0
C1788 C 0.75091 0.29377 0.70125 0.0
C1789 C 0.7441 0.26506 0.72148 0.0
H1790 H 0.71899 0.23907 0.69101 0.0
H1791 H 0.75826 0.31203 0.69675 0.0
C1792 C 0.70831 0.2945 0.62659 0.0
N1793 N 0.67358 0.29101 0.60405 0.0
C1794 C 0.68193 0.28757 0.62891 0.0
C1795 C 0.71705 0.29967 0.6128 0.0
C1796 C 0.66467 0.28592 0.61738 0.0
C1797 C 0.69918 0.29779 0.60154 0.0
C1798 C 0.67514 0.27263 0.67198 0.0
C1799 C 0.654 0.25957 0.66546 0.0
C1800 C 0.67187 0.28321 0.68557 0.0
C1801 C 0.62986 0.25762 0.67259 0.0
C1802 C 0.64743 0.28082 0.69235 0.0
N1803 N 0.6271 0.2682 0.68577 0.0
C1804 C 0.69933 0.21447 0.64919 0.0
C1805 C 0.71657 0.22726 0.62685 0.0
C1806 C 0.68798 0.19193 0.64325 0.0
N1807 N 0.71269 0.23189 0.64091 0.0
C1808 C 0.70579 0.20476 0.62048 0.0
C1809 C 0.69074 0.18698 0.62864 0.0
H1810 H 0.69665 0.21863 0.66035 0.0
H1811 H 0.72746 0.24135 0.62051 0.0
C1812 C 0.68882 0.35341 0.64264 0.0
N1813 N 0.68221 0.3343 0.65215 0.0
C1814 C 0.6704 0.37254 0.6386 0.0
C1815 C 0.6385 0.35191 0.6541 0.0
C1816 C 0.65768 0.33349 0.65803 0.0
C1817 C 0.6446 0.37172 0.64415 0.0
H1818 H 0.7084 0.35355 0.63804 0.0
H1819 H 0.65259 0.31829 0.66551 0.0
O1820 O 0.75772 0.26372 0.66007 0.0
O1821 O 0.74013 0.32024 0.66724 0.0
O1822 O 0.72569 0.29603 0.63768 0.0
O1823 O 0.699 0.27452 0.66519 0.0
H1824 H 0.78764 0.22658 0.67143 0.0
H1825 H 0.76715 0.26562 0.63235 0.0
H1826 H 0.81914 0.19834 0.65804 0.0
H1827 H 0.7989 0.23675 0.61968 0.0
H1828 H 0.69333 0.38092 0.69242 0.0
H1829 H 0.75645 0.36307 0.65366 0.0
H1830 H 0.70731 0.33476 0.68768 0.0
H1831 H 0.74174 0.40877 0.65902 0.0
H1832 H 0.85181 0.31899 0.64845 0.0
H1833 H 0.80096 0.36062 0.61901 0.0
H1834 H 0.72367 0.22847 0.71644 0.0
H1835 H 0.7638 0.30318 0.72234 0.0
H1836 H 0.67486 0.28358 0.63949 0.0
H1837 H 0.73745 0.30495 0.61083 0.0
H1838 H 0.64419 0.28059 0.61904 0.0
H1839 H 0.70568 0.30169 0.59081 0.0
H1840 H 0.65613 0.25104 0.65501 0.0
H1841 H 0.68795 0.29323 0.69084 0.0
H1842 H 0.61333 0.24766 0.66765 0.0
H1843 H 0.64463 0.28899 0.70285 0.0
H1844 H 0.67628 0.17915 0.64999 0.0
H1845 H 0.70888 0.20157 0.60924 0.0
H1846 H 0.67632 0.38761 0.6311 0.0
H1847 H 0.61884 0.34998 0.65851 0.0
Li1848 Li 0.96509 0.48516 0.9235 0.0
Li1849 Li 0.94886 0.50693 0.9013 0.0
Li1850 Li 0.93879 0.46171 0.90595 0.0
Li1851 Li 0.98334 0.47269 0.89936 0.0
C1852 C 0.90484 0.48384 0.92255 0.0
N1853 N 0.85736 0.46306 0.93175 0.0
C1854 C 0.8812 0.49157 0.91611 0.0
C1855 C 0.90437 0.46566 0.93372 0.0
C1856 C 0.85738 0.4808 0.92091 0.0
C1857 C 0.88015 0.45535 0.9382 0.0
C1858 C 0.99825 0.53004 0.91196 0.0
C1859 C 0.03218 0.56164 0.90602 0.0
N1860 N 0.0244 0.577 0.91711 0.0
C1861 C 0.99067 0.54605 0.92334 0.0
C1862 C 0.01927 0.53777 0.90327 0.0
C1863 C 0.00412 0.56976 0.92575 0.0
C1864 C 0.99717 0.47979 0.94767 0.0
N1865 N 0.97389 0.48968 0.94283 0.0
C1866 C 0.96313 0.50621 0.96585 0.0
C1867 C 0.95692 0.50272 0.95154 0.0
C1868 C 0.98704 0.49618 0.97122 0.0
C1869 C 0.00418 0.48282 0.96191 0.0
H1870 H 0.01028 0.46959 0.94044 0.0
H1871 H 0.93855 0.5104 0.94736 0.0
C1872 C 0.91242 0.5338 0.88529 0.0
N1873 N 0.9343 0.53829 0.89329 0.0
C1874 C 0.89858 0.55482 0.8793 0.0
C1875 C 0.93022 0.58493 0.8897 0.0
C1876 C 0.94357 0.56322 0.89546 0.0
C1877 C 0.90728 0.58084 0.88158 0.0
H1878 H 0.90546 0.51377 0.88378 0.0
H1879 H 0.96104 0.56641 0.90176 0.0
C1880 C 0.97632 0.4235 0.91535 0.0
N1881 N 0.98559 0.36972 0.91538 0.0
C1882 C 0.97719 0.40959 0.90255 0.0
C1883 C 0.98019 0.41013 0.92816 0.0
C1884 C 0.98193 0.38238 0.9028 0.0
C1885 C 0.98481 0.38291 0.92795 0.0
C1886 C 0.9563 0.48551 0.8744 0.0
C1887 C 0.94448 0.47346 0.86267 0.0
C1888 C 0.97358 0.50675 0.87239 0.0
C1889 C 0.95033 0.48275 0.84906 0.0
C1890 C 0.97889 0.51547 0.85862 0.0
N1891 N 0.96727 0.50338 0.84734 0.0
C1892 C 0.89422 0.44131 0.89264 0.0
C1893 C 0.91055 0.41283 0.91055 0.0
C1894 C 0.8748 0.42297 0.88896 0.0
N1895 N 0.91183 0.43581 0.90311 0.0
C1896 C 0.89182 0.39364 0.90701 0.0
C1897 C 0.8738 0.39836 0.8959 0.0
H1898 H 0.89548 0.45993 0.88703 0.0
H1899 H 0.92437 0.4091 0.91904 0.0
C1900 C 0.03485 0.45386 0.89993 0.0
N1901 N 0.01499 0.45977 0.89075 0.0
C1902 C 0.0577 0.44124 0.89512 0.0
C1903 C 0.03981 0.44204 0.87135 0.0
C1904 C 0.01708 0.45418 0.87666 0.0
C1905 C 0.06022 0.43497 0.88068 0.0
H1906 H 0.03248 0.45816 0.91111 0.0
H1907 H 0.00087 0.45817 0.86957 0.0
O1908 O 0.92844 0.49349 0.91774 0.0
O1909 O 0.98563 0.5066 0.9095 0.0
O1910 O 0.97154 0.45007 0.91544 0.0
O1911 O 0.95037 0.47683 0.88776 0.0
H1912 H 0.88125 0.50558 0.90744 0.0
H1913 H 0.92255 0.45927 0.9387 0.0
H1914 H 0.83893 0.4865 0.91598 0.0
H1915 H 0.87948 0.44113 0.94677 0.0
H1916 H 0.04842 0.56792 0.89936 0.0
H1917 H 0.97438 0.54041 0.93012 0.0
H1918 H 0.02555 0.52543 0.89451 0.0
H1919 H 0.99839 0.58242 0.93447 0.0
H1920 H 0.94919 0.51634 0.97266 0.0
H1921 H 0.02294 0.47505 0.96555 0.0
H1922 H 0.88077 0.55074 0.87331 0.0
H1923 H 0.9377 0.60467 0.89161 0.0
H1924 H 0.97405 0.41967 0.89256 0.0
H1925 H 0.97949 0.42069 0.93814 0.0
H1926 H 0.98264 0.37132 0.89299 0.0
H1927 H 0.98776 0.37228 0.93778 0.0
H1928 H 0.93093 0.4571 0.86407 0.0
H1929 H 0.98273 0.51643 0.88133 0.0
H1930 H 0.94136 0.47357 0.83988 0.0
H1931 H 0.99224 0.53187 0.8569 0.0
H1932 H 0.86097 0.42797 0.88062 0.0
H1933 H 0.89214 0.375 0.91264 0.0
H1934 H 0.07306 0.43603 0.90263 0.0
H1935 H 0.0409 0.4371 0.86019 0.0
Li1936 Li 0.76523 0.71776 0.17366 0.0
Li1937 Li 0.74249 0.70154 0.15173 0.0
Li1938 Li 0.78812 0.69157 0.1558 0.0
Li1939 Li 0.77636 0.73642 0.14952 0.0
C1940 C 0.76669 0.6574 0.17251 0.0
N1941 N 0.78776 0.60971 0.18122 0.0
C1942 C 0.75887 0.63391 0.16594 0.0
C1943 C 0.78515 0.65666 0.18354 0.0
C1944 C 0.76978 0.60999 0.17049 0.0
C1945 C 0.79558 0.63234 0.18779 0.0
C1946 C 0.71902 0.75066 0.16058 0.0
C1947 C 0.68645 0.77933 0.15001 0.0
N1948 N 0.67089 0.77634 0.16167 0.0
C1949 C 0.70285 0.74804 0.17252 0.0
C1950 C 0.71092 0.7666 0.14928 0.0
C1951 C 0.67853 0.76113 0.17285 0.0
C1952 C 0.76943 0.75043 0.19761 0.0
N1953 N 0.76104 0.72642 0.193 0.0
C1954 C 0.74616 0.71496 0.21623 0.0
C1955 C 0.74945 0.70879 0.20191 0.0
C1956 C 0.75462 0.73964 0.22139 0.0
C1957 C 0.76634 0.75752 0.21184 0.0
H1958 H 0.7784 0.76409 0.19021 0.0
H1959 H 0.74281 0.6899 0.19788 0.0
C1960 C 0.71594 0.66513 0.13563 0.0
N1961 N 0.7111 0.68613 0.14422 0.0
C1962 C 0.69513 0.65087 0.12973 0.0
C1963 C 0.66446 0.68009 0.1416 0.0
C1964 C 0.68598 0.69387 0.14728 0.0
C1965 C 0.66894 0.6582 0.13273 0.0
H1966 H 0.73611 0.65922 0.13353 0.0
H1967 H 0.68252 0.71041 0.15423 0.0
C1968 C 0.82682 0.72845 0.16324 0.0
N1969 N 0.88036 0.73629 0.15941 0.0
C1970 C 0.83768 0.72753 0.14962 0.0
C1971 C 0.84312 0.73337 0.17491 0.0
C1972 C 0.86482 0.73156 0.1479 0.0
C1973 C 0.87016 0.73727 0.17275 0.0
C1974 C 0.76605 0.70775 0.12411 0.0
C1975 C 0.78367 0.69952 0.11358 0.0
C1976 C 0.74204 0.7194 0.12025 0.0
C1977 C 0.77704 0.70325 0.09933 0.0
C1978 C 0.73611 0.72272 0.10589 0.0
N1979 N 0.75359 0.71466 0.09581 0.0
C1980 C 0.80816 0.648 0.14152 0.0
C1981 C 0.83648 0.66246 0.15997 0.0
C1982 C 0.82635 0.62874 0.13745 0.0
N1983 N 0.81368 0.66464 0.15243 0.0
C1984 C 0.85545 0.6437 0.15614 0.0
C1985 C 0.85071 0.62678 0.14456 0.0
H1986 H 0.78967 0.64997 0.13584 0.0
H1987 H 0.84022 0.67561 0.16878 0.0
C1988 C 0.802 0.78513 0.14941 0.0
N1989 N 0.7885 0.76844 0.14073 0.0
C1990 C 0.81441 0.80755 0.14392 0.0
C1991 C 0.79743 0.79626 0.12076 0.0
C1992 C 0.78566 0.77383 0.12667 0.0
C1993 C 0.81257 0.81322 0.12934 0.0
H1994 H 0.80387 0.78054 0.16057 0.0
H1995 H 0.77477 0.76065 0.1199 0.0
O1996 O 0.75689 0.6811 0.16794 0.0
O1997 O 0.74298 0.73825 0.16013 0.0
O1998 O 0.8004 0.72422 0.16524 0.0
O1999 O 0.77206 0.70356 0.13808 0.0
H2000 H 0.74468 0.63417 0.15736 0.0
H2001 H 0.79167 0.67472 0.18861 0.0
H2002 H 0.764 0.59165 0.16546 0.0
H2003 H 0.81 0.63147 0.19625 0.0
H2004 H 0.67986 0.79165 0.14132 0.0
H2005 H 0.70893 0.7359 0.18139 0.0
H2006 H 0.72345 0.76918 0.14007 0.0
H2007 H 0.66573 0.75918 0.18198 0.0
H2008 H 0.73737 0.70039 0.22319 0.0
H2009 H 0.77278 0.77692 0.21525 0.0
H2010 H 0.69956 0.63381 0.12321 0.0
H2011 H 0.64457 0.68644 0.14414 0.0
H2012 H 0.82532 0.72359 0.14048 0.0
H2013 H 0.83495 0.73405 0.18552 0.0
H2014 H 0.87353 0.73088 0.13743 0.0
H2015 H 0.88305 0.74104 0.18169 0.0
H2016 H 0.80227 0.69033 0.11641 0.0
H2017 H 0.72821 0.72597 0.12824 0.0
H2018 H 0.79051 0.69701 0.09107 0.0
H2019 H 0.71762 0.73176 0.10275 0.0
H2020 H 0.82147 0.61576 0.1287 0.0
H2021 H 0.87395 0.64314 0.16189 0.0
H2022 H 0.82609 0.81973 0.15098 0.0
H2023 H 0.79491 0.80004 0.10954 0.0
Li2024 Li 0.55036 0.49406 0.4008 0.0
Li2025 Li 0.53537 0.51762 0.42213 0.0
Li2026 Li 0.51783 0.52939 0.3987 0.0
Li2027 Li 0.56347 0.54021 0.40561 0.0
C2028 C 0.50357 0.47089 0.40875 0.0
N2029 N 0.48309 0.42026 0.40833 0.0
C2030 C 0.50363 0.45553 0.42108 0.0
C2031 C 0.49289 0.4606 0.39624 0.0
C2032 C 0.49322 0.42996 0.42064 0.0
C2033 C 0.48271 0.43492 0.39623 0.0
C2034 C 0.5981 0.5112 0.41944 0.0
C2035 C 0.6337 0.53471 0.43087 0.0
N2036 N 0.65147 0.51916 0.42398 0.0
C2037 C 0.61671 0.49535 0.41253 0.0
C2038 C 0.60662 0.53094 0.42876 0.0
C2039 C 0.64361 0.49971 0.41495 0.0
C2040 C 0.57764 0.46374 0.38099 0.0
N2041 N 0.56331 0.4618 0.39313 0.0
C2042 C 0.57374 0.41584 0.39507 0.0
C2043 C 0.56113 0.43848 0.4002 0.0
C2044 C 0.58943 0.4174 0.38277 0.0
C2045 C 0.59096 0.44178 0.37563 0.0
H2046 H 0.57982 0.48269 0.37583 0.0
H2047 H 0.55047 0.43759 0.4101 0.0
C2048 C 0.50054 0.51279 0.44541 0.0
N2049 N 0.52643 0.5133 0.44158 0.0
C2050 C 0.49348 0.50926 0.4596 0.0
C2051 C 0.53988 0.50663 0.4656 0.0
C2052 C 0.54603 0.51026 0.4513 0.0
C2053 C 0.5133 0.50604 0.46991 0.0
H2054 H 0.48537 0.5149 0.4374 0.0
H2055 H 0.56643 0.51051 0.44794 0.0
C2056 C 0.54488 0.529 0.37392 0.0
N2057 N 0.53141 0.53932 0.34608 0.0
C2058 C 0.55292 0.55256 0.3675 0.0
C2059 C 0.53024 0.51057 0.36617 0.0
C2060 C 0.54584 0.55744 0.35341 0.0
C2061 C 0.52355 0.51618 0.35211 0.0
C2062 C 0.51821 0.56614 0.42481 0.0
C2063 C 0.4907 0.56869 0.42495 0.0
C2064 C 0.53306 0.57576 0.4362 0.0
C2065 C 0.47845 0.58064 0.43658 0.0
C2066 C 0.52006 0.58754 0.44765 0.0
N2067 N 0.49326 0.5897 0.4476 0.0
C2068 C 0.46449 0.53031 0.38894 0.0
C2069 C 0.49141 0.56642 0.38197 0.0
C2070 C 0.44244 0.54189 0.38251 0.0
N2071 N 0.48828 0.54278 0.3886 0.0
C2072 C 0.47006 0.57847 0.37521 0.0
C2073 C 0.44511 0.56637 0.3756 0.0
H2074 H 0.46246 0.51179 0.39456 0.0
H2075 H 0.51035 0.57629 0.38228 0.0
C2076 C 0.6127 0.55914 0.39544 0.0
N2077 N 0.59034 0.56583 0.40258 0.0
C2078 C 0.6315 0.57839 0.39212 0.0
C2079 C 0.60366 0.61109 0.40336 0.0
C2080 C 0.5856 0.59115 0.40663 0.0
C2081 C 0.62693 0.60492 0.39588 0.0
H2082 H 0.61568 0.53891 0.39209 0.0
H2083 H 0.56736 0.59602 0.412 0.0
O2084 O 0.51346 0.49604 0.40899 0.0
O2085 O 0.57168 0.50742 0.4171 0.0
O2086 O 0.55138 0.52399 0.38774 0.0
O2087 O 0.53053 0.55394 0.41368 0.0
H2088 H 0.51186 0.46314 0.43085 0.0
H2089 H 0.49243 0.47232 0.38665 0.0
H2090 H 0.49326 0.4178 0.43008 0.0
H2091 H 0.47445 0.42667 0.38662 0.0
H2092 H 0.64057 0.55005 0.43797 0.0
H2093 H 0.61049 0.47989 0.40535 0.0
H2094 H 0.59249 0.54345 0.43415 0.0
H2095 H 0.65823 0.48766 0.40963 0.0
H2096 H 0.57174 0.39752 0.4009 0.0
H2097 H 0.60333 0.44434 0.36637 0.0
H2098 H 0.47274 0.50857 0.46243 0.0
H2099 H 0.55579 0.50451 0.4732 0.0
H2100 H 0.56433 0.56699 0.37337 0.0
H2101 H 0.52412 0.49214 0.37097 0.0
H2102 H 0.55179 0.57565 0.34831 0.0
H2103 H 0.51214 0.50214 0.346 0.0
H2104 H 0.4789 0.56128 0.41624 0.0
H2105 H 0.55436 0.57389 0.43626 0.0
H2106 H 0.45717 0.58263 0.43687 0.0
H2107 H 0.53128 0.5949 0.45658 0.0
H2108 H 0.42346 0.53205 0.38308 0.0
H2109 H 0.47279 0.59761 0.37026 0.0
H2110 H 0.64922 0.57256 0.38648 0.0
H2111 H 0.59886 0.63125 0.40621 0.0
Li2112 Li 0.24484 0.29929 0.1495 0.0
Li2113 Li 0.29267 0.30918 0.15319 0.0
Li2114 Li 0.27601 0.26334 0.14896 0.0
Li2115 Li 0.26682 0.28426 0.17106 0.0
C2116 C 0.26587 0.30192 0.12323 0.0
N2117 N 0.24664 0.31817 0.09721 0.0
C2118 C 0.26806 0.32838 0.11912 0.0
C2119 C 0.25424 0.28366 0.11402 0.0
C2120 C 0.25811 0.33623 0.10595 0.0
C2121 C 0.24456 0.29228 0.10093 0.0
C2122 C 0.25028 0.33226 0.17612 0.0
C2123 C 0.25384 0.35286 0.19913 0.0
N2124 N 0.22717 0.35114 0.20069 0.0
C2125 C 0.22291 0.33064 0.17797 0.0
C2126 C 0.2659 0.34343 0.18679 0.0
C2127 C 0.2116 0.34034 0.19045 0.0
C2128 C 0.19087 0.30302 0.13937 0.0
N2129 N 0.21427 0.31557 0.14166 0.0
C2130 C 0.1965 0.35629 0.13317 0.0
C2131 C 0.21724 0.34175 0.13891 0.0
C2132 C 0.17219 0.34391 0.13049 0.0
C2133 C 0.16934 0.31696 0.13378 0.0
H2134 H 0.18878 0.28234 0.14201 0.0
H2135 H 0.23583 0.35136 0.14125 0.0
C2136 C 0.33078 0.33198 0.13573 0.0
N2137 N 0.32048 0.33314 0.14903 0.0
C2138 C 0.35047 0.34965 0.13158 0.0
C2139 C 0.3495 0.36871 0.1551 0.0
C2140 C 0.32948 0.35087 0.15874 0.0
C2141 C 0.35999 0.36836 0.14131 0.0
H2142 H 0.32357 0.31739 0.1283 0.0
H2143 H 0.32111 0.35122 0.16927 0.0
C2144 C 0.2295 0.24113 0.15625 0.0
N2145 N 0.20605 0.19303 0.15032 0.0
C2146 C 0.22634 0.22229 0.16697 0.0
C2147 C 0.22049 0.23559 0.14256 0.0
C2148 C 0.2145 0.19807 0.16375 0.0
C2149 C 0.20877 0.21114 0.13975 0.0
C2150 C 0.31661 0.25605 0.16887 0.0
C2151 C 0.30423 0.23561 0.1763 0.0
C2152 C 0.34405 0.25581 0.1672 0.0
C2153 C 0.31954 0.21516 0.18193 0.0
C2154 C 0.35869 0.23503 0.173 0.0
N2155 N 0.34623 0.2153 0.18017 0.0
C2156 C 0.30123 0.23375 0.12781 0.0
C2157 C 0.2846 0.20733 0.14655 0.0
C2158 C 0.31341 0.21177 0.12167 0.0
N2159 N 0.28738 0.23123 0.1401 0.0
C2160 C 0.29656 0.18488 0.14082 0.0
C2161 C 0.31161 0.18703 0.12836 0.0
H2162 H 0.30373 0.25305 0.12308 0.0
H2163 H 0.27406 0.20576 0.15645 0.0
C2164 C 0.23875 0.27234 0.19608 0.0
N2165 N 0.26288 0.27916 0.19092 0.0
C2166 C 0.23546 0.26727 0.21052 0.0
C2167 C 0.28179 0.27702 0.2141 0.0
C2168 C 0.28416 0.28195 0.19959 0.0
C2169 C 0.25723 0.2693 0.21972 0.0
H2170 H 0.22214 0.27053 0.18892 0.0
H2171 H 0.30304 0.28774 0.19518 0.0
O2172 O 0.27531 0.29389 0.13614 0.0
O2173 O 0.26181 0.32199 0.16419 0.0
O2174 O 0.24107 0.26495 0.15919 0.0
O2175 O 0.30207 0.27643 0.16338 0.0
H2176 H 0.27704 0.34279 0.1261 0.0
H2177 H 0.25288 0.26301 0.11688 0.0
H2178 H 0.25947 0.35669 0.10269 0.0
H2179 H 0.23545 0.27836 0.09372 0.0
H2180 H 0.26571 0.36141 0.2075 0.0
H2181 H 0.21052 0.32163 0.16998 0.0
H2182 H 0.28713 0.34439 0.18568 0.0
H2183 H 0.19045 0.33913 0.19204 0.0
H2184 H 0.1993 0.37716 0.13109 0.0
H2185 H 0.1508 0.30681 0.13195 0.0
H2186 H 0.35843 0.34846 0.12093 0.0
H2187 H 0.35642 0.38284 0.16289 0.0
H2188 H 0.23319 0.2262 0.17764 0.0
H2189 H 0.22252 0.25004 0.13419 0.0
H2190 H 0.21206 0.18326 0.17192 0.0
H2191 H 0.20181 0.20658 0.12918 0.0
H2192 H 0.28301 0.23545 0.17766 0.0
H2193 H 0.35392 0.27157 0.1615 0.0
H2194 H 0.3102 0.19918 0.18767 0.0
H2195 H 0.37995 0.23459 0.1718 0.0
H2196 H 0.32516 0.21439 0.11217 0.0
H2197 H 0.29458 0.16614 0.14628 0.0
H2198 H 0.21623 0.26119 0.21437 0.0
H2199 H 0.29897 0.27925 0.22085 0.0
Li2200 Li 0.48587 0.52687 0.89768 0.0
Li2201 Li 0.46786 0.51586 0.92105 0.0
Li2202 Li 0.45384 0.49154 0.89988 0.0
Li2203 Li 0.44 0.53759 0.90403 0.0
C2204 C 0.49956 0.4686 0.90789 0.0
N2205 N 0.51802 0.41723 0.90691 0.0
C2206 C 0.50013 0.45323 0.92022 0.0
C2207 C 0.50858 0.45793 0.8951 0.0
C2208 C 0.5095 0.42728 0.91949 0.0
C2209 C 0.51776 0.43189 0.89482 0.0
C2210 C 0.48433 0.56462 0.92337 0.0
C2211 C 0.48144 0.58685 0.94594 0.0
N2212 N 0.50823 0.58916 0.94619 0.0
C2213 C 0.51181 0.5673 0.9238 0.0
C2214 C 0.46898 0.57457 0.93448 0.0
C2215 C 0.52353 0.57976 0.93544 0.0
C2216 C 0.51325 0.5643 0.88171 0.0
N2217 N 0.51574 0.5401 0.88782 0.0
C2218 C 0.56136 0.5381 0.88132 0.0
C2219 C 0.53912 0.52684 0.88774 0.0
C2220 C 0.55925 0.56302 0.87485 0.0
C2221 C 0.53476 0.57603 0.87496 0.0
H2222 H 0.49466 0.57476 0.88238 0.0
H2223 H 0.54067 0.50787 0.89295 0.0
C2224 C 0.45674 0.50995 0.95031 0.0
N2225 N 0.47641 0.51236 0.94059 0.0
C2226 C 0.46279 0.50693 0.96467 0.0
C2227 C 0.50924 0.50887 0.95871 0.0
C2228 C 0.50228 0.51181 0.94446 0.0
C2229 C 0.48936 0.50629 0.96903 0.0
H2230 H 0.43635 0.51024 0.94692 0.0
H2231 H 0.5175 0.51343 0.93645 0.0
C2232 C 0.45968 0.52827 0.87295 0.0
N2233 N 0.47422 0.54359 0.84593 0.0
C2234 C 0.45151 0.55271 0.86761 0.0
C2235 C 0.47498 0.51149 0.86451 0.0
C2236 C 0.45913 0.56013 0.85393 0.0
C2237 C 0.48221 0.51963 0.85089 0.0
C2238 C 0.40528 0.50858 0.91782 0.0
C2239 C 0.38722 0.4923 0.91077 0.0
C2240 C 0.39605 0.52839 0.9269 0.0
C2241 C 0.36016 0.49629 0.91283 0.0
C2242 C 0.36884 0.53178 0.92865 0.0
N2243 N 0.35161 0.5158 0.92164 0.0
C2244 C 0.44184 0.43646 0.90059 0.0
C2245 C 0.42933 0.45942 0.87975 0.0
C2246 C 0.42939 0.41351 0.89576 0.0
N2247 N 0.4415 0.45879 0.89258 0.0
C2248 C 0.41615 0.43715 0.87465 0.0
C2249 C 0.41564 0.41381 0.88278 0.0
H2250 H 0.45084 0.4367 0.91098 0.0
H2251 H 0.42866 0.47765 0.87378 0.0
C2252 C 0.41677 0.58827 0.90431 0.0
N2253 N 0.41282 0.56268 0.9005 0.0
C2254 C 0.39847 0.60765 0.90048 0.0
C2255 C 0.37203 0.57384 0.88921 0.0
C2256 C 0.39102 0.55517 0.8931 0.0
C2257 C 0.37581 0.60063 0.89268 0.0
H2258 H 0.4346 0.59377 0.9099 0.0
H2259 H 0.3887 0.53476 0.88993 0.0
O2260 O 0.49045 0.49403 0.90838 0.0
O2261 O 0.47253 0.55192 0.91224 0.0
O2262 O 0.45272 0.52079 0.88638 0.0
O2263 O 0.43185 0.50518 0.91583 0.0
H2264 H 0.49317 0.46115 0.9302 0.0
H2265 H 0.50844 0.46962 0.8855 0.0
H2266 H 0.50994 0.41511 0.92893 0.0
H2267 H 0.5247 0.42334 0.88498 0.0
H2268 H 0.46983 0.59449 0.95466 0.0
H2269 H 0.524 0.55961 0.91532 0.0
H2270 H 0.44768 0.57258 0.93431 0.0
H2271 H 0.54479 0.58186 0.93596 0.0
H2272 H 0.58001 0.5276 0.8815 0.0
H2273 H 0.53253 0.59551 0.87034 0.0
H2274 H 0.44684 0.50529 0.97228 0.0
H2275 H 0.52997 0.50811 0.96156 0.0
H2276 H 0.43965 0.56594 0.874 0.0
H2277 H 0.48125 0.49242 0.86846 0.0
H2278 H 0.4531 0.57906 0.84968 0.0
H2279 H 0.49416 0.5069 0.84427 0.0
H2280 H 0.39398 0.47682 0.90375 0.0
H2281 H 0.40975 0.54125 0.93238 0.0
H2282 H 0.34596 0.4839 0.90741 0.0
H2283 H 0.36142 0.54716 0.93556 0.0
H2284 H 0.42989 0.39601 0.90237 0.0
H2285 H 0.40535 0.4388 0.86478 0.0
H2286 H 0.40262 0.62805 0.90315 0.0
H2287 H 0.35479 0.56736 0.88337 0.0
Li2288 Li 0.22291 0.73373 0.64743 0.0
Li2289 Li 0.23525 0.71362 0.67119 0.0
Li2290 Li 0.25758 0.69906 0.64877 0.0
Li2291 Li 0.21236 0.68879 0.65324 0.0
C2292 C 0.27875 0.74871 0.66224 0.0
N2293 N 0.32197 0.77683 0.67192 0.0
C2294 C 0.29449 0.7385 0.67312 0.0
C2295 C 0.28496 0.77325 0.6563 0.0
C2296 C 0.31626 0.753 0.67787 0.0
C2297 C 0.30691 0.78715 0.66133 0.0
C2298 C 0.17648 0.71751 0.66952 0.0
C2299 C 0.15059 0.70191 0.6893 0.0
N2300 N 0.12841 0.71173 0.68307 0.0
C2301 C 0.15348 0.72749 0.66331 0.0
C2302 C 0.17509 0.70473 0.68265 0.0
C2303 C 0.12935 0.72436 0.67034 0.0
C2304 C 0.19525 0.76308 0.62687 0.0
N2305 N 0.20989 0.76506 0.63892 0.0
C2306 C 0.20111 0.81137 0.6404 0.0
C2307 C 0.21316 0.78855 0.64568 0.0
C2308 C 0.1855 0.80988 0.62808 0.0
C2309 C 0.183 0.78539 0.62118 0.0
H2310 H 0.19237 0.744 0.62194 0.0
H2311 H 0.22447 0.78938 0.65541 0.0
C2312 C 0.2542 0.70623 0.69924 0.0
N2313 N 0.23961 0.72208 0.69063 0.0
C2314 C 0.25734 0.71261 0.71354 0.0
C2315 C 0.23032 0.75144 0.70983 0.0
C2316 C 0.22781 0.74437 0.69558 0.0
C2317 C 0.24528 0.73547 0.71901 0.0
H2318 H 0.26352 0.68871 0.69496 0.0
H2319 H 0.21643 0.75662 0.68842 0.0
C2320 C 0.23794 0.71059 0.62234 0.0
N2321 N 0.25913 0.72751 0.59684 0.0
C2322 C 0.23088 0.69814 0.60964 0.0
C2323 C 0.25591 0.73161 0.62202 0.0
C2324 C 0.24178 0.70698 0.59687 0.0
C2325 C 0.26635 0.73989 0.60904 0.0
C2326 C 0.23748 0.65168 0.66738 0.0
C2327 C 0.23953 0.63284 0.65659 0.0
C2328 C 0.22871 0.64401 0.68083 0.0
C2329 C 0.23258 0.60663 0.65941 0.0
C2330 C 0.22203 0.61758 0.68324 0.0
N2331 N 0.22405 0.59961 0.67256 0.0
C2332 C 0.31409 0.69291 0.64532 0.0
C2333 C 0.28643 0.6671 0.63053 0.0
C2334 C 0.33656 0.68033 0.63994 0.0
N2335 N 0.28961 0.68583 0.64072 0.0
C2336 C 0.30825 0.654 0.6249 0.0
C2337 C 0.33377 0.66024 0.62975 0.0
H2338 H 0.31628 0.70782 0.65339 0.0
H2339 H 0.26678 0.66173 0.62707 0.0
C2340 C 0.1797 0.65749 0.63628 0.0
N2341 N 0.18518 0.66281 0.6501 0.0
C2342 C 0.16013 0.63928 0.63268 0.0
C2343 C 0.15191 0.6322 0.65763 0.0
C2344 C 0.17183 0.65048 0.66075 0.0
C2345 C 0.14583 0.62645 0.64342 0.0
H2346 H 0.19034 0.66764 0.62802 0.0
H2347 H 0.17655 0.65476 0.67167 0.0
O2348 O 0.25698 0.73514 0.65764 0.0
O2349 O 0.20037 0.72124 0.66305 0.0
O2350 O 0.22759 0.70181 0.63496 0.0
O2351 O 0.24399 0.67748 0.66479 0.0
H2352 H 0.29022 0.71935 0.67767 0.0
H2353 H 0.27297 0.78147 0.64787 0.0
H2354 H 0.32867 0.74528 0.68625 0.0
H2355 H 0.31196 0.80616 0.65681 0.0
H2356 H 0.14921 0.69193 0.69943 0.0
H2357 H 0.1543 0.7377 0.65323 0.0
H2358 H 0.19269 0.69682 0.68758 0.0
H2359 H 0.11137 0.73204 0.66569 0.0
H2360 H 0.20362 0.82989 0.64601 0.0
H2361 H 0.17075 0.78325 0.61183 0.0
H2362 H 0.26883 0.69962 0.72028 0.0
H2363 H 0.22097 0.76939 0.71357 0.0
H2364 H 0.21726 0.68168 0.60959 0.0
H2365 H 0.2618 0.74154 0.63162 0.0
H2366 H 0.23648 0.69749 0.58699 0.0
H2367 H 0.28022 0.75615 0.60868 0.0
H2368 H 0.24605 0.63845 0.64611 0.0
H2369 H 0.22679 0.65832 0.68929 0.0
H2370 H 0.2339 0.5919 0.65112 0.0
H2371 H 0.21512 0.61139 0.69358 0.0
H2372 H 0.35586 0.68599 0.64387 0.0
H2373 H 0.30499 0.63837 0.61725 0.0
H2374 H 0.15579 0.63581 0.62159 0.0
H2375 H 0.14144 0.62261 0.66624 0.0
Li2376 Li 0.06209 0.46054 0.40535 0.0
Li2377 Li 0.048 0.50641 0.40108 0.0
Li2378 Li 0.03406 0.48233 0.42233 0.0
Li2379 Li 0.01617 0.47108 0.39897 0.0
C2380 C 0.09655 0.49009 0.41928 0.0
N2381 N 0.15022 0.48382 0.42357 0.0
C2382 C 0.11453 0.50673 0.41242 0.0
C2383 C 0.10586 0.47038 0.4284 0.0
C2384 C 0.14159 0.50322 0.41472 0.0
C2385 C 0.13307 0.46748 0.4304 0.0
C2386 C 0.04206 0.4687 0.37439 0.0
C2387 C 0.01842 0.4755 0.35247 0.0
N2388 N 0.02685 0.45149 0.3478 0.0
C2389 C 0.05065 0.44418 0.36934 0.0
C2390 C 0.02599 0.48459 0.36587 0.0
C2391 C 0.04269 0.43581 0.35587 0.0
C2392 C 0.08567 0.40998 0.40557 0.0
N2393 N 0.08958 0.43571 0.40204 0.0
C2394 C 0.13128 0.42533 0.39152 0.0
C2395 C 0.11178 0.44365 0.39513 0.0
C2396 C 0.12757 0.3984 0.39467 0.0
C2397 C 0.10444 0.3909 0.40194 0.0
H2398 H 0.06754 0.40413 0.41076 0.0
H2399 H 0.11408 0.46416 0.39215 0.0
C2400 C 0.06236 0.56076 0.40226 0.0
N2401 N 0.06046 0.53912 0.39377 0.0
C2402 C 0.07553 0.58335 0.39751 0.0
C2403 C 0.08447 0.56095 0.37538 0.0
C2404 C 0.07078 0.53898 0.38047 0.0
C2405 C 0.08753 0.5834 0.38404 0.0
H2406 H 0.05474 0.56006 0.41296 0.0
H2407 H 0.06967 0.52127 0.3741 0.0
C2408 C 0.01799 0.43338 0.42472 0.0
N2409 N 0.99445 0.4086 0.44757 0.0
C2410 C 0.99051 0.43072 0.42528 0.0
C2411 C 0.03352 0.4233 0.43573 0.0
C2412 C 0.97898 0.41813 0.43693 0.0
C2413 C 0.02123 0.41089 0.44721 0.0
C2414 C 0.00332 0.52983 0.40913 0.0
C2415 C 0.00367 0.54526 0.42143 0.0
C2416 C 0.99457 0.54082 0.39637 0.0
C2417 C 0.99545 0.5716 0.42071 0.0
C2418 C 0.98655 0.56724 0.39609 0.0
N2419 N 0.98716 0.58196 0.40816 0.0
C2420 C 0.04539 0.48813 0.45155 0.0
C2421 C 0.99979 0.48633 0.44586 0.0
C2422 C 0.03953 0.49102 0.46594 0.0
N2423 N 0.02561 0.48579 0.44189 0.0
C2424 C 0.99301 0.48916 0.46014 0.0
C2425 C 0.01303 0.49164 0.4704 0.0
H2426 H 0.06574 0.48788 0.4481 0.0
H2427 H 0.98447 0.48476 0.4379 0.0
C2428 C 0.98847 0.43322 0.38334 0.0
N2429 N 0.98623 0.45768 0.38918 0.0
C2430 C 0.96695 0.42161 0.37653 0.0
C2431 C 0.94082 0.46018 0.3823 0.0
C2432 C 0.96307 0.4713 0.38878 0.0
C2433 C 0.94268 0.43502 0.37608 0.0
H2434 H 0.0069 0.42252 0.38421 0.0
H2435 H 0.96173 0.49052 0.39374 0.0
O2436 O 0.06998 0.49305 0.41707 0.0
O2437 O 0.04932 0.47709 0.38761 0.0
O2438 O 0.02961 0.44618 0.41358 0.0
O2439 O 0.01136 0.50404 0.4096 0.0
H2440 H 0.10773 0.5221 0.40534 0.0
H2441 H 0.09223 0.45722 0.43372 0.0
H2442 H 0.15574 0.51589 0.40944 0.0
H2443 H 0.14055 0.45219 0.43735 0.0
H2444 H 0.00585 0.48752 0.3458 0.0
H2445 H 0.06311 0.43162 0.37579 0.0
H2446 H 0.0193 0.50368 0.3696 0.0
H2447 H 0.04904 0.41681 0.35185 0.0
H2448 H 0.14885 0.43222 0.38611 0.0
H2449 H 0.10028 0.37039 0.40432 0.0
H2450 H 0.07705 0.60023 0.40452 0.0
H2451 H 0.09381 0.55964 0.36507 0.0
H2452 H 0.97819 0.43851 0.41688 0.0
H2453 H 0.05481 0.42527 0.43546 0.0
H2454 H 0.95773 0.41603 0.43754 0.0
H2455 H 0.03299 0.40314 0.45585 0.0
H2456 H 0.01045 0.53709 0.43139 0.0
H2457 H 0.99406 0.52909 0.38678 0.0
H2458 H 0.99573 0.58382 0.43013 0.0
H2459 H 0.97984 0.57605 0.38627 0.0
H2460 H 0.05559 0.49257 0.47349 0.0
H2461 H 0.97232 0.48991 0.46307 0.0
H2462 H 0.96898 0.40195 0.3721 0.0
H2463 H 0.92236 0.47102 0.38221 0.0
Li2464 Li 0.26658 0.71555 0.32744 0.0
Li2465 Li 0.27689 0.73519 0.3509 0.0
Li2466 Li 0.29107 0.69046 0.34495 0.0
Li2467 Li 0.24482 0.69891 0.34855 0.0
C2468 C 0.322 0.71975 0.32638 0.0
N2469 N 0.36281 0.71109 0.30747 0.0
C2470 C 0.34488 0.73515 0.32704 0.0
C2471 C 0.31985 0.69993 0.31611 0.0
C2472 C 0.36531 0.73047 0.31739 0.0
C2473 C 0.3407 0.69587 0.30664 0.0
C2474 C 0.21995 0.7472 0.33685 0.0
C2475 C 0.18684 0.78072 0.34085 0.0
N2476 N 0.17351 0.77221 0.32918 0.0
C2477 C 0.20603 0.73893 0.32484 0.0
C2478 C 0.21039 0.76839 0.34487 0.0
C2479 C 0.18255 0.75176 0.32116 0.0
C2480 C 0.254 0.7054 0.29874 0.0
N2481 N 0.26255 0.72417 0.30796 0.0
C2482 C 0.26457 0.75626 0.2894 0.0
C2483 C 0.26789 0.74921 0.30362 0.0
C2484 C 0.25565 0.73731 0.27959 0.0
C2485 C 0.25041 0.71155 0.28443 0.0
H2486 H 0.24988 0.68568 0.30252 0.0
H2487 H 0.27455 0.76374 0.31125 0.0
C2488 C 0.30455 0.76399 0.37139 0.0
N2489 N 0.28769 0.76649 0.36026 0.0
C2490 C 0.31559 0.78637 0.37769 0.0
C2491 C 0.29144 0.81355 0.36104 0.0
C2492 C 0.28079 0.79059 0.35508 0.0
C2493 C 0.30943 0.81158 0.37236 0.0
H2494 H 0.31017 0.74452 0.37506 0.0
H2495 H 0.26767 0.79192 0.34604 0.0
C2496 C 0.25722 0.65143 0.33501 0.0
N2497 N 0.2508 0.59768 0.33912 0.0
C2498 C 0.26168 0.64026 0.34837 0.0
C2499 C 0.24965 0.63518 0.32373 0.0
C2500 C 0.25823 0.61309 0.35024 0.0
C2501 C 0.2465 0.60807 0.32601 0.0
C2502 C 0.26415 0.70954 0.37582 0.0
C2503 C 0.27471 0.69814 0.38809 0.0
C2504 C 0.24348 0.72775 0.37698 0.0
C2505 C 0.26446 0.70523 0.40131 0.0
C2506 C 0.23377 0.73432 0.39039 0.0
N2507 N 0.24437 0.72303 0.40218 0.0
C2508 C 0.33063 0.66838 0.36141 0.0
C2509 C 0.32674 0.64743 0.33899 0.0
C2510 C 0.35034 0.6507 0.36548 0.0
N2511 N 0.31912 0.66629 0.34844 0.0
C2512 C 0.34677 0.62955 0.34255 0.0
C2513 C 0.35856 0.63093 0.35603 0.0
H2514 H 0.32433 0.68373 0.36863 0.0
H2515 H 0.31707 0.64606 0.32879 0.0
C2516 C 0.18938 0.68626 0.34888 0.0
N2517 N 0.21274 0.68361 0.35589 0.0
C2518 C 0.16667 0.67345 0.35379 0.0
C2519 C 0.19245 0.65507 0.37294 0.0
C2520 C 0.21451 0.66845 0.36776 0.0
C2521 C 0.16806 0.65729 0.3659 0.0
H2522 H 0.18841 0.69771 0.33927 0.0
H2523 H 0.23329 0.6659 0.37302 0.0
O2524 O 0.30188 0.72413 0.33579 0.0
O2525 O 0.24335 0.73537 0.34047 0.0
O2526 O 0.26136 0.67786 0.33276 0.0
O2527 O 0.27405 0.70273 0.3628 0.0
H2528 H 0.34683 0.75056 0.33495 0.0
H2529 H 0.30235 0.68772 0.31547 0.0
H2530 H 0.38315 0.74224 0.31777 0.0
H2531 H 0.33931 0.68059 0.29865 0.0
H2532 H 0.17919 0.79709 0.34699 0.0
H2533 H 0.213 0.72249 0.31854 0.0
H2534 H 0.22107 0.77533 0.3541 0.0
H2535 H 0.17148 0.74543 0.31195 0.0
H2536 H 0.26854 0.77643 0.28619 0.0
H2537 H 0.24387 0.6962 0.27724 0.0
H2538 H 0.32973 0.78385 0.38621 0.0
H2539 H 0.28605 0.83259 0.35665 0.0
H2540 H 0.26808 0.65233 0.35717 0.0
H2541 H 0.24641 0.64334 0.31327 0.0
H2542 H 0.26163 0.60423 0.36053 0.0
H2543 H 0.24071 0.59528 0.31735 0.0
H2544 H 0.2906 0.68388 0.3874 0.0
H2545 H 0.23493 0.73662 0.36765 0.0
H2546 H 0.27245 0.69656 0.41089 0.0
H2547 H 0.21777 0.74838 0.39142 0.0
H2548 H 0.35926 0.65263 0.37588 0.0
H2549 H 0.35261 0.6145 0.335 0.0
H2550 H 0.14832 0.67593 0.34802 0.0
H2551 H 0.19485 0.64232 0.38207 0.0
Li2552 Li 0.05785 0.53933 0.09712 0.0
Li2553 Li 0.04634 0.49367 0.09992 0.0
Li2554 Li 0.03207 0.51632 0.07908 0.0
Li2555 Li 0.01187 0.52632 0.10269 0.0
C2556 C 0.09524 0.50465 0.08736 0.0
N2557 N 0.14799 0.49404 0.09251 0.0
C2558 C 0.10501 0.50482 0.10124 0.0
C2559 C 0.11236 0.49916 0.0761 0.0
C2560 C 0.13171 0.49939 0.10362 0.0
C2561 C 0.13894 0.49383 0.07892 0.0
C2562 C 0.04156 0.51444 0.12821 0.0
C2563 C 0.01635 0.49468 0.14718 0.0
N2564 N 0.03656 0.49968 0.15631 0.0
C2565 C 0.06204 0.51945 0.1378 0.0
C2566 C 0.0185 0.50201 0.13294 0.0
C2567 C 0.05915 0.51179 0.15196 0.0
C2568 C 0.08124 0.57792 0.11391 0.0
N2569 N 0.08308 0.56622 0.10098 0.0
C2570 C 0.12016 0.59328 0.09491 0.0
C2571 C 0.10207 0.57336 0.0915 0.0
C2572 C 0.11886 0.60548 0.10828 0.0
C2573 C 0.09915 0.59755 0.11785 0.0
H2574 H 0.06579 0.572 0.12117 0.0
H2575 H 0.1032 0.56359 0.08132 0.0
C2576 C 0.07173 0.44581 0.0949 0.0
N2577 N 0.06049 0.45991 0.1056 0.0
C2578 C 0.08671 0.42332 0.09783 0.0
C2579 C 0.07701 0.42914 0.12271 0.0
C2580 C 0.0622 0.45156 0.11929 0.0
C2581 C 0.09022 0.41522 0.11194 0.0
H2582 H 0.07011 0.45277 0.08408 0.0
H2583 H 0.05322 0.46274 0.1277 0.0
C2584 C 0.02968 0.57205 0.07882 0.0
N2585 N 0.03948 0.61355 0.06051 0.0
C2586 C 0.0147 0.5952 0.07971 0.0
C2587 C 0.04962 0.56998 0.06862 0.0
C2588 C 0.01996 0.61597 0.07036 0.0
C2589 C 0.05428 0.59119 0.05946 0.0
C2590 C 0.00461 0.4669 0.09082 0.0
C2591 C 0.01287 0.4519 0.07919 0.0
C2592 C 0.99075 0.45472 0.10186 0.0
C2593 C 0.00751 0.42481 0.0789 0.0
C2594 C 0.98576 0.42758 0.10117 0.0
N2595 N 0.9942 0.41331 0.08981 0.0
C2596 C 0.04211 0.50122 0.05079 0.0
C2597 C 0.00156 0.52374 0.0544 0.0
C2598 C 0.0367 0.49852 0.03635 0.0
N2599 N 0.02457 0.51358 0.05945 0.0
C2600 C 0.99536 0.52154 0.04002 0.0
C2601 C 0.013 0.50868 0.03078 0.0
H2602 H 0.06021 0.49327 0.05515 0.0
H2603 H 0.98798 0.5334 0.0616 0.0
C2604 C 0.98404 0.55591 0.12278 0.0
N2605 N 0.98101 0.53868 0.11184 0.0
C2606 C 0.96198 0.56758 0.12907 0.0
C2607 C 0.93409 0.54355 0.11268 0.0
C2608 C 0.95672 0.53208 0.10681 0.0
C2609 C 0.93664 0.56179 0.12384 0.0
H2610 H 0.00368 0.5611 0.12637 0.0
H2611 H 0.95502 0.5185 0.09799 0.0
O2612 O 0.06908 0.50961 0.08472 0.0
O2613 O 0.04389 0.52237 0.11439 0.0
O2614 O 0.02464 0.55152 0.08787 0.0
O2615 O 0.00994 0.49339 0.09135 0.0
H2616 H 0.09218 0.50898 0.11011 0.0
H2617 H 0.10517 0.49899 0.06529 0.0
H2618 H 0.13949 0.4994 0.11432 0.0
H2619 H 0.15239 0.48951 0.0703 0.0
H2620 H 0.99863 0.48501 0.15096 0.0
H2621 H 0.07999 0.52916 0.13435 0.0
H2622 H 0.00248 0.49796 0.12569 0.0
H2623 H 0.07485 0.51552 0.15949 0.0
H2624 H 0.13517 0.59887 0.08729 0.0
H2625 H 0.09731 0.60676 0.12817 0.0
H2626 H 0.09624 0.41295 0.08917 0.0
H2627 H 0.07935 0.42375 0.13376 0.0
H2628 H 0.99916 0.59706 0.08755 0.0
H2629 H 0.06141 0.55222 0.06777 0.0
H2630 H 0.00852 0.63401 0.07091 0.0
H2631 H 0.06967 0.58986 0.05153 0.0
H2632 H 0.02358 0.461 0.07055 0.0
H2633 H 0.98382 0.46607 0.11083 0.0
H2634 H 0.01397 0.41293 0.07001 0.0
H2635 H 0.97512 0.41787 0.10966 0.0
H2636 H 0.05099 0.48874 0.02959 0.0
H2637 H 0.97674 0.52939 0.03622 0.0
H2638 H 0.96479 0.58185 0.1375 0.0
H2639 H 0.91486 0.53857 0.10839 0.0
Li2640 Li 0.21237 0.31149 0.84646 0.0
Li2641 Li 0.25924 0.29788 0.84958 0.0
Li2642 Li 0.23384 0.28372 0.82867 0.0
Li2643 Li 0.22461 0.26546 0.85232 0.0
C2644 C 0.24222 0.34612 0.83088 0.0
N2645 N 0.23905 0.39923 0.82424 0.0
C2646 C 0.25924 0.36424 0.83737 0.0
C2647 C 0.22372 0.35499 0.82094 0.0
C2648 C 0.2573 0.39101 0.83388 0.0
C2649 C 0.22238 0.38193 0.81776 0.0
C2650 C 0.22531 0.29062 0.87724 0.0
C2651 C 0.23711 0.26628 0.8983 0.0
N2652 N 0.21403 0.27392 0.90447 0.0
C2653 C 0.20183 0.29844 0.88382 0.0
C2654 C 0.24322 0.2746 0.88455 0.0
C2655 C 0.19645 0.28972 0.89759 0.0
C2656 C 0.16098 0.32762 0.85181 0.0
N2657 N 0.18594 0.33726 0.85046 0.0
C2658 C 0.17148 0.38033 0.85752 0.0
C2659 C 0.19155 0.36305 0.85327 0.0
C2660 C 0.1457 0.37067 0.85932 0.0
C2661 C 0.14049 0.34402 0.85632 0.0
H2662 H 0.15718 0.30691 0.84985 0.0
H2663 H 0.21166 0.37007 0.85266 0.0
C2664 C 0.31417 0.31073 0.84793 0.0
N2665 N 0.29228 0.31063 0.85629 0.0
C2666 C 0.33727 0.32324 0.8525 0.0
C2667 C 0.31468 0.33566 0.87408 0.0
C2668 C 0.29225 0.32248 0.86921 0.0
C2669 C 0.33758 0.33654 0.86561 0.0
H2670 H 0.31345 0.30196 0.83749 0.0
H2671 H 0.27436 0.32281 0.87547 0.0
C2672 C 0.18228 0.27049 0.82773 0.0
N2673 N 0.14915 0.25389 0.80623 0.0
C2674 C 0.17634 0.24367 0.82621 0.0
C2675 C 0.17119 0.28891 0.81843 0.0
C2676 C 0.15959 0.23566 0.81524 0.0
C2677 C 0.15454 0.28011 0.80759 0.0
C2678 C 0.28241 0.25291 0.8402 0.0
C2679 C 0.29594 0.25346 0.82727 0.0
C2680 C 0.29508 0.24332 0.85233 0.0
C2681 C 0.32212 0.24471 0.82674 0.0
C2682 C 0.32129 0.2348 0.85136 0.0
N2683 N 0.33416 0.23568 0.8387 0.0
C2684 C 0.24326 0.29474 0.79973 0.0
C2685 C 0.2313 0.25038 0.80469 0.0
C2686 C 0.246 0.2889 0.78534 0.0
N2687 N 0.23594 0.27558 0.80904 0.0
C2688 C 0.23362 0.24369 0.79037 0.0
C2689 C 0.2412 0.26307 0.7805 0.0
H2690 H 0.24734 0.31447 0.80351 0.0
H2691 H 0.22619 0.23538 0.81239 0.0
C2692 C 0.18835 0.23754 0.86874 0.0
N2693 N 0.21209 0.23527 0.8621 0.0
C2694 C 0.17713 0.21579 0.87551 0.0
C2695 C 0.21461 0.18946 0.86812 0.0
C2696 C 0.22538 0.21193 0.8617 0.0
C2697 C 0.19015 0.19132 0.87511 0.0
H2698 H 0.17788 0.25617 0.86849 0.0
H2699 H 0.24402 0.21063 0.85612 0.0
O2700 O 0.24393 0.31981 0.83409 0.0
O2701 O 0.23075 0.2986 0.86369 0.0
O2702 O 0.19882 0.27869 0.83831 0.0
O2703 O 0.25677 0.26134 0.84093 0.0
H2704 H 0.27374 0.35775 0.84504 0.0
H2705 H 0.21052 0.34122 0.81577 0.0
H2706 H 0.27029 0.40526 0.83884 0.0
H2707 H 0.2081 0.38908 0.81013 0.0
H2708 H 0.25071 0.25374 0.90406 0.0
H2709 H 0.18782 0.31094 0.87833 0.0
H2710 H 0.26157 0.26859 0.87964 0.0
H2711 H 0.17828 0.29547 0.90279 0.0
H2712 H 0.17623 0.40072 0.85994 0.0
H2713 H 0.12082 0.33591 0.85763 0.0
H2714 H 0.35441 0.32307 0.84563 0.0
H2715 H 0.31349 0.34614 0.88407 0.0
H2716 H 0.18474 0.22919 0.83338 0.0
H2717 H 0.1754 0.30977 0.81958 0.0
H2718 H 0.15491 0.21494 0.81388 0.0
H2719 H 0.14589 0.29413 0.80027 0.0
H2720 H 0.28642 0.26075 0.81777 0.0
H2721 H 0.2848 0.24251 0.86237 0.0
H2722 H 0.33288 0.24515 0.81683 0.0
H2723 H 0.33139 0.22745 0.86068 0.0
H2724 H 0.25174 0.30445 0.77807 0.0
H2725 H 0.23016 0.22345 0.78712 0.0
H2726 H 0.15799 0.21784 0.88055 0.0
H2727 H 0.22511 0.17083 0.86755 0.0
Li2728 Li 0.45264 0.50679 0.59808 0.0
Li2729 Li 0.43797 0.46089 0.59467 0.0
Li2730 Li 0.48413 0.47125 0.60063 0.0
Li2731 Li 0.46583 0.48148 0.57721 0.0
C2732 C 0.45831 0.47098 0.62551 0.0
N2733 N 0.47303 0.45586 0.65254 0.0
C2734 C 0.44864 0.44746 0.63131 0.0
C2735 C 0.47524 0.48695 0.6335 0.0
C2736 C 0.45636 0.44013 0.64499 0.0
C2737 C 0.48253 0.47891 0.64713 0.0
C2738 C 0.40345 0.48981 0.58065 0.0
C2739 C 0.36639 0.4672 0.57006 0.0
N2740 N 0.34958 0.48346 0.57717 0.0
C2741 C 0.38581 0.50636 0.58782 0.0
C2742 C 0.39369 0.47013 0.57165 0.0
C2743 C 0.35864 0.50282 0.58593 0.0
C2744 C 0.43739 0.56011 0.59497 0.0
N2745 N 0.44093 0.54032 0.60453 0.0
C2746 C 0.41934 0.56546 0.62256 0.0
C2747 C 0.43268 0.54274 0.61818 0.0
C2748 C 0.41441 0.58589 0.61278 0.0
C2749 C 0.42441 0.58331 0.59893 0.0
H2750 H 0.4434 0.55732 0.58407 0.0
H2751 H 0.43509 0.52642 0.62546 0.0
C2752 C 0.41365 0.4107 0.59464 0.0
N2753 N 0.41033 0.43639 0.59841 0.0
C2754 C 0.39477 0.39182 0.5984 0.0
C2755 C 0.36906 0.42637 0.60951 0.0
C2756 C 0.38863 0.4445 0.60572 0.0
C2757 C 0.37216 0.39948 0.60608 0.0
H2758 H 0.43138 0.4047 0.58912 0.0
H2759 H 0.38679 0.46497 0.60885 0.0
C2760 C 0.49738 0.52921 0.58961 0.0
N2761 N 0.51395 0.58123 0.59001 0.0
C2762 C 0.49605 0.54451 0.57729 0.0
C2763 C 0.50736 0.54026 0.6021 0.0
C2764 C 0.50447 0.5708 0.57771 0.0
C2765 C 0.51556 0.56663 0.60209 0.0
C2766 C 0.48143 0.43249 0.57535 0.0
C2767 C 0.50884 0.4292 0.57477 0.0
C2768 C 0.46562 0.42257 0.56442 0.0
C2769 C 0.52003 0.41618 0.56315 0.0
C2770 C 0.47757 0.40972 0.55297 0.0
N2771 N 0.50429 0.40682 0.55258 0.0
C2772 C 0.51153 0.43482 0.61746 0.0
C2773 C 0.5381 0.47026 0.6092 0.0
C2774 C 0.53327 0.4232 0.62407 0.0
N2775 N 0.51426 0.45802 0.61034 0.0
C2776 C 0.56057 0.45894 0.61536 0.0
C2777 C 0.55818 0.43513 0.6229 0.0
H2778 H 0.49256 0.42502 0.61772 0.0
H2779 H 0.5398 0.48838 0.60319 0.0
C2780 C 0.45422 0.48697 0.54799 0.0
N2781 N 0.47402 0.48428 0.55761 0.0
C2782 C 0.46004 0.48994 0.5336 0.0
C2783 C 0.50657 0.48733 0.53932 0.0
C2784 C 0.49983 0.48446 0.5536 0.0
C2785 C 0.48653 0.49025 0.52911 0.0
H2786 H 0.43389 0.48707 0.55149 0.0
H2787 H 0.51517 0.48269 0.56154 0.0
O2788 O 0.45121 0.47836 0.61208 0.0
O2789 O 0.43012 0.49276 0.58248 0.0
O2790 O 0.48904 0.5035 0.58945 0.0
O2791 O 0.47016 0.44575 0.58645 0.0
H2792 H 0.43551 0.43487 0.62528 0.0
H2793 H 0.48277 0.50527 0.62919 0.0
H2794 H 0.44915 0.42191 0.64959 0.0
H2795 H 0.49574 0.491 0.65341 0.0
H2796 H 0.35857 0.45193 0.5632 0.0
H2797 H 0.39294 0.52165 0.59486 0.0
H2798 H 0.40705 0.45702 0.5661 0.0
H2799 H 0.34476 0.51543 0.59145 0.0
H2800 H 0.41158 0.56622 0.63326 0.0
H2801 H 0.42134 0.59859 0.59106 0.0
H2802 H 0.39843 0.37131 0.59577 0.0
H2803 H 0.3519 0.43334 0.61527 0.0
H2804 H 0.48833 0.53628 0.56754 0.0
H2805 H 0.5087 0.52861 0.61169 0.0
H2806 H 0.50342 0.58294 0.56828 0.0
H2807 H 0.52322 0.57548 0.6117 0.0
H2808 H 0.52138 0.43684 0.58311 0.0
H2809 H 0.44439 0.42503 0.5647 0.0
H2810 H 0.54122 0.4136 0.56252 0.0
H2811 H 0.4656 0.4021 0.54439 0.0
H2812 H 0.53084 0.40454 0.62956 0.0
H2813 H 0.5796 0.46852 0.61417 0.0
H2814 H 0.44398 0.49187 0.52608 0.0
H2815 H 0.52725 0.48785 0.53636 0.0
C2816 C 0.15941 0.38104 0.37639 0.0
C2817 C 0.14667 0.37805 0.38956 0.0
H2818 H 0.18466 0.36396 0.36072 0.0
C2819 C 0.15118 0.35476 0.39737 0.0
H2820 H 0.15631 0.39849 0.36996 0.0
C2821 C 0.16686 0.33448 0.39182 0.0
C2822 C 0.17875 0.33709 0.3784 0.0
H2823 H 0.14217 0.35191 0.40767 0.0
H2824 H 0.16878 0.31637 0.39785 0.0
C2825 C 0.1754 0.36095 0.37095 0.0
C2826 C 0.91206 0.91989 0.6414 0.0
C2827 C 0.91058 0.92974 0.62746 0.0
H2828 H 0.89344 0.89722 0.65774 0.0
C2829 C 0.88753 0.92494 0.61953 0.0
H2830 H 0.92955 0.92299 0.6478 0.0
C2831 C 0.8671 0.90954 0.6251 0.0
C2832 C 0.86899 0.8988 0.63883 0.0
H2833 H 0.88545 0.9326 0.60886 0.0
H2834 H 0.8503 0.90526 0.61837 0.0
C2835 C 0.89147 0.90472 0.64703 0.0
C2836 C 0.34557 0.61922 0.87397 0.0
C2837 C 0.3572 0.62133 0.88748 0.0
H2838 H 0.32125 0.63721 0.85814 0.0
C2839 C 0.35194 0.64401 0.89565 0.0
H2840 H 0.34934 0.60225 0.86727 0.0
C2841 C 0.33636 0.66447 0.89022 0.0
C2842 C 0.32537 0.66269 0.87654 0.0
H2843 H 0.36015 0.64617 0.90619 0.0
H2844 H 0.3337 0.68205 0.89661 0.0
C2845 C 0.32974 0.63954 0.86861 0.0
C2846 C 0.60336 0.0659 0.13405 0.0
C2847 C 0.58248 0.07782 0.12659 0.0
H2848 H 0.63971 0.07186 0.14541 0.0
C2849 C 0.58179 0.10547 0.12535 0.0
H2850 H 0.6043 0.0446 0.13513 0.0
C2851 C 0.60167 0.12096 0.13134 0.0
C2852 C 0.62285 0.10911 0.13856 0.0
H2853 H 0.56577 0.11515 0.11976 0.0
H2854 H 0.60077 0.14222 0.13005 0.0
C2855 C 0.62358 0.08143 0.13986 0.0
C2856 C 0.16632 0.64728 0.12973 0.0
C2857 C 0.16906 0.6697 0.12107 0.0
H2858 H 0.1481 0.60936 0.13245 0.0
C2859 C 0.15661 0.6701 0.10774 0.0
H2860 H 0.17552 0.64658 0.1401 0.0
C2861 C 0.14115 0.64872 0.10331 0.0
C2862 C 0.13749 0.62681 0.11224 0.0
H2863 H 0.15849 0.68716 0.10086 0.0
H2864 H 0.13121 0.64976 0.09314 0.0
C2865 C 0.15051 0.62612 0.12541 0.0
C2866 C 0.60559 0.92166 0.37942 0.0
C2867 C 0.58242 0.92373 0.37129 0.0
H2868 H 0.64399 0.90444 0.38139 0.0
C2869 C 0.5815 0.91162 0.3579 0.0
H2870 H 0.60671 0.93058 0.38985 0.0
C2871 C 0.60299 0.89697 0.35293 0.0
C2872 C 0.62577 0.89375 0.36133 0.0
H2873 H 0.56397 0.9132 0.35135 0.0
H2874 H 0.60155 0.88781 0.34257 0.0
C2875 C 0.62699 0.90672 0.37453 0.0
C2876 C 0.32519 0.36175 0.63015 0.0
C2877 C 0.32075 0.33844 0.62238 0.0
H2878 H 0.34517 0.39884 0.63133 0.0
C2879 C 0.33162 0.33634 0.60869 0.0
H2880 H 0.31675 0.36433 0.64061 0.0
C2881 C 0.3474 0.35656 0.60316 0.0
C2882 C 0.35297 0.37929 0.61124 0.0
H2883 H 0.32883 0.31864 0.60241 0.0
H2884 H 0.35565 0.35412 0.59264 0.0
C2885 C 0.34123 0.38181 0.6247 0.0
C2886 C 0.89807 0.07629 0.86855 0.0
C2887 C 0.92325 0.08742 0.87076 0.0
H2888 H 0.85773 0.08286 0.86267 0.0
C2889 C 0.92685 0.11447 0.86784 0.0
H2890 H 0.89457 0.0555 0.8705 0.0
C2891 C 0.90592 0.12998 0.86298 0.0
C2892 C 0.8806 0.11906 0.86113 0.0
H2893 H 0.94573 0.12398 0.8696 0.0
H2894 H 0.90963 0.15065 0.86076 0.0
C2895 C 0.87699 0.09194 0.86385 0.0
C2896 C 0.87677 0.65045 0.61868 0.0
C2897 C 0.86432 0.63041 0.61087 0.0
H2898 H 0.87246 0.68615 0.63044 0.0
C2899 C 0.83691 0.63172 0.60865 0.0
H2900 H 0.89781 0.64959 0.62079 0.0
C2901 C 0.8223 0.6531 0.61391 0.0
C2902 C 0.83478 0.67334 0.62171 0.0
H2903 H 0.8269 0.61646 0.60264 0.0
H2904 H 0.80131 0.65393 0.6117 0.0
C2905 C 0.86218 0.6715 0.62414 0.0
C2906 C 0.10362 0.10395 0.35099 0.0
C2907 C 0.12424 0.11178 0.36012 0.0
H2908 H 0.06662 0.08359 0.3489 0.0
C2909 C 0.12384 0.10282 0.37427 0.0
H2910 H 0.10349 0.10985 0.33995 0.0
C2911 C 0.10306 0.08714 0.37924 0.0
C2912 C 0.08201 0.08045 0.37025 0.0
H2913 H 0.13899 0.10874 0.38173 0.0
H2914 H 0.10285 0.08124 0.39029 0.0
C2915 C 0.0826 0.0887 0.35605 0.0
C2916 C 0.65859 0.37481 0.12208 0.0
C2917 C 0.64629 0.37328 0.1087 0.0
H2918 H 0.68167 0.35491 0.13789 0.0
C2919 C 0.6499 0.35027 0.10052 0.0
H2920 H 0.65597 0.39195 0.12881 0.0
C2921 C 0.66422 0.32887 0.10588 0.0
C2922 C 0.67565 0.33017 0.11943 0.0
H2923 H 0.64129 0.34857 0.09004 0.0
H2924 H 0.66604 0.31112 0.09952 0.0
C2925 C 0.67326 0.35354 0.12734 0.0
C2926 C 0.3972 0.91278 0.87959 0.0
C2927 C 0.4164 0.92181 0.87003 0.0
H2928 H 0.36266 0.88937 0.8827 0.0
C2929 C 0.41377 0.91589 0.85557 0.0
H2930 H 0.39908 0.91684 0.89084 0.0
C2931 C 0.39245 0.90076 0.85076 0.0
C2932 C 0.37368 0.89062 0.86039 0.0
H2933 H 0.42837 0.92279 0.84802 0.0
H2934 H 0.39092 0.89678 0.83951 0.0
C2935 C 0.37623 0.89714 0.87486 0.0
C2936 C 0.84849 0.37493 0.87662 0.0
C2937 C 0.85515 0.37731 0.89108 0.0
H2938 H 0.82842 0.35251 0.86063 0.0
C2939 C 0.84487 0.3586 0.90069 0.0
H2940 H 0.85638 0.38847 0.8688 0.0
C2941 C 0.82933 0.33756 0.89588 0.0
C2942 C 0.82323 0.33509 0.88141 0.0
H2943 H 0.849 0.35999 0.91193 0.0
H2944 H 0.82223 0.32307 0.90344 0.0
C2945 C 0.83253 0.35422 0.87188 0.0
C2946 C 0.37669 0.10512 0.62338 0.0
C2947 C 0.37467 0.11174 0.63786 0.0
H2948 H 0.39885 0.08516 0.60724 0.0
C2949 C 0.39352 0.10137 0.64735 0.0
H2950 H 0.36292 0.11303 0.61569 0.0
C2951 C 0.41445 0.08585 0.64241 0.0
C2952 C 0.41669 0.0799 0.62792 0.0
H2953 H 0.39234 0.10546 0.65861 0.0
H2954 H 0.42905 0.07869 0.64989 0.0
C2955 C 0.39735 0.08921 0.6185 0.0
C2956 C 0.67306 0.64631 0.37305 0.0
C2957 C 0.67576 0.66929 0.38126 0.0
H2958 H 0.65507 0.60832 0.37101 0.0
C2959 C 0.66406 0.67023 0.39475 0.0
H2960 H 0.68166 0.64522 0.36254 0.0
C2961 C 0.6492 0.64889 0.39976 0.0
C2962 C 0.64532 0.62631 0.39128 0.0
H2963 H 0.6661 0.68766 0.40135 0.0
H2964 H 0.6404 0.65032 0.41021 0.0
C2965 C 0.65787 0.62512 0.37796 0.0
C2966 C 0.10276 0.89983 0.14869 0.0
C2967 C 0.12559 0.89589 0.14041 0.0
H2968 H 0.06395 0.91673 0.14989 0.0
C2969 C 0.12726 0.90847 0.12711 0.0
H2970 H 0.10097 0.89102 0.15911 0.0
C2971 C 0.10624 0.92368 0.122 0.0
C2972 C 0.08299 0.92636 0.12999 0.0
H2973 H 0.14427 0.90564 0.12031 0.0
H2974 H 0.10767 0.93226 0.1115 0.0
C2975 C 0.08161 0.9147 0.14348 0.0
C2976 C 0.66176 0.83032 0.89293 0.0
C2977 C 0.67407 0.83187 0.87962 0.0
H2978 H 0.63745 0.84953 0.90834 0.0
C2979 C 0.67183 0.85526 0.8717 0.0
H2980 H 0.66343 0.81255 0.89929 0.0
C2981 C 0.65646 0.87625 0.8767 0.0
C2982 C 0.64327 0.87443 0.88983 0.0
H2983 H 0.68091 0.85682 0.86132 0.0
H2984 H 0.65401 0.89339 0.86995 0.0
C2985 C 0.64673 0.85144 0.89804 0.0
C2986 C 0.42495 0.40552 0.14076 0.0
C2987 C 0.42348 0.41871 0.12766 0.0
H2988 H 0.40575 0.37944 0.15544 0.0
C2989 C 0.40031 0.41664 0.11954 0.0
H2990 H 0.4426 0.4069 0.14722 0.0
C2991 C 0.37942 0.40074 0.12414 0.0
C2992 C 0.38117 0.38695 0.13705 0.0
H2993 H 0.39878 0.42643 0.10935 0.0
H2994 H 0.36202 0.3989 0.11751 0.0
C2995 C 0.40387 0.38995 0.14547 0.0
C2996 C 0.85281 0.14906 0.39873 0.0
C2997 C 0.85632 0.12613 0.39047 0.0
H2998 H 0.83619 0.18798 0.4 0.0
C2999 C 0.84331 0.12446 0.37728 0.0
H3000 H 0.86195 0.15086 0.40907 0.0
C3001 C 0.82806 0.14553 0.37228 0.0
C3002 C 0.82578 0.16885 0.38024 0.0
H3003 H 0.84581 0.10737 0.3705 0.0
H3004 H 0.81911 0.14408 0.36186 0.0
C3005 C 0.83791 0.17027 0.39361 0.0
C3006 C 0.12691 0.58997 0.62849 0.0
C3007 C 0.12397 0.60815 0.63966 0.0
H3008 H 0.1081 0.56167 0.61494 0.0
C3009 C 0.09941 0.61 0.64656 0.0
H3010 H 0.14569 0.5879 0.62308 0.0
C3011 C 0.07792 0.59494 0.64192 0.0
C3012 C 0.08059 0.57756 0.63036 0.0
H3013 H 0.09649 0.62392 0.65515 0.0
H3014 H 0.05901 0.59732 0.64717 0.0
C3015 C 0.10547 0.57476 0.62392 0.0
C3016 C 0.65711 0.12043 0.62385 0.0
C3017 C 0.6447 0.12342 0.61058 0.0
H3018 H 0.68201 0.13751 0.63969 0.0
C3019 C 0.64939 0.14671 0.60281 0.0
H3020 H 0.65385 0.10297 0.63025 0.0
C3021 C 0.665 0.16696 0.60846 0.0
C3022 C 0.6766 0.16433 0.62195 0.0
H3023 H 0.64063 0.14956 0.59245 0.0
H3024 H 0.6671 0.18505 0.60243 0.0
C3025 C 0.67299 0.14051 0.6294 0.0
C3026 C 0.11018 0.37984 0.877 0.0
C3027 C 0.12453 0.38782 0.86499 0.0
H3028 H 0.0788 0.38882 0.89148 0.0
C3029 C 0.11827 0.41192 0.85841 0.0
H3030 H 0.1148 0.3614 0.8823 0.0
C3031 C 0.09745 0.42745 0.86354 0.0
C3032 C 0.08304 0.41938 0.87554 0.0
H3033 H 0.12907 0.41841 0.84911 0.0
H3034 H 0.0926 0.44574 0.85817 0.0
C3035 C 0.08978 0.39558 0.8823 0.0
C3036 C 0.84667 0.87982 0.12536 0.0
C3037 C 0.8588 0.87742 0.11199 0.0
H3038 H 0.82205 0.86202 0.14112 0.0
C3039 C 0.85434 0.8543 0.10406 0.0
H3040 H 0.84983 0.89714 0.13189 0.0
C3041 C 0.83898 0.83375 0.10956 0.0
C3042 C 0.82735 0.83589 0.12308 0.0
H3043 H 0.86296 0.85187 0.09363 0.0
H3044 H 0.8369 0.81588 0.10334 0.0
C3045 C 0.83103 0.85941 0.13079 0.0
C3046 C 0.42279 0.5925 0.35641 0.0
C3047 C 0.42177 0.5804 0.36982 0.0
H3048 H 0.40326 0.61778 0.34142 0.0
C3049 C 0.39903 0.58353 0.3782 0.0
H3050 H 0.44007 0.59029 0.34973 0.0
C3051 C 0.37819 0.5994 0.37353 0.0
C3052 C 0.37953 0.61215 0.3603 0.0
H3053 H 0.39782 0.57461 0.38863 0.0
H3054 H 0.36118 0.6021 0.38036 0.0
C3055 C 0.40173 0.60808 0.35163 0.0
C3056 C 0.35746 0.12785 0.12741 0.0
C3057 C 0.35926 0.12259 0.11278 0.0
H3058 H 0.34117 0.15229 0.14372 0.0
C3059 C 0.34431 0.1381 0.10333 0.0
H3060 H 0.36905 0.11671 0.13499 0.0
C3061 C 0.32843 0.15871 0.10837 0.0
C3062 C 0.32699 0.16414 0.12297 0.0
H3063 H 0.34489 0.13436 0.09202 0.0
H3064 H 0.31729 0.17044 0.10084 0.0
C3065 C 0.34147 0.1483 0.13243 0.0
C3066 C 0.58144 0.58832 0.85539 0.0
C3067 C 0.5827 0.57641 0.86882 0.0
H3068 H 0.60092 0.61234 0.83994 0.0
C3069 C 0.60578 0.57915 0.87694 0.0
H3070 H 0.56391 0.58625 0.84887 0.0
C3071 C 0.62678 0.59457 0.872 0.0
C3072 C 0.62528 0.60729 0.85873 0.0
H3073 H 0.6071 0.5704 0.8874 0.0
H3074 H 0.64367 0.59738 0.87888 0.0
C3075 C 0.60258 0.6034 0.85034 0.0
C3076 C 0.16826 0.83865 0.60841 0.0
C3077 C 0.17039 0.83319 0.62299 0.0
H3078 H 0.15102 0.86301 0.59231 0.0
C3079 C 0.15667 0.84925 0.63267 0.0
H3080 H 0.17886 0.82681 0.60071 0.0
C3081 C 0.14061 0.86985 0.62787 0.0
C3082 C 0.13794 0.87495 0.61327 0.0
H3083 H 0.15755 0.8453 0.64395 0.0
H3084 H 0.12955 0.88117 0.63561 0.0
C3085 C 0.15226 0.85934 0.60361 0.0
C3086 C 0.92071 0.40972 0.35654 0.0
C3087 C 0.9192 0.42192 0.36989 0.0
H3088 H 0.90124 0.38597 0.34097 0.0
C3089 C 0.89573 0.41989 0.37774 0.0
H3090 H 0.93854 0.41125 0.35022 0.0
C3091 C 0.87455 0.40493 0.37262 0.0
C3092 C 0.87624 0.39196 0.35943 0.0
H3093 H 0.89419 0.42888 0.38814 0.0
H3094 H 0.85731 0.40268 0.37932 0.0
C3095 C 0.89939 0.39511 0.35131 0.0
C3096 C 0.33312 0.85455 0.36851 0.0
C3097 C 0.32334 0.83531 0.37791 0.0
H3098 H 0.3567 0.88926 0.36588 0.0
C3099 C 0.32861 0.83802 0.39249 0.0
H3100 H 0.32979 0.85285 0.3572 0.0
C3101 C 0.34408 0.85895 0.39748 0.0
C3102 C 0.35464 0.87766 0.38801 0.0
H3103 H 0.32104 0.82374 0.40003 0.0
H3104 H 0.34801 0.86033 0.40875 0.0
C3105 C 0.34858 0.87545 0.3735 0.0
C3106 C 0.89549 0.58804 0.1198 0.0
C3107 C 0.91334 0.57634 0.1293 0.0
H3108 H 0.86234 0.6136 0.11707 0.0
C3109 C 0.90973 0.58016 0.14394 0.0
H3110 H 0.89805 0.58579 0.10845 0.0
C3111 C 0.88896 0.59584 0.14895 0.0
C3112 C 0.87154 0.60831 0.13941 0.0
H3113 H 0.9231 0.57115 0.15151 0.0
H3114 H 0.88668 0.59832 0.16029 0.0
C3115 C 0.87494 0.60395 0.12477 0.0
C3116 C 0.16622 0.16835 0.89481 0.0
C3117 C 0.17718 0.16763 0.88114 0.0
H3118 H 0.14313 0.14833 0.91046 0.0
C3119 C 0.1738 0.1449 0.8728 0.0
H3120 H 0.1688 0.1856 0.90149 0.0
C3121 C 0.15861 0.12378 0.87777 0.0
C3122 C 0.14676 0.12478 0.89128 0.0
H3123 H 0.18182 0.144 0.86215 0.0
H3124 H 0.15522 0.10721 0.87073 0.0
C3125 C 0.15138 0.14707 0.89988 0.0
C3126 C 0.60274 0.41475 0.61982 0.0
C3127 C 0.58167 0.42164 0.62875 0.0
H3128 H 0.63861 0.39299 0.61747 0.0
C3129 C 0.58221 0.41368 0.643 0.0
H3130 H 0.60255 0.42043 0.60873 0.0
C3131 C 0.60319 0.3985 0.64816 0.0
C3132 C 0.62379 0.39039 0.63909 0.0
H3133 H 0.56621 0.41896 0.65009 0.0
H3134 H 0.60301 0.39283 0.65924 0.0
C3135 C 0.62346 0.3991 0.62489 0.0
C3136 C 0.23198 0.27073 0.24265 0.0
C3137 C 0.25447 0.26276 0.23501 0.0
H3138 H 0.21142 0.27014 0.26249 0.0
C3139 C 0.27409 0.24802 0.242 0.0
H3140 H 0.21662 0.28231 0.23761 0.0
C3141 C 0.27122 0.24123 0.25628 0.0
C3142 C 0.24868 0.24908 0.26391 0.0
H3143 H 0.29152 0.24132 0.23637 0.0
H3144 H 0.28676 0.22997 0.26137 0.0
C3145 C 0.22913 0.26399 0.25695 0.0
C3146 C 0.98967 0.98159 0.50719 0.0
C3147 C 0.00781 0.99856 0.5139 0.0
H3148 H 0.96958 0.97133 0.48797 0.0
C3149 C 0.01972 0.01877 0.50588 0.0
H3150 H 0.9805 0.9655 0.51295 0.0
C3151 C 0.01358 0.02197 0.49152 0.0
C3152 C 0.99529 0.00512 0.48488 0.0
H3153 H 0.03345 0.03246 0.51075 0.0
H3154 H 0.0228 0.03794 0.48568 0.0
C3155 C 0.98343 0.98488 0.49286 0.0
C3156 C 0.22657 0.7519 0.74204 0.0
C3157 C 0.24829 0.7426 0.7342 0.0
H3158 H 0.21212 0.76501 0.76218 0.0
C3159 C 0.2729 0.74006 0.74098 0.0
H3160 H 0.20726 0.75372 0.73717 0.0
C3161 C 0.27571 0.74661 0.7553 0.0
C3162 C 0.25397 0.75579 0.76318 0.0
H3163 H 0.2901 0.73334 0.73517 0.0
H3164 H 0.29504 0.7448 0.76015 0.0
C3165 C 0.22937 0.7584 0.75637 0.0
C3166 C 0.50825 0.0169 0.00666 0.0
C3167 C 0.49055 0.9994 0.01331 0.0
H3168 H 0.52815 0.02785 0.9875 0.0
C3169 C 0.47917 0.97897 0.00522 0.0
H3170 H 0.51699 0.03317 0.01248 0.0
C3171 C 0.48541 0.9761 0.99086 0.0
C3172 C 0.50329 0.99347 0.98429 0.0
H3173 H 0.46578 0.96489 0.01004 0.0
H3174 H 0.47661 0.95998 0.98495 0.0
C3175 C 0.51462 0.01391 0.99234 0.0
C3176 C 0.23023 0.73415 0.25672 0.0
C3177 C 0.25182 0.7443 0.26439 0.0
H3178 H 0.20987 0.73251 0.23681 0.0
C3179 C 0.2698 0.76105 0.25741 0.0
H3180 H 0.21575 0.72157 0.26182 0.0
C3181 C 0.2663 0.76746 0.24311 0.0
C3182 C 0.24482 0.75716 0.23544 0.0
H3183 H 0.28687 0.76888 0.26293 0.0
H3184 H 0.2807 0.7801 0.23798 0.0
C3185 C 0.22682 0.74044 0.2424 0.0
C3186 C 0.51183 0.98204 0.49161 0.0
C3187 C 0.49106 0.99646 0.48542 0.0
H3188 H 0.53421 0.97394 0.51038 0.0
C3189 C 0.47686 0.01445 0.49387 0.0
H3190 H 0.52288 0.96772 0.48547 0.0
C3191 C 0.48334 0.018 0.50815 0.0
C3192 C 0.50419 0.00366 0.51432 0.0
H3193 H 0.46101 0.02616 0.48937 0.0
H3194 H 0.47231 0.03232 0.51431 0.0
C3195 C 0.51832 0.9856 0.50589 0.0
C3196 C 0.22612 0.24011 0.75831 0.0
C3197 C 0.24458 0.2563 0.76528 0.0
H3198 H 0.21445 0.22177 0.73883 0.0
C3199 C 0.26638 0.26595 0.75763 0.0
H3200 H 0.20895 0.23263 0.76388 0.0
C3201 C 0.26962 0.25963 0.74331 0.0
C3202 C 0.25108 0.24358 0.73628 0.0
H3203 H 0.28119 0.2781 0.76277 0.0
H3204 H 0.28687 0.26706 0.73779 0.0
C3205 C 0.22931 0.23386 0.74396 0.0
C3206 C 0.98592 0.01697 0.99109 0.0
C3207 C 0.00657 0.00228 0.98497 0.0
H3208 H 0.96388 0.02583 0.00988 0.0
C3209 C 0.02065 0.98433 0.9935 0.0
H3210 H 0.97496 0.03124 0.98487 0.0
C3211 C 0.01432 0.98125 0.00784 0.0
C3212 C 0.99374 0.99602 0.01397 0.0
H3213 H 0.03638 0.9724 0.98906 0.0
H3214 H 0.02534 0.96704 0.01408 0.0
C3215 C 0.97958 0.01387 0.00543 0.0
C3216 C 0.73242 0.77249 0.7433 0.0
C3217 C 0.75037 0.75858 0.7347 0.0
H3218 H 0.71523 0.77686 0.76392 0.0
C3219 C 0.76534 0.73807 0.74076 0.0
H3220 H 0.72029 0.78813 0.73891 0.0
C3221 C 0.76242 0.73161 0.75508 0.0
C3222 C 0.74446 0.7455 0.76368 0.0
H3223 H 0.77965 0.72726 0.73448 0.0
H3224 H 0.77455 0.71597 0.75947 0.0
C3225 C 0.7295 0.76603 0.75763 0.0
C3226 C 0.76356 0.22781 0.24415 0.0
C3227 C 0.74582 0.24218 0.23563 0.0
H3228 H 0.78108 0.22309 0.26466 0.0
C3229 C 0.73154 0.26311 0.24174 0.0
H3230 H 0.77516 0.21184 0.23971 0.0
C3231 C 0.73494 0.26957 0.25604 0.0
C3232 C 0.75271 0.25523 0.26455 0.0
H3233 H 0.71743 0.2743 0.23552 0.0
H3234 H 0.72335 0.28556 0.26048 0.0
C3235 C 0.76696 0.23427 0.25845 0.0
C3236 C 0.77322 0.25846 0.75841 0.0
C3237 C 0.75177 0.24807 0.76611 0.0
H3238 H 0.78767 0.27177 0.73827 0.0
C3239 C 0.72773 0.24361 0.759 0.0
H3240 H 0.79214 0.26177 0.76348 0.0
C3241 C 0.72528 0.2491 0.74453 0.0
C3242 C 0.74674 0.25938 0.73685 0.0
H3243 H 0.71064 0.23612 0.76463 0.0
H3244 H 0.70644 0.24564 0.7394 0.0
C3245 C 0.7707 0.26413 0.74396 0.0
C3246 C 0.72589 0.74456 0.25856 0.0
C3247 C 0.74539 0.75922 0.26567 0.0
H3248 H 0.71309 0.72756 0.23897 0.0
C3249 C 0.76781 0.76764 0.25813 0.0
H3250 H 0.70825 0.73812 0.26408 0.0
C3251 C 0.77082 0.76129 0.2438 0.0
C3252 C 0.75132 0.74661 0.23663 0.0
H3253 H 0.7833 0.77869 0.26341 0.0
H3254 H 0.78867 0.76752 0.23841 0.0
C3255 C 0.72875 0.73845 0.24419 0.0
C3256 C 0.48876 0.48107 0.00695 0.0
C3257 C 0.50952 0.49555 0.0131 0.0
H3258 H 0.46639 0.4728 0.98821 0.0
C3259 C 0.52358 0.51362 0.00465 0.0
H3260 H 0.4778 0.46671 0.01312 0.0
C3261 C 0.51703 0.51713 0.99037 0.0
C3262 C 0.49627 0.50265 0.98422 0.0
H3263 H 0.53941 0.52539 0.00912 0.0
H3264 H 0.52799 0.53149 0.9842 0.0
C3265 C 0.48221 0.48458 0.99268 0.0
C3266 C 0.02069 0.513 0.4941 0.0
C3267 C 0.00634 0.49516 0.48563 0.0
H3268 H 0.0256 0.53054 0.51459 0.0
C3269 C 0.98555 0.48078 0.49183 0.0
H3270 H 0.03653 0.52472 0.4896 0.0
C3271 C 0.97926 0.48416 0.50615 0.0
C3272 C 0.99363 0.50199 0.51461 0.0
H3273 H 0.97437 0.46659 0.48566 0.0
H3274 H 0.96339 0.4725 0.51065 0.0
C3275 C 0.01442 0.51636 0.50842 0.0
C3276 C 0.99487 0.52642 0.00786 0.0
C3277 C 0.00659 0.50561 0.01548 0.0
H3278 H 0.97995 0.53995 0.98789 0.0
C3279 C 0.012 0.48174 0.00841 0.0
H3280 H 0.99082 0.54519 0.01294 0.0
C3281 C 0.00575 0.47872 0.99406 0.0
C3282 C 0.99396 0.4995 0.98644 0.0
H3283 H 0.02062 0.46518 0.01403 0.0
H3284 H 0.00973 0.45992 0.989 0.0
C3285 C 0.98864 0.52341 0.9935 0.0
C3286 C 0.48575 0.51639 0.49136 0.0
C3287 C 0.50632 0.50187 0.48505 0.0
H3288 H 0.46366 0.5244 0.51024 0.0
C3289 C 0.5202 0.48336 0.49332 0.0
H3290 H 0.47493 0.53107 0.48534 0.0
C3291 C 0.51374 0.47952 0.50758 0.0
C3292 C 0.49323 0.49409 0.51391 0.0
H3293 H 0.53587 0.47155 0.48872 0.0
H3294 H 0.52459 0.46488 0.51361 0.0
C3295 C 0.47929 0.51255 0.50563 0.0
C3296 C 0.37227 0.13254 0.36133 0.0
C3297 C 0.35399 0.14276 0.37114 0.0
H3298 H 0.40513 0.10675 0.35776 0.0
C3299 C 0.3565 0.13564 0.3855 0.0
H3300 H 0.37089 0.13744 0.35017 0.0
C3301 C 0.37572 0.11753 0.38979 0.0
C3302 C 0.39321 0.10628 0.37987 0.0
H3303 H 0.34311 0.14351 0.39341 0.0
H3304 H 0.376 0.11149 0.40081 0.0
C3305 C 0.39171 0.11461 0.36565 0.0
C3306 C 0.11148 0.1098 0.63535 0.0
C3307 C 0.10767 0.10379 0.62093 0.0
H3308 H 0.1336 0.13171 0.65069 0.0
C3309 C 0.12218 0.1179 0.6107 0.0
H3310 H 0.10037 0.09955 0.64348 0.0
C3311 C 0.141 0.13659 0.61482 0.0
C3312 C 0.14579 0.14159 0.62926 0.0
H3313 H 0.11991 0.11365 0.5995 0.0
H3314 H 0.15231 0.14664 0.60669 0.0
C3315 C 0.13033 0.12848 0.63947 0.0
C3316 C 0.14322 0.86493 0.88538 0.0
C3317 C 0.14482 0.85684 0.87114 0.0
H3318 H 0.12443 0.89005 0.90055 0.0
C3319 C 0.12595 0.86631 0.86144 0.0
H3320 H 0.15723 0.8577 0.89315 0.0
C3321 C 0.10687 0.88464 0.86572 0.0
C3322 C 0.10623 0.89387 0.87979 0.0
H3323 H 0.12671 0.86058 0.85038 0.0
H3324 H 0.09311 0.8922 0.85791 0.0
C3325 C 0.12417 0.88324 0.88966 0.0
C3326 C 0.36584 0.85598 0.11724 0.0
C3327 C 0.35664 0.85501 0.13131 0.0
H3328 H 0.38949 0.87631 0.10193 0.0
C3329 C 0.3673 0.87284 0.14124 0.0
H3330 H 0.35847 0.84228 0.10935 0.0
C3331 C 0.38563 0.89195 0.13706 0.0
C3332 C 0.39355 0.894 0.12281 0.0
H3333 H 0.3606 0.87296 0.15215 0.0
H3334 H 0.39299 0.90565 0.14496 0.0
C3335 C 0.38398 0.87531 0.11302 0.0
C3336 C 0.655 0.8843 0.62231 0.0
C3337 C 0.64648 0.85937 0.62699 0.0
H3338 H 0.64383 0.92299 0.61539 0.0
C3339 C 0.61925 0.85419 0.62798 0.0
H3340 H 0.67589 0.88889 0.62163 0.0
C3341 C 0.60083 0.8737 0.62424 0.0
C3342 C 0.60951 0.89877 0.61985 0.0
H3343 H 0.61227 0.83511 0.63162 0.0
H3344 H 0.5799 0.86943 0.62504 0.0
C3345 C 0.63671 0.90384 0.61886 0.0
C3346 C 0.89232 0.88928 0.36441 0.0
C3347 C 0.89746 0.89419 0.37884 0.0
H3348 H 0.86903 0.86866 0.34916 0.0
C3349 C 0.88464 0.87843 0.38904 0.0
H3350 H 0.90225 0.90049 0.3562 0.0
C3351 C 0.86622 0.8593 0.38496 0.0
C3352 C 0.85967 0.85575 0.37058 0.0
H3353 H 0.8878 0.88159 0.40027 0.0
H3354 H 0.85655 0.84786 0.39316 0.0
C3355 C 0.8735 0.87055 0.36034 0.0
C3356 C 0.86282 0.14126 0.11496 0.0
C3357 C 0.85735 0.14499 0.12946 0.0
H3358 H 0.884 0.11941 0.09932 0.0
C3359 C 0.8727 0.13117 0.13947 0.0
H3360 H 0.85197 0.15201 0.10692 0.0
C3361 C 0.89197 0.11316 0.13509 0.0
C3362 C 0.89604 0.10797 0.12059 0.0
H3363 H 0.86911 0.13323 0.15073 0.0
H3364 H 0.90308 0.10269 0.14314 0.0
C3365 C 0.88168 0.12282 0.11059 0.0
C3366 C 0.61536 0.12202 0.88925 0.0
C3367 C 0.60218 0.10668 0.879 0.0
H3368 H 0.64377 0.15224 0.89344 0.0
C3369 C 0.60696 0.11204 0.86457 0.0
H3370 H 0.61246 0.1185 0.90047 0.0
C3371 C 0.62579 0.13079 0.86054 0.0
C3372 C 0.64 0.14512 0.87082 0.0
H3373 H 0.59675 0.10116 0.85634 0.0
H3374 H 0.62999 0.13306 0.84935 0.0
C3375 C 0.63379 0.14115 0.88521 0.0
C3376 C 0.86262 0.62168 0.85795 0.0
C3377 C 0.85621 0.64307 0.86683 0.0
H3378 H 0.88412 0.58556 0.85553 0.0
C3379 C 0.86871 0.64507 0.88012 0.0
H3380 H 0.85318 0.61932 0.84771 0.0
C3381 C 0.88625 0.62545 0.88468 0.0
C3382 C 0.89159 0.6034 0.87605 0.0
H3383 H 0.86441 0.66145 0.88715 0.0
H3384 H 0.89468 0.62696 0.89521 0.0
C3385 C 0.88011 0.60211 0.8625 0.0
C3386 C 0.64786 0.63176 0.1133 0.0
C3387 C 0.64672 0.64211 0.12712 0.0
H3388 H 0.63124 0.60521 0.09815 0.0
C3389 C 0.62527 0.63523 0.13586 0.0
H3390 H 0.66391 0.63699 0.10623 0.0
C3391 C 0.60618 0.61726 0.13113 0.0
C3392 C 0.60815 0.6058 0.11757 0.0
H3393 H 0.62385 0.64278 0.14658 0.0
H3394 H 0.59027 0.61181 0.13824 0.0
C3395 C 0.62888 0.61378 0.1086 0.0
C3396 C 0.63036 0.3721 0.35934 0.0
C3397 C 0.6432 0.35604 0.3694 0.0
H3398 H 0.60264 0.40314 0.35554 0.0
C3399 C 0.63596 0.35847 0.38375 0.0
H3400 H 0.63543 0.37108 0.3482 0.0
C3401 C 0.61777 0.37765 0.38803 0.0
C3402 C 0.60593 0.39462 0.37805 0.0
H3403 H 0.64493 0.34607 0.39178 0.0
H3404 H 0.61398 0.37988 0.39927 0.0
C3405 C 0.6118 0.39093 0.3636 0.0
C3406 C 0.89061 0.38576 0.63342 0.0
C3407 C 0.89153 0.3948 0.61931 0.0
H3408 H 0.87032 0.3623 0.64883 0.0
C3409 C 0.87352 0.38419 0.60946 0.0
H3410 H 0.90444 0.39311 0.64125 0.0
C3411 C 0.85438 0.36599 0.61373 0.0
C3412 C 0.85245 0.35815 0.628 0.0
H3413 H 0.87335 0.39078 0.59854 0.0
H3414 H 0.8406 0.3586 0.60588 0.0
C3415 C 0.87123 0.36775 0.63773 0.0
C3416 C 0.13462 0.3943 0.10885 0.0
C3417 C 0.10981 0.39443 0.11556 0.0
H3418 H 0.17361 0.37799 0.10821 0.0
C3419 C 0.10493 0.37609 0.12648 0.0
H3420 H 0.13918 0.40836 0.10053 0.0
C3421 C 0.12481 0.35871 0.13093 0.0
C3422 C 0.14998 0.35957 0.12463 0.0
H3423 H 0.08594 0.3756 0.13178 0.0
H3424 H 0.12087 0.34545 0.1397 0.0
C3425 C 0.15446 0.3771 0.11334 0.0
C3426 C 0.39423 0.38576 0.86389 0.0
C3427 C 0.39878 0.39107 0.87834 0.0
H3428 H 0.37115 0.36516 0.84853 0.0
C3429 C 0.38518 0.3759 0.88852 0.0
H3430 H 0.40477 0.39647 0.85571 0.0
C3431 C 0.36656 0.35704 0.88436 0.0
C3432 C 0.36053 0.35322 0.86994 0.0
H3433 H 0.38788 0.37936 0.89975 0.0
H3434 H 0.35627 0.34608 0.89254 0.0
C3435 C 0.37518 0.36732 0.85975 0.0
C3436 C 0.39609 0.61852 0.63042 0.0
C3437 C 0.39644 0.60809 0.61659 0.0
H3438 H 0.37598 0.64295 0.64547 0.0
C3439 C 0.37768 0.6173 0.60674 0.0
H3440 H 0.41049 0.61223 0.63823 0.0
C3441 C 0.35824 0.63535 0.61081 0.0
C3442 C 0.35686 0.64447 0.62487 0.0
H3443 H 0.37709 0.6096 0.59603 0.0
H3444 H 0.34375 0.64151 0.60302 0.0
C3445 C 0.37648 0.63644 0.63453 0.0
C3446 C 0.12175 0.61798 0.38955 0.0
C3447 C 0.10537 0.60534 0.37957 0.0
H3448 H 0.15358 0.64489 0.39317 0.0
C3449 C 0.108 0.6122 0.36517 0.0
H3450 H 0.12058 0.61317 0.40072 0.0
C3451 C 0.12765 0.62982 0.36077 0.0
C3452 C 0.14493 0.64137 0.37069 0.0
H3453 H 0.0954 0.60334 0.35719 0.0
H3454 H 0.12998 0.63339 0.34952 0.0
C3455 C 0.14109 0.63591 0.38518 0.0
loop_
_geom_bond_atom_site_label_1
_geom_bond_atom_site_label_2
_geom_bond_distance
_geom_bond_site_symmetry_2
_ccdc_geom_bond_type
Li0 N17 1.990 . S
Li0 O60 1.956 . S
Li0 O61 1.970 . S
Li0 O62 1.961 . S
Li1 N25 1.990 . S
Li1 O60 1.970 . S
Li1 O61 1.956 . S
Li1 O63 1.961 . S
Li2 N47 1.990 . S
Li2 O60 1.961 . S
Li2 O62 1.956 . S
Li2 O63 1.970 . S
Li3 N53 1.990 . S
Li3 O61 1.961 . S
Li3 O62 1.970 . S
Li3 O63 1.956 . S
C4 C6 1.348 . S
C4 C7 1.356 . S
C4 O60 1.325 . S
N5 C8 1.314 . S
N5 C9 1.279 . S
C6 C4 1.348 . S
C6 C8 1.353 . S
C6 H64 0.929 . S
C7 C4 1.356 . S
C7 C9 1.358 . S
C7 H65 0.930 . S
C8 N5 1.314 . S
C8 C6 1.353 . S
C8 H66 0.930 . S
C9 N5 1.279 . S
C9 C7 1.358 . S
C9 H67 0.930 . S
C10 C13 1.348 . S
C10 C14 1.356 . S
C10 O61 1.325 . S
C11 N12 1.279 . S
C11 C14 1.358 . S
C11 H68 0.930 . S
N12 C11 1.279 . S
N12 C15 1.314 . S
C13 C10 1.348 . S
C13 C15 1.353 . S
C13 H69 0.929 . S
C14 C10 1.356 . S
C14 C11 1.358 . S
C14 H70 0.930 . S
C15 N12 1.314 . S
C15 C13 1.353 . S
C15 H71 0.930 . S
C16 N17 1.314 . S
C16 C21 1.353 . S
C16 H22 0.930 . S
N17 Li0 1.990 . S
N17 C16 1.314 . S
N17 C19 1.279 . S
C18 C19 1.358 . S
C18 C20 1.356 . S
C18 H72 0.930 . S
C19 N17 1.279 . S
C19 C18 1.358 . S
C19 H23 0.930 . S
C20 C18 1.356 . S
C20 C21 1.348 . S
C21 C16 1.353 . S
C21 C20 1.348 . S
C21 H73 0.929 . S
H22 C16 0.930 . S
H23 C19 0.930 . S
C24 N25 1.314 . S
C24 C26 1.353 . S
C24 H30 0.930 . S
N25 Li1 1.990 . S
N25 C24 1.314 . S
N25 C28 1.279 . S
C26 C24 1.353 . S
C26 C29 1.348 . S
C26 H74 0.929 . S
C27 C28 1.358 . S
C27 C29 1.356 . S
C27 H75 0.930 . S
C28 N25 1.279 . S
C28 C27 1.358 . S
C28 H31 0.930 . S
C29 C26 1.348 . S
C29 C27 1.356 . S
H30 C24 0.930 . S
H31 C28 0.930 . S
C32 C34 1.348 . S
C32 C35 1.356 . S
C32 O62 1.325 . S
N33 C36 1.314 . S
N33 C37 1.279 . S
C34 C32 1.348 . S
C34 C36 1.353 . S
C34 H76 0.929 . S
C35 C32 1.356 . S
C35 C37 1.358 . S
C35 H77 0.930 . S
C36 N33 1.314 . S
C36 C34 1.353 . S
C36 H78 0.930 . S
C37 N33 1.279 . S
C37 C35 1.358 . S
C37 H79 0.930 . S
C38 C39 1.348 . S
C38 C40 1.356 . S
C38 O63 1.325 . S
C39 C38 1.348 . S
C39 C41 1.353 . S
C39 H80 0.929 . S
C40 C38 1.356 . S
C40 C42 1.358 . S
C40 H81 0.930 . S
C41 C39 1.353 . S
C41 N43 1.314 . S
C41 H82 0.930 . S
C42 C40 1.358 . S
C42 N43 1.279 . S
C42 H83 0.930 . S
N43 C41 1.314 . S
N43 C42 1.279 . S
C44 C46 1.353 . S
C44 N47 1.314 . S
C44 H50 0.930 . S
C45 N47 1.279 . S
C45 C48 1.358 . S
C45 H51 0.930 . S
C46 C44 1.353 . S
C46 C49 1.348 . S
C46 H84 0.929 . S
N47 Li2 1.990 . S
N47 C44 1.314 . S
N47 C45 1.279 . S
C48 C45 1.358 . S
C48 C49 1.356 . S
C48 H85 0.930 . S
C49 C46 1.348 . S
C49 C48 1.356 . S
H50 C44 0.930 . S
H51 C45 0.930 . S
C52 N53 1.314 . S
C52 C54 1.353 . S
C52 H58 0.930 . S
N53 Li3 1.990 . S
N53 C52 1.314 . S
N53 C56 1.279 . S
C54 C52 1.353 . S
C54 C57 1.348 . S
C54 H86 0.929 . S
C55 C56 1.358 . S
C55 C57 1.356 . S
C55 H87 0.930 . S
C56 N53 1.279 . S
C56 C55 1.358 . S
C56 H59 0.930 . S
C57 C54 1.348 . S
C57 C55 1.356 . S
H58 C52 0.930 . S
H59 C56 0.930 . S
O60 Li0 1.956 . S
O60 Li1 1.970 . S
O60 Li2 1.961 . S
O60 C4 1.325 . S
O61 Li0 1.970 . S
O61 Li1 1.956 . S
O61 Li3 1.961 . S
O61 C10 1.325 . S
O62 Li0 1.961 . S
O62 Li2 1.956 . S
O62 Li3 1.970 . S
O62 C32 1.325 . S
O63 Li1 1.961 . S
O63 Li2 1.970 . S
O63 Li3 1.956 . S
O63 C38 1.325 . S
H64 C6 0.929 . S
H65 C7 0.930 . S
H66 C8 0.930 . S
H67 C9 0.930 . S
H68 C11 0.930 . S
H69 C13 0.929 . S
H70 C14 0.930 . S
H71 C15 0.930 . S
H72 C18 0.930 . S
H73 C21 0.929 . S
H74 C26 0.929 . S
H75 C27 0.930 . S
H76 C34 0.929 . S
H77 C35 0.930 . S
H78 C36 0.930 . S
H79 C37 0.930 . S
H80 C39 0.929 . S
H81 C40 0.930 . S
H82 C41 0.930 . S
H83 C42 0.930 . S
H84 C46 0.929 . S
H85 C48 0.930 . S
H86 C54 0.929 . S
H87 C55 0.930 . S
Li88 N105 1.990 1_455 S
Li88 O148 1.956 . S
Li88 O149 1.970 . S
Li88 O150 1.961 1_565 S
Li89 N113 1.990 . S
Li89 O148 1.970 . S
Li89 O149 1.956 . S
Li89 O151 1.961 . S
Li90 N135 1.990 . S
Li90 O148 1.961 1_545 S
Li90 O150 1.956 . S
Li90 O151 1.970 1_545 S
Li91 N141 1.990 . S
Li91 O149 1.961 . S
Li91 O150 1.970 1_565 S
Li91 O151 1.956 . S
C92 C94 1.348 . S
C92 C95 1.356 . S
C92 O148 1.325 . S
N93 C96 1.314 . S
N93 C97 1.279 . S
C94 C92 1.348 . S
C94 C96 1.353 . S
C94 H152 0.929 . S
C95 C92 1.356 . S
C95 C97 1.358 . S
C95 H153 0.930 1_565 S
C96 N93 1.314 . S
C96 C94 1.353 . S
C96 H154 0.930 . S
C97 N93 1.279 . S
C97 C95 1.358 . S
C97 H155 0.930 1_565 S
C98 C101 1.348 1_455 S
C98 C102 1.356 . S
C98 O149 1.325 . S
C99 N100 1.279 1_455 S
C99 C102 1.358 . S
C99 H156 0.930 . S
N100 C99 1.279 1_655 S
N100 C103 1.314 . S
C101 C98 1.348 1_655 S
C101 C103 1.353 . S
C101 H157 0.929 . S
C102 C98 1.356 . S
C102 C99 1.358 . S
C102 H158 0.930 . S
C103 N100 1.314 . S
C103 C101 1.353 . S
C103 H159 0.930 . S
C104 N105 1.314 . S
C104 C109 1.353 . S
C104 H110 0.930 . S
N105 Li88 1.990 1_655 S
N105 C104 1.314 . S
N105 C107 1.279 . S
C106 C107 1.358 . S
C106 C108 1.356 . S
C106 H160 0.930 . S
C107 N105 1.279 . S
C107 C106 1.358 . S
C107 H111 0.930 . S
C108 C106 1.356 . S
C108 C109 1.348 . S
C109 C104 1.353 . S
C109 C108 1.348 . S
C109 H161 0.929 . S
H110 C104 0.930 . S
H111 C107 0.930 . S
C112 N113 1.314 . S
C112 C114 1.353 . S
C112 H118 0.930 . S
N113 Li89 1.990 . S
N113 C112 1.314 . S
N113 C116 1.279 . S
C114 C112 1.353 . S
C114 C117 1.348 . S
C114 H162 0.929 . S
C115 C116 1.358 . S
C115 C117 1.356 . S
C115 H163 0.930 . S
C116 N113 1.279 . S
C116 C115 1.358 . S
C116 H119 0.930 . S
C117 C114 1.348 . S
C117 C115 1.356 . S
H118 C112 0.930 . S
H119 C116 0.930 . S
C120 C122 1.349 . S
C120 C123 1.356 1_455 S
C120 O150 1.325 . S
N121 C124 1.314 . S
N121 C125 1.279 . S
C122 C120 1.349 . S
C122 C124 1.339 1_455 S
C122 H164 0.942 . S
C123 C120 1.356 1_655 S
C123 C125 1.358 . S
C123 H165 0.930 . S
C124 N121 1.314 . S
C124 C122 1.339 1_655 S
C124 H166 0.930 . S
C125 N121 1.279 . S
C125 C123 1.358 . S
C125 H167 0.930 . S
C126 C127 1.348 1_565 S
C126 C128 1.356 . S
C126 O151 1.325 . S
C127 C126 1.348 1_545 S
C127 C129 1.353 . S
C127 H168 0.929 . S
C128 C126 1.356 . S
C128 C130 1.358 . S
C128 H169 0.930 . S
C129 C127 1.353 . S
C129 N131 1.314 . S
C129 H170 0.930 . S
C130 C128 1.358 . S
C130 N131 1.279 1_565 S
C130 H171 0.930 . S
N131 C129 1.314 . S
N131 C130 1.279 1_545 S
C132 C134 1.353 . S
C132 N135 1.314 . S
C132 H138 0.930 . S
C133 N135 1.279 . S
C133 C136 1.358 . S
C133 H139 0.930 . S
C134 C132 1.353 . S
C134 C137 1.348 . S
C134 H172 0.929 . S
N135 Li90 1.990 . S
N135 C132 1.314 . S
N135 C133 1.279 . S
C136 C133 1.358 . S
C136 C137 1.356 . S
C136 H173 0.930 . S
C137 C134 1.348 . S
C137 C136 1.356 . S
H138 C132 0.930 . S
H139 C133 0.930 . S
C140 N141 1.314 . S
C140 C142 1.353 . S
C140 H146 0.930 1_455 S
N141 Li91 1.990 . S
N141 C140 1.314 . S
N141 C144 1.265 1_565 S
C142 C140 1.353 . S
C142 C145 1.348 . S
C142 H174 0.929 1_455 S
C143 C144 1.364 . S
C143 C145 1.356 1_545 S
C143 H175 0.930 . S
C144 N141 1.265 1_545 S
C144 C143 1.364 . S
C144 H147 0.941 . S
C145 C142 1.348 . S
C145 C143 1.356 1_565 S
H146 C140 0.930 1_655 S
H147 C144 0.941 . S
O148 Li88 1.956 . S
O148 Li89 1.970 . S
O148 Li90 1.961 1_565 S
O148 C92 1.325 . S
O149 Li88 1.970 . S
O149 Li89 1.956 . S
O149 Li91 1.961 . S
O149 C98 1.325 . S
O150 Li88 1.961 1_545 S
O150 Li90 1.956 . S
O150 Li91 1.970 1_545 S
O150 C120 1.325 . S
O151 Li89 1.961 . S
O151 Li90 1.970 1_565 S
O151 Li91 1.956 . S
O151 C126 1.325 . S
H152 C94 0.929 . S
H153 C95 0.930 1_545 S
H154 C96 0.930 . S
H155 C97 0.930 1_545 S
H156 C99 0.930 . S
H157 C101 0.929 . S
H158 C102 0.930 . S
H159 C103 0.930 . S
H160 C106 0.930 . S
H161 C109 0.929 . S
H162 C114 0.929 . S
H163 C115 0.930 . S
H164 C122 0.942 . S
H165 C123 0.930 . S
H166 C124 0.930 . S
H167 C125 0.930 . S
H168 C127 0.929 . S
H169 C128 0.930 . S
H170 C129 0.930 . S
H171 C130 0.930 . S
H172 C134 0.929 . S
H173 C136 0.930 . S
H174 C142 0.929 1_655 S
H175 C143 0.930 . S
Li176 N193 1.990 . S
Li176 O236 1.956 . S
Li176 O237 1.970 . S
Li176 O238 1.961 . S
Li177 N201 1.990 . S
Li177 O236 1.970 . S
Li177 O237 1.956 . S
Li177 O239 1.961 . S
Li178 N223 1.990 . S
Li178 O236 1.961 . S
Li178 O238 1.956 . S
Li178 O239 1.970 . S
Li179 N229 1.990 . S
Li179 O237 1.961 . S
Li179 O238 1.970 . S
Li179 O239 1.956 . S
C180 C182 1.348 . S
C180 C183 1.356 . S
C180 O236 1.325 . S
N181 C184 1.314 . S
N181 C185 1.279 . S
C182 C180 1.348 . S
C182 C184 1.353 . S
C182 H240 0.929 . S
C183 C180 1.356 . S
C183 C185 1.358 . S
C183 H241 0.930 . S
C184 N181 1.314 . S
C184 C182 1.353 . S
C184 H242 0.930 . S
C185 N181 1.279 . S
C185 C183 1.358 . S
C185 H243 0.930 . S
C186 C189 1.348 . S
C186 C190 1.356 . S
C186 O237 1.325 . S
C187 N188 1.279 . S
C187 C190 1.358 . S
C187 H244 0.930 . S
N188 C187 1.279 . S
N188 C191 1.314 . S
C189 C186 1.348 . S
C189 C191 1.353 . S
C189 H245 0.929 . S
C190 C186 1.356 . S
C190 C187 1.358 . S
C190 H246 0.930 . S
C191 N188 1.314 . S
C191 C189 1.353 . S
C191 H247 0.930 . S
C192 N193 1.314 . S
C192 C197 1.353 . S
C192 H198 0.930 . S
N193 Li176 1.990 . S
N193 C192 1.314 . S
N193 C195 1.279 . S
C194 C195 1.358 . S
C194 C196 1.356 . S
C194 H248 0.930 . S
C195 N193 1.279 . S
C195 C194 1.358 . S
C195 H199 0.930 . S
C196 C194 1.356 . S
C196 C197 1.348 . S
C197 C192 1.353 . S
C197 C196 1.348 . S
C197 H249 0.929 . S
H198 C192 0.930 . S
H199 C195 0.930 . S
C200 N201 1.314 . S
C200 C202 1.353 . S
C200 H206 0.930 . S
N201 Li177 1.990 . S
N201 C200 1.314 . S
N201 C204 1.279 . S
C202 C200 1.353 . S
C202 C205 1.348 . S
C202 H250 0.929 . S
C203 C204 1.358 . S
C203 C205 1.356 . S
C203 H251 0.930 . S
C204 N201 1.279 . S
C204 C203 1.358 . S
C204 H207 0.930 . S
C205 C202 1.348 . S
C205 C203 1.356 . S
H206 C200 0.930 . S
H207 C204 0.930 . S
C208 C210 1.348 . S
C208 C211 1.356 . S
C208 O238 1.325 . S
N209 C212 1.314 . S
N209 C213 1.279 . S
C210 C208 1.348 . S
C210 C212 1.353 . S
C210 H252 0.929 . S
C211 C208 1.356 . S
C211 C213 1.358 . S
C211 H253 0.930 . S
C212 N209 1.314 . S
C212 C210 1.353 . S
C212 H254 0.930 . S
C213 N209 1.279 . S
C213 C211 1.358 . S
C213 H255 0.930 . S
C214 C215 1.348 . S
C214 C216 1.356 . S
C214 O239 1.325 . S
C215 C214 1.348 . S
C215 C217 1.353 . S
C215 H256 0.929 . S
C216 C214 1.356 . S
C216 C218 1.358 . S
C216 H257 0.930 . S
C217 C215 1.353 . S
C217 N219 1.314 . S
C217 H258 0.930 . S
C218 C216 1.358 . S
C218 N219 1.279 . S
C218 H259 0.930 . S
N219 C217 1.314 . S
N219 C218 1.279 . S
C220 C222 1.353 . S
C220 N223 1.314 . S
C220 H226 0.930 . S
C221 N223 1.279 . S
C221 C224 1.358 . S
C221 H227 0.930 . S
C222 C220 1.353 . S
C222 C225 1.348 . S
C222 H260 0.929 . S
N223 Li178 1.990 . S
N223 C220 1.314 . S
N223 C221 1.279 . S
C224 C221 1.358 . S
C224 C225 1.356 . S
C224 H261 0.930 . S
C225 C222 1.348 . S
C225 C224 1.356 . S
H226 C220 0.930 . S
H227 C221 0.930 . S
C228 N229 1.314 . S
C228 C230 1.353 . S
C228 H234 0.930 . S
N229 Li179 1.990 . S
N229 C228 1.314 . S
N229 C232 1.279 . S
C230 C228 1.353 . S
C230 C233 1.348 . S
C230 H262 0.929 . S
C231 C232 1.358 . S
C231 C233 1.356 . S
C231 H263 0.930 . S
C232 N229 1.279 . S
C232 C231 1.358 . S
C232 H235 0.930 . S
C233 C230 1.348 . S
C233 C231 1.356 . S
H234 C228 0.930 . S
H235 C232 0.930 . S
O236 Li176 1.956 . S
O236 Li177 1.970 . S
O236 Li178 1.961 . S
O236 C180 1.325 . S
O237 Li176 1.970 . S
O237 Li177 1.956 . S
O237 Li179 1.961 . S
O237 C186 1.325 . S
O238 Li176 1.961 . S
O238 Li178 1.956 . S
O238 Li179 1.970 . S
O238 C208 1.325 . S
O239 Li177 1.961 . S
O239 Li178 1.970 . S
O239 Li179 1.956 . S
O239 C214 1.325 . S
H240 C182 0.929 . S
H241 C183 0.930 . S
H242 C184 0.930 . S
H243 C185 0.930 . S
H244 C187 0.930 . S
H245 C189 0.929 . S
H246 C190 0.930 . S
H247 C191 0.930 . S
H248 C194 0.930 . S
H249 C197 0.929 . S
H250 C202 0.929 . S
H251 C203 0.930 . S
H252 C210 0.929 . S
H253 C211 0.930 . S
H254 C212 0.930 . S
H255 C213 0.930 . S
H256 C215 0.929 . S
H257 C216 0.930 . S
H258 C217 0.930 . S
H259 C218 0.930 . S
H260 C222 0.929 . S
H261 C224 0.930 . S
H262 C230 0.929 . S
H263 C231 0.930 . S
Li264 N281 1.990 . S
Li264 O324 1.956 . S
Li264 O325 1.970 . S
Li264 O326 1.961 . S
Li265 N289 1.990 . S
Li265 O324 1.970 . S
Li265 O325 1.956 . S
Li265 O327 1.961 1_545 S
Li266 N311 1.990 . S
Li266 O324 1.961 . S
Li266 O326 1.956 . S
Li266 O327 1.970 1_545 S
Li267 N317 1.990 . S
Li267 O325 1.961 1_565 S
Li267 O326 1.970 1_565 S
Li267 O327 1.956 . S
C268 C270 1.348 . S
C268 C271 1.356 . S
C268 O324 1.325 . S
N269 C272 1.314 . S
N269 C273 1.279 . S
C270 C268 1.348 . S
C270 C272 1.353 . S
C270 H328 0.929 . S
C271 C268 1.356 . S
C271 C273 1.358 . S
C271 H329 0.930 . S
C272 N269 1.314 . S
C272 C270 1.353 . S
C272 H330 0.930 . S
C273 N269 1.279 . S
C273 C271 1.358 . S
C273 H331 0.930 . S
C274 C277 1.348 . S
C274 C278 1.356 . S
C274 O325 1.325 . S
C275 N276 1.279 . S
C275 C278 1.358 . S
C275 H332 0.930 1_545 S
N276 C275 1.279 . S
N276 C279 1.314 . S
C277 C274 1.348 . S
C277 C279 1.353 . S
C277 H333 0.929 . S
C278 C274 1.356 . S
C278 C275 1.358 . S
C278 H334 0.930 1_545 S
C279 N276 1.314 . S
C279 C277 1.353 . S
C279 H335 0.930 . S
C280 N281 1.314 . S
C280 C285 1.353 . S
C280 H286 0.930 . S
N281 Li264 1.990 . S
N281 C280 1.314 . S
N281 C283 1.279 . S
C282 C283 1.358 . S
C282 C284 1.356 . S
C282 H336 0.930 . S
C283 N281 1.279 . S
C283 C282 1.358 . S
C283 H287 0.930 . S
C284 C282 1.356 . S
C284 C285 1.348 . S
C285 C280 1.353 . S
C285 C284 1.348 . S
C285 H337 0.929 . S
H286 C280 0.930 . S
H287 C283 0.930 . S
C288 N289 1.314 . S
C288 C290 1.353 . S
C288 H294 0.930 . S
N289 Li265 1.990 . S
N289 C288 1.314 . S
N289 C292 1.279 . S
C290 C288 1.353 . S
C290 C293 1.348 . S
C290 H338 0.929 . S
C291 C292 1.358 . S
C291 C293 1.356 . S
C291 H339 0.930 . S
C292 N289 1.279 . S
C292 C291 1.358 . S
C292 H295 0.930 . S
C293 C290 1.348 . S
C293 C291 1.356 . S
H294 C288 0.930 . S
H295 C292 0.930 . S
C296 C298 1.348 1_545 S
C296 C299 1.356 . S
C296 O326 1.325 . S
N297 C300 1.314 . S
N297 C301 1.279 1_565 S
C298 C296 1.348 1_565 S
C298 C300 1.353 . S
C298 H340 0.929 . S
C299 C296 1.356 . S
C299 C301 1.358 . S
C299 H341 0.930 . S
C300 N297 1.314 . S
C300 C298 1.353 . S
C300 H342 0.930 . S
C301 N297 1.279 1_545 S
C301 C299 1.358 . S
C301 H343 0.930 . S
C302 C303 1.348 . S
C302 C304 1.356 . S
C302 O327 1.325 . S
C303 C302 1.348 . S
C303 C305 1.353 . S
C303 H344 0.929 . S
C304 C302 1.356 . S
C304 C306 1.358 . S
C304 H345 0.930 . S
C305 C303 1.353 . S
C305 N307 1.314 . S
C305 H346 0.930 . S
C306 C304 1.358 . S
C306 N307 1.279 . S
C306 H347 0.930 . S
N307 C305 1.314 . S
N307 C306 1.279 . S
C308 C310 1.353 . S
C308 N311 1.314 . S
C308 H314 0.930 . S
C309 N311 1.265 1_565 S
C309 C312 1.364 . S
C309 H315 0.941 . S
C310 C308 1.353 . S
C310 C313 1.348 . S
C310 H348 0.929 . S
N311 Li266 1.990 . S
N311 C308 1.314 . S
N311 C309 1.265 1_545 S
C312 C309 1.364 . S
C312 C313 1.356 1_565 S
C312 H349 0.930 . S
C313 C310 1.348 . S
C313 C312 1.356 1_545 S
H314 C308 0.930 . S
H315 C309 0.941 . S
C316 N317 1.314 . S
C316 C318 1.353 . S
C316 H322 0.930 . S
N317 Li267 1.990 . S
N317 C316 1.314 . S
N317 C320 1.279 . S
C318 C316 1.353 . S
C318 C321 1.348 . S
C318 H350 0.929 . S
C319 C320 1.358 . S
C319 C321 1.356 . S
C319 H351 0.930 . S
C320 N317 1.279 . S
C320 C319 1.358 . S
C320 H323 0.930 . S
C321 C318 1.348 . S
C321 C319 1.356 . S
H322 C316 0.930 . S
H323 C320 0.930 . S
O324 Li264 1.956 . S
O324 Li265 1.970 . S
O324 Li266 1.961 . S
O324 C268 1.325 . S
O325 Li264 1.970 . S
O325 Li265 1.956 . S
O325 Li267 1.961 1_545 S
O325 C274 1.325 . S
O326 Li264 1.961 . S
O326 Li266 1.956 . S
O326 Li267 1.970 1_545 S
O326 C296 1.325 . S
O327 Li265 1.961 1_565 S
O327 Li266 1.970 1_565 S
O327 Li267 1.956 . S
O327 C302 1.325 . S
H328 C270 0.929 . S
H329 C271 0.930 . S
H330 C272 0.930 . S
H331 C273 0.930 . S
H332 C275 0.930 1_565 S
H333 C277 0.929 . S
H334 C278 0.930 1_565 S
H335 C279 0.930 . S
H336 C282 0.930 . S
H337 C285 0.929 . S
H338 C290 0.929 . S
H339 C291 0.930 . S
H340 C298 0.929 . S
H341 C299 0.930 . S
H342 C300 0.930 . S
H343 C301 0.930 . S
H344 C303 0.929 . S
H345 C304 0.930 . S
H346 C305 0.930 . S
H347 C306 0.930 . S
H348 C310 0.929 . S
H349 C312 0.930 . S
H350 C318 0.929 . S
H351 C319 0.930 . S
Li352 N369 1.990 . S
Li352 O412 1.956 . S
Li352 O413 1.970 . S
Li352 O414 1.961 . S
Li353 N377 1.990 . S
Li353 O412 1.970 . S
Li353 O413 1.956 . S
Li353 O415 1.961 . S
Li354 N399 1.990 . S
Li354 O412 1.961 . S
Li354 O414 1.956 . S
Li354 O415 1.970 . S
Li355 N405 1.990 . S
Li355 O413 1.961 . S
Li355 O414 1.970 . S
Li355 O415 1.956 . S
C356 C358 1.348 . S
C356 C359 1.356 . S
C356 O412 1.325 . S
N357 C360 1.314 . S
N357 C361 1.279 . S
C358 C356 1.348 . S
C358 C360 1.353 . S
C358 H416 0.929 . S
C359 C356 1.356 . S
C359 C361 1.358 . S
C359 H417 0.930 . S
C360 N357 1.314 . S
C360 C358 1.353 . S
C360 H418 0.930 . S
C361 N357 1.279 . S
C361 C359 1.358 . S
C361 H419 0.930 . S
C362 C365 1.348 . S
C362 C366 1.356 . S
C362 O413 1.325 . S
C363 N364 1.279 . S
C363 C366 1.358 . S
C363 H420 0.930 . S
N364 C363 1.279 . S
N364 C367 1.314 . S
C365 C362 1.348 . S
C365 C367 1.353 . S
C365 H421 0.929 . S
C366 C362 1.356 . S
C366 C363 1.358 . S
C366 H422 0.930 . S
C367 N364 1.314 . S
C367 C365 1.353 . S
C367 H423 0.930 . S
C368 N369 1.314 . S
C368 C373 1.353 . S
C368 H374 0.930 . S
N369 Li352 1.990 . S
N369 C368 1.314 . S
N369 C371 1.279 . S
C370 C371 1.358 . S
C370 C372 1.356 . S
C370 H424 0.930 . S
C371 N369 1.279 . S
C371 C370 1.358 . S
C371 H375 0.930 . S
C372 C370 1.356 . S
C372 C373 1.348 . S
C373 C368 1.353 . S
C373 C372 1.348 . S
C373 H425 0.929 . S
H374 C368 0.930 . S
H375 C371 0.930 . S
C376 N377 1.314 . S
C376 C378 1.353 . S
C376 H382 0.930 . S
N377 Li353 1.990 . S
N377 C376 1.314 . S
N377 C380 1.279 . S
C378 C376 1.353 . S
C378 C381 1.348 . S
C378 H426 0.929 . S
C379 C380 1.358 . S
C379 C381 1.356 . S
C379 H427 0.930 . S
C380 N377 1.279 . S
C380 C379 1.358 . S
C380 H383 0.930 . S
C381 C378 1.348 . S
C381 C379 1.356 . S
H382 C376 0.930 . S
H383 C380 0.930 . S
C384 C386 1.348 . S
C384 C387 1.356 . S
C384 O414 1.325 . S
N385 C388 1.314 . S
N385 C389 1.279 . S
C386 C384 1.348 . S
C386 C388 1.353 . S
C386 H428 0.929 . S
C387 C384 1.356 . S
C387 C389 1.358 . S
C387 H429 0.930 . S
C388 N385 1.314 . S
C388 C386 1.353 . S
C388 H430 0.930 . S
C389 N385 1.279 . S
C389 C387 1.358 . S
C389 H431 0.930 . S
C390 C391 1.348 . S
C390 C392 1.356 . S
C390 O415 1.325 . S
C391 C390 1.348 . S
C391 C393 1.353 . S
C391 H432 0.929 . S
C392 C390 1.356 . S
C392 C394 1.358 . S
C392 H433 0.930 . S
C393 C391 1.353 . S
C393 N395 1.314 . S
C393 H434 0.930 . S
C394 C392 1.358 . S
C394 N395 1.279 . S
C394 H435 0.930 . S
N395 C393 1.314 . S
N395 C394 1.279 . S
C396 C398 1.353 . S
C396 N399 1.314 . S
C396 H402 0.930 . S
C397 N399 1.279 . S
C397 C400 1.358 . S
C397 H403 0.930 . S
C398 C396 1.353 . S
C398 C401 1.348 . S
C398 H436 0.929 . S
N399 Li354 1.990 . S
N399 C396 1.314 . S
N399 C397 1.279 . S
C400 C397 1.358 . S
C400 C401 1.356 . S
C400 H437 0.930 . S
C401 C398 1.348 . S
C401 C400 1.356 . S
H402 C396 0.930 . S
H403 C397 0.930 . S
C404 N405 1.314 . S
C404 C406 1.353 . S
C404 H410 0.930 . S
N405 Li355 1.990 . S
N405 C404 1.314 . S
N405 C408 1.279 . S
C406 C404 1.353 . S
C406 C409 1.348 . S
C406 H438 0.929 . S
C407 C408 1.358 . S
C407 C409 1.356 . S
C407 H439 0.930 . S
C408 N405 1.279 . S
C408 C407 1.358 . S
C408 H411 0.930 . S
C409 C406 1.348 . S
C409 C407 1.356 . S
H410 C404 0.930 . S
H411 C408 0.930 . S
O412 Li352 1.956 . S
O412 Li353 1.970 . S
O412 Li354 1.961 . S
O412 C356 1.325 . S
O413 Li352 1.970 . S
O413 Li353 1.956 . S
O413 Li355 1.961 . S
O413 C362 1.325 . S
O414 Li352 1.961 . S
O414 Li354 1.956 . S
O414 Li355 1.970 . S
O414 C384 1.325 . S
O415 Li353 1.961 . S
O415 Li354 1.970 . S
O415 Li355 1.956 . S
O415 C390 1.325 . S
H416 C358 0.929 . S
H417 C359 0.930 . S
H418 C360 0.930 . S
H419 C361 0.930 . S
H420 C363 0.930 . S
H421 C365 0.929 . S
H422 C366 0.930 . S
H423 C367 0.930 . S
H424 C370 0.930 . S
H425 C373 0.929 . S
H426 C378 0.929 . S
H427 C379 0.930 . S
H428 C386 0.929 . S
H429 C387 0.930 . S
H430 C388 0.930 . S
H431 C389 0.930 . S
H432 C391 0.929 . S
H433 C392 0.930 . S
H434 C393 0.930 . S
H435 C394 0.930 . S
H436 C398 0.929 . S
H437 C400 0.930 . S
H438 C406 0.929 . S
H439 C407 0.930 . S
Li440 N457 1.990 . S
Li440 O500 1.956 . S
Li440 O501 1.970 1_565 S
Li440 O502 1.961 . S
Li441 N465 1.990 . S
Li441 O500 1.970 1_545 S
Li441 O501 1.956 . S
Li441 O503 1.961 1_545 S
Li442 N487 1.990 . S
Li442 O500 1.961 . S
Li442 O502 1.956 . S
Li442 O503 1.970 . S
Li443 N493 1.990 . S
Li443 O501 1.961 1_565 S
Li443 O502 1.970 . S
Li443 O503 1.956 . S
C444 C446 1.348 1_565 S
C444 C447 1.356 . S
C444 O500 1.325 . S
N445 C448 1.314 . S
N445 C449 1.279 1_545 S
C446 C444 1.348 1_545 S
C446 C448 1.353 . S
C446 H504 0.929 . S
C447 C444 1.356 . S
C447 C449 1.358 . S
C447 H505 0.930 . S
C448 N445 1.314 . S
C448 C446 1.353 . S
C448 H506 0.930 . S
C449 N445 1.279 1_565 S
C449 C447 1.358 . S
C449 H507 0.930 . S
C450 C453 1.348 . S
C450 C454 1.356 . S
C450 O501 1.325 . S
C451 N452 1.279 . S
C451 C454 1.358 . S
C451 H508 0.930 . S
N452 C451 1.279 . S
N452 C455 1.314 . S
C453 C450 1.348 . S
C453 C455 1.353 . S
C453 H509 0.929 . S
C454 C450 1.356 . S
C454 C451 1.358 . S
C454 H510 0.930 . S
C455 N452 1.314 . S
C455 C453 1.353 . S
C455 H511 0.930 . S
C456 N457 1.314 . S
C456 C461 1.353 . S
C456 H462 0.930 . S
N457 Li440 1.990 . S
N457 C456 1.314 . S
N457 C459 1.265 1_565 S
C458 C459 1.364 . S
C458 C460 1.356 1_545 S
C458 H512 0.930 . S
C459 N457 1.265 1_545 S
C459 C458 1.364 . S
C459 H463 0.941 . S
C460 C458 1.356 1_565 S
C460 C461 1.348 . S
C461 C456 1.353 . S
C461 C460 1.348 . S
C461 H513 0.929 . S
H462 C456 0.930 . S
H463 C459 0.941 . S
C464 N465 1.314 . S
C464 C466 1.353 . S
C464 H470 0.930 . S
N465 Li441 1.990 . S
N465 C464 1.314 . S
N465 C468 1.279 . S
C466 C464 1.353 . S
C466 C469 1.348 . S
C466 H514 0.929 . S
C467 C468 1.358 . S
C467 C469 1.356 . S
C467 H515 0.930 . S
C468 N465 1.279 . S
C468 C467 1.358 . S
C468 H471 0.930 . S
C469 C466 1.348 . S
C469 C467 1.356 . S
H470 C464 0.930 . S
H471 C468 0.930 . S
C472 C474 1.348 . S
C472 C475 1.356 . S
C472 O502 1.325 . S
N473 C476 1.314 . S
N473 C477 1.279 . S
C474 C472 1.348 . S
C474 C476 1.353 . S
C474 H516 0.929 . S
C475 C472 1.356 . S
C475 C477 1.358 . S
C475 H517 0.930 . S
C476 N473 1.314 . S
C476 C474 1.353 . S
C476 H518 0.930 . S
C477 N473 1.279 . S
C477 C475 1.358 . S
C477 H519 0.930 . S
C478 C479 1.348 . S
C478 C480 1.356 . S
C478 O503 1.325 . S
C479 C478 1.348 . S
C479 C481 1.353 . S
C479 H520 0.929 . S
C480 C478 1.356 . S
C480 C482 1.358 . S
C480 H521 0.930 1_565 S
C481 C479 1.353 . S
C481 N483 1.314 . S
C481 H522 0.930 . S
C482 C480 1.358 . S
C482 N483 1.279 . S
C482 H523 0.930 1_565 S
N483 C481 1.314 . S
N483 C482 1.279 . S
C484 C486 1.353 . S
C484 N487 1.314 . S
C484 H490 0.930 . S
C485 N487 1.279 . S
C485 C488 1.358 . S
C485 H491 0.930 . S
C486 C484 1.353 . S
C486 C489 1.348 . S
C486 H524 0.929 . S
N487 Li442 1.990 . S
N487 C484 1.314 . S
N487 C485 1.279 . S
C488 C485 1.358 . S
C488 C489 1.356 . S
C488 H525 0.930 . S
C489 C486 1.348 . S
C489 C488 1.356 . S
H490 C484 0.930 . S
H491 C485 0.930 . S
C492 N493 1.314 . S
C492 C494 1.353 . S
C492 H498 0.930 . S
N493 Li443 1.990 . S
N493 C492 1.314 . S
N493 C496 1.279 . S
C494 C492 1.353 . S
C494 C497 1.348 . S
C494 H526 0.929 . S
C495 C496 1.358 . S
C495 C497 1.356 . S
C495 H527 0.930 . S
C496 N493 1.279 . S
C496 C495 1.358 . S
C496 H499 0.930 . S
C497 C494 1.348 . S
C497 C495 1.356 . S
H498 C492 0.930 . S
H499 C496 0.930 . S
O500 Li440 1.956 . S
O500 Li441 1.970 1_565 S
O500 Li442 1.961 . S
O500 C444 1.325 . S
O501 Li440 1.970 1_545 S
O501 Li441 1.956 . S
O501 Li443 1.961 1_545 S
O501 C450 1.325 . S
O502 Li440 1.961 . S
O502 Li442 1.956 . S
O502 Li443 1.970 . S
O502 C472 1.325 . S
O503 Li441 1.961 1_565 S
O503 Li442 1.970 . S
O503 Li443 1.956 . S
O503 C478 1.325 . S
H504 C446 0.929 . S
H505 C447 0.930 . S
H506 C448 0.930 . S
H507 C449 0.930 . S
H508 C451 0.930 . S
H509 C453 0.929 . S
H510 C454 0.930 . S
H511 C455 0.930 . S
H512 C458 0.930 . S
H513 C461 0.929 . S
H514 C466 0.929 . S
H515 C467 0.930 . S
H516 C474 0.929 . S
H517 C475 0.930 . S
H518 C476 0.930 . S
H519 C477 0.930 . S
H520 C479 0.929 . S
H521 C480 0.930 1_545 S
H522 C481 0.930 . S
H523 C482 0.930 1_545 S
H524 C486 0.929 . S
H525 C488 0.930 . S
H526 C494 0.929 . S
H527 C495 0.930 . S
Li528 N545 1.990 . S
Li528 O588 1.956 . S
Li528 O589 1.970 . S
Li528 O590 1.961 . S
Li529 N553 1.990 . S
Li529 O588 1.970 . S
Li529 O589 1.956 . S
Li529 O591 1.961 . S
Li530 N575 1.990 . S
Li530 O588 1.961 . S
Li530 O590 1.956 . S
Li530 O591 1.970 . S
Li531 N581 1.990 . S
Li531 O589 1.961 . S
Li531 O590 1.970 . S
Li531 O591 1.956 . S
C532 C534 1.348 . S
C532 C535 1.356 . S
C532 O588 1.325 . S
N533 C536 1.314 . S
N533 C537 1.279 . S
C534 C532 1.348 . S
C534 C536 1.353 . S
C534 H592 0.929 . S
C535 C532 1.356 . S
C535 C537 1.358 . S
C535 H593 0.930 . S
C536 N533 1.314 . S
C536 C534 1.353 . S
C536 H594 0.930 . S
C537 N533 1.279 . S
C537 C535 1.358 . S
C537 H595 0.930 . S
C538 C541 1.348 . S
C538 C542 1.356 . S
C538 O589 1.325 . S
C539 N540 1.279 . S
C539 C542 1.358 . S
C539 H596 0.930 . S
N540 C539 1.279 . S
N540 C543 1.314 . S
C541 C538 1.348 . S
C541 C543 1.353 . S
C541 H597 0.929 . S
C542 C538 1.356 . S
C542 C539 1.358 . S
C542 H598 0.930 . S
C543 N540 1.314 . S
C543 C541 1.353 . S
C543 H599 0.930 . S
C544 N545 1.314 . S
C544 C549 1.353 . S
C544 H550 0.930 . S
N545 Li528 1.990 . S
N545 C544 1.314 . S
N545 C547 1.279 . S
C546 C547 1.358 . S
C546 C548 1.356 . S
C546 H600 0.930 . S
C547 N545 1.279 . S
C547 C546 1.358 . S
C547 H551 0.930 . S
C548 C546 1.356 . S
C548 C549 1.348 . S
C549 C544 1.353 . S
C549 C548 1.348 . S
C549 H601 0.929 . S
H550 C544 0.930 . S
H551 C547 0.930 . S
C552 N553 1.314 . S
C552 C554 1.353 . S
C552 H558 0.930 . S
N553 Li529 1.990 . S
N553 C552 1.314 . S
N553 C556 1.279 . S
C554 C552 1.353 . S
C554 C557 1.348 . S
C554 H602 0.929 . S
C555 C556 1.358 . S
C555 C557 1.356 . S
C555 H603 0.930 . S
C556 N553 1.279 . S
C556 C555 1.358 . S
C556 H559 0.930 . S
C557 C554 1.348 . S
C557 C555 1.356 . S
H558 C552 0.930 . S
H559 C556 0.930 . S
C560 C562 1.348 . S
C560 C563 1.356 . S
C560 O590 1.325 . S
N561 C564 1.314 . S
N561 C565 1.279 . S
C562 C560 1.348 . S
C562 C564 1.353 . S
C562 H604 0.929 . S
C563 C560 1.356 . S
C563 C565 1.358 . S
C563 H605 0.930 . S
C564 N561 1.314 . S
C564 C562 1.353 . S
C564 H606 0.930 . S
C565 N561 1.279 . S
C565 C563 1.358 . S
C565 H607 0.930 . S
C566 C567 1.348 . S
C566 C568 1.356 . S
C566 O591 1.325 . S
C567 C566 1.348 . S
C567 C569 1.353 . S
C567 H608 0.929 . S
C568 C566 1.356 . S
C568 C570 1.358 . S
C568 H609 0.930 . S
C569 C567 1.353 . S
C569 N571 1.314 . S
C569 H610 0.930 . S
C570 C568 1.358 . S
C570 N571 1.279 . S
C570 H611 0.930 . S
N571 C569 1.314 . S
N571 C570 1.279 . S
C572 C574 1.353 . S
C572 N575 1.314 . S
C572 H578 0.930 . S
C573 N575 1.279 . S
C573 C576 1.358 . S
C573 H579 0.930 . S
C574 C572 1.353 . S
C574 C577 1.348 . S
C574 H612 0.929 . S
N575 Li530 1.990 . S
N575 C572 1.314 . S
N575 C573 1.279 . S
C576 C573 1.358 . S
C576 C577 1.356 . S
C576 H613 0.930 . S
C577 C574 1.348 . S
C577 C576 1.356 . S
H578 C572 0.930 . S
H579 C573 0.930 . S
C580 N581 1.314 . S
C580 C582 1.353 . S
C580 H586 0.930 . S
N581 Li531 1.990 . S
N581 C580 1.314 . S
N581 C584 1.279 . S
C582 C580 1.353 . S
C582 C585 1.348 . S
C582 H614 0.929 . S
C583 C584 1.358 . S
C583 C585 1.356 . S
C583 H615 0.930 . S
C584 N581 1.279 . S
C584 C583 1.358 . S
C584 H587 0.930 . S
C585 C582 1.348 . S
C585 C583 1.356 . S
H586 C580 0.930 . S
H587 C584 0.930 . S
O588 Li528 1.956 . S
O588 Li529 1.970 . S
O588 Li530 1.961 . S
O588 C532 1.325 . S
O589 Li528 1.970 . S
O589 Li529 1.956 . S
O589 Li531 1.961 . S
O589 C538 1.325 . S
O590 Li528 1.961 . S
O590 Li530 1.956 . S
O590 Li531 1.970 . S
O590 C560 1.325 . S
O591 Li529 1.961 . S
O591 Li530 1.970 . S
O591 Li531 1.956 . S
O591 C566 1.325 . S
H592 C534 0.929 . S
H593 C535 0.930 . S
H594 C536 0.930 . S
H595 C537 0.930 . S
H596 C539 0.930 . S
H597 C541 0.929 . S
H598 C542 0.930 . S
H599 C543 0.930 . S
H600 C546 0.930 . S
H601 C549 0.929 . S
H602 C554 0.929 . S
H603 C555 0.930 . S
H604 C562 0.929 . S
H605 C563 0.930 . S
H606 C564 0.930 . S
H607 C565 0.930 . S
H608 C567 0.929 . S
H609 C568 0.930 . S
H610 C569 0.930 . S
H611 C570 0.930 . S
H612 C574 0.929 . S
H613 C576 0.930 . S
H614 C582 0.929 . S
H615 C583 0.930 . S
Li616 N633 1.990 . S
Li616 O676 1.956 . S
Li616 O677 1.970 1_565 S
Li616 O678 1.961 1_565 S
Li617 N641 1.990 . S
Li617 O676 1.970 1_545 S
Li617 O677 1.956 . S
Li617 O679 1.961 . S
Li618 N663 1.990 1_455 S
Li618 O676 1.961 1_545 S
Li618 O678 1.956 . S
Li618 O679 1.970 . S
Li619 N669 1.990 . S
Li619 O677 1.961 . S
Li619 O678 1.970 . S
Li619 O679 1.956 . S
C620 C622 1.349 . S
C620 C623 1.356 1_455 S
C620 O676 1.325 . S
N621 C624 1.314 . S
N621 C625 1.279 . S
C622 C620 1.349 . S
C622 C624 1.339 1_455 S
C622 H680 0.942 . S
C623 C620 1.356 1_655 S
C623 C625 1.358 . S
C623 H681 0.930 . S
C624 N621 1.314 . S
C624 C622 1.339 1_655 S
C624 H682 0.930 . S
C625 N621 1.279 . S
C625 C623 1.358 . S
C625 H683 0.930 . S
C626 C629 1.348 1_545 S
C626 C630 1.356 . S
C626 O677 1.325 . S
C627 N628 1.279 1_545 S
C627 C630 1.358 . S
C627 H684 0.930 . S
N628 C627 1.279 1_565 S
N628 C631 1.314 . S
C629 C626 1.348 1_565 S
C629 C631 1.353 . S
C629 H685 0.929 . S
C630 C626 1.356 . S
C630 C627 1.358 . S
C630 H686 0.930 . S
C631 N628 1.314 . S
C631 C629 1.353 . S
C631 H687 0.930 . S
C632 N633 1.314 . S
C632 C637 1.353 . S
C632 H638 0.930 . S
N633 Li616 1.990 . S
N633 C632 1.314 . S
N633 C635 1.279 . S
C634 C635 1.358 . S
C634 C636 1.356 . S
C634 H688 0.930 . S
C635 N633 1.279 . S
C635 C634 1.358 . S
C635 H639 0.930 . S
C636 C634 1.356 . S
C636 C637 1.348 . S
C637 C632 1.353 . S
C637 C636 1.348 . S
C637 H689 0.929 . S
H638 C632 0.930 . S
H639 C635 0.930 . S
C640 N641 1.314 . S
C640 C642 1.353 . S
C640 H646 0.930 1_455 S
N641 Li617 1.990 . S
N641 C640 1.314 . S
N641 C644 1.265 1_545 S
C642 C640 1.353 . S
C642 C645 1.348 . S
C642 H690 0.929 1_455 S
C643 C644 1.364 . S
C643 C645 1.356 1_565 S
C643 H691 0.930 . S
C644 N641 1.265 1_565 S
C644 C643 1.364 . S
C644 H647 0.941 . S
C645 C642 1.348 . S
C645 C643 1.356 1_545 S
H646 C640 0.930 1_655 S
H647 C644 0.941 . S
C648 C650 1.348 . S
C648 C651 1.356 . S
C648 O678 1.325 . S
N649 C652 1.314 . S
N649 C653 1.279 . S
C650 C648 1.348 . S
C650 C652 1.353 . S
C650 H692 0.929 . S
C651 C648 1.356 . S
C651 C653 1.358 . S
C651 H693 0.930 1_545 S
C652 N649 1.314 . S
C652 C650 1.353 . S
C652 H694 0.930 . S
C653 N649 1.279 . S
C653 C651 1.358 . S
C653 H695 0.930 1_545 S
C654 C655 1.348 1_455 S
C654 C656 1.356 . S
C654 O679 1.325 . S
C655 C654 1.348 1_655 S
C655 C657 1.353 . S
C655 H696 0.929 . S
C656 C654 1.356 . S
C656 C658 1.358 . S
C656 H697 0.930 . S
C657 C655 1.353 . S
C657 N659 1.314 . S
C657 H698 0.930 . S
C658 C656 1.358 . S
C658 N659 1.279 1_455 S
C658 H699 0.930 . S
N659 C657 1.314 . S
N659 C658 1.279 1_655 S
C660 C662 1.353 . S
C660 N663 1.314 . S
C660 H666 0.930 . S
C661 N663 1.279 . S
C661 C664 1.358 . S
C661 H667 0.930 . S
C662 C660 1.353 . S
C662 C665 1.348 . S
C662 H700 0.929 . S
N663 Li618 1.990 1_655 S
N663 C660 1.314 . S
N663 C661 1.279 . S
C664 C661 1.358 . S
C664 C665 1.356 . S
C664 H701 0.930 . S
C665 C662 1.348 . S
C665 C664 1.356 . S
H666 C660 0.930 . S
H667 C661 0.930 . S
C668 N669 1.314 . S
C668 C670 1.353 . S
C668 H674 0.930 . S
N669 Li619 1.990 . S
N669 C668 1.314 . S
N669 C672 1.279 . S
C670 C668 1.353 . S
C670 C673 1.348 . S
C670 H702 0.929 . S
C671 C672 1.358 . S
C671 C673 1.356 . S
C671 H703 0.930 . S
C672 N669 1.279 . S
C672 C671 1.358 . S
C672 H675 0.930 . S
C673 C670 1.348 . S
C673 C671 1.356 . S
H674 C668 0.930 . S
H675 C672 0.930 . S
O676 Li616 1.956 . S
O676 Li617 1.970 1_565 S
O676 Li618 1.961 1_565 S
O676 C620 1.325 . S
O677 Li616 1.970 1_545 S
O677 Li617 1.956 . S
O677 Li619 1.961 . S
O677 C626 1.325 . S
O678 Li616 1.961 1_545 S
O678 Li618 1.956 . S
O678 Li619 1.970 . S
O678 C648 1.325 . S
O679 Li617 1.961 . S
O679 Li618 1.970 . S
O679 Li619 1.956 . S
O679 C654 1.325 . S
H680 C622 0.942 . S
H681 C623 0.930 . S
H682 C624 0.930 . S
H683 C625 0.930 . S
H684 C627 0.930 . S
H685 C629 0.929 . S
H686 C630 0.930 . S
H687 C631 0.930 . S
H688 C634 0.930 . S
H689 C637 0.929 . S
H690 C642 0.929 1_655 S
H691 C643 0.930 . S
H692 C650 0.929 . S
H693 C651 0.930 1_565 S
H694 C652 0.930 . S
H695 C653 0.930 1_565 S
H696 C655 0.929 . S
H697 C656 0.930 . S
H698 C657 0.930 . S
H699 C658 0.930 . S
H700 C662 0.929 . S
H701 C664 0.930 . S
H702 C670 0.929 . S
H703 C671 0.930 . S
Li704 N721 1.990 . S
Li704 O764 1.956 . S
Li704 O765 1.970 . S
Li704 O766 1.961 . S
Li705 N729 1.990 . S
Li705 O764 1.970 . S
Li705 O765 1.956 . S
Li705 O767 1.961 . S
Li706 N751 1.990 . S
Li706 O764 1.961 . S
Li706 O766 1.956 . S
Li706 O767 1.970 . S
Li707 N757 1.990 . S
Li707 O765 1.961 . S
Li707 O766 1.970 . S
Li707 O767 1.956 . S
C708 C710 1.348 . S
C708 C711 1.356 . S
C708 O764 1.325 . S
N709 C712 1.314 . S
N709 C713 1.279 . S
C710 C708 1.348 . S
C710 C712 1.353 . S
C710 H768 0.929 . S
C711 C708 1.356 . S
C711 C713 1.358 . S
C711 H769 0.930 . S
C712 N709 1.314 . S
C712 C710 1.353 . S
C712 H770 0.930 . S
C713 N709 1.279 . S
C713 C711 1.358 . S
C713 H771 0.930 . S
C714 C717 1.348 . S
C714 C718 1.356 . S
C714 O765 1.325 . S
C715 N716 1.279 . S
C715 C718 1.358 . S
C715 H772 0.930 . S
N716 C715 1.279 . S
N716 C719 1.314 . S
C717 C714 1.348 . S
C717 C719 1.353 . S
C717 H773 0.929 . S
C718 C714 1.356 . S
C718 C715 1.358 . S
C718 H774 0.930 . S
C719 N716 1.314 . S
C719 C717 1.353 . S
C719 H775 0.930 . S
C720 N721 1.314 . S
C720 C725 1.353 . S
C720 H726 0.930 . S
N721 Li704 1.990 . S
N721 C720 1.314 . S
N721 C723 1.279 . S
C722 C723 1.358 . S
C722 C724 1.356 . S
C722 H776 0.930 . S
C723 N721 1.279 . S
C723 C722 1.358 . S
C723 H727 0.930 . S
C724 C722 1.356 . S
C724 C725 1.348 . S
C725 C720 1.353 . S
C725 C724 1.348 . S
C725 H777 0.929 . S
H726 C720 0.930 . S
H727 C723 0.930 . S
C728 N729 1.314 . S
C728 C730 1.353 . S
C728 H734 0.930 . S
N729 Li705 1.990 . S
N729 C728 1.314 . S
N729 C732 1.279 . S
C730 C728 1.353 . S
C730 C733 1.348 . S
C730 H778 0.929 . S
C731 C732 1.358 . S
C731 C733 1.356 . S
C731 H779 0.930 . S
C732 N729 1.279 . S
C732 C731 1.358 . S
C732 H735 0.930 . S
C733 C730 1.348 . S
C733 C731 1.356 . S
H734 C728 0.930 . S
H735 C732 0.930 . S
C736 C738 1.348 . S
C736 C739 1.356 . S
C736 O766 1.325 . S
N737 C740 1.314 . S
N737 C741 1.279 . S
C738 C736 1.348 . S
C738 C740 1.353 . S
C738 H780 0.929 . S
C739 C736 1.356 . S
C739 C741 1.358 . S
C739 H781 0.930 . S
C740 N737 1.314 . S
C740 C738 1.353 . S
C740 H782 0.930 . S
C741 N737 1.279 . S
C741 C739 1.358 . S
C741 H783 0.930 . S
C742 C743 1.348 . S
C742 C744 1.356 . S
C742 O767 1.325 . S
C743 C742 1.348 . S
C743 C745 1.353 . S
C743 H784 0.929 . S
C744 C742 1.356 . S
C744 C746 1.358 . S
C744 H785 0.930 . S
C745 C743 1.353 . S
C745 N747 1.314 . S
C745 H786 0.930 . S
C746 C744 1.358 . S
C746 N747 1.279 . S
C746 H787 0.930 . S
N747 C745 1.314 . S
N747 C746 1.279 . S
C748 C750 1.353 . S
C748 N751 1.314 . S
C748 H754 0.930 . S
C749 N751 1.279 . S
C749 C752 1.358 . S
C749 H755 0.930 . S
C750 C748 1.353 . S
C750 C753 1.348 . S
C750 H788 0.929 . S
N751 Li706 1.990 . S
N751 C748 1.314 . S
N751 C749 1.279 . S
C752 C749 1.358 . S
C752 C753 1.356 . S
C752 H789 0.930 . S
C753 C750 1.348 . S
C753 C752 1.356 . S
H754 C748 0.930 . S
H755 C749 0.930 . S
C756 N757 1.314 . S
C756 C758 1.353 . S
C756 H762 0.930 . S
N757 Li707 1.990 . S
N757 C756 1.314 . S
N757 C760 1.279 . S
C758 C756 1.353 . S
C758 C761 1.348 . S
C758 H790 0.929 . S
C759 C760 1.358 . S
C759 C761 1.356 . S
C759 H791 0.930 . S
C760 N757 1.279 . S
C760 C759 1.358 . S
C760 H763 0.930 . S
C761 C758 1.348 . S
C761 C759 1.356 . S
H762 C756 0.930 . S
H763 C760 0.930 . S
O764 Li704 1.956 . S
O764 Li705 1.970 . S
O764 Li706 1.961 . S
O764 C708 1.325 . S
O765 Li704 1.970 . S
O765 Li705 1.956 . S
O765 Li707 1.961 . S
O765 C714 1.325 . S
O766 Li704 1.961 . S
O766 Li706 1.956 . S
O766 Li707 1.970 . S
O766 C736 1.325 . S
O767 Li705 1.961 . S
O767 Li706 1.970 . S
O767 Li707 1.956 . S
O767 C742 1.325 . S
H768 C710 0.929 . S
H769 C711 0.930 . S
H770 C712 0.930 . S
H771 C713 0.930 . S
H772 C715 0.930 . S
H773 C717 0.929 . S
H774 C718 0.930 . S
H775 C719 0.930 . S
H776 C722 0.930 . S
H777 C725 0.929 . S
H778 C730 0.929 . S
H779 C731 0.930 . S
H780 C738 0.929 . S
H781 C739 0.930 . S
H782 C740 0.930 . S
H783 C741 0.930 . S
H784 C743 0.929 . S
H785 C744 0.930 . S
H786 C745 0.930 . S
H787 C746 0.930 . S
H788 C750 0.929 . S
H789 C752 0.930 . S
H790 C758 0.929 . S
H791 C759 0.930 . S
Li792 N809 1.990 1_655 S
Li792 O852 1.956 1_545 S
Li792 O853 1.970 . S
Li792 O854 1.961 . S
Li793 N817 1.990 . S
Li793 O852 1.970 1_545 S
Li793 O853 1.956 . S
Li793 O855 1.961 . S
Li794 N839 1.990 . S
Li794 O852 1.961 . S
Li794 O854 1.956 1_565 S
Li794 O855 1.970 1_565 S
Li795 N845 1.990 . S
Li795 O853 1.961 . S
Li795 O854 1.970 . S
Li795 O855 1.956 . S
C796 C798 1.348 1_655 S
C796 C799 1.356 1_655 S
C796 O852 1.325 . S
N797 C800 1.314 . S
N797 C801 1.279 . S
C798 C796 1.348 1_455 S
C798 C800 1.353 . S
C798 H856 0.929 . S
C799 C796 1.356 1_455 S
C799 C801 1.358 . S
C799 H857 0.930 1_455 S
C800 N797 1.314 . S
C800 C798 1.353 . S
C800 H858 0.930 . S
C801 N797 1.279 . S
C801 C799 1.358 . S
C801 H859 0.930 . S
C802 C805 1.348 1_655 S
C802 C806 1.356 . S
C802 O853 1.325 . S
C803 N804 1.279 1_655 S
C803 C806 1.358 . S
C803 H860 0.930 . S
N804 C803 1.279 1_455 S
N804 C807 1.314 . S
C805 C802 1.348 1_455 S
C805 C807 1.353 . S
C805 H861 0.929 . S
C806 C802 1.356 . S
C806 C803 1.358 . S
C806 H862 0.930 . S
C807 N804 1.314 . S
C807 C805 1.353 . S
C807 H863 0.930 . S
C808 N809 1.314 . S
C808 C813 1.353 . S
C808 H814 0.930 . S
N809 Li792 1.990 1_455 S
N809 C808 1.314 . S
N809 C811 1.279 . S
C810 C811 1.358 . S
C810 C812 1.356 . S
C810 H864 0.930 . S
C811 N809 1.279 . S
C811 C810 1.358 . S
C811 H815 0.930 . S
C812 C810 1.356 . S
C812 C813 1.348 . S
C813 C808 1.353 . S
C813 C812 1.348 . S
C813 H865 0.929 . S
H814 C808 0.930 . S
H815 C811 0.930 . S
C816 N817 1.314 1_565 S
C816 C818 1.353 . S
C816 H822 0.930 . S
N817 Li793 1.990 . S
N817 C816 1.314 1_545 S
N817 C820 1.279 . S
C818 C816 1.353 . S
C818 C821 1.348 1_565 S
C818 H866 0.929 . S
C819 C820 1.358 . S
C819 C821 1.356 . S
C819 H867 0.930 . S
C820 N817 1.279 . S
C820 C819 1.358 . S
C820 H823 0.930 . S
C821 C818 1.348 1_545 S
C821 C819 1.356 . S
H822 C816 0.930 . S
H823 C820 0.930 . S
C824 C826 1.348 . S
C824 C827 1.356 . S
C824 O854 1.325 . S
N825 C828 1.314 . S
N825 C829 1.279 . S
C826 C824 1.348 . S
C826 C828 1.353 . S
C826 H868 0.929 . S
C827 C824 1.356 . S
C827 C829 1.358 . S
C827 H869 0.930 . S
C828 N825 1.314 . S
C828 C826 1.353 . S
C828 H870 0.930 . S
C829 N825 1.279 . S
C829 C827 1.358 . S
C829 H871 0.930 . S
C830 C831 1.348 1_545 S
C830 C832 1.356 . S
C830 O855 1.325 . S
C831 C830 1.348 1_565 S
C831 C833 1.353 . S
C831 H872 0.929 . S
C832 C830 1.356 . S
C832 C834 1.358 . S
C832 H873 0.930 . S
C833 C831 1.353 . S
C833 N835 1.314 . S
C833 H874 0.930 . S
C834 C832 1.358 . S
C834 N835 1.279 1_545 S
C834 H875 0.930 . S
N835 C833 1.314 . S
N835 C834 1.279 1_565 S
C836 C838 1.353 . S
C836 N839 1.314 . S
C836 H842 0.930 . S
C837 N839 1.279 . S
C837 C840 1.358 . S
C837 H843 0.930 . S
C838 C836 1.353 . S
C838 C841 1.348 . S
C838 H876 0.929 . S
N839 Li794 1.990 . S
N839 C836 1.314 . S
N839 C837 1.279 . S
C840 C837 1.358 . S
C840 C841 1.356 . S
C840 H877 0.930 . S
C841 C838 1.348 . S
C841 C840 1.356 . S
H842 C836 0.930 . S
H843 C837 0.930 . S
C844 N845 1.314 . S
C844 C846 1.353 . S
C844 H850 0.930 . S
N845 Li795 1.990 . S
N845 C844 1.314 . S
N845 C848 1.279 . S
C846 C844 1.353 . S
C846 C849 1.348 . S
C846 H878 0.929 . S
C847 C848 1.358 . S
C847 C849 1.356 . S
C847 H879 0.930 . S
C848 N845 1.279 . S
C848 C847 1.358 . S
C848 H851 0.930 . S
C849 C846 1.348 . S
C849 C847 1.356 . S
H850 C844 0.930 . S
H851 C848 0.930 . S
O852 Li792 1.956 1_565 S
O852 Li793 1.970 1_565 S
O852 Li794 1.961 . S
O852 C796 1.325 . S
O853 Li792 1.970 . S
O853 Li793 1.956 . S
O853 Li795 1.961 . S
O853 C802 1.325 . S
O854 Li792 1.961 . S
O854 Li794 1.956 1_545 S
O854 Li795 1.970 . S
O854 C824 1.325 . S
O855 Li793 1.961 . S
O855 Li794 1.970 1_545 S
O855 Li795 1.956 . S
O855 C830 1.325 . S
H856 C798 0.929 . S
H857 C799 0.930 1_655 S
H858 C800 0.930 . S
H859 C801 0.930 . S
H860 C803 0.930 . S
H861 C805 0.929 . S
H862 C806 0.930 . S
H863 C807 0.930 . S
H864 C810 0.930 . S
H865 C813 0.929 . S
H866 C818 0.929 . S
H867 C819 0.930 . S
H868 C826 0.929 . S
H869 C827 0.930 . S
H870 C828 0.930 . S
H871 C829 0.930 . S
H872 C831 0.929 . S
H873 C832 0.930 . S
H874 C833 0.930 . S
H875 C834 0.930 . S
H876 C838 0.929 . S
H877 C840 0.930 . S
H878 C846 0.929 . S
H879 C847 0.930 . S
Li880 N897 1.990 . S
Li880 O940 1.956 . S
Li880 O941 1.970 . S
Li880 O942 1.961 . S
Li881 N905 1.990 . S
Li881 O940 1.970 . S
Li881 O941 1.956 . S
Li881 O943 1.961 . S
Li882 N927 1.990 . S
Li882 O940 1.961 . S
Li882 O942 1.956 . S
Li882 O943 1.970 . S
Li883 N933 1.990 . S
Li883 O941 1.961 . S
Li883 O942 1.970 . S
Li883 O943 1.956 . S
C884 C886 1.348 . S
C884 C887 1.356 . S
C884 O940 1.325 . S
N885 C888 1.314 . S
N885 C889 1.279 . S
C886 C884 1.348 . S
C886 C888 1.353 . S
C886 H944 0.929 . S
C887 C884 1.356 . S
C887 C889 1.358 . S
C887 H945 0.930 . S
C888 N885 1.314 . S
C888 C886 1.353 . S
C888 H946 0.930 . S
C889 N885 1.279 . S
C889 C887 1.358 . S
C889 H947 0.930 . S
C890 C893 1.348 . S
C890 C894 1.356 . S
C890 O941 1.325 . S
C891 N892 1.279 . S
C891 C894 1.358 . S
C891 H948 0.930 . S
N892 C891 1.279 . S
N892 C895 1.314 . S
C893 C890 1.348 . S
C893 C895 1.353 . S
C893 H949 0.929 . S
C894 C890 1.356 . S
C894 C891 1.358 . S
C894 H950 0.930 . S
C895 N892 1.314 . S
C895 C893 1.353 . S
C895 H951 0.930 . S
C896 N897 1.314 . S
C896 C901 1.353 . S
C896 H902 0.930 . S
N897 Li880 1.990 . S
N897 C896 1.314 . S
N897 C899 1.279 . S
C898 C899 1.358 . S
C898 C900 1.356 . S
C898 H952 0.930 . S
C899 N897 1.279 . S
C899 C898 1.358 . S
C899 H903 0.930 . S
C900 C898 1.356 . S
C900 C901 1.348 . S
C901 C896 1.353 . S
C901 C900 1.348 . S
C901 H953 0.929 . S
H902 C896 0.930 . S
H903 C899 0.930 . S
C904 N905 1.314 . S
C904 C906 1.353 . S
C904 H910 0.930 . S
N905 Li881 1.990 . S
N905 C904 1.314 . S
N905 C908 1.279 . S
C906 C904 1.353 . S
C906 C909 1.348 . S
C906 H954 0.929 . S
C907 C908 1.358 . S
C907 C909 1.356 . S
C907 H955 0.930 . S
C908 N905 1.279 . S
C908 C907 1.358 . S
C908 H911 0.930 . S
C909 C906 1.348 . S
C909 C907 1.356 . S
H910 C904 0.930 . S
H911 C908 0.930 . S
C912 C914 1.348 . S
C912 C915 1.356 . S
C912 O942 1.325 . S
N913 C916 1.314 . S
N913 C917 1.279 . S
C914 C912 1.348 . S
C914 C916 1.353 . S
C914 H956 0.929 . S
C915 C912 1.356 . S
C915 C917 1.358 . S
C915 H957 0.930 . S
C916 N913 1.314 . S
C916 C914 1.353 . S
C916 H958 0.930 . S
C917 N913 1.279 . S
C917 C915 1.358 . S
C917 H959 0.930 . S
C918 C919 1.348 . S
C918 C920 1.356 . S
C918 O943 1.325 . S
C919 C918 1.348 . S
C919 C921 1.353 . S
C919 H960 0.929 . S
C920 C918 1.356 . S
C920 C922 1.358 . S
C920 H961 0.930 . S
C921 C919 1.353 . S
C921 N923 1.314 . S
C921 H962 0.930 . S
C922 C920 1.358 . S
C922 N923 1.279 . S
C922 H963 0.930 . S
N923 C921 1.314 . S
N923 C922 1.279 . S
C924 C926 1.353 . S
C924 N927 1.314 . S
C924 H930 0.930 . S
C925 N927 1.279 . S
C925 C928 1.358 . S
C925 H931 0.930 . S
C926 C924 1.353 . S
C926 C929 1.348 . S
C926 H964 0.929 . S
N927 Li882 1.990 . S
N927 C924 1.314 . S
N927 C925 1.279 . S
C928 C925 1.358 . S
C928 C929 1.356 . S
C928 H965 0.930 . S
C929 C926 1.348 . S
C929 C928 1.356 . S
H930 C924 0.930 . S
H931 C925 0.930 . S
C932 N933 1.314 . S
C932 C934 1.353 . S
C932 H938 0.930 . S
N933 Li883 1.990 . S
N933 C932 1.314 . S
N933 C936 1.279 . S
C934 C932 1.353 . S
C934 C937 1.348 . S
C934 H966 0.929 . S
C935 C936 1.358 . S
C935 C937 1.356 . S
C935 H967 0.930 . S
C936 N933 1.279 . S
C936 C935 1.358 . S
C936 H939 0.930 . S
C937 C934 1.348 . S
C937 C935 1.356 . S
H938 C932 0.930 . S
H939 C936 0.930 . S
O940 Li880 1.956 . S
O940 Li881 1.970 . S
O940 Li882 1.961 . S
O940 C884 1.325 . S
O941 Li880 1.970 . S
O941 Li881 1.956 . S
O941 Li883 1.961 . S
O941 C890 1.325 . S
O942 Li880 1.961 . S
O942 Li882 1.956 . S
O942 Li883 1.970 . S
O942 C912 1.325 . S
O943 Li881 1.961 . S
O943 Li882 1.970 . S
O943 Li883 1.956 . S
O943 C918 1.325 . S
H944 C886 0.929 . S
H945 C887 0.930 . S
H946 C888 0.930 . S
H947 C889 0.930 . S
H948 C891 0.930 . S
H949 C893 0.929 . S
H950 C894 0.930 . S
H951 C895 0.930 . S
H952 C898 0.930 . S
H953 C901 0.929 . S
H954 C906 0.929 . S
H955 C907 0.930 . S
H956 C914 0.929 . S
H957 C915 0.930 . S
H958 C916 0.930 . S
H959 C917 0.930 . S
H960 C919 0.929 . S
H961 C920 0.930 . S
H962 C921 0.930 . S
H963 C922 0.930 . S
H964 C926 0.929 . S
H965 C928 0.930 . S
H966 C934 0.929 . S
H967 C935 0.930 . S
Li968 N985 1.990 . S
Li968 O1028 1.956 1_565 S
Li968 O1029 1.970 . S
Li968 O1030 1.961 . S
Li969 N993 1.990 . S
Li969 O1028 1.970 1_565 S
Li969 O1029 1.956 . S
Li969 O1031 1.961 . S
Li970 N1015 1.990 . S
Li970 O1028 1.961 . S
Li970 O1030 1.956 1_545 S
Li970 O1031 1.970 1_545 S
Li971 N1021 1.990 . S
Li971 O1029 1.961 . S
Li971 O1030 1.970 . S
Li971 O1031 1.956 . S
C972 C974 1.348 . S
C972 C975 1.356 . S
C972 O1028 1.325 . S
N973 C976 1.314 . S
N973 C977 1.279 . S
C974 C972 1.348 . S
C974 C976 1.353 . S
C974 H1032 0.929 . S
C975 C972 1.356 . S
C975 C977 1.358 . S
C975 H1033 0.930 . S
C976 N973 1.314 . S
C976 C974 1.353 . S
C976 H1034 0.930 . S
C977 N973 1.279 . S
C977 C975 1.358 . S
C977 H1035 0.930 . S
C978 C981 1.348 . S
C978 C982 1.356 . S
C978 O1029 1.325 . S
C979 N980 1.279 . S
C979 C982 1.358 . S
C979 H1036 0.930 . S
N980 C979 1.279 . S
N980 C983 1.314 . S
C981 C978 1.348 . S
C981 C983 1.353 . S
C981 H1037 0.929 . S
C982 C978 1.356 . S
C982 C979 1.358 . S
C982 H1038 0.930 . S
C983 N980 1.314 . S
C983 C981 1.353 . S
C983 H1039 0.930 . S
C984 N985 1.314 . S
C984 C989 1.353 . S
C984 H990 0.930 . S
N985 Li968 1.990 . S
N985 C984 1.314 . S
N985 C987 1.279 . S
C986 C987 1.358 . S
C986 C988 1.356 . S
C986 H1040 0.930 . S
C987 N985 1.279 . S
C987 C986 1.358 . S
C987 H991 0.930 . S
C988 C986 1.356 . S
C988 C989 1.348 . S
C989 C984 1.353 . S
C989 C988 1.348 . S
C989 H1041 0.929 . S
H990 C984 0.930 . S
H991 C987 0.930 . S
C992 N993 1.314 1_545 S
C992 C994 1.353 . S
C992 H998 0.930 . S
N993 Li969 1.990 . S
N993 C992 1.314 1_565 S
N993 C996 1.279 . S
C994 C992 1.353 . S
C994 C997 1.348 1_545 S
C994 H1042 0.929 . S
C995 C996 1.358 . S
C995 C997 1.356 . S
C995 H1043 0.930 . S
C996 N993 1.279 . S
C996 C995 1.358 . S
C996 H999 0.930 . S
C997 C994 1.348 1_565 S
C997 C995 1.356 . S
H998 C992 0.930 . S
H999 C996 0.930 . S
C1000 C1002 1.348 . S
C1000 C1003 1.356 . S
C1000 O1030 1.325 . S
N1001 C1004 1.314 . S
N1001 C1005 1.279 . S
C1002 C1000 1.348 . S
C1002 C1004 1.353 . S
C1002 H1044 0.929 . S
C1003 C1000 1.356 . S
C1003 C1005 1.358 . S
C1003 H1045 0.930 . S
C1004 N1001 1.314 . S
C1004 C1002 1.353 . S
C1004 H1046 0.930 . S
C1005 N1001 1.279 . S
C1005 C1003 1.358 . S
C1005 H1047 0.930 . S
C1006 C1007 1.348 1_565 S
C1006 C1008 1.356 . S
C1006 O1031 1.325 . S
C1007 C1006 1.348 1_545 S
C1007 C1009 1.353 . S
C1007 H1048 0.929 . S
C1008 C1006 1.356 . S
C1008 C1010 1.358 . S
C1008 H1049 0.930 . S
C1009 C1007 1.353 . S
C1009 N1011 1.314 . S
C1009 H1050 0.930 . S
C1010 C1008 1.358 . S
C1010 N1011 1.279 1_565 S
C1010 H1051 0.930 . S
N1011 C1009 1.314 . S
N1011 C1010 1.279 1_545 S
C1012 C1014 1.353 . S
C1012 N1015 1.314 . S
C1012 H1018 0.930 . S
C1013 N1015 1.279 . S
C1013 C1016 1.358 . S
C1013 H1019 0.930 . S
C1014 C1012 1.353 . S
C1014 C1017 1.348 . S
C1014 H1052 0.929 . S
N1015 Li970 1.990 . S
N1015 C1012 1.314 . S
N1015 C1013 1.279 . S
C1016 C1013 1.358 . S
C1016 C1017 1.356 . S
C1016 H1053 0.930 . S
C1017 C1014 1.348 . S
C1017 C1016 1.356 . S
H1018 C1012 0.930 . S
H1019 C1013 0.930 . S
C1020 N1021 1.314 . S
C1020 C1022 1.353 . S
C1020 H1026 0.930 . S
N1021 Li971 1.990 . S
N1021 C1020 1.314 . S
N1021 C1024 1.279 . S
C1022 C1020 1.353 . S
C1022 C1025 1.348 . S
C1022 H1054 0.929 . S
C1023 C1024 1.358 . S
C1023 C1025 1.356 . S
C1023 H1055 0.930 . S
C1024 N1021 1.279 . S
C1024 C1023 1.358 . S
C1024 H1027 0.930 . S
C1025 C1022 1.348 . S
C1025 C1023 1.356 . S
H1026 C1020 0.930 . S
H1027 C1024 0.930 . S
O1028 Li968 1.956 1_545 S
O1028 Li969 1.970 1_545 S
O1028 Li970 1.961 . S
O1028 C972 1.325 . S
O1029 Li968 1.970 . S
O1029 Li969 1.956 . S
O1029 Li971 1.961 . S
O1029 C978 1.325 . S
O1030 Li968 1.961 . S
O1030 Li970 1.956 1_565 S
O1030 Li971 1.970 . S
O1030 C1000 1.325 . S
O1031 Li969 1.961 . S
O1031 Li970 1.970 1_565 S
O1031 Li971 1.956 . S
O1031 C1006 1.325 . S
H1032 C974 0.929 . S
H1033 C975 0.930 . S
H1034 C976 0.930 . S
H1035 C977 0.930 . S
H1036 C979 0.930 . S
H1037 C981 0.929 . S
H1038 C982 0.930 . S
H1039 C983 0.930 . S
H1040 C986 0.930 . S
H1041 C989 0.929 . S
H1042 C994 0.929 . S
H1043 C995 0.930 . S
H1044 C1002 0.929 . S
H1045 C1003 0.930 . S
H1046 C1004 0.930 . S
H1047 C1005 0.930 . S
H1048 C1007 0.929 . S
H1049 C1008 0.930 . S
H1050 C1009 0.930 . S
H1051 C1010 0.930 . S
H1052 C1014 0.929 . S
H1053 C1016 0.930 . S
H1054 C1022 0.929 . S
H1055 C1023 0.930 . S
Li1056 N1073 1.990 . S
Li1056 O1116 1.956 . S
Li1056 O1117 1.970 . S
Li1056 O1118 1.961 . S
Li1057 N1081 1.990 . S
Li1057 O1116 1.970 . S
Li1057 O1117 1.956 . S
Li1057 O1119 1.961 . S
Li1058 N1103 1.990 . S
Li1058 O1116 1.961 . S
Li1058 O1118 1.956 . S
Li1058 O1119 1.970 . S
Li1059 N1109 1.990 . S
Li1059 O1117 1.961 . S
Li1059 O1118 1.970 . S
Li1059 O1119 1.956 . S
C1060 C1062 1.348 . S
C1060 C1063 1.356 . S
C1060 O1116 1.325 . S
N1061 C1064 1.314 . S
N1061 C1065 1.279 . S
C1062 C1060 1.348 . S
C1062 C1064 1.353 . S
C1062 H1120 0.929 . S
C1063 C1060 1.356 . S
C1063 C1065 1.358 . S
C1063 H1121 0.930 . S
C1064 N1061 1.314 . S
C1064 C1062 1.353 . S
C1064 H1122 0.930 . S
C1065 N1061 1.279 . S
C1065 C1063 1.358 . S
C1065 H1123 0.930 . S
C1066 C1069 1.348 . S
C1066 C1070 1.356 . S
C1066 O1117 1.325 . S
C1067 N1068 1.279 . S
C1067 C1070 1.358 . S
C1067 H1124 0.930 . S
N1068 C1067 1.279 . S
N1068 C1071 1.314 . S
C1069 C1066 1.348 . S
C1069 C1071 1.353 . S
C1069 H1125 0.929 . S
C1070 C1066 1.356 . S
C1070 C1067 1.358 . S
C1070 H1126 0.930 . S
C1071 N1068 1.314 . S
C1071 C1069 1.353 . S
C1071 H1127 0.930 . S
C1072 N1073 1.314 . S
C1072 C1077 1.353 . S
C1072 H1078 0.930 . S
N1073 Li1056 1.990 . S
N1073 C1072 1.314 . S
N1073 C1075 1.279 . S
C1074 C1075 1.358 . S
C1074 C1076 1.356 . S
C1074 H1128 0.930 . S
C1075 N1073 1.279 . S
C1075 C1074 1.358 . S
C1075 H1079 0.930 . S
C1076 C1074 1.356 . S
C1076 C1077 1.348 . S
C1077 C1072 1.353 . S
C1077 C1076 1.348 . S
C1077 H1129 0.929 . S
H1078 C1072 0.930 . S
H1079 C1075 0.930 . S
C1080 N1081 1.314 . S
C1080 C1082 1.353 . S
C1080 H1086 0.930 . S
N1081 Li1057 1.990 . S
N1081 C1080 1.314 . S
N1081 C1084 1.279 . S
C1082 C1080 1.353 . S
C1082 C1085 1.348 . S
C1082 H1130 0.929 . S
C1083 C1084 1.358 . S
C1083 C1085 1.356 . S
C1083 H1131 0.930 . S
C1084 N1081 1.279 . S
C1084 C1083 1.358 . S
C1084 H1087 0.930 . S
C1085 C1082 1.348 . S
C1085 C1083 1.356 . S
H1086 C1080 0.930 . S
H1087 C1084 0.930 . S
C1088 C1090 1.348 . S
C1088 C1091 1.356 . S
C1088 O1118 1.325 . S
N1089 C1092 1.314 . S
N1089 C1093 1.279 . S
C1090 C1088 1.348 . S
C1090 C1092 1.353 . S
C1090 H1132 0.929 . S
C1091 C1088 1.356 . S
C1091 C1093 1.358 . S
C1091 H1133 0.930 . S
C1092 N1089 1.314 . S
C1092 C1090 1.353 . S
C1092 H1134 0.930 . S
C1093 N1089 1.279 . S
C1093 C1091 1.358 . S
C1093 H1135 0.930 . S
C1094 C1095 1.348 . S
C1094 C1096 1.356 . S
C1094 O1119 1.325 . S
C1095 C1094 1.348 . S
C1095 C1097 1.353 . S
C1095 H1136 0.929 . S
C1096 C1094 1.356 . S
C1096 C1098 1.358 . S
C1096 H1137 0.930 . S
C1097 C1095 1.353 . S
C1097 N1099 1.314 . S
C1097 H1138 0.930 . S
C1098 C1096 1.358 . S
C1098 N1099 1.279 . S
C1098 H1139 0.930 . S
N1099 C1097 1.314 . S
N1099 C1098 1.279 . S
C1100 C1102 1.353 . S
C1100 N1103 1.314 . S
C1100 H1106 0.930 . S
C1101 N1103 1.279 . S
C1101 C1104 1.358 . S
C1101 H1107 0.930 . S
C1102 C1100 1.353 . S
C1102 C1105 1.348 . S
C1102 H1140 0.929 . S
N1103 Li1058 1.990 . S
N1103 C1100 1.314 . S
N1103 C1101 1.279 . S
C1104 C1101 1.358 . S
C1104 C1105 1.356 . S
C1104 H1141 0.930 . S
C1105 C1102 1.348 . S
C1105 C1104 1.356 . S
H1106 C1100 0.930 . S
H1107 C1101 0.930 . S
C1108 N1109 1.314 . S
C1108 C1110 1.353 . S
C1108 H1114 0.930 . S
N1109 Li1059 1.990 . S
N1109 C1108 1.314 . S
N1109 C1112 1.279 . S
C1110 C1108 1.353 . S
C1110 C1113 1.348 . S
C1110 H1142 0.929 . S
C1111 C1112 1.358 . S
C1111 C1113 1.356 . S
C1111 H1143 0.930 . S
C1112 N1109 1.279 . S
C1112 C1111 1.358 . S
C1112 H1115 0.930 . S
C1113 C1110 1.348 . S
C1113 C1111 1.356 . S
H1114 C1108 0.930 . S
H1115 C1112 0.930 . S
O1116 Li1056 1.956 . S
O1116 Li1057 1.970 . S
O1116 Li1058 1.961 . S
O1116 C1060 1.325 . S
O1117 Li1056 1.970 . S
O1117 Li1057 1.956 . S
O1117 Li1059 1.961 . S
O1117 C1066 1.325 . S
O1118 Li1056 1.961 . S
O1118 Li1058 1.956 . S
O1118 Li1059 1.970 . S
O1118 C1088 1.325 . S
O1119 Li1057 1.961 . S
O1119 Li1058 1.970 . S
O1119 Li1059 1.956 . S
O1119 C1094 1.325 . S
H1120 C1062 0.929 . S
H1121 C1063 0.930 . S
H1122 C1064 0.930 . S
H1123 C1065 0.930 . S
H1124 C1067 0.930 . S
H1125 C1069 0.929 . S
H1126 C1070 0.930 . S
H1127 C1071 0.930 . S
H1128 C1074 0.930 . S
H1129 C1077 0.929 . S
H1130 C1082 0.929 . S
H1131 C1083 0.930 . S
H1132 C1090 0.929 . S
H1133 C1091 0.930 . S
H1134 C1092 0.930 . S
H1135 C1093 0.930 . S
H1136 C1095 0.929 . S
H1137 C1096 0.930 . S
H1138 C1097 0.930 . S
H1139 C1098 0.930 . S
H1140 C1102 0.929 . S
H1141 C1104 0.930 . S
H1142 C1110 0.929 . S
H1143 C1111 0.930 . S
Li1144 N1161 1.990 . S
Li1144 O1204 1.956 . S
Li1144 O1205 1.970 . S
Li1144 O1206 1.961 . S
Li1145 N1169 1.990 . S
Li1145 O1204 1.970 1_565 S
Li1145 O1205 1.956 1_565 S
Li1145 O1207 1.961 . S
Li1146 N1191 1.990 . S
Li1146 O1204 1.961 . S
Li1146 O1206 1.956 . S
Li1146 O1207 1.970 1_545 S
Li1147 N1197 1.990 . S
Li1147 O1205 1.961 . S
Li1147 O1206 1.970 . S
Li1147 O1207 1.956 1_545 S
C1148 C1150 1.348 1_545 S
C1148 C1151 1.356 . S
C1148 O1204 1.325 . S
N1149 C1152 1.314 . S
N1149 C1153 1.279 1_565 S
C1150 C1148 1.348 1_565 S
C1150 C1152 1.353 . S
C1150 H1208 0.929 . S
C1151 C1148 1.356 . S
C1151 C1153 1.358 . S
C1151 H1209 0.930 . S
C1152 N1149 1.314 . S
C1152 C1150 1.353 . S
C1152 H1210 0.930 . S
C1153 N1149 1.279 1_545 S
C1153 C1151 1.358 . S
C1153 H1211 0.930 . S
C1154 C1157 1.348 . S
C1154 C1158 1.356 . S
C1154 O1205 1.325 . S
C1155 N1156 1.279 . S
C1155 C1158 1.358 . S
C1155 H1212 0.930 . S
N1156 C1155 1.279 . S
N1156 C1159 1.314 . S
C1157 C1154 1.348 . S
C1157 C1159 1.353 . S
C1157 H1213 0.929 . S
C1158 C1154 1.356 . S
C1158 C1155 1.358 . S
C1158 H1214 0.930 . S
C1159 N1156 1.314 . S
C1159 C1157 1.353 . S
C1159 H1215 0.930 . S
C1160 N1161 1.314 . S
C1160 C1165 1.353 . S
C1160 H1166 0.930 . S
N1161 Li1144 1.990 . S
N1161 C1160 1.314 . S
N1161 C1163 1.279 . S
C1162 C1163 1.358 . S
C1162 C1164 1.356 . S
C1162 H1216 0.930 . S
C1163 N1161 1.279 . S
C1163 C1162 1.358 . S
C1163 H1167 0.930 . S
C1164 C1162 1.356 . S
C1164 C1165 1.348 . S
C1165 C1160 1.353 . S
C1165 C1164 1.348 . S
C1165 H1217 0.929 . S
H1166 C1160 0.930 . S
H1167 C1163 0.930 . S
C1168 N1169 1.314 . S
C1168 C1170 1.353 . S
C1168 H1174 0.930 . S
N1169 Li1145 1.990 . S
N1169 C1168 1.314 . S
N1169 C1172 1.279 . S
C1170 C1168 1.353 . S
C1170 C1173 1.348 . S
C1170 H1218 0.929 . S
C1171 C1172 1.358 . S
C1171 C1173 1.356 . S
C1171 H1219 0.930 . S
C1172 N1169 1.279 . S
C1172 C1171 1.358 . S
C1172 H1175 0.930 . S
C1173 C1170 1.348 . S
C1173 C1171 1.356 . S
H1174 C1168 0.930 . S
H1175 C1172 0.930 . S
C1176 C1178 1.348 . S
C1176 C1179 1.356 . S
C1176 O1206 1.325 . S
N1177 C1180 1.314 . S
N1177 C1181 1.279 . S
C1178 C1176 1.348 . S
C1178 C1180 1.353 . S
C1178 H1220 0.929 . S
C1179 C1176 1.356 . S
C1179 C1181 1.358 . S
C1179 H1221 0.930 . S
C1180 N1177 1.314 . S
C1180 C1178 1.353 . S
C1180 H1222 0.930 . S
C1181 N1177 1.279 . S
C1181 C1179 1.358 . S
C1181 H1223 0.930 . S
C1182 C1183 1.348 . S
C1182 C1184 1.356 . S
C1182 O1207 1.325 . S
C1183 C1182 1.348 . S
C1183 C1185 1.353 . S
C1183 H1224 0.929 . S
C1184 C1182 1.356 . S
C1184 C1186 1.358 . S
C1184 H1225 0.930 . S
C1185 C1183 1.353 . S
C1185 N1187 1.314 . S
C1185 H1226 0.930 . S
C1186 C1184 1.358 . S
C1186 N1187 1.279 . S
C1186 H1227 0.930 . S
N1187 C1185 1.314 . S
N1187 C1186 1.279 . S
C1188 C1190 1.353 . S
C1188 N1191 1.314 1_565 S
C1188 H1194 0.930 . S
C1189 N1191 1.279 . S
C1189 C1192 1.358 . S
C1189 H1195 0.930 . S
C1190 C1188 1.353 . S
C1190 C1193 1.348 1_565 S
C1190 H1228 0.929 . S
N1191 Li1146 1.990 . S
N1191 C1188 1.314 1_545 S
N1191 C1189 1.279 . S
C1192 C1189 1.358 . S
C1192 C1193 1.356 . S
C1192 H1229 0.930 . S
C1193 C1190 1.348 1_545 S
C1193 C1192 1.356 . S
H1194 C1188 0.930 . S
H1195 C1189 0.930 . S
C1196 N1197 1.314 . S
C1196 C1198 1.353 . S
C1196 H1202 0.930 . S
N1197 Li1147 1.990 . S
N1197 C1196 1.314 . S
N1197 C1200 1.279 . S
C1198 C1196 1.353 . S
C1198 C1201 1.348 . S
C1198 H1230 0.929 . S
C1199 C1200 1.358 . S
C1199 C1201 1.356 . S
C1199 H1231 0.930 . S
C1200 N1197 1.279 . S
C1200 C1199 1.358 . S
C1200 H1203 0.930 . S
C1201 C1198 1.348 . S
C1201 C1199 1.356 . S
H1202 C1196 0.930 . S
H1203 C1200 0.930 . S
O1204 Li1144 1.956 . S
O1204 Li1145 1.970 1_545 S
O1204 Li1146 1.961 . S
O1204 C1148 1.325 . S
O1205 Li1144 1.970 . S
O1205 Li1145 1.956 1_545 S
O1205 Li1147 1.961 . S
O1205 C1154 1.325 . S
O1206 Li1144 1.961 . S
O1206 Li1146 1.956 . S
O1206 Li1147 1.970 . S
O1206 C1176 1.325 . S
O1207 Li1145 1.961 . S
O1207 Li1146 1.970 1_565 S
O1207 Li1147 1.956 1_565 S
O1207 C1182 1.325 . S
H1208 C1150 0.929 . S
H1209 C1151 0.930 . S
H1210 C1152 0.930 . S
H1211 C1153 0.930 . S
H1212 C1155 0.930 . S
H1213 C1157 0.929 . S
H1214 C1158 0.930 . S
H1215 C1159 0.930 . S
H1216 C1162 0.930 . S
H1217 C1165 0.929 . S
H1218 C1170 0.929 . S
H1219 C1171 0.930 . S
H1220 C1178 0.929 . S
H1221 C1179 0.930 . S
H1222 C1180 0.930 . S
H1223 C1181 0.930 . S
H1224 C1183 0.929 . S
H1225 C1184 0.930 . S
H1226 C1185 0.930 . S
H1227 C1186 0.930 . S
H1228 C1190 0.929 . S
H1229 C1192 0.930 . S
H1230 C1198 0.929 . S
H1231 C1199 0.930 . S
Li1232 N1249 1.990 . S
Li1232 O1292 1.956 . S
Li1232 O1293 1.970 . S
Li1232 O1294 1.961 . S
Li1233 N1257 1.990 . S
Li1233 O1292 1.970 . S
Li1233 O1293 1.956 . S
Li1233 O1295 1.961 . S
Li1234 N1279 1.990 . S
Li1234 O1292 1.961 . S
Li1234 O1294 1.956 . S
Li1234 O1295 1.970 . S
Li1235 N1285 1.990 . S
Li1235 O1293 1.961 . S
Li1235 O1294 1.970 . S
Li1235 O1295 1.956 . S
C1236 C1238 1.348 . S
C1236 C1239 1.356 . S
C1236 O1292 1.325 . S
N1237 C1240 1.314 . S
N1237 C1241 1.279 . S
C1238 C1236 1.348 . S
C1238 C1240 1.353 . S
C1238 H1296 0.929 . S
C1239 C1236 1.356 . S
C1239 C1241 1.358 . S
C1239 H1297 0.930 . S
C1240 N1237 1.314 . S
C1240 C1238 1.353 . S
C1240 H1298 0.930 . S
C1241 N1237 1.279 . S
C1241 C1239 1.358 . S
C1241 H1299 0.930 . S
C1242 C1245 1.348 . S
C1242 C1246 1.356 . S
C1242 O1293 1.325 . S
C1243 N1244 1.279 . S
C1243 C1246 1.358 . S
C1243 H1300 0.930 . S
N1244 C1243 1.279 . S
N1244 C1247 1.314 . S
C1245 C1242 1.348 . S
C1245 C1247 1.353 . S
C1245 H1301 0.929 . S
C1246 C1242 1.356 . S
C1246 C1243 1.358 . S
C1246 H1302 0.930 . S
C1247 N1244 1.314 . S
C1247 C1245 1.353 . S
C1247 H1303 0.930 . S
C1248 N1249 1.314 . S
C1248 C1253 1.353 . S
C1248 H1254 0.930 . S
N1249 Li1232 1.990 . S
N1249 C1248 1.314 . S
N1249 C1251 1.279 . S
C1250 C1251 1.358 . S
C1250 C1252 1.356 . S
C1250 H1304 0.930 . S
C1251 N1249 1.279 . S
C1251 C1250 1.358 . S
C1251 H1255 0.930 . S
C1252 C1250 1.356 . S
C1252 C1253 1.348 . S
C1253 C1248 1.353 . S
C1253 C1252 1.348 . S
C1253 H1305 0.929 . S
H1254 C1248 0.930 . S
H1255 C1251 0.930 . S
C1256 N1257 1.314 . S
C1256 C1258 1.353 . S
C1256 H1262 0.930 . S
N1257 Li1233 1.990 . S
N1257 C1256 1.314 . S
N1257 C1260 1.279 . S
C1258 C1256 1.353 . S
C1258 C1261 1.348 . S
C1258 H1306 0.929 . S
C1259 C1260 1.358 . S
C1259 C1261 1.356 . S
C1259 H1307 0.930 . S
C1260 N1257 1.279 . S
C1260 C1259 1.358 . S
C1260 H1263 0.930 . S
C1261 C1258 1.348 . S
C1261 C1259 1.356 . S
H1262 C1256 0.930 . S
H1263 C1260 0.930 . S
C1264 C1266 1.348 . S
C1264 C1267 1.356 . S
C1264 O1294 1.325 . S
N1265 C1268 1.314 . S
N1265 C1269 1.279 . S
C1266 C1264 1.348 . S
C1266 C1268 1.353 . S
C1266 H1308 0.929 . S
C1267 C1264 1.356 . S
C1267 C1269 1.358 . S
C1267 H1309 0.930 . S
C1268 N1265 1.314 . S
C1268 C1266 1.353 . S
C1268 H1310 0.930 . S
C1269 N1265 1.279 . S
C1269 C1267 1.358 . S
C1269 H1311 0.930 . S
C1270 C1271 1.348 . S
C1270 C1272 1.356 . S
C1270 O1295 1.325 . S
C1271 C1270 1.348 . S
C1271 C1273 1.353 . S
C1271 H1312 0.929 . S
C1272 C1270 1.356 . S
C1272 C1274 1.358 . S
C1272 H1313 0.930 . S
C1273 C1271 1.353 . S
C1273 N1275 1.314 . S
C1273 H1314 0.930 . S
C1274 C1272 1.358 . S
C1274 N1275 1.279 . S
C1274 H1315 0.930 . S
N1275 C1273 1.314 . S
N1275 C1274 1.279 . S
C1276 C1278 1.353 . S
C1276 N1279 1.314 . S
C1276 H1282 0.930 . S
C1277 N1279 1.279 . S
C1277 C1280 1.358 . S
C1277 H1283 0.930 . S
C1278 C1276 1.353 . S
C1278 C1281 1.348 . S
C1278 H1316 0.929 . S
N1279 Li1234 1.990 . S
N1279 C1276 1.314 . S
N1279 C1277 1.279 . S
C1280 C1277 1.358 . S
C1280 C1281 1.356 . S
C1280 H1317 0.930 . S
C1281 C1278 1.348 . S
C1281 C1280 1.356 . S
H1282 C1276 0.930 . S
H1283 C1277 0.930 . S
C1284 N1285 1.314 . S
C1284 C1286 1.353 . S
C1284 H1290 0.930 . S
N1285 Li1235 1.990 . S
N1285 C1284 1.314 . S
N1285 C1288 1.279 . S
C1286 C1284 1.353 . S
C1286 C1289 1.348 . S
C1286 H1318 0.929 . S
C1287 C1288 1.358 . S
C1287 C1289 1.356 . S
C1287 H1319 0.930 . S
C1288 N1285 1.279 . S
C1288 C1287 1.358 . S
C1288 H1291 0.930 . S
C1289 C1286 1.348 . S
C1289 C1287 1.356 . S
H1290 C1284 0.930 . S
H1291 C1288 0.930 . S
O1292 Li1232 1.956 . S
O1292 Li1233 1.970 . S
O1292 Li1234 1.961 . S
O1292 C1236 1.325 . S
O1293 Li1232 1.970 . S
O1293 Li1233 1.956 . S
O1293 Li1235 1.961 . S
O1293 C1242 1.325 . S
O1294 Li1232 1.961 . S
O1294 Li1234 1.956 . S
O1294 Li1235 1.970 . S
O1294 C1264 1.325 . S
O1295 Li1233 1.961 . S
O1295 Li1234 1.970 . S
O1295 Li1235 1.956 . S
O1295 C1270 1.325 . S
H1296 C1238 0.929 . S
H1297 C1239 0.930 . S
H1298 C1240 0.930 . S
H1299 C1241 0.930 . S
H1300 C1243 0.930 . S
H1301 C1245 0.929 . S
H1302 C1246 0.930 . S
H1303 C1247 0.930 . S
H1304 C1250 0.930 . S
H1305 C1253 0.929 . S
H1306 C1258 0.929 . S
H1307 C1259 0.930 . S
H1308 C1266 0.929 . S
H1309 C1267 0.930 . S
H1310 C1268 0.930 . S
H1311 C1269 0.930 . S
H1312 C1271 0.929 . S
H1313 C1272 0.930 . S
H1314 C1273 0.930 . S
H1315 C1274 0.930 . S
H1316 C1278 0.929 . S
H1317 C1280 0.930 . S
H1318 C1286 0.929 . S
H1319 C1287 0.930 . S
Li1320 N1337 1.990 . S
Li1320 O1380 1.956 . S
Li1320 O1381 1.970 . S
Li1320 O1382 1.961 . S
Li1321 N1345 1.990 . S
Li1321 O1380 1.970 1_545 S
Li1321 O1381 1.956 1_545 S
Li1321 O1383 1.961 . S
Li1322 N1367 1.990 . S
Li1322 O1380 1.961 . S
Li1322 O1382 1.956 . S
Li1322 O1383 1.970 1_565 S
Li1323 N1373 1.990 1_655 S
Li1323 O1381 1.961 . S
Li1323 O1382 1.970 . S
Li1323 O1383 1.956 1_565 S
C1324 C1326 1.348 1_565 S
C1324 C1327 1.356 . S
C1324 O1380 1.325 . S
N1325 C1328 1.314 . S
N1325 C1329 1.279 1_545 S
C1326 C1324 1.348 1_545 S
C1326 C1328 1.353 . S
C1326 H1384 0.929 . S
C1327 C1324 1.356 . S
C1327 C1329 1.358 . S
C1327 H1385 0.930 . S
C1328 N1325 1.314 . S
C1328 C1326 1.353 . S
C1328 H1386 0.930 . S
C1329 N1325 1.279 1_565 S
C1329 C1327 1.358 . S
C1329 H1387 0.930 . S
C1330 C1333 1.348 . S
C1330 C1334 1.356 . S
C1330 O1381 1.325 . S
C1331 N1332 1.279 . S
C1331 C1334 1.358 . S
C1331 H1388 0.930 . S
N1332 C1331 1.279 . S
N1332 C1335 1.314 . S
C1333 C1330 1.348 . S
C1333 C1335 1.353 . S
C1333 H1389 0.929 . S
C1334 C1330 1.356 . S
C1334 C1331 1.358 . S
C1334 H1390 0.930 . S
C1335 N1332 1.314 . S
C1335 C1333 1.353 . S
C1335 H1391 0.930 . S
C1336 N1337 1.314 . S
C1336 C1341 1.353 . S
C1336 H1342 0.930 . S
N1337 Li1320 1.990 . S
N1337 C1336 1.314 . S
N1337 C1339 1.279 . S
C1338 C1339 1.358 . S
C1338 C1340 1.356 . S
C1338 H1392 0.930 . S
C1339 N1337 1.279 . S
C1339 C1338 1.358 . S
C1339 H1343 0.930 . S
C1340 C1338 1.356 . S
C1340 C1341 1.348 . S
C1341 C1336 1.353 . S
C1341 C1340 1.348 . S
C1341 H1393 0.929 . S
H1342 C1336 0.930 . S
H1343 C1339 0.930 . S
C1344 N1345 1.314 . S
C1344 C1346 1.353 . S
C1344 H1350 0.930 . S
N1345 Li1321 1.990 . S
N1345 C1344 1.314 . S
N1345 C1348 1.279 . S
C1346 C1344 1.353 . S
C1346 C1349 1.348 . S
C1346 H1394 0.929 . S
C1347 C1348 1.358 . S
C1347 C1349 1.356 . S
C1347 H1395 0.930 . S
C1348 N1345 1.279 . S
C1348 C1347 1.358 . S
C1348 H1351 0.930 . S
C1349 C1346 1.348 . S
C1349 C1347 1.356 . S
H1350 C1344 0.930 . S
H1351 C1348 0.930 . S
C1352 C1354 1.348 1_655 S
C1352 C1355 1.356 . S
C1352 O1382 1.325 . S
N1353 C1356 1.314 . S
N1353 C1357 1.279 1_455 S
C1354 C1352 1.348 1_455 S
C1354 C1356 1.353 . S
C1354 H1396 0.929 . S
C1355 C1352 1.356 . S
C1355 C1357 1.358 . S
C1355 H1397 0.930 . S
C1356 N1353 1.314 . S
C1356 C1354 1.353 . S
C1356 H1398 0.930 . S
C1357 N1353 1.279 1_655 S
C1357 C1355 1.358 . S
C1357 H1399 0.930 . S
C1358 C1359 1.348 1_655 S
C1358 C1360 1.356 1_655 S
C1358 O1383 1.325 . S
C1359 C1358 1.348 1_455 S
C1359 C1361 1.353 . S
C1359 H1400 0.929 . S
C1360 C1358 1.356 1_455 S
C1360 C1362 1.358 . S
C1360 H1401 0.930 1_455 S
C1361 C1359 1.353 . S
C1361 N1363 1.314 . S
C1361 H1402 0.930 . S
C1362 C1360 1.358 . S
C1362 N1363 1.279 . S
C1362 H1403 0.930 . S
N1363 C1361 1.314 . S
N1363 C1362 1.279 . S
C1364 C1366 1.353 . S
C1364 N1367 1.314 1_545 S
C1364 H1370 0.930 . S
C1365 N1367 1.279 . S
C1365 C1368 1.358 . S
C1365 H1371 0.930 . S
C1366 C1364 1.353 . S
C1366 C1369 1.348 1_545 S
C1366 H1404 0.929 . S
N1367 Li1322 1.990 . S
N1367 C1364 1.314 1_565 S
N1367 C1365 1.279 . S
C1368 C1365 1.358 . S
C1368 C1369 1.356 . S
C1368 H1405 0.930 . S
C1369 C1366 1.348 1_565 S
C1369 C1368 1.356 . S
H1370 C1364 0.930 . S
H1371 C1365 0.930 . S
C1372 N1373 1.314 . S
C1372 C1374 1.353 . S
C1372 H1378 0.930 . S
N1373 Li1323 1.990 1_455 S
N1373 C1372 1.314 . S
N1373 C1376 1.279 . S
C1374 C1372 1.353 . S
C1374 C1377 1.348 . S
C1374 H1406 0.929 . S
C1375 C1376 1.358 . S
C1375 C1377 1.356 . S
C1375 H1407 0.930 . S
C1376 N1373 1.279 . S
C1376 C1375 1.358 . S
C1376 H1379 0.930 . S
C1377 C1374 1.348 . S
C1377 C1375 1.356 . S
H1378 C1372 0.930 . S
H1379 C1376 0.930 . S
O1380 Li1320 1.956 . S
O1380 Li1321 1.970 1_565 S
O1380 Li1322 1.961 . S
O1380 C1324 1.325 . S
O1381 Li1320 1.970 . S
O1381 Li1321 1.956 1_565 S
O1381 Li1323 1.961 . S
O1381 C1330 1.325 . S
O1382 Li1320 1.961 . S
O1382 Li1322 1.956 . S
O1382 Li1323 1.970 . S
O1382 C1352 1.325 . S
O1383 Li1321 1.961 . S
O1383 Li1322 1.970 1_545 S
O1383 Li1323 1.956 1_545 S
O1383 C1358 1.325 . S
H1384 C1326 0.929 . S
H1385 C1327 0.930 . S
H1386 C1328 0.930 . S
H1387 C1329 0.930 . S
H1388 C1331 0.930 . S
H1389 C1333 0.929 . S
H1390 C1334 0.930 . S
H1391 C1335 0.930 . S
H1392 C1338 0.930 . S
H1393 C1341 0.929 . S
H1394 C1346 0.929 . S
H1395 C1347 0.930 . S
H1396 C1354 0.929 . S
H1397 C1355 0.930 . S
H1398 C1356 0.930 . S
H1399 C1357 0.930 . S
H1400 C1359 0.929 . S
H1401 C1360 0.930 1_655 S
H1402 C1361 0.930 . S
H1403 C1362 0.930 . S
H1404 C1366 0.929 . S
H1405 C1368 0.930 . S
H1406 C1374 0.929 . S
H1407 C1375 0.930 . S
Li1408 N1425 1.990 . S
Li1408 O1468 1.956 . S
Li1408 O1469 1.970 . S
Li1408 O1470 1.961 . S
Li1409 N1433 1.990 . S
Li1409 O1468 1.970 . S
Li1409 O1469 1.956 . S
Li1409 O1471 1.961 . S
Li1410 N1455 1.990 . S
Li1410 O1468 1.961 . S
Li1410 O1470 1.956 . S
Li1410 O1471 1.970 . S
Li1411 N1461 1.990 . S
Li1411 O1469 1.961 . S
Li1411 O1470 1.970 . S
Li1411 O1471 1.956 . S
C1412 C1414 1.348 . S
C1412 C1415 1.356 . S
C1412 O1468 1.325 . S
N1413 C1416 1.314 . S
N1413 C1417 1.279 . S
C1414 C1412 1.348 . S
C1414 C1416 1.353 . S
C1414 H1472 0.929 . S
C1415 C1412 1.356 . S
C1415 C1417 1.358 . S
C1415 H1473 0.930 . S
C1416 N1413 1.314 . S
C1416 C1414 1.353 . S
C1416 H1474 0.930 . S
C1417 N1413 1.279 . S
C1417 C1415 1.358 . S
C1417 H1475 0.930 . S
C1418 C1421 1.348 . S
C1418 C1422 1.356 . S
C1418 O1469 1.325 . S
C1419 N1420 1.279 . S
C1419 C1422 1.358 . S
C1419 H1476 0.930 . S
N1420 C1419 1.279 . S
N1420 C1423 1.314 . S
C1421 C1418 1.348 . S
C1421 C1423 1.353 . S
C1421 H1477 0.929 . S
C1422 C1418 1.356 . S
C1422 C1419 1.358 . S
C1422 H1478 0.930 . S
C1423 N1420 1.314 . S
C1423 C1421 1.353 . S
C1423 H1479 0.930 . S
C1424 N1425 1.314 . S
C1424 C1429 1.353 . S
C1424 H1430 0.930 . S
N1425 Li1408 1.990 . S
N1425 C1424 1.314 . S
N1425 C1427 1.279 . S
C1426 C1427 1.358 . S
C1426 C1428 1.356 . S
C1426 H1480 0.930 . S
C1427 N1425 1.279 . S
C1427 C1426 1.358 . S
C1427 H1431 0.930 . S
C1428 C1426 1.356 . S
C1428 C1429 1.348 . S
C1429 C1424 1.353 . S
C1429 C1428 1.348 . S
C1429 H1481 0.929 . S
H1430 C1424 0.930 . S
H1431 C1427 0.930 . S
C1432 N1433 1.314 . S
C1432 C1434 1.353 . S
C1432 H1438 0.930 . S
N1433 Li1409 1.990 . S
N1433 C1432 1.314 . S
N1433 C1436 1.279 . S
C1434 C1432 1.353 . S
C1434 C1437 1.348 . S
C1434 H1482 0.929 . S
C1435 C1436 1.358 . S
C1435 C1437 1.356 . S
C1435 H1483 0.930 . S
C1436 N1433 1.279 . S
C1436 C1435 1.358 . S
C1436 H1439 0.930 . S
C1437 C1434 1.348 . S
C1437 C1435 1.356 . S
H1438 C1432 0.930 . S
H1439 C1436 0.930 . S
C1440 C1442 1.348 . S
C1440 C1443 1.356 . S
C1440 O1470 1.325 . S
N1441 C1444 1.314 . S
N1441 C1445 1.279 . S
C1442 C1440 1.348 . S
C1442 C1444 1.353 . S
C1442 H1484 0.929 . S
C1443 C1440 1.356 . S
C1443 C1445 1.358 . S
C1443 H1485 0.930 . S
C1444 N1441 1.314 . S
C1444 C1442 1.353 . S
C1444 H1486 0.930 . S
C1445 N1441 1.279 . S
C1445 C1443 1.358 . S
C1445 H1487 0.930 . S
C1446 C1447 1.348 . S
C1446 C1448 1.356 . S
C1446 O1471 1.325 . S
C1447 C1446 1.348 . S
C1447 C1449 1.353 . S
C1447 H1488 0.929 . S
C1448 C1446 1.356 . S
C1448 C1450 1.358 . S
C1448 H1489 0.930 . S
C1449 C1447 1.353 . S
C1449 N1451 1.314 . S
C1449 H1490 0.930 . S
C1450 C1448 1.358 . S
C1450 N1451 1.279 . S
C1450 H1491 0.930 . S
N1451 C1449 1.314 . S
N1451 C1450 1.279 . S
C1452 C1454 1.353 . S
C1452 N1455 1.314 . S
C1452 H1458 0.930 . S
C1453 N1455 1.279 . S
C1453 C1456 1.358 . S
C1453 H1459 0.930 . S
C1454 C1452 1.353 . S
C1454 C1457 1.348 . S
C1454 H1492 0.929 . S
N1455 Li1410 1.990 . S
N1455 C1452 1.314 . S
N1455 C1453 1.279 . S
C1456 C1453 1.358 . S
C1456 C1457 1.356 . S
C1456 H1493 0.930 . S
C1457 C1454 1.348 . S
C1457 C1456 1.356 . S
H1458 C1452 0.930 . S
H1459 C1453 0.930 . S
C1460 N1461 1.314 . S
C1460 C1462 1.353 . S
C1460 H1466 0.930 . S
N1461 Li1411 1.990 . S
N1461 C1460 1.314 . S
N1461 C1464 1.279 . S
C1462 C1460 1.353 . S
C1462 C1465 1.348 . S
C1462 H1494 0.929 . S
C1463 C1464 1.358 . S
C1463 C1465 1.356 . S
C1463 H1495 0.930 . S
C1464 N1461 1.279 . S
C1464 C1463 1.358 . S
C1464 H1467 0.930 . S
C1465 C1462 1.348 . S
C1465 C1463 1.356 . S
H1466 C1460 0.930 . S
H1467 C1464 0.930 . S
O1468 Li1408 1.956 . S
O1468 Li1409 1.970 . S
O1468 Li1410 1.961 . S
O1468 C1412 1.325 . S
O1469 Li1408 1.970 . S
O1469 Li1409 1.956 . S
O1469 Li1411 1.961 . S
O1469 C1418 1.325 . S
O1470 Li1408 1.961 . S
O1470 Li1410 1.956 . S
O1470 Li1411 1.970 . S
O1470 C1440 1.325 . S
O1471 Li1409 1.961 . S
O1471 Li1410 1.970 . S
O1471 Li1411 1.956 . S
O1471 C1446 1.325 . S
H1472 C1414 0.929 . S
H1473 C1415 0.930 . S
H1474 C1416 0.930 . S
H1475 C1417 0.930 . S
H1476 C1419 0.930 . S
H1477 C1421 0.929 . S
H1478 C1422 0.930 . S
H1479 C1423 0.930 . S
H1480 C1426 0.930 . S
H1481 C1429 0.929 . S
H1482 C1434 0.929 . S
H1483 C1435 0.930 . S
H1484 C1442 0.929 . S
H1485 C1443 0.930 . S
H1486 C1444 0.930 . S
H1487 C1445 0.930 . S
H1488 C1447 0.929 . S
H1489 C1448 0.930 . S
H1490 C1449 0.930 . S
H1491 C1450 0.930 . S
H1492 C1454 0.929 . S
H1493 C1456 0.930 . S
H1494 C1462 0.929 . S
H1495 C1463 0.930 . S
Li1496 N1513 1.990 . S
Li1496 O1556 1.956 . S
Li1496 O1557 1.970 . S
Li1496 O1558 1.961 . S
Li1497 N1521 1.990 . S
Li1497 O1556 1.970 . S
Li1497 O1557 1.956 . S
Li1497 O1559 1.961 . S
Li1498 N1543 1.990 . S
Li1498 O1556 1.961 . S
Li1498 O1558 1.956 . S
Li1498 O1559 1.970 . S
Li1499 N1549 1.990 . S
Li1499 O1557 1.961 . S
Li1499 O1558 1.970 . S
Li1499 O1559 1.956 . S
C1500 C1502 1.348 . S
C1500 C1503 1.356 . S
C1500 O1556 1.325 . S
N1501 C1504 1.314 . S
N1501 C1505 1.279 . S
C1502 C1500 1.348 . S
C1502 C1504 1.353 . S
C1502 H1560 0.929 . S
C1503 C1500 1.356 . S
C1503 C1505 1.358 . S
C1503 H1561 0.930 . S
C1504 N1501 1.314 . S
C1504 C1502 1.353 . S
C1504 H1562 0.930 . S
C1505 N1501 1.279 . S
C1505 C1503 1.358 . S
C1505 H1563 0.930 . S
C1506 C1509 1.348 . S
C1506 C1510 1.356 . S
C1506 O1557 1.325 . S
C1507 N1508 1.279 . S
C1507 C1510 1.358 . S
C1507 H1564 0.930 . S
N1508 C1507 1.279 . S
N1508 C1511 1.314 . S
C1509 C1506 1.348 . S
C1509 C1511 1.353 . S
C1509 H1565 0.929 . S
C1510 C1506 1.356 . S
C1510 C1507 1.358 . S
C1510 H1566 0.930 . S
C1511 N1508 1.314 . S
C1511 C1509 1.353 . S
C1511 H1567 0.930 . S
C1512 N1513 1.314 . S
C1512 C1517 1.353 . S
C1512 H1518 0.930 . S
N1513 Li1496 1.990 . S
N1513 C1512 1.314 . S
N1513 C1515 1.279 . S
C1514 C1515 1.358 . S
C1514 C1516 1.356 . S
C1514 H1568 0.930 . S
C1515 N1513 1.279 . S
C1515 C1514 1.358 . S
C1515 H1519 0.930 . S
C1516 C1514 1.356 . S
C1516 C1517 1.348 . S
C1517 C1512 1.353 . S
C1517 C1516 1.348 . S
C1517 H1569 0.929 . S
H1518 C1512 0.930 . S
H1519 C1515 0.930 . S
C1520 N1521 1.314 . S
C1520 C1522 1.353 . S
C1520 H1526 0.930 . S
N1521 Li1497 1.990 . S
N1521 C1520 1.314 . S
N1521 C1524 1.279 . S
C1522 C1520 1.353 . S
C1522 C1525 1.348 . S
C1522 H1570 0.929 . S
C1523 C1524 1.358 . S
C1523 C1525 1.356 . S
C1523 H1571 0.930 . S
C1524 N1521 1.279 . S
C1524 C1523 1.358 . S
C1524 H1527 0.930 . S
C1525 C1522 1.348 . S
C1525 C1523 1.356 . S
H1526 C1520 0.930 . S
H1527 C1524 0.930 . S
C1528 C1530 1.348 . S
C1528 C1531 1.356 . S
C1528 O1558 1.325 . S
N1529 C1532 1.314 . S
N1529 C1533 1.279 . S
C1530 C1528 1.348 . S
C1530 C1532 1.353 . S
C1530 H1572 0.929 . S
C1531 C1528 1.356 . S
C1531 C1533 1.358 . S
C1531 H1573 0.930 . S
C1532 N1529 1.314 . S
C1532 C1530 1.353 . S
C1532 H1574 0.930 . S
C1533 N1529 1.279 . S
C1533 C1531 1.358 . S
C1533 H1575 0.930 . S
C1534 C1535 1.348 . S
C1534 C1536 1.356 . S
C1534 O1559 1.325 . S
C1535 C1534 1.348 . S
C1535 C1537 1.353 . S
C1535 H1576 0.929 . S
C1536 C1534 1.356 . S
C1536 C1538 1.358 . S
C1536 H1577 0.930 . S
C1537 C1535 1.353 . S
C1537 N1539 1.314 . S
C1537 H1578 0.930 . S
C1538 C1536 1.358 . S
C1538 N1539 1.279 . S
C1538 H1579 0.930 . S
N1539 C1537 1.314 . S
N1539 C1538 1.279 . S
C1540 C1542 1.353 . S
C1540 N1543 1.314 . S
C1540 H1546 0.930 . S
C1541 N1543 1.279 . S
C1541 C1544 1.358 . S
C1541 H1547 0.930 . S
C1542 C1540 1.353 . S
C1542 C1545 1.348 . S
C1542 H1580 0.929 . S
N1543 Li1498 1.990 . S
N1543 C1540 1.314 . S
N1543 C1541 1.279 . S
C1544 C1541 1.358 . S
C1544 C1545 1.356 . S
C1544 H1581 0.930 . S
C1545 C1542 1.348 . S
C1545 C1544 1.356 . S
H1546 C1540 0.930 . S
H1547 C1541 0.930 . S
C1548 N1549 1.314 . S
C1548 C1550 1.353 . S
C1548 H1554 0.930 . S
N1549 Li1499 1.990 . S
N1549 C1548 1.314 . S
N1549 C1552 1.279 . S
C1550 C1548 1.353 . S
C1550 C1553 1.348 . S
C1550 H1582 0.929 . S
C1551 C1552 1.358 . S
C1551 C1553 1.356 . S
C1551 H1583 0.930 . S
C1552 N1549 1.279 . S
C1552 C1551 1.358 . S
C1552 H1555 0.930 . S
C1553 C1550 1.348 . S
C1553 C1551 1.356 . S
H1554 C1548 0.930 . S
H1555 C1552 0.930 . S
O1556 Li1496 1.956 . S
O1556 Li1497 1.970 . S
O1556 Li1498 1.961 . S
O1556 C1500 1.325 . S
O1557 Li1496 1.970 . S
O1557 Li1497 1.956 . S
O1557 Li1499 1.961 . S
O1557 C1506 1.325 . S
O1558 Li1496 1.961 . S
O1558 Li1498 1.956 . S
O1558 Li1499 1.970 . S
O1558 C1528 1.325 . S
O1559 Li1497 1.961 . S
O1559 Li1498 1.970 . S
O1559 Li1499 1.956 . S
O1559 C1534 1.325 . S
H1560 C1502 0.929 . S
H1561 C1503 0.930 . S
H1562 C1504 0.930 . S
H1563 C1505 0.930 . S
H1564 C1507 0.930 . S
H1565 C1509 0.929 . S
H1566 C1510 0.930 . S
H1567 C1511 0.930 . S
H1568 C1514 0.930 . S
H1569 C1517 0.929 . S
H1570 C1522 0.929 . S
H1571 C1523 0.930 . S
H1572 C1530 0.929 . S
H1573 C1531 0.930 . S
H1574 C1532 0.930 . S
H1575 C1533 0.930 . S
H1576 C1535 0.929 . S
H1577 C1536 0.930 . S
H1578 C1537 0.930 . S
H1579 C1538 0.930 . S
H1580 C1542 0.929 . S
H1581 C1544 0.930 . S
H1582 C1550 0.929 . S
H1583 C1551 0.930 . S
Li1584 N1601 1.990 . S
Li1584 O1644 1.956 . S
Li1584 O1645 1.970 . S
Li1584 O1646 1.961 . S
Li1585 N1609 1.990 . S
Li1585 O1644 1.970 . S
Li1585 O1645 1.956 . S
Li1585 O1647 1.961 . S
Li1586 N1631 1.990 . S
Li1586 O1644 1.961 . S
Li1586 O1646 1.956 . S
Li1586 O1647 1.970 . S
Li1587 N1637 1.990 . S
Li1587 O1645 1.961 . S
Li1587 O1646 1.970 . S
Li1587 O1647 1.956 . S
C1588 C1590 1.348 . S
C1588 C1591 1.356 . S
C1588 O1644 1.325 . S
N1589 C1592 1.314 . S
N1589 C1593 1.279 . S
C1590 C1588 1.348 . S
C1590 C1592 1.353 . S
C1590 H1648 0.929 . S
C1591 C1588 1.356 . S
C1591 C1593 1.358 . S
C1591 H1649 0.930 . S
C1592 N1589 1.314 . S
C1592 C1590 1.353 . S
C1592 H1650 0.930 . S
C1593 N1589 1.279 . S
C1593 C1591 1.358 . S
C1593 H1651 0.930 . S
C1594 C1597 1.348 . S
C1594 C1598 1.356 . S
C1594 O1645 1.325 . S
C1595 N1596 1.279 . S
C1595 C1598 1.358 . S
C1595 H1652 0.930 . S
N1596 C1595 1.279 . S
N1596 C1599 1.314 . S
C1597 C1594 1.348 . S
C1597 C1599 1.353 . S
C1597 H1653 0.929 . S
C1598 C1594 1.356 . S
C1598 C1595 1.358 . S
C1598 H1654 0.930 . S
C1599 N1596 1.314 . S
C1599 C1597 1.353 . S
C1599 H1655 0.930 . S
C1600 N1601 1.314 . S
C1600 C1605 1.353 . S
C1600 H1606 0.930 . S
N1601 Li1584 1.990 . S
N1601 C1600 1.314 . S
N1601 C1603 1.279 . S
C1602 C1603 1.358 . S
C1602 C1604 1.356 . S
C1602 H1656 0.930 . S
C1603 N1601 1.279 . S
C1603 C1602 1.358 . S
C1603 H1607 0.930 . S
C1604 C1602 1.356 . S
C1604 C1605 1.348 . S
C1605 C1600 1.353 . S
C1605 C1604 1.348 . S
C1605 H1657 0.929 . S
H1606 C1600 0.930 . S
H1607 C1603 0.930 . S
C1608 N1609 1.314 . S
C1608 C1610 1.353 . S
C1608 H1614 0.930 . S
N1609 Li1585 1.990 . S
N1609 C1608 1.314 . S
N1609 C1612 1.279 . S
C1610 C1608 1.353 . S
C1610 C1613 1.348 . S
C1610 H1658 0.929 . S
C1611 C1612 1.358 . S
C1611 C1613 1.356 . S
C1611 H1659 0.930 . S
C1612 N1609 1.279 . S
C1612 C1611 1.358 . S
C1612 H1615 0.930 . S
C1613 C1610 1.348 . S
C1613 C1611 1.356 . S
H1614 C1608 0.930 . S
H1615 C1612 0.930 . S
C1616 C1618 1.348 . S
C1616 C1619 1.356 . S
C1616 O1646 1.325 . S
N1617 C1620 1.314 . S
N1617 C1621 1.279 . S
C1618 C1616 1.348 . S
C1618 C1620 1.353 . S
C1618 H1660 0.929 . S
C1619 C1616 1.356 . S
C1619 C1621 1.358 . S
C1619 H1661 0.930 . S
C1620 N1617 1.314 . S
C1620 C1618 1.353 . S
C1620 H1662 0.930 . S
C1621 N1617 1.279 . S
C1621 C1619 1.358 . S
C1621 H1663 0.930 . S
C1622 C1623 1.348 . S
C1622 C1624 1.356 . S
C1622 O1647 1.325 . S
C1623 C1622 1.348 . S
C1623 C1625 1.353 . S
C1623 H1664 0.929 . S
C1624 C1622 1.356 . S
C1624 C1626 1.358 . S
C1624 H1665 0.930 . S
C1625 C1623 1.353 . S
C1625 N1627 1.314 . S
C1625 H1666 0.930 . S
C1626 C1624 1.358 . S
C1626 N1627 1.279 . S
C1626 H1667 0.930 . S
N1627 C1625 1.314 . S
N1627 C1626 1.279 . S
C1628 C1630 1.353 . S
C1628 N1631 1.314 . S
C1628 H1634 0.930 . S
C1629 N1631 1.279 . S
C1629 C1632 1.358 . S
C1629 H1635 0.930 . S
C1630 C1628 1.353 . S
C1630 C1633 1.348 . S
C1630 H1668 0.929 . S
N1631 Li1586 1.990 . S
N1631 C1628 1.314 . S
N1631 C1629 1.279 . S
C1632 C1629 1.358 . S
C1632 C1633 1.356 . S
C1632 H1669 0.930 . S
C1633 C1630 1.348 . S
C1633 C1632 1.356 . S
H1634 C1628 0.930 . S
H1635 C1629 0.930 . S
C1636 N1637 1.314 . S
C1636 C1638 1.353 . S
C1636 H1642 0.930 . S
N1637 Li1587 1.990 . S
N1637 C1636 1.314 . S
N1637 C1640 1.279 . S
C1638 C1636 1.353 . S
C1638 C1641 1.348 . S
C1638 H1670 0.929 . S
C1639 C1640 1.358 . S
C1639 C1641 1.356 . S
C1639 H1671 0.930 . S
C1640 N1637 1.279 . S
C1640 C1639 1.358 . S
C1640 H1643 0.930 . S
C1641 C1638 1.348 . S
C1641 C1639 1.356 . S
H1642 C1636 0.930 . S
H1643 C1640 0.930 . S
O1644 Li1584 1.956 . S
O1644 Li1585 1.970 . S
O1644 Li1586 1.961 . S
O1644 C1588 1.325 . S
O1645 Li1584 1.970 . S
O1645 Li1585 1.956 . S
O1645 Li1587 1.961 . S
O1645 C1594 1.325 . S
O1646 Li1584 1.961 . S
O1646 Li1586 1.956 . S
O1646 Li1587 1.970 . S
O1646 C1616 1.325 . S
O1647 Li1585 1.961 . S
O1647 Li1586 1.970 . S
O1647 Li1587 1.956 . S
O1647 C1622 1.325 . S
H1648 C1590 0.929 . S
H1649 C1591 0.930 . S
H1650 C1592 0.930 . S
H1651 C1593 0.930 . S
H1652 C1595 0.930 . S
H1653 C1597 0.929 . S
H1654 C1598 0.930 . S
H1655 C1599 0.930 . S
H1656 C1602 0.930 . S
H1657 C1605 0.929 . S
H1658 C1610 0.929 . S
H1659 C1611 0.930 . S
H1660 C1618 0.929 . S
H1661 C1619 0.930 . S
H1662 C1620 0.930 . S
H1663 C1621 0.930 . S
H1664 C1623 0.929 . S
H1665 C1624 0.930 . S
H1666 C1625 0.930 . S
H1667 C1626 0.930 . S
H1668 C1630 0.929 . S
H1669 C1632 0.930 . S
H1670 C1638 0.929 . S
H1671 C1639 0.930 . S
Li1672 N1689 1.990 . S
Li1672 O1732 1.956 . S
Li1672 O1733 1.970 . S
Li1672 O1734 1.961 . S
Li1673 N1697 1.990 1_655 S
Li1673 O1732 1.970 . S
Li1673 O1733 1.956 . S
Li1673 O1735 1.961 . S
Li1674 N1719 1.990 . S
Li1674 O1732 1.961 . S
Li1674 O1734 1.956 . S
Li1674 O1735 1.970 . S
Li1675 N1725 1.990 . S
Li1675 O1733 1.961 . S
Li1675 O1734 1.970 . S
Li1675 O1735 1.956 . S
C1676 C1678 1.348 1_655 S
C1676 C1679 1.356 . S
C1676 O1732 1.325 . S
N1677 C1680 1.314 . S
N1677 C1681 1.279 1_455 S
C1678 C1676 1.348 1_455 S
C1678 C1680 1.353 . S
C1678 H1736 0.929 . S
C1679 C1676 1.356 . S
C1679 C1681 1.358 . S
C1679 H1737 0.930 . S
C1680 N1677 1.314 . S
C1680 C1678 1.353 . S
C1680 H1738 0.930 . S
C1681 N1677 1.279 1_655 S
C1681 C1679 1.358 . S
C1681 H1739 0.930 . S
C1682 C1685 1.348 . S
C1682 C1686 1.356 . S
C1682 O1733 1.325 . S
C1683 N1684 1.279 . S
C1683 C1686 1.358 . S
C1683 H1740 0.930 . S
N1684 C1683 1.279 . S
N1684 C1687 1.314 . S
C1685 C1682 1.348 . S
C1685 C1687 1.353 . S
C1685 H1741 0.929 . S
C1686 C1682 1.356 . S
C1686 C1683 1.358 . S
C1686 H1742 0.930 . S
C1687 N1684 1.314 . S
C1687 C1685 1.353 . S
C1687 H1743 0.930 . S
C1688 N1689 1.314 . S
C1688 C1693 1.353 . S
C1688 H1694 0.930 . S
N1689 Li1672 1.990 . S
N1689 C1688 1.314 . S
N1689 C1691 1.279 . S
C1690 C1691 1.358 . S
C1690 C1692 1.356 . S
C1690 H1744 0.930 . S
C1691 N1689 1.279 . S
C1691 C1690 1.358 . S
C1691 H1695 0.930 . S
C1692 C1690 1.356 . S
C1692 C1693 1.348 . S
C1693 C1688 1.353 . S
C1693 C1692 1.348 . S
C1693 H1745 0.929 . S
H1694 C1688 0.930 . S
H1695 C1691 0.930 . S
C1696 N1697 1.314 . S
C1696 C1698 1.353 . S
C1696 H1702 0.930 . S
N1697 Li1673 1.990 1_455 S
N1697 C1696 1.314 . S
N1697 C1700 1.279 . S
C1698 C1696 1.353 . S
C1698 C1701 1.348 . S
C1698 H1746 0.929 . S
C1699 C1700 1.358 . S
C1699 C1701 1.356 . S
C1699 H1747 0.930 . S
C1700 N1697 1.279 . S
C1700 C1699 1.358 . S
C1700 H1703 0.930 . S
C1701 C1698 1.348 . S
C1701 C1699 1.356 . S
H1702 C1696 0.930 . S
H1703 C1700 0.930 . S
C1704 C1706 1.348 . S
C1704 C1707 1.356 . S
C1704 O1734 1.325 . S
N1705 C1708 1.314 . S
N1705 C1709 1.279 . S
C1706 C1704 1.348 . S
C1706 C1708 1.353 . S
C1706 H1748 0.929 . S
C1707 C1704 1.356 . S
C1707 C1709 1.358 . S
C1707 H1749 0.930 . S
C1708 N1705 1.314 . S
C1708 C1706 1.353 . S
C1708 H1750 0.930 . S
C1709 N1705 1.279 . S
C1709 C1707 1.358 . S
C1709 H1751 0.930 . S
C1710 C1711 1.349 . S
C1710 C1712 1.356 1_655 S
C1710 O1735 1.325 . S
C1711 C1710 1.349 . S
C1711 C1713 1.341 1_655 S
C1711 H1752 0.941 . S
C1712 C1710 1.356 1_455 S
C1712 C1714 1.358 . S
C1712 H1753 0.930 . S
C1713 C1711 1.341 1_455 S
C1713 N1715 1.314 . S
C1713 H1754 0.930 . S
C1714 C1712 1.358 . S
C1714 N1715 1.279 . S
C1714 H1755 0.930 . S
N1715 C1713 1.314 . S
N1715 C1714 1.279 . S
C1716 C1718 1.353 . S
C1716 N1719 1.314 . S
C1716 H1722 0.930 1_655 S
C1717 N1719 1.279 . S
C1717 C1720 1.358 . S
C1717 H1723 0.930 . S
C1718 C1716 1.353 . S
C1718 C1721 1.348 . S
C1718 H1756 0.929 1_655 S
N1719 Li1674 1.990 . S
N1719 C1716 1.314 . S
N1719 C1717 1.279 . S
C1720 C1717 1.358 . S
C1720 C1721 1.356 . S
C1720 H1757 0.930 . S
C1721 C1718 1.348 . S
C1721 C1720 1.356 . S
H1722 C1716 0.930 1_455 S
H1723 C1717 0.930 . S
C1724 N1725 1.314 . S
C1724 C1726 1.353 . S
C1724 H1730 0.930 . S
N1725 Li1675 1.990 . S
N1725 C1724 1.314 . S
N1725 C1728 1.279 . S
C1726 C1724 1.353 . S
C1726 C1729 1.348 . S
C1726 H1758 0.929 . S
C1727 C1728 1.358 . S
C1727 C1729 1.356 . S
C1727 H1759 0.930 . S
C1728 N1725 1.279 . S
C1728 C1727 1.358 . S
C1728 H1731 0.930 . S
C1729 C1726 1.348 . S
C1729 C1727 1.356 . S
H1730 C1724 0.930 . S
H1731 C1728 0.930 . S
O1732 Li1672 1.956 . S
O1732 Li1673 1.970 . S
O1732 Li1674 1.961 . S
O1732 C1676 1.325 . S
O1733 Li1672 1.970 . S
O1733 Li1673 1.956 . S
O1733 Li1675 1.961 . S
O1733 C1682 1.325 . S
O1734 Li1672 1.961 . S
O1734 Li1674 1.956 . S
O1734 Li1675 1.970 . S
O1734 C1704 1.325 . S
O1735 Li1673 1.961 . S
O1735 Li1674 1.970 . S
O1735 Li1675 1.956 . S
O1735 C1710 1.325 . S
H1736 C1678 0.929 . S
H1737 C1679 0.930 . S
H1738 C1680 0.930 . S
H1739 C1681 0.930 . S
H1740 C1683 0.930 . S
H1741 C1685 0.929 . S
H1742 C1686 0.930 . S
H1743 C1687 0.930 . S
H1744 C1690 0.930 . S
H1745 C1693 0.929 . S
H1746 C1698 0.929 . S
H1747 C1699 0.930 . S
H1748 C1706 0.929 . S
H1749 C1707 0.930 . S
H1750 C1708 0.930 . S
H1751 C1709 0.930 . S
H1752 C1711 0.941 . S
H1753 C1712 0.930 . S
H1754 C1713 0.930 . S
H1755 C1714 0.930 . S
H1756 C1718 0.929 1_455 S
H1757 C1720 0.930 . S
H1758 C1726 0.929 . S
H1759 C1727 0.930 . S
Li1760 N1777 1.990 . S
Li1760 O1820 1.956 . S
Li1760 O1821 1.970 . S
Li1760 O1822 1.961 . S
Li1761 N1785 1.990 . S
Li1761 O1820 1.970 . S
Li1761 O1821 1.956 . S
Li1761 O1823 1.961 . S
Li1762 N1807 1.990 . S
Li1762 O1820 1.961 . S
Li1762 O1822 1.956 . S
Li1762 O1823 1.970 . S
Li1763 N1813 1.990 . S
Li1763 O1821 1.961 . S
Li1763 O1822 1.970 . S
Li1763 O1823 1.956 . S
C1764 C1766 1.348 . S
C1764 C1767 1.356 . S
C1764 O1820 1.325 . S
N1765 C1768 1.314 . S
N1765 C1769 1.279 . S
C1766 C1764 1.348 . S
C1766 C1768 1.353 . S
C1766 H1824 0.929 . S
C1767 C1764 1.356 . S
C1767 C1769 1.358 . S
C1767 H1825 0.930 . S
C1768 N1765 1.314 . S
C1768 C1766 1.353 . S
C1768 H1826 0.930 . S
C1769 N1765 1.279 . S
C1769 C1767 1.358 . S
C1769 H1827 0.930 . S
C1770 C1773 1.348 . S
C1770 C1774 1.356 . S
C1770 O1821 1.325 . S
C1771 N1772 1.279 . S
C1771 C1774 1.358 . S
C1771 H1828 0.930 . S
N1772 C1771 1.279 . S
N1772 C1775 1.314 . S
C1773 C1770 1.348 . S
C1773 C1775 1.353 . S
C1773 H1829 0.929 . S
C1774 C1770 1.356 . S
C1774 C1771 1.358 . S
C1774 H1830 0.930 . S
C1775 N1772 1.314 . S
C1775 C1773 1.353 . S
C1775 H1831 0.930 . S
C1776 N1777 1.314 . S
C1776 C1781 1.353 . S
C1776 H1782 0.930 . S
N1777 Li1760 1.990 . S
N1777 C1776 1.314 . S
N1777 C1779 1.279 . S
C1778 C1779 1.358 . S
C1778 C1780 1.356 . S
C1778 H1832 0.930 . S
C1779 N1777 1.279 . S
C1779 C1778 1.358 . S
C1779 H1783 0.930 . S
C1780 C1778 1.356 . S
C1780 C1781 1.348 . S
C1781 C1776 1.353 . S
C1781 C1780 1.348 . S
C1781 H1833 0.929 . S
H1782 C1776 0.930 . S
H1783 C1779 0.930 . S
C1784 N1785 1.314 . S
C1784 C1786 1.353 . S
C1784 H1790 0.930 . S
N1785 Li1761 1.990 . S
N1785 C1784 1.314 . S
N1785 C1788 1.279 . S
C1786 C1784 1.353 . S
C1786 C1789 1.348 . S
C1786 H1834 0.929 . S
C1787 C1788 1.358 . S
C1787 C1789 1.356 . S
C1787 H1835 0.930 . S
C1788 N1785 1.279 . S
C1788 C1787 1.358 . S
C1788 H1791 0.930 . S
C1789 C1786 1.348 . S
C1789 C1787 1.356 . S
H1790 C1784 0.930 . S
H1791 C1788 0.930 . S
C1792 C1794 1.348 . S
C1792 C1795 1.356 . S
C1792 O1822 1.325 . S
N1793 C1796 1.314 . S
N1793 C1797 1.279 . S
C1794 C1792 1.348 . S
C1794 C1796 1.353 . S
C1794 H1836 0.929 . S
C1795 C1792 1.356 . S
C1795 C1797 1.358 . S
C1795 H1837 0.930 . S
C1796 N1793 1.314 . S
C1796 C1794 1.353 . S
C1796 H1838 0.930 . S
C1797 N1793 1.279 . S
C1797 C1795 1.358 . S
C1797 H1839 0.930 . S
C1798 C1799 1.348 . S
C1798 C1800 1.356 . S
C1798 O1823 1.325 . S
C1799 C1798 1.348 . S
C1799 C1801 1.353 . S
C1799 H1840 0.929 . S
C1800 C1798 1.356 . S
C1800 C1802 1.358 . S
C1800 H1841 0.930 . S
C1801 C1799 1.353 . S
C1801 N1803 1.314 . S
C1801 H1842 0.930 . S
C1802 C1800 1.358 . S
C1802 N1803 1.279 . S
C1802 H1843 0.930 . S
N1803 C1801 1.314 . S
N1803 C1802 1.279 . S
C1804 C1806 1.353 . S
C1804 N1807 1.314 . S
C1804 H1810 0.930 . S
C1805 N1807 1.279 . S
C1805 C1808 1.358 . S
C1805 H1811 0.930 . S
C1806 C1804 1.353 . S
C1806 C1809 1.348 . S
C1806 H1844 0.929 . S
N1807 Li1762 1.990 . S
N1807 C1804 1.314 . S
N1807 C1805 1.279 . S
C1808 C1805 1.358 . S
C1808 C1809 1.356 . S
C1808 H1845 0.930 . S
C1809 C1806 1.348 . S
C1809 C1808 1.356 . S
H1810 C1804 0.930 . S
H1811 C1805 0.930 . S
C1812 N1813 1.314 . S
C1812 C1814 1.353 . S
C1812 H1818 0.930 . S
N1813 Li1763 1.990 . S
N1813 C1812 1.314 . S
N1813 C1816 1.279 . S
C1814 C1812 1.353 . S
C1814 C1817 1.348 . S
C1814 H1846 0.929 . S
C1815 C1816 1.358 . S
C1815 C1817 1.356 . S
C1815 H1847 0.930 . S
C1816 N1813 1.279 . S
C1816 C1815 1.358 . S
C1816 H1819 0.930 . S
C1817 C1814 1.348 . S
C1817 C1815 1.356 . S
H1818 C1812 0.930 . S
H1819 C1816 0.930 . S
O1820 Li1760 1.956 . S
O1820 Li1761 1.970 . S
O1820 Li1762 1.961 . S
O1820 C1764 1.325 . S
O1821 Li1760 1.970 . S
O1821 Li1761 1.956 . S
O1821 Li1763 1.961 . S
O1821 C1770 1.325 . S
O1822 Li1760 1.961 . S
O1822 Li1762 1.956 . S
O1822 Li1763 1.970 . S
O1822 C1792 1.325 . S
O1823 Li1761 1.961 . S
O1823 Li1762 1.970 . S
O1823 Li1763 1.956 . S
O1823 C1798 1.325 . S
H1824 C1766 0.929 . S
H1825 C1767 0.930 . S
H1826 C1768 0.930 . S
H1827 C1769 0.930 . S
H1828 C1771 0.930 . S
H1829 C1773 0.929 . S
H1830 C1774 0.930 . S
H1831 C1775 0.930 . S
H1832 C1778 0.930 . S
H1833 C1781 0.929 . S
H1834 C1786 0.929 . S
H1835 C1787 0.930 . S
H1836 C1794 0.929 . S
H1837 C1795 0.930 . S
H1838 C1796 0.930 . S
H1839 C1797 0.930 . S
H1840 C1799 0.929 . S
H1841 C1800 0.930 . S
H1842 C1801 0.930 . S
H1843 C1802 0.930 . S
H1844 C1806 0.929 . S
H1845 C1808 0.930 . S
H1846 C1814 0.929 . S
H1847 C1815 0.930 . S
Li1848 N1865 1.990 . S
Li1848 O1908 1.956 . S
Li1848 O1909 1.970 . S
Li1848 O1910 1.961 . S
Li1849 N1873 1.990 . S
Li1849 O1908 1.970 . S
Li1849 O1909 1.956 . S
Li1849 O1911 1.961 . S
Li1850 N1895 1.990 . S
Li1850 O1908 1.961 . S
Li1850 O1910 1.956 . S
Li1850 O1911 1.970 . S
Li1851 N1901 1.990 1_655 S
Li1851 O1909 1.961 . S
Li1851 O1910 1.970 . S
Li1851 O1911 1.956 . S
C1852 C1854 1.348 . S
C1852 C1855 1.356 . S
C1852 O1908 1.325 . S
N1853 C1856 1.314 . S
N1853 C1857 1.279 . S
C1854 C1852 1.348 . S
C1854 C1856 1.353 . S
C1854 H1912 0.929 . S
C1855 C1852 1.356 . S
C1855 C1857 1.358 . S
C1855 H1913 0.930 . S
C1856 N1853 1.314 . S
C1856 C1854 1.353 . S
C1856 H1914 0.930 . S
C1857 N1853 1.279 . S
C1857 C1855 1.358 . S
C1857 H1915 0.930 . S
C1858 C1861 1.349 . S
C1858 C1862 1.356 1_655 S
C1858 O1909 1.325 . S
C1859 N1860 1.279 . S
C1859 C1862 1.358 . S
C1859 H1916 0.930 . S
N1860 C1859 1.279 . S
N1860 C1863 1.314 . S
C1861 C1858 1.349 . S
C1861 C1863 1.341 1_655 S
C1861 H1917 0.941 . S
C1862 C1858 1.356 1_455 S
C1862 C1859 1.358 . S
C1862 H1918 0.930 . S
C1863 N1860 1.314 . S
C1863 C1861 1.341 1_455 S
C1863 H1919 0.930 . S
C1864 N1865 1.314 . S
C1864 C1869 1.353 . S
C1864 H1870 0.930 1_655 S
N1865 Li1848 1.990 . S
N1865 C1864 1.314 . S
N1865 C1867 1.279 . S
C1866 C1867 1.358 . S
C1866 C1868 1.356 . S
C1866 H1920 0.930 . S
C1867 N1865 1.279 . S
C1867 C1866 1.358 . S
C1867 H1871 0.930 . S
C1868 C1866 1.356 . S
C1868 C1869 1.348 . S
C1869 C1864 1.353 . S
C1869 C1868 1.348 . S
C1869 H1921 0.929 1_655 S
H1870 C1864 0.930 1_455 S
H1871 C1867 0.930 . S
C1872 N1873 1.314 . S
C1872 C1874 1.353 . S
C1872 H1878 0.930 . S
N1873 Li1849 1.990 . S
N1873 C1872 1.314 . S
N1873 C1876 1.279 . S
C1874 C1872 1.353 . S
C1874 C1877 1.348 . S
C1874 H1922 0.929 . S
C1875 C1876 1.358 . S
C1875 C1877 1.356 . S
C1875 H1923 0.930 . S
C1876 N1873 1.279 . S
C1876 C1875 1.358 . S
C1876 H1879 0.930 . S
C1877 C1874 1.348 . S
C1877 C1875 1.356 . S
H1878 C1872 0.930 . S
H1879 C1876 0.930 . S
C1880 C1882 1.348 1_655 S
C1880 C1883 1.356 . S
C1880 O1910 1.325 . S
N1881 C1884 1.314 . S
N1881 C1885 1.279 1_455 S
C1882 C1880 1.348 1_455 S
C1882 C1884 1.353 . S
C1882 H1924 0.929 . S
C1883 C1880 1.356 . S
C1883 C1885 1.358 . S
C1883 H1925 0.930 . S
C1884 N1881 1.314 . S
C1884 C1882 1.353 . S
C1884 H1926 0.930 . S
C1885 N1881 1.279 1_655 S
C1885 C1883 1.358 . S
C1885 H1927 0.930 . S
C1886 C1887 1.348 . S
C1886 C1888 1.356 . S
C1886 O1911 1.325 . S
C1887 C1886 1.348 . S
C1887 C1889 1.353 . S
C1887 H1928 0.929 . S
C1888 C1886 1.356 . S
C1888 C1890 1.358 . S
C1888 H1929 0.930 . S
C1889 C1887 1.353 . S
C1889 N1891 1.314 . S
C1889 H1930 0.930 . S
C1890 C1888 1.358 . S
C1890 N1891 1.279 . S
C1890 H1931 0.930 . S
N1891 C1889 1.314 . S
N1891 C1890 1.279 . S
C1892 C1894 1.353 . S
C1892 N1895 1.314 . S
C1892 H1898 0.930 . S
C1893 N1895 1.279 . S
C1893 C1896 1.358 . S
C1893 H1899 0.930 . S
C1894 C1892 1.353 . S
C1894 C1897 1.348 . S
C1894 H1932 0.929 . S
N1895 Li1850 1.990 . S
N1895 C1892 1.314 . S
N1895 C1893 1.279 . S
C1896 C1893 1.358 . S
C1896 C1897 1.356 . S
C1896 H1933 0.930 . S
C1897 C1894 1.348 . S
C1897 C1896 1.356 . S
H1898 C1892 0.930 . S
H1899 C1893 0.930 . S
C1900 N1901 1.314 . S
C1900 C1902 1.353 . S
C1900 H1906 0.930 . S
N1901 Li1851 1.990 1_455 S
N1901 C1900 1.314 . S
N1901 C1904 1.279 . S
C1902 C1900 1.353 . S
C1902 C1905 1.348 . S
C1902 H1934 0.929 . S
C1903 C1904 1.358 . S
C1903 C1905 1.356 . S
C1903 H1935 0.930 . S
C1904 N1901 1.279 . S
C1904 C1903 1.358 . S
C1904 H1907 0.930 . S
C1905 C1902 1.348 . S
C1905 C1903 1.356 . S
H1906 C1900 0.930 . S
H1907 C1904 0.930 . S
O1908 Li1848 1.956 . S
O1908 Li1849 1.970 . S
O1908 Li1850 1.961 . S
O1908 C1852 1.325 . S
O1909 Li1848 1.970 . S
O1909 Li1849 1.956 . S
O1909 Li1851 1.961 . S
O1909 C1858 1.325 . S
O1910 Li1848 1.961 . S
O1910 Li1850 1.956 . S
O1910 Li1851 1.970 . S
O1910 C1880 1.325 . S
O1911 Li1849 1.961 . S
O1911 Li1850 1.970 . S
O1911 Li1851 1.956 . S
O1911 C1886 1.325 . S
H1912 C1854 0.929 . S
H1913 C1855 0.930 . S
H1914 C1856 0.930 . S
H1915 C1857 0.930 . S
H1916 C1859 0.930 . S
H1917 C1861 0.941 . S
H1918 C1862 0.930 . S
H1919 C1863 0.930 . S
H1920 C1866 0.930 . S
H1921 C1869 0.929 1_455 S
H1922 C1874 0.929 . S
H1923 C1875 0.930 . S
H1924 C1882 0.929 . S
H1925 C1883 0.930 . S
H1926 C1884 0.930 . S
H1927 C1885 0.930 . S
H1928 C1887 0.929 . S
H1929 C1888 0.930 . S
H1930 C1889 0.930 . S
H1931 C1890 0.930 . S
H1932 C1894 0.929 . S
H1933 C1896 0.930 . S
H1934 C1902 0.929 . S
H1935 C1903 0.930 . S
Li1936 N1953 1.990 . S
Li1936 O1996 1.956 . S
Li1936 O1997 1.970 . S
Li1936 O1998 1.961 . S
Li1937 N1961 1.990 . S
Li1937 O1996 1.970 . S
Li1937 O1997 1.956 . S
Li1937 O1999 1.961 . S
Li1938 N1983 1.990 . S
Li1938 O1996 1.961 . S
Li1938 O1998 1.956 . S
Li1938 O1999 1.970 . S
Li1939 N1989 1.990 . S
Li1939 O1997 1.961 . S
Li1939 O1998 1.970 . S
Li1939 O1999 1.956 . S
C1940 C1942 1.348 . S
C1940 C1943 1.356 . S
C1940 O1996 1.325 . S
N1941 C1944 1.314 . S
N1941 C1945 1.279 . S
C1942 C1940 1.348 . S
C1942 C1944 1.353 . S
C1942 H2000 0.929 . S
C1943 C1940 1.356 . S
C1943 C1945 1.358 . S
C1943 H2001 0.930 . S
C1944 N1941 1.314 . S
C1944 C1942 1.353 . S
C1944 H2002 0.930 . S
C1945 N1941 1.279 . S
C1945 C1943 1.358 . S
C1945 H2003 0.930 . S
C1946 C1949 1.348 . S
C1946 C1950 1.356 . S
C1946 O1997 1.325 . S
C1947 N1948 1.279 . S
C1947 C1950 1.358 . S
C1947 H2004 0.930 . S
N1948 C1947 1.279 . S
N1948 C1951 1.314 . S
C1949 C1946 1.348 . S
C1949 C1951 1.353 . S
C1949 H2005 0.929 . S
C1950 C1946 1.356 . S
C1950 C1947 1.358 . S
C1950 H2006 0.930 . S
C1951 N1948 1.314 . S
C1951 C1949 1.353 . S
C1951 H2007 0.930 . S
C1952 N1953 1.314 . S
C1952 C1957 1.353 . S
C1952 H1958 0.930 . S
N1953 Li1936 1.990 . S
N1953 C1952 1.314 . S
N1953 C1955 1.279 . S
C1954 C1955 1.358 . S
C1954 C1956 1.356 . S
C1954 H2008 0.930 . S
C1955 N1953 1.279 . S
C1955 C1954 1.358 . S
C1955 H1959 0.930 . S
C1956 C1954 1.356 . S
C1956 C1957 1.348 . S
C1957 C1952 1.353 . S
C1957 C1956 1.348 . S
C1957 H2009 0.929 . S
H1958 C1952 0.930 . S
H1959 C1955 0.930 . S
C1960 N1961 1.314 . S
C1960 C1962 1.353 . S
C1960 H1966 0.930 . S
N1961 Li1937 1.990 . S
N1961 C1960 1.314 . S
N1961 C1964 1.279 . S
C1962 C1960 1.353 . S
C1962 C1965 1.348 . S
C1962 H2010 0.929 . S
C1963 C1964 1.358 . S
C1963 C1965 1.356 . S
C1963 H2011 0.930 . S
C1964 N1961 1.279 . S
C1964 C1963 1.358 . S
C1964 H1967 0.930 . S
C1965 C1962 1.348 . S
C1965 C1963 1.356 . S
H1966 C1960 0.930 . S
H1967 C1964 0.930 . S
C1968 C1970 1.348 . S
C1968 C1971 1.356 . S
C1968 O1998 1.325 . S
N1969 C1972 1.314 . S
N1969 C1973 1.279 . S
C1970 C1968 1.348 . S
C1970 C1972 1.353 . S
C1970 H2012 0.929 . S
C1971 C1968 1.356 . S
C1971 C1973 1.358 . S
C1971 H2013 0.930 . S
C1972 N1969 1.314 . S
C1972 C1970 1.353 . S
C1972 H2014 0.930 . S
C1973 N1969 1.279 . S
C1973 C1971 1.358 . S
C1973 H2015 0.930 . S
C1974 C1975 1.348 . S
C1974 C1976 1.356 . S
C1974 O1999 1.325 . S
C1975 C1974 1.348 . S
C1975 C1977 1.353 . S
C1975 H2016 0.929 . S
C1976 C1974 1.356 . S
C1976 C1978 1.358 . S
C1976 H2017 0.930 . S
C1977 C1975 1.353 . S
C1977 N1979 1.314 . S
C1977 H2018 0.930 . S
C1978 C1976 1.358 . S
C1978 N1979 1.279 . S
C1978 H2019 0.930 . S
N1979 C1977 1.314 . S
N1979 C1978 1.279 . S
C1980 C1982 1.353 . S
C1980 N1983 1.314 . S
C1980 H1986 0.930 . S
C1981 N1983 1.279 . S
C1981 C1984 1.358 . S
C1981 H1987 0.930 . S
C1982 C1980 1.353 . S
C1982 C1985 1.348 . S
C1982 H2020 0.929 . S
N1983 Li1938 1.990 . S
N1983 C1980 1.314 . S
N1983 C1981 1.279 . S
C1984 C1981 1.358 . S
C1984 C1985 1.356 . S
C1984 H2021 0.930 . S
C1985 C1982 1.348 . S
C1985 C1984 1.356 . S
H1986 C1980 0.930 . S
H1987 C1981 0.930 . S
C1988 N1989 1.314 . S
C1988 C1990 1.353 . S
C1988 H1994 0.930 . S
N1989 Li1939 1.990 . S
N1989 C1988 1.314 . S
N1989 C1992 1.279 . S
C1990 C1988 1.353 . S
C1990 C1993 1.348 . S
C1990 H2022 0.929 . S
C1991 C1992 1.358 . S
C1991 C1993 1.356 . S
C1991 H2023 0.930 . S
C1992 N1989 1.279 . S
C1992 C1991 1.358 . S
C1992 H1995 0.930 . S
C1993 C1990 1.348 . S
C1993 C1991 1.356 . S
H1994 C1988 0.930 . S
H1995 C1992 0.930 . S
O1996 Li1936 1.956 . S
O1996 Li1937 1.970 . S
O1996 Li1938 1.961 . S
O1996 C1940 1.325 . S
O1997 Li1936 1.970 . S
O1997 Li1937 1.956 . S
O1997 Li1939 1.961 . S
O1997 C1946 1.325 . S
O1998 Li1936 1.961 . S
O1998 Li1938 1.956 . S
O1998 Li1939 1.970 . S
O1998 C1968 1.325 . S
O1999 Li1937 1.961 . S
O1999 Li1938 1.970 . S
O1999 Li1939 1.956 . S
O1999 C1974 1.325 . S
H2000 C1942 0.929 . S
H2001 C1943 0.930 . S
H2002 C1944 0.930 . S
H2003 C1945 0.930 . S
H2004 C1947 0.930 . S
H2005 C1949 0.929 . S
H2006 C1950 0.930 . S
H2007 C1951 0.930 . S
H2008 C1954 0.930 . S
H2009 C1957 0.929 . S
H2010 C1962 0.929 . S
H2011 C1963 0.930 . S
H2012 C1970 0.929 . S
H2013 C1971 0.930 . S
H2014 C1972 0.930 . S
H2015 C1973 0.930 . S
H2016 C1975 0.929 . S
H2017 C1976 0.930 . S
H2018 C1977 0.930 . S
H2019 C1978 0.930 . S
H2020 C1982 0.929 . S
H2021 C1984 0.930 . S
H2022 C1990 0.929 . S
H2023 C1991 0.930 . S
Li2024 N2041 1.990 . S
Li2024 O2084 1.956 . S
Li2024 O2085 1.970 . S
Li2024 O2086 1.961 . S
Li2025 N2049 1.990 . S
Li2025 O2084 1.970 . S
Li2025 O2085 1.956 . S
Li2025 O2087 1.961 . S
Li2026 N2071 1.990 . S
Li2026 O2084 1.961 . S
Li2026 O2086 1.956 . S
Li2026 O2087 1.970 . S
Li2027 N2077 1.990 . S
Li2027 O2085 1.961 . S
Li2027 O2086 1.970 . S
Li2027 O2087 1.956 . S
C2028 C2030 1.348 . S
C2028 C2031 1.356 . S
C2028 O2084 1.325 . S
N2029 C2032 1.314 . S
N2029 C2033 1.279 . S
C2030 C2028 1.348 . S
C2030 C2032 1.353 . S
C2030 H2088 0.929 . S
C2031 C2028 1.356 . S
C2031 C2033 1.358 . S
C2031 H2089 0.930 . S
C2032 N2029 1.314 . S
C2032 C2030 1.353 . S
C2032 H2090 0.930 . S
C2033 N2029 1.279 . S
C2033 C2031 1.358 . S
C2033 H2091 0.930 . S
C2034 C2037 1.348 . S
C2034 C2038 1.356 . S
C2034 O2085 1.325 . S
C2035 N2036 1.279 . S
C2035 C2038 1.358 . S
C2035 H2092 0.930 . S
N2036 C2035 1.279 . S
N2036 C2039 1.314 . S
C2037 C2034 1.348 . S
C2037 C2039 1.353 . S
C2037 H2093 0.929 . S
C2038 C2034 1.356 . S
C2038 C2035 1.358 . S
C2038 H2094 0.930 . S
C2039 N2036 1.314 . S
C2039 C2037 1.353 . S
C2039 H2095 0.930 . S
C2040 N2041 1.314 . S
C2040 C2045 1.353 . S
C2040 H2046 0.930 . S
N2041 Li2024 1.990 . S
N2041 C2040 1.314 . S
N2041 C2043 1.279 . S
C2042 C2043 1.358 . S
C2042 C2044 1.356 . S
C2042 H2096 0.930 . S
C2043 N2041 1.279 . S
C2043 C2042 1.358 . S
C2043 H2047 0.930 . S
C2044 C2042 1.356 . S
C2044 C2045 1.348 . S
C2045 C2040 1.353 . S
C2045 C2044 1.348 . S
C2045 H2097 0.929 . S
H2046 C2040 0.930 . S
H2047 C2043 0.930 . S
C2048 N2049 1.314 . S
C2048 C2050 1.353 . S
C2048 H2054 0.930 . S
N2049 Li2025 1.990 . S
N2049 C2048 1.314 . S
N2049 C2052 1.279 . S
C2050 C2048 1.353 . S
C2050 C2053 1.348 . S
C2050 H2098 0.929 . S
C2051 C2052 1.358 . S
C2051 C2053 1.356 . S
C2051 H2099 0.930 . S
C2052 N2049 1.279 . S
C2052 C2051 1.358 . S
C2052 H2055 0.930 . S
C2053 C2050 1.348 . S
C2053 C2051 1.356 . S
H2054 C2048 0.930 . S
H2055 C2052 0.930 . S
C2056 C2058 1.348 . S
C2056 C2059 1.356 . S
C2056 O2086 1.325 . S
N2057 C2060 1.314 . S
N2057 C2061 1.279 . S
C2058 C2056 1.348 . S
C2058 C2060 1.353 . S
C2058 H2100 0.929 . S
C2059 C2056 1.356 . S
C2059 C2061 1.358 . S
C2059 H2101 0.930 . S
C2060 N2057 1.314 . S
C2060 C2058 1.353 . S
C2060 H2102 0.930 . S
C2061 N2057 1.279 . S
C2061 C2059 1.358 . S
C2061 H2103 0.930 . S
C2062 C2063 1.348 . S
C2062 C2064 1.356 . S
C2062 O2087 1.325 . S
C2063 C2062 1.348 . S
C2063 C2065 1.353 . S
C2063 H2104 0.929 . S
C2064 C2062 1.356 . S
C2064 C2066 1.358 . S
C2064 H2105 0.930 . S
C2065 C2063 1.353 . S
C2065 N2067 1.314 . S
C2065 H2106 0.930 . S
C2066 C2064 1.358 . S
C2066 N2067 1.279 . S
C2066 H2107 0.930 . S
N2067 C2065 1.314 . S
N2067 C2066 1.279 . S
C2068 C2070 1.353 . S
C2068 N2071 1.314 . S
C2068 H2074 0.930 . S
C2069 N2071 1.279 . S
C2069 C2072 1.358 . S
C2069 H2075 0.930 . S
C2070 C2068 1.353 . S
C2070 C2073 1.348 . S
C2070 H2108 0.929 . S
N2071 Li2026 1.990 . S
N2071 C2068 1.314 . S
N2071 C2069 1.279 . S
C2072 C2069 1.358 . S
C2072 C2073 1.356 . S
C2072 H2109 0.930 . S
C2073 C2070 1.348 . S
C2073 C2072 1.356 . S
H2074 C2068 0.930 . S
H2075 C2069 0.930 . S
C2076 N2077 1.314 . S
C2076 C2078 1.353 . S
C2076 H2082 0.930 . S
N2077 Li2027 1.990 . S
N2077 C2076 1.314 . S
N2077 C2080 1.279 . S
C2078 C2076 1.353 . S
C2078 C2081 1.348 . S
C2078 H2110 0.929 . S
C2079 C2080 1.358 . S
C2079 C2081 1.356 . S
C2079 H2111 0.930 . S
C2080 N2077 1.279 . S
C2080 C2079 1.358 . S
C2080 H2083 0.930 . S
C2081 C2078 1.348 . S
C2081 C2079 1.356 . S
H2082 C2076 0.930 . S
H2083 C2080 0.930 . S
O2084 Li2024 1.956 . S
O2084 Li2025 1.970 . S
O2084 Li2026 1.961 . S
O2084 C2028 1.325 . S
O2085 Li2024 1.970 . S
O2085 Li2025 1.956 . S
O2085 Li2027 1.961 . S
O2085 C2034 1.325 . S
O2086 Li2024 1.961 . S
O2086 Li2026 1.956 . S
O2086 Li2027 1.970 . S
O2086 C2056 1.325 . S
O2087 Li2025 1.961 . S
O2087 Li2026 1.970 . S
O2087 Li2027 1.956 . S
O2087 C2062 1.325 . S
H2088 C2030 0.929 . S
H2089 C2031 0.930 . S
H2090 C2032 0.930 . S
H2091 C2033 0.930 . S
H2092 C2035 0.930 . S
H2093 C2037 0.929 . S
H2094 C2038 0.930 . S
H2095 C2039 0.930 . S
H2096 C2042 0.930 . S
H2097 C2045 0.929 . S
H2098 C2050 0.929 . S
H2099 C2051 0.930 . S
H2100 C2058 0.929 . S
H2101 C2059 0.930 . S
H2102 C2060 0.930 . S
H2103 C2061 0.930 . S
H2104 C2063 0.929 . S
H2105 C2064 0.930 . S
H2106 C2065 0.930 . S
H2107 C2066 0.930 . S
H2108 C2070 0.929 . S
H2109 C2072 0.930 . S
H2110 C2078 0.929 . S
H2111 C2079 0.930 . S
Li2112 N2129 1.990 . S
Li2112 O2172 1.956 . S
Li2112 O2173 1.970 . S
Li2112 O2174 1.961 . S
Li2113 N2137 1.990 . S
Li2113 O2172 1.970 . S
Li2113 O2173 1.956 . S
Li2113 O2175 1.961 . S
Li2114 N2159 1.990 . S
Li2114 O2172 1.961 . S
Li2114 O2174 1.956 . S
Li2114 O2175 1.970 . S
Li2115 N2165 1.990 . S
Li2115 O2173 1.961 . S
Li2115 O2174 1.970 . S
Li2115 O2175 1.956 . S
C2116 C2118 1.348 . S
C2116 C2119 1.356 . S
C2116 O2172 1.325 . S
N2117 C2120 1.314 . S
N2117 C2121 1.279 . S
C2118 C2116 1.348 . S
C2118 C2120 1.353 . S
C2118 H2176 0.929 . S
C2119 C2116 1.356 . S
C2119 C2121 1.358 . S
C2119 H2177 0.930 . S
C2120 N2117 1.314 . S
C2120 C2118 1.353 . S
C2120 H2178 0.930 . S
C2121 N2117 1.279 . S
C2121 C2119 1.358 . S
C2121 H2179 0.930 . S
C2122 C2125 1.348 . S
C2122 C2126 1.356 . S
C2122 O2173 1.325 . S
C2123 N2124 1.279 . S
C2123 C2126 1.358 . S
C2123 H2180 0.930 . S
N2124 C2123 1.279 . S
N2124 C2127 1.314 . S
C2125 C2122 1.348 . S
C2125 C2127 1.353 . S
C2125 H2181 0.929 . S
C2126 C2122 1.356 . S
C2126 C2123 1.358 . S
C2126 H2182 0.930 . S
C2127 N2124 1.314 . S
C2127 C2125 1.353 . S
C2127 H2183 0.930 . S
C2128 N2129 1.314 . S
C2128 C2133 1.353 . S
C2128 H2134 0.930 . S
N2129 Li2112 1.990 . S
N2129 C2128 1.314 . S
N2129 C2131 1.279 . S
C2130 C2131 1.358 . S
C2130 C2132 1.356 . S
C2130 H2184 0.930 . S
C2131 N2129 1.279 . S
C2131 C2130 1.358 . S
C2131 H2135 0.930 . S
C2132 C2130 1.356 . S
C2132 C2133 1.348 . S
C2133 C2128 1.353 . S
C2133 C2132 1.348 . S
C2133 H2185 0.929 . S
H2134 C2128 0.930 . S
H2135 C2131 0.930 . S
C2136 N2137 1.314 . S
C2136 C2138 1.353 . S
C2136 H2142 0.930 . S
N2137 Li2113 1.990 . S
N2137 C2136 1.314 . S
N2137 C2140 1.279 . S
C2138 C2136 1.353 . S
C2138 C2141 1.348 . S
C2138 H2186 0.929 . S
C2139 C2140 1.358 . S
C2139 C2141 1.356 . S
C2139 H2187 0.930 . S
C2140 N2137 1.279 . S
C2140 C2139 1.358 . S
C2140 H2143 0.930 . S
C2141 C2138 1.348 . S
C2141 C2139 1.356 . S
H2142 C2136 0.930 . S
H2143 C2140 0.930 . S
C2144 C2146 1.348 . S
C2144 C2147 1.356 . S
C2144 O2174 1.325 . S
N2145 C2148 1.314 . S
N2145 C2149 1.279 . S
C2146 C2144 1.348 . S
C2146 C2148 1.353 . S
C2146 H2188 0.929 . S
C2147 C2144 1.356 . S
C2147 C2149 1.358 . S
C2147 H2189 0.930 . S
C2148 N2145 1.314 . S
C2148 C2146 1.353 . S
C2148 H2190 0.930 . S
C2149 N2145 1.279 . S
C2149 C2147 1.358 . S
C2149 H2191 0.930 . S
C2150 C2151 1.348 . S
C2150 C2152 1.356 . S
C2150 O2175 1.325 . S
C2151 C2150 1.348 . S
C2151 C2153 1.353 . S
C2151 H2192 0.929 . S
C2152 C2150 1.356 . S
C2152 C2154 1.358 . S
C2152 H2193 0.930 . S
C2153 C2151 1.353 . S
C2153 N2155 1.314 . S
C2153 H2194 0.930 . S
C2154 C2152 1.358 . S
C2154 N2155 1.279 . S
C2154 H2195 0.930 . S
N2155 C2153 1.314 . S
N2155 C2154 1.279 . S
C2156 C2158 1.353 . S
C2156 N2159 1.314 . S
C2156 H2162 0.930 . S
C2157 N2159 1.279 . S
C2157 C2160 1.358 . S
C2157 H2163 0.930 . S
C2158 C2156 1.353 . S
C2158 C2161 1.348 . S
C2158 H2196 0.929 . S
N2159 Li2114 1.990 . S
N2159 C2156 1.314 . S
N2159 C2157 1.279 . S
C2160 C2157 1.358 . S
C2160 C2161 1.356 . S
C2160 H2197 0.930 . S
C2161 C2158 1.348 . S
C2161 C2160 1.356 . S
H2162 C2156 0.930 . S
H2163 C2157 0.930 . S
C2164 N2165 1.314 . S
C2164 C2166 1.353 . S
C2164 H2170 0.930 . S
N2165 Li2115 1.990 . S
N2165 C2164 1.314 . S
N2165 C2168 1.279 . S
C2166 C2164 1.353 . S
C2166 C2169 1.348 . S
C2166 H2198 0.929 . S
C2167 C2168 1.358 . S
C2167 C2169 1.356 . S
C2167 H2199 0.930 . S
C2168 N2165 1.279 . S
C2168 C2167 1.358 . S
C2168 H2171 0.930 . S
C2169 C2166 1.348 . S
C2169 C2167 1.356 . S
H2170 C2164 0.930 . S
H2171 C2168 0.930 . S
O2172 Li2112 1.956 . S
O2172 Li2113 1.970 . S
O2172 Li2114 1.961 . S
O2172 C2116 1.325 . S
O2173 Li2112 1.970 . S
O2173 Li2113 1.956 . S
O2173 Li2115 1.961 . S
O2173 C2122 1.325 . S
O2174 Li2112 1.961 . S
O2174 Li2114 1.956 . S
O2174 Li2115 1.970 . S
O2174 C2144 1.325 . S
O2175 Li2113 1.961 . S
O2175 Li2114 1.970 . S
O2175 Li2115 1.956 . S
O2175 C2150 1.325 . S
H2176 C2118 0.929 . S
H2177 C2119 0.930 . S
H2178 C2120 0.930 . S
H2179 C2121 0.930 . S
H2180 C2123 0.930 . S
H2181 C2125 0.929 . S
H2182 C2126 0.930 . S
H2183 C2127 0.930 . S
H2184 C2130 0.930 . S
H2185 C2133 0.929 . S
H2186 C2138 0.929 . S
H2187 C2139 0.930 . S
H2188 C2146 0.929 . S
H2189 C2147 0.930 . S
H2190 C2148 0.930 . S
H2191 C2149 0.930 . S
H2192 C2151 0.929 . S
H2193 C2152 0.930 . S
H2194 C2153 0.930 . S
H2195 C2154 0.930 . S
H2196 C2158 0.929 . S
H2197 C2160 0.930 . S
H2198 C2166 0.929 . S
H2199 C2167 0.930 . S
Li2200 N2217 1.990 . S
Li2200 O2260 1.956 . S
Li2200 O2261 1.970 . S
Li2200 O2262 1.961 . S
Li2201 N2225 1.990 . S
Li2201 O2260 1.970 . S
Li2201 O2261 1.956 . S
Li2201 O2263 1.961 . S
Li2202 N2247 1.990 . S
Li2202 O2260 1.961 . S
Li2202 O2262 1.956 . S
Li2202 O2263 1.970 . S
Li2203 N2253 1.990 . S
Li2203 O2261 1.961 . S
Li2203 O2262 1.970 . S
Li2203 O2263 1.956 . S
C2204 C2206 1.348 . S
C2204 C2207 1.356 . S
C2204 O2260 1.325 . S
N2205 C2208 1.314 . S
N2205 C2209 1.279 . S
C2206 C2204 1.348 . S
C2206 C2208 1.353 . S
C2206 H2264 0.929 . S
C2207 C2204 1.356 . S
C2207 C2209 1.358 . S
C2207 H2265 0.930 . S
C2208 N2205 1.314 . S
C2208 C2206 1.353 . S
C2208 H2266 0.930 . S
C2209 N2205 1.279 . S
C2209 C2207 1.358 . S
C2209 H2267 0.930 . S
C2210 C2213 1.348 . S
C2210 C2214 1.356 . S
C2210 O2261 1.325 . S
C2211 N2212 1.279 . S
C2211 C2214 1.358 . S
C2211 H2268 0.930 . S
N2212 C2211 1.279 . S
N2212 C2215 1.314 . S
C2213 C2210 1.348 . S
C2213 C2215 1.353 . S
C2213 H2269 0.929 . S
C2214 C2210 1.356 . S
C2214 C2211 1.358 . S
C2214 H2270 0.930 . S
C2215 N2212 1.314 . S
C2215 C2213 1.353 . S
C2215 H2271 0.930 . S
C2216 N2217 1.314 . S
C2216 C2221 1.353 . S
C2216 H2222 0.930 . S
N2217 Li2200 1.990 . S
N2217 C2216 1.314 . S
N2217 C2219 1.279 . S
C2218 C2219 1.358 . S
C2218 C2220 1.356 . S
C2218 H2272 0.930 . S
C2219 N2217 1.279 . S
C2219 C2218 1.358 . S
C2219 H2223 0.930 . S
C2220 C2218 1.356 . S
C2220 C2221 1.348 . S
C2221 C2216 1.353 . S
C2221 C2220 1.348 . S
C2221 H2273 0.929 . S
H2222 C2216 0.930 . S
H2223 C2219 0.930 . S
C2224 N2225 1.314 . S
C2224 C2226 1.353 . S
C2224 H2230 0.930 . S
N2225 Li2201 1.990 . S
N2225 C2224 1.314 . S
N2225 C2228 1.279 . S
C2226 C2224 1.353 . S
C2226 C2229 1.348 . S
C2226 H2274 0.929 . S
C2227 C2228 1.358 . S
C2227 C2229 1.356 . S
C2227 H2275 0.930 . S
C2228 N2225 1.279 . S
C2228 C2227 1.358 . S
C2228 H2231 0.930 . S
C2229 C2226 1.348 . S
C2229 C2227 1.356 . S
H2230 C2224 0.930 . S
H2231 C2228 0.930 . S
C2232 C2234 1.348 . S
C2232 C2235 1.356 . S
C2232 O2262 1.325 . S
N2233 C2236 1.314 . S
N2233 C2237 1.279 . S
C2234 C2232 1.348 . S
C2234 C2236 1.353 . S
C2234 H2276 0.929 . S
C2235 C2232 1.356 . S
C2235 C2237 1.358 . S
C2235 H2277 0.930 . S
C2236 N2233 1.314 . S
C2236 C2234 1.353 . S
C2236 H2278 0.930 . S
C2237 N2233 1.279 . S
C2237 C2235 1.358 . S
C2237 H2279 0.930 . S
C2238 C2239 1.348 . S
C2238 C2240 1.356 . S
C2238 O2263 1.325 . S
C2239 C2238 1.348 . S
C2239 C2241 1.353 . S
C2239 H2280 0.929 . S
C2240 C2238 1.356 . S
C2240 C2242 1.358 . S
C2240 H2281 0.930 . S
C2241 C2239 1.353 . S
C2241 N2243 1.314 . S
C2241 H2282 0.930 . S
C2242 C2240 1.358 . S
C2242 N2243 1.279 . S
C2242 H2283 0.930 . S
N2243 C2241 1.314 . S
N2243 C2242 1.279 . S
C2244 C2246 1.353 . S
C2244 N2247 1.314 . S
C2244 H2250 0.930 . S
C2245 N2247 1.279 . S
C2245 C2248 1.358 . S
C2245 H2251 0.930 . S
C2246 C2244 1.353 . S
C2246 C2249 1.348 . S
C2246 H2284 0.929 . S
N2247 Li2202 1.990 . S
N2247 C2244 1.314 . S
N2247 C2245 1.279 . S
C2248 C2245 1.358 . S
C2248 C2249 1.356 . S
C2248 H2285 0.930 . S
C2249 C2246 1.348 . S
C2249 C2248 1.356 . S
H2250 C2244 0.930 . S
H2251 C2245 0.930 . S
C2252 N2253 1.314 . S
C2252 C2254 1.353 . S
C2252 H2258 0.930 . S
N2253 Li2203 1.990 . S
N2253 C2252 1.314 . S
N2253 C2256 1.279 . S
C2254 C2252 1.353 . S
C2254 C2257 1.348 . S
C2254 H2286 0.929 . S
C2255 C2256 1.358 . S
C2255 C2257 1.356 . S
C2255 H2287 0.930 . S
C2256 N2253 1.279 . S
C2256 C2255 1.358 . S
C2256 H2259 0.930 . S
C2257 C2254 1.348 . S
C2257 C2255 1.356 . S
H2258 C2252 0.930 . S
H2259 C2256 0.930 . S
O2260 Li2200 1.956 . S
O2260 Li2201 1.970 . S
O2260 Li2202 1.961 . S
O2260 C2204 1.325 . S
O2261 Li2200 1.970 . S
O2261 Li2201 1.956 . S
O2261 Li2203 1.961 . S
O2261 C2210 1.325 . S
O2262 Li2200 1.961 . S
O2262 Li2202 1.956 . S
O2262 Li2203 1.970 . S
O2262 C2232 1.325 . S
O2263 Li2201 1.961 . S
O2263 Li2202 1.970 . S
O2263 Li2203 1.956 . S
O2263 C2238 1.325 . S
H2264 C2206 0.929 . S
H2265 C2207 0.930 . S
H2266 C2208 0.930 . S
H2267 C2209 0.930 . S
H2268 C2211 0.930 . S
H2269 C2213 0.929 . S
H2270 C2214 0.930 . S
H2271 C2215 0.930 . S
H2272 C2218 0.930 . S
H2273 C2221 0.929 . S
H2274 C2226 0.929 . S
H2275 C2227 0.930 . S
H2276 C2234 0.929 . S
H2277 C2235 0.930 . S
H2278 C2236 0.930 . S
H2279 C2237 0.930 . S
H2280 C2239 0.929 . S
H2281 C2240 0.930 . S
H2282 C2241 0.930 . S
H2283 C2242 0.930 . S
H2284 C2246 0.929 . S
H2285 C2248 0.930 . S
H2286 C2254 0.929 . S
H2287 C2255 0.930 . S
Li2288 N2305 1.990 . S
Li2288 O2348 1.956 . S
Li2288 O2349 1.970 . S
Li2288 O2350 1.961 . S
Li2289 N2313 1.990 . S
Li2289 O2348 1.970 . S
Li2289 O2349 1.956 . S
Li2289 O2351 1.961 . S
Li2290 N2335 1.990 . S
Li2290 O2348 1.961 . S
Li2290 O2350 1.956 . S
Li2290 O2351 1.970 . S
Li2291 N2341 1.990 . S
Li2291 O2349 1.961 . S
Li2291 O2350 1.970 . S
Li2291 O2351 1.956 . S
C2292 C2294 1.348 . S
C2292 C2295 1.356 . S
C2292 O2348 1.325 . S
N2293 C2296 1.314 . S
N2293 C2297 1.279 . S
C2294 C2292 1.348 . S
C2294 C2296 1.353 . S
C2294 H2352 0.929 . S
C2295 C2292 1.356 . S
C2295 C2297 1.358 . S
C2295 H2353 0.930 . S
C2296 N2293 1.314 . S
C2296 C2294 1.353 . S
C2296 H2354 0.930 . S
C2297 N2293 1.279 . S
C2297 C2295 1.358 . S
C2297 H2355 0.930 . S
C2298 C2301 1.348 . S
C2298 C2302 1.356 . S
C2298 O2349 1.325 . S
C2299 N2300 1.279 . S
C2299 C2302 1.358 . S
C2299 H2356 0.930 . S
N2300 C2299 1.279 . S
N2300 C2303 1.314 . S
C2301 C2298 1.348 . S
C2301 C2303 1.353 . S
C2301 H2357 0.929 . S
C2302 C2298 1.356 . S
C2302 C2299 1.358 . S
C2302 H2358 0.930 . S
C2303 N2300 1.314 . S
C2303 C2301 1.353 . S
C2303 H2359 0.930 . S
C2304 N2305 1.314 . S
C2304 C2309 1.353 . S
C2304 H2310 0.930 . S
N2305 Li2288 1.990 . S
N2305 C2304 1.314 . S
N2305 C2307 1.279 . S
C2306 C2307 1.358 . S
C2306 C2308 1.356 . S
C2306 H2360 0.930 . S
C2307 N2305 1.279 . S
C2307 C2306 1.358 . S
C2307 H2311 0.930 . S
C2308 C2306 1.356 . S
C2308 C2309 1.348 . S
C2309 C2304 1.353 . S
C2309 C2308 1.348 . S
C2309 H2361 0.929 . S
H2310 C2304 0.930 . S
H2311 C2307 0.930 . S
C2312 N2313 1.314 . S
C2312 C2314 1.353 . S
C2312 H2318 0.930 . S
N2313 Li2289 1.990 . S
N2313 C2312 1.314 . S
N2313 C2316 1.279 . S
C2314 C2312 1.353 . S
C2314 C2317 1.348 . S
C2314 H2362 0.929 . S
C2315 C2316 1.358 . S
C2315 C2317 1.356 . S
C2315 H2363 0.930 . S
C2316 N2313 1.279 . S
C2316 C2315 1.358 . S
C2316 H2319 0.930 . S
C2317 C2314 1.348 . S
C2317 C2315 1.356 . S
H2318 C2312 0.930 . S
H2319 C2316 0.930 . S
C2320 C2322 1.348 . S
C2320 C2323 1.356 . S
C2320 O2350 1.325 . S
N2321 C2324 1.314 . S
N2321 C2325 1.279 . S
C2322 C2320 1.348 . S
C2322 C2324 1.353 . S
C2322 H2364 0.929 . S
C2323 C2320 1.356 . S
C2323 C2325 1.358 . S
C2323 H2365 0.930 . S
C2324 N2321 1.314 . S
C2324 C2322 1.353 . S
C2324 H2366 0.930 . S
C2325 N2321 1.279 . S
C2325 C2323 1.358 . S
C2325 H2367 0.930 . S
C2326 C2327 1.348 . S
C2326 C2328 1.356 . S
C2326 O2351 1.325 . S
C2327 C2326 1.348 . S
C2327 C2329 1.353 . S
C2327 H2368 0.929 . S
C2328 C2326 1.356 . S
C2328 C2330 1.358 . S
C2328 H2369 0.930 . S
C2329 C2327 1.353 . S
C2329 N2331 1.314 . S
C2329 H2370 0.930 . S
C2330 C2328 1.358 . S
C2330 N2331 1.279 . S
C2330 H2371 0.930 . S
N2331 C2329 1.314 . S
N2331 C2330 1.279 . S
C2332 C2334 1.353 . S
C2332 N2335 1.314 . S
C2332 H2338 0.930 . S
C2333 N2335 1.279 . S
C2333 C2336 1.358 . S
C2333 H2339 0.930 . S
C2334 C2332 1.353 . S
C2334 C2337 1.348 . S
C2334 H2372 0.929 . S
N2335 Li2290 1.990 . S
N2335 C2332 1.314 . S
N2335 C2333 1.279 . S
C2336 C2333 1.358 . S
C2336 C2337 1.356 . S
C2336 H2373 0.930 . S
C2337 C2334 1.348 . S
C2337 C2336 1.356 . S
H2338 C2332 0.930 . S
H2339 C2333 0.930 . S
C2340 N2341 1.314 . S
C2340 C2342 1.353 . S
C2340 H2346 0.930 . S
N2341 Li2291 1.990 . S
N2341 C2340 1.314 . S
N2341 C2344 1.279 . S
C2342 C2340 1.353 . S
C2342 C2345 1.348 . S
C2342 H2374 0.929 . S
C2343 C2344 1.358 . S
C2343 C2345 1.356 . S
C2343 H2375 0.930 . S
C2344 N2341 1.279 . S
C2344 C2343 1.358 . S
C2344 H2347 0.930 . S
C2345 C2342 1.348 . S
C2345 C2343 1.356 . S
H2346 C2340 0.930 . S
H2347 C2344 0.930 . S
O2348 Li2288 1.956 . S
O2348 Li2289 1.970 . S
O2348 Li2290 1.961 . S
O2348 C2292 1.325 . S
O2349 Li2288 1.970 . S
O2349 Li2289 1.956 . S
O2349 Li2291 1.961 . S
O2349 C2298 1.325 . S
O2350 Li2288 1.961 . S
O2350 Li2290 1.956 . S
O2350 Li2291 1.970 . S
O2350 C2320 1.325 . S
O2351 Li2289 1.961 . S
O2351 Li2290 1.970 . S
O2351 Li2291 1.956 . S
O2351 C2326 1.325 . S
H2352 C2294 0.929 . S
H2353 C2295 0.930 . S
H2354 C2296 0.930 . S
H2355 C2297 0.930 . S
H2356 C2299 0.930 . S
H2357 C2301 0.929 . S
H2358 C2302 0.930 . S
H2359 C2303 0.930 . S
H2360 C2306 0.930 . S
H2361 C2309 0.929 . S
H2362 C2314 0.929 . S
H2363 C2315 0.930 . S
H2364 C2322 0.929 . S
H2365 C2323 0.930 . S
H2366 C2324 0.930 . S
H2367 C2325 0.930 . S
H2368 C2327 0.929 . S
H2369 C2328 0.930 . S
H2370 C2329 0.930 . S
H2371 C2330 0.930 . S
H2372 C2334 0.929 . S
H2373 C2336 0.930 . S
H2374 C2342 0.929 . S
H2375 C2343 0.930 . S
Li2376 N2393 1.990 . S
Li2376 O2436 1.956 . S
Li2376 O2437 1.970 . S
Li2376 O2438 1.961 . S
Li2377 N2401 1.990 . S
Li2377 O2436 1.970 . S
Li2377 O2437 1.956 . S
Li2377 O2439 1.961 . S
Li2378 N2423 1.990 . S
Li2378 O2436 1.961 . S
Li2378 O2438 1.956 . S
Li2378 O2439 1.970 . S
Li2379 N2429 1.990 1_455 S
Li2379 O2437 1.961 . S
Li2379 O2438 1.970 . S
Li2379 O2439 1.956 . S
C2380 C2382 1.348 . S
C2380 C2383 1.356 . S
C2380 O2436 1.325 . S
N2381 C2384 1.314 . S
N2381 C2385 1.279 . S
C2382 C2380 1.348 . S
C2382 C2384 1.353 . S
C2382 H2440 0.929 . S
C2383 C2380 1.356 . S
C2383 C2385 1.358 . S
C2383 H2441 0.930 . S
C2384 N2381 1.314 . S
C2384 C2382 1.353 . S
C2384 H2442 0.930 . S
C2385 N2381 1.279 . S
C2385 C2383 1.358 . S
C2385 H2443 0.930 . S
C2386 C2389 1.348 . S
C2386 C2390 1.356 . S
C2386 O2437 1.325 . S
C2387 N2388 1.279 . S
C2387 C2390 1.358 . S
C2387 H2444 0.930 . S
N2388 C2387 1.279 . S
N2388 C2391 1.314 . S
C2389 C2386 1.348 . S
C2389 C2391 1.353 . S
C2389 H2445 0.929 . S
C2390 C2386 1.356 . S
C2390 C2387 1.358 . S
C2390 H2446 0.930 . S
C2391 N2388 1.314 . S
C2391 C2389 1.353 . S
C2391 H2447 0.930 . S
C2392 N2393 1.314 . S
C2392 C2397 1.353 . S
C2392 H2398 0.930 . S
N2393 Li2376 1.990 . S
N2393 C2392 1.314 . S
N2393 C2395 1.279 . S
C2394 C2395 1.358 . S
C2394 C2396 1.356 . S
C2394 H2448 0.930 . S
C2395 N2393 1.279 . S
C2395 C2394 1.358 . S
C2395 H2399 0.930 . S
C2396 C2394 1.356 . S
C2396 C2397 1.348 . S
C2397 C2392 1.353 . S
C2397 C2396 1.348 . S
C2397 H2449 0.929 . S
H2398 C2392 0.930 . S
H2399 C2395 0.930 . S
C2400 N2401 1.314 . S
C2400 C2402 1.353 . S
C2400 H2406 0.930 . S
N2401 Li2377 1.990 . S
N2401 C2400 1.314 . S
N2401 C2404 1.279 . S
C2402 C2400 1.353 . S
C2402 C2405 1.348 . S
C2402 H2450 0.929 . S
C2403 C2404 1.358 . S
C2403 C2405 1.356 . S
C2403 H2451 0.930 . S
C2404 N2401 1.279 . S
C2404 C2403 1.358 . S
C2404 H2407 0.930 . S
C2405 C2402 1.348 . S
C2405 C2403 1.356 . S
H2406 C2400 0.930 . S
H2407 C2404 0.930 . S
C2408 C2410 1.348 1_455 S
C2408 C2411 1.356 . S
C2408 O2438 1.325 . S
N2409 C2412 1.314 . S
N2409 C2413 1.279 1_655 S
C2410 C2408 1.348 1_655 S
C2410 C2412 1.353 . S
C2410 H2452 0.929 . S
C2411 C2408 1.356 . S
C2411 C2413 1.358 . S
C2411 H2453 0.930 . S
C2412 N2409 1.314 . S
C2412 C2410 1.353 . S
C2412 H2454 0.930 . S
C2413 N2409 1.279 1_455 S
C2413 C2411 1.358 . S
C2413 H2455 0.930 . S
C2414 C2415 1.348 1_455 S
C2414 C2416 1.356 1_455 S
C2414 O2439 1.325 . S
C2415 C2414 1.348 1_655 S
C2415 C2417 1.353 . S
C2415 H2456 0.929 . S
C2416 C2414 1.356 1_655 S
C2416 C2418 1.358 . S
C2416 H2457 0.930 1_655 S
C2417 C2415 1.353 . S
C2417 N2419 1.314 . S
C2417 H2458 0.930 . S
C2418 C2416 1.358 . S
C2418 N2419 1.279 . S
C2418 H2459 0.930 . S
N2419 C2417 1.314 . S
N2419 C2418 1.279 . S
C2420 C2422 1.353 . S
C2420 N2423 1.314 . S
C2420 H2426 0.930 . S
C2421 N2423 1.279 . S
C2421 C2424 1.358 . S
C2421 H2427 0.930 . S
C2422 C2420 1.353 . S
C2422 C2425 1.348 . S
C2422 H2460 0.929 . S
N2423 Li2378 1.990 . S
N2423 C2420 1.314 . S
N2423 C2421 1.279 . S
C2424 C2421 1.358 . S
C2424 C2425 1.356 . S
C2424 H2461 0.930 . S
C2425 C2422 1.348 . S
C2425 C2424 1.356 . S
H2426 C2420 0.930 . S
H2427 C2421 0.930 . S
C2428 N2429 1.314 . S
C2428 C2430 1.353 . S
C2428 H2434 0.930 . S
N2429 Li2379 1.990 1_655 S
N2429 C2428 1.314 . S
N2429 C2432 1.279 . S
C2430 C2428 1.353 . S
C2430 C2433 1.348 . S
C2430 H2462 0.929 . S
C2431 C2432 1.358 . S
C2431 C2433 1.356 . S
C2431 H2463 0.930 . S
C2432 N2429 1.279 . S
C2432 C2431 1.358 . S
C2432 H2435 0.930 . S
C2433 C2430 1.348 . S
C2433 C2431 1.356 . S
H2434 C2428 0.930 . S
H2435 C2432 0.930 . S
O2436 Li2376 1.956 . S
O2436 Li2377 1.970 . S
O2436 Li2378 1.961 . S
O2436 C2380 1.325 . S
O2437 Li2376 1.970 . S
O2437 Li2377 1.956 . S
O2437 Li2379 1.961 . S
O2437 C2386 1.325 . S
O2438 Li2376 1.961 . S
O2438 Li2378 1.956 . S
O2438 Li2379 1.970 . S
O2438 C2408 1.325 . S
O2439 Li2377 1.961 . S
O2439 Li2378 1.970 . S
O2439 Li2379 1.956 . S
O2439 C2414 1.325 . S
H2440 C2382 0.929 . S
H2441 C2383 0.930 . S
H2442 C2384 0.930 . S
H2443 C2385 0.930 . S
H2444 C2387 0.930 . S
H2445 C2389 0.929 . S
H2446 C2390 0.930 . S
H2447 C2391 0.930 . S
H2448 C2394 0.930 . S
H2449 C2397 0.929 . S
H2450 C2402 0.929 . S
H2451 C2403 0.930 . S
H2452 C2410 0.929 . S
H2453 C2411 0.930 . S
H2454 C2412 0.930 . S
H2455 C2413 0.930 . S
H2456 C2415 0.929 . S
H2457 C2416 0.930 1_455 S
H2458 C2417 0.930 . S
H2459 C2418 0.930 . S
H2460 C2422 0.929 . S
H2461 C2424 0.930 . S
H2462 C2430 0.929 . S
H2463 C2431 0.930 . S
Li2464 N2481 1.990 . S
Li2464 O2524 1.956 . S
Li2464 O2525 1.970 . S
Li2464 O2526 1.961 . S
Li2465 N2489 1.990 . S
Li2465 O2524 1.970 . S
Li2465 O2525 1.956 . S
Li2465 O2527 1.961 . S
Li2466 N2511 1.990 . S
Li2466 O2524 1.961 . S
Li2466 O2526 1.956 . S
Li2466 O2527 1.970 . S
Li2467 N2517 1.990 . S
Li2467 O2525 1.961 . S
Li2467 O2526 1.970 . S
Li2467 O2527 1.956 . S
C2468 C2470 1.348 . S
C2468 C2471 1.356 . S
C2468 O2524 1.325 . S
N2469 C2472 1.314 . S
N2469 C2473 1.279 . S
C2470 C2468 1.348 . S
C2470 C2472 1.353 . S
C2470 H2528 0.929 . S
C2471 C2468 1.356 . S
C2471 C2473 1.358 . S
C2471 H2529 0.930 . S
C2472 N2469 1.314 . S
C2472 C2470 1.353 . S
C2472 H2530 0.930 . S
C2473 N2469 1.279 . S
C2473 C2471 1.358 . S
C2473 H2531 0.930 . S
C2474 C2477 1.348 . S
C2474 C2478 1.356 . S
C2474 O2525 1.325 . S
C2475 N2476 1.279 . S
C2475 C2478 1.358 . S
C2475 H2532 0.930 . S
N2476 C2475 1.279 . S
N2476 C2479 1.314 . S
C2477 C2474 1.348 . S
C2477 C2479 1.353 . S
C2477 H2533 0.929 . S
C2478 C2474 1.356 . S
C2478 C2475 1.358 . S
C2478 H2534 0.930 . S
C2479 N2476 1.314 . S
C2479 C2477 1.353 . S
C2479 H2535 0.930 . S
C2480 N2481 1.314 . S
C2480 C2485 1.353 . S
C2480 H2486 0.930 . S
N2481 Li2464 1.990 . S
N2481 C2480 1.314 . S
N2481 C2483 1.279 . S
C2482 C2483 1.358 . S
C2482 C2484 1.356 . S
C2482 H2536 0.930 . S
C2483 N2481 1.279 . S
C2483 C2482 1.358 . S
C2483 H2487 0.930 . S
C2484 C2482 1.356 . S
C2484 C2485 1.348 . S
C2485 C2480 1.353 . S
C2485 C2484 1.348 . S
C2485 H2537 0.929 . S
H2486 C2480 0.930 . S
H2487 C2483 0.930 . S
C2488 N2489 1.314 . S
C2488 C2490 1.353 . S
C2488 H2494 0.930 . S
N2489 Li2465 1.990 . S
N2489 C2488 1.314 . S
N2489 C2492 1.279 . S
C2490 C2488 1.353 . S
C2490 C2493 1.348 . S
C2490 H2538 0.929 . S
C2491 C2492 1.358 . S
C2491 C2493 1.356 . S
C2491 H2539 0.930 . S
C2492 N2489 1.279 . S
C2492 C2491 1.358 . S
C2492 H2495 0.930 . S
C2493 C2490 1.348 . S
C2493 C2491 1.356 . S
H2494 C2488 0.930 . S
H2495 C2492 0.930 . S
C2496 C2498 1.348 . S
C2496 C2499 1.356 . S
C2496 O2526 1.325 . S
N2497 C2500 1.314 . S
N2497 C2501 1.279 . S
C2498 C2496 1.348 . S
C2498 C2500 1.353 . S
C2498 H2540 0.929 . S
C2499 C2496 1.356 . S
C2499 C2501 1.358 . S
C2499 H2541 0.930 . S
C2500 N2497 1.314 . S
C2500 C2498 1.353 . S
C2500 H2542 0.930 . S
C2501 N2497 1.279 . S
C2501 C2499 1.358 . S
C2501 H2543 0.930 . S
C2502 C2503 1.348 . S
C2502 C2504 1.356 . S
C2502 O2527 1.325 . S
C2503 C2502 1.348 . S
C2503 C2505 1.353 . S
C2503 H2544 0.929 . S
C2504 C2502 1.356 . S
C2504 C2506 1.358 . S
C2504 H2545 0.930 . S
C2505 C2503 1.353 . S
C2505 N2507 1.314 . S
C2505 H2546 0.930 . S
C2506 C2504 1.358 . S
C2506 N2507 1.279 . S
C2506 H2547 0.930 . S
N2507 C2505 1.314 . S
N2507 C2506 1.279 . S
C2508 C2510 1.353 . S
C2508 N2511 1.314 . S
C2508 H2514 0.930 . S
C2509 N2511 1.279 . S
C2509 C2512 1.358 . S
C2509 H2515 0.930 . S
C2510 C2508 1.353 . S
C2510 C2513 1.348 . S
C2510 H2548 0.929 . S
N2511 Li2466 1.990 . S
N2511 C2508 1.314 . S
N2511 C2509 1.279 . S
C2512 C2509 1.358 . S
C2512 C2513 1.356 . S
C2512 H2549 0.930 . S
C2513 C2510 1.348 . S
C2513 C2512 1.356 . S
H2514 C2508 0.930 . S
H2515 C2509 0.930 . S
C2516 N2517 1.314 . S
C2516 C2518 1.353 . S
C2516 H2522 0.930 . S
N2517 Li2467 1.990 . S
N2517 C2516 1.314 . S
N2517 C2520 1.279 . S
C2518 C2516 1.353 . S
C2518 C2521 1.348 . S
C2518 H2550 0.929 . S
C2519 C2520 1.358 . S
C2519 C2521 1.356 . S
C2519 H2551 0.930 . S
C2520 N2517 1.279 . S
C2520 C2519 1.358 . S
C2520 H2523 0.930 . S
C2521 C2518 1.348 . S
C2521 C2519 1.356 . S
H2522 C2516 0.930 . S
H2523 C2520 0.930 . S
O2524 Li2464 1.956 . S
O2524 Li2465 1.970 . S
O2524 Li2466 1.961 . S
O2524 C2468 1.325 . S
O2525 Li2464 1.970 . S
O2525 Li2465 1.956 . S
O2525 Li2467 1.961 . S
O2525 C2474 1.325 . S
O2526 Li2464 1.961 . S
O2526 Li2466 1.956 . S
O2526 Li2467 1.970 . S
O2526 C2496 1.325 . S
O2527 Li2465 1.961 . S
O2527 Li2466 1.970 . S
O2527 Li2467 1.956 . S
O2527 C2502 1.325 . S
H2528 C2470 0.929 . S
H2529 C2471 0.930 . S
H2530 C2472 0.930 . S
H2531 C2473 0.930 . S
H2532 C2475 0.930 . S
H2533 C2477 0.929 . S
H2534 C2478 0.930 . S
H2535 C2479 0.930 . S
H2536 C2482 0.930 . S
H2537 C2485 0.929 . S
H2538 C2490 0.929 . S
H2539 C2491 0.930 . S
H2540 C2498 0.929 . S
H2541 C2499 0.930 . S
H2542 C2500 0.930 . S
H2543 C2501 0.930 . S
H2544 C2503 0.929 . S
H2545 C2504 0.930 . S
H2546 C2505 0.930 . S
H2547 C2506 0.930 . S
H2548 C2510 0.929 . S
H2549 C2512 0.930 . S
H2550 C2518 0.929 . S
H2551 C2519 0.930 . S
Li2552 N2569 1.990 . S
Li2552 O2612 1.956 . S
Li2552 O2613 1.970 . S
Li2552 O2614 1.961 . S
Li2553 N2577 1.990 . S
Li2553 O2612 1.970 . S
Li2553 O2613 1.956 . S
Li2553 O2615 1.961 . S
Li2554 N2599 1.990 . S
Li2554 O2612 1.961 . S
Li2554 O2614 1.956 . S
Li2554 O2615 1.970 . S
Li2555 N2605 1.990 1_455 S
Li2555 O2613 1.961 . S
Li2555 O2614 1.970 . S
Li2555 O2615 1.956 . S
C2556 C2558 1.348 . S
C2556 C2559 1.356 . S
C2556 O2612 1.325 . S
N2557 C2560 1.314 . S
N2557 C2561 1.279 . S
C2558 C2556 1.348 . S
C2558 C2560 1.353 . S
C2558 H2616 0.929 . S
C2559 C2556 1.356 . S
C2559 C2561 1.358 . S
C2559 H2617 0.930 . S
C2560 N2557 1.314 . S
C2560 C2558 1.353 . S
C2560 H2618 0.930 . S
C2561 N2557 1.279 . S
C2561 C2559 1.358 . S
C2561 H2619 0.930 . S
C2562 C2565 1.348 . S
C2562 C2566 1.356 . S
C2562 O2613 1.325 . S
C2563 N2564 1.279 . S
C2563 C2566 1.358 . S
C2563 H2620 0.930 . S
N2564 C2563 1.279 . S
N2564 C2567 1.314 . S
C2565 C2562 1.348 . S
C2565 C2567 1.353 . S
C2565 H2621 0.929 . S
C2566 C2562 1.356 . S
C2566 C2563 1.358 . S
C2566 H2622 0.930 . S
C2567 N2564 1.314 . S
C2567 C2565 1.353 . S
C2567 H2623 0.930 . S
C2568 N2569 1.314 . S
C2568 C2573 1.353 . S
C2568 H2574 0.930 . S
N2569 Li2552 1.990 . S
N2569 C2568 1.314 . S
N2569 C2571 1.279 . S
C2570 C2571 1.358 . S
C2570 C2572 1.356 . S
C2570 H2624 0.930 . S
C2571 N2569 1.279 . S
C2571 C2570 1.358 . S
C2571 H2575 0.930 . S
C2572 C2570 1.356 . S
C2572 C2573 1.348 . S
C2573 C2568 1.353 . S
C2573 C2572 1.348 . S
C2573 H2625 0.929 . S
H2574 C2568 0.930 . S
H2575 C2571 0.930 . S
C2576 N2577 1.314 . S
C2576 C2578 1.353 . S
C2576 H2582 0.930 . S
N2577 Li2553 1.990 . S
N2577 C2576 1.314 . S
N2577 C2580 1.279 . S
C2578 C2576 1.353 . S
C2578 C2581 1.348 . S
C2578 H2626 0.929 . S
C2579 C2580 1.358 . S
C2579 C2581 1.356 . S
C2579 H2627 0.930 . S
C2580 N2577 1.279 . S
C2580 C2579 1.358 . S
C2580 H2583 0.930 . S
C2581 C2578 1.348 . S
C2581 C2579 1.356 . S
H2582 C2576 0.930 . S
H2583 C2580 0.930 . S
C2584 C2586 1.348 1_455 S
C2584 C2587 1.356 . S
C2584 O2614 1.325 . S
N2585 C2588 1.314 . S
N2585 C2589 1.279 1_655 S
C2586 C2584 1.348 1_655 S
C2586 C2588 1.353 . S
C2586 H2628 0.929 . S
C2587 C2584 1.356 . S
C2587 C2589 1.358 . S
C2587 H2629 0.930 . S
C2588 N2585 1.314 . S
C2588 C2586 1.353 . S
C2588 H2630 0.930 . S
C2589 N2585 1.279 1_455 S
C2589 C2587 1.358 . S
C2589 H2631 0.930 . S
C2590 C2591 1.348 1_455 S
C2590 C2592 1.356 1_455 S
C2590 O2615 1.325 . S
C2591 C2590 1.348 1_655 S
C2591 C2593 1.353 . S
C2591 H2632 0.929 . S
C2592 C2590 1.356 1_655 S
C2592 C2594 1.358 . S
C2592 H2633 0.930 1_655 S
C2593 C2591 1.353 . S
C2593 N2595 1.314 . S
C2593 H2634 0.930 . S
C2594 C2592 1.358 . S
C2594 N2595 1.279 . S
C2594 H2635 0.930 . S
N2595 C2593 1.314 . S
N2595 C2594 1.279 . S
C2596 C2598 1.353 . S
C2596 N2599 1.314 . S
C2596 H2602 0.930 . S
C2597 N2599 1.279 . S
C2597 C2600 1.358 . S
C2597 H2603 0.930 . S
C2598 C2596 1.353 . S
C2598 C2601 1.348 . S
C2598 H2636 0.929 . S
N2599 Li2554 1.990 . S
N2599 C2596 1.314 . S
N2599 C2597 1.279 . S
C2600 C2597 1.358 . S
C2600 C2601 1.356 . S
C2600 H2637 0.930 . S
C2601 C2598 1.348 . S
C2601 C2600 1.356 . S
H2602 C2596 0.930 . S
H2603 C2597 0.930 . S
C2604 N2605 1.314 . S
C2604 C2606 1.353 . S
C2604 H2610 0.930 . S
N2605 Li2555 1.990 1_655 S
N2605 C2604 1.314 . S
N2605 C2608 1.279 . S
C2606 C2604 1.353 . S
C2606 C2609 1.348 . S
C2606 H2638 0.929 . S
C2607 C2608 1.358 . S
C2607 C2609 1.356 . S
C2607 H2639 0.930 . S
C2608 N2605 1.279 . S
C2608 C2607 1.358 . S
C2608 H2611 0.930 . S
C2609 C2606 1.348 . S
C2609 C2607 1.356 . S
H2610 C2604 0.930 . S
H2611 C2608 0.930 . S
O2612 Li2552 1.956 . S
O2612 Li2553 1.970 . S
O2612 Li2554 1.961 . S
O2612 C2556 1.325 . S
O2613 Li2552 1.970 . S
O2613 Li2553 1.956 . S
O2613 Li2555 1.961 . S
O2613 C2562 1.325 . S
O2614 Li2552 1.961 . S
O2614 Li2554 1.956 . S
O2614 Li2555 1.970 . S
O2614 C2584 1.325 . S
O2615 Li2553 1.961 . S
O2615 Li2554 1.970 . S
O2615 Li2555 1.956 . S
O2615 C2590 1.325 . S
H2616 C2558 0.929 . S
H2617 C2559 0.930 . S
H2618 C2560 0.930 . S
H2619 C2561 0.930 . S
H2620 C2563 0.930 . S
H2621 C2565 0.929 . S
H2622 C2566 0.930 . S
H2623 C2567 0.930 . S
H2624 C2570 0.930 . S
H2625 C2573 0.929 . S
H2626 C2578 0.929 . S
H2627 C2579 0.930 . S
H2628 C2586 0.929 . S
H2629 C2587 0.930 . S
H2630 C2588 0.930 . S
H2631 C2589 0.930 . S
H2632 C2591 0.929 . S
H2633 C2592 0.930 1_455 S
H2634 C2593 0.930 . S
H2635 C2594 0.930 . S
H2636 C2598 0.929 . S
H2637 C2600 0.930 . S
H2638 C2606 0.929 . S
H2639 C2607 0.930 . S
Li2640 N2657 1.990 . S
Li2640 O2700 1.956 . S
Li2640 O2701 1.970 . S
Li2640 O2702 1.961 . S
Li2641 N2665 1.990 . S
Li2641 O2700 1.970 . S
Li2641 O2701 1.956 . S
Li2641 O2703 1.961 . S
Li2642 N2687 1.990 . S
Li2642 O2700 1.961 . S
Li2642 O2702 1.956 . S
Li2642 O2703 1.970 . S
Li2643 N2693 1.990 . S
Li2643 O2701 1.961 . S
Li2643 O2702 1.970 . S
Li2643 O2703 1.956 . S
C2644 C2646 1.348 . S
C2644 C2647 1.356 . S
C2644 O2700 1.325 . S
N2645 C2648 1.314 . S
N2645 C2649 1.279 . S
C2646 C2644 1.348 . S
C2646 C2648 1.353 . S
C2646 H2704 0.929 . S
C2647 C2644 1.356 . S
C2647 C2649 1.358 . S
C2647 H2705 0.930 . S
C2648 N2645 1.314 . S
C2648 C2646 1.353 . S
C2648 H2706 0.930 . S
C2649 N2645 1.279 . S
C2649 C2647 1.358 . S
C2649 H2707 0.930 . S
C2650 C2653 1.348 . S
C2650 C2654 1.356 . S
C2650 O2701 1.325 . S
C2651 N2652 1.279 . S
C2651 C2654 1.358 . S
C2651 H2708 0.930 . S
N2652 C2651 1.279 . S
N2652 C2655 1.314 . S
C2653 C2650 1.348 . S
C2653 C2655 1.353 . S
C2653 H2709 0.929 . S
C2654 C2650 1.356 . S
C2654 C2651 1.358 . S
C2654 H2710 0.930 . S
C2655 N2652 1.314 . S
C2655 C2653 1.353 . S
C2655 H2711 0.930 . S
C2656 N2657 1.314 . S
C2656 C2661 1.353 . S
C2656 H2662 0.930 . S
N2657 Li2640 1.990 . S
N2657 C2656 1.314 . S
N2657 C2659 1.279 . S
C2658 C2659 1.358 . S
C2658 C2660 1.356 . S
C2658 H2712 0.930 . S
C2659 N2657 1.279 . S
C2659 C2658 1.358 . S
C2659 H2663 0.930 . S
C2660 C2658 1.356 . S
C2660 C2661 1.348 . S
C2661 C2656 1.353 . S
C2661 C2660 1.348 . S
C2661 H2713 0.929 . S
H2662 C2656 0.930 . S
H2663 C2659 0.930 . S
C2664 N2665 1.314 . S
C2664 C2666 1.353 . S
C2664 H2670 0.930 . S
N2665 Li2641 1.990 . S
N2665 C2664 1.314 . S
N2665 C2668 1.279 . S
C2666 C2664 1.353 . S
C2666 C2669 1.348 . S
C2666 H2714 0.929 . S
C2667 C2668 1.358 . S
C2667 C2669 1.356 . S
C2667 H2715 0.930 . S
C2668 N2665 1.279 . S
C2668 C2667 1.358 . S
C2668 H2671 0.930 . S
C2669 C2666 1.348 . S
C2669 C2667 1.356 . S
H2670 C2664 0.930 . S
H2671 C2668 0.930 . S
C2672 C2674 1.348 . S
C2672 C2675 1.356 . S
C2672 O2702 1.325 . S
N2673 C2676 1.314 . S
N2673 C2677 1.279 . S
C2674 C2672 1.348 . S
C2674 C2676 1.353 . S
C2674 H2716 0.929 . S
C2675 C2672 1.356 . S
C2675 C2677 1.358 . S
C2675 H2717 0.930 . S
C2676 N2673 1.314 . S
C2676 C2674 1.353 . S
C2676 H2718 0.930 . S
C2677 N2673 1.279 . S
C2677 C2675 1.358 . S
C2677 H2719 0.930 . S
C2678 C2679 1.348 . S
C2678 C2680 1.356 . S
C2678 O2703 1.325 . S
C2679 C2678 1.348 . S
C2679 C2681 1.353 . S
C2679 H2720 0.929 . S
C2680 C2678 1.356 . S
C2680 C2682 1.358 . S
C2680 H2721 0.930 . S
C2681 C2679 1.353 . S
C2681 N2683 1.314 . S
C2681 H2722 0.930 . S
C2682 C2680 1.358 . S
C2682 N2683 1.279 . S
C2682 H2723 0.930 . S
N2683 C2681 1.314 . S
N2683 C2682 1.279 . S
C2684 C2686 1.353 . S
C2684 N2687 1.314 . S
C2684 H2690 0.930 . S
C2685 N2687 1.279 . S
C2685 C2688 1.358 . S
C2685 H2691 0.930 . S
C2686 C2684 1.353 . S
C2686 C2689 1.348 . S
C2686 H2724 0.929 . S
N2687 Li2642 1.990 . S
N2687 C2684 1.314 . S
N2687 C2685 1.279 . S
C2688 C2685 1.358 . S
C2688 C2689 1.356 . S
C2688 H2725 0.930 . S
C2689 C2686 1.348 . S
C2689 C2688 1.356 . S
H2690 C2684 0.930 . S
H2691 C2685 0.930 . S
C2692 N2693 1.314 . S
C2692 C2694 1.353 . S
C2692 H2698 0.930 . S
N2693 Li2643 1.990 . S
N2693 C2692 1.314 . S
N2693 C2696 1.279 . S
C2694 C2692 1.353 . S
C2694 C2697 1.348 . S
C2694 H2726 0.929 . S
C2695 C2696 1.358 . S
C2695 C2697 1.356 . S
C2695 H2727 0.930 . S
C2696 N2693 1.279 . S
C2696 C2695 1.358 . S
C2696 H2699 0.930 . S
C2697 C2694 1.348 . S
C2697 C2695 1.356 . S
H2698 C2692 0.930 . S
H2699 C2696 0.930 . S
O2700 Li2640 1.956 . S
O2700 Li2641 1.970 . S
O2700 Li2642 1.961 . S
O2700 C2644 1.325 . S
O2701 Li2640 1.970 . S
O2701 Li2641 1.956 . S
O2701 Li2643 1.961 . S
O2701 C2650 1.325 . S
O2702 Li2640 1.961 . S
O2702 Li2642 1.956 . S
O2702 Li2643 1.970 . S
O2702 C2672 1.325 . S
O2703 Li2641 1.961 . S
O2703 Li2642 1.970 . S
O2703 Li2643 1.956 . S
O2703 C2678 1.325 . S
H2704 C2646 0.929 . S
H2705 C2647 0.930 . S
H2706 C2648 0.930 . S
H2707 C2649 0.930 . S
H2708 C2651 0.930 . S
H2709 C2653 0.929 . S
H2710 C2654 0.930 . S
H2711 C2655 0.930 . S
H2712 C2658 0.930 . S
H2713 C2661 0.929 . S
H2714 C2666 0.929 . S
H2715 C2667 0.930 . S
H2716 C2674 0.929 . S
H2717 C2675 0.930 . S
H2718 C2676 0.930 . S
H2719 C2677 0.930 . S
H2720 C2679 0.929 . S
H2721 C2680 0.930 . S
H2722 C2681 0.930 . S
H2723 C2682 0.930 . S
H2724 C2686 0.929 . S
H2725 C2688 0.930 . S
H2726 C2694 0.929 . S
H2727 C2695 0.930 . S
Li2728 N2745 1.990 . S
Li2728 O2788 1.956 . S
Li2728 O2789 1.970 . S
Li2728 O2790 1.961 . S
Li2729 N2753 1.990 . S
Li2729 O2788 1.970 . S
Li2729 O2789 1.956 . S
Li2729 O2791 1.961 . S
Li2730 N2775 1.990 . S
Li2730 O2788 1.961 . S
Li2730 O2790 1.956 . S
Li2730 O2791 1.970 . S
Li2731 N2781 1.990 . S
Li2731 O2789 1.961 . S
Li2731 O2790 1.970 . S
Li2731 O2791 1.956 . S
C2732 C2734 1.348 . S
C2732 C2735 1.356 . S
C2732 O2788 1.325 . S
N2733 C2736 1.314 . S
N2733 C2737 1.279 . S
C2734 C2732 1.348 . S
C2734 C2736 1.353 . S
C2734 H2792 0.929 . S
C2735 C2732 1.356 . S
C2735 C2737 1.358 . S
C2735 H2793 0.930 . S
C2736 N2733 1.314 . S
C2736 C2734 1.353 . S
C2736 H2794 0.930 . S
C2737 N2733 1.279 . S
C2737 C2735 1.358 . S
C2737 H2795 0.930 . S
C2738 C2741 1.348 . S
C2738 C2742 1.356 . S
C2738 O2789 1.325 . S
C2739 N2740 1.279 . S
C2739 C2742 1.358 . S
C2739 H2796 0.930 . S
N2740 C2739 1.279 . S
N2740 C2743 1.314 . S
C2741 C2738 1.348 . S
C2741 C2743 1.353 . S
C2741 H2797 0.929 . S
C2742 C2738 1.356 . S
C2742 C2739 1.358 . S
C2742 H2798 0.930 . S
C2743 N2740 1.314 . S
C2743 C2741 1.353 . S
C2743 H2799 0.930 . S
C2744 N2745 1.314 . S
C2744 C2749 1.353 . S
C2744 H2750 0.930 . S
N2745 Li2728 1.990 . S
N2745 C2744 1.314 . S
N2745 C2747 1.279 . S
C2746 C2747 1.358 . S
C2746 C2748 1.356 . S
C2746 H2800 0.930 . S
C2747 N2745 1.279 . S
C2747 C2746 1.358 . S
C2747 H2751 0.930 . S
C2748 C2746 1.356 . S
C2748 C2749 1.348 . S
C2749 C2744 1.353 . S
C2749 C2748 1.348 . S
C2749 H2801 0.929 . S
H2750 C2744 0.930 . S
H2751 C2747 0.930 . S
C2752 N2753 1.314 . S
C2752 C2754 1.353 . S
C2752 H2758 0.930 . S
N2753 Li2729 1.990 . S
N2753 C2752 1.314 . S
N2753 C2756 1.279 . S
C2754 C2752 1.353 . S
C2754 C2757 1.348 . S
C2754 H2802 0.929 . S
C2755 C2756 1.358 . S
C2755 C2757 1.356 . S
C2755 H2803 0.930 . S
C2756 N2753 1.279 . S
C2756 C2755 1.358 . S
C2756 H2759 0.930 . S
C2757 C2754 1.348 . S
C2757 C2755 1.356 . S
H2758 C2752 0.930 . S
H2759 C2756 0.930 . S
C2760 C2762 1.348 . S
C2760 C2763 1.356 . S
C2760 O2790 1.325 . S
N2761 C2764 1.314 . S
N2761 C2765 1.279 . S
C2762 C2760 1.348 . S
C2762 C2764 1.353 . S
C2762 H2804 0.929 . S
C2763 C2760 1.356 . S
C2763 C2765 1.358 . S
C2763 H2805 0.930 . S
C2764 N2761 1.314 . S
C2764 C2762 1.353 . S
C2764 H2806 0.930 . S
C2765 N2761 1.279 . S
C2765 C2763 1.358 . S
C2765 H2807 0.930 . S
C2766 C2767 1.348 . S
C2766 C2768 1.356 . S
C2766 O2791 1.325 . S
C2767 C2766 1.348 . S
C2767 C2769 1.353 . S
C2767 H2808 0.929 . S
C2768 C2766 1.356 . S
C2768 C2770 1.358 . S
C2768 H2809 0.930 . S
C2769 C2767 1.353 . S
C2769 N2771 1.314 . S
C2769 H2810 0.930 . S
C2770 C2768 1.358 . S
C2770 N2771 1.279 . S
C2770 H2811 0.930 . S
N2771 C2769 1.314 . S
N2771 C2770 1.279 . S
C2772 C2774 1.353 . S
C2772 N2775 1.314 . S
C2772 H2778 0.930 . S
C2773 N2775 1.279 . S
C2773 C2776 1.358 . S
C2773 H2779 0.930 . S
C2774 C2772 1.353 . S
C2774 C2777 1.348 . S
C2774 H2812 0.929 . S
N2775 Li2730 1.990 . S
N2775 C2772 1.314 . S
N2775 C2773 1.279 . S
C2776 C2773 1.358 . S
C2776 C2777 1.356 . S
C2776 H2813 0.930 . S
C2777 C2774 1.348 . S
C2777 C2776 1.356 . S
H2778 C2772 0.930 . S
H2779 C2773 0.930 . S
C2780 N2781 1.314 . S
C2780 C2782 1.353 . S
C2780 H2786 0.930 . S
N2781 Li2731 1.990 . S
N2781 C2780 1.314 . S
N2781 C2784 1.279 . S
C2782 C2780 1.353 . S
C2782 C2785 1.348 . S
C2782 H2814 0.929 . S
C2783 C2784 1.358 . S
C2783 C2785 1.356 . S
C2783 H2815 0.930 . S
C2784 N2781 1.279 . S
C2784 C2783 1.358 . S
C2784 H2787 0.930 . S
C2785 C2782 1.348 . S
C2785 C2783 1.356 . S
H2786 C2780 0.930 . S
H2787 C2784 0.930 . S
O2788 Li2728 1.956 . S
O2788 Li2729 1.970 . S
O2788 Li2730 1.961 . S
O2788 C2732 1.325 . S
O2789 Li2728 1.970 . S
O2789 Li2729 1.956 . S
O2789 Li2731 1.961 . S
O2789 C2738 1.325 . S
O2790 Li2728 1.961 . S
O2790 Li2730 1.956 . S
O2790 Li2731 1.970 . S
O2790 C2760 1.325 . S
O2791 Li2729 1.961 . S
O2791 Li2730 1.970 . S
O2791 Li2731 1.956 . S
O2791 C2766 1.325 . S
H2792 C2734 0.929 . S
H2793 C2735 0.930 . S
H2794 C2736 0.930 . S
H2795 C2737 0.930 . S
H2796 C2739 0.930 . S
H2797 C2741 0.929 . S
H2798 C2742 0.930 . S
H2799 C2743 0.930 . S
H2800 C2746 0.930 . S
H2801 C2749 0.929 . S
H2802 C2754 0.929 . S
H2803 C2755 0.930 . S
H2804 C2762 0.929 . S
H2805 C2763 0.930 . S
H2806 C2764 0.930 . S
H2807 C2765 0.930 . S
H2808 C2767 0.929 . S
H2809 C2768 0.930 . S
H2810 C2769 0.930 . S
H2811 C2770 0.930 . S
H2812 C2774 0.929 . S
H2813 C2776 0.930 . S
H2814 C2782 0.929 . S
H2815 C2783 0.930 . S
C2816 C2817 1.387 . S
C2816 H2820 0.950 . S
C2816 C2825 1.390 . S
C2817 C2816 1.387 . S
C2817 C2819 1.387 . S
H2818 C2825 0.950 . S
C2819 C2817 1.387 . S
C2819 C2821 1.390 . S
C2819 H2823 0.950 . S
H2820 C2816 0.950 . S
C2821 C2819 1.390 . S
C2821 C2822 1.387 . S
C2821 H2824 0.950 . S
C2822 C2821 1.387 . S
C2822 C2825 1.387 . S
H2823 C2819 0.950 . S
H2824 C2821 0.950 . S
C2825 C2816 1.390 . S
C2825 H2818 0.950 . S
C2825 C2822 1.387 . S
C2826 C2827 1.387 . S
C2826 H2830 0.950 . S
C2826 C2835 1.390 . S
C2827 C2826 1.387 . S
C2827 C2829 1.387 . S
H2828 C2835 0.950 . S
C2829 C2827 1.387 . S
C2829 C2831 1.390 . S
C2829 H2833 0.950 . S
H2830 C2826 0.950 . S
C2831 C2829 1.390 . S
C2831 C2832 1.387 . S
C2831 H2834 0.950 . S
C2832 C2831 1.387 . S
C2832 C2835 1.387 . S
H2833 C2829 0.950 . S
H2834 C2831 0.950 . S
C2835 C2826 1.390 . S
C2835 H2828 0.950 . S
C2835 C2832 1.387 . S
C2836 C2837 1.387 . S
C2836 H2840 0.950 . S
C2836 C2845 1.390 . S
C2837 C2836 1.387 . S
C2837 C2839 1.387 . S
H2838 C2845 0.950 . S
C2839 C2837 1.387 . S
C2839 C2841 1.390 . S
C2839 H2843 0.950 . S
H2840 C2836 0.950 . S
C2841 C2839 1.390 . S
C2841 C2842 1.387 . S
C2841 H2844 0.950 . S
C2842 C2841 1.387 . S
C2842 C2845 1.387 . S
H2843 C2839 0.950 . S
H2844 C2841 0.950 . S
C2845 C2836 1.390 . S
C2845 H2838 0.950 . S
C2845 C2842 1.387 . S
C2846 C2847 1.387 . S
C2846 H2850 0.950 . S
C2846 C2855 1.390 . S
C2847 C2846 1.387 . S
C2847 C2849 1.387 . S
H2848 C2855 0.950 . S
C2849 C2847 1.387 . S
C2849 C2851 1.390 . S
C2849 H2853 0.950 . S
H2850 C2846 0.950 . S
C2851 C2849 1.390 . S
C2851 C2852 1.387 . S
C2851 H2854 0.950 . S
C2852 C2851 1.387 . S
C2852 C2855 1.387 . S
H2853 C2849 0.950 . S
H2854 C2851 0.950 . S
C2855 C2846 1.390 . S
C2855 H2848 0.950 . S
C2855 C2852 1.387 . S
C2856 C2857 1.387 . S
C2856 H2860 0.950 . S
C2856 C2865 1.390 . S
C2857 C2856 1.387 . S
C2857 C2859 1.387 . S
H2858 C2865 0.950 . S
C2859 C2857 1.387 . S
C2859 C2861 1.390 . S
C2859 H2863 0.950 . S
H2860 C2856 0.950 . S
C2861 C2859 1.390 . S
C2861 C2862 1.387 . S
C2861 H2864 0.950 . S
C2862 C2861 1.387 . S
C2862 C2865 1.387 . S
H2863 C2859 0.950 . S
H2864 C2861 0.950 . S
C2865 C2856 1.390 . S
C2865 H2858 0.950 . S
C2865 C2862 1.387 . S
C2866 C2867 1.387 . S
C2866 H2870 0.950 . S
C2866 C2875 1.390 . S
C2867 C2866 1.387 . S
C2867 C2869 1.387 . S
H2868 C2875 0.950 . S
C2869 C2867 1.387 . S
C2869 C2871 1.390 . S
C2869 H2873 0.950 . S
H2870 C2866 0.950 . S
C2871 C2869 1.390 . S
C2871 C2872 1.387 . S
C2871 H2874 0.950 . S
C2872 C2871 1.387 . S
C2872 C2875 1.387 . S
H2873 C2869 0.950 . S
H2874 C2871 0.950 . S
C2875 C2866 1.390 . S
C2875 H2868 0.950 . S
C2875 C2872 1.387 . S
C2876 C2877 1.387 . S
C2876 H2880 0.950 . S
C2876 C2885 1.390 . S
C2877 C2876 1.387 . S
C2877 C2879 1.387 . S
H2878 C2885 0.950 . S
C2879 C2877 1.387 . S
C2879 C2881 1.390 . S
C2879 H2883 0.950 . S
H2880 C2876 0.950 . S
C2881 C2879 1.390 . S
C2881 C2882 1.387 . S
C2881 H2884 0.950 . S
C2882 C2881 1.387 . S
C2882 C2885 1.387 . S
H2883 C2879 0.950 . S
H2884 C2881 0.950 . S
C2885 C2876 1.390 . S
C2885 H2878 0.950 . S
C2885 C2882 1.387 . S
C2886 C2887 1.387 . S
C2886 H2890 0.950 . S
C2886 C2895 1.390 . S
C2887 C2886 1.387 . S
C2887 C2889 1.387 . S
H2888 C2895 0.950 . S
C2889 C2887 1.387 . S
C2889 C2891 1.390 . S
C2889 H2893 0.950 . S
H2890 C2886 0.950 . S
C2891 C2889 1.390 . S
C2891 C2892 1.387 . S
C2891 H2894 0.950 . S
C2892 C2891 1.387 . S
C2892 C2895 1.387 . S
H2893 C2889 0.950 . S
H2894 C2891 0.950 . S
C2895 C2886 1.390 . S
C2895 H2888 0.950 . S
C2895 C2892 1.387 . S
C2896 C2897 1.387 . S
C2896 H2900 0.950 . S
C2896 C2905 1.390 . S
C2897 C2896 1.387 . S
C2897 C2899 1.387 . S
H2898 C2905 0.950 . S
C2899 C2897 1.387 . S
C2899 C2901 1.390 . S
C2899 H2903 0.950 . S
H2900 C2896 0.950 . S
C2901 C2899 1.390 . S
C2901 C2902 1.387 . S
C2901 H2904 0.950 . S
C2902 C2901 1.387 . S
C2902 C2905 1.387 . S
H2903 C2899 0.950 . S
H2904 C2901 0.950 . S
C2905 C2896 1.390 . S
C2905 H2898 0.950 . S
C2905 C2902 1.387 . S
C2906 C2907 1.387 . S
C2906 H2910 0.950 . S
C2906 C2915 1.390 . S
C2907 C2906 1.387 . S
C2907 C2909 1.387 . S
H2908 C2915 0.950 . S
C2909 C2907 1.387 . S
C2909 C2911 1.390 . S
C2909 H2913 0.950 . S
H2910 C2906 0.950 . S
C2911 C2909 1.390 . S
C2911 C2912 1.387 . S
C2911 H2914 0.950 . S
C2912 C2911 1.387 . S
C2912 C2915 1.387 . S
H2913 C2909 0.950 . S
H2914 C2911 0.950 . S
C2915 C2906 1.390 . S
C2915 H2908 0.950 . S
C2915 C2912 1.387 . S
C2916 C2917 1.387 . S
C2916 H2920 0.950 . S
C2916 C2925 1.390 . S
C2917 C2916 1.387 . S
C2917 C2919 1.387 . S
H2918 C2925 0.950 . S
C2919 C2917 1.387 . S
C2919 C2921 1.390 . S
C2919 H2923 0.950 . S
H2920 C2916 0.950 . S
C2921 C2919 1.390 . S
C2921 C2922 1.387 . S
C2921 H2924 0.950 . S
C2922 C2921 1.387 . S
C2922 C2925 1.387 . S
H2923 C2919 0.950 . S
H2924 C2921 0.950 . S
C2925 C2916 1.390 . S
C2925 H2918 0.950 . S
C2925 C2922 1.387 . S
C2926 C2927 1.387 . S
C2926 H2930 0.950 . S
C2926 C2935 1.390 . S
C2927 C2926 1.387 . S
C2927 C2929 1.387 . S
H2928 C2935 0.950 . S
C2929 C2927 1.387 . S
C2929 C2931 1.390 . S
C2929 H2933 0.950 . S
H2930 C2926 0.950 . S
C2931 C2929 1.390 . S
C2931 C2932 1.387 . S
C2931 H2934 0.950 . S
C2932 C2931 1.387 . S
C2932 C2935 1.387 . S
H2933 C2929 0.950 . S
H2934 C2931 0.950 . S
C2935 C2926 1.390 . S
C2935 H2928 0.950 . S
C2935 C2932 1.387 . S
C2936 C2937 1.387 . S
C2936 H2940 0.950 . S
C2936 C2945 1.390 . S
C2937 C2936 1.387 . S
C2937 C2939 1.387 . S
H2938 C2945 0.950 . S
C2939 C2937 1.387 . S
C2939 C2941 1.390 . S
C2939 H2943 0.950 . S
H2940 C2936 0.950 . S
C2941 C2939 1.390 . S
C2941 C2942 1.387 . S
C2941 H2944 0.950 . S
C2942 C2941 1.387 . S
C2942 C2945 1.387 . S
H2943 C2939 0.950 . S
H2944 C2941 0.950 . S
C2945 C2936 1.390 . S
C2945 H2938 0.950 . S
C2945 C2942 1.387 . S
C2946 C2947 1.387 . S
C2946 H2950 0.950 . S
C2946 C2955 1.390 . S
C2947 C2946 1.387 . S
C2947 C2949 1.387 . S
H2948 C2955 0.950 . S
C2949 C2947 1.387 . S
C2949 C2951 1.390 . S
C2949 H2953 0.950 . S
H2950 C2946 0.950 . S
C2951 C2949 1.390 . S
C2951 C2952 1.387 . S
C2951 H2954 0.950 . S
C2952 C2951 1.387 . S
C2952 C2955 1.387 . S
H2953 C2949 0.950 . S
H2954 C2951 0.950 . S
C2955 C2946 1.390 . S
C2955 H2948 0.950 . S
C2955 C2952 1.387 . S
C2956 C2957 1.387 . S
C2956 H2960 0.950 . S
C2956 C2965 1.390 . S
C2957 C2956 1.387 . S
C2957 C2959 1.387 . S
H2958 C2965 0.950 . S
C2959 C2957 1.387 . S
C2959 C2961 1.390 . S
C2959 H2963 0.950 . S
H2960 C2956 0.950 . S
C2961 C2959 1.390 . S
C2961 C2962 1.387 . S
C2961 H2964 0.950 . S
C2962 C2961 1.387 . S
C2962 C2965 1.387 . S
H2963 C2959 0.950 . S
H2964 C2961 0.950 . S
C2965 C2956 1.390 . S
C2965 H2958 0.950 . S
C2965 C2962 1.387 . S
C2966 C2967 1.387 . S
C2966 H2970 0.950 . S
C2966 C2975 1.390 . S
C2967 C2966 1.387 . S
C2967 C2969 1.387 . S
H2968 C2975 0.950 . S
C2969 C2967 1.387 . S
C2969 C2971 1.390 . S
C2969 H2973 0.950 . S
H2970 C2966 0.950 . S
C2971 C2969 1.390 . S
C2971 C2972 1.387 . S
C2971 H2974 0.950 . S
C2972 C2971 1.387 . S
C2972 C2975 1.387 . S
H2973 C2969 0.950 . S
H2974 C2971 0.950 . S
C2975 C2966 1.390 . S
C2975 H2968 0.950 . S
C2975 C2972 1.387 . S
C2976 C2977 1.387 . S
C2976 H2980 0.950 . S
C2976 C2985 1.390 . S
C2977 C2976 1.387 . S
C2977 C2979 1.387 . S
H2978 C2985 0.950 . S
C2979 C2977 1.387 . S
C2979 C2981 1.390 . S
C2979 H2983 0.950 . S
H2980 C2976 0.950 . S
C2981 C2979 1.390 . S
C2981 C2982 1.387 . S
C2981 H2984 0.950 . S
C2982 C2981 1.387 . S
C2982 C2985 1.387 . S
H2983 C2979 0.950 . S
H2984 C2981 0.950 . S
C2985 C2976 1.390 . S
C2985 H2978 0.950 . S
C2985 C2982 1.387 . S
C2986 C2987 1.387 . S
C2986 H2990 0.950 . S
C2986 C2995 1.390 . S
C2987 C2986 1.387 . S
C2987 C2989 1.387 . S
H2988 C2995 0.950 . S
C2989 C2987 1.387 . S
C2989 C2991 1.390 . S
C2989 H2993 0.950 . S
H2990 C2986 0.950 . S
C2991 C2989 1.390 . S
C2991 C2992 1.387 . S
C2991 H2994 0.950 . S
C2992 C2991 1.387 . S
C2992 C2995 1.387 . S
H2993 C2989 0.950 . S
H2994 C2991 0.950 . S
C2995 C2986 1.390 . S
C2995 H2988 0.950 . S
C2995 C2992 1.387 . S
C2996 C2997 1.387 . S
C2996 H3000 0.950 . S
C2996 C3005 1.390 . S
C2997 C2996 1.387 . S
C2997 C2999 1.387 . S
H2998 C3005 0.950 . S
C2999 C2997 1.387 . S
C2999 C3001 1.390 . S
C2999 H3003 0.950 . S
H3000 C2996 0.950 . S
C3001 C2999 1.390 . S
C3001 C3002 1.387 . S
C3001 H3004 0.950 . S
C3002 C3001 1.387 . S
C3002 C3005 1.387 . S
H3003 C2999 0.950 . S
H3004 C3001 0.950 . S
C3005 C2996 1.390 . S
C3005 H2998 0.950 . S
C3005 C3002 1.387 . S
C3006 C3007 1.387 . S
C3006 H3010 0.950 . S
C3006 C3015 1.390 . S
C3007 C3006 1.387 . S
C3007 C3009 1.387 . S
H3008 C3015 0.950 . S
C3009 C3007 1.387 . S
C3009 C3011 1.390 . S
C3009 H3013 0.950 . S
H3010 C3006 0.950 . S
C3011 C3009 1.390 . S
C3011 C3012 1.387 . S
C3011 H3014 0.950 . S
C3012 C3011 1.387 . S
C3012 C3015 1.387 . S
H3013 C3009 0.950 . S
H3014 C3011 0.950 . S
C3015 C3006 1.390 . S
C3015 H3008 0.950 . S
C3015 C3012 1.387 . S
C3016 C3017 1.387 . S
C3016 H3020 0.950 . S
C3016 C3025 1.390 . S
C3017 C3016 1.387 . S
C3017 C3019 1.387 . S
H3018 C3025 0.950 . S
C3019 C3017 1.387 . S
C3019 C3021 1.390 . S
C3019 H3023 0.950 . S
H3020 C3016 0.950 . S
C3021 C3019 1.390 . S
C3021 C3022 1.387 . S
C3021 H3024 0.950 . S
C3022 C3021 1.387 . S
C3022 C3025 1.387 . S
H3023 C3019 0.950 . S
H3024 C3021 0.950 . S
C3025 C3016 1.390 . S
C3025 H3018 0.950 . S
C3025 C3022 1.387 . S
C3026 C3027 1.387 . S
C3026 H3030 0.950 . S
C3026 C3035 1.390 . S
C3027 C3026 1.387 . S
C3027 C3029 1.387 . S
H3028 C3035 0.950 . S
C3029 C3027 1.387 . S
C3029 C3031 1.390 . S
C3029 H3033 0.950 . S
H3030 C3026 0.950 . S
C3031 C3029 1.390 . S
C3031 C3032 1.387 . S
C3031 H3034 0.950 . S
C3032 C3031 1.387 . S
C3032 C3035 1.387 . S
H3033 C3029 0.950 . S
H3034 C3031 0.950 . S
C3035 C3026 1.390 . S
C3035 H3028 0.950 . S
C3035 C3032 1.387 . S
C3036 C3037 1.387 . S
C3036 H3040 0.950 . S
C3036 C3045 1.390 . S
C3037 C3036 1.387 . S
C3037 C3039 1.387 . S
H3038 C3045 0.950 . S
C3039 C3037 1.387 . S
C3039 C3041 1.390 . S
C3039 H3043 0.950 . S
H3040 C3036 0.950 . S
C3041 C3039 1.390 . S
C3041 C3042 1.387 . S
C3041 H3044 0.950 . S
C3042 C3041 1.387 . S
C3042 C3045 1.387 . S
H3043 C3039 0.950 . S
H3044 C3041 0.950 . S
C3045 C3036 1.390 . S
C3045 H3038 0.950 . S
C3045 C3042 1.387 . S
C3046 C3047 1.387 . S
C3046 H3050 0.950 . S
C3046 C3055 1.390 . S
C3047 C3046 1.387 . S
C3047 C3049 1.387 . S
H3048 C3055 0.950 . S
C3049 C3047 1.387 . S
C3049 C3051 1.390 . S
C3049 H3053 0.950 . S
H3050 C3046 0.950 . S
C3051 C3049 1.390 . S
C3051 C3052 1.387 . S
C3051 H3054 0.950 . S
C3052 C3051 1.387 . S
C3052 C3055 1.387 . S
H3053 C3049 0.950 . S
H3054 C3051 0.950 . S
C3055 C3046 1.390 . S
C3055 H3048 0.950 . S
C3055 C3052 1.387 . S
C3056 C3057 1.387 . S
C3056 H3060 0.950 . S
C3056 C3065 1.390 . S
C3057 C3056 1.387 . S
C3057 C3059 1.387 . S
H3058 C3065 0.950 . S
C3059 C3057 1.387 . S
C3059 C3061 1.390 . S
C3059 H3063 0.950 . S
H3060 C3056 0.950 . S
C3061 C3059 1.390 . S
C3061 C3062 1.387 . S
C3061 H3064 0.950 . S
C3062 C3061 1.387 . S
C3062 C3065 1.387 . S
H3063 C3059 0.950 . S
H3064 C3061 0.950 . S
C3065 C3056 1.390 . S
C3065 H3058 0.950 . S
C3065 C3062 1.387 . S
C3066 C3067 1.387 . S
C3066 H3070 0.950 . S
C3066 C3075 1.390 . S
C3067 C3066 1.387 . S
C3067 C3069 1.387 . S
H3068 C3075 0.950 . S
C3069 C3067 1.387 . S
C3069 C3071 1.390 . S
C3069 H3073 0.950 . S
H3070 C3066 0.950 . S
C3071 C3069 1.390 . S
C3071 C3072 1.387 . S
C3071 H3074 0.950 . S
C3072 C3071 1.387 . S
C3072 C3075 1.387 . S
H3073 C3069 0.950 . S
H3074 C3071 0.950 . S
C3075 C3066 1.390 . S
C3075 H3068 0.950 . S
C3075 C3072 1.387 . S
C3076 C3077 1.387 . S
C3076 H3080 0.950 . S
C3076 C3085 1.390 . S
C3077 C3076 1.387 . S
C3077 C3079 1.387 . S
H3078 C3085 0.950 . S
C3079 C3077 1.387 . S
C3079 C3081 1.390 . S
C3079 H3083 0.950 . S
H3080 C3076 0.950 . S
C3081 C3079 1.390 . S
C3081 C3082 1.387 . S
C3081 H3084 0.950 . S
C3082 C3081 1.387 . S
C3082 C3085 1.387 . S
H3083 C3079 0.950 . S
H3084 C3081 0.950 . S
C3085 C3076 1.390 . S
C3085 H3078 0.950 . S
C3085 C3082 1.387 . S
C3086 C3087 1.387 . S
C3086 H3090 0.950 . S
C3086 C3095 1.390 . S
C3087 C3086 1.387 . S
C3087 C3089 1.387 . S
H3088 C3095 0.950 . S
C3089 C3087 1.387 . S
C3089 C3091 1.390 . S
C3089 H3093 0.950 . S
H3090 C3086 0.950 . S
C3091 C3089 1.390 . S
C3091 C3092 1.387 . S
C3091 H3094 0.950 . S
C3092 C3091 1.387 . S
C3092 C3095 1.387 . S
H3093 C3089 0.950 . S
H3094 C3091 0.950 . S
C3095 C3086 1.390 . S
C3095 H3088 0.950 . S
C3095 C3092 1.387 . S
C3096 C3097 1.387 . S
C3096 H3100 0.950 . S
C3096 C3105 1.390 . S
C3097 C3096 1.387 . S
C3097 C3099 1.387 . S
H3098 C3105 0.950 . S
C3099 C3097 1.387 . S
C3099 C3101 1.390 . S
C3099 H3103 0.950 . S
H3100 C3096 0.950 . S
C3101 C3099 1.390 . S
C3101 C3102 1.387 . S
C3101 H3104 0.950 . S
C3102 C3101 1.387 . S
C3102 C3105 1.387 . S
H3103 C3099 0.950 . S
H3104 C3101 0.950 . S
C3105 C3096 1.390 . S
C3105 H3098 0.950 . S
C3105 C3102 1.387 . S
C3106 C3107 1.387 . S
C3106 H3110 0.950 . S
C3106 C3115 1.390 . S
C3107 C3106 1.387 . S
C3107 C3109 1.387 . S
H3108 C3115 0.950 . S
C3109 C3107 1.387 . S
C3109 C3111 1.390 . S
C3109 H3113 0.950 . S
H3110 C3106 0.950 . S
C3111 C3109 1.390 . S
C3111 C3112 1.387 . S
C3111 H3114 0.950 . S
C3112 C3111 1.387 . S
C3112 C3115 1.387 . S
H3113 C3109 0.950 . S
H3114 C3111 0.950 . S
C3115 C3106 1.390 . S
C3115 H3108 0.950 . S
C3115 C3112 1.387 . S
C3116 C3117 1.387 . S
C3116 H3120 0.950 . S
C3116 C3125 1.390 . S
C3117 C3116 1.387 . S
C3117 C3119 1.387 . S
H3118 C3125 0.950 . S
C3119 C3117 1.387 . S
C3119 C3121 1.390 . S
C3119 H3123 0.950 . S
H3120 C3116 0.950 . S
C3121 C3119 1.390 . S
C3121 C3122 1.387 . S
C3121 H3124 0.950 . S
C3122 C3121 1.387 . S
C3122 C3125 1.387 . S
H3123 C3119 0.950 . S
H3124 C3121 0.950 . S
C3125 C3116 1.390 . S
C3125 H3118 0.950 . S
C3125 C3122 1.387 . S
C3126 C3127 1.387 . S
C3126 H3130 0.950 . S
C3126 C3135 1.390 . S
C3127 C3126 1.387 . S
C3127 C3129 1.387 . S
H3128 C3135 0.950 . S
C3129 C3127 1.387 . S
C3129 C3131 1.390 . S
C3129 H3133 0.950 . S
H3130 C3126 0.950 . S
C3131 C3129 1.390 . S
C3131 C3132 1.387 . S
C3131 H3134 0.950 . S
C3132 C3131 1.387 . S
C3132 C3135 1.387 . S
H3133 C3129 0.950 . S
H3134 C3131 0.950 . S
C3135 C3126 1.390 . S
C3135 H3128 0.950 . S
C3135 C3132 1.387 . S
C3136 C3137 1.387 . S
C3136 H3140 0.950 . S
C3136 C3145 1.390 . S
C3137 C3136 1.387 . S
C3137 C3139 1.387 . S
H3138 C3145 0.950 . S
C3139 C3137 1.387 . S
C3139 C3141 1.390 . S
C3139 H3143 0.950 . S
H3140 C3136 0.950 . S
C3141 C3139 1.390 . S
C3141 C3142 1.387 . S
C3141 H3144 0.950 . S
C3142 C3141 1.387 . S
C3142 C3145 1.387 . S
H3143 C3139 0.950 . S
H3144 C3141 0.950 . S
C3145 C3136 1.390 . S
C3145 H3138 0.950 . S
C3145 C3142 1.387 . S
C3146 C3147 1.370 1_565 S
C3146 H3150 0.950 . S
C3146 C3155 1.390 1_455 S
C3147 C3146 1.370 1_545 S
C3147 C3149 1.404 . S
H3148 C3155 0.950 . S
C3149 C3147 1.404 . S
C3149 C3151 1.390 1_455 S
C3149 H3153 0.950 . S
H3150 C3146 0.950 . S
C3151 C3149 1.390 1_655 S
C3151 C3152 1.356 1_545 S
C3151 H3154 0.950 . S
C3152 C3151 1.356 1_565 S
C3152 C3155 1.419 . S
H3153 C3149 0.950 . S
H3154 C3151 0.950 . S
C3155 C3146 1.390 1_655 S
C3155 H3148 0.950 . S
C3155 C3152 1.419 . S
C3156 C3157 1.387 . S
C3156 H3160 0.950 . S
C3156 C3165 1.390 . S
C3157 C3156 1.387 . S
C3157 C3159 1.387 . S
H3158 C3165 0.950 . S
C3159 C3157 1.387 . S
C3159 C3161 1.390 . S
C3159 H3163 0.950 . S
H3160 C3156 0.950 . S
C3161 C3159 1.390 . S
C3161 C3162 1.387 . S
C3161 H3164 0.950 . S
C3162 C3161 1.387 . S
C3162 C3165 1.387 . S
H3163 C3159 0.950 . S
H3164 C3161 0.950 . S
C3165 C3156 1.390 . S
C3165 H3158 0.950 . S
C3165 C3162 1.387 . S
C3166 C3167 1.370 1_545 S
C3166 H3170 0.950 . S
C3166 C3175 1.390 1_554 S
C3167 C3166 1.370 1_565 S
C3167 C3169 1.405 . S
H3168 C3175 0.950 . S
C3169 C3167 1.405 . S
C3169 C3171 1.390 1_554 S
C3169 H3173 0.950 . S
H3170 C3166 0.950 . S
C3171 C3169 1.390 1_556 S
C3171 C3172 1.356 1_565 S
C3171 H3174 0.950 . S
C3172 C3171 1.356 1_545 S
C3172 C3175 1.419 . S
H3173 C3169 0.950 . S
H3174 C3171 0.950 . S
C3175 C3166 1.390 1_556 S
C3175 H3168 0.950 . S
C3175 C3172 1.419 . S
C3176 C3177 1.387 . S
C3176 H3180 0.950 . S
C3176 C3185 1.390 . S
C3177 C3176 1.387 . S
C3177 C3179 1.387 . S
H3178 C3185 0.950 . S
C3179 C3177 1.387 . S
C3179 C3181 1.390 . S
C3179 H3183 0.950 . S
H3180 C3176 0.950 . S
C3181 C3179 1.390 . S
C3181 C3182 1.387 . S
C3181 H3184 0.950 . S
C3182 C3181 1.387 . S
C3182 C3185 1.387 . S
H3183 C3179 0.950 . S
H3184 C3181 0.950 . S
C3185 C3176 1.390 . S
C3185 H3178 0.950 . S
C3185 C3182 1.387 . S
C3186 C3187 1.370 1_565 S
C3186 H3190 0.950 . S
C3186 C3195 1.390 . S
C3187 C3186 1.370 1_545 S
C3187 C3189 1.405 . S
H3188 C3195 0.950 . S
C3189 C3187 1.405 . S
C3189 C3191 1.390 . S
C3189 H3193 0.950 . S
H3190 C3186 0.950 . S
C3191 C3189 1.390 . S
C3191 C3192 1.356 1_545 S
C3191 H3194 0.950 . S
C3192 C3191 1.356 1_565 S
C3192 C3195 1.419 . S
H3193 C3189 0.950 . S
H3194 C3191 0.950 . S
C3195 C3186 1.390 . S
C3195 H3188 0.950 . S
C3195 C3192 1.419 . S
C3196 C3197 1.387 . S
C3196 H3200 0.950 . S
C3196 C3205 1.390 . S
C3197 C3196 1.387 . S
C3197 C3199 1.387 . S
H3198 C3205 0.950 . S
C3199 C3197 1.387 . S
C3199 C3201 1.390 . S
C3199 H3203 0.950 . S
H3200 C3196 0.950 . S
C3201 C3199 1.390 . S
C3201 C3202 1.387 . S
C3201 H3204 0.950 . S
C3202 C3201 1.387 . S
C3202 C3205 1.387 . S
H3203 C3199 0.950 . S
H3204 C3201 0.950 . S
C3205 C3196 1.390 . S
C3205 H3198 0.950 . S
C3205 C3202 1.387 . S
C3206 C3207 1.370 1_545 S
C3206 H3210 0.950 . S
C3206 C3215 1.390 1_456 S
C3207 C3206 1.370 1_565 S
C3207 C3209 1.404 . S
H3208 C3215 0.950 . S
C3209 C3207 1.404 . S
C3209 C3211 1.390 1_456 S
C3209 H3213 0.950 . S
H3210 C3206 0.950 . S
C3211 C3209 1.390 1_654 S
C3211 C3212 1.356 1_565 S
C3211 H3214 0.950 . S
C3212 C3211 1.356 1_545 S
C3212 C3215 1.418 . S
H3213 C3209 0.950 . S
H3214 C3211 0.950 . S
C3215 C3206 1.390 1_654 S
C3215 H3208 0.950 . S
C3215 C3212 1.418 . S
C3216 C3217 1.387 . S
C3216 H3220 0.950 . S
C3216 C3225 1.390 . S
C3217 C3216 1.387 . S
C3217 C3219 1.387 . S
H3218 C3225 0.950 . S
C3219 C3217 1.387 . S
C3219 C3221 1.390 . S
C3219 H3223 0.950 . S
H3220 C3216 0.950 . S
C3221 C3219 1.390 . S
C3221 C3222 1.387 . S
C3221 H3224 0.950 . S
C3222 C3221 1.387 . S
C3222 C3225 1.387 . S
H3223 C3219 0.950 . S
H3224 C3221 0.950 . S
C3225 C3216 1.390 . S
C3225 H3218 0.950 . S
C3225 C3222 1.387 . S
C3226 C3227 1.387 . S
C3226 H3230 0.950 . S
C3226 C3235 1.390 . S
C3227 C3226 1.387 . S
C3227 C3229 1.387 . S
H3228 C3235 0.950 . S
C3229 C3227 1.387 . S
C3229 C3231 1.390 . S
C3229 H3233 0.950 . S
H3230 C3226 0.950 . S
C3231 C3229 1.390 . S
C3231 C3232 1.387 . S
C3231 H3234 0.950 . S
C3232 C3231 1.387 . S
C3232 C3235 1.387 . S
H3233 C3229 0.950 . S
H3234 C3231 0.950 . S
C3235 C3226 1.390 . S
C3235 H3228 0.950 . S
C3235 C3232 1.387 . S
C3236 C3237 1.387 . S
C3236 H3240 0.950 . S
C3236 C3245 1.390 . S
C3237 C3236 1.387 . S
C3237 C3239 1.387 . S
H3238 C3245 0.950 . S
C3239 C3237 1.387 . S
C3239 C3241 1.390 . S
C3239 H3243 0.950 . S
H3240 C3236 0.950 . S
C3241 C3239 1.390 . S
C3241 C3242 1.387 . S
C3241 H3244 0.950 . S
C3242 C3241 1.387 . S
C3242 C3245 1.387 . S
H3243 C3239 0.950 . S
H3244 C3241 0.950 . S
C3245 C3236 1.390 . S
C3245 H3238 0.950 . S
C3245 C3242 1.387 . S
C3246 C3247 1.387 . S
C3246 H3250 0.950 . S
C3246 C3255 1.390 . S
C3247 C3246 1.387 . S
C3247 C3249 1.387 . S
H3248 C3255 0.950 . S
C3249 C3247 1.387 . S
C3249 C3251 1.390 . S
C3249 H3253 0.950 . S
H3250 C3246 0.950 . S
C3251 C3249 1.390 . S
C3251 C3252 1.387 . S
C3251 H3254 0.950 . S
C3252 C3251 1.387 . S
C3252 C3255 1.387 . S
H3253 C3249 0.950 . S
H3254 C3251 0.950 . S
C3255 C3246 1.390 . S
C3255 H3248 0.950 . S
C3255 C3252 1.387 . S
C3256 C3257 1.387 . S
C3256 H3260 0.950 . S
C3256 C3265 1.390 1_554 S
C3257 C3256 1.387 . S
C3257 C3259 1.387 . S
H3258 C3265 0.950 . S
C3259 C3257 1.387 . S
C3259 C3261 1.390 1_554 S
C3259 H3263 0.950 . S
H3260 C3256 0.950 . S
C3261 C3259 1.390 1_556 S
C3261 C3262 1.387 . S
C3261 H3264 0.950 . S
C3262 C3261 1.387 . S
C3262 C3265 1.387 . S
H3263 C3259 0.950 . S
H3264 C3261 0.950 . S
C3265 C3256 1.390 1_556 S
C3265 H3258 0.950 . S
C3265 C3262 1.387 . S
C3266 C3267 1.387 . S
C3266 H3270 0.950 . S
C3266 C3275 1.390 1_455 S
C3267 C3266 1.387 . S
C3267 C3269 1.387 . S
H3268 C3275 0.950 . S
C3269 C3267 1.387 . S
C3269 C3271 1.390 1_455 S
C3269 H3273 0.950 . S
H3270 C3266 0.950 . S
C3271 C3269 1.390 1_655 S
C3271 C3272 1.387 . S
C3271 H3274 0.950 . S
C3272 C3271 1.387 . S
C3272 C3275 1.387 . S
H3273 C3269 0.950 . S
H3274 C3271 0.950 . S
C3275 C3266 1.390 1_655 S
C3275 H3268 0.950 . S
C3275 C3272 1.387 . S
C3276 C3277 1.387 . S
C3276 H3280 0.950 . S
C3276 C3285 1.390 1_554 S
C3277 C3276 1.387 . S
C3277 C3279 1.387 1_455 S
H3278 C3285 0.950 . S
C3279 C3277 1.387 1_655 S
C3279 C3281 1.390 1_554 S
C3279 H3283 0.950 . S
H3280 C3276 0.950 . S
C3281 C3279 1.390 1_556 S
C3281 C3282 1.387 . S
C3281 H3284 0.950 . S
C3282 C3281 1.387 . S
C3282 C3285 1.387 1_655 S
H3283 C3279 0.950 . S
H3284 C3281 0.950 . S
C3285 C3276 1.390 1_556 S
C3285 H3278 0.950 . S
C3285 C3282 1.387 1_455 S
C3286 C3287 1.387 . S
C3286 H3290 0.950 . S
C3286 C3295 1.390 . S
C3287 C3286 1.387 . S
C3287 C3289 1.387 . S
H3288 C3295 0.950 . S
C3289 C3287 1.387 . S
C3289 C3291 1.390 . S
C3289 H3293 0.950 . S
H3290 C3286 0.950 . S
C3291 C3289 1.390 . S
C3291 C3292 1.387 . S
C3291 H3294 0.950 . S
C3292 C3291 1.387 . S
C3292 C3295 1.387 . S
H3293 C3289 0.950 . S
H3294 C3291 0.950 . S
C3295 C3286 1.390 . S
C3295 H3288 0.950 . S
C3295 C3292 1.387 . S
C3296 C3297 1.387 . S
C3296 H3300 0.950 . S
C3296 C3305 1.390 . S
C3297 C3296 1.387 . S
C3297 C3299 1.387 . S
H3298 C3305 0.950 . S
C3299 C3297 1.387 . S
C3299 C3301 1.390 . S
C3299 H3303 0.950 . S
H3300 C3296 0.950 . S
C3301 C3299 1.390 . S
C3301 C3302 1.387 . S
C3301 H3304 0.950 . S
C3302 C3301 1.387 . S
C3302 C3305 1.387 . S
H3303 C3299 0.950 . S
H3304 C3301 0.950 . S
C3305 C3296 1.390 . S
C3305 H3298 0.950 . S
C3305 C3302 1.387 . S
C3306 C3307 1.387 . S
C3306 H3310 0.950 . S
C3306 C3315 1.390 . S
C3307 C3306 1.387 . S
C3307 C3309 1.387 . S
H3308 C3315 0.950 . S
C3309 C3307 1.387 . S
C3309 C3311 1.390 . S
C3309 H3313 0.950 . S
H3310 C3306 0.950 . S
C3311 C3309 1.390 . S
C3311 C3312 1.387 . S
C3311 H3314 0.950 . S
C3312 C3311 1.387 . S
C3312 C3315 1.387 . S
H3313 C3309 0.950 . S
H3314 C3311 0.950 . S
C3315 C3306 1.390 . S
C3315 H3308 0.950 . S
C3315 C3312 1.387 . S
C3316 C3317 1.387 . S
C3316 H3320 0.950 . S
C3316 C3325 1.390 . S
C3317 C3316 1.387 . S
C3317 C3319 1.387 . S
H3318 C3325 0.950 . S
C3319 C3317 1.387 . S
C3319 C3321 1.390 . S
C3319 H3323 0.950 . S
H3320 C3316 0.950 . S
C3321 C3319 1.390 . S
C3321 C3322 1.387 . S
C3321 H3324 0.950 . S
C3322 C3321 1.387 . S
C3322 C3325 1.387 . S
H3323 C3319 0.950 . S
H3324 C3321 0.950 . S
C3325 C3316 1.390 . S
C3325 H3318 0.950 . S
C3325 C3322 1.387 . S
C3326 C3327 1.387 . S
C3326 H3330 0.950 . S
C3326 C3335 1.390 . S
C3327 C3326 1.387 . S
C3327 C3329 1.387 . S
H3328 C3335 0.950 . S
C3329 C3327 1.387 . S
C3329 C3331 1.390 . S
C3329 H3333 0.950 . S
H3330 C3326 0.950 . S
C3331 C3329 1.390 . S
C3331 C3332 1.387 . S
C3331 H3334 0.950 . S
C3332 C3331 1.387 . S
C3332 C3335 1.387 . S
H3333 C3329 0.950 . S
H3334 C3331 0.950 . S
C3335 C3326 1.390 . S
C3335 H3328 0.950 . S
C3335 C3332 1.387 . S
C3336 C3337 1.387 . S
C3336 H3340 0.950 . S
C3336 C3345 1.390 . S
C3337 C3336 1.387 . S
C3337 C3339 1.387 . S
H3338 C3345 0.950 . S
C3339 C3337 1.387 . S
C3339 C3341 1.390 . S
C3339 H3343 0.950 . S
H3340 C3336 0.950 . S
C3341 C3339 1.390 . S
C3341 C3342 1.387 . S
C3341 H3344 0.950 . S
C3342 C3341 1.387 . S
C3342 C3345 1.387 . S
H3343 C3339 0.950 . S
H3344 C3341 0.950 . S
C3345 C3336 1.390 . S
C3345 H3338 0.950 . S
C3345 C3342 1.387 . S
C3346 C3347 1.387 . S
C3346 H3350 0.950 . S
C3346 C3355 1.390 . S
C3347 C3346 1.387 . S
C3347 C3349 1.387 . S
H3348 C3355 0.950 . S
C3349 C3347 1.387 . S
C3349 C3351 1.390 . S
C3349 H3353 0.950 . S
H3350 C3346 0.950 . S
C3351 C3349 1.390 . S
C3351 C3352 1.387 . S
C3351 H3354 0.950 . S
C3352 C3351 1.387 . S
C3352 C3355 1.387 . S
H3353 C3349 0.950 . S
H3354 C3351 0.950 . S
C3355 C3346 1.390 . S
C3355 H3348 0.950 . S
C3355 C3352 1.387 . S
C3356 C3357 1.387 . S
C3356 H3360 0.950 . S
C3356 C3365 1.390 . S
C3357 C3356 1.387 . S
C3357 C3359 1.387 . S
H3358 C3365 0.950 . S
C3359 C3357 1.387 . S
C3359 C3361 1.390 . S
C3359 H3363 0.950 . S
H3360 C3356 0.950 . S
C3361 C3359 1.390 . S
C3361 C3362 1.387 . S
C3361 H3364 0.950 . S
C3362 C3361 1.387 . S
C3362 C3365 1.387 . S
H3363 C3359 0.950 . S
H3364 C3361 0.950 . S
C3365 C3356 1.390 . S
C3365 H3358 0.950 . S
C3365 C3362 1.387 . S
C3366 C3367 1.387 . S
C3366 H3370 0.950 . S
C3366 C3375 1.390 . S
C3367 C3366 1.387 . S
C3367 C3369 1.387 . S
H3368 C3375 0.950 . S
C3369 C3367 1.387 . S
C3369 C3371 1.390 . S
C3369 H3373 0.950 . S
H3370 C3366 0.950 . S
C3371 C3369 1.390 . S
C3371 C3372 1.387 . S
C3371 H3374 0.950 . S
C3372 C3371 1.387 . S
C3372 C3375 1.387 . S
H3373 C3369 0.950 . S
H3374 C3371 0.950 . S
C3375 C3366 1.390 . S
C3375 H3368 0.950 . S
C3375 C3372 1.387 . S
C3376 C3377 1.387 . S
C3376 H3380 0.950 . S
C3376 C3385 1.390 . S
C3377 C3376 1.387 . S
C3377 C3379 1.387 . S
H3378 C3385 0.950 . S
C3379 C3377 1.387 . S
C3379 C3381 1.390 . S
C3379 H3383 0.950 . S
H3380 C3376 0.950 . S
C3381 C3379 1.390 . S
C3381 C3382 1.387 . S
C3381 H3384 0.950 . S
C3382 C3381 1.387 . S
C3382 C3385 1.387 . S
H3383 C3379 0.950 . S
H3384 C3381 0.950 . S
C3385 C3376 1.390 . S
C3385 H3378 0.950 . S
C3385 C3382 1.387 . S
C3386 C3387 1.387 . S
C3386 H3390 0.950 . S
C3386 C3395 1.390 . S
C3387 C3386 1.387 . S
C3387 C3389 1.387 . S
H3388 C3395 0.950 . S
C3389 C3387 1.387 . S
C3389 C3391 1.390 . S
C3389 H3393 0.950 . S
H3390 C3386 0.950 . S
C3391 C3389 1.390 . S
C3391 C3392 1.387 . S
C3391 H3394 0.950 . S
C3392 C3391 1.387 . S
C3392 C3395 1.387 . S
H3393 C3389 0.950 . S
H3394 C3391 0.950 . S
C3395 C3386 1.390 . S
C3395 H3388 0.950 . S
C3395 C3392 1.387 . S
C3396 C3397 1.387 . S
C3396 H3400 0.950 . S
C3396 C3405 1.390 . S
C3397 C3396 1.387 . S
C3397 C3399 1.387 . S
H3398 C3405 0.950 . S
C3399 C3397 1.387 . S
C3399 C3401 1.390 . S
C3399 H3403 0.950 . S
H3400 C3396 0.950 . S
C3401 C3399 1.390 . S
C3401 C3402 1.387 . S
C3401 H3404 0.950 . S
C3402 C3401 1.387 . S
C3402 C3405 1.387 . S
H3403 C3399 0.950 . S
H3404 C3401 0.950 . S
C3405 C3396 1.390 . S
C3405 H3398 0.950 . S
C3405 C3402 1.387 . S
C3406 C3407 1.387 . S
C3406 H3410 0.950 . S
C3406 C3415 1.390 . S
C3407 C3406 1.387 . S
C3407 C3409 1.387 . S
H3408 C3415 0.950 . S
C3409 C3407 1.387 . S
C3409 C3411 1.390 . S
C3409 H3413 0.950 . S
H3410 C3406 0.950 . S
C3411 C3409 1.390 . S
C3411 C3412 1.387 . S
C3411 H3414 0.950 . S
C3412 C3411 1.387 . S
C3412 C3415 1.387 . S
H3413 C3409 0.950 . S
H3414 C3411 0.950 . S
C3415 C3406 1.390 . S
C3415 H3408 0.950 . S
C3415 C3412 1.387 . S
C3416 C3417 1.387 . S
C3416 H3420 0.950 . S
C3416 C3425 1.390 . S
C3417 C3416 1.387 . S
C3417 C3419 1.387 . S
H3418 C3425 0.950 . S
C3419 C3417 1.387 . S
C3419 C3421 1.390 . S
C3419 H3423 0.950 . S
H3420 C3416 0.950 . S
C3421 C3419 1.390 . S
C3421 C3422 1.387 . S
C3421 H3424 0.950 . S
C3422 C3421 1.387 . S
C3422 C3425 1.387 . S
H3423 C3419 0.950 . S
H3424 C3421 0.950 . S
C3425 C3416 1.390 . S
C3425 H3418 0.950 . S
C3425 C3422 1.387 . S
C3426 C3427 1.387 . S
C3426 H3430 0.950 . S
C3426 C3435 1.390 . S
C3427 C3426 1.387 . S
C3427 C3429 1.387 . S
H3428 C3435 0.950 . S
C3429 C3427 1.387 . S
C3429 C3431 1.390 . S
C3429 H3433 0.950 . S
H3430 C3426 0.950 . S
C3431 C3429 1.390 . S
C3431 C3432 1.387 . S
C3431 H3434 0.950 . S
C3432 C3431 1.387 . S
C3432 C3435 1.387 . S
H3433 C3429 0.950 . S
H3434 C3431 0.950 . S
C3435 C3426 1.390 . S
C3435 H3428 0.950 . S
C3435 C3432 1.387 . S
C3436 C3437 1.387 . S
C3436 H3440 0.950 . S
C3436 C3445 1.390 . S
C3437 C3436 1.387 . S
C3437 C3439 1.387 . S
H3438 C3445 0.950 . S
C3439 C3437 1.387 . S
C3439 C3441 1.390 . S
C3439 H3443 0.950 . S
H3440 C3436 0.950 . S
C3441 C3439 1.390 . S
C3441 C3442 1.387 . S
C3441 H3444 0.950 . S
C3442 C3441 1.387 . S
C3442 C3445 1.387 . S
H3443 C3439 0.950 . S
H3444 C3441 0.950 . S
C3445 C3436 1.390 . S
C3445 H3438 0.950 . S
C3445 C3442 1.387 . S
C3446 C3447 1.387 . S
C3446 H3450 0.950 . S
C3446 C3455 1.390 . S
C3447 C3446 1.387 . S
C3447 C3449 1.387 . S
H3448 C3455 0.950 . S
C3449 C3447 1.387 . S
C3449 C3451 1.390 . S
C3449 H3453 0.950 . S
H3450 C3446 0.950 . S
C3451 C3449 1.390 . S
C3451 C3452 1.387 . S
C3451 H3454 0.950 . S
C3452 C3451 1.387 . S
C3452 C3455 1.387 . S
H3453 C3449 0.950 . S
H3454 C3451 0.950 . S
C3455 C3446 1.390 . S
C3455 H3448 0.950 . S
C3455 C3452 1.387 . S
C2817 C2396 1.541 . S
C2822 C29 1.452 . S
C2827 C108 1.449 . S
C2832 C733 1.540 . S
C2837 C2257 1.540 . S
C2842 C205 1.451 . S
C2847 C293 1.450 . S
C2852 C937 1.540 . S
C2857 C401 1.453 . S
C2862 C2572 1.542 . S
C2867 C497 1.452 . S
C2872 C1252 1.542 . S
C2877 C577 1.452 . S
C2882 C2757 1.541 . S
C2887 C665 1.451 . S
C2892 C1105 1.540 . S
C2897 C1692 1.538 . S
C2902 C753 1.449 . S
C2907 C20 1.539 . S
C2912 C812 1.451 . S
C2917 C1525 1.537 . S
C2922 C900 1.447 . S
C2927 C988 1.447 . S
C2932 C196 1.537 . S
C2937 C1897 1.537 . S
C2942 C1085 1.447 . S
C2947 C585 1.537 . S
C2952 C1201 1.447 . S
C2957 C1289 1.447 . S
C2962 C2081 1.537 . S
C2967 C409 1.539 . S
C2972 C1377 1.451 . S
C2977 C1428 1.448 . S
C2982 C1025 1.540 . S
C2987 C1516 1.448 . S
C2992 C2141 1.540 . S
C2997 C849 1.540 . S
C3002 C1613 1.448 . S
C3007 C2345 1.542 . S
C3012 C1701 1.452 . S
C3017 C1164 1.541 . S
C3022 C1809 1.452 . S
C3027 C2660 1.542 . S
C3032 C1905 1.452 . S
C3037 C1340 1.540 . S
C3042 C1993 1.451 . S
C3047 C2073 1.448 . S
C3052 C2513 1.540 . S
C3057 C284 1.537 . S
C3062 C2161 1.447 . S
C3067 C2220 1.451 . S
C3072 C1437 1.539 . S
C3077 C2308 1.451 . S
C3082 C117 1.539 . S
C3087 C2433 1.451 . S
C3092 C1604 1.539 . S
C3097 C2493 1.447 . S
C3102 C489 1.537 . S
C3107 C2609 1.447 . S
C3112 C1985 1.537 . S
C3117 C2697 1.451 . S
C3122 C673 1.539 . S
C3127 C2777 1.447 . S
C3132 C1817 1.537 . S
C3137 C2169 1.582 . S
C3142 C49 1.586 . S
C3147 C145 1.585 1_545 S
C3152 C821 1.581 1_565 S
C3157 C2317 1.581 . S
C3162 C225 1.585 . S
C3167 C313 1.586 1_565 S
C3172 C997 1.581 1_545 S
C3177 C2484 1.583 . S
C3182 C381 1.587 . S
C3187 C460 1.586 1_545 S
C3192 C1193 1.581 1_565 S
C3197 C2689 1.581 . S
C3202 C557 1.585 . S
C3207 C645 1.585 1_565 S
C3212 C1369 1.581 1_545 S
C3217 C761 1.583 . S
C3222 C1465 1.587 . S
C3227 C909 1.583 . S
C3232 C1633 1.586 . S
C3237 C1076 1.581 . S
C3242 C1789 1.585 . S
C3247 C1281 1.581 . S
C3252 C1956 1.585 . S
C3257 C1553 1.587 . S
C3262 C2229 1.583 . S
C3267 C2425 1.583 . S
C3272 C1721 1.587 . S
C3277 C2601 1.581 . S
C3282 C1868 1.585 . S
C3287 C2053 1.587 . S
C3292 C2785 1.583 . S
C3297 C57 1.231 . S
C3302 C469 1.233 . S
C3307 C137 1.233 . S
C3312 C548 1.231 . S
C3317 C233 1.233 . S
C3322 C636 1.231 . S
C3327 C372 1.233 . S
C3332 C321 1.231 . S
C3337 C724 1.223 . S
C3342 C1173 1.224 . S
C3347 C841 1.224 . S
C3352 C1261 1.226 . S
C3357 C929 1.224 . S
C3362 C1349 1.226 . S
C3367 C1017 1.226 . S
C3372 C1113 1.224 . S
C3377 C1457 1.231 . S
C3382 C1877 1.233 . S
C3387 C1965 1.233 . S
C3392 C1545 1.231 . S
C3397 C1641 1.231 . S
C3402 C2044 1.233 . S
C3407 C1729 1.233 . S
C3412 C1780 1.231 . S
C3417 C2581 1.226 . S
C3422 C2132 1.224 . S
C3427 C2249 1.224 . S
C3432 C2669 1.226 . S
C3437 C2748 1.224 . S
C3442 C2337 1.226 . S
C3447 C2405 1.226 . S
C3452 C2521 1.224 . S
