# Generated by pormake.
# Topology wip, (6)-cn, num edge types: 1
# Building blocks:
#     Node 0, Type 0, BuildingBlock: BETGAK_clean_sbu_0, # of connection points: 6
#     Node 1, Type 0, BuildingBlock: BETGAK_clean_sbu_0, # of connection points: 6
#     Node 2, Type 0, BuildingBlock: BETGAK_clean_sbu_0, # of connection points: 6
#     Node 3, Type 0, BuildingBlock: BETGAK_clean_sbu_0, # of connection points: 6
#     Node 4, Type 0, BuildingBlock: BETGAK_clean_sbu_0, # of connection points: 6
#     Node 5, Type 0, BuildingBlock: BETGAK_clean_sbu_0, # of connection points: 6
#     Node 6, Type 0, BuildingBlock: BETGAK_clean_sbu_0, # of connection points: 6
#     Node 7, Type 0, BuildingBlock: BETGAK_clean_sbu_0, # of connection points: 6
#     Node 8, Type 0, BuildingBlock: BETGAK_clean_sbu_0, # of connection points: 6
#     Node 9, Type 0, BuildingBlock: BETGAK_clean_sbu_0, # of connection points: 6
#     Node 10, Type 0, BuildingBlock: BETGAK_clean_sbu_0, # of connection points: 6
#     Node 11, Type 0, BuildingBlock: BETGAK_clean_sbu_0, # of connection points: 6
#     Node 12, Type 0, BuildingBlock: BETGAK_clean_sbu_0, # of connection points: 6
#     Node 13, Type 0, BuildingBlock: BETGAK_clean_sbu_0, # of connection points: 6
#     Node 14, Type 0, BuildingBlock: BETGAK_clean_sbu_0, # of connection points: 6
#     Node 15, Type 0, BuildingBlock: BETGAK_clean_sbu_0, # of connection points: 6
#     Node 16, Type 0, BuildingBlock: BETGAK_clean_sbu_0, # of connection points: 6
#     Node 17, Type 0, BuildingBlock: BETGAK_clean_sbu_0, # of connection points: 6
#     Node 18, Type 0, BuildingBlock: BETGAK_clean_sbu_0, # of connection points: 6
#     Node 19, Type 0, BuildingBlock: BETGAK_clean_sbu_0, # of connection points: 6
#     Node 20, Type 0, BuildingBlock: BETGAK_clean_sbu_0, # of connection points: 6
#     Node 21, Type 0, BuildingBlock: BETGAK_clean_sbu_0, # of connection points: 6
#     Node 22, Type 0, BuildingBlock: BETGAK_clean_sbu_0, # of connection points: 6
#     Node 23, Type 0, BuildingBlock: BETGAK_clean_sbu_0, # of connection points: 6
#     Node 24, Type 0, BuildingBlock: BETGAK_clean_sbu_0, # of connection points: 6
#     Node 25, Type 0, BuildingBlock: BETGAK_clean_sbu_0, # of connection points: 6
#     Node 26, Type 0, BuildingBlock: BETGAK_clean_sbu_0, # of connection points: 6
#     Node 27, Type 0, BuildingBlock: BETGAK_clean_sbu_0, # of connection points: 6
#     Node 28, Type 0, BuildingBlock: BETGAK_clean_sbu_0, # of connection points: 6
#     Node 29, Type 0, BuildingBlock: BETGAK_clean_sbu_0, # of connection points: 6
#     Node 30, Type 0, BuildingBlock: BETGAK_clean_sbu_0, # of connection points: 6
#     Node 31, Type 0, BuildingBlock: BETGAK_clean_sbu_0, # of connection points: 6
#     Edge 32, Type (0, 0), BuildingBlock: EZIPEK_clean_linker_0, # of connection points: 2
#     Edge 33, Type (0, 0), BuildingBlock: EZIPEK_clean_linker_0, # of connection points: 2
#     Edge 34, Type (0, 0), BuildingBlock: EZIPEK_clean_linker_0, # of connection points: 2
#     Edge 35, Type (0, 0), BuildingBlock: EZIPEK_clean_linker_0, # of connection points: 2
#     Edge 36, Type (0, 0), BuildingBlock: EZIPEK_clean_linker_0, # of connection points: 2
#     Edge 37, Type (0, 0), BuildingBlock: EZIPEK_clean_linker_0, # of connection points: 2
#     Edge 38, Type (0, 0), BuildingBlock: EZIPEK_clean_linker_0, # of connection points: 2
#     Edge 39, Type (0, 0), BuildingBlock: EZIPEK_clean_linker_0, # of connection points: 2
#     Edge 40, Type (0, 0), BuildingBlock: EZIPEK_clean_linker_0, # of connection points: 2
#     Edge 41, Type (0, 0), BuildingBlock: EZIPEK_clean_linker_0, # of connection points: 2
#     Edge 42, Type (0, 0), BuildingBlock: EZIPEK_clean_linker_0, # of connection points: 2
#     Edge 43, Type (0, 0), BuildingBlock: EZIPEK_clean_linker_0, # of connection points: 2
#     Edge 44, Type (0, 0), BuildingBlock: EZIPEK_clean_linker_0, # of connection points: 2
#     Edge 45, Type (0, 0), BuildingBlock: EZIPEK_clean_linker_0, # of connection points: 2
#     Edge 46, Type (0, 0), BuildingBlock: EZIPEK_clean_linker_0, # of connection points: 2
#     Edge 47, Type (0, 0), BuildingBlock: EZIPEK_clean_linker_0, # of connection points: 2
#     Edge 48, Type (0, 0), BuildingBlock: EZIPEK_clean_linker_0, # of connection points: 2
#     Edge 49, Type (0, 0), BuildingBlock: EZIPEK_clean_linker_0, # of connection points: 2
#     Edge 50, Type (0, 0), BuildingBlock: EZIPEK_clean_linker_0, # of connection points: 2
#     Edge 51, Type (0, 0), BuildingBlock: EZIPEK_clean_linker_0, # of connection points: 2
#     Edge 52, Type (0, 0), BuildingBlock: EZIPEK_clean_linker_0, # of connection points: 2
#     Edge 53, Type (0, 0), BuildingBlock: EZIPEK_clean_linker_0, # of connection points: 2
#     Edge 54, Type (0, 0), BuildingBlock: EZIPEK_clean_linker_0, # of connection points: 2
#     Edge 55, Type (0, 0), BuildingBlock: EZIPEK_clean_linker_0, # of connection points: 2
#     Edge 56, Type (0, 0), BuildingBlock: EZIPEK_clean_linker_0, # of connection points: 2
#     Edge 57, Type (0, 0), BuildingBlock: EZIPEK_clean_linker_0, # of connection points: 2
#     Edge 58, Type (0, 0), BuildingBlock: EZIPEK_clean_linker_0, # of connection points: 2
#     Edge 59, Type (0, 0), BuildingBlock: EZIPEK_clean_linker_0, # of connection points: 2
#     Edge 60, Type (0, 0), BuildingBlock: EZIPEK_clean_linker_0, # of connection points: 2
#     Edge 61, Type (0, 0), BuildingBlock: EZIPEK_clean_linker_0, # of connection points: 2
#     Edge 62, Type (0, 0), BuildingBlock: EZIPEK_clean_linker_0, # of connection points: 2
#     Edge 63, Type (0, 0), BuildingBlock: EZIPEK_clean_linker_0, # of connection points: 2
#     Edge 64, Type (0, 0), BuildingBlock: EZIPEK_clean_linker_0, # of connection points: 2
#     Edge 65, Type (0, 0), BuildingBlock: EZIPEK_clean_linker_0, # of connection points: 2
#     Edge 66, Type (0, 0), BuildingBlock: EZIPEK_clean_linker_0, # of connection points: 2
#     Edge 67, Type (0, 0), BuildingBlock: EZIPEK_clean_linker_0, # of connection points: 2
#     Edge 68, Type (0, 0), BuildingBlock: EZIPEK_clean_linker_0, # of connection points: 2
#     Edge 69, Type (0, 0), BuildingBlock: EZIPEK_clean_linker_0, # of connection points: 2
#     Edge 70, Type (0, 0), BuildingBlock: EZIPEK_clean_linker_0, # of connection points: 2
#     Edge 71, Type (0, 0), BuildingBlock: EZIPEK_clean_linker_0, # of connection points: 2
#     Edge 72, Type (0, 0), BuildingBlock: EZIPEK_clean_linker_0, # of connection points: 2
#     Edge 73, Type (0, 0), BuildingBlock: EZIPEK_clean_linker_0, # of connection points: 2
#     Edge 74, Type (0, 0), BuildingBlock: EZIPEK_clean_linker_0, # of connection points: 2
#     Edge 75, Type (0, 0), BuildingBlock: EZIPEK_clean_linker_0, # of connection points: 2
#     Edge 76, Type (0, 0), BuildingBlock: EZIPEK_clean_linker_0, # of connection points: 2
#     Edge 77, Type (0, 0), BuildingBlock: EZIPEK_clean_linker_0, # of connection points: 2
#     Edge 78, Type (0, 0), BuildingBlock: EZIPEK_clean_linker_0, # of connection points: 2
#     Edge 79, Type (0, 0), BuildingBlock: EZIPEK_clean_linker_0, # of connection points: 2
#     Edge 80, Type (0, 0), BuildingBlock: EZIPEK_clean_linker_0, # of connection points: 2
#     Edge 81, Type (0, 0), BuildingBlock: EZIPEK_clean_linker_0, # of connection points: 2
#     Edge 82, Type (0, 0), BuildingBlock: EZIPEK_clean_linker_0, # of connection points: 2
#     Edge 83, Type (0, 0), BuildingBlock: EZIPEK_clean_linker_0, # of connection points: 2
#     Edge 84, Type (0, 0), BuildingBlock: EZIPEK_clean_linker_0, # of connection points: 2
#     Edge 85, Type (0, 0), BuildingBlock: EZIPEK_clean_linker_0, # of connection points: 2
#     Edge 86, Type (0, 0), BuildingBlock: EZIPEK_clean_linker_0, # of connection points: 2
#     Edge 87, Type (0, 0), BuildingBlock: EZIPEK_clean_linker_0, # of connection points: 2
#     Edge 88, Type (0, 0), BuildingBlock: EZIPEK_clean_linker_0, # of connection points: 2
#     Edge 89, Type (0, 0), BuildingBlock: EZIPEK_clean_linker_0, # of connection points: 2
#     Edge 90, Type (0, 0), BuildingBlock: EZIPEK_clean_linker_0, # of connection points: 2
#     Edge 91, Type (0, 0), BuildingBlock: EZIPEK_clean_linker_0, # of connection points: 2
#     Edge 92, Type (0, 0), BuildingBlock: EZIPEK_clean_linker_0, # of connection points: 2
#     Edge 93, Type (0, 0), BuildingBlock: EZIPEK_clean_linker_0, # of connection points: 2
#     Edge 94, Type (0, 0), BuildingBlock: EZIPEK_clean_linker_0, # of connection points: 2
#     Edge 95, Type (0, 0), BuildingBlock: EZIPEK_clean_linker_0, # of connection points: 2
#     Edge 96, Type (0, 0), BuildingBlock: EZIPEK_clean_linker_0, # of connection points: 2
#     Edge 97, Type (0, 0), BuildingBlock: EZIPEK_clean_linker_0, # of connection points: 2
#     Edge 98, Type (0, 0), BuildingBlock: EZIPEK_clean_linker_0, # of connection points: 2
#     Edge 99, Type (0, 0), BuildingBlock: EZIPEK_clean_linker_0, # of connection points: 2
#     Edge 100, Type (0, 0), BuildingBlock: EZIPEK_clean_linker_0, # of connection points: 2
#     Edge 101, Type (0, 0), BuildingBlock: EZIPEK_clean_linker_0, # of connection points: 2
#     Edge 102, Type (0, 0), BuildingBlock: EZIPEK_clean_linker_0, # of connection points: 2
#     Edge 103, Type (0, 0), BuildingBlock: EZIPEK_clean_linker_0, # of connection points: 2
#     Edge 104, Type (0, 0), BuildingBlock: EZIPEK_clean_linker_0, # of connection points: 2
#     Edge 105, Type (0, 0), BuildingBlock: EZIPEK_clean_linker_0, # of connection points: 2
#     Edge 106, Type (0, 0), BuildingBlock: EZIPEK_clean_linker_0, # of connection points: 2
#     Edge 107, Type (0, 0), BuildingBlock: EZIPEK_clean_linker_0, # of connection points: 2
#     Edge 108, Type (0, 0), BuildingBlock: EZIPEK_clean_linker_0, # of connection points: 2
#     Edge 109, Type (0, 0), BuildingBlock: EZIPEK_clean_linker_0, # of connection points: 2
#     Edge 110, Type (0, 0), BuildingBlock: EZIPEK_clean_linker_0, # of connection points: 2
#     Edge 111, Type (0, 0), BuildingBlock: EZIPEK_clean_linker_0, # of connection points: 2
#     Edge 112, Type (0, 0), BuildingBlock: EZIPEK_clean_linker_0, # of connection points: 2
#     Edge 113, Type (0, 0), BuildingBlock: EZIPEK_clean_linker_0, # of connection points: 2
#     Edge 114, Type (0, 0), BuildingBlock: EZIPEK_clean_linker_0, # of connection points: 2
#     Edge 115, Type (0, 0), BuildingBlock: EZIPEK_clean_linker_0, # of connection points: 2
#     Edge 116, Type (0, 0), BuildingBlock: EZIPEK_clean_linker_0, # of connection points: 2
#     Edge 117, Type (0, 0), BuildingBlock: EZIPEK_clean_linker_0, # of connection points: 2
#     Edge 118, Type (0, 0), BuildingBlock: EZIPEK_clean_linker_0, # of connection points: 2
#     Edge 119, Type (0, 0), BuildingBlock: EZIPEK_clean_linker_0, # of connection points: 2
#     Edge 120, Type (0, 0), BuildingBlock: EZIPEK_clean_linker_0, # of connection points: 2
#     Edge 121, Type (0, 0), BuildingBlock: EZIPEK_clean_linker_0, # of connection points: 2
#     Edge 122, Type (0, 0), BuildingBlock: EZIPEK_clean_linker_0, # of connection points: 2
#     Edge 123, Type (0, 0), BuildingBlock: EZIPEK_clean_linker_0, # of connection points: 2
#     Edge 124, Type (0, 0), BuildingBlock: EZIPEK_clean_linker_0, # of connection points: 2
#     Edge 125, Type (0, 0), BuildingBlock: EZIPEK_clean_linker_0, # of connection points: 2
#     Edge 126, Type (0, 0), BuildingBlock: EZIPEK_clean_linker_0, # of connection points: 2
#     Edge 127, Type (0, 0), BuildingBlock: EZIPEK_clean_linker_0, # of connection points: 2
# Relax obj value: 0.417
# Max RMSD: 0.348
# Mean RMSD: 0.264
data_MOF--net-wip--node1-BETGAK_clean_sbu_0--edge1-EZIPEK_clean_linker_0
_symmetry_space_group_name_H-M    P1
_symmetry_Int_Tables_number       1
_symmetry_cell_setting            triclinic
loop_
_symmetry_equiv_pos_as_xyz
'x, y, z'
_cell_length_a     48.420064
_cell_length_b     45.513815
_cell_length_c     27.805438
_cell_angle_alpha  95.821947
_cell_angle_beta   84.631661
_cell_angle_gamma 89.105823
loop_
_atom_site_label
_atom_site_type_symbol
_atom_site_fract_x
_atom_site_fract_y
_atom_site_fract_z
_atom_type_partial_charge
La0 La 0.04631 0.38681 0.13226 0.0
La1 La 0.08174 0.435 0.08628 0.0
C2 C 0.03348 0.34256 0.17636 0.0
C3 C 0.02645 0.34075 0.22907 0.0
C4 C 0.00744 0.36104 0.25654 0.0
C5 C 0.00316 0.36132 0.30705 0.0
C6 C 0.01763 0.34123 0.33121 0.0
C7 C 0.03633 0.32064 0.30387 0.0
C8 C 0.04079 0.32051 0.25326 0.0
C9 C 0.02113 0.43847 0.15223 0.0
C10 C 0.07381 0.44057 0.19736 0.0
C11 C 0.10342 0.46607 1.02161 0.0
C12 C 0.09955 0.47731 0.97251 0.0
C13 C 0.11805 0.46741 0.93146 0.0
C14 C 0.11678 0.47873 0.88605 0.0
C15 C 0.09695 0.50062 0.87926 0.0
C16 C 0.07813 0.51043 0.9201 0.0
C17 C 0.07946 0.4991 0.96584 0.0
C18 C 0.1107 0.39461 0.13044 0.0
C19 C 0.03541 0.40007 1.02595 0.0
O20 O 0.01588 0.35688 0.15367 0.0
O21 O 0.05899 0.3496 0.16409 0.0
O22 O 0.01315 0.41465 0.17018 0.0
O23 O 0.03918 0.4307 0.11603 0.0
O24 O 0.06481 0.41301 0.1921 0.0
O25 O 0.07904 0.45597 0.15938 0.0
O26 O 0.1081 0.43754 1.02205 0.0
O27 O 0.08843 0.47734 0.06156 0.0
O28 O 0.11855 0.42036 0.11958 0.0
O29 O 0.08907 0.39038 0.10652 0.0
O30 O 0.0522 0.42239 1.03278 0.0
O31 O 0.03281 0.37982 0.05751 0.0
H32 H 0.99628 0.37717 0.23922 0.0
H33 H 0.98867 0.37738 0.32742 0.0
H34 H 0.04769 0.30494 0.32181 0.0
H35 H 0.05582 0.30494 0.23306 0.0
H36 H 0.13406 0.45102 0.93463 0.0
H37 H 0.13166 0.47047 0.85602 0.0
H38 H 0.06246 0.52712 0.91673 0.0
H39 H 0.06487 0.50766 0.99609 0.0
La40 La 0.83342 0.79726 0.39664 0.0
La41 La 0.79935 0.83824 0.34595 0.0
C42 C 0.86222 0.77331 0.4547 0.0
C43 C 0.86114 0.77117 0.50778 0.0
C44 C 0.83586 0.76843 0.53623 0.0
C45 C 0.83562 0.76387 0.58548 0.0
C46 C 0.86061 0.76207 0.60717 0.0
C47 C 0.88575 0.76582 0.57917 0.0
C48 C 0.886 0.77031 0.52997 0.0
C49 C 0.78411 0.77607 0.3801 0.0
C50 C 0.79336 0.84877 0.45765 0.0
C51 C 0.77038 0.86096 0.28561 0.0
C52 C 0.7581 0.85633 0.23712 0.0
C53 C 0.73463 0.87338 0.22924 0.0
C54 C 0.72375 0.87159 0.18351 0.0
C55 C 0.73592 0.85267 0.14358 0.0
C56 C 0.75923 0.83529 0.15152 0.0
C57 C 0.77021 0.83717 0.19736 0.0
C58 C 0.84528 0.86131 0.38193 0.0
C59 C 0.83451 0.78494 0.2867 0.0
O60 O 0.84296 0.76 0.43164 0.0
O61 O 0.86705 0.79911 0.43983 0.0
O62 O 0.8077 0.76193 0.37149 0.0
O63 O 0.78967 0.80287 0.39149 0.0
O64 O 0.81288 0.82782 0.45559 0.0
O65 O 0.78111 0.85377 0.41844 0.0
O66 O 0.79739 0.86259 0.28549 0.0
O67 O 0.7598 0.84738 0.32229 0.0
O68 O 0.82269 0.87563 0.37606 0.0
O69 O 0.84239 0.83542 0.36127 0.0
O70 O 0.81138 0.80095 0.29287 0.0
O71 O 0.8508 0.78391 0.32218 0.0
H72 H 0.81635 0.76925 0.52019 0.0
H73 H 0.81599 0.76117 0.60646 0.0
H74 H 0.90524 0.76459 0.59517 0.0
H75 H 0.90571 0.77245 0.5089 0.0
H76 H 0.72479 0.88857 0.25859 0.0
H77 H 0.70572 0.88513 0.17928 0.0
H78 H 0.76905 0.82028 0.12196 0.0
H79 H 0.78831 0.82379 0.2016 0.0
La80 La 0.43985 0.59221 0.68156 0.0
La81 La 0.40252 0.55715 0.6235 0.0
C82 C 0.45955 0.62502 0.74786 0.0
C83 C 0.4532 0.63164 0.8006 0.0
C84 C 0.4424 0.60972 0.82865 0.0
C85 C 0.44331 0.61281 0.87883 0.0
C86 C 0.45429 0.63825 0.90181 0.0
C87 C 0.46225 0.66157 0.87442 0.0
C88 C 0.46208 0.65809 0.82389 0.0
C89 C 0.4664 0.54345 0.64229 0.0
C90 C 0.40397 0.53907 0.72421 0.0
C91 C 0.38004 0.53074 0.55187 0.0
C92 C 0.38673 0.51989 0.49829 0.0
C93 C 0.36541 0.51869 0.4669 0.0
C94 C 0.37038 0.50768 0.41727 0.0
C95 C 0.39696 0.49739 0.3966 0.0
C96 C 0.4185 0.49888 0.42784 0.0
C97 C 0.41346 0.50982 0.47778 0.0
C98 C 0.37553 0.59616 0.69729 0.0
C99 C 0.45332 0.58865 0.56791 0.0
O100 O 0.4679 0.59785 0.73395 0.0
O101 O 0.44214 0.63466 0.71942 0.0
O102 O 0.47656 0.56961 0.64572 0.0
O103 O 0.44056 0.54641 0.65537 0.0
O104 O 0.41725 0.56434 0.73249 0.0
O105 O 0.40004 0.52803 0.67969 0.0
O106 O 0.37817 0.55939 0.56431 0.0
O107 O 0.39199 0.51722 0.58429 0.0
O108 O 0.36648 0.57175 0.6767 0.0
O109 O 0.39776 0.60003 0.66895 0.0
O110 O 0.43413 0.56868 0.56738 0.0
O111 O 0.45609 0.60552 0.60921 0.0
H112 H 0.43505 0.58933 0.81156 0.0
H113 H 0.43685 0.59469 0.89938 0.0
H114 H 0.47056 0.68148 0.89174 0.0
H115 H 0.47037 0.67528 0.80288 0.0
H116 H 0.34456 0.52607 0.48097 0.0
H117 H 0.35321 0.507 0.39488 0.0
H118 H 0.43928 0.49133 0.41367 0.0
H119 H 0.43048 0.51019 0.50041 0.0
La120 La 0.67377 0.18466 0.84582 0.0
La121 La 0.72276 0.15778 0.878 0.0
C122 C 0.64007 0.21318 0.80339 0.0
C123 C 0.64035 0.22535 0.75609 0.0
C124 C 0.65269 0.20969 0.71296 0.0
C125 C 0.65364 0.22231 0.66895 0.0
C126 C 0.64231 0.25074 0.66756 0.0
C127 C 0.62975 0.26623 0.71045 0.0
C128 C 0.62876 0.25361 0.75434 0.0
C129 C 0.66071 0.13873 0.89358 0.0
C130 C 0.7237 0.15822 0.76336 0.0
C131 C 0.75797 0.1277 0.91527 0.0
C132 C 0.75983 0.11282 0.9597 0.0
C133 C 0.76904 0.12855 1.00111 0.0
C134 C 0.76966 0.11537 1.044 0.0
C135 C 0.7612 0.08622 0.04632 0.0
C136 C 0.75303 0.06992 1.00473 0.0
C137 C 0.7527 0.08305 0.96139 0.0
C138 C 0.72961 0.21376 0.85886 0.0
C139 C 0.68058 0.19715 0.9596 0.0
O140 O 0.64046 0.18431 0.80266 0.0
O141 O 0.6567 0.22563 0.83353 0.0
O142 O 0.64505 0.1615 0.89058 0.0
O143 O 0.68264 0.13972 0.8638 0.0
O144 O 0.7004 0.17443 0.77468 0.0
O145 O 0.73529 0.14677 0.7989 0.0
O146 O 0.75554 0.15645 0.92149 0.0
O147 O 0.74189 0.11636 0.88325 0.0
O148 O 0.7479 0.19257 0.8478 0.0
O149 O 0.70866 0.20166 0.87631 0.0
O150 O 0.70111 0.17653 0.95047 0.0
O151 O 0.66774 0.20528 0.92234 0.0
H152 H 0.66186 0.18789 0.7133 0.0
H153 H 0.66363 0.21019 0.63622 0.0
H154 H 0.62109 0.28829 0.70999 0.0
H155 H 0.61925 0.2661 0.78713 0.0
H156 H 0.77529 0.15129 1.00074 0.0
H157 H 0.77603 0.12819 0.07592 0.0
H158 H 0.74634 0.0474 1.00617 0.0
H159 H 0.74601 0.07023 0.92979 0.0
La160 La 0.05901 0.59169 0.62706 0.0
La161 La 0.07801 0.5373 0.57181 0.0
C162 C 0.03388 0.63437 0.67941 0.0
C163 C 0.02417 0.63874 0.73174 0.0
C164 C 0.03621 0.62217 0.76465 0.0
C165 C 0.027 0.62585 0.81399 0.0
C166 C 0.00562 0.64635 0.83168 0.0
C167 C 0.99357 0.66319 0.79903 0.0
C168 C 0.00271 0.65927 0.74928 0.0
C169 C 0.10445 0.59645 0.56321 0.0
C170 C 0.09115 0.54691 0.68582 0.0
C171 C 0.11283 0.50229 0.52306 0.0
C172 C 0.12198 0.50161 0.47165 0.0
C173 C 0.13705 0.47724 0.44712 0.0
C174 C 0.13639 0.47135 0.39696 0.0
C175 C 0.11923 0.48894 0.37266 0.0
C176 C 0.10819 0.51582 0.39609 0.0
C177 C 0.11004 0.52239 0.44541 0.0
C178 C 0.03198 0.52914 0.62522 0.0
C179 C 0.0342 0.57521 0.52358 0.0
O180 O 0.06081 0.63258 0.66891 0.0
O181 O 0.02133 0.61408 0.65334 0.0
O182 O 0.10078 0.60938 0.60714 0.0
O183 O 0.08305 0.58186 0.55823 0.0
O184 O 0.0739 0.57007 0.68859 0.0
O185 O 0.09734 0.53241 0.64186 0.0
O186 O 0.08659 0.49608 0.53191 0.0
O187 O 0.11958 0.52592 0.54967 0.0
O188 O 0.03859 0.51576 0.58204 0.0
O189 O 0.05117 0.54625 0.63633 0.0
O190 O 0.05318 0.5533 0.51584 0.0
O191 O 0.03155 0.59186 0.56625 0.0
H192 H 0.05288 0.60646 0.75247 0.0
H193 H 0.03669 0.61275 0.83852 0.0
H194 H 0.97711 0.67923 0.81205 0.0
H195 H 0.99309 0.67229 0.72458 0.0
H196 H 0.14673 0.46129 0.46707 0.0
H197 H 0.1455 0.45079 0.37902 0.0
H198 H 0.09541 0.53002 0.37774 0.0
H199 H 0.0992 0.54189 0.46389 0.0
La200 La 0.65261 0.80404 0.87594 0.0
La201 La 0.70217 0.83368 0.83435 0.0
C202 C 0.61748 0.78033 0.93145 0.0
C203 C 0.61732 0.77204 0.98197 0.0
C204 C 0.59606 0.78275 1.01771 0.0
C205 C 0.59635 0.77593 0.06584 0.0
C206 C 0.61792 0.75827 0.07906 0.0
C207 C 0.639 0.74737 1.0434 0.0
C208 C 0.63867 0.75414 0.99545 0.0
C209 C 0.64067 0.837 0.80286 0.0
C210 C 0.69095 0.84121 0.94926 0.0
C211 C 0.72811 0.87238 0.79191 0.0
C212 C 0.72673 0.88337 0.74464 0.0
C213 C 0.74603 0.90393 0.72962 0.0
C214 C 0.75202 0.90653 0.6802 0.0
C215 C 0.73882 0.88837 0.6459 0.0
C216 C 0.71677 0.87099 0.66133 0.0
C217 C 0.71085 0.86838 0.7107 0.0
C218 C 0.72201 0.78767 0.875 0.0
C219 C 0.67872 0.77834 0.77363 0.0
O220 O 0.61731 0.80875 0.92674 0.0
O221 O 0.63465 0.76535 0.89807 0.0
O222 O 0.62665 0.81548 0.81878 0.0
O223 O 0.65808 0.84255 0.83508 0.0
O224 O 0.66827 0.82597 0.94273 0.0
O225 O 0.70614 0.84979 0.91123 0.0
O226 O 0.73633 0.84464 0.78905 0.0
O227 O 0.70679 0.8786 0.82427 0.0
O228 O 0.73639 0.80659 0.85227 0.0
O229 O 0.69647 0.79522 0.87358 0.0
O230 O 0.69173 0.80369 0.77253 0.0
O231 O 0.66472 0.77164 0.81424 0.0
H232 H 0.57936 0.79663 1.00851 0.0
H233 H 0.5799 0.78463 0.09285 0.0
H234 H 0.6559 0.73386 0.05284 0.0
H235 H 0.65539 0.74567 0.9691 0.0
H236 H 0.7585 0.91556 0.75544 0.0
H237 H 0.76924 0.91989 0.66861 0.0
H238 H 0.7065 0.85683 0.63518 0.0
H239 H 0.696 0.85233 0.7219 0.0
La240 La 0.45085 0.41023 0.10173 0.0
La241 La 0.42632 0.46713 0.0738 0.0
C242 C 0.48043 0.37046 0.12905 0.0
C243 C 0.49149 0.36776 0.17639 0.0
C244 C 0.47788 0.35013 0.20952 0.0
C245 C 0.48542 0.35082 0.2569 0.0
C246 C 0.5068 0.36898 0.2718 0.0
C247 C 0.52145 0.38539 0.23829 0.0
C248 C 0.51392 0.38473 0.19087 0.0
C249 C 0.40508 0.40462 0.05273 0.0
C250 C 0.41619 0.45169 0.18576 0.0
C251 C 0.38782 0.49697 0.04802 0.0
C252 C 0.37531 0.49443 1.00259 0.0
C253 C 0.3823 0.46955 0.96947 0.0
C254 C 0.3786 0.47022 0.92079 0.0
C255 C 0.36959 0.4966 0.90502 0.0
C256 C 0.35953 0.52027 0.93866 0.0
C257 C 0.36228 0.51912 0.98779 0.0
C258 C 0.46632 0.48159 0.12787 0.0
C259 C 0.47228 0.43163 0.99718 0.0
O260 O 0.45338 0.36923 0.12942 0.0
O261 O 0.49054 0.39136 0.10385 0.0
O262 O 0.41145 0.38811 0.08564 0.0
O263 O 0.42492 0.42175 0.04797 0.0
O264 O 0.43657 0.43168 0.1748 0.0
O265 O 0.40661 0.46475 0.14964 0.0
O266 O 0.41393 0.50471 1.04352 0.0
O267 O 0.38365 0.47453 0.07381 0.0
O268 O 0.45331 0.50035 0.10537 0.0
O269 O 0.45845 0.45592 0.11468 0.0
O270 O 0.45351 0.45399 1.00537 0.0
O271 O 0.47543 0.41302 1.03063 0.0
H272 H 0.46067 0.33667 0.19938 0.0
H273 H 0.47396 0.33797 0.28243 0.0
H274 H 0.5381 0.39939 0.24935 0.0
H275 H 0.52508 0.39826 0.16616 0.0
H276 H 0.39362 0.45105 0.98017 0.0
H277 H 0.38678 0.45205 0.8949 0.0
H278 H 0.35276 0.54079 0.92646 0.0
H279 H 0.35719 0.53858 1.01308 0.0
La280 La 0.81684 0.185 0.48055 0.0
La281 La 0.78217 0.13614 0.43878 0.0
C282 C 0.8322 0.22636 0.54034 0.0
C283 C 0.82384 0.23908 0.59249 0.0
C284 C 0.84244 0.25672 0.61808 0.0
C285 C 0.83559 0.26864 0.66686 0.0
C286 C 0.80987 0.26325 0.69241 0.0
C287 C 0.79116 0.24557 0.66683 0.0
C288 C 0.79793 0.23387 0.61771 0.0
C289 C 0.84727 0.14566 0.41454 0.0
C290 C 0.77675 0.14845 0.55436 0.0
C291 C 0.7662 0.08934 0.39331 0.0
C292 C 0.76834 0.07554 0.3431 0.0
C293 C 0.74622 0.05919 0.32624 0.0
C294 C 0.74481 0.05243 0.27632 0.0
C295 C 0.76528 0.06258 0.2432 0.0
C296 C 0.78865 0.07629 0.26037 0.0
C297 C 0.79005 0.0827 0.31008 0.0
C298 C 0.7529 0.18667 0.46422 0.0
C299 C 0.80752 0.1858 0.37039 0.0
O300 O 0.84358 0.19964 0.53351 0.0
O301 O 0.81502 0.23025 0.50741 0.0
O302 O 0.85483 0.17145 0.43249 0.0
O303 O 0.82613 0.14022 0.44495 0.0
O304 O 0.79259 0.17106 0.54605 0.0
O305 O 0.77275 0.12865 0.51716 0.0
O306 O 0.75211 0.11427 0.40019 0.0
O307 O 0.78892 0.09083 0.41554 0.0
O308 O 0.74333 0.16035 0.46659 0.0
O309 O 0.77812 0.18272 0.44977 0.0
O310 O 0.79614 0.1593 0.37405 0.0
O311 O 0.81518 0.2018 0.40979 0.0
H312 H 0.86253 0.26133 0.60024 0.0
H313 H 0.85063 0.28201 0.68493 0.0
H314 H 0.77124 0.24068 0.68498 0.0
H315 H 0.78282 0.22071 0.5996 0.0
H316 H 0.72916 0.05349 0.35139 0.0
H317 H 0.72667 0.04167 0.26354 0.0
H318 H 0.80482 0.08392 0.23532 0.0
H319 H 0.80704 0.09504 0.32289 0.0
La320 La 0.91104 0.56646 0.31195 0.0
La321 La 0.95192 0.59593 0.24997 0.0
C322 C 0.88696 0.53827 0.37876 0.0
C323 C 0.89202 0.5245 0.42487 0.0
C324 C 0.8797 0.49745 0.43402 0.0
C325 C 0.88283 0.4844 0.47737 0.0
C326 C 0.89845 0.49786 0.5135 0.0
C327 C 0.91097 0.52488 0.50433 0.0
C328 C 0.90772 0.53804 0.46095 0.0
C329 C 0.88763 0.61068 0.2664 0.0
C330 C 0.96369 0.59262 0.36111 0.0
C331 C 0.97738 0.62543 0.18737 0.0
C332 C 0.97409 0.63281 0.13747 0.0
C333 C 0.96861 0.61057 0.10082 0.0
C334 C 0.97113 0.61604 0.05208 0.0
C335 C 0.97835 0.64408 1.03885 0.0
C336 C 0.98174 0.66696 0.07572 0.0
C337 C 0.98023 0.66119 0.12454 0.0
C338 C 0.9727 0.54421 0.26526 0.0
C339 C 0.90732 0.54972 0.20537 0.0
O340 O 0.88663 0.56715 0.37945 0.0
O341 O 0.89889 0.52573 0.33736 0.0
O342 O 0.87569 0.58795 0.28305 0.0
O343 O 0.91164 0.61035 0.28359 0.0
O344 O 0.94037 0.57864 0.36457 0.0
O345 O 0.97073 0.60578 0.32097 0.0
O346 O 0.98208 0.59775 0.19141 0.0
O347 O 0.9605 0.63737 0.22361 0.0
O348 O 0.98591 0.56858 0.26622 0.0
O349 O 0.94727 0.5503 0.26115 0.0
O350 O 0.92341 0.57303 0.19927 0.0
O351 O 0.90245 0.53962 0.24786 0.0
H352 H 0.86735 0.48634 0.4075 0.0
H353 H 0.87307 0.46356 0.48261 0.0
H354 H 0.92336 0.53587 0.53089 0.0
H355 H 0.91749 0.55886 0.45575 0.0
H356 H 0.96368 0.58847 0.10947 0.0
H357 H 0.96825 0.59806 1.02447 0.0
H358 H 0.98703 0.68886 0.06644 0.0
H359 H 0.98461 0.67867 0.15201 0.0
La360 La 0.19451 0.1486 0.05015 0.0
La361 La 0.17503 0.19064 0.98391 0.0
C362 C 0.21513 0.12582 0.12001 0.0
C363 C 0.22696 0.13247 0.16869 0.0
C364 C 0.21087 0.12875 0.21271 0.0
C365 C 0.22249 0.13155 0.25783 0.0
C366 C 0.25071 0.13801 0.26077 0.0
C367 C 0.26675 0.14208 0.21698 0.0
C368 C 0.25518 0.1392 0.17184 0.0
C369 C 0.14525 0.13566 1.01529 0.0
C370 C 0.17131 0.21169 0.09345 0.0
C371 C 0.15905 0.21984 0.91792 0.0
C372 C 0.15045 0.2183 0.86795 0.0
C373 C 0.16779 0.2054 0.82758 0.0
C374 C 0.16157 0.20907 0.78025 0.0
C375 C 0.13782 0.22541 0.77248 0.0
C376 C 0.11979 0.23698 0.81264 0.0
C377 C 0.12624 0.23377 0.8599 0.0
C378 C 0.22512 0.20232 1.00901 0.0
C379 C 0.20353 0.1274 0.94178 0.0
O380 O 0.18853 0.13044 0.11754 0.0
O381 O 0.22957 0.13208 0.08019 0.0
O382 O 0.16343 0.11679 1.02631 0.0
O383 O 0.15424 0.16101 1.02793 0.0
O384 O 0.18946 0.19022 0.09502 0.0
O385 O 0.15877 0.21449 0.05374 0.0
O386 O 0.18486 0.21326 0.92277 0.0
O387 O 0.14232 0.21059 0.95236 0.0
O388 O 0.20475 0.22105 1.01119 0.0
O389 O 0.21554 0.1768 0.99978 0.0
O390 O 0.18582 0.14931 0.93622 0.0
O391 O 0.21224 0.12369 0.98434 0.0
H392 H 0.18924 0.12313 0.21224 0.0
H393 H 0.20936 0.12858 0.29061 0.0
H394 H 0.28846 0.14734 0.21768 0.0
H395 H 0.26855 0.14184 0.1392 0.0
H396 H 0.18672 0.19355 0.83252 0.0
H397 H 0.17573 0.19997 0.74972 0.0
H398 H 0.1014 0.24968 0.8074 0.0
H399 H 0.11272 0.2442 0.89031 0.0
La400 La 0.58901 0.44751 0.7539 0.0
La401 La 0.54761 0.41778 0.6957 0.0
C402 C 0.61194 0.4725 0.82641 0.0
C403 C 0.60562 0.48327 0.88042 0.0
C404 C 0.62667 0.48258 0.91226 0.0
C405 C 0.62228 0.49428 0.96179 0.0
C406 C 0.59657 0.50737 0.98203 0.0
C407 C 0.57528 0.50772 0.9504 0.0
C408 C 0.5797 0.49599 0.90067 0.0
C409 C 0.61209 0.41067 0.67398 0.0
C410 C 0.54026 0.41192 0.8076 0.0
C411 C 0.52219 0.38898 0.63129 0.0
C412 C 0.52229 0.38365 0.57822 0.0
C413 C 0.49734 0.37724 0.55798 0.0
C414 C 0.49654 0.3743 0.50759 0.0
C415 C 0.5207 0.37786 0.47687 0.0
C416 C 0.54573 0.38385 0.49708 0.0
C417 C 0.54641 0.38663 0.54746 0.0
C418 C 0.52487 0.46519 0.74783 0.0
C419 C 0.58444 0.4716 0.65605 0.0
O420 O 0.6135 0.4439 0.81289 0.0
O421 O 0.60014 0.48666 0.79452 0.0
O422 O 0.6241 0.43174 0.69878 0.0
O423 O 0.58995 0.407 0.70252 0.0
O424 O 0.55857 0.43286 0.80935 0.0
O425 O 0.53604 0.39802 0.76461 0.0
O426 O 0.51555 0.41589 0.64983 0.0
O427 O 0.54294 0.37809 0.65144 0.0
O428 O 0.51409 0.43935 0.74316 0.0
O429 O 0.54994 0.46183 0.72939 0.0
O430 O 0.56597 0.45045 0.64882 0.0
O431 O 0.59496 0.47662 0.69813 0.0
H432 H 0.64695 0.4733 0.89857 0.0
H433 H 0.63924 0.49332 0.9844 0.0
H434 H 0.55512 0.51731 0.96416 0.0
H435 H 0.56284 0.49715 0.87789 0.0
H436 H 0.47838 0.37504 0.58119 0.0
H437 H 0.47702 0.36977 0.49254 0.0
H438 H 0.56458 0.38671 0.47395 0.0
H439 H 0.56557 0.39146 0.56263 0.0
La440 La 0.28243 0.84731 0.49245 0.0
La441 La 0.32296 0.80614 0.52308 0.0
C442 C 0.2574 0.8866 0.45386 0.0
C443 C 0.26119 0.89792 0.40641 0.0
C444 C 0.23872 0.91123 0.38797 0.0
C445 C 0.24087 0.91765 0.33973 0.0
C446 C 0.26563 0.91105 0.30978 0.0
C447 C 0.28851 0.89906 0.32904 0.0
C448 C 0.28608 0.89203 0.37681 0.0
C449 C 0.26318 0.79393 0.50528 0.0
C450 C 0.31881 0.80312 0.40958 0.0
C451 C 0.34706 0.76769 0.56383 0.0
C452 C 0.34165 0.75688 0.61178 0.0
C453 C 0.33321 0.7766 0.653 0.0
C454 C 0.32744 0.76618 0.69816 0.0
C455 C 0.32998 0.73594 0.70272 0.0
C456 C 0.33817 0.7161 0.66173 0.0
C457 C 0.34396 0.72655 0.61638 0.0
C458 C 0.34781 0.8509 0.48592 0.0
C459 C 0.27712 0.84063 0.60504 0.0
O460 O 0.25033 0.85908 0.45213 0.0
O461 O 0.27682 0.89217 0.48283 0.0
O462 O 0.24907 0.81841 0.51738 0.0
O463 O 0.28661 0.80093 0.48864 0.0
O464 O 0.30311 0.82782 0.42029 0.0
O465 O 0.32743 0.78898 0.44539 0.0
O466 O 0.35504 0.7951 0.56393 0.0
O467 O 0.32829 0.76143 0.53361 0.0
O468 O 0.35772 0.82439 0.48509 0.0
O469 O 0.32441 0.85309 0.51249 0.0
O470 O 0.29608 0.81906 0.59247 0.0
O471 O 0.27026 0.85756 0.57159 0.0
H472 H 0.21918 0.91543 0.41018 0.0
H473 H 0.22296 0.92677 0.32526 0.0
H474 H 0.30769 0.89368 0.30629 0.0
H475 H 0.30327 0.88107 0.39017 0.0
H476 H 0.33114 0.8001 0.65048 0.0
H477 H 0.32109 0.78167 0.72961 0.0
H478 H 0.34024 0.69266 0.665 0.0
H479 H 0.35022 0.71102 0.58495 0.0
La480 La 0.92165 0.45106 0.80841 0.0
La481 La 0.94961 0.39957 0.75709 0.0
C482 C 0.89039 0.48577 0.86595 0.0
C483 C 0.88394 0.49195 0.91823 0.0
C484 C 0.88715 0.52087 0.93902 0.0
C485 C 0.88631 0.52681 0.98905 0.0
C486 C 0.88183 0.50393 1.01865 0.0
C487 C 0.8764 0.47539 0.99829 0.0
C488 C 0.87775 0.4693 0.94799 0.0
C489 C 0.96456 0.46672 0.75396 0.0
C490 C 0.97004 0.41694 0.85841 0.0
C491 C 0.9716 0.35891 0.69568 0.0
C492 C 0.98077 0.35597 0.6431 0.0
C493 C 0.98389 0.32781 0.61721 0.0
C494 C 0.99127 0.32469 0.56694 0.0
C495 C 0.99553 0.34973 0.54174 0.0
C496 C 0.99282 0.37791 0.56776 0.0
C497 C 0.98554 0.38098 0.61803 0.0
C498 C 0.90749 0.38884 0.8234 0.0
C499 C 0.91688 0.44299 0.69541 0.0
O500 O 0.9158 0.49165 0.85047 0.0
O501 O 0.88221 0.46068 0.84527 0.0
O502 O 0.94103 0.48095 0.76216 0.0
O503 O 0.96398 0.44381 0.7767 0.0
O504 O 0.94745 0.43495 0.86461 0.0
O505 O 0.97739 0.40275 0.81505 0.0
O506 O 0.94488 0.36239 0.70727 0.0
O507 O 0.98561 0.37668 0.72366 0.0
O508 O 0.93038 0.37352 0.81412 0.0
O509 O 0.90811 0.40778 0.793 0.0
O510 O 0.93614 0.42199 0.69535 0.0
O511 O 0.90476 0.45509 0.73776 0.0
H512 H 0.89184 0.53855 0.91641 0.0
H513 H 0.89032 0.54897 1.0046 0.0
H514 H 0.87274 0.45765 1.02113 0.0
H515 H 0.87517 0.44683 0.93252 0.0
H516 H 0.98028 0.30822 0.63578 0.0
H517 H 0.99322 0.30277 0.54753 0.0
H518 H 0.99595 0.39752 0.54903 0.0
H519 H 0.98335 0.40284 0.63727 0.0
La520 La 0.2891 0.16903 0.56632 0.0
La521 La 0.33997 0.19543 0.51673 0.0
C522 C 0.26077 0.13354 0.61215 0.0
C523 C 0.26115 0.12063 0.65828 0.0
C524 C 0.2499 0.09273 0.66293 0.0
C525 C 0.24403 0.08321 0.70896 0.0
C526 C 0.2486 0.10206 0.75048 0.0
C527 C 0.26259 0.12849 0.74536 0.0
C528 C 0.26906 0.13763 0.69946 0.0
C529 C 0.27141 0.21274 0.51818 0.0
C530 C 0.31941 0.22211 0.62101 0.0
C531 C 0.3739 0.22036 0.46054 0.0
C532 C 0.37407 0.22969 0.41084 0.0
C533 C 0.39803 0.22502 0.37817 0.0
C534 C 0.39834 0.23314 0.33077 0.0
C535 C 0.37447 0.24555 0.31471 0.0
C536 C 0.35056 0.25042 0.34758 0.0
C537 C 0.35053 0.24305 0.39532 0.0
C538 C 0.3521 0.16207 0.58963 0.0
C539 C 0.29994 0.15603 0.45054 0.0
O540 O 0.2556 0.16214 0.61607 0.0
O541 O 0.28056 0.12495 0.57784 0.0
O542 O 0.25579 0.19793 0.54693 0.0
O543 O 0.29631 0.20422 0.52156 0.0
O544 O 0.30577 0.19724 0.62499 0.0
O545 O 0.32884 0.22916 0.57758 0.0
O546 O 0.37431 0.19178 0.46384 0.0
O547 O 0.35654 0.23466 0.49433 0.0
O548 O 0.36743 0.18176 0.57067 0.0
O549 O 0.33301 0.15841 0.56029 0.0
O550 O 0.32331 0.17063 0.45355 0.0
O551 O 0.28483 0.14993 0.49063 0.0
H552 H 0.24404 0.07919 0.63135 0.0
H553 H 0.23377 0.06245 0.71241 0.0
H554 H 0.26681 0.14303 0.77703 0.0
H555 H 0.27841 0.15892 0.69651 0.0
H556 H 0.41654 0.21501 0.38931 0.0
H557 H 0.41711 0.22935 0.30632 0.0
H558 H 0.33193 0.2601 0.33632 0.0
H559 H 0.33199 0.24765 0.41999 0.0
La560 La 0.57978 0.55431 0.30633 0.0
La561 La 0.54118 0.5966 0.27722 0.0
C562 C 0.61828 0.5317 0.34603 0.0
C563 C 0.62615 0.53671 0.39522 0.0
C564 C 0.61083 0.55747 0.42841 0.0
C565 C 0.61133 0.55611 0.47792 0.0
C566 C 0.6261 0.53296 0.49391 0.0
C567 C 0.64478 0.5152 0.46121 0.0
C568 C 0.6447 0.51701 0.41154 0.0
C569 C 0.53933 0.52697 0.26594 0.0
C570 C 0.52796 0.58234 0.38323 0.0
C571 C 0.50956 0.62971 0.2385 0.0
C572 C 0.49849 0.63045 0.1915 0.0
C573 C 0.50147 0.60584 0.15652 0.0
C574 C 0.4926 0.60771 0.11059 0.0
C575 C 0.48057 0.63412 0.09944 0.0
C576 C 0.47695 0.65845 0.13478 0.0
C577 C 0.48593 0.65661 0.18065 0.0
C578 C 0.58128 0.62047 0.33008 0.0
C579 C 0.57935 0.55692 0.19261 0.0
O580 O 0.59393 0.52001 0.34313 0.0
O581 O 0.62156 0.55396 0.32017 0.0
O582 O 0.56468 0.51727 0.26312 0.0
O583 O 0.5369 0.55139 0.29272 0.0
O584 O 0.55291 0.56848 0.37631 0.0
O585 O 0.51712 0.5927 0.34634 0.0
O586 O 0.53638 0.63308 0.23821 0.0
O587 O 0.50077 0.60855 0.26421 0.0
O588 O 0.55573 0.62919 0.33269 0.0
O589 O 0.58366 0.59944 0.29616 0.0
O590 O 0.55606 0.57269 0.20523 0.0
O591 O 0.59495 0.55081 0.2275 0.0
H592 H 0.59662 0.57299 0.41624 0.0
H593 H 0.59686 0.56991 0.5029 0.0
H594 H 0.65622 0.49717 0.47348 0.0
H595 H 0.65665 0.50092 0.38617 0.0
H596 H 0.51102 0.58543 0.16442 0.0
H597 H 0.49557 0.58882 0.08345 0.0
H598 H 0.46778 0.67898 0.12644 0.0
H599 H 0.48356 0.67577 0.20736 0.0
La600 La 0.21723 0.8568 0.9246 0.0
La601 La 0.17964 0.81154 0.88658 0.0
C602 C 0.23759 0.9036 0.96103 0.0
C603 C 0.24163 0.91223 1.01198 0.0
C604 C 0.26382 0.92998 1.02452 0.0
C605 C 0.27048 0.93355 0.07268 0.0
C606 C 0.25475 0.91957 0.10839 0.0
C607 C 0.23211 0.90267 0.09588 0.0
C608 C 0.22583 0.89876 0.04803 0.0
C609 C 0.24229 0.80451 0.91225 0.0
C610 C 0.19541 0.80735 0.9911 0.0
C611 C 0.1547 0.77706 0.82799 0.0
C612 C 0.15979 0.76374 0.77545 0.0
C613 C 0.13996 0.76796 0.74249 0.0
C614 C 0.14382 0.75534 0.69361 0.0
C615 C 0.16761 0.73789 0.67585 0.0
C616 C 0.18753 0.73369 0.70856 0.0
C617 C 0.18369 0.74636 0.75743 0.0
C618 C 0.15298 0.84952 0.96158 0.0
C619 C 0.21931 0.8461 0.80912 0.0
O620 O 0.25243 0.8805 0.9419 0.0
O621 O 0.21187 0.9017 0.95056 0.0
O622 O 0.24771 0.82653 0.94285 0.0
O623 O 0.22412 0.81341 0.88564 0.0
O624 O 0.20322 0.83528 0.98986 0.0
O625 O 0.18956 0.79107 0.95089 0.0
O626 O 0.14976 0.8057 0.83577 0.0
O627 O 0.17032 0.76798 0.86001 0.0
O628 O 0.14675 0.82288 0.94635 0.0
O629 O 0.17215 0.85562 0.92789 0.0
O630 O 0.19941 0.82707 0.8178 0.0
O631 O 0.22846 0.86221 0.84647 0.0
H632 H 0.27667 0.93991 0.99684 0.0
H633 H 0.28831 0.9463 0.08181 0.0
H634 H 0.21997 0.89146 0.12292 0.0
H635 H 0.20917 0.88436 1.03902 0.0
H636 H 0.12127 0.78105 0.75462 0.0
H637 H 0.1281 0.75921 0.66954 0.0
H638 H 0.20621 0.72063 0.69621 0.0
H639 H 0.19957 0.74244 0.7809 0.0
La640 La 0.55145 0.90042 0.63601 0.0
La641 La 0.58677 0.93374 0.5727 0.0
C642 C 0.53478 0.86636 0.69932 0.0
C643 C 0.53302 0.86689 0.75293 0.0
C644 C 0.51111 0.882 0.78266 0.0
C645 C 0.5092 0.88148 0.83304 0.0
C646 C 0.52897 0.86563 0.85454 0.0
C647 C 0.55077 0.85041 0.82515 0.0
C648 C 0.55265 0.8509 0.77476 0.0
C649 C 0.5245 0.94957 0.6247 0.0
C650 C 0.59091 0.9545 0.67668 0.0
C651 C 0.60988 0.95627 0.49878 0.0
C652 C 0.60455 0.96924 0.45236 0.0
C653 C 0.62671 0.98166 0.42535 0.0
C654 C 0.62314 0.99322 0.38099 0.0
C655 C 0.59724 0.99277 0.36178 0.0
C656 C 0.57486 0.98066 0.38897 0.0
C657 C 0.57844 0.96907 0.4336 0.0
C658 C 0.61358 0.89148 0.61816 0.0
C659 C 0.53578 0.90268 0.52987 0.0
O660 O 0.51869 0.8846 0.68124 0.0
O661 O 0.55941 0.86499 0.67616 0.0
O662 O 0.51374 0.9239 0.62636 0.0
O663 O 0.55065 0.94656 0.62556 0.0
O664 O 0.57593 0.93057 0.68527 0.0
O665 O 0.59371 0.96399 0.63346 0.0
O666 O 0.60628 0.92789 0.50092 0.0
O667 O 0.60168 0.97142 0.54048 0.0
O668 O 0.62302 0.91632 0.60569 0.0
O669 O 0.59059 0.8897 0.59826 0.0
O670 O 0.55094 0.92618 0.53214 0.0
O671 O 0.53691 0.88425 0.56406 0.0
H672 H 0.49519 0.89387 0.76706 0.0
H673 H 0.49203 0.89305 0.85525 0.0
H674 H 0.56598 0.83772 0.84115 0.0
H675 H 0.56914 0.8383 0.75275 0.0
H676 H 0.64709 0.9822 0.43845 0.0
H677 H 0.64083 0.00226 0.36125 0.0
H678 H 0.55459 0.98004 0.37549 0.0
H679 H 0.56083 0.95986 0.45323 0.0
La680 La 0.33773 0.31065 0.91065 0.0
La681 La 0.29835 0.33861 0.8549 0.0
C682 C 0.37324 0.30198 0.97032 0.0
C683 C 0.3743 0.29172 1.01912 0.0
C684 C 0.35946 0.26727 1.03353 0.0
C685 C 0.35924 0.25968 0.08124 0.0
C686 C 0.37476 0.27566 0.11495 0.0
C687 C 0.39051 0.29934 0.0998 0.0
C688 C 0.39 0.30747 0.05262 0.0
C689 C 0.29587 0.27536 0.90134 0.0
C690 C 0.28485 0.35254 0.96211 0.0
C691 C 0.27068 0.35694 0.78923 0.0
C692 C 0.25769 0.35169 0.74187 0.0
C693 C 0.23093 0.36353 0.7385 0.0
C694 C 0.21933 0.36255 0.69364 0.0
C695 C 0.23414 0.34977 0.6504 0.0
C696 C 0.26076 0.33743 0.65369 0.0
C697 C 0.27243 0.33849 0.69865 0.0
C698 C 0.34135 0.37146 0.8859 0.0
C699 C 0.33596 0.28817 0.80268 0.0
O700 O 0.36792 0.28281 0.93445 0.0
O701 O 0.35963 0.32669 0.96924 0.0
O702 O 0.32154 0.26749 0.90018 0.0
O703 O 0.29399 0.30359 0.90565 0.0
O704 O 0.30958 0.33976 0.96477 0.0
O705 O 0.27349 0.3521 0.92106 0.0
O706 O 0.29776 0.35691 0.78829 0.0
O707 O 0.25928 0.34654 0.82847 0.0
O708 O 0.31592 0.38035 0.88523 0.0
O709 O 0.34171 0.34506 0.86694 0.0
O710 O 0.31039 0.29833 0.81055 0.0
O711 O 0.35402 0.2954 0.83487 0.0
H712 H 0.34785 0.25416 1.00813 0.0
H713 H 0.34706 0.24123 0.09183 0.0
H714 H 0.40282 0.31188 0.12485 0.0
H715 H 0.40179 0.32627 1.04233 0.0
H716 H 0.21909 0.37423 0.77069 0.0
H717 H 0.19872 0.37193 0.69267 0.0
H718 H 0.27262 0.32708 0.62127 0.0
H719 H 0.29316 0.32937 0.69941 0.0
La720 La 0.94777 0.09791 0.18241 0.0
La721 La 0.91104 0.05062 0.13093 0.0
C722 C 0.96064 0.14022 0.24106 0.0
C723 C 0.96872 0.14065 0.29138 0.0
C724 C 0.99525 0.13072 0.30049 0.0
C725 C 0.00182 0.12916 0.34816 0.0
C726 C 0.98196 0.13724 0.38756 0.0
C727 C 0.95563 0.14751 0.37871 0.0
C728 C 0.94915 0.14939 0.33112 0.0
C729 C 0.97468 0.04674 0.16963 0.0
C730 C 0.92206 0.04118 0.2348 0.0
C731 C 0.8905 0.0218 0.05891 0.0
C732 C 0.8969 0.00887 1.00547 0.0
C733 C 0.88152 0.985 0.98612 0.0
C734 C 0.88519 0.9738 0.93611 0.0
C735 C 0.90447 0.98587 0.90251 0.0
C736 C 0.92013 0.00961 0.9219 0.0
C737 C 0.91636 0.02094 0.97203 0.0
C738 C 0.88356 0.09025 0.20225 0.0
C739 C 0.95927 0.08419 0.06938 0.0
O740 O 0.97799 0.12752 0.2059 0.0
O741 O 0.93516 0.13286 0.23519 0.0
O742 O 0.98474 0.07106 0.18776 0.0
O743 O 0.95251 0.05408 0.15184 0.0
O744 O 0.9313 0.0688 0.23753 0.0
O745 O 0.91528 0.02724 0.19314 0.0
O746 O 0.88896 0.05077 0.06878 0.0
O747 O 0.90145 0.00922 0.09377 0.0
O748 O 0.87486 0.06504 0.18393 0.0
O749 O 0.90463 0.09478 0.17142 0.0
O750 O 0.94413 0.06076 0.07563 0.0
O751 O 0.95953 0.10594 0.10545 0.0
H752 H 0.01084 0.12376 0.27086 0.0
H753 H 0.02229 0.1213 0.35436 0.0
H754 H 0.94008 0.15398 0.40867 0.0
H755 H 0.92863 0.15721 0.32535 0.0
H756 H 0.86613 0.97508 1.00983 0.0
H757 H 0.87272 0.95554 0.92356 0.0
H758 H 0.93532 0.01968 0.89801 0.0
H759 H 0.92858 0.03941 0.98445 0.0
La760 La 0.1795 0.6902 0.3539 0.0
La761 La 0.21629 0.64162 0.38122 0.0
C762 C 0.16142 0.73597 0.32242 0.0
C763 C 0.16739 0.7503 0.27764 0.0
C764 C 0.14554 0.76231 0.25552 0.0
C765 C 0.15057 0.77285 0.21006 0.0
C766 C 0.17747 0.77111 0.18596 0.0
C767 C 0.19943 0.76014 0.20899 0.0
C768 C 0.19443 0.74996 0.25458 0.0
C769 C 0.14997 0.64681 0.38665 0.0
C770 C 0.22088 0.65164 0.26867 0.0
C771 C 0.23435 0.59583 0.41369 0.0
C772 C 0.2346 0.58562 0.46194 0.0
C773 C 0.23389 0.60603 0.50338 0.0
C774 C 0.23534 0.59622 0.54891 0.0
C775 C 0.23744 0.5659 0.55362 0.0
C776 C 0.2372 0.54538 0.51248 0.0
C777 C 0.23589 0.55525 0.46671 0.0
C778 C 0.23979 0.69403 0.37712 0.0
C779 C 0.18402 0.68709 0.46819 0.0
O780 O 0.14986 0.71017 0.31652 0.0
O781 O 0.18123 0.73605 0.35163 0.0
O782 O 0.14157 0.67356 0.38388 0.0
O783 O 0.17405 0.64369 0.36211 0.0
O784 O 0.20362 0.67474 0.28269 0.0
O785 O 0.22677 0.63337 0.30103 0.0
O786 O 0.24937 0.61866 0.40565 0.0
O787 O 0.21009 0.59814 0.39769 0.0
O788 O 0.25294 0.66884 0.36533 0.0
O789 O 0.21541 0.68785 0.38936 0.0
O790 O 0.1999 0.66261 0.45527 0.0
O791 O 0.17446 0.70205 0.4339 0.0
H792 H 0.12451 0.76277 0.27279 0.0
H793 H 0.13338 0.78146 0.19296 0.0
H794 H 0.22036 0.75906 0.1913 0.0
H795 H 0.21154 0.74118 0.27134 0.0
H796 H 0.23266 0.62954 0.50054 0.0
H797 H 0.23519 0.61229 0.58049 0.0
H798 H 0.23847 0.5219 0.51579 0.0
H799 H 0.23617 0.53925 0.43503 0.0
La800 La 0.55177 0.08504 0.11612 0.0
La801 La 0.58083 0.03371 0.05738 0.0
C802 C 0.52936 0.12362 0.18004 0.0
C803 C 0.51937 0.12458 0.23175 0.0
C804 C 0.50677 0.15055 0.25611 0.0
C805 C 0.49883 0.15231 0.30603 0.0
C806 C 0.50376 0.12821 0.33212 0.0
C807 C 0.51595 0.1021 0.30758 0.0
C808 C 0.52347 0.10024 0.25772 0.0
C809 C 0.59332 0.098 0.05027 0.0
C810 C 0.58424 0.03833 0.17121 0.0
C811 C 0.61551 0.00192 1.00169 0.0
C812 C 0.62821 0.00077 0.95227 0.0
C813 C 0.63473 0.97306 0.92691 0.0
C814 C 0.63763 0.97025 0.8765 0.0
C815 C 0.63406 0.99522 0.85195 0.0
C816 C 0.632 0.02346 0.87731 0.0
C817 C 0.62864 0.02617 0.92772 0.0
C818 C 0.53728 0.01689 0.11046 0.0
C819 C 0.53197 0.07032 1.01327 0.0
O820 O 0.55622 0.11986 0.16996 0.0
O821 O 0.5155 0.10724 0.14967 0.0
O822 O 0.57139 0.11418 0.06447 0.0
O823 O 0.59245 0.07717 0.07722 0.0
O824 O 0.56429 0.0587 0.17339 0.0
O825 O 0.5971 0.02829 0.12829 0.0
O826 O 0.58877 0.99729 1.00554 0.0
O827 O 0.62227 0.02417 1.03152 0.0
O828 O 0.55926 0.00087 0.09579 0.0
O829 O 0.53949 0.0412 0.09202 0.0
O830 O 0.55535 0.05342 1.00399 0.0
O831 O 0.5242 0.08211 0.05812 0.0
H832 H 0.50343 0.16955 0.23666 0.0
H833 H 0.48934 0.1726 0.3245 0.0
H834 H 0.51973 0.08322 0.32709 0.0
H835 H 0.5325 0.07978 0.23979 0.0
H836 H 0.63451 0.95332 0.94572 0.0
H837 H 0.63908 0.94835 0.85707 0.0
H838 H 0.62904 0.0428 0.85845 0.0
H839 H 0.62332 0.04753 0.94703 0.0
La840 La 0.15644 0.30206 0.37834 0.0
La841 La 0.20224 0.33529 0.34659 0.0
C842 C 0.12246 0.27328 0.42834 0.0
C843 C 0.12181 0.26451 0.47862 0.0
C844 C 0.10121 0.2763 0.51481 0.0
C845 C 0.10164 0.26972 0.56301 0.0
C846 C 0.12274 0.2513 0.57582 0.0
C847 C 0.1429 0.23899 0.53967 0.0
C848 C 0.14236 0.24541 0.49165 0.0
C849 C 0.1415 0.33702 0.31084 0.0
C850 C 0.18685 0.34104 0.45955 0.0
C851 C 0.23321 0.37102 0.3057 0.0
C852 C 0.23656 0.38107 0.25739 0.0
C853 C 0.26341 0.38445 0.23554 0.0
C854 C 0.26761 0.38653 0.18579 0.0
C855 C 0.24492 0.38546 0.15793 0.0
C856 C 0.21785 0.38507 0.18053 0.0
C857 C 0.21374 0.38251 0.23011 0.0
C858 C 0.22037 0.29207 0.39486 0.0
C859 C 0.1825 0.28273 0.27397 0.0
O860 O 0.1195 0.30163 0.42471 0.0
O861 O 0.14188 0.26094 0.39627 0.0
O862 O 0.1298 0.3133 0.32306 0.0
O863 O 0.15813 0.34371 0.34419 0.0
O864 O 0.16765 0.32203 0.44914 0.0
O865 O 0.20055 0.35339 0.42374 0.0
O866 O 0.23966 0.34309 0.30659 0.0
O867 O 0.21004 0.37894 0.33245 0.0
O868 O 0.22982 0.31841 0.39491 0.0
O869 O 0.20072 0.29024 0.36691 0.0
O870 O 0.1981 0.30624 0.27954 0.0
O871 O 0.16668 0.27419 0.31115 0.0
H872 H 0.08505 0.29101 0.50598 0.0
H873 H 0.08587 0.27943 0.59046 0.0
H874 H 0.15936 0.22477 0.5488 0.0
H875 H 0.15843 0.23583 0.46504 0.0
H876 H 0.28123 0.38318 0.25617 0.0
H877 H 0.28861 0.38666 0.16849 0.0
H878 H 0.20021 0.3839 0.15918 0.0
H879 H 0.19304 0.37933 0.2463 0.0
La880 La 0.95392 0.89343 0.60295 0.0
La881 La 0.92956 0.94729 0.5736 0.0
C882 C 0.98479 0.85521 0.63224 0.0
C883 C 0.99682 0.85413 0.67907 0.0
C884 C -0.00046 0.82718 0.69894 0.0
C885 C 0.00882 0.82654 0.74518 0.0
C886 C 0.01551 0.85286 0.77213 0.0
C887 C 0.01325 0.87969 0.75187 0.0
C888 C 0.00391 0.8803 0.70589 0.0
C889 C 0.90861 0.88525 0.5528 0.0
C890 C 0.92152 0.93714 0.69017 0.0
C891 C 0.89033 0.97709 0.54948 0.0
C892 C 0.88041 0.97599 0.50158 0.0
C893 C 0.89364 0.95589 0.46474 0.0
C894 C 0.89411 0.9617 0.41671 0.0
C895 C 0.88075 0.98726 0.40537 0.0
C896 C 0.86292 0.00392 0.44125 0.0
C897 C 0.86328 -0.00133 0.48981 0.0
C898 C 0.9764 0.95827 0.60831 0.0
C899 C 0.97581 0.91275 0.49706 0.0
O900 O 0.95774 0.85352 0.63425 0.0
O901 O 0.99402 0.87577 0.60554 0.0
O902 O 0.91511 0.86948 0.58661 0.0
O903 O 0.92826 0.9024 0.54736 0.0
O904 O 0.9371 0.91269 0.67757 0.0
O905 O 0.91508 0.95312 0.6546 0.0
O906 O 0.91563 0.98695 0.55096 0.0
O907 O 0.88685 0.95287 0.57078 0.0
O908 O 0.96703 0.97212 0.57415 0.0
O909 O 0.95881 0.93986 0.62248 0.0
O910 O 0.95533 0.93329 0.50369 0.0
O911 O 0.98004 0.89597 0.53257 0.0
H912 H 0.99395 0.80675 0.67915 0.0
H913 H 0.01024 0.80564 0.76037 0.0
H914 H 0.01801 0.90023 0.77229 0.0
H915 H 0.00168 0.90132 0.69167 0.0
H916 H 0.9064 0.9378 0.47342 0.0
H917 H 0.90771 0.94838 0.38951 0.0
H918 H 0.85214 0.02349 0.43288 0.0
H919 H 0.85273 0.01413 0.51804 0.0
La920 La 0.32419 0.67944 0.99326 0.0
La921 La 0.28114 0.64134 0.94798 0.0
C922 C 0.35106 0.71123 0.05281 0.0
C923 C 0.34627 0.72575 0.10429 0.0
C924 C 0.36809 0.74 0.12676 0.0
C925 C 0.36419 0.75325 0.17528 0.0
C926 C 0.33829 0.75269 0.20291 0.0
C927 C 0.31646 0.7387 0.18026 0.0
C928 C 0.32038 0.72538 0.13188 0.0
C929 C 0.34677 0.64039 0.91647 0.0
C930 C 0.27795 0.64674 0.06319 0.0
C931 C 0.25693 0.60311 0.89654 0.0
C932 C 0.25928 0.58904 0.84645 0.0
C933 C 0.26788 0.60523 0.8076 0.0
C934 C 0.26514 0.59354 0.76006 0.0
C935 C 0.25403 0.56549 0.7508 0.0
C936 C 0.24715 0.54846 0.78926 0.0
C937 C 0.24969 0.56029 0.83701 0.0
C938 C 0.26062 0.6944 0.98919 0.0
C939 C 0.31084 0.6915 0.88985 0.0
O940 O 0.35251 0.6822 0.04683 0.0
O941 O 0.33688 0.72171 1.02005 0.0
O942 O 0.357 0.66455 0.93536 0.0
O943 O 0.32597 0.6362 0.94844 0.0
O944 O 0.29704 0.66704 0.05747 0.0
O945 O 0.2712 0.63005 1.02409 0.0
O946 O 0.25033 0.63132 0.90188 0.0
O947 O 0.27612 0.59644 0.92421 0.0
O948 O 0.24643 0.6706 0.9829 0.0
O949 O 0.28448 0.68633 0.97147 0.0
O950 O 0.29927 0.66498 0.88719 0.0
O951 O 0.31743 0.70472 0.93219 0.0
H952 H 0.38834 0.74072 0.10682 0.0
H953 H 0.38153 0.7637 0.19144 0.0
H954 H 0.29638 0.73796 0.20042 0.0
H955 H 0.30317 0.71462 0.11619 0.0
H956 H 0.27557 0.62737 0.81406 0.0
H957 H 0.27068 0.60683 0.73058 0.0
H958 H 0.23857 0.52676 0.78247 0.0
H959 H 0.24296 0.54755 0.86664 0.0
La960 La 0.40653 0.06244 0.80994 0.0
La961 La 0.44338 0.09797 0.75283 0.0
C962 C 0.38451 0.03845 0.88293 0.0
C963 C 0.39072 0.02716 0.93055 0.0
C964 C 0.37322 0.03608 0.97322 0.0
C965 C 0.37731 0.02537 1.01811 0.0
C966 C 0.39912 0.00521 1.02238 0.0
C967 C 0.41685 0.99631 0.9798 0.0
C968 C 0.41273 0.00706 0.93466 0.0
C969 C 0.38027 0.10729 0.77236 0.0
C970 C 0.46032 0.0872 0.85455 0.0
C971 C 0.46093 0.13463 0.69494 0.0
C972 C 0.46733 0.13387 0.64172 0.0
C973 C 0.49324 0.12321 0.61898 0.0
C974 C 0.49897 0.12245 0.56867 0.0
C975 C 0.47903 0.13266 0.54042 0.0
C976 C 0.45328 0.14357 0.56292 0.0
C977 C 0.4475 0.1442 0.61315 0.0
C978 C 0.46617 0.04495 0.74992 0.0
C979 C 0.40173 0.05067 0.7007 0.0
O980 O 0.38547 0.0671 0.88045 0.0
O981 O 0.39387 0.0236 0.84128 0.0
O982 O 0.37024 0.08236 0.78308 0.0
O983 O 0.40387 0.1081 0.79109 0.0
O984 O 0.44422 0.0646 0.84791 0.0
O985 O 0.45902 0.10855 0.82543 0.0
O986 O 0.47701 0.11909 0.7182 0.0
O987 O 0.43503 0.13208 0.71058 0.0
O988 O 0.47951 0.06935 0.75143 0.0
O989 O 0.44048 0.05109 0.75328 0.0
O990 O 0.42124 0.07108 0.69758 0.0
O991 O 0.39368 0.04086 0.74309 0.0
H992 H 0.35599 0.05134 0.97181 0.0
H993 H 0.36324 0.03282 0.04974 0.0
H994 H 0.43393 0.98092 0.98146 0.0
H995 H 0.42673 -0.00046 0.90297 0.0
H996 H 0.50905 0.11531 0.63994 0.0
H997 H 0.51895 0.11396 0.55173 0.0
H998 H 0.43769 0.15156 0.54156 0.0
H999 H 0.42749 0.15275 0.62959 0.0
La1000 La 0.69439 0.65712 0.54019 0.0
La1001 La 0.66214 0.69933 0.48755 0.0
C1002 C 0.7218 0.6337 0.60175 0.0
C1003 C 0.73176 0.63794 0.65222 0.0
C1004 C 0.72571 0.61663 0.68493 0.0
C1005 C 0.73694 0.61797 0.73025 0.0
C1006 C 0.75477 0.64071 0.74494 0.0
C1007 C 0.76057 0.66238 0.71263 0.0
C1008 C 0.74938 0.66097 0.66703 0.0
C1009 C 0.64994 0.63553 0.497 0.0
C1010 C 0.65751 0.70984 0.59864 0.0
C1011 C 0.63403 0.72394 0.42943 0.0
C1012 C 0.6318 0.72378 0.37647 0.0
C1013 C 0.6554 0.72613 0.3436 0.0
C1014 C 0.65268 0.7298 0.2948 0.0
C1015 C 0.62629 0.73137 0.27793 0.0
C1016 C 0.60273 0.72807 0.31028 0.0
C1017 C 0.60548 0.72433 0.35911 0.0
C1018 C 0.70999 0.72086 0.51388 0.0
C1019 C 0.7063 0.65095 0.4295 0.0
O1020 O 0.69532 0.62976 0.59759 0.0
O1021 O 0.73278 0.64922 0.56792 0.0
O1022 O 0.67222 0.6206 0.50301 0.0
O1023 O 0.65239 0.66063 0.5203 0.0
O1024 O 0.67978 0.69255 0.5951 0.0
O1025 O 0.64325 0.71271 0.56099 0.0
O1026 O 0.6567 0.73441 0.44571 0.0
O1027 O 0.62602 0.70069 0.45037 0.0
O1028 O 0.68633 0.73498 0.51797 0.0
O1029 O 0.70503 0.69431 0.49948 0.0
O1030 O 0.68375 0.66813 0.42955 0.0
O1031 O 0.71722 0.6462 0.46995 0.0
H1032 H 0.71261 0.59836 0.67496 0.0
H1033 H 0.73188 0.6009 0.75383 0.0
H1034 H 0.77406 0.68032 0.72249 0.0
H1035 H 0.75489 0.67772 0.64308 0.0
H1036 H 0.6759 0.72622 0.35598 0.0
H1037 H 0.67112 0.73235 0.27051 0.0
H1038 H 0.58219 0.72926 0.29806 0.0
H1039 H 0.58695 0.72292 0.38374 0.0
La1040 La 0.09444 0.93743 0.25131 0.0
La1041 La 0.05886 0.90026 0.19052 0.0
C1042 C 0.11385 0.96866 0.32242 0.0
C1043 C 0.10828 0.97852 0.37705 0.0
C1044 C 0.12643 0.96979 0.4103 0.0
C1045 C 0.12337 0.98105 0.46017 0.0
C1046 C 0.10193 0.00159 0.4795 0.0
C1047 C 0.08352 0.01009 0.44642 0.0
C1048 C 0.08681 -0.0009 0.39635 0.0
C1049 C 0.12261 0.89912 0.17762 0.0
C1050 C 0.04763 0.90136 0.30659 0.0
C1051 C 0.04339 0.86264 0.12503 0.0
C1052 C 0.04768 0.85707 0.07167 0.0
C1053 C 0.03389 0.83364 0.04837 0.0
C1054 C 0.03221 0.83163 0.99819 0.0
C1055 C 0.04434 0.85302 0.97056 0.0
C1056 C 0.05969 0.87545 0.99329 0.0
C1057 C 0.06127 0.87754 1.04363 0.0
C1058 C 0.02926 0.94631 0.23265 0.0
C1059 C 0.09228 0.95764 0.15227 0.0
O1060 O 0.12158 0.94116 0.3077 0.0
O1061 O 0.09752 0.97884 0.29255 0.0
O1062 O 0.1309 0.92416 0.19756 0.0
O1063 O 0.10059 0.89473 0.20587 0.0
O1064 O 0.0696 0.91758 0.30803 0.0
O1065 O 0.04173 0.8878 0.26388 0.0
O1066 O 0.03006 0.88709 0.1411 0.0
O1067 O 0.06414 0.85817 0.15041 0.0
O1068 O 0.02032 0.91973 0.22549 0.0
O1069 O 0.05526 0.94563 0.21919 0.0
O1070 O 0.07983 0.93186 0.14142 0.0
O1071 O 0.09552 0.96758 0.19732 0.0
H1072 H 0.14356 0.95455 0.39748 0.0
H1073 H 0.13808 0.9738 0.48381 0.0
H1074 H 0.06666 0.02567 0.45924 0.0
H1075 H 0.07258 0.00712 0.37256 0.0
H1076 H 0.02304 0.81784 0.06937 0.0
H1077 H 0.02021 0.81426 0.98129 0.0
H1078 H 0.06912 0.89221 0.97256 0.0
H1079 H 0.07185 0.89592 0.06091 0.0
La1080 La 0.76027 0.35879 0.99246 0.0
La1081 La 0.79973 0.31162 1.01217 0.0
C1082 C 0.73591 0.40438 0.96941 0.0
C1083 C 0.73159 0.42006 0.9268 0.0
C1084 C 0.70447 0.42314 0.91364 0.0
C1085 C 0.70005 0.43085 0.86761 0.0
C1086 C 0.72283 0.43386 0.83347 0.0
C1087 C 0.74965 0.43468 0.84893 0.0
C1088 C 0.75382 0.42893 0.89609 0.0
C1089 C 0.73771 0.30633 1.00209 0.0
C1090 C 0.78816 0.31196 0.90155 0.0
C1091 C 0.82519 0.27143 0.04703 0.0
C1092 C 0.82186 0.25849 0.09357 0.0
C1093 C 0.8449 0.24545 0.11091 0.0
C1094 C 0.84246 0.23464 0.15641 0.0
C1095 C 0.81703 0.23714 0.18533 0.0
C1096 C 0.79398 0.25024 0.16817 0.0
C1097 C 0.79632 0.26065 0.12241 0.0
C1098 C 0.82498 0.35444 0.96954 0.0
C1099 C 0.75884 0.34528 0.10291 0.0
O1100 O 0.72541 0.37814 0.9683 0.0
O1101 O 0.76037 0.40475 0.98601 0.0
O1102 O 0.72488 0.33145 1.01504 0.0
O1103 O 0.76126 0.31271 0.98549 0.0
O1104 O 0.77525 0.33823 0.91627 0.0
O1105 O 0.79622 0.29527 0.93498 0.0
O1106 O 0.83261 0.29909 0.05023 0.0
O1107 O 0.80552 0.26638 1.01801 0.0
O1108 O 0.83363 0.32742 0.96729 0.0
O1109 O 0.8043 0.35864 1.00256 0.0
O1110 O 0.77505 0.32218 0.08474 0.0
O1111 O 0.75344 0.36554 0.07353 0.0
H1112 H 0.68681 0.41761 0.93768 0.0
H1113 H 0.67912 0.43112 0.85688 0.0
H1114 H 0.76751 0.43812 0.8238 0.0
H1115 H 0.77453 0.42984 0.90736 0.0
H1116 H 0.86479 0.24376 0.08933 0.0
H1117 H 0.86036 0.22431 0.16908 0.0
H1118 H 0.77414 0.25202 0.18992 0.0
H1119 H 0.77819 0.27036 0.1097 0.0
La1120 La 0.4236 0.96817 0.32754 0.0
La1121 La 0.44821 0.91302 0.2653 0.0
C1122 C 0.38395 0.99517 0.3778 0.0
C1123 C 0.36964 0.99014 0.42449 0.0
C1124 C 0.38116 0.96941 0.45132 0.0
C1125 C 0.37668 0.97286 0.50165 0.0
C1126 C 0.36075 0.99711 0.52469 0.0
C1127 C 0.34435 0.0136 0.49745 0.0
C1128 C 0.34921 0.01042 0.44689 0.0
C1129 C 0.46708 0.98435 0.27369 0.0
C1130 C 0.46787 0.92755 0.37319 0.0
C1131 C 0.47684 0.87309 0.21278 0.0
C1132 C 0.48909 0.87138 0.16207 0.0
C1133 C 0.50318 0.8456 0.14001 0.0
C1134 C 0.51269 0.84327 0.09053 0.0
C1135 C 0.50791 0.86663 0.06268 0.0
C1136 C 0.49444 0.8926 0.08511 0.0
C1137 C 0.48522 0.89499 0.13443 0.0
C1138 C 0.40077 0.90671 0.3236 0.0
C1139 C 0.41747 0.96027 0.21163 0.0
O1140 O 0.41 0.00277 0.37987 0.0
O1141 O 0.38073 0.97481 0.34206 0.0
O1142 O 0.45212 0.00192 0.30596 0.0
O1143 O 0.45748 0.95864 0.275 0.0
O1144 O 0.44954 0.95041 0.38119 0.0
O1145 O 0.47115 0.91099 0.33043 0.0
O1146 O 0.44968 0.87389 0.21823 0.0
O1147 O 0.48729 0.89263 0.2434 0.0
O1148 O 0.40717 0.89238 0.28113 0.0
O1149 O 0.42131 0.92226 0.3303 0.0
O1150 O 0.43639 0.93869 0.20735 0.0
O1151 O 0.40656 0.97151 0.25568 0.0
H1152 H 0.39649 0.95324 0.43396 0.0
H1153 H 0.38911 0.95962 0.52221 0.0
H1154 H 0.33168 0.03218 0.51504 0.0
H1155 H 0.33987 0.02624 0.42627 0.0
H1156 H 0.5063 0.82712 0.16074 0.0
H1157 H 0.52307 0.82305 0.07367 0.0
H1158 H 0.49067 0.91087 0.06423 0.0
H1159 H 0.4748 0.91521 0.15073 0.0
La1160 La 0.78695 0.66095 0.04864 0.0
La1161 La 0.83282 0.68964 1.01155 0.0
C1162 C 0.75037 0.62987 0.089 0.0
C1163 C 0.74108 0.61715 0.13406 0.0
C1164 C 0.71562 0.62714 0.15894 0.0
C1165 C 0.70959 0.6222 0.2073 0.0
C1166 C 0.7295 0.60818 0.23132 0.0
C1167 C 0.75239 0.5935 0.20409 0.0
C1168 C 0.75785 0.59743 0.15495 0.0
C1169 C 0.77032 0.70338 0.99572 0.0
C1170 C 0.81031 0.71553 0.11351 0.0
C1171 C 0.86842 0.71102 0.95338 0.0
C1172 C 0.86714 0.7187 0.90286 0.0
C1173 C 0.89155 0.7205 0.87183 0.0
C1174 C 0.89028 0.72758 0.824 0.0
C1175 C 0.86458 0.73308 0.80641 0.0
C1176 C 0.84018 0.7311 0.83733 0.0
C1177 C 0.84146 0.72385 0.88491 0.0
C1178 C 0.84796 0.65778 0.08394 0.0
C1179 C 0.80034 0.64817 0.9374 0.0
O1180 O 0.74907 0.65869 0.09103 0.0
O1181 O 0.77303 0.61896 0.06384 0.0
O1182 O 0.75981 0.67784 0.99856 0.0
O1183 O 0.78991 0.70494 1.02322 0.0
O1184 O 0.79627 0.69067 0.11295 0.0
O1185 O 0.82383 0.7225 0.07288 0.0
O1186 O 0.86736 0.68282 0.95924 0.0
O1187 O 0.85244 0.72699 0.98715 0.0
O1188 O 0.85806 0.68215 0.07094 0.0
O1189 O 0.83092 0.64948 0.05172 0.0
O1190 O 0.8152 0.6718 0.94417 0.0
O1191 O 0.79169 0.63545 0.97626 0.0
H1192 H 0.70164 0.64113 0.14253 0.0
H1193 H 0.69143 0.63309 0.22765 0.0
H1194 H 0.76752 0.58181 0.22181 0.0
H1195 H 0.77675 0.58785 0.13528 0.0
H1196 H 0.91158 0.71639 0.88457 0.0
H1197 H 0.90936 0.72884 0.8007 0.0
H1198 H 0.82013 0.73498 0.82449 0.0
H1199 H 0.82231 0.7222 0.90762 0.0
La1200 La 0.07966 0.03684 0.80268 0.0
La1201 La 0.04964 0.08603 0.7771 0.0
C1202 C 0.11238 -0.00042 0.8309 0.0
C1203 C 0.12628 0.99199 0.8727 0.0
C1204 C 0.12037 0.96487 0.8906 0.0
C1205 C 0.12444 0.96112 0.93845 0.0
C1206 C 0.1335 0.98494 0.96858 0.0
C1207 C 0.14471 0.00947 0.9478 0.0
C1208 C 0.14166 0.0127 0.89925 0.0
C1209 C 0.04105 0.01831 0.74773 0.0
C1210 C 0.0268 0.06715 0.87622 0.0
C1211 C 0.02863 0.12522 0.73281 0.0
C1212 C 0.02162 0.12691 0.68219 0.0
C1213 C 0.04159 0.13555 0.64657 0.0
C1214 C 0.03524 0.13672 0.59873 0.0
C1215 C 0.00868 0.12966 0.58563 0.0
C1216 C 0.98851 0.12148 0.62111 0.0
C1217 C 0.99491 0.12014 0.66896 0.0
C1218 C 0.0841 0.10133 0.84595 0.0
C1219 C 0.08735 0.04795 0.69133 0.0
O1220 O 0.0853 -0.00203 0.83539 0.0
O1221 O 0.1206 0.02298 0.81038 0.0
O1222 O 0.06533 0.00673 0.74727 0.0
O1223 O 0.0382 0.04026 0.77992 0.0
O1224 O 0.04993 0.04991 0.8704 0.0
O1225 O 0.01957 0.0805 0.839 0.0
O1226 O 0.05508 0.12329 0.73898 0.0
O1227 O 0.01388 0.10767 0.75901 0.0
O1228 O 0.06071 0.11381 0.84106 0.0
O1229 O 0.08955 0.0824 0.80883 0.0
O1230 O 0.06517 0.0653 0.70329 0.0
O1231 O 0.09995 0.03839 0.72733 0.0
H1232 H 0.10966 0.94801 0.86964 0.0
H1233 H 0.11637 0.94166 0.95377 0.0
H1234 H 0.15288 0.02754 0.97013 0.0
H1235 H 0.14802 0.03304 0.88488 0.0
H1236 H 0.06221 0.14134 0.65559 0.0
H1237 H 0.05102 0.14331 0.57195 0.0
H1238 H 0.96782 0.1162 0.61173 0.0
H1239 H 0.97891 0.11384 0.69558 0.0
La1240 La 0.70351 0.3428 0.42626 0.0
La1241 La 0.65338 0.32124 0.38016 0.0
C1242 C 0.73437 0.37247 0.47959 0.0
C1243 C 0.73215 0.38658 0.53007 0.0
C1244 C 0.74063 0.37088 0.56729 0.0
C1245 C 0.73756 0.38351 0.61526 0.0
C1246 C 0.72599 0.41209 0.62703 0.0
C1247 C 0.7184 0.42831 0.58993 0.0
C1248 C 0.7217 0.41574 0.54167 0.0
C1249 C 0.7082 0.2863 0.38665 0.0
C1250 C 0.6577 0.30875 0.4899 0.0
C1251 C 0.62882 0.2911 0.31551 0.0
C1252 C 0.63736 0.27903 0.26305 0.0
C1253 C 0.61723 0.27262 0.23018 0.0
C1254 C 0.62473 0.26014 0.18179 0.0
C1255 C 0.65269 0.25354 0.16422 0.0
C1256 C 0.67293 0.26042 0.19683 0.0
C1257 C 0.66541 0.2728 0.24534 0.0
C1258 C 0.63927 0.36461 0.4541 0.0
C1259 C 0.70626 0.34503 0.31166 0.0
O1260 O 0.73446 0.34354 0.47405 0.0
O1261 O 0.71905 0.38406 0.44949 0.0
O1262 O 0.72841 0.30473 0.38868 0.0
O1263 O 0.68738 0.30081 0.40662 0.0
O1264 O 0.68055 0.32461 0.48773 0.0
O1265 O 0.64484 0.30194 0.44979 0.0
O1266 O 0.62544 0.31991 0.32554 0.0
O1267 O 0.64159 0.27965 0.34912 0.0
O1268 O 0.62232 0.34768 0.43069 0.0
O1269 O 0.66217 0.36172 0.42469 0.0
O1270 O 0.68086 0.33455 0.31677 0.0
O1271 O 0.71892 0.35238 0.35135 0.0
H1272 H 0.74923 0.3486 0.55953 0.0
H1273 H 0.74359 0.37066 0.64351 0.0
H1274 H 0.70971 0.45049 0.59846 0.0
H1275 H 0.71572 0.4287 0.51359 0.0
H1276 H 0.59548 0.27701 0.24211 0.0
H1277 H 0.60853 0.25537 0.15801 0.0
H1278 H 0.69465 0.25589 0.18487 0.0
H1279 H 0.68163 0.27726 0.26919 0.0
C1280 C 0.09015 0.48331 0.25096 0.0
C1281 C 0.08036 0.45385 0.24659 0.0
C1282 C 0.0904 0.4509 0.33082 0.0
C1283 C 0.10681 0.47638 0.32885 0.0
N1284 N 0.12504 0.51504 0.28269 0.0
N1285 N 0.06938 0.41042 0.2927 0.0
C1286 C 0.10769 0.49195 0.28741 0.0
C1287 C 0.08007 0.43774 0.28865 0.0
N1288 N 0.08085 0.50399 0.22359 0.0
N1289 N 0.0833 0.43857 0.37286 0.0
H1290 H 0.05977 0.39721 0.26688 0.0
H1291 H 0.05977 0.39721 0.26688 0.0
H1292 H 0.08751 0.44756 0.40733 0.0
H1293 H 0.08751 0.44756 0.40733 0.0
H1294 H 0.08639 0.52608 0.22818 0.0
H1295 H 0.06426 0.50034 0.20261 0.0
H1296 H 0.12767 0.52549 0.25093 0.0
H1297 H 0.13863 0.5217 0.30849 0.0
C1298 C 0.776 0.85966 0.5933 0.0
C1299 C 0.75367 0.88053 0.59743 0.0
C1300 C 0.76297 0.88763 0.51136 0.0
C1301 C 0.78351 0.8645 0.50645 0.0
N1302 N 0.81933 0.84338 0.54937 0.0
N1303 N 0.72443 0.91359 0.5614 0.0
C1304 C 0.79301 0.85471 0.54921 0.0
C1305 C 0.7468 0.89449 0.55677 0.0
N1306 N 0.78068 0.84381 0.63118 0.0
N1307 N 0.76104 0.90502 0.4745 0.0
H1308 H 0.71273 0.91947 0.59455 0.0
H1309 H 0.71628 0.92198 0.53211 0.0
H1310 H 0.77564 0.90379 0.4443 0.0
H1311 H 0.74775 0.9234 0.47673 0.0
H1312 H 0.7944 0.82565 0.62749 0.0
H1313 H 0.7692 0.84681 0.665 0.0
H1314 H 0.82768 0.83832 0.58083 0.0
H1315 H 0.83456 0.84378 0.52056 0.0
C1316 C 0.41491 0.52135 0.80054 0.0
C1317 C 0.39563 0.52276 0.76592 0.0
C1318 C 0.35982 0.50204 0.81997 0.0
C1319 C 0.37887 0.50274 0.85561 0.0
N1320 N 0.42541 0.51293 0.87947 0.0
N1321 N 0.35119 0.50913 0.73757 0.0
C1322 C 0.40661 0.51177 0.84575 0.0
C1323 C 0.36855 0.51125 0.77373 0.0
N1324 N 0.44145 0.5298 0.78933 0.0
N1325 N 0.33303 0.4942 0.83151 0.0
H1326 H 0.35521 0.51793 0.7047 0.0
H1327 H 0.33298 0.49729 0.73901 0.0
H1328 H 0.32644 0.48622 0.86446 0.0
H1329 H 0.31694 0.49697 0.80995 0.0
H1330 H 0.45713 0.5295 0.81266 0.0
H1331 H 0.45713 0.5295 0.81266 0.0
H1332 H 0.42151 0.50739 0.9149 0.0
H1333 H 0.42151 0.50739 0.9149 0.0
C1334 C 0.77865 0.04728 0.15485 0.0
C1335 C 0.76056 0.06351 0.19151 0.0
C1336 C 0.73764 0.08642 0.1295 0.0
C1337 C 0.75873 0.07431 0.09404 0.0
N1338 N 0.80033 0.04427 0.07216 0.0
N1339 N 0.7254 0.1022 0.21429 0.0
C1340 C 0.77935 0.05464 0.10626 0.0
C1341 C 0.7404 0.08375 0.17906 0.0
N1342 N 0.7951 0.02497 0.16671 0.0
N1343 N 0.71519 0.10089 0.11571 0.0
H1344 H 0.72725 0.10206 0.25128 0.0
H1345 H 0.71292 0.11966 0.20664 0.0
H1346 H 0.71279 0.10362 0.07953 0.0
H1347 H 0.6978 0.10761 0.13949 0.0
H1348 H 0.80705 0.01063 0.14111 0.0
H1349 H 0.79488 0.01917 0.20212 0.0
H1350 H 0.81775 0.03269 0.08022 0.0
H1351 H 0.80118 0.04882 1.03605 0.0
C1352 C 0.91406 0.50931 0.13776 0.0
C1353 C 0.89728 0.53252 0.16309 0.0
C1354 C 0.86525 0.52833 0.1004 0.0
C1355 C 0.88514 0.50995 0.07057 0.0
N1356 N 0.92923 0.48305 0.05984 0.0
N1357 N 0.85088 0.55388 0.1776 0.0
C1358 C 0.90954 0.4999 0.08917 0.0
C1359 C 0.8712 0.53911 0.14734 0.0
N1360 N 0.93307 0.49519 0.16113 0.0
N1361 N 0.84057 0.53566 0.08406 0.0
H1362 H 0.85265 0.55942 0.21443 0.0
H1363 H 0.85265 0.55942 0.21443 0.0
H1364 H 0.83482 0.52729 0.05018 0.0
H1365 H 0.82585 0.54983 0.10487 0.0
H1366 H 0.94412 0.47614 0.14594 0.0
H1367 H 0.93546 0.50072 0.19779 0.0
H1368 H 0.94854 0.47791 0.07078 0.0
H1369 H 0.9272 0.47595 1.02354 0.0
C1370 C 0.24428 0.10367 0.88528 0.0
C1371 C 0.21517 0.1087 0.89719 0.0
C1372 C 0.20722 0.09989 0.81175 0.0
C1373 C 0.23627 0.09662 0.79946 0.0
N1374 N 0.28049 0.08324 0.82412 0.0
N1375 N 0.16985 0.09661 0.87455 0.0
C1376 C 0.25412 0.0942 0.83634 0.0
C1377 C 0.19697 0.10158 0.86117 0.0
N1378 N 0.26281 0.10979 0.91887 0.0
N1379 N 0.1895 0.10374 0.77731 0.0
H1380 H 0.16283 0.09623 0.911 0.0
H1381 H 0.15596 0.08907 0.84986 0.0
H1382 H 0.19586 0.10349 0.74047 0.0
H1383 H 0.16857 0.1095 0.78609 0.0
H1384 H 0.28413 0.11033 0.90958 0.0
H1385 H 0.25731 0.11581 0.95554 0.0
H1386 H 0.29405 0.0788 0.8496 0.0
H1387 H 0.28735 0.07538 0.78838 0.0
C1388 C 0.62095 0.52973 0.58368 0.0
C1389 C 0.61388 0.5201 0.53686 0.0
C1390 C 0.59026 0.4783 0.56659 0.0
C1391 C 0.59392 0.48934 0.61544 0.0
N1392 N 0.60677 0.53207 0.66905 0.0
N1393 N 0.58347 0.49133 0.48707 0.0
C1394 C 0.60759 0.51695 0.62389 0.0
C1395 C 0.59541 0.49676 0.52967 0.0
N1396 N 0.64027 0.55099 0.58983 0.0
N1397 N 0.58483 0.44942 0.55357 0.0
H1398 H 0.58691 0.50397 0.458 0.0
H1399 H 0.56788 0.47597 0.48281 0.0
H1400 H 0.58619 0.43313 0.57654 0.0
H1401 H 0.58417 0.44066 0.51756 0.0
H1402 H 0.64848 0.55648 0.62283 0.0
H1403 H 0.6496 0.56145 0.56098 0.0
H1404 H 0.61448 0.55324 0.67505 0.0
H1405 H 0.59543 0.52585 0.69965 0.0
C1406 C 0.26321 0.94269 0.24137 0.0
C1407 C 0.26673 0.91431 0.25722 0.0
C1408 C 0.27182 0.89233 0.17301 0.0
C1409 C 0.26309 0.91955 0.15815 0.0
N1410 N 0.24814 0.97049 0.17831 0.0
N1411 N 0.26974 0.86113 0.23823 0.0
C1412 C 0.25842 0.94488 0.19223 0.0
C1413 C 0.27009 0.88881 0.22309 0.0
N1414 N 0.26482 0.96746 0.27306 0.0
N1415 N 0.28158 0.86981 0.13911 0.0
H1416 H 0.26713 0.85723 0.27465 0.0
H1417 H 0.26922 0.84193 0.21451 0.0
H1418 H 0.28336 0.87188 0.10191 0.0
H1419 H 0.29051 0.85036 0.14811 0.0
H1420 H 0.26492 0.98875 0.2624 0.0
H1421 H 0.26874 0.96656 0.30916 0.0
H1422 H 0.24136 0.98857 0.20283 0.0
H1423 H 0.24456 0.97297 0.14252 0.0
C1424 C 0.64223 0.98531 0.76186 0.0
C1425 C 0.62358 0.9909 0.80421 0.0
C1426 C 0.58412 0.98334 0.75687 0.0
C1427 C 0.60244 0.97219 0.71691 0.0
N1428 N 0.64817 0.97429 0.67435 0.0
N1429 N 0.57649 0.99348 0.84352 0.0
C1430 C 0.63139 0.97683 0.71695 0.0
C1431 C 0.5944 0.98991 0.80215 0.0
N1432 N 0.67019 0.98642 0.76536 0.0
N1433 N 0.55732 0.98996 0.75022 0.0
H1434 H 0.58272 -0.00138 0.87817 0.0
H1435 H 0.55547 0.98889 0.84373 0.0
H1436 H 0.55085 0.98879 0.71541 0.0
H1437 H 0.54321 0.00058 0.77726 0.0
H1438 H 0.68514 0.97894 0.73727 0.0
H1439 H 0.67853 0.99363 0.79767 0.0
H1440 H 0.66888 0.9802 0.6716 0.0
H1441 H 0.64111 0.96815 0.64071 0.0
C1442 C 0.25459 0.34195 1.03447 0.0
C1443 C 0.26802 0.36299 1.00745 0.0
C1444 C 0.25868 0.40115 0.0755 0.0
C1445 C 0.24994 0.3787 0.10499 0.0
N1446 N 0.24173 0.32699 0.11389 0.0
N1447 N 0.27286 0.41388 0.99408 0.0
C1448 C 0.24796 0.34894 0.08477 0.0
C1449 C 0.26714 0.39315 1.02549 0.0
N1450 N 0.24691 0.3159 1.01137 0.0
N1451 N 0.25989 0.42967 0.0959 0.0
H1452 H 0.27737 0.40809 0.95687 0.0
H1453 H 0.27078 0.43655 1.00366 0.0
H1454 H 0.25269 0.43622 0.132 0.0
H1455 H 0.26884 0.44662 0.07789 0.0
H1456 H 0.23462 0.3007 1.02849 0.0
H1457 H 0.25013 0.31123 0.97375 0.0
H1458 H 0.2434 0.30462 0.1013 0.0
H1459 H 0.23716 0.33076 0.1514 0.0
C1460 C 0.91736 0.04141 0.32805 0.0
C1461 C 0.91743 0.02599 0.2803 0.0
C1462 C 0.89234 0.98568 0.31518 0.0
C1463 C 0.89228 0.00085 0.36207 0.0
N1464 N 0.91627 0.03614 0.41343 0.0
N1465 N 0.91627 0.97719 0.23578 0.0
C1466 C 0.90811 0.02667 0.36872 0.0
C1467 C 0.90858 0.99617 0.27619 0.0
N1468 N 0.92561 0.06993 0.33632 0.0
N1469 N 0.8778 0.96062 0.30663 0.0
H1470 H 0.93211 0.98182 0.20981 0.0
H1471 H 0.90944 0.9555 0.23179 0.0
H1472 H 0.86472 0.95167 0.33308 0.0
H1473 H 0.86472 0.95167 0.33308 0.0
H1474 H 0.91975 0.08286 0.36897 0.0
H1475 H 0.93883 0.08089 0.31322 0.0
H1476 H 0.93025 0.05308 0.41883 0.0
H1477 H 0.9121 0.02496 0.44407 0.0
C1478 C 0.21654 0.56005 0.63716 0.0
C1479 C 0.23993 0.55636 0.60234 0.0
C1480 C 0.26918 0.54547 0.66565 0.0
C1481 C 0.24737 0.55579 0.70095 0.0
N1482 N 0.19969 0.57214 0.72175 0.0
N1483 N 0.28886 0.54528 0.5823 0.0
C1484 C 0.22064 0.56226 0.6872 0.0
C1485 C 0.26631 0.54833 0.61602 0.0
N1486 N 0.19057 0.56171 0.62205 0.0
N1487 N 0.29253 0.53309 0.67992 0.0
H1488 H 0.28751 0.54683 0.54544 0.0
H1489 H 0.30914 0.54291 0.5912 0.0
H1490 H 0.29443 0.5302 0.71623 0.0
H1491 H 0.30849 0.52311 0.65579 0.0
H1492 H 0.17239 0.562 0.64529 0.0
H1493 H 0.18731 0.55987 0.58534 0.0
H1494 H 0.18076 0.58062 0.71369 0.0
H1495 H 0.20172 0.57326 0.75889 0.0
C1496 C 0.39176 0.05249 0.61328 0.0
C1497 C 0.39129 0.03686 0.65534 0.0
C1498 C 0.36626 0.99709 0.61342 0.0
C1499 C 0.3697 0.01123 0.57052 0.0
N1500 N 0.39585 0.04656 0.52612 0.0
N1501 N 0.38797 0.98844 0.68514 0.0
C1502 C 0.38547 0.03719 0.56926 0.0
C1503 C 0.38114 0.0075 0.65295 0.0
N1504 N 0.39752 0.08187 0.61438 0.0
N1505 N 0.34952 0.97334 0.61604 0.0
H1506 H 0.40286 0.99301 0.7094 0.0
H1507 H 0.38232 0.96637 0.68236 0.0
H1508 H 0.33862 0.96504 0.58716 0.0
H1509 H 0.34468 0.96381 0.64824 0.0
H1510 H 0.3957 0.09384 0.58473 0.0
H1511 H 0.40026 0.09567 0.64547 0.0
H1512 H 0.40951 0.06393 0.52412 0.0
H1513 H 0.39393 0.03497 0.49242 0.0
C1514 C 0.73378 0.64798 0.29762 0.0
C1515 C 0.73064 0.6175 0.28357 0.0
C1516 C 0.72493 0.60861 0.36899 0.0
C1517 C 0.72048 0.63948 0.38176 0.0
N1518 N 0.72176 0.68914 0.35764 0.0
N1519 N 0.72601 0.56787 0.30749 0.0
C1520 C 0.72559 0.65937 0.34598 0.0
C1521 C 0.72752 0.59751 0.31936 0.0
N1522 N 0.74502 0.66591 0.26475 0.0
N1523 N 0.72523 0.58943 0.40362 0.0
H1524 H 0.72702 0.55786 0.27188 0.0
H1525 H 0.72702 0.55786 0.27188 0.0
H1526 H 0.72354 0.59614 0.44069 0.0
H1527 H 0.72807 0.56667 0.39478 0.0
H1528 H 0.75019 0.68774 0.27411 0.0
H1529 H 0.75208 0.65801 0.22916 0.0
H1530 H 0.72174 0.70417 0.33179 0.0
H1531 H 0.71755 0.6989 0.39312 0.0
C1532 C 0.08393 0.9844 0.08155 0.0
C1533 C 0.10258 0.97559 0.11329 0.0
C1534 C 0.14167 0.98686 0.05712 0.0
C1535 C 0.12327 0.98751 1.02055 0.0
N1536 N 0.07607 0.99352 0.99988 0.0
N1537 N 0.14907 0.98266 0.13904 0.0
C1538 C 0.09404 0.98879 1.03354 0.0
C1539 C 0.13113 0.98168 0.10414 0.0
N1540 N 0.0572 0.99122 0.09928 0.0
N1541 N 0.16957 0.98963 0.04809 0.0
H1542 H 0.14335 0.98006 0.17539 0.0
H1543 H 0.14335 0.98006 0.17539 0.0
H1544 H 0.17951 0.99257 1.01404 0.0
H1545 H 0.17951 0.99257 1.01404 0.0
H1546 H 0.04248 -3e-05 0.07942 0.0
H1547 H 0.05123 0.99181 0.13639 0.0
H1548 H 0.05479 0.99049 1.00547 0.0
H1549 H 0.08255 -0.00041 0.96558 0.0
C1550 C 0.70232 0.40662 0.70829 0.0
C1551 C 0.71999 0.42331 0.67893 0.0
C1552 C 0.73124 0.45352 0.75195 0.0
C1553 C 0.71922 0.43211 0.78075 0.0
N1554 N 0.69871 0.38369 0.78245 0.0
N1555 N 0.7532 0.46217 0.67295 0.0
C1556 C 0.70581 0.40753 0.75814 0.0
C1557 C 0.73477 0.447 0.70062 0.0
N1558 N 0.68271 0.38939 0.68823 0.0
N1559 N 0.7391 0.47997 0.77351 0.0
H1560 H 0.75655 0.45787 0.6353 0.0
H1561 H 0.76662 0.47749 0.68786 0.0
H1562 H 0.73598 0.48563 0.81097 0.0
H1563 H 0.74596 0.49722 0.75387 0.0
H1564 H 0.6681 0.37818 0.70898 0.0
H1565 H 0.67915 0.3894 0.65179 0.0
H1566 H 0.69106 0.36447 0.76534 0.0
H1567 H 0.70365 0.38137 0.81754 0.0
C1568 C 0.12407 0.33552 0.22274 0.0
C1569 C 0.13437 0.35219 0.26447 0.0
C1570 C 0.13181 0.39636 0.21711 0.0
C1571 C 0.12009 0.38005 0.17623 0.0
N1572 N 0.11355 0.33052 0.13961 0.0
N1573 N 0.14496 0.40073 0.29963 0.0
C1574 C 0.11845 0.349 0.17942 0.0
C1575 C 0.13722 0.38302 0.26073 0.0
N1576 N 0.1203 0.30577 0.22214 0.0
N1577 N 0.139 0.42514 0.21695 0.0
H1578 H 0.14727 0.3933 0.3332 0.0
H1579 H 0.148 0.42333 0.29898 0.0
H1580 H 0.13763 0.43826 0.18879 0.0
H1581 H 0.13763 0.43826 0.18879 0.0
H1582 H 0.11157 0.29335 0.194 0.0
H1583 H 0.12659 0.29273 0.24768 0.0
H1584 H 0.11099 0.33739 0.10559 0.0
H1585 H 0.11099 0.33739 0.10559 0.0
C1586 C 0.86583 0.89186 0.50852 0.0
C1587 C 0.89084 0.87602 0.51188 0.0
C1588 C 0.8886 0.85397 0.42695 0.0
C1589 C 0.86323 0.86957 0.42381 0.0
N1590 N 0.83604 0.91363 0.45627 0.0
N1591 N 0.9215 0.83565 0.47857 0.0
C1592 C 0.85407 0.8914 0.46309 0.0
C1593 C 0.90109 0.85545 0.47208 0.0
N1594 N 0.85215 0.90591 0.54981 0.0
N1595 N 0.90167 0.83887 0.38595 0.0
H1596 H 0.9305 0.83565 0.51121 0.0
H1597 H 0.92773 0.81772 0.45336 0.0
H1598 H 0.8939 0.83857 0.35217 0.0
H1599 H 0.92149 0.8294 0.38437 0.0
H1600 H 0.83222 0.91512 0.55103 0.0
H1601 H 0.85949 0.90509 0.58381 0.0
H1602 H 0.83017 0.93096 0.4829 0.0
H1603 H 0.8309 0.91796 0.42217 0.0
C1604 C 0.3733 0.64316 0.82771 0.0
C1605 C 0.35467 0.6279 0.86043 0.0
C1606 C 0.34742 0.59347 0.78511 0.0
C1607 C 0.36646 0.60854 0.75295 0.0
N1608 N 0.38825 0.65551 0.74748 0.0
N1609 N 0.3314 0.58227 0.86743 0.0
C1610 C 0.37655 0.63533 0.77542 0.0
C1611 C 0.34385 0.60136 0.83796 0.0
N1612 N 0.38977 0.66488 0.84567 0.0
N1613 N 0.33025 0.57318 0.76516 0.0
H1614 H 0.32978 0.58634 0.90513 0.0
H1615 H 0.32592 0.56097 0.8552 0.0
H1616 H 0.32769 0.57066 0.72836 0.0
H1617 H 0.31517 0.56233 0.7853 0.0
H1618 H 0.40265 0.677 0.82326 0.0
H1619 H 0.39372 0.66841 0.88175 0.0
H1620 H 0.38945 0.65331 0.70961 0.0
H1621 H 0.38945 0.65331 0.70961 0.0
C1622 C 0.62016 0.10962 0.9172 0.0
C1623 C 0.64857 0.11393 0.92077 0.0
C1624 C 0.64208 0.09664 1.00293 0.0
C1625 C 0.61261 0.10077 1.004 0.0
N1626 N 0.57449 0.11435 0.95834 0.0
N1627 N 0.68789 0.10587 0.96355 0.0
C1628 C 0.60188 0.10775 0.95988 0.0
C1629 C 0.65998 0.10482 0.96214 0.0
N1630 N 0.61054 0.10862 0.87249 0.0
N1631 N 0.65316 0.08587 1.04119 0.0
H1632 H 0.70051 0.11087 0.93341 0.0
H1633 H 0.69797 0.10352 0.99441 0.0
H1634 H 0.64145 0.08207 0.07317 0.0
H1635 H 0.67382 0.079 1.04019 0.0
H1636 H 0.59036 0.10278 0.86611 0.0
H1637 H 0.62395 0.11037 0.84125 0.0
H1638 H 0.56654 0.12254 0.92864 0.0
H1639 H 0.56 0.11471 0.98785 0.0
C1640 C 0.13861 0.5939 0.48711 0.0
C1641 C 0.11848 0.61038 0.52042 0.0
C1642 C 0.1141 0.64513 0.45922 0.0
C1643 C 0.13656 0.63067 0.4282 0.0
N1644 N 0.15764 0.58314 0.403 0.0
N1645 N 0.09099 0.65556 0.54011 0.0
C1646 C 0.14558 0.60272 0.43942 0.0
C1647 C 0.10764 0.63726 0.50721 0.0
N1648 N 0.15281 0.57113 0.50245 0.0
N1649 N 0.09637 0.66379 0.44077 0.0
H1650 H 0.08424 0.65053 0.57483 0.0
H1651 H 0.08581 0.67714 0.53428 0.0
H1652 H 0.09578 0.66451 0.40351 0.0
H1653 H 0.07935 0.67465 0.46095 0.0
H1654 H 0.16927 0.55968 0.48143 0.0
H1655 H 0.15032 0.56662 0.53856 0.0
H1656 H 0.16192 0.56111 0.40746 0.0
H1657 H 0.16072 0.58848 0.36727 0.0
C1658 C 0.61674 0.84601 0.67036 0.0
C1659 C 0.62315 0.87584 0.6628 0.0
C1660 C 0.64284 0.87964 0.74428 0.0
C1661 C 0.63608 0.85013 0.75324 0.0
N1662 N 0.61682 0.80447 0.71936 0.0
N1663 N 0.6578 0.91159 0.68316 0.0
C1664 C 0.6233 0.83317 0.71439 0.0
C1665 C 0.64049 0.89006 0.69713 0.0
N1666 N 0.60663 0.82886 0.63299 0.0
N1667 N 0.65109 0.89863 0.781 0.0
H1668 H 0.66149 0.91599 0.6472 0.0
H1669 H 0.67228 0.92107 0.70512 0.0
H1670 H 0.65227 0.89282 0.81602 0.0
H1671 H 0.65392 0.92102 0.77764 0.0
H1672 H 0.60354 0.80629 0.63209 0.0
H1673 H 0.60316 0.83688 0.60022 0.0
H1674 H 0.60293 0.79254 0.69925 0.0
H1675 H 0.62533 0.79196 0.74366 0.0
C1676 C 0.36179 0.40624 1.00846 0.0
C1677 C 0.38878 0.39427 1.01047 0.0
C1678 C 0.38749 0.37124 0.92554 0.0
C1679 C 0.3602 0.38332 0.92434 0.0
N1680 N 0.33033 0.42502 0.95592 0.0
N1681 N 0.42831 0.36615 0.97006 0.0
C1682 C 0.34972 0.40435 0.96337 0.0
C1683 C 0.40194 0.37698 0.96857 0.0
N1684 N 0.34763 0.41997 0.04957 0.0
N1685 N 0.39948 0.35424 0.88548 0.0
H1686 H 0.43861 0.36843 1.00146 0.0
H1687 H 0.44044 0.35543 0.94046 0.0
H1688 H 0.39104 0.35284 0.85219 0.0
H1689 H 0.4178 0.34189 0.88442 0.0
H1690 H 0.32692 0.42692 0.0509 0.0
H1691 H 0.3558 0.42175 0.08315 0.0
H1692 H 0.32398 0.4426 0.98183 0.0
H1693 H 0.32418 0.42751 0.9216 0.0
C1694 C 0.85775 0.10024 0.34671 0.0
C1695 C 0.85764 0.1314 0.36029 0.0
C1696 C 0.87558 0.13527 0.27126 0.0
C1697 C 0.87502 0.1042 0.25734 0.0
N1698 N 0.85794 0.05813 0.28558 0.0
N1699 N 0.87254 0.17796 0.32846 0.0
C1700 C 0.86404 0.08713 0.29619 0.0
C1701 C 0.86859 0.14837 0.32115 0.0
N1702 N 0.85326 0.08227 0.38296 0.0
N1703 N 0.88113 0.15361 0.23571 0.0
H1704 H 0.86881 0.19122 0.36115 0.0
H1705 H 0.86881 0.19122 0.36115 0.0
H1706 H 0.88461 0.14597 0.19898 0.0
H1707 H 0.8812 0.17658 0.2426 0.0
H1708 H 0.85631 0.05948 0.3777 0.0
H1709 H 0.84927 0.09029 0.41945 0.0
H1710 H 0.84534 0.04642 0.30896 0.0
H1711 H 0.86362 0.04559 0.25296 0.0
C1712 C 0.89194 0.6448 0.19354 0.0
C1713 C 0.876 0.62658 0.22351 0.0
C1714 C 0.83892 0.63214 0.16581 0.0
C1715 C 0.85774 0.64367 0.12987 0.0
N1716 N 0.90459 0.66091 0.11468 0.0
N1717 N 0.82904 0.61235 0.24398 0.0
C1718 C 0.88493 0.64953 0.14533 0.0
C1719 C 0.84797 0.62298 0.21102 0.0
N1720 N 0.91179 0.66169 0.21257 0.0
N1721 N 0.81148 0.6329 0.15959 0.0
H1722 H 0.83253 0.61163 0.28025 0.0
H1723 H 0.80992 0.60434 0.23541 0.0
H1724 H 0.80417 0.63747 0.12721 0.0
H1725 H 0.79616 0.6325 0.18827 0.0
H1726 H 0.91495 0.66312 0.24938 0.0
H1727 H 0.91495 0.66312 0.24938 0.0
H1728 H 0.9239 0.66698 0.12549 0.0
H1729 H 0.90239 0.66211 0.07806 0.0
C1730 C 0.10301 0.14003 0.90668 0.0
C1731 C 0.10011 0.10954 0.89046 0.0
C1732 C 0.11604 0.0979 0.96955 0.0
C1733 C 0.12367 0.12759 0.9798 0.0
N1734 N 0.10341 0.1754 0.97804 0.0
N1735 N 0.09805 0.06035 0.91388 0.0
C1736 C 0.1113 0.14861 0.95414 0.0
C1737 C 0.10479 0.08879 0.92447 0.0
N1738 N 0.09819 0.16111 0.87675 0.0
N1739 N 0.11863 0.07885 1.00393 0.0
H1740 H 0.0965 0.05222 0.8784 0.0
H1741 H 0.09492 0.04505 0.93894 0.0
H1742 H 0.12378 0.08604 1.03871 0.0
H1743 H 0.11348 0.05675 1.00042 0.0
H1744 H 0.10103 0.18346 0.88656 0.0
H1745 H 0.09368 0.15606 0.84093 0.0
H1746 H 0.09077 0.1904 0.96367 0.0
H1747 H 0.10715 0.18101 1.01417 0.0
C1748 C 0.64399 0.40366 0.53168 0.0
C1749 C 0.63313 0.37651 0.511 0.0
C1750 C 0.61171 0.3709 0.59742 0.0
C1751 C 0.62079 0.39866 0.6179 0.0
N1752 N 0.64856 0.44105 0.60036 0.0
N1753 N 0.59875 0.33904 0.53114 0.0
C1754 C 0.63803 0.41465 0.58375 0.0
C1755 C 0.61495 0.36182 0.54549 0.0
N1756 N 0.6583 0.42048 0.50021 0.0
N1757 N 0.59966 0.35198 0.6278 0.0
H1758 H 0.5965 0.3308 0.49558 0.0
H1759 H 0.5965 0.3308 0.49558 0.0
H1760 H 0.59831 0.35611 0.66549 0.0
H1761 H 0.59291 0.33114 0.61538 0.0
H1762 H 0.66465 0.44189 0.50869 0.0
H1763 H 0.66259 0.41369 0.46333 0.0
H1764 H 0.66255 0.45319 0.58047 0.0
H1765 H 0.64363 0.45182 0.6347 0.0
C1766 C 0.35032 0.89622 0.43619 0.0
C1767 C 0.36294 0.87178 0.45372 0.0
C1768 C 0.40085 0.87139 0.38783 0.0
C1769 C 0.38626 0.89297 0.36583 0.0
N1770 N 0.34635 0.92537 0.36815 0.0
N1771 N 0.40743 0.84967 0.46193 0.0
C1772 C 0.36088 0.90551 0.39014 0.0
C1773 C 0.39039 0.86329 0.43404 0.0
N1774 N 0.3301 0.91203 0.46549 0.0
N1775 N 0.42467 0.85822 0.36455 0.0
H1776 H 0.40142 0.84673 0.49814 0.0
H1777 H 0.4285 0.84534 0.452 0.0
H1778 H 0.43376 0.86378 0.33138 0.0
H1779 H 0.43425 0.83993 0.37627 0.0
H1780 H 0.32121 0.93163 0.45719 0.0
H1781 H 0.32489 0.90714 0.50103 0.0
H1782 H 0.32758 0.93532 0.38309 0.0
H1783 H 0.35211 0.92994 0.33264 0.0
C1784 C 0.85655 0.38391 0.85571 0.0
C1785 C 0.88497 0.38527 0.86482 0.0
C1786 C 0.87053 0.37814 0.95149 0.0
C1787 C 0.84247 0.37567 0.94163 0.0
N1788 N 0.80825 0.38472 0.88847 0.0
N1789 N 0.91847 0.38591 0.92425 0.0
C1790 C 0.83548 0.38136 0.89492 0.0
C1791 C 0.8917 0.38323 0.91366 0.0
N1792 N 0.84968 0.38297 0.80898 0.0
N1793 N 0.87704 0.37362 0.99703 0.0
H1794 H 0.93488 0.38426 0.89766 0.0
H1795 H 0.92452 0.38992 0.95919 0.0
H1796 H 0.86171 0.37189 1.02559 0.0
H1797 H 0.8971 0.37083 1.00657 0.0
H1798 H 0.82991 0.37848 0.79883 0.0
H1799 H 0.86424 0.38397 0.77918 0.0
H1800 H 0.80077 0.3901 0.85652 0.0
H1801 H 0.79347 0.38557 0.91814 0.0
C1802 C 0.3462 0.12173 0.65165 0.0
C1803 C 0.35641 0.14964 0.63976 0.0
C1804 C 0.37826 0.15262 0.72013 0.0
C1805 C 0.36978 0.12376 0.7295 0.0
N1806 N 0.33202 0.09047 0.71435 0.0
N1807 N 0.38292 0.192 0.66752 0.0
C1808 C 0.34975 0.11117 0.69834 0.0
C1809 C 0.3724 0.16514 0.6757 0.0
N1810 N 0.33474 0.10365 0.61707 0.0
N1811 N 0.38967 0.16953 0.75629 0.0
H1812 H 0.37599 0.205 0.64249 0.0
H1813 H 0.39912 0.20143 0.6853 0.0
H1814 H 0.39306 0.16172 0.78928 0.0
H1815 H 0.39314 0.19202 0.75617 0.0
H1816 H 0.33003 0.08173 0.62133 0.0
H1817 H 0.33323 0.10904 0.58194 0.0
H1818 H 0.31575 0.08247 0.69516 0.0
H1819 H 0.33001 0.08529 0.74993 0.0
C1820 C 0.62824 0.6168 0.36611 0.0
C1821 C 0.60046 0.62767 0.37049 0.0
C1822 C 0.60483 0.64269 0.45791 0.0
C1823 C 0.63196 0.62976 0.45444 0.0
N1824 N 0.66396 0.59456 0.40601 0.0
N1825 N 0.56991 0.66518 0.41579 0.0
C1826 C 0.64242 0.61442 0.40864 0.0
C1827 C 0.59065 0.64447 0.41518 0.0
N1828 N 0.64199 0.61058 0.32102 0.0
N1829 N 0.59193 0.6525 0.50257 0.0
H1830 H 0.56224 0.67103 0.38423 0.0
H1831 H 0.56355 0.6799 0.44612 0.0
H1832 H 0.60108 0.65075 0.53469 0.0
H1833 H 0.57108 0.65918 0.508 0.0
H1834 H 0.66322 0.60561 0.31556 0.0
H1835 H 0.63284 0.61385 0.28941 0.0
H1836 H 0.67047 0.58103 0.37433 0.0
H1837 H 0.67177 0.58751 0.43652 0.0
C1838 C 0.15184 0.89191 1.03605 0.0
C1839 C 0.14415 0.86332 1.0166 0.0
C1840 C 0.12494 0.85668 0.10348 0.0
C1841 C 0.13194 0.88562 0.12263 0.0
N1842 N 0.16549 0.92286 0.10577 0.0
N1843 N 0.11209 0.82444 1.03494 0.0
C1844 C 0.14898 0.90113 0.08837 0.0
C1845 C 0.1278 0.84729 0.05135 0.0
N1846 N 0.1603 0.9115 1.00421 0.0
N1847 N 0.11781 0.83663 0.13545 0.0
H1848 H 0.10863 0.81973 0.99872 0.0
H1849 H 0.09847 0.8135 0.05789 0.0
H1850 H 0.11684 0.84195 0.17297 0.0
H1851 H 0.11602 0.81417 0.1247 0.0
H1852 H 0.1647 0.93331 1.01484 0.0
H1853 H 0.15967 0.90674 0.96686 0.0
H1854 H 0.17938 0.93393 0.08357 0.0
H1855 H 0.16875 0.92659 0.14227 0.0
C1856 C 0.99266 0.51624 0.18373 0.0
C1857 C 0.98791 0.51837 0.23569 0.0
C1858 C 0.01009 0.47003 0.23384 0.0
C1859 C 0.0151 0.4678 0.18158 0.0
N1860 N 0.02104 0.49515 0.11175 0.0
N1861 N 0.00774 0.50432 0.30615 0.0
C1862 C 0.00987 0.49307 0.15815 0.0
C1863 C 0.00139 0.49746 0.25965 0.0
N1864 N 0.97987 0.53532 0.15805 0.0
N1865 N 0.01342 0.44665 0.26008 0.0
H1866 H 0.00513 0.52574 0.32328 0.0
H1867 H 0.01961 0.49032 0.324 0.0
H1868 H 0.02234 0.4264 0.24652 0.0
H1869 H 0.00631 0.44746 0.29681 0.0
H1870 H 0.9804 0.53295 0.12029 0.0
H1871 H 0.9657 0.55092 0.17482 0.0
H1872 H 0.0197 0.51437 0.09457 0.0
H1873 H 0.03457 0.47916 0.09277 0.0
C1874 C 0.74327 0.7788 0.44404 0.0
C1875 C 0.76225 0.76133 0.41046 0.0
C1876 C 0.75395 0.71904 0.45793 0.0
C1877 C 0.73393 0.73604 0.48964 0.0
N1878 N 0.71896 0.78467 0.52486 0.0
N1879 N 0.77818 0.71222 0.37738 0.0
C1880 C 0.73157 0.76684 0.4864 0.0
C1881 C 0.76557 0.73064 0.41522 0.0
N1882 N 0.73485 0.80601 0.43363 0.0
N1883 N 0.76242 0.69219 0.46964 0.0
H1884 H 0.78357 0.71938 0.34333 0.0
H1885 H 0.77971 0.68938 0.37754 0.0
H1886 H 0.75557 0.68465 0.50282 0.0
H1887 H 0.77846 0.67945 0.44979 0.0
H1888 H 0.71957 0.81899 0.45511 0.0
H1889 H 0.74052 0.81373 0.40012 0.0
H1890 H 0.71855 0.80766 0.52667 0.0
H1891 H 0.71202 0.77628 0.55731 0.0
C1892 C 0.5211 0.51328 0.71219 0.0
C1893 C 0.50757 0.48928 0.73151 0.0
C1894 C 0.46913 0.4962 0.68158 0.0
C1895 C 0.48302 0.51992 0.66158 0.0
N1896 N 0.52718 0.54228 0.64414 0.0
N1897 N 0.46364 0.46681 0.74949 0.0
C1898 C 0.5105 0.52599 0.67296 0.0
C1899 C 0.47999 0.4833 0.72052 0.0
N1900 N 0.54324 0.52501 0.73335 0.0
N1901 N 0.44649 0.48488 0.66132 0.0
H1902 H 0.47022 0.46034 0.78161 0.0
H1903 H 0.44272 0.46335 0.74551 0.0
H1904 H 0.43989 0.49236 0.62989 0.0
H1905 H 0.43662 0.46608 0.67193 0.0
H1906 H 0.55149 0.54511 0.72502 0.0
H1907 H 0.55064 0.51654 0.76339 0.0
H1908 H 0.54806 0.54556 0.64889 0.0
H1909 H 0.52101 0.54905 0.61192 0.0
C1910 C 0.71822 0.26607 0.88804 0.0
C1911 C 0.73623 0.24124 0.88848 0.0
C1912 C 0.74032 0.25459 0.97473 0.0
C1913 C 0.72586 0.28143 0.97326 0.0
N1914 N 0.69811 0.31209 0.92967 0.0
N1915 N 0.77253 0.21941 0.9283 0.0
C1916 C 0.71387 0.28702 0.9301 0.0
C1917 C 0.74977 0.23771 0.93067 0.0
N1918 N 0.70469 0.26886 0.84772 0.0
N1919 N 0.74649 0.24635 1.01837 0.0
H1920 H 0.78237 0.20989 0.89534 0.0
H1921 H 0.78382 0.21729 0.95795 0.0
H1922 H 0.73975 0.25909 0.0509 0.0
H1923 H 0.75566 0.22592 1.02204 0.0
H1924 H 0.6889 0.28439 0.84607 0.0
H1925 H 0.70917 0.25482 0.81572 0.0
H1926 H 0.69179 0.31967 0.89828 0.0
H1927 H 0.69075 0.32504 0.96147 0.0
C1928 C 0.01052 0.467 0.70255 0.0
C1929 C 0.98946 0.48208 0.7347 0.0
C1930 C -0.00126 0.52808 0.69905 0.0
C1931 C 0.01798 0.51277 0.66352 0.0
N1932 N 0.04972 0.47055 0.64286 0.0
N1933 N 0.97521 0.52855 0.77975 0.0
C1934 C 0.02627 0.48302 0.66859 0.0
C1935 C 0.98757 0.51327 0.73835 0.0
N1936 N 0.01498 0.43747 0.70381 0.0
N1937 N 0.99007 0.55621 0.69416 0.0
H1938 H 0.96824 0.51785 0.80996 0.0
H1939 H 0.97501 0.55153 0.78598 0.0
H1940 H 0.99674 0.56713 0.6642 0.0
H1941 H 0.97427 0.56742 0.71722 0.0
H1942 H 0.02689 0.42405 0.67681 0.0
H1943 H 0.00653 0.42649 0.7325 0.0
H1944 H 0.05767 0.44975 0.64744 0.0
H1945 H 0.06325 0.48211 0.62085 0.0
C1946 C 0.72914 0.72451 0.9576 0.0
C1947 C 0.75687 0.72769 0.97082 0.0
C1948 C 0.76289 0.76706 0.91619 0.0
C1949 C 0.73486 0.76459 0.90366 0.0
N1950 N 0.69597 0.73256 0.89988 0.0
N1951 N 0.79474 0.76123 0.97677 0.0
C1952 C 0.71929 0.74096 0.92098 0.0
C1953 C 0.77206 0.75177 0.95456 0.0
N1954 N 0.71104 0.70804 0.98365 0.0
N1955 N 0.78211 0.7813 0.88843 0.0
H1956 H 0.80105 0.7524 1.00705 0.0
H1957 H 0.80487 0.78055 0.96944 0.0
H1958 H 0.77895 0.78718 0.8542 0.0
H1959 H 0.803 0.78205 0.89455 0.0
H1960 H 0.69009 0.70649 0.97832 0.0
H1961 H 0.71575 0.69973 1.01556 0.0
H1962 H 0.68566 0.7132 0.90621 0.0
H1963 H 0.689 0.74289 0.87154 0.0
C1964 C 0.5089 0.47576 0.17136 0.0
C1965 C 0.48303 0.49014 0.16886 0.0
C1966 C 0.48998 0.52259 0.24312 0.0
C1967 C 0.51718 0.51062 0.24124 0.0
N1968 N 0.54437 0.46523 0.22289 0.0
N1969 N 0.44759 0.52629 0.20434 0.0
C1970 C 0.52432 0.48396 0.21117 0.0
C1971 C 0.47307 0.51318 0.20552 0.0
N1972 N 0.51967 0.45557 0.1344 0.0
N1973 N 0.47939 0.54044 0.28332 0.0
H1974 H 0.43281 0.51784 0.18224 0.0
H1975 H 0.44115 0.54609 0.22463 0.0
H1976 H 0.48988 0.54379 0.31437 0.0
H1977 H 0.45898 0.54843 0.28912 0.0
H1978 H 0.53998 0.44724 0.13184 0.0
H1979 H 0.50934 0.44916 0.10399 0.0
H1980 H 0.54932 0.44471 0.2036 0.0
H1981 H 0.55282 0.468 0.25614 0.0
C1982 C 0.74014 0.2095 0.389 0.0
C1983 C 0.73645 0.20822 0.44044 0.0
C1984 C 0.70027 0.24539 0.44134 0.0
C1985 C 0.71315 0.25532 0.39819 0.0
N1986 N 0.74148 0.24135 0.32368 0.0
N1987 N 0.7081 0.22409 0.51493 0.0
C1988 C 0.73239 0.23589 0.36971 0.0
C1989 C 0.71533 0.22632 0.46696 0.0
N1990 N 0.74639 0.1845 0.35869 0.0
N1991 N 0.67228 0.24689 0.44992 0.0
H1992 H 0.71813 0.20939 0.53443 0.0
H1993 H 0.6928 0.23797 0.53482 0.0
H1994 H 0.66021 0.2531 0.42333 0.0
H1995 H 0.66191 0.23633 0.47766 0.0
H1996 H 0.74666 0.16397 0.37199 0.0
H1997 H 0.74704 0.18383 0.321 0.0
H1998 H 0.75581 0.22757 0.30143 0.0
H1999 H 0.7347 0.25988 0.30839 0.0
C2000 C 0.26221 0.23464 0.90542 0.0
C2001 C 0.27724 0.25671 0.9303 0.0
C2002 C 0.26515 0.23483 1.00695 0.0
C2003 C 0.25028 0.21285 0.98197 0.0
N2004 N 0.24451 0.18532 0.90514 0.0
N2005 N 0.29639 0.27411 1.00621 0.0
C2006 C 0.25176 0.21077 0.93038 0.0
C2007 C 0.27994 0.25559 0.98099 0.0
N2008 N 0.25768 0.23659 0.85807 0.0
N2009 N 0.2652 0.236 0.05624 0.0
H2010 H 0.30876 0.28988 0.99101 0.0
H2011 H 0.30876 0.28988 0.99101 0.0
H2012 H 0.2554 0.22026 0.07629 0.0
H2013 H 0.27532 0.25236 0.07652 0.0
H2014 H 0.24463 0.22257 0.83932 0.0
H2015 H 0.26496 0.254 0.83908 0.0
H2016 H 0.24665 0.18159 0.86737 0.0
H2017 H 0.24059 0.16649 0.92242 0.0
C2018 C 0.24632 0.74728 0.39573 0.0
C2019 C 0.25105 0.71849 0.40814 0.0
C2020 C 0.25987 0.73946 0.49023 0.0
C2021 C 0.25169 0.76778 0.479 0.0
N2022 N 0.2286 0.79615 0.42482 0.0
N2023 N 0.25851 0.68676 0.47115 0.0
C2024 C 0.24238 0.77101 0.43283 0.0
C2025 C 0.25682 0.7144 0.45651 0.0
N2026 N 0.246 0.75199 0.34817 0.0
N2027 N 0.2713 0.73652 0.53262 0.0
H2028 H 0.25872 0.6676 0.44758 0.0
H2029 H 0.25832 0.68287 0.50747 0.0
H2030 H 0.27273 0.75417 0.5591 0.0
H2031 H 0.28095 0.71708 0.54003 0.0
H2032 H 0.2449 0.77299 0.33649 0.0
H2033 H 0.25049 0.73495 0.32051 0.0
H2034 H 0.21997 0.79865 0.39247 0.0
H2035 H 0.22195 0.81238 0.45272 0.0
C2036 C 0.23816 0.22039 0.45346 0.0
C2037 C 0.26022 0.23107 0.48112 0.0
C2038 C 0.2622 0.27416 0.43433 0.0
C2039 C 0.23613 0.26755 0.41601 0.0
N2040 N 0.20241 0.23016 0.40068 0.0
N2041 N 0.291 0.27075 0.50017 0.0
C2042 C 0.22505 0.23933 0.42325 0.0
C2043 C 0.2716 0.25866 0.47208 0.0
N2044 N 0.23076 0.19153 0.4537 0.0
N2045 N 0.27942 0.29346 0.41274 0.0
H2046 H 0.29811 0.26051 0.52866 0.0
H2047 H 0.29792 0.2922 0.49794 0.0
H2048 H 0.27568 0.30147 0.38007 0.0
H2049 H 0.29941 0.29742 0.42249 0.0
H2050 H 0.21747 0.18114 0.43045 0.0
H2051 H 0.24011 0.1766 0.4734 0.0
H2052 H 0.1913 0.21151 0.40812 0.0
H2053 H 0.19447 0.24111 0.3739 0.0
C2054 C 0.23106 0.72606 0.94317 0.0
C2055 C 0.25048 0.72399 0.97807 0.0
C2056 C 0.26935 0.77138 0.95799 0.0
C2057 C 0.24943 0.77387 0.92416 0.0
N2058 N 0.22167 0.74675 0.86951 0.0
N2059 N 0.28237 0.74901 1.02805 0.0
C2060 C 0.23316 0.74925 0.91233 0.0
C2061 C 0.26781 0.7481 0.9883 0.0
N2062 N 0.20956 0.70711 0.94116 0.0
N2063 N 0.29118 0.79003 0.95831 0.0
H2064 H 0.28128 0.73226 0.05098 0.0
H2065 H 0.29308 0.76746 1.04072 0.0
H2066 H 0.29445 0.8053 0.93288 0.0
H2067 H 0.30775 0.78777 0.9791 0.0
H2068 H 0.19386 0.70909 0.9184 0.0
H2069 H 0.20512 0.69255 0.96727 0.0
H2070 H 0.21216 0.72759 0.85629 0.0
H2071 H 0.22503 0.76242 0.84496 0.0
C2072 C 0.4816 0.99222 0.73285 0.0
C2073 C 0.47801 0.01981 0.71543 0.0
C2074 C 0.50145 0.00011 0.63548 0.0
C2075 C 0.50883 0.9742 0.65568 0.0
N2076 N 0.51041 0.94852 0.72771 0.0
N2077 N 0.48354 0.05048 0.64887 0.0
C2078 C 0.49968 0.97076 0.70523 0.0
C2079 C 0.48757 0.02389 0.66626 0.0
N2080 N 0.46803 0.98656 0.77618 0.0
N2081 N 0.50706 0.00166 0.58668 0.0
H2082 H 0.47113 0.06746 0.66771 0.0
H2083 H 0.49323 0.05616 0.61622 0.0
H2084 H 0.51783 0.98492 0.56363 0.0
H2085 H 0.49945 0.01841 0.56831 0.0
H2086 H 0.46758 0.96561 0.78825 0.0
H2087 H 0.45496 0.00208 0.79778 0.0
H2088 H 0.50693 0.94701 0.7649 0.0
H2089 H 0.52626 0.93448 0.71105 0.0
C2090 C 0.00309 0.96972 0.16943 0.0
C2091 C 0.01068 0.96983 0.21803 0.0
C2092 C 0.98851 0.01812 0.23844 0.0
C2093 C 0.98149 0.01849 0.1893 0.0
N2094 N 0.97225 0.9892 0.11579 0.0
N2095 N 0.9949 0.98609 0.30072 0.0
C2096 C 0.98509 0.99228 0.1576 0.0
C2097 C -0.00139 0.99155 0.25333 0.0
N2098 N 0.01471 0.94964 0.1335 0.0
N2099 N 0.98597 0.04258 0.27148 0.0
H2100 H -0.00174 0.96496 0.31063 0.0
H2101 H 0.98422 0.00066 0.32778 0.0
H2102 H 0.977 0.06258 0.26593 0.0
H2103 H 0.99413 0.04315 0.30499 0.0
H2104 H 0.01132 0.94958 0.09705 0.0
H2105 H 0.03137 0.93656 0.1391 0.0
H2106 H 0.97238 0.9694 0.0934 0.0
H2107 H 0.95883 0.00535 0.10648 0.0
C2108 C 0.48569 0.02322 0.22107 0.0
C2109 C 0.48762 0.99415 0.23553 0.0
C2110 C 0.51734 0.97863 0.16117 0.0
C2111 C 0.51544 0.00764 0.14693 0.0
N2112 N 0.4876 0.05217 0.15273 0.0
N2113 N 0.51361 0.94833 0.22779 0.0
C2114 C 0.49665 0.02849 0.17374 0.0
C2115 C 0.50577 0.97294 0.20784 0.0
N2116 N 0.47517 0.04629 0.25313 0.0
N2117 N 0.52839 0.95601 0.12866 0.0
H2118 H 0.50728 0.94513 0.26366 0.0
H2119 H 0.52903 0.93338 0.21142 0.0
H2120 H 0.53267 0.95834 0.09179 0.0
H2121 H 0.52979 0.9342 0.13652 0.0
H2122 H 0.47414 0.06796 0.24436 0.0
H2123 H 0.47187 0.04502 0.29033 0.0
H2124 H 0.47232 0.06714 0.16951 0.0
H2125 H 0.49217 0.05409 0.11586 0.0
C2126 C 0.98093 0.00167 0.67047 0.0
C2127 C 0.99204 0.97476 0.64451 0.0
C2128 C 0.02613 0.97259 0.70237 0.0
C2129 C 0.01963 0.00242 0.72098 0.0
N2130 N 0.9893 0.04534 0.72346 0.0
N2131 N 0.02804 0.93694 0.63169 0.0
C2132 C 0.99651 0.01702 0.70543 0.0
C2133 C 0.01567 0.96104 0.659 0.0
N2134 N 0.95495 0.01184 0.66399 0.0
N2135 N 0.04092 0.95472 0.72776 0.0
H2136 H 0.021 0.92818 0.59901 0.0
H2137 H 0.04666 0.92749 0.63942 0.0
H2138 H 0.04545 0.96116 0.76321 0.0
H2139 H 0.04512 0.93243 0.7165 0.0
H2140 H 0.9448 0.02932 0.68615 0.0
H2141 H 0.94225 0.00134 0.63978 0.0
H2142 H 0.97557 0.05842 0.70761 0.0
H2143 H 0.99709 0.05581 0.75401 0.0
C2144 C 0.00313 0.42976 0.98046 0.0
C2145 C 0.01639 0.40205 0.9851 0.0
C2146 C 0.99656 0.38257 0.90927 0.0
C2147 C 0.98663 0.41153 0.90147 0.0
N2148 N 0.98806 0.46383 0.92601 0.0
N2149 N 0.02888 0.35307 0.94806 0.0
C2150 C 0.9921 0.4354 0.93611 0.0
C2151 C 0.01392 0.37871 0.94786 0.0
N2152 N -5e-05 0.45061 1.01953 0.0
N2153 N 0.98853 0.35829 0.88151 0.0
H2154 H 0.04138 0.34942 0.97554 0.0
H2155 H 0.03067 0.33654 0.91906 0.0
H2156 H 0.97538 0.35933 0.85424 0.0
H2157 H 0.99257 0.33675 0.88896 0.0
H2158 H 0.98953 0.47077 1.01928 0.0
H2159 H 0.00459 0.44608 0.05387 0.0
H2160 H 0.99435 0.48206 0.94771 0.0
H2161 H 0.98172 0.46916 0.89308 0.0
C2162 C 0.81732 0.72049 0.20439 0.0
C2163 C 0.81527 0.73376 0.16035 0.0
C2164 C 0.83618 0.77864 0.19739 0.0
C2165 C 0.83819 0.76514 0.24055 0.0
N2166 N 0.83923 0.72057 0.27951 0.0
N2167 N 0.81526 0.7788 0.12157 0.0
C2168 C 0.83175 0.73509 0.24193 0.0
C2169 C 0.82303 0.76374 0.15844 0.0
N2170 N 0.80299 0.69572 0.21316 0.0
N2171 N 0.8469 0.80606 0.19433 0.0
H2172 H 0.80204 0.76992 0.09662 0.0
H2173 H 0.81886 0.80106 0.11885 0.0
H2174 H 0.8567 0.81693 0.22272 0.0
H2175 H 0.84846 0.81672 0.16285 0.0
H2176 H 0.80281 0.68597 0.24547 0.0
H2177 H 0.78733 0.68793 0.19261 0.0
H2178 H 0.8377 0.69781 0.28031 0.0
H2179 H 0.85016 0.73074 0.3069 0.0
C2180 C 0.50167 0.55845 0.45237 0.0
C2181 C 0.51052 0.5845 0.43232 0.0
C2182 C 0.48122 0.6139 0.49999 0.0
C2183 C 0.4742 0.58787 0.52237 0.0
N2184 N 0.48274 0.53491 0.5213 0.0
N2185 N 0.51032 0.63768 0.43992 0.0
C2186 C 0.48586 0.56013 0.4989 0.0
C2187 C 0.50071 0.61237 0.45709 0.0
N2188 N 0.5067 0.53169 0.42549 0.0
N2189 N 0.46798 0.64 0.51789 0.0
H2190 H 0.52308 0.63757 0.40774 0.0
H2191 H 0.50726 0.65854 0.45901 0.0
H2192 H 0.45356 0.642 0.54839 0.0
H2193 H 0.4694 0.65916 0.50039 0.0
H2194 H 0.49739 0.51227 0.43465 0.0
H2195 H 0.51797 0.52914 0.39143 0.0
H2196 H 0.49455 0.51565 0.51025 0.0
H2197 H 0.46987 0.53329 0.5526 0.0
C2198 C 0.66512 0.28699 0.61626 0.0
C2199 C 0.64494 0.26533 0.62192 0.0
C2200 C 0.62861 0.27415 0.54323 0.0
C2201 C 0.64889 0.29662 0.53791 0.0
N2202 N 0.67502 0.33296 0.58427 0.0
N2203 N 0.60361 0.24232 0.59666 0.0
C2204 C 0.66382 0.30559 0.57876 0.0
C2205 C 0.62559 0.26003 0.58705 0.0
N2206 N 0.68566 0.29002 0.64684 0.0
N2207 N 0.61215 0.26583 0.50718 0.0
H2208 H 0.60117 0.23107 0.6276 0.0
H2209 H 0.58673 0.24046 0.57603 0.0
H2210 H 0.60818 0.27851 0.47957 0.0
H2211 H 0.60179 0.24592 0.50512 0.0
H2212 H 0.70262 0.30348 0.64085 0.0
H2213 H 0.68722 0.27698 0.6753 0.0
H2214 H 0.68478 0.34062 0.61475 0.0
H2215 H 0.67092 0.34965 0.56283 0.0
C2216 C 0.96318 0.64245 0.954 0.0
C2217 C 0.98401 0.64854 0.98621 0.0
C2218 C 0.01572 0.66106 0.91752 0.0
C2219 C 0.99664 0.65013 0.88479 0.0
N2220 N 0.95322 0.62665 0.87171 0.0
N2221 N 0.0323 0.65832 0.99619 0.0
C2222 C 0.9705 0.64 0.90294 0.0
C2223 C 0.01084 0.65671 0.96745 0.0
N2224 N 0.93629 0.63946 0.97216 0.0
N2225 N 0.0385 0.67574 0.90088 0.0
H2226 H 0.03034 0.65361 1.03222 0.0
H2227 H 0.05278 0.66125 0.98278 0.0
H2228 H 0.04252 0.67957 0.86454 0.0
H2229 H 0.05168 0.68669 0.92387 0.0
H2230 H 0.91982 0.6379 0.95055 0.0
H2231 H 0.93014 0.64146 1.00928 0.0
H2232 H 0.93541 0.61581 0.88334 0.0
H2233 H 0.95784 0.62419 0.83412 0.0
C2234 C 0.61625 0.71586 0.19144 0.0
C2235 C 0.62334 0.73832 0.22715 0.0
C2236 C 0.62795 0.77351 0.16539 0.0
C2237 C 0.61897 0.75165 0.13049 0.0
N2238 N 0.6003 0.70351 0.11174 0.0
N2239 N 0.63107 0.78982 0.25048 0.0
C2240 C 0.61189 0.72322 0.14398 0.0
C2241 C 0.62781 0.76753 0.21475 0.0
N2242 N 0.61457 0.6873 0.20247 0.0
N2243 N 0.6375 0.79968 0.15106 0.0
H2244 H 0.63108 0.78639 0.287 0.0
H2245 H 0.63135 0.81206 0.24467 0.0
H2246 H 0.63769 0.80503 0.11543 0.0
H2247 H 0.64739 0.81507 0.17341 0.0
H2248 H 0.61248 0.66937 0.17679 0.0
H2249 H 0.61744 0.68115 0.23683 0.0
H2250 H 0.59193 0.68365 0.12083 0.0
H2251 H 0.59695 0.7081 0.0767 0.0
C2252 C 0.50613 0.40015 0.40419 0.0
C2253 C 0.51933 0.37654 0.42359 0.0
C2254 C 0.52868 0.35056 0.34181 0.0
C2255 C 0.51242 0.37234 0.32357 0.0
N2256 N 0.48323 0.41646 0.33739 0.0
N2257 N 0.54134 0.32809 0.41241 0.0
C2258 C 0.50056 0.39685 0.35472 0.0
C2259 C 0.53032 0.35147 0.39277 0.0
N2260 N 0.49963 0.42603 0.43281 0.0
N2261 N 0.54291 0.32936 0.31026 0.0
H2262 H 0.5431 0.32803 0.4495 0.0
H2263 H 0.54695 0.3079 0.39258 0.0
H2264 H 0.54186 0.32793 0.27278 0.0
H2265 H 0.55746 0.31474 0.3206 0.0
H2266 H 0.49265 0.44513 0.41957 0.0
H2267 H 0.5036 0.42933 0.46918 0.0
H2268 H 0.47138 0.43272 0.35953 0.0
H2269 H 0.47908 0.41525 0.30111 0.0
C2270 C 0.77436 0.30594 0.81222 0.0
C2271 C 0.79335 0.30033 0.84712 0.0
C2272 C 0.82008 0.267 0.78175 0.0
C2273 C 0.80327 0.27544 0.74595 0.0
N2274 N 0.7671 0.30808 0.72706 0.0
N2275 N 0.83948 0.28191 0.85702 0.0
C2276 C 0.78118 0.29639 0.76126 0.0
C2277 C 0.81758 0.28254 0.82959 0.0
N2278 N 0.74911 0.31918 0.82729 0.0
N2279 N 0.83826 0.24353 0.77067 0.0
H2280 H 0.84025 0.29513 0.88954 0.0
H2281 H 0.85845 0.2715 0.84417 0.0
H2282 H 0.84033 0.23114 0.73678 0.0
H2283 H 0.84897 0.23448 0.79671 0.0
H2284 H 0.73351 0.321 0.80431 0.0
H2285 H 0.74236 0.32539 0.86349 0.0
H2286 H 0.75301 0.32583 0.7352 0.0
H2287 H 0.77145 0.30196 0.68992 0.0
C2288 C 0.01677 0.60765 0.45996 0.0
C2289 C 0.01567 0.58101 0.48323 0.0
C2290 C 0.98363 0.56154 0.42363 0.0
C2291 C 0.98283 0.58909 0.40211 0.0
N2292 N 0.99544 0.64019 0.4084 0.0
N2293 N 0.99173 0.53603 0.49396 0.0
C2294 C -0.00135 0.6126 0.42262 0.0
C2295 C 0.99723 0.55909 0.46692 0.0
N2296 N 0.03568 0.62817 0.47269 0.0
N2297 N 0.97261 0.53673 0.4017 0.0
H2298 H 0.00085 0.53355 0.52586 0.0
H2299 H 0.97588 0.5213 0.48787 0.0
H2300 H 0.964 0.53574 0.36875 0.0
H2301 H 0.97528 0.51577 0.41276 0.0
H2302 H 0.03975 0.64653 0.45402 0.0
H2303 H 0.04871 0.6256 0.49982 0.0
H2304 H 0.00379 0.659 0.42537 0.0
H2305 H 0.98219 0.6448 0.38254 0.0
C2306 C 0.18028 0.2801 0.18137 0.0
C2307 C 0.18109 0.26588 0.225 0.0
C2308 C 0.16515 0.22051 0.18249 0.0
C2309 C 0.16783 0.23307 0.13782 0.0
N2310 N 0.18093 0.27437 0.09351 0.0
N2311 N 0.18368 0.21949 0.25967 0.0
C2312 C 0.17614 0.26279 0.13686 0.0
C2313 C 0.17612 0.2352 0.22344 0.0
N2314 N 0.18215 0.31007 0.18205 0.0
N2315 N 0.15263 0.19397 0.18539 0.0
H2316 H 0.1946 0.22885 0.28775 0.0
H2317 H 0.18257 0.19656 0.25812 0.0
H2318 H 0.14396 0.18287 0.1559 0.0
H2319 H 0.14837 0.18481 0.21808 0.0
H2320 H 0.17845 0.32151 0.1526 0.0
H2321 H 0.18468 0.32432 0.21273 0.0
H2322 H 0.19099 0.29417 0.08967 0.0
H2323 H 0.17585 0.26363 0.06082 0.0
C2324 C 0.51862 0.42353 0.94451 0.0
C2325 C 0.48912 0.4253 0.9476 0.0
C2326 C 0.49206 0.41122 0.85791 0.0
C2327 C 0.52175 0.40952 0.8551 0.0
N2328 N 0.56193 0.40553 0.89888 0.0
N2329 N 0.44753 0.41745 0.90736 0.0
C2330 C 0.53446 0.4131 0.89953 0.0
C2331 C 0.47584 0.41828 0.9042 0.0
N2332 N 0.53182 0.43344 0.98416 0.0
N2333 N 0.4791 0.40653 0.81637 0.0
H2334 H 0.43504 0.42349 0.93944 0.0
H2335 H 0.43617 0.40919 0.87928 0.0
H2336 H 0.48897 0.39694 0.78368 0.0
H2337 H 0.45839 0.41205 0.81388 0.0
H2338 H 0.55317 0.43613 0.98306 0.0
H2339 H 0.52117 0.44192 1.01708 0.0
H2340 H 0.57214 0.40482 0.93009 0.0
H2341 H 0.57373 0.39666 0.86725 0.0
C2342 C 0.29763 0.71712 0.7675 0.0
C2343 C 0.3247 0.72534 0.75115 0.0
C2344 C 0.34098 0.71828 0.83001 0.0
C2345 C 0.31475 0.70662 0.84481 0.0
N2346 N 0.26741 0.6962 0.82875 0.0
N2347 N 0.37305 0.73042 0.76317 0.0
C2348 C 0.29286 0.70646 0.81381 0.0
C2349 C 0.34656 0.72517 0.78148 0.0
N2350 N 0.27637 0.7202 0.73907 0.0
N2351 N 0.36065 0.72322 0.86192 0.0
H2352 H 0.37799 0.73618 0.72808 0.0
H2353 H 0.39049 0.72663 0.78115 0.0
H2354 H 0.35922 0.71673 0.89674 0.0
H2355 H 0.37818 0.73562 0.85477 0.0
H2356 H 0.25553 0.71799 0.75074 0.0
H2357 H 0.27936 0.72683 0.70417 0.0
H2358 H 0.25207 0.69097 0.8057 0.0
H2359 H 0.26155 0.69238 0.86452 0.0
C2360 C 0.98674 0.3332 0.40651 0.0
C2361 C 0.01277 0.34179 0.38519 0.0
C2362 C 0.02877 0.35179 0.46653 0.0
C2363 C 0.0017 0.34649 0.48776 0.0
N2364 N 0.95364 0.33656 0.47795 0.0
N2365 N 0.05747 0.36321 0.39484 0.0
C2366 C 0.98033 0.33834 0.45772 0.0
C2367 C 0.03357 0.35208 0.41519 0.0
N2368 N 0.96841 0.31928 0.3779 0.0
N2369 N 0.05006 0.35576 0.49534 0.0
H2370 H 0.06179 0.36379 0.3575 0.0
H2371 H 0.07201 0.37404 0.4151 0.0
H2372 H 0.04729 0.35576 0.533 0.0
H2373 H 0.07079 0.35646 0.48166 0.0
H2374 H 0.95038 0.30968 0.39177 0.0
H2375 H 0.97248 0.3148 0.34034 0.0
H2376 H 0.9367 0.334 0.45756 0.0
H2377 H 0.94802 0.34024 0.51525 0.0
C2378 C 0.36529 0.28898 0.20584 0.0
C2379 C 0.37444 0.26779 0.16617 0.0
C2380 C 0.37988 0.23101 0.22377 0.0
C2381 C 0.37444 0.25325 0.26345 0.0
N2382 N 0.36796 0.30521 0.29086 0.0
N2383 N 0.3964 0.22023 0.13885 0.0
C2384 C 0.36884 0.28279 0.2541 0.0
C2385 C 0.38343 0.23922 0.17554 0.0
N2386 N 0.3522 0.31459 0.19777 0.0
N2387 N 0.38058 0.2019 0.23179 0.0
H2388 H 0.4004 0.22571 0.1034 0.0
H2389 H 0.40575 0.20029 0.14475 0.0
H2390 H 0.37699 0.19481 0.26628 0.0
H2391 H 0.38176 0.18474 0.20378 0.0
H2392 H 0.34275 0.32941 0.22573 0.0
H2393 H 0.34814 0.3195 0.16324 0.0
H2394 H 0.36666 0.32742 0.285 0.0
H2395 H 0.37148 0.30185 0.32634 0.0
C2396 C 0.44542 0.6342 1.03865 0.0
C2397 C 0.47334 0.63679 0.04958 0.0
C2398 C 0.48876 0.63858 0.96379 0.0
C2399 C 0.46062 0.63873 0.95312 0.0
N2400 N 0.41187 0.64064 0.98092 0.0
N2401 N 0.52093 0.64742 1.02492 0.0
C2402 C 0.43882 0.63769 0.99078 0.0
C2403 C 0.49481 0.6409 1.01286 0.0
N2404 N 0.42541 0.62753 0.07364 0.0
N2405 N 0.50977 0.6344 0.92711 0.0
H2406 H 0.52628 0.64902 0.06057 0.0
H2407 H 0.53659 0.65389 1.00019 0.0
H2408 H 0.50643 0.63122 0.89048 0.0
H2409 H 0.53044 0.631 0.9331 0.0
H2410 H 0.40528 0.62206 0.06664 0.0
H2411 H 0.42947 0.6253 0.1093 0.0
H2412 H 0.39514 0.64295 1.00749 0.0
H2413 H 0.40639 0.64301 0.9462 0.0
C2414 C 0.1665 0.69448 0.60948 0.0
C2415 C 0.17192 0.72469 0.62289 0.0
C2416 C 0.1834 0.73092 0.53566 0.0
C2417 C 0.17975 0.70003 0.52187 0.0
N2418 N 0.17089 0.65187 0.54909 0.0
N2419 N 0.19 0.77043 0.59915 0.0
C2420 C 0.17236 0.68171 0.55988 0.0
C2421 C 0.18144 0.74251 0.58598 0.0
N2422 N 0.15453 0.67809 0.64402 0.0
N2423 N 0.18891 0.74971 0.5009 0.0
H2424 H 0.1884 0.77995 0.63507 0.0
H2425 H 0.20087 0.78329 0.57524 0.0
H2426 H 0.19526 0.74285 0.46481 0.0
H2427 H 0.18661 0.77259 0.50782 0.0
H2428 H 0.14663 0.65719 0.63618 0.0
H2429 H 0.15039 0.68638 0.6804 0.0
H2430 H 0.16994 0.63696 0.5752 0.0
H2431 H 0.17193 0.64159 0.51389 0.0
C2432 C 0.47133 0.91219 0.45958 0.0
C2433 C 0.48461 0.91863 0.41382 0.0
C2434 C 0.5294 0.90241 0.44089 0.0
C2435 C 0.5169 0.9002 0.48872 0.0
N2436 N 0.47531 0.90249 0.54339 0.0
N2437 N 0.52755 0.92301 0.36401 0.0
C2438 C 0.48761 0.90474 0.4978 0.0
C2439 C 0.51397 0.9142 0.40523 0.0
N2440 N 0.44304 0.91195 0.46598 0.0
N2441 N 0.55638 0.893 0.42959 0.0
H2442 H 0.51743 0.93343 0.33875 0.0
H2443 H 0.54905 0.92286 0.35713 0.0
H2444 H 0.56788 0.88399 0.45471 0.0
H2445 H 0.56637 0.89124 0.39456 0.0
H2446 H 0.43184 0.90499 0.49638 0.0
H2447 H 0.43059 0.9164 0.43893 0.0
H2448 H 0.45511 0.90983 0.55522 0.0
H2449 H 0.48575 0.89358 0.56982 0.0
C2450 C 0.31236 0.234 0.71213 0.0
C2451 C 0.32659 0.24002 0.66714 0.0
C2452 C 0.35359 0.27655 0.71459 0.0
C2453 C 0.34164 0.26685 0.75843 0.0
N2454 N 0.31821 0.22766 0.79556 0.0
N2455 N 0.36781 0.26284 0.6298 0.0
C2456 C 0.32431 0.24228 0.75573 0.0
C2457 C 0.3493 0.26014 0.66921 0.0
N2458 N 0.28637 0.22269 0.71436 0.0
N2459 N 0.36853 0.30172 0.71602 0.0
H2460 H 0.36832 0.24973 0.597 0.0
H2461 H 0.38544 0.27559 0.63193 0.0
H2462 H 0.37311 0.31316 0.74867 0.0
H2463 H 0.37489 0.31188 0.68501 0.0
H2464 H 0.27518 0.21937 0.74722 0.0
H2465 H 0.27445 0.22119 0.6849 0.0
H2466 H 0.30641 0.20864 0.79455 0.0
H2467 H 0.32814 0.23253 0.82695 0.0
C2468 C 0.97995 0.10485 0.99022 0.0
C2469 C 0.97874 0.08229 1.02203 0.0
C2470 C 0.00501 0.0491 0.95577 0.0
C2471 C 0.00939 0.07254 0.92595 0.0
N2472 N 0.00441 0.12549 0.92202 0.0
N2473 N -0.00222 0.03529 1.0376 0.0
C2474 C 0.99774 0.10117 0.94516 0.0
C2475 C 0.99353 0.05515 1.00536 0.0
N2476 N 0.9633 0.12951 1.00176 0.0
N2477 N 0.01048 0.02058 0.9364 0.0
H2478 H 0.99248 0.04012 0.07469 0.0
H2479 H 0.00967 0.01594 1.02848 0.0
H2480 H 0.01706 0.01483 0.89984 0.0
H2481 H 0.00509 0.00246 0.95509 0.0
H2482 H 0.96059 0.1451 0.97752 0.0
H2483 H 0.95033 0.13308 1.03401 0.0
H2484 H -0.00067 0.14697 0.93733 0.0
H2485 H 0.0172 0.12479 0.88992 0.0
C2486 C 0.20919 0.80618 0.07618 0.0
C2487 C 0.19222 0.79523 1.03942 0.0
C2488 C 0.16956 0.76388 0.09747 0.0
C2489 C 0.18254 0.77942 0.13563 0.0
N2490 N 0.21095 0.81997 0.16197 0.0
N2491 N 0.15122 0.76723 1.02089 0.0
C2492 C 0.20118 0.80203 0.12524 0.0
C2493 C 0.17107 0.7749 0.05136 0.0
N2494 N 0.23383 0.81907 0.06445 0.0
N2495 N 0.15629 0.73819 0.10466 0.0
H2496 H 0.14948 0.77575 0.9881 0.0
H2497 H 0.1341 0.7549 1.03118 0.0
H2498 H 0.15535 0.72886 0.1375 0.0
H2499 H 0.14895 0.72457 0.07641 0.0
H2500 H 0.2477 0.82519 0.08994 0.0
H2501 H 0.2422 0.8197 1.02883 0.0
H2502 H 0.22267 0.83849 0.15578 0.0
H2503 H 0.205 0.81816 0.19856 0.0
C2504 C 0.47538 0.11271 0.40501 0.0
C2505 C 0.49673 0.13027 0.38546 0.0
C2506 C 0.50432 0.15176 0.46742 0.0
C2507 C 0.48512 0.13188 0.48702 0.0
N2508 N 0.45628 0.08955 0.47497 0.0
N2509 N 0.5352 0.16241 0.3981 0.0
C2510 C 0.47169 0.11125 0.45594 0.0
C2511 C 0.51223 0.14874 0.41666 0.0
N2512 N 0.45815 0.09806 0.37504 0.0
N2513 N 0.51446 0.17401 0.4971 0.0
H2514 H 0.54197 0.16044 0.36117 0.0
H2515 H 0.54897 0.1735 0.41971 0.0
H2516 H 0.50908 0.17701 0.53452 0.0
H2517 H 0.5262 0.19102 0.48412 0.0
H2518 H 0.44054 0.08727 0.38775 0.0
H2519 H 0.45995 0.09902 0.33755 0.0
H2520 H 0.44841 0.07204 0.45374 0.0
H2521 H 0.45358 0.08746 0.51212 0.0
C2522 C 0.11587 0.21813 0.643 0.0
C2523 C 0.12461 0.24556 0.62737 0.0
C2524 C 0.13988 0.26066 0.708 0.0
C2525 C 0.1329 0.23239 0.72254 0.0
N2526 N 0.11579 0.1835 0.70419 0.0
N2527 N 0.14584 0.29266 0.64295 0.0
C2528 C 0.12128 0.21092 0.69008 0.0
C2529 C 0.13666 0.26687 0.65951 0.0
N2530 N 0.10165 0.19941 0.61312 0.0
N2531 N 0.14971 0.28151 0.74072 0.0
H2532 H 0.14371 0.29803 0.60789 0.0
H2533 H 0.15692 0.3083 0.66256 0.0
H2534 H 0.1542 0.27721 0.77532 0.0
H2535 H 0.1524 0.30353 0.73494 0.0
H2536 H 0.09237 0.18027 0.62336 0.0
H2537 H 0.09734 0.20407 0.57858 0.0
H2538 H 0.11025 0.16565 0.68096 0.0
H2539 H 0.11817 0.17797 0.73909 0.0
C2540 C 0.05613 0.84009 0.88035 0.0
C2541 C 0.03788 0.85386 0.91932 0.0
C2542 C 0.00422 0.86463 0.86224 0.0
C2543 C 0.02327 0.85277 0.82284 0.0
N2544 N 0.06906 0.83344 0.79333 0.0
N2545 N 0.99684 0.88383 0.94711 0.0
C2546 C 0.04972 0.84161 0.8316 0.0
C2547 C 0.01261 0.86754 0.91013 0.0
N2548 N 0.07925 0.825 0.89003 0.0
N2549 N 0.97768 0.87204 0.85413 0.0
H2550 H 0.00195 0.88607 0.9829 0.0
H2551 H 0.97997 0.89718 0.94174 0.0
H2552 H 0.97056 0.86997 0.81971 0.0
H2553 H 0.96196 0.87779 0.88183 0.0
H2554 H 0.09167 0.81156 0.86382 0.0
H2555 H 0.08496 0.82427 0.92514 0.0
H2556 H 0.08965 0.82812 0.79728 0.0
H2557 H 0.06509 0.83421 0.75725 0.0
C2558 C 0.33209 0.8084 0.31902 0.0
C2559 C 0.32492 0.78991 0.3566 0.0
C2560 C 0.33073 0.74674 0.29363 0.0
C2561 C 0.33415 0.76565 0.25592 0.0
N2562 N 0.33341 0.81532 0.23328 0.0
N2563 N 0.31286 0.74074 0.37621 0.0
C2564 C 0.33345 0.79672 0.26886 0.0
C2565 C 0.32315 0.75884 0.34294 0.0
N2566 N 0.33941 0.83684 0.33104 0.0
N2567 N 0.33535 0.71701 0.28259 0.0
H2568 H 0.30545 0.74825 0.41167 0.0
H2569 H 0.30861 0.7186 0.36724 0.0
H2570 H 0.34076 0.7073 0.24729 0.0
H2571 H 0.3365 0.70235 0.3088 0.0
H2572 H 0.34734 0.85059 0.30561 0.0
H2573 H 0.34079 0.84546 0.3668 0.0
H2574 H 0.32981 0.83804 0.24057 0.0
H2575 H 0.33448 0.80773 0.19645 0.0
C2576 C 0.49663 0.05866 0.89408 0.0
C2577 C 0.4812 0.08557 0.89259 0.0
C2578 C 0.50074 0.10428 0.96918 0.0
C2579 C 0.51379 0.07599 0.97263 0.0
N2580 N 0.51522 0.02409 0.94409 0.0
N2581 N 0.4651 0.13216 0.93528 0.0
C2582 C 0.5092 0.05264 0.93665 0.0
C2583 C 0.48243 0.10792 0.93191 0.0
N2584 N 0.50038 0.03884 0.85383 0.0
N2585 N 0.50614 0.12819 1.00041 0.0
H2586 H 0.45183 0.13579 0.90893 0.0
H2587 H 0.46218 0.14738 0.96603 0.0
H2588 H 0.51857 0.12738 1.02877 0.0
H2589 H 0.50021 0.14971 0.99558 0.0
H2590 H 0.51316 0.02003 0.85136 0.0
H2591 H 0.49386 0.04339 0.82102 0.0
H2592 H 0.50962 0.00598 0.92134 0.0
H2593 H 0.52236 0.01819 0.97608 0.0
C2594 C 0.66217 0.75898 0.64347 0.0
C2595 C 0.65319 0.72971 0.64455 0.0
C2596 C 0.66538 0.73017 0.7285 0.0
C2597 C 0.67523 0.75939 0.72686 0.0
N2598 N 0.69481 0.79403 0.67302 0.0
N2599 N 0.64041 0.68946 0.69028 0.0
C2600 C 0.67685 0.77195 0.68176 0.0
C2601 C 0.65281 0.71611 0.68815 0.0
N2602 N 0.65698 0.77433 0.6055 0.0
N2603 N 0.67105 0.71471 0.76618 0.0
H2604 H 0.63104 0.67923 0.66083 0.0
H2605 H 0.63711 0.679 0.72183 0.0
H2606 H 0.68403 0.72283 0.79201 0.0
H2607 H 0.66629 0.69265 0.76846 0.0
H2608 H 0.66115 0.79669 0.60471 0.0
H2609 H 0.64533 0.76566 0.57796 0.0
H2610 H 0.69756 0.80286 0.63984 0.0
H2611 H 0.71071 0.79949 0.69477 0.0
C2612 C 0.02508 0.9306 0.38576 0.0
C2613 C 0.02817 0.90312 0.35465 0.0
C2614 C 0.99578 0.88172 0.4167 0.0
C2615 C 0.99456 0.90859 0.44861 0.0
N2616 N 0.01521 0.95546 0.46727 0.0
N2617 N 0.01924 0.85109 0.34697 0.0
C2618 C 0.01131 0.93199 0.43407 0.0
C2619 C 0.01409 0.87833 0.37189 0.0
N2620 N 0.03388 0.95635 0.36877 0.0
N2621 N 0.97904 0.85933 0.42891 0.0
H2622 H 0.03271 0.84766 0.31533 0.0
H2623 H 0.01216 0.83158 0.35977 0.0
H2624 H 0.96699 0.8605 0.46203 0.0
H2625 H 0.9759 0.84064 0.40541 0.0
H2626 H 0.02909 0.97702 0.38768 0.0
H2627 H 0.04213 0.9581 0.33333 0.0
H2628 H 0.02999 0.97142 0.4612 0.0
H2629 H 0.00606 0.95717 0.50291 0.0
C2630 C 0.80751 0.19426 0.23327 0.0
C2631 C 0.81407 0.22428 0.23238 0.0
C2632 C 0.81036 0.2303 0.3211 0.0
C2633 C 0.80913 0.19895 0.32227 0.0
N2634 N 0.81188 0.15085 0.27383 0.0
N2635 N 0.82604 0.2703 0.27508 0.0
C2636 C 0.80894 0.18082 0.27687 0.0
C2637 C 0.81716 0.24202 0.27615 0.0
N2638 N 0.79994 0.17835 0.19236 0.0
N2639 N 0.80209 0.24929 0.36136 0.0
H2640 H 0.83034 0.27997 0.24282 0.0
H2641 H 0.83123 0.28314 0.30601 0.0
H2642 H 0.79192 0.24258 0.39287 0.0
H2643 H 0.80079 0.27212 0.36066 0.0
H2644 H 0.7915 0.15742 0.19264 0.0
H2645 H 0.79962 0.18703 0.1591 0.0
H2646 H 0.81472 0.13752 0.24093 0.0
H2647 H 0.81588 0.13937 0.3026 0.0
C2648 C 0.54163 0.88179 0.93879 0.0
C2649 C 0.52574 0.8637 0.90775 0.0
C2650 C 0.49889 0.84657 0.97824 0.0
C2651 C 0.51551 0.86368 1.00936 0.0
N2652 N 0.55578 0.8932 1.02 0.0
N2653 N 0.49361 0.82419 0.89684 0.0
C2654 C 0.53789 0.87994 0.98979 0.0
C2655 C 0.50574 0.84459 0.9272 0.0
N2656 N 0.55953 0.90146 0.91965 0.0
N2657 N 0.47572 0.83342 0.99727 0.0
H2658 H 0.49798 0.82223 0.85918 0.0
H2659 H 0.48114 0.80753 0.90909 0.0
H2660 H 0.46991 0.83422 1.03445 0.0
H2661 H 0.461 0.82367 0.97617 0.0
H2662 H 0.56939 0.9176 0.94062 0.0
H2663 H 0.56313 0.90303 0.88242 0.0
H2664 H 0.57404 0.903 1.00775 0.0
H2665 H 0.55356 0.89223 0.0575 0.0
C2666 C 0.85868 0.72501 0.66908 0.0
C2667 C 0.86069 0.75487 0.65857 0.0
C2668 C 0.86654 0.77033 0.74449 0.0
C2669 C 0.86309 0.74068 0.75543 0.0
N2670 N 0.85192 0.69044 0.72991 0.0
N2671 N 0.86249 0.80653 0.68664 0.0
C2672 C 0.85795 0.71823 0.71819 0.0
C2673 C 0.86352 0.77771 0.69645 0.0
N2674 N 0.85847 0.70298 0.6318 0.0
N2675 N 0.8731 0.79139 0.77999 0.0
H2676 H 0.86055 0.81264 0.65192 0.0
H2677 H 0.86146 0.82445 0.71319 0.0
H2678 H 0.87428 0.78713 0.81591 0.0
H2679 H 0.87905 0.81261 0.77349 0.0
H2680 H 0.86032 0.68062 0.63615 0.0
H2681 H 0.85849 0.70703 0.59554 0.0
H2682 H 0.84463 0.67401 0.70583 0.0
H2683 H 0.85235 0.68429 0.76494 0.0
C2684 C -0.00126 0.10539 0.50376 0.0
C2685 C 0.00183 0.13159 0.53486 0.0
C2686 C 0.99362 0.16145 0.4684 0.0
C2687 C 0.9888 0.13525 0.4383 0.0
N2688 N 0.98555 0.08173 0.4292 0.0
N2689 N 0.99768 0.18467 0.54986 0.0
C2690 C 0.99093 0.10726 0.45636 0.0
C2691 C -0.00192 0.15969 0.51798 0.0
N2692 N 0.00322 0.07832 0.51926 0.0
N2693 N 0.99503 0.1879 0.44905 0.0
H2694 H 0.00082 0.18431 0.5864 0.0
H2695 H 0.99194 0.20551 0.54129 0.0
H2696 H 0.9919 0.19012 0.41298 0.0
H2697 H 0.00159 0.20724 0.46741 0.0
H2698 H 0.00116 0.05861 0.49731 0.0
H2699 H 0.00967 0.0756 0.55334 0.0
H2700 H 0.97909 0.08071 0.3943 0.0
H2701 H 0.97909 0.08071 0.3943 0.0
C2702 C 0.67169 0.19498 0.05298 0.0
C2703 C 0.67281 0.2121 1.01228 0.0
C2704 C 0.66114 0.25672 0.07211 0.0
C2705 C 0.66044 0.23941 0.112 0.0
N2706 N 0.66971 0.19248 0.14045 0.0
N2707 N 0.66273 0.26 0.98555 0.0
C2708 C 0.6672 0.20872 0.10226 0.0
C2709 C 0.66589 0.24314 1.02265 0.0
N2710 N 0.67196 0.16497 0.04453 0.0
N2711 N 0.65914 0.28681 0.08161 0.0
H2712 H 0.66871 0.25329 0.94932 0.0
H2713 H 0.65292 0.28074 0.99046 0.0
H2714 H 0.65553 0.2975 0.11671 0.0
H2715 H 0.66361 0.30133 0.05549 0.0
H2716 H 0.6685 0.15071 0.07134 0.0
H2717 H 0.67189 0.15446 1.00982 0.0
H2718 H 0.67843 0.17122 0.13674 0.0
H2719 H 0.665 0.20104 0.17656 0.0
C2720 C 0.10182 0.55376 0.77601 0.0
C2721 C 0.09756 0.53428 0.7336 0.0
C2722 C 0.09077 0.49391 0.7877 0.0
C2723 C 0.09627 0.51284 0.82951 0.0
N2724 N 0.11252 0.56006 0.86055 0.0
N2725 N 0.0992 0.48271 0.70073 0.0
C2726 C 0.10321 0.54263 0.82277 0.0
C2727 C 0.09535 0.50349 0.73985 0.0
N2728 N 0.10535 0.5831 0.77154 0.0
N2729 N 0.08019 0.46671 0.79349 0.0
H2730 H 0.1057 0.48752 0.66586 0.0
H2731 H 0.10005 0.46011 0.70403 0.0
H2732 H 0.07611 0.459 0.82745 0.0
H2733 H 0.07267 0.4533 0.7652 0.0
H2734 H 0.10419 0.59927 0.80101 0.0
H2735 H 0.10885 0.59142 0.73796 0.0
H2736 H 0.12088 0.58077 0.8573 0.0
H2737 H 0.11406 0.55281 0.89461 0.0
C2738 C 0.70202 0.82049 1.02889 0.0
C2739 C 0.70143 0.84497 1.00019 0.0
C2740 C 0.72549 0.87402 0.06418 0.0
C2741 C 0.72375 0.85035 0.09428 0.0
N2742 N 0.70457 0.80321 0.10835 0.0
N2743 N 0.70833 0.89703 0.9969 0.0
C2744 C 0.71028 0.82431 0.07743 0.0
C2745 C 0.71208 0.87227 1.01969 0.0
N2746 N 0.69632 0.79281 1.00913 0.0
N2747 N 0.74077 0.89799 0.07726 0.0
H2748 H 0.69797 0.89688 0.96564 0.0
H2749 H 0.71292 0.91816 1.01154 0.0
H2750 H 0.75074 0.9001 0.10906 0.0
H2751 H 0.74554 0.91449 0.05471 0.0
H2752 H 0.69978 0.77381 1.02588 0.0
H2753 H 0.69094 0.78815 0.97398 0.0
H2754 H 0.69204 0.78529 0.10043 0.0
H2755 H 0.71004 0.80508 0.14391 0.0
C2756 C 0.39739 0.50343 0.30551 0.0
C2757 C 0.40168 0.48502 0.34268 0.0
C2758 C 0.41166 0.44316 0.27757 0.0
C2759 C 0.40678 0.46176 0.2402 0.0
N2760 N 0.38193 0.50638 0.22604 0.0
N2761 N 0.40813 0.4356 0.36375 0.0
C2762 C 0.39586 0.49094 0.25621 0.0
C2763 C 0.40772 0.45441 0.32846 0.0
N2764 N 0.3953 0.53333 0.31689 0.0
N2765 N 0.41875 0.41407 0.26477 0.0
H2766 H 0.40509 0.44275 0.40072 0.0
H2767 H 0.40948 0.4127 0.35689 0.0
H2768 H 0.41517 0.40311 0.23125 0.0
H2769 H 0.42761 0.40062 0.2876 0.0
H2770 H 0.39525 0.54812 0.2906 0.0
H2771 H 0.39668 0.54341 0.35197 0.0
H2772 H 0.37208 0.52677 0.23728 0.0
H2773 H 0.37599 0.49714 0.19302 0.0
C2774 C 0.77926 0.153 0.64802 0.0
C2775 C 0.76316 0.14701 0.60764 0.0
C2776 C 0.72196 0.14417 0.66957 0.0
C2777 C 0.73751 0.15369 0.70951 0.0
N2778 N 0.78121 0.17275 0.73218 0.0
N2779 N 0.71696 0.14159 0.58275 0.0
C2780 C 0.76624 0.15943 0.69728 0.0
C2781 C 0.73393 0.14373 0.61937 0.0
N2782 N 0.80753 0.15153 0.63977 0.0
N2783 N 0.69577 0.13426 0.67934 0.0
H2784 H 0.72438 0.14073 0.54632 0.0
H2785 H 0.6954 0.14314 0.58873 0.0
H2786 H 0.68655 0.13354 0.71461 0.0
H2787 H 0.68429 0.12403 0.65281 0.0
H2788 H 0.82061 0.15257 0.66755 0.0
H2789 H 0.81786 0.14585 0.60538 0.0
H2790 H 0.80088 0.18109 0.72465 0.0
H2791 H 0.77291 0.17832 0.76779 0.0
C2792 C 0.88445 0.46438 0.63747 0.0
C2793 C 0.91173 0.45603 0.64763 0.0
C2794 C 0.92912 0.47121 0.56654 0.0
C2795 C 0.90267 0.48307 0.55959 0.0
N2796 N 0.85557 0.49427 0.59291 0.0
N2797 N 0.961 0.45856 0.62313 0.0
C2798 C 0.88046 0.48053 0.59638 0.0
C2799 C 0.93426 0.46122 0.61232 0.0
N2800 N 0.86205 0.45569 0.66565 0.0
N2801 N 0.94948 0.46859 0.52873 0.0
H2802 H 0.96623 0.45252 0.656 0.0
H2803 H 0.97793 0.46548 0.60152 0.0
H2804 H 0.94663 0.47529 0.49472 0.0
H2805 H 0.96815 0.45701 0.52958 0.0
H2806 H 0.84166 0.45842 0.6575 0.0
H2807 H 0.86388 0.44285 0.69423 0.0
H2808 H 0.83949 0.49614 0.62078 0.0
H2809 H 0.85185 0.50606 0.5638 0.0
C2810 C 0.26943 0.17072 0.32987 0.0
C2811 C 0.26317 0.14202 0.30959 0.0
C2812 C 0.27977 0.12197 0.38246 0.0
C2813 C 0.28829 0.15053 0.40078 0.0
N2814 N 0.29462 0.20168 0.3853 0.0
N2815 N 0.26551 0.08958 0.31406 0.0
C2816 C 0.2843 0.17462 0.37228 0.0
C2817 C 0.2691 0.11746 0.33542 0.0
N2818 N 0.2598 0.19475 0.31002 0.0
N2819 N 0.2821 0.09892 0.4098 0.0
H2820 H 0.25771 0.08553 0.28036 0.0
H2821 H 0.27209 0.07048 0.32773 0.0
H2822 H 0.29184 0.10065 0.44182 0.0
H2823 H 0.27329 0.07847 0.40208 0.0
H2824 H 0.26024 0.21631 0.32651 0.0
H2825 H 0.24876 0.19303 0.27943 0.0
H2826 H 0.29595 0.21851 0.36251 0.0
H2827 H 0.30308 0.20724 0.41775 0.0
C2828 C 0.59235 0.50151 0.07394 0.0
C2829 C 0.59224 0.52031 1.036 0.0
C2830 C 0.58429 0.56311 0.10023 0.0
C2831 C 0.58633 0.54446 0.13848 0.0
N2832 N 0.59858 0.49539 0.15785 0.0
N2833 N 0.59222 0.57004 1.01405 0.0
C2834 C 0.59229 0.5136 0.12411 0.0
C2835 C 0.58915 0.55138 0.04961 0.0
N2836 N 0.59132 0.47167 0.06231 0.0
N2837 N 0.57807 0.5925 0.11208 0.0
H2838 H 0.59578 0.56253 0.97726 0.0
H2839 H 0.5935 0.59286 1.02091 0.0
H2840 H 0.57827 0.60296 0.14716 0.0
H2841 H 0.57182 0.6064 0.08739 0.0
H2842 H 0.58773 0.4567 0.08801 0.0
H2843 H 0.5913 0.46198 1.02668 0.0
H2844 H 0.60617 0.4738 0.14887 0.0
H2845 H 0.59922 0.5023 0.19435 0.0
C2846 C 0.24128 0.81848 0.72789 0.0
C2847 C 0.23402 0.84587 0.75662 0.0
C2848 C 0.2572 0.87075 0.6873 0.0
C2849 C 0.26139 0.84334 0.65698 0.0
N2850 N 0.24875 0.79226 0.64728 0.0
N2851 N 0.23195 0.89885 0.75801 0.0
C2852 C 0.25093 0.81763 0.67715 0.0
C2853 C 0.24122 0.87222 0.73463 0.0
N2854 N 0.24063 0.79286 0.74946 0.0
N2855 N 0.26939 0.89541 0.67194 0.0
H2856 H 0.22 0.90079 0.79142 0.0
H2857 H 0.23383 0.91861 0.74225 0.0
H2858 H 0.28129 0.89521 0.63865 0.0
H2859 H 0.26981 0.91531 0.69392 0.0
H2860 H 0.24793 0.77267 0.73144 0.0
H2861 H 0.23635 0.7924 0.78669 0.0
H2862 H 0.23921 0.77348 0.65878 0.0
H2863 H 0.25294 0.79147 0.60981 0.0
C2864 C 0.59651 0.9844 0.26932 0.0
C2865 C 0.59408 0.00415 0.31264 0.0
C2866 C 0.59123 0.04582 0.26195 0.0
C2867 C 0.59053 0.02601 0.21874 0.0
N2868 N 0.58953 0.97496 0.18414 0.0
N2869 N 0.58492 0.05368 0.35029 0.0
C2870 C 0.59255 0.99492 0.22321 0.0
C2871 C 0.5902 0.03484 0.30884 0.0
N2872 N 0.60337 0.95539 0.27188 0.0
N2873 N 0.59446 0.07529 0.25811 0.0
H2874 H 0.58451 0.04663 0.3849 0.0
H2875 H 0.57856 0.07565 0.35037 0.0
H2876 H 0.59713 0.08403 0.22478 0.0
H2877 H 0.59768 0.0906 0.28738 0.0
H2878 H 0.60908 0.94051 0.24147 0.0
H2879 H 0.60548 0.94662 0.30462 0.0
H2880 H 0.586 0.95265 0.18691 0.0
H2881 H 0.58906 0.9806 0.1491 0.0
C2882 C 0.20432 0.3716 0.53332 0.0
C2883 C 0.19694 0.3437 0.51055 0.0
C2884 C 0.21102 0.32069 0.58271 0.0
C2885 C 0.22116 0.34794 0.60235 0.0
N2886 N 0.23044 0.39894 0.5932 0.0
N2887 N 0.19762 0.29023 0.51316 0.0
C2888 C 0.21856 0.37329 0.57675 0.0
C2889 C 0.20127 0.31791 0.53532 0.0
N2890 N 0.19659 0.3968 0.51471 0.0
N2891 N 0.21007 0.29726 0.61 0.0
H2892 H 0.18983 0.28571 0.47989 0.0
H2893 H 0.20464 0.27103 0.526 0.0
H2894 H 0.2171 0.29817 0.64442 0.0
H2895 H 0.19994 0.27776 0.6008 0.0
H2896 H 0.19871 0.41792 0.53198 0.0
H2897 H 0.18535 0.39656 0.48446 0.0
H2898 H 0.23218 0.41727 0.57366 0.0
H2899 H 0.24066 0.40108 0.62474 0.0
C2900 C 0.88708 0.97562 0.81613 0.0
C2901 C 0.90851 0.97338 0.84791 0.0
C2902 C 0.93888 0.95058 0.7757 0.0
C2903 C 0.91668 0.94981 0.74478 0.0
N2904 N 0.86789 0.9584 0.74027 0.0
N2905 N 0.95335 0.95245 0.85751 0.0
C2906 C 0.89033 0.96159 0.76646 0.0
C2907 C 0.93391 0.95903 0.82739 0.0
N2908 N 0.86373 0.99216 0.83281 0.0
N2909 N 0.96545 0.94509 0.7555 0.0
H2910 H 0.95067 0.95795 0.89501 0.0
H2911 H 0.97081 0.939 0.84595 0.0
H2912 H 0.9705 0.94078 0.71833 0.0
H2913 H 0.98274 0.94836 0.77488 0.0
H2914 H 0.84865 0.99759 0.81064 0.0
H2915 H 0.86064 0.00273 0.86803 0.0
H2916 H 0.8476 0.96339 0.75505 0.0
H2917 H 0.86926 0.94815 0.70482 0.0
C2918 C 0.24442 0.67422 0.19385 0.0
C2919 C 0.23579 0.64846 0.21572 0.0
C2920 C 0.25666 0.61969 0.138 0.0
C2921 C 0.26192 0.64606 0.11478 0.0
N2922 N 0.2501 0.69802 0.12003 0.0
N2923 N 0.23033 0.59577 0.20214 0.0
C2924 C 0.25264 0.67311 0.14268 0.0
C2925 C 0.24107 0.62088 0.18591 0.0
N2926 N 0.24655 0.70002 0.22244 0.0
N2927 N 0.26722 0.59342 0.11524 0.0
H2928 H 0.21842 0.59579 0.23535 0.0
H2929 H 0.23095 0.57558 0.18072 0.0
H2930 H 0.27851 0.59174 0.08122 0.0
H2931 H 0.26681 0.57389 0.13183 0.0
H2932 H 0.25368 0.71931 0.209 0.0
H2933 H 0.24469 0.70092 0.26011 0.0
H2934 H 0.2412 0.7177 0.13753 0.0
H2935 H 0.25336 0.69773 0.08263 0.0
C2936 C 0.41446 0.00294 0.15729 0.0
C2937 C 0.40994 0.9727 0.16499 0.0
C2938 C 0.39617 0.96439 0.08036 0.0
C2939 C 0.4032 0.99377 0.07141 0.0
N2940 N 0.42223 0.04 0.10013 0.0
N2941 N 0.39749 0.92423 0.13182 0.0
C2942 C 0.41302 0.01276 0.10978 0.0
C2943 C 0.40118 0.95338 0.12575 0.0
N2944 N 0.42017 0.02256 0.19537 0.0
N2945 N 0.38345 0.94725 0.04611 0.0
H2946 H 0.39777 0.91589 0.16534 0.0
H2947 H 0.3952 0.90802 0.10336 0.0
H2948 H 0.37958 0.95434 1.0128 0.0
H2949 H 0.37473 0.92701 0.05189 0.0
H2950 H 0.42032 0.04533 0.19421 0.0
H2951 H 0.42292 0.01648 0.22966 0.0
H2952 H 0.43218 0.05415 0.12427 0.0
H2953 H 0.42189 0.04775 0.06615 0.0
C2954 C 0.75968 0.6403 0.88343 0.0
C2955 C 0.78893 0.641 0.88782 0.0
C2956 C 0.79599 0.63771 0.79727 0.0
C2957 C 0.76693 0.64161 0.7941 0.0
N2958 N 0.72199 0.65325 0.83708 0.0
N2959 N 0.83502 0.6412 0.84673 0.0
C2960 C 0.74911 0.64475 0.83806 0.0
C2961 C 0.80703 0.64012 0.84396 0.0
N2962 N 0.74161 0.63441 0.92175 0.0
N2963 N 0.81304 0.63036 0.75568 0.0
H2964 H 0.84407 0.63981 0.87905 0.0
H2965 H 0.84923 0.64442 0.81738 0.0
H2966 H 0.80586 0.62809 0.72133 0.0
H2967 H 0.83383 0.62407 0.75535 0.0
H2968 H 0.72053 0.63129 0.91892 0.0
H2969 H 0.74777 0.62854 0.95429 0.0
H2970 H 0.7088 0.65934 0.86843 0.0
H2971 H 0.71355 0.65739 0.80518 0.0
C2972 C 0.10121 0.04463 0.54905 0.0
C2973 C 0.09893 0.01386 0.53389 0.0
C2974 C 0.09677 0.00504 0.62127 0.0
C2975 C 0.09492 0.03609 0.63714 0.0
N2976 N 0.09486 0.08553 0.61325 0.0
N2977 N 0.08819 0.96586 0.55852 0.0
C2978 C 0.09676 0.0558 0.59998 0.0
C2979 C 0.09494 0.99449 0.57096 0.0
N2980 N 0.10908 0.06324 0.51495 0.0
N2981 N 0.10132 0.98514 0.65341 0.0
H2982 H 0.08574 0.95749 0.52289 0.0
H2983 H 0.08207 0.95141 0.58401 0.0
H2984 H 0.10543 0.99114 0.68894 0.0
H2985 H 0.10506 0.96269 0.64298 0.0
H2986 H 0.11409 0.08519 0.52342 0.0
H2987 H 0.11314 0.05604 0.47813 0.0
H2988 H 0.09219 0.10104 0.58889 0.0
H2989 H 0.09499 0.0947 0.64914 0.0
C2990 C 0.74827 0.33593 0.24369 0.0
C2991 C 0.72071 0.34738 0.25909 0.0
C2992 C 0.71722 0.35573 0.17158 0.0
C2993 C 0.74579 0.34737 0.1573 0.0
N2994 N 0.78963 0.33569 0.18643 0.0
N2995 N 0.68169 0.37429 0.23602 0.0
C2996 C 0.7615 0.33923 0.1954 0.0
C2997 C 0.7061 0.35898 0.22238 0.0
N2998 N 0.7617 0.32023 0.27411 0.0
N2999 N 0.69978 0.359 0.13658 0.0
H3000 H 0.67336 0.37815 0.27212 0.0
H3001 H 0.67141 0.38597 0.21239 0.0
H3002 H 0.70619 0.35604 0.09965 0.0
H3003 H 0.67833 0.36148 0.14403 0.0
H3004 H 0.78006 0.30816 0.2631 0.0
H3005 H 0.75314 0.31663 0.30863 0.0
H3006 H 0.80261 0.33262 0.21345 0.0
H3007 H 0.80034 0.33924 0.15332 0.0
loop_
_geom_bond_atom_site_label_1
_geom_bond_atom_site_label_2
_geom_bond_distance
_geom_bond_site_symmetry_2
_ccdc_geom_bond_type
La0 C2 2.928 . S
La0 O20 2.521 . S
La0 O21 2.628 . S
La0 O22 2.554 . S
La0 O23 2.757 . S
La0 O24 2.470 . S
La0 O29 2.482 . S
La0 O31 2.503 . S
La1 C11 2.928 1_554 S
La1 O23 2.482 . S
La1 O25 2.503 . S
La1 O26 2.521 1_554 S
La1 O27 2.628 1_554 S
La1 O28 2.554 . S
La1 O29 2.757 . S
La1 O30 2.462 1_554 S
C2 La0 2.928 . S
C2 C3 1.503 . S
C2 O20 1.261 . S
C2 O21 1.243 . S
C3 C2 1.503 . S
C3 C4 1.394 1_455 S
C3 C8 1.373 . S
C4 C3 1.394 1_655 S
C4 C5 1.380 . S
C4 H32 0.930 . S
C5 C4 1.380 . S
C5 C6 1.376 1_655 S
C5 H33 0.930 . S
C6 C5 1.376 1_455 S
C6 C7 1.370 . S
C7 C6 1.370 . S
C7 C8 1.396 . S
C7 H34 0.929 . S
C8 C3 1.373 . S
C8 C7 1.396 . S
C8 H35 0.929 . S
C9 O22 1.240 . S
C9 O23 1.289 . S
C10 O24 1.258 . S
C10 O25 1.256 . S
C11 La1 2.928 1_556 S
C11 C12 1.503 . S
C11 O26 1.261 . S
C11 O27 1.243 . S
C12 C11 1.503 . S
C12 C13 1.394 . S
C12 C17 1.373 . S
C13 C12 1.394 . S
C13 C14 1.380 . S
C13 H36 0.930 . S
C14 C13 1.380 . S
C14 C15 1.376 . S
C14 H37 0.930 . S
C15 C14 1.376 . S
C15 C16 1.370 . S
C16 C15 1.370 . S
C16 C17 1.396 . S
C16 H38 0.929 . S
C17 C12 1.373 . S
C17 C16 1.396 . S
C17 H39 0.929 . S
C18 O28 1.240 . S
C18 O29 1.289 . S
C19 O30 1.258 . S
C19 O31 1.251 1_556 S
O20 La0 2.521 . S
O20 C2 1.261 . S
O21 La0 2.628 . S
O21 C2 1.243 . S
O22 La0 2.554 . S
O22 C9 1.240 . S
O23 La0 2.757 . S
O23 La1 2.482 . S
O23 C9 1.289 . S
O24 La0 2.470 . S
O24 C10 1.258 . S
O25 La1 2.503 . S
O25 C10 1.256 . S
O26 La1 2.521 1_556 S
O26 C11 1.261 . S
O27 La1 2.628 1_556 S
O27 C11 1.243 . S
O28 La1 2.554 . S
O28 C18 1.240 . S
O29 La0 2.482 . S
O29 La1 2.757 . S
O29 C18 1.289 . S
O30 La1 2.462 1_556 S
O30 C19 1.258 . S
O31 La0 2.503 . S
O31 C19 1.251 1_554 S
H32 C4 0.930 . S
H33 C5 0.930 . S
H34 C7 0.929 . S
H35 C8 0.929 . S
H36 C13 0.930 . S
H37 C14 0.930 . S
H38 C16 0.929 . S
H39 C17 0.929 . S
La40 C42 2.928 . S
La40 O60 2.521 . S
La40 O61 2.628 . S
La40 O62 2.554 . S
La40 O63 2.757 . S
La40 O64 2.470 . S
La40 O69 2.482 . S
La40 O71 2.503 . S
La41 C51 2.928 . S
La41 O63 2.482 . S
La41 O65 2.503 . S
La41 O66 2.521 . S
La41 O67 2.628 . S
La41 O68 2.554 . S
La41 O69 2.757 . S
La41 O70 2.470 . S
C42 La40 2.928 . S
C42 C43 1.503 . S
C42 O60 1.261 . S
C42 O61 1.243 . S
C43 C42 1.503 . S
C43 C44 1.394 . S
C43 C48 1.373 . S
C44 C43 1.394 . S
C44 C45 1.380 . S
C44 H72 0.930 . S
C45 C44 1.380 . S
C45 C46 1.376 . S
C45 H73 0.930 . S
C46 C45 1.376 . S
C46 C47 1.370 . S
C47 C46 1.370 . S
C47 C48 1.396 . S
C47 H74 0.929 . S
C48 C43 1.373 . S
C48 C47 1.396 . S
C48 H75 0.929 . S
C49 O62 1.240 . S
C49 O63 1.289 . S
C50 O64 1.258 . S
C50 O65 1.256 . S
C51 La41 2.928 . S
C51 C52 1.503 . S
C51 O66 1.261 . S
C51 O67 1.243 . S
C52 C51 1.503 . S
C52 C53 1.394 . S
C52 C57 1.373 . S
C53 C52 1.394 . S
C53 C54 1.380 . S
C53 H76 0.930 . S
C54 C53 1.380 . S
C54 C55 1.376 . S
C54 H77 0.930 . S
C55 C54 1.376 . S
C55 C56 1.370 . S
C56 C55 1.370 . S
C56 C57 1.396 . S
C56 H78 0.929 . S
C57 C52 1.373 . S
C57 C56 1.396 . S
C57 H79 0.929 . S
C58 O68 1.240 . S
C58 O69 1.289 . S
C59 O70 1.258 . S
C59 O71 1.256 . S
O60 La40 2.521 . S
O60 C42 1.261 . S
O61 La40 2.628 . S
O61 C42 1.243 . S
O62 La40 2.554 . S
O62 C49 1.240 . S
O63 La40 2.757 . S
O63 La41 2.482 . S
O63 C49 1.289 . S
O64 La40 2.470 . S
O64 C50 1.258 . S
O65 La41 2.503 . S
O65 C50 1.256 . S
O66 La41 2.521 . S
O66 C51 1.261 . S
O67 La41 2.628 . S
O67 C51 1.243 . S
O68 La41 2.554 . S
O68 C58 1.240 . S
O69 La40 2.482 . S
O69 La41 2.757 . S
O69 C58 1.289 . S
O70 La41 2.470 . S
O70 C59 1.258 . S
O71 La40 2.503 . S
O71 C59 1.256 . S
H72 C44 0.930 . S
H73 C45 0.930 . S
H74 C47 0.929 . S
H75 C48 0.929 . S
H76 C53 0.930 . S
H77 C54 0.930 . S
H78 C56 0.929 . S
H79 C57 0.929 . S
La80 C82 2.928 . S
La80 O100 2.521 . S
La80 O101 2.628 . S
La80 O102 2.554 . S
La80 O103 2.757 . S
La80 O104 2.470 . S
La80 O109 2.482 . S
La80 O111 2.503 . S
La81 C91 2.928 . S
La81 O103 2.482 . S
La81 O105 2.503 . S
La81 O106 2.521 . S
La81 O107 2.628 . S
La81 O108 2.554 . S
La81 O109 2.757 . S
La81 O110 2.470 . S
C82 La80 2.928 . S
C82 C83 1.503 . S
C82 O100 1.261 . S
C82 O101 1.243 . S
C83 C82 1.503 . S
C83 C84 1.394 . S
C83 C88 1.373 . S
C84 C83 1.394 . S
C84 C85 1.380 . S
C84 H112 0.930 . S
C85 C84 1.380 . S
C85 C86 1.376 . S
C85 H113 0.930 . S
C86 C85 1.376 . S
C86 C87 1.370 . S
C87 C86 1.370 . S
C87 C88 1.396 . S
C87 H114 0.929 . S
C88 C83 1.373 . S
C88 C87 1.396 . S
C88 H115 0.929 . S
C89 O102 1.240 . S
C89 O103 1.289 . S
C90 O104 1.258 . S
C90 O105 1.256 . S
C91 La81 2.928 . S
C91 C92 1.503 . S
C91 O106 1.261 . S
C91 O107 1.243 . S
C92 C91 1.503 . S
C92 C93 1.394 . S
C92 C97 1.373 . S
C93 C92 1.394 . S
C93 C94 1.380 . S
C93 H116 0.930 . S
C94 C93 1.380 . S
C94 C95 1.376 . S
C94 H117 0.930 . S
C95 C94 1.376 . S
C95 C96 1.370 . S
C96 C95 1.370 . S
C96 C97 1.396 . S
C96 H118 0.929 . S
C97 C92 1.373 . S
C97 C96 1.396 . S
C97 H119 0.929 . S
C98 O108 1.240 . S
C98 O109 1.289 . S
C99 O110 1.258 . S
C99 O111 1.256 . S
O100 La80 2.521 . S
O100 C82 1.261 . S
O101 La80 2.628 . S
O101 C82 1.243 . S
O102 La80 2.554 . S
O102 C89 1.240 . S
O103 La80 2.757 . S
O103 La81 2.482 . S
O103 C89 1.289 . S
O104 La80 2.470 . S
O104 C90 1.258 . S
O105 La81 2.503 . S
O105 C90 1.256 . S
O106 La81 2.521 . S
O106 C91 1.261 . S
O107 La81 2.628 . S
O107 C91 1.243 . S
O108 La81 2.554 . S
O108 C98 1.240 . S
O109 La80 2.482 . S
O109 La81 2.757 . S
O109 C98 1.289 . S
O110 La81 2.470 . S
O110 C99 1.258 . S
O111 La80 2.503 . S
O111 C99 1.256 . S
H112 C84 0.930 . S
H113 C85 0.930 . S
H114 C87 0.929 . S
H115 C88 0.929 . S
H116 C93 0.930 . S
H117 C94 0.930 . S
H118 C96 0.929 . S
H119 C97 0.929 . S
La120 C122 2.928 . S
La120 O140 2.521 . S
La120 O141 2.628 . S
La120 O142 2.554 . S
La120 O143 2.757 . S
La120 O144 2.470 . S
La120 O149 2.482 . S
La120 O151 2.503 . S
La121 C131 2.928 . S
La121 O143 2.482 . S
La121 O145 2.503 . S
La121 O146 2.521 . S
La121 O147 2.628 . S
La121 O148 2.554 . S
La121 O149 2.757 . S
La121 O150 2.470 . S
C122 La120 2.928 . S
C122 C123 1.503 . S
C122 O140 1.261 . S
C122 O141 1.243 . S
C123 C122 1.503 . S
C123 C124 1.394 . S
C123 C128 1.373 . S
C124 C123 1.394 . S
C124 C125 1.380 . S
C124 H152 0.930 . S
C125 C124 1.380 . S
C125 C126 1.376 . S
C125 H153 0.930 . S
C126 C125 1.376 . S
C126 C127 1.370 . S
C127 C126 1.370 . S
C127 C128 1.396 . S
C127 H154 0.929 . S
C128 C123 1.373 . S
C128 C127 1.396 . S
C128 H155 0.929 . S
C129 O142 1.240 . S
C129 O143 1.289 . S
C130 O144 1.258 . S
C130 O145 1.256 . S
C131 La121 2.928 . S
C131 C132 1.503 1_556 S
C131 O146 1.261 . S
C131 O147 1.243 . S
C132 C131 1.503 1_554 S
C132 C133 1.394 . S
C132 C137 1.373 . S
C133 C132 1.394 . S
C133 C134 1.380 . S
C133 H156 0.930 1_554 S
C134 C133 1.380 . S
C134 C135 1.376 . S
C134 H157 0.930 . S
C135 C134 1.376 . S
C135 C136 1.370 . S
C136 C135 1.370 . S
C136 C137 1.396 . S
C136 H158 0.929 . S
C137 C132 1.373 . S
C137 C136 1.396 . S
C137 H159 0.929 . S
C138 O148 1.240 . S
C138 O149 1.289 . S
C139 O150 1.258 . S
C139 O151 1.256 . S
O140 La120 2.521 . S
O140 C122 1.261 . S
O141 La120 2.628 . S
O141 C122 1.243 . S
O142 La120 2.554 . S
O142 C129 1.240 . S
O143 La120 2.757 . S
O143 La121 2.482 . S
O143 C129 1.289 . S
O144 La120 2.470 . S
O144 C130 1.258 . S
O145 La121 2.503 . S
O145 C130 1.256 . S
O146 La121 2.521 . S
O146 C131 1.261 . S
O147 La121 2.628 . S
O147 C131 1.243 . S
O148 La121 2.554 . S
O148 C138 1.240 . S
O149 La120 2.482 . S
O149 La121 2.757 . S
O149 C138 1.289 . S
O150 La121 2.470 . S
O150 C139 1.258 . S
O151 La120 2.503 . S
O151 C139 1.256 . S
H152 C124 0.930 . S
H153 C125 0.930 . S
H154 C127 0.929 . S
H155 C128 0.929 . S
H156 C133 0.930 1_556 S
H157 C134 0.930 . S
H158 C136 0.929 . S
H159 C137 0.929 . S
La160 C162 2.928 . S
La160 O180 2.521 . S
La160 O181 2.628 . S
La160 O182 2.554 . S
La160 O183 2.757 . S
La160 O184 2.470 . S
La160 O189 2.482 . S
La160 O191 2.503 . S
La161 C171 2.928 . S
La161 O183 2.482 . S
La161 O185 2.503 . S
La161 O186 2.521 . S
La161 O187 2.628 . S
La161 O188 2.554 . S
La161 O189 2.757 . S
La161 O190 2.470 . S
C162 La160 2.928 . S
C162 C163 1.503 . S
C162 O180 1.261 . S
C162 O181 1.243 . S
C163 C162 1.503 . S
C163 C164 1.394 . S
C163 C168 1.373 . S
C164 C163 1.394 . S
C164 C165 1.380 . S
C164 H192 0.930 . S
C165 C164 1.380 . S
C165 C166 1.376 . S
C165 H193 0.930 . S
C166 C165 1.376 . S
C166 C167 1.370 . S
C167 C166 1.370 . S
C167 C168 1.396 . S
C167 H194 0.929 . S
C168 C163 1.373 . S
C168 C167 1.396 . S
C168 H195 0.929 . S
C169 O182 1.240 . S
C169 O183 1.289 . S
C170 O184 1.258 . S
C170 O185 1.256 . S
C171 La161 2.928 . S
C171 C172 1.503 . S
C171 O186 1.261 . S
C171 O187 1.243 . S
C172 C171 1.503 . S
C172 C173 1.394 . S
C172 C177 1.373 . S
C173 C172 1.394 . S
C173 C174 1.380 . S
C173 H196 0.930 . S
C174 C173 1.380 . S
C174 C175 1.376 . S
C174 H197 0.930 . S
C175 C174 1.376 . S
C175 C176 1.370 . S
C176 C175 1.370 . S
C176 C177 1.396 . S
C176 H198 0.929 . S
C177 C172 1.373 . S
C177 C176 1.396 . S
C177 H199 0.929 . S
C178 O188 1.240 . S
C178 O189 1.289 . S
C179 O190 1.258 . S
C179 O191 1.256 . S
O180 La160 2.521 . S
O180 C162 1.261 . S
O181 La160 2.628 . S
O181 C162 1.243 . S
O182 La160 2.554 . S
O182 C169 1.240 . S
O183 La160 2.757 . S
O183 La161 2.482 . S
O183 C169 1.289 . S
O184 La160 2.470 . S
O184 C170 1.258 . S
O185 La161 2.503 . S
O185 C170 1.256 . S
O186 La161 2.521 . S
O186 C171 1.261 . S
O187 La161 2.628 . S
O187 C171 1.243 . S
O188 La161 2.554 . S
O188 C178 1.240 . S
O189 La160 2.482 . S
O189 La161 2.757 . S
O189 C178 1.289 . S
O190 La161 2.470 . S
O190 C179 1.258 . S
O191 La160 2.503 . S
O191 C179 1.256 . S
H192 C164 0.930 . S
H193 C165 0.930 . S
H194 C167 0.929 . S
H195 C168 0.929 . S
H196 C173 0.930 . S
H197 C174 0.930 . S
H198 C176 0.929 . S
H199 C177 0.929 . S
La200 C202 2.928 . S
La200 O220 2.521 . S
La200 O221 2.628 . S
La200 O222 2.554 . S
La200 O223 2.757 . S
La200 O224 2.470 . S
La200 O229 2.482 . S
La200 O231 2.503 . S
La201 C211 2.928 . S
La201 O223 2.482 . S
La201 O225 2.503 . S
La201 O226 2.521 . S
La201 O227 2.628 . S
La201 O228 2.554 . S
La201 O229 2.757 . S
La201 O230 2.470 . S
C202 La200 2.928 . S
C202 C203 1.503 . S
C202 O220 1.261 . S
C202 O221 1.243 . S
C203 C202 1.503 . S
C203 C204 1.394 . S
C203 C208 1.373 1_556 S
C204 C203 1.394 . S
C204 C205 1.380 1_556 S
C204 H232 0.930 . S
C205 C204 1.380 1_554 S
C205 C206 1.376 . S
C205 H233 0.930 . S
C206 C205 1.376 . S
C206 C207 1.370 . S
C207 C206 1.370 . S
C207 C208 1.396 . S
C207 H234 0.929 . S
C208 C203 1.373 1_554 S
C208 C207 1.396 . S
C208 H235 0.929 1_554 S
C209 O222 1.240 . S
C209 O223 1.289 . S
C210 O224 1.258 . S
C210 O225 1.256 . S
C211 La201 2.928 . S
C211 C212 1.503 . S
C211 O226 1.261 . S
C211 O227 1.243 . S
C212 C211 1.503 . S
C212 C213 1.394 . S
C212 C217 1.373 . S
C213 C212 1.394 . S
C213 C214 1.380 . S
C213 H236 0.930 . S
C214 C213 1.380 . S
C214 C215 1.376 . S
C214 H237 0.930 . S
C215 C214 1.376 . S
C215 C216 1.370 . S
C216 C215 1.370 . S
C216 C217 1.396 . S
C216 H238 0.929 . S
C217 C212 1.373 . S
C217 C216 1.396 . S
C217 H239 0.929 . S
C218 O228 1.240 . S
C218 O229 1.289 . S
C219 O230 1.258 . S
C219 O231 1.256 . S
O220 La200 2.521 . S
O220 C202 1.261 . S
O221 La200 2.628 . S
O221 C202 1.243 . S
O222 La200 2.554 . S
O222 C209 1.240 . S
O223 La200 2.757 . S
O223 La201 2.482 . S
O223 C209 1.289 . S
O224 La200 2.470 . S
O224 C210 1.258 . S
O225 La201 2.503 . S
O225 C210 1.256 . S
O226 La201 2.521 . S
O226 C211 1.261 . S
O227 La201 2.628 . S
O227 C211 1.243 . S
O228 La201 2.554 . S
O228 C218 1.240 . S
O229 La200 2.482 . S
O229 La201 2.757 . S
O229 C218 1.289 . S
O230 La201 2.470 . S
O230 C219 1.258 . S
O231 La200 2.503 . S
O231 C219 1.256 . S
H232 C204 0.930 . S
H233 C205 0.930 . S
H234 C207 0.929 . S
H235 C208 0.929 1_556 S
H236 C213 0.930 . S
H237 C214 0.930 . S
H238 C216 0.929 . S
H239 C217 0.929 . S
La240 C242 2.928 . S
La240 O260 2.521 . S
La240 O261 2.628 . S
La240 O262 2.554 . S
La240 O263 2.757 . S
La240 O264 2.470 . S
La240 O269 2.482 . S
La240 O271 2.503 1_554 S
La241 C251 2.928 1_554 S
La241 O263 2.482 . S
La241 O265 2.503 . S
La241 O266 2.521 1_554 S
La241 O267 2.628 1_554 S
La241 O268 2.554 . S
La241 O269 2.757 . S
La241 O270 2.470 1_554 S
C242 La240 2.928 . S
C242 C243 1.503 . S
C242 O260 1.261 . S
C242 O261 1.243 . S
C243 C242 1.503 . S
C243 C244 1.394 . S
C243 C248 1.373 . S
C244 C243 1.394 . S
C244 C245 1.380 . S
C244 H272 0.930 . S
C245 C244 1.380 . S
C245 C246 1.376 . S
C245 H273 0.930 . S
C246 C245 1.376 . S
C246 C247 1.370 . S
C247 C246 1.370 . S
C247 C248 1.396 . S
C247 H274 0.929 . S
C248 C243 1.373 . S
C248 C247 1.396 . S
C248 H275 0.929 . S
C249 O262 1.240 . S
C249 O263 1.289 . S
C250 O264 1.258 . S
C250 O265 1.256 . S
C251 La241 2.928 1_556 S
C251 C252 1.503 . S
C251 O266 1.261 . S
C251 O267 1.243 . S
C252 C251 1.503 . S
C252 C253 1.394 . S
C252 C257 1.373 . S
C253 C252 1.394 . S
C253 C254 1.380 . S
C253 H276 0.930 . S
C254 C253 1.380 . S
C254 C255 1.376 . S
C254 H277 0.930 . S
C255 C254 1.376 . S
C255 C256 1.370 . S
C256 C255 1.370 . S
C256 C257 1.396 . S
C256 H278 0.929 . S
C257 C252 1.373 . S
C257 C256 1.396 . S
C257 H279 0.929 . S
C258 O268 1.240 . S
C258 O269 1.289 . S
C259 O270 1.258 . S
C259 O271 1.256 . S
O260 La240 2.521 . S
O260 C242 1.261 . S
O261 La240 2.628 . S
O261 C242 1.243 . S
O262 La240 2.554 . S
O262 C249 1.240 . S
O263 La240 2.757 . S
O263 La241 2.482 . S
O263 C249 1.289 . S
O264 La240 2.470 . S
O264 C250 1.258 . S
O265 La241 2.503 . S
O265 C250 1.256 . S
O266 La241 2.521 1_556 S
O266 C251 1.261 . S
O267 La241 2.628 1_556 S
O267 C251 1.243 . S
O268 La241 2.554 . S
O268 C258 1.240 . S
O269 La240 2.482 . S
O269 La241 2.757 . S
O269 C258 1.289 . S
O270 La241 2.470 1_556 S
O270 C259 1.258 . S
O271 La240 2.503 1_556 S
O271 C259 1.256 . S
H272 C244 0.930 . S
H273 C245 0.930 . S
H274 C247 0.929 . S
H275 C248 0.929 . S
H276 C253 0.930 . S
H277 C254 0.930 . S
H278 C256 0.929 . S
H279 C257 0.929 . S
La280 C282 2.928 . S
La280 O300 2.521 . S
La280 O301 2.628 . S
La280 O302 2.554 . S
La280 O303 2.757 . S
La280 O304 2.470 . S
La280 O309 2.482 . S
La280 O311 2.503 . S
La281 C291 2.928 . S
La281 O303 2.482 . S
La281 O305 2.503 . S
La281 O306 2.521 . S
La281 O307 2.628 . S
La281 O308 2.554 . S
La281 O309 2.757 . S
La281 O310 2.470 . S
C282 La280 2.928 . S
C282 C283 1.503 . S
C282 O300 1.261 . S
C282 O301 1.243 . S
C283 C282 1.503 . S
C283 C284 1.394 . S
C283 C288 1.373 . S
C284 C283 1.394 . S
C284 C285 1.380 . S
C284 H312 0.930 . S
C285 C284 1.380 . S
C285 C286 1.376 . S
C285 H313 0.930 . S
C286 C285 1.376 . S
C286 C287 1.370 . S
C287 C286 1.370 . S
C287 C288 1.396 . S
C287 H314 0.929 . S
C288 C283 1.373 . S
C288 C287 1.396 . S
C288 H315 0.929 . S
C289 O302 1.240 . S
C289 O303 1.289 . S
C290 O304 1.258 . S
C290 O305 1.256 . S
C291 La281 2.928 . S
C291 C292 1.503 . S
C291 O306 1.261 . S
C291 O307 1.243 . S
C292 C291 1.503 . S
C292 C293 1.394 . S
C292 C297 1.373 . S
C293 C292 1.394 . S
C293 C294 1.380 . S
C293 H316 0.930 . S
C294 C293 1.380 . S
C294 C295 1.376 . S
C294 H317 0.930 . S
C295 C294 1.376 . S
C295 C296 1.370 . S
C296 C295 1.370 . S
C296 C297 1.396 . S
C296 H318 0.929 . S
C297 C292 1.373 . S
C297 C296 1.396 . S
C297 H319 0.929 . S
C298 O308 1.240 . S
C298 O309 1.289 . S
C299 O310 1.258 . S
C299 O311 1.256 . S
O300 La280 2.521 . S
O300 C282 1.261 . S
O301 La280 2.628 . S
O301 C282 1.243 . S
O302 La280 2.554 . S
O302 C289 1.240 . S
O303 La280 2.757 . S
O303 La281 2.482 . S
O303 C289 1.289 . S
O304 La280 2.470 . S
O304 C290 1.258 . S
O305 La281 2.503 . S
O305 C290 1.256 . S
O306 La281 2.521 . S
O306 C291 1.261 . S
O307 La281 2.628 . S
O307 C291 1.243 . S
O308 La281 2.554 . S
O308 C298 1.240 . S
O309 La280 2.482 . S
O309 La281 2.757 . S
O309 C298 1.289 . S
O310 La281 2.470 . S
O310 C299 1.258 . S
O311 La280 2.503 . S
O311 C299 1.256 . S
H312 C284 0.930 . S
H313 C285 0.930 . S
H314 C287 0.929 . S
H315 C288 0.929 . S
H316 C293 0.930 . S
H317 C294 0.930 . S
H318 C296 0.929 . S
H319 C297 0.929 . S
La320 C322 2.928 . S
La320 O340 2.521 . S
La320 O341 2.628 . S
La320 O342 2.554 . S
La320 O343 2.757 . S
La320 O344 2.470 . S
La320 O349 2.482 . S
La320 O351 2.503 . S
La321 C331 2.928 . S
La321 O343 2.482 . S
La321 O345 2.503 . S
La321 O346 2.521 . S
La321 O347 2.628 . S
La321 O348 2.554 . S
La321 O349 2.757 . S
La321 O350 2.470 . S
C322 La320 2.928 . S
C322 C323 1.503 . S
C322 O340 1.261 . S
C322 O341 1.243 . S
C323 C322 1.503 . S
C323 C324 1.394 . S
C323 C328 1.373 . S
C324 C323 1.394 . S
C324 C325 1.380 . S
C324 H352 0.930 . S
C325 C324 1.380 . S
C325 C326 1.376 . S
C325 H353 0.930 . S
C326 C325 1.376 . S
C326 C327 1.370 . S
C327 C326 1.370 . S
C327 C328 1.396 . S
C327 H354 0.929 . S
C328 C323 1.373 . S
C328 C327 1.396 . S
C328 H355 0.929 . S
C329 O342 1.240 . S
C329 O343 1.289 . S
C330 O344 1.258 . S
C330 O345 1.256 . S
C331 La321 2.928 . S
C331 C332 1.503 . S
C331 O346 1.261 . S
C331 O347 1.243 . S
C332 C331 1.503 . S
C332 C333 1.394 1_655 S
C332 C337 1.373 . S
C333 C332 1.394 1_455 S
C333 C334 1.380 1_554 S
C333 H356 0.930 . S
C334 C333 1.380 1_556 S
C334 C335 1.376 1_455 S
C334 H357 0.930 . S
C335 C334 1.376 1_655 S
C335 C336 1.370 . S
C336 C335 1.370 . S
C336 C337 1.396 1_556 S
C336 H358 0.929 . S
C337 C332 1.373 . S
C337 C336 1.396 1_554 S
C337 H359 0.929 . S
C338 O348 1.240 . S
C338 O349 1.289 . S
C339 O350 1.258 . S
C339 O351 1.256 . S
O340 La320 2.521 . S
O340 C322 1.261 . S
O341 La320 2.628 . S
O341 C322 1.243 . S
O342 La320 2.554 . S
O342 C329 1.240 . S
O343 La320 2.757 . S
O343 La321 2.482 . S
O343 C329 1.289 . S
O344 La320 2.470 . S
O344 C330 1.258 . S
O345 La321 2.503 . S
O345 C330 1.256 . S
O346 La321 2.521 . S
O346 C331 1.261 . S
O347 La321 2.628 . S
O347 C331 1.243 . S
O348 La321 2.554 . S
O348 C338 1.240 . S
O349 La320 2.482 . S
O349 La321 2.757 . S
O349 C338 1.289 . S
O350 La321 2.470 . S
O350 C339 1.258 . S
O351 La320 2.503 . S
O351 C339 1.256 . S
H352 C324 0.930 . S
H353 C325 0.930 . S
H354 C327 0.929 . S
H355 C328 0.929 . S
H356 C333 0.930 . S
H357 C334 0.930 . S
H358 C336 0.929 . S
H359 C337 0.929 . S
La360 C362 2.928 1_556 S
La360 O380 2.521 1_556 S
La360 O381 2.628 1_556 S
La360 O382 2.554 . S
La360 O383 2.757 . S
La360 O384 2.470 1_556 S
La360 O389 2.482 . S
La360 O391 2.503 . S
La361 C371 2.928 . S
La361 O383 2.482 . S
La361 O385 2.503 1_556 S
La361 O386 2.521 . S
La361 O387 2.628 . S
La361 O388 2.554 . S
La361 O389 2.757 . S
La361 O390 2.470 . S
C362 La360 2.928 1_554 S
C362 C363 1.503 . S
C362 O380 1.261 . S
C362 O381 1.243 . S
C363 C362 1.503 . S
C363 C364 1.394 . S
C363 C368 1.373 . S
C364 C363 1.394 . S
C364 C365 1.380 . S
C364 H392 0.930 . S
C365 C364 1.380 . S
C365 C366 1.376 . S
C365 H393 0.930 . S
C366 C365 1.376 . S
C366 C367 1.370 . S
C367 C366 1.370 . S
C367 C368 1.396 . S
C367 H394 0.929 . S
C368 C363 1.373 . S
C368 C367 1.396 . S
C368 H395 0.929 . S
C369 O382 1.240 . S
C369 O383 1.289 . S
C370 O384 1.258 . S
C370 O385 1.256 . S
C371 La361 2.928 . S
C371 C372 1.503 . S
C371 O386 1.261 . S
C371 O387 1.243 . S
C372 C371 1.503 . S
C372 C373 1.394 . S
C372 C377 1.373 . S
C373 C372 1.394 . S
C373 C374 1.380 . S
C373 H396 0.930 . S
C374 C373 1.380 . S
C374 C375 1.376 . S
C374 H397 0.930 . S
C375 C374 1.376 . S
C375 C376 1.370 . S
C376 C375 1.370 . S
C376 C377 1.396 . S
C376 H398 0.929 . S
C377 C372 1.373 . S
C377 C376 1.396 . S
C377 H399 0.929 . S
C378 O388 1.240 . S
C378 O389 1.289 . S
C379 O390 1.258 . S
C379 O391 1.256 . S
O380 La360 2.521 1_554 S
O380 C362 1.261 . S
O381 La360 2.628 1_554 S
O381 C362 1.243 . S
O382 La360 2.554 . S
O382 C369 1.240 . S
O383 La360 2.757 . S
O383 La361 2.482 . S
O383 C369 1.289 . S
O384 La360 2.470 1_554 S
O384 C370 1.258 . S
O385 La361 2.503 1_554 S
O385 C370 1.256 . S
O386 La361 2.521 . S
O386 C371 1.261 . S
O387 La361 2.628 . S
O387 C371 1.243 . S
O388 La361 2.554 . S
O388 C378 1.240 . S
O389 La360 2.482 . S
O389 La361 2.757 . S
O389 C378 1.289 . S
O390 La361 2.470 . S
O390 C379 1.258 . S
O391 La360 2.503 . S
O391 C379 1.256 . S
H392 C364 0.930 . S
H393 C365 0.930 . S
H394 C367 0.929 . S
H395 C368 0.929 . S
H396 C373 0.930 . S
H397 C374 0.930 . S
H398 C376 0.929 . S
H399 C377 0.929 . S
La400 C402 2.928 . S
La400 O420 2.521 . S
La400 O421 2.628 . S
La400 O422 2.554 . S
La400 O423 2.757 . S
La400 O424 2.470 . S
La400 O429 2.482 . S
La400 O431 2.503 . S
La401 C411 2.928 . S
La401 O423 2.482 . S
La401 O425 2.503 . S
La401 O426 2.521 . S
La401 O427 2.628 . S
La401 O428 2.554 . S
La401 O429 2.757 . S
La401 O430 2.470 . S
C402 La400 2.928 . S
C402 C403 1.503 . S
C402 O420 1.261 . S
C402 O421 1.243 . S
C403 C402 1.503 . S
C403 C404 1.394 . S
C403 C408 1.373 . S
C404 C403 1.394 . S
C404 C405 1.380 . S
C404 H432 0.930 . S
C405 C404 1.380 . S
C405 C406 1.376 . S
C405 H433 0.930 . S
C406 C405 1.376 . S
C406 C407 1.370 . S
C407 C406 1.370 . S
C407 C408 1.396 . S
C407 H434 0.929 . S
C408 C403 1.373 . S
C408 C407 1.396 . S
C408 H435 0.929 . S
C409 O422 1.240 . S
C409 O423 1.289 . S
C410 O424 1.258 . S
C410 O425 1.256 . S
C411 La401 2.928 . S
C411 C412 1.503 . S
C411 O426 1.261 . S
C411 O427 1.243 . S
C412 C411 1.503 . S
C412 C413 1.394 . S
C412 C417 1.373 . S
C413 C412 1.394 . S
C413 C414 1.380 . S
C413 H436 0.930 . S
C414 C413 1.380 . S
C414 C415 1.376 . S
C414 H437 0.930 . S
C415 C414 1.376 . S
C415 C416 1.370 . S
C416 C415 1.370 . S
C416 C417 1.396 . S
C416 H438 0.929 . S
C417 C412 1.373 . S
C417 C416 1.396 . S
C417 H439 0.929 . S
C418 O428 1.240 . S
C418 O429 1.289 . S
C419 O430 1.258 . S
C419 O431 1.256 . S
O420 La400 2.521 . S
O420 C402 1.261 . S
O421 La400 2.628 . S
O421 C402 1.243 . S
O422 La400 2.554 . S
O422 C409 1.240 . S
O423 La400 2.757 . S
O423 La401 2.482 . S
O423 C409 1.289 . S
O424 La400 2.470 . S
O424 C410 1.258 . S
O425 La401 2.503 . S
O425 C410 1.256 . S
O426 La401 2.521 . S
O426 C411 1.261 . S
O427 La401 2.628 . S
O427 C411 1.243 . S
O428 La401 2.554 . S
O428 C418 1.240 . S
O429 La400 2.482 . S
O429 La401 2.757 . S
O429 C418 1.289 . S
O430 La401 2.470 . S
O430 C419 1.258 . S
O431 La400 2.503 . S
O431 C419 1.256 . S
H432 C404 0.930 . S
H433 C405 0.930 . S
H434 C407 0.929 . S
H435 C408 0.929 . S
H436 C413 0.930 . S
H437 C414 0.930 . S
H438 C416 0.929 . S
H439 C417 0.929 . S
La440 C442 2.928 . S
La440 O460 2.521 . S
La440 O461 2.628 . S
La440 O462 2.554 . S
La440 O463 2.757 . S
La440 O464 2.470 . S
La440 O469 2.482 . S
La440 O471 2.503 . S
La441 C451 2.928 . S
La441 O463 2.482 . S
La441 O465 2.503 . S
La441 O466 2.521 . S
La441 O467 2.628 . S
La441 O468 2.554 . S
La441 O469 2.757 . S
La441 O470 2.470 . S
C442 La440 2.928 . S
C442 C443 1.503 . S
C442 O460 1.261 . S
C442 O461 1.243 . S
C443 C442 1.503 . S
C443 C444 1.394 . S
C443 C448 1.373 . S
C444 C443 1.394 . S
C444 C445 1.380 . S
C444 H472 0.930 . S
C445 C444 1.380 . S
C445 C446 1.376 . S
C445 H473 0.930 . S
C446 C445 1.376 . S
C446 C447 1.370 . S
C447 C446 1.370 . S
C447 C448 1.396 . S
C447 H474 0.929 . S
C448 C443 1.373 . S
C448 C447 1.396 . S
C448 H475 0.929 . S
C449 O462 1.240 . S
C449 O463 1.289 . S
C450 O464 1.258 . S
C450 O465 1.256 . S
C451 La441 2.928 . S
C451 C452 1.503 . S
C451 O466 1.261 . S
C451 O467 1.243 . S
C452 C451 1.503 . S
C452 C453 1.394 . S
C452 C457 1.373 . S
C453 C452 1.394 . S
C453 C454 1.380 . S
C453 H476 0.930 . S
C454 C453 1.380 . S
C454 C455 1.376 . S
C454 H477 0.930 . S
C455 C454 1.376 . S
C455 C456 1.370 . S
C456 C455 1.370 . S
C456 C457 1.396 . S
C456 H478 0.929 . S
C457 C452 1.373 . S
C457 C456 1.396 . S
C457 H479 0.929 . S
C458 O468 1.240 . S
C458 O469 1.289 . S
C459 O470 1.258 . S
C459 O471 1.256 . S
O460 La440 2.521 . S
O460 C442 1.261 . S
O461 La440 2.628 . S
O461 C442 1.243 . S
O462 La440 2.554 . S
O462 C449 1.240 . S
O463 La440 2.757 . S
O463 La441 2.482 . S
O463 C449 1.289 . S
O464 La440 2.470 . S
O464 C450 1.258 . S
O465 La441 2.503 . S
O465 C450 1.256 . S
O466 La441 2.521 . S
O466 C451 1.261 . S
O467 La441 2.628 . S
O467 C451 1.243 . S
O468 La441 2.554 . S
O468 C458 1.240 . S
O469 La440 2.482 . S
O469 La441 2.757 . S
O469 C458 1.289 . S
O470 La441 2.470 . S
O470 C459 1.258 . S
O471 La440 2.503 . S
O471 C459 1.256 . S
H472 C444 0.930 . S
H473 C445 0.930 . S
H474 C447 0.929 . S
H475 C448 0.929 . S
H476 C453 0.930 . S
H477 C454 0.930 . S
H478 C456 0.929 . S
H479 C457 0.929 . S
La480 C482 2.928 . S
La480 O500 2.521 . S
La480 O501 2.628 . S
La480 O502 2.554 . S
La480 O503 2.757 . S
La480 O504 2.470 . S
La480 O509 2.482 . S
La480 O511 2.503 . S
La481 C491 2.928 . S
La481 O503 2.482 . S
La481 O505 2.503 . S
La481 O506 2.521 . S
La481 O507 2.628 . S
La481 O508 2.554 . S
La481 O509 2.757 . S
La481 O510 2.470 . S
C482 La480 2.928 . S
C482 C483 1.503 . S
C482 O500 1.261 . S
C482 O501 1.243 . S
C483 C482 1.503 . S
C483 C484 1.394 . S
C483 C488 1.373 . S
C484 C483 1.394 . S
C484 C485 1.380 . S
C484 H512 0.930 . S
C485 C484 1.380 . S
C485 C486 1.376 1_556 S
C485 H513 0.930 1_556 S
C486 C485 1.376 1_554 S
C486 C487 1.370 . S
C487 C486 1.370 . S
C487 C488 1.396 1_554 S
C487 H514 0.929 . S
C488 C483 1.373 . S
C488 C487 1.396 1_556 S
C488 H515 0.929 . S
C489 O502 1.240 . S
C489 O503 1.289 . S
C490 O504 1.258 . S
C490 O505 1.256 . S
C491 La481 2.928 . S
C491 C492 1.503 . S
C491 O506 1.261 . S
C491 O507 1.243 . S
C492 C491 1.503 . S
C492 C493 1.394 . S
C492 C497 1.373 . S
C493 C492 1.394 . S
C493 C494 1.380 . S
C493 H516 0.930 . S
C494 C493 1.380 . S
C494 C495 1.376 . S
C494 H517 0.930 . S
C495 C494 1.376 . S
C495 C496 1.370 . S
C496 C495 1.370 . S
C496 C497 1.396 . S
C496 H518 0.929 . S
C497 C492 1.373 . S
C497 C496 1.396 . S
C497 H519 0.929 . S
C498 O508 1.240 . S
C498 O509 1.289 . S
C499 O510 1.258 . S
C499 O511 1.256 . S
O500 La480 2.521 . S
O500 C482 1.261 . S
O501 La480 2.628 . S
O501 C482 1.243 . S
O502 La480 2.554 . S
O502 C489 1.240 . S
O503 La480 2.757 . S
O503 La481 2.482 . S
O503 C489 1.289 . S
O504 La480 2.470 . S
O504 C490 1.258 . S
O505 La481 2.503 . S
O505 C490 1.256 . S
O506 La481 2.521 . S
O506 C491 1.261 . S
O507 La481 2.628 . S
O507 C491 1.243 . S
O508 La481 2.554 . S
O508 C498 1.240 . S
O509 La480 2.482 . S
O509 La481 2.757 . S
O509 C498 1.289 . S
O510 La481 2.470 . S
O510 C499 1.258 . S
O511 La480 2.503 . S
O511 C499 1.256 . S
H512 C484 0.930 . S
H513 C485 0.930 1_554 S
H514 C487 0.929 . S
H515 C488 0.929 . S
H516 C493 0.930 . S
H517 C494 0.930 . S
H518 C496 0.929 . S
H519 C497 0.929 . S
La520 C522 2.928 . S
La520 O540 2.521 . S
La520 O541 2.628 . S
La520 O542 2.554 . S
La520 O543 2.757 . S
La520 O544 2.470 . S
La520 O549 2.482 . S
La520 O551 2.503 . S
La521 C531 2.928 . S
La521 O543 2.482 . S
La521 O545 2.503 . S
La521 O546 2.521 . S
La521 O547 2.628 . S
La521 O548 2.554 . S
La521 O549 2.757 . S
La521 O550 2.470 . S
C522 La520 2.928 . S
C522 C523 1.503 . S
C522 O540 1.261 . S
C522 O541 1.243 . S
C523 C522 1.503 . S
C523 C524 1.394 . S
C523 C528 1.373 . S
C524 C523 1.394 . S
C524 C525 1.380 . S
C524 H552 0.930 . S
C525 C524 1.380 . S
C525 C526 1.376 . S
C525 H553 0.930 . S
C526 C525 1.376 . S
C526 C527 1.370 . S
C527 C526 1.370 . S
C527 C528 1.396 . S
C527 H554 0.929 . S
C528 C523 1.373 . S
C528 C527 1.396 . S
C528 H555 0.929 . S
C529 O542 1.240 . S
C529 O543 1.289 . S
C530 O544 1.258 . S
C530 O545 1.256 . S
C531 La521 2.928 . S
C531 C532 1.503 . S
C531 O546 1.261 . S
C531 O547 1.243 . S
C532 C531 1.503 . S
C532 C533 1.394 . S
C532 C537 1.373 . S
C533 C532 1.394 . S
C533 C534 1.380 . S
C533 H556 0.930 . S
C534 C533 1.380 . S
C534 C535 1.376 . S
C534 H557 0.930 . S
C535 C534 1.376 . S
C535 C536 1.370 . S
C536 C535 1.370 . S
C536 C537 1.396 . S
C536 H558 0.929 . S
C537 C532 1.373 . S
C537 C536 1.396 . S
C537 H559 0.929 . S
C538 O548 1.240 . S
C538 O549 1.289 . S
C539 O550 1.258 . S
C539 O551 1.256 . S
O540 La520 2.521 . S
O540 C522 1.261 . S
O541 La520 2.628 . S
O541 C522 1.243 . S
O542 La520 2.554 . S
O542 C529 1.240 . S
O543 La520 2.757 . S
O543 La521 2.482 . S
O543 C529 1.289 . S
O544 La520 2.470 . S
O544 C530 1.258 . S
O545 La521 2.503 . S
O545 C530 1.256 . S
O546 La521 2.521 . S
O546 C531 1.261 . S
O547 La521 2.628 . S
O547 C531 1.243 . S
O548 La521 2.554 . S
O548 C538 1.240 . S
O549 La520 2.482 . S
O549 La521 2.757 . S
O549 C538 1.289 . S
O550 La521 2.470 . S
O550 C539 1.258 . S
O551 La520 2.503 . S
O551 C539 1.256 . S
H552 C524 0.930 . S
H553 C525 0.930 . S
H554 C527 0.929 . S
H555 C528 0.929 . S
H556 C533 0.930 . S
H557 C534 0.930 . S
H558 C536 0.929 . S
H559 C537 0.929 . S
La560 C562 2.928 . S
La560 O580 2.521 . S
La560 O581 2.628 . S
La560 O582 2.554 . S
La560 O583 2.757 . S
La560 O584 2.470 . S
La560 O589 2.482 . S
La560 O591 2.503 . S
La561 C571 2.928 . S
La561 O583 2.482 . S
La561 O585 2.503 . S
La561 O586 2.521 . S
La561 O587 2.628 . S
La561 O588 2.554 . S
La561 O589 2.757 . S
La561 O590 2.470 . S
C562 La560 2.928 . S
C562 C563 1.503 . S
C562 O580 1.261 . S
C562 O581 1.243 . S
C563 C562 1.503 . S
C563 C564 1.394 . S
C563 C568 1.373 . S
C564 C563 1.394 . S
C564 C565 1.380 . S
C564 H592 0.930 . S
C565 C564 1.380 . S
C565 C566 1.376 . S
C565 H593 0.930 . S
C566 C565 1.376 . S
C566 C567 1.370 . S
C567 C566 1.370 . S
C567 C568 1.396 . S
C567 H594 0.929 . S
C568 C563 1.373 . S
C568 C567 1.396 . S
C568 H595 0.929 . S
C569 O582 1.240 . S
C569 O583 1.289 . S
C570 O584 1.258 . S
C570 O585 1.256 . S
C571 La561 2.928 . S
C571 C572 1.503 . S
C571 O586 1.261 . S
C571 O587 1.243 . S
C572 C571 1.503 . S
C572 C573 1.394 . S
C572 C577 1.373 . S
C573 C572 1.394 . S
C573 C574 1.380 . S
C573 H596 0.930 . S
C574 C573 1.380 . S
C574 C575 1.376 . S
C574 H597 0.930 . S
C575 C574 1.376 . S
C575 C576 1.370 . S
C576 C575 1.370 . S
C576 C577 1.396 . S
C576 H598 0.929 1_554 S
C577 C572 1.373 . S
C577 C576 1.396 . S
C577 H599 0.929 . S
C578 O588 1.240 . S
C578 O589 1.289 . S
C579 O590 1.258 . S
C579 O591 1.256 . S
O580 La560 2.521 . S
O580 C562 1.261 . S
O581 La560 2.628 . S
O581 C562 1.243 . S
O582 La560 2.554 . S
O582 C569 1.240 . S
O583 La560 2.757 . S
O583 La561 2.482 . S
O583 C569 1.289 . S
O584 La560 2.470 . S
O584 C570 1.258 . S
O585 La561 2.503 . S
O585 C570 1.256 . S
O586 La561 2.521 . S
O586 C571 1.261 . S
O587 La561 2.628 . S
O587 C571 1.243 . S
O588 La561 2.554 . S
O588 C578 1.240 . S
O589 La560 2.482 . S
O589 La561 2.757 . S
O589 C578 1.289 . S
O590 La561 2.470 . S
O590 C579 1.258 . S
O591 La560 2.503 . S
O591 C579 1.256 . S
H592 C564 0.930 . S
H593 C565 0.930 . S
H594 C567 0.929 . S
H595 C568 0.929 . S
H596 C573 0.930 . S
H597 C574 0.930 . S
H598 C576 0.929 1_556 S
H599 C577 0.929 . S
La600 C602 2.918 1_556 S
La600 O620 2.521 . S
La600 O621 2.628 . S
La600 O622 2.554 . S
La600 O623 2.757 . S
La600 O624 2.470 . S
La600 O629 2.482 . S
La600 O631 2.503 . S
La601 C611 2.928 . S
La601 O623 2.482 . S
La601 O625 2.503 . S
La601 O626 2.521 . S
La601 O627 2.628 . S
La601 O628 2.554 . S
La601 O629 2.757 . S
La601 O630 2.470 . S
C602 La600 2.918 1_554 S
C602 C603 1.514 . S
C602 O620 1.255 1_554 S
C602 O621 1.239 1_554 S
C603 C602 1.514 . S
C603 C604 1.394 . S
C603 C608 1.373 . S
C604 C603 1.394 . S
C604 C605 1.380 . S
C604 H632 0.930 . S
C605 C604 1.380 . S
C605 C606 1.376 . S
C605 H633 0.930 . S
C606 C605 1.376 . S
C606 C607 1.370 . S
C607 C606 1.370 . S
C607 C608 1.396 . S
C607 H634 0.929 . S
C608 C603 1.373 . S
C608 C607 1.396 . S
C608 H635 0.929 . S
C609 O622 1.240 . S
C609 O623 1.289 . S
C610 O624 1.258 . S
C610 O625 1.256 . S
C611 La601 2.928 . S
C611 C612 1.503 . S
C611 O626 1.261 . S
C611 O627 1.243 . S
C612 C611 1.503 . S
C612 C613 1.394 . S
C612 C617 1.373 . S
C613 C612 1.394 . S
C613 C614 1.380 . S
C613 H636 0.930 . S
C614 C613 1.380 . S
C614 C615 1.376 . S
C614 H637 0.930 . S
C615 C614 1.376 . S
C615 C616 1.370 . S
C616 C615 1.370 . S
C616 C617 1.396 . S
C616 H638 0.929 . S
C617 C612 1.373 . S
C617 C616 1.396 . S
C617 H639 0.929 . S
C618 O628 1.240 . S
C618 O629 1.289 . S
C619 O630 1.258 . S
C619 O631 1.256 . S
O620 La600 2.521 . S
O620 C602 1.255 1_556 S
O621 La600 2.628 . S
O621 C602 1.239 1_556 S
O622 La600 2.554 . S
O622 C609 1.240 . S
O623 La600 2.757 . S
O623 La601 2.482 . S
O623 C609 1.289 . S
O624 La600 2.470 . S
O624 C610 1.258 . S
O625 La601 2.503 . S
O625 C610 1.256 . S
O626 La601 2.521 . S
O626 C611 1.261 . S
O627 La601 2.628 . S
O627 C611 1.243 . S
O628 La601 2.554 . S
O628 C618 1.240 . S
O629 La600 2.482 . S
O629 La601 2.757 . S
O629 C618 1.289 . S
O630 La601 2.470 . S
O630 C619 1.258 . S
O631 La600 2.503 . S
O631 C619 1.256 . S
H632 C604 0.930 . S
H633 C605 0.930 . S
H634 C607 0.929 . S
H635 C608 0.929 . S
H636 C613 0.930 . S
H637 C614 0.930 . S
H638 C616 0.929 . S
H639 C617 0.929 . S
La640 C642 2.928 . S
La640 O660 2.521 . S
La640 O661 2.628 . S
La640 O662 2.554 . S
La640 O663 2.757 . S
La640 O664 2.470 . S
La640 O669 2.482 . S
La640 O671 2.503 . S
La641 C651 2.928 . S
La641 O663 2.482 . S
La641 O665 2.503 . S
La641 O666 2.521 . S
La641 O667 2.628 . S
La641 O668 2.554 . S
La641 O669 2.757 . S
La641 O670 2.470 . S
C642 La640 2.928 . S
C642 C643 1.503 . S
C642 O660 1.261 . S
C642 O661 1.243 . S
C643 C642 1.503 . S
C643 C644 1.394 . S
C643 C648 1.373 . S
C644 C643 1.394 . S
C644 C645 1.380 . S
C644 H672 0.930 . S
C645 C644 1.380 . S
C645 C646 1.376 . S
C645 H673 0.930 . S
C646 C645 1.376 . S
C646 C647 1.370 . S
C647 C646 1.370 . S
C647 C648 1.396 . S
C647 H674 0.929 . S
C648 C643 1.373 . S
C648 C647 1.396 . S
C648 H675 0.929 . S
C649 O662 1.240 . S
C649 O663 1.289 . S
C650 O664 1.258 . S
C650 O665 1.256 . S
C651 La641 2.928 . S
C651 C652 1.503 . S
C651 O666 1.261 . S
C651 O667 1.243 . S
C652 C651 1.503 . S
C652 C653 1.394 . S
C652 C657 1.373 . S
C653 C652 1.394 . S
C653 C654 1.380 . S
C653 H676 0.930 . S
C654 C653 1.380 . S
C654 C655 1.376 . S
C654 H677 0.930 . S
C655 C654 1.376 . S
C655 C656 1.370 . S
C656 C655 1.370 . S
C656 C657 1.396 . S
C656 H678 0.929 . S
C657 C652 1.373 . S
C657 C656 1.396 . S
C657 H679 0.929 . S
C658 O668 1.240 . S
C658 O669 1.289 . S
C659 O670 1.258 . S
C659 O671 1.256 . S
O660 La640 2.521 . S
O660 C642 1.261 . S
O661 La640 2.628 . S
O661 C642 1.243 . S
O662 La640 2.554 . S
O662 C649 1.240 . S
O663 La640 2.757 . S
O663 La641 2.482 . S
O663 C649 1.289 . S
O664 La640 2.470 . S
O664 C650 1.258 . S
O665 La641 2.503 . S
O665 C650 1.256 . S
O666 La641 2.521 . S
O666 C651 1.261 . S
O667 La641 2.628 . S
O667 C651 1.243 . S
O668 La641 2.554 . S
O668 C658 1.240 . S
O669 La640 2.482 . S
O669 La641 2.757 . S
O669 C658 1.289 . S
O670 La641 2.470 . S
O670 C659 1.258 . S
O671 La640 2.503 . S
O671 C659 1.256 . S
H672 C644 0.930 . S
H673 C645 0.930 . S
H674 C647 0.929 . S
H675 C648 0.929 . S
H676 C653 0.930 . S
H677 C654 0.930 . S
H678 C656 0.929 . S
H679 C657 0.929 . S
La680 C682 2.928 . S
La680 O700 2.521 . S
La680 O701 2.628 . S
La680 O702 2.554 . S
La680 O703 2.757 . S
La680 O704 2.470 . S
La680 O709 2.482 . S
La680 O711 2.503 . S
La681 C691 2.928 . S
La681 O703 2.482 . S
La681 O705 2.503 . S
La681 O706 2.521 . S
La681 O707 2.628 . S
La681 O708 2.554 . S
La681 O709 2.757 . S
La681 O710 2.470 . S
C682 La680 2.928 . S
C682 C683 1.503 1_556 S
C682 O700 1.261 . S
C682 O701 1.243 . S
C683 C682 1.503 1_554 S
C683 C684 1.394 . S
C683 C688 1.373 . S
C684 C683 1.394 . S
C684 C685 1.380 . S
C684 H712 0.926 1_554 S
C685 C684 1.380 . S
C685 C686 1.376 . S
C685 H713 0.930 . S
C686 C685 1.376 . S
C686 C687 1.370 . S
C687 C686 1.370 . S
C687 C688 1.396 . S
C687 H714 0.929 . S
C688 C683 1.373 . S
C688 C687 1.396 . S
C688 H715 0.929 . S
C689 O702 1.240 . S
C689 O703 1.289 . S
C690 O704 1.258 . S
C690 O705 1.256 . S
C691 La681 2.928 . S
C691 C692 1.503 . S
C691 O706 1.261 . S
C691 O707 1.243 . S
C692 C691 1.503 . S
C692 C693 1.394 . S
C692 C697 1.373 . S
C693 C692 1.394 . S
C693 C694 1.380 . S
C693 H716 0.930 . S
C694 C693 1.380 . S
C694 C695 1.376 . S
C694 H717 0.930 . S
C695 C694 1.376 . S
C695 C696 1.370 . S
C696 C695 1.370 . S
C696 C697 1.396 . S
C696 H718 0.929 . S
C697 C692 1.373 . S
C697 C696 1.396 . S
C697 H719 0.929 . S
C698 O708 1.240 . S
C698 O709 1.289 . S
C699 O710 1.258 . S
C699 O711 1.256 . S
O700 La680 2.521 . S
O700 C682 1.261 . S
O701 La680 2.628 . S
O701 C682 1.243 . S
O702 La680 2.554 . S
O702 C689 1.240 . S
O703 La680 2.757 . S
O703 La681 2.482 . S
O703 C689 1.289 . S
O704 La680 2.470 . S
O704 C690 1.258 . S
O705 La681 2.503 . S
O705 C690 1.256 . S
O706 La681 2.521 . S
O706 C691 1.261 . S
O707 La681 2.628 . S
O707 C691 1.243 . S
O708 La681 2.554 . S
O708 C698 1.240 . S
O709 La680 2.482 . S
O709 La681 2.757 . S
O709 C698 1.289 . S
O710 La681 2.470 . S
O710 C699 1.258 . S
O711 La680 2.503 . S
O711 C699 1.256 . S
H712 C684 0.926 1_556 S
H713 C685 0.930 . S
H714 C687 0.929 . S
H715 C688 0.929 . S
H716 C693 0.930 . S
H717 C694 0.930 . S
H718 C696 0.929 . S
H719 C697 0.929 . S
La720 C722 2.928 . S
La720 O740 2.521 1_655 S
La720 O741 2.628 . S
La720 O742 2.554 1_655 S
La720 O743 2.757 . S
La720 O744 2.470 . S
La720 O749 2.482 . S
La720 O751 2.503 . S
La721 C731 2.928 1_554 S
La721 O743 2.482 . S
La721 O745 2.503 . S
La721 O746 2.521 . S
La721 O747 2.628 . S
La721 O748 2.554 . S
La721 O749 2.757 . S
La721 O750 2.470 . S
C722 La720 2.928 . S
C722 C723 1.503 1_655 S
C722 O740 1.261 1_655 S
C722 O741 1.243 . S
C723 C722 1.503 1_455 S
C723 C724 1.394 . S
C723 C728 1.373 1_455 S
C724 C723 1.394 . S
C724 C725 1.380 . S
C724 H752 0.930 . S
C725 C724 1.380 . S
C725 C726 1.376 . S
C725 H753 0.930 . S
C726 C725 1.376 . S
C726 C727 1.370 1_455 S
C727 C726 1.370 1_655 S
C727 C728 1.396 . S
C727 H754 0.929 . S
C728 C723 1.373 1_655 S
C728 C727 1.396 . S
C728 H755 0.929 . S
C729 O742 1.240 1_655 S
C729 O743 1.289 . S
C730 O744 1.258 . S
C730 O745 1.256 . S
C731 La721 2.928 1_556 S
C731 C732 1.503 . S
C731 O746 1.261 1_556 S
C731 O747 1.243 1_556 S
C732 C731 1.503 . S
C732 C733 1.394 . S
C732 C737 1.373 . S
C733 C732 1.394 . S
C733 C734 1.380 . S
C733 H756 0.930 . S
C734 C733 1.380 . S
C734 C735 1.376 . S
C734 H757 0.930 . S
C735 C734 1.376 . S
C735 C736 1.370 . S
C736 C735 1.370 . S
C736 C737 1.396 . S
C736 H758 0.929 . S
C737 C732 1.373 . S
C737 C736 1.396 . S
C737 H759 0.929 . S
C738 O748 1.240 . S
C738 O749 1.289 . S
C739 O750 1.258 . S
C739 O751 1.256 . S
O740 La720 2.521 1_455 S
O740 C722 1.261 1_455 S
O741 La720 2.628 . S
O741 C722 1.243 . S
O742 La720 2.554 1_455 S
O742 C729 1.240 1_455 S
O743 La720 2.757 . S
O743 La721 2.482 . S
O743 C729 1.289 . S
O744 La720 2.470 . S
O744 C730 1.258 . S
O745 La721 2.503 . S
O745 C730 1.256 . S
O746 La721 2.521 . S
O746 C731 1.261 1_554 S
O747 La721 2.628 . S
O747 C731 1.243 1_554 S
O748 La721 2.554 . S
O748 C738 1.240 . S
O749 La720 2.482 . S
O749 La721 2.757 . S
O749 C738 1.289 . S
O750 La721 2.470 . S
O750 C739 1.258 . S
O751 La720 2.503 . S
O751 C739 1.256 . S
H752 C724 0.930 . S
H753 C725 0.930 . S
H754 C727 0.929 . S
H755 C728 0.929 . S
H756 C733 0.930 . S
H757 C734 0.930 . S
H758 C736 0.929 . S
H759 C737 0.929 . S
La760 C762 2.928 . S
La760 O780 2.521 . S
La760 O781 2.628 . S
La760 O782 2.554 . S
La760 O783 2.757 . S
La760 O784 2.470 . S
La760 O789 2.482 . S
La760 O791 2.503 . S
La761 C771 2.928 . S
La761 O783 2.482 . S
La761 O785 2.503 . S
La761 O786 2.521 . S
La761 O787 2.628 . S
La761 O788 2.554 . S
La761 O789 2.757 . S
La761 O790 2.470 . S
C762 La760 2.928 . S
C762 C763 1.503 . S
C762 O780 1.261 . S
C762 O781 1.243 . S
C763 C762 1.503 . S
C763 C764 1.394 . S
C763 C768 1.373 . S
C764 C763 1.394 . S
C764 C765 1.380 . S
C764 H792 0.930 . S
C765 C764 1.380 . S
C765 C766 1.376 . S
C765 H793 0.930 . S
C766 C765 1.376 . S
C766 C767 1.370 . S
C767 C766 1.370 . S
C767 C768 1.396 . S
C767 H794 0.929 . S
C768 C763 1.373 . S
C768 C767 1.396 . S
C768 H795 0.929 . S
C769 O782 1.240 . S
C769 O783 1.289 . S
C770 O784 1.258 . S
C770 O785 1.256 . S
C771 La761 2.928 . S
C771 C772 1.503 . S
C771 O786 1.261 . S
C771 O787 1.243 . S
C772 C771 1.503 . S
C772 C773 1.394 . S
C772 C777 1.373 . S
C773 C772 1.394 . S
C773 C774 1.380 . S
C773 H796 0.930 . S
C774 C773 1.380 . S
C774 C775 1.376 . S
C774 H797 0.930 . S
C775 C774 1.376 . S
C775 C776 1.370 . S
C776 C775 1.370 . S
C776 C777 1.396 . S
C776 H798 0.929 . S
C777 C772 1.373 . S
C777 C776 1.396 . S
C777 H799 0.929 . S
C778 O788 1.240 . S
C778 O789 1.289 . S
C779 O790 1.258 . S
C779 O791 1.256 . S
O780 La760 2.521 . S
O780 C762 1.261 . S
O781 La760 2.628 . S
O781 C762 1.243 . S
O782 La760 2.554 . S
O782 C769 1.240 . S
O783 La760 2.757 . S
O783 La761 2.482 . S
O783 C769 1.289 . S
O784 La760 2.470 . S
O784 C770 1.258 . S
O785 La761 2.503 . S
O785 C770 1.256 . S
O786 La761 2.521 . S
O786 C771 1.261 . S
O787 La761 2.628 . S
O787 C771 1.243 . S
O788 La761 2.554 . S
O788 C778 1.240 . S
O789 La760 2.482 . S
O789 La761 2.757 . S
O789 C778 1.289 . S
O790 La761 2.470 . S
O790 C779 1.258 . S
O791 La760 2.503 . S
O791 C779 1.256 . S
H792 C764 0.930 . S
H793 C765 0.930 . S
H794 C767 0.929 . S
H795 C768 0.929 . S
H796 C773 0.930 . S
H797 C774 0.930 . S
H798 C776 0.929 . S
H799 C777 0.929 . S
La800 C802 2.928 . S
La800 O820 2.521 . S
La800 O821 2.628 . S
La800 O822 2.554 . S
La800 O823 2.757 . S
La800 O824 2.470 . S
La800 O829 2.482 . S
La800 O831 2.503 . S
La801 C811 2.926 1_544 S
La801 O823 2.482 . S
La801 O825 2.505 . S
La801 O826 2.519 1_544 S
La801 O827 2.626 1_554 S
La801 O828 2.554 1_545 S
La801 O829 2.758 . S
La801 O830 2.469 1_554 S
C802 La800 2.928 . S
C802 C803 1.503 . S
C802 O820 1.261 . S
C802 O821 1.243 . S
C803 C802 1.503 . S
C803 C804 1.394 . S
C803 C808 1.373 . S
C804 C803 1.394 . S
C804 C805 1.380 . S
C804 H832 0.930 . S
C805 C804 1.380 . S
C805 C806 1.376 . S
C805 H833 0.930 . S
C806 C805 1.376 . S
C806 C807 1.370 . S
C807 C806 1.370 . S
C807 C808 1.396 . S
C807 H834 0.929 . S
C808 C803 1.373 . S
C808 C807 1.396 . S
C808 H835 0.929 . S
C809 O822 1.240 . S
C809 O823 1.289 . S
C810 O824 1.258 . S
C810 O825 1.256 . S
C811 La801 2.926 1_566 S
C811 C812 1.503 . S
C811 O826 1.261 . S
C811 O827 1.243 1_565 S
C812 C811 1.503 . S
C812 C813 1.394 . S
C812 C817 1.373 . S
C813 C812 1.394 . S
C813 C814 1.380 . S
C813 H836 0.930 . S
C814 C813 1.380 . S
C814 C815 1.376 . S
C814 H837 0.930 . S
C815 C814 1.376 . S
C815 C816 1.370 . S
C816 C815 1.370 . S
C816 C817 1.396 . S
C816 H838 0.929 . S
C817 C812 1.373 . S
C817 C816 1.396 . S
C817 H839 0.929 1_565 S
C818 O828 1.240 1_545 S
C818 O829 1.289 . S
C819 O830 1.258 . S
C819 O831 1.256 1_556 S
O820 La800 2.521 . S
O820 C802 1.261 . S
O821 La800 2.628 . S
O821 C802 1.243 . S
O822 La800 2.554 . S
O822 C809 1.240 . S
O823 La800 2.757 . S
O823 La801 2.482 . S
O823 C809 1.289 . S
O824 La800 2.470 . S
O824 C810 1.258 . S
O825 La801 2.505 . S
O825 C810 1.256 . S
O826 La801 2.519 1_566 S
O826 C811 1.261 . S
O827 La801 2.626 1_556 S
O827 C811 1.243 1_545 S
O828 La801 2.554 1_565 S
O828 C818 1.240 1_565 S
O829 La800 2.482 . S
O829 La801 2.758 . S
O829 C818 1.289 . S
O830 La801 2.469 1_556 S
O830 C819 1.258 . S
O831 La800 2.503 . S
O831 C819 1.256 1_554 S
H832 C804 0.930 . S
H833 C805 0.930 . S
H834 C807 0.929 . S
H835 C808 0.929 . S
H836 C813 0.930 . S
H837 C814 0.930 . S
H838 C816 0.929 . S
H839 C817 0.929 1_545 S
La840 C842 2.928 . S
La840 O860 2.521 . S
La840 O861 2.628 . S
La840 O862 2.554 . S
La840 O863 2.757 . S
La840 O864 2.470 . S
La840 O869 2.482 . S
La840 O871 2.503 . S
La841 C851 2.928 . S
La841 O863 2.482 . S
La841 O865 2.503 . S
La841 O866 2.521 . S
La841 O867 2.628 . S
La841 O868 2.554 . S
La841 O869 2.757 . S
La841 O870 2.470 . S
C842 La840 2.928 . S
C842 C843 1.503 . S
C842 O860 1.261 . S
C842 O861 1.243 . S
C843 C842 1.503 . S
C843 C844 1.394 . S
C843 C848 1.373 . S
C844 C843 1.394 . S
C844 C845 1.380 . S
C844 H872 0.930 . S
C845 C844 1.380 . S
C845 C846 1.376 . S
C845 H873 0.930 . S
C846 C845 1.376 . S
C846 C847 1.370 . S
C847 C846 1.370 . S
C847 C848 1.396 . S
C847 H874 0.929 . S
C848 C843 1.373 . S
C848 C847 1.396 . S
C848 H875 0.929 . S
C849 O862 1.240 . S
C849 O863 1.289 . S
C850 O864 1.258 . S
C850 O865 1.256 . S
C851 La841 2.928 . S
C851 C852 1.503 . S
C851 O866 1.261 . S
C851 O867 1.243 . S
C852 C851 1.503 . S
C852 C853 1.394 . S
C852 C857 1.373 . S
C853 C852 1.394 . S
C853 C854 1.380 . S
C853 H876 0.930 . S
C854 C853 1.380 . S
C854 C855 1.376 . S
C854 H877 0.930 . S
C855 C854 1.376 . S
C855 C856 1.370 . S
C856 C855 1.370 . S
C856 C857 1.396 . S
C856 H878 0.929 . S
C857 C852 1.373 . S
C857 C856 1.396 . S
C857 H879 0.929 . S
C858 O868 1.240 . S
C858 O869 1.289 . S
C859 O870 1.258 . S
C859 O871 1.256 . S
O860 La840 2.521 . S
O860 C842 1.261 . S
O861 La840 2.628 . S
O861 C842 1.243 . S
O862 La840 2.554 . S
O862 C849 1.240 . S
O863 La840 2.757 . S
O863 La841 2.482 . S
O863 C849 1.289 . S
O864 La840 2.470 . S
O864 C850 1.258 . S
O865 La841 2.503 . S
O865 C850 1.256 . S
O866 La841 2.521 . S
O866 C851 1.261 . S
O867 La841 2.628 . S
O867 C851 1.243 . S
O868 La841 2.554 . S
O868 C858 1.240 . S
O869 La840 2.482 . S
O869 La841 2.757 . S
O869 C858 1.289 . S
O870 La841 2.470 . S
O870 C859 1.258 . S
O871 La840 2.503 . S
O871 C859 1.256 . S
H872 C844 0.930 . S
H873 C845 0.930 . S
H874 C847 0.929 . S
H875 C848 0.929 . S
H876 C853 0.930 . S
H877 C854 0.930 . S
H878 C856 0.929 . S
H879 C857 0.929 . S
La880 C882 2.928 . S
La880 O900 2.521 . S
La880 O901 2.628 . S
La880 O902 2.554 . S
La880 O903 2.757 . S
La880 O904 2.470 . S
La880 O909 2.482 . S
La880 O911 2.503 . S
La881 C891 2.928 . S
La881 O903 2.482 1_545 S
La881 O905 2.503 . S
La881 O906 2.521 . S
La881 O907 2.628 1_545 S
La881 O908 2.554 . S
La881 O909 2.757 1_545 S
La881 O910 2.470 1_545 S
C882 La880 2.928 . S
C882 C883 1.503 . S
C882 O900 1.261 . S
C882 O901 1.243 . S
C883 C882 1.503 . S
C883 C884 1.394 . S
C883 C888 1.373 . S
C884 C883 1.394 . S
C884 C885 1.380 . S
C884 H912 0.930 . S
C885 C884 1.380 . S
C885 C886 1.376 . S
C885 H913 0.930 . S
C886 C885 1.376 . S
C886 C887 1.370 . S
C887 C886 1.370 . S
C887 C888 1.396 . S
C887 H914 0.929 . S
C888 C883 1.373 . S
C888 C887 1.396 . S
C888 H915 0.929 . S
C889 O902 1.240 . S
C889 O903 1.289 . S
C890 O904 1.258 . S
C890 O905 1.256 1_565 S
C891 La881 2.928 . S
C891 C892 1.503 . S
C891 O906 1.261 . S
C891 O907 1.243 1_545 S
C892 C891 1.503 . S
C892 C893 1.394 . S
C892 C897 1.373 . S
C893 C892 1.394 . S
C893 C894 1.380 . S
C893 H916 0.930 . S
C894 C893 1.380 . S
C894 C895 1.376 . S
C894 H917 0.930 . S
C895 C894 1.376 . S
C895 C896 1.370 . S
C896 C895 1.370 . S
C896 C897 1.396 . S
C896 H918 0.929 . S
C897 C892 1.373 . S
C897 C896 1.396 . S
C897 H919 0.928 1_545 S
C898 O908 1.240 . S
C898 O909 1.289 1_545 S
C899 O910 1.258 . S
C899 O911 1.256 . S
O900 La880 2.521 . S
O900 C882 1.261 . S
O901 La880 2.628 . S
O901 C882 1.243 . S
O902 La880 2.554 . S
O902 C889 1.240 . S
O903 La880 2.757 . S
O903 La881 2.482 1_565 S
O903 C889 1.289 . S
O904 La880 2.470 . S
O904 C890 1.258 . S
O905 La881 2.503 . S
O905 C890 1.256 1_545 S
O906 La881 2.521 . S
O906 C891 1.261 . S
O907 La881 2.628 1_565 S
O907 C891 1.243 1_565 S
O908 La881 2.554 . S
O908 C898 1.240 . S
O909 La880 2.482 . S
O909 La881 2.757 1_565 S
O909 C898 1.289 1_565 S
O910 La881 2.470 1_565 S
O910 C899 1.258 . S
O911 La880 2.503 . S
O911 C899 1.256 . S
H912 C884 0.930 . S
H913 C885 0.930 . S
H914 C887 0.929 . S
H915 C888 0.929 . S
H916 C893 0.930 . S
H917 C894 0.930 . S
H918 C896 0.929 . S
H919 C897 0.928 1_565 S
La920 C922 2.928 1_556 S
La920 O940 2.521 1_556 S
La920 O941 2.628 1_556 S
La920 O942 2.554 . S
La920 O943 2.757 . S
La920 O944 2.470 . S
La920 O949 2.482 . S
La920 O951 2.503 . S
La921 C931 2.928 . S
La921 O943 2.482 . S
La921 O945 2.503 . S
La921 O946 2.521 . S
La921 O947 2.628 . S
La921 O948 2.554 . S
La921 O949 2.757 . S
La921 O950 2.470 . S
C922 La920 2.928 1_554 S
C922 C923 1.503 . S
C922 O940 1.261 . S
C922 O941 1.243 . S
C923 C922 1.503 . S
C923 C924 1.394 . S
C923 C928 1.373 . S
C924 C923 1.394 . S
C924 C925 1.380 . S
C924 H952 0.930 . S
C925 C924 1.380 . S
C925 C926 1.376 . S
C925 H953 0.930 . S
C926 C925 1.376 . S
C926 C927 1.370 . S
C927 C926 1.370 . S
C927 C928 1.396 . S
C927 H954 0.929 . S
C928 C923 1.373 . S
C928 C927 1.396 . S
C928 H955 0.929 . S
C929 O942 1.240 . S
C929 O943 1.289 . S
C930 O944 1.258 . S
C930 O945 1.256 . S
C931 La921 2.928 . S
C931 C932 1.503 . S
C931 O946 1.261 . S
C931 O947 1.243 . S
C932 C931 1.503 . S
C932 C933 1.394 . S
C932 C937 1.373 . S
C933 C932 1.394 . S
C933 C934 1.380 . S
C933 H956 0.930 . S
C934 C933 1.380 . S
C934 C935 1.376 . S
C934 H957 0.930 . S
C935 C934 1.376 . S
C935 C936 1.370 . S
C936 C935 1.370 . S
C936 C937 1.396 . S
C936 H958 0.929 . S
C937 C932 1.373 . S
C937 C936 1.396 . S
C937 H959 0.929 . S
C938 O948 1.240 . S
C938 O949 1.289 . S
C939 O950 1.258 . S
C939 O951 1.256 . S
O940 La920 2.521 1_554 S
O940 C922 1.261 . S
O941 La920 2.628 1_554 S
O941 C922 1.243 . S
O942 La920 2.554 . S
O942 C929 1.240 . S
O943 La920 2.757 . S
O943 La921 2.482 . S
O943 C929 1.289 . S
O944 La920 2.470 . S
O944 C930 1.258 . S
O945 La921 2.503 . S
O945 C930 1.256 . S
O946 La921 2.521 . S
O946 C931 1.261 . S
O947 La921 2.628 . S
O947 C931 1.243 . S
O948 La921 2.554 . S
O948 C938 1.240 . S
O949 La920 2.482 . S
O949 La921 2.757 . S
O949 C938 1.289 . S
O950 La921 2.470 . S
O950 C939 1.258 . S
O951 La920 2.503 . S
O951 C939 1.256 . S
H952 C924 0.930 . S
H953 C925 0.930 . S
H954 C927 0.929 . S
H955 C928 0.929 . S
H956 C933 0.930 . S
H957 C934 0.930 . S
H958 C936 0.929 . S
H959 C937 0.929 . S
La960 C962 2.928 . S
La960 O980 2.521 . S
La960 O981 2.628 . S
La960 O982 2.554 . S
La960 O983 2.757 . S
La960 O984 2.470 . S
La960 O989 2.482 . S
La960 O991 2.503 . S
La961 C971 2.928 . S
La961 O983 2.482 . S
La961 O985 2.503 . S
La961 O986 2.521 . S
La961 O987 2.628 . S
La961 O988 2.554 . S
La961 O989 2.757 . S
La961 O990 2.470 . S
C962 La960 2.928 . S
C962 C963 1.503 . S
C962 O980 1.261 . S
C962 O981 1.243 . S
C963 C962 1.503 . S
C963 C964 1.394 . S
C963 C968 1.373 . S
C964 C963 1.394 . S
C964 C965 1.380 . S
C964 H992 0.930 . S
C965 C964 1.380 . S
C965 C966 1.376 . S
C965 H993 0.930 . S
C966 C965 1.376 . S
C966 C967 1.370 . S
C967 C966 1.370 . S
C967 C968 1.396 . S
C967 H994 0.929 . S
C968 C963 1.373 . S
C968 C967 1.396 . S
C968 H995 0.929 . S
C969 O982 1.240 . S
C969 O983 1.289 . S
C970 O984 1.258 . S
C970 O985 1.256 . S
C971 La961 2.928 . S
C971 C972 1.503 . S
C971 O986 1.261 . S
C971 O987 1.243 . S
C972 C971 1.503 . S
C972 C973 1.394 . S
C972 C977 1.373 . S
C973 C972 1.394 . S
C973 C974 1.380 . S
C973 H996 0.930 . S
C974 C973 1.380 . S
C974 C975 1.376 . S
C974 H997 0.930 . S
C975 C974 1.376 . S
C975 C976 1.370 . S
C976 C975 1.370 . S
C976 C977 1.396 . S
C976 H998 0.929 . S
C977 C972 1.373 . S
C977 C976 1.396 . S
C977 H999 0.929 . S
C978 O988 1.240 . S
C978 O989 1.289 . S
C979 O990 1.258 . S
C979 O991 1.256 . S
O980 La960 2.521 . S
O980 C962 1.261 . S
O981 La960 2.628 . S
O981 C962 1.243 . S
O982 La960 2.554 . S
O982 C969 1.240 . S
O983 La960 2.757 . S
O983 La961 2.482 . S
O983 C969 1.289 . S
O984 La960 2.470 . S
O984 C970 1.258 . S
O985 La961 2.503 . S
O985 C970 1.256 . S
O986 La961 2.521 . S
O986 C971 1.261 . S
O987 La961 2.628 . S
O987 C971 1.243 . S
O988 La961 2.554 . S
O988 C978 1.240 . S
O989 La960 2.482 . S
O989 La961 2.757 . S
O989 C978 1.289 . S
O990 La961 2.470 . S
O990 C979 1.258 . S
O991 La960 2.503 . S
O991 C979 1.256 . S
H992 C964 0.930 . S
H993 C965 0.930 . S
H994 C967 0.929 . S
H995 C968 0.929 . S
H996 C973 0.930 . S
H997 C974 0.930 . S
H998 C976 0.929 . S
H999 C977 0.929 . S
La1000 C1002 2.928 . S
La1000 O1020 2.521 . S
La1000 O1021 2.628 . S
La1000 O1022 2.554 . S
La1000 O1023 2.757 . S
La1000 O1024 2.470 . S
La1000 O1029 2.482 . S
La1000 O1031 2.503 . S
La1001 C1011 2.928 . S
La1001 O1023 2.482 . S
La1001 O1025 2.503 . S
La1001 O1026 2.521 . S
La1001 O1027 2.628 . S
La1001 O1028 2.554 . S
La1001 O1029 2.757 . S
La1001 O1030 2.470 . S
C1002 La1000 2.928 . S
C1002 C1003 1.503 . S
C1002 O1020 1.261 . S
C1002 O1021 1.243 . S
C1003 C1002 1.503 . S
C1003 C1004 1.394 . S
C1003 C1008 1.373 . S
C1004 C1003 1.394 . S
C1004 C1005 1.380 . S
C1004 H1032 0.930 . S
C1005 C1004 1.380 . S
C1005 C1006 1.376 . S
C1005 H1033 0.930 . S
C1006 C1005 1.376 . S
C1006 C1007 1.370 . S
C1007 C1006 1.370 . S
C1007 C1008 1.396 . S
C1007 H1034 0.929 . S
C1008 C1003 1.373 . S
C1008 C1007 1.396 . S
C1008 H1035 0.929 . S
C1009 O1022 1.240 . S
C1009 O1023 1.289 . S
C1010 O1024 1.258 . S
C1010 O1025 1.256 . S
C1011 La1001 2.928 . S
C1011 C1012 1.503 . S
C1011 O1026 1.261 . S
C1011 O1027 1.243 . S
C1012 C1011 1.503 . S
C1012 C1013 1.394 . S
C1012 C1017 1.373 . S
C1013 C1012 1.394 . S
C1013 C1014 1.380 . S
C1013 H1036 0.930 . S
C1014 C1013 1.380 . S
C1014 C1015 1.376 . S
C1014 H1037 0.930 . S
C1015 C1014 1.376 . S
C1015 C1016 1.370 . S
C1016 C1015 1.370 . S
C1016 C1017 1.396 . S
C1016 H1038 0.929 . S
C1017 C1012 1.373 . S
C1017 C1016 1.396 . S
C1017 H1039 0.929 . S
C1018 O1028 1.240 . S
C1018 O1029 1.289 . S
C1019 O1030 1.258 . S
C1019 O1031 1.256 . S
O1020 La1000 2.521 . S
O1020 C1002 1.261 . S
O1021 La1000 2.628 . S
O1021 C1002 1.243 . S
O1022 La1000 2.554 . S
O1022 C1009 1.240 . S
O1023 La1000 2.757 . S
O1023 La1001 2.482 . S
O1023 C1009 1.289 . S
O1024 La1000 2.470 . S
O1024 C1010 1.258 . S
O1025 La1001 2.503 . S
O1025 C1010 1.256 . S
O1026 La1001 2.521 . S
O1026 C1011 1.261 . S
O1027 La1001 2.628 . S
O1027 C1011 1.243 . S
O1028 La1001 2.554 . S
O1028 C1018 1.240 . S
O1029 La1000 2.482 . S
O1029 La1001 2.757 . S
O1029 C1018 1.289 . S
O1030 La1001 2.470 . S
O1030 C1019 1.258 . S
O1031 La1000 2.503 . S
O1031 C1019 1.256 . S
H1032 C1004 0.930 . S
H1033 C1005 0.930 . S
H1034 C1007 0.929 . S
H1035 C1008 0.929 . S
H1036 C1013 0.930 . S
H1037 C1014 0.930 . S
H1038 C1016 0.929 . S
H1039 C1017 0.929 . S
La1040 C1042 2.928 . S
La1040 O1060 2.521 . S
La1040 O1061 2.628 . S
La1040 O1062 2.554 . S
La1040 O1063 2.757 . S
La1040 O1064 2.470 . S
La1040 O1069 2.482 . S
La1040 O1071 2.503 . S
La1041 C1051 2.928 . S
La1041 O1063 2.482 . S
La1041 O1065 2.503 . S
La1041 O1066 2.521 1_455 S
La1041 O1067 2.628 . S
La1041 O1068 2.554 1_455 S
La1041 O1069 2.757 . S
La1041 O1070 2.470 . S
C1042 La1040 2.928 . S
C1042 C1043 1.503 . S
C1042 O1060 1.261 . S
C1042 O1061 1.243 . S
C1043 C1042 1.503 . S
C1043 C1044 1.394 . S
C1043 C1048 1.373 . S
C1044 C1043 1.394 . S
C1044 C1045 1.380 . S
C1044 H1072 0.930 . S
C1045 C1044 1.380 . S
C1045 C1046 1.376 . S
C1045 H1073 0.930 . S
C1046 C1045 1.376 . S
C1046 C1047 1.370 . S
C1047 C1046 1.370 . S
C1047 C1048 1.396 . S
C1047 H1074 0.929 . S
C1048 C1043 1.373 . S
C1048 C1047 1.396 . S
C1048 H1075 0.929 . S
C1049 O1062 1.240 . S
C1049 O1063 1.289 . S
C1050 O1064 1.258 . S
C1050 O1065 1.256 . S
C1051 La1041 2.928 . S
C1051 C1052 1.503 1_454 S
C1051 O1066 1.261 1_455 S
C1051 O1067 1.243 . S
C1052 C1051 1.503 1_656 S
C1052 C1053 1.394 . S
C1052 C1057 1.373 1_655 S
C1053 C1052 1.394 . S
C1053 C1054 1.380 . S
C1053 H1076 0.930 1_556 S
C1054 C1053 1.380 . S
C1054 C1055 1.376 . S
C1054 H1077 0.930 . S
C1055 C1054 1.376 . S
C1055 C1056 1.370 1_655 S
C1056 C1055 1.370 1_455 S
C1056 C1057 1.396 . S
C1056 H1078 0.929 . S
C1057 C1052 1.373 1_455 S
C1057 C1056 1.396 . S
C1057 H1079 0.929 . S
C1058 O1068 1.240 1_455 S
C1058 O1069 1.289 . S
C1059 O1070 1.258 . S
C1059 O1071 1.256 . S
O1060 La1040 2.521 . S
O1060 C1042 1.261 . S
O1061 La1040 2.628 . S
O1061 C1042 1.243 . S
O1062 La1040 2.554 . S
O1062 C1049 1.240 . S
O1063 La1040 2.757 . S
O1063 La1041 2.482 . S
O1063 C1049 1.289 . S
O1064 La1040 2.470 . S
O1064 C1050 1.258 . S
O1065 La1041 2.503 . S
O1065 C1050 1.256 . S
O1066 La1041 2.521 1_655 S
O1066 C1051 1.261 1_655 S
O1067 La1041 2.628 . S
O1067 C1051 1.243 . S
O1068 La1041 2.554 1_655 S
O1068 C1058 1.240 1_655 S
O1069 La1040 2.482 . S
O1069 La1041 2.757 . S
O1069 C1058 1.289 . S
O1070 La1041 2.470 . S
O1070 C1059 1.258 . S
O1071 La1040 2.503 . S
O1071 C1059 1.256 . S
H1072 C1044 0.930 . S
H1073 C1045 0.930 . S
H1074 C1047 0.929 . S
H1075 C1048 0.929 . S
H1076 C1053 0.930 1_554 S
H1077 C1054 0.930 . S
H1078 C1056 0.929 . S
H1079 C1057 0.929 . S
La1080 C1082 2.928 . S
La1080 O1100 2.521 . S
La1080 O1101 2.628 . S
La1080 O1102 2.554 . S
La1080 O1103 2.757 . S
La1080 O1104 2.470 . S
La1080 O1109 2.482 . S
La1080 O1111 2.503 1_556 S
La1081 C1091 2.928 1_556 S
La1081 O1103 2.482 . S
La1081 O1105 2.503 . S
La1081 O1106 2.521 1_556 S
La1081 O1107 2.628 1_556 S
La1081 O1108 2.554 . S
La1081 O1109 2.757 . S
La1081 O1110 2.470 1_556 S
C1082 La1080 2.928 . S
C1082 C1083 1.503 . S
C1082 O1100 1.261 . S
C1082 O1101 1.243 . S
C1083 C1082 1.503 . S
C1083 C1084 1.394 . S
C1083 C1088 1.373 . S
C1084 C1083 1.394 . S
C1084 C1085 1.380 . S
C1084 H1112 0.930 . S
C1085 C1084 1.380 . S
C1085 C1086 1.376 . S
C1085 H1113 0.930 . S
C1086 C1085 1.376 . S
C1086 C1087 1.370 . S
C1087 C1086 1.370 . S
C1087 C1088 1.396 . S
C1087 H1114 0.929 . S
C1088 C1083 1.373 . S
C1088 C1087 1.396 . S
C1088 H1115 0.929 . S
C1089 O1102 1.240 . S
C1089 O1103 1.289 . S
C1090 O1104 1.258 . S
C1090 O1105 1.256 . S
C1091 La1081 2.928 1_554 S
C1091 C1092 1.503 . S
C1091 O1106 1.261 . S
C1091 O1107 1.243 . S
C1092 C1091 1.503 . S
C1092 C1093 1.394 . S
C1092 C1097 1.373 . S
C1093 C1092 1.394 . S
C1093 C1094 1.380 . S
C1093 H1116 0.930 . S
C1094 C1093 1.380 . S
C1094 C1095 1.376 . S
C1094 H1117 0.930 . S
C1095 C1094 1.376 . S
C1095 C1096 1.370 . S
C1096 C1095 1.370 . S
C1096 C1097 1.396 . S
C1096 H1118 0.929 . S
C1097 C1092 1.373 . S
C1097 C1096 1.396 . S
C1097 H1119 0.929 . S
C1098 O1108 1.240 . S
C1098 O1109 1.289 . S
C1099 O1110 1.258 . S
C1099 O1111 1.256 . S
O1100 La1080 2.521 . S
O1100 C1082 1.261 . S
O1101 La1080 2.628 . S
O1101 C1082 1.243 . S
O1102 La1080 2.554 . S
O1102 C1089 1.240 . S
O1103 La1080 2.757 . S
O1103 La1081 2.482 . S
O1103 C1089 1.289 . S
O1104 La1080 2.470 . S
O1104 C1090 1.258 . S
O1105 La1081 2.503 . S
O1105 C1090 1.256 . S
O1106 La1081 2.521 1_554 S
O1106 C1091 1.261 . S
O1107 La1081 2.628 1_554 S
O1107 C1091 1.243 . S
O1108 La1081 2.554 . S
O1108 C1098 1.240 . S
O1109 La1080 2.482 . S
O1109 La1081 2.757 . S
O1109 C1098 1.289 . S
O1110 La1081 2.470 1_554 S
O1110 C1099 1.258 . S
O1111 La1080 2.503 1_554 S
O1111 C1099 1.256 . S
H1112 C1084 0.930 . S
H1113 C1085 0.930 . S
H1114 C1087 0.929 . S
H1115 C1088 0.929 . S
H1116 C1093 0.930 . S
H1117 C1094 0.930 . S
H1118 C1096 0.929 . S
H1119 C1097 0.929 . S
La1120 C1122 2.928 1_565 S
La1120 O1140 2.521 1_565 S
La1120 O1141 2.628 . S
La1120 O1142 2.554 1_565 S
La1120 O1143 2.757 . S
La1120 O1144 2.470 . S
La1120 O1149 2.482 . S
La1120 O1151 2.503 . S
La1121 C1131 2.928 . S
La1121 O1143 2.482 . S
La1121 O1145 2.503 . S
La1121 O1146 2.521 . S
La1121 O1147 2.628 . S
La1121 O1148 2.554 . S
La1121 O1149 2.757 . S
La1121 O1150 2.470 . S
C1122 La1120 2.928 1_545 S
C1122 C1123 1.503 . S
C1122 O1140 1.261 . S
C1122 O1141 1.243 1_545 S
C1123 C1122 1.503 . S
C1123 C1124 1.394 . S
C1123 C1128 1.373 . S
C1124 C1123 1.394 . S
C1124 C1125 1.380 . S
C1124 H1152 0.930 . S
C1125 C1124 1.380 . S
C1125 C1126 1.376 . S
C1125 H1153 0.930 . S
C1126 C1125 1.376 . S
C1126 C1127 1.370 . S
C1127 C1126 1.370 . S
C1127 C1128 1.396 . S
C1127 H1154 0.929 . S
C1128 C1123 1.373 . S
C1128 C1127 1.396 . S
C1128 H1155 0.929 1_545 S
C1129 O1142 1.240 1_565 S
C1129 O1143 1.289 . S
C1130 O1144 1.258 . S
C1130 O1145 1.256 . S
C1131 La1121 2.928 . S
C1131 C1132 1.503 . S
C1131 O1146 1.261 . S
C1131 O1147 1.243 . S
C1132 C1131 1.503 . S
C1132 C1133 1.394 . S
C1132 C1137 1.373 . S
C1133 C1132 1.394 . S
C1133 C1134 1.380 . S
C1133 H1156 0.930 . S
C1134 C1133 1.380 . S
C1134 C1135 1.376 1_554 S
C1134 H1157 0.930 . S
C1135 C1134 1.376 1_556 S
C1135 C1136 1.370 . S
C1136 C1135 1.370 . S
C1136 C1137 1.396 1_556 S
C1136 H1158 0.929 . S
C1137 C1132 1.373 . S
C1137 C1136 1.396 1_554 S
C1137 H1159 0.929 . S
C1138 O1148 1.240 . S
C1138 O1149 1.289 . S
C1139 O1150 1.258 . S
C1139 O1151 1.256 . S
O1140 La1120 2.521 1_545 S
O1140 C1122 1.261 . S
O1141 La1120 2.628 . S
O1141 C1122 1.243 1_565 S
O1142 La1120 2.554 1_545 S
O1142 C1129 1.240 1_545 S
O1143 La1120 2.757 . S
O1143 La1121 2.482 . S
O1143 C1129 1.289 . S
O1144 La1120 2.470 . S
O1144 C1130 1.258 . S
O1145 La1121 2.503 . S
O1145 C1130 1.256 . S
O1146 La1121 2.521 . S
O1146 C1131 1.261 . S
O1147 La1121 2.628 . S
O1147 C1131 1.243 . S
O1148 La1121 2.554 . S
O1148 C1138 1.240 . S
O1149 La1120 2.482 . S
O1149 La1121 2.757 . S
O1149 C1138 1.289 . S
O1150 La1121 2.470 . S
O1150 C1139 1.258 . S
O1151 La1120 2.503 . S
O1151 C1139 1.256 . S
H1152 C1124 0.930 . S
H1153 C1125 0.930 . S
H1154 C1127 0.929 . S
H1155 C1128 0.929 1_565 S
H1156 C1133 0.930 . S
H1157 C1134 0.930 . S
H1158 C1136 0.929 . S
H1159 C1137 0.929 . S
La1160 C1162 2.928 . S
La1160 O1180 2.521 . S
La1160 O1181 2.628 . S
La1160 O1182 2.554 . S
La1160 O1183 2.757 1_554 S
La1160 O1184 2.470 . S
La1160 O1189 2.482 . S
La1160 O1191 2.503 1_554 S
La1161 C1171 2.928 . S
La1161 O1183 2.482 . S
La1161 O1185 2.503 1_556 S
La1161 O1186 2.521 . S
La1161 O1187 2.628 . S
La1161 O1188 2.554 . S
La1161 O1189 2.757 1_556 S
La1161 O1190 2.470 . S
C1162 La1160 2.928 . S
C1162 C1163 1.503 . S
C1162 O1180 1.261 . S
C1162 O1181 1.243 . S
C1163 C1162 1.503 . S
C1163 C1164 1.394 . S
C1163 C1168 1.373 . S
C1164 C1163 1.394 . S
C1164 C1165 1.380 . S
C1164 H1192 0.930 . S
C1165 C1164 1.380 . S
C1165 C1166 1.376 . S
C1165 H1193 0.930 . S
C1166 C1165 1.376 . S
C1166 C1167 1.370 . S
C1167 C1166 1.370 . S
C1167 C1168 1.396 . S
C1167 H1194 0.929 . S
C1168 C1163 1.373 . S
C1168 C1167 1.396 . S
C1168 H1195 0.929 . S
C1169 O1182 1.240 1_556 S
C1169 O1183 1.289 . S
C1170 O1184 1.258 . S
C1170 O1185 1.256 . S
C1171 La1161 2.928 . S
C1171 C1172 1.503 . S
C1171 O1186 1.261 . S
C1171 O1187 1.243 . S
C1172 C1171 1.503 . S
C1172 C1173 1.394 . S
C1172 C1177 1.373 . S
C1173 C1172 1.394 . S
C1173 C1174 1.380 . S
C1173 H1196 0.930 . S
C1174 C1173 1.380 . S
C1174 C1175 1.376 . S
C1174 H1197 0.930 . S
C1175 C1174 1.376 . S
C1175 C1176 1.370 . S
C1176 C1175 1.370 . S
C1176 C1177 1.396 . S
C1176 H1198 0.929 . S
C1177 C1172 1.373 . S
C1177 C1176 1.396 . S
C1177 H1199 0.929 . S
C1178 O1188 1.240 1_554 S
C1178 O1189 1.289 . S
C1179 O1190 1.258 . S
C1179 O1191 1.256 . S
O1180 La1160 2.521 . S
O1180 C1162 1.261 . S
O1181 La1160 2.628 . S
O1181 C1162 1.243 . S
O1182 La1160 2.554 . S
O1182 C1169 1.240 1_554 S
O1183 La1160 2.757 1_556 S
O1183 La1161 2.482 . S
O1183 C1169 1.289 . S
O1184 La1160 2.470 . S
O1184 C1170 1.258 . S
O1185 La1161 2.503 1_554 S
O1185 C1170 1.256 . S
O1186 La1161 2.521 . S
O1186 C1171 1.261 . S
O1187 La1161 2.628 . S
O1187 C1171 1.243 . S
O1188 La1161 2.554 . S
O1188 C1178 1.240 1_556 S
O1189 La1160 2.482 . S
O1189 La1161 2.757 1_554 S
O1189 C1178 1.289 . S
O1190 La1161 2.470 . S
O1190 C1179 1.258 . S
O1191 La1160 2.503 1_556 S
O1191 C1179 1.256 . S
H1192 C1164 0.930 . S
H1193 C1165 0.930 . S
H1194 C1167 0.929 . S
H1195 C1168 0.929 . S
H1196 C1173 0.930 . S
H1197 C1174 0.930 . S
H1198 C1176 0.929 . S
H1199 C1177 0.929 . S
La1200 C1202 2.928 . S
La1200 O1220 2.521 . S
La1200 O1221 2.628 1_565 S
La1200 O1222 2.554 . S
La1200 O1223 2.757 1_565 S
La1200 O1224 2.470 1_565 S
La1200 O1229 2.482 1_565 S
La1200 O1231 2.503 . S
La1201 C1211 2.928 . S
La1201 O1223 2.482 . S
La1201 O1225 2.503 . S
La1201 O1226 2.521 . S
La1201 O1227 2.628 . S
La1201 O1228 2.554 . S
La1201 O1229 2.757 . S
La1201 O1230 2.470 . S
C1202 La1200 2.928 . S
C1202 C1203 1.503 . S
C1202 O1220 1.261 . S
C1202 O1221 1.243 1_565 S
C1203 C1202 1.503 . S
C1203 C1204 1.394 . S
C1203 C1208 1.373 . S
C1204 C1203 1.394 . S
C1204 C1205 1.380 . S
C1204 H1232 0.930 . S
C1205 C1204 1.380 . S
C1205 C1206 1.376 . S
C1205 H1233 0.930 . S
C1206 C1205 1.376 . S
C1206 C1207 1.370 . S
C1207 C1206 1.370 . S
C1207 C1208 1.396 . S
C1207 H1234 0.929 1_556 S
C1208 C1203 1.373 . S
C1208 C1207 1.396 . S
C1208 H1235 0.926 1_565 S
C1209 O1222 1.240 . S
C1209 O1223 1.289 1_565 S
C1210 O1224 1.258 . S
C1210 O1225 1.256 . S
C1211 La1201 2.928 . S
C1211 C1212 1.503 . S
C1211 O1226 1.261 . S
C1211 O1227 1.243 . S
C1212 C1211 1.503 . S
C1212 C1213 1.394 . S
C1212 C1217 1.373 . S
C1213 C1212 1.394 . S
C1213 C1214 1.380 . S
C1213 H1236 0.930 . S
C1214 C1213 1.380 . S
C1214 C1215 1.376 . S
C1214 H1237 0.930 . S
C1215 C1214 1.376 . S
C1215 C1216 1.370 . S
C1216 C1215 1.370 . S
C1216 C1217 1.396 . S
C1216 H1238 0.929 . S
C1217 C1212 1.373 . S
C1217 C1216 1.396 . S
C1217 H1239 0.929 . S
C1218 O1228 1.240 . S
C1218 O1229 1.289 . S
C1219 O1230 1.258 . S
C1219 O1231 1.256 1_545 S
O1220 La1200 2.521 . S
O1220 C1202 1.261 . S
O1221 La1200 2.628 1_545 S
O1221 C1202 1.243 1_545 S
O1222 La1200 2.554 . S
O1222 C1209 1.240 . S
O1223 La1200 2.757 1_545 S
O1223 La1201 2.482 . S
O1223 C1209 1.289 1_545 S
O1224 La1200 2.470 1_545 S
O1224 C1210 1.258 . S
O1225 La1201 2.503 . S
O1225 C1210 1.256 . S
O1226 La1201 2.521 . S
O1226 C1211 1.261 . S
O1227 La1201 2.628 . S
O1227 C1211 1.243 . S
O1228 La1201 2.554 . S
O1228 C1218 1.240 . S
O1229 La1200 2.482 1_545 S
O1229 La1201 2.757 . S
O1229 C1218 1.289 . S
O1230 La1201 2.470 . S
O1230 C1219 1.258 . S
O1231 La1200 2.503 . S
O1231 C1219 1.256 1_565 S
H1232 C1204 0.930 . S
H1233 C1205 0.930 . S
H1234 C1207 0.929 1_554 S
H1235 C1208 0.926 1_545 S
H1236 C1213 0.930 . S
H1237 C1214 0.930 . S
H1238 C1216 0.929 . S
H1239 C1217 0.929 . S
La1240 C1242 2.928 . S
La1240 O1260 2.521 . S
La1240 O1261 2.628 . S
La1240 O1262 2.554 . S
La1240 O1263 2.757 . S
La1240 O1264 2.470 . S
La1240 O1269 2.482 . S
La1240 O1271 2.503 . S
La1241 C1251 2.928 . S
La1241 O1263 2.482 . S
La1241 O1265 2.503 . S
La1241 O1266 2.521 . S
La1241 O1267 2.628 . S
La1241 O1268 2.554 . S
La1241 O1269 2.757 . S
La1241 O1270 2.470 . S
C1242 La1240 2.928 . S
C1242 C1243 1.503 . S
C1242 O1260 1.261 . S
C1242 O1261 1.243 . S
C1243 C1242 1.503 . S
C1243 C1244 1.394 . S
C1243 C1248 1.373 . S
C1244 C1243 1.394 . S
C1244 C1245 1.380 . S
C1244 H1272 0.930 . S
C1245 C1244 1.380 . S
C1245 C1246 1.376 . S
C1245 H1273 0.930 . S
C1246 C1245 1.376 . S
C1246 C1247 1.370 . S
C1247 C1246 1.370 . S
C1247 C1248 1.396 . S
C1247 H1274 0.929 . S
C1248 C1243 1.373 . S
C1248 C1247 1.396 . S
C1248 H1275 0.929 . S
C1249 O1262 1.240 . S
C1249 O1263 1.289 . S
C1250 O1264 1.258 . S
C1250 O1265 1.256 . S
C1251 La1241 2.928 . S
C1251 C1252 1.503 . S
C1251 O1266 1.261 . S
C1251 O1267 1.243 . S
C1252 C1251 1.503 . S
C1252 C1253 1.394 . S
C1252 C1257 1.373 . S
C1253 C1252 1.394 . S
C1253 C1254 1.380 . S
C1253 H1276 0.930 . S
C1254 C1253 1.380 . S
C1254 C1255 1.376 . S
C1254 H1277 0.930 . S
C1255 C1254 1.376 . S
C1255 C1256 1.370 . S
C1256 C1255 1.370 . S
C1256 C1257 1.396 . S
C1256 H1278 0.929 . S
C1257 C1252 1.373 . S
C1257 C1256 1.396 . S
C1257 H1279 0.929 . S
C1258 O1268 1.240 . S
C1258 O1269 1.289 . S
C1259 O1270 1.258 . S
C1259 O1271 1.256 . S
O1260 La1240 2.521 . S
O1260 C1242 1.261 . S
O1261 La1240 2.628 . S
O1261 C1242 1.243 . S
O1262 La1240 2.554 . S
O1262 C1249 1.240 . S
O1263 La1240 2.757 . S
O1263 La1241 2.482 . S
O1263 C1249 1.289 . S
O1264 La1240 2.470 . S
O1264 C1250 1.258 . S
O1265 La1241 2.503 . S
O1265 C1250 1.256 . S
O1266 La1241 2.521 . S
O1266 C1251 1.261 . S
O1267 La1241 2.628 . S
O1267 C1251 1.243 . S
O1268 La1241 2.554 . S
O1268 C1258 1.240 . S
O1269 La1240 2.482 . S
O1269 La1241 2.757 . S
O1269 C1258 1.289 . S
O1270 La1241 2.470 . S
O1270 C1259 1.258 . S
O1271 La1240 2.503 . S
O1271 C1259 1.256 . S
H1272 C1244 0.930 . S
H1273 C1245 0.930 . S
H1274 C1247 0.929 . S
H1275 C1248 0.929 . S
H1276 C1253 0.930 . S
H1277 C1254 0.930 . S
H1278 C1256 0.929 . S
H1279 C1257 0.929 . S
C1280 C1281 1.363 . S
C1280 C1286 1.379 . S
C1280 N1288 1.356 . S
C1281 C1280 1.363 . S
C1281 C1287 1.363 . S
C1282 C1283 1.363 . S
C1282 C1287 1.379 . S
C1282 N1289 1.356 . S
C1283 C1282 1.363 . S
C1283 C1286 1.363 . S
N1284 C1286 1.356 . S
N1284 H1296 0.984 . S
N1284 H1297 0.985 . S
N1285 C1287 1.356 . S
N1285 H1290 0.984 . S
N1285 H1291 0.985 . S
C1286 C1280 1.379 . S
C1286 C1283 1.363 . S
C1286 N1284 1.356 . S
C1287 C1281 1.363 . S
C1287 C1282 1.379 . S
C1287 N1285 1.356 . S
N1288 C1280 1.356 . S
N1288 H1294 0.984 . S
N1288 H1295 0.984 . S
N1289 C1282 1.356 . S
N1289 H1292 0.984 . S
N1289 H1293 0.985 . S
H1290 N1285 0.984 . S
H1291 N1285 0.985 . S
H1292 N1289 0.984 . S
H1293 N1289 0.985 . S
H1294 N1288 0.984 . S
H1295 N1288 0.984 . S
H1296 N1284 0.984 . S
H1297 N1284 0.985 . S
C1298 C1299 1.363 . S
C1298 C1304 1.379 . S
C1298 N1306 1.356 . S
C1299 C1298 1.363 . S
C1299 C1305 1.363 . S
C1300 C1301 1.363 . S
C1300 C1305 1.379 . S
C1300 N1307 1.356 . S
C1301 C1300 1.363 . S
C1301 C1304 1.363 . S
N1302 C1304 1.356 . S
N1302 H1314 0.984 . S
N1302 H1315 0.985 . S
N1303 C1305 1.356 . S
N1303 H1308 0.984 . S
N1303 H1309 0.985 . S
C1304 C1298 1.379 . S
C1304 C1301 1.363 . S
C1304 N1302 1.356 . S
C1305 C1299 1.363 . S
C1305 C1300 1.379 . S
C1305 N1303 1.356 . S
N1306 C1298 1.356 . S
N1306 H1312 0.984 . S
N1306 H1313 0.984 . S
N1307 C1300 1.356 . S
N1307 H1310 0.984 . S
N1307 H1311 0.985 . S
H1308 N1303 0.984 . S
H1309 N1303 0.985 . S
H1310 N1307 0.984 . S
H1311 N1307 0.985 . S
H1312 N1306 0.984 . S
H1313 N1306 0.984 . S
H1314 N1302 0.984 . S
H1315 N1302 0.985 . S
C1316 C1317 1.363 . S
C1316 C1322 1.379 . S
C1316 N1324 1.356 . S
C1317 C1316 1.363 . S
C1317 C1323 1.363 . S
C1318 C1319 1.363 . S
C1318 C1323 1.379 . S
C1318 N1325 1.356 . S
C1319 C1318 1.363 . S
C1319 C1322 1.363 . S
N1320 C1322 1.356 . S
N1320 H1332 0.984 . S
N1320 H1333 0.985 . S
N1321 C1323 1.356 . S
N1321 H1326 0.984 . S
N1321 H1327 0.985 . S
C1322 C1316 1.379 . S
C1322 C1319 1.363 . S
C1322 N1320 1.356 . S
C1323 C1317 1.363 . S
C1323 C1318 1.379 . S
C1323 N1321 1.356 . S
N1324 C1316 1.356 . S
N1324 H1330 0.984 . S
N1324 H1331 0.984 . S
N1325 C1318 1.356 . S
N1325 H1328 0.984 . S
N1325 H1329 0.985 . S
H1326 N1321 0.984 . S
H1327 N1321 0.985 . S
H1328 N1325 0.984 . S
H1329 N1325 0.985 . S
H1330 N1324 0.984 . S
H1331 N1324 0.984 . S
H1332 N1320 0.984 . S
H1333 N1320 0.985 . S
C1334 C1335 1.363 . S
C1334 C1340 1.379 . S
C1334 N1342 1.356 . S
C1335 C1334 1.363 . S
C1335 C1341 1.363 . S
C1336 C1337 1.363 . S
C1336 C1341 1.379 . S
C1336 N1343 1.356 . S
C1337 C1336 1.363 . S
C1337 C1340 1.363 . S
N1338 C1340 1.356 . S
N1338 H1350 0.984 . S
N1338 H1351 0.985 . S
N1339 C1341 1.356 . S
N1339 H1344 0.984 . S
N1339 H1345 0.985 . S
C1340 C1334 1.379 . S
C1340 C1337 1.363 . S
C1340 N1338 1.356 . S
C1341 C1335 1.363 . S
C1341 C1336 1.379 . S
C1341 N1339 1.356 . S
N1342 C1334 1.356 . S
N1342 H1348 0.984 . S
N1342 H1349 0.984 . S
N1343 C1336 1.356 . S
N1343 H1346 0.984 . S
N1343 H1347 0.985 . S
H1344 N1339 0.984 . S
H1345 N1339 0.985 . S
H1346 N1343 0.984 . S
H1347 N1343 0.985 . S
H1348 N1342 0.984 . S
H1349 N1342 0.984 . S
H1350 N1338 0.984 . S
H1351 N1338 0.985 . S
C1352 C1353 1.363 . S
C1352 C1358 1.379 . S
C1352 N1360 1.356 . S
C1353 C1352 1.363 . S
C1353 C1359 1.363 . S
C1354 C1355 1.363 . S
C1354 C1359 1.379 . S
C1354 N1361 1.356 . S
C1355 C1354 1.363 . S
C1355 C1358 1.363 . S
N1356 C1358 1.356 . S
N1356 H1368 0.984 . S
N1356 H1369 0.985 1_554 S
N1357 C1359 1.356 . S
N1357 H1362 0.984 . S
N1357 H1363 0.985 . S
C1358 C1352 1.379 . S
C1358 C1355 1.363 . S
C1358 N1356 1.356 . S
C1359 C1353 1.363 . S
C1359 C1354 1.379 . S
C1359 N1357 1.356 . S
N1360 C1352 1.356 . S
N1360 H1366 0.984 . S
N1360 H1367 0.984 . S
N1361 C1354 1.356 . S
N1361 H1364 0.984 1_554 S
N1361 H1365 0.985 . S
H1362 N1357 0.984 . S
H1363 N1357 0.985 . S
H1364 N1361 0.984 1_556 S
H1365 N1361 0.985 . S
H1366 N1360 0.984 . S
H1367 N1360 0.984 . S
H1368 N1356 0.984 . S
H1369 N1356 0.985 1_556 S
C1370 C1371 1.363 . S
C1370 C1376 1.379 . S
C1370 N1378 1.356 . S
C1371 C1370 1.363 . S
C1371 C1377 1.363 . S
C1372 C1373 1.363 . S
C1372 C1377 1.379 . S
C1372 N1379 1.356 . S
C1373 C1372 1.363 . S
C1373 C1376 1.363 . S
N1374 C1376 1.356 . S
N1374 H1386 0.984 . S
N1374 H1387 0.985 . S
N1375 C1377 1.356 . S
N1375 H1380 0.984 . S
N1375 H1381 0.985 . S
C1376 C1370 1.379 . S
C1376 C1373 1.363 . S
C1376 N1374 1.356 . S
C1377 C1371 1.363 . S
C1377 C1372 1.379 . S
C1377 N1375 1.356 . S
N1378 C1370 1.356 . S
N1378 H1384 0.984 . S
N1378 H1385 0.984 . S
N1379 C1372 1.356 . S
N1379 H1382 0.984 . S
N1379 H1383 0.985 . S
H1380 N1375 0.984 . S
H1381 N1375 0.985 . S
H1382 N1379 0.984 . S
H1383 N1379 0.985 . S
H1384 N1378 0.984 . S
H1385 N1378 0.984 . S
H1386 N1374 0.984 . S
H1387 N1374 0.985 . S
C1388 C1389 1.363 . S
C1388 C1394 1.379 . S
C1388 N1396 1.356 . S
C1389 C1388 1.363 . S
C1389 C1395 1.363 . S
C1390 C1391 1.363 . S
C1390 C1395 1.379 . S
C1390 N1397 1.356 . S
C1391 C1390 1.363 . S
C1391 C1394 1.363 . S
N1392 C1394 1.356 . S
N1392 H1404 0.984 . S
N1392 H1405 0.985 . S
N1393 C1395 1.356 . S
N1393 H1398 0.984 . S
N1393 H1399 0.985 . S
C1394 C1388 1.379 . S
C1394 C1391 1.363 . S
C1394 N1392 1.356 . S
C1395 C1389 1.363 . S
C1395 C1390 1.379 . S
C1395 N1393 1.356 . S
N1396 C1388 1.356 . S
N1396 H1402 0.984 . S
N1396 H1403 0.984 . S
N1397 C1390 1.356 . S
N1397 H1400 0.984 . S
N1397 H1401 0.985 . S
H1398 N1393 0.984 . S
H1399 N1393 0.985 . S
H1400 N1397 0.984 . S
H1401 N1397 0.985 . S
H1402 N1396 0.984 . S
H1403 N1396 0.984 . S
H1404 N1392 0.984 . S
H1405 N1392 0.985 . S
C1406 C1407 1.363 . S
C1406 C1412 1.379 . S
C1406 N1414 1.356 . S
C1407 C1406 1.363 . S
C1407 C1413 1.363 . S
C1408 C1409 1.363 . S
C1408 C1413 1.379 . S
C1408 N1415 1.356 . S
C1409 C1408 1.363 . S
C1409 C1412 1.363 . S
N1410 C1412 1.356 . S
N1410 H1422 0.984 . S
N1410 H1423 0.985 . S
N1411 C1413 1.356 . S
N1411 H1416 0.984 . S
N1411 H1417 0.985 . S
C1412 C1406 1.379 . S
C1412 C1409 1.363 . S
C1412 N1410 1.356 . S
C1413 C1407 1.363 . S
C1413 C1408 1.379 . S
C1413 N1411 1.356 . S
N1414 C1406 1.356 . S
N1414 H1420 0.984 . S
N1414 H1421 0.984 . S
N1415 C1408 1.356 . S
N1415 H1418 0.984 . S
N1415 H1419 0.985 . S
H1416 N1411 0.984 . S
H1417 N1411 0.985 . S
H1418 N1415 0.984 . S
H1419 N1415 0.985 . S
H1420 N1414 0.984 . S
H1421 N1414 0.984 . S
H1422 N1410 0.984 . S
H1423 N1410 0.985 . S
C1424 C1425 1.363 . S
C1424 C1430 1.379 . S
C1424 N1432 1.356 . S
C1425 C1424 1.363 . S
C1425 C1431 1.363 . S
C1426 C1427 1.363 . S
C1426 C1431 1.379 . S
C1426 N1433 1.356 . S
C1427 C1426 1.363 . S
C1427 C1430 1.363 . S
N1428 C1430 1.356 . S
N1428 H1440 0.984 . S
N1428 H1441 0.985 . S
N1429 C1431 1.356 . S
N1429 H1434 0.984 . S
N1429 H1435 0.975 1_565 S
C1430 C1424 1.379 . S
C1430 C1427 1.363 . S
C1430 N1428 1.356 . S
C1431 C1425 1.363 . S
C1431 C1426 1.379 . S
C1431 N1429 1.356 . S
N1432 C1424 1.356 . S
N1432 H1438 0.984 . S
N1432 H1439 0.984 . S
N1433 C1426 1.356 . S
N1433 H1436 0.984 . S
N1433 H1437 0.985 . S
H1434 N1429 0.984 . S
H1435 N1429 0.975 1_545 S
H1436 N1433 0.984 . S
H1437 N1433 0.985 . S
H1438 N1432 0.984 . S
H1439 N1432 0.984 . S
H1440 N1428 0.984 . S
H1441 N1428 0.985 . S
C1442 C1443 1.363 . S
C1442 C1448 1.379 1_556 S
C1442 N1450 1.356 . S
C1443 C1442 1.363 . S
C1443 C1449 1.363 . S
C1444 C1445 1.363 . S
C1444 C1449 1.379 1_554 S
C1444 N1451 1.356 . S
C1445 C1444 1.363 . S
C1445 C1448 1.363 . S
N1446 C1448 1.356 . S
N1446 H1458 0.984 . S
N1446 H1459 0.985 . S
N1447 C1449 1.356 . S
N1447 H1452 0.984 . S
N1447 H1453 0.985 . S
C1448 C1442 1.379 1_554 S
C1448 C1445 1.363 . S
C1448 N1446 1.356 . S
C1449 C1443 1.363 . S
C1449 C1444 1.379 1_556 S
C1449 N1447 1.356 . S
N1450 C1442 1.356 . S
N1450 H1456 0.984 . S
N1450 H1457 0.984 . S
N1451 C1444 1.356 . S
N1451 H1454 0.984 . S
N1451 H1455 0.985 . S
H1452 N1447 0.984 . S
H1453 N1447 0.985 . S
H1454 N1451 0.984 . S
H1455 N1451 0.985 . S
H1456 N1450 0.984 . S
H1457 N1450 0.984 . S
H1458 N1446 0.984 . S
H1459 N1446 0.985 . S
C1460 C1461 1.363 . S
C1460 C1466 1.379 . S
C1460 N1468 1.356 . S
C1461 C1460 1.363 . S
C1461 C1467 1.363 . S
C1462 C1463 1.363 . S
C1462 C1467 1.379 . S
C1462 N1469 1.356 . S
C1463 C1462 1.363 . S
C1463 C1466 1.363 . S
N1464 C1466 1.356 . S
N1464 H1476 0.984 . S
N1464 H1477 0.985 . S
N1465 C1467 1.356 . S
N1465 H1470 0.984 . S
N1465 H1471 0.979 1_545 S
C1466 C1460 1.379 . S
C1466 C1463 1.363 . S
C1466 N1464 1.356 . S
C1467 C1461 1.363 . S
C1467 C1462 1.379 . S
C1467 N1465 1.356 . S
N1468 C1460 1.356 . S
N1468 H1474 0.984 . S
N1468 H1475 0.984 . S
N1469 C1462 1.356 . S
N1469 H1472 0.984 . S
N1469 H1473 0.985 1_545 S
H1470 N1465 0.984 . S
H1471 N1465 0.979 1_565 S
H1472 N1469 0.984 . S
H1473 N1469 0.985 1_565 S
H1474 N1468 0.984 . S
H1475 N1468 0.984 . S
H1476 N1464 0.984 . S
H1477 N1464 0.985 . S
C1478 C1479 1.363 . S
C1478 C1484 1.379 . S
C1478 N1486 1.356 . S
C1479 C1478 1.363 . S
C1479 C1485 1.363 . S
C1480 C1481 1.363 . S
C1480 C1485 1.379 . S
C1480 N1487 1.356 . S
C1481 C1480 1.363 . S
C1481 C1484 1.363 . S
N1482 C1484 1.356 . S
N1482 H1494 0.984 . S
N1482 H1495 0.985 . S
N1483 C1485 1.356 . S
N1483 H1488 0.984 . S
N1483 H1489 0.985 . S
C1484 C1478 1.379 . S
C1484 C1481 1.363 . S
C1484 N1482 1.356 . S
C1485 C1479 1.363 . S
C1485 C1480 1.379 . S
C1485 N1483 1.356 . S
N1486 C1478 1.356 . S
N1486 H1492 0.984 . S
N1486 H1493 0.984 . S
N1487 C1480 1.356 . S
N1487 H1490 0.984 . S
N1487 H1491 0.985 . S
H1488 N1483 0.984 . S
H1489 N1483 0.985 . S
H1490 N1487 0.984 . S
H1491 N1487 0.985 . S
H1492 N1486 0.984 . S
H1493 N1486 0.984 . S
H1494 N1482 0.984 . S
H1495 N1482 0.985 . S
C1496 C1497 1.363 . S
C1496 C1502 1.379 . S
C1496 N1504 1.356 . S
C1497 C1496 1.363 . S
C1497 C1503 1.363 . S
C1498 C1499 1.363 . S
C1498 C1503 1.379 . S
C1498 N1505 1.356 . S
C1499 C1498 1.363 . S
C1499 C1502 1.363 . S
N1500 C1502 1.356 . S
N1500 H1512 0.984 . S
N1500 H1513 0.985 . S
N1501 C1503 1.356 . S
N1501 H1506 0.984 . S
N1501 H1507 0.985 . S
C1502 C1496 1.379 . S
C1502 C1499 1.363 . S
C1502 N1500 1.356 . S
C1503 C1497 1.363 . S
C1503 C1498 1.379 . S
C1503 N1501 1.356 . S
N1504 C1496 1.356 . S
N1504 H1510 0.984 . S
N1504 H1511 0.984 . S
N1505 C1498 1.356 . S
N1505 H1508 0.984 . S
N1505 H1509 0.985 1_545 S
H1506 N1501 0.984 . S
H1507 N1501 0.985 . S
H1508 N1505 0.984 . S
H1509 N1505 0.985 1_565 S
H1510 N1504 0.984 . S
H1511 N1504 0.984 . S
H1512 N1500 0.984 . S
H1513 N1500 0.985 . S
C1514 C1515 1.363 . S
C1514 C1520 1.379 . S
C1514 N1522 1.356 . S
C1515 C1514 1.363 . S
C1515 C1521 1.363 . S
C1516 C1517 1.363 . S
C1516 C1521 1.379 . S
C1516 N1523 1.356 . S
C1517 C1516 1.363 . S
C1517 C1520 1.363 . S
N1518 C1520 1.356 . S
N1518 H1530 0.984 . S
N1518 H1531 0.985 . S
N1519 C1521 1.356 . S
N1519 H1524 0.984 . S
N1519 H1525 0.985 . S
C1520 C1514 1.379 . S
C1520 C1517 1.363 . S
C1520 N1518 1.356 . S
C1521 C1515 1.363 . S
C1521 C1516 1.379 . S
C1521 N1519 1.356 . S
N1522 C1514 1.356 . S
N1522 H1528 0.984 . S
N1522 H1529 0.984 . S
N1523 C1516 1.356 . S
N1523 H1526 0.984 . S
N1523 H1527 0.985 . S
H1524 N1519 0.984 . S
H1525 N1519 0.985 . S
H1526 N1523 0.984 . S
H1527 N1523 0.985 . S
H1528 N1522 0.984 . S
H1529 N1522 0.984 . S
H1530 N1518 0.984 . S
H1531 N1518 0.985 . S
C1532 C1533 1.363 . S
C1532 C1538 1.379 . S
C1532 N1540 1.356 . S
C1533 C1532 1.363 . S
C1533 C1539 1.363 . S
C1534 C1535 1.363 1_554 S
C1534 C1539 1.379 . S
C1534 N1541 1.356 1_554 S
C1535 C1534 1.363 1_556 S
C1535 C1538 1.363 1_556 S
N1536 C1538 1.356 1_556 S
N1536 H1548 0.984 . S
N1536 H1549 0.985 . S
N1537 C1539 1.356 . S
N1537 H1542 0.984 . S
N1537 H1543 0.985 . S
C1538 C1532 1.379 . S
C1538 C1535 1.363 1_554 S
C1538 N1536 1.356 1_554 S
C1539 C1533 1.363 . S
C1539 C1534 1.379 . S
C1539 N1537 1.356 . S
N1540 C1532 1.356 . S
N1540 H1546 0.984 . S
N1540 H1547 0.984 . S
N1541 C1534 1.356 1_556 S
N1541 H1544 0.984 . S
N1541 H1545 0.985 . S
H1542 N1537 0.984 . S
H1543 N1537 0.985 . S
H1544 N1541 0.984 . S
H1545 N1541 0.985 . S
H1546 N1540 0.984 . S
H1547 N1540 0.984 . S
H1548 N1536 0.984 . S
H1549 N1536 0.985 . S
C1550 C1551 1.363 . S
C1550 C1556 1.379 . S
C1550 N1558 1.356 . S
C1551 C1550 1.363 . S
C1551 C1557 1.363 . S
C1552 C1553 1.363 . S
C1552 C1557 1.379 . S
C1552 N1559 1.356 . S
C1553 C1552 1.363 . S
C1553 C1556 1.363 . S
N1554 C1556 1.356 . S
N1554 H1566 0.984 . S
N1554 H1567 0.985 . S
N1555 C1557 1.356 . S
N1555 H1560 0.984 . S
N1555 H1561 0.985 . S
C1556 C1550 1.379 . S
C1556 C1553 1.363 . S
C1556 N1554 1.356 . S
C1557 C1551 1.363 . S
C1557 C1552 1.379 . S
C1557 N1555 1.356 . S
N1558 C1550 1.356 . S
N1558 H1564 0.984 . S
N1558 H1565 0.984 . S
N1559 C1552 1.356 . S
N1559 H1562 0.984 . S
N1559 H1563 0.985 . S
H1560 N1555 0.984 . S
H1561 N1555 0.985 . S
H1562 N1559 0.984 . S
H1563 N1559 0.985 . S
H1564 N1558 0.984 . S
H1565 N1558 0.984 . S
H1566 N1554 0.984 . S
H1567 N1554 0.985 . S
C1568 C1569 1.363 . S
C1568 C1574 1.379 . S
C1568 N1576 1.356 . S
C1569 C1568 1.363 . S
C1569 C1575 1.363 . S
C1570 C1571 1.363 . S
C1570 C1575 1.379 . S
C1570 N1577 1.356 . S
C1571 C1570 1.363 . S
C1571 C1574 1.363 . S
N1572 C1574 1.356 . S
N1572 H1584 0.984 . S
N1572 H1585 0.985 . S
N1573 C1575 1.356 . S
N1573 H1578 0.984 . S
N1573 H1579 0.985 . S
C1574 C1568 1.379 . S
C1574 C1571 1.363 . S
C1574 N1572 1.356 . S
C1575 C1569 1.363 . S
C1575 C1570 1.379 . S
C1575 N1573 1.356 . S
N1576 C1568 1.356 . S
N1576 H1582 0.984 . S
N1576 H1583 0.984 . S
N1577 C1570 1.356 . S
N1577 H1580 0.984 . S
N1577 H1581 0.985 . S
H1578 N1573 0.984 . S
H1579 N1573 0.985 . S
H1580 N1577 0.984 . S
H1581 N1577 0.985 . S
H1582 N1576 0.984 . S
H1583 N1576 0.984 . S
H1584 N1572 0.984 . S
H1585 N1572 0.985 . S
C1586 C1587 1.363 . S
C1586 C1592 1.379 . S
C1586 N1594 1.356 . S
C1587 C1586 1.363 . S
C1587 C1593 1.363 . S
C1588 C1589 1.363 . S
C1588 C1593 1.379 . S
C1588 N1595 1.356 . S
C1589 C1588 1.363 . S
C1589 C1592 1.363 . S
N1590 C1592 1.356 . S
N1590 H1602 0.984 . S
N1590 H1603 0.985 . S
N1591 C1593 1.356 . S
N1591 H1596 0.984 . S
N1591 H1597 0.985 . S
C1592 C1586 1.379 . S
C1592 C1589 1.363 . S
C1592 N1590 1.356 . S
C1593 C1587 1.363 . S
C1593 C1588 1.379 . S
C1593 N1591 1.356 . S
N1594 C1586 1.356 . S
N1594 H1600 0.984 . S
N1594 H1601 0.984 . S
N1595 C1588 1.356 . S
N1595 H1598 0.984 . S
N1595 H1599 0.985 . S
H1596 N1591 0.984 . S
H1597 N1591 0.985 . S
H1598 N1595 0.984 . S
H1599 N1595 0.985 . S
H1600 N1594 0.984 . S
H1601 N1594 0.984 . S
H1602 N1590 0.984 . S
H1603 N1590 0.985 . S
C1604 C1605 1.363 . S
C1604 C1610 1.379 . S
C1604 N1612 1.356 . S
C1605 C1604 1.363 . S
C1605 C1611 1.363 . S
C1606 C1607 1.363 . S
C1606 C1611 1.379 . S
C1606 N1613 1.356 . S
C1607 C1606 1.363 . S
C1607 C1610 1.363 . S
N1608 C1610 1.356 . S
N1608 H1620 0.984 . S
N1608 H1621 0.985 . S
N1609 C1611 1.356 . S
N1609 H1614 0.984 . S
N1609 H1615 0.985 . S
C1610 C1604 1.379 . S
C1610 C1607 1.363 . S
C1610 N1608 1.356 . S
C1611 C1605 1.363 . S
C1611 C1606 1.379 . S
C1611 N1609 1.356 . S
N1612 C1604 1.356 . S
N1612 H1618 0.984 . S
N1612 H1619 0.984 . S
N1613 C1606 1.356 . S
N1613 H1616 0.984 . S
N1613 H1617 0.985 . S
H1614 N1609 0.984 . S
H1615 N1609 0.985 . S
H1616 N1613 0.984 . S
H1617 N1613 0.985 . S
H1618 N1612 0.984 . S
H1619 N1612 0.984 . S
H1620 N1608 0.984 . S
H1621 N1608 0.985 . S
C1622 C1623 1.363 . S
C1622 C1628 1.379 . S
C1622 N1630 1.356 . S
C1623 C1622 1.363 . S
C1623 C1629 1.363 . S
C1624 C1625 1.363 . S
C1624 C1629 1.379 . S
C1624 N1631 1.356 1_556 S
C1625 C1624 1.363 . S
C1625 C1628 1.363 . S
N1626 C1628 1.356 . S
N1626 H1638 0.984 . S
N1626 H1639 0.985 . S
N1627 C1629 1.356 . S
N1627 H1632 0.984 . S
N1627 H1633 0.985 . S
C1628 C1622 1.379 . S
C1628 C1625 1.363 . S
C1628 N1626 1.356 . S
C1629 C1623 1.363 . S
C1629 C1624 1.379 . S
C1629 N1627 1.356 . S
N1630 C1622 1.356 . S
N1630 H1636 0.984 . S
N1630 H1637 0.984 . S
N1631 C1624 1.356 1_554 S
N1631 H1634 0.984 . S
N1631 H1635 0.985 . S
H1632 N1627 0.984 . S
H1633 N1627 0.985 . S
H1634 N1631 0.984 . S
H1635 N1631 0.985 . S
H1636 N1630 0.984 . S
H1637 N1630 0.984 . S
H1638 N1626 0.984 . S
H1639 N1626 0.985 . S
C1640 C1641 1.363 . S
C1640 C1646 1.379 . S
C1640 N1648 1.356 . S
C1641 C1640 1.363 . S
C1641 C1647 1.363 . S
C1642 C1643 1.363 . S
C1642 C1647 1.379 . S
C1642 N1649 1.356 . S
C1643 C1642 1.363 . S
C1643 C1646 1.363 . S
N1644 C1646 1.356 . S
N1644 H1656 0.984 . S
N1644 H1657 0.985 . S
N1645 C1647 1.356 . S
N1645 H1650 0.984 . S
N1645 H1651 0.985 . S
C1646 C1640 1.379 . S
C1646 C1643 1.363 . S
C1646 N1644 1.356 . S
C1647 C1641 1.363 . S
C1647 C1642 1.379 . S
C1647 N1645 1.356 . S
N1648 C1640 1.356 . S
N1648 H1654 0.984 . S
N1648 H1655 0.984 . S
N1649 C1642 1.356 . S
N1649 H1652 0.984 . S
N1649 H1653 0.985 . S
H1650 N1645 0.984 . S
H1651 N1645 0.985 . S
H1652 N1649 0.984 . S
H1653 N1649 0.985 . S
H1654 N1648 0.984 . S
H1655 N1648 0.984 . S
H1656 N1644 0.984 . S
H1657 N1644 0.985 . S
C1658 C1659 1.363 . S
C1658 C1664 1.379 . S
C1658 N1666 1.356 . S
C1659 C1658 1.363 . S
C1659 C1665 1.363 . S
C1660 C1661 1.363 . S
C1660 C1665 1.379 . S
C1660 N1667 1.356 . S
C1661 C1660 1.363 . S
C1661 C1664 1.363 . S
N1662 C1664 1.356 . S
N1662 H1674 0.984 . S
N1662 H1675 0.985 . S
N1663 C1665 1.356 . S
N1663 H1668 0.984 . S
N1663 H1669 0.985 . S
C1664 C1658 1.379 . S
C1664 C1661 1.363 . S
C1664 N1662 1.356 . S
C1665 C1659 1.363 . S
C1665 C1660 1.379 . S
C1665 N1663 1.356 . S
N1666 C1658 1.356 . S
N1666 H1672 0.984 . S
N1666 H1673 0.984 . S
N1667 C1660 1.356 . S
N1667 H1670 0.984 . S
N1667 H1671 0.985 . S
H1668 N1663 0.984 . S
H1669 N1663 0.985 . S
H1670 N1667 0.984 . S
H1671 N1667 0.985 . S
H1672 N1666 0.984 . S
H1673 N1666 0.984 . S
H1674 N1662 0.984 . S
H1675 N1662 0.985 . S
C1676 C1677 1.363 . S
C1676 C1682 1.379 . S
C1676 N1684 1.356 . S
C1677 C1676 1.363 . S
C1677 C1683 1.363 . S
C1678 C1679 1.363 . S
C1678 C1683 1.379 . S
C1678 N1685 1.356 . S
C1679 C1678 1.363 . S
C1679 C1682 1.363 . S
N1680 C1682 1.356 . S
N1680 H1692 0.984 . S
N1680 H1693 0.985 . S
N1681 C1683 1.356 1_554 S
N1681 H1686 0.984 . S
N1681 H1687 0.985 . S
C1682 C1676 1.379 . S
C1682 C1679 1.363 . S
C1682 N1680 1.356 . S
C1683 C1677 1.363 . S
C1683 C1678 1.379 . S
C1683 N1681 1.356 1_556 S
N1684 C1676 1.356 . S
N1684 H1690 0.984 . S
N1684 H1691 0.984 . S
N1685 C1678 1.356 . S
N1685 H1688 0.984 . S
N1685 H1689 0.985 . S
H1686 N1681 0.984 . S
H1687 N1681 0.985 . S
H1688 N1685 0.984 . S
H1689 N1685 0.985 . S
H1690 N1684 0.984 . S
H1691 N1684 0.984 . S
H1692 N1680 0.984 . S
H1693 N1680 0.985 . S
C1694 C1695 1.363 . S
C1694 C1700 1.379 . S
C1694 N1702 1.356 . S
C1695 C1694 1.363 . S
C1695 C1701 1.363 . S
C1696 C1697 1.363 . S
C1696 C1701 1.379 . S
C1696 N1703 1.356 . S
C1697 C1696 1.363 . S
C1697 C1700 1.363 . S
N1698 C1700 1.356 . S
N1698 H1710 0.984 . S
N1698 H1711 0.985 . S
N1699 C1701 1.356 . S
N1699 H1704 0.984 . S
N1699 H1705 0.985 . S
C1700 C1694 1.379 . S
C1700 C1697 1.363 . S
C1700 N1698 1.356 . S
C1701 C1695 1.363 . S
C1701 C1696 1.379 . S
C1701 N1699 1.356 . S
N1702 C1694 1.356 . S
N1702 H1708 0.984 . S
N1702 H1709 0.984 . S
N1703 C1696 1.356 . S
N1703 H1706 0.984 . S
N1703 H1707 0.985 . S
H1704 N1699 0.984 . S
H1705 N1699 0.985 . S
H1706 N1703 0.984 . S
H1707 N1703 0.985 . S
H1708 N1702 0.984 . S
H1709 N1702 0.984 . S
H1710 N1698 0.984 . S
H1711 N1698 0.985 . S
C1712 C1713 1.363 . S
C1712 C1718 1.379 . S
C1712 N1720 1.356 . S
C1713 C1712 1.363 . S
C1713 C1719 1.363 . S
C1714 C1715 1.363 . S
C1714 C1719 1.379 . S
C1714 N1721 1.356 . S
C1715 C1714 1.363 . S
C1715 C1718 1.363 . S
N1716 C1718 1.356 . S
N1716 H1728 0.984 . S
N1716 H1729 0.985 . S
N1717 C1719 1.356 . S
N1717 H1722 0.984 . S
N1717 H1723 0.985 . S
C1718 C1712 1.379 . S
C1718 C1715 1.363 . S
C1718 N1716 1.356 . S
C1719 C1713 1.363 . S
C1719 C1714 1.379 . S
C1719 N1717 1.356 . S
N1720 C1712 1.356 . S
N1720 H1726 0.984 . S
N1720 H1727 0.984 . S
N1721 C1714 1.356 . S
N1721 H1724 0.984 . S
N1721 H1725 0.985 . S
H1722 N1717 0.984 . S
H1723 N1717 0.985 . S
H1724 N1721 0.984 . S
H1725 N1721 0.985 . S
H1726 N1720 0.984 . S
H1727 N1720 0.984 . S
H1728 N1716 0.984 . S
H1729 N1716 0.985 . S
C1730 C1731 1.363 . S
C1730 C1736 1.379 . S
C1730 N1738 1.356 . S
C1731 C1730 1.363 . S
C1731 C1737 1.363 . S
C1732 C1733 1.363 . S
C1732 C1737 1.379 . S
C1732 N1739 1.356 . S
C1733 C1732 1.363 . S
C1733 C1736 1.363 . S
N1734 C1736 1.356 . S
N1734 H1746 0.984 . S
N1734 H1747 0.985 . S
N1735 C1737 1.356 . S
N1735 H1740 0.984 . S
N1735 H1741 0.985 . S
C1736 C1730 1.379 . S
C1736 C1733 1.363 . S
C1736 N1734 1.356 . S
C1737 C1731 1.363 . S
C1737 C1732 1.379 . S
C1737 N1735 1.356 . S
N1738 C1730 1.356 . S
N1738 H1744 0.984 . S
N1738 H1745 0.984 . S
N1739 C1732 1.356 . S
N1739 H1742 0.984 . S
N1739 H1743 0.985 . S
H1740 N1735 0.984 . S
H1741 N1735 0.985 . S
H1742 N1739 0.984 . S
H1743 N1739 0.985 . S
H1744 N1738 0.984 . S
H1745 N1738 0.984 . S
H1746 N1734 0.984 . S
H1747 N1734 0.985 . S
C1748 C1749 1.363 . S
C1748 C1754 1.379 . S
C1748 N1756 1.356 . S
C1749 C1748 1.363 . S
C1749 C1755 1.363 . S
C1750 C1751 1.363 . S
C1750 C1755 1.379 . S
C1750 N1757 1.356 . S
C1751 C1750 1.363 . S
C1751 C1754 1.363 . S
N1752 C1754 1.356 . S
N1752 H1764 0.984 . S
N1752 H1765 0.985 . S
N1753 C1755 1.356 . S
N1753 H1758 0.984 . S
N1753 H1759 0.985 . S
C1754 C1748 1.379 . S
C1754 C1751 1.363 . S
C1754 N1752 1.356 . S
C1755 C1749 1.363 . S
C1755 C1750 1.379 . S
C1755 N1753 1.356 . S
N1756 C1748 1.356 . S
N1756 H1762 0.984 . S
N1756 H1763 0.984 . S
N1757 C1750 1.356 . S
N1757 H1760 0.984 . S
N1757 H1761 0.985 . S
H1758 N1753 0.984 . S
H1759 N1753 0.985 . S
H1760 N1757 0.984 . S
H1761 N1757 0.985 . S
H1762 N1756 0.984 . S
H1763 N1756 0.984 . S
H1764 N1752 0.984 . S
H1765 N1752 0.985 . S
C1766 C1767 1.363 . S
C1766 C1772 1.379 . S
C1766 N1774 1.356 . S
C1767 C1766 1.363 . S
C1767 C1773 1.363 . S
C1768 C1769 1.363 . S
C1768 C1773 1.379 . S
C1768 N1775 1.356 . S
C1769 C1768 1.363 . S
C1769 C1772 1.363 . S
N1770 C1772 1.356 . S
N1770 H1782 0.984 . S
N1770 H1783 0.985 . S
N1771 C1773 1.356 . S
N1771 H1776 0.984 . S
N1771 H1777 0.985 . S
C1772 C1766 1.379 . S
C1772 C1769 1.363 . S
C1772 N1770 1.356 . S
C1773 C1767 1.363 . S
C1773 C1768 1.379 . S
C1773 N1771 1.356 . S
N1774 C1766 1.356 . S
N1774 H1780 0.984 . S
N1774 H1781 0.984 . S
N1775 C1768 1.356 . S
N1775 H1778 0.984 . S
N1775 H1779 0.985 . S
H1776 N1771 0.984 . S
H1777 N1771 0.985 . S
H1778 N1775 0.984 . S
H1779 N1775 0.985 . S
H1780 N1774 0.984 . S
H1781 N1774 0.984 . S
H1782 N1770 0.984 . S
H1783 N1770 0.985 . S
C1784 C1785 1.363 . S
C1784 C1790 1.379 . S
C1784 N1792 1.356 . S
C1785 C1784 1.363 . S
C1785 C1791 1.363 . S
C1786 C1787 1.363 . S
C1786 C1791 1.379 . S
C1786 N1793 1.356 . S
C1787 C1786 1.363 . S
C1787 C1790 1.363 . S
N1788 C1790 1.356 . S
N1788 H1800 0.984 . S
N1788 H1801 0.985 . S
N1789 C1791 1.356 . S
N1789 H1794 0.984 . S
N1789 H1795 0.985 . S
C1790 C1784 1.379 . S
C1790 C1787 1.363 . S
C1790 N1788 1.356 . S
C1791 C1785 1.363 . S
C1791 C1786 1.379 . S
C1791 N1789 1.356 . S
N1792 C1784 1.356 . S
N1792 H1798 0.984 . S
N1792 H1799 0.984 . S
N1793 C1786 1.356 . S
N1793 H1796 0.984 . S
N1793 H1797 0.985 . S
H1794 N1789 0.984 . S
H1795 N1789 0.985 . S
H1796 N1793 0.984 . S
H1797 N1793 0.985 . S
H1798 N1792 0.984 . S
H1799 N1792 0.984 . S
H1800 N1788 0.984 . S
H1801 N1788 0.985 . S
C1802 C1803 1.363 . S
C1802 C1808 1.379 . S
C1802 N1810 1.356 . S
C1803 C1802 1.363 . S
C1803 C1809 1.363 . S
C1804 C1805 1.363 . S
C1804 C1809 1.379 . S
C1804 N1811 1.356 . S
C1805 C1804 1.363 . S
C1805 C1808 1.363 . S
N1806 C1808 1.356 . S
N1806 H1818 0.984 . S
N1806 H1819 0.985 . S
N1807 C1809 1.356 . S
N1807 H1812 0.984 . S
N1807 H1813 0.985 . S
C1808 C1802 1.379 . S
C1808 C1805 1.363 . S
C1808 N1806 1.356 . S
C1809 C1803 1.363 . S
C1809 C1804 1.379 . S
C1809 N1807 1.356 . S
N1810 C1802 1.356 . S
N1810 H1816 0.984 . S
N1810 H1817 0.984 . S
N1811 C1804 1.356 . S
N1811 H1814 0.984 . S
N1811 H1815 0.985 . S
H1812 N1807 0.984 . S
H1813 N1807 0.985 . S
H1814 N1811 0.984 . S
H1815 N1811 0.985 . S
H1816 N1810 0.984 . S
H1817 N1810 0.984 . S
H1818 N1806 0.984 . S
H1819 N1806 0.985 . S
C1820 C1821 1.363 . S
C1820 C1826 1.379 . S
C1820 N1828 1.356 . S
C1821 C1820 1.363 . S
C1821 C1827 1.363 . S
C1822 C1823 1.363 . S
C1822 C1827 1.379 . S
C1822 N1829 1.356 . S
C1823 C1822 1.363 . S
C1823 C1826 1.363 . S
N1824 C1826 1.356 . S
N1824 H1836 0.984 . S
N1824 H1837 0.985 . S
N1825 C1827 1.356 . S
N1825 H1830 0.984 . S
N1825 H1831 0.985 . S
C1826 C1820 1.379 . S
C1826 C1823 1.363 . S
C1826 N1824 1.356 . S
C1827 C1821 1.363 . S
C1827 C1822 1.379 . S
C1827 N1825 1.356 . S
N1828 C1820 1.356 . S
N1828 H1834 0.984 . S
N1828 H1835 0.984 . S
N1829 C1822 1.356 . S
N1829 H1832 0.984 . S
N1829 H1833 0.985 . S
H1830 N1825 0.984 . S
H1831 N1825 0.985 . S
H1832 N1829 0.984 . S
H1833 N1829 0.985 . S
H1834 N1828 0.984 . S
H1835 N1828 0.984 . S
H1836 N1824 0.984 . S
H1837 N1824 0.985 . S
C1838 C1839 1.363 1_554 S
C1838 C1844 1.379 . S
C1838 N1846 1.356 1_554 S
C1839 C1838 1.363 1_556 S
C1839 C1845 1.363 . S
C1840 C1841 1.363 . S
C1840 C1845 1.379 1_554 S
C1840 N1847 1.356 . S
C1841 C1840 1.363 . S
C1841 C1844 1.363 . S
N1842 C1844 1.356 . S
N1842 H1854 0.984 . S
N1842 H1855 0.985 . S
N1843 C1845 1.356 . S
N1843 H1848 0.984 . S
N1843 H1849 0.985 . S
C1844 C1838 1.379 . S
C1844 C1841 1.363 . S
C1844 N1842 1.356 . S
C1845 C1839 1.363 . S
C1845 C1840 1.379 1_556 S
C1845 N1843 1.356 . S
N1846 C1838 1.356 1_556 S
N1846 H1852 0.984 . S
N1846 H1853 0.984 . S
N1847 C1840 1.356 . S
N1847 H1850 0.984 . S
N1847 H1851 0.985 . S
H1848 N1843 0.984 . S
H1849 N1843 0.985 . S
H1850 N1847 0.984 . S
H1851 N1847 0.985 . S
H1852 N1846 0.984 . S
H1853 N1846 0.984 . S
H1854 N1842 0.984 . S
H1855 N1842 0.985 . S
C1856 C1857 1.363 . S
C1856 C1862 1.379 . S
C1856 N1864 1.356 . S
C1857 C1856 1.363 . S
C1857 C1863 1.363 1_655 S
C1858 C1859 1.363 . S
C1858 C1863 1.379 . S
C1858 N1865 1.356 . S
C1859 C1858 1.363 . S
C1859 C1862 1.363 1_455 S
N1860 C1862 1.356 . S
N1860 H1872 0.984 . S
N1860 H1873 0.984 1_655 S
N1861 C1863 1.356 . S
N1861 H1866 0.983 1_455 S
N1861 H1867 0.985 . S
C1862 C1856 1.379 . S
C1862 C1859 1.363 1_655 S
C1862 N1860 1.356 . S
C1863 C1857 1.363 1_455 S
C1863 C1858 1.379 . S
C1863 N1861 1.356 . S
N1864 C1856 1.356 . S
N1864 H1870 0.984 . S
N1864 H1871 0.984 . S
N1865 C1858 1.356 . S
N1865 H1868 0.984 . S
N1865 H1869 0.985 . S
H1866 N1861 0.983 1_655 S
H1867 N1861 0.985 . S
H1868 N1865 0.984 . S
H1869 N1865 0.985 . S
H1870 N1864 0.984 . S
H1871 N1864 0.984 . S
H1872 N1860 0.984 . S
H1873 N1860 0.984 1_455 S
C1874 C1875 1.363 . S
C1874 C1880 1.379 . S
C1874 N1882 1.356 . S
C1875 C1874 1.363 . S
C1875 C1881 1.363 . S
C1876 C1877 1.363 . S
C1876 C1881 1.379 . S
C1876 N1883 1.356 . S
C1877 C1876 1.363 . S
C1877 C1880 1.363 . S
N1878 C1880 1.356 . S
N1878 H1890 0.984 . S
N1878 H1891 0.985 . S
N1879 C1881 1.356 . S
N1879 H1884 0.984 . S
N1879 H1885 0.985 . S
C1880 C1874 1.379 . S
C1880 C1877 1.363 . S
C1880 N1878 1.356 . S
C1881 C1875 1.363 . S
C1881 C1876 1.379 . S
C1881 N1879 1.356 . S
N1882 C1874 1.356 . S
N1882 H1888 0.984 . S
N1882 H1889 0.984 . S
N1883 C1876 1.356 . S
N1883 H1886 0.984 . S
N1883 H1887 0.985 . S
H1884 N1879 0.984 . S
H1885 N1879 0.985 . S
H1886 N1883 0.984 . S
H1887 N1883 0.985 . S
H1888 N1882 0.984 . S
H1889 N1882 0.984 . S
H1890 N1878 0.984 . S
H1891 N1878 0.985 . S
C1892 C1893 1.363 . S
C1892 C1898 1.379 . S
C1892 N1900 1.356 . S
C1893 C1892 1.363 . S
C1893 C1899 1.363 . S
C1894 C1895 1.363 . S
C1894 C1899 1.379 . S
C1894 N1901 1.356 . S
C1895 C1894 1.363 . S
C1895 C1898 1.363 . S
N1896 C1898 1.356 . S
N1896 H1908 0.984 . S
N1896 H1909 0.985 . S
N1897 C1899 1.356 . S
N1897 H1902 0.984 . S
N1897 H1903 0.985 . S
C1898 C1892 1.379 . S
C1898 C1895 1.363 . S
C1898 N1896 1.356 . S
C1899 C1893 1.363 . S
C1899 C1894 1.379 . S
C1899 N1897 1.356 . S
N1900 C1892 1.356 . S
N1900 H1906 0.984 . S
N1900 H1907 0.984 . S
N1901 C1894 1.356 . S
N1901 H1904 0.984 . S
N1901 H1905 0.985 . S
H1902 N1897 0.984 . S
H1903 N1897 0.985 . S
H1904 N1901 0.984 . S
H1905 N1901 0.985 . S
H1906 N1900 0.984 . S
H1907 N1900 0.984 . S
H1908 N1896 0.984 . S
H1909 N1896 0.985 . S
C1910 C1911 1.363 . S
C1910 C1916 1.379 . S
C1910 N1918 1.356 . S
C1911 C1910 1.363 . S
C1911 C1917 1.363 . S
C1912 C1913 1.363 . S
C1912 C1917 1.379 . S
C1912 N1919 1.356 . S
C1913 C1912 1.363 . S
C1913 C1916 1.363 . S
N1914 C1916 1.356 . S
N1914 H1926 0.984 . S
N1914 H1927 0.985 . S
N1915 C1917 1.356 . S
N1915 H1920 0.984 . S
N1915 H1921 0.985 . S
C1916 C1910 1.379 . S
C1916 C1913 1.363 . S
C1916 N1914 1.356 . S
C1917 C1911 1.363 . S
C1917 C1912 1.379 . S
C1917 N1915 1.356 . S
N1918 C1910 1.356 . S
N1918 H1924 0.984 . S
N1918 H1925 0.984 . S
N1919 C1912 1.356 . S
N1919 H1922 0.984 . S
N1919 H1923 0.985 . S
H1920 N1915 0.984 . S
H1921 N1915 0.985 . S
H1922 N1919 0.984 . S
H1923 N1919 0.985 . S
H1924 N1918 0.984 . S
H1925 N1918 0.984 . S
H1926 N1914 0.984 . S
H1927 N1914 0.985 . S
C1928 C1929 1.363 1_455 S
C1928 C1934 1.379 . S
C1928 N1936 1.356 . S
C1929 C1928 1.363 1_655 S
C1929 C1935 1.363 . S
C1930 C1931 1.363 1_655 S
C1930 C1935 1.379 . S
C1930 N1937 1.356 . S
C1931 C1930 1.363 1_455 S
C1931 C1934 1.363 . S
N1932 C1934 1.356 . S
N1932 H1944 0.984 . S
N1932 H1945 0.985 . S
N1933 C1935 1.356 . S
N1933 H1938 0.984 . S
N1933 H1939 0.985 . S
C1934 C1928 1.379 . S
C1934 C1931 1.363 . S
C1934 N1932 1.356 . S
C1935 C1929 1.363 . S
C1935 C1930 1.379 . S
C1935 N1933 1.356 . S
N1936 C1928 1.356 . S
N1936 H1942 0.984 . S
N1936 H1943 0.984 . S
N1937 C1930 1.356 . S
N1937 H1940 0.984 . S
N1937 H1941 0.985 . S
H1938 N1933 0.984 . S
H1939 N1933 0.985 . S
H1940 N1937 0.984 . S
H1941 N1937 0.985 . S
H1942 N1936 0.984 . S
H1943 N1936 0.984 . S
H1944 N1932 0.984 . S
H1945 N1932 0.985 . S
C1946 C1947 1.363 . S
C1946 C1952 1.379 . S
C1946 N1954 1.356 . S
C1947 C1946 1.363 . S
C1947 C1953 1.363 . S
C1948 C1949 1.363 . S
C1948 C1953 1.379 . S
C1948 N1955 1.356 . S
C1949 C1948 1.363 . S
C1949 C1952 1.363 . S
N1950 C1952 1.356 . S
N1950 H1962 0.984 . S
N1950 H1963 0.985 . S
N1951 C1953 1.356 . S
N1951 H1956 0.984 . S
N1951 H1957 0.985 . S
C1952 C1946 1.379 . S
C1952 C1949 1.363 . S
C1952 N1950 1.356 . S
C1953 C1947 1.363 . S
C1953 C1948 1.379 . S
C1953 N1951 1.356 . S
N1954 C1946 1.356 . S
N1954 H1960 0.984 . S
N1954 H1961 0.984 . S
N1955 C1948 1.356 . S
N1955 H1958 0.984 . S
N1955 H1959 0.985 . S
H1956 N1951 0.984 . S
H1957 N1951 0.985 . S
H1958 N1955 0.984 . S
H1959 N1955 0.985 . S
H1960 N1954 0.984 . S
H1961 N1954 0.984 . S
H1962 N1950 0.984 . S
H1963 N1950 0.985 . S
C1964 C1965 1.363 . S
C1964 C1970 1.379 . S
C1964 N1972 1.356 . S
C1965 C1964 1.363 . S
C1965 C1971 1.363 . S
C1966 C1967 1.363 . S
C1966 C1971 1.379 . S
C1966 N1973 1.356 . S
C1967 C1966 1.363 . S
C1967 C1970 1.363 . S
N1968 C1970 1.356 . S
N1968 H1980 0.984 . S
N1968 H1981 0.985 . S
N1969 C1971 1.356 . S
N1969 H1974 0.984 . S
N1969 H1975 0.985 . S
C1970 C1964 1.379 . S
C1970 C1967 1.363 . S
C1970 N1968 1.356 . S
C1971 C1965 1.363 . S
C1971 C1966 1.379 . S
C1971 N1969 1.356 . S
N1972 C1964 1.356 . S
N1972 H1978 0.984 . S
N1972 H1979 0.984 . S
N1973 C1966 1.356 . S
N1973 H1976 0.984 . S
N1973 H1977 0.985 . S
H1974 N1969 0.984 . S
H1975 N1969 0.985 . S
H1976 N1973 0.984 . S
H1977 N1973 0.985 . S
H1978 N1972 0.984 . S
H1979 N1972 0.984 . S
H1980 N1968 0.984 . S
H1981 N1968 0.985 . S
C1982 C1983 1.363 . S
C1982 C1988 1.379 . S
C1982 N1990 1.356 . S
C1983 C1982 1.363 . S
C1983 C1989 1.363 . S
C1984 C1985 1.363 . S
C1984 C1989 1.379 . S
C1984 N1991 1.356 . S
C1985 C1984 1.363 . S
C1985 C1988 1.363 . S
N1986 C1988 1.356 . S
N1986 H1998 0.984 . S
N1986 H1999 0.985 . S
N1987 C1989 1.356 . S
N1987 H1992 0.984 . S
N1987 H1993 0.985 . S
C1988 C1982 1.379 . S
C1988 C1985 1.363 . S
C1988 N1986 1.356 . S
C1989 C1983 1.363 . S
C1989 C1984 1.379 . S
C1989 N1987 1.356 . S
N1990 C1982 1.356 . S
N1990 H1996 0.984 . S
N1990 H1997 0.984 . S
N1991 C1984 1.356 . S
N1991 H1994 0.984 . S
N1991 H1995 0.985 . S
H1992 N1987 0.984 . S
H1993 N1987 0.985 . S
H1994 N1991 0.984 . S
H1995 N1991 0.985 . S
H1996 N1990 0.984 . S
H1997 N1990 0.984 . S
H1998 N1986 0.984 . S
H1999 N1986 0.985 . S
C2000 C2001 1.363 . S
C2000 C2006 1.379 . S
C2000 N2008 1.356 . S
C2001 C2000 1.363 . S
C2001 C2007 1.363 . S
C2002 C2003 1.363 . S
C2002 C2007 1.379 . S
C2002 N2009 1.356 . S
C2003 C2002 1.363 . S
C2003 C2006 1.363 . S
N2004 C2006 1.356 . S
N2004 H2016 0.984 . S
N2004 H2017 0.985 . S
N2005 C2007 1.356 . S
N2005 H2010 0.984 . S
N2005 H2011 0.985 . S
C2006 C2000 1.379 . S
C2006 C2003 1.363 . S
C2006 N2004 1.356 . S
C2007 C2001 1.363 . S
C2007 C2002 1.379 . S
C2007 N2005 1.356 . S
N2008 C2000 1.356 . S
N2008 H2014 0.984 . S
N2008 H2015 0.984 . S
N2009 C2002 1.356 . S
N2009 H2012 0.980 1_556 S
N2009 H2013 0.985 . S
H2010 N2005 0.984 . S
H2011 N2005 0.985 . S
H2012 N2009 0.980 1_554 S
H2013 N2009 0.985 . S
H2014 N2008 0.984 . S
H2015 N2008 0.984 . S
H2016 N2004 0.984 . S
H2017 N2004 0.985 . S
C2018 C2019 1.363 . S
C2018 C2024 1.379 . S
C2018 N2026 1.356 . S
C2019 C2018 1.363 . S
C2019 C2025 1.363 . S
C2020 C2021 1.363 . S
C2020 C2025 1.379 . S
C2020 N2027 1.356 . S
C2021 C2020 1.363 . S
C2021 C2024 1.363 . S
N2022 C2024 1.356 . S
N2022 H2034 0.984 . S
N2022 H2035 0.985 . S
N2023 C2025 1.356 . S
N2023 H2028 0.984 . S
N2023 H2029 0.985 . S
C2024 C2018 1.379 . S
C2024 C2021 1.363 . S
C2024 N2022 1.356 . S
C2025 C2019 1.363 . S
C2025 C2020 1.379 . S
C2025 N2023 1.356 . S
N2026 C2018 1.356 . S
N2026 H2032 0.984 . S
N2026 H2033 0.984 . S
N2027 C2020 1.356 . S
N2027 H2030 0.984 . S
N2027 H2031 0.985 . S
H2028 N2023 0.984 . S
H2029 N2023 0.985 . S
H2030 N2027 0.984 . S
H2031 N2027 0.985 . S
H2032 N2026 0.984 . S
H2033 N2026 0.984 . S
H2034 N2022 0.984 . S
H2035 N2022 0.985 . S
C2036 C2037 1.363 . S
C2036 C2042 1.379 . S
C2036 N2044 1.356 . S
C2037 C2036 1.363 . S
C2037 C2043 1.363 . S
C2038 C2039 1.363 . S
C2038 C2043 1.379 . S
C2038 N2045 1.356 . S
C2039 C2038 1.363 . S
C2039 C2042 1.363 . S
N2040 C2042 1.356 . S
N2040 H2052 0.984 . S
N2040 H2053 0.985 . S
N2041 C2043 1.356 . S
N2041 H2046 0.984 . S
N2041 H2047 0.985 . S
C2042 C2036 1.379 . S
C2042 C2039 1.363 . S
C2042 N2040 1.356 . S
C2043 C2037 1.363 . S
C2043 C2038 1.379 . S
C2043 N2041 1.356 . S
N2044 C2036 1.356 . S
N2044 H2050 0.984 . S
N2044 H2051 0.984 . S
N2045 C2038 1.356 . S
N2045 H2048 0.984 . S
N2045 H2049 0.985 . S
H2046 N2041 0.984 . S
H2047 N2041 0.985 . S
H2048 N2045 0.984 . S
H2049 N2045 0.985 . S
H2050 N2044 0.984 . S
H2051 N2044 0.984 . S
H2052 N2040 0.984 . S
H2053 N2040 0.985 . S
C2054 C2055 1.363 . S
C2054 C2060 1.379 . S
C2054 N2062 1.356 . S
C2055 C2054 1.363 . S
C2055 C2061 1.363 . S
C2056 C2057 1.363 . S
C2056 C2061 1.379 . S
C2056 N2063 1.356 . S
C2057 C2056 1.363 . S
C2057 C2060 1.363 . S
N2058 C2060 1.356 . S
N2058 H2070 0.984 . S
N2058 H2071 0.985 . S
N2059 C2061 1.356 . S
N2059 H2064 0.984 . S
N2059 H2065 0.985 . S
C2060 C2054 1.379 . S
C2060 C2057 1.363 . S
C2060 N2058 1.356 . S
C2061 C2055 1.363 . S
C2061 C2056 1.379 . S
C2061 N2059 1.356 . S
N2062 C2054 1.356 . S
N2062 H2068 0.984 . S
N2062 H2069 0.984 . S
N2063 C2056 1.356 . S
N2063 H2066 0.984 . S
N2063 H2067 0.985 . S
H2064 N2059 0.984 . S
H2065 N2059 0.985 . S
H2066 N2063 0.984 . S
H2067 N2063 0.985 . S
H2068 N2062 0.984 . S
H2069 N2062 0.984 . S
H2070 N2058 0.984 . S
H2071 N2058 0.985 . S
C2072 C2073 1.363 1_565 S
C2072 C2078 1.379 . S
C2072 N2080 1.356 . S
C2073 C2072 1.363 1_545 S
C2073 C2079 1.363 . S
C2074 C2075 1.363 1_545 S
C2074 C2079 1.379 . S
C2074 N2081 1.356 . S
C2075 C2074 1.363 1_565 S
C2075 C2078 1.363 . S
N2076 C2078 1.356 . S
N2076 H2088 0.984 . S
N2076 H2089 0.985 . S
N2077 C2079 1.356 . S
N2077 H2082 0.984 . S
N2077 H2083 0.985 . S
C2078 C2072 1.379 . S
C2078 C2075 1.363 . S
C2078 N2076 1.356 . S
C2079 C2073 1.363 . S
C2079 C2074 1.379 . S
C2079 N2077 1.356 . S
N2080 C2072 1.356 . S
N2080 H2086 0.984 . S
N2080 H2087 0.984 1_565 S
N2081 C2074 1.356 . S
N2081 H2084 0.984 1_545 S
N2081 H2085 0.985 . S
H2082 N2077 0.984 . S
H2083 N2077 0.985 . S
H2084 N2081 0.984 1_565 S
H2085 N2081 0.985 . S
H2086 N2080 0.984 . S
H2087 N2080 0.984 1_545 S
H2088 N2076 0.984 . S
H2089 N2076 0.985 . S
C2090 C2091 1.363 . S
C2090 C2096 1.379 . S
C2090 N2098 1.356 . S
C2091 C2090 1.363 . S
C2091 C2097 1.363 1_465 S
C2092 C2093 1.363 . S
C2092 C2097 1.379 . S
C2092 N2099 1.356 . S
C2093 C2092 1.363 . S
C2093 C2096 1.363 1_645 S
N2094 C2096 1.356 . S
N2094 H2106 0.984 . S
N2094 H2107 0.985 1_565 S
N2095 C2097 1.356 . S
N2095 H2100 0.984 1_545 S
N2095 H2101 0.985 . S
C2096 C2090 1.379 . S
C2096 C2093 1.363 1_465 S
C2096 N2094 1.356 . S
C2097 C2091 1.363 1_645 S
C2097 C2092 1.379 . S
C2097 N2095 1.356 . S
N2098 C2090 1.356 . S
N2098 H2104 0.984 . S
N2098 H2105 0.984 . S
N2099 C2092 1.356 . S
N2099 H2102 0.984 . S
N2099 H2103 0.985 . S
H2100 N2095 0.984 1_565 S
H2101 N2095 0.985 . S
H2102 N2099 0.984 . S
H2103 N2099 0.985 . S
H2104 N2098 0.984 . S
H2105 N2098 0.984 . S
H2106 N2094 0.984 . S
H2107 N2094 0.985 1_545 S
C2108 C2109 1.363 1_545 S
C2108 C2114 1.379 . S
C2108 N2116 1.356 . S
C2109 C2108 1.363 1_565 S
C2109 C2115 1.363 . S
C2110 C2111 1.363 1_565 S
C2110 C2115 1.379 . S
C2110 N2117 1.356 . S
C2111 C2110 1.363 1_545 S
C2111 C2114 1.363 . S
N2112 C2114 1.356 . S
N2112 H2124 0.984 . S
N2112 H2125 0.985 . S
N2113 C2115 1.356 . S
N2113 H2118 0.984 . S
N2113 H2119 0.985 . S
C2114 C2108 1.379 . S
C2114 C2111 1.363 . S
C2114 N2112 1.356 . S
C2115 C2109 1.363 . S
C2115 C2110 1.379 . S
C2115 N2113 1.356 . S
N2116 C2108 1.356 . S
N2116 H2122 0.984 . S
N2116 H2123 0.984 . S
N2117 C2110 1.356 . S
N2117 H2120 0.984 . S
N2117 H2121 0.985 . S
H2118 N2113 0.984 . S
H2119 N2113 0.985 . S
H2120 N2117 0.984 . S
H2121 N2117 0.985 . S
H2122 N2116 0.984 . S
H2123 N2116 0.984 . S
H2124 N2112 0.984 . S
H2125 N2112 0.985 . S
C2126 C2127 1.363 . S
C2126 C2132 1.381 1_655 S
C2126 N2134 1.356 . S
C2127 C2126 1.363 . S
C2127 C2133 1.363 1_545 S
C2128 C2129 1.363 . S
C2128 C2133 1.379 1_455 S
C2128 N2135 1.356 . S
C2129 C2128 1.363 . S
C2129 C2132 1.361 1_565 S
N2130 C2132 1.355 . S
N2130 H2142 0.984 1_455 S
N2130 H2143 0.985 . S
N2131 C2133 1.356 . S
N2131 H2136 0.984 . S
N2131 H2137 0.985 1_655 S
C2132 C2126 1.381 1_455 S
C2132 C2129 1.361 1_545 S
C2132 N2130 1.355 . S
C2133 C2127 1.363 1_565 S
C2133 C2128 1.379 1_655 S
C2133 N2131 1.356 . S
N2134 C2126 1.356 . S
N2134 H2140 0.984 . S
N2134 H2141 0.984 . S
N2135 C2128 1.356 . S
N2135 H2138 0.984 . S
N2135 H2139 0.985 . S
H2136 N2131 0.984 . S
H2137 N2131 0.985 1_455 S
H2138 N2135 0.984 . S
H2139 N2135 0.985 . S
H2140 N2134 0.984 . S
H2141 N2134 0.984 . S
H2142 N2130 0.984 1_655 S
H2143 N2130 0.985 . S
C2144 C2145 1.363 . S
C2144 C2150 1.385 . S
C2144 N2152 1.356 . S
C2145 C2144 1.363 . S
C2145 C2151 1.363 . S
C2146 C2147 1.363 . S
C2146 C2151 1.379 1_655 S
C2146 N2153 1.356 . S
C2147 C2146 1.363 . S
C2147 C2150 1.358 1_655 S
N2148 C2150 1.353 1_655 S
N2148 H2160 0.984 . S
N2148 H2161 0.985 . S
N2149 C2151 1.356 . S
N2149 H2154 0.984 . S
N2149 H2155 0.985 . S
C2150 C2144 1.385 . S
C2150 C2147 1.358 1_455 S
C2150 N2148 1.353 1_455 S
C2151 C2145 1.363 . S
C2151 C2146 1.379 1_455 S
C2151 N2149 1.356 . S
N2152 C2144 1.356 . S
N2152 H2158 0.984 . S
N2152 H2159 0.984 . S
N2153 C2146 1.356 . S
N2153 H2156 0.984 . S
N2153 H2157 0.985 . S
H2154 N2149 0.984 . S
H2155 N2149 0.985 . S
H2156 N2153 0.984 . S
H2157 N2153 0.985 . S
H2158 N2152 0.984 . S
H2159 N2152 0.984 . S
H2160 N2148 0.984 . S
H2161 N2148 0.985 . S
C2162 C2163 1.363 . S
C2162 C2168 1.379 . S
C2162 N2170 1.356 . S
C2163 C2162 1.363 . S
C2163 C2169 1.363 . S
C2164 C2165 1.363 . S
C2164 C2169 1.379 . S
C2164 N2171 1.356 . S
C2165 C2164 1.363 . S
C2165 C2168 1.363 . S
N2166 C2168 1.356 . S
N2166 H2178 0.984 . S
N2166 H2179 0.985 . S
N2167 C2169 1.356 . S
N2167 H2172 0.984 . S
N2167 H2173 0.985 . S
C2168 C2162 1.379 . S
C2168 C2165 1.363 . S
C2168 N2166 1.356 . S
C2169 C2163 1.363 . S
C2169 C2164 1.379 . S
C2169 N2167 1.356 . S
N2170 C2162 1.356 . S
N2170 H2176 0.984 . S
N2170 H2177 0.984 . S
N2171 C2164 1.356 . S
N2171 H2174 0.984 . S
N2171 H2175 0.985 . S
H2172 N2167 0.984 . S
H2173 N2167 0.985 . S
H2174 N2171 0.984 . S
H2175 N2171 0.985 . S
H2176 N2170 0.984 . S
H2177 N2170 0.984 . S
H2178 N2166 0.984 . S
H2179 N2166 0.985 . S
C2180 C2181 1.363 . S
C2180 C2186 1.379 . S
C2180 N2188 1.356 . S
C2181 C2180 1.363 . S
C2181 C2187 1.363 . S
C2182 C2183 1.363 . S
C2182 C2187 1.379 . S
C2182 N2189 1.356 . S
C2183 C2182 1.363 . S
C2183 C2186 1.363 . S
N2184 C2186 1.356 . S
N2184 H2196 0.984 . S
N2184 H2197 0.985 . S
N2185 C2187 1.356 . S
N2185 H2190 0.984 . S
N2185 H2191 0.985 . S
C2186 C2180 1.379 . S
C2186 C2183 1.363 . S
C2186 N2184 1.356 . S
C2187 C2181 1.363 . S
C2187 C2182 1.379 . S
C2187 N2185 1.356 . S
N2188 C2180 1.356 . S
N2188 H2194 0.984 . S
N2188 H2195 0.984 . S
N2189 C2182 1.356 . S
N2189 H2192 0.984 . S
N2189 H2193 0.985 . S
H2190 N2185 0.984 . S
H2191 N2185 0.985 . S
H2192 N2189 0.984 . S
H2193 N2189 0.985 . S
H2194 N2188 0.984 . S
H2195 N2188 0.984 . S
H2196 N2184 0.984 . S
H2197 N2184 0.985 . S
C2198 C2199 1.363 . S
C2198 C2204 1.379 . S
C2198 N2206 1.356 . S
C2199 C2198 1.363 . S
C2199 C2205 1.363 . S
C2200 C2201 1.363 . S
C2200 C2205 1.379 . S
C2200 N2207 1.356 . S
C2201 C2200 1.363 . S
C2201 C2204 1.363 . S
N2202 C2204 1.356 . S
N2202 H2214 0.984 . S
N2202 H2215 0.985 . S
N2203 C2205 1.356 . S
N2203 H2208 0.984 . S
N2203 H2209 0.985 . S
C2204 C2198 1.379 . S
C2204 C2201 1.363 . S
C2204 N2202 1.356 . S
C2205 C2199 1.363 . S
C2205 C2200 1.379 . S
C2205 N2203 1.356 . S
N2206 C2198 1.356 . S
N2206 H2212 0.984 . S
N2206 H2213 0.984 . S
N2207 C2200 1.356 . S
N2207 H2210 0.984 . S
N2207 H2211 0.985 . S
H2208 N2203 0.984 . S
H2209 N2203 0.985 . S
H2210 N2207 0.984 . S
H2211 N2207 0.985 . S
H2212 N2206 0.984 . S
H2213 N2206 0.984 . S
H2214 N2202 0.984 . S
H2215 N2202 0.985 . S
C2216 C2217 1.363 . S
C2216 C2222 1.379 . S
C2216 N2224 1.356 . S
C2217 C2216 1.363 . S
C2217 C2223 1.363 . S
C2218 C2219 1.363 . S
C2218 C2223 1.379 . S
C2218 N2225 1.356 . S
C2219 C2218 1.363 . S
C2219 C2222 1.363 . S
N2220 C2222 1.356 . S
N2220 H2232 0.984 . S
N2220 H2233 0.985 . S
N2221 C2223 1.356 1_655 S
N2221 H2226 0.984 . S
N2221 H2227 0.985 . S
C2222 C2216 1.379 . S
C2222 C2219 1.363 . S
C2222 N2220 1.356 . S
C2223 C2217 1.363 . S
C2223 C2218 1.379 . S
C2223 N2221 1.356 1_455 S
N2224 C2216 1.356 . S
N2224 H2230 0.984 . S
N2224 H2231 0.984 . S
N2225 C2218 1.356 . S
N2225 H2228 0.984 . S
N2225 H2229 0.985 . S
H2226 N2221 0.984 . S
H2227 N2221 0.985 . S
H2228 N2225 0.984 . S
H2229 N2225 0.985 . S
H2230 N2224 0.984 . S
H2231 N2224 0.984 . S
H2232 N2220 0.984 . S
H2233 N2220 0.985 . S
C2234 C2235 1.363 . S
C2234 C2240 1.379 . S
C2234 N2242 1.356 . S
C2235 C2234 1.363 . S
C2235 C2241 1.363 . S
C2236 C2237 1.363 . S
C2236 C2241 1.379 . S
C2236 N2243 1.356 . S
C2237 C2236 1.363 . S
C2237 C2240 1.363 . S
N2238 C2240 1.356 . S
N2238 H2250 0.984 . S
N2238 H2251 0.985 . S
N2239 C2241 1.356 . S
N2239 H2244 0.984 . S
N2239 H2245 0.985 . S
C2240 C2234 1.379 . S
C2240 C2237 1.363 . S
C2240 N2238 1.356 . S
C2241 C2235 1.363 . S
C2241 C2236 1.379 . S
C2241 N2239 1.356 . S
N2242 C2234 1.356 . S
N2242 H2248 0.984 . S
N2242 H2249 0.984 . S
N2243 C2236 1.356 . S
N2243 H2246 0.984 . S
N2243 H2247 0.985 . S
H2244 N2239 0.984 . S
H2245 N2239 0.985 . S
H2246 N2243 0.984 . S
H2247 N2243 0.985 . S
H2248 N2242 0.984 . S
H2249 N2242 0.984 . S
H2250 N2238 0.984 . S
H2251 N2238 0.985 . S
C2252 C2253 1.363 . S
C2252 C2258 1.379 . S
C2252 N2260 1.356 . S
C2253 C2252 1.363 . S
C2253 C2259 1.363 . S
C2254 C2255 1.363 . S
C2254 C2259 1.379 . S
C2254 N2261 1.356 . S
C2255 C2254 1.363 . S
C2255 C2258 1.363 . S
N2256 C2258 1.356 . S
N2256 H2268 0.984 . S
N2256 H2269 0.985 . S
N2257 C2259 1.356 . S
N2257 H2262 0.984 . S
N2257 H2263 0.985 . S
C2258 C2252 1.379 . S
C2258 C2255 1.363 . S
C2258 N2256 1.356 . S
C2259 C2253 1.363 . S
C2259 C2254 1.379 . S
C2259 N2257 1.356 . S
N2260 C2252 1.356 . S
N2260 H2266 0.984 . S
N2260 H2267 0.984 . S
N2261 C2254 1.356 . S
N2261 H2264 0.984 . S
N2261 H2265 0.985 . S
H2262 N2257 0.984 . S
H2263 N2257 0.985 . S
H2264 N2261 0.984 . S
H2265 N2261 0.985 . S
H2266 N2260 0.984 . S
H2267 N2260 0.984 . S
H2268 N2256 0.984 . S
H2269 N2256 0.985 . S
C2270 C2271 1.363 . S
C2270 C2276 1.379 . S
C2270 N2278 1.356 . S
C2271 C2270 1.363 . S
C2271 C2277 1.363 . S
C2272 C2273 1.363 . S
C2272 C2277 1.379 . S
C2272 N2279 1.356 . S
C2273 C2272 1.363 . S
C2273 C2276 1.363 . S
N2274 C2276 1.356 . S
N2274 H2286 0.984 . S
N2274 H2287 0.985 . S
N2275 C2277 1.356 . S
N2275 H2280 0.984 . S
N2275 H2281 0.985 . S
C2276 C2270 1.379 . S
C2276 C2273 1.363 . S
C2276 N2274 1.356 . S
C2277 C2271 1.363 . S
C2277 C2272 1.379 . S
C2277 N2275 1.356 . S
N2278 C2270 1.356 . S
N2278 H2284 0.984 . S
N2278 H2285 0.984 . S
N2279 C2272 1.356 . S
N2279 H2282 0.984 . S
N2279 H2283 0.985 . S
H2280 N2275 0.984 . S
H2281 N2275 0.985 . S
H2282 N2279 0.984 . S
H2283 N2279 0.985 . S
H2284 N2278 0.984 . S
H2285 N2278 0.984 . S
H2286 N2274 0.984 . S
H2287 N2274 0.985 . S
C2288 C2289 1.363 . S
C2288 C2294 1.379 1_455 S
C2288 N2296 1.356 . S
C2289 C2288 1.363 . S
C2289 C2295 1.363 1_455 S
C2290 C2291 1.363 . S
C2290 C2295 1.379 . S
C2290 N2297 1.356 . S
C2291 C2290 1.363 . S
C2291 C2294 1.363 . S
N2292 C2294 1.356 . S
N2292 H2304 0.984 1_655 S
N2292 H2305 0.985 . S
N2293 C2295 1.356 . S
N2293 H2298 0.986 1_655 S
N2293 H2299 0.983 . S
C2294 C2288 1.379 1_655 S
C2294 C2291 1.363 . S
C2294 N2292 1.356 . S
C2295 C2289 1.363 1_655 S
C2295 C2290 1.379 . S
C2295 N2293 1.356 . S
N2296 C2288 1.356 . S
N2296 H2302 0.984 . S
N2296 H2303 0.984 . S
N2297 C2290 1.356 . S
N2297 H2300 0.984 . S
N2297 H2301 0.985 . S
H2298 N2293 0.986 1_455 S
H2299 N2293 0.983 . S
H2300 N2297 0.984 . S
H2301 N2297 0.985 . S
H2302 N2296 0.984 . S
H2303 N2296 0.984 . S
H2304 N2292 0.984 1_455 S
H2305 N2292 0.985 . S
C2306 C2307 1.363 . S
C2306 C2312 1.379 . S
C2306 N2314 1.356 . S
C2307 C2306 1.363 . S
C2307 C2313 1.363 . S
C2308 C2309 1.363 . S
C2308 C2313 1.379 . S
C2308 N2315 1.356 . S
C2309 C2308 1.363 . S
C2309 C2312 1.363 . S
N2310 C2312 1.356 . S
N2310 H2322 0.984 . S
N2310 H2323 0.985 . S
N2311 C2313 1.356 . S
N2311 H2316 0.984 . S
N2311 H2317 0.985 . S
C2312 C2306 1.379 . S
C2312 C2309 1.363 . S
C2312 N2310 1.356 . S
C2313 C2307 1.363 . S
C2313 C2308 1.379 . S
C2313 N2311 1.356 . S
N2314 C2306 1.356 . S
N2314 H2320 0.984 . S
N2314 H2321 0.984 . S
N2315 C2308 1.356 . S
N2315 H2318 0.984 . S
N2315 H2319 0.985 . S
H2316 N2311 0.984 . S
H2317 N2311 0.985 . S
H2318 N2315 0.984 . S
H2319 N2315 0.985 . S
H2320 N2314 0.984 . S
H2321 N2314 0.984 . S
H2322 N2310 0.984 . S
H2323 N2310 0.985 . S
C2324 C2325 1.363 . S
C2324 C2330 1.379 . S
C2324 N2332 1.356 . S
C2325 C2324 1.363 . S
C2325 C2331 1.363 . S
C2326 C2327 1.363 . S
C2326 C2331 1.379 . S
C2326 N2333 1.356 . S
C2327 C2326 1.363 . S
C2327 C2330 1.363 . S
N2328 C2330 1.356 . S
N2328 H2340 0.984 . S
N2328 H2341 0.985 . S
N2329 C2331 1.356 . S
N2329 H2334 0.984 . S
N2329 H2335 0.985 . S
C2330 C2324 1.379 . S
C2330 C2327 1.363 . S
C2330 N2328 1.356 . S
C2331 C2325 1.363 . S
C2331 C2326 1.379 . S
C2331 N2329 1.356 . S
N2332 C2324 1.356 . S
N2332 H2338 0.984 . S
N2332 H2339 0.984 . S
N2333 C2326 1.356 . S
N2333 H2336 0.984 . S
N2333 H2337 0.985 . S
H2334 N2329 0.984 . S
H2335 N2329 0.985 . S
H2336 N2333 0.984 . S
H2337 N2333 0.985 . S
H2338 N2332 0.984 . S
H2339 N2332 0.984 . S
H2340 N2328 0.984 . S
H2341 N2328 0.985 . S
C2342 C2343 1.363 . S
C2342 C2348 1.379 . S
C2342 N2350 1.356 . S
C2343 C2342 1.363 . S
C2343 C2349 1.363 . S
C2344 C2345 1.363 . S
C2344 C2349 1.379 . S
C2344 N2351 1.356 . S
C2345 C2344 1.363 . S
C2345 C2348 1.363 . S
N2346 C2348 1.356 . S
N2346 H2358 0.984 . S
N2346 H2359 0.985 . S
N2347 C2349 1.356 . S
N2347 H2352 0.984 . S
N2347 H2353 0.985 . S
C2348 C2342 1.379 . S
C2348 C2345 1.363 . S
C2348 N2346 1.356 . S
C2349 C2343 1.363 . S
C2349 C2344 1.379 . S
C2349 N2347 1.356 . S
N2350 C2342 1.356 . S
N2350 H2356 0.984 . S
N2350 H2357 0.984 . S
N2351 C2344 1.356 . S
N2351 H2354 0.984 . S
N2351 H2355 0.985 . S
H2352 N2347 0.984 . S
H2353 N2347 0.985 . S
H2354 N2351 0.984 . S
H2355 N2351 0.985 . S
H2356 N2350 0.984 . S
H2357 N2350 0.984 . S
H2358 N2346 0.984 . S
H2359 N2346 0.985 . S
C2360 C2361 1.363 . S
C2360 C2366 1.379 . S
C2360 N2368 1.356 . S
C2361 C2360 1.363 . S
C2361 C2367 1.363 . S
C2362 C2363 1.363 . S
C2362 C2367 1.379 . S
C2362 N2369 1.356 . S
C2363 C2362 1.363 . S
C2363 C2366 1.363 . S
N2364 C2366 1.356 . S
N2364 H2376 0.984 . S
N2364 H2377 0.985 . S
N2365 C2367 1.356 1_455 S
N2365 H2370 0.984 . S
N2365 H2371 0.985 . S
C2366 C2360 1.379 . S
C2366 C2363 1.363 . S
C2366 N2364 1.356 . S
C2367 C2361 1.363 . S
C2367 C2362 1.379 . S
C2367 N2365 1.356 1_655 S
N2368 C2360 1.356 . S
N2368 H2374 0.984 . S
N2368 H2375 0.984 . S
N2369 C2362 1.356 . S
N2369 H2372 0.984 . S
N2369 H2373 0.985 . S
H2370 N2365 0.984 . S
H2371 N2365 0.985 . S
H2372 N2369 0.984 . S
H2373 N2369 0.985 . S
H2374 N2368 0.984 . S
H2375 N2368 0.984 . S
H2376 N2364 0.984 . S
H2377 N2364 0.985 . S
C2378 C2379 1.363 . S
C2378 C2384 1.379 . S
C2378 N2386 1.356 . S
C2379 C2378 1.363 . S
C2379 C2385 1.363 . S
C2380 C2381 1.363 . S
C2380 C2385 1.379 . S
C2380 N2387 1.356 . S
C2381 C2380 1.363 . S
C2381 C2384 1.363 . S
N2382 C2384 1.356 . S
N2382 H2394 0.984 . S
N2382 H2395 0.985 . S
N2383 C2385 1.356 . S
N2383 H2388 0.984 . S
N2383 H2389 0.985 . S
C2384 C2378 1.379 . S
C2384 C2381 1.363 . S
C2384 N2382 1.356 . S
C2385 C2379 1.363 . S
C2385 C2380 1.379 . S
C2385 N2383 1.356 . S
N2386 C2378 1.356 . S
N2386 H2392 0.984 . S
N2386 H2393 0.984 . S
N2387 C2380 1.356 . S
N2387 H2390 0.984 . S
N2387 H2391 0.985 . S
H2388 N2383 0.984 . S
H2389 N2383 0.985 . S
H2390 N2387 0.984 . S
H2391 N2387 0.985 . S
H2392 N2386 0.984 . S
H2393 N2386 0.984 . S
H2394 N2382 0.984 . S
H2395 N2382 0.985 . S
C2396 C2397 1.363 . S
C2396 C2402 1.379 . S
C2396 N2404 1.356 . S
C2397 C2396 1.363 . S
C2397 C2403 1.363 . S
C2398 C2399 1.363 . S
C2398 C2403 1.379 . S
C2398 N2405 1.356 . S
C2399 C2398 1.363 . S
C2399 C2402 1.363 . S
N2400 C2402 1.356 . S
N2400 H2412 0.984 . S
N2400 H2413 0.985 . S
N2401 C2403 1.356 1_554 S
N2401 H2406 0.984 . S
N2401 H2407 0.985 . S
C2402 C2396 1.379 . S
C2402 C2399 1.363 . S
C2402 N2400 1.356 . S
C2403 C2397 1.363 . S
C2403 C2398 1.379 . S
C2403 N2401 1.356 1_556 S
N2404 C2396 1.356 . S
N2404 H2410 0.984 . S
N2404 H2411 0.984 . S
N2405 C2398 1.356 . S
N2405 H2408 0.984 . S
N2405 H2409 0.985 . S
H2406 N2401 0.984 . S
H2407 N2401 0.985 . S
H2408 N2405 0.984 . S
H2409 N2405 0.985 . S
H2410 N2404 0.984 . S
H2411 N2404 0.984 . S
H2412 N2400 0.984 . S
H2413 N2400 0.985 . S
C2414 C2415 1.363 . S
C2414 C2420 1.379 . S
C2414 N2422 1.356 . S
C2415 C2414 1.363 . S
C2415 C2421 1.363 . S
C2416 C2417 1.363 . S
C2416 C2421 1.379 . S
C2416 N2423 1.356 . S
C2417 C2416 1.363 . S
C2417 C2420 1.363 . S
N2418 C2420 1.356 . S
N2418 H2430 0.984 . S
N2418 H2431 0.985 . S
N2419 C2421 1.356 . S
N2419 H2424 0.984 . S
N2419 H2425 0.985 . S
C2420 C2414 1.379 . S
C2420 C2417 1.363 . S
C2420 N2418 1.356 . S
C2421 C2415 1.363 . S
C2421 C2416 1.379 . S
C2421 N2419 1.356 . S
N2422 C2414 1.356 . S
N2422 H2428 0.984 . S
N2422 H2429 0.984 . S
N2423 C2416 1.356 . S
N2423 H2426 0.984 . S
N2423 H2427 0.985 . S
H2424 N2419 0.984 . S
H2425 N2419 0.985 . S
H2426 N2423 0.984 . S
H2427 N2423 0.985 . S
H2428 N2422 0.984 . S
H2429 N2422 0.984 . S
H2430 N2418 0.984 . S
H2431 N2418 0.985 . S
C2432 C2433 1.363 . S
C2432 C2438 1.379 . S
C2432 N2440 1.356 . S
C2433 C2432 1.363 . S
C2433 C2439 1.363 . S
C2434 C2435 1.363 . S
C2434 C2439 1.379 . S
C2434 N2441 1.356 . S
C2435 C2434 1.363 . S
C2435 C2438 1.363 . S
N2436 C2438 1.356 . S
N2436 H2448 0.984 . S
N2436 H2449 0.985 . S
N2437 C2439 1.356 . S
N2437 H2442 0.984 . S
N2437 H2443 0.985 . S
C2438 C2432 1.379 . S
C2438 C2435 1.363 . S
C2438 N2436 1.356 . S
C2439 C2433 1.363 . S
C2439 C2434 1.379 . S
C2439 N2437 1.356 . S
N2440 C2432 1.356 . S
N2440 H2446 0.984 . S
N2440 H2447 0.984 . S
N2441 C2434 1.356 . S
N2441 H2444 0.984 . S
N2441 H2445 0.985 . S
H2442 N2437 0.984 . S
H2443 N2437 0.985 . S
H2444 N2441 0.984 . S
H2445 N2441 0.985 . S
H2446 N2440 0.984 . S
H2447 N2440 0.984 . S
H2448 N2436 0.984 . S
H2449 N2436 0.985 . S
C2450 C2451 1.363 . S
C2450 C2456 1.379 . S
C2450 N2458 1.356 . S
C2451 C2450 1.363 . S
C2451 C2457 1.363 . S
C2452 C2453 1.363 . S
C2452 C2457 1.379 . S
C2452 N2459 1.356 . S
C2453 C2452 1.363 . S
C2453 C2456 1.363 . S
N2454 C2456 1.356 . S
N2454 H2466 0.984 . S
N2454 H2467 0.985 . S
N2455 C2457 1.356 . S
N2455 H2460 0.984 . S
N2455 H2461 0.985 . S
C2456 C2450 1.379 . S
C2456 C2453 1.363 . S
C2456 N2454 1.356 . S
C2457 C2451 1.363 . S
C2457 C2452 1.379 . S
C2457 N2455 1.356 . S
N2458 C2450 1.356 . S
N2458 H2464 0.984 . S
N2458 H2465 0.984 . S
N2459 C2452 1.356 . S
N2459 H2462 0.984 . S
N2459 H2463 0.985 . S
H2460 N2455 0.984 . S
H2461 N2455 0.985 . S
H2462 N2459 0.984 . S
H2463 N2459 0.985 . S
H2464 N2458 0.984 . S
H2465 N2458 0.984 . S
H2466 N2454 0.984 . S
H2467 N2454 0.985 . S
C2468 C2469 1.363 . S
C2468 C2474 1.379 1_655 S
C2468 N2476 1.356 . S
C2469 C2468 1.363 . S
C2469 C2475 1.363 1_655 S
C2470 C2471 1.363 . S
C2470 C2475 1.379 . S
C2470 N2477 1.356 . S
C2471 C2470 1.363 . S
C2471 C2474 1.363 . S
N2472 C2474 1.356 . S
N2472 H2484 0.999 . S
N2472 H2485 0.985 . S
N2473 C2475 1.356 1_554 S
N2473 H2478 0.984 1_455 S
N2473 H2479 0.985 . S
C2474 C2468 1.379 1_455 S
C2474 C2471 1.363 . S
C2474 N2472 1.356 . S
C2475 C2469 1.363 1_455 S
C2475 C2470 1.379 . S
C2475 N2473 1.356 1_556 S
N2476 C2468 1.356 . S
N2476 H2482 0.984 . S
N2476 H2483 0.984 . S
N2477 C2470 1.356 . S
N2477 H2480 0.984 . S
N2477 H2481 0.985 . S
H2478 N2473 0.984 1_655 S
H2479 N2473 0.985 . S
H2480 N2477 0.984 . S
H2481 N2477 0.985 . S
H2482 N2476 0.984 . S
H2483 N2476 0.984 . S
H2484 N2472 0.999 . S
H2485 N2472 0.985 . S
C2486 C2487 1.363 1_554 S
C2486 C2492 1.379 . S
C2486 N2494 1.356 . S
C2487 C2486 1.363 1_556 S
C2487 C2493 1.363 . S
C2488 C2489 1.363 . S
C2488 C2493 1.379 1_554 S
C2488 N2495 1.356 . S
C2489 C2488 1.363 . S
C2489 C2492 1.363 . S
N2490 C2492 1.356 . S
N2490 H2502 0.984 . S
N2490 H2503 0.985 . S
N2491 C2493 1.356 . S
N2491 H2496 0.984 . S
N2491 H2497 0.985 . S
C2492 C2486 1.379 . S
C2492 C2489 1.363 . S
C2492 N2490 1.356 . S
C2493 C2487 1.363 . S
C2493 C2488 1.379 1_556 S
C2493 N2491 1.356 . S
N2494 C2486 1.356 . S
N2494 H2500 0.984 . S
N2494 H2501 0.984 1_554 S
N2495 C2488 1.356 . S
N2495 H2498 0.984 . S
N2495 H2499 0.985 1_554 S
H2496 N2491 0.984 . S
H2497 N2491 0.985 . S
H2498 N2495 0.984 . S
H2499 N2495 0.985 1_556 S
H2500 N2494 0.984 . S
H2501 N2494 0.984 1_556 S
H2502 N2490 0.984 . S
H2503 N2490 0.985 . S
C2504 C2505 1.363 . S
C2504 C2510 1.379 . S
C2504 N2512 1.356 . S
C2505 C2504 1.363 . S
C2505 C2511 1.363 . S
C2506 C2507 1.363 . S
C2506 C2511 1.379 . S
C2506 N2513 1.356 . S
C2507 C2506 1.363 . S
C2507 C2510 1.363 . S
N2508 C2510 1.356 . S
N2508 H2520 0.984 . S
N2508 H2521 0.985 . S
N2509 C2511 1.356 . S
N2509 H2514 0.984 . S
N2509 H2515 0.985 . S
C2510 C2504 1.379 . S
C2510 C2507 1.363 . S
C2510 N2508 1.356 . S
C2511 C2505 1.363 . S
C2511 C2506 1.379 . S
C2511 N2509 1.356 . S
N2512 C2504 1.356 . S
N2512 H2518 0.984 . S
N2512 H2519 0.984 . S
N2513 C2506 1.356 . S
N2513 H2516 0.984 . S
N2513 H2517 0.985 . S
H2514 N2509 0.984 . S
H2515 N2509 0.985 . S
H2516 N2513 0.984 . S
H2517 N2513 0.985 . S
H2518 N2512 0.984 . S
H2519 N2512 0.984 . S
H2520 N2508 0.984 . S
H2521 N2508 0.985 . S
C2522 C2523 1.363 . S
C2522 C2528 1.379 . S
C2522 N2530 1.356 . S
C2523 C2522 1.363 . S
C2523 C2529 1.363 . S
C2524 C2525 1.363 . S
C2524 C2529 1.379 . S
C2524 N2531 1.356 . S
C2525 C2524 1.363 . S
C2525 C2528 1.363 . S
N2526 C2528 1.356 . S
N2526 H2538 0.984 . S
N2526 H2539 0.985 . S
N2527 C2529 1.356 . S
N2527 H2532 0.984 . S
N2527 H2533 0.985 . S
C2528 C2522 1.379 . S
C2528 C2525 1.363 . S
C2528 N2526 1.356 . S
C2529 C2523 1.363 . S
C2529 C2524 1.379 . S
C2529 N2527 1.356 . S
N2530 C2522 1.356 . S
N2530 H2536 0.984 . S
N2530 H2537 0.984 . S
N2531 C2524 1.356 . S
N2531 H2534 0.984 . S
N2531 H2535 0.985 . S
H2532 N2527 0.984 . S
H2533 N2527 0.985 . S
H2534 N2531 0.984 . S
H2535 N2531 0.985 . S
H2536 N2530 0.984 . S
H2537 N2530 0.984 . S
H2538 N2526 0.984 . S
H2539 N2526 0.985 . S
C2540 C2541 1.363 . S
C2540 C2546 1.379 . S
C2540 N2548 1.356 . S
C2541 C2540 1.363 . S
C2541 C2547 1.363 . S
C2542 C2543 1.363 . S
C2542 C2547 1.379 . S
C2542 N2549 1.356 . S
C2543 C2542 1.363 . S
C2543 C2546 1.363 . S
N2544 C2546 1.356 . S
N2544 H2556 0.984 . S
N2544 H2557 0.985 . S
N2545 C2547 1.356 . S
N2545 H2550 0.984 . S
N2545 H2551 0.985 . S
C2546 C2540 1.379 . S
C2546 C2543 1.363 . S
C2546 N2544 1.356 . S
C2547 C2541 1.363 . S
C2547 C2542 1.379 . S
C2547 N2545 1.356 . S
N2548 C2540 1.356 . S
N2548 H2554 0.984 . S
N2548 H2555 0.979 1_655 S
N2549 C2542 1.356 . S
N2549 H2552 0.984 . S
N2549 H2553 0.985 . S
H2550 N2545 0.984 . S
H2551 N2545 0.985 . S
H2552 N2549 0.984 . S
H2553 N2549 0.985 . S
H2554 N2548 0.984 . S
H2555 N2548 0.979 1_455 S
H2556 N2544 0.984 . S
H2557 N2544 0.985 . S
C2558 C2559 1.363 . S
C2558 C2564 1.379 . S
C2558 N2566 1.356 . S
C2559 C2558 1.363 . S
C2559 C2565 1.363 . S
C2560 C2561 1.363 . S
C2560 C2565 1.379 . S
C2560 N2567 1.356 . S
C2561 C2560 1.363 . S
C2561 C2564 1.363 . S
N2562 C2564 1.356 . S
N2562 H2574 0.984 . S
N2562 H2575 0.985 . S
N2563 C2565 1.356 . S
N2563 H2568 0.984 . S
N2563 H2569 0.985 . S
C2564 C2558 1.379 . S
C2564 C2561 1.363 . S
C2564 N2562 1.356 . S
C2565 C2559 1.363 . S
C2565 C2560 1.379 . S
C2565 N2563 1.356 . S
N2566 C2558 1.356 . S
N2566 H2572 0.984 . S
N2566 H2573 0.984 . S
N2567 C2560 1.356 . S
N2567 H2570 0.984 . S
N2567 H2571 0.985 . S
H2568 N2563 0.984 . S
H2569 N2563 0.985 . S
H2570 N2567 0.984 . S
H2571 N2567 0.985 . S
H2572 N2566 0.984 . S
H2573 N2566 0.984 . S
H2574 N2562 0.984 . S
H2575 N2562 0.985 . S
C2576 C2577 1.363 . S
C2576 C2582 1.379 . S
C2576 N2584 1.356 . S
C2577 C2576 1.363 . S
C2577 C2583 1.363 . S
C2578 C2579 1.363 . S
C2578 C2583 1.379 . S
C2578 N2585 1.356 . S
C2579 C2578 1.363 . S
C2579 C2582 1.363 . S
N2580 C2582 1.356 . S
N2580 H2592 0.984 . S
N2580 H2593 0.985 . S
N2581 C2583 1.356 . S
N2581 H2586 0.984 . S
N2581 H2587 0.985 . S
C2582 C2576 1.379 . S
C2582 C2579 1.363 . S
C2582 N2580 1.356 . S
C2583 C2577 1.363 . S
C2583 C2578 1.379 . S
C2583 N2581 1.356 . S
N2584 C2576 1.356 . S
N2584 H2590 0.984 . S
N2584 H2591 0.984 . S
N2585 C2578 1.356 . S
N2585 H2588 0.984 . S
N2585 H2589 0.985 . S
H2586 N2581 0.984 . S
H2587 N2581 0.985 . S
H2588 N2585 0.984 . S
H2589 N2585 0.985 . S
H2590 N2584 0.984 . S
H2591 N2584 0.984 . S
H2592 N2580 0.984 . S
H2593 N2580 0.985 . S
C2594 C2595 1.363 . S
C2594 C2600 1.379 . S
C2594 N2602 1.356 . S
C2595 C2594 1.363 . S
C2595 C2601 1.363 . S
C2596 C2597 1.363 . S
C2596 C2601 1.379 . S
C2596 N2603 1.356 . S
C2597 C2596 1.363 . S
C2597 C2600 1.363 . S
N2598 C2600 1.356 . S
N2598 H2610 0.984 . S
N2598 H2611 0.985 . S
N2599 C2601 1.356 . S
N2599 H2604 0.984 . S
N2599 H2605 0.985 . S
C2600 C2594 1.379 . S
C2600 C2597 1.363 . S
C2600 N2598 1.356 . S
C2601 C2595 1.363 . S
C2601 C2596 1.379 . S
C2601 N2599 1.356 . S
N2602 C2594 1.356 . S
N2602 H2608 0.984 . S
N2602 H2609 0.984 . S
N2603 C2596 1.356 . S
N2603 H2606 0.984 . S
N2603 H2607 0.985 . S
H2604 N2599 0.984 . S
H2605 N2599 0.985 . S
H2606 N2603 0.984 . S
H2607 N2603 0.985 . S
H2608 N2602 0.984 . S
H2609 N2602 0.984 . S
H2610 N2598 0.984 . S
H2611 N2598 0.985 . S
C2612 C2613 1.363 1_655 S
C2612 C2618 1.379 . S
C2612 N2620 1.356 1_655 S
C2613 C2612 1.363 1_455 S
C2613 C2619 1.363 1_455 S
C2614 C2615 1.363 . S
C2614 C2619 1.379 . S
C2614 N2621 1.356 . S
C2615 C2614 1.363 . S
C2615 C2618 1.363 . S
N2616 C2618 1.356 . S
N2616 H2628 0.984 . S
N2616 H2629 0.985 . S
N2617 C2619 1.356 1_455 S
N2617 H2622 0.984 . S
N2617 H2623 0.985 . S
C2618 C2612 1.379 . S
C2618 C2615 1.363 . S
C2618 N2616 1.356 . S
C2619 C2613 1.363 1_655 S
C2619 C2614 1.379 . S
C2619 N2617 1.356 1_655 S
N2620 C2612 1.356 1_455 S
N2620 H2626 0.984 . S
N2620 H2627 0.984 . S
N2621 C2614 1.356 . S
N2621 H2624 0.984 . S
N2621 H2625 0.985 . S
H2622 N2617 0.984 . S
H2623 N2617 0.985 . S
H2624 N2621 0.984 . S
H2625 N2621 0.985 . S
H2626 N2620 0.984 . S
H2627 N2620 0.984 . S
H2628 N2616 0.984 . S
H2629 N2616 0.985 . S
C2630 C2631 1.363 . S
C2630 C2636 1.379 . S
C2630 N2638 1.356 . S
C2631 C2630 1.363 . S
C2631 C2637 1.363 . S
C2632 C2633 1.363 . S
C2632 C2637 1.379 . S
C2632 N2639 1.356 . S
C2633 C2632 1.363 . S
C2633 C2636 1.363 . S
N2634 C2636 1.356 . S
N2634 H2646 0.984 . S
N2634 H2647 0.985 . S
N2635 C2637 1.356 . S
N2635 H2640 0.984 . S
N2635 H2641 0.985 . S
C2636 C2630 1.379 . S
C2636 C2633 1.363 . S
C2636 N2634 1.356 . S
C2637 C2631 1.363 . S
C2637 C2632 1.379 . S
C2637 N2635 1.356 . S
N2638 C2630 1.356 . S
N2638 H2644 0.984 . S
N2638 H2645 0.984 . S
N2639 C2632 1.356 . S
N2639 H2642 0.984 . S
N2639 H2643 0.985 . S
H2640 N2635 0.984 . S
H2641 N2635 0.985 . S
H2642 N2639 0.984 . S
H2643 N2639 0.985 . S
H2644 N2638 0.984 . S
H2645 N2638 0.984 . S
H2646 N2634 0.984 . S
H2647 N2634 0.985 . S
C2648 C2649 1.363 . S
C2648 C2654 1.379 . S
C2648 N2656 1.356 . S
C2649 C2648 1.363 . S
C2649 C2655 1.363 . S
C2650 C2651 1.363 . S
C2650 C2655 1.379 . S
C2650 N2657 1.356 . S
C2651 C2650 1.363 . S
C2651 C2654 1.363 . S
N2652 C2654 1.356 . S
N2652 H2664 0.984 . S
N2652 H2665 0.985 1_556 S
N2653 C2655 1.356 . S
N2653 H2658 0.984 . S
N2653 H2659 0.985 . S
C2654 C2648 1.379 . S
C2654 C2651 1.363 . S
C2654 N2652 1.356 . S
C2655 C2649 1.363 . S
C2655 C2650 1.379 . S
C2655 N2653 1.356 . S
N2656 C2648 1.356 . S
N2656 H2662 0.984 . S
N2656 H2663 0.984 . S
N2657 C2650 1.356 . S
N2657 H2660 0.984 . S
N2657 H2661 0.985 . S
H2658 N2653 0.984 . S
H2659 N2653 0.985 . S
H2660 N2657 0.984 . S
H2661 N2657 0.985 . S
H2662 N2656 0.984 . S
H2663 N2656 0.984 . S
H2664 N2652 0.984 . S
H2665 N2652 0.985 1_554 S
C2666 C2667 1.363 . S
C2666 C2672 1.379 . S
C2666 N2674 1.356 . S
C2667 C2666 1.363 . S
C2667 C2673 1.363 . S
C2668 C2669 1.363 . S
C2668 C2673 1.379 . S
C2668 N2675 1.356 . S
C2669 C2668 1.363 . S
C2669 C2672 1.363 . S
N2670 C2672 1.356 . S
N2670 H2682 0.984 . S
N2670 H2683 0.985 . S
N2671 C2673 1.356 . S
N2671 H2676 0.984 . S
N2671 H2677 0.985 . S
C2672 C2666 1.379 . S
C2672 C2669 1.363 . S
C2672 N2670 1.356 . S
C2673 C2667 1.363 . S
C2673 C2668 1.379 . S
C2673 N2671 1.356 . S
N2674 C2666 1.356 . S
N2674 H2680 0.984 . S
N2674 H2681 0.984 . S
N2675 C2668 1.356 . S
N2675 H2678 0.984 . S
N2675 H2679 0.985 . S
H2676 N2671 0.984 . S
H2677 N2671 0.985 . S
H2678 N2675 0.984 . S
H2679 N2675 0.985 . S
H2680 N2674 0.984 . S
H2681 N2674 0.984 . S
H2682 N2670 0.984 . S
H2683 N2670 0.985 . S
C2684 C2685 1.363 . S
C2684 C2690 1.379 . S
C2684 N2692 1.356 . S
C2685 C2684 1.363 . S
C2685 C2691 1.363 . S
C2686 C2687 1.363 . S
C2686 C2691 1.379 . S
C2686 N2693 1.356 1_455 S
C2687 C2686 1.363 . S
C2687 C2690 1.363 . S
N2688 C2690 1.356 . S
N2688 H2700 0.984 . S
N2688 H2701 0.985 . S
N2689 C2691 1.356 . S
N2689 H2694 0.984 . S
N2689 H2695 0.985 . S
C2690 C2684 1.379 . S
C2690 C2687 1.363 . S
C2690 N2688 1.356 . S
C2691 C2685 1.363 . S
C2691 C2686 1.379 . S
C2691 N2689 1.356 . S
N2692 C2684 1.356 . S
N2692 H2698 0.984 . S
N2692 H2699 0.984 . S
N2693 C2686 1.356 1_655 S
N2693 H2696 0.984 . S
N2693 H2697 0.985 . S
H2694 N2689 0.984 . S
H2695 N2689 0.985 . S
H2696 N2693 0.984 . S
H2697 N2693 0.985 . S
H2698 N2692 0.984 . S
H2699 N2692 0.984 . S
H2700 N2688 0.984 . S
H2701 N2688 0.985 . S
C2702 C2703 1.363 1_554 S
C2702 C2708 1.379 . S
C2702 N2710 1.356 1_554 S
C2703 C2702 1.363 1_556 S
C2703 C2709 1.363 . S
C2704 C2705 1.363 . S
C2704 C2709 1.379 1_554 S
C2704 N2711 1.356 . S
C2705 C2704 1.363 . S
C2705 C2708 1.363 . S
N2706 C2708 1.356 . S
N2706 H2718 0.984 . S
N2706 H2719 0.985 . S
N2707 C2709 1.356 . S
N2707 H2712 0.984 . S
N2707 H2713 0.985 . S
C2708 C2702 1.379 . S
C2708 C2705 1.363 . S
C2708 N2706 1.356 . S
C2709 C2703 1.363 . S
C2709 C2704 1.379 1_556 S
C2709 N2707 1.356 . S
N2710 C2702 1.356 1_556 S
N2710 H2716 0.984 . S
N2710 H2717 0.984 . S
N2711 C2704 1.356 . S
N2711 H2714 0.984 . S
N2711 H2715 0.985 . S
H2712 N2707 0.984 . S
H2713 N2707 0.985 . S
H2714 N2711 0.984 . S
H2715 N2711 0.985 . S
H2716 N2710 0.984 . S
H2717 N2710 0.984 . S
H2718 N2706 0.984 . S
H2719 N2706 0.985 . S
C2720 C2721 1.363 . S
C2720 C2726 1.379 . S
C2720 N2728 1.356 . S
C2721 C2720 1.363 . S
C2721 C2727 1.363 . S
C2722 C2723 1.363 . S
C2722 C2727 1.379 . S
C2722 N2729 1.356 . S
C2723 C2722 1.363 . S
C2723 C2726 1.363 . S
N2724 C2726 1.356 . S
N2724 H2736 0.984 . S
N2724 H2737 0.985 . S
N2725 C2727 1.356 . S
N2725 H2730 0.984 . S
N2725 H2731 0.985 . S
C2726 C2720 1.379 . S
C2726 C2723 1.363 . S
C2726 N2724 1.356 . S
C2727 C2721 1.363 . S
C2727 C2722 1.379 . S
C2727 N2725 1.356 . S
N2728 C2720 1.356 . S
N2728 H2734 0.984 . S
N2728 H2735 0.984 . S
N2729 C2722 1.356 . S
N2729 H2732 0.984 . S
N2729 H2733 0.985 . S
H2730 N2725 0.984 . S
H2731 N2725 0.985 . S
H2732 N2729 0.984 . S
H2733 N2729 0.985 . S
H2734 N2728 0.984 . S
H2735 N2728 0.984 . S
H2736 N2724 0.984 . S
H2737 N2724 0.985 . S
C2738 C2739 1.363 . S
C2738 C2744 1.379 1_556 S
C2738 N2746 1.356 . S
C2739 C2738 1.363 . S
C2739 C2745 1.363 . S
C2740 C2741 1.363 1_556 S
C2740 C2745 1.379 . S
C2740 N2747 1.356 1_556 S
C2741 C2740 1.363 1_554 S
C2741 C2744 1.363 . S
N2742 C2744 1.356 . S
N2742 H2754 0.984 . S
N2742 H2755 0.985 . S
N2743 C2745 1.356 . S
N2743 H2748 0.984 . S
N2743 H2749 0.985 . S
C2744 C2738 1.379 1_554 S
C2744 C2741 1.363 . S
C2744 N2742 1.356 . S
C2745 C2739 1.363 . S
C2745 C2740 1.379 . S
C2745 N2743 1.356 . S
N2746 C2738 1.356 . S
N2746 H2752 0.984 . S
N2746 H2753 0.984 . S
N2747 C2740 1.356 1_554 S
N2747 H2750 0.984 . S
N2747 H2751 0.985 1_554 S
H2748 N2743 0.984 . S
H2749 N2743 0.985 . S
H2750 N2747 0.984 . S
H2751 N2747 0.985 1_556 S
H2752 N2746 0.984 . S
H2753 N2746 0.984 . S
H2754 N2742 0.984 . S
H2755 N2742 0.985 . S
C2756 C2757 1.363 . S
C2756 C2762 1.379 . S
C2756 N2764 1.356 . S
C2757 C2756 1.363 . S
C2757 C2763 1.363 . S
C2758 C2759 1.363 . S
C2758 C2763 1.379 . S
C2758 N2765 1.356 . S
C2759 C2758 1.363 . S
C2759 C2762 1.363 . S
N2760 C2762 1.356 . S
N2760 H2772 0.984 . S
N2760 H2773 0.985 . S
N2761 C2763 1.356 . S
N2761 H2766 0.984 . S
N2761 H2767 0.985 . S
C2762 C2756 1.379 . S
C2762 C2759 1.363 . S
C2762 N2760 1.356 . S
C2763 C2757 1.363 . S
C2763 C2758 1.379 . S
C2763 N2761 1.356 . S
N2764 C2756 1.356 . S
N2764 H2770 0.984 . S
N2764 H2771 0.984 . S
N2765 C2758 1.356 . S
N2765 H2768 0.984 . S
N2765 H2769 0.985 . S
H2766 N2761 0.984 . S
H2767 N2761 0.985 . S
H2768 N2765 0.984 . S
H2769 N2765 0.985 . S
H2770 N2764 0.984 . S
H2771 N2764 0.984 . S
H2772 N2760 0.984 . S
H2773 N2760 0.985 . S
C2774 C2775 1.363 . S
C2774 C2780 1.379 . S
C2774 N2782 1.356 . S
C2775 C2774 1.363 . S
C2775 C2781 1.363 . S
C2776 C2777 1.363 . S
C2776 C2781 1.379 . S
C2776 N2783 1.356 . S
C2777 C2776 1.363 . S
C2777 C2780 1.363 . S
N2778 C2780 1.356 . S
N2778 H2790 0.984 . S
N2778 H2791 0.985 . S
N2779 C2781 1.356 . S
N2779 H2784 0.984 . S
N2779 H2785 0.985 . S
C2780 C2774 1.379 . S
C2780 C2777 1.363 . S
C2780 N2778 1.356 . S
C2781 C2775 1.363 . S
C2781 C2776 1.379 . S
C2781 N2779 1.356 . S
N2782 C2774 1.356 . S
N2782 H2788 0.984 . S
N2782 H2789 0.984 . S
N2783 C2776 1.356 . S
N2783 H2786 0.984 . S
N2783 H2787 0.985 . S
H2784 N2779 0.984 . S
H2785 N2779 0.985 . S
H2786 N2783 0.984 . S
H2787 N2783 0.985 . S
H2788 N2782 0.984 . S
H2789 N2782 0.984 . S
H2790 N2778 0.984 . S
H2791 N2778 0.985 . S
C2792 C2793 1.363 . S
C2792 C2798 1.379 . S
C2792 N2800 1.356 . S
C2793 C2792 1.363 . S
C2793 C2799 1.363 . S
C2794 C2795 1.363 . S
C2794 C2799 1.379 . S
C2794 N2801 1.356 . S
C2795 C2794 1.363 . S
C2795 C2798 1.363 . S
N2796 C2798 1.356 . S
N2796 H2808 0.984 . S
N2796 H2809 0.985 . S
N2797 C2799 1.356 . S
N2797 H2802 0.984 . S
N2797 H2803 0.985 . S
C2798 C2792 1.379 . S
C2798 C2795 1.363 . S
C2798 N2796 1.356 . S
C2799 C2793 1.363 . S
C2799 C2794 1.379 . S
C2799 N2797 1.356 . S
N2800 C2792 1.356 . S
N2800 H2806 0.984 . S
N2800 H2807 0.984 . S
N2801 C2794 1.356 . S
N2801 H2804 0.984 . S
N2801 H2805 0.985 . S
H2802 N2797 0.984 . S
H2803 N2797 0.985 . S
H2804 N2801 0.984 . S
H2805 N2801 0.985 . S
H2806 N2800 0.984 . S
H2807 N2800 0.984 . S
H2808 N2796 0.984 . S
H2809 N2796 0.985 . S
C2810 C2811 1.363 . S
C2810 C2816 1.379 . S
C2810 N2818 1.356 . S
C2811 C2810 1.363 . S
C2811 C2817 1.363 . S
C2812 C2813 1.363 . S
C2812 C2817 1.379 . S
C2812 N2819 1.356 . S
C2813 C2812 1.363 . S
C2813 C2816 1.363 . S
N2814 C2816 1.356 . S
N2814 H2826 0.984 . S
N2814 H2827 0.985 . S
N2815 C2817 1.356 . S
N2815 H2820 0.984 . S
N2815 H2821 0.985 . S
C2816 C2810 1.379 . S
C2816 C2813 1.363 . S
C2816 N2814 1.356 . S
C2817 C2811 1.363 . S
C2817 C2812 1.379 . S
C2817 N2815 1.356 . S
N2818 C2810 1.356 . S
N2818 H2824 0.984 . S
N2818 H2825 0.984 . S
N2819 C2812 1.356 . S
N2819 H2822 0.984 . S
N2819 H2823 0.985 . S
H2820 N2815 0.984 . S
H2821 N2815 0.985 . S
H2822 N2819 0.984 . S
H2823 N2819 0.985 . S
H2824 N2818 0.984 . S
H2825 N2818 0.984 . S
H2826 N2814 0.984 . S
H2827 N2814 0.985 . S
C2828 C2829 1.363 . S
C2828 C2834 1.379 . S
C2828 N2836 1.356 . S
C2829 C2828 1.363 . S
C2829 C2835 1.363 . S
C2830 C2831 1.363 . S
C2830 C2835 1.379 . S
C2830 N2837 1.356 . S
C2831 C2830 1.363 . S
C2831 C2834 1.363 . S
N2832 C2834 1.356 . S
N2832 H2844 0.984 . S
N2832 H2845 0.985 . S
N2833 C2835 1.356 1_556 S
N2833 H2838 0.984 . S
N2833 H2839 0.985 . S
C2834 C2828 1.379 . S
C2834 C2831 1.363 . S
C2834 N2832 1.356 . S
C2835 C2829 1.363 . S
C2835 C2830 1.379 . S
C2835 N2833 1.356 1_554 S
N2836 C2828 1.356 . S
N2836 H2842 0.984 . S
N2836 H2843 0.984 1_554 S
N2837 C2830 1.356 . S
N2837 H2840 0.984 . S
N2837 H2841 0.985 . S
H2838 N2833 0.984 . S
H2839 N2833 0.985 . S
H2840 N2837 0.984 . S
H2841 N2837 0.985 . S
H2842 N2836 0.984 . S
H2843 N2836 0.984 1_556 S
H2844 N2832 0.984 . S
H2845 N2832 0.985 . S
C2846 C2847 1.363 . S
C2846 C2852 1.379 . S
C2846 N2854 1.356 . S
C2847 C2846 1.363 . S
C2847 C2853 1.363 . S
C2848 C2849 1.363 . S
C2848 C2853 1.379 . S
C2848 N2855 1.356 . S
C2849 C2848 1.363 . S
C2849 C2852 1.363 . S
N2850 C2852 1.356 . S
N2850 H2862 0.984 . S
N2850 H2863 0.985 . S
N2851 C2853 1.356 . S
N2851 H2856 0.984 . S
N2851 H2857 0.985 . S
C2852 C2846 1.379 . S
C2852 C2849 1.363 . S
C2852 N2850 1.356 . S
C2853 C2847 1.363 . S
C2853 C2848 1.379 . S
C2853 N2851 1.356 . S
N2854 C2846 1.356 . S
N2854 H2860 0.984 . S
N2854 H2861 0.984 . S
N2855 C2848 1.356 . S
N2855 H2858 0.984 . S
N2855 H2859 0.985 . S
H2856 N2851 0.984 . S
H2857 N2851 0.985 . S
H2858 N2855 0.984 . S
H2859 N2855 0.985 . S
H2860 N2854 0.984 . S
H2861 N2854 0.984 . S
H2862 N2850 0.984 . S
H2863 N2850 0.985 . S
C2864 C2865 1.363 . S
C2864 C2870 1.379 . S
C2864 N2872 1.356 . S
C2865 C2864 1.363 . S
C2865 C2871 1.363 1_565 S
C2866 C2867 1.363 . S
C2866 C2871 1.379 . S
C2866 N2873 1.356 . S
C2867 C2866 1.363 . S
C2867 C2870 1.363 1_545 S
N2868 C2870 1.356 . S
N2868 H2880 0.984 . S
N2868 H2881 0.985 . S
N2869 C2871 1.356 . S
N2869 H2874 0.984 1_545 S
N2869 H2875 0.985 . S
C2870 C2864 1.379 . S
C2870 C2867 1.363 1_565 S
C2870 N2868 1.356 . S
C2871 C2865 1.363 1_545 S
C2871 C2866 1.379 . S
C2871 N2869 1.356 . S
N2872 C2864 1.356 . S
N2872 H2878 0.984 . S
N2872 H2879 0.984 . S
N2873 C2866 1.356 . S
N2873 H2876 0.984 . S
N2873 H2877 0.985 . S
H2874 N2869 0.984 1_565 S
H2875 N2869 0.985 . S
H2876 N2873 0.984 . S
H2877 N2873 0.985 . S
H2878 N2872 0.984 . S
H2879 N2872 0.984 . S
H2880 N2868 0.984 . S
H2881 N2868 0.985 . S
C2882 C2883 1.363 . S
C2882 C2888 1.379 . S
C2882 N2890 1.356 . S
C2883 C2882 1.363 . S
C2883 C2889 1.363 . S
C2884 C2885 1.363 . S
C2884 C2889 1.379 . S
C2884 N2891 1.356 . S
C2885 C2884 1.363 . S
C2885 C2888 1.363 . S
N2886 C2888 1.356 . S
N2886 H2898 0.984 . S
N2886 H2899 0.985 . S
N2887 C2889 1.356 . S
N2887 H2892 0.984 . S
N2887 H2893 0.985 . S
C2888 C2882 1.379 . S
C2888 C2885 1.363 . S
C2888 N2886 1.356 . S
C2889 C2883 1.363 . S
C2889 C2884 1.379 . S
C2889 N2887 1.356 . S
N2890 C2882 1.356 . S
N2890 H2896 0.984 . S
N2890 H2897 0.984 . S
N2891 C2884 1.356 . S
N2891 H2894 0.984 . S
N2891 H2895 0.985 . S
H2892 N2887 0.984 . S
H2893 N2887 0.985 . S
H2894 N2891 0.984 . S
H2895 N2891 0.985 . S
H2896 N2890 0.984 . S
H2897 N2890 0.984 . S
H2898 N2886 0.984 . S
H2899 N2886 0.985 . S
C2900 C2901 1.363 . S
C2900 C2906 1.379 . S
C2900 N2908 1.356 . S
C2901 C2900 1.363 . S
C2901 C2907 1.363 . S
C2902 C2903 1.365 . S
C2902 C2907 1.382 . S
C2902 N2909 1.351 1_545 S
C2903 C2902 1.365 . S
C2903 C2906 1.363 . S
N2904 C2906 1.356 . S
N2904 H2916 0.984 . S
N2904 H2917 0.985 . S
N2905 C2907 1.356 . S
N2905 H2910 0.984 . S
N2905 H2911 0.985 . S
C2906 C2900 1.379 . S
C2906 C2903 1.363 . S
C2906 N2904 1.356 . S
C2907 C2901 1.363 . S
C2907 C2902 1.382 . S
C2907 N2905 1.356 . S
N2908 C2900 1.356 . S
N2908 H2914 0.984 . S
N2908 H2915 0.984 . S
N2909 C2902 1.351 1_565 S
N2909 H2912 0.984 . S
N2909 H2913 0.985 . S
H2910 N2905 0.984 . S
H2911 N2905 0.985 . S
H2912 N2909 0.984 . S
H2913 N2909 0.985 . S
H2914 N2908 0.984 . S
H2915 N2908 0.984 . S
H2916 N2904 0.984 . S
H2917 N2904 0.985 . S
C2918 C2919 1.363 . S
C2918 C2924 1.379 . S
C2918 N2926 1.356 . S
C2919 C2918 1.363 . S
C2919 C2925 1.363 . S
C2920 C2921 1.363 . S
C2920 C2925 1.379 . S
C2920 N2927 1.356 . S
C2921 C2920 1.363 . S
C2921 C2924 1.363 . S
N2922 C2924 1.356 . S
N2922 H2934 0.984 . S
N2922 H2935 0.985 . S
N2923 C2925 1.356 . S
N2923 H2928 0.984 . S
N2923 H2929 0.985 . S
C2924 C2918 1.379 . S
C2924 C2921 1.363 . S
C2924 N2922 1.356 . S
C2925 C2919 1.363 . S
C2925 C2920 1.379 . S
C2925 N2923 1.356 . S
N2926 C2918 1.356 . S
N2926 H2932 0.984 . S
N2926 H2933 0.984 . S
N2927 C2920 1.356 . S
N2927 H2930 0.984 . S
N2927 H2931 0.985 . S
H2928 N2923 0.984 . S
H2929 N2923 0.985 . S
H2930 N2927 0.984 . S
H2931 N2927 0.985 . S
H2932 N2926 0.984 . S
H2933 N2926 0.984 . S
H2934 N2922 0.984 . S
H2935 N2922 0.985 . S
C2936 C2937 1.363 1_545 S
C2936 C2942 1.379 . S
C2936 N2944 1.356 . S
C2937 C2936 1.363 1_565 S
C2937 C2943 1.363 . S
C2938 C2939 1.363 1_565 S
C2938 C2943 1.379 . S
C2938 N2945 1.356 . S
C2939 C2938 1.363 1_545 S
C2939 C2942 1.363 . S
N2940 C2942 1.356 . S
N2940 H2952 0.984 . S
N2940 H2953 0.985 . S
N2941 C2943 1.356 . S
N2941 H2946 0.984 . S
N2941 H2947 0.985 . S
C2942 C2936 1.379 . S
C2942 C2939 1.363 . S
C2942 N2940 1.356 . S
C2943 C2937 1.363 . S
C2943 C2938 1.379 . S
C2943 N2941 1.356 . S
N2944 C2936 1.356 . S
N2944 H2950 0.984 . S
N2944 H2951 0.984 . S
N2945 C2938 1.356 . S
N2945 H2948 0.960 1_564 S
N2945 H2949 0.985 . S
H2946 N2941 0.984 . S
H2947 N2941 0.985 . S
H2948 N2945 0.960 1_546 S
H2949 N2945 0.985 . S
H2950 N2944 0.984 . S
H2951 N2944 0.984 . S
H2952 N2940 0.984 . S
H2953 N2940 0.985 . S
C2954 C2955 1.363 . S
C2954 C2960 1.379 . S
C2954 N2962 1.356 . S
C2955 C2954 1.363 . S
C2955 C2961 1.363 . S
C2956 C2957 1.363 . S
C2956 C2961 1.379 . S
C2956 N2963 1.356 . S
C2957 C2956 1.363 . S
C2957 C2960 1.363 . S
N2958 C2960 1.356 . S
N2958 H2970 0.984 . S
N2958 H2971 0.985 . S
N2959 C2961 1.356 . S
N2959 H2964 0.984 . S
N2959 H2965 0.985 . S
C2960 C2954 1.379 . S
C2960 C2957 1.363 . S
C2960 N2958 1.356 . S
C2961 C2955 1.363 . S
C2961 C2956 1.379 . S
C2961 N2959 1.356 . S
N2962 C2954 1.356 . S
N2962 H2968 0.984 . S
N2962 H2969 0.984 . S
N2963 C2956 1.356 . S
N2963 H2966 0.984 . S
N2963 H2967 0.985 . S
H2964 N2959 0.984 . S
H2965 N2959 0.985 . S
H2966 N2963 0.984 . S
H2967 N2963 0.985 . S
H2968 N2962 0.984 . S
H2969 N2962 0.984 . S
H2970 N2958 0.984 . S
H2971 N2958 0.985 . S
C2972 C2973 1.363 . S
C2972 C2978 1.379 1_565 S
C2972 N2980 1.356 . S
C2973 C2972 1.363 . S
C2973 C2979 1.363 . S
C2974 C2975 1.363 . S
C2974 C2979 1.379 . S
C2974 N2981 1.356 . S
C2975 C2974 1.363 . S
C2975 C2978 1.363 1_565 S
N2976 C2978 1.356 . S
N2976 H2988 0.984 . S
N2976 H2989 0.985 . S
N2977 C2979 1.356 . S
N2977 H2982 0.984 . S
N2977 H2983 0.985 . S
C2978 C2972 1.379 1_545 S
C2978 C2975 1.363 1_545 S
C2978 N2976 1.356 . S
C2979 C2973 1.363 . S
C2979 C2974 1.379 . S
C2979 N2977 1.356 . S
N2980 C2972 1.356 . S
N2980 H2986 0.984 1_565 S
N2980 H2987 0.984 . S
N2981 C2974 1.356 . S
N2981 H2984 0.984 . S
N2981 H2985 0.985 . S
H2982 N2977 0.984 . S
H2983 N2977 0.985 . S
H2984 N2981 0.984 . S
H2985 N2981 0.985 . S
H2986 N2980 0.984 1_545 S
H2987 N2980 0.984 . S
H2988 N2976 0.984 . S
H2989 N2976 0.985 . S
C2990 C2991 1.363 . S
C2990 C2996 1.379 . S
C2990 N2998 1.356 . S
C2991 C2990 1.363 . S
C2991 C2997 1.363 . S
C2992 C2993 1.363 . S
C2992 C2997 1.379 . S
C2992 N2999 1.356 . S
C2993 C2992 1.363 . S
C2993 C2996 1.363 . S
N2994 C2996 1.356 . S
N2994 H3006 0.984 . S
N2994 H3007 0.985 . S
N2995 C2997 1.356 . S
N2995 H3000 0.984 . S
N2995 H3001 0.985 . S
C2996 C2990 1.379 . S
C2996 C2993 1.363 . S
C2996 N2994 1.356 . S
C2997 C2991 1.363 . S
C2997 C2992 1.379 . S
C2997 N2995 1.356 . S
N2998 C2990 1.356 . S
N2998 H3004 0.984 . S
N2998 H3005 0.984 . S
N2999 C2992 1.356 . S
N2999 H3002 0.984 . S
N2999 H3003 0.985 . S
H3000 N2995 0.984 . S
H3001 N2995 0.985 . S
H3002 N2999 0.984 . S
H3003 N2999 0.985 . S
H3004 N2998 0.984 . S
H3005 N2998 0.984 . S
H3006 N2994 0.984 . S
H3007 N2994 0.985 . S
C1281 C10 0.376 . S
C1283 C175 0.324 . S
C1299 C215 0.401 . S
C1301 C50 0.398 . S
C1317 C90 0.362 . S
C1319 C255 0.485 . S
C1335 C295 0.440 . S
C1337 C135 0.542 . S
C1353 C339 0.376 . S
C1355 C486 0.324 . S
C1371 C379 0.398 . S
C1373 C526 0.400 . S
C1389 C566 0.485 . S
C1391 C419 0.361 . S
C1407 C446 0.542 . S
C1409 C606 0.440 . S
C1425 C815 0.324 . S
C1427 C650 0.377 . S
C1443 C690 0.398 . S
C1445 C855 0.401 . S
C1461 C730 0.361 . S
C1463 C895 0.485 . S
C1479 C775 0.541 . S
C1481 C935 0.440 . S
C1497 C979 0.377 . S
C1499 C1126 0.325 . S
C1515 C1166 0.400 . S
C1517 C1019 0.398 . S
C1533 C1059 0.362 . S
C1535 C1206 0.485 . S
C1551 C1246 0.440 . S
C1553 C1086 0.542 . S
C1569 C849 2.436 . S
C1571 C18 2.365 . S
C1587 C889 1.861 . S
C1589 C58 1.821 . S
C1605 C929 2.618 . S
C1607 C98 2.588 . S
C1623 C129 1.690 . S
C1625 C809 1.704 1_556 S
C1641 C169 1.705 . S
C1643 C769 1.691 . S
C1659 C658 2.365 . S
C1661 C209 2.436 . S
C1677 C249 1.860 1_556 S
C1679 C698 1.821 . S
C1695 C289 2.618 . S
C1697 C738 2.588 . S
C1713 C329 2.365 . S
C1715 C1178 2.435 . S
C1731 C1218 1.860 . S
C1733 C369 1.821 . S
C1749 C1258 2.618 . S
C1751 C409 2.588 . S
C1767 C458 1.690 . S
C1769 C1138 1.705 . S
C1785 C498 1.704 . S
C1787 C1098 1.690 . S
C1803 C538 2.436 . S
C1805 C969 2.365 . S
C1821 C578 1.860 . S
C1823 C1009 1.821 . S
C1839 C618 2.618 . S
C1841 C1049 2.588 . S
C1857 C338 1.619 . S
C1859 C9 1.619 . S
C1875 C49 1.544 . S
C1877 C1018 1.544 . S
C1893 C418 1.448 . S
C1895 C89 1.448 . S
C1911 C138 1.450 . S
C1913 C1089 1.450 . S
C1929 C489 1.471 . S
C1931 C178 1.471 . S
C1947 C1169 1.646 . S
C1949 C218 1.646 . S
C1965 C258 1.627 . S
C1967 C569 1.627 . S
C1983 C298 1.402 . S
C1985 C1249 1.402 . S
C2001 C689 1.543 . S
C2003 C378 1.543 . S
C2019 C778 1.451 . S
C2021 C449 1.451 . S
C2037 C529 1.646 . S
C2039 C858 1.646 . S
C2055 C938 1.403 . S
C2057 C609 1.403 . S
C2073 C978 1.619 . S
C2075 C649 1.619 . S
C2091 C1058 1.448 . S
C2093 C729 1.448 . S
C2109 C1129 1.471 . S
C2111 C818 1.471 . S
C2127 C898 1.627 . S
C2129 C1209 1.627 . S
C2145 C19 2.367 . S
C2147 C490 2.394 . S
C2163 C1170 2.066 . S
C2165 C59 2.031 . S
C2181 C570 2.396 . S
C2183 C99 2.356 . S
C2199 C126 1.353 . S
C2201 C1250 1.424 . S
C2217 C335 0.944 1_455 S
C2219 C166 0.929 . S
C2235 C1015 1.088 . S
C2237 C206 1.075 . S
C2253 C415 0.815 . S
C2255 C246 0.810 . S
C2271 C1090 1.720 . S
C2273 C286 1.649 . S
C2289 C179 2.394 . S
C2291 C330 2.362 . S
C2307 C859 2.066 . S
C2309 C370 2.031 . S
C2325 C259 2.396 . S
C2327 C410 2.356 . S
C2343 C455 1.353 . S
C2345 C939 1.424 . S
C2361 C6 0.944 1_655 S
C2363 C495 0.929 . S
C2379 C686 1.089 . S
C2381 C535 1.075 . S
C2397 C575 0.811 1_556 S
C2399 C86 0.816 . S
C2415 C615 1.649 . S
C2417 C779 1.720 . S
C2433 C1130 2.394 . S
C2435 C659 2.361 . S
C2451 C530 2.066 . S
C2453 C699 2.031 . S
C2469 C739 2.356 1_556 S
C2471 C1210 2.396 . S
C2487 C610 1.424 . S
C2489 C766 1.353 . S
C2505 C806 0.929 . S
C2507 C975 0.944 . S
C2523 C846 1.075 . S
C2525 C375 1.089 . S
C2541 C1055 0.816 . S
C2543 C886 0.811 . S
C2559 C450 1.719 . S
C2561 C926 1.649 . S
C2577 C970 2.361 . S
C2579 C819 2.394 . S
C2595 C1010 2.031 . S
C2597 C219 2.066 . S
C2613 C1050 2.356 . S
C2615 C899 2.396 . S
C2631 C1095 1.352 . S
C2633 C299 1.423 . S
C2649 C646 0.944 . S
C2651 C1135 0.929 . S
C2667 C46 1.089 . S
C2669 C1175 1.075 . S
C2685 C1215 0.811 . S
C2687 C726 0.815 . S
C2703 C139 1.720 . S
C2705 C1255 1.649 . S
C2721 C170 2.330 . S
C2723 C15 2.261 . S
C2739 C210 2.227 . S
C2741 C55 2.196 . S
C2757 C95 2.228 . S
C2759 C250 2.283 . S
C2775 C290 3.151 . S
C2777 C130 3.162 . S
C2793 C499 2.330 . S
C2795 C326 2.261 . S
C2811 C366 2.196 . S
C2813 C539 2.227 . S
C2829 C406 2.228 1_554 S
C2831 C579 2.283 . S
C2847 C619 3.151 . S
C2849 C459 3.162 . S
C2865 C655 2.261 . S
C2867 C810 2.330 . S
C2883 C850 2.227 . S
C2885 C695 2.196 . S
C2901 C735 2.229 . S
C2903 C890 2.283 1_545 S
C2919 C770 3.162 . S
C2921 C930 3.151 1_554 S
C2937 C1139 2.330 . S
C2939 C966 2.261 1_554 S
C2955 C1179 2.227 . S
C2957 C1006 2.196 . S
C2973 C1046 2.228 . S
C2975 C1219 2.283 1_565 S
C2991 C1259 3.151 . S
C2993 C1099 3.162 . S
