# Generated by pormake.
# Topology smd, (6)-cn, num edge types: 1
# Building blocks:
#     Node 0, Type 0, BuildingBlock: BETDIP_clean_sbu_0, # of connection points: 6
#     Node 1, Type 0, BuildingBlock: BETDIP_clean_sbu_0, # of connection points: 6
#     Node 2, Type 0, BuildingBlock: BETDIP_clean_sbu_0, # of connection points: 6
#     Node 3, Type 0, BuildingBlock: BETDIP_clean_sbu_0, # of connection points: 6
#     Node 4, Type 0, BuildingBlock: BETDIP_clean_sbu_0, # of connection points: 6
#     Node 5, Type 0, BuildingBlock: BETDIP_clean_sbu_0, # of connection points: 6
#     Node 6, Type 0, BuildingBlock: BETDIP_clean_sbu_0, # of connection points: 6
#     Node 7, Type 0, BuildingBlock: BETDIP_clean_sbu_0, # of connection points: 6
#     Node 8, Type 0, BuildingBlock: BETDIP_clean_sbu_0, # of connection points: 6
#     Node 9, Type 0, BuildingBlock: BETDIP_clean_sbu_0, # of connection points: 6
#     Node 10, Type 0, BuildingBlock: BETDIP_clean_sbu_0, # of connection points: 6
#     Node 11, Type 0, BuildingBlock: BETDIP_clean_sbu_0, # of connection points: 6
#     Node 12, Type 0, BuildingBlock: BETDIP_clean_sbu_0, # of connection points: 6
#     Node 13, Type 0, BuildingBlock: BETDIP_clean_sbu_0, # of connection points: 6
#     Node 14, Type 0, BuildingBlock: BETDIP_clean_sbu_0, # of connection points: 6
#     Node 15, Type 0, BuildingBlock: BETDIP_clean_sbu_0, # of connection points: 6
#     Node 16, Type 0, BuildingBlock: BETDIP_clean_sbu_0, # of connection points: 6
#     Node 17, Type 0, BuildingBlock: BETDIP_clean_sbu_0, # of connection points: 6
#     Edge 18, Type (0, 0), BuildingBlock: KIFKEQ_clean_linker_1, # of connection points: 2
#     Edge 19, Type (0, 0), BuildingBlock: KIFKEQ_clean_linker_1, # of connection points: 2
#     Edge 20, Type (0, 0), BuildingBlock: KIFKEQ_clean_linker_1, # of connection points: 2
#     Edge 21, Type (0, 0), BuildingBlock: KIFKEQ_clean_linker_1, # of connection points: 2
#     Edge 22, Type (0, 0), BuildingBlock: KIFKEQ_clean_linker_1, # of connection points: 2
#     Edge 23, Type (0, 0), BuildingBlock: KIFKEQ_clean_linker_1, # of connection points: 2
#     Edge 24, Type (0, 0), BuildingBlock: KIFKEQ_clean_linker_1, # of connection points: 2
#     Edge 25, Type (0, 0), BuildingBlock: KIFKEQ_clean_linker_1, # of connection points: 2
#     Edge 26, Type (0, 0), BuildingBlock: KIFKEQ_clean_linker_1, # of connection points: 2
#     Edge 27, Type (0, 0), BuildingBlock: KIFKEQ_clean_linker_1, # of connection points: 2
#     Edge 28, Type (0, 0), BuildingBlock: KIFKEQ_clean_linker_1, # of connection points: 2
#     Edge 29, Type (0, 0), BuildingBlock: KIFKEQ_clean_linker_1, # of connection points: 2
#     Edge 30, Type (0, 0), BuildingBlock: KIFKEQ_clean_linker_1, # of connection points: 2
#     Edge 31, Type (0, 0), BuildingBlock: KIFKEQ_clean_linker_1, # of connection points: 2
#     Edge 32, Type (0, 0), BuildingBlock: KIFKEQ_clean_linker_1, # of connection points: 2
#     Edge 33, Type (0, 0), BuildingBlock: KIFKEQ_clean_linker_1, # of connection points: 2
#     Edge 34, Type (0, 0), BuildingBlock: KIFKEQ_clean_linker_1, # of connection points: 2
#     Edge 35, Type (0, 0), BuildingBlock: KIFKEQ_clean_linker_1, # of connection points: 2
#     Edge 36, Type (0, 0), BuildingBlock: KIFKEQ_clean_linker_1, # of connection points: 2
#     Edge 37, Type (0, 0), BuildingBlock: KIFKEQ_clean_linker_1, # of connection points: 2
#     Edge 38, Type (0, 0), BuildingBlock: KIFKEQ_clean_linker_1, # of connection points: 2
#     Edge 39, Type (0, 0), BuildingBlock: KIFKEQ_clean_linker_1, # of connection points: 2
#     Edge 40, Type (0, 0), BuildingBlock: KIFKEQ_clean_linker_1, # of connection points: 2
#     Edge 41, Type (0, 0), BuildingBlock: KIFKEQ_clean_linker_1, # of connection points: 2
#     Edge 42, Type (0, 0), BuildingBlock: KIFKEQ_clean_linker_1, # of connection points: 2
#     Edge 43, Type (0, 0), BuildingBlock: KIFKEQ_clean_linker_1, # of connection points: 2
#     Edge 44, Type (0, 0), BuildingBlock: KIFKEQ_clean_linker_1, # of connection points: 2
#     Edge 45, Type (0, 0), BuildingBlock: KIFKEQ_clean_linker_1, # of connection points: 2
#     Edge 46, Type (0, 0), BuildingBlock: KIFKEQ_clean_linker_1, # of connection points: 2
#     Edge 47, Type (0, 0), BuildingBlock: KIFKEQ_clean_linker_1, # of connection points: 2
#     Edge 48, Type (0, 0), BuildingBlock: KIFKEQ_clean_linker_1, # of connection points: 2
#     Edge 49, Type (0, 0), BuildingBlock: KIFKEQ_clean_linker_1, # of connection points: 2
#     Edge 50, Type (0, 0), BuildingBlock: KIFKEQ_clean_linker_1, # of connection points: 2
#     Edge 51, Type (0, 0), BuildingBlock: KIFKEQ_clean_linker_1, # of connection points: 2
#     Edge 52, Type (0, 0), BuildingBlock: KIFKEQ_clean_linker_1, # of connection points: 2
#     Edge 53, Type (0, 0), BuildingBlock: KIFKEQ_clean_linker_1, # of connection points: 2
#     Edge 54, Type (0, 0), BuildingBlock: KIFKEQ_clean_linker_1, # of connection points: 2
#     Edge 55, Type (0, 0), BuildingBlock: KIFKEQ_clean_linker_1, # of connection points: 2
#     Edge 56, Type (0, 0), BuildingBlock: KIFKEQ_clean_linker_1, # of connection points: 2
#     Edge 57, Type (0, 0), BuildingBlock: KIFKEQ_clean_linker_1, # of connection points: 2
#     Edge 58, Type (0, 0), BuildingBlock: KIFKEQ_clean_linker_1, # of connection points: 2
#     Edge 59, Type (0, 0), BuildingBlock: KIFKEQ_clean_linker_1, # of connection points: 2
#     Edge 60, Type (0, 0), BuildingBlock: KIFKEQ_clean_linker_1, # of connection points: 2
#     Edge 61, Type (0, 0), BuildingBlock: KIFKEQ_clean_linker_1, # of connection points: 2
#     Edge 62, Type (0, 0), BuildingBlock: KIFKEQ_clean_linker_1, # of connection points: 2
#     Edge 63, Type (0, 0), BuildingBlock: KIFKEQ_clean_linker_1, # of connection points: 2
#     Edge 64, Type (0, 0), BuildingBlock: KIFKEQ_clean_linker_1, # of connection points: 2
#     Edge 65, Type (0, 0), BuildingBlock: KIFKEQ_clean_linker_1, # of connection points: 2
#     Edge 66, Type (0, 0), BuildingBlock: KIFKEQ_clean_linker_1, # of connection points: 2
#     Edge 67, Type (0, 0), BuildingBlock: KIFKEQ_clean_linker_1, # of connection points: 2
#     Edge 68, Type (0, 0), BuildingBlock: KIFKEQ_clean_linker_1, # of connection points: 2
#     Edge 69, Type (0, 0), BuildingBlock: KIFKEQ_clean_linker_1, # of connection points: 2
#     Edge 70, Type (0, 0), BuildingBlock: KIFKEQ_clean_linker_1, # of connection points: 2
#     Edge 71, Type (0, 0), BuildingBlock: KIFKEQ_clean_linker_1, # of connection points: 2
# Relax obj value: 0.285
# Max RMSD: 0.356
# Mean RMSD: 0.324
data_MOF--net-smd--node1-BETDIP_clean_sbu_0--edge1-KIFKEQ_clean_linker_1
_symmetry_space_group_name_H-M    P1
_symmetry_Int_Tables_number       1
_symmetry_cell_setting            triclinic
loop_
_symmetry_equiv_pos_as_xyz
'x, y, z'
_cell_length_a     66.053398
_cell_length_b     66.084496
_cell_length_c     25.491686
_cell_angle_alpha  93.328588
_cell_angle_beta   93.419465
_cell_angle_gamma 120.03361
loop_
_atom_site_label
_atom_site_type_symbol
_atom_site_fract_x
_atom_site_fract_y
_atom_site_fract_z
_atom_type_partial_charge
Tb0 Tb 0.03729 0.25284 0.57371 0.0
Tb1 Tb 1.01004 0.23205 0.47374 0.0
C2 C 0.0519 0.26699 0.67028 0.0
C3 C 0.04484 0.26126 0.72423 0.0
C4 C 0.02751 0.2649 0.74499 0.0
C5 C 1.02288 0.26149 0.7978 0.0
C6 C 0.03554 0.25447 0.83121 0.0
C7 C 0.05249 0.25039 0.80987 0.0
C8 C 0.05712 0.25382 0.75726 0.0
C9 C 0.06055 0.24091 0.50972 0.0
C10 C 0.99398 0.19854 0.55789 0.0
C11 C 0.99273 0.21845 0.37838 0.0
C12 C 0.99855 0.22409 0.32401 0.0
C13 C 1.02167 0.2343 0.3101 0.0
C14 C 0.02625 0.23854 0.2575 0.0
C15 C 1.00778 0.23253 0.21781 0.0
C16 C 0.98475 0.2227 0.23245 0.0
C17 C 0.98023 0.21854 0.28484 0.0
C18 C 0.99106 0.2487 0.54316 0.0
C19 C 0.05223 0.28351 0.47756 0.0
O20 O 0.04094 0.27484 0.64096 0.0
O21 O 0.05614 0.25247 0.64274 0.0
O22 O 0.03843 0.22859 0.51379 0.0
O23 O 0.06947 0.25969 0.54223 0.0
O24 O 1.00639 0.21822 0.5907 0.0
O25 O 0.99602 0.19931 0.50722 0.0
O26 O 1.00398 0.21003 0.40464 0.0
O27 O 0.99018 0.23362 0.40807 0.0
O28 O 1.01203 0.25806 0.53285 0.0
O29 O 0.97941 0.22909 0.51304 0.0
O30 O 0.03953 0.2631 0.4493 0.0
O31 O 0.05226 0.28478 0.52999 0.0
H32 H 1.01785 0.27085 0.72086 0.0
H33 H 1.00986 0.26504 0.81284 0.0
H34 H 0.06231 0.24458 0.8339 0.0
H35 H 0.0707 0.25105 0.7426 0.0
H36 H 0.03611 0.23872 0.33968 0.0
H37 H 0.04418 0.246 0.24772 0.0
H38 H 0.97014 0.21826 0.20337 0.0
H39 H 0.96228 0.21076 0.29473 0.0
Tb40 Tb 0.79291 0.78046 0.47876 0.0
Tb41 Tb 0.79601 0.80401 0.58823 0.0
C42 C 0.77652 0.76088 0.38625 0.0
C43 C 0.78313 0.76305 0.33191 0.0
C44 C 0.76562 0.75005 0.29016 0.0
C45 C 0.77066 0.75333 0.23781 0.0
C46 C 0.79339 0.76975 0.22605 0.0
C47 C 0.81108 0.78242 0.26824 0.0
C48 C 0.80597 0.77914 0.32076 0.0
C49 C 0.83702 0.7992 0.52149 0.0
C50 C 0.80771 0.83571 0.49752 0.0
C51 C 0.8033 0.82013 0.68378 0.0
C52 C 0.80584 0.81382 0.73736 0.0
C53 C 0.81957 0.83183 0.7777 0.0
C54 C 0.82053 0.82675 0.82996 0.0
C55 C 0.80769 0.8035 0.84308 0.0
C56 C 0.79458 0.78534 0.80216 0.0
C57 C 0.79364 0.79046 0.74976 0.0
C58 C 0.75634 0.78789 0.52351 0.0
C59 C 0.78117 0.7503 0.57929 0.0
O60 O 0.77432 0.77814 0.40725 0.0
O61 O 0.78722 0.75406 0.41967 0.0
O62 O 0.82033 0.79995 0.5423 0.0
O63 O 0.82913 0.78887 0.47414 0.0
O64 O 0.79813 0.81605 0.46422 0.0
O65 O 0.81258 0.83534 0.54819 0.0
O66 O 0.82019 0.82435 0.65389 0.0
O67 O 0.78241 0.80805 0.65753 0.0
O68 O 0.7688 0.77873 0.53083 0.0
O69 O 0.76586 0.80729 0.55468 0.0
O70 O 0.78983 0.77022 0.60986 0.0
O71 O 0.77888 0.74963 0.52657 0.0
H72 H 0.74781 0.73778 0.29808 0.0
H73 H 0.75648 0.74357 0.20662 0.0
H74 H 0.82882 0.79502 0.26072 0.0
H75 H 0.81968 0.78947 0.35259 0.0
H76 H 0.82917 0.84995 0.76895 0.0
H77 H 0.83115 0.84112 0.86024 0.0
H78 H 0.78436 0.76726 0.81081 0.0
H79 H 0.78292 0.77627 0.71925 0.0
Tb80 Tb 0.25147 1.00681 0.55736 0.0
Tb81 Tb 0.24981 0.02872 0.46474 0.0
C82 C 0.2565 0.99584 0.64867 0.0
C83 C 0.25686 1.00307 0.70508 0.0
C84 C 0.27806 0.01935 0.73535 0.0
C85 C 0.27853 0.02431 0.78975 0.0
C86 C 0.25784 1.01307 0.81507 0.0
C87 C 0.23665 0.99704 0.78458 0.0
C88 C 0.23618 0.99204 0.73038 0.0
C89 C 0.21202 0.98029 0.49483 0.0
C90 C 0.23816 0.04804 0.56092 0.0
C91 C 0.24397 0.04014 0.3747 0.0
C92 C 0.24591 0.03548 0.31851 0.0
C93 C 0.22938 0.03497 0.28057 0.0
C94 C 0.23151 0.03239 0.22678 0.0
C95 C 0.25035 0.03039 0.20964 0.0
C96 C 0.26657 0.03021 0.24784 0.0
C97 C 0.26437 0.03273 0.30186 0.0
C98 C 0.29009 0.05195 0.52966 0.0
C99 C 0.26471 0.9902 0.4533 0.0
O100 O 0.27398 1.00987 0.62314 0.0
O101 O 0.23641 0.9866 0.61957 0.0
O102 O 0.2218 1.00249 0.50614 0.0
O103 O 0.22492 0.97314 0.5177 0.0
O104 O 0.24864 0.03822 0.58697 0.0
O105 O 0.23234 0.04258 0.51001 0.0
O106 O 0.22731 0.02296 0.39654 0.0
O107 O 0.26348 0.05163 0.40612 0.0
O108 O 0.27811 0.03041 0.515 0.0
O109 O 0.27971 0.06183 0.50688 0.0
O110 O 0.25467 1.00065 0.42964 0.0
O111 O 0.26837 0.99255 0.50581 0.0
H112 H 0.29437 0.02796 0.71724 0.0
H113 H 0.29512 0.03689 0.81203 0.0
H114 H 0.22047 0.98776 0.80289 0.0
H115 H 0.21964 0.97907 0.70854 0.0
H116 H 0.21494 0.03693 0.2926 0.0
H117 H 0.21839 0.03205 0.19858 0.0
H118 H 0.28133 0.02879 0.23607 0.0
H119 H 0.2773 0.03298 0.33051 0.0
Tb120 Tb 0.03232 0.79833 0.58733 0.0
Tb121 Tb 1.00919 0.78515 0.48257 0.0
C122 C 0.05073 0.81554 0.68054 0.0
C123 C 0.04448 0.81059 0.73511 0.0
C124 C 0.04759 0.82892 0.77155 0.0
C125 C 0.04287 0.82502 0.82402 0.0
C126 C 0.03508 0.8027 0.84142 0.0
C127 C 0.03173 0.78427 0.80468 0.0
C128 C 0.03627 0.78813 0.75206 0.0
C129 C 0.04902 0.77902 0.51843 0.0
C130 C 0.99024 0.74883 0.57352 0.0
C131 C 0.99283 0.76685 0.3888 0.0
C132 C 0.99921 0.77222 0.33423 0.0
C133 C 1.01253 0.76397 0.30931 0.0
C134 C 1.01708 0.76765 0.25662 0.0
C135 C 1.00832 0.77956 0.22733 0.0
C136 C 0.99527 0.78806 0.25261 0.0
C137 C 0.9907 0.78435 0.30518 0.0
C138 C 0.99174 0.80577 0.54239 0.0
C139 C 0.05265 0.83683 0.50679 0.0
O140 O 0.03894 0.82284 0.65216 0.0
O141 O 0.05422 0.80045 0.65298 0.0
O142 O 0.04317 0.79398 0.51139 0.0
O143 O 0.04604 0.77426 0.56689 0.0
O144 O 1.00213 0.76736 0.60776 0.0
O145 O 0.99211 0.75114 0.52189 0.0
O146 O 1.00587 0.76157 0.41898 0.0
O147 O 0.98683 0.78029 0.415 0.0
O148 O 0.99731 0.79084 0.55659 0.0
O149 O 0.99675 0.80964 0.49441 0.0
O150 O 0.04049 0.81913 0.4691 0.0
O151 O 0.04948 0.83289 0.55665 0.0
H152 H 0.05398 0.84639 0.75955 0.0
H153 H 0.04586 0.83966 0.8513 0.0
H154 H 0.02546 0.7668 0.81655 0.0
H155 H 0.03355 0.77358 0.72484 0.0
H156 H 1.01911 0.75428 0.3302 0.0
H157 H 0.02694 0.76058 0.23845 0.0
H158 H 0.98854 0.79763 0.23177 0.0
H159 H 0.98021 0.79078 0.32284 0.0
Tb160 Tb 0.25104 0.23116 0.46988 0.0
Tb161 Tb 0.24773 0.25323 0.56667 0.0
C162 C 0.25031 0.21548 0.37646 0.0
C163 C 0.25222 0.22234 0.322 0.0
C164 C 0.24177 0.23477 0.30245 0.0
C165 C 0.24285 0.23974 0.24956 0.0
C166 C 0.25432 0.23227 0.21519 0.0
C167 C 0.26517 0.22029 0.23549 0.0
C168 C 0.26411 0.21538 0.28821 0.0
C169 C 0.28922 0.24946 0.54134 0.0
C170 C 0.2623 0.28338 0.46924 0.0
C171 C 0.24899 0.2684 0.66101 0.0
C172 C 0.25004 0.26271 0.71623 0.0
C173 C 0.27055 0.26491 0.74223 0.0
C174 C 0.27163 0.26152 0.79594 0.0
C175 C 0.25229 0.25598 0.82489 0.0
C176 C 0.23169 0.25335 0.79836 0.0
C177 C 0.23063 0.25676 0.74488 0.0
C178 C 0.21004 0.239 0.49872 0.0
C179 C 0.23709 0.19929 0.55734 0.0
O180 O 0.23154 0.21175 0.39854 0.0
O181 O 0.26929 0.22677 0.40948 0.0
O182 O 0.27688 0.25826 0.52844 0.0
O183 O 0.28052 0.22946 0.51299 0.0
O184 O 0.25412 0.2629 0.44165 0.0
O185 O 0.26419 0.2848 0.52192 0.0
O186 O 0.26756 0.27498 0.63566 0.0
O187 O 0.22962 0.25454 0.63059 0.0
O188 O 0.22052 0.22746 0.50759 0.0
O189 O 0.22113 0.25875 0.52808 0.0
O190 O 0.24553 0.2194 0.5885 0.0
O191 O 0.23348 0.19919 0.50628 0.0
H192 H 0.23244 0.24029 0.32773 0.0
H193 H 0.23417 0.24886 0.23526 0.0
H194 H 0.27452 0.21465 0.21059 0.0
H195 H 0.27236 0.20584 0.30248 0.0
H196 H 0.28593 0.2697 0.72149 0.0
H197 H 0.28786 0.2639 0.81511 0.0
H198 H 0.21631 0.24869 0.81898 0.0
H199 H 0.21466 0.25512 0.72606 0.0
Tb200 Tb 0.79414 1.00668 0.58213 0.0
Tb201 Tb 0.79843 0.03159 0.49164 0.0
C202 C 0.79451 0.99257 0.67191 0.0
C203 C 0.79421 0.999 0.72838 0.0
C204 C 0.81487 1.0081 0.76291 0.0
C205 C 0.81447 1.01176 0.81726 0.0
C206 C 0.79333 1.00618 0.83856 0.0
C207 C 0.77276 0.99772 0.80386 0.0
C208 C 0.77318 0.99411 0.74936 0.0
C209 C 0.75689 0.98553 0.50814 0.0
C210 C 0.78195 0.04711 0.59196 0.0
C211 C 0.79874 0.04571 0.40166 0.0
C212 C 0.79741 0.03862 0.34505 0.0
C213 C 0.77915 1.01709 0.31981 0.0
C214 C 0.77798 1.01173 0.26529 0.0
C215 C 0.7951 0.02775 0.23528 0.0
C216 C 0.8134 0.04914 0.26098 0.0
C217 C 0.81449 0.0545 0.31517 0.0
C218 C 0.83485 0.05641 0.56354 0.0
C219 C 0.80901 0.98844 0.49009 0.0
O220 O 0.81349 1.00611 0.64983 0.0
O221 O 0.77543 0.98555 0.64025 0.0
O222 O 0.76878 1.00688 0.52499 0.0
O223 O 0.76542 0.97467 0.53386 0.0
O224 O 0.78956 0.03484 0.61666 0.0
O225 O 0.7815 0.04698 0.53966 0.0
O226 O 0.7798 0.03452 0.42575 0.0
O227 O 0.81766 0.05005 0.43086 0.0
O228 O 0.82517 0.03429 0.55026 0.0
O229 O 0.82354 0.06428 0.53689 0.0
O230 O 0.80071 0.99977 0.46232 0.0
O231 O 0.81213 0.99217 0.54155 0.0
H232 H 0.8313 1.01188 0.74802 0.0
H233 H 0.83072 0.0187 0.8427 0.0
H234 H 0.75615 0.99305 0.81893 0.0
H235 H 0.75688 0.98687 0.72394 0.0
H236 H 0.76572 1.00451 0.34199 0.0
H237 H 0.76378 0.99503 0.24667 0.0
H238 H 0.82664 0.06202 0.23896 0.0
H239 H 0.82859 0.0713 0.33374 0.0
Tb240 Tb 0.68092 0.57625 0.77701 0.0
Tb241 Tb 0.70678 0.58278 0.88413 0.0
C242 C 0.6726 0.58616 0.6874 0.0
C243 C 0.66973 0.57805 0.63074 0.0
C244 C 0.68628 0.57363 0.60852 0.0
C245 C 0.68544 0.5697 0.55372 0.0
C246 C 0.66794 0.56994 0.51983 0.0
C247 C 0.6507 0.57318 0.54248 0.0
C248 C 0.65167 0.5773 0.59731 0.0
C249 C 0.65925 0.53486 0.81574 0.0
C250 C 0.72369 0.56521 0.79174 0.0
C251 C 0.72072 0.58619 0.97993 0.0
C252 C 0.7107 0.58169 0.03126 0.0
C253 C 0.69815 0.59226 0.04946 0.0
C254 C 0.69036 0.58905 0.09981 0.0
C255 C 0.69489 0.57517 0.13297 0.0
C256 C 0.70692 0.56414 0.11409 0.0
C257 C 0.71479 0.56744 0.06386 0.0
C258 C 0.72473 0.61866 0.82361 0.0
C259 C 0.66187 0.58717 0.88043 0.0
O260 O 0.69368 0.59484 0.71194 0.0
O261 O 0.65598 0.57313 0.71647 0.0
O262 O 0.67718 0.5536 0.83782 0.0
O263 O 0.65448 0.53894 0.76894 0.0
O264 O 0.7113 0.57131 0.75959 0.0
O265 O 0.72128 0.56459 0.8426 0.0
O266 O 0.7148 0.56775 0.94671 0.0
O267 O 0.72117 0.60352 0.95647 0.0
O268 O 0.7037 0.60532 0.83124 0.0
O269 O 0.73719 0.61215 0.85117 0.0
O270 O 0.67435 0.57975 0.90621 0.0
O271 O 0.66373 0.59016 0.82921 0.0
H272 H 0.70046 0.57412 0.6333 0.0
H273 H 0.69918 0.56754 0.53795 0.0
H274 H 0.63669 0.57302 0.5178 0.0
H275 H 0.63873 0.58069 0.61352 0.0
H276 H 0.69467 0.60332 0.02523 0.0
H277 H 0.68089 0.59755 0.11294 0.0
H278 H 0.71093 0.55356 0.13882 0.0
H279 H 0.72454 0.55921 0.05085 0.0
Tb280 Tb 0.46948 0.12736 0.78791 0.0
Tb281 Tb 0.46566 0.14447 0.89068 0.0
C282 C 0.46339 0.10618 0.69719 0.0
C283 C 0.46353 0.11119 0.64132 0.0
C284 C 0.46168 0.1303 0.62579 0.0
C285 C 0.46224 0.13477 0.57251 0.0
C286 C 0.46472 0.12027 0.53368 0.0
C287 C 0.46644 0.10109 0.54975 0.0
C288 C 0.46587 0.09665 0.60287 0.0
C289 C 0.5109 0.15007 0.84556 0.0
C290 C 0.47945 0.17937 0.80203 0.0
C291 C 0.46819 0.16377 0.98139 0.0
C292 C 0.46824 0.15849 0.03721 0.0
C293 C 0.48152 0.14896 0.05787 0.0
C294 C 0.48127 0.14444 0.1111 0.0
C295 C 0.46759 0.14913 0.14469 0.0
C296 C 0.45422 0.1585 0.12355 0.0
C297 C 0.4546 0.16315 0.07059 0.0
C298 C 0.42595 0.12252 0.82367 0.0
C299 C 0.45619 0.09463 0.88563 0.0
O300 O 0.44635 0.10517 0.72259 0.0
O301 O 0.48356 0.11754 0.72617 0.0
O302 O 0.49132 0.13581 0.86203 0.0
O303 O 0.50689 0.15246 0.79669 0.0
O304 O 0.47159 0.1605 0.7676 0.0
O305 O 0.48154 0.17752 0.85316 0.0
O306 O 0.48654 0.16795 0.95681 0.0
O307 O 0.44856 0.15062 0.95125 0.0
O308 O 0.44619 0.13739 0.81484 0.0
O309 O 0.42699 0.11887 0.87285 0.0
O310 O 0.46561 0.1143 0.91647 0.0
O311 O 0.45342 0.09508 0.83328 0.0
H312 H 0.45994 0.14181 0.65484 0.0
H313 H 0.46112 0.14984 0.56192 0.0
H314 H 0.46796 0.08927 0.52116 0.0
H315 H 0.46727 0.08178 0.61395 0.0
H316 H 0.49205 0.14498 0.03296 0.0
H317 H 0.49157 0.13698 0.12578 0.0
H318 H 0.44371 0.16262 0.14821 0.0
H319 H 0.44423 0.17051 0.05567 0.0
Tb320 Tb 0.92993 0.36498 0.78316 0.0
Tb321 Tb 0.91519 0.34517 0.8798 0.0
C322 C 0.94846 0.37863 0.69889 0.0
C323 C 0.94241 0.38082 0.64368 0.0
C324 C 0.92098 0.36399 0.61526 0.0
C325 C 0.91711 0.36454 0.56087 0.0
C326 C 0.93457 0.38194 0.53388 0.0
C327 C 0.95553 0.39938 0.56315 0.0
C328 C 0.9594 0.39877 0.61743 0.0
C329 C 0.90551 0.38223 0.82809 0.0
C330 C 0.87763 0.32332 0.78729 0.0
C331 C 0.90498 0.33169 0.96996 0.0
C332 C 0.90869 0.34004 0.02637 0.0
C333 C 0.91811 0.36382 0.0443 0.0
C334 C 0.92074 0.37078 0.09856 0.0
C335 C 0.91391 0.35402 0.13551 0.0
C336 C 0.90484 0.33031 0.11697 0.0
C337 C 0.90225 0.32343 0.06306 0.0
C338 C 0.92942 0.32215 0.8133 0.0
C339 C 0.96491 0.38884 0.8897 0.0
O340 O 0.93995 0.35723 0.71208 0.0
O341 O 0.94768 0.3927 0.73596 0.0
O342 O 0.92044 0.37817 0.85187 0.0
O343 O 0.9032 0.37505 0.77866 0.0
O344 O 0.89583 0.33139 0.75846 0.0
O345 O 0.88113 0.33157 0.83694 0.0
O346 O 0.89229 0.33713 0.93887 0.0
O347 O 0.92314 0.33334 0.94838 0.0
O348 O 0.9386 0.34373 0.8259 0.0
O349 O 0.91098 0.31213 0.83838 0.0
O350 O 0.94641 0.37664 0.91477 0.0
O351 O 0.96333 0.38569 0.83717 0.0
H352 H 0.9076 0.34992 0.63467 0.0
H353 H 0.90084 0.35072 0.53963 0.0
H354 H 0.96918 0.41328 0.54391 0.0
H355 H 0.97605 0.41193 0.63864 0.0
H356 H 0.92324 0.37691 1.01644 0.0
H357 H 0.92772 0.38917 0.11149 0.0
H358 H 0.89989 0.317 0.14423 0.0
H359 H 0.89509 0.30501 0.04993 0.0
Tb360 Tb 0.70418 0.14579 0.90713 0.0
Tb361 Tb 0.67999 0.12262 0.80129 0.0
C362 C 0.71677 0.16111 1.00359 0.0
C363 C 0.70822 0.15501 0.05641 0.0
C364 C 0.71 0.17265 0.09314 0.0
C365 C 0.70426 0.16798 0.14491 0.0
C366 C 0.69657 0.1455 0.16147 0.0
C367 C 0.69421 0.12767 0.12409 0.0
C368 C 0.70004 0.13238 0.07235 0.0
C369 C 0.72494 0.12809 0.84741 0.0
C370 C 0.66226 0.09351 0.90228 0.0
C371 C 0.66637 0.09975 0.71093 0.0
C372 C 0.6674 0.10449 0.6545 0.0
C373 C 0.67595 0.09366 0.62053 0.0
C374 C 0.67786 0.09801 0.56739 0.0
C375 C 0.67116 0.1133 0.54638 0.0
C376 C 0.66254 0.12415 0.58058 0.0
C377 C 0.66071 0.11983 0.63401 0.0
C378 C 0.66399 0.14913 0.844 0.0
C379 C 0.72294 0.17566 0.81476 0.0
O380 O 0.70585 0.16829 0.97173 0.0
O381 O 0.72246 0.14714 0.97844 0.0
O382 O 0.70365 0.11938 0.85363 0.0
O383 O 0.73622 0.14816 0.87598 0.0
O384 O 0.67722 0.11315 0.93149 0.0
O385 O 0.66055 0.09249 0.84951 0.0
O386 O 0.68661 0.10619 0.73725 0.0
O387 O 0.65283 0.10417 0.73925 0.0
O388 O 0.66984 0.13621 0.8679 0.0
O389 O 0.66826 0.14799 0.79528 0.0
O390 O 0.71235 0.15525 0.78437 0.0
O391 O 0.71765 0.17645 0.86364 0.0
H392 H 0.71633 0.19026 0.08208 0.0
H393 H 0.70596 0.18209 0.17209 0.0
H394 H 0.68859 0.1102 0.13523 0.0
H395 H 0.69867 0.11841 0.04524 0.0
H396 H 0.68143 0.08191 0.63533 0.0
H397 H 0.68502 0.08965 0.54302 0.0
H398 H 0.65698 0.13585 0.566 0.0
H399 H 0.65415 0.12855 0.65923 0.0
Tb400 Tb 0.90947 0.58144 0.87684 0.0
Tb401 Tb 0.92847 0.57705 0.77999 0.0
C402 C 0.8965 0.58326 0.96739 0.0
C403 C 0.90121 0.58046 0.02316 0.0
C404 C 0.91327 0.56887 0.03802 0.0
C405 C 0.91719 0.56652 0.0916 0.0
C406 C 0.90901 0.57561 0.1312 0.0
C407 C 0.89714 0.58737 0.11574 0.0
C408 C 0.89332 0.58975 0.06246 0.0
C409 C 0.92407 0.61794 0.81705 0.0
C410 C 0.96086 0.59107 0.89055 0.0
C411 C 0.94887 0.58311 0.69654 0.0
C412 C 0.94301 0.57635 0.63887 0.0
C413 C 0.92096 0.57047 0.61381 0.0
C414 C 0.91694 0.56766 0.55848 0.0
C415 C 0.93489 0.57069 0.52692 0.0
C416 C 0.95665 0.57566 0.55241 0.0
C417 C 0.96065 0.5785 0.60769 0.0
C418 C 0.90403 0.53548 0.81786 0.0
C419 C 0.87509 0.56445 0.77821 0.0
O420 O 0.88649 0.56434 0.93369 0.0
O421 O 0.91311 0.60137 0.94769 0.0
O422 O 0.93375 0.60638 0.82829 0.0
O423 O 0.90489 0.60905 0.83988 0.0
O424 O 0.94166 0.58548 0.91321 0.0
O425 O 0.96058 0.59054 0.838 0.0
O426 O 0.94147 0.59664 0.71625 0.0
O427 O 0.94619 0.56695 0.72735 0.0
O428 O 0.91768 0.55512 0.84487 0.0
O429 O 0.90304 0.53956 0.76898 0.0
O430 O 0.89434 0.57482 0.7529 0.0
O431 O 0.87692 0.56003 0.8272 0.0
H432 H 0.91951 0.56154 1.00829 0.0
H433 H 0.92627 0.55724 0.10189 0.0
H434 H 0.89098 0.59502 0.14493 0.0
H435 H 0.88411 0.59889 0.0519 0.0
H436 H 0.90711 0.56891 0.63701 0.0
H437 H 0.90004 0.56407 0.54053 0.0
H438 H 0.97077 0.5777 0.52964 0.0
H439 H 0.97783 0.58313 0.62611 0.0
Tb440 Tb 0.4665 0.34876 0.90434 0.0
Tb441 Tb 0.46464 0.37095 0.81297 0.0
C442 C 0.47174 0.33726 0.99478 0.0
C443 C 0.4666 0.34012 0.04961 0.0
C444 C 0.47535 0.36243 0.07713 0.0
C445 C 0.47206 0.36461 0.1305 0.0
C446 C 0.45998 0.34455 0.1576 0.0
C447 C 0.45066 0.32226 0.12939 0.0
C448 C 0.454 0.3201 0.07613 0.0
C449 C 0.42644 0.32477 0.83871 0.0
C450 C 0.45083 0.38654 0.91779 0.0
C451 C 0.45941 0.38176 0.72148 0.0
C452 C 0.45912 0.37478 0.66487 0.0
C453 C 0.43832 0.35727 0.63525 0.0
C454 C 0.43769 0.35273 0.58058 0.0
C455 C 0.45777 0.36573 0.55422 0.0
C456 C 0.47867 0.38284 0.58416 0.0
C457 C 0.47931 0.38737 0.63866 0.0
C458 C 0.50443 0.39751 0.87466 0.0
C459 C 0.48058 0.33177 0.81001 0.0
O460 O 0.48762 0.35599 0.97547 0.0
O461 O 0.45383 0.32394 0.95995 0.0
O462 O 0.43779 0.34638 0.85368 0.0
O463 O 0.43735 0.31541 0.86148 0.0
O464 O 0.46062 0.37571 0.94036 0.0
O465 O 0.44776 0.38514 0.86527 0.0
O466 O 0.44205 0.36753 0.74698 0.0
O467 O 0.47951 0.39122 0.75059 0.0
O468 O 0.49451 0.37529 0.86316 0.0
O469 O 0.49111 0.40455 0.8534 0.0
O470 O 0.46884 0.34029 0.78363 0.0
O471 O 0.48653 0.33794 0.86065 0.0
H472 H 0.48522 0.37823 0.05788 0.0
H473 H 0.47971 0.38206 0.15092 0.0
H474 H 0.44089 0.30642 0.14857 0.0
H475 H 0.4471 0.30271 0.05584 0.0
H476 H 0.42234 0.34746 0.65401 0.0
H477 H 0.42124 0.33958 0.55871 0.0
H478 H 0.49456 0.39294 0.56536 0.0
H479 H 0.49555 0.40115 0.66011 0.0
Tb480 Tb 0.37381 0.93013 0.21731 0.0
Tb481 Tb 0.34704 0.90453 0.117 0.0
C482 C 0.38776 0.94632 0.31333 0.0
C483 C 0.38088 0.94007 0.36736 0.0
C484 C 0.36322 0.94297 0.38883 0.0
C485 C 0.35835 0.93857 0.44128 0.0
C486 C 0.37099 0.93115 0.47355 0.0
C487 C 0.38851 0.92816 0.45176 0.0
C488 C 0.39343 0.93264 0.39961 0.0
C489 C 0.39774 0.91713 0.15822 0.0
C490 C 0.33149 0.87546 0.20977 0.0
C491 C 0.33321 0.88787 0.02138 0.0
C492 C 0.33957 0.89456 0.96743 0.0
C493 C 0.34265 0.87938 0.93231 0.0
C494 C 0.34668 0.88411 0.87984 0.0
C495 C 0.34758 0.90411 0.86075 0.0
C496 C 0.34509 0.91965 0.89648 0.0
C497 C 0.34114 0.91494 0.94912 0.0
C498 C 0.32632 0.92162 0.17896 0.0
C499 C 0.38608 0.9581 0.1167 0.0
O500 O 0.37506 0.95187 0.28277 0.0
O501 O 0.39436 0.93344 0.28695 0.0
O502 O 0.37585 0.90447 0.16374 0.0
O503 O 0.40614 0.93706 0.18632 0.0
O504 O 0.34354 0.89628 0.23854 0.0
O505 O 0.33336 0.87374 0.15895 0.0
O506 O 0.34754 0.88403 0.05109 0.0
O507 O 0.32501 0.89911 0.0484 0.0
O508 O 0.34749 0.93139 0.17001 0.0
O509 O 0.31536 0.90141 0.15081 0.0
O510 O 0.37427 0.937 0.0907 0.0
O511 O 0.38662 0.96061 0.16923 0.0
H512 H 0.35331 0.94887 0.36541 0.0
H513 H 0.3446 0.9409 0.45646 0.0
H514 H 0.39892 0.9229 0.47546 0.0
H515 H 0.40743 0.93065 0.38475 0.0
H516 H 0.34156 0.86357 0.94526 0.0
H517 H 0.34902 0.87196 0.85418 0.0
H518 H 0.34549 0.93514 0.88347 0.0
H519 H 0.33886 0.92705 0.97512 0.0
Tb520 Tb 0.13644 0.45271 0.15329 0.0
Tb521 Tb 0.13582 0.47561 0.25545 0.0
C522 C 0.12807 0.43058 0.06288 0.0
C523 C 0.13386 0.4364 1.00835 0.0
C524 C 0.14012 0.45873 0.99301 0.0
C525 C 0.14255 0.46311 0.93985 0.0
C526 C 0.13882 0.4453 0.90064 0.0
C527 C 0.13334 0.42319 0.9166 0.0
C528 C 0.13082 0.4188 0.96977 0.0
C529 C 0.17907 0.47842 0.20529 0.0
C530 C 0.14984 0.50642 0.16403 0.0
C531 C 0.1389 0.49126 0.35031 0.0
C532 C 0.13934 0.48485 0.40505 0.0
C533 C 0.14859 0.47072 0.4202 0.0
C534 C 0.14859 0.46519 0.47274 0.0
C535 C 0.13919 0.47351 0.51104 0.0
C536 C 0.12994 0.48759 0.49527 0.0
C537 C 0.13003 0.49315 0.4431 0.0
C538 C 0.09796 0.46039 0.18488 0.0
C539 C 0.12162 0.42249 0.25371 0.0
O540 O 0.1147 0.43782 0.08244 0.0
O541 O 0.14505 0.43382 0.09787 0.0
O542 O 0.16015 0.46547 0.22553 0.0
O543 O 0.17375 0.47784 0.15534 0.0
O544 O 0.13872 0.48623 0.13293 0.0
O545 O 0.15532 0.50653 0.2146 0.0
O546 O 0.15714 0.49629 0.32434 0.0
O547 O 0.11906 0.4787 0.32036 0.0
O548 O 0.10936 0.45048 0.19606 0.0
O549 O 0.10772 0.4802 0.21447 0.0
O550 O 0.12634 0.44195 0.2817 0.0
O551 O 0.12418 0.42211 0.20201 0.0
H552 H 0.14253 0.47262 0.02196 0.0
H553 H 0.14714 0.48044 0.9294 0.0
H554 H 0.13011 0.40896 0.88771 0.0
H555 H 0.12577 0.40139 0.98049 0.0
H556 H 0.15573 0.46394 0.3915 0.0
H557 H 0.15566 0.45413 0.48316 0.0
H558 H 0.12289 0.49466 0.52352 0.0
H559 H 0.12282 0.50409 0.43243 0.0
Tb560 Tb 0.5861 0.68244 0.23657 0.0
Tb561 Tb 0.58905 0.70564 0.1405 0.0
C562 C 0.59264 0.66776 0.32174 0.0
C563 C 0.5863 0.66717 0.37655 0.0
C564 C 0.57842 0.68194 0.39686 0.0
C565 C 0.5757 0.68363 0.45082 0.0
C566 C 0.5808 0.6706 0.4857 0.0
C567 C 0.58783 0.65517 0.46461 0.0
C568 C 0.5906 0.65354 0.41069 0.0
C569 C 0.54399 0.66698 0.18509 0.0
C570 C 0.57575 0.72458 0.23613 0.0
C571 C 0.58774 0.71897 0.05008 0.0
C572 C 0.58604 0.71175 0.99324 0.0
C573 C 0.57794 0.68838 0.97349 0.0
C574 C 0.57704 0.68251 0.9191 0.0
C575 C 0.58442 0.69995 0.88368 0.0
C576 C 0.59242 0.72326 0.90403 0.0
C577 C 0.59322 0.72904 0.95804 0.0
C578 C 0.62698 0.72727 0.21266 0.0
C579 C 0.59927 0.66423 0.13074 0.0
O580 O 0.60651 0.68871 0.30792 0.0
O581 O 0.57592 0.65441 0.28418 0.0
O582 O 0.56272 0.67169 0.16429 0.0
O583 O 0.54937 0.67241 0.23552 0.0
O584 O 0.58591 0.71512 0.26445 0.0
O585 O 0.57043 0.71869 0.18501 0.0
O586 O 0.56911 0.70731 0.07515 0.0
O587 O 0.60712 0.72397 0.07837 0.0
O588 O 0.61441 0.70585 0.1974 0.0
O589 O 0.61842 0.73807 0.1868 0.0
O590 O 0.59547 0.67916 0.10636 0.0
O591 O 0.59695 0.66234 0.18228 0.0
H592 H 0.57506 0.69269 0.37128 0.0
H593 H 0.56991 0.69542 0.46535 0.0
H594 H 0.59217 0.64504 0.49011 0.0
H595 H 0.59692 0.64221 0.39598 0.0
H596 H 0.57243 0.67475 1.00002 0.0
H597 H 0.57096 0.66442 0.90494 0.0
H598 H 0.59788 0.7371 0.87808 0.0
H599 H 0.59951 0.74717 0.97242 0.0
Tb600 Tb 0.37403 0.47477 0.26546 0.0
Tb601 Tb 0.35017 0.46051 0.15992 0.0
C602 C 0.39256 0.49263 0.35851 0.0
C603 C 0.38717 0.48732 0.41339 0.0
C604 C 0.36395 0.47511 0.4268 0.0
C605 C 0.35946 0.47085 0.47943 0.0
C606 C 0.37809 0.47855 0.51974 0.0
C607 C 0.40128 0.49052 0.50578 0.0
C608 C 0.40573 0.49486 0.45332 0.0
C609 C 0.3906 0.45557 0.19634 0.0
C610 C 0.33367 0.42454 0.25246 0.0
C611 C 0.33323 0.44118 0.06678 0.0
C612 C 0.33922 0.44536 1.01191 0.0
C613 C 0.35918 0.46587 1.00007 0.0
C614 C 0.36389 0.46963 0.94734 0.0
C615 C 0.34872 0.45296 0.90537 0.0
C616 C 0.32896 0.4323 0.91787 0.0
C617 C 0.32429 0.42859 0.97042 0.0
C618 C 0.33238 0.48041 0.22092 0.0
C619 C 0.39284 0.51264 0.18337 0.0
O620 O 0.37925 0.4984 0.33069 0.0
O621 O 0.39714 0.47845 0.33066 0.0
O622 O 0.3843 0.47017 0.18913 0.0
O623 O 0.3884 0.45128 0.24522 0.0
O624 O 0.34525 0.44322 0.28634 0.0
O625 O 0.3341 0.42674 0.20048 0.0
O626 O 0.34644 0.43626 0.09736 0.0
O627 O 0.32825 0.45575 0.09151 0.0
O628 O 0.33862 0.46594 0.23459 0.0
O629 O 0.33654 0.48399 0.17241 0.0
O630 O 0.38108 0.49474 0.14591 0.0
O631 O 0.38984 0.50889 0.23337 0.0
H632 H 0.34929 0.46893 0.39666 0.0
H633 H 0.34138 0.46132 0.48846 0.0
H634 H 0.41608 0.49697 0.53563 0.0
H635 H 0.42378 0.50431 0.44396 0.0
H636 H 0.37094 0.47908 0.03151 0.0
H637 H 0.37916 0.48583 0.93946 0.0
H638 H 0.3171 0.41883 0.887 0.0
H639 H 0.30885 0.41258 0.97867 0.0
Tb640 Tb 0.58604 0.90354 0.13243 0.0
Tb641 Tb 0.58345 0.92694 0.22926 0.0
C642 C 0.5839 0.88752 0.03847 0.0
C643 C 0.58661 0.89521 0.98457 0.0
C644 C 0.57619 0.90772 0.96518 0.0
C645 C 0.57766 0.91318 0.91264 0.0
C646 C 0.58972 0.90639 0.8785 0.0
C647 C 0.60063 0.89444 0.89863 0.0
C648 C 0.59903 0.88888 0.95096 0.0
C649 C 0.62364 0.92022 0.20425 0.0
C650 C 0.59957 0.95672 0.13182 0.0
C651 C 0.58482 0.94203 0.32373 0.0
C652 C 0.58607 0.93607 0.37876 0.0
C653 C 0.60718 0.93998 0.40553 0.0
C654 C 0.60825 0.93606 0.45893 0.0
C655 C 0.58826 0.92818 0.48683 0.0
C656 C 0.56715 0.92405 0.45966 0.0
C657 C 0.56611 0.92801 0.40651 0.0
C658 C 0.5462 0.91315 0.16 0.0
C659 C 0.57129 0.8727 0.22173 0.0
O660 O 0.56571 0.88526 0.06102 0.0
O661 O 0.60288 0.89702 0.07162 0.0
O662 O 0.61215 0.92999 0.19153 0.0
O663 O 0.61459 0.90042 0.17492 0.0
O664 O 0.59206 0.93631 0.1045 0.0
O665 O 0.59994 0.95827 0.18429 0.0
O666 O 0.60336 0.94895 0.29801 0.0
O667 O 0.56542 0.92813 0.29338 0.0
O668 O 0.55621 0.90134 0.17015 0.0
O669 O 0.55729 0.93287 0.1895 0.0
O670 O 0.58031 0.89304 0.25205 0.0
O671 O 0.56761 0.87213 0.17046 0.0
H672 H 0.56663 0.91299 0.99032 0.0
H673 H 0.56932 0.92267 0.8987 0.0
H674 H 0.60984 0.88871 0.87347 0.0
H675 H 0.60716 0.87917 0.96493 0.0
H676 H 0.62297 0.94637 0.38555 0.0
H677 H 0.62475 0.93923 0.47836 0.0
H678 H 0.5515 0.91839 0.47987 0.0
H679 H 0.5497 0.92521 0.38735 0.0
Tb680 Tb 0.13569 0.6809 0.2533 0.0
Tb681 Tb 0.13984 0.69974 0.15543 0.0
C682 C 0.1387 0.66445 0.33854 0.0
C683 C 0.13729 0.66867 0.39521 0.0
C684 C 0.14293 0.69088 0.41853 0.0
C685 C 0.14188 0.69439 0.47282 0.0
C686 C 0.13509 0.67573 0.50468 0.0
C687 C 0.12908 0.65345 0.48067 0.0
C688 C 0.13022 0.65 0.42657 0.0
C689 C 0.09696 0.65922 0.18297 0.0
C690 C 0.12132 0.71725 0.25543 0.0
C691 C 0.13416 0.71363 0.06832 0.0
C692 C 0.13403 0.70819 1.01099 0.0
C693 C 0.115 0.68826 0.98199 0.0
C694 C 0.11468 0.68427 0.92731 0.0
C695 C 0.13327 0.70022 0.90032 0.0
C696 C 0.15231 0.72005 0.92948 0.0
C697 C 0.15265 0.724 0.98407 0.0
C698 C 0.18071 0.72169 0.214 0.0
C699 C 0.15311 0.66033 0.16448 0.0
O700 O 0.15677 0.68069 0.31798 0.0
O701 O 0.11923 0.65633 0.3077 0.0
O702 O 0.11775 0.66607 0.17553 0.0
O703 O 0.09677 0.66452 0.23256 0.0
O704 O 0.13102 0.70849 0.28559 0.0
O705 O 0.12096 0.71431 0.20286 0.0
O706 O 0.11691 0.69831 0.09256 0.0
O707 O 0.15433 0.72266 0.09699 0.0
O708 O 0.16081 0.71588 0.23091 0.0
O709 O 0.17718 0.7137 0.16486 0.0
O710 O 0.14379 0.66891 0.13089 0.0
O711 O 0.15544 0.66682 0.21527 0.0
H712 H 0.14833 0.70552 0.39491 0.0
H713 H 0.14683 0.71182 0.48997 0.0
H714 H 0.12332 0.63857 0.50361 0.0
H715 H 0.12561 0.63269 0.40917 0.0
H716 H 0.10018 0.67593 1.00128 0.0
H717 H 0.0996 0.66898 0.90599 0.0
H718 H 0.16706 0.73254 0.91011 0.0
H719 H 0.16743 0.73963 1.00522 0.0
H720 H 0.1205 0.37974 0.23205 0.0
H721 H 0.10124 0.41674 0.34513 0.0
H722 H 0.10696 0.34712 0.28793 0.0
H723 H 0.08732 0.38456 0.39905 0.0
H724 H 0.07767 0.3314 0.51275 0.0
H725 H 0.09631 0.36439 0.45888 0.0
H726 H 0.07469 0.31554 0.3187 0.0
H727 H 0.05726 0.28315 0.37211 0.0
C728 C 0.11323 0.38089 0.26832 0.0
C729 C 0.11222 0.40112 0.28373 0.0
C730 C 0.10541 0.36215 0.30066 0.0
C731 C 0.09616 0.36303 0.34908 0.0
C732 C 0.09486 0.38316 0.36344 0.0
C733 C 0.10275 0.40173 0.3317 0.0
C734 C 0.0772 0.32776 0.4706 0.0
C735 C 0.06569 0.30442 0.4473 0.0
C736 C 0.08772 0.34671 0.43927 0.0
C737 C 0.08695 0.34293 0.38363 0.0
C738 C 0.07608 0.31954 0.361 0.0
C739 C 0.06576 0.30075 0.3921 0.0
H740 H 0.73682 0.7475 0.45773 0.0
H741 H 0.73119 0.80902 0.49059 0.0
H742 H 0.70836 0.73483 0.38191 0.0
H743 H 0.70013 0.79508 0.41765 0.0
H744 H 0.65317 0.77297 0.26102 0.0
H745 H 0.68419 0.78813 0.33443 0.0
H746 H 0.67372 0.71816 0.34053 0.0
H747 H 0.64539 0.7044 0.26424 0.0
C748 C 0.7291 0.7582 0.4491 0.0
C749 C 0.73675 0.77953 0.47994 0.0
C750 C 0.71216 0.75067 0.40545 0.0
C751 C 0.70102 0.7635 0.39213 0.0
C752 C 0.70819 0.78459 0.42464 0.0
C753 C 0.72593 0.79259 0.46741 0.0
C754 C 0.65789 0.76104 0.27789 0.0
C755 C 0.64643 0.73733 0.25701 0.0
C756 C 0.67561 0.76964 0.32087 0.0
C757 C 0.68214 0.75469 0.34523 0.0
C758 C 0.67036 0.73092 0.3236 0.0
C759 C 0.65342 0.72266 0.27978 0.0
H760 H 0.24329 0.96517 0.35824 0.0
H761 H 0.30415 0.98564 0.46796 0.0
H762 H 0.25758 0.94742 0.29467 0.0
H763 H 0.31888 0.96823 0.40326 0.0
H764 H 0.34823 0.96447 0.23809 0.0
H765 H 0.33345 0.97838 0.30916 0.0
H766 H 0.26672 0.91379 0.28194 0.0
H767 H 0.28197 0.8994 0.21242 0.0
C768 C 0.25963 0.96562 0.36914 0.0
C769 C 0.27246 0.97676 0.41857 0.0
C770 C 0.26782 0.95538 0.33254 0.0
C771 C 0.28945 0.9564 0.34349 0.0
C772 C 0.30219 0.9672 0.39332 0.0
C773 C 0.29366 0.97699 0.43066 0.0
C774 C 0.3306 0.95295 0.2481 0.0
C775 C 0.31658 0.93049 0.22035 0.0
C776 C 0.32208 0.961 0.28883 0.0
C777 C 0.29895 0.94715 0.302 0.0
C778 C 0.28466 0.92492 0.2732 0.0
C779 C 0.2934 0.91665 0.23325 0.0
H780 H 0.31254 0.03162 0.57794 0.0
H781 H 0.31351 0.09734 0.57843 0.0
H782 H 0.34339 0.0482 0.65208 0.0
H783 H 0.34536 0.11438 0.65114 0.0
H784 H 0.42189 0.14005 0.73237 0.0
H785 H 0.38891 0.12368 0.66346 0.0
H786 H 0.34959 0.06492 0.75243 0.0
H787 H 0.38266 0.0818 0.82271 0.0
C788 C 0.3192 0.04958 0.59412 0.0
C789 C 0.31008 0.06294 0.57278 0.0
C790 C 0.33696 0.0591 0.63668 0.0
C791 C 0.34677 0.08258 0.65817 0.0
C792 C 0.33817 0.09621 0.63579 0.0
C793 C 0.31994 0.08646 0.59399 0.0
C794 C 0.40614 0.12375 0.73769 0.0
C795 C 0.40495 0.11232 0.78339 0.0
C796 C 0.38716 0.11439 0.69809 0.0
C797 C 0.3665 0.09298 0.70219 0.0
C798 C 0.36526 0.08143 0.74786 0.0
C799 C 0.38414 0.09113 0.78828 0.0
H800 H 0.9106 0.27495 0.77987 0.0
H801 H 0.96803 0.34346 0.75836 0.0
H802 H 0.92509 0.25697 0.71711 0.0
H803 H 0.98163 0.32607 0.69313 0.0
H804 H 1.01479 0.29085 0.60515 0.0
H805 H 1.0005 0.30712 0.67127 0.0
H806 H 0.93048 0.2471 0.63395 0.0
H807 H 0.94562 0.23007 0.57062 0.0
C808 C 0.92623 0.28624 0.76136 0.0
C809 C 0.93799 0.31075 0.77434 0.0
C810 C 0.93454 0.27592 0.72461 0.0
C811 C 0.95483 0.28974 0.69886 0.0
C812 C 0.96637 0.31435 0.71204 0.0
C813 C 0.9583 0.32454 0.74934 0.0
C814 C 0.99641 0.28089 0.61164 0.0
C815 C 0.98155 0.25889 0.5827 0.0
C816 C 0.98794 0.29049 0.64934 0.0
C817 C 0.96399 0.27883 0.65893 0.0
C818 C 0.94906 0.2568 0.62931 0.0
C819 C 0.95771 0.24698 0.5922 0.0
H820 H 0.754 0.74099 0.65961 0.0
H821 H 0.78594 0.71058 0.56528 0.0
H822 H 0.7409 0.70909 0.71558 0.0
H823 H 0.77256 0.67799 0.62199 0.0
H824 H 0.76714 0.64038 0.77976 0.0
H825 H 0.77975 0.67001 0.71601 0.0
H826 H 0.71318 0.66746 0.71571 0.0
H827 H 0.70081 0.63816 0.77901 0.0
C828 C 0.75806 0.72728 0.65044 0.0
C829 C 0.77102 0.72846 0.60761 0.0
C830 C 0.75039 0.70879 0.68261 0.0
C831 C 0.75554 0.6907 0.67379 0.0
C832 C 0.76833 0.69161 0.63044 0.0
C833 C 0.77578 0.71015 0.59744 0.0
C834 C 0.75526 0.64622 0.7661 0.0
C835 C 0.73298 0.63692 0.78497 0.0
C836 C 0.76239 0.66307 0.72906 0.0
C837 C 0.7476 0.67139 0.71039 0.0
C838 C 0.72529 0.66187 0.72928 0.0
C839 C 0.71812 0.64496 0.76572 0.0
H840 H 0.95858 0.74066 0.64419 0.0
H841 H 0.98947 0.70652 0.55905 0.0
H842 H 0.94128 0.70833 0.69942 0.0
H843 H 0.97218 0.67386 0.61481 0.0
H844 H 0.96589 0.63914 0.77305 0.0
H845 H 0.97855 0.66757 0.7075 0.0
H846 H 0.91301 0.66712 0.70728 0.0
H847 H 0.90024 0.6383 0.77251 0.0
C848 C 0.96104 0.7258 0.63607 0.0
C849 C 0.97504 0.72608 0.59614 0.0
C850 C 0.95116 0.70719 0.66811 0.0
C851 C 0.9553 0.68827 0.66235 0.0
C852 C 0.96867 0.68811 0.62108 0.0
C853 C 0.97829 0.70667 0.58829 0.0
C854 C 0.95402 0.64489 0.75866 0.0
C855 C 0.93186 0.63607 0.77791 0.0
C856 C 0.96128 0.66121 0.72066 0.0
C857 C 0.94684 0.66974 0.70112 0.0
C858 C 0.92477 0.66116 0.7211 0.0
C859 C 0.91738 0.64456 0.75868 0.0
H860 H 0.31742 0.23203 0.57658 0.0
H861 H 0.30763 0.29133 0.60258 0.0
H862 H 0.35015 0.24956 0.64591 0.0
H863 H 0.33795 0.30762 0.67554 0.0
H864 H 0.40353 0.34408 0.788 0.0
H865 H 0.37297 0.32697 0.71546 0.0
H866 H 0.36929 0.26 0.72557 0.0
H867 H 0.40217 0.27851 0.7945 0.0
C868 C 0.32202 0.24869 0.59777 0.0
C869 C 0.30946 0.25999 0.5842 0.0
C870 C 0.34082 0.25882 0.63854 0.0
C871 C 0.34748 0.28043 0.66831 0.0
C872 C 0.33451 0.29144 0.65429 0.0
C873 C 0.31636 0.28171 0.61253 0.0
C874 C 0.39656 0.32581 0.77391 0.0
C875 C 0.4059 0.31297 0.7966 0.0
C876 C 0.37831 0.31556 0.73235 0.0
C877 C 0.3677 0.29155 0.71293 0.0
C878 C 0.37675 0.27853 0.73721 0.0
C879 C 0.39564 0.28911 0.77777 0.0
H880 H 0.70482 0.08237 0.80916 0.0
H881 H 0.76558 0.15012 0.79672 0.0
H882 H 0.71826 0.06422 0.74456 0.0
H883 H 0.77909 0.13181 0.73087 0.0
H884 H 0.77869 0.08676 0.5734 0.0
H885 H 0.7659 0.10792 0.63364 0.0
H886 H 0.75298 0.05768 0.74648 0.0
H887 H 0.76578 0.03704 0.68782 0.0
C888 C 0.72113 0.09342 0.79261 0.0
C889 C 0.73422 0.11768 0.80863 0.0
C890 C 0.72883 0.08299 0.75542 0.0
C891 C 0.7498 0.09648 0.73231 0.0
C892 C 0.7628 0.1209 0.74755 0.0
C893 C 0.7552 0.13135 0.78569 0.0
C894 C 0.77301 0.08024 0.61097 0.0
C895 C 0.7733 0.06011 0.62544 0.0
C896 C 0.76587 0.09247 0.6457 0.0
C897 C 0.75835 0.08451 0.69507 0.0
C898 C 0.75846 0.06429 0.70885 0.0
C899 C 0.76592 0.05245 0.67497 0.0
H900 H 0.64342 0.96168 0.26793 0.0
H901 H 0.64911 0.89999 0.23912 0.0
H902 H 0.67308 0.97572 0.34235 0.0
H903 H 0.68106 0.91516 0.31009 0.0
H904 H 0.7293 0.93931 0.46478 0.0
H905 H 0.69721 0.92319 0.39377 0.0
H906 H 0.70934 0.99324 0.37855 0.0
H907 H 0.73909 1.00828 0.45282 0.0
C908 C 0.65108 0.95106 0.27755 0.0
C909 C 0.64332 0.9294 0.248 0.0
C910 C 0.66879 0.95943 0.32004 0.0
C911 C 0.68031 0.94698 0.33359 0.0
C912 C 0.67275 0.9254 0.30281 0.0
C913 C 0.65445 0.91669 0.26121 0.0
C914 C 0.72484 0.95113 0.4464 0.0
C915 C 0.73714 0.97522 0.46433 0.0
C916 C 0.70646 0.94193 0.40481 0.0
C917 C 0.70002 0.95659 0.37882 0.0
C918 C 0.71273 0.98079 0.39708 0.0
C919 C 0.73049 0.98975 0.43951 0.0
H920 H 0.05713 0.79102 0.41751 0.0
H921 H 0.06369 0.74671 0.52661 0.0
H922 H 0.07276 0.77646 0.35002 0.0
H923 H 0.07994 0.73248 0.45966 0.0
H924 H 0.08792 0.69366 0.31908 0.0
H925 H 0.07017 0.70831 0.37994 0.0
H926 H 0.10668 0.77623 0.32049 0.0
H927 H 0.12423 0.76103 0.25812 0.0
C928 C 0.06201 0.77819 0.42728 0.0
C929 C 0.05899 0.77 0.47778 0.0
C930 C 0.07119 0.76992 0.38842 0.0
C931 C 0.0777 0.7531 0.39855 0.0
C932 C 0.07482 0.74507 0.44941 0.0
C933 C 0.06561 0.75335 0.48827 0.0
C934 C 0.0918 0.71162 0.31805 0.0
C935 C 0.10732 0.72602 0.283 0.0
C936 C 0.08185 0.7202 0.35381 0.0
C937 C 0.08717 0.74372 0.3566 0.0
C938 C 0.10196 0.75799 0.31981 0.0
C939 C 0.11196 0.74927 0.28357 0.0
H940 H 0.2895 0.38375 0.22631 0.0
H941 H 0.35197 0.41397 0.33616 0.0
H942 H 0.27047 0.35023 0.27943 0.0
H943 H 0.33356 0.38095 0.38799 0.0
H944 H 0.29 0.33115 0.50342 0.0
H945 H 0.30557 0.3641 0.44884 0.0
H946 H 0.26878 0.31587 0.30915 0.0
H947 H 0.25285 0.28341 0.3634 0.0
C948 C 0.29935 0.38303 0.26094 0.0
C949 C 0.32232 0.40166 0.27668 0.0
C950 C 0.28842 0.36387 0.29186 0.0
C951 C 0.30018 0.36285 0.33924 0.0
C952 C 0.32345 0.38115 0.3532 0.0
C953 C 0.3342 0.40008 0.32275 0.0
C954 C 0.28496 0.32763 0.46123 0.0
C955 C 0.27021 0.30441 0.4383 0.0
C956 C 0.29411 0.34655 0.42952 0.0
C957 C 0.2888 0.34289 0.37383 0.0
C958 C 0.27331 0.31972 0.35147 0.0
C959 C 0.26425 0.30093 0.38299 0.0
H960 H 0.9713 0.41934 0.97361 0.0
H961 H 1.00853 0.39323 0.88516 0.0
H962 H 1.00451 0.43873 0.04217 0.0
H963 H 0.0418 0.4123 0.95467 0.0
H964 H 0.07475 0.41735 0.12789 0.0
H965 H 0.04566 0.40381 0.05091 0.0
H966 H 0.04802 0.47034 0.06371 0.0
H967 H 0.07797 0.48426 0.14006 0.0
C968 C 0.98692 0.41832 0.96808 0.0
C969 C 0.98736 0.40501 0.92338 0.0
C970 C 1.00596 0.42939 1.00759 0.0
C971 C 0.02586 0.42701 1.0044 0.0
C972 C 0.02672 0.41442 0.95865 0.0
C973 C 1.00779 0.40374 0.91839 0.0
C974 C 0.06934 0.42927 0.11392 0.0
C975 C 0.0791 0.45208 0.13973 0.0
C976 C 0.05267 0.4215 0.06955 0.0
C977 C 0.04464 0.43604 0.05033 0.0
C978 C 0.05386 0.45867 0.07712 0.0
C979 C 0.07098 0.46665 0.12102 0.0
H980 H 0.64124 0.61368 0.8556 0.0
H981 H 0.65118 0.57746 0.9812 0.0
H982 H 0.62401 0.62973 0.91563 0.0
H983 H 0.63548 0.59442 0.04158 0.0
H984 H 0.59409 0.61971 0.13818 0.0
H985 H 0.6054 0.59838 0.07518 0.0
H986 H 0.6354 0.65842 0.98506 0.0
H987 H 0.62355 0.67888 0.04586 0.0
C988 C 0.63959 0.60895 0.89573 0.0
C989 C 0.64794 0.59442 0.91322 0.0
C990 C 0.63 0.61845 0.93075 0.0
C991 C 0.62865 0.61393 0.98452 0.0
C992 C 0.63595 0.59842 1.00094 0.0
C993 C 0.64525 0.58878 0.96596 0.0
C994 C 0.60321 0.62829 0.10504 0.0
C995 C 0.60769 0.651 0.09728 0.0
C996 C 0.60972 0.61607 0.0686 0.0
C997 C 0.62109 0.62635 0.02374 0.0
C998 C 0.62604 0.64932 1.01744 0.0
C999 C 0.6194 0.66128 0.05314 0.0
H1000 H 0.47446 0.09088 0.98021 0.0
H1001 H 0.41867 0.04912 0.8563 0.0
H1002 H 0.45831 0.05876 0.03544 0.0
H1003 H 0.40207 1.01659 0.91235 0.0
H1004 H 0.38873 0.95581 1.01014 0.0
H1005 H 0.40581 0.98707 0.95339 0.0
H1006 H 0.42721 0.03835 0.08865 0.0
H1007 H 0.41014 1.00658 0.14644 0.0
C1008 C 0.45879 0.07465 0.96431 0.0
C1009 C 0.448 0.07272 0.91328 0.0
C1010 C 0.4493 0.0562 0.99661 0.0
C1011 C 0.42853 0.03493 0.97941 0.0
C1012 C 0.41816 0.03256 0.92737 0.0
C1013 C 0.42775 0.05119 0.89478 0.0
C1014 C 0.39707 0.9737 0.0284 0.0
C1015 C 0.39793 0.97841 0.08362 0.0
C1016 C 0.4068 0.9918 0.99524 0.0
C1017 C 0.41795 1.01553 1.01565 0.0
C1018 C 0.41906 0.02037 0.07103 0.0
C1019 C 0.40919 1.00212 0.10447 0.0
H1020 H 0.65617 0.09408 1.00686 0.0
H1021 H 0.6375 0.0455 0.86764 0.0
H1022 H 0.64106 0.06216 0.0615 0.0
H1023 H 0.6204 1.01274 0.92251 0.0
H1024 H 0.61692 0.96097 0.03671 0.0
H1025 H 0.62906 0.99254 0.98082 0.0
H1026 H 0.6123 0.03098 0.09646 0.0
H1027 H 0.60122 0.99939 0.15406 0.0
C1028 C 0.64848 0.07643 0.98748 0.0
C1029 C 0.64859 0.07263 0.9324 0.0
C1030 C 0.6394 0.05784 0.01928 0.0
C1031 C 0.62952 0.03442 0.99744 0.0
C1032 C 0.62837 0.03043 0.94171 0.0
C1033 C 0.63787 0.04925 0.90972 0.0
C1034 C 0.61589 0.97621 0.05062 0.0
C1035 C 0.60812 0.97753 0.10041 0.0
C1036 C 0.62265 0.99439 1.01784 0.0
C1037 C 0.62161 1.01465 0.03292 0.0
C1038 C 0.61383 1.01602 0.08304 0.0
C1039 C 0.60738 0.99783 0.11645 0.0
H1040 H 0.05037 0.6468 0.18735 0.0
H1041 H 0.09855 0.64732 0.0798 0.0
H1042 H 1.01874 0.62996 0.11441 0.0
H1043 H 0.06719 0.63054 1.0073 0.0
H1044 H 1.00823 0.62198 0.87914 0.0
H1045 H 0.04131 0.63847 0.94922 0.0
H1046 H 0.99473 0.59384 0.05729 0.0
H1047 H 0.96228 0.57755 0.98834 0.0
C1048 C 0.05421 0.64327 0.14829 0.0
C1049 C 0.07707 0.64849 0.13971 0.0
C1050 C 0.03607 0.63354 0.10628 0.0
C1051 C 0.04027 0.62883 0.05441 0.0
C1052 C 0.06319 0.63413 0.04614 0.0
C1053 C 0.08121 0.64367 0.08807 0.0
C1054 C 1.00523 0.61536 0.9175 0.0
C1055 C 0.98244 0.59847 0.92778 0.0
C1056 C 1.02416 0.62492 0.95797 0.0
C1057 C 1.02072 0.61792 1.00971 0.0
C1058 C 0.99812 0.60026 1.0188 0.0
C1059 C 0.97944 0.59072 0.97871 0.0
H1060 H 0.3965 0.46616 0.09423 0.0
H1061 H 0.40365 0.42204 0.20306 0.0
H1062 H 0.4104 0.45042 0.02517 0.0
H1063 H 0.41741 0.40601 0.13384 0.0
H1064 H 0.46554 0.40087 0.02192 0.0
H1065 H 0.45067 0.41692 0.0865 0.0
H1066 H 0.40244 0.41688 0.96442 0.0
H1067 H 0.41775 0.40065 0.89852 0.0
C1068 C 0.40095 0.45297 0.10343 0.0
C1069 C 0.39899 0.44545 0.15452 0.0
C1070 C 0.40882 0.4438 0.06349 0.0
C1071 C 0.41525 0.42692 0.07337 0.0
C1072 C 0.41306 0.41925 0.12453 0.0
C1073 C 0.40506 0.42836 0.16442 0.0
C1074 C 0.45178 0.40426 1.00828 0.0
C1075 C 0.44281 0.39918 0.9545 0.0
C1076 C 0.44305 0.41338 0.04586 0.0
C1077 C 0.42492 0.4179 0.03152 0.0
C1078 C 0.41642 0.41368 0.97733 0.0
C1079 C 0.42523 0.40442 0.9393 0.0
H1080 H 0.09826 0.26607 0.45814 0.0
H1081 H 0.06143 0.19964 0.5226 0.0
H1082 H 0.13144 0.26052 0.44731 0.0
H1083 H 0.09484 0.19354 0.51091 0.0
H1084 H 0.17329 0.21098 0.55442 0.0
H1085 H 0.13423 0.20695 0.54775 0.0
H1086 H 0.14987 0.24291 0.40657 0.0
H1087 H 0.18904 0.24762 0.41502 0.0
C1088 C 0.09688 0.24972 0.46812 0.0
C1089 C 0.07681 0.23311 0.49011 0.0
C1090 C 0.11611 0.24649 0.46198 0.0
C1091 C 0.11631 0.2265 0.47808 0.0
C1092 C 0.09572 0.20929 0.49827 0.0
C1093 C 0.07624 0.21253 0.50411 0.0
C1094 C 0.16796 0.21712 0.52072 0.0
C1095 C 0.18422 0.22907 0.48442 0.0
C1096 C 0.14549 0.21499 0.51702 0.0
C1097 C 0.13855 0.22491 0.47704 0.0
C1098 C 0.15439 0.23546 0.4388 0.0
C1099 C 0.17684 0.23775 0.44286 0.0
H1100 H 0.77412 0.94578 0.44058 0.0
H1101 H 0.84786 0.98413 0.49506 0.0
H1102 H 0.77503 0.90905 0.43302 0.0
H1103 H 0.84929 0.948 0.48536 0.0
H1104 H 0.83741 0.87971 0.546 0.0
H1105 H 0.83844 0.9161 0.53259 0.0
H1106 H 0.78564 0.88121 0.39932 0.0
H1107 H 0.7842 0.84403 0.41421 0.0
C1108 C 0.79081 0.94656 0.44839 0.0
C1109 C 0.81104 0.96813 0.46735 0.0
C1110 C 0.79134 0.92535 0.44454 0.0
C1111 C 0.81215 0.92503 0.45961 0.0
C1112 C 0.83269 0.947 0.47475 0.0
C1113 C 0.83205 0.96801 0.47926 0.0
C1114 C 0.82623 0.87969 0.51311 0.0
C1115 C 0.81083 0.85865 0.4811 0.0
C1116 C 0.82692 0.90088 0.50508 0.0
C1117 C 0.81223 0.90217 0.46452 0.0
C1118 C 0.79719 0.88121 0.43128 0.0
C1119 C 0.79657 0.85982 0.43931 0.0
H1120 H 0.07603 0.87778 0.5727 0.0
H1121 H 0.07566 0.84895 0.41623 0.0
H1122 H 0.11204 0.91392 0.56113 0.0
H1123 H 0.11178 0.88544 0.40424 0.0
H1124 H 0.19291 0.93756 0.44032 0.0
H1125 H 0.15276 0.90475 0.43632 0.0
H1126 H 0.13259 0.94977 0.51897 0.0
H1127 H 0.17324 0.98278 0.52302 0.0
C1128 C 0.08338 0.87926 0.53529 0.0
C1129 C 0.07275 0.86018 0.4955 0.0
C1130 C 0.10412 0.90021 0.52851 0.0
C1131 C 0.11521 0.9029 0.48179 0.0
C1132 C 0.10408 0.88412 0.44112 0.0
C1133 C 0.08315 0.86316 0.44776 0.0
C1134 C 0.17974 0.94068 0.45618 0.0
C1135 C 0.18635 0.96296 0.48137 0.0
C1136 C 0.15657 0.92175 0.45395 0.0
C1137 C 0.13911 0.92425 0.47761 0.0
C1138 C 0.14547 0.94692 0.50074 0.0
C1139 C 0.16874 0.96604 0.50239 0.0
H1140 H 0.26299 0.19241 0.6381 0.0
H1141 H 0.20576 0.15496 0.51517 0.0
H1142 H 0.26236 0.15554 0.65258 0.0
H1143 H 0.20553 0.11894 0.52773 0.0
H1144 H 0.19906 0.05184 0.56123 0.0
H1145 H 0.19709 0.08758 0.57381 0.0
H1146 H 0.27212 0.12762 0.61698 0.0
H1147 H 0.27356 0.09122 0.60719 0.0
C1148 C 0.24986 0.17627 0.61515 0.0
C1149 C 0.23423 0.1768 0.57584 0.0
C1150 C 0.24972 0.15507 0.62277 0.0
C1151 C 0.23386 0.13373 0.5915 0.0
C1152 C 0.21776 0.13443 0.55378 0.0
C1153 C 0.21794 0.15539 0.54625 0.0
C1154 C 0.21499 0.06814 0.57549 0.0
C1155 C 0.23636 0.06842 0.58415 0.0
C1156 C 0.21402 0.08893 0.58169 0.0
C1157 C 0.23455 0.1111 0.59507 0.0
C1158 C 0.2558 0.11118 0.60687 0.0
C1159 C 0.25667 0.09016 0.6016 0.0
H1160 H 0.87479 0.05309 0.55071 0.0
H1161 H 0.85232 0.09953 0.6146 0.0
H1162 H 0.91563 0.08586 0.56096 0.0
H1163 H 0.89249 0.13221 0.62342 0.0
H1164 H 0.96797 0.1906 0.64444 0.0
H1165 H 0.93185 0.15441 0.65853 0.0
H1166 H 0.93916 0.11919 0.5191 0.0
H1167 H 0.9752 0.15471 0.50651 0.0
C1168 C 0.87862 0.07008 0.56852 0.0
C1169 C 0.86018 0.07352 0.58226 0.0
C1170 C 0.90208 0.08913 0.57359 0.0
C1171 C 0.90778 0.11219 0.59242 0.0
C1172 C 0.88934 0.11502 0.6093 0.0
C1173 C 0.86607 0.0961 0.6042 0.0
C1174 C 0.96221 0.17492 0.61778 0.0
C1175 C 0.9747 0.17581 0.57428 0.0
C1176 C 0.9412 0.1541 0.62532 0.0
C1177 C 0.932 0.13349 0.58966 0.0
C1178 C 0.94538 0.13423 0.54803 0.0
C1179 C 0.96621 0.15489 0.54055 0.0
H1180 H 0.98607 0.84334 0.53604 0.0
H1181 H 0.95152 0.77353 0.58529 0.0
H1182 H 0.95073 0.84562 0.54444 0.0
H1183 H 0.91542 0.77529 0.59189 0.0
H1184 H 0.8526 0.78664 0.61065 0.0
H1185 H 0.89141 0.79013 0.6281 0.0
H1186 H 0.91466 0.83008 0.49388 0.0
H1187 H 0.87652 0.82673 0.4776 0.0
C1188 C 0.97099 0.8286 0.5498 0.0
C1189 C 0.97182 0.80834 0.56025 0.0
C1190 C 0.95046 0.82974 0.55394 0.0
C1191 C 0.92966 0.81045 0.56771 0.0
C1192 C 0.93091 0.79062 0.58137 0.0
C1193 C 0.95171 0.78959 0.57777 0.0
C1194 C 0.86643 0.79705 0.58653 0.0
C1195 C 0.86161 0.80706 0.54367 0.0
C1196 C 0.88861 0.79866 0.59578 0.0
C1197 C 0.9066 0.81043 0.56255 0.0
C1198 C 0.90182 0.82127 0.52133 0.0
C1199 C 0.8798 0.81947 0.51196 0.0
H1200 H 0.83201 0.52597 0.78013 0.0
H1201 H 0.86539 0.59645 0.73496 0.0
H1202 H 0.79396 0.52354 0.77072 0.0
H1203 H 0.82727 0.5947 0.72808 0.0
H1204 H 0.75182 0.58309 0.70939 0.0
H1205 H 0.78722 0.58109 0.69304 0.0
H1206 H 0.77503 0.53758 0.8211 0.0
H1207 H 0.74001 0.53903 0.83579 0.0
C1208 C 0.83111 0.54082 0.76689 0.0
C1209 C 0.85182 0.56128 0.75774 0.0
C1210 C 0.80923 0.53963 0.76238 0.0
C1211 C 0.80721 0.55915 0.75006 0.0
C1212 C 0.82779 0.5792 0.73753 0.0
C1213 C 0.84976 0.5802 0.74117 0.0
C1214 C 0.75641 0.57255 0.7329 0.0
C1215 C 0.74276 0.56108 0.77372 0.0
C1216 C 0.77697 0.57166 0.72408 0.0
C1217 C 0.78437 0.55911 0.75552 0.0
C1218 C 0.77009 0.54707 0.79496 0.0
C1219 C 0.74981 0.54802 0.80375 0.0
H1220 H 0.51565 0.32395 0.84062 0.0
H1221 H 0.45214 0.29406 0.73447 0.0
H1222 H 0.51615 0.28782 0.8297 0.0
H1223 H 0.45328 0.25761 0.71997 0.0
H1224 H 0.4441 0.18636 0.76458 0.0
H1225 H 0.44583 0.22371 0.75482 0.0
H1226 H 0.52138 0.25998 0.79162 0.0
H1227 H 0.51893 0.22269 0.80559 0.0
C1228 C 0.50217 0.30982 0.81307 0.0
C1229 C 0.48389 0.31214 0.78842 0.0
C1230 C 0.50248 0.28879 0.80646 0.0
C1231 C 0.48466 0.26906 0.77408 0.0
C1232 C 0.46715 0.27193 0.74625 0.0
C1233 C 0.46671 0.29313 0.75352 0.0
C1234 C 0.46109 0.20238 0.76969 0.0
C1235 C 0.4814 0.20155 0.7856 0.0
C1236 C 0.46217 0.22399 0.76395 0.0
C1237 C 0.48372 0.24553 0.77314 0.0
C1238 C 0.50421 0.24427 0.78588 0.0
C1239 C 0.50298 0.22273 0.79309 0.0
H1240 H 0.7501 0.18062 0.7315 0.0
H1241 H 0.74311 0.22053 0.86186 0.0
H1242 H 0.78608 0.21607 0.71285 0.0
H1243 H 0.77882 0.25528 0.84458 0.0
H1244 H 0.86561 0.27877 0.74537 0.0
H1245 H 0.82701 0.24295 0.74389 0.0
H1246 H 0.7971 0.28538 0.79122 0.0
H1247 H 0.83563 0.32061 0.79469 0.0
C1248 C 0.75595 0.19696 0.7557 0.0
C1249 C 0.74336 0.19753 0.79803 0.0
C1250 C 0.77683 0.21734 0.74539 0.0
C1251 C 0.78569 0.23897 0.77684 0.0
C1252 C 0.77267 0.23941 0.81837 0.0
C1253 C 0.75203 0.2192 0.82866 0.0
C1254 C 0.85057 0.28042 0.75352 0.0
C1255 C 0.85374 0.30269 0.7694 0.0
C1256 C 0.82834 0.2598 0.75315 0.0
C1257 C 0.80864 0.26087 0.76862 0.0
C1258 C 0.8117 0.28342 0.78057 0.0
C1259 C 0.83383 0.30384 0.78159 0.0
H1260 H 0.87969 0.49374 0.75681 0.0
H1261 H 0.92297 0.5243 0.90496 0.0
H1262 H 0.8792 0.4573 0.76647 0.0
H1263 H 0.92177 0.487 0.91628 0.0
H1264 H 0.93685 0.42488 0.88611 0.0
H1265 H 0.93512 0.46117 0.88999 0.0
H1266 H 0.86595 0.42309 0.804 0.0
H1267 H 0.86846 0.38755 0.79799 0.0
C1268 C 0.88875 0.49253 0.79229 0.0
C1269 C 0.9013 0.51219 0.83006 0.0
C1270 C 0.88835 0.47131 0.79816 0.0
C1271 C 0.90033 0.46856 0.84246 0.0
C1272 C 0.91247 0.48813 0.88121 0.0
C1273 C 0.91294 0.50957 0.87511 0.0
C1274 C 0.92107 0.42421 0.86908 0.0
C1275 C 0.90273 0.40312 0.84188 0.0
C1276 C 0.92006 0.44517 0.87113 0.0
C1277 C 0.90057 0.4457 0.84636 0.0
C1278 C 0.88169 0.42408 0.82215 0.0
C1279 C 0.88289 0.40337 0.81941 0.0
H1280 H 0.52597 0.44247 0.91928 0.0
H1281 H 0.54161 0.39228 0.84547 0.0
H1282 H 0.56629 0.47391 0.91502 0.0
H1283 H 0.58234 0.42385 0.84124 0.0
H1284 H 0.63599 0.49108 0.76515 0.0
H1285 H 0.60147 0.45651 0.7894 0.0
H1286 H 0.60828 0.49375 0.94025 0.0
H1287 H 0.6432 0.52865 0.91532 0.0
C1288 C 0.53828 0.438 0.90357 0.0
C1289 C 0.53043 0.4147 0.88313 0.0
C1290 C 0.56157 0.45615 0.90111 0.0
C1291 C 0.57792 0.45178 0.87738 0.0
C1292 C 0.57037 0.42816 0.8593 0.0
C1293 C 0.54701 0.40988 0.86233 0.0
C1294 C 0.63065 0.49168 0.80432 0.0
C1295 C 0.64271 0.51265 0.83846 0.0
C1296 C 0.61068 0.47172 0.81832 0.0
C1297 C 0.60164 0.47201 0.86683 0.0
C1298 C 0.61441 0.49271 0.9023 0.0
C1299 C 0.63474 0.5127 0.88843 0.0
H1300 H 0.63464 0.1329 0.92451 0.0
H1301 H 0.64685 0.17246 0.78965 0.0
H1302 H 0.59884 0.1348 0.93509 0.0
H1303 H 0.61121 0.17379 0.79874 0.0
H1304 H 0.55384 0.18689 0.83432 0.0
H1305 H 0.59176 0.18903 0.8434 0.0
H1306 H 0.55904 0.12031 0.8997 0.0
H1307 H 0.52106 0.11884 0.89266 0.0
C1308 C 0.62992 0.14231 0.89758 0.0
C1309 C 0.64388 0.15267 0.85637 0.0
C1310 C 0.60914 0.14317 0.90321 0.0
C1311 C 0.60171 0.1545 0.86793 0.0
C1312 C 0.61617 0.16529 0.82767 0.0
C1313 C 0.63678 0.16443 0.82215 0.0
C1314 C 0.55483 0.1725 0.85008 0.0
C1315 C 0.53433 0.15282 0.86312 0.0
C1316 C 0.57665 0.17351 0.8545 0.0
C1317 C 0.57881 0.1546 0.87107 0.0
C1318 C 0.55843 0.13535 0.88694 0.0
C1319 C 0.53652 0.13449 0.88313 0.0
H1320 H 0.52666 0.92216 0.07451 0.0
H1321 H 0.5086 0.88525 0.21339 0.0
H1322 H 0.4877 0.91785 0.063 0.0
H1323 H 0.46973 0.88161 0.20361 0.0
H1324 H 0.39752 0.87532 0.17149 0.0
H1325 H 0.43069 0.86854 0.16256 0.0
H1326 H 0.46996 0.93638 0.10394 0.0
H1327 H 0.4371 0.94265 0.11209 0.0
C1328 C 0.514 0.91233 0.10156 0.0
C1329 C 0.52063 0.90351 0.144 0.0
C1330 C 0.49167 0.91024 0.0957 0.0
C1331 C 0.47531 0.89977 0.13294 0.0
C1332 C 0.48148 0.88962 0.17367 0.0
C1333 C 0.50382 0.89153 0.17917 0.0
C1334 C 0.41296 0.88832 0.15492 0.0
C1335 C 0.41444 0.90939 0.1417 0.0
C1336 C 0.43222 0.88465 0.15055 0.0
C1337 C 0.4534 0.90187 0.13246 0.0
C1338 C 0.45413 0.92237 0.11706 0.0
C1339 C 0.43513 0.92604 0.12178 0.0
H1340 H 0.13317 0.62627 0.07768 0.0
H1341 H 0.18054 0.64769 0.22005 0.0
H1342 H 0.13437 0.58966 0.06606 0.0
H1343 H 0.18091 0.61143 0.21049 0.0
H1344 H 0.18872 0.54979 0.18449 0.0
H1345 H 0.19241 0.58766 0.17233 0.0
H1346 H 0.12123 0.55247 0.09667 0.0
H1347 H 0.11842 0.51443 0.10581 0.0
C1348 C 0.14424 0.62347 0.10584 0.0
C1349 C 0.15688 0.64018 0.14964 0.0
C1350 C 0.14466 0.60222 0.09974 0.0
C1351 C 0.15773 0.59708 0.13727 0.0
C1352 C 0.17098 0.61441 0.17974 0.0
C1353 C 0.17065 0.63545 0.18556 0.0
C1354 C 0.17409 0.55015 0.16388 0.0
C1355 C 0.15334 0.52902 0.14594 0.0
C1356 C 0.176 0.572 0.1576 0.0
C1357 C 0.15688 0.57362 0.13487 0.0
C1358 C 0.13647 0.55234 0.11424 0.0
C1359 C 0.13481 0.53037 0.11939 0.0
H1360 H 0.50217 0.66132 0.20854 0.0
H1361 H 0.5318 0.6258 0.1235 0.0
H1362 H 0.46401 0.62529 0.19856 0.0
H1363 H 0.49364 0.58914 0.11509 0.0
H1364 H 0.41325 0.55334 0.24854 0.0
H1365 H 0.44786 0.59055 0.239 0.0
H1366 H 0.45218 0.56393 0.08383 0.0
H1367 H 0.41725 0.52586 0.09429 0.0
C1368 C 0.50037 0.64587 0.18657 0.0
C1369 C 0.52007 0.6466 0.16655 0.0
C1370 C 0.47848 0.62497 0.1815 0.0
C1371 C 0.47554 0.60381 0.15712 0.0
C1372 C 0.49495 0.6049 0.13401 0.0
C1373 C 0.51692 0.62602 0.1386 0.0
C1374 C 0.42127 0.55534 0.21192 0.0
C1375 C 0.4122 0.53638 0.17221 0.0
C1376 C 0.44125 0.57697 0.20621 0.0
C1377 C 0.45312 0.5807 0.16042 0.0
C1378 C 0.44377 0.56188 0.11989 0.0
C1379 C 0.42352 0.54006 0.12559 0.0
H1380 H 0.61032 0.76822 0.28062 0.0
H1381 H 0.53584 0.72682 0.23491 0.0
H1382 H 0.60764 0.80395 0.28861 0.0
H1383 H 0.53264 0.76195 0.24578 0.0
H1384 H 0.54057 0.82805 0.18047 0.0
H1385 H 0.54083 0.79254 0.19646 0.0
H1386 H 0.59644 0.83084 0.32329 0.0
H1387 H 0.59659 0.86712 0.30537 0.0
C1388 C 0.59318 0.76662 0.27474 0.0
C1389 C 0.57323 0.7446 0.25774 0.0
C1390 C 0.5916 0.7872 0.27903 0.0
C1391 C 0.56997 0.78627 0.26673 0.0
C1392 C 0.54979 0.76382 0.25401 0.0
C1393 C 0.55148 0.74345 0.24872 0.0
C1394 C 0.55256 0.82893 0.21265 0.0
C1395 C 0.56844 0.85059 0.24173 0.0
C1396 C 0.55265 0.80831 0.22217 0.0
C1397 C 0.56864 0.80834 0.26144 0.0
C1398 C 0.58396 0.8299 0.29233 0.0
C1399 C 0.58382 0.85074 0.2827 0.0
H1400 H 0.29109 0.86969 0.24753 0.0
H1401 H 0.32782 0.83267 0.2155 0.0
H1402 H 0.25568 0.83266 0.25903 0.0
H1403 H 0.29353 0.79594 0.23152 0.0
H1404 H 0.22255 0.731 0.18403 0.0
H1405 H 0.25915 0.76768 0.19264 0.0
H1406 H 0.22983 0.79894 0.29428 0.0
H1407 H 0.19203 0.76169 0.28218 0.0
C1408 C 0.29187 0.85369 0.24503 0.0
C1409 C 0.3124 0.85423 0.23091 0.0
C1410 C 0.27142 0.83223 0.25162 0.0
C1411 C 0.27094 0.81057 0.24512 0.0
C1412 C 0.2923 0.81166 0.23488 0.0
C1413 C 0.3124 0.83296 0.22673 0.0
C1414 C 0.22393 0.74553 0.20916 0.0
C1415 C 0.20415 0.74313 0.23243 0.0
C1416 C 0.2453 0.7669 0.21455 0.0
C1417 C 0.24819 0.78701 0.24437 0.0
C1418 C 0.22863 0.78428 0.27018 0.0
C1419 C 0.2069 0.7627 0.26412 0.0
H1420 H 0.32756 0.5187 0.22515 0.0
H1421 H 0.29115 0.44598 0.25509 0.0
H1422 H 0.29197 0.52049 0.23381 0.0
H1423 H 0.25483 0.44723 0.26136 0.0
H1424 H 0.19174 0.45772 0.2831 0.0
H1425 H 0.22977 0.45959 0.29949 0.0
H1426 H 0.25739 0.50799 0.18074 0.0
H1427 H 0.2201 0.50653 0.16594 0.0
C1428 C 0.312 0.50318 0.23485 0.0
C1429 C 0.31236 0.48231 0.23997 0.0
C1430 C 0.29133 0.50404 0.23894 0.0
C1431 C 0.27 0.48385 0.24697 0.0
C1432 C 0.27073 0.46324 0.25537 0.0
C1433 C 0.29165 0.4625 0.25202 0.0
C1434 C 0.2062 0.46922 0.26164 0.0
C1435 C 0.20282 0.48212 0.22341 0.0
C1436 C 0.22799 0.47008 0.27049 0.0
C1437 C 0.24705 0.48397 0.2416 0.0
C1438 C 0.24365 0.49741 0.20482 0.0
C1439 C 0.22204 0.49652 0.19603 0.0
H1440 H 0.04434 0.26985 0.17767 0.0
H1441 H 0.98137 0.20316 0.12944 0.0
H1442 H 0.05098 0.27569 0.08514 0.0
H1443 H 0.98801 0.20893 0.03725 0.0
H1444 H 0.99366 0.23634 0.87562 0.0
H1445 H 0.98726 0.23199 0.96854 0.0
H1446 H 0.06179 0.26148 1.009 0.0
H1447 H 0.06829 0.26677 0.91656 0.0
C1448 C 0.03201 0.25633 0.14742 0.0
C1449 C 1.01225 0.23608 0.16126 0.0
C1450 C 0.03581 0.25968 0.09424 0.0
C1451 C 1.01998 0.24284 0.0534 0.0
C1452 C 1.00034 0.22252 0.06736 0.0
C1453 C 0.99653 0.2192 0.12042 0.0
C1454 C 1.00873 0.24215 0.90435 0.0
C1455 C 0.03149 0.25183 0.88823 0.0
C1456 C 1.00503 0.2394 0.95772 0.0
C1457 C 1.02398 0.24627 0.99657 0.0
C1458 C 0.04676 0.25617 0.98048 0.0
C1459 C 0.05046 0.25891 0.92717 0.0
H1460 H 0.77659 0.73797 0.13747 0.0
H1461 H 0.82069 0.81211 0.18757 0.0
H1462 H 0.78107 0.74608 0.04555 0.0
H1463 H 0.82611 0.82008 0.09586 0.0
H1464 H 0.80464 0.82859 0.92824 0.0
H1465 H 0.80305 0.82039 0.02007 0.0
H1466 H 0.80776 0.7587 0.97805 0.0
H1467 H 0.80922 0.7669 0.88565 0.0
C1468 C 0.7874 0.75599 0.12897 0.0
C1469 C 0.79811 0.77439 0.17014 0.0
C1470 C 0.7902 0.76062 0.07617 0.0
C1471 C 0.80383 0.78377 0.06308 0.0
C1472 C 0.81517 0.80207 0.10434 0.0
C1473 C 0.81232 0.79746 0.15711 0.0
C1474 C 0.80567 0.81344 0.93857 0.0
C1475 C 0.80719 0.79848 0.89945 0.0
C1476 C 0.80478 0.80874 0.9914 0.0
C1477 C 0.80541 0.78894 1.00674 0.0
C1478 C 0.80697 0.77396 0.96765 0.0
C1479 C 0.80782 0.77866 0.91464 0.0
H1480 H 0.26398 1.00303 0.15403 0.0
H1481 H 0.24337 0.05498 0.13498 0.0
H1482 H 0.26716 1.00013 0.05919 0.0
H1483 H 0.24638 0.05195 0.04053 0.0
H1484 H 0.22609 0.01872 0.86881 0.0
H1485 H 0.22533 0.02332 0.96404 0.0
H1486 H 0.29006 0.02229 0.98859 0.0
H1487 H 0.29043 1.01694 0.89303 0.0
C1488 C 0.26035 1.01399 0.12978 0.0
C1489 C 0.25318 0.02906 0.15217 0.0
C1490 C 0.26218 1.01234 0.0754 0.0
C1491 C 0.25686 0.02569 0.04218 0.0
C1492 C 0.25016 0.04108 0.06478 0.0
C1493 C 0.24839 0.04277 0.119 0.0
C1494 C 0.24013 0.0194 0.89448 0.0
C1495 C 0.25828 1.0174 0.87323 0.0
C1496 C 0.23982 0.02227 0.94912 0.0
C1497 C 0.25764 0.02318 0.984 0.0
C1498 C 0.27595 0.02143 0.96282 0.0
C1499 C 0.27631 0.01865 0.90806 0.0
H1500 H 1.01302 0.81875 0.90517 0.0
H1501 H 0.04756 0.77792 0.90547 0.0
H1502 H 1.00689 0.81322 0.99796 0.0
H1503 H 0.04097 0.77196 0.99804 0.0
H1504 H 0.04799 0.78926 0.17906 0.0
H1505 H 0.0542 0.79432 0.08615 0.0
H1506 H 0.98387 0.78211 0.05356 0.0
H1507 H 0.9775 0.77674 0.14606 0.0
C1508 C 1.01933 0.8086 0.92504 0.0
C1509 C 0.0308 0.7988 0.89779 0.0
C1510 C 1.01561 0.80524 0.97815 0.0
C1511 C 1.02342 0.79213 1.00557 0.0
C1512 C 0.03491 0.78233 0.97833 0.0
C1513 C 0.03847 0.78554 0.92507 0.0
C1514 C 0.03374 0.78741 0.15205 0.0
C1515 C 1.01226 0.78268 0.17042 0.0
C1516 C 0.03733 0.79034 0.0987 0.0
C1517 C 1.01957 0.78871 0.0623 0.0
C1518 C 0.99808 0.78389 0.0806 0.0
C1519 C 0.99445 0.78086 0.13381 0.0
H1520 H 0.24858 0.20201 0.12994 0.0
H1521 H 0.26038 0.27168 0.17089 0.0
H1522 H 0.24898 0.2084 0.03687 0.0
H1523 H 0.26084 0.27813 0.0775 0.0
H1524 H 0.23459 0.27118 0.90266 0.0
H1525 H 0.23529 0.26568 0.99622 0.0
H1526 H 0.2746 0.23033 0.97252 0.0
H1527 H 0.27303 0.23496 0.87835 0.0
C1528 C 0.25154 0.21882 0.11918 0.0
C1529 C 0.25454 0.23636 0.15813 0.0
C1530 C 0.25179 0.2225 0.06566 0.0
C1531 C 0.25504 0.24382 0.04944 0.0
C1532 C 0.25799 0.26137 0.08837 0.0
C1533 C 0.25772 0.25768 0.142 0.0
C1534 C 0.2432 0.26202 0.91722 0.0
C1535 C 0.25358 0.25334 0.88265 0.0
C1536 C 0.24387 0.25915 0.97115 0.0
C1537 C 0.25497 0.24752 0.99214 0.0
C1538 C 0.26563 0.23911 0.95772 0.0
C1539 C 0.26496 0.242 0.90372 0.0
H1540 H 0.75637 1.00864 0.16235 0.0
H1541 H 0.83121 0.03541 0.17694 0.0
H1542 H 0.75503 1.0022 0.06642 0.0
H1543 H 0.83001 0.02968 0.08136 0.0
H1544 H 0.81588 0.99462 0.91406 0.0
H1545 H 0.81538 0.99838 1.00942 0.0
H1546 H 0.76845 0.02577 0.99082 0.0
H1547 H 0.76903 0.02213 0.89506 0.0
C1548 C 0.77249 1.01297 0.14513 0.0
C1549 C 0.7939 0.02258 0.17725 0.0
C1550 C 0.77177 1.00955 0.09016 0.0
C1551 C 0.79242 1.0155 0.06621 0.0
C1552 C 0.81374 0.0247 0.09851 0.0
C1553 C 0.81447 0.0282 0.15329 0.0
C1554 C 0.80563 1.00168 0.93023 0.0
C1555 C 0.79267 1.00829 0.89683 0.0
C1556 C 0.8053 1.00377 0.98496 0.0
C1557 C 0.79195 1.01246 1.00778 0.0
C1558 C 0.77869 0.01875 0.97444 0.0
C1559 C 0.77906 1.0167 0.91957 0.0
H1560 H 0.69982 0.61002 0.20493 0.0
H1561 H 0.675 0.53566 0.18554 0.0
H1562 H 0.69124 0.60733 0.2966 0.0
H1563 H 0.66592 0.53278 0.27719 0.0
H1564 H 0.68022 0.54288 0.45852 0.0
H1565 H 0.68515 0.54348 0.36468 0.0
H1566 H 0.6611 0.59319 0.35392 0.0
H1567 H 0.65758 0.59373 0.44825 0.0
C1568 C 0.69212 0.59299 0.22002 0.0
C1569 C 0.68813 0.57306 0.18792 0.0
C1570 C 0.68714 0.59142 0.27267 0.0
C1571 C 0.67787 0.56982 0.29458 0.0
C1572 C 0.67342 0.54978 0.26206 0.0
C1573 C 0.67856 0.5514 0.20944 0.0
C1574 C 0.67609 0.55404 0.43625 0.0
C1575 C 0.66865 0.56837 0.46135 0.0
C1576 C 0.67862 0.55415 0.38213 0.0
C1577 C 0.67365 0.56848 0.35151 0.0
C1578 C 0.66548 0.58222 0.37627 0.0
C1579 C 0.6631 0.58224 0.43042 0.0
H1580 H 0.49207 0.11576 0.46191 0.0
H1581 H 0.43927 0.13553 0.47586 0.0
H1582 H 0.49245 0.122 0.36874 0.0
H1583 H 0.44046 0.14287 0.38316 0.0
H1584 H 0.42975 0.13001 0.20288 0.0
H1585 H 0.42926 0.12329 0.2959 0.0
H1586 H 0.50434 0.15138 0.30899 0.0
H1587 H 0.50471 0.15778 0.21566 0.0
C1588 C 0.48051 0.12144 0.4452 0.0
C1589 C 0.46554 0.12499 0.47676 0.0
C1590 C 0.48096 0.12533 0.39168 0.0
C1591 C 0.46648 0.13296 0.36794 0.0
C1592 C 0.45165 0.13671 0.39961 0.0
C1593 C 0.45119 0.13279 0.45316 0.0
C1594 C 0.4462 0.13488 0.22564 0.0
C1595 C 0.46728 0.14449 0.20155 0.0
C1596 C 0.44593 0.13107 0.2792 0.0
C1597 C 0.46677 0.13686 0.31048 0.0
C1598 C 0.48785 0.14635 0.28626 0.0
C1599 C 0.48809 0.15005 0.23258 0.0
H1600 H 0.88262 0.33114 0.2066 0.0
H1601 H 0.95034 0.39246 0.19527 0.0
H1602 H 0.88766 0.34007 0.30199 0.0
H1603 H 0.955 0.40196 0.29092 0.0
H1604 H 0.96755 0.39047 0.46493 0.0
H1605 H 0.96224 0.3863 0.36891 0.0
H1606 H 0.88946 0.36679 0.37315 0.0
H1607 H 0.89478 0.37098 0.46955 0.0
C1608 C 0.89855 0.34664 0.22445 0.0
C1609 C 0.9162 0.36092 0.19323 0.0
C1610 C 0.90131 0.35194 0.2792 0.0
C1611 C 0.92178 0.37171 0.30433 0.0
C1612 C 0.93914 0.38643 0.27297 0.0
C1613 C 0.93636 0.38112 0.21805 0.0
C1614 C 0.95051 0.38573 0.44552 0.0
C1615 C 0.93158 0.38102 0.47515 0.0
C1616 C 0.94747 0.38334 0.39029 0.0
C1617 C 0.9254 0.37614 0.36313 0.0
C1618 C 0.90661 0.37201 0.39273 0.0
C1619 C 0.90965 0.3744 0.44803 0.0
H1620 H 0.6614 0.10599 0.19893 0.0
H1621 H 0.721 0.17448 0.25219 0.0
H1622 H 0.65427 0.09835 0.29045 0.0
H1623 H 0.714 0.16682 0.34355 0.0
H1624 H 0.68415 0.15482 0.50263 0.0
H1625 H 0.68884 0.16244 0.41042 0.0
H1626 H 0.66929 0.09024 0.36845 0.0
H1627 H 0.66346 0.08235 0.45999 0.0
C1628 C 0.6731 0.1194 0.23009 0.0
C1629 C 0.69178 0.1409 0.21774 0.0
C1630 C 0.66902 0.115 0.28281 0.0
C1631 C 0.68353 0.13193 0.32495 0.0
C1632 C 0.70213 0.15347 0.31251 0.0
C1633 C 0.70618 0.15788 0.25983 0.0
C1634 C 0.68049 0.14044 0.47371 0.0
C1635 C 0.67347 0.11795 0.48935 0.0
C1636 C 0.6835 0.14491 0.42067 0.0
C1637 C 0.6796 0.12703 0.38147 0.0
C1638 C 0.67227 0.10447 0.39704 0.0
C1639 C 0.66922 0.1 0.44999 0.0
H1640 H 0.87811 0.56581 0.20623 0.0
H1641 H 0.94815 0.57939 0.18625 0.0
H1642 H 0.8846 0.56382 0.30028 0.0
H1643 H 0.95436 0.5765 0.28035 0.0
H1644 H 0.96637 0.59853 0.46021 0.0
H1645 H 0.96022 0.59821 0.36497 0.0
H1646 H 0.88908 0.54059 0.36412 0.0
H1647 H 0.89525 0.54088 0.45953 0.0
C1648 C 0.89492 0.56833 0.22183 0.0
C1649 C 0.91266 0.57296 0.18841 0.0
C1650 C 0.89854 0.56688 0.27586 0.0
C1651 C 0.92003 0.57001 0.29828 0.0
C1652 C 0.93767 0.57426 0.26475 0.0
C1653 C 0.93402 0.57566 0.21055 0.0
C1654 C 0.94951 0.58552 0.43975 0.0
C1655 C 0.93132 0.56973 0.46797 0.0
C1656 C 0.94597 0.58535 0.3849 0.0
C1657 C 0.92412 0.56941 0.35652 0.0
C1658 C 0.90603 0.5534 0.3846 0.0
C1659 C 0.90957 0.55356 0.43948 0.0
H1660 H 0.45219 0.3764 0.21381 0.0
H1661 H 0.46335 0.31804 0.23285 0.0
H1662 H 0.45053 0.38104 0.30884 0.0
H1663 H 0.46143 0.32254 0.32756 0.0
H1664 H 0.4358 0.3241 0.48994 0.0
H1665 H 0.43465 0.31845 0.39397 0.0
H1666 H 0.47702 0.39354 0.39016 0.0
H1667 H 0.47755 0.39922 0.48559 0.0
C1668 C 0.45436 0.3646 0.23817 0.0
C1669 C 0.45792 0.34685 0.21542 0.0
C1670 C 0.45338 0.36724 0.29271 0.0
C1671 C 0.45587 0.35218 0.32594 0.0
C1672 C 0.45908 0.33423 0.30312 0.0
C1673 C 0.46015 0.33164 0.24866 0.0
C1674 C 0.44468 0.33941 0.46855 0.0
C1675 C 0.45686 0.3621 0.49562 0.0
C1676 C 0.4442 0.33616 0.41358 0.0
C1677 C 0.45578 0.35554 0.38428 0.0
C1678 C 0.46772 0.37823 0.41132 0.0
C1679 C 0.46827 0.38146 0.46621 0.0
H1680 H 0.36198 0.95687 0.54776 0.0
H1681 H 0.36962 0.8958 0.52757 0.0
H1682 H 0.35571 0.95047 0.64037 0.0
H1683 H 0.36406 0.88981 0.62019 0.0
H1684 H 0.32923 0.8715 0.7735 0.0
H1685 H 0.3342 0.87796 0.68103 0.0
H1686 H 0.37697 0.95269 0.72475 0.0
H1687 H 0.37229 0.94624 0.8177 0.0
C1688 C 0.3622 0.942 0.56289 0.0
C1689 C 0.36635 0.92689 0.52991 0.0
C1690 C 0.35888 0.93849 0.61626 0.0
C1691 C 0.35942 0.91964 0.63808 0.0
C1692 C 0.36329 0.90438 0.60488 0.0
C1693 C 0.36673 0.90797 0.55171 0.0
C1694 C 0.33997 0.88933 0.76373 0.0
C1695 C 0.3505 0.9083 0.80366 0.0
C1696 C 0.34276 0.89304 0.71041 0.0
C1697 C 0.35607 0.91585 0.69511 0.0
C1698 C 0.36637 0.93489 0.73485 0.0
C1699 C 0.36366 0.93117 0.78832 0.0
H1700 H 0.12231 0.46993 0.84732 0.0
H1701 H 0.15694 0.4299 0.8233 0.0
H1702 H 0.12287 0.47621 0.75415 0.0
H1703 H 0.15679 0.43554 0.72939 0.0
H1704 H 0.17361 0.47159 0.57374 0.0
H1705 H 0.17393 0.46459 0.66687 0.0
H1706 H 0.10451 0.45539 0.6689 0.0
H1707 H 0.10422 0.46239 0.57625 0.0
C1708 C 0.13019 0.46255 0.8223 0.0
C1709 C 0.13964 0.44944 0.84328 0.0
C1710 C 0.13022 0.4659 0.76847 0.0
C1711 C 0.13974 0.45628 0.73373 0.0
C1712 C 0.14944 0.44337 0.75476 0.0
C1713 C 0.14932 0.43993 0.80868 0.0
C1714 C 0.1583 0.4678 0.59387 0.0
C1715 C 0.13898 0.4678 0.56726 0.0
C1716 C 0.15848 0.4638 0.64744 0.0
C1717 C 0.13934 0.45965 0.67596 0.0
C1718 C 0.11982 0.45908 0.64888 0.0
C1719 C 0.11965 0.46308 0.5955 0.0
H1720 H 0.61755 0.72504 0.81763 0.0
H1721 H 0.55028 0.66179 0.81818 0.0
H1722 H 0.61602 0.71729 0.72258 0.0
H1723 H 0.54868 0.65402 0.72256 0.0
H1724 H 0.5652 0.63726 0.55673 0.0
H1725 H 0.5662 0.64341 0.65253 0.0
H1726 H 0.59517 0.71774 0.64256 0.0
H1727 H 0.59497 0.71174 0.54742 0.0
C1728 C 0.60232 0.70952 0.79743 0.0
C1729 C 0.58393 0.69418 0.82575 0.0
C1730 C 0.60142 0.70509 0.74273 0.0
C1731 C 0.58209 0.68516 0.71447 0.0
C1732 C 0.56394 0.66945 0.74291 0.0
C1733 C 0.56486 0.6739 0.79784 0.0
C1734 C 0.57188 0.65494 0.57499 0.0
C1735 C 0.58003 0.67399 0.54403 0.0
C1736 C 0.57225 0.65844 0.62999 0.0
C1737 C 0.58089 0.68111 0.65561 0.0
C1738 C 0.58871 0.70008 0.62451 0.0
C1739 C 0.58829 0.69658 0.56963 0.0
H1740 H 0.31646 0.44204 0.81961 0.0
H1741 H 0.39107 0.47326 0.86236 0.0
H1742 H 0.32334 0.44751 0.72747 0.0
H1743 H 0.39807 0.47976 0.77031 0.0
H1744 H 0.40061 0.46572 0.5933 0.0
H1745 H 0.39369 0.45978 0.6855 0.0
H1746 H 0.33838 0.47642 0.66677 0.0
H1747 H 0.34517 0.4821 0.57443 0.0
C1748 C 0.33437 0.45006 0.80947 0.0
C1749 C 0.35317 0.45706 0.84883 0.0
C1750 C 0.33836 0.4535 0.75645 0.0
C1751 C 0.36129 0.46412 0.74096 0.0
C1752 C 0.38013 0.47126 0.78036 0.0
C1753 C 0.37613 0.4678 0.83346 0.0
C1754 C 0.38705 0.46825 0.60888 0.0
C1755 C 0.37347 0.47442 0.57613 0.0
C1756 C 0.3831 0.46489 0.66198 0.0
C1757 C 0.36548 0.46765 0.68409 0.0
C1758 C 0.35185 0.47374 0.65122 0.0
C1759 C 0.35575 0.47702 0.59806 0.0
H1760 H 0.55371 0.90166 0.80974 0.0
H1761 H 0.62683 0.92118 0.81819 0.0
H1762 H 0.55399 0.90736 0.71604 0.0
H1763 H 0.62694 0.92625 0.72405 0.0
H1764 H 0.62378 0.9557 0.56543 0.0
H1765 H 0.62461 0.95119 0.65979 0.0
H1766 H 0.55597 0.88867 0.63302 0.0
H1767 H 0.55518 0.89309 0.53883 0.0
C1768 C 0.56991 0.90734 0.79174 0.0
C1769 C 0.59024 0.91094 0.82167 0.0
C1770 C 0.57 0.91033 0.73776 0.0
C1771 C 0.59044 0.91711 0.7122 0.0
C1772 C 0.61091 0.92115 0.74236 0.0
C1773 C 0.61079 0.91803 0.79631 0.0
C1774 C 0.60899 0.94081 0.57952 0.0
C1775 C 0.58937 0.92483 0.54429 0.0
C1776 C 0.60945 0.93825 0.63375 0.0
C1777 C 0.59028 0.91966 0.65427 0.0
C1778 C 0.57084 0.90348 0.61891 0.0
C1779 C 0.5704 0.90601 0.56476 0.0
H1780 H 0.14859 0.65717 0.58358 0.0
H1781 H 0.12036 0.70272 0.55759 0.0
H1782 H 0.1473 0.66273 0.6783 0.0
H1783 H 0.11933 0.70846 0.65264 0.0
H1784 H 0.14594 0.73291 0.82899 0.0
H1785 H 0.14621 0.72701 0.73377 0.0
H1786 H 0.11895 0.65293 0.74389 0.0
H1787 H 0.11935 0.65895 0.83943 0.0
C1788 C 0.14189 0.6682 0.59795 0.0
C1789 C 0.1345 0.67942 0.56274 0.0
C1790 C 0.14117 0.6714 0.65236 0.0
C1791 C 0.13315 0.68598 0.67311 0.0
C1792 C 0.12587 0.69732 0.63803 0.0
C1793 C 0.12651 0.69406 0.58351 0.0
C1794 C 0.14016 0.71538 0.81098 0.0
C1795 C 0.13275 0.69642 0.84195 0.0
C1796 C 0.14007 0.71196 0.75628 0.0
C1797 C 0.13263 0.6895 0.73116 0.0
C1798 C 0.12503 0.6705 0.76205 0.0
C1799 C 0.12503 0.67391 0.81676 0.0
loop_
_geom_bond_atom_site_label_1
_geom_bond_atom_site_label_2
_geom_bond_distance
_geom_bond_site_symmetry_2
_ccdc_geom_bond_type
Tb0 C2 2.809 . S
Tb0 O20 2.484 1_455 S
Tb0 O21 2.440 . S
Tb0 O22 2.658 . S
Tb0 O23 2.409 . S
Tb0 O24 2.378 1_455 S
Tb0 O28 2.325 1_455 S
Tb0 O31 2.341 . S
Tb1 C11 2.809 . S
Tb1 O22 2.325 1_655 S
Tb1 O25 2.341 . S
Tb1 O26 2.484 1_655 S
Tb1 O27 2.440 . S
Tb1 O28 2.658 . S
Tb1 O29 2.409 . S
Tb1 O30 2.378 1_655 S
C2 Tb0 2.809 . S
C2 C3 1.514 . S
C2 O20 1.248 1_455 S
C2 O21 1.266 . S
C3 C2 1.514 . S
C3 C4 1.359 1_455 S
C3 C8 1.348 . S
C4 C3 1.359 1_655 S
C4 C5 1.380 . S
C4 H32 0.929 . S
C5 C4 1.380 . S
C5 C6 1.347 1_655 S
C5 H33 0.931 . S
C6 C5 1.347 1_455 S
C6 C7 1.369 . S
C7 C6 1.369 . S
C7 C8 1.408 . S
C7 H34 0.930 . S
C8 C3 1.348 . S
C8 C7 1.408 . S
C8 H35 0.930 . S
C9 O22 1.281 . S
C9 O23 1.254 . S
C10 O24 1.236 . S
C10 O25 1.266 . S
C11 Tb1 2.809 . S
C11 C12 1.511 1_655 S
C11 O26 1.248 1_655 S
C11 O27 1.266 . S
C12 C11 1.511 1_455 S
C12 C13 1.381 . S
C12 C17 1.329 1_455 S
C13 C12 1.381 . S
C13 C14 1.380 . S
C13 H36 0.929 . S
C14 C13 1.380 . S
C14 C15 1.347 . S
C14 H37 0.931 . S
C15 C14 1.347 . S
C15 C16 1.369 1_455 S
C16 C15 1.369 1_655 S
C16 C17 1.408 . S
C16 H38 0.930 . S
C17 C12 1.329 1_655 S
C17 C16 1.408 . S
C17 H39 0.930 . S
C18 O28 1.281 . S
C18 O29 1.254 . S
C19 O30 1.236 . S
C19 O31 1.266 . S
O20 Tb0 2.484 1_655 S
O20 C2 1.248 1_655 S
O21 Tb0 2.440 . S
O21 C2 1.266 . S
O22 Tb0 2.658 . S
O22 Tb1 2.325 1_455 S
O22 C9 1.281 . S
O23 Tb0 2.409 . S
O23 C9 1.254 . S
O24 Tb0 2.378 1_655 S
O24 C10 1.236 . S
O25 Tb1 2.341 . S
O25 C10 1.266 . S
O26 Tb1 2.484 1_455 S
O26 C11 1.248 1_455 S
O27 Tb1 2.440 . S
O27 C11 1.266 . S
O28 Tb0 2.325 1_655 S
O28 Tb1 2.658 . S
O28 C18 1.281 . S
O29 Tb1 2.409 . S
O29 C18 1.254 . S
O30 Tb1 2.378 1_455 S
O30 C19 1.236 . S
O31 Tb0 2.341 . S
O31 C19 1.266 . S
H32 C4 0.929 . S
H33 C5 0.931 . S
H34 C7 0.930 . S
H35 C8 0.930 . S
H36 C13 0.929 . S
H37 C14 0.931 . S
H38 C16 0.930 . S
H39 C17 0.930 . S
Tb40 C42 2.809 . S
Tb40 O60 2.484 . S
Tb40 O61 2.440 . S
Tb40 O62 2.658 . S
Tb40 O63 2.409 . S
Tb40 O64 2.378 . S
Tb40 O68 2.325 . S
Tb40 O71 2.341 . S
Tb41 C51 2.809 . S
Tb41 O62 2.325 . S
Tb41 O65 2.341 . S
Tb41 O66 2.484 . S
Tb41 O67 2.440 . S
Tb41 O68 2.658 . S
Tb41 O69 2.409 . S
Tb41 O70 2.378 . S
C42 Tb40 2.809 . S
C42 C43 1.514 . S
C42 O60 1.248 . S
C42 O61 1.266 . S
C43 C42 1.514 . S
C43 C44 1.359 . S
C43 C48 1.348 . S
C44 C43 1.359 . S
C44 C45 1.380 . S
C44 H72 0.929 . S
C45 C44 1.380 . S
C45 C46 1.347 . S
C45 H73 0.931 . S
C46 C45 1.347 . S
C46 C47 1.369 . S
C47 C46 1.369 . S
C47 C48 1.408 . S
C47 H74 0.930 . S
C48 C43 1.348 . S
C48 C47 1.408 . S
C48 H75 0.930 . S
C49 O62 1.281 . S
C49 O63 1.254 . S
C50 O64 1.236 . S
C50 O65 1.266 . S
C51 Tb41 2.809 . S
C51 C52 1.514 . S
C51 O66 1.248 . S
C51 O67 1.266 . S
C52 C51 1.514 . S
C52 C53 1.359 . S
C52 C57 1.348 . S
C53 C52 1.359 . S
C53 C54 1.380 . S
C53 H76 0.929 . S
C54 C53 1.380 . S
C54 C55 1.347 . S
C54 H77 0.931 . S
C55 C54 1.347 . S
C55 C56 1.369 . S
C56 C55 1.369 . S
C56 C57 1.408 . S
C56 H78 0.930 . S
C57 C52 1.348 . S
C57 C56 1.408 . S
C57 H79 0.930 . S
C58 O68 1.281 . S
C58 O69 1.254 . S
C59 O70 1.236 . S
C59 O71 1.266 . S
O60 Tb40 2.484 . S
O60 C42 1.248 . S
O61 Tb40 2.440 . S
O61 C42 1.266 . S
O62 Tb40 2.658 . S
O62 Tb41 2.325 . S
O62 C49 1.281 . S
O63 Tb40 2.409 . S
O63 C49 1.254 . S
O64 Tb40 2.378 . S
O64 C50 1.236 . S
O65 Tb41 2.341 . S
O65 C50 1.266 . S
O66 Tb41 2.484 . S
O66 C51 1.248 . S
O67 Tb41 2.440 . S
O67 C51 1.266 . S
O68 Tb40 2.325 . S
O68 Tb41 2.658 . S
O68 C58 1.281 . S
O69 Tb41 2.409 . S
O69 C58 1.254 . S
O70 Tb41 2.378 . S
O70 C59 1.236 . S
O71 Tb40 2.341 . S
O71 C59 1.266 . S
H72 C44 0.929 . S
H73 C45 0.931 . S
H74 C47 0.930 . S
H75 C48 0.930 . S
H76 C53 0.929 . S
H77 C54 0.931 . S
H78 C56 0.930 . S
H79 C57 0.930 . S
Tb80 C82 2.818 . S
Tb80 O100 2.484 1_565 S
Tb80 O101 2.440 . S
Tb80 O102 2.658 . S
Tb80 O103 2.409 . S
Tb80 O104 2.378 1_565 S
Tb80 O108 2.325 1_565 S
Tb80 O111 2.341 . S
Tb81 C91 2.809 . S
Tb81 O102 2.325 1_545 S
Tb81 O105 2.341 . S
Tb81 O106 2.484 1_545 S
Tb81 O107 2.440 . S
Tb81 O108 2.658 . S
Tb81 O109 2.409 . S
Tb81 O110 2.378 1_545 S
C82 Tb80 2.818 . S
C82 C83 1.505 1_565 S
C82 O100 1.237 1_565 S
C82 O101 1.287 . S
C83 C82 1.505 1_545 S
C83 C84 1.359 . S
C83 C88 1.348 1_545 S
C84 C83 1.359 . S
C84 C85 1.380 . S
C84 H112 0.929 . S
C85 C84 1.380 . S
C85 C86 1.347 . S
C85 H113 0.931 . S
C86 C85 1.347 . S
C86 C87 1.369 1_545 S
C87 C86 1.369 1_565 S
C87 C88 1.408 . S
C87 H114 0.930 . S
C88 C83 1.348 1_565 S
C88 C87 1.408 . S
C88 H115 0.930 . S
C89 O102 1.281 . S
C89 O103 1.254 . S
C90 O104 1.236 . S
C90 O105 1.266 . S
C91 Tb81 2.809 . S
C91 C92 1.514 1_545 S
C91 O106 1.248 1_545 S
C91 O107 1.266 . S
C92 C91 1.514 1_565 S
C92 C93 1.359 . S
C92 C97 1.348 1_565 S
C93 C92 1.359 . S
C93 C94 1.380 . S
C93 H116 0.929 . S
C94 C93 1.380 . S
C94 C95 1.347 . S
C94 H117 0.931 . S
C95 C94 1.347 . S
C95 C96 1.369 1_565 S
C96 C95 1.369 1_545 S
C96 C97 1.408 . S
C96 H118 0.930 . S
C97 C92 1.348 1_545 S
C97 C96 1.408 . S
C97 H119 0.930 . S
C98 O108 1.281 . S
C98 O109 1.254 . S
C99 O110 1.236 . S
C99 O111 1.266 . S
O100 Tb80 2.484 1_545 S
O100 C82 1.237 1_545 S
O101 Tb80 2.440 . S
O101 C82 1.287 . S
O102 Tb80 2.658 . S
O102 Tb81 2.325 1_565 S
O102 C89 1.281 . S
O103 Tb80 2.409 . S
O103 C89 1.254 . S
O104 Tb80 2.378 1_545 S
O104 C90 1.236 . S
O105 Tb81 2.341 . S
O105 C90 1.266 . S
O106 Tb81 2.484 1_565 S
O106 C91 1.248 1_565 S
O107 Tb81 2.440 . S
O107 C91 1.266 . S
O108 Tb80 2.325 1_545 S
O108 Tb81 2.658 . S
O108 C98 1.281 . S
O109 Tb81 2.409 . S
O109 C98 1.254 . S
O110 Tb81 2.378 1_565 S
O110 C99 1.236 . S
O111 Tb80 2.341 . S
O111 C99 1.266 . S
H112 C84 0.929 . S
H113 C85 0.931 . S
H114 C87 0.930 . S
H115 C88 0.930 . S
H116 C93 0.929 . S
H117 C94 0.931 . S
H118 C96 0.930 . S
H119 C97 0.930 . S
Tb120 C122 2.809 . S
Tb120 O140 2.484 1_455 S
Tb120 O141 2.440 . S
Tb120 O142 2.658 . S
Tb120 O143 2.409 . S
Tb120 O144 2.378 1_455 S
Tb120 O148 2.325 1_455 S
Tb120 O151 2.341 . S
Tb121 C131 2.809 . S
Tb121 O142 2.325 1_655 S
Tb121 O145 2.341 . S
Tb121 O146 2.484 1_655 S
Tb121 O147 2.440 . S
Tb121 O148 2.658 . S
Tb121 O149 2.409 . S
Tb121 O150 2.378 1_655 S
C122 Tb120 2.809 . S
C122 C123 1.514 . S
C122 O140 1.248 1_455 S
C122 O141 1.266 . S
C123 C122 1.514 . S
C123 C124 1.359 1_455 S
C123 C128 1.348 . S
C124 C123 1.359 1_655 S
C124 C125 1.380 . S
C124 H152 0.929 . S
C125 C124 1.380 . S
C125 C126 1.347 1_655 S
C125 H153 0.931 . S
C126 C125 1.347 1_455 S
C126 C127 1.369 . S
C127 C126 1.369 . S
C127 C128 1.408 . S
C127 H154 0.930 . S
C128 C123 1.348 . S
C128 C127 1.408 . S
C128 H155 0.930 . S
C129 O142 1.281 . S
C129 O143 1.254 . S
C130 O144 1.236 . S
C130 O145 1.266 . S
C131 Tb121 2.809 . S
C131 C132 1.514 . S
C131 O146 1.248 1_655 S
C131 O147 1.266 . S
C132 C131 1.514 . S
C132 C133 1.359 1_655 S
C132 C137 1.348 . S
C133 C132 1.359 1_455 S
C133 C134 1.380 . S
C133 H156 0.929 . S
C134 C133 1.380 . S
C134 C135 1.347 . S
C134 H157 0.931 . S
C135 C134 1.347 . S
C135 C136 1.369 1_455 S
C136 C135 1.369 1_655 S
C136 C137 1.408 . S
C136 H158 0.930 . S
C137 C132 1.348 . S
C137 C136 1.408 . S
C137 H159 0.930 . S
C138 O148 1.281 . S
C138 O149 1.254 . S
C139 O150 1.236 . S
C139 O151 1.266 . S
O140 Tb120 2.484 1_655 S
O140 C122 1.248 1_655 S
O141 Tb120 2.440 . S
O141 C122 1.266 . S
O142 Tb120 2.658 . S
O142 Tb121 2.325 1_455 S
O142 C129 1.281 . S
O143 Tb120 2.409 . S
O143 C129 1.254 . S
O144 Tb120 2.378 1_655 S
O144 C130 1.236 . S
O145 Tb121 2.341 . S
O145 C130 1.266 . S
O146 Tb121 2.484 1_455 S
O146 C131 1.248 1_455 S
O147 Tb121 2.440 . S
O147 C131 1.266 . S
O148 Tb120 2.325 1_655 S
O148 Tb121 2.658 . S
O148 C138 1.281 . S
O149 Tb121 2.409 . S
O149 C138 1.254 . S
O150 Tb121 2.378 1_455 S
O150 C139 1.236 . S
O151 Tb120 2.341 . S
O151 C139 1.266 . S
H152 C124 0.929 . S
H153 C125 0.931 . S
H154 C127 0.930 . S
H155 C128 0.930 . S
H156 C133 0.929 . S
H157 C134 0.931 . S
H158 C136 0.930 . S
H159 C137 0.930 . S
Tb160 C162 2.809 . S
Tb160 O180 2.484 . S
Tb160 O181 2.440 . S
Tb160 O182 2.658 . S
Tb160 O183 2.409 . S
Tb160 O184 2.378 . S
Tb160 O188 2.325 . S
Tb160 O191 2.341 . S
Tb161 C171 2.809 . S
Tb161 O182 2.325 . S
Tb161 O185 2.341 . S
Tb161 O186 2.484 . S
Tb161 O187 2.440 . S
Tb161 O188 2.658 . S
Tb161 O189 2.409 . S
Tb161 O190 2.378 . S
C162 Tb160 2.809 . S
C162 C163 1.514 . S
C162 O180 1.248 . S
C162 O181 1.266 . S
C163 C162 1.514 . S
C163 C164 1.359 . S
C163 C168 1.348 . S
C164 C163 1.359 . S
C164 C165 1.380 . S
C164 H192 0.929 . S
C165 C164 1.380 . S
C165 C166 1.347 . S
C165 H193 0.931 . S
C166 C165 1.347 . S
C166 C167 1.369 . S
C167 C166 1.369 . S
C167 C168 1.408 . S
C167 H194 0.930 . S
C168 C163 1.348 . S
C168 C167 1.408 . S
C168 H195 0.930 . S
C169 O182 1.281 . S
C169 O183 1.254 . S
C170 O184 1.236 . S
C170 O185 1.266 . S
C171 Tb161 2.809 . S
C171 C172 1.514 . S
C171 O186 1.248 . S
C171 O187 1.266 . S
C172 C171 1.514 . S
C172 C173 1.359 . S
C172 C177 1.348 . S
C173 C172 1.359 . S
C173 C174 1.380 . S
C173 H196 0.929 . S
C174 C173 1.380 . S
C174 C175 1.347 . S
C174 H197 0.931 . S
C175 C174 1.347 . S
C175 C176 1.369 . S
C176 C175 1.369 . S
C176 C177 1.408 . S
C176 H198 0.930 . S
C177 C172 1.348 . S
C177 C176 1.408 . S
C177 H199 0.930 . S
C178 O188 1.281 . S
C178 O189 1.254 . S
C179 O190 1.236 . S
C179 O191 1.266 . S
O180 Tb160 2.484 . S
O180 C162 1.248 . S
O181 Tb160 2.440 . S
O181 C162 1.266 . S
O182 Tb160 2.658 . S
O182 Tb161 2.325 . S
O182 C169 1.281 . S
O183 Tb160 2.409 . S
O183 C169 1.254 . S
O184 Tb160 2.378 . S
O184 C170 1.236 . S
O185 Tb161 2.341 . S
O185 C170 1.266 . S
O186 Tb161 2.484 . S
O186 C171 1.248 . S
O187 Tb161 2.440 . S
O187 C171 1.266 . S
O188 Tb160 2.325 . S
O188 Tb161 2.658 . S
O188 C178 1.281 . S
O189 Tb161 2.409 . S
O189 C178 1.254 . S
O190 Tb161 2.378 . S
O190 C179 1.236 . S
O191 Tb160 2.341 . S
O191 C179 1.266 . S
H192 C164 0.929 . S
H193 C165 0.931 . S
H194 C167 0.930 . S
H195 C168 0.930 . S
H196 C173 0.929 . S
H197 C174 0.931 . S
H198 C176 0.930 . S
H199 C177 0.930 . S
Tb200 C202 2.809 1_565 S
Tb200 O220 2.484 1_565 S
Tb200 O221 2.440 . S
Tb200 O222 2.658 . S
Tb200 O223 2.409 . S
Tb200 O224 2.378 1_565 S
Tb200 O228 2.325 1_565 S
Tb200 O231 2.341 . S
Tb201 C211 2.809 . S
Tb201 O222 2.325 1_545 S
Tb201 O225 2.341 . S
Tb201 O226 2.484 1_545 S
Tb201 O227 2.440 . S
Tb201 O228 2.658 . S
Tb201 O229 2.409 . S
Tb201 O230 2.378 1_545 S
C202 Tb200 2.809 1_545 S
C202 C203 1.514 . S
C202 O220 1.248 . S
C202 O221 1.266 1_545 S
C203 C202 1.514 . S
C203 C204 1.359 . S
C203 C208 1.348 1_545 S
C204 C203 1.359 . S
C204 C205 1.380 . S
C204 H232 0.929 . S
C205 C204 1.380 . S
C205 C206 1.347 . S
C205 H233 0.931 . S
C206 C205 1.347 . S
C206 C207 1.372 1_545 S
C207 C206 1.372 1_565 S
C207 C208 1.407 . S
C207 H234 0.929 . S
C208 C203 1.348 1_565 S
C208 C207 1.407 . S
C208 H235 0.930 . S
C209 O222 1.281 . S
C209 O223 1.254 . S
C210 O224 1.236 . S
C210 O225 1.266 . S
C211 Tb201 2.809 . S
C211 C212 1.514 . S
C211 O226 1.248 1_545 S
C211 O227 1.266 . S
C212 C211 1.514 . S
C212 C213 1.359 1_545 S
C212 C217 1.348 . S
C213 C212 1.359 1_565 S
C213 C214 1.380 . S
C213 H236 0.929 . S
C214 C213 1.380 . S
C214 C215 1.347 . S
C214 H237 0.931 . S
C215 C214 1.347 . S
C215 C216 1.369 1_565 S
C216 C215 1.369 1_545 S
C216 C217 1.408 . S
C216 H238 0.930 . S
C217 C212 1.348 . S
C217 C216 1.408 . S
C217 H239 0.930 . S
C218 O228 1.281 . S
C218 O229 1.254 . S
C219 O230 1.236 . S
C219 O231 1.266 . S
O220 Tb200 2.484 1_545 S
O220 C202 1.248 . S
O221 Tb200 2.440 . S
O221 C202 1.266 1_565 S
O222 Tb200 2.658 . S
O222 Tb201 2.325 1_565 S
O222 C209 1.281 . S
O223 Tb200 2.409 . S
O223 C209 1.254 . S
O224 Tb200 2.378 1_545 S
O224 C210 1.236 . S
O225 Tb201 2.341 . S
O225 C210 1.266 . S
O226 Tb201 2.484 1_565 S
O226 C211 1.248 1_565 S
O227 Tb201 2.440 . S
O227 C211 1.266 . S
O228 Tb200 2.325 1_545 S
O228 Tb201 2.658 . S
O228 C218 1.281 . S
O229 Tb201 2.409 . S
O229 C218 1.254 . S
O230 Tb201 2.378 1_565 S
O230 C219 1.236 . S
O231 Tb200 2.341 . S
O231 C219 1.266 . S
H232 C204 0.929 . S
H233 C205 0.931 . S
H234 C207 0.929 . S
H235 C208 0.930 . S
H236 C213 0.929 . S
H237 C214 0.931 . S
H238 C216 0.930 . S
H239 C217 0.930 . S
Tb240 C242 2.809 . S
Tb240 O260 2.484 . S
Tb240 O261 2.440 . S
Tb240 O262 2.658 . S
Tb240 O263 2.409 . S
Tb240 O264 2.378 . S
Tb240 O268 2.325 . S
Tb240 O271 2.341 . S
Tb241 C251 2.809 . S
Tb241 O262 2.325 . S
Tb241 O265 2.341 . S
Tb241 O266 2.484 . S
Tb241 O267 2.440 . S
Tb241 O268 2.658 . S
Tb241 O269 2.409 . S
Tb241 O270 2.378 . S
C242 Tb240 2.809 . S
C242 C243 1.514 . S
C242 O260 1.248 . S
C242 O261 1.266 . S
C243 C242 1.514 . S
C243 C244 1.359 . S
C243 C248 1.348 . S
C244 C243 1.359 . S
C244 C245 1.380 . S
C244 H272 0.929 . S
C245 C244 1.380 . S
C245 C246 1.347 . S
C245 H273 0.931 . S
C246 C245 1.347 . S
C246 C247 1.369 . S
C247 C246 1.369 . S
C247 C248 1.408 . S
C247 H274 0.930 . S
C248 C243 1.348 . S
C248 C247 1.408 . S
C248 H275 0.930 . S
C249 O262 1.281 . S
C249 O263 1.254 . S
C250 O264 1.236 . S
C250 O265 1.266 . S
C251 Tb241 2.809 . S
C251 C252 1.514 1_556 S
C251 O266 1.248 . S
C251 O267 1.266 . S
C252 C251 1.514 1_554 S
C252 C253 1.359 . S
C252 C257 1.348 . S
C253 C252 1.359 . S
C253 C254 1.380 . S
C253 H276 0.929 . S
C254 C253 1.380 . S
C254 C255 1.347 . S
C254 H277 0.931 . S
C255 C254 1.347 . S
C255 C256 1.369 . S
C256 C255 1.369 . S
C256 C257 1.408 . S
C256 H278 0.930 . S
C257 C252 1.348 . S
C257 C256 1.408 . S
C257 H279 0.930 . S
C258 O268 1.281 . S
C258 O269 1.254 . S
C259 O270 1.236 . S
C259 O271 1.266 . S
O260 Tb240 2.484 . S
O260 C242 1.248 . S
O261 Tb240 2.440 . S
O261 C242 1.266 . S
O262 Tb240 2.658 . S
O262 Tb241 2.325 . S
O262 C249 1.281 . S
O263 Tb240 2.409 . S
O263 C249 1.254 . S
O264 Tb240 2.378 . S
O264 C250 1.236 . S
O265 Tb241 2.341 . S
O265 C250 1.266 . S
O266 Tb241 2.484 . S
O266 C251 1.248 . S
O267 Tb241 2.440 . S
O267 C251 1.266 . S
O268 Tb240 2.325 . S
O268 Tb241 2.658 . S
O268 C258 1.281 . S
O269 Tb241 2.409 . S
O269 C258 1.254 . S
O270 Tb241 2.378 . S
O270 C259 1.236 . S
O271 Tb240 2.341 . S
O271 C259 1.266 . S
H272 C244 0.929 . S
H273 C245 0.931 . S
H274 C247 0.930 . S
H275 C248 0.930 . S
H276 C253 0.929 . S
H277 C254 0.931 . S
H278 C256 0.930 . S
H279 C257 0.930 . S
Tb280 C282 2.809 . S
Tb280 O300 2.484 . S
Tb280 O301 2.440 . S
Tb280 O302 2.658 . S
Tb280 O303 2.409 . S
Tb280 O304 2.378 . S
Tb280 O308 2.325 . S
Tb280 O311 2.341 . S
Tb281 C291 2.809 . S
Tb281 O302 2.325 . S
Tb281 O305 2.341 . S
Tb281 O306 2.484 . S
Tb281 O307 2.440 . S
Tb281 O308 2.658 . S
Tb281 O309 2.409 . S
Tb281 O310 2.378 . S
C282 Tb280 2.809 . S
C282 C283 1.514 . S
C282 O300 1.248 . S
C282 O301 1.266 . S
C283 C282 1.514 . S
C283 C284 1.359 . S
C283 C288 1.348 . S
C284 C283 1.359 . S
C284 C285 1.380 . S
C284 H312 0.929 . S
C285 C284 1.380 . S
C285 C286 1.347 . S
C285 H313 0.931 . S
C286 C285 1.347 . S
C286 C287 1.369 . S
C287 C286 1.369 . S
C287 C288 1.408 . S
C287 H314 0.930 . S
C288 C283 1.348 . S
C288 C287 1.408 . S
C288 H315 0.930 . S
C289 O302 1.281 . S
C289 O303 1.254 . S
C290 O304 1.236 . S
C290 O305 1.266 . S
C291 Tb281 2.809 . S
C291 C292 1.514 . S
C291 O306 1.248 . S
C291 O307 1.266 . S
C292 C291 1.514 . S
C292 C293 1.359 1_556 S
C292 C297 1.348 1_556 S
C293 C292 1.359 1_554 S
C293 C294 1.380 . S
C293 H316 0.929 1_554 S
C294 C293 1.380 . S
C294 C295 1.347 . S
C294 H317 0.931 . S
C295 C294 1.347 . S
C295 C296 1.369 . S
C296 C295 1.369 . S
C296 C297 1.408 . S
C296 H318 0.930 . S
C297 C292 1.348 1_554 S
C297 C296 1.408 . S
C297 H319 0.930 1_554 S
C298 O308 1.281 . S
C298 O309 1.254 . S
C299 O310 1.236 . S
C299 O311 1.266 . S
O300 Tb280 2.484 . S
O300 C282 1.248 . S
O301 Tb280 2.440 . S
O301 C282 1.266 . S
O302 Tb280 2.658 . S
O302 Tb281 2.325 . S
O302 C289 1.281 . S
O303 Tb280 2.409 . S
O303 C289 1.254 . S
O304 Tb280 2.378 . S
O304 C290 1.236 . S
O305 Tb281 2.341 . S
O305 C290 1.266 . S
O306 Tb281 2.484 . S
O306 C291 1.248 . S
O307 Tb281 2.440 . S
O307 C291 1.266 . S
O308 Tb280 2.325 . S
O308 Tb281 2.658 . S
O308 C298 1.281 . S
O309 Tb281 2.409 . S
O309 C298 1.254 . S
O310 Tb281 2.378 . S
O310 C299 1.236 . S
O311 Tb280 2.341 . S
O311 C299 1.266 . S
H312 C284 0.929 . S
H313 C285 0.931 . S
H314 C287 0.930 . S
H315 C288 0.930 . S
H316 C293 0.929 1_556 S
H317 C294 0.931 . S
H318 C296 0.930 . S
H319 C297 0.930 1_556 S
Tb320 C322 2.809 . S
Tb320 O340 2.484 . S
Tb320 O341 2.440 . S
Tb320 O342 2.658 . S
Tb320 O343 2.409 . S
Tb320 O344 2.378 . S
Tb320 O348 2.325 . S
Tb320 O351 2.341 . S
Tb321 C331 2.809 . S
Tb321 O342 2.325 . S
Tb321 O345 2.341 . S
Tb321 O346 2.484 . S
Tb321 O347 2.440 . S
Tb321 O348 2.658 . S
Tb321 O349 2.409 . S
Tb321 O350 2.378 . S
C322 Tb320 2.809 . S
C322 C323 1.514 . S
C322 O340 1.248 . S
C322 O341 1.266 . S
C323 C322 1.514 . S
C323 C324 1.359 . S
C323 C328 1.348 . S
C324 C323 1.359 . S
C324 C325 1.380 . S
C324 H352 0.929 . S
C325 C324 1.380 . S
C325 C326 1.347 . S
C325 H353 0.931 . S
C326 C325 1.347 . S
C326 C327 1.369 . S
C327 C326 1.369 . S
C327 C328 1.408 . S
C327 H354 0.930 . S
C328 C323 1.348 . S
C328 C327 1.408 . S
C328 H355 0.930 . S
C329 O342 1.281 . S
C329 O343 1.254 . S
C330 O344 1.236 . S
C330 O345 1.266 . S
C331 Tb321 2.809 . S
C331 C332 1.514 1_556 S
C331 O346 1.248 . S
C331 O347 1.266 . S
C332 C331 1.514 1_554 S
C332 C333 1.359 . S
C332 C337 1.348 . S
C333 C332 1.359 . S
C333 C334 1.380 . S
C333 H356 0.929 . S
C334 C333 1.380 . S
C334 C335 1.347 . S
C334 H357 0.931 . S
C335 C334 1.347 . S
C335 C336 1.369 . S
C336 C335 1.369 . S
C336 C337 1.408 . S
C336 H358 0.930 . S
C337 C332 1.348 . S
C337 C336 1.408 . S
C337 H359 0.930 . S
C338 O348 1.281 . S
C338 O349 1.254 . S
C339 O350 1.236 . S
C339 O351 1.266 . S
O340 Tb320 2.484 . S
O340 C322 1.248 . S
O341 Tb320 2.440 . S
O341 C322 1.266 . S
O342 Tb320 2.658 . S
O342 Tb321 2.325 . S
O342 C329 1.281 . S
O343 Tb320 2.409 . S
O343 C329 1.254 . S
O344 Tb320 2.378 . S
O344 C330 1.236 . S
O345 Tb321 2.341 . S
O345 C330 1.266 . S
O346 Tb321 2.484 . S
O346 C331 1.248 . S
O347 Tb321 2.440 . S
O347 C331 1.266 . S
O348 Tb320 2.325 . S
O348 Tb321 2.658 . S
O348 C338 1.281 . S
O349 Tb321 2.409 . S
O349 C338 1.254 . S
O350 Tb321 2.378 . S
O350 C339 1.236 . S
O351 Tb320 2.341 . S
O351 C339 1.266 . S
H352 C324 0.929 . S
H353 C325 0.931 . S
H354 C327 0.930 . S
H355 C328 0.930 . S
H356 C333 0.929 . S
H357 C334 0.931 . S
H358 C336 0.930 . S
H359 C337 0.930 . S
Tb360 C362 2.809 . S
Tb360 O380 2.484 . S
Tb360 O381 2.440 . S
Tb360 O382 2.658 . S
Tb360 O383 2.409 . S
Tb360 O384 2.378 . S
Tb360 O388 2.325 . S
Tb360 O391 2.341 . S
Tb361 C371 2.809 . S
Tb361 O382 2.325 . S
Tb361 O385 2.341 . S
Tb361 O386 2.484 . S
Tb361 O387 2.440 . S
Tb361 O388 2.658 . S
Tb361 O389 2.409 . S
Tb361 O390 2.378 . S
C362 Tb360 2.809 . S
C362 C363 1.514 1_556 S
C362 O380 1.248 . S
C362 O381 1.266 . S
C363 C362 1.514 1_554 S
C363 C364 1.359 . S
C363 C368 1.348 . S
C364 C363 1.359 . S
C364 C365 1.380 . S
C364 H392 0.929 . S
C365 C364 1.380 . S
C365 C366 1.347 . S
C365 H393 0.931 . S
C366 C365 1.347 . S
C366 C367 1.369 . S
C367 C366 1.369 . S
C367 C368 1.408 . S
C367 H394 0.930 . S
C368 C363 1.348 . S
C368 C367 1.408 . S
C368 H395 0.930 . S
C369 O382 1.281 . S
C369 O383 1.254 . S
C370 O384 1.236 . S
C370 O385 1.266 . S
C371 Tb361 2.809 . S
C371 C372 1.514 . S
C371 O386 1.248 . S
C371 O387 1.266 . S
C372 C371 1.514 . S
C372 C373 1.359 . S
C372 C377 1.348 . S
C373 C372 1.359 . S
C373 C374 1.380 . S
C373 H396 0.929 . S
C374 C373 1.380 . S
C374 C375 1.347 . S
C374 H397 0.931 . S
C375 C374 1.347 . S
C375 C376 1.369 . S
C376 C375 1.369 . S
C376 C377 1.408 . S
C376 H398 0.930 . S
C377 C372 1.348 . S
C377 C376 1.408 . S
C377 H399 0.930 . S
C378 O388 1.281 . S
C378 O389 1.254 . S
C379 O390 1.236 . S
C379 O391 1.266 . S
O380 Tb360 2.484 . S
O380 C362 1.248 . S
O381 Tb360 2.440 . S
O381 C362 1.266 . S
O382 Tb360 2.658 . S
O382 Tb361 2.325 . S
O382 C369 1.281 . S
O383 Tb360 2.409 . S
O383 C369 1.254 . S
O384 Tb360 2.378 . S
O384 C370 1.236 . S
O385 Tb361 2.341 . S
O385 C370 1.266 . S
O386 Tb361 2.484 . S
O386 C371 1.248 . S
O387 Tb361 2.440 . S
O387 C371 1.266 . S
O388 Tb360 2.325 . S
O388 Tb361 2.658 . S
O388 C378 1.281 . S
O389 Tb361 2.409 . S
O389 C378 1.254 . S
O390 Tb361 2.378 . S
O390 C379 1.236 . S
O391 Tb360 2.341 . S
O391 C379 1.266 . S
H392 C364 0.929 . S
H393 C365 0.931 . S
H394 C367 0.930 . S
H395 C368 0.930 . S
H396 C373 0.929 . S
H397 C374 0.931 . S
H398 C376 0.930 . S
H399 C377 0.930 . S
Tb400 C402 2.809 . S
Tb400 O420 2.484 . S
Tb400 O421 2.440 . S
Tb400 O422 2.658 . S
Tb400 O423 2.409 . S
Tb400 O424 2.378 . S
Tb400 O428 2.325 . S
Tb400 O431 2.341 . S
Tb401 C411 2.809 . S
Tb401 O422 2.325 . S
Tb401 O425 2.341 . S
Tb401 O426 2.484 . S
Tb401 O427 2.440 . S
Tb401 O428 2.658 . S
Tb401 O429 2.409 . S
Tb401 O430 2.378 . S
C402 Tb400 2.809 . S
C402 C403 1.514 1_556 S
C402 O420 1.248 . S
C402 O421 1.266 . S
C403 C402 1.514 1_554 S
C403 C404 1.359 . S
C403 C408 1.348 . S
C404 C403 1.359 . S
C404 C405 1.380 . S
C404 H432 0.929 . S
C405 C404 1.380 . S
C405 C406 1.347 . S
C405 H433 0.931 . S
C406 C405 1.347 . S
C406 C407 1.369 . S
C407 C406 1.369 . S
C407 C408 1.408 . S
C407 H434 0.930 . S
C408 C403 1.348 . S
C408 C407 1.408 . S
C408 H435 0.930 . S
C409 O422 1.281 . S
C409 O423 1.254 . S
C410 O424 1.236 . S
C410 O425 1.266 . S
C411 Tb401 2.809 . S
C411 C412 1.514 . S
C411 O426 1.248 . S
C411 O427 1.266 . S
C412 C411 1.514 . S
C412 C413 1.359 . S
C412 C417 1.348 . S
C413 C412 1.359 . S
C413 C414 1.380 . S
C413 H436 0.929 . S
C414 C413 1.380 . S
C414 C415 1.347 . S
C414 H437 0.931 . S
C415 C414 1.347 . S
C415 C416 1.369 . S
C416 C415 1.369 . S
C416 C417 1.408 . S
C416 H438 0.930 . S
C417 C412 1.348 . S
C417 C416 1.408 . S
C417 H439 0.930 . S
C418 O428 1.281 . S
C418 O429 1.254 . S
C419 O430 1.236 . S
C419 O431 1.266 . S
O420 Tb400 2.484 . S
O420 C402 1.248 . S
O421 Tb400 2.440 . S
O421 C402 1.266 . S
O422 Tb400 2.658 . S
O422 Tb401 2.325 . S
O422 C409 1.281 . S
O423 Tb400 2.409 . S
O423 C409 1.254 . S
O424 Tb400 2.378 . S
O424 C410 1.236 . S
O425 Tb401 2.341 . S
O425 C410 1.266 . S
O426 Tb401 2.484 . S
O426 C411 1.248 . S
O427 Tb401 2.440 . S
O427 C411 1.266 . S
O428 Tb400 2.325 . S
O428 Tb401 2.658 . S
O428 C418 1.281 . S
O429 Tb401 2.409 . S
O429 C418 1.254 . S
O430 Tb401 2.378 . S
O430 C419 1.236 . S
O431 Tb400 2.341 . S
O431 C419 1.266 . S
H432 C404 0.929 . S
H433 C405 0.931 . S
H434 C407 0.930 . S
H435 C408 0.930 . S
H436 C413 0.929 . S
H437 C414 0.931 . S
H438 C416 0.930 . S
H439 C417 0.930 . S
Tb440 C442 2.809 . S
Tb440 O460 2.484 . S
Tb440 O461 2.440 . S
Tb440 O462 2.658 . S
Tb440 O463 2.409 . S
Tb440 O464 2.378 . S
Tb440 O468 2.325 . S
Tb440 O471 2.341 . S
Tb441 C451 2.809 . S
Tb441 O462 2.325 . S
Tb441 O465 2.341 . S
Tb441 O466 2.484 . S
Tb441 O467 2.440 . S
Tb441 O468 2.658 . S
Tb441 O469 2.409 . S
Tb441 O470 2.378 . S
C442 Tb440 2.809 . S
C442 C443 1.514 1_556 S
C442 O460 1.248 . S
C442 O461 1.266 . S
C443 C442 1.514 1_554 S
C443 C444 1.359 . S
C443 C448 1.348 . S
C444 C443 1.359 . S
C444 C445 1.380 . S
C444 H472 0.929 . S
C445 C444 1.380 . S
C445 C446 1.347 . S
C445 H473 0.931 . S
C446 C445 1.347 . S
C446 C447 1.369 . S
C447 C446 1.369 . S
C447 C448 1.408 . S
C447 H474 0.930 . S
C448 C443 1.348 . S
C448 C447 1.408 . S
C448 H475 0.930 . S
C449 O462 1.281 . S
C449 O463 1.254 . S
C450 O464 1.236 . S
C450 O465 1.266 . S
C451 Tb441 2.809 . S
C451 C452 1.514 . S
C451 O466 1.248 . S
C451 O467 1.266 . S
C452 C451 1.514 . S
C452 C453 1.359 . S
C452 C457 1.348 . S
C453 C452 1.359 . S
C453 C454 1.380 . S
C453 H476 0.929 . S
C454 C453 1.380 . S
C454 C455 1.347 . S
C454 H477 0.931 . S
C455 C454 1.347 . S
C455 C456 1.369 . S
C456 C455 1.369 . S
C456 C457 1.408 . S
C456 H478 0.930 . S
C457 C452 1.348 . S
C457 C456 1.408 . S
C457 H479 0.930 . S
C458 O468 1.281 . S
C458 O469 1.254 . S
C459 O470 1.236 . S
C459 O471 1.266 . S
O460 Tb440 2.484 . S
O460 C442 1.248 . S
O461 Tb440 2.440 . S
O461 C442 1.266 . S
O462 Tb440 2.658 . S
O462 Tb441 2.325 . S
O462 C449 1.281 . S
O463 Tb440 2.409 . S
O463 C449 1.254 . S
O464 Tb440 2.378 . S
O464 C450 1.236 . S
O465 Tb441 2.341 . S
O465 C450 1.266 . S
O466 Tb441 2.484 . S
O466 C451 1.248 . S
O467 Tb441 2.440 . S
O467 C451 1.266 . S
O468 Tb440 2.325 . S
O468 Tb441 2.658 . S
O468 C458 1.281 . S
O469 Tb441 2.409 . S
O469 C458 1.254 . S
O470 Tb441 2.378 . S
O470 C459 1.236 . S
O471 Tb440 2.341 . S
O471 C459 1.266 . S
H472 C444 0.929 . S
H473 C445 0.931 . S
H474 C447 0.930 . S
H475 C448 0.930 . S
H476 C453 0.929 . S
H477 C454 0.931 . S
H478 C456 0.930 . S
H479 C457 0.930 . S
Tb480 C482 2.809 . S
Tb480 O500 2.484 . S
Tb480 O501 2.440 . S
Tb480 O502 2.658 . S
Tb480 O503 2.409 . S
Tb480 O504 2.378 . S
Tb480 O508 2.325 . S
Tb480 O511 2.341 . S
Tb481 C491 2.809 1_554 S
Tb481 O502 2.325 . S
Tb481 O505 2.341 . S
Tb481 O506 2.484 . S
Tb481 O507 2.440 . S
Tb481 O508 2.658 . S
Tb481 O509 2.409 . S
Tb481 O510 2.378 . S
C482 Tb480 2.809 . S
C482 C483 1.514 . S
C482 O500 1.248 . S
C482 O501 1.266 . S
C483 C482 1.514 . S
C483 C484 1.359 . S
C483 C488 1.348 . S
C484 C483 1.359 . S
C484 C485 1.380 . S
C484 H512 0.929 . S
C485 C484 1.380 . S
C485 C486 1.347 . S
C485 H513 0.931 . S
C486 C485 1.347 . S
C486 C487 1.369 . S
C487 C486 1.369 . S
C487 C488 1.408 . S
C487 H514 0.930 . S
C488 C483 1.348 . S
C488 C487 1.408 . S
C488 H515 0.930 . S
C489 O502 1.281 . S
C489 O503 1.254 . S
C490 O504 1.236 . S
C490 O505 1.266 . S
C491 Tb481 2.809 1_556 S
C491 C492 1.514 . S
C491 O506 1.248 1_556 S
C491 O507 1.266 1_556 S
C492 C491 1.514 . S
C492 C493 1.359 . S
C492 C497 1.348 . S
C493 C492 1.359 . S
C493 C494 1.380 . S
C493 H516 0.929 . S
C494 C493 1.380 . S
C494 C495 1.347 . S
C494 H517 0.931 . S
C495 C494 1.347 . S
C495 C496 1.369 . S
C496 C495 1.369 . S
C496 C497 1.408 . S
C496 H518 0.930 . S
C497 C492 1.348 . S
C497 C496 1.408 . S
C497 H519 0.930 . S
C498 O508 1.281 . S
C498 O509 1.254 . S
C499 O510 1.236 . S
C499 O511 1.266 . S
O500 Tb480 2.484 . S
O500 C482 1.248 . S
O501 Tb480 2.440 . S
O501 C482 1.266 . S
O502 Tb480 2.658 . S
O502 Tb481 2.325 . S
O502 C489 1.281 . S
O503 Tb480 2.409 . S
O503 C489 1.254 . S
O504 Tb480 2.378 . S
O504 C490 1.236 . S
O505 Tb481 2.341 . S
O505 C490 1.266 . S
O506 Tb481 2.484 . S
O506 C491 1.248 1_554 S
O507 Tb481 2.440 . S
O507 C491 1.266 1_554 S
O508 Tb480 2.325 . S
O508 Tb481 2.658 . S
O508 C498 1.281 . S
O509 Tb481 2.409 . S
O509 C498 1.254 . S
O510 Tb481 2.378 . S
O510 C499 1.236 . S
O511 Tb480 2.341 . S
O511 C499 1.266 . S
H512 C484 0.929 . S
H513 C485 0.931 . S
H514 C487 0.930 . S
H515 C488 0.930 . S
H516 C493 0.929 . S
H517 C494 0.931 . S
H518 C496 0.930 . S
H519 C497 0.930 . S
Tb520 C522 2.809 1_554 S
Tb520 O540 2.484 . S
Tb520 O541 2.440 . S
Tb520 O542 2.658 . S
Tb520 O543 2.409 . S
Tb520 O544 2.378 . S
Tb520 O548 2.325 . S
Tb520 O551 2.341 . S
Tb521 C531 2.809 . S
Tb521 O542 2.325 . S
Tb521 O545 2.341 . S
Tb521 O546 2.484 . S
Tb521 O547 2.440 . S
Tb521 O548 2.658 . S
Tb521 O549 2.409 . S
Tb521 O550 2.378 . S
C522 Tb520 2.809 1_556 S
C522 C523 1.514 . S
C522 O540 1.248 1_556 S
C522 O541 1.266 1_556 S
C523 C522 1.514 . S
C523 C524 1.359 . S
C523 C528 1.348 . S
C524 C523 1.359 . S
C524 C525 1.380 . S
C524 H552 0.929 . S
C525 C524 1.380 . S
C525 C526 1.347 . S
C525 H553 0.931 . S
C526 C525 1.347 . S
C526 C527 1.369 . S
C527 C526 1.369 . S
C527 C528 1.408 . S
C527 H554 0.930 . S
C528 C523 1.348 . S
C528 C527 1.408 . S
C528 H555 0.930 . S
C529 O542 1.281 . S
C529 O543 1.254 . S
C530 O544 1.236 . S
C530 O545 1.266 . S
C531 Tb521 2.809 . S
C531 C532 1.514 . S
C531 O546 1.248 . S
C531 O547 1.266 . S
C532 C531 1.514 . S
C532 C533 1.359 . S
C532 C537 1.348 . S
C533 C532 1.359 . S
C533 C534 1.380 . S
C533 H556 0.929 . S
C534 C533 1.380 . S
C534 C535 1.347 . S
C534 H557 0.931 . S
C535 C534 1.347 . S
C535 C536 1.369 . S
C536 C535 1.369 . S
C536 C537 1.408 . S
C536 H558 0.930 . S
C537 C532 1.348 . S
C537 C536 1.408 . S
C537 H559 0.930 . S
C538 O548 1.281 . S
C538 O549 1.254 . S
C539 O550 1.236 . S
C539 O551 1.266 . S
O540 Tb520 2.484 . S
O540 C522 1.248 1_554 S
O541 Tb520 2.440 . S
O541 C522 1.266 1_554 S
O542 Tb520 2.658 . S
O542 Tb521 2.325 . S
O542 C529 1.281 . S
O543 Tb520 2.409 . S
O543 C529 1.254 . S
O544 Tb520 2.378 . S
O544 C530 1.236 . S
O545 Tb521 2.341 . S
O545 C530 1.266 . S
O546 Tb521 2.484 . S
O546 C531 1.248 . S
O547 Tb521 2.440 . S
O547 C531 1.266 . S
O548 Tb520 2.325 . S
O548 Tb521 2.658 . S
O548 C538 1.281 . S
O549 Tb521 2.409 . S
O549 C538 1.254 . S
O550 Tb521 2.378 . S
O550 C539 1.236 . S
O551 Tb520 2.341 . S
O551 C539 1.266 . S
H552 C524 0.929 . S
H553 C525 0.931 . S
H554 C527 0.930 . S
H555 C528 0.930 . S
H556 C533 0.929 . S
H557 C534 0.931 . S
H558 C536 0.930 . S
H559 C537 0.930 . S
Tb560 C562 2.809 . S
Tb560 O580 2.484 . S
Tb560 O581 2.440 . S
Tb560 O582 2.658 . S
Tb560 O583 2.409 . S
Tb560 O584 2.378 . S
Tb560 O588 2.325 . S
Tb560 O591 2.341 . S
Tb561 C571 2.809 . S
Tb561 O582 2.325 . S
Tb561 O585 2.341 . S
Tb561 O586 2.484 . S
Tb561 O587 2.440 . S
Tb561 O588 2.658 . S
Tb561 O589 2.409 . S
Tb561 O590 2.378 . S
C562 Tb560 2.809 . S
C562 C563 1.514 . S
C562 O580 1.248 . S
C562 O581 1.266 . S
C563 C562 1.514 . S
C563 C564 1.359 . S
C563 C568 1.348 . S
C564 C563 1.359 . S
C564 C565 1.380 . S
C564 H592 0.929 . S
C565 C564 1.380 . S
C565 C566 1.347 . S
C565 H593 0.931 . S
C566 C565 1.347 . S
C566 C567 1.369 . S
C567 C566 1.369 . S
C567 C568 1.408 . S
C567 H594 0.930 . S
C568 C563 1.348 . S
C568 C567 1.408 . S
C568 H595 0.930 . S
C569 O582 1.281 . S
C569 O583 1.254 . S
C570 O584 1.236 . S
C570 O585 1.266 . S
C571 Tb561 2.809 . S
C571 C572 1.514 1_554 S
C571 O586 1.248 . S
C571 O587 1.266 . S
C572 C571 1.514 1_556 S
C572 C573 1.359 . S
C572 C577 1.348 . S
C573 C572 1.359 . S
C573 C574 1.380 . S
C573 H596 0.929 . S
C574 C573 1.380 . S
C574 C575 1.347 . S
C574 H597 0.931 . S
C575 C574 1.347 . S
C575 C576 1.369 . S
C576 C575 1.369 . S
C576 C577 1.408 . S
C576 H598 0.930 . S
C577 C572 1.348 . S
C577 C576 1.408 . S
C577 H599 0.930 . S
C578 O588 1.281 . S
C578 O589 1.254 . S
C579 O590 1.236 . S
C579 O591 1.266 . S
O580 Tb560 2.484 . S
O580 C562 1.248 . S
O581 Tb560 2.440 . S
O581 C562 1.266 . S
O582 Tb560 2.658 . S
O582 Tb561 2.325 . S
O582 C569 1.281 . S
O583 Tb560 2.409 . S
O583 C569 1.254 . S
O584 Tb560 2.378 . S
O584 C570 1.236 . S
O585 Tb561 2.341 . S
O585 C570 1.266 . S
O586 Tb561 2.484 . S
O586 C571 1.248 . S
O587 Tb561 2.440 . S
O587 C571 1.266 . S
O588 Tb560 2.325 . S
O588 Tb561 2.658 . S
O588 C578 1.281 . S
O589 Tb561 2.409 . S
O589 C578 1.254 . S
O590 Tb561 2.378 . S
O590 C579 1.236 . S
O591 Tb560 2.341 . S
O591 C579 1.266 . S
H592 C564 0.929 . S
H593 C565 0.931 . S
H594 C567 0.930 . S
H595 C568 0.930 . S
H596 C573 0.929 . S
H597 C574 0.931 . S
H598 C576 0.930 . S
H599 C577 0.930 . S
Tb600 C602 2.809 . S
Tb600 O620 2.484 . S
Tb600 O621 2.440 . S
Tb600 O622 2.658 . S
Tb600 O623 2.409 . S
Tb600 O624 2.378 . S
Tb600 O628 2.325 . S
Tb600 O631 2.341 . S
Tb601 C611 2.809 . S
Tb601 O622 2.325 . S
Tb601 O625 2.341 . S
Tb601 O626 2.484 . S
Tb601 O627 2.440 . S
Tb601 O628 2.658 . S
Tb601 O629 2.409 . S
Tb601 O630 2.378 . S
C602 Tb600 2.809 . S
C602 C603 1.514 . S
C602 O620 1.248 . S
C602 O621 1.266 . S
C603 C602 1.514 . S
C603 C604 1.359 . S
C603 C608 1.348 . S
C604 C603 1.359 . S
C604 C605 1.380 . S
C604 H632 0.929 . S
C605 C604 1.380 . S
C605 C606 1.347 . S
C605 H633 0.931 . S
C606 C605 1.347 . S
C606 C607 1.369 . S
C607 C606 1.369 . S
C607 C608 1.408 . S
C607 H634 0.930 . S
C608 C603 1.348 . S
C608 C607 1.408 . S
C608 H635 0.930 . S
C609 O622 1.281 . S
C609 O623 1.254 . S
C610 O624 1.236 . S
C610 O625 1.266 . S
C611 Tb601 2.809 . S
C611 C612 1.514 1_554 S
C611 O626 1.248 . S
C611 O627 1.266 . S
C612 C611 1.514 1_556 S
C612 C613 1.359 . S
C612 C617 1.348 . S
C613 C612 1.359 . S
C613 C614 1.380 . S
C613 H636 0.929 . S
C614 C613 1.380 . S
C614 C615 1.347 . S
C614 H637 0.931 . S
C615 C614 1.347 . S
C615 C616 1.369 . S
C616 C615 1.369 . S
C616 C617 1.408 . S
C616 H638 0.930 . S
C617 C612 1.348 . S
C617 C616 1.408 . S
C617 H639 0.930 . S
C618 O628 1.281 . S
C618 O629 1.254 . S
C619 O630 1.236 . S
C619 O631 1.266 . S
O620 Tb600 2.484 . S
O620 C602 1.248 . S
O621 Tb600 2.440 . S
O621 C602 1.266 . S
O622 Tb600 2.658 . S
O622 Tb601 2.325 . S
O622 C609 1.281 . S
O623 Tb600 2.409 . S
O623 C609 1.254 . S
O624 Tb600 2.378 . S
O624 C610 1.236 . S
O625 Tb601 2.341 . S
O625 C610 1.266 . S
O626 Tb601 2.484 . S
O626 C611 1.248 . S
O627 Tb601 2.440 . S
O627 C611 1.266 . S
O628 Tb600 2.325 . S
O628 Tb601 2.658 . S
O628 C618 1.281 . S
O629 Tb601 2.409 . S
O629 C618 1.254 . S
O630 Tb601 2.378 . S
O630 C619 1.236 . S
O631 Tb600 2.341 . S
O631 C619 1.266 . S
H632 C604 0.929 . S
H633 C605 0.931 . S
H634 C607 0.930 . S
H635 C608 0.930 . S
H636 C613 0.929 . S
H637 C614 0.931 . S
H638 C616 0.930 . S
H639 C617 0.930 . S
Tb640 C642 2.809 . S
Tb640 O660 2.484 . S
Tb640 O661 2.440 . S
Tb640 O662 2.658 . S
Tb640 O663 2.409 . S
Tb640 O664 2.378 . S
Tb640 O668 2.325 . S
Tb640 O671 2.341 . S
Tb641 C651 2.809 . S
Tb641 O662 2.325 . S
Tb641 O665 2.341 . S
Tb641 O666 2.484 . S
Tb641 O667 2.440 . S
Tb641 O668 2.658 . S
Tb641 O669 2.409 . S
Tb641 O670 2.378 . S
C642 Tb640 2.809 . S
C642 C643 1.514 . S
C642 O660 1.248 . S
C642 O661 1.266 . S
C643 C642 1.514 . S
C643 C644 1.359 1_554 S
C643 C648 1.348 1_554 S
C644 C643 1.359 1_556 S
C644 C645 1.380 . S
C644 H672 0.929 . S
C645 C644 1.380 . S
C645 C646 1.347 . S
C645 H673 0.931 . S
C646 C645 1.347 . S
C646 C647 1.369 . S
C647 C646 1.369 . S
C647 C648 1.408 . S
C647 H674 0.930 . S
C648 C643 1.348 1_556 S
C648 C647 1.408 . S
C648 H675 0.930 . S
C649 O662 1.281 . S
C649 O663 1.254 . S
C650 O664 1.236 . S
C650 O665 1.266 . S
C651 Tb641 2.809 . S
C651 C652 1.514 . S
C651 O666 1.248 . S
C651 O667 1.266 . S
C652 C651 1.514 . S
C652 C653 1.359 . S
C652 C657 1.348 . S
C653 C652 1.359 . S
C653 C654 1.380 . S
C653 H676 0.929 . S
C654 C653 1.380 . S
C654 C655 1.347 . S
C654 H677 0.931 . S
C655 C654 1.347 . S
C655 C656 1.369 . S
C656 C655 1.369 . S
C656 C657 1.408 . S
C656 H678 0.930 . S
C657 C652 1.348 . S
C657 C656 1.408 . S
C657 H679 0.930 . S
C658 O668 1.281 . S
C658 O669 1.254 . S
C659 O670 1.236 . S
C659 O671 1.266 . S
O660 Tb640 2.484 . S
O660 C642 1.248 . S
O661 Tb640 2.440 . S
O661 C642 1.266 . S
O662 Tb640 2.658 . S
O662 Tb641 2.325 . S
O662 C649 1.281 . S
O663 Tb640 2.409 . S
O663 C649 1.254 . S
O664 Tb640 2.378 . S
O664 C650 1.236 . S
O665 Tb641 2.341 . S
O665 C650 1.266 . S
O666 Tb641 2.484 . S
O666 C651 1.248 . S
O667 Tb641 2.440 . S
O667 C651 1.266 . S
O668 Tb640 2.325 . S
O668 Tb641 2.658 . S
O668 C658 1.281 . S
O669 Tb641 2.409 . S
O669 C658 1.254 . S
O670 Tb641 2.378 . S
O670 C659 1.236 . S
O671 Tb640 2.341 . S
O671 C659 1.266 . S
H672 C644 0.929 . S
H673 C645 0.931 . S
H674 C647 0.930 . S
H675 C648 0.930 . S
H676 C653 0.929 . S
H677 C654 0.931 . S
H678 C656 0.930 . S
H679 C657 0.930 . S
Tb680 C682 2.809 . S
Tb680 O700 2.484 . S
Tb680 O701 2.440 . S
Tb680 O702 2.658 . S
Tb680 O703 2.409 . S
Tb680 O704 2.378 . S
Tb680 O708 2.325 . S
Tb680 O711 2.341 . S
Tb681 C691 2.809 . S
Tb681 O702 2.325 . S
Tb681 O705 2.341 . S
Tb681 O706 2.484 . S
Tb681 O707 2.440 . S
Tb681 O708 2.658 . S
Tb681 O709 2.409 . S
Tb681 O710 2.378 . S
C682 Tb680 2.809 . S
C682 C683 1.514 . S
C682 O700 1.248 . S
C682 O701 1.266 . S
C683 C682 1.514 . S
C683 C684 1.359 . S
C683 C688 1.348 . S
C684 C683 1.359 . S
C684 C685 1.380 . S
C684 H712 0.929 . S
C685 C684 1.380 . S
C685 C686 1.347 . S
C685 H713 0.931 . S
C686 C685 1.347 . S
C686 C687 1.369 . S
C687 C686 1.369 . S
C687 C688 1.408 . S
C687 H714 0.930 . S
C688 C683 1.348 . S
C688 C687 1.408 . S
C688 H715 0.930 . S
C689 O702 1.281 . S
C689 O703 1.254 . S
C690 O704 1.236 . S
C690 O705 1.266 . S
C691 Tb681 2.809 . S
C691 C692 1.514 1_554 S
C691 O706 1.248 . S
C691 O707 1.266 . S
C692 C691 1.514 1_556 S
C692 C693 1.359 . S
C692 C697 1.348 . S
C693 C692 1.359 . S
C693 C694 1.380 . S
C693 H716 0.929 . S
C694 C693 1.380 . S
C694 C695 1.347 . S
C694 H717 0.931 . S
C695 C694 1.347 . S
C695 C696 1.369 . S
C696 C695 1.369 . S
C696 C697 1.408 . S
C696 H718 0.930 . S
C697 C692 1.348 . S
C697 C696 1.408 . S
C697 H719 0.930 . S
C698 O708 1.281 . S
C698 O709 1.254 . S
C699 O710 1.236 . S
C699 O711 1.266 . S
O700 Tb680 2.484 . S
O700 C682 1.248 . S
O701 Tb680 2.440 . S
O701 C682 1.266 . S
O702 Tb680 2.658 . S
O702 Tb681 2.325 . S
O702 C689 1.281 . S
O703 Tb680 2.409 . S
O703 C689 1.254 . S
O704 Tb680 2.378 . S
O704 C690 1.236 . S
O705 Tb681 2.341 . S
O705 C690 1.266 . S
O706 Tb681 2.484 . S
O706 C691 1.248 . S
O707 Tb681 2.440 . S
O707 C691 1.266 . S
O708 Tb680 2.325 . S
O708 Tb681 2.658 . S
O708 C698 1.281 . S
O709 Tb681 2.409 . S
O709 C698 1.254 . S
O710 Tb681 2.378 . S
O710 C699 1.236 . S
O711 Tb680 2.341 . S
O711 C699 1.266 . S
H712 C684 0.929 . S
H713 C685 0.931 . S
H714 C687 0.930 . S
H715 C688 0.930 . S
H716 C693 0.929 . S
H717 C694 0.931 . S
H718 C696 0.930 . S
H719 C697 0.930 . S
H720 C728 0.950 . S
H721 C733 0.950 . S
H722 C730 0.950 . S
H723 C732 0.950 . S
H724 C734 0.950 . S
H725 C736 0.950 . S
H726 C738 0.950 . S
H727 C739 0.950 . S
C728 H720 0.950 . S
C728 C729 1.386 . S
C728 C730 1.391 . S
C729 C728 1.386 . S
C729 C733 1.393 . S
C730 H722 0.950 . S
C730 C728 1.391 . S
C730 C731 1.400 . S
C731 C730 1.400 . S
C731 C732 1.398 . S
C731 C737 1.491 . S
C732 H723 0.950 . S
C732 C731 1.398 . S
C732 C733 1.391 . S
C733 H721 0.950 . S
C733 C729 1.393 . S
C733 C732 1.391 . S
C734 H724 0.950 . S
C734 C735 1.386 . S
C734 C736 1.391 . S
C735 C734 1.386 . S
C735 C739 1.393 . S
C736 H725 0.950 . S
C736 C734 1.391 . S
C736 C737 1.400 . S
C737 C731 1.491 . S
C737 C736 1.400 . S
C737 C738 1.398 . S
C738 H726 0.950 . S
C738 C737 1.398 . S
C738 C739 1.391 . S
C739 H727 0.950 . S
C739 C735 1.393 . S
C739 C738 1.391 . S
H740 C748 0.950 . S
H741 C753 0.950 . S
H742 C750 0.950 . S
H743 C752 0.950 . S
H744 C754 0.950 . S
H745 C756 0.950 . S
H746 C758 0.950 . S
H747 C759 0.950 . S
C748 H740 0.950 . S
C748 C749 1.386 . S
C748 C750 1.391 . S
C749 C748 1.386 . S
C749 C753 1.393 . S
C750 H742 0.950 . S
C750 C748 1.391 . S
C750 C751 1.400 . S
C751 C750 1.400 . S
C751 C752 1.398 . S
C751 C757 1.491 . S
C752 H743 0.950 . S
C752 C751 1.398 . S
C752 C753 1.391 . S
C753 H741 0.950 . S
C753 C749 1.393 . S
C753 C752 1.391 . S
C754 H744 0.950 . S
C754 C755 1.386 . S
C754 C756 1.391 . S
C755 C754 1.386 . S
C755 C759 1.393 . S
C756 H745 0.950 . S
C756 C754 1.391 . S
C756 C757 1.400 . S
C757 C751 1.491 . S
C757 C756 1.400 . S
C757 C758 1.398 . S
C758 H746 0.950 . S
C758 C757 1.398 . S
C758 C759 1.391 . S
C759 H747 0.950 . S
C759 C755 1.393 . S
C759 C758 1.391 . S
H760 C768 0.950 . S
H761 C773 0.950 . S
H762 C770 0.950 . S
H763 C772 0.950 . S
H764 C774 0.950 . S
H765 C776 0.950 . S
H766 C778 0.950 . S
H767 C779 0.950 . S
C768 H760 0.950 . S
C768 C769 1.386 . S
C768 C770 1.391 . S
C769 C768 1.386 . S
C769 C773 1.393 . S
C770 H762 0.950 . S
C770 C768 1.391 . S
C770 C771 1.400 . S
C771 C770 1.400 . S
C771 C772 1.398 . S
C771 C777 1.491 . S
C772 H763 0.950 . S
C772 C771 1.398 . S
C772 C773 1.391 . S
C773 H761 0.950 . S
C773 C769 1.393 . S
C773 C772 1.391 . S
C774 H764 0.950 . S
C774 C775 1.386 . S
C774 C776 1.391 . S
C775 C774 1.386 . S
C775 C779 1.393 . S
C776 H765 0.950 . S
C776 C774 1.391 . S
C776 C777 1.400 . S
C777 C771 1.491 . S
C777 C776 1.400 . S
C777 C778 1.398 . S
C778 H766 0.950 . S
C778 C777 1.398 . S
C778 C779 1.391 . S
C779 H767 0.950 . S
C779 C775 1.393 . S
C779 C778 1.391 . S
H780 C788 0.950 . S
H781 C793 0.950 . S
H782 C790 0.950 . S
H783 C792 0.950 . S
H784 C794 0.950 . S
H785 C796 0.950 . S
H786 C798 0.950 . S
H787 C799 0.950 . S
C788 H780 0.950 . S
C788 C789 1.386 . S
C788 C790 1.391 . S
C789 C788 1.386 . S
C789 C793 1.393 . S
C790 H782 0.950 . S
C790 C788 1.391 . S
C790 C791 1.400 . S
C791 C790 1.400 . S
C791 C792 1.398 . S
C791 C797 1.491 . S
C792 H783 0.950 . S
C792 C791 1.398 . S
C792 C793 1.391 . S
C793 H781 0.950 . S
C793 C789 1.393 . S
C793 C792 1.391 . S
C794 H784 0.950 . S
C794 C795 1.386 . S
C794 C796 1.391 . S
C795 C794 1.386 . S
C795 C799 1.393 . S
C796 H785 0.950 . S
C796 C794 1.391 . S
C796 C797 1.400 . S
C797 C791 1.491 . S
C797 C796 1.400 . S
C797 C798 1.398 . S
C798 H786 0.950 . S
C798 C797 1.398 . S
C798 C799 1.391 . S
C799 H787 0.950 . S
C799 C795 1.393 . S
C799 C798 1.391 . S
H800 C808 0.950 . S
H801 C813 0.950 . S
H802 C810 0.950 . S
H803 C812 0.950 . S
H804 C814 0.950 . S
H805 C816 0.950 . S
H806 C818 0.950 . S
H807 C819 0.950 . S
C808 H800 0.950 . S
C808 C809 1.386 . S
C808 C810 1.391 . S
C809 C808 1.386 . S
C809 C813 1.393 . S
C810 H802 0.950 . S
C810 C808 1.391 . S
C810 C811 1.400 . S
C811 C810 1.400 . S
C811 C812 1.398 . S
C811 C817 1.491 . S
C812 H803 0.950 . S
C812 C811 1.398 . S
C812 C813 1.391 . S
C813 H801 0.950 . S
C813 C809 1.393 . S
C813 C812 1.391 . S
C814 H804 0.950 . S
C814 C815 1.386 . S
C814 C816 1.391 . S
C815 C814 1.386 . S
C815 C819 1.393 . S
C816 H805 0.950 . S
C816 C814 1.391 . S
C816 C817 1.400 . S
C817 C811 1.491 . S
C817 C816 1.400 . S
C817 C818 1.398 . S
C818 H806 0.950 . S
C818 C817 1.398 . S
C818 C819 1.391 . S
C819 H807 0.950 . S
C819 C815 1.393 . S
C819 C818 1.391 . S
H820 C828 0.950 . S
H821 C833 0.950 . S
H822 C830 0.950 . S
H823 C832 0.950 . S
H824 C834 0.950 . S
H825 C836 0.950 . S
H826 C838 0.950 . S
H827 C839 0.950 . S
C828 H820 0.950 . S
C828 C829 1.386 . S
C828 C830 1.391 . S
C829 C828 1.386 . S
C829 C833 1.393 . S
C830 H822 0.950 . S
C830 C828 1.391 . S
C830 C831 1.400 . S
C831 C830 1.400 . S
C831 C832 1.398 . S
C831 C837 1.491 . S
C832 H823 0.950 . S
C832 C831 1.398 . S
C832 C833 1.391 . S
C833 H821 0.950 . S
C833 C829 1.393 . S
C833 C832 1.391 . S
C834 H824 0.950 . S
C834 C835 1.386 . S
C834 C836 1.391 . S
C835 C834 1.386 . S
C835 C839 1.393 . S
C836 H825 0.950 . S
C836 C834 1.391 . S
C836 C837 1.400 . S
C837 C831 1.491 . S
C837 C836 1.400 . S
C837 C838 1.398 . S
C838 H826 0.950 . S
C838 C837 1.398 . S
C838 C839 1.391 . S
C839 H827 0.950 . S
C839 C835 1.393 . S
C839 C838 1.391 . S
H840 C848 0.950 . S
H841 C853 0.950 . S
H842 C850 0.950 . S
H843 C852 0.950 . S
H844 C854 0.950 . S
H845 C856 0.950 . S
H846 C858 0.950 . S
H847 C859 0.950 . S
C848 H840 0.950 . S
C848 C849 1.386 . S
C848 C850 1.391 . S
C849 C848 1.386 . S
C849 C853 1.393 . S
C850 H842 0.950 . S
C850 C848 1.391 . S
C850 C851 1.400 . S
C851 C850 1.400 . S
C851 C852 1.398 . S
C851 C857 1.491 . S
C852 H843 0.950 . S
C852 C851 1.398 . S
C852 C853 1.391 . S
C853 H841 0.950 . S
C853 C849 1.393 . S
C853 C852 1.391 . S
C854 H844 0.950 . S
C854 C855 1.386 . S
C854 C856 1.391 . S
C855 C854 1.386 . S
C855 C859 1.393 . S
C856 H845 0.950 . S
C856 C854 1.391 . S
C856 C857 1.400 . S
C857 C851 1.491 . S
C857 C856 1.400 . S
C857 C858 1.398 . S
C858 H846 0.950 . S
C858 C857 1.398 . S
C858 C859 1.391 . S
C859 H847 0.950 . S
C859 C855 1.393 . S
C859 C858 1.391 . S
H860 C868 0.950 . S
H861 C873 0.950 . S
H862 C870 0.950 . S
H863 C872 0.950 . S
H864 C874 0.950 . S
H865 C876 0.950 . S
H866 C878 0.950 . S
H867 C879 0.950 . S
C868 H860 0.950 . S
C868 C869 1.386 . S
C868 C870 1.391 . S
C869 C868 1.386 . S
C869 C873 1.393 . S
C870 H862 0.950 . S
C870 C868 1.391 . S
C870 C871 1.400 . S
C871 C870 1.400 . S
C871 C872 1.398 . S
C871 C877 1.491 . S
C872 H863 0.950 . S
C872 C871 1.398 . S
C872 C873 1.391 . S
C873 H861 0.950 . S
C873 C869 1.393 . S
C873 C872 1.391 . S
C874 H864 0.950 . S
C874 C875 1.386 . S
C874 C876 1.391 . S
C875 C874 1.386 . S
C875 C879 1.393 . S
C876 H865 0.950 . S
C876 C874 1.391 . S
C876 C877 1.400 . S
C877 C871 1.491 . S
C877 C876 1.400 . S
C877 C878 1.398 . S
C878 H866 0.950 . S
C878 C877 1.398 . S
C878 C879 1.391 . S
C879 H867 0.950 . S
C879 C875 1.393 . S
C879 C878 1.391 . S
H880 C888 0.950 . S
H881 C893 0.950 . S
H882 C890 0.950 . S
H883 C892 0.950 . S
H884 C894 0.950 . S
H885 C896 0.950 . S
H886 C898 0.950 . S
H887 C899 0.950 . S
C888 H880 0.950 . S
C888 C889 1.386 . S
C888 C890 1.391 . S
C889 C888 1.386 . S
C889 C893 1.393 . S
C890 H882 0.950 . S
C890 C888 1.391 . S
C890 C891 1.400 . S
C891 C890 1.400 . S
C891 C892 1.398 . S
C891 C897 1.491 . S
C892 H883 0.950 . S
C892 C891 1.398 . S
C892 C893 1.391 . S
C893 H881 0.950 . S
C893 C889 1.393 . S
C893 C892 1.391 . S
C894 H884 0.950 . S
C894 C895 1.386 . S
C894 C896 1.391 . S
C895 C894 1.386 . S
C895 C899 1.393 . S
C896 H885 0.950 . S
C896 C894 1.391 . S
C896 C897 1.400 . S
C897 C891 1.491 . S
C897 C896 1.400 . S
C897 C898 1.398 . S
C898 H886 0.950 . S
C898 C897 1.398 . S
C898 C899 1.391 . S
C899 H887 0.950 . S
C899 C895 1.393 . S
C899 C898 1.391 . S
H900 C908 0.950 . S
H901 C913 0.950 . S
H902 C910 0.950 . S
H903 C912 0.950 . S
H904 C914 0.950 . S
H905 C916 0.950 . S
H906 C918 0.950 . S
H907 C919 0.950 . S
C908 H900 0.950 . S
C908 C909 1.386 . S
C908 C910 1.391 . S
C909 C908 1.386 . S
C909 C913 1.393 . S
C910 H902 0.950 . S
C910 C908 1.391 . S
C910 C911 1.400 . S
C911 C910 1.400 . S
C911 C912 1.398 . S
C911 C917 1.491 . S
C912 H903 0.950 . S
C912 C911 1.398 . S
C912 C913 1.391 . S
C913 H901 0.950 . S
C913 C909 1.393 . S
C913 C912 1.391 . S
C914 H904 0.950 . S
C914 C915 1.386 . S
C914 C916 1.391 . S
C915 C914 1.386 . S
C915 C919 1.393 . S
C916 H905 0.950 . S
C916 C914 1.391 . S
C916 C917 1.400 . S
C917 C911 1.491 . S
C917 C916 1.400 . S
C917 C918 1.398 . S
C918 H906 0.950 . S
C918 C917 1.398 . S
C918 C919 1.391 . S
C919 H907 0.950 . S
C919 C915 1.393 . S
C919 C918 1.391 . S
H920 C928 0.950 . S
H921 C933 0.950 . S
H922 C930 0.950 . S
H923 C932 0.950 . S
H924 C934 0.950 . S
H925 C936 0.950 . S
H926 C938 0.950 . S
H927 C939 0.950 . S
C928 H920 0.950 . S
C928 C929 1.386 . S
C928 C930 1.391 . S
C929 C928 1.386 . S
C929 C933 1.393 . S
C930 H922 0.950 . S
C930 C928 1.391 . S
C930 C931 1.400 . S
C931 C930 1.400 . S
C931 C932 1.398 . S
C931 C937 1.491 . S
C932 H923 0.950 . S
C932 C931 1.398 . S
C932 C933 1.391 . S
C933 H921 0.950 . S
C933 C929 1.393 . S
C933 C932 1.391 . S
C934 H924 0.950 . S
C934 C935 1.386 . S
C934 C936 1.391 . S
C935 C934 1.386 . S
C935 C939 1.393 . S
C936 H925 0.950 . S
C936 C934 1.391 . S
C936 C937 1.400 . S
C937 C931 1.491 . S
C937 C936 1.400 . S
C937 C938 1.398 . S
C938 H926 0.950 . S
C938 C937 1.398 . S
C938 C939 1.391 . S
C939 H927 0.950 . S
C939 C935 1.393 . S
C939 C938 1.391 . S
H940 C948 0.950 . S
H941 C953 0.950 . S
H942 C950 0.950 . S
H943 C952 0.950 . S
H944 C954 0.950 . S
H945 C956 0.950 . S
H946 C958 0.950 . S
H947 C959 0.950 . S
C948 H940 0.950 . S
C948 C949 1.386 . S
C948 C950 1.391 . S
C949 C948 1.386 . S
C949 C953 1.393 . S
C950 H942 0.950 . S
C950 C948 1.391 . S
C950 C951 1.400 . S
C951 C950 1.400 . S
C951 C952 1.398 . S
C951 C957 1.491 . S
C952 H943 0.950 . S
C952 C951 1.398 . S
C952 C953 1.391 . S
C953 H941 0.950 . S
C953 C949 1.393 . S
C953 C952 1.391 . S
C954 H944 0.950 . S
C954 C955 1.386 . S
C954 C956 1.391 . S
C955 C954 1.386 . S
C955 C959 1.393 . S
C956 H945 0.950 . S
C956 C954 1.391 . S
C956 C957 1.400 . S
C957 C951 1.491 . S
C957 C956 1.400 . S
C957 C958 1.398 . S
C958 H946 0.950 . S
C958 C957 1.398 . S
C958 C959 1.391 . S
C959 H947 0.950 . S
C959 C955 1.393 . S
C959 C958 1.391 . S
H960 C968 0.950 . S
H961 C973 0.950 . S
H962 C970 0.950 . S
H963 C972 0.950 . S
H964 C974 0.950 . S
H965 C976 0.950 1_556 S
H966 C978 0.950 . S
H967 C979 0.950 . S
C968 H960 0.950 . S
C968 C969 1.386 . S
C968 C970 1.391 . S
C969 C968 1.386 . S
C969 C973 1.393 . S
C970 H962 0.950 . S
C970 C968 1.391 . S
C970 C971 1.400 . S
C971 C970 1.400 . S
C971 C972 1.398 . S
C971 C977 1.491 1_656 S
C972 H963 0.950 . S
C972 C971 1.398 . S
C972 C973 1.391 . S
C973 H961 0.950 . S
C973 C969 1.393 . S
C973 C972 1.391 . S
C974 H964 0.950 . S
C974 C975 1.386 . S
C974 C976 1.391 . S
C975 C974 1.386 . S
C975 C979 1.393 . S
C976 H965 0.950 1_554 S
C976 C974 1.391 . S
C976 C977 1.400 . S
C977 C971 1.491 1_454 S
C977 C976 1.400 . S
C977 C978 1.398 . S
C978 H966 0.950 . S
C978 C977 1.398 . S
C978 C979 1.391 . S
C979 H967 0.950 . S
C979 C975 1.393 . S
C979 C978 1.391 . S
H980 C988 0.950 . S
H981 C993 0.950 . S
H982 C990 0.950 . S
H983 C992 0.950 . S
H984 C994 0.950 . S
H985 C996 0.950 . S
H986 C998 0.950 . S
H987 C999 0.950 . S
C988 H980 0.950 . S
C988 C989 1.386 . S
C988 C990 1.391 . S
C989 C988 1.386 . S
C989 C993 1.393 . S
C990 H982 0.950 . S
C990 C988 1.391 . S
C990 C991 1.400 . S
C991 C990 1.400 . S
C991 C992 1.398 . S
C991 C997 1.491 1_556 S
C992 H983 0.950 . S
C992 C991 1.398 . S
C992 C993 1.391 . S
C993 H981 0.950 . S
C993 C989 1.393 . S
C993 C992 1.391 . S
C994 H984 0.950 . S
C994 C995 1.386 . S
C994 C996 1.391 . S
C995 C994 1.386 . S
C995 C999 1.393 . S
C996 H985 0.950 . S
C996 C994 1.391 . S
C996 C997 1.400 . S
C997 C991 1.491 1_554 S
C997 C996 1.400 . S
C997 C998 1.398 . S
C998 H986 0.950 . S
C998 C997 1.398 . S
C998 C999 1.391 . S
C999 H987 0.950 . S
C999 C995 1.393 . S
C999 C998 1.391 . S
H1000 C1008 0.950 . S
H1001 C1013 0.950 . S
H1002 C1010 0.950 . S
H1003 C1012 0.952 . S
H1004 C1014 0.950 . S
H1005 C1016 0.950 . S
H1006 C1018 0.950 1_545 S
H1007 C1019 0.950 . S
C1008 H1000 0.950 . S
C1008 C1009 1.386 . S
C1008 C1010 1.391 . S
C1009 C1008 1.386 . S
C1009 C1013 1.393 . S
C1010 H1002 0.950 . S
C1010 C1008 1.391 . S
C1010 C1011 1.400 . S
C1011 C1010 1.400 . S
C1011 C1012 1.398 . S
C1011 C1017 1.491 1_545 S
C1012 H1003 0.952 . S
C1012 C1011 1.398 . S
C1012 C1013 1.391 . S
C1013 H1001 0.950 . S
C1013 C1009 1.393 . S
C1013 C1012 1.391 . S
C1014 H1004 0.950 . S
C1014 C1015 1.386 . S
C1014 C1016 1.391 1_554 S
C1015 C1014 1.386 . S
C1015 C1019 1.393 . S
C1016 H1005 0.950 . S
C1016 C1014 1.391 1_556 S
C1016 C1017 1.400 . S
C1017 C1011 1.491 1_565 S
C1017 C1016 1.400 . S
C1017 C1018 1.398 1_556 S
C1018 H1006 0.950 1_565 S
C1018 C1017 1.398 1_554 S
C1018 C1019 1.391 . S
C1019 H1007 0.950 . S
C1019 C1015 1.393 . S
C1019 C1018 1.391 . S
H1020 C1028 0.950 . S
H1021 C1033 0.950 . S
H1022 C1030 0.950 1_554 S
H1023 C1032 0.950 1_565 S
H1024 C1034 0.950 . S
H1025 C1036 0.950 . S
H1026 C1038 0.975 . S
H1027 C1039 0.950 . S
C1028 H1020 0.950 . S
C1028 C1029 1.386 . S
C1028 C1030 1.391 . S
C1029 C1028 1.386 . S
C1029 C1033 1.393 . S
C1030 H1022 0.950 1_556 S
C1030 C1028 1.391 . S
C1030 C1031 1.400 . S
C1031 C1030 1.400 . S
C1031 C1032 1.398 . S
C1031 C1037 1.491 1_546 S
C1032 H1023 0.950 1_545 S
C1032 C1031 1.398 . S
C1032 C1033 1.391 . S
C1033 H1021 0.950 . S
C1033 C1029 1.393 . S
C1033 C1032 1.391 . S
C1034 H1024 0.950 . S
C1034 C1035 1.386 . S
C1034 C1036 1.391 . S
C1035 C1034 1.386 . S
C1035 C1039 1.393 . S
C1036 H1025 0.950 . S
C1036 C1034 1.391 . S
C1036 C1037 1.400 . S
C1037 C1031 1.491 1_564 S
C1037 C1036 1.400 . S
C1037 C1038 1.388 1_565 S
C1038 H1026 0.975 . S
C1038 C1037 1.388 1_545 S
C1038 C1039 1.377 1_545 S
C1039 H1027 0.950 . S
C1039 C1035 1.393 . S
C1039 C1038 1.377 1_565 S
H1040 C1048 0.950 . S
H1041 C1053 0.950 . S
H1042 C1050 0.950 1_655 S
H1043 C1052 0.950 . S
H1044 C1054 0.950 . S
H1045 C1056 0.950 1_455 S
H1046 C1058 0.950 . S
H1047 C1059 0.950 . S
C1048 H1040 0.950 . S
C1048 C1049 1.386 . S
C1048 C1050 1.391 . S
C1049 C1048 1.386 . S
C1049 C1053 1.393 . S
C1050 H1042 0.950 1_455 S
C1050 C1048 1.391 . S
C1050 C1051 1.400 . S
C1051 C1050 1.400 . S
C1051 C1052 1.398 . S
C1051 C1057 1.491 1_455 S
C1052 H1043 0.950 . S
C1052 C1051 1.398 . S
C1052 C1053 1.391 . S
C1053 H1041 0.950 . S
C1053 C1049 1.393 . S
C1053 C1052 1.391 . S
C1054 H1044 0.950 . S
C1054 C1055 1.386 . S
C1054 C1056 1.391 . S
C1055 C1054 1.386 . S
C1055 C1059 1.393 . S
C1056 H1045 0.950 1_655 S
C1056 C1054 1.391 . S
C1056 C1057 1.400 1_556 S
C1057 C1051 1.491 1_655 S
C1057 C1056 1.400 1_554 S
C1057 C1058 1.398 . S
C1058 H1046 0.950 . S
C1058 C1057 1.398 . S
C1058 C1059 1.391 1_554 S
C1059 H1047 0.950 . S
C1059 C1055 1.393 . S
C1059 C1058 1.391 1_556 S
H1060 C1068 0.950 . S
H1061 C1073 0.950 . S
H1062 C1070 0.950 1_556 S
H1063 C1072 0.950 . S
H1064 C1074 0.950 . S
H1065 C1076 0.955 . S
H1066 C1078 0.950 . S
H1067 C1079 0.950 . S
C1068 H1060 0.950 . S
C1068 C1069 1.386 . S
C1068 C1070 1.391 . S
C1069 C1068 1.386 . S
C1069 C1073 1.393 . S
C1070 H1062 0.950 1_554 S
C1070 C1068 1.391 . S
C1070 C1071 1.400 . S
C1071 C1070 1.400 . S
C1071 C1072 1.398 . S
C1071 C1077 1.491 1_554 S
C1072 H1063 0.950 . S
C1072 C1071 1.398 . S
C1072 C1073 1.391 . S
C1073 H1061 0.950 . S
C1073 C1069 1.393 . S
C1073 C1072 1.391 . S
C1074 H1064 0.950 . S
C1074 C1075 1.386 . S
C1074 C1076 1.387 1_556 S
C1075 C1074 1.386 . S
C1075 C1079 1.393 . S
C1076 H1065 0.955 . S
C1076 C1074 1.387 1_554 S
C1076 C1077 1.399 1_554 S
C1077 C1071 1.491 1_556 S
C1077 C1076 1.399 1_556 S
C1077 C1078 1.398 . S
C1078 H1066 0.950 . S
C1078 C1077 1.398 . S
C1078 C1079 1.391 . S
C1079 H1067 0.950 . S
C1079 C1075 1.393 . S
C1079 C1078 1.391 . S
H1080 C1088 0.950 . S
H1081 C1093 0.950 . S
H1082 C1090 0.950 . S
H1083 C1092 0.950 . S
H1084 C1094 0.950 . S
H1085 C1096 0.950 . S
H1086 C1098 0.950 . S
H1087 C1099 0.950 . S
C1088 H1080 0.950 . S
C1088 C1089 1.386 . S
C1088 C1090 1.391 . S
C1089 C1088 1.386 . S
C1089 C1093 1.393 . S
C1090 H1082 0.950 . S
C1090 C1088 1.391 . S
C1090 C1091 1.400 . S
C1091 C1090 1.400 . S
C1091 C1092 1.398 . S
C1091 C1097 1.491 . S
C1092 H1083 0.950 . S
C1092 C1091 1.398 . S
C1092 C1093 1.391 . S
C1093 H1081 0.950 . S
C1093 C1089 1.393 . S
C1093 C1092 1.391 . S
C1094 H1084 0.950 . S
C1094 C1095 1.386 . S
C1094 C1096 1.391 . S
C1095 C1094 1.386 . S
C1095 C1099 1.393 . S
C1096 H1085 0.950 . S
C1096 C1094 1.391 . S
C1096 C1097 1.400 . S
C1097 C1091 1.491 . S
C1097 C1096 1.400 . S
C1097 C1098 1.398 . S
C1098 H1086 0.950 . S
C1098 C1097 1.398 . S
C1098 C1099 1.391 . S
C1099 H1087 0.950 . S
C1099 C1095 1.393 . S
C1099 C1098 1.391 . S
H1100 C1108 0.950 . S
H1101 C1113 0.950 . S
H1102 C1110 0.950 . S
H1103 C1112 0.950 . S
H1104 C1114 0.950 . S
H1105 C1116 0.950 . S
H1106 C1118 0.950 . S
H1107 C1119 0.950 . S
C1108 H1100 0.950 . S
C1108 C1109 1.386 . S
C1108 C1110 1.391 . S
C1109 C1108 1.386 . S
C1109 C1113 1.393 . S
C1110 H1102 0.950 . S
C1110 C1108 1.391 . S
C1110 C1111 1.400 . S
C1111 C1110 1.400 . S
C1111 C1112 1.398 . S
C1111 C1117 1.491 . S
C1112 H1103 0.950 . S
C1112 C1111 1.398 . S
C1112 C1113 1.391 . S
C1113 H1101 0.950 . S
C1113 C1109 1.393 . S
C1113 C1112 1.391 . S
C1114 H1104 0.950 . S
C1114 C1115 1.386 . S
C1114 C1116 1.391 . S
C1115 C1114 1.386 . S
C1115 C1119 1.393 . S
C1116 H1105 0.950 . S
C1116 C1114 1.391 . S
C1116 C1117 1.400 . S
C1117 C1111 1.491 . S
C1117 C1116 1.400 . S
C1117 C1118 1.398 . S
C1118 H1106 0.950 . S
C1118 C1117 1.398 . S
C1118 C1119 1.391 . S
C1119 H1107 0.950 . S
C1119 C1115 1.393 . S
C1119 C1118 1.391 . S
H1120 C1128 0.950 . S
H1121 C1133 0.950 . S
H1122 C1130 0.950 . S
H1123 C1132 0.950 . S
H1124 C1134 0.950 . S
H1125 C1136 0.950 . S
H1126 C1138 0.950 . S
H1127 C1139 0.950 . S
C1128 H1120 0.950 . S
C1128 C1129 1.386 . S
C1128 C1130 1.391 . S
C1129 C1128 1.386 . S
C1129 C1133 1.393 . S
C1130 H1122 0.950 . S
C1130 C1128 1.391 . S
C1130 C1131 1.400 . S
C1131 C1130 1.400 . S
C1131 C1132 1.398 . S
C1131 C1137 1.491 . S
C1132 H1123 0.950 . S
C1132 C1131 1.398 . S
C1132 C1133 1.391 . S
C1133 H1121 0.950 . S
C1133 C1129 1.393 . S
C1133 C1132 1.391 . S
C1134 H1124 0.950 . S
C1134 C1135 1.386 . S
C1134 C1136 1.391 . S
C1135 C1134 1.386 . S
C1135 C1139 1.393 . S
C1136 H1125 0.950 . S
C1136 C1134 1.391 . S
C1136 C1137 1.400 . S
C1137 C1131 1.491 . S
C1137 C1136 1.400 . S
C1137 C1138 1.398 . S
C1138 H1126 0.950 . S
C1138 C1137 1.398 . S
C1138 C1139 1.391 . S
C1139 H1127 0.950 . S
C1139 C1135 1.393 . S
C1139 C1138 1.391 . S
H1140 C1148 0.950 . S
H1141 C1153 0.950 . S
H1142 C1150 0.950 . S
H1143 C1152 0.950 . S
H1144 C1154 0.950 . S
H1145 C1156 0.950 . S
H1146 C1158 0.950 . S
H1147 C1159 0.950 . S
C1148 H1140 0.950 . S
C1148 C1149 1.386 . S
C1148 C1150 1.391 . S
C1149 C1148 1.386 . S
C1149 C1153 1.393 . S
C1150 H1142 0.950 . S
C1150 C1148 1.391 . S
C1150 C1151 1.400 . S
C1151 C1150 1.400 . S
C1151 C1152 1.398 . S
C1151 C1157 1.491 . S
C1152 H1143 0.950 . S
C1152 C1151 1.398 . S
C1152 C1153 1.391 . S
C1153 H1141 0.950 . S
C1153 C1149 1.393 . S
C1153 C1152 1.391 . S
C1154 H1144 0.950 . S
C1154 C1155 1.386 . S
C1154 C1156 1.391 . S
C1155 C1154 1.386 . S
C1155 C1159 1.393 . S
C1156 H1145 0.950 . S
C1156 C1154 1.391 . S
C1156 C1157 1.400 . S
C1157 C1151 1.491 . S
C1157 C1156 1.400 . S
C1157 C1158 1.398 . S
C1158 H1146 0.950 . S
C1158 C1157 1.398 . S
C1158 C1159 1.391 . S
C1159 H1147 0.950 . S
C1159 C1155 1.393 . S
C1159 C1158 1.391 . S
H1160 C1168 0.950 . S
H1161 C1173 0.950 . S
H1162 C1170 0.950 . S
H1163 C1172 0.950 . S
H1164 C1174 0.950 . S
H1165 C1176 0.950 . S
H1166 C1178 0.950 . S
H1167 C1179 0.950 . S
C1168 H1160 0.950 . S
C1168 C1169 1.386 . S
C1168 C1170 1.391 . S
C1169 C1168 1.386 . S
C1169 C1173 1.393 . S
C1170 H1162 0.950 . S
C1170 C1168 1.391 . S
C1170 C1171 1.400 . S
C1171 C1170 1.400 . S
C1171 C1172 1.398 . S
C1171 C1177 1.491 . S
C1172 H1163 0.950 . S
C1172 C1171 1.398 . S
C1172 C1173 1.391 . S
C1173 H1161 0.950 . S
C1173 C1169 1.393 . S
C1173 C1172 1.391 . S
C1174 H1164 0.950 . S
C1174 C1175 1.386 . S
C1174 C1176 1.391 . S
C1175 C1174 1.386 . S
C1175 C1179 1.393 . S
C1176 H1165 0.950 . S
C1176 C1174 1.391 . S
C1176 C1177 1.400 . S
C1177 C1171 1.491 . S
C1177 C1176 1.400 . S
C1177 C1178 1.398 . S
C1178 H1166 0.950 . S
C1178 C1177 1.398 . S
C1178 C1179 1.391 . S
C1179 H1167 0.950 . S
C1179 C1175 1.393 . S
C1179 C1178 1.391 . S
H1180 C1188 0.950 . S
H1181 C1193 0.950 . S
H1182 C1190 0.950 . S
H1183 C1192 0.950 . S
H1184 C1194 0.950 . S
H1185 C1196 0.950 . S
H1186 C1198 0.950 . S
H1187 C1199 0.950 . S
C1188 H1180 0.950 . S
C1188 C1189 1.386 . S
C1188 C1190 1.391 . S
C1189 C1188 1.386 . S
C1189 C1193 1.393 . S
C1190 H1182 0.950 . S
C1190 C1188 1.391 . S
C1190 C1191 1.400 . S
C1191 C1190 1.400 . S
C1191 C1192 1.398 . S
C1191 C1197 1.491 . S
C1192 H1183 0.950 . S
C1192 C1191 1.398 . S
C1192 C1193 1.391 . S
C1193 H1181 0.950 . S
C1193 C1189 1.393 . S
C1193 C1192 1.391 . S
C1194 H1184 0.950 . S
C1194 C1195 1.386 . S
C1194 C1196 1.391 . S
C1195 C1194 1.386 . S
C1195 C1199 1.393 . S
C1196 H1185 0.950 . S
C1196 C1194 1.391 . S
C1196 C1197 1.400 . S
C1197 C1191 1.491 . S
C1197 C1196 1.400 . S
C1197 C1198 1.398 . S
C1198 H1186 0.950 . S
C1198 C1197 1.398 . S
C1198 C1199 1.391 . S
C1199 H1187 0.950 . S
C1199 C1195 1.393 . S
C1199 C1198 1.391 . S
H1200 C1208 0.950 . S
H1201 C1213 0.950 . S
H1202 C1210 0.950 . S
H1203 C1212 0.950 . S
H1204 C1214 0.950 . S
H1205 C1216 0.950 . S
H1206 C1218 0.950 . S
H1207 C1219 0.950 . S
C1208 H1200 0.950 . S
C1208 C1209 1.386 . S
C1208 C1210 1.391 . S
C1209 C1208 1.386 . S
C1209 C1213 1.393 . S
C1210 H1202 0.950 . S
C1210 C1208 1.391 . S
C1210 C1211 1.400 . S
C1211 C1210 1.400 . S
C1211 C1212 1.398 . S
C1211 C1217 1.491 . S
C1212 H1203 0.950 . S
C1212 C1211 1.398 . S
C1212 C1213 1.391 . S
C1213 H1201 0.950 . S
C1213 C1209 1.393 . S
C1213 C1212 1.391 . S
C1214 H1204 0.950 . S
C1214 C1215 1.386 . S
C1214 C1216 1.391 . S
C1215 C1214 1.386 . S
C1215 C1219 1.393 . S
C1216 H1205 0.950 . S
C1216 C1214 1.391 . S
C1216 C1217 1.400 . S
C1217 C1211 1.491 . S
C1217 C1216 1.400 . S
C1217 C1218 1.398 . S
C1218 H1206 0.950 . S
C1218 C1217 1.398 . S
C1218 C1219 1.391 . S
C1219 H1207 0.950 . S
C1219 C1215 1.393 . S
C1219 C1218 1.391 . S
H1220 C1228 0.950 . S
H1221 C1233 0.950 . S
H1222 C1230 0.950 . S
H1223 C1232 0.950 . S
H1224 C1234 0.950 . S
H1225 C1236 0.950 . S
H1226 C1238 0.950 . S
H1227 C1239 0.950 . S
C1228 H1220 0.950 . S
C1228 C1229 1.386 . S
C1228 C1230 1.391 . S
C1229 C1228 1.386 . S
C1229 C1233 1.393 . S
C1230 H1222 0.950 . S
C1230 C1228 1.391 . S
C1230 C1231 1.400 . S
C1231 C1230 1.400 . S
C1231 C1232 1.398 . S
C1231 C1237 1.491 . S
C1232 H1223 0.950 . S
C1232 C1231 1.398 . S
C1232 C1233 1.391 . S
C1233 H1221 0.950 . S
C1233 C1229 1.393 . S
C1233 C1232 1.391 . S
C1234 H1224 0.950 . S
C1234 C1235 1.386 . S
C1234 C1236 1.391 . S
C1235 C1234 1.386 . S
C1235 C1239 1.393 . S
C1236 H1225 0.950 . S
C1236 C1234 1.391 . S
C1236 C1237 1.400 . S
C1237 C1231 1.491 . S
C1237 C1236 1.400 . S
C1237 C1238 1.398 . S
C1238 H1226 0.950 . S
C1238 C1237 1.398 . S
C1238 C1239 1.391 . S
C1239 H1227 0.950 . S
C1239 C1235 1.393 . S
C1239 C1238 1.391 . S
H1240 C1248 0.950 . S
H1241 C1253 0.950 . S
H1242 C1250 0.950 . S
H1243 C1252 0.950 . S
H1244 C1254 0.950 . S
H1245 C1256 0.950 . S
H1246 C1258 0.950 . S
H1247 C1259 0.950 . S
C1248 H1240 0.950 . S
C1248 C1249 1.386 . S
C1248 C1250 1.391 . S
C1249 C1248 1.386 . S
C1249 C1253 1.393 . S
C1250 H1242 0.950 . S
C1250 C1248 1.391 . S
C1250 C1251 1.400 . S
C1251 C1250 1.400 . S
C1251 C1252 1.398 . S
C1251 C1257 1.491 . S
C1252 H1243 0.950 . S
C1252 C1251 1.398 . S
C1252 C1253 1.391 . S
C1253 H1241 0.950 . S
C1253 C1249 1.393 . S
C1253 C1252 1.391 . S
C1254 H1244 0.950 . S
C1254 C1255 1.386 . S
C1254 C1256 1.391 . S
C1255 C1254 1.386 . S
C1255 C1259 1.393 . S
C1256 H1245 0.950 . S
C1256 C1254 1.391 . S
C1256 C1257 1.400 . S
C1257 C1251 1.491 . S
C1257 C1256 1.400 . S
C1257 C1258 1.398 . S
C1258 H1246 0.950 . S
C1258 C1257 1.398 . S
C1258 C1259 1.391 . S
C1259 H1247 0.950 . S
C1259 C1255 1.393 . S
C1259 C1258 1.391 . S
H1260 C1268 0.950 . S
H1261 C1273 0.950 . S
H1262 C1270 0.950 . S
H1263 C1272 0.950 . S
H1264 C1274 0.950 . S
H1265 C1276 0.950 . S
H1266 C1278 0.950 . S
H1267 C1279 0.950 . S
C1268 H1260 0.950 . S
C1268 C1269 1.386 . S
C1268 C1270 1.391 . S
C1269 C1268 1.386 . S
C1269 C1273 1.393 . S
C1270 H1262 0.950 . S
C1270 C1268 1.391 . S
C1270 C1271 1.400 . S
C1271 C1270 1.400 . S
C1271 C1272 1.398 . S
C1271 C1277 1.491 . S
C1272 H1263 0.950 . S
C1272 C1271 1.398 . S
C1272 C1273 1.391 . S
C1273 H1261 0.950 . S
C1273 C1269 1.393 . S
C1273 C1272 1.391 . S
C1274 H1264 0.950 . S
C1274 C1275 1.386 . S
C1274 C1276 1.391 . S
C1275 C1274 1.386 . S
C1275 C1279 1.393 . S
C1276 H1265 0.950 . S
C1276 C1274 1.391 . S
C1276 C1277 1.400 . S
C1277 C1271 1.491 . S
C1277 C1276 1.400 . S
C1277 C1278 1.398 . S
C1278 H1266 0.950 . S
C1278 C1277 1.398 . S
C1278 C1279 1.391 . S
C1279 H1267 0.950 . S
C1279 C1275 1.393 . S
C1279 C1278 1.391 . S
H1280 C1288 0.950 . S
H1281 C1293 0.950 . S
H1282 C1290 0.950 . S
H1283 C1292 0.950 . S
H1284 C1294 0.950 . S
H1285 C1296 0.950 . S
H1286 C1298 0.950 . S
H1287 C1299 0.950 . S
C1288 H1280 0.950 . S
C1288 C1289 1.386 . S
C1288 C1290 1.391 . S
C1289 C1288 1.386 . S
C1289 C1293 1.393 . S
C1290 H1282 0.950 . S
C1290 C1288 1.391 . S
C1290 C1291 1.400 . S
C1291 C1290 1.400 . S
C1291 C1292 1.398 . S
C1291 C1297 1.491 . S
C1292 H1283 0.950 . S
C1292 C1291 1.398 . S
C1292 C1293 1.391 . S
C1293 H1281 0.950 . S
C1293 C1289 1.393 . S
C1293 C1292 1.391 . S
C1294 H1284 0.950 . S
C1294 C1295 1.386 . S
C1294 C1296 1.391 . S
C1295 C1294 1.386 . S
C1295 C1299 1.393 . S
C1296 H1285 0.950 . S
C1296 C1294 1.391 . S
C1296 C1297 1.400 . S
C1297 C1291 1.491 . S
C1297 C1296 1.400 . S
C1297 C1298 1.398 . S
C1298 H1286 0.950 . S
C1298 C1297 1.398 . S
C1298 C1299 1.391 . S
C1299 H1287 0.950 . S
C1299 C1295 1.393 . S
C1299 C1298 1.391 . S
H1300 C1308 0.950 . S
H1301 C1313 0.950 . S
H1302 C1310 0.950 . S
H1303 C1312 0.950 . S
H1304 C1314 0.950 . S
H1305 C1316 0.950 . S
H1306 C1318 0.950 . S
H1307 C1319 0.950 . S
C1308 H1300 0.950 . S
C1308 C1309 1.386 . S
C1308 C1310 1.391 . S
C1309 C1308 1.386 . S
C1309 C1313 1.393 . S
C1310 H1302 0.950 . S
C1310 C1308 1.391 . S
C1310 C1311 1.400 . S
C1311 C1310 1.400 . S
C1311 C1312 1.398 . S
C1311 C1317 1.491 . S
C1312 H1303 0.950 . S
C1312 C1311 1.398 . S
C1312 C1313 1.391 . S
C1313 H1301 0.950 . S
C1313 C1309 1.393 . S
C1313 C1312 1.391 . S
C1314 H1304 0.950 . S
C1314 C1315 1.386 . S
C1314 C1316 1.391 . S
C1315 C1314 1.386 . S
C1315 C1319 1.393 . S
C1316 H1305 0.950 . S
C1316 C1314 1.391 . S
C1316 C1317 1.400 . S
C1317 C1311 1.491 . S
C1317 C1316 1.400 . S
C1317 C1318 1.398 . S
C1318 H1306 0.950 . S
C1318 C1317 1.398 . S
C1318 C1319 1.391 . S
C1319 H1307 0.950 . S
C1319 C1315 1.393 . S
C1319 C1318 1.391 . S
H1320 C1328 0.950 . S
H1321 C1333 0.950 . S
H1322 C1330 0.950 . S
H1323 C1332 0.950 . S
H1324 C1334 0.950 . S
H1325 C1336 0.950 . S
H1326 C1338 0.950 . S
H1327 C1339 0.950 . S
C1328 H1320 0.950 . S
C1328 C1329 1.386 . S
C1328 C1330 1.391 . S
C1329 C1328 1.386 . S
C1329 C1333 1.393 . S
C1330 H1322 0.950 . S
C1330 C1328 1.391 . S
C1330 C1331 1.400 . S
C1331 C1330 1.400 . S
C1331 C1332 1.398 . S
C1331 C1337 1.491 . S
C1332 H1323 0.950 . S
C1332 C1331 1.398 . S
C1332 C1333 1.391 . S
C1333 H1321 0.950 . S
C1333 C1329 1.393 . S
C1333 C1332 1.391 . S
C1334 H1324 0.950 . S
C1334 C1335 1.386 . S
C1334 C1336 1.391 . S
C1335 C1334 1.386 . S
C1335 C1339 1.393 . S
C1336 H1325 0.950 . S
C1336 C1334 1.391 . S
C1336 C1337 1.400 . S
C1337 C1331 1.491 . S
C1337 C1336 1.400 . S
C1337 C1338 1.398 . S
C1338 H1326 0.950 . S
C1338 C1337 1.398 . S
C1338 C1339 1.391 . S
C1339 H1327 0.950 . S
C1339 C1335 1.393 . S
C1339 C1338 1.391 . S
H1340 C1348 0.950 . S
H1341 C1353 0.950 . S
H1342 C1350 0.950 . S
H1343 C1352 0.950 . S
H1344 C1354 0.950 . S
H1345 C1356 0.950 . S
H1346 C1358 0.950 . S
H1347 C1359 0.950 . S
C1348 H1340 0.950 . S
C1348 C1349 1.386 . S
C1348 C1350 1.391 . S
C1349 C1348 1.386 . S
C1349 C1353 1.393 . S
C1350 H1342 0.950 . S
C1350 C1348 1.391 . S
C1350 C1351 1.400 . S
C1351 C1350 1.400 . S
C1351 C1352 1.398 . S
C1351 C1357 1.491 . S
C1352 H1343 0.950 . S
C1352 C1351 1.398 . S
C1352 C1353 1.391 . S
C1353 H1341 0.950 . S
C1353 C1349 1.393 . S
C1353 C1352 1.391 . S
C1354 H1344 0.950 . S
C1354 C1355 1.386 . S
C1354 C1356 1.391 . S
C1355 C1354 1.386 . S
C1355 C1359 1.393 . S
C1356 H1345 0.950 . S
C1356 C1354 1.391 . S
C1356 C1357 1.400 . S
C1357 C1351 1.491 . S
C1357 C1356 1.400 . S
C1357 C1358 1.398 . S
C1358 H1346 0.950 . S
C1358 C1357 1.398 . S
C1358 C1359 1.391 . S
C1359 H1347 0.950 . S
C1359 C1355 1.393 . S
C1359 C1358 1.391 . S
H1360 C1368 0.950 . S
H1361 C1373 0.950 . S
H1362 C1370 0.950 . S
H1363 C1372 0.950 . S
H1364 C1374 0.950 . S
H1365 C1376 0.950 . S
H1366 C1378 0.950 . S
H1367 C1379 0.950 . S
C1368 H1360 0.950 . S
C1368 C1369 1.386 . S
C1368 C1370 1.391 . S
C1369 C1368 1.386 . S
C1369 C1373 1.393 . S
C1370 H1362 0.950 . S
C1370 C1368 1.391 . S
C1370 C1371 1.400 . S
C1371 C1370 1.400 . S
C1371 C1372 1.398 . S
C1371 C1377 1.491 . S
C1372 H1363 0.950 . S
C1372 C1371 1.398 . S
C1372 C1373 1.391 . S
C1373 H1361 0.950 . S
C1373 C1369 1.393 . S
C1373 C1372 1.391 . S
C1374 H1364 0.950 . S
C1374 C1375 1.386 . S
C1374 C1376 1.391 . S
C1375 C1374 1.386 . S
C1375 C1379 1.393 . S
C1376 H1365 0.950 . S
C1376 C1374 1.391 . S
C1376 C1377 1.400 . S
C1377 C1371 1.491 . S
C1377 C1376 1.400 . S
C1377 C1378 1.398 . S
C1378 H1366 0.950 . S
C1378 C1377 1.398 . S
C1378 C1379 1.391 . S
C1379 H1367 0.950 . S
C1379 C1375 1.393 . S
C1379 C1378 1.391 . S
H1380 C1388 0.950 . S
H1381 C1393 0.950 . S
H1382 C1390 0.950 . S
H1383 C1392 0.950 . S
H1384 C1394 0.950 . S
H1385 C1396 0.950 . S
H1386 C1398 0.950 . S
H1387 C1399 0.950 . S
C1388 H1380 0.950 . S
C1388 C1389 1.386 . S
C1388 C1390 1.391 . S
C1389 C1388 1.386 . S
C1389 C1393 1.393 . S
C1390 H1382 0.950 . S
C1390 C1388 1.391 . S
C1390 C1391 1.400 . S
C1391 C1390 1.400 . S
C1391 C1392 1.398 . S
C1391 C1397 1.491 . S
C1392 H1383 0.950 . S
C1392 C1391 1.398 . S
C1392 C1393 1.391 . S
C1393 H1381 0.950 . S
C1393 C1389 1.393 . S
C1393 C1392 1.391 . S
C1394 H1384 0.950 . S
C1394 C1395 1.386 . S
C1394 C1396 1.391 . S
C1395 C1394 1.386 . S
C1395 C1399 1.393 . S
C1396 H1385 0.950 . S
C1396 C1394 1.391 . S
C1396 C1397 1.400 . S
C1397 C1391 1.491 . S
C1397 C1396 1.400 . S
C1397 C1398 1.398 . S
C1398 H1386 0.950 . S
C1398 C1397 1.398 . S
C1398 C1399 1.391 . S
C1399 H1387 0.950 . S
C1399 C1395 1.393 . S
C1399 C1398 1.391 . S
H1400 C1408 0.950 . S
H1401 C1413 0.950 . S
H1402 C1410 0.950 . S
H1403 C1412 0.950 . S
H1404 C1414 0.950 . S
H1405 C1416 0.950 . S
H1406 C1418 0.950 . S
H1407 C1419 0.950 . S
C1408 H1400 0.950 . S
C1408 C1409 1.386 . S
C1408 C1410 1.391 . S
C1409 C1408 1.386 . S
C1409 C1413 1.393 . S
C1410 H1402 0.950 . S
C1410 C1408 1.391 . S
C1410 C1411 1.400 . S
C1411 C1410 1.400 . S
C1411 C1412 1.398 . S
C1411 C1417 1.491 . S
C1412 H1403 0.950 . S
C1412 C1411 1.398 . S
C1412 C1413 1.391 . S
C1413 H1401 0.950 . S
C1413 C1409 1.393 . S
C1413 C1412 1.391 . S
C1414 H1404 0.950 . S
C1414 C1415 1.386 . S
C1414 C1416 1.391 . S
C1415 C1414 1.386 . S
C1415 C1419 1.393 . S
C1416 H1405 0.950 . S
C1416 C1414 1.391 . S
C1416 C1417 1.400 . S
C1417 C1411 1.491 . S
C1417 C1416 1.400 . S
C1417 C1418 1.398 . S
C1418 H1406 0.950 . S
C1418 C1417 1.398 . S
C1418 C1419 1.391 . S
C1419 H1407 0.950 . S
C1419 C1415 1.393 . S
C1419 C1418 1.391 . S
H1420 C1428 0.950 . S
H1421 C1433 0.950 . S
H1422 C1430 0.950 . S
H1423 C1432 0.950 . S
H1424 C1434 0.950 . S
H1425 C1436 0.950 . S
H1426 C1438 0.950 . S
H1427 C1439 0.950 . S
C1428 H1420 0.950 . S
C1428 C1429 1.386 . S
C1428 C1430 1.391 . S
C1429 C1428 1.386 . S
C1429 C1433 1.393 . S
C1430 H1422 0.950 . S
C1430 C1428 1.391 . S
C1430 C1431 1.400 . S
C1431 C1430 1.400 . S
C1431 C1432 1.398 . S
C1431 C1437 1.491 . S
C1432 H1423 0.950 . S
C1432 C1431 1.398 . S
C1432 C1433 1.391 . S
C1433 H1421 0.950 . S
C1433 C1429 1.393 . S
C1433 C1432 1.391 . S
C1434 H1424 0.950 . S
C1434 C1435 1.386 . S
C1434 C1436 1.391 . S
C1435 C1434 1.386 . S
C1435 C1439 1.393 . S
C1436 H1425 0.950 . S
C1436 C1434 1.391 . S
C1436 C1437 1.400 . S
C1437 C1431 1.491 . S
C1437 C1436 1.400 . S
C1437 C1438 1.398 . S
C1438 H1426 0.950 . S
C1438 C1437 1.398 . S
C1438 C1439 1.391 . S
C1439 H1427 0.950 . S
C1439 C1435 1.393 . S
C1439 C1438 1.391 . S
H1440 C1448 0.950 . S
H1441 C1453 0.950 . S
H1442 C1450 0.950 . S
H1443 C1452 0.950 . S
H1444 C1454 0.950 . S
H1445 C1456 0.950 . S
H1446 C1458 0.950 . S
H1447 C1459 0.950 . S
C1448 H1440 0.950 . S
C1448 C1449 1.386 . S
C1448 C1450 1.391 . S
C1449 C1448 1.386 . S
C1449 C1453 1.393 1_455 S
C1450 H1442 0.950 . S
C1450 C1448 1.391 . S
C1450 C1451 1.400 . S
C1451 C1450 1.400 . S
C1451 C1452 1.398 1_455 S
C1451 C1457 1.470 1_554 S
C1452 H1443 0.950 . S
C1452 C1451 1.398 1_655 S
C1452 C1453 1.391 . S
C1453 H1441 0.950 . S
C1453 C1449 1.393 1_655 S
C1453 C1452 1.391 . S
C1454 H1444 0.950 . S
C1454 C1455 1.339 1_655 S
C1454 C1456 1.391 . S
C1455 C1454 1.339 1_455 S
C1455 C1459 1.432 . S
C1456 H1445 0.950 . S
C1456 C1454 1.391 . S
C1456 C1457 1.409 1_655 S
C1457 C1451 1.470 1_556 S
C1457 C1456 1.409 1_455 S
C1457 C1458 1.411 . S
C1458 H1446 0.950 . S
C1458 C1457 1.411 . S
C1458 C1459 1.391 . S
C1459 H1447 0.950 . S
C1459 C1455 1.432 . S
C1459 C1458 1.391 . S
H1460 C1468 0.950 . S
H1461 C1473 0.950 . S
H1462 C1470 0.950 . S
H1463 C1472 0.950 . S
H1464 C1474 0.950 . S
H1465 C1476 0.950 . S
H1466 C1478 0.950 . S
H1467 C1479 0.950 . S
C1468 H1460 0.950 . S
C1468 C1469 1.386 . S
C1468 C1470 1.391 . S
C1469 C1468 1.386 . S
C1469 C1473 1.393 . S
C1470 H1462 0.950 . S
C1470 C1468 1.391 . S
C1470 C1471 1.400 . S
C1471 C1470 1.400 . S
C1471 C1472 1.398 . S
C1471 C1477 1.491 1_554 S
C1472 H1463 0.950 . S
C1472 C1471 1.398 . S
C1472 C1473 1.391 . S
C1473 H1461 0.950 . S
C1473 C1469 1.393 . S
C1473 C1472 1.391 . S
C1474 H1464 0.950 . S
C1474 C1475 1.386 . S
C1474 C1476 1.391 . S
C1475 C1474 1.386 . S
C1475 C1479 1.393 . S
C1476 H1465 0.950 . S
C1476 C1474 1.391 . S
C1476 C1477 1.400 . S
C1477 C1471 1.491 1_556 S
C1477 C1476 1.400 . S
C1477 C1478 1.398 . S
C1478 H1466 0.950 . S
C1478 C1477 1.398 . S
C1478 C1479 1.391 . S
C1479 H1467 0.950 . S
C1479 C1475 1.393 . S
C1479 C1478 1.391 . S
H1480 C1488 0.950 . S
H1481 C1493 0.950 . S
H1482 C1490 0.950 . S
H1483 C1492 0.950 . S
H1484 C1494 0.950 . S
H1485 C1496 0.950 . S
H1486 C1498 0.950 . S
H1487 C1499 0.950 . S
C1488 H1480 0.950 . S
C1488 C1489 1.386 . S
C1488 C1490 1.391 . S
C1489 C1488 1.386 . S
C1489 C1493 1.393 . S
C1490 H1482 0.950 . S
C1490 C1488 1.391 . S
C1490 C1491 1.400 . S
C1491 C1490 1.400 . S
C1491 C1492 1.398 . S
C1491 C1497 1.491 1_564 S
C1492 H1483 0.950 . S
C1492 C1491 1.398 . S
C1492 C1493 1.391 . S
C1493 H1481 0.950 . S
C1493 C1489 1.393 . S
C1493 C1492 1.391 . S
C1494 H1484 0.950 . S
C1494 C1495 1.386 . S
C1494 C1496 1.391 . S
C1495 C1494 1.386 . S
C1495 C1499 1.393 . S
C1496 H1485 0.950 . S
C1496 C1494 1.391 . S
C1496 C1497 1.400 . S
C1497 C1491 1.491 1_546 S
C1497 C1496 1.400 . S
C1497 C1498 1.398 . S
C1498 H1486 0.950 . S
C1498 C1497 1.398 . S
C1498 C1499 1.391 . S
C1499 H1487 0.950 . S
C1499 C1495 1.393 . S
C1499 C1498 1.391 . S
H1500 C1508 0.950 . S
H1501 C1513 0.950 . S
H1502 C1510 0.950 . S
H1503 C1512 0.950 1_554 S
H1504 C1514 0.950 . S
H1505 C1516 0.950 . S
H1506 C1518 0.950 . S
H1507 C1519 0.950 . S
C1508 H1500 0.950 . S
C1508 C1509 1.354 1_655 S
C1508 C1510 1.391 . S
C1509 C1508 1.354 1_455 S
C1509 C1513 1.418 . S
C1510 H1502 0.950 . S
C1510 C1508 1.391 . S
C1510 C1511 1.400 1_656 S
C1511 C1510 1.400 1_454 S
C1511 C1512 1.398 1_554 S
C1511 C1517 1.491 . S
C1512 H1503 0.950 1_556 S
C1512 C1511 1.398 1_556 S
C1512 C1513 1.391 . S
C1513 H1501 0.950 . S
C1513 C1509 1.418 . S
C1513 C1512 1.391 . S
C1514 H1504 0.950 . S
C1514 C1515 1.386 . S
C1514 C1516 1.391 . S
C1515 C1514 1.386 . S
C1515 C1519 1.393 1_455 S
C1516 H1505 0.950 . S
C1516 C1514 1.391 . S
C1516 C1517 1.400 . S
C1517 C1511 1.491 . S
C1517 C1516 1.400 . S
C1517 C1518 1.398 1_455 S
C1518 H1506 0.950 . S
C1518 C1517 1.398 1_655 S
C1518 C1519 1.391 . S
C1519 H1507 0.950 . S
C1519 C1515 1.393 1_655 S
C1519 C1518 1.391 . S
H1520 C1528 0.950 . S
H1521 C1533 0.950 . S
H1522 C1530 0.950 . S
H1523 C1532 0.950 . S
H1524 C1534 0.950 . S
H1525 C1536 0.950 1_554 S
H1526 C1538 0.950 . S
H1527 C1539 0.950 . S
C1528 H1520 0.950 . S
C1528 C1529 1.386 . S
C1528 C1530 1.391 . S
C1529 C1528 1.386 . S
C1529 C1533 1.393 . S
C1530 H1522 0.950 . S
C1530 C1528 1.391 . S
C1530 C1531 1.400 . S
C1531 C1530 1.400 . S
C1531 C1532 1.398 . S
C1531 C1537 1.491 . S
C1532 H1523 0.950 . S
C1532 C1531 1.398 . S
C1532 C1533 1.391 . S
C1533 H1521 0.950 . S
C1533 C1529 1.393 . S
C1533 C1532 1.391 . S
C1534 H1524 0.950 . S
C1534 C1535 1.386 . S
C1534 C1536 1.391 . S
C1535 C1534 1.386 . S
C1535 C1539 1.393 . S
C1536 H1525 0.950 1_556 S
C1536 C1534 1.391 . S
C1536 C1537 1.400 1_556 S
C1537 C1531 1.491 . S
C1537 C1536 1.400 1_554 S
C1537 C1538 1.398 . S
C1538 H1526 0.950 . S
C1538 C1537 1.398 . S
C1538 C1539 1.391 1_554 S
C1539 H1527 0.950 . S
C1539 C1535 1.393 . S
C1539 C1538 1.391 1_556 S
H1540 C1548 0.950 . S
H1541 C1553 0.950 . S
H1542 C1550 0.950 . S
H1543 C1552 0.950 . S
H1544 C1554 0.950 . S
H1545 C1556 0.950 . S
H1546 C1558 0.950 . S
H1547 C1559 0.950 . S
C1548 H1540 0.950 . S
C1548 C1549 1.386 . S
C1548 C1550 1.391 . S
C1549 C1548 1.386 . S
C1549 C1553 1.393 1_565 S
C1550 H1542 0.950 . S
C1550 C1548 1.391 . S
C1550 C1551 1.400 1_565 S
C1551 C1550 1.400 1_545 S
C1551 C1552 1.398 . S
C1551 C1557 1.491 1_554 S
C1552 H1543 0.950 . S
C1552 C1551 1.398 . S
C1552 C1553 1.391 . S
C1553 H1541 0.950 . S
C1553 C1549 1.393 1_545 S
C1553 C1552 1.391 . S
C1554 H1544 0.950 . S
C1554 C1555 1.386 . S
C1554 C1556 1.391 . S
C1555 C1554 1.386 . S
C1555 C1559 1.390 1_545 S
C1556 H1545 0.950 . S
C1556 C1554 1.391 . S
C1556 C1557 1.400 . S
C1557 C1551 1.491 1_556 S
C1557 C1556 1.400 . S
C1557 C1558 1.398 1_545 S
C1558 H1546 0.950 . S
C1558 C1557 1.398 1_565 S
C1558 C1559 1.393 . S
C1559 H1547 0.950 . S
C1559 C1555 1.390 1_565 S
C1559 C1558 1.393 . S
H1560 C1568 0.950 . S
H1561 C1573 0.950 . S
H1562 C1570 0.950 . S
H1563 C1572 0.950 . S
H1564 C1574 0.950 . S
H1565 C1576 0.950 . S
H1566 C1578 0.950 . S
H1567 C1579 0.950 . S
C1568 H1560 0.950 . S
C1568 C1569 1.386 . S
C1568 C1570 1.391 . S
C1569 C1568 1.386 . S
C1569 C1573 1.393 . S
C1570 H1562 0.950 . S
C1570 C1568 1.391 . S
C1570 C1571 1.400 . S
C1571 C1570 1.400 . S
C1571 C1572 1.398 . S
C1571 C1577 1.491 . S
C1572 H1563 0.950 . S
C1572 C1571 1.398 . S
C1572 C1573 1.391 . S
C1573 H1561 0.950 . S
C1573 C1569 1.393 . S
C1573 C1572 1.391 . S
C1574 H1564 0.950 . S
C1574 C1575 1.386 . S
C1574 C1576 1.391 . S
C1575 C1574 1.386 . S
C1575 C1579 1.393 . S
C1576 H1565 0.950 . S
C1576 C1574 1.391 . S
C1576 C1577 1.400 . S
C1577 C1571 1.491 . S
C1577 C1576 1.400 . S
C1577 C1578 1.398 . S
C1578 H1566 0.950 . S
C1578 C1577 1.398 . S
C1578 C1579 1.391 . S
C1579 H1567 0.950 . S
C1579 C1575 1.393 . S
C1579 C1578 1.391 . S
H1580 C1588 0.950 . S
H1581 C1593 0.950 . S
H1582 C1590 0.950 . S
H1583 C1592 0.950 . S
H1584 C1594 0.950 . S
H1585 C1596 0.950 . S
H1586 C1598 0.950 . S
H1587 C1599 0.950 . S
C1588 H1580 0.950 . S
C1588 C1589 1.386 . S
C1588 C1590 1.391 . S
C1589 C1588 1.386 . S
C1589 C1593 1.393 . S
C1590 H1582 0.950 . S
C1590 C1588 1.391 . S
C1590 C1591 1.400 . S
C1591 C1590 1.400 . S
C1591 C1592 1.398 . S
C1591 C1597 1.491 . S
C1592 H1583 0.950 . S
C1592 C1591 1.398 . S
C1592 C1593 1.391 . S
C1593 H1581 0.950 . S
C1593 C1589 1.393 . S
C1593 C1592 1.391 . S
C1594 H1584 0.950 . S
C1594 C1595 1.386 . S
C1594 C1596 1.391 . S
C1595 C1594 1.386 . S
C1595 C1599 1.393 . S
C1596 H1585 0.950 . S
C1596 C1594 1.391 . S
C1596 C1597 1.400 . S
C1597 C1591 1.491 . S
C1597 C1596 1.400 . S
C1597 C1598 1.398 . S
C1598 H1586 0.950 . S
C1598 C1597 1.398 . S
C1598 C1599 1.391 . S
C1599 H1587 0.950 . S
C1599 C1595 1.393 . S
C1599 C1598 1.391 . S
H1600 C1608 0.950 . S
H1601 C1613 0.950 . S
H1602 C1610 0.950 . S
H1603 C1612 0.950 . S
H1604 C1614 0.950 . S
H1605 C1616 0.950 . S
H1606 C1618 0.950 . S
H1607 C1619 0.950 . S
C1608 H1600 0.950 . S
C1608 C1609 1.386 . S
C1608 C1610 1.391 . S
C1609 C1608 1.386 . S
C1609 C1613 1.393 . S
C1610 H1602 0.950 . S
C1610 C1608 1.391 . S
C1610 C1611 1.400 . S
C1611 C1610 1.400 . S
C1611 C1612 1.398 . S
C1611 C1617 1.491 . S
C1612 H1603 0.950 . S
C1612 C1611 1.398 . S
C1612 C1613 1.391 . S
C1613 H1601 0.950 . S
C1613 C1609 1.393 . S
C1613 C1612 1.391 . S
C1614 H1604 0.950 . S
C1614 C1615 1.386 . S
C1614 C1616 1.391 . S
C1615 C1614 1.386 . S
C1615 C1619 1.393 . S
C1616 H1605 0.950 . S
C1616 C1614 1.391 . S
C1616 C1617 1.400 . S
C1617 C1611 1.491 . S
C1617 C1616 1.400 . S
C1617 C1618 1.398 . S
C1618 H1606 0.950 . S
C1618 C1617 1.398 . S
C1618 C1619 1.391 . S
C1619 H1607 0.950 . S
C1619 C1615 1.393 . S
C1619 C1618 1.391 . S
H1620 C1628 0.950 . S
H1621 C1633 0.950 . S
H1622 C1630 0.950 . S
H1623 C1632 0.950 . S
H1624 C1634 0.950 . S
H1625 C1636 0.950 . S
H1626 C1638 0.950 . S
H1627 C1639 0.950 . S
C1628 H1620 0.950 . S
C1628 C1629 1.386 . S
C1628 C1630 1.391 . S
C1629 C1628 1.386 . S
C1629 C1633 1.393 . S
C1630 H1622 0.950 . S
C1630 C1628 1.391 . S
C1630 C1631 1.400 . S
C1631 C1630 1.400 . S
C1631 C1632 1.398 . S
C1631 C1637 1.491 . S
C1632 H1623 0.950 . S
C1632 C1631 1.398 . S
C1632 C1633 1.391 . S
C1633 H1621 0.950 . S
C1633 C1629 1.393 . S
C1633 C1632 1.391 . S
C1634 H1624 0.950 . S
C1634 C1635 1.386 . S
C1634 C1636 1.391 . S
C1635 C1634 1.386 . S
C1635 C1639 1.393 . S
C1636 H1625 0.950 . S
C1636 C1634 1.391 . S
C1636 C1637 1.400 . S
C1637 C1631 1.491 . S
C1637 C1636 1.400 . S
C1637 C1638 1.398 . S
C1638 H1626 0.950 . S
C1638 C1637 1.398 . S
C1638 C1639 1.391 . S
C1639 H1627 0.950 . S
C1639 C1635 1.393 . S
C1639 C1638 1.391 . S
H1640 C1648 0.950 . S
H1641 C1653 0.950 . S
H1642 C1650 0.950 . S
H1643 C1652 0.950 . S
H1644 C1654 0.950 . S
H1645 C1656 0.950 . S
H1646 C1658 0.950 . S
H1647 C1659 0.950 . S
C1648 H1640 0.950 . S
C1648 C1649 1.386 . S
C1648 C1650 1.391 . S
C1649 C1648 1.386 . S
C1649 C1653 1.393 . S
C1650 H1642 0.950 . S
C1650 C1648 1.391 . S
C1650 C1651 1.400 . S
C1651 C1650 1.400 . S
C1651 C1652 1.398 . S
C1651 C1657 1.491 . S
C1652 H1643 0.950 . S
C1652 C1651 1.398 . S
C1652 C1653 1.391 . S
C1653 H1641 0.950 . S
C1653 C1649 1.393 . S
C1653 C1652 1.391 . S
C1654 H1644 0.950 . S
C1654 C1655 1.386 . S
C1654 C1656 1.391 . S
C1655 C1654 1.386 . S
C1655 C1659 1.393 . S
C1656 H1645 0.950 . S
C1656 C1654 1.391 . S
C1656 C1657 1.400 . S
C1657 C1651 1.491 . S
C1657 C1656 1.400 . S
C1657 C1658 1.398 . S
C1658 H1646 0.950 . S
C1658 C1657 1.398 . S
C1658 C1659 1.391 . S
C1659 H1647 0.950 . S
C1659 C1655 1.393 . S
C1659 C1658 1.391 . S
H1660 C1668 0.950 . S
H1661 C1673 0.950 . S
H1662 C1670 0.950 . S
H1663 C1672 0.950 . S
H1664 C1674 0.950 . S
H1665 C1676 0.950 . S
H1666 C1678 0.950 . S
H1667 C1679 0.950 . S
C1668 H1660 0.950 . S
C1668 C1669 1.386 . S
C1668 C1670 1.391 . S
C1669 C1668 1.386 . S
C1669 C1673 1.393 . S
C1670 H1662 0.950 . S
C1670 C1668 1.391 . S
C1670 C1671 1.400 . S
C1671 C1670 1.400 . S
C1671 C1672 1.398 . S
C1671 C1677 1.491 . S
C1672 H1663 0.950 . S
C1672 C1671 1.398 . S
C1672 C1673 1.391 . S
C1673 H1661 0.950 . S
C1673 C1669 1.393 . S
C1673 C1672 1.391 . S
C1674 H1664 0.950 . S
C1674 C1675 1.386 . S
C1674 C1676 1.391 . S
C1675 C1674 1.386 . S
C1675 C1679 1.393 . S
C1676 H1665 0.950 . S
C1676 C1674 1.391 . S
C1676 C1677 1.400 . S
C1677 C1671 1.491 . S
C1677 C1676 1.400 . S
C1677 C1678 1.398 . S
C1678 H1666 0.950 . S
C1678 C1677 1.398 . S
C1678 C1679 1.391 . S
C1679 H1667 0.950 . S
C1679 C1675 1.393 . S
C1679 C1678 1.391 . S
H1680 C1688 0.950 . S
H1681 C1693 0.950 . S
H1682 C1690 0.950 . S
H1683 C1692 0.950 . S
H1684 C1694 0.950 . S
H1685 C1696 0.950 . S
H1686 C1698 0.950 . S
H1687 C1699 0.950 . S
C1688 H1680 0.950 . S
C1688 C1689 1.386 . S
C1688 C1690 1.391 . S
C1689 C1688 1.386 . S
C1689 C1693 1.393 . S
C1690 H1682 0.950 . S
C1690 C1688 1.391 . S
C1690 C1691 1.400 . S
C1691 C1690 1.400 . S
C1691 C1692 1.398 . S
C1691 C1697 1.491 . S
C1692 H1683 0.950 . S
C1692 C1691 1.398 . S
C1692 C1693 1.391 . S
C1693 H1681 0.950 . S
C1693 C1689 1.393 . S
C1693 C1692 1.391 . S
C1694 H1684 0.950 . S
C1694 C1695 1.386 . S
C1694 C1696 1.391 . S
C1695 C1694 1.386 . S
C1695 C1699 1.393 . S
C1696 H1685 0.950 . S
C1696 C1694 1.391 . S
C1696 C1697 1.400 . S
C1697 C1691 1.491 . S
C1697 C1696 1.400 . S
C1697 C1698 1.398 . S
C1698 H1686 0.950 . S
C1698 C1697 1.398 . S
C1698 C1699 1.391 . S
C1699 H1687 0.950 . S
C1699 C1695 1.393 . S
C1699 C1698 1.391 . S
H1700 C1708 0.950 . S
H1701 C1713 0.950 . S
H1702 C1710 0.950 . S
H1703 C1712 0.950 . S
H1704 C1714 0.950 . S
H1705 C1716 0.950 . S
H1706 C1718 0.950 . S
H1707 C1719 0.950 . S
C1708 H1700 0.950 . S
C1708 C1709 1.386 . S
C1708 C1710 1.391 . S
C1709 C1708 1.386 . S
C1709 C1713 1.393 . S
C1710 H1702 0.950 . S
C1710 C1708 1.391 . S
C1710 C1711 1.400 . S
C1711 C1710 1.400 . S
C1711 C1712 1.398 . S
C1711 C1717 1.491 . S
C1712 H1703 0.950 . S
C1712 C1711 1.398 . S
C1712 C1713 1.391 . S
C1713 H1701 0.950 . S
C1713 C1709 1.393 . S
C1713 C1712 1.391 . S
C1714 H1704 0.950 . S
C1714 C1715 1.386 . S
C1714 C1716 1.391 . S
C1715 C1714 1.386 . S
C1715 C1719 1.393 . S
C1716 H1705 0.950 . S
C1716 C1714 1.391 . S
C1716 C1717 1.400 . S
C1717 C1711 1.491 . S
C1717 C1716 1.400 . S
C1717 C1718 1.398 . S
C1718 H1706 0.950 . S
C1718 C1717 1.398 . S
C1718 C1719 1.391 . S
C1719 H1707 0.950 . S
C1719 C1715 1.393 . S
C1719 C1718 1.391 . S
H1720 C1728 0.950 . S
H1721 C1733 0.950 . S
H1722 C1730 0.950 . S
H1723 C1732 0.950 . S
H1724 C1734 0.950 . S
H1725 C1736 0.950 . S
H1726 C1738 0.950 . S
H1727 C1739 0.950 . S
C1728 H1720 0.950 . S
C1728 C1729 1.386 . S
C1728 C1730 1.391 . S
C1729 C1728 1.386 . S
C1729 C1733 1.393 . S
C1730 H1722 0.950 . S
C1730 C1728 1.391 . S
C1730 C1731 1.400 . S
C1731 C1730 1.400 . S
C1731 C1732 1.398 . S
C1731 C1737 1.491 . S
C1732 H1723 0.950 . S
C1732 C1731 1.398 . S
C1732 C1733 1.391 . S
C1733 H1721 0.950 . S
C1733 C1729 1.393 . S
C1733 C1732 1.391 . S
C1734 H1724 0.950 . S
C1734 C1735 1.386 . S
C1734 C1736 1.391 . S
C1735 C1734 1.386 . S
C1735 C1739 1.393 . S
C1736 H1725 0.950 . S
C1736 C1734 1.391 . S
C1736 C1737 1.400 . S
C1737 C1731 1.491 . S
C1737 C1736 1.400 . S
C1737 C1738 1.398 . S
C1738 H1726 0.950 . S
C1738 C1737 1.398 . S
C1738 C1739 1.391 . S
C1739 H1727 0.950 . S
C1739 C1735 1.393 . S
C1739 C1738 1.391 . S
H1740 C1748 0.950 . S
H1741 C1753 0.950 . S
H1742 C1750 0.950 . S
H1743 C1752 0.950 . S
H1744 C1754 0.950 . S
H1745 C1756 0.950 . S
H1746 C1758 0.950 . S
H1747 C1759 0.950 . S
C1748 H1740 0.950 . S
C1748 C1749 1.386 . S
C1748 C1750 1.391 . S
C1749 C1748 1.386 . S
C1749 C1753 1.393 . S
C1750 H1742 0.950 . S
C1750 C1748 1.391 . S
C1750 C1751 1.400 . S
C1751 C1750 1.400 . S
C1751 C1752 1.398 . S
C1751 C1757 1.491 . S
C1752 H1743 0.950 . S
C1752 C1751 1.398 . S
C1752 C1753 1.391 . S
C1753 H1741 0.950 . S
C1753 C1749 1.393 . S
C1753 C1752 1.391 . S
C1754 H1744 0.950 . S
C1754 C1755 1.386 . S
C1754 C1756 1.391 . S
C1755 C1754 1.386 . S
C1755 C1759 1.393 . S
C1756 H1745 0.950 . S
C1756 C1754 1.391 . S
C1756 C1757 1.400 . S
C1757 C1751 1.491 . S
C1757 C1756 1.400 . S
C1757 C1758 1.398 . S
C1758 H1746 0.950 . S
C1758 C1757 1.398 . S
C1758 C1759 1.391 . S
C1759 H1747 0.950 . S
C1759 C1755 1.393 . S
C1759 C1758 1.391 . S
H1760 C1768 0.950 . S
H1761 C1773 0.950 . S
H1762 C1770 0.950 . S
H1763 C1772 0.950 . S
H1764 C1774 0.950 . S
H1765 C1776 0.950 . S
H1766 C1778 0.950 . S
H1767 C1779 0.950 . S
C1768 H1760 0.950 . S
C1768 C1769 1.386 . S
C1768 C1770 1.391 . S
C1769 C1768 1.386 . S
C1769 C1773 1.393 . S
C1770 H1762 0.950 . S
C1770 C1768 1.391 . S
C1770 C1771 1.400 . S
C1771 C1770 1.400 . S
C1771 C1772 1.398 . S
C1771 C1777 1.491 . S
C1772 H1763 0.950 . S
C1772 C1771 1.398 . S
C1772 C1773 1.391 . S
C1773 H1761 0.950 . S
C1773 C1769 1.393 . S
C1773 C1772 1.391 . S
C1774 H1764 0.950 . S
C1774 C1775 1.386 . S
C1774 C1776 1.391 . S
C1775 C1774 1.386 . S
C1775 C1779 1.393 . S
C1776 H1765 0.950 . S
C1776 C1774 1.391 . S
C1776 C1777 1.400 . S
C1777 C1771 1.491 . S
C1777 C1776 1.400 . S
C1777 C1778 1.398 . S
C1778 H1766 0.950 . S
C1778 C1777 1.398 . S
C1778 C1779 1.391 . S
C1779 H1767 0.950 . S
C1779 C1775 1.393 . S
C1779 C1778 1.391 . S
H1780 C1788 0.950 . S
H1781 C1793 0.950 . S
H1782 C1790 0.950 . S
H1783 C1792 0.950 . S
H1784 C1794 0.950 . S
H1785 C1796 0.950 . S
H1786 C1798 0.950 . S
H1787 C1799 0.950 . S
C1788 H1780 0.950 . S
C1788 C1789 1.386 . S
C1788 C1790 1.391 . S
C1789 C1788 1.386 . S
C1789 C1793 1.393 . S
C1790 H1782 0.950 . S
C1790 C1788 1.391 . S
C1790 C1791 1.400 . S
C1791 C1790 1.400 . S
C1791 C1792 1.398 . S
C1791 C1797 1.491 . S
C1792 H1783 0.950 . S
C1792 C1791 1.398 . S
C1792 C1793 1.391 . S
C1793 H1781 0.950 . S
C1793 C1789 1.393 . S
C1793 C1792 1.391 . S
C1794 H1784 0.950 . S
C1794 C1795 1.386 . S
C1794 C1796 1.391 . S
C1795 C1794 1.386 . S
C1795 C1799 1.393 . S
C1796 H1785 0.950 . S
C1796 C1794 1.391 . S
C1796 C1797 1.400 . S
C1797 C1791 1.491 . S
C1797 C1796 1.400 . S
C1797 C1798 1.398 . S
C1798 H1786 0.950 . S
C1798 C1797 1.398 . S
C1798 C1799 1.391 . S
C1799 H1787 0.950 . S
C1799 C1795 1.393 . S
C1799 C1798 1.391 . S
C729 C539 2.435 . S
C735 C19 2.437 . S
C749 C58 1.736 . S
C755 C578 1.738 . S
C769 C99 2.102 . S
C775 C498 2.144 . S
C789 C98 1.571 . S
C795 C298 1.562 . S
C809 C338 1.909 . S
C815 C18 1.903 . S
C829 C59 2.189 . S
C835 C258 2.228 . S
C849 C130 2.113 . S
C855 C409 2.135 . S
C869 C169 1.435 . S
C875 C449 1.437 . S
C889 C369 1.814 . S
C895 C210 1.777 . S
C909 C649 1.746 . S
C915 C209 1.753 . S
C929 C129 2.140 . S
C935 C690 2.104 . S
C949 C610 2.457 . S
C955 C170 2.437 . S
C969 C339 1.973 . S
C975 C538 2.017 . S
C989 C259 2.331 . S
C995 C579 2.315 . S
C1009 C299 2.608 . S
C1015 C499 2.633 . S
C1029 C370 2.753 . S
C1035 C650 2.740 . S
C1049 C689 2.163 . S
C1055 C410 2.139 . S
C1069 C609 2.475 . S
C1075 C450 2.430 . S
C1089 C9 1.353 . S
C1095 C178 1.391 . S
C1109 C219 1.811 . S
C1115 C50 1.790 . S
C1129 C139 1.588 . S
C1135 C89 1.460 . S
C1149 C179 1.857 . S
C1155 C90 1.878 . S
C1169 C218 1.564 . S
C1175 C10 1.670 . S
C1189 C138 1.466 . S
C1195 C49 1.526 . S
C1209 C419 1.913 . S
C1215 C250 1.923 . S
C1229 C459 1.997 . S
C1235 C290 1.986 . S
C1249 C379 1.987 . S
C1255 C330 1.926 . S
C1269 C418 1.436 . S
C1275 C329 1.445 . S
C1289 C458 1.403 . S
C1295 C249 1.454 . S
C1309 C378 1.407 . S
C1315 C289 1.396 . S
C1329 C658 1.531 . S
C1335 C489 1.471 . S
C1349 C699 1.891 . S
C1355 C530 1.836 . S
C1369 C569 1.581 . S
C1375 C619 1.661 . S
C1389 C570 2.027 . S
C1395 C659 2.043 . S
C1409 C490 1.784 . S
C1415 C698 1.627 . S
C1429 C618 1.508 . S
C1435 C529 1.513 . S
C1449 C15 1.285 . S
C1455 C6 1.293 . S
C1469 C46 1.438 . S
C1475 C55 1.438 . S
C1489 C95 1.405 . S
C1495 C86 1.405 . S
C1509 C126 1.384 . S
C1515 C135 1.381 . S
C1529 C166 1.329 . S
C1535 C175 1.329 . S
C1549 C215 1.515 . S
C1555 C206 1.515 . S
C1569 C255 1.557 . S
C1575 C246 1.557 . S
C1589 C286 1.283 . S
C1595 C295 1.283 . S
C1609 C335 1.676 . S
C1615 C326 1.676 . S
C1629 C366 1.243 . S
C1635 C375 1.243 . S
C1649 C406 1.553 . S
C1655 C415 1.553 . S
C1669 C446 1.373 . S
C1675 C455 1.373 . S
C1689 C486 1.263 . S
C1695 C495 1.263 . S
C1709 C526 1.409 . S
C1715 C535 1.409 . S
C1729 C575 1.375 . S
C1735 C566 1.375 . S
C1749 C615 1.401 . S
C1755 C606 1.401 . S
C1769 C646 1.292 . S
C1775 C655 1.292 . S
C1789 C686 1.432 . S
C1795 C695 1.432 . S
