# Generated by pormake.
# Topology uki, (4)-cn, num edge types: 1
# Building blocks:
#     Node 0, Type 0, BuildingBlock: KUFVIS_clean_sbu_0, # of connection points: 4
#     Node 1, Type 0, BuildingBlock: KUFVIS_clean_sbu_0, # of connection points: 4
#     Node 2, Type 0, BuildingBlock: KUFVIS_clean_sbu_0, # of connection points: 4
#     Node 3, Type 0, BuildingBlock: KUFVIS_clean_sbu_0, # of connection points: 4
#     Node 4, Type 0, BuildingBlock: KUFVIS_clean_sbu_0, # of connection points: 4
#     Node 5, Type 0, BuildingBlock: KUFVIS_clean_sbu_0, # of connection points: 4
#     Node 6, Type 0, BuildingBlock: KUFVIS_clean_sbu_0, # of connection points: 4
#     Node 7, Type 0, BuildingBlock: KUFVIS_clean_sbu_0, # of connection points: 4
#     Node 8, Type 0, BuildingBlock: KUFVIS_clean_sbu_0, # of connection points: 4
#     Node 9, Type 0, BuildingBlock: KUFVIS_clean_sbu_0, # of connection points: 4
#     Node 10, Type 0, BuildingBlock: KUFVIS_clean_sbu_0, # of connection points: 4
#     Node 11, Type 0, BuildingBlock: KUFVIS_clean_sbu_0, # of connection points: 4
#     Node 12, Type 0, BuildingBlock: KUFVIS_clean_sbu_0, # of connection points: 4
#     Node 13, Type 0, BuildingBlock: KUFVIS_clean_sbu_0, # of connection points: 4
#     Node 14, Type 0, BuildingBlock: KUFVIS_clean_sbu_0, # of connection points: 4
#     Node 15, Type 0, BuildingBlock: KUFVIS_clean_sbu_0, # of connection points: 4
#     Edge 16, Type (0, 0), BuildingBlock: XIVTED_clean_linker_0, # of connection points: 2
#     Edge 17, Type (0, 0), BuildingBlock: XIVTED_clean_linker_0, # of connection points: 2
#     Edge 18, Type (0, 0), BuildingBlock: XIVTED_clean_linker_0, # of connection points: 2
#     Edge 19, Type (0, 0), BuildingBlock: XIVTED_clean_linker_0, # of connection points: 2
#     Edge 20, Type (0, 0), BuildingBlock: XIVTED_clean_linker_0, # of connection points: 2
#     Edge 21, Type (0, 0), BuildingBlock: XIVTED_clean_linker_0, # of connection points: 2
#     Edge 22, Type (0, 0), BuildingBlock: XIVTED_clean_linker_0, # of connection points: 2
#     Edge 23, Type (0, 0), BuildingBlock: XIVTED_clean_linker_0, # of connection points: 2
#     Edge 24, Type (0, 0), BuildingBlock: XIVTED_clean_linker_0, # of connection points: 2
#     Edge 25, Type (0, 0), BuildingBlock: XIVTED_clean_linker_0, # of connection points: 2
#     Edge 26, Type (0, 0), BuildingBlock: XIVTED_clean_linker_0, # of connection points: 2
#     Edge 27, Type (0, 0), BuildingBlock: XIVTED_clean_linker_0, # of connection points: 2
#     Edge 28, Type (0, 0), BuildingBlock: XIVTED_clean_linker_0, # of connection points: 2
#     Edge 29, Type (0, 0), BuildingBlock: XIVTED_clean_linker_0, # of connection points: 2
#     Edge 30, Type (0, 0), BuildingBlock: XIVTED_clean_linker_0, # of connection points: 2
#     Edge 31, Type (0, 0), BuildingBlock: XIVTED_clean_linker_0, # of connection points: 2
#     Edge 32, Type (0, 0), BuildingBlock: XIVTED_clean_linker_0, # of connection points: 2
#     Edge 33, Type (0, 0), BuildingBlock: XIVTED_clean_linker_0, # of connection points: 2
#     Edge 34, Type (0, 0), BuildingBlock: XIVTED_clean_linker_0, # of connection points: 2
#     Edge 35, Type (0, 0), BuildingBlock: XIVTED_clean_linker_0, # of connection points: 2
#     Edge 36, Type (0, 0), BuildingBlock: XIVTED_clean_linker_0, # of connection points: 2
#     Edge 37, Type (0, 0), BuildingBlock: XIVTED_clean_linker_0, # of connection points: 2
#     Edge 38, Type (0, 0), BuildingBlock: XIVTED_clean_linker_0, # of connection points: 2
#     Edge 39, Type (0, 0), BuildingBlock: XIVTED_clean_linker_0, # of connection points: 2
#     Edge 40, Type (0, 0), BuildingBlock: XIVTED_clean_linker_0, # of connection points: 2
#     Edge 41, Type (0, 0), BuildingBlock: XIVTED_clean_linker_0, # of connection points: 2
#     Edge 42, Type (0, 0), BuildingBlock: XIVTED_clean_linker_0, # of connection points: 2
#     Edge 43, Type (0, 0), BuildingBlock: XIVTED_clean_linker_0, # of connection points: 2
#     Edge 44, Type (0, 0), BuildingBlock: XIVTED_clean_linker_0, # of connection points: 2
#     Edge 45, Type (0, 0), BuildingBlock: XIVTED_clean_linker_0, # of connection points: 2
#     Edge 46, Type (0, 0), BuildingBlock: XIVTED_clean_linker_0, # of connection points: 2
#     Edge 47, Type (0, 0), BuildingBlock: XIVTED_clean_linker_0, # of connection points: 2
# Relax obj value: 0.140
# Max RMSD: 0.244
# Mean RMSD: 0.244
data_MOF--net-uki--node1-KUFVIS_clean_sbu_0--edge1-XIVTED_clean_linker_0
_symmetry_space_group_name_H-M    P1
_symmetry_Int_Tables_number       1
_symmetry_cell_setting            triclinic
loop_
_symmetry_equiv_pos_as_xyz
'x, y, z'
_cell_length_a     31.245638
_cell_length_b     31.258027
_cell_length_c     68.214994
_cell_angle_alpha  90.019488
_cell_angle_beta   89.988534
_cell_angle_gamma 89.96991
loop_
_atom_site_label
_atom_site_type_symbol
_atom_site_fract_x
_atom_site_fract_y
_atom_site_fract_z
_atom_type_partial_charge
Mn0 Mn 0.06791 0.23002 0.29491 0.0
Mn1 Mn 0.01298 0.23624 0.33728 0.0
C2 C 0.99565 0.24431 0.29433 0.0
C3 C 0.10854 0.2642 0.27105 0.0
C4 C 0.03567 0.15215 0.31779 0.0
O5 O 0.11512 0.23502 0.31522 0.0
O6 O 0.07582 0.23955 0.34276 0.0
C7 C 0.03488 0.32584 0.34713 0.0
N8 N 0.00482 0.29539 0.34335 0.0
C9 C 0.94776 0.34654 0.34694 0.0
C10 C 0.9781 0.37838 0.35101 0.0
C11 C 0.02184 0.36797 0.35109 0.0
C12 C 0.96264 0.30505 0.34325 0.0
H13 H 0.06856 0.3181 0.34704 0.0
C14 C 0.11189 0.2386 0.33378 0.0
O15 O 0.11107 0.22296 0.27331 0.0
O16 O 0.08413 0.28512 0.28299 0.0
N17 N 0.95212 0.23399 0.33429 0.0
C18 C 0.92706 0.19993 0.32941 0.0
C19 C 0.88251 0.20521 0.32824 0.0
C20 C 0.86417 0.24533 0.33222 0.0
C21 C 0.89055 0.27974 0.33748 0.0
C22 C 0.93472 0.27247 0.33858 0.0
H23 H 0.941 0.16908 0.32623 0.0
O24 O 0.01489 0.22967 0.27889 0.0
O25 O 0.01972 0.25126 0.30961 0.0
O26 O 0.05603 0.16801 0.30323 0.0
O27 O 0.019 0.1747 0.33146 0.0
C28 C 0.87483 0.32114 0.34136 0.0
C29 C 0.90341 0.35452 0.34607 0.0
H30 H 0.96819 0.41097 0.35394 0.0
H31 H 0.04546 0.39241 0.3541 0.0
H32 H 0.86236 0.17849 0.32418 0.0
H33 H 0.82982 0.24938 0.33112 0.0
H34 H 0.84084 0.32776 0.34056 0.0
H35 H 0.89097 0.38631 0.34882 0.0
Mn36 Mn 0.23292 0.92787 0.70253 0.0
Mn37 Mn 0.23714 0.98045 0.65947 0.0
C38 C 0.24695 0.00012 0.70212 0.0
C39 C 0.26778 0.88841 0.72662 0.0
C40 C 0.15398 0.95826 0.67987 0.0
O41 O 0.23743 0.87965 0.68272 0.0
O42 O 0.24071 0.91738 0.65468 0.0
C43 C 0.32651 0.95865 0.64905 0.0
N44 N 0.29598 0.98868 0.65279 0.0
C45 C 0.34646 0.04586 0.64801 0.0
C46 C 0.37836 0.01555 0.64397 0.0
C47 C 0.36834 0.97176 0.64451 0.0
C48 C 0.30527 0.0309 0.65229 0.0
H49 H 0.31906 0.92495 0.64959 0.0
C50 C 0.24029 0.88185 0.6641 0.0
O51 O 0.22648 0.8859 0.72458 0.0
O52 O 0.28841 0.91227 0.71433 0.0
N53 N 0.23453 0.04143 0.66183 0.0
C54 C 0.20049 0.06649 0.66678 0.0
C55 C 0.20545 0.11112 0.66738 0.0
C56 C 0.24522 0.12951 0.66278 0.0
C57 C 0.27961 0.10309 0.65748 0.0
C58 C 0.27267 0.05884 0.65697 0.0
H59 H 0.16991 0.05253 0.67043 0.0
O60 O 0.23292 0.98177 0.7179 0.0
O61 O 0.25342 0.97522 0.68708 0.0
O62 O 0.17062 0.93896 0.69453 0.0
O63 O 0.17583 0.97436 0.66583 0.0
C64 C 0.32069 0.11888 0.653 0.0
C65 C 0.35409 0.09029 0.64828 0.0
H66 H 0.41073 0.02552 0.64059 0.0
H67 H 0.39284 0.94817 0.64151 0.0
H68 H 0.17875 0.13129 0.67148 0.0
H69 H 0.24902 0.16392 0.66345 0.0
H70 H 0.32704 0.15294 0.65333 0.0
H71 H 0.38564 0.10279 0.64505 0.0
Mn72 Mn 0.92156 0.76461 0.2961 0.0
Mn73 Mn 0.97553 0.75952 0.33876 0.0
C74 C 0.99411 0.75176 0.29585 0.0
C75 C 0.88182 0.72956 0.27216 0.0
C76 C 0.95155 0.84311 0.31915 0.0
O77 O 0.87404 0.7589 0.31622 0.0
O78 O 0.91266 0.75456 0.34396 0.0
C79 C 0.95581 0.66938 0.3485 0.0
N80 N 0.98513 0.70059 0.34482 0.0
C81 C 0.04344 0.65097 0.34864 0.0
C82 C 0.01388 0.61837 0.35262 0.0
C83 C 0.96988 0.62762 0.35253 0.0
C84 C 0.02754 0.69205 0.34487 0.0
H85 H 0.92194 0.67624 0.3483 0.0
C86 C 0.87682 0.75504 0.33477 0.0
O87 O 0.87864 0.77077 0.27436 0.0
O88 O 0.90648 0.70916 0.28417 0.0
N89 N 0.03638 0.76339 0.33602 0.0
C90 C 0.06063 0.79813 0.33131 0.0
C91 C 0.10533 0.79404 0.33034 0.0
C92 C 0.12464 0.7544 0.33435 0.0
C93 C 0.09906 0.71927 0.33944 0.0
C94 C 0.05469 0.72536 0.34033 0.0
H95 H 0.04596 0.82863 0.32812 0.0
O96 O 0.97488 0.76582 0.2803 0.0
O97 O 0.96984 0.74439 0.31103 0.0
O98 O 0.93219 0.82687 0.3044 0.0
O99 O 0.96804 0.82091 0.33298 0.0
C100 C 0.11579 0.6783 0.34337 0.0
C101 C 0.08801 0.64418 0.34796 0.0
H102 H 0.02459 0.58606 0.35561 0.0
H103 H 0.94686 0.60258 0.35548 0.0
H104 H 0.12486 0.82131 0.32642 0.0
H105 H 0.1591 0.75128 0.33341 0.0
H106 H 0.14997 0.6726 0.34274 0.0
H107 H 0.10123 0.61274 0.3508 0.0
Mn108 Mn 0.76287 0.05978 0.70242 0.0
Mn109 Mn 0.75831 0.00611 0.65965 0.0
C110 C 0.74968 0.98732 0.7024 0.0
C111 C 0.72783 0.09918 0.72649 0.0
C112 C 0.84165 0.03037 0.6794 0.0
O113 O 0.75722 0.10746 0.68238 0.0
O114 O 0.75314 0.06891 0.65458 0.0
C115 C 0.66818 0.02552 0.64965 0.0
N116 N 0.69951 -0.00368 0.65336 0.0
C117 C 0.65028 0.93784 0.64917 0.0
C118 C 0.61756 0.96729 0.64516 0.0
C119 C 0.62656 0.01131 0.64542 0.0
C120 C 0.69122 0.95388 0.65312 0.0
H121 H 0.67485 0.0594 0.64998 0.0
C122 C 0.75348 0.10469 0.66381 0.0
O123 O 0.76905 0.10234 0.72429 0.0
O124 O 0.70737 0.07477 0.71438 0.0
N125 N 0.76241 0.94529 0.66235 0.0
C126 C 0.79708 0.92119 0.66736 0.0
C127 C 0.79316 0.87648 0.66829 0.0
C128 C 0.75376 0.85704 0.66397 0.0
C129 C 0.71867 0.88247 0.65863 0.0
C130 C 0.72458 0.92684 0.65778 0.0
H131 H 0.82738 0.93597 0.6708 0.0
O132 O 0.7639 0.00616 0.71803 0.0
O133 O 0.7427 0.01183 0.68729 0.0
O134 O 0.82517 0.0494 0.69418 0.0
O135 O 0.81964 0.01379 0.66555 0.0
C136 C 0.67786 0.8656 0.65447 0.0
C137 C 0.64369 0.89326 0.64975 0.0
H138 H 0.58535 0.95647 0.64204 0.0
H139 H 0.60142 0.03424 0.64245 0.0
H140 H 0.82039 0.85707 0.67242 0.0
H141 H 0.75075 0.82257 0.66489 0.0
H142 H 0.6723 0.83142 0.65507 0.0
H143 H 0.61236 0.87994 0.64678 0.0
Mn144 Mn 0.06304 0.26143 0.94862 0.0
Mn145 Mn 0.00934 0.26009 0.90579 0.0
C146 C 0.99024 0.25067 0.94856 0.0
C147 C 0.10192 0.22406 0.97216 0.0
C148 C 0.0353 0.34191 0.92641 0.0
O149 O 0.11053 0.2556 0.92853 0.0
O150 O 0.0721 0.25376 0.90067 0.0
C151 C 0.02684 0.17001 0.895 0.0
N152 N -0.00169 0.20181 0.89897 0.0
C153 C 0.93875 0.15415 0.89418 0.0
C154 C 0.9675 0.12098 0.8899 0.0
C155 C 0.01174 0.12895 0.89033 0.0
C156 C 0.95568 0.19449 0.89859 0.0
H157 H 0.06088 0.17591 0.89545 0.0
C158 C 0.10782 0.25286 0.90993 0.0
O159 O 0.106 0.2653 0.97045 0.0
O160 O 0.07672 0.20495 0.95993 0.0
N161 N 0.94858 0.26547 0.90838 0.0
C162 C 0.92516 0.30059 0.91342 0.0
C163 C 0.88034 0.29773 0.91411 0.0
C164 C 0.86006 0.25893 0.90947 0.0
C165 C 0.8848 0.22341 0.90403 0.0
C166 C 0.92933 0.22827 0.90346 0.0
H167 H 0.94058 0.33045 0.91709 0.0
O168 O 0.00967 0.26322 0.96434 0.0
O169 O 0.01441 0.24337 0.93334 0.0
O170 O 0.0541 0.3244 0.94101 0.0
O171 O 0.01835 0.32086 0.91233 0.0
C172 C 0.86704 0.18322 0.89944 0.0
C173 C 0.894 0.14861 0.89452 0.0
H174 H 0.95599 0.0892 0.8864 0.0
H175 H 0.03414 0.10346 0.88715 0.0
H176 H 0.86147 0.3253 0.9183 0.0
H177 H 0.8255 0.25674 0.91019 0.0
H178 H 0.83271 0.17847 0.89981 0.0
H179 H 0.87999 0.11777 0.89119 0.0
Mn180 Mn 0.26607 0.92537 0.04351 0.0
Mn181 Mn 0.25863 0.98194 0.08538 0.0
C182 C 0.25199 -0.00233 0.04231 0.0
C183 C 0.233 0.88436 0.01947 0.0
C184 C 0.34327 0.95742 0.06689 0.0
O185 O 0.25972 0.87896 0.06416 0.0
O186 O 0.25426 0.91942 0.09134 0.0
C187 C 0.16834 0.96168 0.09468 0.0
N188 N 0.19932 0.99115 0.09084 0.0
C189 C 0.14869 0.04895 0.09323 0.0
C190 C 0.1163 0.01925 0.09735 0.0
C191 C 0.12618 0.97543 0.09807 0.0
C192 C 0.19018 0.0334 0.09014 0.0
H193 H 0.17568 0.92794 0.09507 0.0
C194 C 0.25527 0.88299 0.08266 0.0
O195 O 0.27408 0.88162 0.02228 0.0
O196 O 0.21151 0.90908 0.03107 0.0
N197 N 0.2618 0.04259 0.08179 0.0
C198 C 0.29636 0.06694 0.0769 0.0
C199 C 0.29166 0.11145 0.07513 0.0
C200 C 0.25157 0.13046 0.07848 0.0
C201 C 0.2166 0.1048 0.08372 0.0
C202 C 0.22331 0.06066 0.08546 0.0
H203 H 0.32719 0.05248 0.07417 0.0
O204 O 0.26743 0.97795 0.02715 0.0
O205 O 0.24448 0.97411 0.05768 0.0
O206 O 0.32769 0.93695 0.05232 0.0
O207 O 0.32044 0.97488 0.08025 0.0
C208 C 0.1752 0.1212 0.08697 0.0
C209 C 0.14126 0.0933 0.09172 0.0
H210 H 0.08368 0.02969 0.09983 0.0
H211 H 0.10132 0.95228 0.10113 0.0
H212 H 0.3188 0.13103 0.07107 0.0
H213 H 0.24797 0.16475 0.0769 0.0
H214 H 0.16901 0.15519 0.08568 0.0
H215 H 0.10949 0.10625 0.094 0.0
Mn216 Mn 0.93498 0.73415 0.94809 0.0
Mn217 Mn 0.98796 0.73639 0.90509 0.0
C218 C 0.00758 0.74622 0.9478 0.0
C219 C 0.89572 0.77108 0.97168 0.0
C220 C 0.96341 0.65414 0.92571 0.0
O221 O 0.88715 0.7391 0.92815 0.0
O222 O 0.92506 0.74198 0.90015 0.0
C223 C 0.96932 0.82627 0.8944 0.0
N224 N -0.00174 0.79479 0.89827 0.0
C225 C 0.05722 0.8431 0.89332 0.0
C226 C 0.02804 0.87596 0.88913 0.0
C227 C 0.98391 0.86749 0.88969 0.0
C228 C 0.0408 0.80258 0.89776 0.0
H229 H 0.93536 0.81999 0.89494 0.0
C230 C 0.88948 0.74211 0.90956 0.0
O231 O 0.89235 0.72975 0.97005 0.0
O232 O 0.92052 0.79047 0.95938 0.0
N233 N 0.04881 0.73171 0.90755 0.0
C234 C 0.07265 0.69692 0.91263 0.0
C235 C 0.11744 0.70032 0.91324 0.0
C236 C 0.13724 0.7393 0.9085 0.0
C237 C 0.11206 0.77449 0.90306 0.0
C238 C 0.06758 0.76911 0.90257 0.0
H239 H 0.05761 0.66693 0.91637 0.0
O240 O 0.98861 0.73333 0.96364 0.0
O241 O 0.98305 0.75301 0.93266 0.0
O242 O 0.94485 0.6713 0.94047 0.0
O243 O 0.97971 0.6755 0.91157 0.0
C244 C 0.1293 0.81487 0.89842 0.0
C245 C 0.10191 0.84916 0.89356 0.0
H246 H 0.03916 0.90787 0.88562 0.0
H247 H 0.96119 0.89273 0.88658 0.0
H248 H 0.13666 0.673 0.91744 0.0
H249 H 0.17178 0.74189 0.90916 0.0
H250 H 0.16358 0.82002 0.89872 0.0
H251 H 0.11553 0.88016 0.8902 0.0
Mn252 Mn 0.72993 0.07105 0.04196 0.0
Mn253 Mn 0.73908 0.0154 0.084 0.0
C254 C 0.74647 -0.00074 0.04098 0.0
C255 C 0.76142 0.11275 0.01778 0.0
C256 C 0.65376 0.03635 0.06531 0.0
O257 O 0.73461 0.11805 0.06243 0.0
O258 O 0.74067 0.07816 0.08974 0.0
C259 C 0.82833 0.03982 0.09333 0.0
N260 N 0.79868 0.00893 0.08962 0.0
C261 C 0.85176 0.95345 0.09241 0.0
C262 C 0.88279 0.98465 0.09642 0.0
C263 C 0.87101 0.02802 0.09687 0.0
C264 C 0.80966 0.9671 0.08917 0.0
H265 H 0.81953 0.07322 0.09352 0.0
C266 C 0.73866 0.11442 0.08096 0.0
O267 O 0.72029 0.1141 0.02059 0.0
O268 O 0.78387 0.08901 0.02942 0.0
N269 N 0.73862 0.95459 0.08069 0.0
C270 C 0.7052 0.92863 0.07588 0.0
C271 C 0.71185 0.88431 0.07438 0.0
C272 C 0.75268 0.86715 0.07792 0.0
C273 C 0.78643 0.89445 0.08311 0.0
C274 C 0.7778 0.9383 0.08457 0.0
H275 H 0.67382 0.94167 0.07301 0.0
O276 O 0.73039 0.0182 0.02576 0.0
O277 O 0.75318 0.02329 0.05629 0.0
O278 O 0.66875 0.0575 0.05082 0.0
O279 O 0.67709 0.01966 0.07869 0.0
C280 C 0.82847 0.87995 0.08653 0.0
C281 C 0.86112 0.90943 0.09117 0.0
H282 H 0.91581 0.97571 0.09901 0.0
H283 H 0.89481 0.05231 0.09983 0.0
H284 H 0.68564 0.86346 0.07037 0.0
H285 H 0.75779 0.83301 0.07654 0.0
H286 H 0.83615 0.84623 0.08544 0.0
H287 H 0.8934 0.89794 0.09357 0.0
Mn288 Mn 0.56494 0.72859 0.79687 0.0
Mn289 Mn 0.51268 0.7352 0.83994 0.0
C290 C 0.4927 0.74291 0.79725 0.0
C291 C 0.6044 0.76209 0.77242 0.0
C292 C 0.53477 0.65097 0.82046 0.0
O293 O 0.61329 0.73408 0.81654 0.0
O294 O 0.57579 0.73919 0.8446 0.0
C295 C 0.53432 0.8251 0.84934 0.0
N296 N 0.50434 0.79436 0.84596 0.0
C297 C 0.44705 0.84504 0.85015 0.0
C298 C 0.47731 0.87716 0.85381 0.0
C299 C 0.52114 0.86714 0.85339 0.0
C300 C 0.46208 0.80364 0.84636 0.0
H301 H 0.56805 0.81765 0.84889 0.0
C302 C 0.61125 0.73821 0.8351 0.0
O303 O 0.60685 0.72091 0.77486 0.0
O304 O 0.58052 0.78338 0.78447 0.0
N305 N 0.45168 0.7324 0.83766 0.0
C306 C 0.42667 0.69813 0.83306 0.0
C307 C 0.38202 0.70304 0.83237 0.0
C308 C 0.36356 0.74302 0.83651 0.0
C309 C 0.38992 0.77768 0.84144 0.0
C310 C 0.43419 0.77078 0.84206 0.0
H311 H 0.44069 0.66739 0.82975 0.0
O312 O 0.51089 0.72794 0.78159 0.0
O313 O 0.51775 0.75 0.81217 0.0
O314 O 0.55384 0.66682 0.80556 0.0
O315 O 0.51887 0.67354 0.83431 0.0
C316 C 0.37405 0.81897 0.84543 0.0
C317 C 0.40259 0.85263 0.84977 0.0
H318 H 0.46728 0.90969 0.85681 0.0
H319 H 0.5447 0.89181 0.8561 0.0
H320 H 0.3619 0.67613 0.82856 0.0
H321 H 0.32913 0.74677 0.83579 0.0
H322 H 0.33998 0.8253 0.84501 0.0
H323 H 0.39003 0.88433 0.85263 0.0
Mn324 Mn 0.72911 0.42695 0.20113 0.0
Mn325 Mn 0.73172 0.48346 0.15912 0.0
C326 C 0.74228 0.49939 0.20208 0.0
C327 C 0.76566 0.38602 0.22421 0.0
C328 C 0.64927 0.45847 0.17951 0.0
O329 O 0.73343 0.38059 0.18034 0.0
O330 O 0.73635 0.42099 0.15309 0.0
C331 C 0.82129 0.46432 0.14799 0.0
N332 N 0.79026 0.49341 0.15238 0.0
C333 C 0.83957 0.55192 0.14854 0.0
C334 C 0.87197 0.52261 0.14383 0.0
C335 C 0.86278 0.47862 0.14357 0.0
C336 C 0.79874 0.53581 0.15266 0.0
H337 H 0.81448 0.43046 0.14793 0.0
C338 C 0.73627 0.38458 0.16178 0.0
O339 O 0.72431 0.38297 0.2225 0.0
O340 O 0.78531 0.41109 0.21212 0.0
N341 N 0.72801 0.54411 0.16264 0.0
C342 C 0.69358 0.56806 0.16816 0.0
C343 C 0.69771 0.61268 0.16959 0.0
C344 C 0.73704 0.63222 0.16521 0.0
C345 C 0.77182 0.60697 0.15929 0.0
C346 C 0.76571 0.56268 0.15797 0.0
H347 H 0.66334 0.55321 0.17165 0.0
O348 O 0.7291 0.47938 0.21758 0.0
O349 O 0.74855 0.47599 0.18652 0.0
O350 O 0.66631 0.43824 0.19382 0.0
O351 O 0.67073 0.47566 0.16562 0.0
C352 C 0.81252 0.62392 0.15499 0.0
C353 C 0.84637 0.59642 0.14962 0.0
H354 H 0.9041 0.53348 0.14054 0.0
H355 H 0.88768 0.45578 0.14006 0.0
H356 H 0.6707 0.63195 0.17415 0.0
H357 H 0.7402 0.66661 0.16652 0.0
H358 H 0.81824 0.65804 0.15595 0.0
H359 H 0.87763 0.6098 0.14654 0.0
Mn360 Mn 0.43024 0.26127 0.79577 0.0
Mn361 Mn 0.48307 0.25566 0.83871 0.0
C362 C 0.50264 0.24768 0.796 0.0
C363 C 0.39095 0.22705 0.77144 0.0
C364 C 0.46012 0.33945 0.81909 0.0
O365 O 0.38211 0.2556 0.81556 0.0
O366 O 0.42003 0.25151 0.84353 0.0
C367 C 0.46188 0.16581 0.84842 0.0
N368 N 0.49171 0.19661 0.84486 0.0
C369 C 0.54924 0.14621 0.849 0.0
C370 C 0.51915 0.11402 0.85285 0.0
C371 C 0.47528 0.12388 0.85254 0.0
C372 C 0.534 0.18749 0.84513 0.0
H373 H 0.42812 0.17314 0.84805 0.0
C374 C 0.38444 0.25202 0.83414 0.0
O375 O 0.38808 0.26824 0.7738 0.0
O376 O 0.41509 0.20616 0.78351 0.0
N377 N 0.54403 0.25868 0.83629 0.0
C378 C 0.56886 0.29305 0.83164 0.0
C379 C 0.61352 0.28832 0.83088 0.0
C380 C 0.63218 0.24844 0.83501 0.0
C381 C 0.60601 0.21369 0.84002 0.0
C382 C 0.56171 0.2204 0.8407 0.0
H383 H 0.55468 0.32372 0.82834 0.0
O384 O 0.48413 0.26226 0.78036 0.0
O385 O 0.47782 0.24048 0.81099 0.0
O386 O 0.44085 0.32326 0.80432 0.0
O387 O 0.47652 0.31718 0.83291 0.0
C388 C 0.62208 0.17251 0.84406 0.0
C389 C 0.59372 0.13879 0.84854 0.0
H390 H 0.52934 0.08158 0.85591 0.0
H391 H 0.45185 0.09917 0.85539 0.0
H392 H 0.63351 0.31529 0.82701 0.0
H393 H 0.66662 0.24483 0.83424 0.0
H394 H 0.65618 0.16633 0.84359 0.0
H395 H 0.60644 0.10718 0.85146 0.0
Mn396 Mn 0.26027 0.57025 0.20263 0.0
Mn397 Mn 0.25598 0.51442 0.16042 0.0
C398 C 0.2478 0.49768 0.20343 0.0
C399 C 0.22443 0.61043 0.22624 0.0
C400 C 0.33923 0.5396 0.18003 0.0
O401 O 0.2547 0.61698 0.18207 0.0
O402 O 0.25086 0.57695 0.15472 0.0
C403 C 0.1658 0.53341 0.15035 0.0
N404 N 0.19716 0.50437 0.15426 0.0
C405 C 0.14793 0.44572 0.15063 0.0
C406 C 0.11518 0.47499 0.14641 0.0
C407 C 0.12416 0.51903 0.14629 0.0
C408 C 0.18888 0.46192 0.15441 0.0
H409 H 0.17247 0.5673 0.15039 0.0
C410 C 0.2512 0.61323 0.16352 0.0
O411 O 0.26566 0.61392 0.22415 0.0
O412 O 0.20445 0.58543 0.21423 0.0
N413 N 0.26014 0.45372 0.16358 0.0
C414 C 0.29499 0.42979 0.16852 0.0
C415 C 0.29116 0.38511 0.16972 0.0
C416 C 0.25169 0.3655 0.16569 0.0
C417 C 0.21647 0.39073 0.16034 0.0
C418 C 0.22229 0.43509 0.15922 0.0
H419 H 0.32535 0.44471 0.17173 0.0
O420 O 0.26147 0.51756 0.21888 0.0
O421 O 0.24054 0.52126 0.18803 0.0
O422 O 0.32281 0.5595 0.19461 0.0
O423 O 0.3172 0.52243 0.16633 0.0
C424 C 0.17564 0.37369 0.15638 0.0
C425 C 0.1414 0.40116 0.15154 0.0
H426 H 0.08296 0.46404 0.1434 0.0
H427 H 0.099 0.54183 0.14316 0.0
H428 H 0.3185 0.36585 0.17384 0.0
H429 H 0.24876 0.33106 0.16682 0.0
H430 H 0.17013 0.33952 0.15719 0.0
H431 H 0.11006 0.3877 0.1487 0.0
Mn432 Mn 0.55946 0.75666 0.4529 0.0
Mn433 Mn 0.50611 0.75339 0.41004 0.0
C434 C 0.48707 0.7431 0.45272 0.0
C435 C 0.59888 0.721 0.47676 0.0
C436 C 0.52888 0.83609 0.43068 0.0
O437 O 0.6074 0.75228 0.43291 0.0
O438 O 0.56913 0.74971 0.40501 0.0
C439 C 0.52746 0.66415 0.39923 0.0
N440 N 0.49758 0.69471 0.40318 0.0
C441 C 0.44015 0.64447 0.39848 0.0
C442 C 0.4703 0.61255 0.39422 0.0
C443 C 0.51415 0.62245 0.39462 0.0
C444 C 0.45531 0.68554 0.40283 0.0
H445 H 0.56121 0.67151 0.39966 0.0
C446 C 0.60486 0.74981 0.41429 0.0
O447 O 0.60177 0.7623 0.4749 0.0
O448 O 0.57482 0.70084 0.4644 0.0
N449 N 0.44516 0.75616 0.41259 0.0
C450 C 0.42027 0.79021 0.4177 0.0
C451 C 0.37562 0.78538 0.41844 0.0
C452 C 0.35703 0.74574 0.41382 0.0
C453 C 0.38326 0.71134 0.40834 0.0
C454 C 0.42754 0.71815 0.4077 0.0
H455 H 0.43438 0.8207 0.42137 0.0
O456 O 0.50582 0.75671 0.46848 0.0
O457 O 0.51166 0.73669 0.43756 0.0
O458 O 0.54849 0.81919 0.44519 0.0
O459 O 0.51249 0.81451 0.41662 0.0
C460 C 0.36727 0.67038 0.40381 0.0
C461 C 0.39569 0.63697 0.39889 0.0
H462 H 0.46017 0.58028 0.39078 0.0
H463 H 0.53762 0.59793 0.39145 0.0
H464 H 0.35559 0.81209 0.42267 0.0
H465 H 0.3226 0.74203 0.41459 0.0
H466 H 0.33318 0.66413 0.40424 0.0
H467 H 0.38303 0.60552 0.39561 0.0
Mn468 Mn 0.75951 0.42352 0.5478 0.0
Mn469 Mn 0.75354 0.47803 0.5903 0.0
C470 C 0.74552 0.49578 0.54742 0.0
C471 C 0.72545 0.38321 0.5238 0.0
C472 C 0.83754 0.45521 0.57078 0.0
O473 O 0.75418 0.37619 0.56798 0.0
O474 O 0.75028 0.41517 0.59564 0.0
C475 C 0.66396 0.45597 0.60019 0.0
N476 N 0.69436 0.48608 0.59639 0.0
C477 C 0.64306 0.543 0.59998 0.0
C478 C 0.61129 0.51262 0.60406 0.0
C479 C 0.62179 0.46892 0.60415 0.0
C480 C 0.6846 0.52822 0.59628 0.0
H481 H 0.67178 0.42233 0.60012 0.0
C482 C 0.75091 0.37922 0.58655 0.0
O483 O 0.76666 0.38057 0.52615 0.0
O484 O 0.70445 0.40762 0.53572 0.0
N485 N 0.75572 0.5389 0.58742 0.0
C486 C 0.78979 0.56403 0.58264 0.0
C487 C 0.78443 0.60857 0.58152 0.0
C488 C 0.74423 0.62681 0.58543 0.0
C489 C 0.70981 0.60034 0.59059 0.0
C490 C 0.71715 0.5562 0.59165 0.0
H491 H 0.82071 0.55018 0.57951 0.0
O492 O 0.76019 0.47671 0.53193 0.0
O493 O 0.73842 0.47157 0.56263 0.0
O494 O 0.82149 0.43494 0.55625 0.0
O495 O 0.81513 0.47209 0.58445 0.0
C496 C 0.66835 0.61597 0.59445 0.0
C497 C 0.635 0.58733 0.59913 0.0
H498 H 0.57866 0.52246 0.607 0.0
H499 H 0.5974 0.44526 0.60719 0.0
H500 H 0.81117 0.62879 0.57755 0.0
H501 H 0.74013 0.66114 0.58437 0.0
H502 H 0.66167 0.64994 0.59369 0.0
H503 H 0.60317 0.5997 0.6019 0.0
Mn504 Mn 0.42424 0.22642 0.45432 0.0
Mn505 Mn 0.47946 0.23075 0.41195 0.0
C506 C 0.49686 0.23876 0.45491 0.0
C507 C 0.38419 0.26199 0.47805 0.0
C508 C 0.4537 0.14754 0.43142 0.0
O509 O 0.37735 0.23245 0.4339 0.0
O510 O 0.41686 0.23677 0.40639 0.0
C511 C 0.46163 0.32122 0.40205 0.0
N512 N 0.49027 0.28946 0.4059 0.0
C513 C 0.54958 0.33793 0.40233 0.0
C514 C 0.52073 0.37108 0.39818 0.0
C515 C 0.47656 0.36268 0.39806 0.0
C516 C 0.53284 0.29718 0.40604 0.0
H517 H 0.42764 0.31499 0.40209 0.0
C518 C 0.38075 0.23646 0.41536 0.0
O519 O 0.38074 0.2208 0.47586 0.0
O520 O 0.40928 0.2821 0.46611 0.0
N521 N 0.54014 0.22578 0.41509 0.0
C522 C 0.5636 0.19067 0.42009 0.0
C523 C 0.60834 0.19394 0.42135 0.0
C524 C 0.62847 0.23315 0.41736 0.0
C525 C 0.60369 0.26868 0.41199 0.0
C526 C 0.55926 0.2634 0.4108 0.0
H527 H 0.54829 0.16051 0.4233 0.0
O528 O 0.47722 0.2249 0.4704 0.0
O529 O 0.47301 0.2461 0.43961 0.0
O530 O 0.43448 0.16402 0.44616 0.0
O531 O 0.47072 0.16954 0.41767 0.0
C532 C 0.62127 0.30929 0.4081 0.0
C533 C 0.59424 0.34389 0.40328 0.0
H534 H 0.5321 0.40317 0.39523 0.0
H535 H 0.45408 0.38815 0.39497 0.0
H536 H 0.62724 0.16638 0.4255 0.0
H537 H 0.66295 0.23565 0.41853 0.0
H538 H 0.65551 0.31437 0.40895 0.0
H539 H 0.60811 0.37506 0.4005 0.0
Mn540 Mn 0.22645 0.56227 0.54764 0.0
Mn541 Mn 0.23265 0.50969 0.59063 0.0
C542 C 0.24027 0.48993 0.54789 0.0
C543 C 0.26042 0.6015 0.52321 0.0
C544 C 0.14855 0.53244 0.57118 0.0
O545 O 0.23217 0.61046 0.56741 0.0
O546 O 0.23699 0.57272 0.5954 0.0
C547 C 0.32271 0.53069 0.60006 0.0
N548 N 0.29176 0.50093 0.59665 0.0
C549 C 0.34206 0.44331 0.60079 0.0
C550 C 0.37439 0.47333 0.60449 0.0
C551 C 0.36467 0.51721 0.60411 0.0
C552 C 0.30076 0.45863 0.597 0.0
H553 H 0.31548 0.56445 0.59963 0.0
C554 C 0.23618 0.60825 0.58598 0.0
O555 O 0.21923 0.60431 0.52564 0.0
O556 O 0.28145 0.57751 0.53529 0.0
N557 N 0.22946 0.44876 0.58826 0.0
C558 C 0.19501 0.42401 0.58362 0.0
C559 C 0.19962 0.37935 0.5829 0.0
C560 C 0.23947 0.36061 0.58704 0.0
C561 C 0.27431 0.3867 0.592 0.0
C562 C 0.26771 0.43099 0.59267 0.0
H563 H 0.16436 0.43825 0.58032 0.0
O564 O 0.22548 0.50835 0.53226 0.0
O565 O 0.24751 0.51481 0.56286 0.0
O566 O 0.16449 0.55148 0.55629 0.0
O567 O 0.17106 0.51633 0.58499 0.0
C568 C 0.3155 0.37054 0.596 0.0
C569 C 0.34935 0.39882 0.60038 0.0
H570 H 0.40686 0.46307 0.60749 0.0
H571 H 0.3895 0.54058 0.60685 0.0
H572 H 0.17257 0.35943 0.57905 0.0
H573 H 0.24299 0.32617 0.58627 0.0
H574 H 0.32159 0.33644 0.59554 0.0
H575 H 0.38097 0.38604 0.60323 0.0
H576 H 0.07156 0.32028 0.24655 0.0
H577 H 0.28984 0.42878 0.21823 0.0
H578 H 0.19295 0.26135 0.25953 0.0
H579 H 0.16754 0.46939 0.19587 0.0
H580 H 0.25716 0.36167 0.22934 0.0
H581 H 0.10701 0.3687 0.2238 0.0
C582 C 0.10577 0.31721 0.2443 0.0
C583 C 0.12956 0.28721 0.25494 0.0
C584 C 0.2377 0.38465 0.22149 0.0
C585 C 0.17076 0.34337 0.22937 0.0
C586 C 0.25635 0.42282 0.21515 0.0
C587 C 0.2314 0.45398 0.20579 0.0
C588 C 0.1935 0.37843 0.21903 0.0
C589 C 0.18801 0.44556 0.20256 0.0
C590 C 0.12604 0.34482 0.2313 0.0
C591 C 0.17365 0.28419 0.25152 0.0
N592 N 0.17033 0.40878 0.20936 0.0
N593 N 0.19311 0.31267 0.23929 0.0
H594 H 0.46999 0.82476 0.80505 0.0
H595 H 0.25344 0.80911 0.74298 0.0
H596 H 0.42052 0.70545 0.78305 0.0
H597 H 0.33538 0.9198 0.74644 0.0
H598 H 0.30043 0.77223 0.76668 0.0
H599 H 0.40523 0.86094 0.79357 0.0
C600 C 0.44464 0.80596 0.79848 0.0
C601 C 0.45 0.76207 0.79526 0.0
C602 C 0.30749 0.80488 0.76246 0.0
C603 C 0.37701 0.80334 0.78127 0.0
C604 C 0.28077 0.82583 0.74903 0.0
C605 C 0.29114 0.86714 0.74261 0.0
C606 C 0.34396 0.82598 0.76971 0.0
C607 C 0.32678 0.88761 0.75081 0.0
C608 C 0.40798 0.82663 0.79171 0.0
C609 C 0.41711 0.73935 0.78594 0.0
N610 N 0.35198 0.8668 0.76386 0.0
N611 N 0.38206 0.76032 0.77906 0.0
H612 H 0.82266 0.52611 0.19366 0.0
H613 H 0.80016 0.73965 0.25758 0.0
H614 H 0.70267 0.5688 0.21785 0.0
H615 H 0.91562 0.66553 0.2508 0.0
H616 H 0.76387 0.69112 0.23434 0.0
H617 H 0.85638 0.59219 0.20512 0.0
C618 C 0.80313 0.55022 0.20076 0.0
C619 C 0.75977 0.54266 0.20451 0.0
C620 C 0.79738 0.68615 0.23771 0.0
C621 C 0.79833 0.61716 0.21846 0.0
C622 C 0.818 0.71378 0.25087 0.0
C623 C 0.8606 0.706 0.25621 0.0
C624 C 0.82002 0.65135 0.2297 0.0
C625 C 0.88249 0.67212 0.24723 0.0
C626 C 0.82242 0.58764 0.2075 0.0
C627 C 0.73615 0.57397 0.21451 0.0
N628 N 0.86193 0.64597 0.2345 0.0
N629 N 0.75581 0.60983 0.22131 0.0
H630 H 0.57424 0.28626 0.78189 0.0
H631 H 0.66353 0.06537 0.74766 0.0
H632 H 0.5265 0.16606 0.80359 0.0
H633 H 0.73841 0.18034 0.74151 0.0
H634 H 0.61739 0.10179 0.77107 0.0
H635 H 0.63904 0.24979 0.77028 0.0
C636 C 0.57822 0.25241 0.78478 0.0
C637 C 0.54559 0.22911 0.79397 0.0
C638 C 0.64425 0.11907 0.76492 0.0
C639 C 0.61835 0.187 0.78012 0.0
C640 C 0.67046 0.09832 0.75147 0.0
C641 C 0.70437 0.12016 0.74254 0.0
C642 C 0.65114 0.1625 0.76908 0.0
C643 C 0.71238 0.16258 0.74809 0.0
C644 C 0.61506 0.2316 0.77814 0.0
C645 C 0.55148 0.18523 0.79698 0.0
N646 N 0.68528 0.1828 0.76073 0.0
N647 N 0.58688 0.16546 0.78981 0.0
H648 H 0.28994 0.06885 0.02734 0.0
H649 H 0.06905 0.15662 0.99158 0.0
H650 H 0.16956 0.02054 0.04863 0.0
H651 H 0.18267 0.23434 0.98775 0.0
H652 H 0.10567 0.10916 0.01436 0.0
H653 H 0.25301 0.13273 0.01494 0.0
C654 C 0.25592 0.07248 0.02992 0.0
C655 C 0.23275 0.04005 0.03932 0.0
C656 C 0.12259 0.13688 0.00883 0.0
C657 C 0.19018 0.11172 0.0246 0.0
C658 C 0.10174 0.16385 0.99573 0.0
C659 C 0.12311 0.19909 0.98768 0.0
C660 C 0.16564 0.14442 0.01354 0.0
C661 C 0.16523 0.20735 0.99366 0.0
C662 C 0.23487 0.1088 0.02285 0.0
C663 C 0.18864 0.04543 0.0419 0.0
N664 N 0.18555 0.17961 0.00597 0.0
N665 N 0.16868 0.08032 0.03434 0.0
H666 H 0.24475 0.8029 0.0049 0.0
H667 H 0.03503 0.82597 0.93873 0.0
H668 H 0.17103 0.9182 0.99696 0.0
H669 H 0.07727 0.70575 0.96275 0.0
H670 H 0.10131 0.85931 0.95012 0.0
H671 H 0.19867 0.76682 0.98057 0.0
C672 C 0.2195 0.82074 0.99773 0.0
C673 C 0.21098 0.86319 0.00307 0.0
C674 C 0.09667 0.82535 0.95244 0.0
C675 C 0.15923 0.82292 0.97529 0.0
C676 C 0.05914 0.80627 0.94571 0.0
C677 C 0.05127 0.76303 0.94956 0.0
C678 C 0.12589 0.8012 0.96354 0.0
C679 C 0.08262 0.73918 0.9594 0.0
C680 C 0.19329 0.80026 0.98393 0.0
C681 C 0.17804 0.88514 0.99344 0.0
N682 N 0.11847 0.7587 0.96629 0.0
N683 N 0.15325 0.86472 0.98011 0.0
H684 H 0.81586 0.75828 0.98782 0.0
H685 H 0.82933 0.97836 0.04762 0.0
H686 H 0.92636 0.84066 0.99035 0.0
H687 H 0.71038 0.92695 0.02614 0.0
H688 H 0.8664 0.91427 0.03589 0.0
H689 H 0.77822 0.80734 0.01038 0.0
C690 C 0.83237 0.78618 0.99343 0.0
C691 C 0.87393 0.79592 0.98709 0.0
C692 C 0.83202 0.9165 0.03415 0.0
C693 C 0.83182 0.85124 0.01287 0.0
C694 C 0.81086 0.95279 0.04105 0.0
C695 C 0.76674 0.95727 0.03818 0.0
C696 C 0.80896 0.88494 0.02397 0.0
C697 C 0.74442 0.92416 0.02882 0.0
C698 C 0.81096 0.81411 0.00619 0.0
C699 C 0.89406 0.83241 0.99468 0.0
N700 N 0.76582 0.88936 0.02191 0.0
N701 N 0.8728 0.85877 0.0071 0.0
H702 H 0.81395 0.0758 0.99166 0.0
H703 H 0.9218 0.29354 0.96326 0.0
H704 H 0.75775 0.1973 0.00673 0.0
H705 H 0.96041 0.17153 0.93986 0.0
H706 H 0.85446 0.26144 0.97439 0.0
H707 H 0.85984 0.11136 0.96786 0.0
C708 C 0.81091 0.11007 0.98965 0.0
C709 C 0.78254 0.13387 0.00119 0.0
C710 C 0.877 0.24195 0.96628 0.0
C711 C 0.83585 0.17517 0.97442 0.0
C712 C 0.9153 0.26029 0.95991 0.0
C713 C 0.94609 0.23519 0.95037 0.0
C714 C 0.87029 0.19789 0.96364 0.0
C715 C 0.93693 0.19212 0.94675 0.0
C716 C 0.83705 0.13041 0.97605 0.0
C717 C 0.77942 0.17802 0.99804 0.0
N718 N 0.90007 0.17468 0.95361 0.0
N719 N 0.80657 0.19753 0.98522 0.0
H720 H 0.68509 0.74881 0.75734 0.0
H721 H 0.66853 0.96331 0.69401 0.0
H722 H 0.57225 0.82704 0.75112 0.0
H723 H 0.78758 0.91608 0.71737 0.0
H724 H 0.63296 0.89801 0.70512 0.0
H725 H 0.72248 0.79571 0.73379 0.0
C726 C 0.66802 0.77524 0.75068 0.0
C727 C 0.62591 0.78468 0.75629 0.0
C728 C 0.6671 0.90137 0.70738 0.0
C729 C 0.66771 0.83747 0.72942 0.0
C730 C 0.68745 0.93835 0.70082 0.0
C731 C 0.73107 0.94445 0.70449 0.0
C732 C 0.69039 0.87087 0.71811 0.0
C733 C 0.75389 0.91208 0.71413 0.0
C734 C 0.68927 0.80194 0.73735 0.0
C735 C 0.60501 0.8192 0.74736 0.0
N736 N 0.73319 0.87671 0.72082 0.0
N737 N 0.62616 0.84445 0.73445 0.0
H738 H 0.97096 0.32577 0.30181 0.0
H739 H 0.75468 0.30516 0.23964 0.0
H740 H 0.92493 0.20543 0.27945 0.0
H741 H 0.83244 0.41864 0.24411 0.0
H742 H 0.80347 0.26882 0.26277 0.0
H743 H 0.90553 0.36041 0.29011 0.0
C744 C 0.94625 0.30642 0.29508 0.0
C745 C 0.95269 0.26267 0.2919 0.0
C746 C 0.80924 0.30191 0.25888 0.0
C747 C 0.87891 0.30219 0.27765 0.0
C748 C 0.78148 0.32256 0.24578 0.0
C749 C 0.79012 0.36459 0.23983 0.0
C750 C 0.845 0.32402 0.26627 0.0
C751 C 0.82515 0.38592 0.24812 0.0
C752 C 0.9092 0.3262 0.28819 0.0
C753 C 0.92063 0.23922 0.28235 0.0
N754 N 0.85135 0.3654 0.26085 0.0
N755 N 0.88514 0.25934 0.27538 0.0
H756 H 0.32801 0.02428 0.69348 0.0
H757 H 0.31043 0.23988 0.75608 0.0
H758 H 0.20881 0.07159 0.71666 0.0
H759 H 0.42346 0.16167 0.75048 0.0
H760 H 0.27348 0.19251 0.73258 0.0
H761 H 0.3634 0.08989 0.70441 0.0
C762 C 0.30903 0.04931 0.7002 0.0
C763 C 0.26542 0.04312 0.7039 0.0
C764 C 0.30663 0.18638 0.73626 0.0
C765 C 0.30585 0.1171 0.71728 0.0
C766 C 0.32763 0.21334 0.74957 0.0
C767 C 0.36966 0.20405 0.75535 0.0
C768 C 0.32836 0.15074 0.72852 0.0
C769 C 0.39074 0.16939 0.7466 0.0
C770 C 0.32926 0.08647 0.70665 0.0
C771 C 0.24249 0.07563 0.71341 0.0
N772 N 0.36983 0.14389 0.73371 0.0
N773 N 0.26306 0.11118 0.71997 0.0
H774 H 0.0641 0.79278 0.28155 0.0
H775 H 0.16286 0.57442 0.24824 0.0
H776 H 0.02089 0.67086 0.30321 0.0
H777 H 0.23105 0.69295 0.24029 0.0
H778 H 0.11534 0.60953 0.27149 0.0
H779 H 0.13003 0.75872 0.26975 0.0
C780 C 0.0693 0.75907 0.28438 0.0
C781 C 0.03763 0.73461 0.29365 0.0
C782 C 0.14102 0.62793 0.26497 0.0
C783 C 0.11176 0.69518 0.27958 0.0
C784 C 0.16805 0.6079 0.25163 0.0
C785 C 0.20049 0.63105 0.24225 0.0
C786 C 0.14556 0.6719 0.26859 0.0
C787 C 0.20623 0.67415 0.24725 0.0
C788 C 0.10679 0.73963 0.27763 0.0
C789 C 0.04509 0.69094 0.29656 0.0
N790 N 0.17834 0.69356 0.25981 0.0
N791 N 0.08114 0.67249 0.28931 0.0
H792 H 0.78447 0.56685 0.53303 0.0
H793 H 0.56485 0.65575 0.49718 0.0
H794 H 0.66373 0.51993 0.55454 0.0
H795 H 0.67948 0.73169 0.49244 0.0
H796 H 0.60063 0.60942 0.52071 0.0
H797 H 0.74833 0.63141 0.52096 0.0
C798 C 0.75055 0.57097 0.53577 0.0
C799 C 0.72702 0.53865 0.54506 0.0
C800 C 0.61796 0.63654 0.51483 0.0
C801 C 0.68531 0.61111 0.53068 0.0
C802 C 0.59759 0.66284 0.50131 0.0
C803 C 0.61952 0.69715 0.49276 0.0
C804 C 0.66112 0.64375 0.51945 0.0
C805 C 0.66165 0.70536 0.49872 0.0
C806 C 0.72995 0.60767 0.52888 0.0
C807 C 0.68307 0.54468 0.54786 0.0
N808 N 0.68153 0.67818 0.51143 0.0
N809 N 0.6635 0.57993 0.54044 0.0
H810 H 0.6661 0.41867 0.5004 0.0
H811 H 0.56673 0.19841 0.46983 0.0
H812 H 0.73208 0.29986 0.51105 0.0
H813 H 0.52335 0.31949 0.44723 0.0
H814 H 0.63265 0.23294 0.48131 0.0
H815 H 0.61915 0.38239 0.47729 0.0
C816 C 0.67097 0.38488 0.4976 0.0
C817 C 0.70255 0.362 0.50769 0.0
C818 C 0.60936 0.25172 0.47331 0.0
C819 C 0.64821 0.31981 0.48162 0.0
C820 C 0.57187 0.23202 0.46675 0.0
C821 C 0.54022 0.25611 0.45727 0.0
C822 C 0.61434 0.29608 0.47093 0.0
C823 C 0.54758 0.29967 0.45403 0.0
C824 C 0.64425 0.36415 0.48436 0.0
C825 C 0.70793 0.31845 0.5035 0.0
N826 N 0.58365 0.31838 0.46106 0.0
N827 N 0.6803 0.29842 0.49105 0.0
H828 H 0.32182 0.4661 0.55572 0.0
H829 H 0.30358 0.24981 0.49355 0.0
H830 H 0.20199 0.41836 0.5335 0.0
H831 H 0.41638 0.3285 0.49834 0.0
H832 H 0.26677 0.29776 0.51689 0.0
H833 H 0.35717 0.4008 0.54436 0.0
C834 C 0.30272 0.44103 0.54912 0.0
C835 C 0.25892 0.44701 0.54584 0.0
C836 C 0.29983 0.3039 0.51304 0.0
C837 C 0.29929 0.37338 0.53194 0.0
C838 C 0.32075 0.27663 0.49981 0.0
C839 C 0.3627 0.2858 0.49387 0.0
C840 C 0.32157 0.33975 0.52055 0.0
C841 C 0.38373 0.32082 0.50233 0.0
C842 C 0.32292 0.40406 0.54241 0.0
C843 C 0.23582 0.41447 0.53645 0.0
N844 N 0.36292 0.34658 0.51516 0.0
N845 N 0.25636 0.37909 0.52963 0.0
H846 H 0.46179 0.66237 0.44406 0.0
H847 H 0.24786 0.68203 0.50782 0.0
H848 H 0.41628 0.78196 0.46754 0.0
H849 H 0.32515 0.56844 0.50201 0.0
H850 H 0.29499 0.71846 0.48405 0.0
H851 H 0.3961 0.62764 0.45537 0.0
C852 C 0.43712 0.68159 0.45093 0.0
C853 C 0.44386 0.72511 0.45461 0.0
C854 C 0.30096 0.6853 0.48775 0.0
C855 C 0.36981 0.68543 0.4684 0.0
C856 C 0.27413 0.6646 0.50121 0.0
C857 C 0.28324 0.62255 0.507 0.0
C858 C 0.33627 0.66326 0.47986 0.0
C859 C 0.31757 0.60117 0.49812 0.0
C860 C 0.39992 0.66173 0.45759 0.0
C861 C 0.4118 0.74835 0.4643 0.0
N862 N 0.34293 0.62179 0.48507 0.0
N863 N 0.37622 0.72813 0.47106 0.0
H864 H 0.29751 0.23932 0.42842 0.0
H865 H 0.19518 0.23941 0.3207 0.0
H866 H 0.37258 0.24144 0.37525 0.0
H867 H 0.12023 0.24356 0.37387 0.0
H868 H 0.26036 0.24134 0.34041 0.0
H869 H 0.2324 0.24216 0.40869 0.0
C870 C 0.30043 0.2405 0.41261 0.0
C871 C 0.34084 0.23995 0.40354 0.0
C872 C 0.22966 0.24194 0.34777 0.0
C873 C 0.26597 0.2431 0.38079 0.0
C874 C 0.1923 0.24082 0.33651 0.0
C875 C 0.15189 0.24114 0.34558 0.0
C876 C 0.22683 0.2433 0.36831 0.0
C877 C 0.1505 0.24313 0.36617 0.0
C878 C 0.26311 0.24213 0.40134 0.0
C879 C 0.34229 0.24168 0.38295 0.0
N880 N 0.18734 0.24398 0.3768 0.0
N881 N 0.30548 0.24301 0.37231 0.0
H882 H 0.2376 0.69062 0.57185 0.0
H883 H 0.24215 0.79947 0.6782 0.0
H884 H 0.2422 0.61892 0.62593 0.0
H885 H 0.24337 0.87115 0.62408 0.0
H886 H 0.24331 0.73316 0.65931 0.0
H887 H 0.2408 0.75691 0.59071 0.0
C888 C 0.23937 0.68869 0.58768 0.0
C889 C 0.23946 0.64887 0.59727 0.0
C890 C 0.24344 0.76338 0.65156 0.0
C891 C 0.24307 0.7251 0.61902 0.0
C892 C 0.24276 0.80139 0.66235 0.0
C893 C 0.24249 0.84121 0.65277 0.0
C894 C 0.24374 0.76496 0.63098 0.0
C895 C 0.24344 0.84136 0.63216 0.0
C896 C 0.24122 0.72669 0.59846 0.0
C897 C 0.24193 0.64871 0.61785 0.0
N898 N 0.24387 0.8039 0.62199 0.0
N899 N 0.2435 0.68616 0.628 0.0
H900 H 0.68764 0.74811 0.42802 0.0
H901 H 0.79405 0.753 0.32112 0.0
H902 H 0.61477 0.74693 0.37422 0.0
H903 H 0.86718 0.74926 0.37481 0.0
H904 H 0.72824 0.74954 0.34032 0.0
H905 H 0.75358 0.74724 0.40882 0.0
C906 C 0.68538 0.74756 0.41218 0.0
C907 C 0.64532 0.74776 0.40278 0.0
C908 C 0.75868 0.74938 0.34792 0.0
C909 C 0.72116 0.74685 0.38063 0.0
C910 C 0.7964 0.75137 0.33694 0.0
C911 C 0.83649 0.7516 0.3463 0.0
C912 C 0.76078 0.74768 0.36847 0.0
C913 C 0.83717 0.74928 0.36689 0.0
C914 C 0.72318 0.74706 0.40121 0.0
C915 C 0.64474 0.74692 0.38217 0.0
N916 N 0.79997 0.74756 0.37725 0.0
N917 N 0.682 0.74664 0.37183 0.0
H918 H 0.74714 0.11387 0.62383 0.0
H919 H 0.74644 0.37033 0.62663 0.0
H920 H 0.7522 0.18762 0.67734 0.0
H921 H 0.74965 0.29625 0.57318 0.0
H922 H 0.74472 0.30386 0.64545 0.0
H923 H 0.74419 0.18037 0.60513 0.0
C924 C 0.74753 0.14397 0.63169 0.0
C925 C 0.75013 0.14492 0.65226 0.0
C926 C 0.74572 0.30216 0.6296 0.0
C927 C 0.74675 0.2215 0.6308 0.0
C928 C 0.74668 0.34017 0.61881 0.0
C929 C 0.74839 0.3391 0.59823 0.0
C930 C 0.74641 0.26263 0.6198 0.0
C931 C 0.7485 0.29886 0.589 0.0
C932 C 0.74587 0.18202 0.62097 0.0
C933 C 0.75038 0.18512 0.66154 0.0
N934 N 0.74762 0.26235 0.59983 0.0
N935 N 0.74881 0.2217 0.65076 0.0
H936 H 0.11768 0.24911 0.86987 0.0
H937 H 0.37415 0.24515 0.87406 0.0
H938 H 0.19037 0.24877 0.92373 0.0
H939 H 0.30185 0.25198 0.82018 0.0
H940 H 0.30707 0.24271 0.8924 0.0
H941 H 0.18464 0.24637 0.8514 0.0
C942 C 0.14763 0.24833 0.87785 0.0
C943 C 0.14817 0.2494 0.89845 0.0
C944 C 0.30588 0.24465 0.87656 0.0
C945 C 0.22521 0.24627 0.87729 0.0
C946 C 0.34425 0.24604 0.86604 0.0
C947 C 0.34388 0.24899 0.84549 0.0
C948 C 0.26665 0.24619 0.86651 0.0
C949 C 0.30392 0.24986 0.83599 0.0
C950 C 0.18592 0.24679 0.86726 0.0
C951 C 0.18816 0.24818 0.90789 0.0
N952 N 0.26702 0.24858 0.84657 0.0
N953 N 0.22496 0.24679 0.89725 0.0
H954 H 0.24614 0.62001 0.1234 0.0
H955 H 0.24833 0.87654 0.12276 0.0
H956 H 0.25013 0.69706 0.17594 0.0
H957 H 0.25412 0.79914 0.07035 0.0
H958 H 0.24483 0.81132 0.14241 0.0
H959 H 0.24478 0.68531 0.10379 0.0
C960 C 0.24659 0.65059 0.13087 0.0
C961 C 0.24845 0.6528 0.15143 0.0
C962 C 0.24679 0.80861 0.12661 0.0
C963 C 0.24693 0.72804 0.12892 0.0
C964 C 0.24877 0.84591 0.11533 0.0
C965 C 0.25173 0.84356 0.09479 0.0
C966 C 0.24767 0.76846 0.11735 0.0
C967 C 0.25203 0.80274 0.08611 0.0
C968 C 0.24586 0.68795 0.11961 0.0
C969 C 0.24885 0.69358 0.16017 0.0
N970 N 0.25011 0.76693 0.09741 0.0
N971 N 0.24819 0.72947 0.14888 0.0
H972 H 0.87871 0.74532 0.86953 0.0
H973 H 0.62229 0.74574 0.87496 0.0
H974 H 0.80722 0.7451 0.92374 0.0
H975 H 0.69352 0.7385 0.82078 0.0
H976 H 0.68974 0.74929 0.89297 0.0
H977 H 0.81129 0.74672 0.85139 0.0
C978 C 0.84893 0.74572 0.87766 0.0
C979 C 0.84886 0.74488 0.89825 0.0
C980 C 0.69061 0.747 0.87714 0.0
C981 C 0.77131 0.74645 0.87747 0.0
C982 C 0.65203 0.74497 0.86681 0.0
C983 C 0.652 0.7416 0.84627 0.0
C984 C 0.72964 0.74571 0.86691 0.0
C985 C 0.69176 0.74091 0.83659 0.0
C986 C 0.81038 0.74647 0.86725 0.0
C987 C 0.80906 0.74554 0.90789 0.0
N988 N 0.72886 0.74285 0.84698 0.0
N989 N 0.77202 0.74619 0.89744 0.0
H990 H 0.74505 0.12146 0.12104 0.0
H991 H 0.73972 0.37798 0.12159 0.0
H992 H 0.73672 0.19821 0.06854 0.0
H993 H 0.73895 0.30079 0.1741 0.0
H994 H 0.74207 0.31269 0.10193 0.0
H995 H 0.74629 0.18686 0.1406 0.0
C996 C 0.74356 0.15199 0.11357 0.0
C997 C 0.74061 0.15409 0.09303 0.0
C998 C 0.74145 0.31004 0.11775 0.0
C999 C 0.74206 0.22945 0.1155 0.0
C1000 C 0.74014 0.34738 0.12903 0.0
C1001 C 0.73897 0.34511 0.14961 0.0
C1002 C 0.7417 0.26992 0.12704 0.0
C1003 C 0.73968 0.30433 0.15831 0.0
C1004 C 0.74424 0.18941 0.1248 0.0
C1005 C 0.73889 0.19481 0.0843 0.0
N1006 N 0.74094 0.26847 0.14701 0.0
N1007 N 0.73959 0.23076 0.09556 0.0
H1008 H 0.96992 0.89319 0.3509 0.0
H1009 H 0.03815 0.09557 0.28706 0.0
H1010 H 0.95278 0.89888 0.28816 0.0
H1011 H 0.0124 0.10294 0.34917 0.0
H1012 H 0.01543 0.0206 0.28739 0.0
H1013 H 0.99202 0.96814 0.35071 0.0
C1014 C 0.97035 0.91034 0.33711 0.0
C1015 C 0.95935 0.88976 0.31952 0.0
C1016 C 0.01494 0.03867 0.30093 0.0
C1017 C 0.98552 0.97528 0.31917 0.0
C1018 C 0.02833 0.0813 0.30081 0.0
C1019 C 0.02721 0.10559 0.31812 0.0
C1020 C 0.00084 0.02009 0.31852 0.0
C1021 C 0.01369 0.0855 0.33547 0.0
C1022 C 0.98307 0.95308 0.33701 0.0
C1023 C 0.96061 0.91357 0.30208 0.0
N1024 N 0.0011 0.04393 0.33523 0.0
N1025 N 0.97391 0.95499 0.30231 0.0
H1026 H 0.89171 0.01232 0.64759 0.0
H1027 H 0.0982 0.95483 0.71086 0.0
H1028 H 0.89799 0.03169 0.71019 0.0
H1029 H 0.10341 0.97977 0.64864 0.0
H1030 H 0.02234 0.97439 0.71075 0.0
H1031 H 0.9676 0.99349 0.64757 0.0
C1032 C 0.90914 0.01298 0.66131 0.0
C1033 C 0.88848 0.0237 0.67892 0.0
C1034 C 0.04014 0.97544 0.69713 0.0
C1035 C 0.97512 0.00139 0.67902 0.0
C1036 C 0.08331 0.96388 0.69714 0.0
C1037 C 0.10722 0.96563 0.67972 0.0
C1038 C 0.02063 0.98829 0.67956 0.0
C1039 C 0.08628 0.97805 0.66242 0.0
C1040 C 0.95243 0.00218 0.66128 0.0
C1041 C 0.91269 0.02398 0.69626 0.0
N1042 N 0.04418 0.98882 0.66277 0.0
N1043 N 0.95467 0.01257 0.69591 0.0
H1044 H 0.03873 0.39722 0.95765 0.0
H1045 H 0.9796 0.60323 0.89406 0.0
H1046 H 0.01619 0.39327 0.89522 0.0
H1047 H 0.96397 0.59869 0.95691 0.0
H1048 H -0.00086 0.52769 0.89424 0.0
H1049 H 0.0194 0.47321 0.95766 0.0
C1050 C 0.03035 0.41243 0.94391 0.0
C1051 C 0.02909 0.38883 0.9264 0.0
C1052 C 0.99113 0.5431 0.90798 0.0
C1053 C 0.00657 0.47545 0.92638 0.0
C1054 C 0.97988 0.58623 0.90789 0.0
C1055 C 0.97002 0.60731 0.92549 0.0
C1056 C 0.99317 0.5209 0.92583 0.0
C1057 C 0.97097 0.58362 0.94298 0.0
C1058 C 0.01889 0.45565 0.94397 0.0
C1059 C 0.01749 0.41013 0.90908 0.0
N1060 N 0.98274 0.54171 0.94273 0.0
N1061 N 0.00672 0.45218 0.90951 0.0
H1062 H 0.39246 0.9784 0.09869 0.0
H1063 H 0.59651 0.03985 0.03499 0.0
H1064 H 0.40014 0.955 0.0364 0.0
H1065 H 0.60534 0.01162 0.09682 0.0
H1066 H 0.52125 0.01843 0.03561 0.0
H1067 H 0.46817 -0.0015 0.09865 0.0
C1068 C 0.41015 0.97711 0.08504 0.0
C1069 C 0.38997 0.96488 0.06752 0.0
C1070 C 0.53971 0.01706 0.04903 0.0
C1071 C 0.47617 0.98871 0.06734 0.0
C1072 C 0.58252 0.02967 0.04875 0.0
C1073 C 0.60728 0.02757 0.06589 0.0
C1074 C 0.52132 0.00285 0.06663 0.0
C1075 C 0.58749 0.01366 0.08325 0.0
C1076 C 0.45329 0.98861 0.08504 0.0
C1077 C 0.41446 0.96387 0.05027 0.0
N1078 N 0.54561 0.00196 0.0832 0.0
N1079 N 0.45618 0.97608 0.05057 0.0
H1080 H 0.4562 0.39605 0.78848 0.0
H1081 H 0.51455 0.60147 0.85225 0.0
H1082 H 0.48156 0.38923 0.85064 0.0
H1083 H 0.53604 0.59442 0.7898 0.0
H1084 H 0.49461 0.52582 0.85219 0.0
H1085 H 0.4758 0.47179 0.78899 0.0
C1086 C 0.46532 0.41056 0.80228 0.0
C1087 C 0.46725 0.38622 0.81955 0.0
C1088 C 0.50399 0.54081 0.83854 0.0
C1089 C 0.48996 0.47272 0.82016 0.0
C1090 C 0.51544 0.58394 0.83855 0.0
C1091 C 0.52713 0.6043 0.821 0.0
C1092 C 0.50351 0.51805 0.82081 0.0
C1093 C 0.5276 0.57998 0.80369 0.0
C1094 C 0.4769 0.45367 0.80251 0.0
C1095 C 0.47974 0.40672 0.83697 0.0
N1096 N 0.51556 0.53822 0.804 0.0
N1097 N 0.49055 0.4488 0.83683 0.0
H1098 H 0.59431 0.45632 0.21091 0.0
H1099 H 0.38908 0.52219 0.14818 0.0
H1100 H 0.59812 0.47976 0.14856 0.0
H1101 H 0.39538 0.53832 0.21096 0.0
H1102 H 0.4641 0.50058 0.14808 0.0
H1103 H 0.51897 0.4783 0.21123 0.0
C1104 C 0.57917 0.46544 0.19725 0.0
C1105 C 0.60255 0.46617 0.17967 0.0
C1106 C 0.44921 0.50918 0.16186 0.0
C1107 C 0.51673 0.49172 0.18 0.0
C1108 C 0.4064 0.52163 0.16193 0.0
C1109 C 0.38596 0.53221 0.1796 0.0
C1110 C 0.47171 0.50661 0.17963 0.0
C1111 C 0.41 0.53082 0.19699 0.0
C1112 C 0.53635 0.47843 0.19749 0.0
C1113 C 0.58141 0.4788 0.16246 0.0
N1114 N 0.45156 0.51782 0.19659 0.0
N1115 N 0.53974 0.49103 0.16306 0.0
H1116 H 0.4706 0.09775 0.39944 0.0
H1117 H 0.53202 0.89125 0.46195 0.0
H1118 H 0.45346 0.09103 0.46216 0.0
H1119 H 0.50689 0.88712 0.39972 0.0
H1120 H 0.51138 0.96684 0.46221 0.0
H1121 H 0.4902 0.02214 0.39919 0.0
C1122 C 0.47055 0.08025 0.41314 0.0
C1123 C 0.46027 0.10072 0.43085 0.0
C1124 C 0.51054 0.94933 0.44851 0.0
C1125 C 0.48351 0.01435 0.43069 0.0
C1126 C 0.52274 0.90633 0.4483 0.0
C1127 C 0.52124 0.8828 0.43077 0.0
C1128 C 0.49728 0.96903 0.43104 0.0
C1129 C 0.50846 0.90395 0.41358 0.0
C1130 C 0.48181 0.03712 0.41298 0.0
C1131 C 0.46079 0.07644 0.44816 0.0
N1132 N 0.49705 0.94585 0.41414 0.0
N1133 N 0.47266 0.03458 0.44768 0.0
H1134 H 0.89402 0.45074 0.54011 0.0
H1135 H 0.09903 0.5139 0.60315 0.0
H1136 H 0.88722 0.47875 0.60203 0.0
H1137 H 0.09198 0.53241 0.54051 0.0
H1138 H 0.02346 0.49365 0.6033 0.0
H1139 H 0.96952 0.47144 0.54031 0.0
C1140 C 0.9085 0.46068 0.5538 0.0
C1141 C 0.88423 0.463 0.57109 0.0
C1142 C 0.03841 0.50247 0.58956 0.0
C1143 C 0.97044 0.48697 0.57134 0.0
C1144 C 0.0815 0.51409 0.58945 0.0
C1145 C 0.10184 0.52499 0.57179 0.0
C1146 C 0.01566 0.50099 0.57184 0.0
C1147 C 0.07753 0.5246 0.55448 0.0
C1148 C 0.95146 0.47289 0.55384 0.0
C1149 C 0.90465 0.47657 0.58835 0.0
N1150 N 0.0358 0.51236 0.55491 0.0
N1151 N 0.94659 0.48797 0.58805 0.0
loop_
_geom_bond_atom_site_label_1
_geom_bond_atom_site_label_2
_geom_bond_distance
_geom_bond_site_symmetry_2
_ccdc_geom_bond_type
Mn0 O5 2.095 . S
Mn0 O15 2.162 . S
Mn0 O16 2.297 . S
Mn0 O24 2.385 . S
Mn0 O25 2.209 . S
Mn0 O26 2.094 . S
Mn1 O6 2.121 . S
Mn1 N8 2.257 1_455 S
Mn1 N17 2.282 1_455 S
Mn1 O25 2.215 . S
Mn1 O27 2.117 . S
C2 O24 1.234 . S
C2 O25 1.283 . S
C3 O15 1.281 . S
C3 O16 1.236 . S
C4 O26 1.240 . S
C4 O27 1.264 . S
O5 Mn0 2.095 . S
O5 C14 1.250 . S
O6 Mn1 2.121 . S
O6 C14 1.258 . S
C7 N8 1.326 1_455 S
C7 C11 1.460 1_455 S
C7 H13 0.929 . S
N8 Mn1 2.257 1_655 S
N8 C7 1.326 1_655 S
N8 C12 1.362 . S
C9 C10 1.258 . S
C9 C12 1.431 . S
C9 C29 1.449 . S
C10 C9 1.258 . S
C10 C11 1.477 . S
C10 H30 0.931 . S
C11 C7 1.460 1_655 S
C11 C10 1.477 . S
C11 H31 0.930 . S
C12 N8 1.362 . S
C12 C9 1.431 . S
C12 C22 1.476 . S
H13 C7 0.929 . S
C14 O5 1.250 . S
C14 O6 1.258 . S
O15 Mn0 2.162 . S
O15 C3 1.281 . S
O16 Mn0 2.297 . S
O16 C3 1.236 . S
N17 Mn1 2.282 1_655 S
N17 C18 1.328 . S
N17 C22 1.318 . S
C18 N17 1.328 . S
C18 C19 1.457 . S
C18 H23 0.929 . S
C19 C18 1.457 . S
C19 C20 1.291 . S
C19 H32 0.931 . S
C20 C19 1.291 . S
C20 C21 1.373 . S
C20 H33 0.929 . S
C21 C20 1.373 . S
C21 C22 1.396 . S
C21 C28 1.403 . S
C22 C12 1.476 . S
C22 N17 1.318 . S
C22 C21 1.396 . S
H23 C18 0.929 . S
O24 Mn0 2.385 . S
O24 C2 1.234 . S
O25 Mn0 2.209 . S
O25 Mn1 2.215 . S
O25 C2 1.283 . S
O26 Mn0 2.094 . S
O26 C4 1.240 . S
O27 Mn1 2.117 . S
O27 C4 1.264 . S
C28 C21 1.403 . S
C28 C29 1.399 . S
C28 H34 0.929 . S
C29 C9 1.449 . S
C29 C28 1.399 . S
C29 H35 0.930 . S
H30 C10 0.931 . S
H31 C11 0.930 . S
H32 C19 0.931 . S
H33 C20 0.929 . S
H34 C28 0.929 . S
H35 C29 0.930 . S
Mn36 O41 2.095 . S
Mn36 O51 2.162 . S
Mn36 O52 2.297 . S
Mn36 O60 2.385 . S
Mn36 O61 2.209 . S
Mn36 O62 2.094 . S
Mn37 O42 2.121 . S
Mn37 N44 2.257 1_565 S
Mn37 N53 2.282 1_565 S
Mn37 O61 2.215 . S
Mn37 O63 2.117 . S
C38 O60 1.234 . S
C38 O61 1.283 . S
C39 O51 1.281 . S
C39 O52 1.236 . S
C40 O62 1.240 . S
C40 O63 1.264 . S
O41 Mn36 2.095 . S
O41 C50 1.250 . S
O42 Mn37 2.121 . S
O42 C50 1.258 . S
C43 N44 1.326 1_565 S
C43 C47 1.460 1_565 S
C43 H49 0.929 . S
N44 Mn37 2.257 1_545 S
N44 C43 1.326 1_545 S
N44 C48 1.362 . S
C45 C46 1.258 . S
C45 C48 1.431 . S
C45 C65 1.449 . S
C46 C45 1.258 . S
C46 C47 1.477 . S
C46 H66 0.931 . S
C47 C43 1.460 1_545 S
C47 C46 1.477 . S
C47 H67 0.930 . S
C48 N44 1.362 . S
C48 C45 1.431 . S
C48 C58 1.476 . S
H49 C43 0.929 . S
C50 O41 1.250 . S
C50 O42 1.258 . S
O51 Mn36 2.162 . S
O51 C39 1.281 . S
O52 Mn36 2.297 . S
O52 C39 1.236 . S
N53 Mn37 2.282 1_545 S
N53 C54 1.328 . S
N53 C58 1.318 . S
C54 N53 1.328 . S
C54 C55 1.457 . S
C54 H59 0.929 . S
C55 C54 1.457 . S
C55 C56 1.291 . S
C55 H68 0.931 . S
C56 C55 1.291 . S
C56 C57 1.373 . S
C56 H69 0.929 . S
C57 C56 1.373 . S
C57 C58 1.396 . S
C57 C64 1.403 . S
C58 C48 1.476 . S
C58 N53 1.318 . S
C58 C57 1.396 . S
H59 C54 0.929 . S
O60 Mn36 2.385 . S
O60 C38 1.234 . S
O61 Mn36 2.209 . S
O61 Mn37 2.215 . S
O61 C38 1.283 . S
O62 Mn36 2.094 . S
O62 C40 1.240 . S
O63 Mn37 2.117 . S
O63 C40 1.264 . S
C64 C57 1.403 . S
C64 C65 1.399 . S
C64 H70 0.929 . S
C65 C45 1.449 . S
C65 C64 1.399 . S
C65 H71 0.930 . S
H66 C46 0.931 . S
H67 C47 0.930 . S
H68 C55 0.931 . S
H69 C56 0.929 . S
H70 C64 0.929 . S
H71 C65 0.930 . S
Mn72 O77 2.095 . S
Mn72 O87 2.162 . S
Mn72 O88 2.297 . S
Mn72 O96 2.385 . S
Mn72 O97 2.209 . S
Mn72 O98 2.094 . S
Mn73 O78 2.121 . S
Mn73 N80 2.257 1_655 S
Mn73 N89 2.282 1_655 S
Mn73 O97 2.215 . S
Mn73 O99 2.117 . S
C74 O96 1.234 . S
C74 O97 1.283 . S
C75 O87 1.281 . S
C75 O88 1.236 . S
C76 O98 1.240 . S
C76 O99 1.264 . S
O77 Mn72 2.095 . S
O77 C86 1.250 . S
O78 Mn73 2.121 . S
O78 C86 1.258 . S
C79 N80 1.326 1_655 S
C79 C83 1.460 1_655 S
C79 H85 0.929 . S
N80 Mn73 2.257 1_455 S
N80 C79 1.326 1_455 S
N80 C84 1.362 . S
C81 C82 1.258 . S
C81 C84 1.431 . S
C81 C101 1.449 . S
C82 C81 1.258 . S
C82 C83 1.477 . S
C82 H102 0.931 . S
C83 C79 1.460 1_455 S
C83 C82 1.477 . S
C83 H103 0.930 . S
C84 N80 1.362 . S
C84 C81 1.431 . S
C84 C94 1.476 . S
H85 C79 0.929 . S
C86 O77 1.250 . S
C86 O78 1.258 . S
O87 Mn72 2.162 . S
O87 C75 1.281 . S
O88 Mn72 2.297 . S
O88 C75 1.236 . S
N89 Mn73 2.282 1_455 S
N89 C90 1.328 . S
N89 C94 1.318 . S
C90 N89 1.328 . S
C90 C91 1.457 . S
C90 H95 0.929 . S
C91 C90 1.457 . S
C91 C92 1.291 . S
C91 H104 0.931 . S
C92 C91 1.291 . S
C92 C93 1.373 . S
C92 H105 0.929 . S
C93 C92 1.373 . S
C93 C94 1.396 . S
C93 C100 1.403 . S
C94 C84 1.476 . S
C94 N89 1.318 . S
C94 C93 1.396 . S
H95 C90 0.929 . S
O96 Mn72 2.385 . S
O96 C74 1.234 . S
O97 Mn72 2.209 . S
O97 Mn73 2.215 . S
O97 C74 1.283 . S
O98 Mn72 2.094 . S
O98 C76 1.240 . S
O99 Mn73 2.117 . S
O99 C76 1.264 . S
C100 C93 1.403 . S
C100 C101 1.399 . S
C100 H106 0.929 . S
C101 C81 1.449 . S
C101 C100 1.399 . S
C101 H107 0.930 . S
H102 C82 0.931 . S
H103 C83 0.930 . S
H104 C91 0.931 . S
H105 C92 0.929 . S
H106 C100 0.929 . S
H107 C101 0.930 . S
Mn108 O113 2.095 . S
Mn108 O123 2.162 . S
Mn108 O124 2.297 . S
Mn108 O132 2.385 . S
Mn108 O133 2.209 . S
Mn108 O134 2.094 . S
Mn109 O114 2.121 . S
Mn109 N116 2.257 1_545 S
Mn109 N125 2.282 1_545 S
Mn109 O133 2.215 . S
Mn109 O135 2.117 . S
C110 O132 1.234 . S
C110 O133 1.283 . S
C111 O123 1.281 . S
C111 O124 1.236 . S
C112 O134 1.240 . S
C112 O135 1.264 . S
O113 Mn108 2.095 . S
O113 C122 1.250 . S
O114 Mn109 2.121 . S
O114 C122 1.258 . S
C115 N116 1.326 1_545 S
C115 C119 1.460 1_545 S
C115 H121 0.929 . S
N116 Mn109 2.257 1_565 S
N116 C115 1.326 1_565 S
N116 C120 1.362 . S
C117 C118 1.258 . S
C117 C120 1.431 . S
C117 C137 1.449 . S
C118 C117 1.258 . S
C118 C119 1.477 . S
C118 H138 0.931 . S
C119 C115 1.460 1_565 S
C119 C118 1.477 . S
C119 H139 0.930 . S
C120 N116 1.362 . S
C120 C117 1.431 . S
C120 C130 1.476 . S
H121 C115 0.929 . S
C122 O113 1.250 . S
C122 O114 1.258 . S
O123 Mn108 2.162 . S
O123 C111 1.281 . S
O124 Mn108 2.297 . S
O124 C111 1.236 . S
N125 Mn109 2.282 1_565 S
N125 C126 1.328 . S
N125 C130 1.318 . S
C126 N125 1.328 . S
C126 C127 1.457 . S
C126 H131 0.929 . S
C127 C126 1.457 . S
C127 C128 1.291 . S
C127 H140 0.931 . S
C128 C127 1.291 . S
C128 C129 1.373 . S
C128 H141 0.929 . S
C129 C128 1.373 . S
C129 C130 1.396 . S
C129 C136 1.403 . S
C130 C120 1.476 . S
C130 N125 1.318 . S
C130 C129 1.396 . S
H131 C126 0.929 . S
O132 Mn108 2.385 . S
O132 C110 1.234 . S
O133 Mn108 2.209 . S
O133 Mn109 2.215 . S
O133 C110 1.283 . S
O134 Mn108 2.094 . S
O134 C112 1.240 . S
O135 Mn109 2.117 . S
O135 C112 1.264 . S
C136 C129 1.403 . S
C136 C137 1.399 . S
C136 H142 0.929 . S
C137 C117 1.449 . S
C137 C136 1.399 . S
C137 H143 0.930 . S
H138 C118 0.931 . S
H139 C119 0.930 . S
H140 C127 0.931 . S
H141 C128 0.929 . S
H142 C136 0.929 . S
H143 C137 0.930 . S
Mn144 O149 2.095 . S
Mn144 O159 2.162 . S
Mn144 O160 2.297 . S
Mn144 O168 2.385 . S
Mn144 O169 2.209 . S
Mn144 O170 2.094 . S
Mn145 O150 2.121 . S
Mn145 N152 2.257 1_455 S
Mn145 N161 2.282 1_455 S
Mn145 O169 2.215 . S
Mn145 O171 2.117 . S
C146 O168 1.234 . S
C146 O169 1.283 . S
C147 O159 1.281 . S
C147 O160 1.236 . S
C148 O170 1.240 . S
C148 O171 1.264 . S
O149 Mn144 2.095 . S
O149 C158 1.250 . S
O150 Mn145 2.121 . S
O150 C158 1.258 . S
C151 N152 1.326 1_455 S
C151 C155 1.460 1_455 S
C151 H157 0.929 . S
N152 Mn145 2.257 1_655 S
N152 C151 1.326 1_655 S
N152 C156 1.362 . S
C153 C154 1.258 . S
C153 C156 1.431 . S
C153 C173 1.449 . S
C154 C153 1.258 . S
C154 C155 1.477 . S
C154 H174 0.931 . S
C155 C151 1.460 1_655 S
C155 C154 1.477 . S
C155 H175 0.930 . S
C156 N152 1.362 . S
C156 C153 1.431 . S
C156 C166 1.476 . S
H157 C151 0.929 . S
C158 O149 1.250 . S
C158 O150 1.258 . S
O159 Mn144 2.162 . S
O159 C147 1.281 . S
O160 Mn144 2.297 . S
O160 C147 1.236 . S
N161 Mn145 2.282 1_655 S
N161 C162 1.328 . S
N161 C166 1.318 . S
C162 N161 1.328 . S
C162 C163 1.457 . S
C162 H167 0.929 . S
C163 C162 1.457 . S
C163 C164 1.291 . S
C163 H176 0.931 . S
C164 C163 1.291 . S
C164 C165 1.373 . S
C164 H177 0.929 . S
C165 C164 1.373 . S
C165 C166 1.396 . S
C165 C172 1.403 . S
C166 C156 1.476 . S
C166 N161 1.318 . S
C166 C165 1.396 . S
H167 C162 0.929 . S
O168 Mn144 2.385 . S
O168 C146 1.234 . S
O169 Mn144 2.209 . S
O169 Mn145 2.215 . S
O169 C146 1.283 . S
O170 Mn144 2.094 . S
O170 C148 1.240 . S
O171 Mn145 2.117 . S
O171 C148 1.264 . S
C172 C165 1.403 . S
C172 C173 1.399 . S
C172 H178 0.929 . S
C173 C153 1.449 . S
C173 C172 1.399 . S
C173 H179 0.930 . S
H174 C154 0.931 . S
H175 C155 0.930 . S
H176 C163 0.931 . S
H177 C164 0.929 . S
H178 C172 0.929 . S
H179 C173 0.930 . S
Mn180 O185 2.095 . S
Mn180 O195 2.162 . S
Mn180 O196 2.297 . S
Mn180 O204 2.385 . S
Mn180 O205 2.209 . S
Mn180 O206 2.094 . S
Mn181 O186 2.121 . S
Mn181 N188 2.257 1_565 S
Mn181 N197 2.282 1_565 S
Mn181 O205 2.215 . S
Mn181 O207 2.117 . S
C182 O204 1.234 . S
C182 O205 1.283 . S
C183 O195 1.281 . S
C183 O196 1.236 . S
C184 O206 1.240 . S
C184 O207 1.264 . S
O185 Mn180 2.095 . S
O185 C194 1.250 . S
O186 Mn181 2.121 . S
O186 C194 1.258 . S
C187 N188 1.326 1_565 S
C187 C191 1.460 1_565 S
C187 H193 0.929 . S
N188 Mn181 2.257 1_545 S
N188 C187 1.326 1_545 S
N188 C192 1.362 . S
C189 C190 1.258 . S
C189 C192 1.431 . S
C189 C209 1.449 . S
C190 C189 1.258 . S
C190 C191 1.477 . S
C190 H210 0.931 . S
C191 C187 1.460 1_545 S
C191 C190 1.477 . S
C191 H211 0.930 . S
C192 N188 1.362 . S
C192 C189 1.431 . S
C192 C202 1.476 . S
H193 C187 0.929 . S
C194 O185 1.250 . S
C194 O186 1.258 . S
O195 Mn180 2.162 . S
O195 C183 1.281 . S
O196 Mn180 2.297 . S
O196 C183 1.236 . S
N197 Mn181 2.282 1_545 S
N197 C198 1.328 . S
N197 C202 1.318 . S
C198 N197 1.328 . S
C198 C199 1.457 . S
C198 H203 0.929 . S
C199 C198 1.457 . S
C199 C200 1.291 . S
C199 H212 0.931 . S
C200 C199 1.291 . S
C200 C201 1.373 . S
C200 H213 0.929 . S
C201 C200 1.373 . S
C201 C202 1.396 . S
C201 C208 1.403 . S
C202 C192 1.476 . S
C202 N197 1.318 . S
C202 C201 1.396 . S
H203 C198 0.929 . S
O204 Mn180 2.385 . S
O204 C182 1.234 . S
O205 Mn180 2.209 . S
O205 Mn181 2.215 . S
O205 C182 1.283 . S
O206 Mn180 2.094 . S
O206 C184 1.240 . S
O207 Mn181 2.117 . S
O207 C184 1.264 . S
C208 C201 1.403 . S
C208 C209 1.399 . S
C208 H214 0.929 . S
C209 C189 1.449 . S
C209 C208 1.399 . S
C209 H215 0.930 . S
H210 C190 0.931 . S
H211 C191 0.930 . S
H212 C199 0.931 . S
H213 C200 0.929 . S
H214 C208 0.929 . S
H215 C209 0.930 . S
Mn216 O221 2.095 . S
Mn216 O231 2.162 . S
Mn216 O232 2.297 . S
Mn216 O240 2.385 . S
Mn216 O241 2.209 . S
Mn216 O242 2.094 . S
Mn217 O222 2.121 . S
Mn217 N224 2.257 1_655 S
Mn217 N233 2.282 1_655 S
Mn217 O241 2.215 . S
Mn217 O243 2.117 . S
C218 O240 1.234 . S
C218 O241 1.283 . S
C219 O231 1.281 . S
C219 O232 1.236 . S
C220 O242 1.240 . S
C220 O243 1.264 . S
O221 Mn216 2.095 . S
O221 C230 1.250 . S
O222 Mn217 2.121 . S
O222 C230 1.258 . S
C223 N224 1.326 1_655 S
C223 C227 1.460 1_655 S
C223 H229 0.929 . S
N224 Mn217 2.257 1_455 S
N224 C223 1.326 1_455 S
N224 C228 1.362 . S
C225 C226 1.258 . S
C225 C228 1.431 . S
C225 C245 1.449 . S
C226 C225 1.258 . S
C226 C227 1.477 . S
C226 H246 0.931 . S
C227 C223 1.460 1_455 S
C227 C226 1.477 . S
C227 H247 0.930 . S
C228 N224 1.362 . S
C228 C225 1.431 . S
C228 C238 1.476 . S
H229 C223 0.929 . S
C230 O221 1.250 . S
C230 O222 1.258 . S
O231 Mn216 2.162 . S
O231 C219 1.281 . S
O232 Mn216 2.297 . S
O232 C219 1.236 . S
N233 Mn217 2.282 1_455 S
N233 C234 1.328 . S
N233 C238 1.318 . S
C234 N233 1.328 . S
C234 C235 1.457 . S
C234 H239 0.929 . S
C235 C234 1.457 . S
C235 C236 1.291 . S
C235 H248 0.931 . S
C236 C235 1.291 . S
C236 C237 1.373 . S
C236 H249 0.929 . S
C237 C236 1.373 . S
C237 C238 1.396 . S
C237 C244 1.403 . S
C238 C228 1.476 . S
C238 N233 1.318 . S
C238 C237 1.396 . S
H239 C234 0.929 . S
O240 Mn216 2.385 . S
O240 C218 1.234 . S
O241 Mn216 2.209 . S
O241 Mn217 2.215 . S
O241 C218 1.283 . S
O242 Mn216 2.094 . S
O242 C220 1.240 . S
O243 Mn217 2.117 . S
O243 C220 1.264 . S
C244 C237 1.403 . S
C244 C245 1.399 . S
C244 H250 0.929 . S
C245 C225 1.449 . S
C245 C244 1.399 . S
C245 H251 0.930 . S
H246 C226 0.931 . S
H247 C227 0.930 . S
H248 C235 0.931 . S
H249 C236 0.929 . S
H250 C244 0.929 . S
H251 C245 0.930 . S
Mn252 O257 2.095 . S
Mn252 O267 2.162 . S
Mn252 O268 2.297 . S
Mn252 O276 2.385 . S
Mn252 O277 2.209 . S
Mn252 O278 2.094 . S
Mn253 O258 2.121 . S
Mn253 N260 2.257 1_545 S
Mn253 N269 2.282 1_545 S
Mn253 O277 2.215 . S
Mn253 O279 2.117 . S
C254 O276 1.234 . S
C254 O277 1.283 . S
C255 O267 1.281 . S
C255 O268 1.236 . S
C256 O278 1.240 . S
C256 O279 1.264 . S
O257 Mn252 2.095 . S
O257 C266 1.250 . S
O258 Mn253 2.121 . S
O258 C266 1.258 . S
C259 N260 1.326 1_545 S
C259 C263 1.460 1_545 S
C259 H265 0.929 . S
N260 Mn253 2.257 1_565 S
N260 C259 1.326 1_565 S
N260 C264 1.362 . S
C261 C262 1.258 . S
C261 C264 1.431 . S
C261 C281 1.449 . S
C262 C261 1.258 . S
C262 C263 1.477 . S
C262 H282 0.931 . S
C263 C259 1.460 1_565 S
C263 C262 1.477 . S
C263 H283 0.930 . S
C264 N260 1.362 . S
C264 C261 1.431 . S
C264 C274 1.476 . S
H265 C259 0.929 . S
C266 O257 1.250 . S
C266 O258 1.258 . S
O267 Mn252 2.162 . S
O267 C255 1.281 . S
O268 Mn252 2.297 . S
O268 C255 1.236 . S
N269 Mn253 2.282 1_565 S
N269 C270 1.328 . S
N269 C274 1.318 . S
C270 N269 1.328 . S
C270 C271 1.457 . S
C270 H275 0.929 . S
C271 C270 1.457 . S
C271 C272 1.291 . S
C271 H284 0.931 . S
C272 C271 1.291 . S
C272 C273 1.373 . S
C272 H285 0.929 . S
C273 C272 1.373 . S
C273 C274 1.396 . S
C273 C280 1.403 . S
C274 C264 1.476 . S
C274 N269 1.318 . S
C274 C273 1.396 . S
H275 C270 0.929 . S
O276 Mn252 2.385 . S
O276 C254 1.234 . S
O277 Mn252 2.209 . S
O277 Mn253 2.215 . S
O277 C254 1.283 . S
O278 Mn252 2.094 . S
O278 C256 1.240 . S
O279 Mn253 2.117 . S
O279 C256 1.264 . S
C280 C273 1.403 . S
C280 C281 1.399 . S
C280 H286 0.929 . S
C281 C261 1.449 . S
C281 C280 1.399 . S
C281 H287 0.930 . S
H282 C262 0.931 . S
H283 C263 0.930 . S
H284 C271 0.931 . S
H285 C272 0.929 . S
H286 C280 0.929 . S
H287 C281 0.930 . S
Mn288 O293 2.095 . S
Mn288 O303 2.162 . S
Mn288 O304 2.297 . S
Mn288 O312 2.385 . S
Mn288 O313 2.209 . S
Mn288 O314 2.094 . S
Mn289 O294 2.121 . S
Mn289 N296 2.257 . S
Mn289 N305 2.282 . S
Mn289 O313 2.215 . S
Mn289 O315 2.117 . S
C290 O312 1.234 . S
C290 O313 1.283 . S
C291 O303 1.281 . S
C291 O304 1.236 . S
C292 O314 1.240 . S
C292 O315 1.264 . S
O293 Mn288 2.095 . S
O293 C302 1.250 . S
O294 Mn289 2.121 . S
O294 C302 1.258 . S
C295 N296 1.326 . S
C295 C299 1.460 . S
C295 H301 0.929 . S
N296 Mn289 2.257 . S
N296 C295 1.326 . S
N296 C300 1.362 . S
C297 C298 1.258 . S
C297 C300 1.431 . S
C297 C317 1.449 . S
C298 C297 1.258 . S
C298 C299 1.477 . S
C298 H318 0.931 . S
C299 C295 1.460 . S
C299 C298 1.477 . S
C299 H319 0.930 . S
C300 N296 1.362 . S
C300 C297 1.431 . S
C300 C310 1.476 . S
H301 C295 0.929 . S
C302 O293 1.250 . S
C302 O294 1.258 . S
O303 Mn288 2.162 . S
O303 C291 1.281 . S
O304 Mn288 2.297 . S
O304 C291 1.236 . S
N305 Mn289 2.282 . S
N305 C306 1.328 . S
N305 C310 1.318 . S
C306 N305 1.328 . S
C306 C307 1.457 . S
C306 H311 0.929 . S
C307 C306 1.457 . S
C307 C308 1.291 . S
C307 H320 0.931 . S
C308 C307 1.291 . S
C308 C309 1.373 . S
C308 H321 0.929 . S
C309 C308 1.373 . S
C309 C310 1.396 . S
C309 C316 1.403 . S
C310 C300 1.476 . S
C310 N305 1.318 . S
C310 C309 1.396 . S
H311 C306 0.929 . S
O312 Mn288 2.385 . S
O312 C290 1.234 . S
O313 Mn288 2.209 . S
O313 Mn289 2.215 . S
O313 C290 1.283 . S
O314 Mn288 2.094 . S
O314 C292 1.240 . S
O315 Mn289 2.117 . S
O315 C292 1.264 . S
C316 C309 1.403 . S
C316 C317 1.399 . S
C316 H322 0.929 . S
C317 C297 1.449 . S
C317 C316 1.399 . S
C317 H323 0.930 . S
H318 C298 0.931 . S
H319 C299 0.930 . S
H320 C307 0.931 . S
H321 C308 0.929 . S
H322 C316 0.929 . S
H323 C317 0.930 . S
Mn324 O329 2.095 . S
Mn324 O339 2.162 . S
Mn324 O340 2.297 . S
Mn324 O348 2.385 . S
Mn324 O349 2.209 . S
Mn324 O350 2.094 . S
Mn325 O330 2.121 . S
Mn325 N332 2.257 . S
Mn325 N341 2.282 . S
Mn325 O349 2.215 . S
Mn325 O351 2.117 . S
C326 O348 1.234 . S
C326 O349 1.283 . S
C327 O339 1.281 . S
C327 O340 1.236 . S
C328 O350 1.240 . S
C328 O351 1.264 . S
O329 Mn324 2.095 . S
O329 C338 1.250 . S
O330 Mn325 2.121 . S
O330 C338 1.258 . S
C331 N332 1.326 . S
C331 C335 1.460 . S
C331 H337 0.929 . S
N332 Mn325 2.257 . S
N332 C331 1.326 . S
N332 C336 1.362 . S
C333 C334 1.258 . S
C333 C336 1.431 . S
C333 C353 1.449 . S
C334 C333 1.258 . S
C334 C335 1.477 . S
C334 H354 0.931 . S
C335 C331 1.460 . S
C335 C334 1.477 . S
C335 H355 0.930 . S
C336 N332 1.362 . S
C336 C333 1.431 . S
C336 C346 1.476 . S
H337 C331 0.929 . S
C338 O329 1.250 . S
C338 O330 1.258 . S
O339 Mn324 2.162 . S
O339 C327 1.281 . S
O340 Mn324 2.297 . S
O340 C327 1.236 . S
N341 Mn325 2.282 . S
N341 C342 1.328 . S
N341 C346 1.318 . S
C342 N341 1.328 . S
C342 C343 1.457 . S
C342 H347 0.929 . S
C343 C342 1.457 . S
C343 C344 1.291 . S
C343 H356 0.931 . S
C344 C343 1.291 . S
C344 C345 1.373 . S
C344 H357 0.929 . S
C345 C344 1.373 . S
C345 C346 1.396 . S
C345 C352 1.403 . S
C346 C336 1.476 . S
C346 N341 1.318 . S
C346 C345 1.396 . S
H347 C342 0.929 . S
O348 Mn324 2.385 . S
O348 C326 1.234 . S
O349 Mn324 2.209 . S
O349 Mn325 2.215 . S
O349 C326 1.283 . S
O350 Mn324 2.094 . S
O350 C328 1.240 . S
O351 Mn325 2.117 . S
O351 C328 1.264 . S
C352 C345 1.403 . S
C352 C353 1.399 . S
C352 H358 0.929 . S
C353 C333 1.449 . S
C353 C352 1.399 . S
C353 H359 0.930 . S
H354 C334 0.931 . S
H355 C335 0.930 . S
H356 C343 0.931 . S
H357 C344 0.929 . S
H358 C352 0.929 . S
H359 C353 0.930 . S
Mn360 O365 2.095 . S
Mn360 O375 2.162 . S
Mn360 O376 2.297 . S
Mn360 O384 2.385 . S
Mn360 O385 2.209 . S
Mn360 O386 2.094 . S
Mn361 O366 2.121 . S
Mn361 N368 2.257 . S
Mn361 N377 2.282 . S
Mn361 O385 2.215 . S
Mn361 O387 2.117 . S
C362 O384 1.234 . S
C362 O385 1.283 . S
C363 O375 1.281 . S
C363 O376 1.236 . S
C364 O386 1.240 . S
C364 O387 1.264 . S
O365 Mn360 2.095 . S
O365 C374 1.250 . S
O366 Mn361 2.121 . S
O366 C374 1.258 . S
C367 N368 1.326 . S
C367 C371 1.460 . S
C367 H373 0.929 . S
N368 Mn361 2.257 . S
N368 C367 1.326 . S
N368 C372 1.362 . S
C369 C370 1.258 . S
C369 C372 1.431 . S
C369 C389 1.449 . S
C370 C369 1.258 . S
C370 C371 1.477 . S
C370 H390 0.931 . S
C371 C367 1.460 . S
C371 C370 1.477 . S
C371 H391 0.930 . S
C372 N368 1.362 . S
C372 C369 1.431 . S
C372 C382 1.476 . S
H373 C367 0.929 . S
C374 O365 1.250 . S
C374 O366 1.258 . S
O375 Mn360 2.162 . S
O375 C363 1.281 . S
O376 Mn360 2.297 . S
O376 C363 1.236 . S
N377 Mn361 2.282 . S
N377 C378 1.328 . S
N377 C382 1.318 . S
C378 N377 1.328 . S
C378 C379 1.457 . S
C378 H383 0.929 . S
C379 C378 1.457 . S
C379 C380 1.291 . S
C379 H392 0.931 . S
C380 C379 1.291 . S
C380 C381 1.373 . S
C380 H393 0.929 . S
C381 C380 1.373 . S
C381 C382 1.396 . S
C381 C388 1.403 . S
C382 C372 1.476 . S
C382 N377 1.318 . S
C382 C381 1.396 . S
H383 C378 0.929 . S
O384 Mn360 2.385 . S
O384 C362 1.234 . S
O385 Mn360 2.209 . S
O385 Mn361 2.215 . S
O385 C362 1.283 . S
O386 Mn360 2.094 . S
O386 C364 1.240 . S
O387 Mn361 2.117 . S
O387 C364 1.264 . S
C388 C381 1.403 . S
C388 C389 1.399 . S
C388 H394 0.929 . S
C389 C369 1.449 . S
C389 C388 1.399 . S
C389 H395 0.930 . S
H390 C370 0.931 . S
H391 C371 0.930 . S
H392 C379 0.931 . S
H393 C380 0.929 . S
H394 C388 0.929 . S
H395 C389 0.930 . S
Mn396 O401 2.095 . S
Mn396 O411 2.162 . S
Mn396 O412 2.297 . S
Mn396 O420 2.385 . S
Mn396 O421 2.209 . S
Mn396 O422 2.094 . S
Mn397 O402 2.121 . S
Mn397 N404 2.257 . S
Mn397 N413 2.282 . S
Mn397 O421 2.215 . S
Mn397 O423 2.117 . S
C398 O420 1.234 . S
C398 O421 1.283 . S
C399 O411 1.281 . S
C399 O412 1.236 . S
C400 O422 1.240 . S
C400 O423 1.264 . S
O401 Mn396 2.095 . S
O401 C410 1.250 . S
O402 Mn397 2.121 . S
O402 C410 1.258 . S
C403 N404 1.326 . S
C403 C407 1.460 . S
C403 H409 0.929 . S
N404 Mn397 2.257 . S
N404 C403 1.326 . S
N404 C408 1.362 . S
C405 C406 1.258 . S
C405 C408 1.431 . S
C405 C425 1.449 . S
C406 C405 1.258 . S
C406 C407 1.477 . S
C406 H426 0.931 . S
C407 C403 1.460 . S
C407 C406 1.477 . S
C407 H427 0.930 . S
C408 N404 1.362 . S
C408 C405 1.431 . S
C408 C418 1.476 . S
H409 C403 0.929 . S
C410 O401 1.250 . S
C410 O402 1.258 . S
O411 Mn396 2.162 . S
O411 C399 1.281 . S
O412 Mn396 2.297 . S
O412 C399 1.236 . S
N413 Mn397 2.282 . S
N413 C414 1.328 . S
N413 C418 1.318 . S
C414 N413 1.328 . S
C414 C415 1.457 . S
C414 H419 0.929 . S
C415 C414 1.457 . S
C415 C416 1.291 . S
C415 H428 0.931 . S
C416 C415 1.291 . S
C416 C417 1.373 . S
C416 H429 0.929 . S
C417 C416 1.373 . S
C417 C418 1.396 . S
C417 C424 1.403 . S
C418 C408 1.476 . S
C418 N413 1.318 . S
C418 C417 1.396 . S
H419 C414 0.929 . S
O420 Mn396 2.385 . S
O420 C398 1.234 . S
O421 Mn396 2.209 . S
O421 Mn397 2.215 . S
O421 C398 1.283 . S
O422 Mn396 2.094 . S
O422 C400 1.240 . S
O423 Mn397 2.117 . S
O423 C400 1.264 . S
C424 C417 1.403 . S
C424 C425 1.399 . S
C424 H430 0.929 . S
C425 C405 1.449 . S
C425 C424 1.399 . S
C425 H431 0.930 . S
H426 C406 0.931 . S
H427 C407 0.930 . S
H428 C415 0.931 . S
H429 C416 0.929 . S
H430 C424 0.929 . S
H431 C425 0.930 . S
Mn432 O437 2.095 . S
Mn432 O447 2.162 . S
Mn432 O448 2.297 . S
Mn432 O456 2.385 . S
Mn432 O457 2.209 . S
Mn432 O458 2.094 . S
Mn433 O438 2.121 . S
Mn433 N440 2.257 . S
Mn433 N449 2.282 . S
Mn433 O457 2.215 . S
Mn433 O459 2.117 . S
C434 O456 1.234 . S
C434 O457 1.283 . S
C435 O447 1.281 . S
C435 O448 1.236 . S
C436 O458 1.240 . S
C436 O459 1.264 . S
O437 Mn432 2.095 . S
O437 C446 1.250 . S
O438 Mn433 2.121 . S
O438 C446 1.258 . S
C439 N440 1.326 . S
C439 C443 1.460 . S
C439 H445 0.929 . S
N440 Mn433 2.257 . S
N440 C439 1.326 . S
N440 C444 1.362 . S
C441 C442 1.258 . S
C441 C444 1.431 . S
C441 C461 1.449 . S
C442 C441 1.258 . S
C442 C443 1.477 . S
C442 H462 0.931 . S
C443 C439 1.460 . S
C443 C442 1.477 . S
C443 H463 0.930 . S
C444 N440 1.362 . S
C444 C441 1.431 . S
C444 C454 1.476 . S
H445 C439 0.929 . S
C446 O437 1.250 . S
C446 O438 1.258 . S
O447 Mn432 2.162 . S
O447 C435 1.281 . S
O448 Mn432 2.297 . S
O448 C435 1.236 . S
N449 Mn433 2.282 . S
N449 C450 1.328 . S
N449 C454 1.318 . S
C450 N449 1.328 . S
C450 C451 1.457 . S
C450 H455 0.929 . S
C451 C450 1.457 . S
C451 C452 1.291 . S
C451 H464 0.931 . S
C452 C451 1.291 . S
C452 C453 1.373 . S
C452 H465 0.929 . S
C453 C452 1.373 . S
C453 C454 1.396 . S
C453 C460 1.403 . S
C454 C444 1.476 . S
C454 N449 1.318 . S
C454 C453 1.396 . S
H455 C450 0.929 . S
O456 Mn432 2.385 . S
O456 C434 1.234 . S
O457 Mn432 2.209 . S
O457 Mn433 2.215 . S
O457 C434 1.283 . S
O458 Mn432 2.094 . S
O458 C436 1.240 . S
O459 Mn433 2.117 . S
O459 C436 1.264 . S
C460 C453 1.403 . S
C460 C461 1.399 . S
C460 H466 0.929 . S
C461 C441 1.449 . S
C461 C460 1.399 . S
C461 H467 0.930 . S
H462 C442 0.931 . S
H463 C443 0.930 . S
H464 C451 0.931 . S
H465 C452 0.929 . S
H466 C460 0.929 . S
H467 C461 0.930 . S
Mn468 O473 2.095 . S
Mn468 O483 2.162 . S
Mn468 O484 2.297 . S
Mn468 O492 2.385 . S
Mn468 O493 2.209 . S
Mn468 O494 2.094 . S
Mn469 O474 2.121 . S
Mn469 N476 2.257 . S
Mn469 N485 2.282 . S
Mn469 O493 2.215 . S
Mn469 O495 2.117 . S
C470 O492 1.234 . S
C470 O493 1.283 . S
C471 O483 1.281 . S
C471 O484 1.236 . S
C472 O494 1.240 . S
C472 O495 1.264 . S
O473 Mn468 2.095 . S
O473 C482 1.250 . S
O474 Mn469 2.121 . S
O474 C482 1.258 . S
C475 N476 1.326 . S
C475 C479 1.460 . S
C475 H481 0.929 . S
N476 Mn469 2.257 . S
N476 C475 1.326 . S
N476 C480 1.362 . S
C477 C478 1.258 . S
C477 C480 1.431 . S
C477 C497 1.449 . S
C478 C477 1.258 . S
C478 C479 1.477 . S
C478 H498 0.931 . S
C479 C475 1.460 . S
C479 C478 1.477 . S
C479 H499 0.930 . S
C480 N476 1.362 . S
C480 C477 1.431 . S
C480 C490 1.476 . S
H481 C475 0.929 . S
C482 O473 1.250 . S
C482 O474 1.258 . S
O483 Mn468 2.162 . S
O483 C471 1.281 . S
O484 Mn468 2.297 . S
O484 C471 1.236 . S
N485 Mn469 2.282 . S
N485 C486 1.328 . S
N485 C490 1.318 . S
C486 N485 1.328 . S
C486 C487 1.457 . S
C486 H491 0.929 . S
C487 C486 1.457 . S
C487 C488 1.291 . S
C487 H500 0.931 . S
C488 C487 1.291 . S
C488 C489 1.373 . S
C488 H501 0.929 . S
C489 C488 1.373 . S
C489 C490 1.396 . S
C489 C496 1.403 . S
C490 C480 1.476 . S
C490 N485 1.318 . S
C490 C489 1.396 . S
H491 C486 0.929 . S
O492 Mn468 2.385 . S
O492 C470 1.234 . S
O493 Mn468 2.209 . S
O493 Mn469 2.215 . S
O493 C470 1.283 . S
O494 Mn468 2.094 . S
O494 C472 1.240 . S
O495 Mn469 2.117 . S
O495 C472 1.264 . S
C496 C489 1.403 . S
C496 C497 1.399 . S
C496 H502 0.929 . S
C497 C477 1.449 . S
C497 C496 1.399 . S
C497 H503 0.930 . S
H498 C478 0.931 . S
H499 C479 0.930 . S
H500 C487 0.931 . S
H501 C488 0.929 . S
H502 C496 0.929 . S
H503 C497 0.930 . S
Mn504 O509 2.095 . S
Mn504 O519 2.162 . S
Mn504 O520 2.297 . S
Mn504 O528 2.385 . S
Mn504 O529 2.209 . S
Mn504 O530 2.094 . S
Mn505 O510 2.121 . S
Mn505 N512 2.257 . S
Mn505 N521 2.282 . S
Mn505 O529 2.215 . S
Mn505 O531 2.117 . S
C506 O528 1.234 . S
C506 O529 1.283 . S
C507 O519 1.281 . S
C507 O520 1.236 . S
C508 O530 1.240 . S
C508 O531 1.264 . S
O509 Mn504 2.095 . S
O509 C518 1.250 . S
O510 Mn505 2.121 . S
O510 C518 1.258 . S
C511 N512 1.326 . S
C511 C515 1.460 . S
C511 H517 0.929 . S
N512 Mn505 2.257 . S
N512 C511 1.326 . S
N512 C516 1.362 . S
C513 C514 1.258 . S
C513 C516 1.431 . S
C513 C533 1.449 . S
C514 C513 1.258 . S
C514 C515 1.477 . S
C514 H534 0.931 . S
C515 C511 1.460 . S
C515 C514 1.477 . S
C515 H535 0.930 . S
C516 N512 1.362 . S
C516 C513 1.431 . S
C516 C526 1.476 . S
H517 C511 0.929 . S
C518 O509 1.250 . S
C518 O510 1.258 . S
O519 Mn504 2.162 . S
O519 C507 1.281 . S
O520 Mn504 2.297 . S
O520 C507 1.236 . S
N521 Mn505 2.282 . S
N521 C522 1.328 . S
N521 C526 1.318 . S
C522 N521 1.328 . S
C522 C523 1.457 . S
C522 H527 0.929 . S
C523 C522 1.457 . S
C523 C524 1.291 . S
C523 H536 0.931 . S
C524 C523 1.291 . S
C524 C525 1.373 . S
C524 H537 0.929 . S
C525 C524 1.373 . S
C525 C526 1.396 . S
C525 C532 1.403 . S
C526 C516 1.476 . S
C526 N521 1.318 . S
C526 C525 1.396 . S
H527 C522 0.929 . S
O528 Mn504 2.385 . S
O528 C506 1.234 . S
O529 Mn504 2.209 . S
O529 Mn505 2.215 . S
O529 C506 1.283 . S
O530 Mn504 2.094 . S
O530 C508 1.240 . S
O531 Mn505 2.117 . S
O531 C508 1.264 . S
C532 C525 1.403 . S
C532 C533 1.399 . S
C532 H538 0.929 . S
C533 C513 1.449 . S
C533 C532 1.399 . S
C533 H539 0.930 . S
H534 C514 0.931 . S
H535 C515 0.930 . S
H536 C523 0.931 . S
H537 C524 0.929 . S
H538 C532 0.929 . S
H539 C533 0.930 . S
Mn540 O545 2.095 . S
Mn540 O555 2.162 . S
Mn540 O556 2.297 . S
Mn540 O564 2.385 . S
Mn540 O565 2.209 . S
Mn540 O566 2.094 . S
Mn541 O546 2.121 . S
Mn541 N548 2.257 . S
Mn541 N557 2.282 . S
Mn541 O565 2.215 . S
Mn541 O567 2.117 . S
C542 O564 1.234 . S
C542 O565 1.283 . S
C543 O555 1.281 . S
C543 O556 1.236 . S
C544 O566 1.240 . S
C544 O567 1.264 . S
O545 Mn540 2.095 . S
O545 C554 1.250 . S
O546 Mn541 2.121 . S
O546 C554 1.258 . S
C547 N548 1.326 . S
C547 C551 1.460 . S
C547 H553 0.929 . S
N548 Mn541 2.257 . S
N548 C547 1.326 . S
N548 C552 1.362 . S
C549 C550 1.258 . S
C549 C552 1.431 . S
C549 C569 1.449 . S
C550 C549 1.258 . S
C550 C551 1.477 . S
C550 H570 0.931 . S
C551 C547 1.460 . S
C551 C550 1.477 . S
C551 H571 0.930 . S
C552 N548 1.362 . S
C552 C549 1.431 . S
C552 C562 1.476 . S
H553 C547 0.929 . S
C554 O545 1.250 . S
C554 O546 1.258 . S
O555 Mn540 2.162 . S
O555 C543 1.281 . S
O556 Mn540 2.297 . S
O556 C543 1.236 . S
N557 Mn541 2.282 . S
N557 C558 1.328 . S
N557 C562 1.318 . S
C558 N557 1.328 . S
C558 C559 1.457 . S
C558 H563 0.929 . S
C559 C558 1.457 . S
C559 C560 1.291 . S
C559 H572 0.931 . S
C560 C559 1.291 . S
C560 C561 1.373 . S
C560 H573 0.929 . S
C561 C560 1.373 . S
C561 C562 1.396 . S
C561 C568 1.403 . S
C562 C552 1.476 . S
C562 N557 1.318 . S
C562 C561 1.396 . S
H563 C558 0.929 . S
O564 Mn540 2.385 . S
O564 C542 1.234 . S
O565 Mn540 2.209 . S
O565 Mn541 2.215 . S
O565 C542 1.283 . S
O566 Mn540 2.094 . S
O566 C544 1.240 . S
O567 Mn541 2.117 . S
O567 C544 1.264 . S
C568 C561 1.403 . S
C568 C569 1.399 . S
C568 H574 0.929 . S
C569 C549 1.449 . S
C569 C568 1.399 . S
C569 H575 0.930 . S
H570 C550 0.931 . S
H571 C551 0.930 . S
H572 C559 0.931 . S
H573 C560 0.929 . S
H574 C568 0.929 . S
H575 C569 0.930 . S
H576 C582 0.930 . S
H577 C586 0.930 . S
H578 C591 0.929 . S
H579 C589 0.929 . S
H580 C584 0.929 . S
H581 C590 0.929 . S
C582 H576 0.930 . S
C582 C583 1.367 . S
C582 C590 1.378 . S
C583 C582 1.367 . S
C583 C591 1.433 . S
C584 H580 0.929 . S
C584 C586 1.378 . S
C584 C588 1.350 . S
C585 C588 1.463 . S
C585 C590 1.350 . S
C585 N593 1.427 . S
C586 H577 0.930 . S
C586 C584 1.378 . S
C586 C587 1.367 . S
C587 C586 1.367 . S
C587 C589 1.433 . S
C588 C584 1.350 . S
C588 C585 1.463 . S
C588 N592 1.427 . S
C589 H579 0.929 . S
C589 C587 1.433 . S
C589 N592 1.384 . S
C590 H581 0.929 . S
C590 C582 1.378 . S
C590 C585 1.350 . S
C591 H578 0.929 . S
C591 C583 1.433 . S
C591 N593 1.384 . S
N592 C588 1.427 . S
N592 C589 1.384 . S
N593 C585 1.427 . S
N593 C591 1.384 . S
H594 C600 0.930 . S
H595 C604 0.930 . S
H596 C609 0.929 . S
H597 C607 0.929 . S
H598 C602 0.929 . S
H599 C608 0.929 . S
C600 H594 0.930 . S
C600 C601 1.367 . S
C600 C608 1.378 . S
C601 C600 1.367 . S
C601 C609 1.433 . S
C602 H598 0.929 . S
C602 C604 1.378 . S
C602 C606 1.350 . S
C603 C606 1.463 . S
C603 C608 1.350 . S
C603 N611 1.427 . S
C604 H595 0.930 . S
C604 C602 1.378 . S
C604 C605 1.367 . S
C605 C604 1.367 . S
C605 C607 1.433 . S
C606 C602 1.350 . S
C606 C603 1.463 . S
C606 N610 1.427 . S
C607 H597 0.929 . S
C607 C605 1.433 . S
C607 N610 1.384 . S
C608 H599 0.929 . S
C608 C600 1.378 . S
C608 C603 1.350 . S
C609 H596 0.929 . S
C609 C601 1.433 . S
C609 N611 1.384 . S
N610 C606 1.427 . S
N610 C607 1.384 . S
N611 C603 1.427 . S
N611 C609 1.384 . S
H612 C618 0.930 . S
H613 C622 0.930 . S
H614 C627 0.929 . S
H615 C625 0.929 . S
H616 C620 0.929 . S
H617 C626 0.929 . S
C618 H612 0.930 . S
C618 C619 1.367 . S
C618 C626 1.378 . S
C619 C618 1.367 . S
C619 C627 1.433 . S
C620 H616 0.929 . S
C620 C622 1.378 . S
C620 C624 1.350 . S
C621 C624 1.463 . S
C621 C626 1.350 . S
C621 N629 1.427 . S
C622 H613 0.930 . S
C622 C620 1.378 . S
C622 C623 1.367 . S
C623 C622 1.367 . S
C623 C625 1.433 . S
C624 C620 1.350 . S
C624 C621 1.463 . S
C624 N628 1.427 . S
C625 H615 0.929 . S
C625 C623 1.433 . S
C625 N628 1.384 . S
C626 H617 0.929 . S
C626 C618 1.378 . S
C626 C621 1.350 . S
C627 H614 0.929 . S
C627 C619 1.433 . S
C627 N629 1.384 . S
N628 C624 1.427 . S
N628 C625 1.384 . S
N629 C621 1.427 . S
N629 C627 1.384 . S
H630 C636 0.930 . S
H631 C640 0.930 . S
H632 C645 0.929 . S
H633 C643 0.929 . S
H634 C638 0.929 . S
H635 C644 0.929 . S
C636 H630 0.930 . S
C636 C637 1.367 . S
C636 C644 1.378 . S
C637 C636 1.367 . S
C637 C645 1.433 . S
C638 H634 0.929 . S
C638 C640 1.378 . S
C638 C642 1.350 . S
C639 C642 1.463 . S
C639 C644 1.350 . S
C639 N647 1.427 . S
C640 H631 0.930 . S
C640 C638 1.378 . S
C640 C641 1.367 . S
C641 C640 1.367 . S
C641 C643 1.433 . S
C642 C638 1.350 . S
C642 C639 1.463 . S
C642 N646 1.427 . S
C643 H633 0.929 . S
C643 C641 1.433 . S
C643 N646 1.384 . S
C644 H635 0.929 . S
C644 C636 1.378 . S
C644 C639 1.350 . S
C645 H632 0.929 . S
C645 C637 1.433 . S
C645 N647 1.384 . S
N646 C642 1.427 . S
N646 C643 1.384 . S
N647 C639 1.427 . S
N647 C645 1.384 . S
H648 C654 0.930 . S
H649 C658 0.930 . S
H650 C663 0.929 1_565 S
H651 C661 0.929 . S
H652 C656 0.929 . S
H653 C662 0.929 . S
C654 H648 0.930 . S
C654 C655 1.367 . S
C654 C662 1.378 . S
C655 C654 1.367 . S
C655 C663 1.433 . S
C656 H652 0.929 . S
C656 C658 1.382 . S
C656 C660 1.350 . S
C657 C660 1.463 . S
C657 C662 1.350 . S
C657 N665 1.427 . S
C658 H649 0.930 . S
C658 C656 1.382 . S
C658 C659 1.363 1_554 S
C659 C658 1.363 1_556 S
C659 C661 1.433 . S
C660 C656 1.350 . S
C660 C657 1.463 . S
C660 N664 1.444 . S
C661 H651 0.929 . S
C661 C659 1.433 . S
C661 N664 1.367 1_556 S
C662 H653 0.929 . S
C662 C654 1.378 . S
C662 C657 1.350 . S
C663 H650 0.929 1_545 S
C663 C655 1.433 . S
C663 N665 1.384 . S
N664 C660 1.444 . S
N664 C661 1.367 1_554 S
N665 C657 1.427 . S
N665 C663 1.384 . S
H666 C672 0.930 . S
H667 C676 0.930 . S
H668 C681 0.929 . S
H669 C679 0.944 1_655 S
H670 C674 0.929 . S
H671 C680 0.929 . S
C672 H666 0.930 . S
C672 C673 1.367 . S
C672 C680 1.378 . S
C673 C672 1.367 . S
C673 C681 1.433 1_554 S
C674 H670 0.929 . S
C674 C676 1.378 . S
C674 C678 1.350 . S
C675 C678 1.463 . S
C675 C680 1.350 1_556 S
C675 N683 1.427 . S
C676 H667 0.930 . S
C676 C674 1.378 . S
C676 C677 1.367 . S
C677 C676 1.367 . S
C677 C679 1.433 . S
C678 C674 1.350 . S
C678 C675 1.463 . S
C678 N682 1.427 . S
C679 H669 0.944 1_455 S
C679 C677 1.433 . S
C679 N682 1.384 . S
C680 H671 0.929 . S
C680 C672 1.378 . S
C680 C675 1.350 1_554 S
C681 H668 0.929 . S
C681 C673 1.433 1_556 S
C681 N683 1.384 . S
N682 C678 1.427 . S
N682 C679 1.384 . S
N683 C675 1.427 . S
N683 C681 1.384 . S
H684 C690 0.930 . S
H685 C694 0.930 . S
H686 C699 0.929 . S
H687 C697 0.929 . S
H688 C692 0.929 . S
H689 C698 0.929 . S
C690 H684 0.930 . S
C690 C691 1.367 . S
C690 C698 1.378 . S
C691 C690 1.367 . S
C691 C699 1.433 1_556 S
C692 H688 0.929 . S
C692 C694 1.378 . S
C692 C696 1.350 . S
C693 C696 1.463 . S
C693 C698 1.350 1_554 S
C693 N701 1.427 . S
C694 H685 0.930 . S
C694 C692 1.378 . S
C694 C695 1.375 . S
C695 C694 1.375 . S
C695 C697 1.444 . S
C696 C692 1.350 . S
C696 C693 1.463 . S
C696 N700 1.427 . S
C697 H687 0.929 . S
C697 C695 1.444 . S
C697 N700 1.384 . S
C698 H689 0.929 . S
C698 C690 1.378 . S
C698 C693 1.350 1_556 S
C699 H686 0.929 . S
C699 C691 1.433 1_554 S
C699 N701 1.384 . S
N700 C696 1.427 . S
N700 C697 1.384 . S
N701 C693 1.427 . S
N701 C699 1.384 . S
H702 C708 0.930 . S
H703 C712 0.932 1_455 S
H704 C717 0.929 . S
H705 C715 0.929 . S
H706 C710 0.929 1_554 S
H707 C716 0.929 . S
C708 H702 0.930 . S
C708 C709 1.367 1_556 S
C708 C716 1.378 . S
C709 C708 1.367 1_554 S
C709 C717 1.433 . S
C710 H706 0.929 1_556 S
C710 C712 1.378 . S
C710 C714 1.350 . S
C711 C714 1.463 . S
C711 C716 1.350 . S
C711 N719 1.427 1_556 S
C712 H703 0.932 1_655 S
C712 C710 1.378 . S
C712 C713 1.368 . S
C713 C712 1.368 . S
C713 C715 1.443 . S
C714 C710 1.350 . S
C714 C711 1.463 . S
C714 N718 1.427 . S
C715 H705 0.929 . S
C715 C713 1.443 . S
C715 N718 1.384 . S
C716 H707 0.929 . S
C716 C708 1.378 . S
C716 C711 1.350 . S
C717 H704 0.929 . S
C717 C709 1.433 . S
C717 N719 1.384 . S
N718 C714 1.427 . S
N718 C715 1.384 . S
N719 C711 1.427 1_554 S
N719 C717 1.384 . S
H720 C726 0.930 . S
H721 C730 0.930 . S
H722 C735 0.929 . S
H723 C733 0.929 . S
H724 C728 0.929 . S
H725 C734 0.929 . S
C726 H720 0.930 . S
C726 C727 1.367 . S
C726 C734 1.378 . S
C727 C726 1.367 . S
C727 C735 1.433 . S
C728 H724 0.929 . S
C728 C730 1.378 . S
C728 C732 1.350 . S
C729 C732 1.463 . S
C729 C734 1.350 . S
C729 N737 1.427 . S
C730 H721 0.930 . S
C730 C728 1.378 . S
C730 C731 1.374 . S
C731 C730 1.374 . S
C731 C733 1.444 . S
C732 C728 1.350 . S
C732 C729 1.463 . S
C732 N736 1.427 . S
C733 H723 0.929 . S
C733 C731 1.444 . S
C733 N736 1.384 . S
C734 H725 0.929 . S
C734 C726 1.378 . S
C734 C729 1.350 . S
C735 H722 0.929 . S
C735 C727 1.433 . S
C735 N737 1.384 . S
N736 C732 1.427 . S
N736 C733 1.384 . S
N737 C729 1.427 . S
N737 C735 1.384 . S
H738 C744 0.930 . S
H739 C748 0.930 . S
H740 C753 0.929 . S
H741 C751 0.929 . S
H742 C746 0.929 . S
H743 C752 0.929 . S
C744 H738 0.930 . S
C744 C745 1.380 . S
C744 C752 1.378 . S
C745 C744 1.380 . S
C745 C753 1.443 . S
C746 H742 0.929 . S
C746 C748 1.378 . S
C746 C750 1.350 . S
C747 C750 1.463 . S
C747 C752 1.350 . S
C747 N755 1.427 . S
C748 H739 0.930 . S
C748 C746 1.378 . S
C748 C749 1.367 . S
C749 C748 1.367 . S
C749 C751 1.433 . S
C750 C746 1.350 . S
C750 C747 1.463 . S
C750 N754 1.427 . S
C751 H741 0.929 . S
C751 C749 1.433 . S
C751 N754 1.384 . S
C752 H743 0.929 . S
C752 C744 1.378 . S
C752 C747 1.350 . S
C753 H740 0.929 . S
C753 C745 1.443 . S
C753 N755 1.384 . S
N754 C750 1.427 . S
N754 C751 1.384 . S
N755 C747 1.427 . S
N755 C753 1.384 . S
H756 C762 0.930 . S
H757 C766 0.930 . S
H758 C771 0.929 1_565 S
H759 C769 0.929 . S
H760 C764 0.929 . S
H761 C770 0.929 . S
C762 H756 0.930 . S
C762 C763 1.367 . S
C762 C770 1.378 . S
C763 C762 1.367 . S
C763 C771 1.433 . S
C764 H760 0.929 . S
C764 C766 1.378 . S
C764 C768 1.350 . S
C765 C768 1.463 . S
C765 C770 1.350 . S
C765 N773 1.427 . S
C766 H757 0.930 . S
C766 C764 1.378 . S
C766 C767 1.367 . S
C767 C766 1.367 . S
C767 C769 1.433 . S
C768 C764 1.350 . S
C768 C765 1.463 . S
C768 N772 1.427 . S
C769 H759 0.929 . S
C769 C767 1.433 . S
C769 N772 1.384 . S
C770 H761 0.929 . S
C770 C762 1.378 . S
C770 C765 1.350 . S
C771 H758 0.929 1_545 S
C771 C763 1.433 . S
C771 N773 1.384 . S
N772 C768 1.427 . S
N772 C769 1.384 . S
N773 C765 1.427 . S
N773 C771 1.384 . S
H774 C780 0.930 1_655 S
H775 C784 0.930 . S
H776 C789 0.929 . S
H777 C787 0.929 . S
H778 C782 0.929 . S
H779 C788 0.929 . S
C780 H774 0.930 1_455 S
C780 C781 1.369 . S
C780 C788 1.378 . S
C781 C780 1.369 . S
C781 C789 1.444 . S
C782 H778 0.929 . S
C782 C784 1.378 . S
C782 C786 1.350 . S
C783 C786 1.463 . S
C783 C788 1.350 . S
C783 N791 1.427 . S
C784 H775 0.930 . S
C784 C782 1.378 . S
C784 C785 1.367 . S
C785 C784 1.367 . S
C785 C787 1.433 . S
C786 C782 1.350 . S
C786 C783 1.463 . S
C786 N790 1.427 . S
C787 H777 0.929 . S
C787 C785 1.433 . S
C787 N790 1.384 . S
C788 H779 0.929 . S
C788 C780 1.378 . S
C788 C783 1.350 . S
C789 H776 0.929 . S
C789 C781 1.444 . S
C789 N791 1.384 . S
N790 C786 1.427 . S
N790 C787 1.384 . S
N791 C783 1.427 . S
N791 C789 1.384 . S
H792 C798 0.930 . S
H793 C802 0.930 . S
H794 C807 0.929 . S
H795 C805 0.929 . S
H796 C800 0.929 . S
H797 C806 0.929 . S
C798 H792 0.930 . S
C798 C799 1.367 . S
C798 C806 1.378 . S
C799 C798 1.367 . S
C799 C807 1.433 . S
C800 H796 0.929 . S
C800 C802 1.378 . S
C800 C804 1.350 . S
C801 C804 1.463 . S
C801 C806 1.350 . S
C801 N809 1.427 . S
C802 H793 0.930 . S
C802 C800 1.378 . S
C802 C803 1.367 . S
C803 C802 1.367 . S
C803 C805 1.433 . S
C804 C800 1.350 . S
C804 C801 1.463 . S
C804 N808 1.427 . S
C805 H795 0.929 . S
C805 C803 1.433 . S
C805 N808 1.384 . S
C806 H797 0.929 . S
C806 C798 1.378 . S
C806 C801 1.350 . S
C807 H794 0.929 . S
C807 C799 1.433 . S
C807 N809 1.384 . S
N808 C804 1.427 . S
N808 C805 1.384 . S
N809 C801 1.427 . S
N809 C807 1.384 . S
H810 C816 0.930 . S
H811 C820 0.930 . S
H812 C825 0.929 . S
H813 C823 0.929 . S
H814 C818 0.929 . S
H815 C824 0.929 . S
C816 H810 0.930 . S
C816 C817 1.367 . S
C816 C824 1.378 . S
C817 C816 1.367 . S
C817 C825 1.433 . S
C818 H814 0.929 . S
C818 C820 1.378 . S
C818 C822 1.350 . S
C819 C822 1.463 . S
C819 C824 1.350 . S
C819 N827 1.427 . S
C820 H811 0.930 . S
C820 C818 1.378 . S
C820 C821 1.367 . S
C821 C820 1.367 . S
C821 C823 1.433 . S
C822 C818 1.350 . S
C822 C819 1.463 . S
C822 N826 1.427 . S
C823 H813 0.929 . S
C823 C821 1.433 . S
C823 N826 1.384 . S
C824 H815 0.929 . S
C824 C816 1.378 . S
C824 C819 1.350 . S
C825 H812 0.929 . S
C825 C817 1.433 . S
C825 N827 1.384 . S
N826 C822 1.427 . S
N826 C823 1.384 . S
N827 C819 1.427 . S
N827 C825 1.384 . S
H828 C834 0.930 . S
H829 C838 0.930 . S
H830 C843 0.929 . S
H831 C841 0.929 . S
H832 C836 0.929 . S
H833 C842 0.929 . S
C834 H828 0.930 . S
C834 C835 1.367 . S
C834 C842 1.378 . S
C835 C834 1.367 . S
C835 C843 1.433 . S
C836 H832 0.929 . S
C836 C838 1.378 . S
C836 C840 1.350 . S
C837 C840 1.463 . S
C837 C842 1.350 . S
C837 N845 1.427 . S
C838 H829 0.930 . S
C838 C836 1.378 . S
C838 C839 1.367 . S
C839 C838 1.367 . S
C839 C841 1.433 . S
C840 C836 1.350 . S
C840 C837 1.463 . S
C840 N844 1.427 . S
C841 H831 0.929 . S
C841 C839 1.433 . S
C841 N844 1.384 . S
C842 H833 0.929 . S
C842 C834 1.378 . S
C842 C837 1.350 . S
C843 H830 0.929 . S
C843 C835 1.433 . S
C843 N845 1.384 . S
N844 C840 1.427 . S
N844 C841 1.384 . S
N845 C837 1.427 . S
N845 C843 1.384 . S
H846 C852 0.930 . S
H847 C856 0.930 . S
H848 C861 0.929 . S
H849 C859 0.929 . S
H850 C854 0.929 . S
H851 C860 0.929 . S
C852 H846 0.930 . S
C852 C853 1.367 . S
C852 C860 1.378 . S
C853 C852 1.367 . S
C853 C861 1.433 . S
C854 H850 0.929 . S
C854 C856 1.378 . S
C854 C858 1.350 . S
C855 C858 1.463 . S
C855 C860 1.350 . S
C855 N863 1.427 . S
C856 H847 0.930 . S
C856 C854 1.378 . S
C856 C857 1.367 . S
C857 C856 1.367 . S
C857 C859 1.433 . S
C858 C854 1.350 . S
C858 C855 1.463 . S
C858 N862 1.427 . S
C859 H849 0.929 . S
C859 C857 1.433 . S
C859 N862 1.384 . S
C860 H851 0.929 . S
C860 C852 1.378 . S
C860 C855 1.350 . S
C861 H848 0.929 . S
C861 C853 1.433 . S
C861 N863 1.384 . S
N862 C858 1.427 . S
N862 C859 1.384 . S
N863 C855 1.427 . S
N863 C861 1.384 . S
H864 C870 0.930 . S
H865 C874 0.930 . S
H866 C879 0.929 . S
H867 C877 0.929 . S
H868 C872 0.929 . S
H869 C878 0.929 . S
C870 H864 0.930 . S
C870 C871 1.367 . S
C870 C878 1.378 . S
C871 C870 1.367 . S
C871 C879 1.433 . S
C872 H868 0.929 . S
C872 C874 1.378 . S
C872 C876 1.350 . S
C873 C876 1.463 . S
C873 C878 1.350 . S
C873 N881 1.427 . S
C874 H865 0.930 . S
C874 C872 1.378 . S
C874 C875 1.367 . S
C875 C874 1.367 . S
C875 C877 1.433 . S
C876 C872 1.350 . S
C876 C873 1.463 . S
C876 N880 1.427 . S
C877 H867 0.929 . S
C877 C875 1.433 . S
C877 N880 1.384 . S
C878 H869 0.929 . S
C878 C870 1.378 . S
C878 C873 1.350 . S
C879 H866 0.929 . S
C879 C871 1.433 . S
C879 N881 1.384 . S
N880 C876 1.427 . S
N880 C877 1.384 . S
N881 C873 1.427 . S
N881 C879 1.384 . S
H882 C888 0.930 . S
H883 C892 0.930 . S
H884 C897 0.929 . S
H885 C895 0.929 . S
H886 C890 0.929 . S
H887 C896 0.929 . S
C888 H882 0.930 . S
C888 C889 1.367 . S
C888 C896 1.378 . S
C889 C888 1.367 . S
C889 C897 1.433 . S
C890 H886 0.929 . S
C890 C892 1.378 . S
C890 C894 1.350 . S
C891 C894 1.463 . S
C891 C896 1.350 . S
C891 N899 1.427 . S
C892 H883 0.930 . S
C892 C890 1.378 . S
C892 C893 1.367 . S
C893 C892 1.367 . S
C893 C895 1.433 . S
C894 C890 1.350 . S
C894 C891 1.463 . S
C894 N898 1.427 . S
C895 H885 0.929 . S
C895 C893 1.433 . S
C895 N898 1.384 . S
C896 H887 0.929 . S
C896 C888 1.378 . S
C896 C891 1.350 . S
C897 H884 0.929 . S
C897 C889 1.433 . S
C897 N899 1.384 . S
N898 C894 1.427 . S
N898 C895 1.384 . S
N899 C891 1.427 . S
N899 C897 1.384 . S
H900 C906 0.930 . S
H901 C910 0.930 . S
H902 C915 0.929 . S
H903 C913 0.929 . S
H904 C908 0.929 . S
H905 C914 0.929 . S
C906 H900 0.930 . S
C906 C907 1.367 . S
C906 C914 1.378 . S
C907 C906 1.367 . S
C907 C915 1.433 . S
C908 H904 0.929 . S
C908 C910 1.378 . S
C908 C912 1.350 . S
C909 C912 1.463 . S
C909 C914 1.350 . S
C909 N917 1.427 . S
C910 H901 0.930 . S
C910 C908 1.378 . S
C910 C911 1.367 . S
C911 C910 1.367 . S
C911 C913 1.433 . S
C912 C908 1.350 . S
C912 C909 1.463 . S
C912 N916 1.427 . S
C913 H903 0.929 . S
C913 C911 1.433 . S
C913 N916 1.384 . S
C914 H905 0.929 . S
C914 C906 1.378 . S
C914 C909 1.350 . S
C915 H902 0.929 . S
C915 C907 1.433 . S
C915 N917 1.384 . S
N916 C912 1.427 . S
N916 C913 1.384 . S
N917 C909 1.427 . S
N917 C915 1.384 . S
H918 C924 0.930 . S
H919 C928 0.930 . S
H920 C933 0.929 . S
H921 C931 0.929 . S
H922 C926 0.929 . S
H923 C932 0.929 . S
C924 H918 0.930 . S
C924 C925 1.367 . S
C924 C932 1.378 . S
C925 C924 1.367 . S
C925 C933 1.433 . S
C926 H922 0.929 . S
C926 C928 1.378 . S
C926 C930 1.350 . S
C927 C930 1.463 . S
C927 C932 1.350 . S
C927 N935 1.427 . S
C928 H919 0.930 . S
C928 C926 1.378 . S
C928 C929 1.367 . S
C929 C928 1.367 . S
C929 C931 1.433 . S
C930 C926 1.350 . S
C930 C927 1.463 . S
C930 N934 1.427 . S
C931 H921 0.929 . S
C931 C929 1.433 . S
C931 N934 1.384 . S
C932 H923 0.929 . S
C932 C924 1.378 . S
C932 C927 1.350 . S
C933 H920 0.929 . S
C933 C925 1.433 . S
C933 N935 1.384 . S
N934 C930 1.427 . S
N934 C931 1.384 . S
N935 C927 1.427 . S
N935 C933 1.384 . S
H936 C942 0.930 . S
H937 C946 0.930 . S
H938 C951 0.929 . S
H939 C949 0.929 . S
H940 C944 0.929 . S
H941 C950 0.929 . S
C942 H936 0.930 . S
C942 C943 1.367 . S
C942 C950 1.378 . S
C943 C942 1.367 . S
C943 C951 1.433 . S
C944 H940 0.929 . S
C944 C946 1.378 . S
C944 C948 1.350 . S
C945 C948 1.463 . S
C945 C950 1.350 . S
C945 N953 1.427 . S
C946 H937 0.930 . S
C946 C944 1.378 . S
C946 C947 1.367 . S
C947 C946 1.367 . S
C947 C949 1.433 . S
C948 C944 1.350 . S
C948 C945 1.463 . S
C948 N952 1.427 . S
C949 H939 0.929 . S
C949 C947 1.433 . S
C949 N952 1.384 . S
C950 H941 0.929 . S
C950 C942 1.378 . S
C950 C945 1.350 . S
C951 H938 0.929 . S
C951 C943 1.433 . S
C951 N953 1.384 . S
N952 C948 1.427 . S
N952 C949 1.384 . S
N953 C945 1.427 . S
N953 C951 1.384 . S
H954 C960 0.930 . S
H955 C964 0.930 . S
H956 C969 0.929 . S
H957 C967 0.929 . S
H958 C962 0.929 . S
H959 C968 0.929 . S
C960 H954 0.930 . S
C960 C961 1.367 . S
C960 C968 1.378 . S
C961 C960 1.367 . S
C961 C969 1.433 . S
C962 H958 0.929 . S
C962 C964 1.378 . S
C962 C966 1.350 . S
C963 C966 1.463 . S
C963 C968 1.350 . S
C963 N971 1.427 . S
C964 H955 0.930 . S
C964 C962 1.378 . S
C964 C965 1.367 . S
C965 C964 1.367 . S
C965 C967 1.433 . S
C966 C962 1.350 . S
C966 C963 1.463 . S
C966 N970 1.427 . S
C967 H957 0.929 . S
C967 C965 1.433 . S
C967 N970 1.384 . S
C968 H959 0.929 . S
C968 C960 1.378 . S
C968 C963 1.350 . S
C969 H956 0.929 . S
C969 C961 1.433 . S
C969 N971 1.384 . S
N970 C966 1.427 . S
N970 C967 1.384 . S
N971 C963 1.427 . S
N971 C969 1.384 . S
H972 C978 0.930 . S
H973 C982 0.930 . S
H974 C987 0.929 . S
H975 C985 0.929 . S
H976 C980 0.929 . S
H977 C986 0.929 . S
C978 H972 0.930 . S
C978 C979 1.367 . S
C978 C986 1.378 . S
C979 C978 1.367 . S
C979 C987 1.433 . S
C980 H976 0.929 . S
C980 C982 1.378 . S
C980 C984 1.350 . S
C981 C984 1.463 . S
C981 C986 1.350 . S
C981 N989 1.427 . S
C982 H973 0.930 . S
C982 C980 1.378 . S
C982 C983 1.367 . S
C983 C982 1.367 . S
C983 C985 1.433 . S
C984 C980 1.350 . S
C984 C981 1.463 . S
C984 N988 1.427 . S
C985 H975 0.929 . S
C985 C983 1.433 . S
C985 N988 1.384 . S
C986 H977 0.929 . S
C986 C978 1.378 . S
C986 C981 1.350 . S
C987 H974 0.929 . S
C987 C979 1.433 . S
C987 N989 1.384 . S
N988 C984 1.427 . S
N988 C985 1.384 . S
N989 C981 1.427 . S
N989 C987 1.384 . S
H990 C996 0.930 . S
H991 C1000 0.930 . S
H992 C1005 0.929 . S
H993 C1003 0.929 . S
H994 C998 0.929 . S
H995 C1004 0.929 . S
C996 H990 0.930 . S
C996 C997 1.367 . S
C996 C1004 1.378 . S
C997 C996 1.367 . S
C997 C1005 1.433 . S
C998 H994 0.929 . S
C998 C1000 1.378 . S
C998 C1002 1.350 . S
C999 C1002 1.463 . S
C999 C1004 1.350 . S
C999 N1007 1.427 . S
C1000 H991 0.930 . S
C1000 C998 1.378 . S
C1000 C1001 1.367 . S
C1001 C1000 1.367 . S
C1001 C1003 1.433 . S
C1002 C998 1.350 . S
C1002 C999 1.463 . S
C1002 N1006 1.427 . S
C1003 H993 0.929 . S
C1003 C1001 1.433 . S
C1003 N1006 1.384 . S
C1004 H995 0.929 . S
C1004 C996 1.378 . S
C1004 C999 1.350 . S
C1005 H992 0.929 . S
C1005 C997 1.433 . S
C1005 N1007 1.384 . S
N1006 C1002 1.427 . S
N1006 C1003 1.384 . S
N1007 C999 1.427 . S
N1007 C1005 1.384 . S
H1008 C1014 0.930 . S
H1009 C1018 0.930 . S
H1010 C1023 0.929 . S
H1011 C1021 0.929 . S
H1012 C1016 0.929 . S
H1013 C1022 0.929 . S
C1014 H1008 0.930 . S
C1014 C1015 1.367 . S
C1014 C1022 1.378 . S
C1015 C1014 1.367 . S
C1015 C1023 1.433 . S
C1016 H1012 0.929 . S
C1016 C1018 1.378 . S
C1016 C1020 1.350 . S
C1017 C1020 1.463 1_665 S
C1017 C1022 1.350 . S
C1017 N1025 1.427 . S
C1018 H1009 0.930 . S
C1018 C1016 1.378 . S
C1018 C1019 1.367 . S
C1019 C1018 1.367 . S
C1019 C1021 1.433 . S
C1020 C1016 1.350 . S
C1020 C1017 1.463 1_445 S
C1020 N1024 1.427 . S
C1021 H1011 0.929 . S
C1021 C1019 1.433 . S
C1021 N1024 1.384 . S
C1022 H1013 0.929 . S
C1022 C1014 1.378 . S
C1022 C1017 1.350 . S
C1023 H1010 0.929 . S
C1023 C1015 1.433 . S
C1023 N1025 1.384 . S
N1024 C1020 1.427 . S
N1024 C1021 1.384 . S
N1025 C1017 1.427 . S
N1025 C1023 1.384 . S
H1026 C1032 0.930 . S
H1027 C1036 0.930 . S
H1028 C1041 0.929 . S
H1029 C1039 0.929 . S
H1030 C1034 0.929 1_655 S
H1031 C1040 0.929 1_455 S
C1032 H1026 0.930 . S
C1032 C1033 1.367 . S
C1032 C1040 1.378 . S
C1033 C1032 1.367 . S
C1033 C1041 1.433 . S
C1034 H1030 0.929 1_455 S
C1034 C1036 1.378 . S
C1034 C1038 1.350 . S
C1035 C1038 1.463 1_645 S
C1035 C1040 1.350 . S
C1035 N1043 1.427 1_545 S
C1036 H1027 0.930 . S
C1036 C1034 1.378 . S
C1036 C1037 1.367 . S
C1037 C1036 1.367 . S
C1037 C1039 1.433 . S
C1038 C1034 1.350 . S
C1038 C1035 1.463 1_465 S
C1038 N1042 1.427 1_565 S
C1039 H1029 0.929 . S
C1039 C1037 1.433 . S
C1039 N1042 1.384 1_565 S
C1040 H1031 0.929 1_655 S
C1040 C1032 1.378 . S
C1040 C1035 1.350 . S
C1041 H1028 0.929 . S
C1041 C1033 1.433 . S
C1041 N1043 1.384 1_545 S
N1042 C1038 1.427 1_545 S
N1042 C1039 1.384 1_545 S
N1043 C1035 1.427 1_565 S
N1043 C1041 1.384 1_565 S
H1044 C1050 0.930 . S
H1045 C1054 0.930 . S
H1046 C1059 0.929 . S
H1047 C1057 0.929 . S
H1048 C1052 0.929 . S
H1049 C1058 0.929 . S
C1050 H1044 0.930 . S
C1050 C1051 1.367 . S
C1050 C1058 1.378 . S
C1051 C1050 1.367 . S
C1051 C1059 1.433 . S
C1052 H1048 0.929 . S
C1052 C1054 1.378 . S
C1052 C1056 1.350 . S
C1053 C1056 1.463 1_455 S
C1053 C1058 1.350 . S
C1053 N1061 1.427 1_455 S
C1054 H1045 0.930 . S
C1054 C1052 1.378 . S
C1054 C1055 1.367 . S
C1055 C1054 1.367 . S
C1055 C1057 1.433 . S
C1056 C1052 1.350 . S
C1056 C1053 1.463 1_655 S
C1056 N1060 1.427 1_655 S
C1057 H1047 0.929 . S
C1057 C1055 1.433 . S
C1057 N1060 1.384 1_655 S
C1058 H1049 0.929 . S
C1058 C1050 1.378 . S
C1058 C1053 1.350 . S
C1059 H1046 0.929 . S
C1059 C1051 1.433 . S
C1059 N1061 1.384 1_455 S
N1060 C1056 1.427 1_455 S
N1060 C1057 1.384 1_455 S
N1061 C1053 1.427 1_655 S
N1061 C1059 1.384 1_655 S
H1062 C1068 0.930 . S
H1063 C1072 0.930 . S
H1064 C1077 0.929 . S
H1065 C1075 0.929 . S
H1066 C1070 0.929 . S
H1067 C1076 0.929 . S
C1068 H1062 0.930 . S
C1068 C1069 1.367 . S
C1068 C1076 1.378 . S
C1069 C1068 1.367 . S
C1069 C1077 1.433 . S
C1070 H1066 0.929 . S
C1070 C1072 1.378 . S
C1070 C1074 1.350 . S
C1071 C1074 1.463 1_565 S
C1071 C1076 1.350 . S
C1071 N1079 1.427 . S
C1072 H1063 0.930 . S
C1072 C1070 1.378 . S
C1072 C1073 1.367 . S
C1073 C1072 1.367 . S
C1073 C1075 1.433 . S
C1074 C1070 1.350 . S
C1074 C1071 1.463 1_545 S
C1074 N1078 1.427 . S
C1075 H1065 0.929 . S
C1075 C1073 1.433 . S
C1075 N1078 1.384 . S
C1076 H1067 0.929 . S
C1076 C1068 1.378 . S
C1076 C1071 1.350 . S
C1077 H1064 0.929 . S
C1077 C1069 1.433 . S
C1077 N1079 1.384 . S
N1078 C1074 1.427 . S
N1078 C1075 1.384 . S
N1079 C1071 1.427 . S
N1079 C1077 1.384 . S
H1080 C1086 0.930 . S
H1081 C1090 0.930 . S
H1082 C1095 0.929 . S
H1083 C1093 0.929 . S
H1084 C1088 0.929 . S
H1085 C1094 0.929 . S
C1086 H1080 0.930 . S
C1086 C1087 1.367 . S
C1086 C1094 1.378 . S
C1087 C1086 1.367 . S
C1087 C1095 1.433 . S
C1088 H1084 0.929 . S
C1088 C1090 1.378 . S
C1088 C1092 1.350 . S
C1089 C1092 1.463 . S
C1089 C1094 1.350 . S
C1089 N1097 1.427 . S
C1090 H1081 0.930 . S
C1090 C1088 1.378 . S
C1090 C1091 1.367 . S
C1091 C1090 1.367 . S
C1091 C1093 1.433 . S
C1092 C1088 1.350 . S
C1092 C1089 1.463 . S
C1092 N1096 1.427 . S
C1093 H1083 0.929 . S
C1093 C1091 1.433 . S
C1093 N1096 1.384 . S
C1094 H1085 0.929 . S
C1094 C1086 1.378 . S
C1094 C1089 1.350 . S
C1095 H1082 0.929 . S
C1095 C1087 1.433 . S
C1095 N1097 1.384 . S
N1096 C1092 1.427 . S
N1096 C1093 1.384 . S
N1097 C1089 1.427 . S
N1097 C1095 1.384 . S
H1098 C1104 0.930 . S
H1099 C1108 0.930 . S
H1100 C1113 0.929 . S
H1101 C1111 0.929 . S
H1102 C1106 0.929 . S
H1103 C1112 0.929 . S
C1104 H1098 0.930 . S
C1104 C1105 1.367 . S
C1104 C1112 1.378 . S
C1105 C1104 1.367 . S
C1105 C1113 1.433 . S
C1106 H1102 0.929 . S
C1106 C1108 1.378 . S
C1106 C1110 1.350 . S
C1107 C1110 1.463 . S
C1107 C1112 1.350 . S
C1107 N1115 1.427 . S
C1108 H1099 0.930 . S
C1108 C1106 1.378 . S
C1108 C1109 1.367 . S
C1109 C1108 1.367 . S
C1109 C1111 1.433 . S
C1110 C1106 1.350 . S
C1110 C1107 1.463 . S
C1110 N1114 1.427 . S
C1111 H1101 0.929 . S
C1111 C1109 1.433 . S
C1111 N1114 1.384 . S
C1112 H1103 0.929 . S
C1112 C1104 1.378 . S
C1112 C1107 1.350 . S
C1113 H1100 0.929 . S
C1113 C1105 1.433 . S
C1113 N1115 1.384 . S
N1114 C1110 1.427 . S
N1114 C1111 1.384 . S
N1115 C1107 1.427 . S
N1115 C1113 1.384 . S
H1116 C1122 0.930 . S
H1117 C1126 0.930 . S
H1118 C1131 0.929 . S
H1119 C1129 0.929 . S
H1120 C1124 0.929 . S
H1121 C1130 0.929 . S
C1122 H1116 0.930 . S
C1122 C1123 1.367 . S
C1122 C1130 1.378 . S
C1123 C1122 1.367 . S
C1123 C1131 1.433 . S
C1124 H1120 0.929 . S
C1124 C1126 1.378 . S
C1124 C1128 1.350 . S
C1125 C1128 1.463 1_545 S
C1125 C1130 1.350 . S
C1125 N1133 1.427 . S
C1126 H1117 0.930 . S
C1126 C1124 1.378 . S
C1126 C1127 1.367 . S
C1127 C1126 1.367 . S
C1127 C1129 1.433 . S
C1128 C1124 1.350 . S
C1128 C1125 1.463 1_565 S
C1128 N1132 1.427 . S
C1129 H1119 0.929 . S
C1129 C1127 1.433 . S
C1129 N1132 1.384 . S
C1130 H1121 0.929 . S
C1130 C1122 1.378 . S
C1130 C1125 1.350 . S
C1131 H1118 0.929 . S
C1131 C1123 1.433 . S
C1131 N1133 1.384 . S
N1132 C1128 1.427 . S
N1132 C1129 1.384 . S
N1133 C1125 1.427 . S
N1133 C1131 1.384 . S
H1134 C1140 0.930 . S
H1135 C1144 0.930 . S
H1136 C1149 0.929 . S
H1137 C1147 0.929 . S
H1138 C1142 0.929 . S
H1139 C1148 0.929 . S
C1140 H1134 0.930 . S
C1140 C1141 1.367 . S
C1140 C1148 1.378 . S
C1141 C1140 1.367 . S
C1141 C1149 1.433 . S
C1142 H1138 0.929 . S
C1142 C1144 1.378 . S
C1142 C1146 1.350 . S
C1143 C1146 1.463 1_655 S
C1143 C1148 1.350 . S
C1143 N1151 1.427 . S
C1144 H1135 0.930 . S
C1144 C1142 1.378 . S
C1144 C1145 1.367 . S
C1145 C1144 1.367 . S
C1145 C1147 1.433 . S
C1146 C1142 1.350 . S
C1146 C1143 1.463 1_455 S
C1146 N1150 1.427 . S
C1147 H1137 0.929 . S
C1147 C1145 1.433 . S
C1147 N1150 1.384 . S
C1148 H1139 0.929 . S
C1148 C1140 1.378 . S
C1148 C1143 1.350 . S
C1149 H1136 0.929 . S
C1149 C1141 1.433 . S
C1149 N1151 1.384 . S
N1150 C1146 1.427 . S
N1150 C1147 1.384 . S
N1151 C1143 1.427 . S
N1151 C1149 1.384 . S
C583 C3 1.111 . S
C587 C398 1.090 . S
C601 C290 1.107 . S
C605 C39 1.108 . S
C619 C326 1.104 . S
C623 C75 1.102 . S
C637 C362 1.094 . S
C641 C111 1.104 . S
C655 C182 1.094 1_545 S
C659 C147 1.104 . S
C673 C183 1.105 . S
C677 C218 1.107 1_455 S
C691 C219 1.110 . S
C695 C254 1.086 1_565 S
C709 C255 1.113 . S
C713 C146 1.079 1_655 S
C727 C291 1.110 . S
C731 C110 1.087 1_565 S
C745 C2 1.083 1_655 S
C749 C327 1.107 . S
C763 C38 1.106 1_545 S
C767 C363 1.103 . S
C781 C74 1.078 1_455 S
C785 C399 1.113 . S
C799 C470 1.091 . S
C803 C435 1.113 . S
C817 C471 1.111 . S
C821 C506 1.090 . S
C835 C542 1.099 . S
C839 C507 1.114 . S
C853 C434 1.098 . S
C857 C543 1.115 . S
C871 C518 1.587 . S
C875 C14 1.581 . S
C889 C554 1.580 . S
C893 C50 1.587 . S
C907 C446 1.587 . S
C911 C86 1.581 . S
C925 C122 1.585 . S
C929 C482 1.580 . S
C943 C158 1.580 . S
C947 C374 1.585 . S
C961 C410 1.585 . S
C965 C194 1.580 . S
C979 C230 1.579 . S
C983 C302 1.586 . S
C997 C266 1.585 . S
C1001 C338 1.580 . S
C1015 C76 1.248 . S
C1019 C4 1.257 . S
C1033 C112 1.262 . S
C1037 C40 1.264 . S
C1051 C148 1.264 . S
C1055 C220 1.262 . S
C1069 C184 1.256 . S
C1073 C256 1.263 . S
C1087 C364 1.256 . S
C1091 C292 1.248 . S
C1105 C328 1.256 . S
C1109 C400 1.248 . S
C1123 C508 1.247 . S
C1127 C436 1.255 . S
C1141 C472 1.255 . S
C1145 C544 1.247 . S
