# Generated by pormake.
# Topology ulj, (4)-cn, num edge types: 1
# Building blocks:
#     Node 0, Type 0, BuildingBlock: NAWXER_clean_sbu_0, # of connection points: 4
#     Node 1, Type 0, BuildingBlock: NAWXER_clean_sbu_0, # of connection points: 4
#     Node 2, Type 0, BuildingBlock: NAWXER_clean_sbu_0, # of connection points: 4
#     Node 3, Type 0, BuildingBlock: NAWXER_clean_sbu_0, # of connection points: 4
#     Node 4, Type 0, BuildingBlock: NAWXER_clean_sbu_0, # of connection points: 4
#     Node 5, Type 0, BuildingBlock: NAWXER_clean_sbu_0, # of connection points: 4
#     Node 6, Type 0, BuildingBlock: NAWXER_clean_sbu_0, # of connection points: 4
#     Node 7, Type 0, BuildingBlock: NAWXER_clean_sbu_0, # of connection points: 4
#     Node 8, Type 0, BuildingBlock: NAWXER_clean_sbu_0, # of connection points: 4
#     Node 9, Type 0, BuildingBlock: NAWXER_clean_sbu_0, # of connection points: 4
#     Node 10, Type 0, BuildingBlock: NAWXER_clean_sbu_0, # of connection points: 4
#     Node 11, Type 0, BuildingBlock: NAWXER_clean_sbu_0, # of connection points: 4
#     Node 12, Type 0, BuildingBlock: NAWXER_clean_sbu_0, # of connection points: 4
#     Node 13, Type 0, BuildingBlock: NAWXER_clean_sbu_0, # of connection points: 4
#     Node 14, Type 0, BuildingBlock: NAWXER_clean_sbu_0, # of connection points: 4
#     Node 15, Type 0, BuildingBlock: NAWXER_clean_sbu_0, # of connection points: 4
#     Node 16, Type 0, BuildingBlock: NAWXER_clean_sbu_0, # of connection points: 4
#     Node 17, Type 0, BuildingBlock: NAWXER_clean_sbu_0, # of connection points: 4
#     Node 18, Type 0, BuildingBlock: NAWXER_clean_sbu_0, # of connection points: 4
#     Node 19, Type 0, BuildingBlock: NAWXER_clean_sbu_0, # of connection points: 4
#     Node 20, Type 0, BuildingBlock: NAWXER_clean_sbu_0, # of connection points: 4
#     Node 21, Type 0, BuildingBlock: NAWXER_clean_sbu_0, # of connection points: 4
#     Node 22, Type 0, BuildingBlock: NAWXER_clean_sbu_0, # of connection points: 4
#     Node 23, Type 0, BuildingBlock: NAWXER_clean_sbu_0, # of connection points: 4
#     Node 24, Type 0, BuildingBlock: NAWXER_clean_sbu_0, # of connection points: 4
#     Node 25, Type 0, BuildingBlock: NAWXER_clean_sbu_0, # of connection points: 4
#     Node 26, Type 0, BuildingBlock: NAWXER_clean_sbu_0, # of connection points: 4
#     Node 27, Type 0, BuildingBlock: NAWXER_clean_sbu_0, # of connection points: 4
#     Node 28, Type 0, BuildingBlock: NAWXER_clean_sbu_0, # of connection points: 4
#     Node 29, Type 0, BuildingBlock: NAWXER_clean_sbu_0, # of connection points: 4
#     Node 30, Type 0, BuildingBlock: NAWXER_clean_sbu_0, # of connection points: 4
#     Node 31, Type 0, BuildingBlock: NAWXER_clean_sbu_0, # of connection points: 4
#     Node 32, Type 0, BuildingBlock: NAWXER_clean_sbu_0, # of connection points: 4
#     Node 33, Type 0, BuildingBlock: NAWXER_clean_sbu_0, # of connection points: 4
#     Node 34, Type 0, BuildingBlock: NAWXER_clean_sbu_0, # of connection points: 4
#     Node 35, Type 0, BuildingBlock: NAWXER_clean_sbu_0, # of connection points: 4
#     Node 36, Type 0, BuildingBlock: NAWXER_clean_sbu_0, # of connection points: 4
#     Node 37, Type 0, BuildingBlock: NAWXER_clean_sbu_0, # of connection points: 4
#     Node 38, Type 0, BuildingBlock: NAWXER_clean_sbu_0, # of connection points: 4
#     Node 39, Type 0, BuildingBlock: NAWXER_clean_sbu_0, # of connection points: 4
#     Node 40, Type 0, BuildingBlock: NAWXER_clean_sbu_0, # of connection points: 4
#     Node 41, Type 0, BuildingBlock: NAWXER_clean_sbu_0, # of connection points: 4
#     Node 42, Type 0, BuildingBlock: NAWXER_clean_sbu_0, # of connection points: 4
#     Node 43, Type 0, BuildingBlock: NAWXER_clean_sbu_0, # of connection points: 4
#     Node 44, Type 0, BuildingBlock: NAWXER_clean_sbu_0, # of connection points: 4
#     Node 45, Type 0, BuildingBlock: NAWXER_clean_sbu_0, # of connection points: 4
#     Node 46, Type 0, BuildingBlock: NAWXER_clean_sbu_0, # of connection points: 4
#     Node 47, Type 0, BuildingBlock: NAWXER_clean_sbu_0, # of connection points: 4
#     Edge 48, Type (0, 0), BuildingBlock: UVAHIK_clean_linker_0, # of connection points: 2
#     Edge 49, Type (0, 0), BuildingBlock: UVAHIK_clean_linker_0, # of connection points: 2
#     Edge 50, Type (0, 0), BuildingBlock: UVAHIK_clean_linker_0, # of connection points: 2
#     Edge 51, Type (0, 0), BuildingBlock: UVAHIK_clean_linker_0, # of connection points: 2
#     Edge 52, Type (0, 0), BuildingBlock: UVAHIK_clean_linker_0, # of connection points: 2
#     Edge 53, Type (0, 0), BuildingBlock: UVAHIK_clean_linker_0, # of connection points: 2
#     Edge 54, Type (0, 0), BuildingBlock: UVAHIK_clean_linker_0, # of connection points: 2
#     Edge 55, Type (0, 0), BuildingBlock: UVAHIK_clean_linker_0, # of connection points: 2
#     Edge 56, Type (0, 0), BuildingBlock: UVAHIK_clean_linker_0, # of connection points: 2
#     Edge 57, Type (0, 0), BuildingBlock: UVAHIK_clean_linker_0, # of connection points: 2
#     Edge 58, Type (0, 0), BuildingBlock: UVAHIK_clean_linker_0, # of connection points: 2
#     Edge 59, Type (0, 0), BuildingBlock: UVAHIK_clean_linker_0, # of connection points: 2
#     Edge 60, Type (0, 0), BuildingBlock: UVAHIK_clean_linker_0, # of connection points: 2
#     Edge 61, Type (0, 0), BuildingBlock: UVAHIK_clean_linker_0, # of connection points: 2
#     Edge 62, Type (0, 0), BuildingBlock: UVAHIK_clean_linker_0, # of connection points: 2
#     Edge 63, Type (0, 0), BuildingBlock: UVAHIK_clean_linker_0, # of connection points: 2
#     Edge 64, Type (0, 0), BuildingBlock: UVAHIK_clean_linker_0, # of connection points: 2
#     Edge 65, Type (0, 0), BuildingBlock: UVAHIK_clean_linker_0, # of connection points: 2
#     Edge 66, Type (0, 0), BuildingBlock: UVAHIK_clean_linker_0, # of connection points: 2
#     Edge 67, Type (0, 0), BuildingBlock: UVAHIK_clean_linker_0, # of connection points: 2
#     Edge 68, Type (0, 0), BuildingBlock: UVAHIK_clean_linker_0, # of connection points: 2
#     Edge 69, Type (0, 0), BuildingBlock: UVAHIK_clean_linker_0, # of connection points: 2
#     Edge 70, Type (0, 0), BuildingBlock: UVAHIK_clean_linker_0, # of connection points: 2
#     Edge 71, Type (0, 0), BuildingBlock: UVAHIK_clean_linker_0, # of connection points: 2
#     Edge 72, Type (0, 0), BuildingBlock: UVAHIK_clean_linker_0, # of connection points: 2
#     Edge 73, Type (0, 0), BuildingBlock: UVAHIK_clean_linker_0, # of connection points: 2
#     Edge 74, Type (0, 0), BuildingBlock: UVAHIK_clean_linker_0, # of connection points: 2
#     Edge 75, Type (0, 0), BuildingBlock: UVAHIK_clean_linker_0, # of connection points: 2
#     Edge 76, Type (0, 0), BuildingBlock: UVAHIK_clean_linker_0, # of connection points: 2
#     Edge 77, Type (0, 0), BuildingBlock: UVAHIK_clean_linker_0, # of connection points: 2
#     Edge 78, Type (0, 0), BuildingBlock: UVAHIK_clean_linker_0, # of connection points: 2
#     Edge 79, Type (0, 0), BuildingBlock: UVAHIK_clean_linker_0, # of connection points: 2
#     Edge 80, Type (0, 0), BuildingBlock: UVAHIK_clean_linker_0, # of connection points: 2
#     Edge 81, Type (0, 0), BuildingBlock: UVAHIK_clean_linker_0, # of connection points: 2
#     Edge 82, Type (0, 0), BuildingBlock: UVAHIK_clean_linker_0, # of connection points: 2
#     Edge 83, Type (0, 0), BuildingBlock: UVAHIK_clean_linker_0, # of connection points: 2
#     Edge 84, Type (0, 0), BuildingBlock: UVAHIK_clean_linker_0, # of connection points: 2
#     Edge 85, Type (0, 0), BuildingBlock: UVAHIK_clean_linker_0, # of connection points: 2
#     Edge 86, Type (0, 0), BuildingBlock: UVAHIK_clean_linker_0, # of connection points: 2
#     Edge 87, Type (0, 0), BuildingBlock: UVAHIK_clean_linker_0, # of connection points: 2
#     Edge 88, Type (0, 0), BuildingBlock: UVAHIK_clean_linker_0, # of connection points: 2
#     Edge 89, Type (0, 0), BuildingBlock: UVAHIK_clean_linker_0, # of connection points: 2
#     Edge 90, Type (0, 0), BuildingBlock: UVAHIK_clean_linker_0, # of connection points: 2
#     Edge 91, Type (0, 0), BuildingBlock: UVAHIK_clean_linker_0, # of connection points: 2
#     Edge 92, Type (0, 0), BuildingBlock: UVAHIK_clean_linker_0, # of connection points: 2
#     Edge 93, Type (0, 0), BuildingBlock: UVAHIK_clean_linker_0, # of connection points: 2
#     Edge 94, Type (0, 0), BuildingBlock: UVAHIK_clean_linker_0, # of connection points: 2
#     Edge 95, Type (0, 0), BuildingBlock: UVAHIK_clean_linker_0, # of connection points: 2
#     Edge 96, Type (0, 0), BuildingBlock: UVAHIK_clean_linker_0, # of connection points: 2
#     Edge 97, Type (0, 0), BuildingBlock: UVAHIK_clean_linker_0, # of connection points: 2
#     Edge 98, Type (0, 0), BuildingBlock: UVAHIK_clean_linker_0, # of connection points: 2
#     Edge 99, Type (0, 0), BuildingBlock: UVAHIK_clean_linker_0, # of connection points: 2
#     Edge 100, Type (0, 0), BuildingBlock: UVAHIK_clean_linker_0, # of connection points: 2
#     Edge 101, Type (0, 0), BuildingBlock: UVAHIK_clean_linker_0, # of connection points: 2
#     Edge 102, Type (0, 0), BuildingBlock: UVAHIK_clean_linker_0, # of connection points: 2
#     Edge 103, Type (0, 0), BuildingBlock: UVAHIK_clean_linker_0, # of connection points: 2
#     Edge 104, Type (0, 0), BuildingBlock: UVAHIK_clean_linker_0, # of connection points: 2
#     Edge 105, Type (0, 0), BuildingBlock: UVAHIK_clean_linker_0, # of connection points: 2
#     Edge 106, Type (0, 0), BuildingBlock: UVAHIK_clean_linker_0, # of connection points: 2
#     Edge 107, Type (0, 0), BuildingBlock: UVAHIK_clean_linker_0, # of connection points: 2
#     Edge 108, Type (0, 0), BuildingBlock: UVAHIK_clean_linker_0, # of connection points: 2
#     Edge 109, Type (0, 0), BuildingBlock: UVAHIK_clean_linker_0, # of connection points: 2
#     Edge 110, Type (0, 0), BuildingBlock: UVAHIK_clean_linker_0, # of connection points: 2
#     Edge 111, Type (0, 0), BuildingBlock: UVAHIK_clean_linker_0, # of connection points: 2
#     Edge 112, Type (0, 0), BuildingBlock: UVAHIK_clean_linker_0, # of connection points: 2
#     Edge 113, Type (0, 0), BuildingBlock: UVAHIK_clean_linker_0, # of connection points: 2
#     Edge 114, Type (0, 0), BuildingBlock: UVAHIK_clean_linker_0, # of connection points: 2
#     Edge 115, Type (0, 0), BuildingBlock: UVAHIK_clean_linker_0, # of connection points: 2
#     Edge 116, Type (0, 0), BuildingBlock: UVAHIK_clean_linker_0, # of connection points: 2
#     Edge 117, Type (0, 0), BuildingBlock: UVAHIK_clean_linker_0, # of connection points: 2
#     Edge 118, Type (0, 0), BuildingBlock: UVAHIK_clean_linker_0, # of connection points: 2
#     Edge 119, Type (0, 0), BuildingBlock: UVAHIK_clean_linker_0, # of connection points: 2
#     Edge 120, Type (0, 0), BuildingBlock: UVAHIK_clean_linker_0, # of connection points: 2
#     Edge 121, Type (0, 0), BuildingBlock: UVAHIK_clean_linker_0, # of connection points: 2
#     Edge 122, Type (0, 0), BuildingBlock: UVAHIK_clean_linker_0, # of connection points: 2
#     Edge 123, Type (0, 0), BuildingBlock: UVAHIK_clean_linker_0, # of connection points: 2
#     Edge 124, Type (0, 0), BuildingBlock: UVAHIK_clean_linker_0, # of connection points: 2
#     Edge 125, Type (0, 0), BuildingBlock: UVAHIK_clean_linker_0, # of connection points: 2
#     Edge 126, Type (0, 0), BuildingBlock: UVAHIK_clean_linker_0, # of connection points: 2
#     Edge 127, Type (0, 0), BuildingBlock: UVAHIK_clean_linker_0, # of connection points: 2
#     Edge 128, Type (0, 0), BuildingBlock: UVAHIK_clean_linker_0, # of connection points: 2
#     Edge 129, Type (0, 0), BuildingBlock: UVAHIK_clean_linker_0, # of connection points: 2
#     Edge 130, Type (0, 0), BuildingBlock: UVAHIK_clean_linker_0, # of connection points: 2
#     Edge 131, Type (0, 0), BuildingBlock: UVAHIK_clean_linker_0, # of connection points: 2
#     Edge 132, Type (0, 0), BuildingBlock: UVAHIK_clean_linker_0, # of connection points: 2
#     Edge 133, Type (0, 0), BuildingBlock: UVAHIK_clean_linker_0, # of connection points: 2
#     Edge 134, Type (0, 0), BuildingBlock: UVAHIK_clean_linker_0, # of connection points: 2
#     Edge 135, Type (0, 0), BuildingBlock: UVAHIK_clean_linker_0, # of connection points: 2
#     Edge 136, Type (0, 0), BuildingBlock: UVAHIK_clean_linker_0, # of connection points: 2
#     Edge 137, Type (0, 0), BuildingBlock: UVAHIK_clean_linker_0, # of connection points: 2
#     Edge 138, Type (0, 0), BuildingBlock: UVAHIK_clean_linker_0, # of connection points: 2
#     Edge 139, Type (0, 0), BuildingBlock: UVAHIK_clean_linker_0, # of connection points: 2
#     Edge 140, Type (0, 0), BuildingBlock: UVAHIK_clean_linker_0, # of connection points: 2
#     Edge 141, Type (0, 0), BuildingBlock: UVAHIK_clean_linker_0, # of connection points: 2
#     Edge 142, Type (0, 0), BuildingBlock: UVAHIK_clean_linker_0, # of connection points: 2
#     Edge 143, Type (0, 0), BuildingBlock: UVAHIK_clean_linker_0, # of connection points: 2
# Relax obj value: 0.095
# Max RMSD: 0.223
# Mean RMSD: 0.216
data_MOF--net-ulj--node1-NAWXER_clean_sbu_0--edge1-UVAHIK_clean_linker_0
_symmetry_space_group_name_H-M    P1
_symmetry_Int_Tables_number       1
_symmetry_cell_setting            triclinic
loop_
_symmetry_equiv_pos_as_xyz
'x, y, z'
_cell_length_a     82.269265
_cell_length_b     82.261475
_cell_length_c     82.269311
_cell_angle_alpha  90.05717
_cell_angle_beta   89.974838
_cell_angle_gamma 90.035904
loop_
_atom_site_label
_atom_site_type_symbol
_atom_site_fract_x
_atom_site_fract_y
_atom_site_fract_z
_atom_type_partial_charge
C0 C 0.15358 0.28838 0.31399 0.0
C1 C 0.12173 0.25739 0.35449 0.0
O2 O 0.15657 0.28784 0.32919 0.0
Zn3 Zn 0.13857 0.27327 0.33518 0.0
O4 O 0.14145 0.28042 0.30831 0.0
Zn5 Zn 0.12255 0.26445 0.31605 0.0
O6 O 0.1027 0.27703 0.31127 0.0
O7 O 0.11792 0.28812 0.3304 0.0
O8 O 0.11695 0.25604 0.33974 0.0
O9 O 0.13412 0.26615 0.35765 0.0
O10 O 0.1462 0.25141 0.32362 0.0
O11 O 0.12873 0.24424 0.30462 0.0
C12 C 0.1052 0.28847 0.32144 0.0
C13 C 0.14191 0.24158 0.31232 0.0
C14 C 0.52001 0.65716 0.93075 0.0
C15 C 0.48847 0.6061 0.93324 0.0
O16 O 0.52707 0.64453 0.92512 0.0
Zn17 Zn 0.52296 0.61966 0.92063 0.0
O18 O 0.50561 0.65608 0.9364 0.0
Zn19 Zn 0.50296 0.63249 0.93273 0.0
O20 O 0.52051 0.62204 0.94852 0.0
O21 O 0.53962 0.60949 0.93448 0.0
O22 O 0.48351 0.61982 0.93851 0.0
O23 O 0.50247 0.60511 0.9265 0.0
O24 O 0.52305 0.61986 0.89651 0.0
O25 O 0.50181 0.63231 0.90716 0.0
C26 C 0.53361 0.61363 0.94817 0.0
C27 C 0.50978 0.62766 0.89467 0.0
C28 C 0.89989 0.2309 0.3203 0.0
C29 C 0.86366 0.27687 0.3076 0.0
O30 O 0.90237 0.24143 0.30921 0.0
Zn31 Zn 0.88306 0.25457 0.31361 0.0
O32 O 0.88739 0.23221 0.32955 0.0
Zn33 Zn 0.86695 0.24801 0.33338 0.0
O34 O 0.84841 0.23359 0.32874 0.0
O35 O 0.86418 0.23802 0.30744 0.0
O36 O 0.85941 0.26862 0.32004 0.0
O37 O 0.87668 0.27322 0.30006 0.0
O38 O 0.88957 0.2645 0.33669 0.0
O39 O 0.87142 0.25713 0.35503 0.0
C40 C 0.85175 0.23116 0.3138 0.0
C41 C 0.88449 0.26461 0.35141 0.0
C42 C 0.52994 0.90689 0.9448 0.0
C43 C 0.49543 0.85804 0.9382 0.0
O44 O 0.51683 0.90882 0.93666 0.0
Zn45 Zn 0.49615 0.89575 0.92842 0.0
O46 O 0.53331 0.89288 0.95053 0.0
Zn47 Zn 0.51383 0.88159 0.9422 0.0
O48 O 0.51807 0.88259 0.91687 0.0
O49 O 0.49876 0.89668 0.90463 0.0
O50 O 0.50927 0.8582 0.94514 0.0
O51 O 0.48975 0.8711 0.932 0.0
O52 O 0.47893 0.90707 0.9404 0.0
O53 O 0.49539 0.89309 0.9563 0.0
C54 C 0.5118 0.88837 0.9039 0.0
C55 C 0.48306 0.90244 0.9546 0.0
C56 C 0.13082 0.72278 0.1799 0.0
C57 C 0.17196 0.76505 0.18804 0.0
O58 O 0.12605 0.73361 0.19009 0.0
Zn59 Zn 0.13586 0.75576 0.20053 0.0
O60 O 0.14477 0.72418 0.17341 0.0
Zn61 Zn 0.15104 0.74436 0.1836 0.0
O62 O 0.15474 0.73731 0.20882 0.0
O63 O 0.13681 0.7509 0.22338 0.0
O64 O 0.17214 0.75326 0.17806 0.0
O65 O 0.15927 0.76737 0.19685 0.0
O66 O 0.12043 0.77195 0.19385 0.0
O67 O 0.13407 0.76173 0.1732 0.0
C68 C 0.14853 0.74089 0.2227 0.0
C69 C 0.12304 0.77136 0.17866 0.0
C70 C 0.0198 0.61643 0.10491 0.0
C71 C 0.98566 0.60239 0.05753 0.0
O72 O 0.02252 0.62461 0.09197 0.0
Zn73 Zn 0.01374 0.62731 0.06776 0.0
O74 O 1.00847 0.60583 0.10525 0.0
Zn75 Zn 1.00142 0.60895 0.08263 0.0
O76 O 0.0225 0.60089 0.07035 0.0
O77 O 0.03309 0.62049 0.05527 0.0
O78 O 0.98445 0.596 0.07159 0.0
O79 O 0.99579 0.61397 0.05532 0.0
O80 O 1.00485 0.64964 0.06849 0.0
O81 O 0.99178 0.63266 0.08461 0.0
C82 C 0.0334 0.60588 0.06047 0.0
C83 C 0.9939 0.64707 0.07915 0.0
C84 C 0.84395 0.75792 0.1839 0.0
C85 C 0.88446 0.80087 0.17746 0.0
O86 O 0.85649 0.75562 0.19289 0.0
Zn87 Zn 0.87963 0.76738 0.1972 0.0
O88 O 0.8438 0.76987 0.17413 0.0
Zn89 Zn 0.86462 0.77894 0.18023 0.0
O90 O 0.88218 0.76221 0.16969 0.0
O91 O 0.89535 0.75146 0.19033 0.0
O92 O 0.87068 0.79941 0.17067 0.0
O93 O 0.88924 0.78989 0.18745 0.0
O94 O 0.87818 0.77191 0.22016 0.0
O95 O 0.86035 0.78551 0.20552 0.0
C96 C 0.89315 0.75251 0.1751 0.0
C97 C 0.86636 0.78182 0.21945 0.0
C98 C 0.9965 0.90794 0.10669 0.0
C99 C 0.03202 0.92298 0.06114 0.0
O100 O 0.99448 0.89958 0.09375 0.0
Zn101 Zn 1.00429 0.89691 0.07018 0.0
O102 O 1.00758 0.91873 0.10734 0.0
Zn103 Zn 0.01568 0.91574 0.08507 0.0
O104 O 0.99575 0.92339 0.07085 0.0
O105 O 0.9854 0.90299 0.05669 0.0
O106 O 0.03215 0.92966 0.07513 0.0
O107 O 0.02266 0.91084 0.05839 0.0
O108 O 0.01366 0.87495 0.07118 0.0
O109 O 0.02707 0.89267 0.08623 0.0
C110 C 0.98537 0.91799 0.06064 0.0
C111 C 0.02536 0.87818 0.0808 0.0
C112 C 0.27419 0.13392 0.2725 0.0
C113 C 0.32133 0.10617 0.24831 0.0
O114 O 0.28784 0.13967 0.27741 0.0
Zn115 Zn 0.31339 0.13522 0.2735 0.0
O116 O 0.27416 0.12186 0.26282 0.0
Zn117 Zn 0.29767 0.11972 0.26051 0.0
O118 O 0.30585 0.11037 0.28384 0.0
O119 O 0.32125 0.12941 0.29473 0.0
O120 O 0.30633 0.10355 0.2456 0.0
O121 O 0.3254 0.11752 0.25823 0.0
O122 O 0.32042 0.15573 0.26448 0.0
O123 O 0.3036 0.14237 0.24847 0.0
C124 C 0.31492 0.11535 0.29555 0.0
C125 C 0.31229 0.15501 0.25138 0.0
C126 C 0.36278 0.44875 0.99502 0.0
C127 C 0.4114 0.45878 0.02867 0.0
O128 O 0.3752 0.44017 0.99132 0.0
Zn129 Zn 0.39977 0.43689 0.99838 0.0
O130 O 0.36367 0.45918 1.00643 0.0
Zn131 Zn 0.38647 0.45518 0.01239 0.0
O132 O 0.3989 0.46423 0.99202 0.0
O133 O 0.41227 0.44473 0.97939 0.0
O134 O 0.39812 0.4667 0.02985 0.0
O135 O 0.41293 0.4478 0.01776 0.0
O136 O 0.39898 0.41415 1.00572 0.0
O137 O 0.38564 0.43112 0.0218 0.0
C138 C 0.40828 0.45966 0.98051 0.0
C139 C 0.39059 0.41673 0.01851 0.0
C140 C 0.67342 0.39167 0.24028 0.0
C141 C 0.7162 0.35837 0.26594 0.0
O142 O 0.67163 0.37699 0.24492 0.0
Zn143 Zn 0.69392 0.37387 0.25294 0.0
O144 O 0.68737 0.39851 0.24147 0.0
Zn145 Zn 0.7114 0.39351 0.24985 0.0
O146 O 0.72475 0.39328 0.22992 0.0
O147 O 0.70706 0.37312 0.23104 0.0
O148 O 0.72064 0.37269 0.26185 0.0
O149 O 0.70173 0.35365 0.26307 0.0
O150 O 0.6949 0.39129 0.2722 0.0
O151 O 0.71324 0.41015 0.26676 0.0
C152 C 0.71838 0.38067 0.22358 0.0
C153 C 0.7023 0.40444 0.27615 0.0
C154 C 0.60644 0.06629 0.03661 0.0
C155 C 0.65524 0.07157 1.0015 0.0
O156 O 0.60464 0.07444 0.02348 0.0
Zn157 Zn 0.61775 0.08205 1.00253 0.0
O158 O 0.6203 0.06014 0.03988 0.0
Zn159 Zn 0.63176 0.06812 0.0203 0.0
O160 O 0.63129 0.09349 0.02433 0.0
O161 O 0.61771 0.10595 1.00482 0.0
O162 O 0.6551 0.06476 0.01541 0.0
O163 O 0.64222 0.0779 0.9959 0.0
O164 O 0.60597 0.06993 0.9856 0.0
O165 O 0.61983 0.05409 1.0022 0.0
C166 C 0.62594 0.10658 0.01792 0.0
C167 C 0.61038 0.05572 0.98994 0.0
C168 C 0.34942 0.89434 0.26528 0.0
C169 C 0.30967 0.86175 0.23423 0.0
O170 O 0.3527 0.88202 0.25647 0.0
Zn171 Zn 0.33029 0.87697 0.24966 0.0
O172 O 0.33458 0.89878 0.26686 0.0
Zn173 Zn 0.31093 0.89243 0.25866 0.0
O174 O 0.29974 0.88568 0.27882 0.0
O175 O 0.3191 0.86874 0.27142 0.0
O176 O 0.30359 0.87372 0.24215 0.0
O177 O 0.32484 0.85879 0.23519 0.0
O178 O 0.32455 0.89746 0.23476 0.0
O179 O 0.30533 0.91219 0.24641 0.0
C180 C 0.30772 0.87264 0.2813 0.0
C181 C 0.31519 0.90991 0.23467 0.0
C182 C 0.1452 0.42895 0.02062 0.0
C183 C 0.10759 0.44175 0.97563 0.0
O184 O 0.13051 0.42414 0.02229 0.0
Zn185 Zn 0.10781 0.42413 0.01035 0.0
O186 O 0.14911 0.43716 1.00806 0.0
Zn187 Zn 0.12749 0.4368 0.99754 0.0
O188 O 0.11346 0.45162 0.01307 0.0
O189 O 0.09383 0.43743 0.02459 0.0
O190 O 0.12226 0.44671 0.97636 0.0
O191 O 0.10155 0.43346 0.98729 0.0
O192 O 0.10523 0.40064 1.00678 0.0
O193 O 0.12506 0.41164 0.99225 0.0
C194 C 0.10109 0.45096 0.02248 0.0
C195 C 0.11661 0.39924 0.99634 0.0
C196 C 0.67104 0.63249 0.26967 0.0
C197 C 0.70785 0.66225 0.23334 0.0
O198 O 0.667 0.64418 0.26039 0.0
Zn199 Zn 0.68849 0.64752 0.25071 0.0
O200 O 0.68556 0.62687 0.26922 0.0
Zn201 Zn 0.70792 0.63087 0.25662 0.0
O202 O 0.72256 0.63612 0.27477 0.0
O203 O 0.70261 0.65382 0.27158 0.0
O204 O 0.71419 0.64965 0.23991 0.0
O205 O 0.69315 0.66597 0.23645 0.0
O206 O 0.69059 0.62712 0.23482 0.0
O207 O 0.7102 0.61104 0.24348 0.0
C208 C 0.71507 0.64884 0.27945 0.0
C209 C 0.69903 0.61412 0.23324 0.0
C210 C 0.91363 0.07796 0.97955 0.0
C211 C 0.86822 0.08401 0.01826 0.0
O212 O 0.9165 0.0875 0.9915 0.0
Zn213 Zn 0.90507 0.09599 0.01304 0.0
O214 O 0.8998 0.07109 0.97833 0.0
Zn215 Zn 0.8899 0.08045 0.99793 0.0
O216 O 0.88819 0.10567 0.9928 0.0
O217 O 0.90352 0.11963 0.00986 0.0
O218 O 0.86742 0.07621 1.00489 0.0
O219 O 0.8814 0.09127 0.02221 0.0
O220 O 0.91899 0.08561 0.02943 0.0
O221 O 0.90351 0.0682 0.01602 0.0
C222 C 0.89342 0.11934 0.99813 0.0
C223 C 0.91414 0.07109 0.02698 0.0
C224 C 0.25429 0.33526 0.18073 0.0
C225 C 0.29497 0.33911 0.13736 0.0
O226 O 0.25087 0.32614 0.16854 0.0
Zn227 Zn 0.26138 0.3203 0.14519 0.0
O228 O 0.26693 0.34412 0.18021 0.0
Zn229 Zn 0.2746 0.33727 0.15895 0.0
O230 O 0.25731 0.34773 0.14194 0.0
O231 O 0.24477 0.32711 0.13021 0.0
O232 O 0.29483 0.34617 0.1511 0.0
O233 O 0.28341 0.32924 0.13374 0.0
O234 O 0.26531 0.29725 0.14726 0.0
O235 O 0.28065 0.31207 0.16346 0.0
C236 C 0.24676 0.34235 0.13176 0.0
C237 C 0.2761 0.29807 0.15826 0.0
C238 C 0.26622 0.73942 0.38659 0.0
C239 C 0.23962 0.69401 0.41465 0.0
O240 O 0.26978 0.72566 0.38013 0.0
Zn241 Zn 0.26401 0.70032 0.38448 0.0
O242 O 0.25735 0.7397 0.39922 0.0
Zn243 Zn 0.25329 0.7165 0.4008 0.0
O244 O 0.27619 0.70597 0.40902 0.0
O245 O 0.28464 0.69048 0.38889 0.0
O246 O 0.23876 0.70912 0.41774 0.0
O247 O 0.24833 0.68917 0.40262 0.0
O248 O 0.25386 0.69423 0.36443 0.0
O249 O 0.23955 0.71196 0.37854 0.0
C250 C 0.28673 0.69606 0.40312 0.0
C251 C 0.2414 0.70322 0.36569 0.0
C252 C 0.94157 0.48957 0.85707 0.0
C253 C 0.9445 0.5237 0.90666 0.0
O254 O 0.93504 0.48355 0.86982 0.0
Zn255 Zn 0.92984 0.48964 0.89429 0.0
O256 O 0.94769 0.50381 0.8575 0.0
Zn257 Zn 0.94335 0.50814 0.88073 0.0
O258 O 0.95775 0.49002 0.89223 0.0
O259 O 0.94224 0.47294 0.90604 0.0
O260 O 0.95034 0.52776 0.89287 0.0
O261 O 0.9368 0.51025 0.90796 0.0
O262 O 0.9059 0.49117 0.89393 0.0
O263 O 0.91786 0.51094 0.88023 0.0
C264 C 0.95632 0.47758 0.90147 0.0
C265 C 0.90493 0.504 0.88532 0.0
C266 C 0.77353 0.82093 0.3625 0.0
C267 C 0.7287 0.82459 0.40157 0.0
O268 O 0.77609 0.81242 0.37533 0.0
Zn269 Zn 0.76356 0.80694 0.39784 0.0
O270 O 0.76055 0.82923 0.36144 0.0
Zn271 Zn 0.75104 0.82254 0.38189 0.0
O272 O 0.76606 0.83461 0.39983 0.0
O273 O 0.77824 0.81549 0.4141 0.0
O274 O 0.72962 0.8305 0.38734 0.0
O275 O 0.74033 0.81561 0.40683 0.0
O276 O 0.76092 0.78349 0.39615 0.0
O277 O 0.74728 0.79698 0.37751 0.0
C278 C 0.7757 0.83049 0.41139 0.0
C279 C 0.75186 0.7834 0.38365 0.0
C280 C 0.59197 0.53546 0.39019 0.0
C281 C 0.5883 0.49802 0.4359 0.0
O282 O 0.59709 0.53699 0.40466 0.0
Zn283 Zn 0.58984 0.51647 0.4127 0.0
O284 O 0.58402 0.5226 0.38621 0.0
Zn285 Zn 0.57642 0.5003 0.39859 0.0
O286 O 0.55308 0.50099 0.39764 0.0
O287 O 0.56357 0.51944 0.41401 0.0
O288 O 0.58064 0.49251 0.42346 0.0
O289 O 0.59581 0.51144 0.43478 0.0
O290 O 0.6043 0.49973 0.39823 0.0
O291 O 0.58679 0.48361 0.38593 0.0
C292 C 0.55106 0.51257 0.40764 0.0
C293 C 0.6014 0.48778 0.3886 0.0
C294 C 0.27361 0.69656 0.65235 0.0
C295 C 0.23273 0.68981 0.60876 0.0
O296 O 0.27295 0.70495 0.63935 0.0
Zn297 Zn 0.25352 0.6945 0.63 0.0
O298 O 0.26286 0.6856 0.65495 0.0
Zn299 Zn 0.24153 0.67562 0.64417 0.0
O300 O 0.24808 0.65287 0.64091 0.0
O301 O 0.2618 0.67026 0.62572 0.0
O302 O 0.2309 0.68043 0.62104 0.0
O303 O 0.24407 0.70037 0.60881 0.0
O304 O 0.23563 0.70301 0.64622 0.0
O305 O 0.22476 0.68274 0.65991 0.0
C306 C 0.259 0.65561 0.63025 0.0
C307 C 0.22564 0.69792 0.65698 0.0
C308 C 0.9031 0.50583 0.64058 0.0
C309 C 0.94351 0.53917 0.61143 0.0
O310 O 0.91798 0.50219 0.64339 0.0
Zn311 Zn 0.94183 0.50942 0.63664 0.0
O312 O 0.89987 0.51687 0.63023 0.0
Zn313 Zn 0.92243 0.5226 0.6246 0.0
O314 O 0.93102 0.50201 0.61155 0.0
O315 O 0.95096 0.49051 0.62522 0.0
O316 O 0.92819 0.53998 0.60927 0.0
O317 O 0.94946 0.52861 0.62114 0.0
O318 O 0.94991 0.51724 0.65771 0.0
O319 O 0.9308 0.53283 0.64697 0.0
C320 C 0.94193 0.49098 0.61266 0.0
C321 C 0.94097 0.52988 0.65837 0.0
C322 C 0.11895 0.01606 0.6231 0.0
C323 C 0.07314 0.97997 0.60953 0.0
O324 O 0.10514 0.0205 0.62868 0.0
Zn325 Zn 0.08055 0.01273 0.62939 0.0
O326 O 0.12019 1.00299 0.61487 0.0
Zn327 Zn 0.09706 0.99704 0.61575 0.0
O328 O 0.08606 0.01591 0.60218 0.0
O329 O 0.06975 0.03055 0.61764 0.0
O330 O 0.08775 0.978 0.60476 0.0
O331 O 0.06952 0.99208 0.6186 0.0
O332 O 0.07766 1.00838 0.65268 0.0
O333 O 0.09476 0.99139 0.64076 0.0
C334 C 0.07604 0.0277 0.60376 0.0
C335 C 0.08732 0.99631 0.65349 0.0
C336 C 0.67054 0.75516 0.81852 0.0
C337 C 0.62629 0.79479 0.81923 0.0
O338 O 0.65821 0.75012 0.81036 0.0
Zn339 Zn 0.63401 0.75904 0.8047 0.0
O340 O 0.66968 0.76874 0.82579 0.0
Zn341 Zn 0.64817 0.77481 0.81856 0.0
O342 O 0.63198 0.7591 0.83251 0.0
O343 O 0.61982 0.74333 0.8146 0.0
O344 O 0.64062 0.79601 0.82483 0.0
O345 O 0.62223 0.78186 0.81144 0.0
O346 O 0.63436 0.75944 0.7813 0.0
O347 O 0.65119 0.7771 0.79234 0.0
C348 C 0.62178 0.7477 0.82926 0.0
C349 C 0.64516 0.77033 0.77961 0.0
C350 C 0.98349 0.10461 0.4452 0.0
C351 C 0.01981 0.15239 0.44059 0.0
O352 O 0.99644 0.10246 0.43683 0.0
Zn353 Zn 0.01759 0.11512 0.42908 0.0
O354 O 0.98065 0.11856 0.45136 0.0
Zn355 Zn 1.00036 0.12952 0.4433 0.0
O356 O 0.99639 0.12977 0.4179 0.0
O357 O 0.01533 0.1155 0.40524 0.0
O358 O 1.00591 0.15251 0.44746 0.0
O359 O 0.02487 0.13935 0.43378 0.0
O360 O 0.03436 0.10278 0.44079 0.0
O361 O 0.01831 0.11704 0.45691 0.0
C362 C 1.00266 0.12438 0.40474 0.0
C363 C 0.03032 0.10733 0.45506 0.0
C364 C 0.42227 0.73631 0.80222 0.0
C365 C 0.37967 0.77852 0.79934 0.0
O366 O 0.42333 0.74964 0.79444 0.0
Zn367 Zn 0.40173 0.75818 0.79995 0.0
O368 O 0.40939 0.73305 0.81031 0.0
Zn369 Zn 0.3867 0.7439 0.81632 0.0
O370 O 0.37075 0.7289 0.80674 0.0
O371 O 0.38548 0.7417 0.78831 0.0
O372 O 0.37652 0.76639 0.80857 0.0
O373 O 0.39317 0.77897 0.79173 0.0
O374 O 0.40474 0.76352 0.82503 0.0
O375 O 0.38931 0.74741 0.83992 0.0
C376 C 0.37421 0.73156 0.79187 0.0
C377 C 0.39974 0.75883 0.83899 0.0
C378 C 0.02615 0.41453 0.44873 0.0
C379 C 0.98756 0.36863 0.44313 0.0
O380 O 0.01324 0.41749 0.44058 0.0
Zn381 Zn 0.99127 0.40616 0.43308 0.0
O382 O 0.0282 0.40041 0.45478 0.0
Zn383 Zn 1.00774 0.39071 0.44684 0.0
O384 O 0.01149 0.39056 0.42135 0.0
O385 O 0.99335 0.40615 0.40915 0.0
O386 O 1.00138 0.36786 0.45008 0.0
O387 O 0.98282 0.38207 0.43692 0.0
O388 O 0.97547 0.41933 0.44529 0.0
O389 O 0.99048 0.4037 0.4611 0.0
C390 C 1.00542 0.39648 0.40834 0.0
C391 C 0.97916 0.41425 0.45945 0.0
C392 C 0.65417 0.22864 0.72231 0.0
C393 C 0.63711 0.24982 0.66884 0.0
O394 O 0.65924 0.22343 0.70861 0.0
Zn395 Zn 0.64639 0.23806 0.69484 0.0
O396 O 0.64386 0.24029 0.72278 0.0
Zn397 Zn 0.63119 0.25625 0.70686 0.0
O398 O 0.60823 0.25064 0.71083 0.0
O399 O 0.62219 0.23058 0.69966 0.0
O400 O 0.6311 0.25717 0.68115 0.0
O401 O 0.64665 0.23779 0.67087 0.0
O402 O 0.65801 0.26038 0.69996 0.0
O403 O 0.6414 0.27731 0.71244 0.0
C404 C 0.60885 0.23612 0.70542 0.0
C405 C 0.65541 0.27422 0.70655 0.0
C406 C 0.51022 0.13468 0.61522 0.0
C407 C 0.4904 0.11591 0.56176 0.0
O408 O 0.51795 0.14029 0.60297 0.0
Zn409 Zn 0.51825 0.13867 0.57725 0.0
O410 O 0.49881 0.1244 0.61314 0.0
Zn411 Zn 0.49973 0.12398 0.5892 0.0
O412 O 0.52184 0.11167 0.58451 0.0
O413 O 0.53925 0.12816 0.57255 0.0
O414 O 0.4846 0.11162 0.57548 0.0
O415 O 0.50247 0.12574 0.56131 0.0
O416 O 0.51319 0.16151 0.57224 0.0
O417 O 0.49292 0.1483 0.5839 0.0
C418 C 0.53584 0.11412 0.57816 0.0
C419 C 0.49872 0.16139 0.57782 0.0
C420 C 0.38387 0.23677 0.71967 0.0
C421 C 0.41845 0.28516 0.71383 0.0
O422 O 0.3968 0.23969 0.72766 0.0
Zn423 Zn 0.40197 0.26052 0.71733 0.0
O424 O 0.37891 0.24695 0.70903 0.0
Zn425 Zn 0.38527 0.27009 0.69949 0.0
O426 O 0.38913 0.26527 0.67643 0.0
O427 O 0.40713 0.25402 0.69277 0.0
O428 O 0.40553 0.28538 0.70513 0.0
O429 O 0.42151 0.27289 0.72275 0.0
O430 O 0.38299 0.27528 0.72697 0.0
O431 O 0.36664 0.28286 0.70705 0.0
C432 C 0.40176 0.25653 0.67837 0.0
C433 C 0.37028 0.28278 0.7221 0.0
C434 C 0.55562 0.4145 0.58365 0.0
C435 C 0.51816 0.39044 0.62357 0.0
O436 O 0.54572 0.40408 0.57769 0.0
Zn437 Zn 0.52622 0.3889 0.58523 0.0
O438 O 0.55527 0.41771 0.59879 0.0
Zn439 Zn 0.53747 0.40293 0.60445 0.0
O440 O 0.54736 0.37918 0.60078 0.0
O441 O 0.5347 0.36713 0.58041 0.0
O442 O 0.52922 0.40085 0.62668 0.0
O443 O 0.51616 0.38554 0.60891 0.0
O444 O 0.50787 0.39861 0.57336 0.0
O445 O 0.5179 0.4147 0.59231 0.0
C446 C 0.5454 0.36674 0.59159 0.0
C447 C 0.50773 0.4122 0.5808 0.0
C448 C 0.81714 0.66561 0.79289 0.0
C449 C 0.8588 0.63723 0.76038 0.0
O450 O 0.83232 0.66872 0.79309 0.0
Zn451 Zn 0.83891 0.6519 0.77747 0.0
O452 O 0.81167 0.65428 0.78373 0.0
Zn453 Zn 0.82009 0.63732 0.76608 0.0
O454 O 0.81467 0.6162 0.77587 0.0
O455 O 0.83315 0.62984 0.78977 0.0
O456 O 0.84412 0.6328 0.75767 0.0
O457 O 0.86166 0.64797 0.77118 0.0
O458 O 0.8289 0.66188 0.75584 0.0
O459 O 0.80945 0.64595 0.74646 0.0
C460 C 0.82412 0.61725 0.78809 0.0
C461 C 0.81786 0.65891 0.74528 0.0
C462 C 0.86972 0.93469 0.50846 0.0
C463 C 0.91974 0.93671 0.54129 0.0
O464 O 0.88248 0.92907 0.5016 0.0
Zn465 Zn 0.90734 0.92469 0.50622 0.0
O466 O 0.87062 0.94056 0.52279 0.0
Zn467 Zn 0.89408 0.93685 0.52572 0.0
O468 O 0.90487 0.95266 0.50846 0.0
O469 O 0.918 0.93855 0.48983 0.0
O470 O 0.90609 0.94276 0.54539 0.0
O471 O 0.92127 0.92977 0.52743 0.0
O472 O 0.90685 0.90067 0.50561 0.0
O473 O 0.89391 0.91112 0.52669 0.0
C474 C 0.91364 0.95227 0.49561 0.0
C475 C 0.8986 0.8987 0.51859 0.0
C476 C 0.19268 0.83931 0.75166 0.0
C477 C 0.19062 0.88197 0.79278 0.0
O478 O 0.20077 0.85185 0.747 0.0
Zn479 Zn 0.20644 0.87574 0.7573 0.0
O480 O 0.18543 0.83971 0.76526 0.0
Zn481 Zn 0.19221 0.86104 0.77185 0.0
O482 O 0.17869 0.87758 0.7559 0.0
O483 O 0.19746 0.8907 0.74204 0.0
O484 O 0.18484 0.86767 0.7929 0.0
O485 O 0.19907 0.88662 0.78048 0.0
O486 O 0.22971 0.8755 0.75817 0.0
O487 O 0.21846 0.85798 0.77496 0.0
C488 C 0.18257 0.88838 0.74528 0.0
C489 C 0.23128 0.86436 0.76869 0.0
C490 C 0.11612 0.61991 0.51341 0.0
C491 C 0.10381 0.56471 0.49298 0.0
O492 O 0.12019 0.60827 0.52284 0.0
Zn493 Zn 0.12043 0.5825 0.52357 0.0
O494 O 0.10898 0.61682 0.5 0.0
Zn495 Zn 0.10887 0.59297 0.50238 0.0
O496 O 0.0931 0.58894 0.52261 0.0
O497 O 0.10707 0.57779 0.5426 0.0
O498 O 0.1 0.57801 0.48604 0.0
O499 O 0.11146 0.56515 0.50654 0.0
O500 O 0.14414 0.57969 0.52324 0.0
O501 O 0.13428 0.58952 0.50031 0.0
C502 C 0.09363 0.58303 0.53701 0.0
C503 C 0.14642 0.58501 0.50888 0.0
C504 C 0.85516 0.38365 0.76019 0.0
C505 C 0.80329 0.36136 0.73965 0.0
O506 O 0.85399 0.37295 0.74905 0.0
Zn507 Zn 0.83005 0.37091 0.74944 0.0
O508 O 0.84241 0.38853 0.76762 0.0
Zn509 Zn 0.81695 0.38509 0.76768 0.0
O510 O 0.81248 0.37419 0.78863 0.0
O511 O 0.8255 0.35837 0.7714 0.0
O512 O 0.80215 0.37127 0.75162 0.0
O513 O 0.81731 0.3576 0.73419 0.0
O514 O 0.82313 0.39474 0.74222 0.0
O515 O 0.8105 0.40751 0.76222 0.0
C516 C 0.81874 0.36042 0.78525 0.0
C517 C 0.81611 0.40748 0.74775 0.0
C518 C 0.62927 0.91306 0.50838 0.0
C519 C 0.61564 0.96491 0.53558 0.0
O520 O 0.63497 0.92587 0.50171 0.0
Zn521 Zn 0.63618 0.95126 0.50511 0.0
O522 O 0.62114 0.91413 0.52154 0.0
Zn523 Zn 0.62207 0.93809 0.52346 0.0
O524 O 0.60894 0.94556 0.50261 0.0
O525 O 0.62473 0.95878 0.48542 0.0
O526 O 0.61093 0.95091 0.5403 0.0
O527 O 0.62492 0.96604 0.52312 0.0
O528 O 0.65966 0.95408 0.50936 0.0
O529 O 0.64677 0.94168 0.52939 0.0
C530 C 0.61075 0.95317 0.48917 0.0
C531 C 0.65986 0.94754 0.5234 0.0
C532 C 0.23588 0.15195 0.74574 0.0
C533 C 0.18671 0.13047 0.77059 0.0
O534 O 0.22317 0.1585 0.73946 0.0
Zn535 Zn 0.1969 0.15557 0.7421 0.0
O536 O 0.23419 0.14076 0.7562 0.0
Zn537 Zn 0.2109 0.14127 0.75739 0.0
O538 O 0.20327 0.12922 0.73512 0.0
O539 O 0.18994 0.14774 0.7212 0.0
O540 O 0.20155 0.12795 0.77386 0.0
O541 O 0.18304 0.1404 0.75909 0.0
O542 O 0.19047 0.1774 0.74759 0.0
O543 O 0.20603 0.1659 0.76609 0.0
C544 C 0.1953 0.13333 0.72235 0.0
C545 C 0.19813 0.17836 0.76095 0.0
C546 C 0.36016 0.56144 0.52843 0.0
C547 C 0.40105 0.55345 0.48526 0.0
O548 O 0.3737 0.56868 0.53088 0.0
Zn549 Zn 0.39627 0.57263 0.5192 0.0
O550 O 0.35808 0.55327 0.51544 0.0
Zn551 Zn 0.37983 0.55669 0.50601 0.0
O552 O 0.396 0.54478 0.5224 0.0
O553 O 0.4118 0.56285 0.53438 0.0
O554 O 0.38712 0.54664 0.48556 0.0
O555 O 0.40521 0.56304 0.49682 0.0
O556 O 0.39546 0.59609 0.51454 0.0
O557 O 0.37896 0.58157 0.49907 0.0
C558 C 0.40766 0.54807 0.5322 0.0
C559 C 0.38515 0.59529 0.50302 0.0
C560 C 0.75641 0.84432 0.61712 0.0
C561 C 0.78272 0.79736 0.64366 0.0
O562 O 0.76711 0.84522 0.62827 0.0
Zn563 Zn 0.77074 0.82168 0.63073 0.0
O564 O 0.75222 0.83038 0.6116 0.0
Zn565 Zn 0.75774 0.80531 0.61465 0.0
O566 O 0.73663 0.79654 0.62174 0.0
O567 O 0.74776 0.81339 0.6394 0.0
O568 O 0.77334 0.79376 0.63177 0.0
O569 O 0.78492 0.81224 0.64743 0.0
O570 O 0.78313 0.81612 0.60869 0.0
O571 O 0.76774 0.80004 0.59363 0.0
C572 C 0.73605 0.80396 0.63535 0.0
C573 C 0.78084 0.80805 0.59559 0.0
C574 C 0.77225 0.20477 0.921 0.0
C575 C 0.73158 0.20466 0.87685 0.0
O576 O 0.75855 0.21195 0.92171 0.0
Zn577 Zn 0.7508 0.2055 0.89994 0.0
O578 O 0.77609 0.19654 0.90839 0.0
Zn579 Zn 0.76656 0.18948 0.88558 0.0
O580 O 0.78214 0.20011 0.87046 0.0
O581 O 0.76743 0.21753 0.88454 0.0
O582 O 0.74415 0.19581 0.87441 0.0
O583 O 0.7303 0.21275 0.89002 0.0
O584 O 0.74659 0.18035 0.9033 0.0
O585 O 0.76399 0.16574 0.88902 0.0
C586 C 0.77847 0.21479 0.87395 0.0
C587 C 0.75211 0.16647 0.89896 0.0
C588 C 0.44133 0.99828 0.36538 0.0
C589 C 0.4479 0.03603 0.41188 0.0
O590 O 0.43562 0.99337 0.37897 0.0
Zn591 Zn 0.43253 1.00104 0.40325 0.0
O592 O 0.44798 0.01226 0.36452 0.0
Zn593 Zn 0.4455 0.01833 0.38766 0.0
O594 O 0.46038 1.0012 0.39981 0.0
O595 O 0.4456 0.98505 0.41532 0.0
O596 O 0.45354 0.03865 0.39766 0.0
O597 O 0.44016 0.02284 0.41473 0.0
O598 O 0.40864 1.00294 0.40445 0.0
O599 O 0.42011 0.0219 0.38925 0.0
C600 C 0.45947 0.98944 0.40995 0.0
C601 C 0.40741 0.01561 0.39563 0.0
C602 C 0.27916 0.31839 0.86565 0.0
C603 C 0.23188 0.32594 0.9016 0.0
O604 O 0.27596 0.31008 0.8783 0.0
Zn605 Zn 0.25632 0.32185 0.88483 0.0
O606 O 0.26992 0.33023 0.86164 0.0
Zn607 Zn 0.24803 0.34159 0.86937 0.0
O608 O 0.25524 0.36379 0.87486 0.0
O609 O 0.26465 0.34528 0.89178 0.0
O610 O 0.23255 0.33573 0.88948 0.0
O611 O 0.24332 0.31574 0.9038 0.0
O612 O 0.24066 0.31502 0.86562 0.0
O613 O 0.2339 0.33621 0.85064 0.0
C614 C 0.26351 0.36019 0.88745 0.0
C615 C 0.23304 0.32098 0.85345 0.0
C616 C 0.08525 0.02935 0.86924 0.0
C617 C 0.06263 0.98734 0.90543 0.0
O618 O 0.09173 0.02848 0.88335 0.0
Zn619 Zn 0.09014 0.01503 0.90512 0.0
O620 O 0.07358 0.01981 0.86567 0.0
Zn621 Zn 0.07288 1.00782 0.88639 0.0
O622 O 0.06396 0.02521 0.90327 0.0
O623 O 0.0829 0.03087 0.92145 0.0
O624 O 0.05742 0.99022 0.89112 0.0
O625 O 0.07445 0.99556 0.91128 0.0
O626 O 0.11152 1.00454 0.90553 0.0
O627 O 0.09539 0.99489 0.88629 0.0
C628 C 0.06853 0.03281 0.91603 0.0
C629 C 0.10901 0.99468 0.89384 0.0
C630 C 0.77411 0.18468 0.11881 0.0
C631 C 0.7512 0.23509 0.13979 0.0
O632 O 0.76272 0.18166 0.12907 0.0
Zn633 Zn 0.74657 0.19625 0.14433 0.0
O634 O 0.77808 0.19933 0.11612 0.0
Zn635 Zn 0.76222 0.20956 0.12973 0.0
O636 O 0.77094 0.20508 0.1544 0.0
O637 O 0.75223 0.18998 0.16616 0.0
O638 O 0.76185 0.23285 0.12887 0.0
O639 O 0.74443 0.22269 0.14648 0.0
O640 O 0.72546 0.18956 0.1369 0.0
O641 O 0.73946 0.20243 0.11809 0.0
C642 C 0.76572 0.19743 0.16698 0.0
C643 C 0.72657 0.19472 0.12242 0.0
C644 C 0.39729 1.00408 0.12171 0.0
C645 C 0.45221 0.0254 0.10956 0.0
O646 O 0.40912 0.99583 0.12745 0.0
Zn647 Zn 0.43482 0.99618 0.12894 0.0
O648 O 0.40007 0.01686 0.11341 0.0
Zn649 Zn 0.42402 0.01579 0.1148 0.0
O650 O 0.4295 0.99433 0.10149 0.0
O651 O 0.44053 0.97594 0.11759 0.0
O652 O 0.43884 0.03156 0.10473 0.0
O653 O 0.45188 0.01271 0.11858 0.0
O654 O 0.43686 0.99945 0.15261 0.0
O655 O 0.42655 0.02066 0.13985 0.0
C656 C 0.4357 0.9802 0.10349 0.0
C657 C 0.43102 0.0138 0.15305 0.0
C658 C 0.56709 0.49078 0.09922 0.0
C659 C 0.61768 0.51693 0.11816 0.0
O660 O 0.56528 0.50216 0.10968 0.0
Zn661 Zn 0.57909 0.51946 0.1229 0.0
O662 O 0.5813 0.48704 0.09427 0.0
Zn663 Zn 0.59326 0.5028 0.10772 0.0
O664 O 0.58838 0.49439 0.13155 0.0
O665 O 0.57503 0.51299 0.14561 0.0
O666 O 0.61718 0.50478 0.10855 0.0
O667 O 0.60449 0.52303 0.12366 0.0
O668 O 0.57149 0.53985 0.11281 0.0
O669 O 0.5861 0.52467 0.09622 0.0
C670 C 0.58172 0.49903 0.14481 0.0
C671 C 0.57793 0.53763 0.09887 0.0
C672 C 0.25009 0.33952 0.21078 0.0
C673 C 0.24401 0.33457 0.19557 0.0
C674 C 0.24079 0.33744 0.22493 0.0
C675 C 0.19876 0.33184 0.23946 0.0
H676 H 0.21784 0.3086 0.27572 0.0
C677 C 0.15928 0.29865 0.28602 0.0
C678 C 0.16414 0.29738 0.30237 0.0
C679 C 0.16937 0.30582 0.27445 0.0
C680 C 0.21238 0.3154 0.26588 0.0
H681 H 0.22321 0.32403 0.18327 0.0
H682 H 0.20692 0.32077 0.20783 0.0
H683 H 0.23486 0.31652 0.25266 0.0
H684 H 0.18341 0.3031 0.31938 0.0
H685 H 0.20112 0.31592 0.29905 0.0
H686 H 0.1763 0.33073 0.25247 0.0
C687 C 0.21889 0.32617 0.20885 0.0
C688 C 0.22214 0.31989 0.25263 0.0
C689 C 0.22826 0.32797 0.19478 0.0
C690 C 0.17929 0.30389 0.30691 0.0
C691 C 0.18947 0.31113 0.29523 0.0
C692 C 0.18906 0.32752 0.25273 0.0
C693 C 0.22511 0.33068 0.22412 0.0
C694 C 0.21533 0.32776 0.23908 0.0
C695 C 0.18466 0.31207 0.2788 0.0
C696 C 0.1956 0.31879 0.26591 0.0
H697 H 0.26221 0.34455 0.21182 0.0
H698 H 0.24587 0.3411 0.23652 0.0
H699 H 0.19321 0.33815 0.22932 0.0
H700 H 0.14773 0.29379 0.282 0.0
H701 H 0.16531 0.30598 0.26193 0.0
C702 C 0.5633 0.56101 0.08522 0.0
C703 C 0.57547 0.54903 0.08507 0.0
C704 C 0.55999 0.57012 0.07115 0.0
C705 C 0.57656 0.58029 0.02982 0.0
H706 H 0.53119 0.58683 0.01908 0.0
C707 C 0.55341 0.59687 0.96478 0.0
C708 C 0.5407 0.60827 0.96392 0.0
C709 C 0.55873 0.591 0.97991 0.0
C710 C 0.54394 0.58525 0.02196 0.0
H711 H 0.5942 0.53783 0.07019 0.0
H712 H 0.58832 0.5533 0.04595 0.0
H713 H 0.53843 0.57504 0.04522 0.0
H714 H 0.52416 0.6229 0.97845 0.0
H715 H 0.53341 0.61275 1.00448 0.0
H716 H 0.58197 0.59015 1.00628 0.0
C717 C 0.58138 0.55592 0.05683 0.0
C718 C 0.54811 0.57856 0.03702 0.0
C719 C 0.58467 0.54689 0.07079 0.0
C720 C 0.53386 0.61401 0.97854 0.0
C721 C 0.5391 0.60812 0.99354 0.0
C722 C 0.57238 0.58688 0.01469 0.0
C723 C 0.56882 0.56746 0.05667 0.0
C724 C 0.56447 0.57586 0.04115 0.0
C725 C 0.55139 0.59634 0.99446 0.0
C726 C 0.55601 0.58939 0.01054 0.0
H727 H 0.55599 0.56297 0.096 0.0
H728 H 0.55037 0.57908 0.07156 0.0
H729 H 0.58931 0.57865 0.03263 0.0
H730 H 0.55893 0.59218 0.95378 0.0
H731 H 0.56822 0.58188 0.98021 0.0
C732 C 0.84803 0.21139 0.29136 0.0
C733 C 0.841 0.22185 0.30286 0.0
C734 C 0.83911 0.20593 0.27798 0.0
C735 C 0.79776 0.20507 0.25889 0.0
H736 H 0.82317 0.20574 0.21918 0.0
C737 C 0.76966 0.18897 0.19611 0.0
C738 C 0.77475 0.19817 0.18263 0.0
C739 C 0.77755 0.19043 0.21114 0.0
C740 C 0.81582 0.20561 0.23009 0.0
H741 H 0.81891 0.23428 0.30982 0.0
H742 H 0.80328 0.22506 0.28622 0.0
H743 H 0.83646 0.2104 0.24503 0.0
H744 H 0.79222 0.21614 0.17445 0.0
H745 H 0.80576 0.21891 0.2006 0.0
H746 H 0.77697 0.20103 0.24372 0.0
C747 C 0.8156 0.22071 0.28768 0.0
C748 C 0.82352 0.20801 0.24505 0.0
C749 C 0.82451 0.22596 0.30128 0.0
C750 C 0.78805 0.20874 0.18451 0.0
C751 C 0.79587 0.21028 0.19955 0.0
C752 C 0.79002 0.20276 0.24386 0.0
C753 C 0.82301 0.21114 0.27551 0.0
C754 C 0.81463 0.20781 0.25969 0.0
C755 C 0.7907 0.2012 0.21312 0.0
C756 C 0.79893 0.2031 0.22923 0.0
H757 H 0.86076 0.2081 0.29228 0.0
H758 H 0.84511 0.19817 0.2692 0.0
H759 H 0.79051 0.20472 0.26986 0.0
H760 H 0.75948 0.18067 0.19511 0.0
H761 H 0.77336 0.18303 0.22119 0.0
C762 C 0.46329 0.92109 0.96895 0.0
C763 C 0.47467 0.90837 0.96947 0.0
C764 C 0.45692 0.92759 0.9834 0.0
C765 C 0.45314 0.91979 0.02811 0.0
H766 H 0.45046 0.96674 0.03069 0.0
C767 C 0.44788 0.95589 0.08907 0.0
C768 C 0.43773 0.96963 0.08897 0.0
C769 C 0.4509 0.94726 0.07462 0.0
C770 C 0.45094 0.95359 0.03015 0.0
H771 H 0.48773 0.8921 0.98563 0.0
H772 H 0.47691 0.90348 0.01052 0.0
H773 H 0.45767 0.95391 1.00503 0.0
H774 H 0.4221 0.98449 0.07375 0.0
H775 H 0.42725 0.96951 0.0489 0.0
H776 H 0.44675 0.91959 0.05341 0.0
C777 C 0.4727 0.90839 0.99906 0.0
C778 C 0.45502 0.94622 0.01538 0.0
C779 C 0.47903 0.90193 0.98471 0.0
C780 C 0.43017 0.97411 0.07429 0.0
C781 C 0.43318 0.96555 0.05996 0.0
C782 C 0.44913 0.92719 0.04293 0.0
C783 C 0.46177 0.92149 0.99866 0.0
C784 C 0.45627 0.92922 0.01415 0.0
C785 C 0.44385 0.95225 0.05983 0.0
C786 C 0.44802 0.94419 0.04413 0.0
H787 H 0.45965 0.92632 0.95744 0.0
H788 H 0.44834 0.93753 0.98261 0.0
H789 H 0.45378 0.90665 0.02759 0.0
H790 H 0.4539 0.95213 0.10015 0.0
H791 H 0.45923 0.93708 0.07492 0.0
C792 C 0.21642 0.71515 0.3527 0.0
C793 C 0.22977 0.7045 0.35195 0.0
C794 C 0.20637 0.71741 0.33915 0.0
C795 C 0.20741 0.71428 0.29451 0.0
H796 H 0.16062 0.71897 0.29754 0.0
C797 C 0.16836 0.72274 0.23709 0.0
C798 C 0.15583 0.73433 0.23784 0.0
C799 C 0.17631 0.71767 0.25122 0.0
C800 C 0.17369 0.71783 0.29649 0.0
H801 H 0.24261 0.68741 0.33647 0.0
H802 H 0.22509 0.69129 0.31295 0.0
H803 H 0.17639 0.71281 0.32193 0.0
H804 H 0.14155 0.74932 0.25417 0.0
H805 H 0.15558 0.74071 0.27877 0.0
H806 H 0.20488 0.71963 0.26923 0.0
C807 C 0.22251 0.69807 0.32395 0.0
C808 C 0.18272 0.71428 0.31049 0.0
C809 C 0.23251 0.69577 0.33749 0.0
C810 C 0.15111 0.74035 0.25314 0.0
C811 C 0.15913 0.73533 0.26728 0.0
C812 C 0.19842 0.7179 0.28057 0.0
C813 C 0.20948 0.70911 0.32451 0.0
C814 C 0.1997 0.71248 0.30966 0.0
C815 C 0.17202 0.72413 0.26648 0.0
C816 C 0.18144 0.71975 0.28135 0.0
H817 H 0.21395 0.72208 0.36364 0.0
H818 H 0.19651 0.72608 0.33996 0.0
H819 H 0.2205 0.71329 0.29348 0.0
H820 H 0.17224 0.71776 0.22552 0.0
H821 H 0.18594 0.70877 0.25015 0.0
C822 C 0.97795 0.60428 0.02824 0.0
C823 C 0.97713 0.59573 0.04304 0.0
C824 C 0.97262 0.59724 0.01375 0.0
C825 C 0.96545 0.55675 0.99533 0.0
H826 H 0.94834 0.58221 0.95953 0.0
C827 C 0.94187 0.52705 0.93671 0.0
C828 C 0.94708 0.53346 0.9217 0.0
C829 C 0.94482 0.53525 0.95124 0.0
C830 C 0.95326 0.57499 0.96937 0.0
H831 H 0.96913 0.5733 0.05424 0.0
H832 H 0.95932 0.56107 0.02891 0.0
H833 H 0.95308 0.59514 0.98586 0.0
H834 H 0.95922 0.5539 0.91035 0.0
H835 H 0.96422 0.5685 0.93602 0.0
H836 H 0.96536 0.53657 0.97888 0.0
C837 C 0.96451 0.57316 0.0285 0.0
C838 C 0.95597 0.58237 0.98451 0.0
C839 C 0.96994 0.58023 0.04309 0.0
C840 C 0.95504 0.54861 0.92165 0.0
C841 C 0.95786 0.55696 0.93634 0.0
C842 C 0.96258 0.54936 0.98028 0.0
C843 C 0.96617 0.58143 0.01355 0.0
C844 C 0.96219 0.57338 0.99771 0.0
C845 C 0.95298 0.55021 0.95131 0.0
C846 C 0.95648 0.55839 0.96711 0.0
H847 H 0.98337 0.61628 0.02769 0.0
H848 H 0.97431 0.60399 1.00258 0.0
H849 H 0.97059 0.54946 1.005 0.0
H850 H 0.93566 0.51546 0.93735 0.0
H851 H 0.94067 0.52983 0.9625 0.0
C852 C 0.86453 0.78336 0.24993 0.0
C853 C 0.85885 0.78826 0.23457 0.0
C854 C 0.85662 0.78841 0.26413 0.0
C855 C 0.82726 0.81865 0.28051 0.0
H856 H 0.8199 0.7858 0.31345 0.0
C857 C 0.78116 0.82676 0.33343 0.0
C858 C 0.78503 0.81987 0.34859 0.0
C859 C 0.79123 0.82421 0.31992 0.0
C860 C 0.82205 0.79522 0.30453 0.0
H861 H 0.8406 0.80272 0.22221 0.0
H862 H 0.82679 0.81142 0.24695 0.0
H863 H 0.83559 0.77904 0.28932 0.0
H864 H 0.80293 0.8055 0.36153 0.0
H865 H 0.82055 0.80133 0.33813 0.0
H866 H 0.81354 0.83479 0.29571 0.0
C867 C 0.83744 0.80378 0.24803 0.0
C868 C 0.83107 0.79133 0.29065 0.0
C869 C 0.84534 0.79871 0.23382 0.0
C870 C 0.7995 0.8109 0.35003 0.0
C871 C 0.80957 0.8084 0.33656 0.0
C872 C 0.81824 0.82256 0.29444 0.0
C873 C 0.84284 0.7985 0.26336 0.0
C874 C 0.83374 0.80296 0.27842 0.0
C875 C 0.80542 0.81474 0.32124 0.0
C876 C 0.81546 0.81087 0.30661 0.0
H877 H 0.87493 0.77537 0.25099 0.0
H878 H 0.86126 0.78431 0.27574 0.0
H879 H 0.82924 0.82796 0.27144 0.0
H880 H 0.77009 0.83369 0.33186 0.0
H881 H 0.78756 0.82918 0.3083 0.0
C882 C 0.04222 0.98338 0.92688 0.0
C883 C 0.05417 0.97653 0.91681 0.0
C884 C 0.03886 0.97658 0.94209 0.0
C885 C 0.04862 0.9688 0.9772 0.0
H886 H 0.04098 0.92353 0.98756 0.0
C887 C 0.03628 0.94672 0.04298 0.0
C888 C 0.03987 0.93054 0.04694 0.0
C889 C 0.03888 0.95247 0.02717 0.0
C890 C 0.04347 0.93618 0.98496 0.0
H891 H 0.07139 0.95685 0.91425 0.0
H892 H 0.06488 0.94438 0.9405 0.0
H893 H 0.04187 0.9321 0.95922 0.0
H894 H 0.05002 0.90801 0.03797 0.0
H895 H 0.05579 0.9183 0.01081 0.0
H896 H 0.05092 0.97292 1.00275 0.0
C897 C 0.05814 0.95501 0.93667 0.0
C898 C 0.04377 0.94108 0.96867 0.0
C899 C 0.06172 0.96201 0.92157 0.0
C900 C 0.0473 0.9206 0.03524 0.0
C901 C 0.05026 0.92643 0.01956 0.0
C902 C 0.04864 0.96387 0.99347 0.0
C903 C 0.04728 0.96271 0.9474 0.0
C904 C 0.04625 0.95746 0.96464 0.0
C905 C 0.04538 0.94221 0.01505 0.0
C906 C 0.04602 0.94747 0.99763 0.0
H907 H 0.03665 0.99488 0.92369 0.0
H908 H 0.03038 0.98271 0.9501 0.0
H909 H 0.05088 0.98147 0.97442 0.0
H910 H 0.03013 0.95448 0.05167 0.0
H911 H 0.03479 0.96462 0.02425 0.0
C912 C 0.24432 0.13978 0.26846 0.0
C913 C 0.25884 0.14229 0.27716 0.0
C914 C 0.23047 0.14924 0.27174 0.0
C915 C 0.21939 0.18897 0.29035 0.0
H916 H 0.17517 0.17265 0.28914 0.0
C917 C 0.1672 0.22561 0.31746 0.0
C918 C 0.15312 0.228 0.30804 0.0
C919 C 0.17889 0.2142 0.31296 0.0
C920 C 0.18745 0.17739 0.28935 0.0
H921 H 0.26986 0.1561 0.29672 0.0
H922 H 0.24581 0.17212 0.30273 0.0
H923 H 0.19791 0.15428 0.28311 0.0
H924 H 0.14006 0.21956 0.28676 0.0
H925 H 0.16066 0.19929 0.27892 0.0
H926 H 0.20908 0.21192 0.29687 0.0
C927 C 0.24516 0.16326 0.29301 0.0
C928 C 0.20049 0.16688 0.28589 0.0
C929 C 0.25896 0.15394 0.28965 0.0
C930 C 0.15075 0.21806 0.29428 0.0
C931 C 0.16253 0.20646 0.28981 0.0
C932 C 0.20645 0.19936 0.2939 0.0
C933 C 0.23083 0.16137 0.28384 0.0
C934 C 0.21668 0.17248 0.28664 0.0
C935 C 0.17692 0.20471 0.29892 0.0
C936 C 0.19034 0.19367 0.29372 0.0
H937 H 0.24382 0.13094 0.25871 0.0
H938 H 0.21971 0.14744 0.2644 0.0
H939 H 0.23159 0.19392 0.29056 0.0
H940 H 0.16945 0.23285 0.32824 0.0
H941 H 0.18966 0.21295 0.32043 0.0
C942 C 0.48613 0.57589 0.93127 0.0
C943 C 0.47895 0.59088 0.93542 0.0
C944 C 0.47797 0.56127 0.9339 0.0
C945 C 0.43778 0.54286 0.93964 0.0
H946 H 0.46192 0.50844 0.96094 0.0
C947 C 0.40673 0.48733 0.96856 0.0
C948 C 0.41506 0.47246 0.96981 0.0
C949 C 0.41413 0.50091 0.96162 0.0
C950 C 0.45507 0.51774 0.95466 0.0
H951 H 0.45729 0.60214 0.94531 0.0
H952 H 0.44282 0.57637 0.94977 0.0
H953 H 0.47525 0.53418 0.95498 0.0
H954 H 0.43735 0.45988 0.96371 0.0
H955 H 0.45029 0.48364 0.95113 0.0
H956 H 0.41762 0.52643 0.93921 0.0
C957 C 0.45488 0.5761 0.94448 0.0
C958 C 0.46269 0.53258 0.95136 0.0
C959 C 0.46316 0.59084 0.94198 0.0
C960 C 0.43061 0.47116 0.96289 0.0
C961 C 0.43808 0.48484 0.95589 0.0
C962 C 0.43019 0.52795 0.94279 0.0
C963 C 0.46232 0.56115 0.94065 0.0
C964 C 0.4541 0.54537 0.94397 0.0
C965 C 0.4301 0.50004 0.95564 0.0
C966 C 0.43866 0.51524 0.95055 0.0
H967 H 0.49825 0.57536 0.92617 0.0
H968 H 0.48394 0.55 0.93062 0.0
H969 H 0.43093 0.55239 0.9337 0.0
H970 H 0.39468 0.48873 0.97371 0.0
H971 H 0.40758 0.51232 0.96185 0.0
C972 C 0.8459 0.28724 0.28528 0.0
C973 C 0.85187 0.28879 0.30121 0.0
C974 C 0.83154 0.2952 0.28066 0.0
C975 C 0.80363 0.32855 0.29067 0.0
H976 H 0.76925 0.30009 0.27544 0.0
C977 C 0.7384 0.35272 0.28553 0.0
C978 C 0.72878 0.34742 0.2725 0.0
C979 C 0.75296 0.34481 0.28932 0.0
C980 C 0.77871 0.30832 0.27943 0.0
H981 H 0.84803 0.30039 0.32451 0.0
H982 H 0.82351 0.31499 0.3162 0.0
H983 H 0.79653 0.28925 0.27978 0.0
H984 H 0.72663 0.3296 0.2533 0.0
H985 H 0.75229 0.316 0.25948 0.0
H986 H 0.78622 0.34774 0.28992 0.0
C987 C 0.82976 0.3075 0.30734 0.0
C988 C 0.79437 0.30206 0.28192 0.0
C989 C 0.84384 0.29924 0.31207 0.0
C990 C 0.73364 0.33364 0.26369 0.0
C991 C 0.74844 0.32592 0.26723 0.0
C992 C 0.78809 0.33488 0.2879 0.0
C993 C 0.82313 0.30512 0.29178 0.0
C994 C 0.80694 0.31208 0.28774 0.0
C995 C 0.75858 0.33171 0.27981 0.0
C996 C 0.77527 0.32483 0.28247 0.0
H997 H 0.85164 0.27894 0.2768 0.0
H998 H 0.82672 0.29321 0.26857 0.0
H999 H 0.81311 0.33657 0.29506 0.0
H1000 H 0.73498 0.36344 0.29239 0.0
H1001 H 0.76003 0.34937 0.29944 0.0
C1002 C 0.53625 0.93619 0.94012 0.0
C1003 C 0.54035 0.92141 0.9477 0.0
C1004 C 0.54487 0.95041 0.94343 0.0
C1005 C 0.58333 0.9668 0.9593 0.0
H1006 H 0.55743 1.00541 0.96721 0.0
C1007 C 0.61041 0.02553 0.98658 0.0
C1008 C 0.60403 0.04074 0.98202 0.0
C1009 C 0.60352 0.0111 0.98091 0.0
C1010 C 0.5649 0.99486 0.96474 0.0
H1011 H 0.55723 0.90998 0.96435 0.0
H1012 H 0.57249 0.93504 0.97014 0.0
H1013 H 0.54404 0.9798 0.96084 0.0
H1014 H 0.58576 0.05262 0.96729 0.0
H1015 H 0.57382 0.0273 0.95705 0.0
H1016 H 0.60421 0.98188 0.96313 0.0
C1017 C 0.56248 0.93548 0.9616 0.0
C1018 C 0.5572 0.98012 0.96118 0.0
C1019 C 0.55374 0.92114 0.95832 0.0
C1020 C 0.59095 0.04114 0.97106 0.0
C1021 C 0.58403 0.0266 0.96533 0.0
C1022 C 0.59106 0.98159 0.96277 0.0
C1023 C 0.55792 0.95034 0.95439 0.0
C1024 C 0.56631 0.96589 0.95844 0.0
C1025 C 0.59006 0.01138 0.97042 0.0
C1026 C 0.58194 0.99583 0.96563 0.0
H1027 H 0.52615 0.93692 0.93172 0.0
H1028 H 0.54124 0.96153 0.9374 0.0
H1029 H 0.5907 0.95612 0.95705 0.0
H1030 H 0.62051 0.0247 0.99498 0.0
H1031 H 0.60841 0.99971 0.9853 0.0
C1032 C 0.1873 0.78644 0.20342 0.0
C1033 C 0.18659 0.77543 0.19037 0.0
C1034 C 0.20133 0.79558 0.20634 0.0
C1035 C 0.24567 0.79744 0.19714 0.0
H1036 H 0.24087 0.84098 0.21445 0.0
C1037 C 0.2993 0.83436 0.22542 0.0
C1038 C 0.29846 0.85139 0.22472 0.0
C1039 C 0.28657 0.82483 0.21915 0.0
C1040 C 0.24255 0.82895 0.20937 0.0
H1041 H 0.20013 0.76556 0.17001 0.0
H1042 H 0.22449 0.78188 0.17482 0.0
H1043 H 0.21692 0.8255 0.20727 0.0
H1044 H 0.28446 0.87178 0.21582 0.0
H1045 H 0.26286 0.85534 0.20414 0.0
H1046 H 0.27143 0.80117 0.19888 0.0
C1047 C 0.21429 0.7832 0.18303 0.0
C1048 C 0.2287 0.81991 0.20551 0.0
C1049 C 0.20025 0.77393 0.18018 0.0
C1050 C 0.28532 0.85866 0.21666 0.0
C1051 C 0.27283 0.84921 0.21013 0.0
C1052 C 0.2596 0.80657 0.2009 0.0
C1053 C 0.21505 0.79413 0.19621 0.0
C1054 C 0.23001 0.80395 0.19951 0.0
C1055 C 0.2729 0.83218 0.21186 0.0
C1056 C 0.25824 0.82245 0.20715 0.0
H1057 H 0.1771 0.7878 0.21165 0.0
H1058 H 0.20149 0.80358 0.21681 0.0
H1059 H 0.24721 0.78514 0.1927 0.0
H1060 H 0.30923 0.82846 0.23173 0.0
H1061 H 0.28707 0.81179 0.2208 0.0
C1062 C 0.07856 0.469 0.0329 0.0
C1063 C 0.09511 0.46643 0.02954 0.0
C1064 C 0.07289 0.48464 0.03681 0.0
C1065 C 0.08668 0.52563 0.05034 0.0
H1066 H 0.04759 0.54071 0.02883 0.0
C1067 C 0.05368 0.58501 0.06761 0.0
C1068 C 0.04576 0.59395 0.05544 0.0
C1069 C 0.06151 0.57042 0.06391 0.0
C1070 C 0.05865 0.53676 0.03476 0.0
H1071 H 0.11877 0.47805 0.02846 0.0
H1072 H 0.109 0.505 0.03532 0.0
H1073 H 0.0567 0.51273 0.02481 0.0
H1074 H 0.04024 0.59503 0.02978 0.0
H1075 H 0.05421 0.56946 0.02314 0.0
H1076 H 0.08876 0.54966 0.06014 0.0
C1077 C 0.10033 0.4951 0.03497 0.0
C1078 C 0.06371 0.52062 0.03269 0.0
C1079 C 0.10593 0.4796 0.03097 0.0
C1080 C 0.04659 0.58853 0.03929 0.0
C1081 C 0.05433 0.57376 0.03558 0.0
C1082 C 0.08161 0.54172 0.05244 0.0
C1083 C 0.08371 0.49793 0.0376 0.0
C1084 C 0.0778 0.51485 0.04045 0.0
C1085 C 0.06142 0.56428 0.04796 0.0
C1086 C 0.06751 0.54751 0.04471 0.0
H1087 H 0.06992 0.45913 0.03178 0.0
H1088 H 0.06003 0.48638 0.03897 0.0
H1089 H 0.09754 0.52159 0.05658 0.0
H1090 H 0.05289 0.58879 0.08021 0.0
H1091 H 0.06667 0.56342 0.07379 0.0
C1092 C 0.81552 0.74953 0.17614 0.0
C1093 C 0.82939 0.74742 0.1859 0.0
C1094 C 0.80147 0.74026 0.17888 0.0
C1095 C 0.78715 0.70275 0.1998 0.0
H1096 H 0.7447 0.72299 0.19693 0.0
C1097 C 0.73034 0.66527 0.21344 0.0
C1098 C 0.71833 0.67261 0.22309 0.0
C1099 C 0.74247 0.67462 0.20613 0.0
C1100 C 0.75646 0.71716 0.19787 0.0
H1101 H 0.83932 0.73385 0.2062 0.0
H1102 H 0.81493 0.71803 0.21114 0.0
H1103 H 0.76898 0.73866 0.1901 0.0
H1104 H 0.70908 0.69553 0.23206 0.0
H1105 H 0.73064 0.71195 0.21975 0.0
H1106 H 0.77492 0.68157 0.20835 0.0
C1107 C 0.81491 0.72656 0.20113 0.0
C1108 C 0.77039 0.7261 0.19375 0.0
C1109 C 0.82894 0.73572 0.19833 0.0
C1110 C 0.71813 0.68961 0.22455 0.0
C1111 C 0.73051 0.69899 0.21748 0.0
C1112 C 0.7733 0.69389 0.20402 0.0
C1113 C 0.80095 0.72871 0.19149 0.0
C1114 C 0.78595 0.71904 0.19484 0.0
C1115 C 0.74317 0.69153 0.20863 0.0
C1116 C 0.75774 0.70096 0.20321 0.0
H1117 H 0.81544 0.75844 0.16646 0.0
H1118 H 0.79103 0.74212 0.17109 0.0
H1119 H 0.79886 0.69679 0.20056 0.0
H1120 H 0.73068 0.65218 0.212 0.0
H1121 H 0.75164 0.66846 0.19897 0.0
C1122 C 0.93832 0.05446 0.03467 0.0
C1123 C 0.92145 0.05696 0.03518 0.0
C1124 C 0.94478 0.03903 0.03794 0.0
C1125 C 0.93651 0.99886 0.05605 0.0
H1126 H 0.96348 0.98235 0.02109 0.0
C1127 C 0.95888 0.93231 0.05669 0.0
C1128 C 0.97525 0.93019 0.05245 0.0
C1129 C 0.95097 0.94703 0.0532 0.0
C1130 C 0.95612 0.98676 0.03108 0.0
H1131 H 0.89823 0.04575 0.04046 0.0
H1132 H 0.90955 0.01906 0.04686 0.0
H1133 H 0.95389 0.01034 0.02026 0.0
H1134 H 0.99604 0.9413 0.04081 0.0
H1135 H 0.98252 0.96675 0.03478 0.0
H1136 H 0.93908 0.9755 0.06716 0.0
C1137 C 0.91777 0.02888 0.04379 0.0
C1138 C 0.95067 1.00285 0.0306 0.0
C1139 C 0.9113 0.04416 0.04019 0.0
C1140 C 0.98327 0.94253 0.04384 0.0
C1141 C 0.97547 0.95718 0.04043 0.0
C1142 C 0.94218 0.98281 0.05667 0.0
C1143 C 0.93449 0.02597 0.04206 0.0
C1144 C 0.94086 1.0091 0.0431 0.0
C1145 C 0.95939 0.95991 0.04557 0.0
C1146 C 0.95215 0.97654 0.04423 0.0
H1147 H 0.94635 0.06404 0.03052 0.0
H1148 H 0.95774 0.03714 0.03663 0.0
H1149 H 0.92893 1.00335 0.06584 0.0
H1150 H 0.95259 0.9231 0.06369 0.0
H1151 H 0.93849 0.94855 0.05709 0.0
C1152 C 0.29434 0.28406 0.17828 0.0
C1153 C 0.28267 0.28306 0.16584 0.0
C1154 C 0.29956 0.27009 0.18641 0.0
C1155 C 0.30032 0.22494 0.18408 0.0
H1156 H 0.30375 0.22796 0.231 0.0
C1157 C 0.3021 0.1685 0.226 0.0
C1158 C 0.31178 0.16908 0.24008 0.0
C1159 C 0.30035 0.18221 0.2161 0.0
C1160 C 0.30312 0.22693 0.21788 0.0
H1161 H 0.26768 0.26642 0.1519 0.0
H1162 H 0.27667 0.24206 0.16616 0.0
H1163 H 0.2974 0.25214 0.21523 0.0
H1164 H 0.3277 0.18445 0.25442 0.0
H1165 H 0.32481 0.20831 0.23707 0.0
H1166 H 0.30581 0.19963 0.18681 0.0
C1167 C 0.28192 0.25366 0.16954 0.0
C1168 C 0.29947 0.24083 0.20882 0.0
C1169 C 0.2767 0.26765 0.16139 0.0
C1170 C 0.32011 0.18357 0.24373 0.0
C1171 C 0.31835 0.19729 0.23382 0.0
C1172 C 0.30399 0.21102 0.19316 0.0
C1173 C 0.29324 0.25472 0.18232 0.0
C1174 C 0.2979 0.24 0.19181 0.0
C1175 C 0.30825 0.19687 0.22002 0.0
C1176 C 0.30531 0.21181 0.2102 0.0
H1177 H 0.29928 0.29572 0.18197 0.0
H1178 H 0.30849 0.27134 0.19599 0.0
H1179 H 0.29944 0.2239 0.17099 0.0
H1180 H 0.29548 0.15755 0.22282 0.0
H1181 H 0.29235 0.18146 0.20569 0.0
C1182 C 0.29077 0.86398 0.30564 0.0
C1183 C 0.30374 0.86124 0.29482 0.0
C1184 C 0.28687 0.85243 0.31765 0.0
C1185 C 0.30392 0.81572 0.33871 0.0
H1186 H 0.2588 0.8053 0.34735 0.0
C1187 C 0.28358 0.75457 0.36655 0.0
C1188 C 0.27148 0.75479 0.37862 0.0
C1189 C 0.28776 0.76878 0.35817 0.0
C1190 C 0.27146 0.8082 0.34521 0.0
H1191 H 0.32279 0.84413 0.28835 0.0
H1192 H 0.31589 0.82421 0.30871 0.0
H1193 H 0.26549 0.82811 0.3295 0.0
H1194 H 0.25432 0.77023 0.39137 0.0
H1195 H 0.2615 0.79503 0.37654 0.0
H1196 H 0.30987 0.79544 0.35392 0.0
C1197 C 0.30887 0.83533 0.30832 0.0
C1198 C 0.27532 0.82132 0.33501 0.0
C1199 C 0.31277 0.8468 0.29646 0.0
C1200 C 0.26377 0.76964 0.38222 0.0
C1201 C 0.26778 0.78383 0.37364 0.0
C1202 C 0.30007 0.80253 0.34872 0.0
C1203 C 0.29586 0.83789 0.31911 0.0
C1204 C 0.29162 0.82508 0.33134 0.0
C1205 C 0.27979 0.78355 0.36146 0.0
C1206 C 0.2838 0.79842 0.35189 0.0
H1207 H 0.28354 0.87493 0.30472 0.0
H1208 H 0.27684 0.85491 0.32581 0.0
H1209 H 0.31663 0.81844 0.33658 0.0
H1210 H 0.28974 0.74336 0.36343 0.0
H1211 H 0.29695 0.76811 0.34877 0.0
C1212 C 0.97314 0.46449 0.92336 0.0
C1213 C 0.97143 0.46973 0.90722 0.0
C1214 C 0.98854 0.4603 0.92943 0.0
C1215 C 0.03051 0.44908 0.91733 0.0
H1216 H 0.04297 0.46985 0.95779 0.0
C1217 C 0.08834 0.4332 0.95421 0.0
C1218 C 0.09659 0.44587 0.96215 0.0
C1219 C 0.07418 0.43629 0.94537 0.0
C1220 C 0.03973 0.4641 0.94639 0.0
H1221 H 0.98418 0.47377 0.88452 0.0
H1222 H 0.0108 0.4661 0.89493 0.0
H1223 H 0.01532 0.47317 0.94746 0.0
H1224 H 0.09687 0.47176 0.96673 0.0
H1225 H 0.07201 0.47727 0.95118 0.0
H1226 H 0.05491 0.43997 0.9163 0.0
C1227 C 1.00041 0.46533 0.90298 0.0
C1228 C 0.02381 0.46578 0.94062 0.0
C1229 C 0.98515 0.46975 0.89703 0.0
C1230 C 0.09095 0.46186 0.96035 0.0
C1231 C 0.07659 0.46495 0.9517 0.0
C1232 C 0.04638 0.44724 0.92321 0.0
C1233 C 1.00239 0.46101 0.91936 0.0
C1234 C 0.01902 0.45833 0.926 0.0
C1235 C 0.06775 0.4521 0.94459 0.0
C1236 C 0.0512 0.45478 0.93777 0.0
H1237 H 0.9628 0.46454 0.93152 0.0
H1238 H 0.98968 0.45687 0.94209 0.0
H1239 H 0.02718 0.44317 0.90604 0.0
H1240 H 0.09227 0.42073 0.95577 0.0
H1241 H 0.06763 0.42612 0.94016 0.0
C1242 C 0.75282 0.75279 0.38126 0.0
C1243 C 0.74755 0.76793 0.37531 0.0
C1244 C 0.74955 0.73843 0.37261 0.0
C1245 C 0.72265 0.72198 0.34011 0.0
H1246 H 0.75525 0.68816 0.33638 0.0
C1247 C 0.73633 0.66327 0.29607 0.0
C1248 C 0.72016 0.65827 0.29388 0.0
C1249 C 0.74017 0.67501 0.3079 0.0
C1250 C 0.74604 0.69752 0.33723 0.0
H1251 H 0.73471 0.77975 0.35554 0.0
H1252 H 0.72928 0.75499 0.34051 0.0
H1253 H 0.76078 0.71225 0.35295 0.0
H1254 H 0.6956 0.66047 0.30304 0.0
H1255 H 0.70231 0.68012 0.32408 0.0
H1256 H 0.70819 0.70785 0.3239 0.0
C1257 C 0.73565 0.75405 0.35198 0.0
C1258 C 0.74913 0.71126 0.34691 0.0
C1259 C 0.73884 0.76833 0.36061 0.0
C1260 C 0.70815 0.66426 0.3044 0.0
C1261 C 0.71199 0.67567 0.31635 0.0
C1262 C 0.71961 0.70838 0.33041 0.0
C1263 C 0.74096 0.73889 0.35782 0.0
C1264 C 0.73751 0.72375 0.34834 0.0
C1265 C 0.72791 0.68176 0.31784 0.0
C1266 C 0.73125 0.69594 0.32877 0.0
H1267 H 0.7596 0.75204 0.39251 0.0
H1268 H 0.75368 0.72697 0.37757 0.0
H1269 H 0.71329 0.73118 0.34107 0.0
H1270 H 0.74577 0.65893 0.28799 0.0
H1271 H 0.75255 0.67941 0.30862 0.0
C1272 C 0.4259 0.56128 0.47005 0.0
C1273 C 0.41329 0.55 0.4725 0.0
C1274 C 0.43945 0.55725 0.46073 0.0
C1275 C 0.4572 0.52974 0.4306 0.0
H1276 H 0.49689 0.53819 0.45462 0.0
C1277 C 0.52095 0.50757 0.40909 0.0
C1278 C 0.53444 0.51747 0.41266 0.0
C1279 C 0.50548 0.51152 0.415 0.0
C1280 C 0.486 0.53598 0.44757 0.0
H1281 H 0.40445 0.52604 0.46607 0.0
H1282 H 0.42837 0.51894 0.4495 0.0
H1283 H 0.47083 0.54505 0.46661 0.0
H1284 H 0.54209 0.53969 0.4246 0.0
H1285 H 0.51514 0.54686 0.43444 0.0
H1286 H 0.47248 0.52091 0.41139 0.0
C1287 C 0.42765 0.53091 0.45493 0.0
C1288 C 0.47103 0.53984 0.45451 0.0
C1289 C 0.41397 0.53498 0.46436 0.0
C1290 C 0.532 0.53171 0.42177 0.0
C1291 C 0.51653 0.53574 0.42752 0.0
C1292 C 0.47229 0.52601 0.42353 0.0
C1293 C 0.44078 0.54182 0.45358 0.0
C1294 C 0.45647 0.53693 0.44608 0.0
C1295 C 0.5031 0.52554 0.42452 0.0
C1296 C 0.48691 0.52924 0.43188 0.0
H1297 H 0.42565 0.57307 0.47594 0.0
H1298 H 0.44921 0.56603 0.45961 0.0
H1299 H 0.44616 0.5274 0.42383 0.0
H1300 H 0.52241 0.49648 0.40214 0.0
H1301 H 0.49551 0.50328 0.41255 0.0
C1302 C 0.21077 0.70737 0.68223 0.0
C1303 C 0.21644 0.7103 0.66638 0.0
C1304 C 0.20475 0.72023 0.69177 0.0
C1305 C 0.19168 0.76402 0.68936 0.0
H1306 H 0.20683 0.76591 0.73392 0.0
C1307 C 0.19805 0.82409 0.72563 0.0
C1308 C 0.19252 0.82415 0.7418 0.0
C1309 C 0.19854 0.80958 0.71669 0.0
C1310 C 0.20235 0.76548 0.72154 0.0
H1311 H 0.2193 0.72883 0.64784 0.0
H1312 H 0.20919 0.75094 0.66427 0.0
H1313 H 0.21115 0.74124 0.71796 0.0
H1314 H 0.18312 0.80895 0.76121 0.0
H1315 H 0.18426 0.78367 0.74568 0.0
H1316 H 0.18357 0.78856 0.69278 0.0
C1317 C 0.20914 0.73885 0.66947 0.0
C1318 C 0.20473 0.75129 0.7124 0.0
C1319 C 0.2151 0.7261 0.66002 0.0
C1320 C 0.1874 0.80938 0.74877 0.0
C1321 C 0.18813 0.79485 0.73991 0.0
C1322 C 0.18951 0.77826 0.69842 0.0
C1323 C 0.2042 0.73624 0.68561 0.0
C1324 C 0.19972 0.75046 0.69606 0.0
C1325 C 0.19376 0.79477 0.72379 0.0
C1326 C 0.19506 0.77925 0.71453 0.0
H1327 H 0.21169 0.69535 0.6875 0.0
H1328 H 0.20085 0.7177 0.70409 0.0
H1329 H 0.18728 0.76376 0.67696 0.0
H1330 H 0.20209 0.83523 0.7199 0.0
H1331 H 0.20306 0.80988 0.70432 0.0
C1332 C 0.06477 0.59111 0.54194 0.0
C1333 C 0.07827 0.58162 0.54636 0.0
C1334 C 0.04968 0.5888 0.54939 0.0
C1335 C 0.02935 0.56905 0.58478 0.0
H1336 H 0.99113 0.57263 0.55742 0.0
C1337 C 0.966 0.55909 0.612 0.0
C1338 C 0.95506 0.54977 0.60283 0.0
C1339 C 0.98001 0.5655 0.60485 0.0
C1340 C 1.00165 0.57148 0.56524 0.0
H1341 H 0.08657 0.56246 0.56235 0.0
H1342 H 0.06012 0.55808 0.57513 0.0
H1343 H 0.01787 0.57796 0.546 0.0
H1344 H 0.94981 0.54012 0.57896 0.0
H1345 H 0.97445 0.55103 0.56637 0.0
H1346 H 0.01326 0.56173 0.60379 0.0
C1347 C 0.06124 0.56758 0.56611 0.0
C1348 C 0.01704 0.57476 0.55874 0.0
C1349 C 0.07644 0.57005 0.55876 0.0
C1350 C 0.95789 0.54765 0.58616 0.0
C1351 C 0.97208 0.55384 0.57901 0.0
C1352 C 0.01399 0.56562 0.59124 0.0
C1353 C 0.04758 0.57677 0.56133 0.0
C1354 C 0.03113 0.57356 0.5684 0.0
C1355 C 0.98363 0.56236 0.58842 0.0
C1356 C 0.9999 0.56677 0.58158 0.0
H1357 H 0.0658 0.60025 0.53252 0.0
H1358 H 0.03963 0.59642 0.54566 0.0
H1359 H 0.03982 0.56816 0.59269 0.0
H1360 H 0.96414 0.56068 0.62495 0.0
H1361 H 0.98832 0.57236 0.6124 0.0
C1362 C 0.94662 0.92644 0.55066 0.0
C1363 C 0.93436 0.93827 0.55166 0.0
C1364 C 0.96156 0.92875 0.5584 0.0
C1365 C 0.98348 0.95518 0.58831 0.0
H1366 H 0.02136 0.93926 0.5652 0.0
C1367 C 0.04722 0.96542 0.61468 0.0
C1368 C 0.05967 0.9696 0.60379 0.0
C1369 C 0.0325 0.95913 0.60901 0.0
C1370 C 0.01097 0.94392 0.57179 0.0
H1371 H 0.92793 0.96164 0.56189 0.0
H1372 H 0.95423 0.96604 0.57499 0.0
H1373 H 0.99444 0.93406 0.55437 0.0
H1374 H 0.06678 0.97004 0.5785 0.0
H1375 H 0.04089 0.95954 0.5684 0.0
H1376 H 1.00002 0.96594 0.60515 0.0
C1377 C 0.95223 0.95472 0.56858 0.0
C1378 C 0.99541 0.9407 0.5657 0.0
C1379 C 0.93712 0.95224 0.56107 0.0
C1380 C 0.05747 0.96661 0.58716 0.0
C1381 C 0.04256 0.96063 0.58141 0.0
C1382 C 0.99904 0.9586 0.59427 0.0
C1383 C 0.9648 0.94314 0.56707 0.0
C1384 C 0.9814 0.94628 0.57386 0.0
C1385 C 0.02966 0.9573 0.59224 0.0
C1386 C 0.01305 0.95303 0.58611 0.0
H1387 H 0.94478 0.91547 0.54359 0.0
H1388 H 0.97065 0.9193 0.55732 0.0
H1389 H 0.97308 0.95955 0.59509 0.0
H1390 H 0.04865 0.96764 0.62759 0.0
H1391 H 0.02315 0.95623 0.61781 0.0
C1392 C 0.72146 0.8118 0.66074 0.0
C1393 C 0.7227 0.80135 0.64725 0.0
C1394 C 0.71038 0.80871 0.67319 0.0
C1395 C 0.68757 0.77521 0.69235 0.0
H1396 H 0.66826 0.81065 0.71677 0.0
C1397 C 0.6474 0.76487 0.7496 0.0
C1398 C 0.65136 0.77454 0.76317 0.0
C1399 C 0.65409 0.7682 0.7343 0.0
C1400 C 0.67361 0.80062 0.71011 0.0
H1401 H 0.71275 0.77968 0.63605 0.0
H1402 H 0.69309 0.77431 0.65786 0.0
H1403 H 0.68269 0.81635 0.69153 0.0
H1404 H 0.66521 0.79552 0.77113 0.0
H1405 H 0.6767 0.80143 0.74442 0.0
H1406 H 0.67849 0.75951 0.71108 0.0
C1407 C 0.70093 0.78484 0.65883 0.0
C1408 C 0.6819 0.80387 0.69563 0.0
C1409 C 0.71208 0.78799 0.64625 0.0
C1410 C 0.66188 0.78783 0.76096 0.0
C1411 C 0.66841 0.79127 0.74563 0.0
C1412 C 0.67914 0.77194 0.7068 0.0
C1413 C 0.7001 0.79507 0.67258 0.0
C1414 C 0.68937 0.79127 0.68675 0.0
C1415 C 0.66473 0.7814 0.73214 0.0
C1416 C 0.67237 0.78466 0.71603 0.0
H1417 H 0.72939 0.82225 0.66196 0.0
H1418 H 0.71036 0.81673 0.68363 0.0
H1419 H 0.69329 0.76521 0.68598 0.0
H1420 H 0.63937 0.7545 0.75085 0.0
H1421 H 0.65091 0.76045 0.72413 0.0
C1422 C 0.03524 0.10864 0.4849 0.0
C1423 C 0.03834 0.10099 0.4699 0.0
C1424 C 0.04059 0.10181 0.49943 0.0
C1425 C 0.06888 0.07234 0.5176 0.0
H1426 H 0.03648 0.07027 0.55186 0.0
C1427 C 0.07745 0.03192 0.57379 0.0
C1428 C 0.07192 0.03733 0.58906 0.0
C1429 C 0.07395 0.04057 0.55968 0.0
C1430 C 0.04578 0.07098 0.54256 0.0
H1431 H 0.05026 0.08051 0.45841 0.0
H1432 H 0.05977 0.06848 0.48401 0.0
H1433 H 0.02993 0.08353 0.52622 0.0
H1434 H 0.05827 0.05617 0.60139 0.0
H1435 H 0.05228 0.07158 0.57657 0.0
H1436 H 0.08477 0.05987 0.53394 0.0
C1437 C 0.05312 0.07983 0.4844 0.0
C1438 C 0.042 0.07853 0.52781 0.0
C1439 C 0.04771 0.08671 0.46974 0.0
C1440 C 0.06269 0.05167 0.58983 0.0
C1441 C 0.05922 0.06045 0.57559 0.0
C1442 C 0.0727 0.06488 0.53239 0.0
C1443 C 0.04923 0.08712 0.49942 0.0
C1444 C 0.05347 0.07922 0.51512 0.0
C1445 C 0.06487 0.055 0.56034 0.0
C1446 C 0.06114 0.06395 0.54502 0.0
H1447 H 0.02825 0.11979 0.4855 0.0
H1448 H 0.03772 0.10792 0.51074 0.0
H1449 H 0.07804 0.07288 0.50816 0.0
H1450 H 0.08445 0.02083 0.57263 0.0
H1451 H 0.07817 0.03574 0.54818 0.0
C1452 C 0.37169 0.72318 0.76283 0.0
C1453 C 0.36461 0.72447 0.77833 0.0
C1454 C 0.36229 0.71921 0.74925 0.0
C1455 C 0.33893 0.72189 0.72111 0.0
H1456 H 0.302 0.69278 0.72309 0.0
C1457 C 0.29318 0.71484 0.66743 0.0
C1458 C 0.28604 0.69949 0.66513 0.0
C1459 C 0.30317 0.71779 0.68099 0.0
C1460 C 0.31238 0.70082 0.7222 0.0
H1461 H 0.34213 0.72212 0.7918 0.0
H1462 H 0.32553 0.71547 0.76802 0.0
H1463 H 0.31857 0.69695 0.74718 0.0
H1464 H 0.28453 0.67499 0.6747 0.0
H1465 H 0.30229 0.67988 0.69772 0.0
H1466 H 0.33307 0.72533 0.69599 0.0
C1467 C 0.33847 0.71725 0.76636 0.0
C1468 C 0.32178 0.7034 0.73617 0.0
C1469 C 0.34797 0.72103 0.78005 0.0
C1470 C 0.28969 0.68702 0.67621 0.0
C1471 C 0.29977 0.68988 0.68956 0.0
C1472 C 0.32961 0.71921 0.70711 0.0
C1473 C 0.34544 0.71666 0.75069 0.0
C1474 C 0.33526 0.71392 0.73583 0.0
C1475 C 0.30637 0.7054 0.69241 0.0
C1476 C 0.31623 0.70856 0.70741 0.0
H1477 H 0.38452 0.72565 0.76111 0.0
H1478 H 0.36826 0.71839 0.73754 0.0
H1479 H 0.34898 0.73036 0.72037 0.0
H1480 H 0.29049 0.72473 0.65919 0.0
H1481 H 0.30792 0.72994 0.68277 0.0
C1482 C 0.97114 0.41145 0.48855 0.0
C1483 C 0.97162 0.421 0.4744 0.0
C1484 C 0.9666 0.41818 0.50347 0.0
C1485 C 0.94808 0.45486 0.52301 0.0
H1486 H 0.97134 0.43886 0.56073 0.0
C1487 C 0.9319 0.47752 0.58734 0.0
C1488 C 0.94458 0.48007 0.59851 0.0
C1489 C 0.93467 0.46936 0.57268 0.0
C1490 C 0.96481 0.44362 0.55036 0.0
H1491 H 0.96725 0.44505 0.46474 0.0
H1492 H 0.95968 0.45704 0.49091 0.0
H1493 H 0.9769 0.42731 0.53415 0.0
H1494 H 0.97008 0.47565 0.60319 0.0
H1495 H 0.97511 0.46172 0.57741 0.0
H1496 H 0.93658 0.47172 0.53911 0.0
C1497 C 0.9625 0.4442 0.49045 0.0
C1498 C 0.96781 0.43678 0.53505 0.0
C1499 C 0.96682 0.43735 0.4754 0.0
C1500 C 0.96002 0.47373 0.59492 0.0
C1501 C 0.96287 0.46574 0.58009 0.0
C1502 C 0.9452 0.46181 0.5383 0.0
C1503 C 0.96269 0.43478 0.50479 0.0
C1504 C 0.95943 0.44221 0.52113 0.0
C1505 C 0.9503 0.46372 0.56859 0.0
C1506 C 0.95345 0.45625 0.55225 0.0
H1507 H 0.97465 0.39876 0.48815 0.0
H1508 H 0.96642 0.41035 0.51404 0.0
H1509 H 0.94127 0.45934 0.5127 0.0
H1510 H 0.91981 0.48215 0.58978 0.0
H1511 H 0.92454 0.46767 0.56446 0.0
C1512 C 0.67684 0.21744 0.73954 0.0
C1513 C 0.6606 0.22242 0.73794 0.0
C1514 C 0.68343 0.21435 0.75498 0.0
C1515 C 0.67557 0.22358 0.79888 0.0
H1516 H 0.71011 0.19241 0.80574 0.0
C1517 C 0.71297 0.2209 0.85889 0.0
C1518 C 0.71956 0.20588 0.86353 0.0
C1519 C 0.7045 0.2224 0.84414 0.0
C1520 C 0.7003 0.20102 0.80418 0.0
H1521 H 0.63826 0.22705 0.75109 0.0
H1522 H 0.64938 0.22092 0.77774 0.0
H1523 H 0.69793 0.1949 0.77901 0.0
H1524 H 0.72152 0.18044 0.85704 0.0
H1525 H 0.70607 0.18277 0.83196 0.0
H1526 H 0.67756 0.2293 0.82418 0.0
C1527 C 0.65733 0.22004 0.76729 0.0
C1528 C 0.69347 0.20264 0.78868 0.0
C1529 C 0.65087 0.22337 0.75195 0.0
C1530 C 0.71663 0.19221 0.85371 0.0
C1531 C 0.70796 0.19361 0.83919 0.0
C1532 C 0.68228 0.22183 0.81443 0.0
C1533 C 0.67383 0.21595 0.76913 0.0
C1534 C 0.68101 0.21397 0.78576 0.0
C1535 C 0.70226 0.20882 0.83385 0.0
C1536 C 0.69477 0.21054 0.81734 0.0
H1537 H 0.68468 0.21678 0.72897 0.0
H1538 H 0.69621 0.21136 0.75583 0.0
H1539 H 0.66624 0.23268 0.79715 0.0
H1540 H 0.71525 0.23168 0.86612 0.0
H1541 H 0.70043 0.23435 0.84048 0.0
C1542 C 0.44077 0.04559 0.4397 0.0
C1543 C 0.45044 0.04739 0.4257 0.0
C1544 C 0.4441 0.05438 0.45379 0.0
C1545 C 0.46554 0.08984 0.47077 0.0
H1546 H 0.46523 0.06413 0.5103 0.0
C1547 C 0.49146 0.11394 0.53143 0.0
C1548 C 0.48406 0.10929 0.54616 0.0
C1549 C 0.48643 0.10729 0.51665 0.0
C1550 C 0.4651 0.0716 0.49947 0.0
H1551 H 0.47075 0.06056 0.41533 0.0
H1552 H 0.47662 0.07613 0.44021 0.0
H1553 H 0.45854 0.05138 0.48446 0.0
H1554 H 0.46524 0.09421 0.55673 0.0
H1555 H 0.4562 0.08274 0.53078 0.0
H1556 H 0.47203 0.11009 0.48581 0.0
C1557 C 0.46642 0.06779 0.44014 0.0
C1558 C 0.46133 0.06425 0.4846 0.0
C1559 C 0.46307 0.05891 0.4259 0.0
C1560 C 0.47123 0.09802 0.54565 0.0
C1561 C 0.46614 0.09138 0.53076 0.0
C1562 C 0.46922 0.09723 0.48569 0.0
C1563 C 0.45721 0.06527 0.45438 0.0
C1564 C 0.46149 0.07327 0.47007 0.0
C1565 C 0.47379 0.09583 0.51607 0.0
C1566 C 0.46911 0.08819 0.50025 0.0
H1567 H 0.43076 0.03703 0.43994 0.0
H1568 H 0.4365 0.05243 0.46438 0.0
H1569 H 0.46559 0.09716 0.45984 0.0
H1570 H 0.50142 0.12255 0.53129 0.0
H1571 H 0.49283 0.11084 0.5057 0.0
C1572 C 0.34363 0.28382 0.73653 0.0
C1573 C 0.35948 0.28983 0.73454 0.0
C1574 C 0.33482 0.28738 0.7507 0.0
C1575 C 0.32865 0.31537 0.78366 0.0
H1576 H 0.32159 0.2784 0.81201 0.0
C1577 C 0.30247 0.3253 0.84771 0.0
C1578 C 0.2919 0.31352 0.85402 0.0
C1579 C 0.31179 0.32204 0.83386 0.0
C1580 C 0.32315 0.28887 0.80422 0.0
H1581 H 0.37835 0.30468 0.7453 0.0
H1582 H 0.36255 0.3117 0.76961 0.0
H1583 H 0.33385 0.27437 0.7853 0.0
H1584 H 0.28286 0.28902 0.85103 0.0
H1585 H 0.29848 0.28344 0.82649 0.0
H1586 H 0.3174 0.3299 0.80195 0.0
C1587 C 0.35706 0.30408 0.76037 0.0
C1588 C 0.33025 0.28651 0.78891 0.0
C1589 C 0.36603 0.30015 0.74646 0.0
C1590 C 0.29125 0.29817 0.84662 0.0
C1591 C 0.30022 0.29503 0.83246 0.0
C1592 C 0.32119 0.31771 0.79878 0.0
C1593 C 0.34159 0.29732 0.76284 0.0
C1594 C 0.33314 0.29975 0.77856 0.0
C1595 C 0.31031 0.3071 0.82557 0.0
C1596 C 0.31844 0.30452 0.80942 0.0
H1597 H 0.33849 0.27552 0.72768 0.0
H1598 H 0.3229 0.28202 0.75238 0.0
H1599 H 0.33076 0.32576 0.77585 0.0
H1600 H 0.30306 0.33729 0.85315 0.0
H1601 H 0.31978 0.3315 0.82941 0.0
C1602 C 0.57641 0.47669 0.45414 0.0
C1603 C 0.5878 0.48915 0.4516 0.0
C1604 C 0.57539 0.4688 0.46916 0.0
C1605 C 0.58046 0.44803 0.49889 0.0
H1606 H 0.58739 0.47213 0.5388 0.0
C1607 C 0.57407 0.41541 0.55982 0.0
C1608 C 0.5658 0.42375 0.57218 0.0
C1609 C 0.58001 0.42373 0.54627 0.0
C1610 C 0.58533 0.46521 0.5278 0.0
H1611 H 0.60729 0.50291 0.46283 0.0
H1612 H 0.60592 0.48879 0.48885 0.0
H1613 H 0.5903 0.48583 0.51273 0.0
H1614 H 0.55777 0.44736 0.58048 0.0
H1615 H 0.56759 0.46194 0.55656 0.0
H1616 H 0.5745 0.42771 0.51378 0.0
C1617 C 0.59744 0.48537 0.47939 0.0
C1618 C 0.58721 0.47303 0.51278 0.0
C1619 C 0.59832 0.4934 0.4644 0.0
C1620 C 0.5644 0.44072 0.57124 0.0
C1621 C 0.57001 0.44904 0.55745 0.0
C1622 C 0.57838 0.44029 0.51385 0.0
C1623 C 0.5859 0.473 0.48202 0.0
C1624 C 0.58465 0.46458 0.49809 0.0
C1625 C 0.57733 0.44054 0.54446 0.0
C1626 C 0.5807 0.44875 0.52857 0.0
H1627 H 0.568 0.47323 0.44461 0.0
H1628 H 0.5661 0.45962 0.47075 0.0
H1629 H 0.57867 0.44097 0.48792 0.0
H1630 H 0.57523 0.4023 0.56027 0.0
H1631 H 0.58606 0.4168 0.53685 0.0
C1632 C 0.68827 0.73286 0.8076 0.0
C1633 C 0.68591 0.74566 0.81867 0.0
C1634 C 0.70305 0.72446 0.80704 0.0
C1635 C 0.74659 0.72749 0.81965 0.0
H1636 H 0.74641 0.68194 0.80774 0.0
C1637 C 0.80485 0.69258 0.79977 0.0
C1638 C 0.80519 0.67564 0.80177 0.0
C1639 C 0.79106 0.70152 0.80441 0.0
C1640 C 0.7468 0.69458 0.81139 0.0
H1641 H 0.69721 0.75944 0.8381 0.0
H1642 H 0.72278 0.74443 0.83754 0.0
H1643 H 0.7209 0.69613 0.81105 0.0
H1644 H 0.79209 0.65492 0.81125 0.0
H1645 H 0.76864 0.67049 0.82035 0.0
H1646 H 0.77257 0.72573 0.82048 0.0
C1647 C 0.71337 0.74113 0.82895 0.0
C1648 C 0.73205 0.70285 0.81298 0.0
C1649 C 0.69863 0.74967 0.82937 0.0
C1650 C 0.79211 0.66799 0.80959 0.0
C1651 C 0.77855 0.67692 0.81455 0.0
C1652 C 0.7614 0.71914 0.81824 0.0
C1653 C 0.71585 0.72845 0.8177 0.0
C1654 C 0.73169 0.7195 0.81691 0.0
C1655 C 0.77745 0.6937 0.81135 0.0
C1656 C 0.76174 0.70257 0.81394 0.0
H1657 H 0.67882 0.72955 0.79905 0.0
H1658 H 0.7045 0.71504 0.79796 0.0
H1659 H 0.7469 0.74033 0.82254 0.0
H1660 H 0.81467 0.69872 0.79349 0.0
H1661 H 0.79074 0.71437 0.80161 0.0
C1662 C 0.91327 0.98265 0.49513 0.0
C1663 C 0.91893 0.96798 0.48834 0.0
C1664 C 0.91878 0.99764 0.48942 0.0
C1665 C 0.93848 0.01827 0.45479 0.0
H1666 H 0.94996 0.05043 0.48735 0.0
C1667 C 0.97564 0.0758 0.43961 0.0
C1668 C 0.97291 0.09028 0.44834 0.0
C1669 C 0.96743 0.0615 0.44359 0.0
C1670 C 0.94654 0.04175 0.47806 0.0
H1671 H 0.93458 0.95772 0.4698 0.0
H1672 H 0.94427 0.98409 0.45971 0.0
H1673 H 0.9394 0.02411 0.49579 0.0
H1674 H 0.95877 0.10114 0.46772 0.0
H1675 H 0.94412 0.07609 0.47457 0.0
H1676 H 0.94562 0.03592 0.43705 0.0
C1677 C 0.93548 0.98387 0.46951 0.0
C1678 C 0.94054 0.02659 0.48291 0.0
C1679 C 0.92997 0.96875 0.4753 0.0
C1680 C 0.96117 0.09022 0.46075 0.0
C1681 C 0.9529 0.07581 0.46477 0.0
C1682 C 0.9444 0.03349 0.44993 0.0
C1683 C 0.93012 0.99849 0.47669 0.0
C1684 C 0.9365 0.01461 0.47136 0.0
C1685 C 0.95616 0.06117 0.45641 0.0
C1686 C 0.94864 0.04541 0.4615 0.0
H1687 H 0.90467 0.98263 0.5051 0.0
H1688 H 0.91415 1.00861 0.49503 0.0
H1689 H 0.93526 0.00943 0.44557 0.0
H1690 H 0.98455 0.07534 0.42992 0.0
H1691 H 0.97046 0.05051 0.43699 0.0
C1692 C 0.26139 0.86321 0.76383 0.0
C1693 C 0.24775 0.85826 0.77291 0.0
C1694 C 0.27681 0.85679 0.76706 0.0
C1695 C 0.30109 0.83619 0.79859 0.0
H1696 H 0.32663 0.82002 0.76238 0.0
C1697 C 0.35331 0.79098 0.80764 0.0
C1698 C 0.36689 0.79112 0.79724 0.0
C1699 C 0.34018 0.80136 0.80502 0.0
C1700 C 0.31985 0.82476 0.77263 0.0
H1701 H 0.23976 0.84288 0.79276 0.0
H1702 H 0.26672 0.83181 0.79852 0.0
H1703 H 0.30086 0.83379 0.75724 0.0
H1704 H 0.37751 0.80283 0.77619 0.0
H1705 H 0.35451 0.8213 0.77168 0.0
H1706 H 0.31997 0.82721 0.814 0.0
C1707 C 0.26545 0.84069 0.78889 0.0
C1708 C 0.30502 0.83259 0.76968 0.0
C1709 C 0.24998 0.84698 0.78554 0.0
C1710 C 0.36725 0.80242 0.78443 0.0
C1711 C 0.354 0.81289 0.78178 0.0
C1712 C 0.31596 0.8285 0.80153 0.0
C1713 C 0.27902 0.84539 0.77957 0.0
C1714 C 0.29531 0.83811 0.78264 0.0
C1715 C 0.34019 0.81232 0.79194 0.0
C1716 C 0.32539 0.82234 0.78862 0.0
H1717 H 0.26015 0.87186 0.75399 0.0
H1718 H 0.28702 0.86077 0.75977 0.0
H1719 H 0.29405 0.84057 0.80882 0.0
H1720 H 0.35257 0.78249 0.81768 0.0
H1721 H 0.32974 0.8003 0.81297 0.0
C1722 C 0.10352 0.53428 0.49431 0.0
C1723 C 0.09869 0.54864 0.48636 0.0
C1724 C 0.09771 0.51912 0.48928 0.0
C1725 C 0.07796 0.49723 0.45515 0.0
H1726 H 0.06387 0.46768 0.48907 0.0
C1727 C 0.0362 0.44245 0.44232 0.0
C1728 C 0.03778 0.42811 0.45151 0.0
C1729 C 0.04558 0.45617 0.4458 0.0
C1730 C 0.06801 0.47561 0.47943 0.0
H1731 H 0.08426 0.55814 0.46649 0.0
H1732 H 0.07407 0.53157 0.45767 0.0
H1733 H 0.07614 0.49362 0.49637 0.0
H1734 H 0.05102 0.41684 0.47126 0.0
H1735 H 0.06765 0.44088 0.47729 0.0
H1736 H 0.0697 0.47927 0.4382 0.0
C1737 C 0.08246 0.5321 0.4678 0.0
C1738 C 0.07502 0.49056 0.48362 0.0
C1739 C 0.08827 0.54735 0.47287 0.0
C1740 C 0.0495 0.42767 0.46393 0.0
C1741 C 0.05891 0.44151 0.46747 0.0
C1742 C 0.07101 0.48224 0.45096 0.0
C1743 C 0.0869 0.51781 0.47613 0.0
C1744 C 0.07994 0.50165 0.47154 0.0
C1745 C 0.05688 0.45603 0.45859 0.0
C1746 C 0.06573 0.4713 0.46304 0.0
H1747 H 0.11162 0.53472 0.50467 0.0
H1748 H 0.10165 0.50838 0.49579 0.0
H1749 H 0.08185 0.50533 0.44554 0.0
H1750 H 0.02735 0.44328 0.43261 0.0
H1751 H 0.04346 0.46711 0.43881 0.0
C1752 C 0.78823 0.34094 0.72222 0.0
C1753 C 0.78808 0.35406 0.73317 0.0
C1754 C 0.77363 0.33342 0.71754 0.0
C1755 C 0.72837 0.33891 0.71796 0.0
H1756 H 0.72798 0.29187 0.71604 0.0
C1757 C 0.6692 0.29928 0.71808 0.0
C1758 C 0.66928 0.28576 0.70761 0.0
C1759 C 0.68333 0.30874 0.72007 0.0
C1760 C 0.7279 0.30503 0.71638 0.0
H1761 H 0.77232 0.36988 0.74731 0.0
H1762 H 0.74724 0.35673 0.73946 0.0
H1763 H 0.7535 0.30608 0.72076 0.0
H1764 H 0.68401 0.27221 0.69033 0.0
H1765 H 0.70824 0.28855 0.69378 0.0
H1766 H 0.70261 0.33773 0.71393 0.0
C1767 C 0.75849 0.35229 0.73426 0.0
C1768 C 0.74258 0.3132 0.719 0.0
C1769 C 0.77299 0.35977 0.73889 0.0
C1770 C 0.6835 0.28238 0.6987 0.0
C1771 C 0.69749 0.29171 0.70071 0.0
C1772 C 0.71365 0.33072 0.71545 0.0
C1773 C 0.75857 0.33888 0.7237 0.0
C1774 C 0.74304 0.33025 0.71988 0.0
C1775 C 0.69774 0.30477 0.71167 0.0
C1776 C 0.71324 0.31367 0.71461 0.0
H1777 H 0.79962 0.33626 0.71757 0.0
H1778 H 0.77414 0.32324 0.7092 0.0
H1779 H 0.72826 0.35207 0.71834 0.0
H1780 H 0.65847 0.30221 0.72512 0.0
H1781 H 0.68314 0.31876 0.72861 0.0
C1782 C 0.61693 0.99509 0.53871 0.0
C1783 C 0.60987 0.9802 0.54334 0.0
C1784 C 0.61058 0.00984 0.54419 0.0
C1785 C 0.58408 0.0291 0.57495 0.0
H1786 H 0.57871 0.06218 0.5418 0.0
C1787 C 0.54306 0.08522 0.58409 0.0
C1788 C 0.5471 0.10006 0.57658 0.0
C1789 C 0.55229 0.07125 0.58138 0.0
C1790 C 0.58038 0.05325 0.55131 0.0
H1791 H 0.59096 0.96921 0.55801 0.0
H1792 H 0.5798 0.99515 0.56768 0.0
H1793 H 0.59143 0.0364 0.53485 0.0
H1794 H 0.56454 0.1119 0.5608 0.0
H1795 H 0.58095 0.08746 0.55624 0.0
H1796 H 0.57298 0.04595 0.59141 0.0
C1797 C 0.59032 0.99531 0.55977 0.0
C1798 C 0.58763 0.03839 0.5473 0.0
C1799 C 0.5967 0.98044 0.55423 0.0
C1800 C 0.56107 0.10069 0.56676 0.0
C1801 C 0.57038 0.08663 0.56404 0.0
C1802 C 0.5769 0.04402 0.57899 0.0
C1803 C 0.59698 0.01019 0.55449 0.0
C1804 C 0.58949 0.02608 0.55903 0.0
C1805 C 0.56593 0.07164 0.57111 0.0
C1806 C 0.5748 0.05625 0.56719 0.0
H1807 H 0.62721 0.99543 0.53049 0.0
H1808 H 0.61625 0.02103 0.54016 0.0
H1809 H 0.58551 0.01998 0.58432 0.0
H1810 H 0.53241 0.08422 0.59177 0.0
H1811 H 0.5483 0.05998 0.58688 0.0
C1812 C 0.36892 0.21931 0.73957 0.0
C1813 C 0.37325 0.2228 0.72344 0.0
C1814 C 0.35566 0.2091 0.74287 0.0
C1815 C 0.32792 0.17824 0.72588 0.0
H1816 H 0.29441 0.19998 0.75098 0.0
C1817 C 0.26623 0.14887 0.74526 0.0
C1818 C 0.25233 0.15826 0.74194 0.0
C1819 C 0.28181 0.15536 0.74305 0.0
C1820 C 0.30368 0.19375 0.74399 0.0
H1821 H 0.36795 0.21761 0.69818 0.0
H1822 H 0.34531 0.19926 0.70394 0.0
H1823 H 0.3212 0.21261 0.74809 0.0
H1824 H 0.24391 0.18177 0.73356 0.0
H1825 H 0.27116 0.19321 0.73005 0.0
H1826 H 0.31031 0.15939 0.72177 0.0
C1827 C 0.35197 0.2045 0.71403 0.0
C1828 C 0.31904 0.20089 0.74248 0.0
C1829 C 0.36493 0.21498 0.71073 0.0
C1830 C 0.25436 0.17419 0.73612 0.0
C1831 C 0.26994 0.18079 0.73424 0.0
C1832 C 0.31263 0.17094 0.72767 0.0
C1833 C 0.34681 0.20194 0.73009 0.0
C1834 C 0.33125 0.19333 0.73322 0.0
C1835 C 0.28381 0.17149 0.73782 0.0
C1836 C 0.30028 0.17877 0.73651 0.0
H1837 H 0.37497 0.2254 0.74956 0.0
H1838 H 0.35194 0.20728 0.75537 0.0
H1839 H 0.33711 0.17219 0.71864 0.0
H1840 H 0.26506 0.13655 0.74975 0.0
H1841 H 0.2923 0.14795 0.74593 0.0
C1842 C 0.48355 0.42332 0.56532 0.0
C1843 C 0.49662 0.42566 0.57609 0.0
C1844 C 0.47342 0.43641 0.56108 0.0
C1845 C 0.47293 0.48128 0.55889 0.0
H1846 H 0.42605 0.47688 0.55967 0.0
C1847 C 0.43082 0.53692 0.54905 0.0
C1848 C 0.41686 0.53435 0.53955 0.0
C1849 C 0.44014 0.52368 0.55446 0.0
C1850 C 0.43912 0.47832 0.55919 0.0
H1851 H 0.50929 0.44368 0.5907 0.0
H1852 H 0.49185 0.46622 0.58324 0.0
H1853 H 0.44308 0.45347 0.56607 0.0
H1854 H 0.4016 0.51574 0.52863 0.0
H1855 H 0.41786 0.493 0.53764 0.0
H1856 H 0.4691 0.50597 0.5517 0.0
C1857 C 0.48939 0.45436 0.57805 0.0
C1858 C 0.44887 0.46485 0.56286 0.0
C1859 C 0.49933 0.44134 0.58241 0.0
C1860 C 0.41224 0.51826 0.53597 0.0
C1861 C 0.42156 0.50511 0.54125 0.0
C1862 C 0.4632 0.49469 0.55506 0.0
C1863 C 0.47633 0.4521 0.56733 0.0
C1864 C 0.46589 0.46619 0.5628 0.0
C1865 C 0.43576 0.50759 0.55042 0.0
C1866 C 0.44614 0.49343 0.55515 0.0
H1867 H 0.48113 0.41142 0.56023 0.0
H1868 H 0.46347 0.43431 0.55272 0.0
H1869 H 0.48602 0.48267 0.55856 0.0
H1870 H 0.43472 0.54913 0.55205 0.0
H1871 H 0.45085 0.52609 0.56172 0.0
C1872 C 0.79934 0.67359 0.72571 0.0
C1873 C 0.81482 0.67132 0.73255 0.0
C1874 C 0.79627 0.687 0.71559 0.0
C1875 C 0.81315 0.72808 0.70589 0.0
H1876 H 0.78335 0.72605 0.66953 0.0
C1877 C 0.7927 0.78566 0.67015 0.0
C1878 C 0.78952 0.78385 0.65348 0.0
C1879 C 0.7964 0.77204 0.67976 0.0
C1880 C 0.79187 0.72683 0.67953 0.0
H1881 H 0.83943 0.68074 0.73333 0.0
H1882 H 0.8343 0.70354 0.71537 0.0
H1883 H 0.78847 0.70173 0.68552 0.0
H1884 H 0.7887 0.76652 0.63362 0.0
H1885 H 0.79572 0.74306 0.65009 0.0
H1886 H 0.81694 0.75304 0.6996 0.0
C1887 C 0.82431 0.69545 0.71822 0.0
C1888 C 0.79462 0.71288 0.68888 0.0
C1889 C 0.8273 0.68223 0.72842 0.0
C1890 C 0.79094 0.76832 0.64648 0.0
C1891 C 0.79479 0.7548 0.65598 0.0
C1892 C 0.81048 0.742 0.69648 0.0
C1893 C 0.80867 0.69832 0.71199 0.0
C1894 C 0.80539 0.71325 0.70214 0.0
C1895 C 0.79713 0.75635 0.67284 0.0
C1896 C 0.79987 0.74158 0.68309 0.0
H1897 H 0.78944 0.66546 0.72878 0.0
H1898 H 0.78404 0.68881 0.7111 0.0
H1899 H 0.82128 0.729 0.71619 0.0
H1900 H 0.79153 0.79744 0.67593 0.0
H1901 H 0.79803 0.77376 0.6927 0.0
C1902 C 0.82472 0.33133 0.79178 0.0
C1903 C 0.81735 0.34612 0.79629 0.0
C1904 C 0.82226 0.31719 0.80083 0.0
C1905 C 0.80939 0.3014 0.84075 0.0
H1906 H 0.79909 0.26229 0.81642 0.0
C1907 C 0.7824 0.24479 0.87162 0.0
C1908 C 0.786 0.2291 0.86577 0.0
C1909 C 0.78793 0.25865 0.8636 0.0
C1910 C 0.80224 0.27298 0.82344 0.0
H1911 H 0.80199 0.35761 0.81435 0.0
H1912 H 0.79778 0.33279 0.83037 0.0
H1913 H 0.8051 0.28746 0.80199 0.0
H1914 H 0.79879 0.21582 0.84696 0.0
H1915 H 0.80881 0.24022 0.83295 0.0
H1916 H 0.80667 0.28696 0.8622 0.0
C1917 C 0.80549 0.33225 0.8197 0.0
C1918 C 0.80561 0.28747 0.81514 0.0
C1919 C 0.80789 0.34648 0.81053 0.0
C1920 C 0.79578 0.22769 0.85182 0.0
C1921 C 0.8014 0.24169 0.84373 0.0
C1922 C 0.80616 0.28688 0.84905 0.0
C1923 C 0.81241 0.31736 0.81475 0.0
C1924 C 0.80908 0.30191 0.82369 0.0
C1925 C 0.79739 0.25739 0.84945 0.0
C1926 C 0.80232 0.27248 0.84053 0.0
H1927 H 0.8322 0.33051 0.78097 0.0
H1928 H 0.82802 0.30604 0.79683 0.0
H1929 H 0.81228 0.31221 0.84771 0.0
H1930 H 0.77492 0.24647 0.88234 0.0
H1931 H 0.78429 0.2704 0.86829 0.0
C1932 C 0.59662 0.96425 0.46411 0.0
C1933 C 0.59618 0.95538 0.4787 0.0
C1934 C 0.58235 0.96653 0.45498 0.0
C1935 C 0.53987 0.95069 0.45034 0.0
H1936 H 0.53134 0.99317 0.43198 0.0
C1937 C 0.47562 0.97273 0.43007 0.0
C1938 C 0.47491 0.98221 0.41588 0.0
C1939 C 0.4907 0.96799 0.43652 0.0
C1940 C 0.5336 0.98116 0.43688 0.0
H1941 H 0.58032 0.94183 0.49496 0.0
H1942 H 0.55585 0.94605 0.47942 0.0
H1943 H 0.55746 0.98783 0.44486 0.0
H1944 H 0.48951 0.99328 0.39685 0.0
H1945 H 0.5155 0.98499 0.40798 0.0
H1946 H 0.51579 0.94421 0.44269 0.0
C1947 C 0.56712 0.951 0.47475 0.0
C1948 C 0.54863 0.97808 0.44421 0.0
C1949 C 0.58125 0.94871 0.48378 0.0
C1950 C 0.48955 0.98616 0.40792 0.0
C1951 C 0.50451 0.98149 0.41434 0.0
C1952 C 0.52479 0.95381 0.44311 0.0
C1953 C 0.56739 0.95997 0.46025 0.0
C1954 C 0.55192 0.96285 0.45119 0.0
C1955 C 0.50533 0.97269 0.42891 0.0
C1956 C 0.52144 0.96912 0.43637 0.0
H1957 H 0.6079 0.96953 0.45984 0.0
H1958 H 0.58305 0.9734 0.44378 0.0
H1959 H 0.54205 0.9387 0.45531 0.0
H1960 H 0.46459 0.96952 0.43652 0.0
H1961 H 0.49094 0.96122 0.44779 0.0
C1962 C 0.22039 0.29399 0.84879 0.0
C1963 C 0.22449 0.30939 0.84259 0.0
C1964 C 0.21559 0.28145 0.83847 0.0
C1965 C 0.19808 0.26782 0.80158 0.0
H1966 H 0.23012 0.23327 0.80336 0.0
C1967 C 0.1934 0.20853 0.76277 0.0
C1968 C 0.19897 0.19403 0.76992 0.0
C1969 C 0.19556 0.22351 0.77063 0.0
C1970 C 0.22092 0.24266 0.80283 0.0
H1971 H 0.22556 0.32403 0.82073 0.0
H1972 H 0.21677 0.30184 0.80249 0.0
H1973 H 0.2347 0.25836 0.81839 0.0
H1974 H 0.21056 0.18388 0.79127 0.0
H1975 H 0.21387 0.20978 0.80515 0.0
H1976 H 0.18392 0.25185 0.78657 0.0
C1977 C 0.21747 0.29966 0.81545 0.0
C1978 C 0.22367 0.25711 0.8113 0.0
C1979 C 0.22242 0.31232 0.82586 0.0
C1980 C 0.20625 0.1948 0.78534 0.0
C1981 C 0.20828 0.20973 0.79324 0.0
C1982 C 0.19521 0.25321 0.79319 0.0
C1983 C 0.21459 0.28399 0.82168 0.0
C1984 C 0.2122 0.26972 0.81095 0.0
C1985 C 0.20326 0.22434 0.78587 0.0
C1986 C 0.20648 0.24031 0.79396 0.0
H1987 H 0.22164 0.29134 0.86163 0.0
H1988 H 0.21329 0.26952 0.84356 0.0
H1989 H 0.18901 0.27736 0.80126 0.0
H1990 H 0.18779 0.2084 0.75086 0.0
H1991 H 0.19163 0.23447 0.7645 0.0
C1992 C 0.04762 0.03158 0.93751 0.0
C1993 C 0.05577 0.04078 0.92571 0.0
C1994 C 0.03242 0.03648 0.94336 0.0
C1995 C 0.9975 0.06339 0.93168 0.0
H1996 H 0.9808 0.04956 0.97351 0.0
C1997 C 0.93803 0.08592 0.96349 0.0
C1998 C 0.9274 0.07367 0.96884 0.0
C1999 C 0.95315 0.08196 0.95676 0.0
C2000 C 0.9853 0.05338 0.96173 0.0
H2001 H 0.05477 0.06253 0.91106 0.0
H2002 H 0.02888 0.07195 0.92219 0.0
H2003 H 1.00908 0.04421 0.96656 0.0
H2004 H 0.92409 0.04767 0.97115 0.0
H2005 H 0.95083 0.04072 0.95977 0.0
H2006 H 0.97371 0.07329 0.9274 0.0
C2007 C 0.03383 0.06059 0.9266 0.0
C2008 C 1.00154 0.05028 0.95767 0.0
C2009 C 0.04888 0.05544 0.92046 0.0
C2010 C 0.93191 0.05733 0.96679 0.0
C2011 C 0.94725 0.05337 0.96047 0.0
C2012 C 0.98137 0.06683 0.93594 0.0
C2013 C 0.02503 0.05088 0.93769 0.0
C2014 C 1.00791 0.05509 0.9425 0.0
C2015 C 0.95813 0.06568 0.95572 0.0
C2016 C 0.97507 0.06171 0.95093 0.0
H2017 H 0.05244 0.01992 0.9413 0.0
H2018 H 0.02611 0.0284 0.95159 0.0
H2019 H 1.00165 0.067 0.91973 0.0
H2020 H 0.93493 0.09861 0.96519 0.0
H2021 H 0.96134 0.09167 0.95325 0.0
C2022 C 0.737 0.25446 0.15871 0.0
C2023 C 0.74745 0.25184 0.14544 0.0
C2024 C 0.73435 0.27018 0.1647 0.0
C2025 C 0.75256 0.31147 0.16554 0.0
H2026 H 0.70992 0.32353 0.18149 0.0
C2027 C 0.71382 0.36824 0.19663 0.0
C2028 C 0.72482 0.37289 0.2088 0.0
C2029 C 0.71768 0.35572 0.1858 0.0
C2030 C 0.72188 0.32054 0.17686 0.0
H2031 H 0.76309 0.26383 0.1279 0.0
H2032 H 0.75828 0.29121 0.13819 0.0
H2033 H 0.71381 0.29713 0.1689 0.0
H2034 H 0.74882 0.36883 0.21868 0.0
H2035 H 0.75561 0.3468 0.19989 0.0
H2036 H 0.76057 0.33499 0.17349 0.0
C2037 C 0.75232 0.28109 0.14414 0.0
C2038 C 0.72416 0.30523 0.16985 0.0
C2039 C 0.75498 0.26537 0.13816 0.0
C2040 C 0.7403 0.36574 0.20912 0.0
C2041 C 0.7441 0.35301 0.19841 0.0
C2042 C 0.75027 0.32684 0.17256 0.0
C2043 C 0.74207 0.2837 0.15757 0.0
C2044 C 0.73955 0.30038 0.16427 0.0
C2045 C 0.73249 0.3473 0.18717 0.0
C2046 C 0.73491 0.33154 0.17843 0.0
H2047 H 0.73108 0.24434 0.16469 0.0
H2048 H 0.72655 0.27167 0.17519 0.0
H2049 H 0.76463 0.30811 0.1615 0.0
H2050 H 0.70172 0.37343 0.19629 0.0
H2051 H 0.70861 0.35198 0.17703 0.0
C2052 C 0.59107 0.05141 0.05886 0.0
C2053 C 0.59187 0.06376 0.04706 0.0
C2054 C 0.57638 0.04819 0.06705 0.0
C2055 C 0.53196 0.05338 0.06153 0.0
H2056 H 0.52895 0.04316 0.10738 0.0
C2057 C 0.4695 0.04463 0.09289 0.0
C2058 C 0.46826 0.03184 0.10414 0.0
C2059 C 0.48474 0.04951 0.08693 0.0
C2060 C 0.52956 0.04585 0.09451 0.0
H2061 H 0.57805 0.08298 0.0354 0.0
H2062 H 0.55286 0.0775 0.04964 0.0
H2063 H 0.55545 0.0492 0.09535 0.0
H2064 H 0.48226 0.01446 0.11823 0.0
H2065 H 0.50853 0.02275 0.10775 0.0
H2066 H 0.50623 0.0498 0.06051 0.0
C2067 C 0.56335 0.07001 0.05233 0.0
C2068 C 0.54479 0.0493 0.08763 0.0
C2069 C 0.57789 0.07321 0.04422 0.0
C2070 C 0.48267 0.02438 0.10959 0.0
C2071 C 0.49784 0.02922 0.10363 0.0
C2072 C 0.51678 0.04987 0.06837 0.0
C2073 C 0.56224 0.05724 0.06358 0.0
C2074 C 0.54618 0.05318 0.07105 0.0
C2075 C 0.49913 0.04171 0.09206 0.0
C2076 C 0.51533 0.04606 0.08496 0.0
H2077 H 0.60158 0.04389 0.06132 0.0
H2078 H 0.57595 0.03824 0.07565 0.0
H2079 H 0.53258 0.05602 0.04865 0.0
H2080 H 0.45868 0.05066 0.08844 0.0
H2081 H 0.48524 0.05936 0.07822 0.0
C2082 C 0.55033 0.48041 0.07587 0.0
C2083 C 0.55221 0.48316 0.09261 0.0
C2084 C 0.53495 0.47666 0.06946 0.0
C2085 C 0.49388 0.46186 0.08034 0.0
H2086 H 0.47923 0.4882 0.04411 0.0
C2087 C 0.43535 0.44873 0.04395 0.0
C2088 C 0.42551 0.4619 0.03936 0.0
C2089 C 0.45022 0.45131 0.05169 0.0
C2090 C 0.48311 0.48086 0.05432 0.0
H2091 H 0.53982 0.4833 0.11585 0.0
H2092 H 0.51325 0.4763 0.10481 0.0
H2093 H 0.50706 0.49122 0.05425 0.0
H2094 H 0.42328 0.48811 0.03959 0.0
H2095 H 0.44961 0.49272 0.05306 0.0
H2096 H 0.46999 0.45145 0.08039 0.0
C2097 C 0.5235 0.47715 0.09657 0.0
C2098 C 0.49911 0.48241 0.05996 0.0
C2099 C 0.53872 0.48115 0.1029 0.0
C2100 C 0.43057 0.47775 0.04318 0.0
C2101 C 0.44568 0.48037 0.0507 0.0
C2102 C 0.47797 0.46017 0.07457 0.0
C2103 C 0.52131 0.47532 0.07974 0.0
C2104 C 0.50466 0.47295 0.07306 0.0
C2105 C 0.45577 0.46715 0.0548 0.0
C2106 C 0.47238 0.46966 0.06152 0.0
H2107 H 0.56049 0.4821 0.06766 0.0
H2108 H 0.53365 0.47518 0.05645 0.0
H2109 H 0.49779 0.45439 0.09044 0.0
H2110 H 0.43176 0.43638 0.04111 0.0
H2111 H 0.45772 0.44088 0.05458 0.0
C2112 C 0.07656 0.29949 0.32317 0.0
C2113 C 0.09346 0.30192 0.32403 0.0
C2114 C 0.0658 0.3115 0.32892 0.0
C2115 C 0.0661 0.3454 0.35852 0.0
H2116 H 0.02363 0.3562 0.34126 0.0
C2117 C 0.02881 0.39479 0.38951 0.0
C2118 C 0.01252 0.39103 0.39281 0.0
C2119 C 0.03763 0.38576 0.37812 0.0
C2120 C 0.03545 0.35327 0.34625 0.0
H2121 H 0.11226 0.3193 0.33025 0.0
H2122 H 0.0937 0.34024 0.33966 0.0
H2123 H 0.04094 0.3366 0.32684 0.0
H2124 H 0.99245 0.37528 0.38646 0.0
H2125 H 1.00786 0.35933 0.36653 0.0
H2126 H 0.06071 0.36162 0.37802 0.0
C2127 C 0.08864 0.32894 0.33515 0.0
C2128 C 0.04535 0.34202 0.338 0.0
C2129 C 0.09931 0.31697 0.32962 0.0
C2130 C 1.00489 0.3787 0.38378 0.0
C2131 C 0.01378 0.3695 0.37245 0.0
C2132 C 0.05629 0.35656 0.3667 0.0
C2133 C 0.07178 0.32616 0.33552 0.0
C2134 C 0.06089 0.33803 0.34399 0.0
C2135 C 0.03047 0.37246 0.37002 0.0
C2136 C 0.04086 0.36079 0.36067 0.0
H2137 H 0.07171 0.28797 0.31901 0.0
H2138 H 0.05289 0.30893 0.32901 0.0
H2139 H 0.07774 0.34231 0.36382 0.0
H2140 H 0.03504 0.40404 0.39653 0.0
H2141 H 0.05034 0.38866 0.3763 0.0
C2142 C 0.60082 0.72768 0.83879 0.0
C2143 C 0.61149 0.74057 0.8423 0.0
C2144 C 0.59021 0.72171 0.85067 0.0
C2145 C 0.58306 0.72035 0.89518 0.0
H2146 H 0.5403 0.70596 0.88157 0.0
C2147 C 0.52066 0.68569 0.92029 0.0
C2148 C 0.52843 0.67283 0.92834 0.0
C2149 C 0.52991 0.69784 0.91264 0.0
C2150 C 0.55204 0.71021 0.88573 0.0
H2151 H 0.61946 0.75715 0.8612 0.0
H2152 H 0.60086 0.74681 0.88189 0.0
H2153 H 0.55823 0.71901 0.86206 0.0
H2154 H 0.55171 0.66335 0.93606 0.0
H2155 H 0.56773 0.68439 0.92303 0.0
H2156 H 0.57684 0.71152 0.91887 0.0
C2157 C 0.60081 0.7412 0.86998 0.0
C2158 C 0.56248 0.71745 0.87442 0.0
C2159 C 0.61148 0.74715 0.85809 0.0
C2160 C 0.54542 0.67322 0.93003 0.0
C2161 C 0.55461 0.68533 0.92251 0.0
C2162 C 0.57259 0.71315 0.90652 0.0
C2163 C 0.5899 0.72851 0.86638 0.0
C2164 C 0.57829 0.72222 0.87886 0.0
C2165 C 0.54705 0.69733 0.91299 0.0
C2166 C 0.55708 0.70759 0.90185 0.0
H2167 H 0.60053 0.72226 0.8268 0.0
H2168 H 0.58229 0.71167 0.84752 0.0
H2169 H 0.59514 0.72385 0.89908 0.0
H2170 H 0.5076 0.68556 0.91861 0.0
H2171 H 0.52366 0.70707 0.90565 0.0
C2172 C 0.90563 0.20313 0.33076 0.0
C2173 C 0.9114 0.21739 0.32337 0.0
C2174 C 0.91638 0.19116 0.33605 0.0
C2175 C 0.95922 0.17646 0.33501 0.0
H2176 H 0.94747 0.15986 0.37751 0.0
C2177 C 1.0023 0.14099 0.37937 0.0
C2178 C 0.99491 0.12931 0.38939 0.0
C2179 C 0.99294 0.14989 0.3682 0.0
C2180 C 0.95085 0.16411 0.36551 0.0
H2181 H 0.93297 0.22991 0.31495 0.0
H2182 H 0.95197 0.20903 0.32461 0.0
H2183 H 0.9298 0.17912 0.36411 0.0
H2184 H 0.97241 0.11691 0.39491 0.0
H2185 H 0.95626 0.13181 0.37506 0.0
H2186 H 0.98064 0.16156 0.33685 0.0
C2187 C 0.93905 0.20704 0.3261 0.0
C2188 C 0.94067 0.17521 0.35779 0.0
C2189 C 0.92818 0.21902 0.32058 0.0
C2190 C 0.9784 0.12572 0.38716 0.0
C2191 C 0.96913 0.13444 0.37596 0.0
C2192 C 0.96952 0.1653 0.34284 0.0
C2193 C 0.93327 0.19319 0.33437 0.0
C2194 C 0.94457 0.18144 0.34236 0.0
C2195 C 0.97607 0.14722 0.36696 0.0
C2196 C 0.96534 0.15886 0.35813 0.0
H2197 H 0.89274 0.20139 0.33286 0.0
H2198 H 0.91142 0.18045 0.34189 0.0
H2199 H 0.96261 0.18101 0.32313 0.0
H2200 H 0.01494 0.14422 0.38117 0.0
H2201 H 0.99867 0.15967 0.36151 0.0
C2202 C 0.46901 0.84366 0.93946 0.0
C2203 C 0.48573 0.84307 0.93614 0.0
C2204 C 0.45854 0.83176 0.93337 0.0
C2205 C 0.45602 0.79241 0.91046 0.0
H2206 H 0.41862 0.8134 0.89096 0.0
C2207 C 0.40903 0.75886 0.86834 0.0
C2208 C 0.4065 0.76706 0.85356 0.0
C2209 C 0.41737 0.76656 0.88116 0.0
C2210 C 0.42893 0.8073 0.89641 0.0
H2211 H 0.50479 0.82913 0.9246 0.0
H2212 H 0.48644 0.80838 0.91357 0.0
H2213 H 0.43626 0.82882 0.90885 0.0
H2214 H 0.41014 0.78987 0.84087 0.0
H2215 H 0.4242 0.80323 0.86309 0.0
H2216 H 0.44887 0.77104 0.89717 0.0
C2217 C 0.48142 0.81784 0.92121 0.0
C2218 C 0.43901 0.8161 0.90684 0.0
C2219 C 0.49198 0.82969 0.92757 0.0
C2220 C 0.41189 0.7832 0.85209 0.0
C2221 C 0.41992 0.79091 0.86487 0.0
C2222 C 0.44582 0.78353 0.9 0.0
C2223 C 0.46446 0.81916 0.92342 0.0
C2224 C 0.45289 0.80892 0.9138 0.0
C2225 C 0.42296 0.78267 0.8795 0.0
C2226 C 0.43239 0.79103 0.89254 0.0
H2227 H 0.4639 0.8539 0.946 0.0
H2228 H 0.44564 0.83296 0.93572 0.0
H2229 H 0.46651 0.78644 0.91568 0.0
H2230 H 0.40513 0.74637 0.86975 0.0
H2231 H 0.4195 0.75993 0.89232 0.0
C2232 C 0.12571 0.69623 0.16565 0.0
C2233 C 0.11995 0.70908 0.17534 0.0
C2234 C 0.11528 0.68373 0.1607 0.0
C2235 C 0.07449 0.66505 0.16834 0.0
H2236 H 0.07961 0.65015 0.12394 0.0
C2237 C 0.0249 0.63114 0.13079 0.0
C2238 C 0.03019 0.61999 0.119 0.0
C2239 C 0.03622 0.63942 0.14051 0.0
C2240 C 0.07815 0.65391 0.13647 0.0
H2241 H 0.09869 0.71865 0.18766 0.0
H2242 H 0.08042 0.69709 0.1787 0.0
H2243 H 0.09853 0.66991 0.13491 0.0
H2244 H 0.05117 0.60805 0.10864 0.0
H2245 H 0.07089 0.62197 0.12593 0.0
H2246 H 0.05366 0.64933 0.16956 0.0
C2247 C 0.09308 0.69648 0.17516 0.0
C2248 C 0.08905 0.6653 0.1428 0.0
C2249 C 0.10356 0.70893 0.18023 0.0
C2250 C 0.0468 0.61634 0.1179 0.0
C2251 C 0.05808 0.62453 0.12762 0.0
C2252 C 0.06348 0.65368 0.16194 0.0
C2253 C 0.09875 0.68379 0.16516 0.0
C2254 C 0.08737 0.67111 0.15879 0.0
C2255 C 0.05301 0.63676 0.13846 0.0
C2256 C 0.06517 0.64799 0.1459 0.0
H2257 H 0.13829 0.69586 0.16179 0.0
H2258 H 0.1202 0.67402 0.15329 0.0
H2259 H 0.0729 0.66907 0.18077 0.0
H2260 H 0.01218 0.63451 0.13148 0.0
H2261 H 0.03188 0.64883 0.14864 0.0
C2262 C 0.90358 0.74628 0.14694 0.0
C2263 C 0.90354 0.74301 0.16373 0.0
C2264 C 0.91398 0.73777 0.13642 0.0
C2265 C 0.95142 0.71207 0.13698 0.0
H2266 H 0.93737 0.69853 0.09405 0.0
C2267 C 0.97963 0.65844 0.10319 0.0
C2268 C 0.98463 0.66044 0.08696 0.0
C2269 C 0.97076 0.67047 0.11114 0.0
C2270 C 0.94154 0.70248 0.1059 0.0
H2271 H 0.91413 0.72789 0.18251 0.0
H2272 H 0.93179 0.71282 0.16427 0.0
H2273 H 0.91942 0.71533 0.11087 0.0
H2274 H 0.98419 0.67675 0.06632 0.0
H2275 H 0.96799 0.69789 0.08027 0.0
H2276 H 0.97317 0.69855 0.1323 0.0
C2277 C 0.92419 0.72227 0.15919 0.0
C2278 C 0.93127 0.7121 0.11557 0.0
C2279 C 0.91392 0.73084 0.16968 0.0
C2280 C 0.98052 0.67489 0.07883 0.0
C2281 C 0.97123 0.68691 0.08676 0.0
C2282 C 0.96155 0.70234 0.12741 0.0
C2283 C 0.92455 0.72572 0.14242 0.0
C2284 C 0.93592 0.71671 0.13142 0.0
C2285 C 0.96637 0.6848 0.10305 0.0
C2286 C 0.9566 0.69716 0.11192 0.0
H2287 H 0.89578 0.75562 0.14194 0.0
H2288 H 0.91397 0.74088 0.12364 0.0
H2289 H 0.95569 0.71574 0.14888 0.0
H2290 H 0.98271 0.64753 0.1099 0.0
H2291 H 0.96709 0.66844 0.12362 0.0
C2292 C 0.91141 0.8152 0.17882 0.0
C2293 C 0.89517 0.81485 0.17349 0.0
C2294 C 0.92177 0.82793 0.17428 0.0
C2295 C 0.9262 0.85935 0.14245 0.0
H2296 H 0.96047 0.87574 0.17039 0.0
C2297 C 0.96905 0.90815 0.11868 0.0
C2298 C 0.9856 0.90448 0.12038 0.0
C2299 C 0.95744 0.90013 0.12813 0.0
C2300 C 0.95096 0.87128 0.16246 0.0
H2301 H 0.87693 0.82797 0.15975 0.0
H2302 H 0.89483 0.85028 0.15214 0.0
H2303 H 0.94109 0.85577 0.18094 0.0
H2304 H 1.00318 0.89021 0.13368 0.0
H2305 H 0.9829 0.87614 0.15032 0.0
H2306 H 0.93612 0.87454 0.12391 0.0
C2307 C 0.89972 0.84054 0.1595 0.0
C2308 C 0.93988 0.85979 0.16847 0.0
C2309 C 0.8894 0.82777 0.16394 0.0
C2310 C 0.99049 0.89355 0.1325 0.0
C2311 C 0.97885 0.88543 0.14193 0.0
C2312 C 0.93717 0.87084 0.1365 0.0
C2313 C 0.91612 0.84067 0.16439 0.0
C2314 C 0.92743 0.85357 0.15848 0.0
C2315 C 0.96215 0.88806 0.13928 0.0
C2316 C 0.94977 0.87688 0.14636 0.0
H2317 H 0.91627 0.80543 0.18617 0.0
H2318 H 0.93435 0.82748 0.17812 0.0
H2319 H 0.91705 0.85461 0.13426 0.0
H2320 H 0.96501 0.91631 0.10917 0.0
H2321 H 0.9447 0.90267 0.12599 0.0
C2322 C 0.05164 0.87025 0.0935 0.0
C2323 C 0.03664 0.86549 0.08685 0.0
C2324 C 0.06143 0.85913 0.10169 0.0
C2325 C 0.06896 0.81553 0.11 0.0
H2326 H 0.08619 0.8326 0.15046 0.0
C2327 C 0.11543 0.78052 0.15043 0.0
C2328 C 0.11321 0.78147 0.16737 0.0
C2329 C 0.10599 0.79 0.13989 0.0
C2330 C 0.0814 0.82757 0.13927 0.0
H2331 H 0.02057 0.84501 0.08282 0.0
H2332 H 0.03774 0.82541 0.09737 0.0
H2333 H 0.07009 0.85004 0.13296 0.0
H2334 H 0.0991 0.79304 0.18643 0.0
H2335 H 0.08269 0.80944 0.16814 0.0
H2336 H 0.08018 0.79291 0.11659 0.0
C2337 C 0.04192 0.83783 0.09612 0.0
C2338 C 0.07231 0.83765 0.12911 0.0
C2339 C 0.03208 0.84903 0.08778 0.0
C2340 C 0.10125 0.79205 0.17348 0.0
C2341 C 0.09186 0.80152 0.16297 0.0
C2342 C 0.07816 0.80541 0.12019 0.0
C2343 C 0.05647 0.8429 0.10361 0.0
C2344 C 0.06602 0.83182 0.11431 0.0
C2345 C 0.09415 0.8007 0.14604 0.0
C2346 C 0.08447 0.81131 0.13498 0.0
H2347 H 0.05565 0.88279 0.0928 0.0
H2348 H 0.07276 0.86337 0.1069 0.0
H2349 H 0.06434 0.81067 0.09867 0.0
H2350 H 0.1245 0.77247 0.14529 0.0
H2351 H 0.10818 0.78917 0.12693 0.0
C2352 C 0.31408 0.08793 0.30907 0.0
C2353 C 0.31908 0.10429 0.30922 0.0
C2354 C 0.31947 0.0771 0.32105 0.0
C2355 C 0.33933 0.07509 0.36176 0.0
H2356 H 0.35606 0.03387 0.34618 0.0
C2357 C 0.39091 0.04056 0.39302 0.0
C2358 C 0.39172 0.02354 0.39212 0.0
C2359 C 0.37813 0.04901 0.3858 0.0
C2360 C 0.35112 0.04514 0.35087 0.0
H2361 H 0.33321 0.12218 0.32249 0.0
H2362 H 0.34263 0.10337 0.34325 0.0
H2363 H 0.34118 0.05154 0.3277 0.0
H2364 H 0.37945 1.00189 0.38361 0.0
H2365 H 0.35687 0.01671 0.37084 0.0
H2366 H 0.34982 0.06894 0.38477 0.0
C2367 C 0.33443 0.09888 0.33397 0.0
C2368 C 0.3426 0.05532 0.34023 0.0
C2369 C 0.3291 0.10968 0.32198 0.0
C2370 C 0.37895 0.015 0.38469 0.0
C2371 C 0.36616 0.02351 0.37722 0.0
C2372 C 0.34784 0.06491 0.37239 0.0
C2373 C 0.32993 0.08238 0.33352 0.0
C2374 C 0.337 0.07064 0.34541 0.0
C2375 C 0.3659 0.04066 0.37725 0.0
C2376 C 0.35427 0.05001 0.36696 0.0
H2377 H 0.30636 0.08334 0.29944 0.0
H2378 H 0.31561 0.06453 0.32043 0.0
H2379 H 0.3349 0.08664 0.36626 0.0
H2380 H 0.40073 0.04741 0.39853 0.0
H2381 H 0.37849 0.06217 0.38594 0.0
C2382 C 0.34213 0.45479 0.97353 0.0
C2383 C 0.34744 0.44513 0.98653 0.0
C2384 C 0.33001 0.44907 0.96293 0.0
C2385 C 0.2986 0.41657 0.95813 0.0
H2386 H 0.309 0.4191 0.9122 0.0
C2387 C 0.27746 0.36827 0.91315 0.0
C2388 C 0.27127 0.37281 0.89787 0.0
C2389 C 0.28448 0.37972 0.92349 0.0
C2390 C 0.30574 0.41853 0.92495 0.0
H2391 H 0.34428 0.42217 0.99889 0.0
H2392 H 0.32306 0.41228 0.98077 0.0
H2393 H 0.32484 0.43493 0.93184 0.0
H2394 H 0.26788 0.39311 0.88145 0.0
H2395 H 0.28058 0.41328 0.89961 0.0
H2396 H 0.28001 0.39966 0.95135 0.0
C2397 C 0.32791 0.42435 0.97875 0.0
C2398 C 0.31479 0.42763 0.93622 0.0
C2399 C 0.34006 0.43001 0.98918 0.0
C2400 C 0.2725 0.38921 0.89313 0.0
C2401 C 0.27978 0.40073 0.9035 0.0
C2402 C 0.28964 0.40748 0.94691 0.0
C2403 C 0.323 0.4336 0.96522 0.0
C2404 C 0.31167 0.42633 0.95302 0.0
C2405 C 0.28569 0.3961 0.91889 0.0
C2406 C 0.29344 0.40792 0.93025 0.0
H2407 H 0.34798 0.46633 0.97103 0.0
H2408 H 0.32647 0.45653 0.95269 0.0
H2409 H 0.29561 0.41554 0.97091 0.0
H2410 H 0.27677 0.3558 0.9173 0.0
H2411 H 0.28917 0.37566 0.9351 0.0
C2412 C 0.7016 0.42932 0.29424 0.0
C2413 C 0.69677 0.41326 0.29091 0.0
C2414 C 0.69449 0.43801 0.30712 0.0
C2415 C 0.66785 0.43255 0.34385 0.0
H2416 H 0.65499 0.47701 0.3351 0.0
C2417 C 0.61267 0.46375 0.37369 0.0
C2418 C 0.61487 0.47947 0.38001 0.0
C2419 C 0.62504 0.4562 0.36479 0.0
C2420 C 0.65868 0.46467 0.3378 0.0
H2421 H 0.68114 0.39357 0.299 0.0
H2422 H 0.66866 0.4086 0.32086 0.0
H2423 H 0.67291 0.46289 0.31607 0.0
H2424 H 0.63177 0.49962 0.38196 0.0
H2425 H 0.65327 0.48653 0.36596 0.0
H2426 H 0.6528 0.4341 0.36508 0.0
C2427 C 0.67809 0.41455 0.31387 0.0
C2428 C 0.66903 0.45658 0.32694 0.0
C2429 C 0.6852 0.40592 0.30114 0.0
C2430 C 0.62976 0.48745 0.37733 0.0
C2431 C 0.64202 0.48002 0.36812 0.0
C2432 C 0.65731 0.44054 0.35452 0.0
C2433 C 0.68241 0.4308 0.31693 0.0
C2434 C 0.67343 0.44025 0.32961 0.0
C2435 C 0.63975 0.46433 0.36175 0.0
C2436 C 0.65236 0.45656 0.35143 0.0
H2437 H 0.71047 0.43534 0.2866 0.0
H2438 H 0.69827 0.45044 0.30924 0.0
H2439 H 0.67129 0.42015 0.34659 0.0
H2440 H 0.60134 0.45729 0.37554 0.0
H2441 H 0.62292 0.44415 0.3599 0.0
C2442 C 0.68313 0.08298 0.99712 0.0
C2443 C 0.67015 0.07335 0.99162 0.0
C2444 C 0.69472 0.08899 0.98608 0.0
C2445 C 0.69659 0.09945 0.94231 0.0
H2446 H 0.7408 0.11237 0.95224 0.0
C2447 C 0.72769 0.15253 0.90997 0.0
C2448 C 0.7443 0.15182 0.90606 0.0
C2449 C 0.72026 0.14013 0.91884 0.0
C2450 C 0.72856 0.10862 0.94916 0.0
H2451 H 0.65972 0.06148 0.97062 0.0
H2452 H 0.68028 0.07108 0.95158 0.0
H2453 H 0.72584 0.09501 0.97128 0.0
H2454 H 0.76613 0.13729 0.90814 0.0
H2455 H 0.75305 0.11538 0.92389 0.0
H2456 H 0.69916 0.11315 0.92038 0.0
C2457 C 0.68136 0.07452 0.96424 0.0
C2458 C 0.7199 0.09882 0.96017 0.0
C2459 C 0.66969 0.06878 0.97519 0.0
C2460 C 0.75326 0.13807 0.91082 0.0
C2461 C 0.74582 0.12565 0.91998 0.0
C2462 C 0.7052 0.10919 0.93138 0.0
C2463 C 0.69357 0.0854 0.96934 0.0
C2464 C 0.70366 0.09433 0.95704 0.0
C2465 C 0.72923 0.12664 0.92423 0.0
C2466 C 0.72116 0.11426 0.93481 0.0
H2467 H 0.68355 0.08698 0.00967 0.0
H2468 H 0.70384 0.09739 0.99051 0.0
H2469 H 0.68408 0.09654 0.93946 0.0
H2470 H 0.72045 0.16297 0.90653 0.0
H2471 H 0.70756 0.14147 0.92202 0.0
C2472 C 0.31677 0.93834 0.22328 0.0
C2473 C 0.31665 0.92142 0.22091 0.0
C2474 C 0.3215 0.94879 0.21059 0.0
C2475 C 0.34649 0.94695 0.17308 0.0
H2476 H 0.33144 0.99097 0.16573 0.0
C2477 C 0.37522 0.98373 0.1223 0.0
C2478 C 0.38087 0.99915 0.12687 0.0
C2479 C 0.36357 0.97567 0.13171 0.0
C2480 C 0.33576 0.97869 0.16764 0.0
H2481 H 0.31999 0.90226 0.20316 0.0
H2482 H 0.32742 0.92031 0.18101 0.0
H2483 H 0.31823 0.97408 0.18648 0.0
H2484 H 0.37826 0.01862 0.14435 0.0
H2485 H 0.35789 1.00458 0.16089 0.0
H2486 H 0.36415 0.95145 0.15465 0.0
C2487 C 0.32458 0.92562 0.19272 0.0
C2488 C 0.32822 0.96902 0.17958 0.0
C2489 C 0.32016 0.91525 0.20539 0.0
C2490 C 0.37372 1.00694 0.14029 0.0
C2491 C 0.36215 0.9988 0.14984 0.0
C2492 C 0.35391 0.9565 0.1612 0.0
C2493 C 0.32602 0.94248 0.19529 0.0
C2494 C 0.33349 0.95298 0.18243 0.0
C2495 C 0.35759 0.98271 0.14614 0.0
C2496 C 0.34868 0.9725 0.15825 0.0
H2497 H 0.31423 0.94339 0.23517 0.0
H2498 H 0.32248 0.96168 0.21306 0.0
H2499 H 0.3513 0.93489 0.1752 0.0
H2500 H 0.38081 0.97733 0.11222 0.0
H2501 H 0.36009 0.96344 0.12828 0.0
C2502 C 0.22222 0.34918 0.11509 0.0
C2503 C 0.23739 0.35377 0.12146 0.0
C2504 C 0.21351 0.3598 0.10509 0.0
C2505 C 0.21664 0.39068 0.07492 0.0
H2506 H 0.17349 0.40398 0.08833 0.0
C2507 C 0.17367 0.42841 0.03266 0.0
C2508 C 0.15726 0.42362 0.033 0.0
C2509 C 0.18469 0.42233 0.04426 0.0
C2510 C 0.18545 0.40028 0.08427 0.0
H2511 H 0.25547 0.37296 0.12211 0.0
H2512 H 0.24036 0.39135 0.10409 0.0
H2513 H 0.19026 0.38799 0.10672 0.0
H2514 H 0.1397 0.40856 0.04581 0.0
H2515 H 0.15861 0.39783 0.06523 0.0
H2516 H 0.2115 0.40207 0.05205 0.0
C2517 C 0.23519 0.37962 0.10712 0.0
C2518 C 0.19507 0.39122 0.09489 0.0
C2519 C 0.24374 0.36915 0.11748 0.0
C2520 C 0.15217 0.41274 0.04517 0.0
C2521 C 0.16308 0.40663 0.05653 0.0
C2522 C 0.20685 0.3995 0.06409 0.0
C2523 C 0.21996 0.37505 0.10092 0.0
C2524 C 0.21061 0.38608 0.09021 0.0
C2525 C 0.1795 0.41132 0.05635 0.0
C2526 C 0.19093 0.40405 0.06847 0.0
H2527 H 0.21702 0.33742 0.11794 0.0
H2528 H 0.2018 0.35601 0.10041 0.0
H2529 H 0.22862 0.38681 0.07106 0.0
H2530 H 0.178 0.43672 0.02343 0.0
H2531 H 0.19724 0.42628 0.04377 0.0
C2532 C 0.69846 0.58625 0.22015 0.0
C2533 C 0.6953 0.60304 0.21946 0.0
C2534 C 0.69302 0.57589 0.20766 0.0
C2535 C 0.66161 0.57518 0.17525 0.0
H2536 H 0.6841 0.53691 0.15938 0.0
C2537 C 0.63541 0.54087 0.1216 0.0
C2538 C 0.63299 0.52417 0.124 0.0
C2539 C 0.64612 0.54956 0.1315 0.0
C2540 C 0.67769 0.54756 0.16374 0.0
H2541 H 0.68506 0.62223 0.20461 0.0
H2542 H 0.67617 0.60447 0.18285 0.0
H2543 H 0.69675 0.55392 0.18047 0.0
H2544 H 0.64043 0.50324 0.13802 0.0
H2545 H 0.6593 0.51848 0.15546 0.0
H2546 H 0.6426 0.56898 0.15873 0.0
C2547 C 0.68223 0.59908 0.19321 0.0
C2548 C 0.68489 0.55726 0.17586 0.0
C2549 C 0.68743 0.60932 0.20569 0.0
C2550 C 0.64242 0.51604 0.13567 0.0
C2551 C 0.65312 0.5248 0.14573 0.0
C2552 C 0.65454 0.56563 0.16316 0.0
C2553 C 0.68445 0.58216 0.19421 0.0
C2554 C 0.67699 0.57132 0.18164 0.0
C2555 C 0.65443 0.54181 0.14426 0.0
C2556 C 0.66251 0.55179 0.15709 0.0
H2557 H 0.7045 0.58106 0.23062 0.0
H2558 H 0.69494 0.56292 0.20887 0.0
H2559 H 0.65485 0.58556 0.17972 0.0
H2560 H 0.62809 0.54744 0.11285 0.0
H2561 H 0.64708 0.56259 0.12984 0.0
C2562 C 0.77734 0.15504 0.11156 0.0
C2563 C 0.78185 0.17139 0.10929 0.0
C2564 C 0.784 0.14276 0.10176 0.0
C2565 C 0.80421 0.13661 0.06194 0.0
H2566 H 0.82045 0.09662 0.08076 0.0
C2567 C 0.85644 0.08837 0.04567 0.0
C2568 C 0.85395 0.08655 0.02888 0.0
C2569 C 0.84443 0.09517 0.05555 0.0
C2570 C 0.81586 0.10767 0.07529 0.0
H2571 H 0.79712 0.18754 0.09508 0.0
H2572 H 0.80871 0.16624 0.07819 0.0
H2573 H 0.80636 0.11634 0.09798 0.0
H2574 H 0.83653 0.08937 0.00939 0.0
H2575 H 0.81535 0.10131 0.0267 0.0
H2576 H 0.81429 0.12837 0.03943 0.0
C2577 C 0.79987 0.16289 0.08736 0.0
C2578 C 0.8077 0.11893 0.08515 0.0
C2579 C 0.79332 0.17511 0.09717 0.0
C2580 C 0.8387 0.09049 0.02232 0.0
C2581 C 0.82668 0.09751 0.03221 0.0
C2582 C 0.81228 0.12535 0.05209 0.0
C2583 C 0.79519 0.14658 0.0894 0.0
C2584 C 0.80218 0.13374 0.07868 0.0
C2585 C 0.82966 0.10049 0.04883 0.0
C2586 C 0.8186 0.11093 0.05871 0.0
H2587 H 0.76851 0.15174 0.12076 0.0
H2588 H 0.78012 0.13032 0.10363 0.0
H2589 H 0.79986 0.14778 0.0565 0.0
H2590 H 0.86811 0.08547 0.05103 0.0
H2591 H 0.84724 0.09736 0.06822 0.0
C2592 C 0.38601 0.40722 0.04669 0.0
C2593 C 0.38621 0.40365 0.03 0.0
C2594 C 0.37909 0.39644 0.05778 0.0
C2595 C 0.34669 0.36648 0.06014 0.0
H2596 H 0.36288 0.36064 0.10401 0.0
C2597 C 0.30784 0.33528 0.10989 0.0
C2598 C 0.30779 0.34291 0.1252 0.0
C2599 C 0.31918 0.33973 0.09799 0.0
C2600 C 0.35813 0.36221 0.09184 0.0
H2601 H 0.37986 0.38573 0.01181 0.0
H2602 H 0.36745 0.36673 0.03132 0.0
H2603 H 0.38027 0.37309 0.08346 0.0
H2604 H 0.31993 0.36098 0.14009 0.0
H2605 H 0.3395 0.36888 0.11936 0.0
H2606 H 0.32432 0.35625 0.06863 0.0
C2607 C 0.37278 0.37791 0.03578 0.0
C2608 C 0.36814 0.36927 0.08004 0.0
C2609 C 0.38001 0.38867 0.02465 0.0
C2610 C 0.31963 0.3548 0.12846 0.0
C2611 C 0.33095 0.35927 0.11657 0.0
C2612 C 0.33664 0.35947 0.07196 0.0
C2613 C 0.37195 0.38187 0.05244 0.0
C2614 C 0.3624 0.37187 0.06415 0.0
C2615 C 0.33077 0.35193 0.1011 0.0
C2616 C 0.34208 0.35762 0.08808 0.0
H2617 H 0.39068 0.41872 0.05113 0.0
H2618 H 0.37851 0.39999 0.07045 0.0
H2619 H 0.34181 0.36849 0.04808 0.0
H2620 H 0.29894 0.32603 0.10696 0.0
H2621 H 0.31881 0.33366 0.08631 0.0
C2622 C 0.30112 0.69329 0.43004 0.0
C2623 C 0.30026 0.68977 0.41331 0.0
C2624 C 0.31253 0.68543 0.43998 0.0
C2625 C 0.33507 0.64699 0.44132 0.0
H2626 H 0.35949 0.66647 0.47664 0.0
C2627 C 0.38033 0.60838 0.47644 0.0
C2628 C 0.38033 0.60964 0.49343 0.0
C2629 C 0.3727 0.62012 0.46691 0.0
C2630 C 0.35266 0.66083 0.4669 0.0
H2631 H 0.31144 0.67597 0.39379 0.0
H2632 H 0.33128 0.66246 0.41102 0.0
H2633 H 0.34206 0.68355 0.4595 0.0
H2634 H 0.37299 0.62447 0.51387 0.0
H2635 H 0.35915 0.64501 0.49718 0.0
H2636 H 0.34511 0.62431 0.44875 0.0
C2637 C 0.32296 0.67105 0.41654 0.0
C2638 C 0.34269 0.67062 0.45707 0.0
C2639 C 0.31162 0.67889 0.40663 0.0
C2640 C 0.3733 0.62337 0.50075 0.0
C2641 C 0.36536 0.63508 0.49117 0.0
C2642 C 0.34488 0.63726 0.45112 0.0
C2643 C 0.32327 0.67386 0.4334 0.0
C2644 C 0.33391 0.6638 0.44406 0.0
C2645 C 0.36447 0.63326 0.47414 0.0
C2646 C 0.35398 0.64402 0.46394 0.0
H2647 H 0.29255 0.7016 0.43559 0.0
H2648 H 0.31242 0.68784 0.45292 0.0
H2649 H 0.32814 0.64124 0.4317 0.0
H2650 H 0.38573 0.59792 0.47052 0.0
H2651 H 0.37274 0.61855 0.45384 0.0
C2652 C 0.94565 0.46322 0.84309 0.0
C2653 C 0.94105 0.47961 0.84214 0.0
C2654 C 0.94114 0.4522 0.83097 0.0
C2655 C 0.9213 0.4481 0.79012 0.0
H2656 H 0.90486 0.4081 0.8089 0.0
C2657 C 0.87069 0.40931 0.7611 0.0
C2658 C 0.87042 0.39243 0.76358 0.0
C2659 C 0.88303 0.41889 0.76778 0.0
C2660 C 0.90969 0.419 0.80331 0.0
H2661 H 0.92876 0.49756 0.82743 0.0
H2662 H 0.92053 0.47828 0.80627 0.0
H2663 H 0.91964 0.42716 0.82583 0.0
H2664 H 0.88304 0.37217 0.7745 0.0
H2665 H 0.90487 0.38892 0.7862 0.0
H2666 H 0.91062 0.44008 0.76771 0.0
C2667 C 0.92797 0.47392 0.8162 0.0
C2668 C 0.91822 0.43002 0.81307 0.0
C2669 C 0.93273 0.48504 0.82828 0.0
C2670 C 0.88317 0.38513 0.77218 0.0
C2671 C 0.89552 0.39477 0.77903 0.0
C2672 C 0.9127 0.43706 0.78035 0.0
C2673 C 0.93155 0.45721 0.81774 0.0
C2674 C 0.92394 0.44487 0.80671 0.0
C2675 C 0.8953 0.41185 0.77733 0.0
C2676 C 0.90651 0.42249 0.7869 0.0
H2677 H 0.952 0.45873 0.85372 0.0
H2678 H 0.94454 0.43956 0.83239 0.0
H2679 H 0.9257 0.45926 0.78472 0.0
H2680 H 0.8608 0.41524 0.75473 0.0
H2681 H 0.88227 0.43196 0.76636 0.0
C2682 C 0.6275 0.89569 0.48401 0.0
C2683 C 0.63262 0.8975 0.50017 0.0
C2684 C 0.63495 0.88435 0.47379 0.0
C2685 C 0.6643 0.85 0.47121 0.0
H2686 H 0.67658 0.87126 0.43099 0.0
C2687 C 0.71617 0.8264 0.42939 0.0
C2688 C 0.71511 0.82924 0.41255 0.0
C2689 C 0.70431 0.83248 0.44001 0.0
C2690 C 0.67304 0.86492 0.44196 0.0
H2691 H 0.64897 0.88842 0.51862 0.0
H2692 H 0.66205 0.86843 0.50075 0.0
H2693 H 0.65854 0.88497 0.4498 0.0
H2694 H 0.70025 0.83994 0.39364 0.0
H2695 H 0.67936 0.85007 0.41203 0.0
H2696 H 0.67902 0.82996 0.46333 0.0
C2697 C 0.65208 0.87559 0.49602 0.0
C2698 C 0.66266 0.87283 0.45281 0.0
C2699 C 0.64452 0.88693 0.50631 0.0
C2700 C 0.70153 0.83765 0.40654 0.0
C2701 C 0.6896 0.84358 0.41714 0.0
C2702 C 0.67464 0.84198 0.46024 0.0
C2703 C 0.6479 0.87474 0.47943 0.0
C2704 C 0.65818 0.86554 0.46762 0.0
C2705 C 0.69101 0.84144 0.43408 0.0
C2706 C 0.67925 0.84939 0.44549 0.0
H2707 H 0.61854 0.9039 0.47894 0.0
H2708 H 0.6312 0.8838 0.46118 0.0
H2709 H 0.66105 0.84402 0.48247 0.0
H2710 H 0.7265 0.82003 0.43446 0.0
H2711 H 0.70597 0.8307 0.45294 0.0
C2712 C 0.60804 0.5598 0.38156 0.0
C2713 C 0.59652 0.54773 0.37776 0.0
C2714 C 0.61398 0.57018 0.36953 0.0
C2715 C 0.60725 0.58842 0.32981 0.0
H2716 H 0.65423 0.58697 0.32649 0.0
C2717 C 0.64417 0.62038 0.27795 0.0
C2718 C 0.65983 0.62584 0.28197 0.0
C2719 C 0.63488 0.61176 0.28941 0.0
C2720 C 0.64113 0.58783 0.32737 0.0
H2721 H 0.58156 0.53776 0.35847 0.0
H2722 H 0.59183 0.55625 0.33741 0.0
H2723 H 0.64054 0.57074 0.34694 0.0
H2724 H 0.67762 0.62778 0.30124 0.0
H2725 H 0.66125 0.61376 0.32138 0.0
H2726 H 0.60789 0.60591 0.31047 0.0
C2727 C 0.59627 0.55748 0.34974 0.0
C2728 C 0.63329 0.57839 0.33905 0.0
C2729 C 0.59046 0.54688 0.36178 0.0
C2730 C 0.66564 0.62348 0.2978 0.0
C2731 C 0.6563 0.61526 0.30928 0.0
C2732 C 0.61515 0.59814 0.3182 0.0
C2733 C 0.60841 0.56892 0.35345 0.0
C2734 C 0.61631 0.57868 0.34051 0.0
C2735 C 0.64105 0.60872 0.30512 0.0
C2736 C 0.63225 0.59812 0.31698 0.0
H2737 H 0.61297 0.56086 0.39372 0.0
H2738 H 0.62324 0.57899 0.37272 0.0
H2739 H 0.59412 0.58882 0.3307 0.0
H2740 H 0.6395 0.62201 0.26575 0.0
H2741 H 0.62322 0.60691 0.28573 0.0
C2742 C 0.12146 0.64216 0.53302 0.0
C2743 C 0.12311 0.636 0.51718 0.0
C2744 C 0.13272 0.65333 0.5392 0.0
C2745 C 0.17596 0.66034 0.53558 0.0
H2746 H 0.16844 0.69388 0.56791 0.0
C2747 C 0.21745 0.67132 0.5904 0.0
C2748 C 0.22202 0.68727 0.5945 0.0
C2749 C 0.20634 0.66837 0.57793 0.0
C2750 C 0.17077 0.68474 0.55871 0.0
H2751 H 0.13733 0.63729 0.4951 0.0
H2752 H 0.15709 0.6568 0.50588 0.0
H2753 H 0.14579 0.68411 0.55112 0.0
H2754 H 0.21862 0.71268 0.58865 0.0
H2755 H 0.19849 0.70752 0.56698 0.0
H2756 H 0.20067 0.66023 0.54386 0.0
C2757 C 0.14696 0.65316 0.51347 0.0
C2758 C 0.1578 0.67908 0.54917 0.0
C2759 C 0.13549 0.64219 0.50719 0.0
C2760 C 0.21538 0.70028 0.58564 0.0
C2761 C 0.20385 0.69733 0.57335 0.0
C2762 C 0.18883 0.66582 0.54527 0.0
C2763 C 0.1461 0.6583 0.52978 0.0
C2764 C 0.16016 0.66653 0.53777 0.0
C2765 C 0.19919 0.68131 0.56943 0.0
C2766 C 0.18629 0.67777 0.55723 0.0
H2767 H 0.11227 0.63726 0.5411 0.0
H2768 H 0.13175 0.65689 0.55185 0.0
H2769 H 0.1782 0.65054 0.52707 0.0
H2770 H 0.22239 0.66105 0.59699 0.0
H2771 H 0.20288 0.65593 0.57532 0.0
C2772 C 0.88778 0.62749 0.75692 0.0
C2773 C 0.87192 0.62937 0.75082 0.0
C2774 C 0.89935 0.61836 0.74822 0.0
C2775 C 0.90822 0.60261 0.70696 0.0
H2776 H 0.93103 0.56748 0.7285 0.0
C2777 C 0.94461 0.55786 0.66876 0.0
C2778 C 0.9416 0.54141 0.67205 0.0
C2779 C 0.94065 0.56982 0.68016 0.0
C2780 C 0.9248 0.57727 0.72231 0.0
H2781 H 0.85599 0.6237 0.73059 0.0
H2782 H 0.876 0.60819 0.71551 0.0
H2783 H 0.91501 0.58681 0.74459 0.0
H2784 H 0.93277 0.5244 0.69001 0.0
H2785 H 0.92544 0.54531 0.70991 0.0
H2786 H 0.91709 0.59283 0.68467 0.0
C2787 C 0.8796 0.61363 0.72695 0.0
C2788 C 0.91577 0.58844 0.73155 0.0
C2789 C 0.86808 0.62247 0.73567 0.0
C2790 C 0.93552 0.537 0.68736 0.0
C2791 C 0.93128 0.54902 0.69872 0.0
C2792 C 0.91721 0.59154 0.69776 0.0
C2793 C 0.89532 0.61128 0.73315 0.0
C2794 C 0.90702 0.60098 0.72391 0.0
C2795 C 0.93313 0.56565 0.69495 0.0
C2796 C 0.92537 0.57849 0.70523 0.0
H2797 H 0.89106 0.63257 0.76862 0.0
H2798 H 0.9114 0.6168 0.75328 0.0
H2799 H 0.90175 0.61222 0.7007 0.0
H2800 H 0.94916 0.56154 0.65696 0.0
H2801 H 0.94265 0.58244 0.67696 0.0
C2802 C 0.17486 0.91337 0.72982 0.0
C2803 C 0.17006 0.89902 0.73778 0.0
C2804 C 0.1633 0.92414 0.72365 0.0
C2805 C 0.12233 0.92738 0.70772 0.0
H2806 H 0.12771 0.97328 0.71713 0.0
C2807 C 0.08298 0.97542 0.67502 0.0
C2808 C 0.09182 0.9887 0.669 0.0
C2809 C 0.08988 0.96513 0.68674 0.0
C2810 C 0.12603 0.96054 0.71429 0.0
H2811 H 0.14926 0.88459 0.74515 0.0
H2812 H 0.12896 0.90334 0.73383 0.0
H2813 H 0.14522 0.95343 0.73039 0.0
H2814 H 0.11446 1.00193 0.67053 0.0
H2815 H 0.12651 0.98421 0.69082 0.0
H2816 H 0.10379 0.93448 0.69092 0.0
C2817 C 0.14175 0.90624 0.73261 0.0
C2818 C 0.13605 0.94916 0.72195 0.0
C2819 C 0.15336 0.89553 0.73908 0.0
C2820 C 0.10725 0.99202 0.67538 0.0
C2821 C 0.11415 0.98178 0.68701 0.0
C2822 C 0.11242 0.9388 0.69987 0.0
C2823 C 0.14663 0.92077 0.72505 0.0
C2824 C 0.13458 0.9325 0.71845 0.0
C2825 C 0.1058 0.96786 0.69248 0.0
C2826 C 0.11443 0.95559 0.70272 0.0
H2827 H 0.18759 0.9165 0.72862 0.0
H2828 H 0.16743 0.93512 0.71767 0.0
H2829 H 0.12097 0.91462 0.70475 0.0
H2830 H 0.07121 0.97242 0.66993 0.0
H2831 H 0.08299 0.95467 0.69079 0.0
C2832 C 0.61883 0.82239 0.82989 0.0
C2833 C 0.61403 0.8075 0.82299 0.0
C2834 C 0.60723 0.83361 0.83525 0.0
C2835 C 0.56291 0.84393 0.83441 0.0
H2836 H 0.57299 0.86384 0.87591 0.0
C2837 C 0.5152 0.87206 0.87864 0.0
C2838 C 0.52029 0.885 0.88853 0.0
C2839 C 0.526 0.86498 0.86748 0.0
C2840 C 0.57004 0.85867 0.86416 0.0
H2841 H 0.59319 0.79304 0.81577 0.0
H2842 H 0.57297 0.81245 0.82543 0.0
H2843 H 0.59308 0.84687 0.86267 0.0
H2844 H 0.54016 0.90131 0.89402 0.0
H2845 H 0.5588 0.88948 0.87418 0.0
H2846 H 0.53954 0.85542 0.83635 0.0
C2847 C 0.5857 0.8156 0.82647 0.0
C2848 C 0.58162 0.84889 0.85653 0.0
C2849 C 0.59733 0.80441 0.82098 0.0
C2850 C 0.53588 0.89152 0.88629 0.0
C2851 C 0.54662 0.88456 0.87511 0.0
C2852 C 0.55124 0.85371 0.84213 0.0
C2853 C 0.5905 0.8302 0.83402 0.0
C2854 C 0.57824 0.8413 0.84158 0.0
C2855 C 0.5421 0.8707 0.86615 0.0
C2856 C 0.55465 0.86117 0.85714 0.0
H2857 H 0.63158 0.82524 0.8315 0.0
H2858 H 0.61142 0.84488 0.84063 0.0
H2859 H 0.55991 0.83843 0.82283 0.0
H2860 H 0.50338 0.86654 0.88051 0.0
H2861 H 0.52214 0.85427 0.86087 0.0
C2862 C 0.02367 0.18275 0.43818 0.0
C2863 C 0.03024 0.16704 0.43936 0.0
C2864 C 0.0336 0.19591 0.43365 0.0
C2865 C 0.05388 0.21613 0.41007 0.0
H2866 H 0.10018 0.21791 0.41888 0.0
C2867 C 0.09866 0.23955 0.36281 0.0
C2868 C 0.11206 0.24915 0.36739 0.0
C2869 C 0.0887 0.23233 0.37444 0.0
C2870 C 0.08724 0.2178 0.41646 0.0
H2871 H 0.05253 0.15304 0.43807 0.0
H2872 H 0.06963 0.17566 0.4302 0.0
H2873 H 0.08256 0.201 0.43581 0.0
H2874 H 0.12561 0.25841 0.38801 0.0
H2875 H 0.1081 0.24552 0.40856 0.0
H2876 H 0.05857 0.23267 0.39058 0.0
C2877 C 0.05694 0.17805 0.43275 0.0
C2878 C 0.07714 0.20799 0.42607 0.0
C2879 C 0.04706 0.16499 0.43715 0.0
C2880 C 0.1154 0.25108 0.38406 0.0
C2881 C 0.10538 0.24372 0.39581 0.0
C2882 C 0.06395 0.22593 0.40052 0.0
C2883 C 0.05029 0.19359 0.43037 0.0
C2884 C 0.06041 0.20654 0.4226 0.0
C2885 C 0.09176 0.23442 0.39109 0.0
C2886 C 0.08085 0.2264 0.40317 0.0
H2887 H 0.01075 0.1847 0.43979 0.0
H2888 H 0.0281 0.20776 0.43212 0.0
H2889 H 0.04112 0.21532 0.40694 0.0
H2890 H 0.0957 0.23762 0.35012 0.0
H2891 H 0.07863 0.22491 0.37032 0.0
C2892 C 0.48674 0.63464 0.8766 0.0
C2893 C 0.50361 0.63297 0.87861 0.0
C2894 C 0.48036 0.64346 0.86363 0.0
C2895 C 0.49133 0.67722 0.83624 0.0
H2896 H 0.44778 0.66899 0.82039 0.0
C2897 C 0.44927 0.72869 0.81349 0.0
C2898 C 0.43602 0.72489 0.80347 0.0
C2899 C 0.46001 0.71648 0.81858 0.0
C2900 C 0.46008 0.67149 0.82429 0.0
H2901 H 0.52705 0.63852 0.86803 0.0
H2902 H 0.51585 0.65379 0.84493 0.0
H2903 H 0.46182 0.64818 0.83557 0.0
H2904 H 0.42402 0.7057 0.79014 0.0
H2905 H 0.44332 0.6846 0.79793 0.0
H2906 H 0.48968 0.70048 0.82468 0.0
C2907 C 0.50755 0.64839 0.8536 0.0
C2908 C 0.46809 0.65953 0.83331 0.0
C2909 C 0.51399 0.63943 0.86667 0.0
C2910 C 0.43429 0.70894 0.79773 0.0
C2911 C 0.44522 0.6968 0.80248 0.0
C2912 C 0.4834 0.68914 0.82698 0.0
C2913 C 0.49064 0.65093 0.85219 0.0
C2914 C 0.48358 0.66242 0.83996 0.0
C2915 C 0.45783 0.70019 0.8136 0.0
C2916 C 0.46741 0.68669 0.8213 0.0
H2917 H 0.47844 0.62989 0.88566 0.0
H2918 H 0.46733 0.64524 0.86323 0.0
H2919 H 0.50323 0.67998 0.84116 0.0
H2920 H 0.45061 0.74085 0.8184 0.0
H2921 H 0.46934 0.7197 0.82728 0.0
C2922 C 0.98426 0.33968 0.43418 0.0
C2923 C 0.97737 0.35407 0.44025 0.0
C2924 C 0.97433 0.32761 0.4273 0.0
C2925 C 0.93235 0.31207 0.42312 0.0
H2926 H 0.94432 0.30403 0.3783 0.0
C2927 C 0.88799 0.28116 0.37709 0.0
C2928 C 0.89471 0.27258 0.36396 0.0
C2929 C 0.89811 0.28967 0.38796 0.0
C2930 C 0.94086 0.3057 0.39088 0.0
H2931 H 0.95473 0.36665 0.44495 0.0
H2932 H 0.9374 0.34533 0.43358 0.0
H2933 H 0.96217 0.31995 0.39552 0.0
H2934 H 0.91725 0.26525 0.3525 0.0
H2935 H 0.93477 0.27901 0.37175 0.0
H2936 H 0.91114 0.29761 0.41863 0.0
C2937 C 0.95042 0.34341 0.43395 0.0
C2938 C 0.95116 0.31495 0.40076 0.0
C2939 C 0.96034 0.3556 0.44047 0.0
C2940 C 0.91169 0.27203 0.36234 0.0
C2941 C 0.92176 0.2801 0.37336 0.0
C2942 C 0.92215 0.30249 0.41332 0.0
C2943 C 0.95733 0.32958 0.42671 0.0
C2944 C 0.94699 0.31836 0.41694 0.0
C2945 C 0.91519 0.28944 0.38613 0.0
C2946 C 0.92618 0.29924 0.39697 0.0
H2947 H 0.99734 0.33829 0.43363 0.0
H2948 H 0.97997 0.31704 0.42184 0.0
H2949 H 0.9288 0.31454 0.43556 0.0
H2950 H 0.87492 0.28182 0.3786 0.0
H2951 H 0.89246 0.29679 0.39748 0.0
C2952 C 0.59613 0.20879 0.7069 0.0
C2953 C 0.59433 0.22556 0.70426 0.0
C2954 C 0.5841 0.19787 0.70196 0.0
C2955 C 0.54206 0.19419 0.68485 0.0
H2956 H 0.56097 0.15706 0.6628 0.0
C2957 C 0.51017 0.15856 0.63341 0.0
C2958 C 0.51377 0.14203 0.63115 0.0
C2959 C 0.51735 0.16737 0.64605 0.0
C2960 C 0.55537 0.16711 0.66919 0.0
H2961 H 0.57816 0.24416 0.69518 0.0
H2962 H 0.55714 0.22505 0.68616 0.0
H2963 H 0.57832 0.17534 0.67802 0.0
H2964 H 0.52719 0.12153 0.64057 0.0
H2965 H 0.53962 0.13683 0.66299 0.0
H2966 H 0.51913 0.18616 0.67533 0.0
C2967 C 0.56773 0.22031 0.69236 0.0
C2968 C 0.56537 0.17768 0.67797 0.0
C2969 C 0.57974 0.23131 0.69756 0.0
C2970 C 0.52397 0.13419 0.6423 0.0
C2971 C 0.53125 0.14303 0.65496 0.0
C2972 C 0.53202 0.18359 0.67599 0.0
C2973 C 0.57007 0.20339 0.69391 0.0
C2974 C 0.55893 0.1915 0.68577 0.0
C2975 C 0.5285 0.15989 0.65662 0.0
C2976 C 0.53859 0.17003 0.66784 0.0
H2977 H 0.60726 0.20404 0.71208 0.0
H2978 H 0.58615 0.18501 0.70383 0.0
H2979 H 0.53661 0.20458 0.69084 0.0
H2980 H 0.50262 0.16493 0.6247 0.0
H2981 H 0.51507 0.18031 0.64675 0.0
C2982 C 0.4074 0.25377 0.64819 0.0
C2983 C 0.41091 0.24958 0.6644 0.0
C2984 C 0.41697 0.24768 0.63538 0.0
C2985 C 0.45758 0.22906 0.62764 0.0
H2986 H 0.4378 0.2116 0.58863 0.0
C2987 C 0.47188 0.17489 0.58071 0.0
C2988 C 0.48887 0.17635 0.57959 0.0
C2989 C 0.46246 0.18754 0.58695 0.0
C2990 C 0.44355 0.21648 0.59942 0.0
H2991 H 0.42698 0.23531 0.6797 0.0
H2992 H 0.44323 0.22465 0.65766 0.0
H2993 H 0.421 0.22595 0.60847 0.0
H2994 H 0.50917 0.19279 0.58279 0.0
H2995 H 0.49265 0.21518 0.59346 0.0
H2996 H 0.47987 0.21876 0.61925 0.0
C2997 C 0.43343 0.23293 0.65474 0.0
C2998 C 0.43392 0.22485 0.61073 0.0
C2999 C 0.42396 0.23897 0.66743 0.0
C3000 C 0.4961 0.19133 0.58344 0.0
C3001 C 0.48663 0.20406 0.58977 0.0
C3002 C 0.46717 0.22065 0.6164 0.0
C3003 C 0.43025 0.23734 0.63856 0.0
C3004 C 0.44072 0.23074 0.62527 0.0
C3005 C 0.46978 0.20205 0.59229 0.0
C3006 C 0.46021 0.21376 0.60239 0.0
H3007 H 0.39746 0.26194 0.64543 0.0
H3008 H 0.41416 0.2513 0.62305 0.0
H3009 H 0.46331 0.23376 0.63852 0.0
H3010 H 0.46594 0.16349 0.57779 0.0
H3011 H 0.44961 0.18538 0.58876 0.0
C3012 C 0.49409 0.37414 0.63204 0.0
C3013 C 0.50784 0.38325 0.63651 0.0
C3014 C 0.48481 0.3661 0.6437 0.0
C3015 C 0.48665 0.34827 0.68454 0.0
H3016 H 0.44007 0.34556 0.67808 0.0
C3017 C 0.44668 0.29588 0.7098 0.0
C3018 C 0.43003 0.29877 0.71213 0.0
C3019 C 0.45688 0.30837 0.70421 0.0
C3020 C 0.453 0.34635 0.6804 0.0
H3021 H 0.52247 0.39125 0.65691 0.0
H3022 H 0.50605 0.37712 0.67751 0.0
H3023 H 0.45597 0.36397 0.66158 0.0
H3024 H 0.41124 0.31716 0.71199 0.0
H3025 H 0.42906 0.3391 0.70322 0.0
H3026 H 0.48358 0.33056 0.70343 0.0
C3027 C 0.50259 0.3762 0.66485 0.0
C3028 C 0.46218 0.3568 0.67071 0.0
C3029 C 0.5119 0.38439 0.65308 0.0
C3030 C 0.42403 0.3146 0.71014 0.0
C3031 C 0.43424 0.32712 0.70493 0.0
C3032 C 0.4774 0.33781 0.69436 0.0
C3033 C 0.48895 0.36691 0.66024 0.0
C3034 C 0.47916 0.35757 0.67231 0.0
C3035 C 0.45062 0.32402 0.70109 0.0
C3036 C 0.46047 0.33645 0.69218 0.0
H3037 H 0.49056 0.37296 0.6194 0.0
H3038 H 0.47459 0.35885 0.63964 0.0
H3039 H 0.49972 0.34854 0.68606 0.0
H3040 H 0.45156 0.28372 0.71109 0.0
H3041 H 0.46938 0.30543 0.70133 0.0
C3042 C 0.56059 0.34925 0.61104 0.0
C3043 C 0.55492 0.35184 0.59512 0.0
C3044 C 0.56948 0.33537 0.61493 0.0
C3045 C 0.59847 0.30666 0.60132 0.0
H3046 H 0.58216 0.27939 0.63615 0.0
C3047 C 0.63795 0.27004 0.64656 0.0
C3048 C 0.63179 0.25536 0.6527 0.0
C3049 C 0.62921 0.27886 0.63491 0.0
C3050 C 0.58682 0.28665 0.6262 0.0
H3051 H 0.55434 0.34189 0.57073 0.0
H3052 H 0.5706 0.31761 0.57753 0.0
H3053 H 0.56496 0.30077 0.62494 0.0
H3054 H 0.61211 0.23802 0.65112 0.0
H3055 H 0.59685 0.2533 0.63066 0.0
H3056 H 0.62076 0.29317 0.60333 0.0
C3057 C 0.56783 0.32638 0.58695 0.0
C3058 C 0.57697 0.29894 0.61986 0.0
C3059 C 0.55852 0.3402 0.5831 0.0
C3060 C 0.61732 0.24908 0.64622 0.0
C3061 C 0.60849 0.25795 0.63469 0.0
C3062 C 0.60848 0.29449 0.60788 0.0
C3063 C 0.57325 0.32383 0.60296 0.0
C3064 C 0.5828 0.30925 0.60759 0.0
C3065 C 0.61397 0.2733 0.62946 0.0
C3066 C 0.60285 0.28454 0.62062 0.0
H3067 H 0.55795 0.3579 0.62063 0.0
H3068 H 0.57358 0.3337 0.62733 0.0
H3069 H 0.60327 0.31458 0.59196 0.0
H3070 H 0.64882 0.27536 0.65176 0.0
H3071 H 0.6337 0.29069 0.63129 0.0
C3072 C 0.88481 0.52625 0.88709 0.0
C3073 C 0.88932 0.51123 0.88041 0.0
C3074 C 0.87364 0.53624 0.87907 0.0
C3075 C 0.84458 0.53935 0.84425 0.0
H3076 H 0.86174 0.58317 0.84203 0.0
C3077 C 0.82517 0.58752 0.79552 0.0
C3078 C 0.82578 0.60396 0.80014 0.0
C3079 C 0.83002 0.5753 0.80646 0.0
C3080 C 0.8565 0.57112 0.8427 0.0
H3081 H 0.88535 0.49454 0.86049 0.0
H3082 H 0.86575 0.51196 0.8464 0.0
H3083 H 0.87464 0.56344 0.85954 0.0
H3084 H 0.83057 0.62041 0.82015 0.0
H3085 H 0.83826 0.59929 0.83928 0.0
H3086 H 0.82654 0.54716 0.82705 0.0
C3087 C 0.87054 0.51593 0.858 0.0
C3088 C 0.86395 0.55973 0.85281 0.0
C3089 C 0.88168 0.50588 0.86612 0.0
C3090 C 0.83017 0.60785 0.81617 0.0
C3091 C 0.83473 0.59572 0.8271 0.0
C3092 C 0.83702 0.55084 0.8341 0.0
C3093 C 0.86697 0.53156 0.86401 0.0
C3094 C 0.85813 0.54369 0.85378 0.0
C3095 C 0.83539 0.57933 0.82224 0.0
C3096 C 0.84289 0.56691 0.83322 0.0
H3097 H 0.89081 0.53079 0.8979 0.0
H3098 H 0.87095 0.54806 0.88422 0.0
H3099 H 0.83977 0.5271 0.84468 0.0
H3100 H 0.82194 0.58418 0.7832 0.0
H3101 H 0.83037 0.56283 0.80224 0.0
C3102 C 0.84112 0.92435 0.50839 0.0
C3103 C 0.85412 0.93171 0.50012 0.0
C3104 C 0.82892 0.91619 0.49965 0.0
C3105 C 0.81357 0.90776 0.45745 0.0
H3106 H 0.80579 0.86461 0.47466 0.0
C3107 C 0.79513 0.83923 0.43333 0.0
C3108 C 0.78306 0.84318 0.42193 0.0
C3109 C 0.80166 0.85119 0.44356 0.0
C3110 C 0.80791 0.87657 0.4696 0.0
H3111 H 0.8638 0.93766 0.4764 0.0
H3112 H 0.8427 0.92374 0.46126 0.0
H3113 H 0.81976 0.88469 0.49128 0.0
H3114 H 0.76823 0.86283 0.41251 0.0
H3115 H 0.7793 0.88354 0.4305 0.0
H3116 H 0.80263 0.89936 0.43543 0.0
C3117 C 0.84169 0.92414 0.47438 0.0
C3118 C 0.81568 0.88823 0.47928 0.0
C3119 C 0.85384 0.93217 0.48307 0.0
C3120 C 0.77764 0.85937 0.42103 0.0
C3121 C 0.78404 0.87129 0.43135 0.0
C3122 C 0.80592 0.89607 0.44773 0.0
C3123 C 0.8295 0.91536 0.48253 0.0
C3124 C 0.81892 0.90389 0.47322 0.0
C3125 C 0.79616 0.8674 0.44276 0.0
C3126 C 0.80327 0.8802 0.45355 0.0
H3127 H 0.84116 0.92362 0.52153 0.0
H3128 H 0.81955 0.90981 0.50633 0.0
H3129 H 0.81567 0.91974 0.45241 0.0
H3130 H 0.79962 0.8269 0.43433 0.0
H3131 H 0.81119 0.84775 0.45195 0.0
C3132 C 0.1934 0.90906 0.80694 0.0
C3133 C 0.18646 0.89346 0.80611 0.0
C3134 C 0.18837 0.92021 0.81885 0.0
C3135 C 0.16396 0.92322 0.85743 0.0
H3136 H 0.15875 0.96821 0.84447 0.0
C3137 C 0.1166 0.96703 0.88442 0.0
C3138 C 0.12144 0.9829 0.88846 0.0
C3139 C 0.12744 0.95631 0.87696 0.0
C3140 C 0.16039 0.95574 0.84836 0.0
H3141 H 0.16888 0.87732 0.81735 0.0
H3142 H 0.1598 0.89669 0.83757 0.0
H3143 H 0.17218 0.94913 0.82614 0.0
H3144 H 0.14144 0.99999 0.88811 0.0
H3145 H 0.16044 0.98126 0.87447 0.0
H3146 H 0.15117 0.92974 0.87921 0.0
C3147 C 0.16947 0.90032 0.82941 0.0
C3148 C 0.16813 0.94476 0.83787 0.0
C3149 C 0.17461 0.88917 0.81767 0.0
C3150 C 0.13751 0.98774 0.8853 0.0
C3151 C 0.14829 0.9771 0.87741 0.0
C3152 C 0.15599 0.93413 0.86777 0.0
C3153 C 0.17615 0.91607 0.83014 0.0
C3154 C 0.16969 0.92823 0.84209 0.0
C3155 C 0.14327 0.96134 0.87299 0.0
C3156 C 0.15384 0.95043 0.86321 0.0
H3157 H 0.20259 0.91275 0.79826 0.0
H3158 H 0.19401 0.9321 0.81913 0.0
H3159 H 0.1653 0.91074 0.86137 0.0
H3160 H 0.10424 0.96305 0.88665 0.0
H3161 H 0.12319 0.9443 0.87358 0.0
C3162 C 0.16676 0.58711 0.48672 0.0
C3163 C 0.16257 0.59009 0.50301 0.0
C3164 C 0.17833 0.59679 0.47885 0.0
C3165 C 0.19078 0.63889 0.47908 0.0
H3166 H 0.22355 0.62549 0.44799 0.0
C3167 C 0.22663 0.6862 0.44117 0.0
C3168 C 0.23143 0.68196 0.42533 0.0
C3169 C 0.2198 0.67459 0.45159 0.0
C3170 C 0.21428 0.62949 0.45643 0.0
H3171 H 0.16768 0.60507 0.52404 0.0
H3172 H 0.18782 0.62212 0.51026 0.0
H3173 H 0.21017 0.60515 0.46495 0.0
H3174 H 0.23245 0.66224 0.40789 0.0
H3175 H 0.21986 0.64222 0.42566 0.0
H3176 H 0.19407 0.66302 0.47011 0.0
C3177 C 0.18234 0.61213 0.50365 0.0
C3178 C 0.20675 0.6178 0.46628 0.0
C3179 C 0.17102 0.60218 0.51163 0.0
C3180 C 0.22897 0.6659 0.42005 0.0
C3181 C 0.22188 0.65434 0.43036 0.0
C3182 C 0.19809 0.65054 0.46905 0.0
C3183 C 0.18562 0.60992 0.48701 0.0
C3184 C 0.19486 0.62236 0.47765 0.0
C3185 C 0.21731 0.65845 0.44636 0.0
C3186 C 0.20988 0.64603 0.45747 0.0
H3187 H 0.16012 0.57814 0.47971 0.0
H3188 H 0.18051 0.59485 0.46601 0.0
H3189 H 0.18143 0.64275 0.48751 0.0
H3190 H 0.22853 0.69843 0.4457 0.0
H3191 H 0.21677 0.67826 0.46385 0.0
C3192 C 0.82059 0.43745 0.74397 0.0
C3193 C 0.81654 0.42221 0.73744 0.0
C3194 C 0.82567 0.45012 0.7337 0.0
C3195 C 0.85005 0.46661 0.71125 0.0
H3196 H 0.83629 0.47237 0.66651 0.0
C3197 C 0.89478 0.48597 0.66197 0.0
C3198 C 0.89025 0.49784 0.65053 0.0
C3199 C 0.88339 0.4793 0.6726 0.0
C3200 C 0.84016 0.47109 0.67902 0.0
H3201 H 0.81321 0.40869 0.71508 0.0
H3202 H 0.82183 0.43059 0.6973 0.0
H3203 H 0.81898 0.4573 0.68548 0.0
H3204 H 0.86988 0.51156 0.64101 0.0
H3205 H 0.84975 0.49958 0.65962 0.0
H3206 H 0.87138 0.48 0.70474 0.0
C3207 C 0.82116 0.43296 0.71023 0.0
C3208 C 0.83031 0.46236 0.68988 0.0
C3209 C 0.81625 0.42033 0.72045 0.0
C3210 C 0.8738 0.50245 0.64966 0.0
C3211 C 0.86228 0.49562 0.66032 0.0
C3212 C 0.85988 0.47525 0.70041 0.0
C3213 C 0.82664 0.44779 0.71673 0.0
C3214 C 0.83536 0.4596 0.70602 0.0
C3215 C 0.86706 0.48419 0.67213 0.0
C3216 C 0.85533 0.47715 0.68404 0.0
H3217 H 0.82108 0.4392 0.75701 0.0
H3218 H 0.8296 0.46147 0.7391 0.0
H3219 H 0.85446 0.46465 0.72349 0.0
H3220 H 0.90728 0.48197 0.66299 0.0
H3221 H 0.88743 0.47024 0.68125 0.0
C3222 C 0.6745 0.94818 0.54967 0.0
C3223 C 0.67493 0.94523 0.53286 0.0
C3224 C 0.68625 0.94152 0.55992 0.0
C3225 C 0.72493 0.91777 0.562 0.0
H3226 H 0.7028 0.89662 0.59786 0.0
C3227 C 0.75659 0.87395 0.60882 0.0
C3228 C 0.74849 0.85894 0.61015 0.0
C3229 C 0.74925 0.88701 0.60056 0.0
C3230 C 0.70922 0.90254 0.588 0.0
H3231 H 0.68854 0.93388 0.51344 0.0
H3232 H 0.7091 0.92194 0.53142 0.0
H3233 H 0.68802 0.91556 0.58077 0.0
H3234 H 0.72624 0.84604 0.60437 0.0
H3235 H 0.71343 0.86871 0.59049 0.0
H3236 H 0.74602 0.90401 0.56908 0.0
C3237 C 0.69983 0.92968 0.53666 0.0
C3238 C 0.70078 0.91355 0.57825 0.0
C3239 C 0.68811 0.93657 0.52633 0.0
C3240 C 0.73281 0.85742 0.60355 0.0
C3241 C 0.72543 0.87045 0.59563 0.0
C3242 C 0.73346 0.90678 0.57191 0.0
C3243 C 0.69856 0.93143 0.55367 0.0
C3244 C 0.7084 0.92112 0.56492 0.0
C3245 C 0.73358 0.88534 0.59387 0.0
C3246 C 0.72555 0.89876 0.58478 0.0
H3247 H 0.66443 0.95479 0.55501 0.0
H3248 H 0.68511 0.94347 0.5729 0.0
H3249 H 0.7312 0.92342 0.5519 0.0
H3250 H 0.76874 0.87542 0.61367 0.0
H3251 H 0.75579 0.89838 0.59942 0.0
C3252 C 0.14426 0.02123 0.63892 0.0
C3253 C 0.13304 0.02632 0.62713 0.0
C3254 C 0.15419 0.03265 0.64684 0.0
C3255 C 0.15221 0.07603 0.6578 0.0
H3256 H 0.19542 0.06933 0.6753 0.0
C3257 C 0.18349 0.12598 0.69521 0.0
C3258 C 0.19147 0.12118 0.70953 0.0
C3259 C 0.17855 0.11446 0.68373 0.0
C3260 C 0.1833 0.07134 0.67057 0.0
H3261 H 0.12402 0.04694 0.61359 0.0
H3262 H 0.1418 0.06671 0.62673 0.0
H3263 H 0.18355 0.04898 0.65706 0.0
H3264 H 0.20099 0.10044 0.72269 0.0
H3265 H 0.19215 0.08028 0.70274 0.0
H3266 H 0.15169 0.0981 0.67147 0.0
C3267 C 0.14276 0.05405 0.63023 0.0
C3268 C 0.17652 0.05968 0.6601 0.0
C3269 C 0.13276 0.04271 0.6225 0.0
C3270 C 0.19489 0.10457 0.7118 0.0
C3271 C 0.18988 0.09301 0.7003 0.0
C3272 C 0.15896 0.08762 0.66822 0.0
C3273 C 0.15301 0.04932 0.64307 0.0
C3274 C 0.16086 0.06189 0.65357 0.0
C3275 C 0.18136 0.09778 0.68627 0.0
C3276 C 0.17458 0.08546 0.67477 0.0
H3277 H 0.14437 1.00871 0.64298 0.0
H3278 H 0.16186 0.02856 0.65671 0.0
H3279 H 0.13995 0.07798 0.65344 0.0
H3280 H 0.18078 0.13867 0.69297 0.0
H3281 H 0.17232 0.11863 0.67291 0.0
C3282 C 0.3313 0.56819 0.53585 0.0
C3283 C 0.3471 0.56377 0.54056 0.0
C3284 C 0.3203 0.57439 0.54737 0.0
C3285 C 0.32218 0.59619 0.58665 0.0
H3286 H 0.27513 0.59449 0.58464 0.0
C3287 C 0.28287 0.64631 0.61408 0.0
C3288 C 0.26854 0.64234 0.62253 0.0
C3289 C 0.29163 0.63446 0.60574 0.0
C3290 C 0.28826 0.5949 0.5855 0.0
H3291 H 0.3633 0.56091 0.56107 0.0
H3292 H 0.34401 0.57084 0.58118 0.0
H3293 H 0.29134 0.5767 0.567 0.0
H3294 H 0.25226 0.62263 0.62887 0.0
H3295 H 0.26773 0.60168 0.61409 0.0
H3296 H 0.31922 0.6144 0.60495 0.0
C3297 C 0.3402 0.57022 0.5686 0.0
C3298 C 0.29755 0.58484 0.57527 0.0
C3299 C 0.35122 0.56435 0.5571 0.0
C3300 C 0.26329 0.62606 0.62256 0.0
C3301 C 0.27207 0.61411 0.614 0.0
C3302 C 0.31294 0.60617 0.5968 0.0
C3303 C 0.32487 0.57609 0.56381 0.0
C3304 C 0.31467 0.58553 0.57555 0.0
C3305 C 0.28636 0.61822 0.6055 0.0
C3306 C 0.29588 0.60595 0.59613 0.0
H3307 H 0.32789 0.56803 0.52314 0.0
H3308 H 0.30864 0.57882 0.54319 0.0
H3309 H 0.33528 0.59735 0.58711 0.0
H3310 H 0.28731 0.6587 0.61376 0.0
H3311 H 0.30242 0.63813 0.59914 0.0
C3312 C 0.88963 0.88019 0.54061 0.0
C3313 C 0.89246 0.88264 0.52396 0.0
C3314 C 0.87994 0.86735 0.54599 0.0
C3315 C 0.84585 0.84191 0.53191 0.0
H3316 H 0.85046 0.82401 0.57519 0.0
C3317 C 0.7908 0.8204 0.56988 0.0
C3318 C 0.79318 0.80942 0.58267 0.0
C3319 C 0.80392 0.8253 0.56015 0.0
C3320 C 0.84897 0.82852 0.56293 0.0
H3321 H 0.8881 0.87296 0.49988 0.0
H3322 H 0.8713 0.85013 0.5093 0.0
H3323 H 0.87285 0.83878 0.56313 0.0
H3324 H 0.81078 0.79431 0.59495 0.0
H3325 H 0.83348 0.80193 0.5774 0.0
H3326 H 0.82199 0.83146 0.53166 0.0
C3327 C 0.87646 0.85833 0.51821 0.0
C3328 C 0.86184 0.83727 0.55607 0.0
C3329 C 0.8863 0.87124 0.51281 0.0
C3330 C 0.80863 0.80264 0.58498 0.0
C3331 C 0.82168 0.80726 0.57507 0.0
C3332 C 0.83301 0.83295 0.5387 0.0
C3333 C 0.87274 0.85653 0.53487 0.0
C3334 C 0.86027 0.84461 0.54072 0.0
C3335 C 0.8197 0.81921 0.56294 0.0
C3336 C 0.83416 0.82656 0.55455 0.0
H3337 H 0.89413 0.88883 0.54949 0.0
H3338 H 0.87728 0.86661 0.55886 0.0
H3339 H 0.8441 0.8474 0.52008 0.0
H3340 H 0.77906 0.8261 0.56815 0.0
H3341 H 0.8018 0.83467 0.55117 0.0
C3342 C 0.88043 0.13426 0.97532 0.0
C3343 C 0.88595 0.13429 0.99148 0.0
C3344 C 0.87021 0.14653 0.96963 0.0
C3345 C 0.83885 0.17454 0.98409 0.0
H3346 H 0.8402 0.18924 0.93937 0.0
C3347 C 0.78202 0.19432 0.9476 0.0
C3348 C 0.78404 0.20499 0.93446 0.0
C3349 C 0.79538 0.1899 0.95722 0.0
C3350 C 0.83969 0.18559 0.952 0.0
H3351 H 0.88557 0.14759 0.0142 0.0
H3352 H 0.86755 0.16922 1.00421 0.0
H3353 H 0.86304 0.17424 0.95046 0.0
H3354 H 0.8012 0.22016 0.92161 0.0
H3355 H 0.82433 0.21318 0.93881 0.0
H3356 H 0.8153 0.18566 0.9855 0.0
C3357 C 0.8712 0.15962 0.99596 0.0
C3358 C 0.85277 0.17678 0.95831 0.0
C3359 C 0.88168 0.14737 1.00162 0.0
C3360 C 0.7993 0.21213 0.93187 0.0
C3361 C 0.8126 0.20789 0.94157 0.0
C3362 C 0.8257 0.18337 0.97776 0.0
C3363 C 0.86505 0.15912 0.97998 0.0
C3364 C 0.85236 0.17075 0.97428 0.0
C3365 C 0.81102 0.19607 0.95385 0.0
C3366 C 0.82578 0.1887 0.9615 0.0
H3367 H 0.88343 0.12428 0.96725 0.0
H3368 H 0.86561 0.14561 0.95733 0.0
H3369 H 0.83807 0.16999 0.99641 0.0
H3370 H 0.77046 0.18829 0.94953 0.0
H3371 H 0.79366 0.18067 0.96644 0.0
C3372 C 0.37897 0.90134 0.27075 0.0
C3373 C 0.3623 0.90427 0.27325 0.0
C3374 C 0.39073 0.91158 0.27781 0.0
C3375 C 0.39518 0.95296 0.29587 0.0
H3376 H 0.43269 0.93507 0.31794 0.0
C3377 C 0.43701 0.97086 0.35339 0.0
C3378 C 0.43889 0.98768 0.35099 0.0
C3379 C 0.43142 0.96082 0.34091 0.0
C3380 C 0.42231 0.94029 0.31177 0.0
H3381 H 0.34505 0.92011 0.28547 0.0
H3382 H 0.36529 0.93756 0.29772 0.0
H3383 H 0.41494 0.91714 0.30225 0.0
H3384 H 0.43735 1.007 0.33322 0.0
H3385 H 0.42759 0.98936 0.31117 0.0
H3386 H 0.40193 0.97591 0.30607 0.0
C3387 C 0.36939 0.92764 0.29008 0.0
C3388 C 0.41221 0.93001 0.30264 0.0
C3389 C 0.35773 0.91748 0.28313 0.0
C3390 C 0.43607 0.99408 0.33542 0.0
C3391 C 0.43032 0.98399 0.32287 0.0
C3392 C 0.40524 0.96322 0.30499 0.0
C3393 C 0.38604 0.925 0.2874 0.0
C3394 C 0.39821 0.93613 0.29503 0.0
C3395 C 0.42745 0.96729 0.32562 0.0
C3396 C 0.41866 0.95695 0.3135 0.0
H3397 H 0.38292 0.8913 0.2632 0.0
H3398 H 0.40347 0.90917 0.27551 0.0
H3399 H 0.38469 0.95817 0.28988 0.0
H3400 H 0.43915 0.96552 0.36523 0.0
H3401 H 0.42924 0.94812 0.34363 0.0
C3402 C 0.21831 0.32092 0.92872 0.0
C3403 C 0.21773 0.32699 0.91276 0.0
C3404 C 0.2052 0.32343 0.93941 0.0
C3405 C 0.16146 0.33533 0.94041 0.0
H3406 H 0.17184 0.35464 0.98212 0.0
C3407 C 0.12119 0.38225 0.97204 0.0
C3408 C 0.12119 0.38357 0.98903 0.0
C3409 C 0.1304 0.37027 0.96429 0.0
C3410 C 0.16864 0.3489 0.97071 0.0
H3411 H 0.20268 0.33983 0.89533 0.0
H3412 H 0.18009 0.3441 0.91374 0.0
H3413 H 0.19349 0.34299 0.96554 0.0
H3414 H 0.13024 0.37311 0.01136 0.0
H3415 H 0.14638 0.35194 0.99782 0.0
H3416 H 0.13673 0.3419 0.94523 0.0
C3417 C 0.19052 0.33737 0.9181 0.0
C3418 C 0.18109 0.34223 0.96118 0.0
C3419 C 0.2036 0.33505 0.90756 0.0
C3420 C 0.12973 0.37204 0.99824 0.0
C3421 C 0.13915 0.36012 0.99047 0.0
C3422 C 0.14903 0.34198 0.94993 0.0
C3423 C 0.1912 0.33181 0.93423 0.0
C3424 C 0.17773 0.33592 0.94565 0.0
C3425 C 0.14008 0.3595 0.97338 0.0
C3426 C 0.15254 0.34939 0.96493 0.0
H3427 H 0.22904 0.31469 0.93309 0.0
H3428 H 0.20608 0.31895 0.95175 0.0
H3429 H 0.15841 0.33026 0.92865 0.0
H3430 H 0.11501 0.39127 0.9647 0.0
H3431 H 0.13094 0.37035 0.95114 0.0
C3432 C 0.10702 0.04886 0.86129 0.0
C3433 C 0.09255 0.04067 0.85719 0.0
C3434 C 0.11507 0.05851 0.84997 0.0
C3435 C 0.11244 0.08415 0.81519 0.0
H3436 H 0.15728 0.07139 0.80815 0.0
C3437 C 0.15792 0.12027 0.77376 0.0
C3438 C 0.17397 0.12134 0.77956 0.0
C3439 C 0.14646 0.11038 0.78169 0.0
C3440 C 0.14483 0.07524 0.81004 0.0
H3441 H 0.0749 0.03684 0.838 0.0
H3442 H 0.08903 0.05427 0.81808 0.0
H3443 H 0.13954 0.05428 0.82449 0.0
H3444 H 0.19032 0.11349 0.79868 0.0
H3445 H 0.17046 0.09675 0.81259 0.0
H3446 H 0.118 0.10558 0.80134 0.0
C3447 C 0.09405 0.05291 0.83017 0.0
C3448 C 0.13465 0.06533 0.81928 0.0
C3449 C 0.08602 0.04294 0.84153 0.0
C3450 C 0.17814 0.1128 0.79373 0.0
C3451 C 0.16674 0.10306 0.80166 0.0
C3452 C 0.12274 0.09423 0.80601 0.0
C3453 C 0.10883 0.06048 0.83425 0.0
C3454 C 0.11848 0.06985 0.82227 0.0
C3455 C 0.15085 0.1014 0.79558 0.0
C3456 C 0.13921 0.0901 0.80373 0.0
H3457 H 0.11248 0.04751 0.87319 0.0
H3458 H 0.12637 0.06434 0.85345 0.0
H3459 H 0.10003 0.08792 0.81742 0.0
H3460 H 0.15433 0.12668 0.76285 0.0
H3461 H 0.13434 0.10939 0.77666 0.0
C3462 C 0.62873 0.12298 0.04298 0.0
C3463 C 0.63024 0.12202 0.02601 0.0
C3464 C 0.63652 0.13528 0.0517 0.0
C3465 C 0.67344 0.15964 0.04945 0.0
H3466 H 0.65696 0.17821 0.08952 0.0
C3467 C 0.71543 0.19485 0.09388 0.0
C3468 C 0.71363 0.19082 0.1104 0.0
C3469 C 0.70386 0.18984 0.08239 0.0
C3470 C 0.66179 0.17309 0.0784 0.0
H3471 H 0.64054 0.13349 1.00472 0.0
H3472 H 0.65434 0.15517 0.02003 0.0
H3473 H 0.63844 0.16407 0.07116 0.0
H3474 H 0.69794 0.17871 0.1278 0.0
H3475 H 0.67799 0.16988 0.10789 0.0
H3476 H 0.6969 0.16803 0.05698 0.0
C3477 C 0.64701 0.14641 0.02657 0.0
C3478 C 0.65115 0.16504 0.06783 0.0
C3479 C 0.63895 0.13416 0.01778 0.0
C3480 C 0.69974 0.18208 0.1152 0.0
C3481 C 0.6882 0.17709 0.10375 0.0
C3482 C 0.68411 0.16765 0.06005 0.0
C3483 C 0.64627 0.1468 0.04369 0.0
C3484 C 0.65691 0.15782 0.05343 0.0
C3485 C 0.69019 0.1807 0.08715 0.0
C3486 C 0.67851 0.1741 0.07489 0.0
H3487 H 0.62226 0.11362 0.04962 0.0
H3488 H 0.63581 0.13505 0.06485 0.0
H3489 H 0.67835 0.15405 0.03858 0.0
H3490 H 0.72596 0.20159 0.08973 0.0
H3491 H 0.70571 0.193 0.06975 0.0
C3492 C 0.42606 0.03908 0.1687 0.0
C3493 C 0.42647 0.02201 0.16839 0.0
C3494 C 0.41705 0.04735 0.18048 0.0
C3495 C 0.39946 0.06336 0.20848 0.0
H3496 H 0.35684 0.04455 0.21562 0.0
C3497 C 0.35034 0.09705 0.24592 0.0
C3498 C 0.33412 0.09594 0.24063 0.0
C3499 C 0.36244 0.08727 0.23904 0.0
C3500 C 0.36864 0.05006 0.21367 0.0
H3501 H 0.41868 1.00022 0.18089 0.0
H3502 H 0.40315 0.01469 0.20183 0.0
H3503 H 0.3775 0.02895 0.20127 0.0
H3504 H 0.31796 0.08364 0.22384 0.0
H3505 H 0.33912 0.06692 0.21147 0.0
H3506 H 0.39037 0.08478 0.22005 0.0
C3507 C 0.40964 0.02169 0.19276 0.0
C3508 C 0.38063 0.04096 0.20567 0.0
C3509 C 0.41877 0.01339 0.18096 0.0
C3510 C 0.33031 0.08479 0.22824 0.0
C3511 C 0.34246 0.07509 0.22124 0.0
C3512 C 0.38745 0.07248 0.21637 0.0
C3513 C 0.40813 0.03877 0.19227 0.0
C3514 C 0.39613 0.04759 0.20271 0.0
C3515 C 0.35872 0.07618 0.22654 0.0
C3516 C 0.37178 0.06606 0.21888 0.0
H3517 H 0.43177 0.04605 0.15909 0.0
H3518 H 0.41616 0.06045 0.17954 0.0
H3519 H 0.41129 0.06883 0.2066 0.0
H3520 H 0.35372 0.10537 0.25555 0.0
H3521 H 0.37471 0.0883 0.24368 0.0
C3522 C 0.65906 0.41812 0.23859 0.0
C3523 C 0.65965 0.4016 0.23435 0.0
C3524 C 0.64737 0.4284 0.23191 0.0
C3525 C 0.60933 0.42962 0.20686 0.0
H3526 H 0.62549 0.47263 0.19627 0.0
C3527 C 0.58318 0.47137 0.15677 0.0
C3528 C 0.58351 0.4883 0.15911 0.0
C3529 C 0.58906 0.46085 0.16873 0.0
C3530 C 0.62063 0.4608 0.19941 0.0
H3531 H 0.64809 0.38268 0.2202 0.0
H3532 H 0.62791 0.40081 0.20783 0.0
H3533 H 0.64267 0.45392 0.21112 0.0
H3534 H 0.58932 0.50748 0.17615 0.0
H3535 H 0.59977 0.48905 0.19715 0.0
H3536 H 0.58754 0.43646 0.19422 0.0
C3537 C 0.63628 0.4058 0.21668 0.0
C3538 C 0.63051 0.44999 0.20798 0.0
C3539 C 0.64786 0.39538 0.2237 0.0
C3540 C 0.58876 0.49448 0.17412 0.0
C3541 C 0.5949 0.48393 0.18604 0.0
C3542 C 0.59948 0.44043 0.19808 0.0
C3543 C 0.63612 0.42256 0.22042 0.0
C3544 C 0.62508 0.43418 0.21179 0.0
C3545 C 0.59565 0.46704 0.18321 0.0
C3546 C 0.60508 0.45612 0.19416 0.0
H3547 H 0.66785 0.4232 0.247 0.0
H3548 H 0.64737 0.44104 0.23559 0.0
H3549 H 0.60459 0.41768 0.20972 0.0
H3550 H 0.57926 0.46629 0.14526 0.0
H3551 H 0.58953 0.44795 0.16609 0.0
loop_
_geom_bond_atom_site_label_1
_geom_bond_atom_site_label_2
_geom_bond_distance
_geom_bond_site_symmetry_2
_ccdc_geom_bond_type
C0 O2 1.247 . S
C0 O4 1.258 . S
C1 O8 1.247 . S
C1 O9 1.258 . S
O2 C0 1.247 . S
O2 Zn3 2.028 . S
Zn3 O2 2.028 . S
Zn3 O7 2.035 . S
Zn3 O9 2.035 . S
Zn3 O10 2.028 . S
O4 C0 1.258 . S
O4 Zn5 2.035 . S
Zn5 O4 2.035 . S
Zn5 O6 2.028 . S
Zn5 O8 2.028 . S
Zn5 O11 2.035 . S
O6 Zn5 2.028 . S
O6 C12 1.247 . S
O7 Zn3 2.035 . S
O7 C12 1.258 . S
O8 C1 1.247 . S
O8 Zn5 2.028 . S
O9 C1 1.258 . S
O9 Zn3 2.035 . S
O10 Zn3 2.028 . S
O10 C13 1.247 . S
O11 Zn5 2.035 . S
O11 C13 1.258 . S
C12 O6 1.247 . S
C12 O7 1.258 . S
C13 O10 1.247 . S
C13 O11 1.258 . S
C14 O16 1.247 . S
C14 O18 1.258 . S
C15 O22 1.247 . S
C15 O23 1.258 . S
O16 C14 1.247 . S
O16 Zn17 2.028 . S
Zn17 O16 2.028 . S
Zn17 O21 2.035 . S
Zn17 O23 2.035 . S
Zn17 O24 2.028 . S
O18 C14 1.258 . S
O18 Zn19 2.035 . S
Zn19 O18 2.035 . S
Zn19 O20 2.028 . S
Zn19 O22 2.028 . S
Zn19 O25 2.035 . S
O20 Zn19 2.028 . S
O20 C26 1.247 . S
O21 Zn17 2.035 . S
O21 C26 1.258 . S
O22 C15 1.247 . S
O22 Zn19 2.028 . S
O23 C15 1.258 . S
O23 Zn17 2.035 . S
O24 Zn17 2.028 . S
O24 C27 1.247 . S
O25 Zn19 2.035 . S
O25 C27 1.258 . S
C26 O20 1.247 . S
C26 O21 1.258 . S
C27 O24 1.247 . S
C27 O25 1.258 . S
C28 O30 1.247 . S
C28 O32 1.258 . S
C29 O36 1.247 . S
C29 O37 1.258 . S
O30 C28 1.247 . S
O30 Zn31 2.028 . S
Zn31 O30 2.028 . S
Zn31 O35 2.035 . S
Zn31 O37 2.035 . S
Zn31 O38 2.028 . S
O32 C28 1.258 . S
O32 Zn33 2.035 . S
Zn33 O32 2.035 . S
Zn33 O34 2.028 . S
Zn33 O36 2.028 . S
Zn33 O39 2.035 . S
O34 Zn33 2.028 . S
O34 C40 1.247 . S
O35 Zn31 2.035 . S
O35 C40 1.258 . S
O36 C29 1.247 . S
O36 Zn33 2.028 . S
O37 C29 1.258 . S
O37 Zn31 2.035 . S
O38 Zn31 2.028 . S
O38 C41 1.247 . S
O39 Zn33 2.035 . S
O39 C41 1.258 . S
C40 O34 1.247 . S
C40 O35 1.258 . S
C41 O38 1.247 . S
C41 O39 1.258 . S
C42 O44 1.247 . S
C42 O46 1.258 . S
C43 O50 1.247 . S
C43 O51 1.258 . S
O44 C42 1.247 . S
O44 Zn45 2.028 . S
Zn45 O44 2.028 . S
Zn45 O49 2.035 . S
Zn45 O51 2.035 . S
Zn45 O52 2.028 . S
O46 C42 1.258 . S
O46 Zn47 2.035 . S
Zn47 O46 2.035 . S
Zn47 O48 2.028 . S
Zn47 O50 2.028 . S
Zn47 O53 2.035 . S
O48 Zn47 2.028 . S
O48 C54 1.247 . S
O49 Zn45 2.035 . S
O49 C54 1.258 . S
O50 C43 1.247 . S
O50 Zn47 2.028 . S
O51 C43 1.258 . S
O51 Zn45 2.035 . S
O52 Zn45 2.028 . S
O52 C55 1.247 . S
O53 Zn47 2.035 . S
O53 C55 1.258 . S
C54 O48 1.247 . S
C54 O49 1.258 . S
C55 O52 1.247 . S
C55 O53 1.258 . S
C56 O58 1.247 . S
C56 O60 1.258 . S
C57 O64 1.247 . S
C57 O65 1.258 . S
O58 C56 1.247 . S
O58 Zn59 2.028 . S
Zn59 O58 2.028 . S
Zn59 O63 2.035 . S
Zn59 O65 2.035 . S
Zn59 O66 2.028 . S
O60 C56 1.258 . S
O60 Zn61 2.035 . S
Zn61 O60 2.035 . S
Zn61 O62 2.028 . S
Zn61 O64 2.028 . S
Zn61 O67 2.035 . S
O62 Zn61 2.028 . S
O62 C68 1.247 . S
O63 Zn59 2.035 . S
O63 C68 1.258 . S
O64 C57 1.247 . S
O64 Zn61 2.028 . S
O65 C57 1.258 . S
O65 Zn59 2.035 . S
O66 Zn59 2.028 . S
O66 C69 1.247 . S
O67 Zn61 2.035 . S
O67 C69 1.258 . S
C68 O62 1.247 . S
C68 O63 1.258 . S
C69 O66 1.247 . S
C69 O67 1.258 . S
C70 O72 1.247 . S
C70 O74 1.258 . S
C71 O78 1.247 . S
C71 O79 1.258 . S
O72 C70 1.247 . S
O72 Zn73 2.028 . S
Zn73 O72 2.028 . S
Zn73 O77 2.035 . S
Zn73 O79 2.035 1_455 S
Zn73 O80 2.028 1_455 S
O74 C70 1.258 . S
O74 Zn75 2.035 1_455 S
Zn75 O74 2.035 1_655 S
Zn75 O76 2.028 1_655 S
Zn75 O78 2.028 . S
Zn75 O81 2.035 . S
O76 Zn75 2.028 1_455 S
O76 C82 1.247 . S
O77 Zn73 2.035 . S
O77 C82 1.258 . S
O78 C71 1.247 . S
O78 Zn75 2.028 . S
O79 C71 1.258 . S
O79 Zn73 2.035 1_655 S
O80 Zn73 2.028 1_655 S
O80 C83 1.247 . S
O81 Zn75 2.035 . S
O81 C83 1.258 . S
C82 O76 1.247 . S
C82 O77 1.258 . S
C83 O80 1.247 . S
C83 O81 1.258 . S
C84 O86 1.247 . S
C84 O88 1.258 . S
C85 O92 1.247 . S
C85 O93 1.258 . S
O86 C84 1.247 . S
O86 Zn87 2.028 . S
Zn87 O86 2.028 . S
Zn87 O91 2.035 . S
Zn87 O93 2.035 . S
Zn87 O94 2.028 . S
O88 C84 1.258 . S
O88 Zn89 2.035 . S
Zn89 O88 2.035 . S
Zn89 O90 2.028 . S
Zn89 O92 2.028 . S
Zn89 O95 2.035 . S
O90 Zn89 2.028 . S
O90 C96 1.247 . S
O91 Zn87 2.035 . S
O91 C96 1.258 . S
O92 C85 1.247 . S
O92 Zn89 2.028 . S
O93 C85 1.258 . S
O93 Zn87 2.035 . S
O94 Zn87 2.028 . S
O94 C97 1.247 . S
O95 Zn89 2.035 . S
O95 C97 1.258 . S
C96 O90 1.247 . S
C96 O91 1.258 . S
C97 O94 1.247 . S
C97 O95 1.258 . S
C98 O100 1.247 . S
C98 O102 1.258 . S
C99 O106 1.247 . S
C99 O107 1.258 . S
O100 C98 1.247 . S
O100 Zn101 2.028 . S
Zn101 O100 2.028 . S
Zn101 O105 2.035 . S
Zn101 O107 2.035 1_655 S
Zn101 O108 2.028 1_655 S
O102 C98 1.258 . S
O102 Zn103 2.035 1_655 S
Zn103 O102 2.035 1_455 S
Zn103 O104 2.028 1_455 S
Zn103 O106 2.028 . S
Zn103 O109 2.035 . S
O104 Zn103 2.028 1_655 S
O104 C110 1.247 . S
O105 Zn101 2.035 . S
O105 C110 1.258 . S
O106 C99 1.247 . S
O106 Zn103 2.028 . S
O107 C99 1.258 . S
O107 Zn101 2.035 1_455 S
O108 Zn101 2.028 1_455 S
O108 C111 1.247 . S
O109 Zn103 2.035 . S
O109 C111 1.258 . S
C110 O104 1.247 . S
C110 O105 1.258 . S
C111 O108 1.247 . S
C111 O109 1.258 . S
C112 O114 1.247 . S
C112 O116 1.258 . S
C113 O120 1.247 . S
C113 O121 1.258 . S
O114 C112 1.247 . S
O114 Zn115 2.028 . S
Zn115 O114 2.028 . S
Zn115 O119 2.035 . S
Zn115 O121 2.035 . S
Zn115 O122 2.028 . S
O116 C112 1.258 . S
O116 Zn117 2.035 . S
Zn117 O116 2.035 . S
Zn117 O118 2.028 . S
Zn117 O120 2.028 . S
Zn117 O123 2.035 . S
O118 Zn117 2.028 . S
O118 C124 1.247 . S
O119 Zn115 2.035 . S
O119 C124 1.258 . S
O120 C113 1.247 . S
O120 Zn117 2.028 . S
O121 C113 1.258 . S
O121 Zn115 2.035 . S
O122 Zn115 2.028 . S
O122 C125 1.247 . S
O123 Zn117 2.035 . S
O123 C125 1.258 . S
C124 O118 1.247 . S
C124 O119 1.258 . S
C125 O122 1.247 . S
C125 O123 1.258 . S
C126 O128 1.247 . S
C126 O130 1.258 . S
C127 O134 1.247 . S
C127 O135 1.258 . S
O128 C126 1.247 . S
O128 Zn129 2.028 . S
Zn129 O128 2.028 . S
Zn129 O133 2.035 . S
Zn129 O135 2.035 1_556 S
Zn129 O136 2.028 1_556 S
O130 C126 1.258 . S
O130 Zn131 2.035 1_556 S
Zn131 O130 2.035 1_554 S
Zn131 O132 2.028 1_554 S
Zn131 O134 2.028 . S
Zn131 O137 2.035 . S
O132 Zn131 2.028 1_556 S
O132 C138 1.247 . S
O133 Zn129 2.035 . S
O133 C138 1.258 . S
O134 C127 1.247 . S
O134 Zn131 2.028 . S
O135 C127 1.258 . S
O135 Zn129 2.035 1_554 S
O136 Zn129 2.028 1_554 S
O136 C139 1.247 . S
O137 Zn131 2.035 . S
O137 C139 1.258 . S
C138 O132 1.247 . S
C138 O133 1.258 . S
C139 O136 1.247 . S
C139 O137 1.258 . S
C140 O142 1.247 . S
C140 O144 1.258 . S
C141 O148 1.247 . S
C141 O149 1.258 . S
O142 C140 1.247 . S
O142 Zn143 2.028 . S
Zn143 O142 2.028 . S
Zn143 O147 2.035 . S
Zn143 O149 2.035 . S
Zn143 O150 2.028 . S
O144 C140 1.258 . S
O144 Zn145 2.035 . S
Zn145 O144 2.035 . S
Zn145 O146 2.028 . S
Zn145 O148 2.028 . S
Zn145 O151 2.035 . S
O146 Zn145 2.028 . S
O146 C152 1.247 . S
O147 Zn143 2.035 . S
O147 C152 1.258 . S
O148 C141 1.247 . S
O148 Zn145 2.028 . S
O149 C141 1.258 . S
O149 Zn143 2.035 . S
O150 Zn143 2.028 . S
O150 C153 1.247 . S
O151 Zn145 2.035 . S
O151 C153 1.258 . S
C152 O146 1.247 . S
C152 O147 1.258 . S
C153 O150 1.247 . S
C153 O151 1.258 . S
C154 O156 1.247 . S
C154 O158 1.258 . S
C155 O162 1.247 . S
C155 O163 1.258 . S
O156 C154 1.247 . S
O156 Zn157 2.028 1_554 S
Zn157 O156 2.028 1_556 S
Zn157 O161 2.035 1_556 S
Zn157 O163 2.035 . S
Zn157 O164 2.028 . S
O158 C154 1.258 . S
O158 Zn159 2.035 . S
Zn159 O158 2.035 . S
Zn159 O160 2.028 . S
Zn159 O162 2.028 1_554 S
Zn159 O165 2.035 1_554 S
O160 Zn159 2.028 . S
O160 C166 1.247 . S
O161 Zn157 2.035 1_554 S
O161 C166 1.258 . S
O162 C155 1.247 . S
O162 Zn159 2.028 1_556 S
O163 C155 1.258 . S
O163 Zn157 2.035 . S
O164 Zn157 2.028 . S
O164 C167 1.247 . S
O165 Zn159 2.035 1_556 S
O165 C167 1.258 . S
C166 O160 1.247 . S
C166 O161 1.258 . S
C167 O164 1.247 . S
C167 O165 1.258 . S
C168 O170 1.247 . S
C168 O172 1.258 . S
C169 O176 1.247 . S
C169 O177 1.258 . S
O170 C168 1.247 . S
O170 Zn171 2.028 . S
Zn171 O170 2.028 . S
Zn171 O175 2.035 . S
Zn171 O177 2.035 . S
Zn171 O178 2.028 . S
O172 C168 1.258 . S
O172 Zn173 2.035 . S
Zn173 O172 2.035 . S
Zn173 O174 2.028 . S
Zn173 O176 2.028 . S
Zn173 O179 2.035 . S
O174 Zn173 2.028 . S
O174 C180 1.247 . S
O175 Zn171 2.035 . S
O175 C180 1.258 . S
O176 C169 1.247 . S
O176 Zn173 2.028 . S
O177 C169 1.258 . S
O177 Zn171 2.035 . S
O178 Zn171 2.028 . S
O178 C181 1.247 . S
O179 Zn173 2.035 . S
O179 C181 1.258 . S
C180 O174 1.247 . S
C180 O175 1.258 . S
C181 O178 1.247 . S
C181 O179 1.258 . S
C182 O184 1.247 . S
C182 O186 1.258 . S
C183 O190 1.247 . S
C183 O191 1.258 . S
O184 C182 1.247 . S
O184 Zn185 2.028 . S
Zn185 O184 2.028 . S
Zn185 O189 2.035 . S
Zn185 O191 2.035 1_554 S
Zn185 O192 2.028 1_554 S
O186 C182 1.258 . S
O186 Zn187 2.035 1_554 S
Zn187 O186 2.035 1_556 S
Zn187 O188 2.028 1_556 S
Zn187 O190 2.028 . S
Zn187 O193 2.035 . S
O188 Zn187 2.028 1_554 S
O188 C194 1.247 . S
O189 Zn185 2.035 . S
O189 C194 1.258 . S
O190 C183 1.247 . S
O190 Zn187 2.028 . S
O191 C183 1.258 . S
O191 Zn185 2.035 1_556 S
O192 Zn185 2.028 1_556 S
O192 C195 1.247 . S
O193 Zn187 2.035 . S
O193 C195 1.258 . S
C194 O188 1.247 . S
C194 O189 1.258 . S
C195 O192 1.247 . S
C195 O193 1.258 . S
C196 O198 1.247 . S
C196 O200 1.258 . S
C197 O204 1.247 . S
C197 O205 1.258 . S
O198 C196 1.247 . S
O198 Zn199 2.028 . S
Zn199 O198 2.028 . S
Zn199 O203 2.035 . S
Zn199 O205 2.035 . S
Zn199 O206 2.028 . S
O200 C196 1.258 . S
O200 Zn201 2.035 . S
Zn201 O200 2.035 . S
Zn201 O202 2.028 . S
Zn201 O204 2.028 . S
Zn201 O207 2.035 . S
O202 Zn201 2.028 . S
O202 C208 1.247 . S
O203 Zn199 2.035 . S
O203 C208 1.258 . S
O204 C197 1.247 . S
O204 Zn201 2.028 . S
O205 C197 1.258 . S
O205 Zn199 2.035 . S
O206 Zn199 2.028 . S
O206 C209 1.247 . S
O207 Zn201 2.035 . S
O207 C209 1.258 . S
C208 O202 1.247 . S
C208 O203 1.258 . S
C209 O206 1.247 . S
C209 O207 1.258 . S
C210 O212 1.247 . S
C210 O214 1.258 . S
C211 O218 1.247 . S
C211 O219 1.258 . S
O212 C210 1.247 . S
O212 Zn213 2.028 1_556 S
Zn213 O212 2.028 1_554 S
Zn213 O217 2.035 1_554 S
Zn213 O219 2.035 . S
Zn213 O220 2.028 . S
O214 C210 1.258 . S
O214 Zn215 2.035 . S
Zn215 O214 2.035 . S
Zn215 O216 2.028 . S
Zn215 O218 2.028 1_556 S
Zn215 O221 2.035 1_556 S
O216 Zn215 2.028 . S
O216 C222 1.247 . S
O217 Zn213 2.035 1_556 S
O217 C222 1.258 . S
O218 C211 1.247 . S
O218 Zn215 2.028 1_554 S
O219 C211 1.258 . S
O219 Zn213 2.035 . S
O220 Zn213 2.028 . S
O220 C223 1.247 . S
O221 Zn215 2.035 1_554 S
O221 C223 1.258 . S
C222 O216 1.247 . S
C222 O217 1.258 . S
C223 O220 1.247 . S
C223 O221 1.258 . S
C224 O226 1.247 . S
C224 O228 1.258 . S
C225 O232 1.247 . S
C225 O233 1.258 . S
O226 C224 1.247 . S
O226 Zn227 2.028 . S
Zn227 O226 2.028 . S
Zn227 O231 2.035 . S
Zn227 O233 2.035 . S
Zn227 O234 2.028 . S
O228 C224 1.258 . S
O228 Zn229 2.035 . S
Zn229 O228 2.035 . S
Zn229 O230 2.028 . S
Zn229 O232 2.028 . S
Zn229 O235 2.035 . S
O230 Zn229 2.028 . S
O230 C236 1.247 . S
O231 Zn227 2.035 . S
O231 C236 1.258 . S
O232 C225 1.247 . S
O232 Zn229 2.028 . S
O233 C225 1.258 . S
O233 Zn227 2.035 . S
O234 Zn227 2.028 . S
O234 C237 1.247 . S
O235 Zn229 2.035 . S
O235 C237 1.258 . S
C236 O230 1.247 . S
C236 O231 1.258 . S
C237 O234 1.247 . S
C237 O235 1.258 . S
C238 O240 1.247 . S
C238 O242 1.258 . S
C239 O246 1.247 . S
C239 O247 1.258 . S
O240 C238 1.247 . S
O240 Zn241 2.028 . S
Zn241 O240 2.028 . S
Zn241 O245 2.035 . S
Zn241 O247 2.035 . S
Zn241 O248 2.028 . S
O242 C238 1.258 . S
O242 Zn243 2.035 . S
Zn243 O242 2.035 . S
Zn243 O244 2.028 . S
Zn243 O246 2.028 . S
Zn243 O249 2.035 . S
O244 Zn243 2.028 . S
O244 C250 1.247 . S
O245 Zn241 2.035 . S
O245 C250 1.258 . S
O246 C239 1.247 . S
O246 Zn243 2.028 . S
O247 C239 1.258 . S
O247 Zn241 2.035 . S
O248 Zn241 2.028 . S
O248 C251 1.247 . S
O249 Zn243 2.035 . S
O249 C251 1.258 . S
C250 O244 1.247 . S
C250 O245 1.258 . S
C251 O248 1.247 . S
C251 O249 1.258 . S
C252 O254 1.247 . S
C252 O256 1.258 . S
C253 O260 1.247 . S
C253 O261 1.258 . S
O254 C252 1.247 . S
O254 Zn255 2.028 . S
Zn255 O254 2.028 . S
Zn255 O259 2.035 . S
Zn255 O261 2.035 . S
Zn255 O262 2.028 . S
O256 C252 1.258 . S
O256 Zn257 2.035 . S
Zn257 O256 2.035 . S
Zn257 O258 2.028 . S
Zn257 O260 2.028 . S
Zn257 O263 2.035 . S
O258 Zn257 2.028 . S
O258 C264 1.247 . S
O259 Zn255 2.035 . S
O259 C264 1.258 . S
O260 C253 1.247 . S
O260 Zn257 2.028 . S
O261 C253 1.258 . S
O261 Zn255 2.035 . S
O262 Zn255 2.028 . S
O262 C265 1.247 . S
O263 Zn257 2.035 . S
O263 C265 1.258 . S
C264 O258 1.247 . S
C264 O259 1.258 . S
C265 O262 1.247 . S
C265 O263 1.258 . S
C266 O268 1.247 . S
C266 O270 1.258 . S
C267 O274 1.247 . S
C267 O275 1.258 . S
O268 C266 1.247 . S
O268 Zn269 2.028 . S
Zn269 O268 2.028 . S
Zn269 O273 2.035 . S
Zn269 O275 2.035 . S
Zn269 O276 2.028 . S
O270 C266 1.258 . S
O270 Zn271 2.035 . S
Zn271 O270 2.035 . S
Zn271 O272 2.028 . S
Zn271 O274 2.028 . S
Zn271 O277 2.035 . S
O272 Zn271 2.028 . S
O272 C278 1.247 . S
O273 Zn269 2.035 . S
O273 C278 1.258 . S
O274 C267 1.247 . S
O274 Zn271 2.028 . S
O275 C267 1.258 . S
O275 Zn269 2.035 . S
O276 Zn269 2.028 . S
O276 C279 1.247 . S
O277 Zn271 2.035 . S
O277 C279 1.258 . S
C278 O272 1.247 . S
C278 O273 1.258 . S
C279 O276 1.247 . S
C279 O277 1.258 . S
C280 O282 1.247 . S
C280 O284 1.258 . S
C281 O288 1.247 . S
C281 O289 1.258 . S
O282 C280 1.247 . S
O282 Zn283 2.028 . S
Zn283 O282 2.028 . S
Zn283 O287 2.035 . S
Zn283 O289 2.035 . S
Zn283 O290 2.028 . S
O284 C280 1.258 . S
O284 Zn285 2.035 . S
Zn285 O284 2.035 . S
Zn285 O286 2.028 . S
Zn285 O288 2.028 . S
Zn285 O291 2.035 . S
O286 Zn285 2.028 . S
O286 C292 1.247 . S
O287 Zn283 2.035 . S
O287 C292 1.258 . S
O288 C281 1.247 . S
O288 Zn285 2.028 . S
O289 C281 1.258 . S
O289 Zn283 2.035 . S
O290 Zn283 2.028 . S
O290 C293 1.247 . S
O291 Zn285 2.035 . S
O291 C293 1.258 . S
C292 O286 1.247 . S
C292 O287 1.258 . S
C293 O290 1.247 . S
C293 O291 1.258 . S
C294 O296 1.247 . S
C294 O298 1.258 . S
C295 O302 1.247 . S
C295 O303 1.258 . S
O296 C294 1.247 . S
O296 Zn297 2.028 . S
Zn297 O296 2.028 . S
Zn297 O301 2.035 . S
Zn297 O303 2.035 . S
Zn297 O304 2.028 . S
O298 C294 1.258 . S
O298 Zn299 2.035 . S
Zn299 O298 2.035 . S
Zn299 O300 2.028 . S
Zn299 O302 2.028 . S
Zn299 O305 2.035 . S
O300 Zn299 2.028 . S
O300 C306 1.247 . S
O301 Zn297 2.035 . S
O301 C306 1.258 . S
O302 C295 1.247 . S
O302 Zn299 2.028 . S
O303 C295 1.258 . S
O303 Zn297 2.035 . S
O304 Zn297 2.028 . S
O304 C307 1.247 . S
O305 Zn299 2.035 . S
O305 C307 1.258 . S
C306 O300 1.247 . S
C306 O301 1.258 . S
C307 O304 1.247 . S
C307 O305 1.258 . S
C308 O310 1.247 . S
C308 O312 1.258 . S
C309 O316 1.247 . S
C309 O317 1.258 . S
O310 C308 1.247 . S
O310 Zn311 2.028 . S
Zn311 O310 2.028 . S
Zn311 O315 2.035 . S
Zn311 O317 2.035 . S
Zn311 O318 2.028 . S
O312 C308 1.258 . S
O312 Zn313 2.035 . S
Zn313 O312 2.035 . S
Zn313 O314 2.028 . S
Zn313 O316 2.028 . S
Zn313 O319 2.035 . S
O314 Zn313 2.028 . S
O314 C320 1.247 . S
O315 Zn311 2.035 . S
O315 C320 1.258 . S
O316 C309 1.247 . S
O316 Zn313 2.028 . S
O317 C309 1.258 . S
O317 Zn311 2.035 . S
O318 Zn311 2.028 . S
O318 C321 1.247 . S
O319 Zn313 2.035 . S
O319 C321 1.258 . S
C320 O314 1.247 . S
C320 O315 1.258 . S
C321 O318 1.247 . S
C321 O319 1.258 . S
C322 O324 1.247 . S
C322 O326 1.258 . S
C323 O330 1.247 . S
C323 O331 1.258 . S
O324 C322 1.247 . S
O324 Zn325 2.028 . S
Zn325 O324 2.028 . S
Zn325 O329 2.035 . S
Zn325 O331 2.035 1_545 S
Zn325 O332 2.028 1_545 S
O326 C322 1.258 . S
O326 Zn327 2.035 1_545 S
Zn327 O326 2.035 1_565 S
Zn327 O328 2.028 1_565 S
Zn327 O330 2.028 . S
Zn327 O333 2.035 . S
O328 Zn327 2.028 1_545 S
O328 C334 1.247 . S
O329 Zn325 2.035 . S
O329 C334 1.258 . S
O330 C323 1.247 . S
O330 Zn327 2.028 . S
O331 C323 1.258 . S
O331 Zn325 2.035 1_565 S
O332 Zn325 2.028 1_565 S
O332 C335 1.247 . S
O333 Zn327 2.035 . S
O333 C335 1.258 . S
C334 O328 1.247 . S
C334 O329 1.258 . S
C335 O332 1.247 . S
C335 O333 1.258 . S
C336 O338 1.247 . S
C336 O340 1.258 . S
C337 O344 1.247 . S
C337 O345 1.258 . S
O338 C336 1.247 . S
O338 Zn339 2.028 . S
Zn339 O338 2.028 . S
Zn339 O343 2.035 . S
Zn339 O345 2.035 . S
Zn339 O346 2.028 . S
O340 C336 1.258 . S
O340 Zn341 2.035 . S
Zn341 O340 2.035 . S
Zn341 O342 2.028 . S
Zn341 O344 2.028 . S
Zn341 O347 2.035 . S
O342 Zn341 2.028 . S
O342 C348 1.247 . S
O343 Zn339 2.035 . S
O343 C348 1.258 . S
O344 C337 1.247 . S
O344 Zn341 2.028 . S
O345 C337 1.258 . S
O345 Zn339 2.035 . S
O346 Zn339 2.028 . S
O346 C349 1.247 . S
O347 Zn341 2.035 . S
O347 C349 1.258 . S
C348 O342 1.247 . S
C348 O343 1.258 . S
C349 O346 1.247 . S
C349 O347 1.258 . S
C350 O352 1.247 . S
C350 O354 1.258 . S
C351 O358 1.247 . S
C351 O359 1.258 . S
O352 C350 1.247 . S
O352 Zn353 2.028 1_655 S
Zn353 O352 2.028 1_455 S
Zn353 O357 2.035 1_455 S
Zn353 O359 2.035 . S
Zn353 O360 2.028 . S
O354 C350 1.258 . S
O354 Zn355 2.035 . S
Zn355 O354 2.035 . S
Zn355 O356 2.028 . S
Zn355 O358 2.028 1_655 S
Zn355 O361 2.035 1_655 S
O356 Zn355 2.028 . S
O356 C362 1.247 . S
O357 Zn353 2.035 1_655 S
O357 C362 1.258 . S
O358 C351 1.247 . S
O358 Zn355 2.028 1_455 S
O359 C351 1.258 . S
O359 Zn353 2.035 . S
O360 Zn353 2.028 . S
O360 C363 1.247 . S
O361 Zn355 2.035 1_455 S
O361 C363 1.258 . S
C362 O356 1.247 . S
C362 O357 1.258 . S
C363 O360 1.247 . S
C363 O361 1.258 . S
C364 O366 1.247 . S
C364 O368 1.258 . S
C365 O372 1.247 . S
C365 O373 1.258 . S
O366 C364 1.247 . S
O366 Zn367 2.028 . S
Zn367 O366 2.028 . S
Zn367 O371 2.035 . S
Zn367 O373 2.035 . S
Zn367 O374 2.028 . S
O368 C364 1.258 . S
O368 Zn369 2.035 . S
Zn369 O368 2.035 . S
Zn369 O370 2.028 . S
Zn369 O372 2.028 . S
Zn369 O375 2.035 . S
O370 Zn369 2.028 . S
O370 C376 1.247 . S
O371 Zn367 2.035 . S
O371 C376 1.258 . S
O372 C365 1.247 . S
O372 Zn369 2.028 . S
O373 C365 1.258 . S
O373 Zn367 2.035 . S
O374 Zn367 2.028 . S
O374 C377 1.247 . S
O375 Zn369 2.035 . S
O375 C377 1.258 . S
C376 O370 1.247 . S
C376 O371 1.258 . S
C377 O374 1.247 . S
C377 O375 1.258 . S
C378 O380 1.247 . S
C378 O382 1.258 . S
C379 O386 1.247 . S
C379 O387 1.258 . S
O380 C378 1.247 . S
O380 Zn381 2.028 1_455 S
Zn381 O380 2.028 1_655 S
Zn381 O385 2.035 1_655 S
Zn381 O387 2.035 . S
Zn381 O388 2.028 . S
O382 C378 1.258 . S
O382 Zn383 2.035 . S
Zn383 O382 2.035 . S
Zn383 O384 2.028 . S
Zn383 O386 2.028 1_455 S
Zn383 O389 2.035 1_455 S
O384 Zn383 2.028 . S
O384 C390 1.247 . S
O385 Zn381 2.035 1_455 S
O385 C390 1.258 . S
O386 C379 1.247 . S
O386 Zn383 2.028 1_655 S
O387 C379 1.258 . S
O387 Zn381 2.035 . S
O388 Zn381 2.028 . S
O388 C391 1.247 . S
O389 Zn383 2.035 1_655 S
O389 C391 1.258 . S
C390 O384 1.247 . S
C390 O385 1.258 . S
C391 O388 1.247 . S
C391 O389 1.258 . S
C392 O394 1.247 . S
C392 O396 1.258 . S
C393 O400 1.247 . S
C393 O401 1.258 . S
O394 C392 1.247 . S
O394 Zn395 2.028 . S
Zn395 O394 2.028 . S
Zn395 O399 2.035 . S
Zn395 O401 2.035 . S
Zn395 O402 2.028 . S
O396 C392 1.258 . S
O396 Zn397 2.035 . S
Zn397 O396 2.035 . S
Zn397 O398 2.028 . S
Zn397 O400 2.028 . S
Zn397 O403 2.035 . S
O398 Zn397 2.028 . S
O398 C404 1.247 . S
O399 Zn395 2.035 . S
O399 C404 1.258 . S
O400 C393 1.247 . S
O400 Zn397 2.028 . S
O401 C393 1.258 . S
O401 Zn395 2.035 . S
O402 Zn395 2.028 . S
O402 C405 1.247 . S
O403 Zn397 2.035 . S
O403 C405 1.258 . S
C404 O398 1.247 . S
C404 O399 1.258 . S
C405 O402 1.247 . S
C405 O403 1.258 . S
C406 O408 1.247 . S
C406 O410 1.258 . S
C407 O414 1.247 . S
C407 O415 1.258 . S
O408 C406 1.247 . S
O408 Zn409 2.028 . S
Zn409 O408 2.028 . S
Zn409 O413 2.035 . S
Zn409 O415 2.035 . S
Zn409 O416 2.028 . S
O410 C406 1.258 . S
O410 Zn411 2.035 . S
Zn411 O410 2.035 . S
Zn411 O412 2.028 . S
Zn411 O414 2.028 . S
Zn411 O417 2.035 . S
O412 Zn411 2.028 . S
O412 C418 1.247 . S
O413 Zn409 2.035 . S
O413 C418 1.258 . S
O414 C407 1.247 . S
O414 Zn411 2.028 . S
O415 C407 1.258 . S
O415 Zn409 2.035 . S
O416 Zn409 2.028 . S
O416 C419 1.247 . S
O417 Zn411 2.035 . S
O417 C419 1.258 . S
C418 O412 1.247 . S
C418 O413 1.258 . S
C419 O416 1.247 . S
C419 O417 1.258 . S
C420 O422 1.247 . S
C420 O424 1.258 . S
C421 O428 1.247 . S
C421 O429 1.258 . S
O422 C420 1.247 . S
O422 Zn423 2.028 . S
Zn423 O422 2.028 . S
Zn423 O427 2.035 . S
Zn423 O429 2.035 . S
Zn423 O430 2.028 . S
O424 C420 1.258 . S
O424 Zn425 2.035 . S
Zn425 O424 2.035 . S
Zn425 O426 2.028 . S
Zn425 O428 2.028 . S
Zn425 O431 2.035 . S
O426 Zn425 2.028 . S
O426 C432 1.247 . S
O427 Zn423 2.035 . S
O427 C432 1.258 . S
O428 C421 1.247 . S
O428 Zn425 2.028 . S
O429 C421 1.258 . S
O429 Zn423 2.035 . S
O430 Zn423 2.028 . S
O430 C433 1.247 . S
O431 Zn425 2.035 . S
O431 C433 1.258 . S
C432 O426 1.247 . S
C432 O427 1.258 . S
C433 O430 1.247 . S
C433 O431 1.258 . S
C434 O436 1.247 . S
C434 O438 1.258 . S
C435 O442 1.247 . S
C435 O443 1.258 . S
O436 C434 1.247 . S
O436 Zn437 2.028 . S
Zn437 O436 2.028 . S
Zn437 O441 2.035 . S
Zn437 O443 2.035 . S
Zn437 O444 2.028 . S
O438 C434 1.258 . S
O438 Zn439 2.035 . S
Zn439 O438 2.035 . S
Zn439 O440 2.028 . S
Zn439 O442 2.028 . S
Zn439 O445 2.035 . S
O440 Zn439 2.028 . S
O440 C446 1.247 . S
O441 Zn437 2.035 . S
O441 C446 1.258 . S
O442 C435 1.247 . S
O442 Zn439 2.028 . S
O443 C435 1.258 . S
O443 Zn437 2.035 . S
O444 Zn437 2.028 . S
O444 C447 1.247 . S
O445 Zn439 2.035 . S
O445 C447 1.258 . S
C446 O440 1.247 . S
C446 O441 1.258 . S
C447 O444 1.247 . S
C447 O445 1.258 . S
C448 O450 1.247 . S
C448 O452 1.258 . S
C449 O456 1.247 . S
C449 O457 1.258 . S
O450 C448 1.247 . S
O450 Zn451 2.028 . S
Zn451 O450 2.028 . S
Zn451 O455 2.035 . S
Zn451 O457 2.035 . S
Zn451 O458 2.028 . S
O452 C448 1.258 . S
O452 Zn453 2.035 . S
Zn453 O452 2.035 . S
Zn453 O454 2.028 . S
Zn453 O456 2.028 . S
Zn453 O459 2.035 . S
O454 Zn453 2.028 . S
O454 C460 1.247 . S
O455 Zn451 2.035 . S
O455 C460 1.258 . S
O456 C449 1.247 . S
O456 Zn453 2.028 . S
O457 C449 1.258 . S
O457 Zn451 2.035 . S
O458 Zn451 2.028 . S
O458 C461 1.247 . S
O459 Zn453 2.035 . S
O459 C461 1.258 . S
C460 O454 1.247 . S
C460 O455 1.258 . S
C461 O458 1.247 . S
C461 O459 1.258 . S
C462 O464 1.247 . S
C462 O466 1.258 . S
C463 O470 1.247 . S
C463 O471 1.258 . S
O464 C462 1.247 . S
O464 Zn465 2.028 . S
Zn465 O464 2.028 . S
Zn465 O469 2.035 . S
Zn465 O471 2.035 . S
Zn465 O472 2.028 . S
O466 C462 1.258 . S
O466 Zn467 2.035 . S
Zn467 O466 2.035 . S
Zn467 O468 2.028 . S
Zn467 O470 2.028 . S
Zn467 O473 2.035 . S
O468 Zn467 2.028 . S
O468 C474 1.247 . S
O469 Zn465 2.035 . S
O469 C474 1.258 . S
O470 C463 1.247 . S
O470 Zn467 2.028 . S
O471 C463 1.258 . S
O471 Zn465 2.035 . S
O472 Zn465 2.028 . S
O472 C475 1.247 . S
O473 Zn467 2.035 . S
O473 C475 1.258 . S
C474 O468 1.247 . S
C474 O469 1.258 . S
C475 O472 1.247 . S
C475 O473 1.258 . S
C476 O478 1.247 . S
C476 O480 1.258 . S
C477 O484 1.247 . S
C477 O485 1.258 . S
O478 C476 1.247 . S
O478 Zn479 2.028 . S
Zn479 O478 2.028 . S
Zn479 O483 2.035 . S
Zn479 O485 2.035 . S
Zn479 O486 2.028 . S
O480 C476 1.258 . S
O480 Zn481 2.035 . S
Zn481 O480 2.035 . S
Zn481 O482 2.028 . S
Zn481 O484 2.028 . S
Zn481 O487 2.035 . S
O482 Zn481 2.028 . S
O482 C488 1.247 . S
O483 Zn479 2.035 . S
O483 C488 1.258 . S
O484 C477 1.247 . S
O484 Zn481 2.028 . S
O485 C477 1.258 . S
O485 Zn479 2.035 . S
O486 Zn479 2.028 . S
O486 C489 1.247 . S
O487 Zn481 2.035 . S
O487 C489 1.258 . S
C488 O482 1.247 . S
C488 O483 1.258 . S
C489 O486 1.247 . S
C489 O487 1.258 . S
C490 O492 1.247 . S
C490 O494 1.258 . S
C491 O498 1.247 . S
C491 O499 1.258 . S
O492 C490 1.247 . S
O492 Zn493 2.028 . S
Zn493 O492 2.028 . S
Zn493 O497 2.035 . S
Zn493 O499 2.035 . S
Zn493 O500 2.028 . S
O494 C490 1.258 . S
O494 Zn495 2.035 . S
Zn495 O494 2.035 . S
Zn495 O496 2.028 . S
Zn495 O498 2.028 . S
Zn495 O501 2.035 . S
O496 Zn495 2.028 . S
O496 C502 1.247 . S
O497 Zn493 2.035 . S
O497 C502 1.258 . S
O498 C491 1.247 . S
O498 Zn495 2.028 . S
O499 C491 1.258 . S
O499 Zn493 2.035 . S
O500 Zn493 2.028 . S
O500 C503 1.247 . S
O501 Zn495 2.035 . S
O501 C503 1.258 . S
C502 O496 1.247 . S
C502 O497 1.258 . S
C503 O500 1.247 . S
C503 O501 1.258 . S
C504 O506 1.247 . S
C504 O508 1.258 . S
C505 O512 1.247 . S
C505 O513 1.258 . S
O506 C504 1.247 . S
O506 Zn507 2.028 . S
Zn507 O506 2.028 . S
Zn507 O511 2.035 . S
Zn507 O513 2.035 . S
Zn507 O514 2.028 . S
O508 C504 1.258 . S
O508 Zn509 2.035 . S
Zn509 O508 2.035 . S
Zn509 O510 2.028 . S
Zn509 O512 2.028 . S
Zn509 O515 2.035 . S
O510 Zn509 2.028 . S
O510 C516 1.247 . S
O511 Zn507 2.035 . S
O511 C516 1.258 . S
O512 C505 1.247 . S
O512 Zn509 2.028 . S
O513 C505 1.258 . S
O513 Zn507 2.035 . S
O514 Zn507 2.028 . S
O514 C517 1.247 . S
O515 Zn509 2.035 . S
O515 C517 1.258 . S
C516 O510 1.247 . S
C516 O511 1.258 . S
C517 O514 1.247 . S
C517 O515 1.258 . S
C518 O520 1.247 . S
C518 O522 1.258 . S
C519 O526 1.247 . S
C519 O527 1.258 . S
O520 C518 1.247 . S
O520 Zn521 2.028 . S
Zn521 O520 2.028 . S
Zn521 O525 2.035 . S
Zn521 O527 2.035 . S
Zn521 O528 2.028 . S
O522 C518 1.258 . S
O522 Zn523 2.035 . S
Zn523 O522 2.035 . S
Zn523 O524 2.028 . S
Zn523 O526 2.028 . S
Zn523 O529 2.035 . S
O524 Zn523 2.028 . S
O524 C530 1.247 . S
O525 Zn521 2.035 . S
O525 C530 1.258 . S
O526 C519 1.247 . S
O526 Zn523 2.028 . S
O527 C519 1.258 . S
O527 Zn521 2.035 . S
O528 Zn521 2.028 . S
O528 C531 1.247 . S
O529 Zn523 2.035 . S
O529 C531 1.258 . S
C530 O524 1.247 . S
C530 O525 1.258 . S
C531 O528 1.247 . S
C531 O529 1.258 . S
C532 O534 1.247 . S
C532 O536 1.258 . S
C533 O540 1.247 . S
C533 O541 1.258 . S
O534 C532 1.247 . S
O534 Zn535 2.028 . S
Zn535 O534 2.028 . S
Zn535 O539 2.035 . S
Zn535 O541 2.035 . S
Zn535 O542 2.028 . S
O536 C532 1.258 . S
O536 Zn537 2.035 . S
Zn537 O536 2.035 . S
Zn537 O538 2.028 . S
Zn537 O540 2.028 . S
Zn537 O543 2.035 . S
O538 Zn537 2.028 . S
O538 C544 1.247 . S
O539 Zn535 2.035 . S
O539 C544 1.258 . S
O540 C533 1.247 . S
O540 Zn537 2.028 . S
O541 C533 1.258 . S
O541 Zn535 2.035 . S
O542 Zn535 2.028 . S
O542 C545 1.247 . S
O543 Zn537 2.035 . S
O543 C545 1.258 . S
C544 O538 1.247 . S
C544 O539 1.258 . S
C545 O542 1.247 . S
C545 O543 1.258 . S
C546 O548 1.247 . S
C546 O550 1.258 . S
C547 O554 1.247 . S
C547 O555 1.258 . S
O548 C546 1.247 . S
O548 Zn549 2.028 . S
Zn549 O548 2.028 . S
Zn549 O553 2.035 . S
Zn549 O555 2.035 . S
Zn549 O556 2.028 . S
O550 C546 1.258 . S
O550 Zn551 2.035 . S
Zn551 O550 2.035 . S
Zn551 O552 2.028 . S
Zn551 O554 2.028 . S
Zn551 O557 2.035 . S
O552 Zn551 2.028 . S
O552 C558 1.247 . S
O553 Zn549 2.035 . S
O553 C558 1.258 . S
O554 C547 1.247 . S
O554 Zn551 2.028 . S
O555 C547 1.258 . S
O555 Zn549 2.035 . S
O556 Zn549 2.028 . S
O556 C559 1.247 . S
O557 Zn551 2.035 . S
O557 C559 1.258 . S
C558 O552 1.247 . S
C558 O553 1.258 . S
C559 O556 1.247 . S
C559 O557 1.258 . S
C560 O562 1.247 . S
C560 O564 1.258 . S
C561 O568 1.247 . S
C561 O569 1.258 . S
O562 C560 1.247 . S
O562 Zn563 2.028 . S
Zn563 O562 2.028 . S
Zn563 O567 2.035 . S
Zn563 O569 2.035 . S
Zn563 O570 2.028 . S
O564 C560 1.258 . S
O564 Zn565 2.035 . S
Zn565 O564 2.035 . S
Zn565 O566 2.028 . S
Zn565 O568 2.028 . S
Zn565 O571 2.035 . S
O566 Zn565 2.028 . S
O566 C572 1.247 . S
O567 Zn563 2.035 . S
O567 C572 1.258 . S
O568 C561 1.247 . S
O568 Zn565 2.028 . S
O569 C561 1.258 . S
O569 Zn563 2.035 . S
O570 Zn563 2.028 . S
O570 C573 1.247 . S
O571 Zn565 2.035 . S
O571 C573 1.258 . S
C572 O566 1.247 . S
C572 O567 1.258 . S
C573 O570 1.247 . S
C573 O571 1.258 . S
C574 O576 1.247 . S
C574 O578 1.258 . S
C575 O582 1.247 . S
C575 O583 1.258 . S
O576 C574 1.247 . S
O576 Zn577 2.028 . S
Zn577 O576 2.028 . S
Zn577 O581 2.035 . S
Zn577 O583 2.035 . S
Zn577 O584 2.028 . S
O578 C574 1.258 . S
O578 Zn579 2.035 . S
Zn579 O578 2.035 . S
Zn579 O580 2.028 . S
Zn579 O582 2.028 . S
Zn579 O585 2.035 . S
O580 Zn579 2.028 . S
O580 C586 1.247 . S
O581 Zn577 2.035 . S
O581 C586 1.258 . S
O582 C575 1.247 . S
O582 Zn579 2.028 . S
O583 C575 1.258 . S
O583 Zn577 2.035 . S
O584 Zn577 2.028 . S
O584 C587 1.247 . S
O585 Zn579 2.035 . S
O585 C587 1.258 . S
C586 O580 1.247 . S
C586 O581 1.258 . S
C587 O584 1.247 . S
C587 O585 1.258 . S
C588 O590 1.247 . S
C588 O592 1.258 . S
C589 O596 1.247 . S
C589 O597 1.258 . S
O590 C588 1.247 . S
O590 Zn591 2.028 . S
Zn591 O590 2.028 . S
Zn591 O595 2.035 . S
Zn591 O597 2.035 1_565 S
Zn591 O598 2.028 1_565 S
O592 C588 1.258 . S
O592 Zn593 2.035 1_565 S
Zn593 O592 2.035 1_545 S
Zn593 O594 2.028 1_545 S
Zn593 O596 2.028 . S
Zn593 O599 2.035 . S
O594 Zn593 2.028 1_565 S
O594 C600 1.247 . S
O595 Zn591 2.035 . S
O595 C600 1.258 . S
O596 C589 1.247 . S
O596 Zn593 2.028 . S
O597 C589 1.258 . S
O597 Zn591 2.035 1_545 S
O598 Zn591 2.028 1_545 S
O598 C601 1.247 . S
O599 Zn593 2.035 . S
O599 C601 1.258 . S
C600 O594 1.247 . S
C600 O595 1.258 . S
C601 O598 1.247 . S
C601 O599 1.258 . S
C602 O604 1.247 . S
C602 O606 1.258 . S
C603 O610 1.247 . S
C603 O611 1.258 . S
O604 C602 1.247 . S
O604 Zn605 2.028 . S
Zn605 O604 2.028 . S
Zn605 O609 2.035 . S
Zn605 O611 2.035 . S
Zn605 O612 2.028 . S
O606 C602 1.258 . S
O606 Zn607 2.035 . S
Zn607 O606 2.035 . S
Zn607 O608 2.028 . S
Zn607 O610 2.028 . S
Zn607 O613 2.035 . S
O608 Zn607 2.028 . S
O608 C614 1.247 . S
O609 Zn605 2.035 . S
O609 C614 1.258 . S
O610 C603 1.247 . S
O610 Zn607 2.028 . S
O611 C603 1.258 . S
O611 Zn605 2.035 . S
O612 Zn605 2.028 . S
O612 C615 1.247 . S
O613 Zn607 2.035 . S
O613 C615 1.258 . S
C614 O608 1.247 . S
C614 O609 1.258 . S
C615 O612 1.247 . S
C615 O613 1.258 . S
C616 O618 1.247 . S
C616 O620 1.258 . S
C617 O624 1.247 . S
C617 O625 1.258 . S
O618 C616 1.247 . S
O618 Zn619 2.028 . S
Zn619 O618 2.028 . S
Zn619 O623 2.035 . S
Zn619 O625 2.035 1_545 S
Zn619 O626 2.028 1_545 S
O620 C616 1.258 . S
O620 Zn621 2.035 1_545 S
Zn621 O620 2.035 1_565 S
Zn621 O622 2.028 1_565 S
Zn621 O624 2.028 . S
Zn621 O627 2.035 . S
O622 Zn621 2.028 1_545 S
O622 C628 1.247 . S
O623 Zn619 2.035 . S
O623 C628 1.258 . S
O624 C617 1.247 . S
O624 Zn621 2.028 . S
O625 C617 1.258 . S
O625 Zn619 2.035 1_565 S
O626 Zn619 2.028 1_565 S
O626 C629 1.247 . S
O627 Zn621 2.035 . S
O627 C629 1.258 . S
C628 O622 1.247 . S
C628 O623 1.258 . S
C629 O626 1.247 . S
C629 O627 1.258 . S
C630 O632 1.247 . S
C630 O634 1.258 . S
C631 O638 1.247 . S
C631 O639 1.258 . S
O632 C630 1.247 . S
O632 Zn633 2.028 . S
Zn633 O632 2.028 . S
Zn633 O637 2.035 . S
Zn633 O639 2.035 . S
Zn633 O640 2.028 . S
O634 C630 1.258 . S
O634 Zn635 2.035 . S
Zn635 O634 2.035 . S
Zn635 O636 2.028 . S
Zn635 O638 2.028 . S
Zn635 O641 2.035 . S
O636 Zn635 2.028 . S
O636 C642 1.247 . S
O637 Zn633 2.035 . S
O637 C642 1.258 . S
O638 C631 1.247 . S
O638 Zn635 2.028 . S
O639 C631 1.258 . S
O639 Zn633 2.035 . S
O640 Zn633 2.028 . S
O640 C643 1.247 . S
O641 Zn635 2.035 . S
O641 C643 1.258 . S
C642 O636 1.247 . S
C642 O637 1.258 . S
C643 O640 1.247 . S
C643 O641 1.258 . S
C644 O646 1.247 . S
C644 O648 1.258 . S
C645 O652 1.247 . S
C645 O653 1.258 . S
O646 C644 1.247 . S
O646 Zn647 2.028 . S
Zn647 O646 2.028 . S
Zn647 O651 2.035 . S
Zn647 O653 2.035 1_565 S
Zn647 O654 2.028 1_565 S
O648 C644 1.258 . S
O648 Zn649 2.035 1_565 S
Zn649 O648 2.035 1_545 S
Zn649 O650 2.028 1_545 S
Zn649 O652 2.028 . S
Zn649 O655 2.035 . S
O650 Zn649 2.028 1_565 S
O650 C656 1.247 . S
O651 Zn647 2.035 . S
O651 C656 1.258 . S
O652 C645 1.247 . S
O652 Zn649 2.028 . S
O653 C645 1.258 . S
O653 Zn647 2.035 1_545 S
O654 Zn647 2.028 1_545 S
O654 C657 1.247 . S
O655 Zn649 2.035 . S
O655 C657 1.258 . S
C656 O650 1.247 . S
C656 O651 1.258 . S
C657 O654 1.247 . S
C657 O655 1.258 . S
C658 O660 1.247 . S
C658 O662 1.258 . S
C659 O666 1.247 . S
C659 O667 1.258 . S
O660 C658 1.247 . S
O660 Zn661 2.028 . S
Zn661 O660 2.028 . S
Zn661 O665 2.035 . S
Zn661 O667 2.035 . S
Zn661 O668 2.028 . S
O662 C658 1.258 . S
O662 Zn663 2.035 . S
Zn663 O662 2.035 . S
Zn663 O664 2.028 . S
Zn663 O666 2.028 . S
Zn663 O669 2.035 . S
O664 Zn663 2.028 . S
O664 C670 1.247 . S
O665 Zn661 2.035 . S
O665 C670 1.258 . S
O666 C659 1.247 . S
O666 Zn663 2.028 . S
O667 C659 1.258 . S
O667 Zn661 2.035 . S
O668 Zn661 2.028 . S
O668 C671 1.247 . S
O669 Zn663 2.035 . S
O669 C671 1.258 . S
C670 O664 1.247 . S
C670 O665 1.258 . S
C671 O668 1.247 . S
C671 O669 1.258 . S
C672 C673 1.349 . S
C672 C674 1.327 . S
C672 H697 0.950 . S
C673 C672 1.349 . S
C673 C689 1.349 . S
C674 C672 1.327 . S
C674 C693 1.429 . S
C674 H698 0.950 . S
C675 C692 1.574 . S
C675 C694 1.368 . S
C675 H699 0.949 . S
H676 C680 0.949 . S
C677 C678 1.349 . S
C677 C679 1.327 . S
C677 H700 0.950 . S
C678 C677 1.349 . S
C678 C690 1.349 . S
C679 C677 1.327 . S
C679 C695 1.429 . S
C679 H701 0.950 . S
C680 H676 0.949 . S
C680 C688 1.574 . S
C680 C696 1.368 . S
H681 C689 0.950 . S
H682 C687 0.950 . S
H683 C688 0.949 . S
H684 C690 0.950 . S
H685 C691 0.950 . S
H686 C692 0.949 . S
C687 H682 0.950 . S
C687 C689 1.327 . S
C687 C693 1.429 . S
C688 C680 1.574 . S
C688 H683 0.949 . S
C688 C694 1.368 . S
C689 C673 1.349 . S
C689 H681 0.950 . S
C689 C687 1.327 . S
C690 C678 1.349 . S
C690 H684 0.950 . S
C690 C691 1.327 . S
C691 H685 0.950 . S
C691 C690 1.327 . S
C691 C695 1.429 . S
C692 C675 1.574 . S
C692 H686 0.949 . S
C692 C696 1.368 . S
C693 C674 1.429 . S
C693 C687 1.429 . S
C693 C694 1.523 . S
C694 C675 1.368 . S
C694 C688 1.368 . S
C694 C693 1.523 . S
C695 C679 1.429 . S
C695 C691 1.429 . S
C695 C696 1.523 . S
C696 C680 1.368 . S
C696 C692 1.368 . S
C696 C695 1.523 . S
H697 C672 0.950 . S
H698 C674 0.950 . S
H699 C675 0.949 . S
H700 C677 0.950 . S
H701 C679 0.950 . S
C702 C703 1.349 . S
C702 C704 1.327 . S
C702 H727 0.950 . S
C703 C702 1.349 . S
C703 C719 1.349 . S
C704 C702 1.327 . S
C704 C723 1.429 . S
C704 H728 0.950 . S
C705 C722 1.574 1_554 S
C705 C724 1.368 . S
C705 H729 0.949 . S
H706 C710 0.949 . S
C707 C708 1.349 . S
C707 C709 1.327 . S
C707 H730 0.950 . S
C708 C707 1.349 . S
C708 C720 1.349 . S
C709 C707 1.327 . S
C709 C725 1.429 . S
C709 H731 0.950 . S
C710 H706 0.949 . S
C710 C718 1.574 1_556 S
C710 C726 1.368 . S
H711 C719 0.950 . S
H712 C717 0.950 . S
H713 C718 0.949 . S
H714 C720 0.950 . S
H715 C721 0.950 . S
H716 C722 0.949 . S
C717 H712 0.950 . S
C717 C719 1.327 . S
C717 C723 1.429 . S
C718 C710 1.574 1_554 S
C718 H713 0.949 . S
C718 C724 1.368 . S
C719 C703 1.349 . S
C719 H711 0.950 . S
C719 C717 1.327 . S
C720 C708 1.349 . S
C720 H714 0.950 . S
C720 C721 1.327 . S
C721 H715 0.950 . S
C721 C720 1.327 . S
C721 C725 1.429 . S
C722 C705 1.574 1_556 S
C722 H716 0.949 . S
C722 C726 1.368 . S
C723 C704 1.429 . S
C723 C717 1.429 . S
C723 C724 1.523 . S
C724 C705 1.368 . S
C724 C718 1.368 . S
C724 C723 1.523 . S
C725 C709 1.429 . S
C725 C721 1.429 . S
C725 C726 1.523 . S
C726 C710 1.368 . S
C726 C722 1.368 . S
C726 C725 1.523 . S
H727 C702 0.950 . S
H728 C704 0.950 . S
H729 C705 0.949 . S
H730 C707 0.950 . S
H731 C709 0.950 . S
C732 C733 1.349 . S
C732 C734 1.327 . S
C732 H757 0.950 . S
C733 C732 1.349 . S
C733 C749 1.349 . S
C734 C732 1.327 . S
C734 C753 1.429 . S
C734 H758 0.950 . S
C735 C752 1.574 . S
C735 C754 1.368 . S
C735 H759 0.949 . S
H736 C740 0.949 . S
C737 C738 1.349 . S
C737 C739 1.327 . S
C737 H760 0.950 . S
C738 C737 1.349 . S
C738 C750 1.349 . S
C739 C737 1.327 . S
C739 C755 1.429 . S
C739 H761 0.950 . S
C740 H736 0.949 . S
C740 C748 1.574 . S
C740 C756 1.368 . S
H741 C749 0.950 . S
H742 C747 0.950 . S
H743 C748 0.949 . S
H744 C750 0.950 . S
H745 C751 0.950 . S
H746 C752 0.949 . S
C747 H742 0.950 . S
C747 C749 1.327 . S
C747 C753 1.429 . S
C748 C740 1.574 . S
C748 H743 0.949 . S
C748 C754 1.368 . S
C749 C733 1.349 . S
C749 H741 0.950 . S
C749 C747 1.327 . S
C750 C738 1.349 . S
C750 H744 0.950 . S
C750 C751 1.327 . S
C751 H745 0.950 . S
C751 C750 1.327 . S
C751 C755 1.429 . S
C752 C735 1.574 . S
C752 H746 0.949 . S
C752 C756 1.368 . S
C753 C734 1.429 . S
C753 C747 1.429 . S
C753 C754 1.523 . S
C754 C735 1.368 . S
C754 C748 1.368 . S
C754 C753 1.523 . S
C755 C739 1.429 . S
C755 C751 1.429 . S
C755 C756 1.523 . S
C756 C740 1.368 . S
C756 C752 1.368 . S
C756 C755 1.523 . S
H757 C732 0.950 . S
H758 C734 0.950 . S
H759 C735 0.949 . S
H760 C737 0.950 . S
H761 C739 0.950 . S
C762 C763 1.349 . S
C762 C764 1.327 . S
C762 H787 0.950 . S
C763 C762 1.349 . S
C763 C779 1.349 . S
C764 C762 1.327 . S
C764 C783 1.429 . S
C764 H788 0.950 . S
C765 C782 1.574 1_556 S
C765 C784 1.368 . S
C765 H789 0.949 . S
H766 C770 0.949 . S
C767 C768 1.349 . S
C767 C769 1.327 . S
C767 H790 0.950 . S
C768 C767 1.349 . S
C768 C780 1.349 . S
C769 C767 1.327 . S
C769 C785 1.429 . S
C769 H791 0.950 . S
C770 H766 0.949 . S
C770 C778 1.574 1_554 S
C770 C786 1.368 . S
H771 C779 0.950 . S
H772 C777 0.950 . S
H773 C778 0.949 . S
H774 C780 0.950 . S
H775 C781 0.950 . S
H776 C782 0.949 . S
C777 H772 0.950 . S
C777 C779 1.327 . S
C777 C783 1.429 . S
C778 C770 1.574 1_556 S
C778 H773 0.949 . S
C778 C784 1.368 . S
C779 C763 1.349 . S
C779 H771 0.950 . S
C779 C777 1.327 . S
C780 C768 1.349 . S
C780 H774 0.950 . S
C780 C781 1.327 . S
C781 H775 0.950 . S
C781 C780 1.327 . S
C781 C785 1.429 . S
C782 C765 1.574 1_554 S
C782 H776 0.949 . S
C782 C786 1.368 . S
C783 C764 1.429 . S
C783 C777 1.429 . S
C783 C784 1.523 . S
C784 C765 1.368 . S
C784 C778 1.368 . S
C784 C783 1.523 . S
C785 C769 1.429 . S
C785 C781 1.429 . S
C785 C786 1.523 . S
C786 C770 1.368 . S
C786 C782 1.368 . S
C786 C785 1.523 . S
H787 C762 0.950 . S
H788 C764 0.950 . S
H789 C765 0.949 . S
H790 C767 0.950 . S
H791 C769 0.950 . S
C792 C793 1.349 . S
C792 C794 1.327 . S
C792 H817 0.950 . S
C793 C792 1.349 . S
C793 C809 1.349 . S
C794 C792 1.327 . S
C794 C813 1.429 . S
C794 H818 0.950 . S
C795 C812 1.574 . S
C795 C814 1.368 . S
C795 H819 0.949 . S
H796 C800 0.949 . S
C797 C798 1.349 . S
C797 C799 1.327 . S
C797 H820 0.950 . S
C798 C797 1.349 . S
C798 C810 1.349 . S
C799 C797 1.327 . S
C799 C815 1.429 . S
C799 H821 0.950 . S
C800 H796 0.949 . S
C800 C808 1.574 . S
C800 C816 1.368 . S
H801 C809 0.950 . S
H802 C807 0.950 . S
H803 C808 0.949 . S
H804 C810 0.950 . S
H805 C811 0.950 . S
H806 C812 0.949 . S
C807 H802 0.950 . S
C807 C809 1.327 . S
C807 C813 1.429 . S
C808 C800 1.574 . S
C808 H803 0.949 . S
C808 C814 1.368 . S
C809 C793 1.349 . S
C809 H801 0.950 . S
C809 C807 1.327 . S
C810 C798 1.349 . S
C810 H804 0.950 . S
C810 C811 1.327 . S
C811 H805 0.950 . S
C811 C810 1.327 . S
C811 C815 1.429 . S
C812 C795 1.574 . S
C812 H806 0.949 . S
C812 C816 1.368 . S
C813 C794 1.429 . S
C813 C807 1.429 . S
C813 C814 1.523 . S
C814 C795 1.368 . S
C814 C808 1.368 . S
C814 C813 1.523 . S
C815 C799 1.429 . S
C815 C811 1.429 . S
C815 C816 1.523 . S
C816 C800 1.368 . S
C816 C812 1.368 . S
C816 C815 1.523 . S
H817 C792 0.950 . S
H818 C794 0.950 . S
H819 C795 0.949 . S
H820 C797 0.950 . S
H821 C799 0.950 . S
C822 C823 1.349 . S
C822 C824 1.327 . S
C822 H847 0.950 . S
C823 C822 1.349 . S
C823 C839 1.349 . S
C824 C822 1.327 . S
C824 C843 1.429 . S
C824 H848 0.950 . S
C825 C842 1.574 1_554 S
C825 C844 1.368 . S
C825 H849 0.949 . S
H826 C830 0.953 . S
C827 C828 1.349 . S
C827 C829 1.327 . S
C827 H850 0.950 . S
C828 C827 1.349 . S
C828 C840 1.349 . S
C829 C827 1.327 . S
C829 C845 1.429 . S
C829 H851 0.950 . S
C830 H826 0.953 . S
C830 C838 1.574 . S
C830 C846 1.368 1_554 S
H831 C839 0.950 . S
H832 C837 0.950 . S
H833 C838 0.949 . S
H834 C840 0.950 . S
H835 C841 0.950 . S
H836 C842 0.949 . S
C837 H832 0.950 . S
C837 C839 1.327 . S
C837 C843 1.429 . S
C838 C830 1.574 . S
C838 H833 0.949 . S
C838 C844 1.368 . S
C839 C823 1.349 . S
C839 H831 0.950 . S
C839 C837 1.327 . S
C840 C828 1.349 . S
C840 H834 0.950 . S
C840 C841 1.327 . S
C841 H835 0.950 . S
C841 C840 1.327 . S
C841 C845 1.429 . S
C842 C825 1.574 1_556 S
C842 H836 0.949 . S
C842 C846 1.368 . S
C843 C824 1.429 . S
C843 C837 1.429 . S
C843 C844 1.523 . S
C844 C825 1.368 . S
C844 C838 1.368 . S
C844 C843 1.523 . S
C845 C829 1.429 . S
C845 C841 1.429 . S
C845 C846 1.523 . S
C846 C830 1.368 1_556 S
C846 C842 1.368 . S
C846 C845 1.523 . S
H847 C822 0.950 . S
H848 C824 0.950 . S
H849 C825 0.949 . S
H850 C827 0.950 . S
H851 C829 0.950 . S
C852 C853 1.349 . S
C852 C854 1.327 . S
C852 H877 0.950 . S
C853 C852 1.349 . S
C853 C869 1.349 . S
C854 C852 1.327 . S
C854 C873 1.429 . S
C854 H878 0.950 . S
C855 C872 1.574 . S
C855 C874 1.368 . S
C855 H879 0.949 . S
H856 C860 0.949 . S
C857 C858 1.349 . S
C857 C859 1.327 . S
C857 H880 0.950 . S
C858 C857 1.349 . S
C858 C870 1.349 . S
C859 C857 1.327 . S
C859 C875 1.429 . S
C859 H881 0.950 . S
C860 H856 0.949 . S
C860 C868 1.574 . S
C860 C876 1.368 . S
H861 C869 0.950 . S
H862 C867 0.950 . S
H863 C868 0.949 . S
H864 C870 0.950 . S
H865 C871 0.950 . S
H866 C872 0.949 . S
C867 H862 0.950 . S
C867 C869 1.327 . S
C867 C873 1.429 . S
C868 C860 1.574 . S
C868 H863 0.949 . S
C868 C874 1.368 . S
C869 C853 1.349 . S
C869 H861 0.950 . S
C869 C867 1.327 . S
C870 C858 1.349 . S
C870 H864 0.950 . S
C870 C871 1.327 . S
C871 H865 0.950 . S
C871 C870 1.327 . S
C871 C875 1.429 . S
C872 C855 1.574 . S
C872 H866 0.949 . S
C872 C876 1.368 . S
C873 C854 1.429 . S
C873 C867 1.429 . S
C873 C874 1.523 . S
C874 C855 1.368 . S
C874 C868 1.368 . S
C874 C873 1.523 . S
C875 C859 1.429 . S
C875 C871 1.429 . S
C875 C876 1.523 . S
C876 C860 1.368 . S
C876 C872 1.368 . S
C876 C875 1.523 . S
H877 C852 0.950 . S
H878 C854 0.950 . S
H879 C855 0.949 . S
H880 C857 0.950 . S
H881 C859 0.950 . S
C882 C883 1.349 . S
C882 C884 1.327 . S
C882 H907 0.950 . S
C883 C882 1.349 . S
C883 C899 1.349 . S
C884 C882 1.327 . S
C884 C903 1.429 . S
C884 H908 0.950 . S
C885 C902 1.574 1_556 S
C885 C904 1.368 . S
C885 H909 0.949 . S
H886 C890 0.949 . S
C887 C888 1.349 . S
C887 C889 1.327 . S
C887 H910 0.950 . S
C888 C887 1.349 . S
C888 C900 1.349 . S
C889 C887 1.327 . S
C889 C905 1.429 . S
C889 H911 0.950 . S
C890 H886 0.949 . S
C890 C898 1.574 1_554 S
C890 C906 1.368 . S
H891 C899 0.950 . S
H892 C897 0.950 . S
H893 C898 0.949 . S
H894 C900 0.950 . S
H895 C901 0.950 . S
H896 C902 0.949 . S
C897 H892 0.950 . S
C897 C899 1.327 . S
C897 C903 1.429 . S
C898 C890 1.574 1_556 S
C898 H893 0.949 . S
C898 C904 1.368 . S
C899 C883 1.349 . S
C899 H891 0.950 . S
C899 C897 1.327 . S
C900 C888 1.349 . S
C900 H894 0.950 . S
C900 C901 1.327 . S
C901 H895 0.950 . S
C901 C900 1.327 . S
C901 C905 1.429 . S
C902 C885 1.574 1_554 S
C902 H896 0.949 . S
C902 C906 1.368 . S
C903 C884 1.429 . S
C903 C897 1.429 . S
C903 C904 1.523 . S
C904 C885 1.368 . S
C904 C898 1.368 . S
C904 C903 1.523 . S
C905 C889 1.429 . S
C905 C901 1.429 . S
C905 C906 1.523 . S
C906 C890 1.368 . S
C906 C902 1.368 . S
C906 C905 1.523 . S
H907 C882 0.950 . S
H908 C884 0.950 . S
H909 C885 0.949 . S
H910 C887 0.950 . S
H911 C889 0.950 . S
C912 C913 1.349 . S
C912 C914 1.327 . S
C912 H937 0.950 . S
C913 C912 1.349 . S
C913 C929 1.349 . S
C914 C912 1.327 . S
C914 C933 1.429 . S
C914 H938 0.950 . S
C915 C932 1.574 . S
C915 C934 1.368 . S
C915 H939 0.949 . S
H916 C920 0.949 . S
C917 C918 1.349 . S
C917 C919 1.327 . S
C917 H940 0.950 . S
C918 C917 1.349 . S
C918 C930 1.349 . S
C919 C917 1.327 . S
C919 C935 1.429 . S
C919 H941 0.950 . S
C920 H916 0.949 . S
C920 C928 1.574 . S
C920 C936 1.368 . S
H921 C929 0.950 . S
H922 C927 0.950 . S
H923 C928 0.949 . S
H924 C930 0.950 . S
H925 C931 0.950 . S
H926 C932 0.949 . S
C927 H922 0.950 . S
C927 C929 1.327 . S
C927 C933 1.429 . S
C928 C920 1.574 . S
C928 H923 0.949 . S
C928 C934 1.368 . S
C929 C913 1.349 . S
C929 H921 0.950 . S
C929 C927 1.327 . S
C930 C918 1.349 . S
C930 H924 0.950 . S
C930 C931 1.327 . S
C931 H925 0.950 . S
C931 C930 1.327 . S
C931 C935 1.429 . S
C932 C915 1.574 . S
C932 H926 0.949 . S
C932 C936 1.368 . S
C933 C914 1.429 . S
C933 C927 1.429 . S
C933 C934 1.523 . S
C934 C915 1.368 . S
C934 C928 1.368 . S
C934 C933 1.523 . S
C935 C919 1.429 . S
C935 C931 1.429 . S
C935 C936 1.523 . S
C936 C920 1.368 . S
C936 C932 1.368 . S
C936 C935 1.523 . S
H937 C912 0.950 . S
H938 C914 0.950 . S
H939 C915 0.949 . S
H940 C917 0.950 . S
H941 C919 0.950 . S
C942 C943 1.349 . S
C942 C944 1.327 . S
C942 H967 0.950 . S
C943 C942 1.349 . S
C943 C959 1.349 . S
C944 C942 1.327 . S
C944 C963 1.429 . S
C944 H968 0.950 . S
C945 C962 1.574 . S
C945 C964 1.368 . S
C945 H969 0.949 . S
H946 C950 0.949 . S
C947 C948 1.349 . S
C947 C949 1.327 . S
C947 H970 0.950 . S
C948 C947 1.349 . S
C948 C960 1.349 . S
C949 C947 1.327 . S
C949 C965 1.429 . S
C949 H971 0.950 . S
C950 H946 0.949 . S
C950 C958 1.574 . S
C950 C966 1.368 . S
H951 C959 0.950 . S
H952 C957 0.950 . S
H953 C958 0.949 . S
H954 C960 0.950 . S
H955 C961 0.950 . S
H956 C962 0.949 . S
C957 H952 0.950 . S
C957 C959 1.327 . S
C957 C963 1.429 . S
C958 C950 1.574 . S
C958 H953 0.949 . S
C958 C964 1.368 . S
C959 C943 1.349 . S
C959 H951 0.950 . S
C959 C957 1.327 . S
C960 C948 1.349 . S
C960 H954 0.950 . S
C960 C961 1.327 . S
C961 H955 0.950 . S
C961 C960 1.327 . S
C961 C965 1.429 . S
C962 C945 1.574 . S
C962 H956 0.949 . S
C962 C966 1.368 . S
C963 C944 1.429 . S
C963 C957 1.429 . S
C963 C964 1.523 . S
C964 C945 1.368 . S
C964 C958 1.368 . S
C964 C963 1.523 . S
C965 C949 1.429 . S
C965 C961 1.429 . S
C965 C966 1.523 . S
C966 C950 1.368 . S
C966 C962 1.368 . S
C966 C965 1.523 . S
H967 C942 0.950 . S
H968 C944 0.950 . S
H969 C945 0.949 . S
H970 C947 0.950 . S
H971 C949 0.950 . S
C972 C973 1.349 . S
C972 C974 1.327 . S
C972 H997 0.950 . S
C973 C972 1.349 . S
C973 C989 1.349 . S
C974 C972 1.327 . S
C974 C993 1.429 . S
C974 H998 0.950 . S
C975 C992 1.574 . S
C975 C994 1.368 . S
C975 H999 0.949 . S
H976 C980 0.949 . S
C977 C978 1.349 . S
C977 C979 1.327 . S
C977 H1000 0.950 . S
C978 C977 1.349 . S
C978 C990 1.349 . S
C979 C977 1.327 . S
C979 C995 1.429 . S
C979 H1001 0.950 . S
C980 H976 0.949 . S
C980 C988 1.574 . S
C980 C996 1.368 . S
H981 C989 0.950 . S
H982 C987 0.950 . S
H983 C988 0.949 . S
H984 C990 0.950 . S
H985 C991 0.950 . S
H986 C992 0.949 . S
C987 H982 0.950 . S
C987 C989 1.327 . S
C987 C993 1.429 . S
C988 C980 1.574 . S
C988 H983 0.949 . S
C988 C994 1.368 . S
C989 C973 1.349 . S
C989 H981 0.950 . S
C989 C987 1.327 . S
C990 C978 1.349 . S
C990 H984 0.950 . S
C990 C991 1.327 . S
C991 H985 0.950 . S
C991 C990 1.327 . S
C991 C995 1.429 . S
C992 C975 1.574 . S
C992 H986 0.949 . S
C992 C996 1.368 . S
C993 C974 1.429 . S
C993 C987 1.429 . S
C993 C994 1.523 . S
C994 C975 1.368 . S
C994 C988 1.368 . S
C994 C993 1.523 . S
C995 C979 1.429 . S
C995 C991 1.429 . S
C995 C996 1.523 . S
C996 C980 1.368 . S
C996 C992 1.368 . S
C996 C995 1.523 . S
H997 C972 0.950 . S
H998 C974 0.950 . S
H999 C975 0.949 . S
H1000 C977 0.950 . S
H1001 C979 0.950 . S
C1002 C1003 1.349 . S
C1002 C1004 1.327 . S
C1002 H1027 0.950 . S
C1003 C1002 1.349 . S
C1003 C1019 1.349 . S
C1004 C1002 1.327 . S
C1004 C1023 1.429 . S
C1004 H1028 0.950 . S
C1005 C1022 1.574 . S
C1005 C1024 1.368 1_545 S
C1005 H1029 0.953 . S
H1006 C1010 0.949 . S
C1007 C1008 1.349 . S
C1007 C1009 1.327 . S
C1007 H1030 0.950 . S
C1008 C1007 1.349 . S
C1008 C1020 1.349 . S
C1009 C1007 1.327 . S
C1009 C1025 1.429 . S
C1009 H1031 0.950 . S
C1010 H1006 0.949 . S
C1010 C1018 1.574 1_545 S
C1010 C1026 1.368 . S
H1011 C1019 0.950 . S
H1012 C1017 0.950 . S
H1013 C1018 0.949 . S
H1014 C1020 0.950 . S
H1015 C1021 0.950 . S
H1016 C1022 0.949 . S
C1017 H1012 0.950 . S
C1017 C1019 1.327 . S
C1017 C1023 1.429 . S
C1018 C1010 1.574 1_565 S
C1018 H1013 0.949 . S
C1018 C1024 1.368 . S
C1019 C1003 1.349 . S
C1019 H1011 0.950 . S
C1019 C1017 1.327 . S
C1020 C1008 1.349 . S
C1020 H1014 0.950 . S
C1020 C1021 1.327 . S
C1021 H1015 0.950 . S
C1021 C1020 1.327 . S
C1021 C1025 1.429 . S
C1022 C1005 1.574 . S
C1022 H1016 0.949 . S
C1022 C1026 1.368 . S
C1023 C1004 1.429 . S
C1023 C1017 1.429 . S
C1023 C1024 1.523 . S
C1024 C1005 1.368 1_565 S
C1024 C1018 1.368 . S
C1024 C1023 1.523 . S
C1025 C1009 1.429 . S
C1025 C1021 1.429 . S
C1025 C1026 1.523 . S
C1026 C1010 1.368 . S
C1026 C1022 1.368 . S
C1026 C1025 1.523 . S
H1027 C1002 0.950 . S
H1028 C1004 0.950 . S
H1029 C1005 0.953 . S
H1030 C1007 0.950 . S
H1031 C1009 0.950 . S
C1032 C1033 1.349 . S
C1032 C1034 1.327 . S
C1032 H1057 0.950 . S
C1033 C1032 1.349 . S
C1033 C1049 1.349 . S
C1034 C1032 1.327 . S
C1034 C1053 1.429 . S
C1034 H1058 0.950 . S
C1035 C1052 1.574 . S
C1035 C1054 1.368 . S
C1035 H1059 0.949 . S
H1036 C1040 0.949 . S
C1037 C1038 1.349 . S
C1037 C1039 1.327 . S
C1037 H1060 0.950 . S
C1038 C1037 1.349 . S
C1038 C1050 1.349 . S
C1039 C1037 1.327 . S
C1039 C1055 1.429 . S
C1039 H1061 0.950 . S
C1040 H1036 0.949 . S
C1040 C1048 1.574 . S
C1040 C1056 1.368 . S
H1041 C1049 0.950 . S
H1042 C1047 0.950 . S
H1043 C1048 0.949 . S
H1044 C1050 0.950 . S
H1045 C1051 0.950 . S
H1046 C1052 0.949 . S
C1047 H1042 0.950 . S
C1047 C1049 1.327 . S
C1047 C1053 1.429 . S
C1048 C1040 1.574 . S
C1048 H1043 0.949 . S
C1048 C1054 1.368 . S
C1049 C1033 1.349 . S
C1049 H1041 0.950 . S
C1049 C1047 1.327 . S
C1050 C1038 1.349 . S
C1050 H1044 0.950 . S
C1050 C1051 1.327 . S
C1051 H1045 0.950 . S
C1051 C1050 1.327 . S
C1051 C1055 1.429 . S
C1052 C1035 1.574 . S
C1052 H1046 0.949 . S
C1052 C1056 1.368 . S
C1053 C1034 1.429 . S
C1053 C1047 1.429 . S
C1053 C1054 1.523 . S
C1054 C1035 1.368 . S
C1054 C1048 1.368 . S
C1054 C1053 1.523 . S
C1055 C1039 1.429 . S
C1055 C1051 1.429 . S
C1055 C1056 1.523 . S
C1056 C1040 1.368 . S
C1056 C1052 1.368 . S
C1056 C1055 1.523 . S
H1057 C1032 0.950 . S
H1058 C1034 0.950 . S
H1059 C1035 0.949 . S
H1060 C1037 0.950 . S
H1061 C1039 0.950 . S
C1062 C1063 1.349 . S
C1062 C1064 1.327 . S
C1062 H1087 0.950 . S
C1063 C1062 1.349 . S
C1063 C1079 1.349 . S
C1064 C1062 1.327 . S
C1064 C1083 1.429 . S
C1064 H1088 0.950 . S
C1065 C1082 1.574 . S
C1065 C1084 1.368 . S
C1065 H1089 0.949 . S
H1066 C1070 0.949 . S
C1067 C1068 1.349 . S
C1067 C1069 1.327 . S
C1067 H1090 0.950 . S
C1068 C1067 1.349 . S
C1068 C1080 1.349 . S
C1069 C1067 1.327 . S
C1069 C1085 1.429 . S
C1069 H1091 0.950 . S
C1070 H1066 0.949 . S
C1070 C1078 1.574 . S
C1070 C1086 1.368 . S
H1071 C1079 0.950 . S
H1072 C1077 0.950 . S
H1073 C1078 0.949 . S
H1074 C1080 0.950 . S
H1075 C1081 0.950 . S
H1076 C1082 0.949 . S
C1077 H1072 0.950 . S
C1077 C1079 1.327 . S
C1077 C1083 1.429 . S
C1078 C1070 1.574 . S
C1078 H1073 0.949 . S
C1078 C1084 1.368 . S
C1079 C1063 1.349 . S
C1079 H1071 0.950 . S
C1079 C1077 1.327 . S
C1080 C1068 1.349 . S
C1080 H1074 0.950 . S
C1080 C1081 1.327 . S
C1081 H1075 0.950 . S
C1081 C1080 1.327 . S
C1081 C1085 1.429 . S
C1082 C1065 1.574 . S
C1082 H1076 0.949 . S
C1082 C1086 1.368 . S
C1083 C1064 1.429 . S
C1083 C1077 1.429 . S
C1083 C1084 1.523 . S
C1084 C1065 1.368 . S
C1084 C1078 1.368 . S
C1084 C1083 1.523 . S
C1085 C1069 1.429 . S
C1085 C1081 1.429 . S
C1085 C1086 1.523 . S
C1086 C1070 1.368 . S
C1086 C1082 1.368 . S
C1086 C1085 1.523 . S
H1087 C1062 0.950 . S
H1088 C1064 0.950 . S
H1089 C1065 0.949 . S
H1090 C1067 0.950 . S
H1091 C1069 0.950 . S
C1092 C1093 1.349 . S
C1092 C1094 1.327 . S
C1092 H1117 0.950 . S
C1093 C1092 1.349 . S
C1093 C1109 1.349 . S
C1094 C1092 1.327 . S
C1094 C1113 1.429 . S
C1094 H1118 0.950 . S
C1095 C1112 1.574 . S
C1095 C1114 1.368 . S
C1095 H1119 0.949 . S
H1096 C1100 0.949 . S
C1097 C1098 1.349 . S
C1097 C1099 1.327 . S
C1097 H1120 0.950 . S
C1098 C1097 1.349 . S
C1098 C1110 1.349 . S
C1099 C1097 1.327 . S
C1099 C1115 1.429 . S
C1099 H1121 0.950 . S
C1100 H1096 0.949 . S
C1100 C1108 1.574 . S
C1100 C1116 1.368 . S
H1101 C1109 0.950 . S
H1102 C1107 0.950 . S
H1103 C1108 0.949 . S
H1104 C1110 0.950 . S
H1105 C1111 0.950 . S
H1106 C1112 0.949 . S
C1107 H1102 0.950 . S
C1107 C1109 1.327 . S
C1107 C1113 1.429 . S
C1108 C1100 1.574 . S
C1108 H1103 0.949 . S
C1108 C1114 1.368 . S
C1109 C1093 1.349 . S
C1109 H1101 0.950 . S
C1109 C1107 1.327 . S
C1110 C1098 1.349 . S
C1110 H1104 0.950 . S
C1110 C1111 1.327 . S
C1111 H1105 0.950 . S
C1111 C1110 1.327 . S
C1111 C1115 1.429 . S
C1112 C1095 1.574 . S
C1112 H1106 0.949 . S
C1112 C1116 1.368 . S
C1113 C1094 1.429 . S
C1113 C1107 1.429 . S
C1113 C1114 1.523 . S
C1114 C1095 1.368 . S
C1114 C1108 1.368 . S
C1114 C1113 1.523 . S
C1115 C1099 1.429 . S
C1115 C1111 1.429 . S
C1115 C1116 1.523 . S
C1116 C1100 1.368 . S
C1116 C1112 1.368 . S
C1116 C1115 1.523 . S
H1117 C1092 0.950 . S
H1118 C1094 0.950 . S
H1119 C1095 0.949 . S
H1120 C1097 0.950 . S
H1121 C1099 0.950 . S
C1122 C1123 1.349 . S
C1122 C1124 1.327 . S
C1122 H1147 0.950 . S
C1123 C1122 1.349 . S
C1123 C1139 1.349 . S
C1124 C1122 1.327 . S
C1124 C1143 1.429 . S
C1124 H1148 0.950 . S
C1125 C1142 1.574 1_545 S
C1125 C1144 1.368 . S
C1125 H1149 0.949 . S
H1126 C1130 0.949 . S
C1127 C1128 1.349 . S
C1127 C1129 1.327 . S
C1127 H1150 0.950 . S
C1128 C1127 1.349 . S
C1128 C1140 1.349 . S
C1129 C1127 1.327 . S
C1129 C1145 1.429 . S
C1129 H1151 0.950 . S
C1130 H1126 0.949 . S
C1130 C1138 1.574 1_565 S
C1130 C1146 1.368 . S
H1131 C1139 0.950 . S
H1132 C1137 0.950 . S
H1133 C1138 0.949 . S
H1134 C1140 0.950 . S
H1135 C1141 0.950 . S
H1136 C1142 0.949 . S
C1137 H1132 0.950 . S
C1137 C1139 1.327 . S
C1137 C1143 1.429 . S
C1138 C1130 1.574 1_545 S
C1138 H1133 0.949 . S
C1138 C1144 1.368 . S
C1139 C1123 1.349 . S
C1139 H1131 0.950 . S
C1139 C1137 1.327 . S
C1140 C1128 1.349 . S
C1140 H1134 0.950 . S
C1140 C1141 1.327 . S
C1141 H1135 0.950 . S
C1141 C1140 1.327 . S
C1141 C1145 1.429 . S
C1142 C1125 1.574 1_565 S
C1142 H1136 0.949 . S
C1142 C1146 1.368 . S
C1143 C1124 1.429 . S
C1143 C1137 1.429 . S
C1143 C1144 1.523 . S
C1144 C1125 1.368 . S
C1144 C1138 1.368 . S
C1144 C1143 1.523 . S
C1145 C1129 1.429 . S
C1145 C1141 1.429 . S
C1145 C1146 1.523 . S
C1146 C1130 1.368 . S
C1146 C1142 1.368 . S
C1146 C1145 1.523 . S
H1147 C1122 0.950 . S
H1148 C1124 0.950 . S
H1149 C1125 0.949 . S
H1150 C1127 0.950 . S
H1151 C1129 0.950 . S
C1152 C1153 1.349 . S
C1152 C1154 1.327 . S
C1152 H1177 0.950 . S
C1153 C1152 1.349 . S
C1153 C1169 1.349 . S
C1154 C1152 1.327 . S
C1154 C1173 1.429 . S
C1154 H1178 0.950 . S
C1155 C1172 1.574 . S
C1155 C1174 1.368 . S
C1155 H1179 0.949 . S
H1156 C1160 0.949 . S
C1157 C1158 1.349 . S
C1157 C1159 1.327 . S
C1157 H1180 0.950 . S
C1158 C1157 1.349 . S
C1158 C1170 1.349 . S
C1159 C1157 1.327 . S
C1159 C1175 1.429 . S
C1159 H1181 0.950 . S
C1160 H1156 0.949 . S
C1160 C1168 1.574 . S
C1160 C1176 1.368 . S
H1161 C1169 0.950 . S
H1162 C1167 0.950 . S
H1163 C1168 0.949 . S
H1164 C1170 0.950 . S
H1165 C1171 0.950 . S
H1166 C1172 0.949 . S
C1167 H1162 0.950 . S
C1167 C1169 1.327 . S
C1167 C1173 1.429 . S
C1168 C1160 1.574 . S
C1168 H1163 0.949 . S
C1168 C1174 1.368 . S
C1169 C1153 1.349 . S
C1169 H1161 0.950 . S
C1169 C1167 1.327 . S
C1170 C1158 1.349 . S
C1170 H1164 0.950 . S
C1170 C1171 1.327 . S
C1171 H1165 0.950 . S
C1171 C1170 1.327 . S
C1171 C1175 1.429 . S
C1172 C1155 1.574 . S
C1172 H1166 0.949 . S
C1172 C1176 1.368 . S
C1173 C1154 1.429 . S
C1173 C1167 1.429 . S
C1173 C1174 1.523 . S
C1174 C1155 1.368 . S
C1174 C1168 1.368 . S
C1174 C1173 1.523 . S
C1175 C1159 1.429 . S
C1175 C1171 1.429 . S
C1175 C1176 1.523 . S
C1176 C1160 1.368 . S
C1176 C1172 1.368 . S
C1176 C1175 1.523 . S
H1177 C1152 0.950 . S
H1178 C1154 0.950 . S
H1179 C1155 0.949 . S
H1180 C1157 0.950 . S
H1181 C1159 0.950 . S
C1182 C1183 1.349 . S
C1182 C1184 1.327 . S
C1182 H1207 0.950 . S
C1183 C1182 1.349 . S
C1183 C1199 1.349 . S
C1184 C1182 1.327 . S
C1184 C1203 1.429 . S
C1184 H1208 0.950 . S
C1185 C1202 1.574 . S
C1185 C1204 1.368 . S
C1185 H1209 0.949 . S
H1186 C1190 0.949 . S
C1187 C1188 1.349 . S
C1187 C1189 1.327 . S
C1187 H1210 0.950 . S
C1188 C1187 1.349 . S
C1188 C1200 1.349 . S
C1189 C1187 1.327 . S
C1189 C1205 1.429 . S
C1189 H1211 0.950 . S
C1190 H1186 0.949 . S
C1190 C1198 1.574 . S
C1190 C1206 1.368 . S
H1191 C1199 0.950 . S
H1192 C1197 0.950 . S
H1193 C1198 0.949 . S
H1194 C1200 0.950 . S
H1195 C1201 0.950 . S
H1196 C1202 0.949 . S
C1197 H1192 0.950 . S
C1197 C1199 1.327 . S
C1197 C1203 1.429 . S
C1198 C1190 1.574 . S
C1198 H1193 0.949 . S
C1198 C1204 1.368 . S
C1199 C1183 1.349 . S
C1199 H1191 0.950 . S
C1199 C1197 1.327 . S
C1200 C1188 1.349 . S
C1200 H1194 0.950 . S
C1200 C1201 1.327 . S
C1201 H1195 0.950 . S
C1201 C1200 1.327 . S
C1201 C1205 1.429 . S
C1202 C1185 1.574 . S
C1202 H1196 0.949 . S
C1202 C1206 1.368 . S
C1203 C1184 1.429 . S
C1203 C1197 1.429 . S
C1203 C1204 1.523 . S
C1204 C1185 1.368 . S
C1204 C1198 1.368 . S
C1204 C1203 1.523 . S
C1205 C1189 1.429 . S
C1205 C1201 1.429 . S
C1205 C1206 1.523 . S
C1206 C1190 1.368 . S
C1206 C1202 1.368 . S
C1206 C1205 1.523 . S
H1207 C1182 0.950 . S
H1208 C1184 0.950 . S
H1209 C1185 0.949 . S
H1210 C1187 0.950 . S
H1211 C1189 0.950 . S
C1212 C1213 1.349 . S
C1212 C1214 1.327 . S
C1212 H1237 0.950 . S
C1213 C1212 1.349 . S
C1213 C1229 1.349 . S
C1214 C1212 1.327 . S
C1214 C1233 1.429 . S
C1214 H1238 0.950 . S
C1215 C1232 1.574 1_655 S
C1215 C1234 1.368 . S
C1215 H1239 0.949 . S
H1216 C1220 0.949 . S
C1217 C1218 1.349 . S
C1217 C1219 1.327 . S
C1217 H1240 0.950 . S
C1218 C1217 1.349 . S
C1218 C1230 1.349 . S
C1219 C1217 1.327 . S
C1219 C1235 1.429 . S
C1219 H1241 0.950 . S
C1220 H1216 0.949 . S
C1220 C1228 1.574 1_455 S
C1220 C1236 1.368 . S
H1221 C1229 0.950 . S
H1222 C1227 0.950 . S
H1223 C1228 0.949 . S
H1224 C1230 0.950 . S
H1225 C1231 0.950 . S
H1226 C1232 0.949 . S
C1227 H1222 0.950 . S
C1227 C1229 1.327 . S
C1227 C1233 1.429 . S
C1228 C1220 1.574 1_655 S
C1228 H1223 0.949 . S
C1228 C1234 1.368 . S
C1229 C1213 1.349 . S
C1229 H1221 0.950 . S
C1229 C1227 1.327 . S
C1230 C1218 1.349 . S
C1230 H1224 0.950 . S
C1230 C1231 1.327 . S
C1231 H1225 0.950 . S
C1231 C1230 1.327 . S
C1231 C1235 1.429 . S
C1232 C1215 1.574 1_455 S
C1232 H1226 0.949 . S
C1232 C1236 1.368 . S
C1233 C1214 1.429 . S
C1233 C1227 1.429 . S
C1233 C1234 1.523 . S
C1234 C1215 1.368 . S
C1234 C1228 1.368 . S
C1234 C1233 1.523 . S
C1235 C1219 1.429 . S
C1235 C1231 1.429 . S
C1235 C1236 1.523 . S
C1236 C1220 1.368 . S
C1236 C1232 1.368 . S
C1236 C1235 1.523 . S
H1237 C1212 0.950 . S
H1238 C1214 0.950 . S
H1239 C1215 0.949 . S
H1240 C1217 0.950 . S
H1241 C1219 0.950 . S
C1242 C1243 1.349 . S
C1242 C1244 1.327 . S
C1242 H1267 0.950 . S
C1243 C1242 1.349 . S
C1243 C1259 1.349 . S
C1244 C1242 1.327 . S
C1244 C1263 1.429 . S
C1244 H1268 0.950 . S
C1245 C1262 1.574 . S
C1245 C1264 1.368 . S
C1245 H1269 0.949 . S
H1246 C1250 0.949 . S
C1247 C1248 1.349 . S
C1247 C1249 1.327 . S
C1247 H1270 0.950 . S
C1248 C1247 1.349 . S
C1248 C1260 1.349 . S
C1249 C1247 1.327 . S
C1249 C1265 1.429 . S
C1249 H1271 0.950 . S
C1250 H1246 0.949 . S
C1250 C1258 1.574 . S
C1250 C1266 1.368 . S
H1251 C1259 0.950 . S
H1252 C1257 0.950 . S
H1253 C1258 0.949 . S
H1254 C1260 0.950 . S
H1255 C1261 0.950 . S
H1256 C1262 0.949 . S
C1257 H1252 0.950 . S
C1257 C1259 1.327 . S
C1257 C1263 1.429 . S
C1258 C1250 1.574 . S
C1258 H1253 0.949 . S
C1258 C1264 1.368 . S
C1259 C1243 1.349 . S
C1259 H1251 0.950 . S
C1259 C1257 1.327 . S
C1260 C1248 1.349 . S
C1260 H1254 0.950 . S
C1260 C1261 1.327 . S
C1261 H1255 0.950 . S
C1261 C1260 1.327 . S
C1261 C1265 1.429 . S
C1262 C1245 1.574 . S
C1262 H1256 0.949 . S
C1262 C1266 1.368 . S
C1263 C1244 1.429 . S
C1263 C1257 1.429 . S
C1263 C1264 1.523 . S
C1264 C1245 1.368 . S
C1264 C1258 1.368 . S
C1264 C1263 1.523 . S
C1265 C1249 1.429 . S
C1265 C1261 1.429 . S
C1265 C1266 1.523 . S
C1266 C1250 1.368 . S
C1266 C1262 1.368 . S
C1266 C1265 1.523 . S
H1267 C1242 0.950 . S
H1268 C1244 0.950 . S
H1269 C1245 0.949 . S
H1270 C1247 0.950 . S
H1271 C1249 0.950 . S
C1272 C1273 1.349 . S
C1272 C1274 1.327 . S
C1272 H1297 0.950 . S
C1273 C1272 1.349 . S
C1273 C1289 1.349 . S
C1274 C1272 1.327 . S
C1274 C1293 1.429 . S
C1274 H1298 0.950 . S
C1275 C1292 1.574 . S
C1275 C1294 1.368 . S
C1275 H1299 0.949 . S
H1276 C1280 0.949 . S
C1277 C1278 1.349 . S
C1277 C1279 1.327 . S
C1277 H1300 0.950 . S
C1278 C1277 1.349 . S
C1278 C1290 1.349 . S
C1279 C1277 1.327 . S
C1279 C1295 1.429 . S
C1279 H1301 0.950 . S
C1280 H1276 0.949 . S
C1280 C1288 1.574 . S
C1280 C1296 1.368 . S
H1281 C1289 0.950 . S
H1282 C1287 0.950 . S
H1283 C1288 0.949 . S
H1284 C1290 0.950 . S
H1285 C1291 0.950 . S
H1286 C1292 0.949 . S
C1287 H1282 0.950 . S
C1287 C1289 1.327 . S
C1287 C1293 1.429 . S
C1288 C1280 1.574 . S
C1288 H1283 0.949 . S
C1288 C1294 1.368 . S
C1289 C1273 1.349 . S
C1289 H1281 0.950 . S
C1289 C1287 1.327 . S
C1290 C1278 1.349 . S
C1290 H1284 0.950 . S
C1290 C1291 1.327 . S
C1291 H1285 0.950 . S
C1291 C1290 1.327 . S
C1291 C1295 1.429 . S
C1292 C1275 1.574 . S
C1292 H1286 0.949 . S
C1292 C1296 1.368 . S
C1293 C1274 1.429 . S
C1293 C1287 1.429 . S
C1293 C1294 1.523 . S
C1294 C1275 1.368 . S
C1294 C1288 1.368 . S
C1294 C1293 1.523 . S
C1295 C1279 1.429 . S
C1295 C1291 1.429 . S
C1295 C1296 1.523 . S
C1296 C1280 1.368 . S
C1296 C1292 1.368 . S
C1296 C1295 1.523 . S
H1297 C1272 0.950 . S
H1298 C1274 0.950 . S
H1299 C1275 0.949 . S
H1300 C1277 0.950 . S
H1301 C1279 0.950 . S
C1302 C1303 1.349 . S
C1302 C1304 1.327 . S
C1302 H1327 0.950 . S
C1303 C1302 1.349 . S
C1303 C1319 1.349 . S
C1304 C1302 1.327 . S
C1304 C1323 1.429 . S
C1304 H1328 0.950 . S
C1305 C1322 1.574 . S
C1305 C1324 1.368 . S
C1305 H1329 0.949 . S
H1306 C1310 0.949 . S
C1307 C1308 1.349 . S
C1307 C1309 1.327 . S
C1307 H1330 0.950 . S
C1308 C1307 1.349 . S
C1308 C1320 1.349 . S
C1309 C1307 1.327 . S
C1309 C1325 1.429 . S
C1309 H1331 0.950 . S
C1310 H1306 0.949 . S
C1310 C1318 1.574 . S
C1310 C1326 1.368 . S
H1311 C1319 0.950 . S
H1312 C1317 0.950 . S
H1313 C1318 0.949 . S
H1314 C1320 0.950 . S
H1315 C1321 0.950 . S
H1316 C1322 0.949 . S
C1317 H1312 0.950 . S
C1317 C1319 1.327 . S
C1317 C1323 1.429 . S
C1318 C1310 1.574 . S
C1318 H1313 0.949 . S
C1318 C1324 1.368 . S
C1319 C1303 1.349 . S
C1319 H1311 0.950 . S
C1319 C1317 1.327 . S
C1320 C1308 1.349 . S
C1320 H1314 0.950 . S
C1320 C1321 1.327 . S
C1321 H1315 0.950 . S
C1321 C1320 1.327 . S
C1321 C1325 1.429 . S
C1322 C1305 1.574 . S
C1322 H1316 0.949 . S
C1322 C1326 1.368 . S
C1323 C1304 1.429 . S
C1323 C1317 1.429 . S
C1323 C1324 1.523 . S
C1324 C1305 1.368 . S
C1324 C1318 1.368 . S
C1324 C1323 1.523 . S
C1325 C1309 1.429 . S
C1325 C1321 1.429 . S
C1325 C1326 1.523 . S
C1326 C1310 1.368 . S
C1326 C1322 1.368 . S
C1326 C1325 1.523 . S
H1327 C1302 0.950 . S
H1328 C1304 0.950 . S
H1329 C1305 0.949 . S
H1330 C1307 0.950 . S
H1331 C1309 0.950 . S
C1332 C1333 1.349 . S
C1332 C1334 1.327 . S
C1332 H1357 0.950 . S
C1333 C1332 1.349 . S
C1333 C1349 1.349 . S
C1334 C1332 1.327 . S
C1334 C1353 1.429 . S
C1334 H1358 0.950 . S
C1335 C1352 1.574 1_455 S
C1335 C1354 1.368 . S
C1335 H1359 0.949 . S
H1336 C1340 0.949 . S
C1337 C1338 1.349 . S
C1337 C1339 1.327 . S
C1337 H1360 0.950 . S
C1338 C1337 1.349 . S
C1338 C1350 1.349 . S
C1339 C1337 1.327 . S
C1339 C1355 1.429 . S
C1339 H1361 0.950 . S
C1340 H1336 0.949 . S
C1340 C1348 1.574 . S
C1340 C1356 1.368 . S
H1341 C1349 0.950 . S
H1342 C1347 0.950 . S
H1343 C1348 0.949 . S
H1344 C1350 0.950 . S
H1345 C1351 0.950 . S
H1346 C1352 0.949 . S
C1347 H1342 0.950 . S
C1347 C1349 1.327 . S
C1347 C1353 1.429 . S
C1348 C1340 1.574 . S
C1348 H1343 0.949 . S
C1348 C1354 1.368 1_655 S
C1349 C1333 1.349 . S
C1349 H1341 0.950 . S
C1349 C1347 1.327 . S
C1350 C1338 1.349 . S
C1350 H1344 0.950 . S
C1350 C1351 1.327 . S
C1351 H1345 0.950 . S
C1351 C1350 1.327 . S
C1351 C1355 1.429 . S
C1352 C1335 1.574 1_655 S
C1352 H1346 0.949 . S
C1352 C1356 1.368 . S
C1353 C1334 1.429 . S
C1353 C1347 1.429 . S
C1353 C1354 1.523 . S
C1354 C1335 1.368 . S
C1354 C1348 1.368 1_455 S
C1354 C1353 1.523 . S
C1355 C1339 1.429 . S
C1355 C1351 1.429 . S
C1355 C1356 1.523 . S
C1356 C1340 1.368 . S
C1356 C1352 1.368 . S
C1356 C1355 1.523 . S
H1357 C1332 0.950 . S
H1358 C1334 0.950 . S
H1359 C1335 0.949 . S
H1360 C1337 0.950 . S
H1361 C1339 0.950 . S
C1362 C1363 1.349 . S
C1362 C1364 1.327 . S
C1362 H1387 0.950 . S
C1363 C1362 1.349 . S
C1363 C1379 1.349 . S
C1364 C1362 1.327 . S
C1364 C1383 1.429 . S
C1364 H1388 0.950 . S
C1365 C1382 1.574 1_655 S
C1365 C1384 1.368 . S
C1365 H1389 0.949 . S
H1366 C1370 0.949 . S
C1367 C1368 1.349 . S
C1367 C1369 1.327 . S
C1367 H1390 0.950 . S
C1368 C1367 1.349 . S
C1368 C1380 1.349 . S
C1369 C1367 1.327 . S
C1369 C1385 1.429 . S
C1369 H1391 0.950 . S
C1370 H1366 0.949 . S
C1370 C1378 1.574 . S
C1370 C1386 1.368 . S
H1371 C1379 0.950 . S
H1372 C1377 0.950 . S
H1373 C1378 0.950 . S
H1374 C1380 0.950 . S
H1375 C1381 0.950 . S
H1376 C1382 0.949 . S
C1377 H1372 0.950 . S
C1377 C1379 1.327 . S
C1377 C1383 1.429 . S
C1378 C1370 1.574 . S
C1378 H1373 0.950 . S
C1378 C1384 1.368 1_455 S
C1379 C1363 1.349 . S
C1379 H1371 0.950 . S
C1379 C1377 1.327 . S
C1380 C1368 1.349 . S
C1380 H1374 0.950 . S
C1380 C1381 1.327 . S
C1381 H1375 0.950 . S
C1381 C1380 1.327 . S
C1381 C1385 1.429 . S
C1382 C1365 1.574 1_455 S
C1382 H1376 0.949 . S
C1382 C1386 1.368 . S
C1383 C1364 1.429 . S
C1383 C1377 1.429 . S
C1383 C1384 1.523 . S
C1384 C1365 1.368 . S
C1384 C1378 1.368 1_655 S
C1384 C1383 1.523 . S
C1385 C1369 1.429 . S
C1385 C1381 1.429 . S
C1385 C1386 1.523 . S
C1386 C1370 1.368 . S
C1386 C1382 1.368 . S
C1386 C1385 1.523 . S
H1387 C1362 0.950 . S
H1388 C1364 0.950 . S
H1389 C1365 0.949 . S
H1390 C1367 0.950 . S
H1391 C1369 0.950 . S
C1392 C1393 1.349 . S
C1392 C1394 1.327 . S
C1392 H1417 0.950 . S
C1393 C1392 1.349 . S
C1393 C1409 1.349 . S
C1394 C1392 1.327 . S
C1394 C1413 1.429 . S
C1394 H1418 0.950 . S
C1395 C1412 1.574 . S
C1395 C1414 1.368 . S
C1395 H1419 0.949 . S
H1396 C1400 0.949 . S
C1397 C1398 1.349 . S
C1397 C1399 1.327 . S
C1397 H1420 0.950 . S
C1398 C1397 1.349 . S
C1398 C1410 1.349 . S
C1399 C1397 1.327 . S
C1399 C1415 1.429 . S
C1399 H1421 0.950 . S
C1400 H1396 0.949 . S
C1400 C1408 1.574 . S
C1400 C1416 1.368 . S
H1401 C1409 0.950 . S
H1402 C1407 0.950 . S
H1403 C1408 0.949 . S
H1404 C1410 0.950 . S
H1405 C1411 0.950 . S
H1406 C1412 0.949 . S
C1407 H1402 0.950 . S
C1407 C1409 1.327 . S
C1407 C1413 1.429 . S
C1408 C1400 1.574 . S
C1408 H1403 0.949 . S
C1408 C1414 1.368 . S
C1409 C1393 1.349 . S
C1409 H1401 0.950 . S
C1409 C1407 1.327 . S
C1410 C1398 1.349 . S
C1410 H1404 0.950 . S
C1410 C1411 1.327 . S
C1411 H1405 0.950 . S
C1411 C1410 1.327 . S
C1411 C1415 1.429 . S
C1412 C1395 1.574 . S
C1412 H1406 0.949 . S
C1412 C1416 1.368 . S
C1413 C1394 1.429 . S
C1413 C1407 1.429 . S
C1413 C1414 1.523 . S
C1414 C1395 1.368 . S
C1414 C1408 1.368 . S
C1414 C1413 1.523 . S
C1415 C1399 1.429 . S
C1415 C1411 1.429 . S
C1415 C1416 1.523 . S
C1416 C1400 1.368 . S
C1416 C1412 1.368 . S
C1416 C1415 1.523 . S
H1417 C1392 0.950 . S
H1418 C1394 0.950 . S
H1419 C1395 0.949 . S
H1420 C1397 0.950 . S
H1421 C1399 0.950 . S
C1422 C1423 1.349 . S
C1422 C1424 1.327 . S
C1422 H1447 0.950 . S
C1423 C1422 1.349 . S
C1423 C1439 1.349 . S
C1424 C1422 1.327 . S
C1424 C1443 1.429 . S
C1424 H1448 0.950 . S
C1425 C1442 1.574 . S
C1425 C1444 1.368 . S
C1425 H1449 0.949 . S
H1426 C1430 0.949 . S
C1427 C1428 1.349 . S
C1427 C1429 1.327 . S
C1427 H1450 0.950 . S
C1428 C1427 1.349 . S
C1428 C1440 1.349 . S
C1429 C1427 1.327 . S
C1429 C1445 1.429 . S
C1429 H1451 0.950 . S
C1430 H1426 0.949 . S
C1430 C1438 1.574 . S
C1430 C1446 1.368 . S
H1431 C1439 0.950 . S
H1432 C1437 0.950 . S
H1433 C1438 0.949 . S
H1434 C1440 0.950 . S
H1435 C1441 0.950 . S
H1436 C1442 0.949 . S
C1437 H1432 0.950 . S
C1437 C1439 1.327 . S
C1437 C1443 1.429 . S
C1438 C1430 1.574 . S
C1438 H1433 0.949 . S
C1438 C1444 1.368 . S
C1439 C1423 1.349 . S
C1439 H1431 0.950 . S
C1439 C1437 1.327 . S
C1440 C1428 1.349 . S
C1440 H1434 0.950 . S
C1440 C1441 1.327 . S
C1441 H1435 0.950 . S
C1441 C1440 1.327 . S
C1441 C1445 1.429 . S
C1442 C1425 1.574 . S
C1442 H1436 0.949 . S
C1442 C1446 1.368 . S
C1443 C1424 1.429 . S
C1443 C1437 1.429 . S
C1443 C1444 1.523 . S
C1444 C1425 1.368 . S
C1444 C1438 1.368 . S
C1444 C1443 1.523 . S
C1445 C1429 1.429 . S
C1445 C1441 1.429 . S
C1445 C1446 1.523 . S
C1446 C1430 1.368 . S
C1446 C1442 1.368 . S
C1446 C1445 1.523 . S
H1447 C1422 0.950 . S
H1448 C1424 0.950 . S
H1449 C1425 0.949 . S
H1450 C1427 0.950 . S
H1451 C1429 0.950 . S
C1452 C1453 1.349 . S
C1452 C1454 1.327 . S
C1452 H1477 0.950 . S
C1453 C1452 1.349 . S
C1453 C1469 1.349 . S
C1454 C1452 1.327 . S
C1454 C1473 1.429 . S
C1454 H1478 0.950 . S
C1455 C1472 1.574 . S
C1455 C1474 1.368 . S
C1455 H1479 0.949 . S
H1456 C1460 0.949 . S
C1457 C1458 1.349 . S
C1457 C1459 1.327 . S
C1457 H1480 0.950 . S
C1458 C1457 1.349 . S
C1458 C1470 1.349 . S
C1459 C1457 1.327 . S
C1459 C1475 1.429 . S
C1459 H1481 0.950 . S
C1460 H1456 0.949 . S
C1460 C1468 1.574 . S
C1460 C1476 1.368 . S
H1461 C1469 0.950 . S
H1462 C1467 0.950 . S
H1463 C1468 0.949 . S
H1464 C1470 0.950 . S
H1465 C1471 0.950 . S
H1466 C1472 0.949 . S
C1467 H1462 0.950 . S
C1467 C1469 1.327 . S
C1467 C1473 1.429 . S
C1468 C1460 1.574 . S
C1468 H1463 0.949 . S
C1468 C1474 1.368 . S
C1469 C1453 1.349 . S
C1469 H1461 0.950 . S
C1469 C1467 1.327 . S
C1470 C1458 1.349 . S
C1470 H1464 0.950 . S
C1470 C1471 1.327 . S
C1471 H1465 0.950 . S
C1471 C1470 1.327 . S
C1471 C1475 1.429 . S
C1472 C1455 1.574 . S
C1472 H1466 0.949 . S
C1472 C1476 1.368 . S
C1473 C1454 1.429 . S
C1473 C1467 1.429 . S
C1473 C1474 1.523 . S
C1474 C1455 1.368 . S
C1474 C1468 1.368 . S
C1474 C1473 1.523 . S
C1475 C1459 1.429 . S
C1475 C1471 1.429 . S
C1475 C1476 1.523 . S
C1476 C1460 1.368 . S
C1476 C1472 1.368 . S
C1476 C1475 1.523 . S
H1477 C1452 0.950 . S
H1478 C1454 0.950 . S
H1479 C1455 0.949 . S
H1480 C1457 0.950 . S
H1481 C1459 0.950 . S
C1482 C1483 1.349 . S
C1482 C1484 1.327 . S
C1482 H1507 0.950 . S
C1483 C1482 1.349 . S
C1483 C1499 1.349 . S
C1484 C1482 1.327 . S
C1484 C1503 1.429 . S
C1484 H1508 0.950 . S
C1485 C1502 1.574 . S
C1485 C1504 1.368 . S
C1485 H1509 0.949 . S
H1486 C1490 0.949 . S
C1487 C1488 1.349 . S
C1487 C1489 1.327 . S
C1487 H1510 0.950 . S
C1488 C1487 1.349 . S
C1488 C1500 1.349 . S
C1489 C1487 1.327 . S
C1489 C1505 1.429 . S
C1489 H1511 0.950 . S
C1490 H1486 0.949 . S
C1490 C1498 1.574 . S
C1490 C1506 1.368 . S
H1491 C1499 0.950 . S
H1492 C1497 0.950 . S
H1493 C1498 0.949 . S
H1494 C1500 0.950 . S
H1495 C1501 0.950 . S
H1496 C1502 0.949 . S
C1497 H1492 0.950 . S
C1497 C1499 1.327 . S
C1497 C1503 1.429 . S
C1498 C1490 1.574 . S
C1498 H1493 0.949 . S
C1498 C1504 1.368 . S
C1499 C1483 1.349 . S
C1499 H1491 0.950 . S
C1499 C1497 1.327 . S
C1500 C1488 1.349 . S
C1500 H1494 0.950 . S
C1500 C1501 1.327 . S
C1501 H1495 0.950 . S
C1501 C1500 1.327 . S
C1501 C1505 1.429 . S
C1502 C1485 1.574 . S
C1502 H1496 0.949 . S
C1502 C1506 1.368 . S
C1503 C1484 1.429 . S
C1503 C1497 1.429 . S
C1503 C1504 1.523 . S
C1504 C1485 1.368 . S
C1504 C1498 1.368 . S
C1504 C1503 1.523 . S
C1505 C1489 1.429 . S
C1505 C1501 1.429 . S
C1505 C1506 1.523 . S
C1506 C1490 1.368 . S
C1506 C1502 1.368 . S
C1506 C1505 1.523 . S
H1507 C1482 0.950 . S
H1508 C1484 0.950 . S
H1509 C1485 0.949 . S
H1510 C1487 0.950 . S
H1511 C1489 0.950 . S
C1512 C1513 1.349 . S
C1512 C1514 1.327 . S
C1512 H1537 0.950 . S
C1513 C1512 1.349 . S
C1513 C1529 1.349 . S
C1514 C1512 1.327 . S
C1514 C1533 1.429 . S
C1514 H1538 0.950 . S
C1515 C1532 1.574 . S
C1515 C1534 1.368 . S
C1515 H1539 0.949 . S
H1516 C1520 0.949 . S
C1517 C1518 1.349 . S
C1517 C1519 1.327 . S
C1517 H1540 0.950 . S
C1518 C1517 1.349 . S
C1518 C1530 1.349 . S
C1519 C1517 1.327 . S
C1519 C1535 1.429 . S
C1519 H1541 0.950 . S
C1520 H1516 0.949 . S
C1520 C1528 1.574 . S
C1520 C1536 1.368 . S
H1521 C1529 0.950 . S
H1522 C1527 0.950 . S
H1523 C1528 0.949 . S
H1524 C1530 0.950 . S
H1525 C1531 0.950 . S
H1526 C1532 0.949 . S
C1527 H1522 0.950 . S
C1527 C1529 1.327 . S
C1527 C1533 1.429 . S
C1528 C1520 1.574 . S
C1528 H1523 0.949 . S
C1528 C1534 1.368 . S
C1529 C1513 1.349 . S
C1529 H1521 0.950 . S
C1529 C1527 1.327 . S
C1530 C1518 1.349 . S
C1530 H1524 0.950 . S
C1530 C1531 1.327 . S
C1531 H1525 0.950 . S
C1531 C1530 1.327 . S
C1531 C1535 1.429 . S
C1532 C1515 1.574 . S
C1532 H1526 0.949 . S
C1532 C1536 1.368 . S
C1533 C1514 1.429 . S
C1533 C1527 1.429 . S
C1533 C1534 1.523 . S
C1534 C1515 1.368 . S
C1534 C1528 1.368 . S
C1534 C1533 1.523 . S
C1535 C1519 1.429 . S
C1535 C1531 1.429 . S
C1535 C1536 1.523 . S
C1536 C1520 1.368 . S
C1536 C1532 1.368 . S
C1536 C1535 1.523 . S
H1537 C1512 0.950 . S
H1538 C1514 0.950 . S
H1539 C1515 0.949 . S
H1540 C1517 0.950 . S
H1541 C1519 0.950 . S
C1542 C1543 1.349 . S
C1542 C1544 1.327 . S
C1542 H1567 0.950 . S
C1543 C1542 1.349 . S
C1543 C1559 1.349 . S
C1544 C1542 1.327 . S
C1544 C1563 1.429 . S
C1544 H1568 0.950 . S
C1545 C1562 1.574 . S
C1545 C1564 1.368 . S
C1545 H1569 0.949 . S
H1546 C1550 0.949 . S
C1547 C1548 1.349 . S
C1547 C1549 1.327 . S
C1547 H1570 0.950 . S
C1548 C1547 1.349 . S
C1548 C1560 1.349 . S
C1549 C1547 1.327 . S
C1549 C1565 1.429 . S
C1549 H1571 0.950 . S
C1550 H1546 0.949 . S
C1550 C1558 1.574 . S
C1550 C1566 1.368 . S
H1551 C1559 0.950 . S
H1552 C1557 0.950 . S
H1553 C1558 0.949 . S
H1554 C1560 0.950 . S
H1555 C1561 0.950 . S
H1556 C1562 0.949 . S
C1557 H1552 0.950 . S
C1557 C1559 1.327 . S
C1557 C1563 1.429 . S
C1558 C1550 1.574 . S
C1558 H1553 0.949 . S
C1558 C1564 1.368 . S
C1559 C1543 1.349 . S
C1559 H1551 0.950 . S
C1559 C1557 1.327 . S
C1560 C1548 1.349 . S
C1560 H1554 0.950 . S
C1560 C1561 1.327 . S
C1561 H1555 0.950 . S
C1561 C1560 1.327 . S
C1561 C1565 1.429 . S
C1562 C1545 1.574 . S
C1562 H1556 0.949 . S
C1562 C1566 1.368 . S
C1563 C1544 1.429 . S
C1563 C1557 1.429 . S
C1563 C1564 1.523 . S
C1564 C1545 1.368 . S
C1564 C1558 1.368 . S
C1564 C1563 1.523 . S
C1565 C1549 1.429 . S
C1565 C1561 1.429 . S
C1565 C1566 1.523 . S
C1566 C1550 1.368 . S
C1566 C1562 1.368 . S
C1566 C1565 1.523 . S
H1567 C1542 0.950 . S
H1568 C1544 0.950 . S
H1569 C1545 0.949 . S
H1570 C1547 0.950 . S
H1571 C1549 0.950 . S
C1572 C1573 1.349 . S
C1572 C1574 1.327 . S
C1572 H1597 0.950 . S
C1573 C1572 1.349 . S
C1573 C1589 1.349 . S
C1574 C1572 1.327 . S
C1574 C1593 1.429 . S
C1574 H1598 0.950 . S
C1575 C1592 1.574 . S
C1575 C1594 1.368 . S
C1575 H1599 0.949 . S
H1576 C1580 0.949 . S
C1577 C1578 1.349 . S
C1577 C1579 1.327 . S
C1577 H1600 0.950 . S
C1578 C1577 1.349 . S
C1578 C1590 1.349 . S
C1579 C1577 1.327 . S
C1579 C1595 1.429 . S
C1579 H1601 0.950 . S
C1580 H1576 0.949 . S
C1580 C1588 1.574 . S
C1580 C1596 1.368 . S
H1581 C1589 0.950 . S
H1582 C1587 0.950 . S
H1583 C1588 0.949 . S
H1584 C1590 0.950 . S
H1585 C1591 0.950 . S
H1586 C1592 0.949 . S
C1587 H1582 0.950 . S
C1587 C1589 1.327 . S
C1587 C1593 1.429 . S
C1588 C1580 1.574 . S
C1588 H1583 0.949 . S
C1588 C1594 1.368 . S
C1589 C1573 1.349 . S
C1589 H1581 0.950 . S
C1589 C1587 1.327 . S
C1590 C1578 1.349 . S
C1590 H1584 0.950 . S
C1590 C1591 1.327 . S
C1591 H1585 0.950 . S
C1591 C1590 1.327 . S
C1591 C1595 1.429 . S
C1592 C1575 1.574 . S
C1592 H1586 0.949 . S
C1592 C1596 1.368 . S
C1593 C1574 1.429 . S
C1593 C1587 1.429 . S
C1593 C1594 1.523 . S
C1594 C1575 1.368 . S
C1594 C1588 1.368 . S
C1594 C1593 1.523 . S
C1595 C1579 1.429 . S
C1595 C1591 1.429 . S
C1595 C1596 1.523 . S
C1596 C1580 1.368 . S
C1596 C1592 1.368 . S
C1596 C1595 1.523 . S
H1597 C1572 0.950 . S
H1598 C1574 0.950 . S
H1599 C1575 0.949 . S
H1600 C1577 0.950 . S
H1601 C1579 0.950 . S
C1602 C1603 1.349 . S
C1602 C1604 1.327 . S
C1602 H1627 0.950 . S
C1603 C1602 1.349 . S
C1603 C1619 1.349 . S
C1604 C1602 1.327 . S
C1604 C1623 1.429 . S
C1604 H1628 0.950 . S
C1605 C1622 1.574 . S
C1605 C1624 1.368 . S
C1605 H1629 0.949 . S
H1606 C1610 0.949 . S
C1607 C1608 1.349 . S
C1607 C1609 1.327 . S
C1607 H1630 0.950 . S
C1608 C1607 1.349 . S
C1608 C1620 1.349 . S
C1609 C1607 1.327 . S
C1609 C1625 1.429 . S
C1609 H1631 0.950 . S
C1610 H1606 0.949 . S
C1610 C1618 1.574 . S
C1610 C1626 1.368 . S
H1611 C1619 0.950 . S
H1612 C1617 0.950 . S
H1613 C1618 0.949 . S
H1614 C1620 0.950 . S
H1615 C1621 0.950 . S
H1616 C1622 0.949 . S
C1617 H1612 0.950 . S
C1617 C1619 1.327 . S
C1617 C1623 1.429 . S
C1618 C1610 1.574 . S
C1618 H1613 0.949 . S
C1618 C1624 1.368 . S
C1619 C1603 1.349 . S
C1619 H1611 0.950 . S
C1619 C1617 1.327 . S
C1620 C1608 1.349 . S
C1620 H1614 0.950 . S
C1620 C1621 1.327 . S
C1621 H1615 0.950 . S
C1621 C1620 1.327 . S
C1621 C1625 1.429 . S
C1622 C1605 1.574 . S
C1622 H1616 0.949 . S
C1622 C1626 1.368 . S
C1623 C1604 1.429 . S
C1623 C1617 1.429 . S
C1623 C1624 1.523 . S
C1624 C1605 1.368 . S
C1624 C1618 1.368 . S
C1624 C1623 1.523 . S
C1625 C1609 1.429 . S
C1625 C1621 1.429 . S
C1625 C1626 1.523 . S
C1626 C1610 1.368 . S
C1626 C1622 1.368 . S
C1626 C1625 1.523 . S
H1627 C1602 0.950 . S
H1628 C1604 0.950 . S
H1629 C1605 0.949 . S
H1630 C1607 0.950 . S
H1631 C1609 0.950 . S
C1632 C1633 1.349 . S
C1632 C1634 1.327 . S
C1632 H1657 0.950 . S
C1633 C1632 1.349 . S
C1633 C1649 1.349 . S
C1634 C1632 1.327 . S
C1634 C1653 1.429 . S
C1634 H1658 0.950 . S
C1635 C1652 1.574 . S
C1635 C1654 1.368 . S
C1635 H1659 0.949 . S
H1636 C1640 0.949 . S
C1637 C1638 1.349 . S
C1637 C1639 1.327 . S
C1637 H1660 0.950 . S
C1638 C1637 1.349 . S
C1638 C1650 1.349 . S
C1639 C1637 1.327 . S
C1639 C1655 1.429 . S
C1639 H1661 0.950 . S
C1640 H1636 0.949 . S
C1640 C1648 1.574 . S
C1640 C1656 1.368 . S
H1641 C1649 0.950 . S
H1642 C1647 0.950 . S
H1643 C1648 0.949 . S
H1644 C1650 0.950 . S
H1645 C1651 0.950 . S
H1646 C1652 0.949 . S
C1647 H1642 0.950 . S
C1647 C1649 1.327 . S
C1647 C1653 1.429 . S
C1648 C1640 1.574 . S
C1648 H1643 0.949 . S
C1648 C1654 1.368 . S
C1649 C1633 1.349 . S
C1649 H1641 0.950 . S
C1649 C1647 1.327 . S
C1650 C1638 1.349 . S
C1650 H1644 0.950 . S
C1650 C1651 1.327 . S
C1651 H1645 0.950 . S
C1651 C1650 1.327 . S
C1651 C1655 1.429 . S
C1652 C1635 1.574 . S
C1652 H1646 0.949 . S
C1652 C1656 1.368 . S
C1653 C1634 1.429 . S
C1653 C1647 1.429 . S
C1653 C1654 1.523 . S
C1654 C1635 1.368 . S
C1654 C1648 1.368 . S
C1654 C1653 1.523 . S
C1655 C1639 1.429 . S
C1655 C1651 1.429 . S
C1655 C1656 1.523 . S
C1656 C1640 1.368 . S
C1656 C1652 1.368 . S
C1656 C1655 1.523 . S
H1657 C1632 0.950 . S
H1658 C1634 0.950 . S
H1659 C1635 0.949 . S
H1660 C1637 0.950 . S
H1661 C1639 0.950 . S
C1662 C1663 1.349 . S
C1662 C1664 1.327 . S
C1662 H1687 0.950 . S
C1663 C1662 1.349 . S
C1663 C1679 1.349 . S
C1664 C1662 1.327 . S
C1664 C1683 1.429 . S
C1664 H1688 0.950 . S
C1665 C1682 1.574 1_565 S
C1665 C1684 1.368 . S
C1665 H1689 0.949 . S
H1666 C1670 0.949 . S
C1667 C1668 1.349 . S
C1667 C1669 1.327 . S
C1667 H1690 0.950 . S
C1668 C1667 1.349 . S
C1668 C1680 1.349 . S
C1669 C1667 1.327 . S
C1669 C1685 1.429 . S
C1669 H1691 0.950 . S
C1670 H1666 0.949 . S
C1670 C1678 1.574 1_545 S
C1670 C1686 1.368 . S
H1671 C1679 0.950 . S
H1672 C1677 0.950 . S
H1673 C1678 0.949 . S
H1674 C1680 0.950 . S
H1675 C1681 0.950 . S
H1676 C1682 0.949 . S
C1677 H1672 0.950 . S
C1677 C1679 1.327 . S
C1677 C1683 1.429 . S
C1678 C1670 1.574 1_565 S
C1678 H1673 0.949 . S
C1678 C1684 1.368 . S
C1679 C1663 1.349 . S
C1679 H1671 0.950 . S
C1679 C1677 1.327 . S
C1680 C1668 1.349 . S
C1680 H1674 0.950 . S
C1680 C1681 1.327 . S
C1681 H1675 0.950 . S
C1681 C1680 1.327 . S
C1681 C1685 1.429 . S
C1682 C1665 1.574 1_545 S
C1682 H1676 0.949 . S
C1682 C1686 1.368 . S
C1683 C1664 1.429 . S
C1683 C1677 1.429 . S
C1683 C1684 1.523 . S
C1684 C1665 1.368 . S
C1684 C1678 1.368 . S
C1684 C1683 1.523 . S
C1685 C1669 1.429 . S
C1685 C1681 1.429 . S
C1685 C1686 1.523 . S
C1686 C1670 1.368 . S
C1686 C1682 1.368 . S
C1686 C1685 1.523 . S
H1687 C1662 0.950 . S
H1688 C1664 0.950 . S
H1689 C1665 0.949 . S
H1690 C1667 0.950 . S
H1691 C1669 0.950 . S
C1692 C1693 1.349 . S
C1692 C1694 1.327 . S
C1692 H1717 0.950 . S
C1693 C1692 1.349 . S
C1693 C1709 1.349 . S
C1694 C1692 1.327 . S
C1694 C1713 1.429 . S
C1694 H1718 0.950 . S
C1695 C1712 1.574 . S
C1695 C1714 1.368 . S
C1695 H1719 0.949 . S
H1696 C1700 0.949 . S
C1697 C1698 1.349 . S
C1697 C1699 1.327 . S
C1697 H1720 0.950 . S
C1698 C1697 1.349 . S
C1698 C1710 1.349 . S
C1699 C1697 1.327 . S
C1699 C1715 1.429 . S
C1699 H1721 0.950 . S
C1700 H1696 0.949 . S
C1700 C1708 1.574 . S
C1700 C1716 1.368 . S
H1701 C1709 0.950 . S
H1702 C1707 0.950 . S
H1703 C1708 0.949 . S
H1704 C1710 0.950 . S
H1705 C1711 0.950 . S
H1706 C1712 0.949 . S
C1707 H1702 0.950 . S
C1707 C1709 1.327 . S
C1707 C1713 1.429 . S
C1708 C1700 1.574 . S
C1708 H1703 0.949 . S
C1708 C1714 1.368 . S
C1709 C1693 1.349 . S
C1709 H1701 0.950 . S
C1709 C1707 1.327 . S
C1710 C1698 1.349 . S
C1710 H1704 0.950 . S
C1710 C1711 1.327 . S
C1711 H1705 0.950 . S
C1711 C1710 1.327 . S
C1711 C1715 1.429 . S
C1712 C1695 1.574 . S
C1712 H1706 0.949 . S
C1712 C1716 1.368 . S
C1713 C1694 1.429 . S
C1713 C1707 1.429 . S
C1713 C1714 1.523 . S
C1714 C1695 1.368 . S
C1714 C1708 1.368 . S
C1714 C1713 1.523 . S
C1715 C1699 1.429 . S
C1715 C1711 1.429 . S
C1715 C1716 1.523 . S
C1716 C1700 1.368 . S
C1716 C1712 1.368 . S
C1716 C1715 1.523 . S
H1717 C1692 0.950 . S
H1718 C1694 0.950 . S
H1719 C1695 0.949 . S
H1720 C1697 0.950 . S
H1721 C1699 0.950 . S
C1722 C1723 1.349 . S
C1722 C1724 1.327 . S
C1722 H1747 0.950 . S
C1723 C1722 1.349 . S
C1723 C1739 1.349 . S
C1724 C1722 1.327 . S
C1724 C1743 1.429 . S
C1724 H1748 0.950 . S
C1725 C1742 1.574 . S
C1725 C1744 1.368 . S
C1725 H1749 0.949 . S
H1726 C1730 0.949 . S
C1727 C1728 1.349 . S
C1727 C1729 1.327 . S
C1727 H1750 0.950 . S
C1728 C1727 1.349 . S
C1728 C1740 1.349 . S
C1729 C1727 1.327 . S
C1729 C1745 1.429 . S
C1729 H1751 0.950 . S
C1730 H1726 0.949 . S
C1730 C1738 1.574 . S
C1730 C1746 1.368 . S
H1731 C1739 0.950 . S
H1732 C1737 0.950 . S
H1733 C1738 0.949 . S
H1734 C1740 0.950 . S
H1735 C1741 0.950 . S
H1736 C1742 0.949 . S
C1737 H1732 0.950 . S
C1737 C1739 1.327 . S
C1737 C1743 1.429 . S
C1738 C1730 1.574 . S
C1738 H1733 0.949 . S
C1738 C1744 1.368 . S
C1739 C1723 1.349 . S
C1739 H1731 0.950 . S
C1739 C1737 1.327 . S
C1740 C1728 1.349 . S
C1740 H1734 0.950 . S
C1740 C1741 1.327 . S
C1741 H1735 0.950 . S
C1741 C1740 1.327 . S
C1741 C1745 1.429 . S
C1742 C1725 1.574 . S
C1742 H1736 0.949 . S
C1742 C1746 1.368 . S
C1743 C1724 1.429 . S
C1743 C1737 1.429 . S
C1743 C1744 1.523 . S
C1744 C1725 1.368 . S
C1744 C1738 1.368 . S
C1744 C1743 1.523 . S
C1745 C1729 1.429 . S
C1745 C1741 1.429 . S
C1745 C1746 1.523 . S
C1746 C1730 1.368 . S
C1746 C1742 1.368 . S
C1746 C1745 1.523 . S
H1747 C1722 0.950 . S
H1748 C1724 0.950 . S
H1749 C1725 0.949 . S
H1750 C1727 0.950 . S
H1751 C1729 0.950 . S
C1752 C1753 1.349 . S
C1752 C1754 1.327 . S
C1752 H1777 0.950 . S
C1753 C1752 1.349 . S
C1753 C1769 1.349 . S
C1754 C1752 1.327 . S
C1754 C1773 1.429 . S
C1754 H1778 0.950 . S
C1755 C1772 1.574 . S
C1755 C1774 1.368 . S
C1755 H1779 0.949 . S
H1756 C1760 0.949 . S
C1757 C1758 1.349 . S
C1757 C1759 1.327 . S
C1757 H1780 0.950 . S
C1758 C1757 1.349 . S
C1758 C1770 1.349 . S
C1759 C1757 1.327 . S
C1759 C1775 1.429 . S
C1759 H1781 0.950 . S
C1760 H1756 0.949 . S
C1760 C1768 1.574 . S
C1760 C1776 1.368 . S
H1761 C1769 0.950 . S
H1762 C1767 0.950 . S
H1763 C1768 0.949 . S
H1764 C1770 0.950 . S
H1765 C1771 0.950 . S
H1766 C1772 0.949 . S
C1767 H1762 0.950 . S
C1767 C1769 1.327 . S
C1767 C1773 1.429 . S
C1768 C1760 1.574 . S
C1768 H1763 0.949 . S
C1768 C1774 1.368 . S
C1769 C1753 1.349 . S
C1769 H1761 0.950 . S
C1769 C1767 1.327 . S
C1770 C1758 1.349 . S
C1770 H1764 0.950 . S
C1770 C1771 1.327 . S
C1771 H1765 0.950 . S
C1771 C1770 1.327 . S
C1771 C1775 1.429 . S
C1772 C1755 1.574 . S
C1772 H1766 0.949 . S
C1772 C1776 1.368 . S
C1773 C1754 1.429 . S
C1773 C1767 1.429 . S
C1773 C1774 1.523 . S
C1774 C1755 1.368 . S
C1774 C1768 1.368 . S
C1774 C1773 1.523 . S
C1775 C1759 1.429 . S
C1775 C1771 1.429 . S
C1775 C1776 1.523 . S
C1776 C1760 1.368 . S
C1776 C1772 1.368 . S
C1776 C1775 1.523 . S
H1777 C1752 0.950 . S
H1778 C1754 0.950 . S
H1779 C1755 0.949 . S
H1780 C1757 0.950 . S
H1781 C1759 0.950 . S
C1782 C1783 1.349 . S
C1782 C1784 1.327 . S
C1782 H1807 0.950 . S
C1783 C1782 1.349 . S
C1783 C1799 1.349 . S
C1784 C1782 1.327 . S
C1784 C1803 1.429 . S
C1784 H1808 0.950 . S
C1785 C1802 1.574 1_565 S
C1785 C1804 1.368 . S
C1785 H1809 0.949 . S
H1786 C1790 0.949 . S
C1787 C1788 1.349 . S
C1787 C1789 1.327 . S
C1787 H1810 0.950 . S
C1788 C1787 1.349 . S
C1788 C1800 1.349 . S
C1789 C1787 1.327 . S
C1789 C1805 1.429 . S
C1789 H1811 0.950 . S
C1790 H1786 0.949 . S
C1790 C1798 1.574 1_545 S
C1790 C1806 1.368 . S
H1791 C1799 0.950 . S
H1792 C1797 0.950 . S
H1793 C1798 0.949 . S
H1794 C1800 0.950 . S
H1795 C1801 0.950 . S
H1796 C1802 0.949 . S
C1797 H1792 0.950 . S
C1797 C1799 1.327 . S
C1797 C1803 1.429 . S
C1798 C1790 1.574 1_565 S
C1798 H1793 0.949 . S
C1798 C1804 1.368 . S
C1799 C1783 1.349 . S
C1799 H1791 0.950 . S
C1799 C1797 1.327 . S
C1800 C1788 1.349 . S
C1800 H1794 0.950 . S
C1800 C1801 1.327 . S
C1801 H1795 0.950 . S
C1801 C1800 1.327 . S
C1801 C1805 1.429 . S
C1802 C1785 1.574 1_545 S
C1802 H1796 0.949 . S
C1802 C1806 1.368 . S
C1803 C1784 1.429 . S
C1803 C1797 1.429 . S
C1803 C1804 1.523 . S
C1804 C1785 1.368 . S
C1804 C1798 1.368 . S
C1804 C1803 1.523 . S
C1805 C1789 1.429 . S
C1805 C1801 1.429 . S
C1805 C1806 1.523 . S
C1806 C1790 1.368 . S
C1806 C1802 1.368 . S
C1806 C1805 1.523 . S
H1807 C1782 0.950 . S
H1808 C1784 0.950 . S
H1809 C1785 0.949 . S
H1810 C1787 0.950 . S
H1811 C1789 0.950 . S
C1812 C1813 1.349 . S
C1812 C1814 1.327 . S
C1812 H1837 0.950 . S
C1813 C1812 1.349 . S
C1813 C1829 1.349 . S
C1814 C1812 1.327 . S
C1814 C1833 1.429 . S
C1814 H1838 0.950 . S
C1815 C1832 1.574 . S
C1815 C1834 1.368 . S
C1815 H1839 0.949 . S
H1816 C1820 0.949 . S
C1817 C1818 1.349 . S
C1817 C1819 1.327 . S
C1817 H1840 0.950 . S
C1818 C1817 1.349 . S
C1818 C1830 1.349 . S
C1819 C1817 1.327 . S
C1819 C1835 1.429 . S
C1819 H1841 0.950 . S
C1820 H1816 0.949 . S
C1820 C1828 1.574 . S
C1820 C1836 1.368 . S
H1821 C1829 0.950 . S
H1822 C1827 0.950 . S
H1823 C1828 0.949 . S
H1824 C1830 0.950 . S
H1825 C1831 0.950 . S
H1826 C1832 0.949 . S
C1827 H1822 0.950 . S
C1827 C1829 1.327 . S
C1827 C1833 1.429 . S
C1828 C1820 1.574 . S
C1828 H1823 0.949 . S
C1828 C1834 1.368 . S
C1829 C1813 1.349 . S
C1829 H1821 0.950 . S
C1829 C1827 1.327 . S
C1830 C1818 1.349 . S
C1830 H1824 0.950 . S
C1830 C1831 1.327 . S
C1831 H1825 0.950 . S
C1831 C1830 1.327 . S
C1831 C1835 1.429 . S
C1832 C1815 1.574 . S
C1832 H1826 0.949 . S
C1832 C1836 1.368 . S
C1833 C1814 1.429 . S
C1833 C1827 1.429 . S
C1833 C1834 1.523 . S
C1834 C1815 1.368 . S
C1834 C1828 1.368 . S
C1834 C1833 1.523 . S
C1835 C1819 1.429 . S
C1835 C1831 1.429 . S
C1835 C1836 1.523 . S
C1836 C1820 1.368 . S
C1836 C1832 1.368 . S
C1836 C1835 1.523 . S
H1837 C1812 0.950 . S
H1838 C1814 0.950 . S
H1839 C1815 0.949 . S
H1840 C1817 0.950 . S
H1841 C1819 0.950 . S
C1842 C1843 1.349 . S
C1842 C1844 1.327 . S
C1842 H1867 0.950 . S
C1843 C1842 1.349 . S
C1843 C1859 1.349 . S
C1844 C1842 1.327 . S
C1844 C1863 1.429 . S
C1844 H1868 0.950 . S
C1845 C1862 1.574 . S
C1845 C1864 1.368 . S
C1845 H1869 0.949 . S
H1846 C1850 0.949 . S
C1847 C1848 1.349 . S
C1847 C1849 1.327 . S
C1847 H1870 0.950 . S
C1848 C1847 1.349 . S
C1848 C1860 1.349 . S
C1849 C1847 1.327 . S
C1849 C1865 1.429 . S
C1849 H1871 0.950 . S
C1850 H1846 0.949 . S
C1850 C1858 1.574 . S
C1850 C1866 1.368 . S
H1851 C1859 0.950 . S
H1852 C1857 0.950 . S
H1853 C1858 0.949 . S
H1854 C1860 0.950 . S
H1855 C1861 0.950 . S
H1856 C1862 0.949 . S
C1857 H1852 0.950 . S
C1857 C1859 1.327 . S
C1857 C1863 1.429 . S
C1858 C1850 1.574 . S
C1858 H1853 0.949 . S
C1858 C1864 1.368 . S
C1859 C1843 1.349 . S
C1859 H1851 0.950 . S
C1859 C1857 1.327 . S
C1860 C1848 1.349 . S
C1860 H1854 0.950 . S
C1860 C1861 1.327 . S
C1861 H1855 0.950 . S
C1861 C1860 1.327 . S
C1861 C1865 1.429 . S
C1862 C1845 1.574 . S
C1862 H1856 0.949 . S
C1862 C1866 1.368 . S
C1863 C1844 1.429 . S
C1863 C1857 1.429 . S
C1863 C1864 1.523 . S
C1864 C1845 1.368 . S
C1864 C1858 1.368 . S
C1864 C1863 1.523 . S
C1865 C1849 1.429 . S
C1865 C1861 1.429 . S
C1865 C1866 1.523 . S
C1866 C1850 1.368 . S
C1866 C1862 1.368 . S
C1866 C1865 1.523 . S
H1867 C1842 0.950 . S
H1868 C1844 0.950 . S
H1869 C1845 0.949 . S
H1870 C1847 0.950 . S
H1871 C1849 0.950 . S
C1872 C1873 1.349 . S
C1872 C1874 1.327 . S
C1872 H1897 0.950 . S
C1873 C1872 1.349 . S
C1873 C1889 1.349 . S
C1874 C1872 1.327 . S
C1874 C1893 1.429 . S
C1874 H1898 0.950 . S
C1875 C1892 1.574 . S
C1875 C1894 1.368 . S
C1875 H1899 0.949 . S
H1876 C1880 0.949 . S
C1877 C1878 1.349 . S
C1877 C1879 1.327 . S
C1877 H1900 0.950 . S
C1878 C1877 1.349 . S
C1878 C1890 1.349 . S
C1879 C1877 1.327 . S
C1879 C1895 1.429 . S
C1879 H1901 0.950 . S
C1880 H1876 0.949 . S
C1880 C1888 1.574 . S
C1880 C1896 1.368 . S
H1881 C1889 0.950 . S
H1882 C1887 0.950 . S
H1883 C1888 0.949 . S
H1884 C1890 0.950 . S
H1885 C1891 0.950 . S
H1886 C1892 0.949 . S
C1887 H1882 0.950 . S
C1887 C1889 1.327 . S
C1887 C1893 1.429 . S
C1888 C1880 1.574 . S
C1888 H1883 0.949 . S
C1888 C1894 1.368 . S
C1889 C1873 1.349 . S
C1889 H1881 0.950 . S
C1889 C1887 1.327 . S
C1890 C1878 1.349 . S
C1890 H1884 0.950 . S
C1890 C1891 1.327 . S
C1891 H1885 0.950 . S
C1891 C1890 1.327 . S
C1891 C1895 1.429 . S
C1892 C1875 1.574 . S
C1892 H1886 0.949 . S
C1892 C1896 1.368 . S
C1893 C1874 1.429 . S
C1893 C1887 1.429 . S
C1893 C1894 1.523 . S
C1894 C1875 1.368 . S
C1894 C1888 1.368 . S
C1894 C1893 1.523 . S
C1895 C1879 1.429 . S
C1895 C1891 1.429 . S
C1895 C1896 1.523 . S
C1896 C1880 1.368 . S
C1896 C1892 1.368 . S
C1896 C1895 1.523 . S
H1897 C1872 0.950 . S
H1898 C1874 0.950 . S
H1899 C1875 0.949 . S
H1900 C1877 0.950 . S
H1901 C1879 0.950 . S
C1902 C1903 1.349 . S
C1902 C1904 1.327 . S
C1902 H1927 0.950 . S
C1903 C1902 1.349 . S
C1903 C1919 1.349 . S
C1904 C1902 1.327 . S
C1904 C1923 1.429 . S
C1904 H1928 0.950 . S
C1905 C1922 1.574 . S
C1905 C1924 1.368 . S
C1905 H1929 0.949 . S
H1906 C1910 0.949 . S
C1907 C1908 1.349 . S
C1907 C1909 1.327 . S
C1907 H1930 0.950 . S
C1908 C1907 1.349 . S
C1908 C1920 1.349 . S
C1909 C1907 1.327 . S
C1909 C1925 1.429 . S
C1909 H1931 0.950 . S
C1910 H1906 0.949 . S
C1910 C1918 1.574 . S
C1910 C1926 1.368 . S
H1911 C1919 0.950 . S
H1912 C1917 0.950 . S
H1913 C1918 0.949 . S
H1914 C1920 0.950 . S
H1915 C1921 0.950 . S
H1916 C1922 0.949 . S
C1917 H1912 0.950 . S
C1917 C1919 1.327 . S
C1917 C1923 1.429 . S
C1918 C1910 1.574 . S
C1918 H1913 0.949 . S
C1918 C1924 1.368 . S
C1919 C1903 1.349 . S
C1919 H1911 0.950 . S
C1919 C1917 1.327 . S
C1920 C1908 1.349 . S
C1920 H1914 0.950 . S
C1920 C1921 1.327 . S
C1921 H1915 0.950 . S
C1921 C1920 1.327 . S
C1921 C1925 1.429 . S
C1922 C1905 1.574 . S
C1922 H1916 0.949 . S
C1922 C1926 1.368 . S
C1923 C1904 1.429 . S
C1923 C1917 1.429 . S
C1923 C1924 1.523 . S
C1924 C1905 1.368 . S
C1924 C1918 1.368 . S
C1924 C1923 1.523 . S
C1925 C1909 1.429 . S
C1925 C1921 1.429 . S
C1925 C1926 1.523 . S
C1926 C1910 1.368 . S
C1926 C1922 1.368 . S
C1926 C1925 1.523 . S
H1927 C1902 0.950 . S
H1928 C1904 0.950 . S
H1929 C1905 0.949 . S
H1930 C1907 0.950 . S
H1931 C1909 0.950 . S
C1932 C1933 1.349 . S
C1932 C1934 1.327 . S
C1932 H1957 0.950 . S
C1933 C1932 1.349 . S
C1933 C1949 1.349 . S
C1934 C1932 1.327 . S
C1934 C1953 1.429 . S
C1934 H1958 0.950 . S
C1935 C1952 1.574 . S
C1935 C1954 1.368 . S
C1935 H1959 0.949 . S
H1936 C1940 0.949 . S
C1937 C1938 1.349 . S
C1937 C1939 1.327 . S
C1937 H1960 0.950 . S
C1938 C1937 1.349 . S
C1938 C1950 1.349 . S
C1939 C1937 1.327 . S
C1939 C1955 1.429 . S
C1939 H1961 0.950 . S
C1940 H1936 0.949 . S
C1940 C1948 1.574 . S
C1940 C1956 1.368 . S
H1941 C1949 0.950 . S
H1942 C1947 0.950 . S
H1943 C1948 0.949 . S
H1944 C1950 0.950 . S
H1945 C1951 0.950 . S
H1946 C1952 0.949 . S
C1947 H1942 0.950 . S
C1947 C1949 1.327 . S
C1947 C1953 1.429 . S
C1948 C1940 1.574 . S
C1948 H1943 0.949 . S
C1948 C1954 1.368 . S
C1949 C1933 1.349 . S
C1949 H1941 0.950 . S
C1949 C1947 1.327 . S
C1950 C1938 1.349 . S
C1950 H1944 0.950 . S
C1950 C1951 1.327 . S
C1951 H1945 0.950 . S
C1951 C1950 1.327 . S
C1951 C1955 1.429 . S
C1952 C1935 1.574 . S
C1952 H1946 0.949 . S
C1952 C1956 1.368 . S
C1953 C1934 1.429 . S
C1953 C1947 1.429 . S
C1953 C1954 1.523 . S
C1954 C1935 1.368 . S
C1954 C1948 1.368 . S
C1954 C1953 1.523 . S
C1955 C1939 1.429 . S
C1955 C1951 1.429 . S
C1955 C1956 1.523 . S
C1956 C1940 1.368 . S
C1956 C1952 1.368 . S
C1956 C1955 1.523 . S
H1957 C1932 0.950 . S
H1958 C1934 0.950 . S
H1959 C1935 0.949 . S
H1960 C1937 0.950 . S
H1961 C1939 0.950 . S
C1962 C1963 1.349 . S
C1962 C1964 1.327 . S
C1962 H1987 0.950 . S
C1963 C1962 1.349 . S
C1963 C1979 1.349 . S
C1964 C1962 1.327 . S
C1964 C1983 1.429 . S
C1964 H1988 0.950 . S
C1965 C1982 1.574 . S
C1965 C1984 1.368 . S
C1965 H1989 0.949 . S
H1966 C1970 0.949 . S
C1967 C1968 1.349 . S
C1967 C1969 1.327 . S
C1967 H1990 0.950 . S
C1968 C1967 1.349 . S
C1968 C1980 1.349 . S
C1969 C1967 1.327 . S
C1969 C1985 1.429 . S
C1969 H1991 0.950 . S
C1970 H1966 0.949 . S
C1970 C1978 1.574 . S
C1970 C1986 1.368 . S
H1971 C1979 0.950 . S
H1972 C1977 0.950 . S
H1973 C1978 0.949 . S
H1974 C1980 0.950 . S
H1975 C1981 0.950 . S
H1976 C1982 0.949 . S
C1977 H1972 0.950 . S
C1977 C1979 1.327 . S
C1977 C1983 1.429 . S
C1978 C1970 1.574 . S
C1978 H1973 0.949 . S
C1978 C1984 1.368 . S
C1979 C1963 1.349 . S
C1979 H1971 0.950 . S
C1979 C1977 1.327 . S
C1980 C1968 1.349 . S
C1980 H1974 0.950 . S
C1980 C1981 1.327 . S
C1981 H1975 0.950 . S
C1981 C1980 1.327 . S
C1981 C1985 1.429 . S
C1982 C1965 1.574 . S
C1982 H1976 0.949 . S
C1982 C1986 1.368 . S
C1983 C1964 1.429 . S
C1983 C1977 1.429 . S
C1983 C1984 1.523 . S
C1984 C1965 1.368 . S
C1984 C1978 1.368 . S
C1984 C1983 1.523 . S
C1985 C1969 1.429 . S
C1985 C1981 1.429 . S
C1985 C1986 1.523 . S
C1986 C1970 1.368 . S
C1986 C1982 1.368 . S
C1986 C1985 1.523 . S
H1987 C1962 0.950 . S
H1988 C1964 0.950 . S
H1989 C1965 0.949 . S
H1990 C1967 0.950 . S
H1991 C1969 0.950 . S
C1992 C1993 1.349 . S
C1992 C1994 1.327 . S
C1992 H2017 0.950 . S
C1993 C1992 1.349 . S
C1993 C2009 1.349 . S
C1994 C1992 1.327 . S
C1994 C2013 1.429 . S
C1994 H2018 0.950 . S
C1995 C2012 1.574 1_455 S
C1995 C2014 1.368 . S
C1995 H2019 0.949 . S
H1996 C2000 0.949 . S
C1997 C1998 1.349 . S
C1997 C1999 1.327 . S
C1997 H2020 0.950 . S
C1998 C1997 1.349 . S
C1998 C2010 1.349 . S
C1999 C1997 1.327 . S
C1999 C2015 1.429 . S
C1999 H2021 0.950 . S
C2000 H1996 0.949 . S
C2000 C2008 1.574 1_655 S
C2000 C2016 1.368 . S
H2001 C2009 0.950 . S
H2002 C2007 0.950 . S
H2003 C2008 0.949 . S
H2004 C2010 0.950 . S
H2005 C2011 0.950 . S
H2006 C2012 0.949 . S
C2007 H2002 0.950 . S
C2007 C2009 1.327 . S
C2007 C2013 1.429 . S
C2008 C2000 1.574 1_455 S
C2008 H2003 0.949 . S
C2008 C2014 1.368 . S
C2009 C1993 1.349 . S
C2009 H2001 0.950 . S
C2009 C2007 1.327 . S
C2010 C1998 1.349 . S
C2010 H2004 0.950 . S
C2010 C2011 1.327 . S
C2011 H2005 0.950 . S
C2011 C2010 1.327 . S
C2011 C2015 1.429 . S
C2012 C1995 1.574 1_655 S
C2012 H2006 0.949 . S
C2012 C2016 1.368 . S
C2013 C1994 1.429 . S
C2013 C2007 1.429 . S
C2013 C2014 1.523 . S
C2014 C1995 1.368 . S
C2014 C2008 1.368 . S
C2014 C2013 1.523 . S
C2015 C1999 1.429 . S
C2015 C2011 1.429 . S
C2015 C2016 1.523 . S
C2016 C2000 1.368 . S
C2016 C2012 1.368 . S
C2016 C2015 1.523 . S
H2017 C1992 0.950 . S
H2018 C1994 0.950 . S
H2019 C1995 0.949 . S
H2020 C1997 0.950 . S
H2021 C1999 0.950 . S
C2022 C2023 1.349 . S
C2022 C2024 1.327 . S
C2022 H2047 0.950 . S
C2023 C2022 1.349 . S
C2023 C2039 1.349 . S
C2024 C2022 1.327 . S
C2024 C2043 1.429 . S
C2024 H2048 0.950 . S
C2025 C2042 1.574 . S
C2025 C2044 1.368 . S
C2025 H2049 0.949 . S
H2026 C2030 0.949 . S
C2027 C2028 1.349 . S
C2027 C2029 1.327 . S
C2027 H2050 0.950 . S
C2028 C2027 1.349 . S
C2028 C2040 1.349 . S
C2029 C2027 1.327 . S
C2029 C2045 1.429 . S
C2029 H2051 0.950 . S
C2030 H2026 0.949 . S
C2030 C2038 1.574 . S
C2030 C2046 1.368 . S
H2031 C2039 0.950 . S
H2032 C2037 0.950 . S
H2033 C2038 0.949 . S
H2034 C2040 0.950 . S
H2035 C2041 0.950 . S
H2036 C2042 0.949 . S
C2037 H2032 0.950 . S
C2037 C2039 1.327 . S
C2037 C2043 1.429 . S
C2038 C2030 1.574 . S
C2038 H2033 0.949 . S
C2038 C2044 1.368 . S
C2039 C2023 1.349 . S
C2039 H2031 0.950 . S
C2039 C2037 1.327 . S
C2040 C2028 1.349 . S
C2040 H2034 0.950 . S
C2040 C2041 1.327 . S
C2041 H2035 0.950 . S
C2041 C2040 1.327 . S
C2041 C2045 1.429 . S
C2042 C2025 1.574 . S
C2042 H2036 0.949 . S
C2042 C2046 1.368 . S
C2043 C2024 1.429 . S
C2043 C2037 1.429 . S
C2043 C2044 1.523 . S
C2044 C2025 1.368 . S
C2044 C2038 1.368 . S
C2044 C2043 1.523 . S
C2045 C2029 1.429 . S
C2045 C2041 1.429 . S
C2045 C2046 1.523 . S
C2046 C2030 1.368 . S
C2046 C2042 1.368 . S
C2046 C2045 1.523 . S
H2047 C2022 0.950 . S
H2048 C2024 0.950 . S
H2049 C2025 0.949 . S
H2050 C2027 0.950 . S
H2051 C2029 0.950 . S
C2052 C2053 1.349 . S
C2052 C2054 1.327 . S
C2052 H2077 0.950 . S
C2053 C2052 1.349 . S
C2053 C2069 1.349 . S
C2054 C2052 1.327 . S
C2054 C2073 1.429 . S
C2054 H2078 0.950 . S
C2055 C2072 1.574 . S
C2055 C2074 1.368 . S
C2055 H2079 0.949 . S
H2056 C2060 0.949 . S
C2057 C2058 1.349 . S
C2057 C2059 1.327 . S
C2057 H2080 0.950 . S
C2058 C2057 1.349 . S
C2058 C2070 1.349 . S
C2059 C2057 1.327 . S
C2059 C2075 1.429 . S
C2059 H2081 0.950 . S
C2060 H2056 0.949 . S
C2060 C2068 1.574 . S
C2060 C2076 1.368 . S
H2061 C2069 0.950 . S
H2062 C2067 0.950 . S
H2063 C2068 0.949 . S
H2064 C2070 0.950 . S
H2065 C2071 0.950 . S
H2066 C2072 0.949 . S
C2067 H2062 0.950 . S
C2067 C2069 1.327 . S
C2067 C2073 1.429 . S
C2068 C2060 1.574 . S
C2068 H2063 0.949 . S
C2068 C2074 1.368 . S
C2069 C2053 1.349 . S
C2069 H2061 0.950 . S
C2069 C2067 1.327 . S
C2070 C2058 1.349 . S
C2070 H2064 0.950 . S
C2070 C2071 1.327 . S
C2071 H2065 0.950 . S
C2071 C2070 1.327 . S
C2071 C2075 1.429 . S
C2072 C2055 1.574 . S
C2072 H2066 0.949 . S
C2072 C2076 1.368 . S
C2073 C2054 1.429 . S
C2073 C2067 1.429 . S
C2073 C2074 1.523 . S
C2074 C2055 1.368 . S
C2074 C2068 1.368 . S
C2074 C2073 1.523 . S
C2075 C2059 1.429 . S
C2075 C2071 1.429 . S
C2075 C2076 1.523 . S
C2076 C2060 1.368 . S
C2076 C2072 1.368 . S
C2076 C2075 1.523 . S
H2077 C2052 0.950 . S
H2078 C2054 0.950 . S
H2079 C2055 0.949 . S
H2080 C2057 0.950 . S
H2081 C2059 0.950 . S
C2082 C2083 1.349 . S
C2082 C2084 1.327 . S
C2082 H2107 0.950 . S
C2083 C2082 1.349 . S
C2083 C2099 1.349 . S
C2084 C2082 1.327 . S
C2084 C2103 1.429 . S
C2084 H2108 0.950 . S
C2085 C2102 1.574 . S
C2085 C2104 1.368 . S
C2085 H2109 0.949 . S
H2086 C2090 0.949 . S
C2087 C2088 1.349 . S
C2087 C2089 1.327 . S
C2087 H2110 0.950 . S
C2088 C2087 1.349 . S
C2088 C2100 1.349 . S
C2089 C2087 1.327 . S
C2089 C2105 1.429 . S
C2089 H2111 0.950 . S
C2090 H2086 0.949 . S
C2090 C2098 1.574 . S
C2090 C2106 1.368 . S
H2091 C2099 0.950 . S
H2092 C2097 0.950 . S
H2093 C2098 0.949 . S
H2094 C2100 0.950 . S
H2095 C2101 0.950 . S
H2096 C2102 0.949 . S
C2097 H2092 0.950 . S
C2097 C2099 1.327 . S
C2097 C2103 1.429 . S
C2098 C2090 1.574 . S
C2098 H2093 0.949 . S
C2098 C2104 1.368 . S
C2099 C2083 1.349 . S
C2099 H2091 0.950 . S
C2099 C2097 1.327 . S
C2100 C2088 1.349 . S
C2100 H2094 0.950 . S
C2100 C2101 1.327 . S
C2101 H2095 0.950 . S
C2101 C2100 1.327 . S
C2101 C2105 1.429 . S
C2102 C2085 1.574 . S
C2102 H2096 0.949 . S
C2102 C2106 1.368 . S
C2103 C2084 1.429 . S
C2103 C2097 1.429 . S
C2103 C2104 1.523 . S
C2104 C2085 1.368 . S
C2104 C2098 1.368 . S
C2104 C2103 1.523 . S
C2105 C2089 1.429 . S
C2105 C2101 1.429 . S
C2105 C2106 1.523 . S
C2106 C2090 1.368 . S
C2106 C2102 1.368 . S
C2106 C2105 1.523 . S
H2107 C2082 0.950 . S
H2108 C2084 0.950 . S
H2109 C2085 0.949 . S
H2110 C2087 0.950 . S
H2111 C2089 0.950 . S
C2112 C2113 1.349 . S
C2112 C2114 1.327 . S
C2112 H2137 0.950 . S
C2113 C2112 1.349 . S
C2113 C2129 1.349 . S
C2114 C2112 1.327 . S
C2114 C2133 1.429 . S
C2114 H2138 0.950 . S
C2115 C2132 1.574 . S
C2115 C2134 1.368 . S
C2115 H2139 0.949 . S
H2116 C2120 0.949 . S
C2117 C2118 1.349 . S
C2117 C2119 1.327 . S
C2117 H2140 0.950 . S
C2118 C2117 1.349 . S
C2118 C2130 1.349 . S
C2119 C2117 1.327 . S
C2119 C2135 1.429 . S
C2119 H2141 0.950 . S
C2120 H2116 0.949 . S
C2120 C2128 1.574 . S
C2120 C2136 1.368 . S
H2121 C2129 0.950 . S
H2122 C2127 0.950 . S
H2123 C2128 0.949 . S
H2124 C2130 0.950 . S
H2125 C2131 0.950 . S
H2126 C2132 0.949 . S
C2127 H2122 0.950 . S
C2127 C2129 1.327 . S
C2127 C2133 1.429 . S
C2128 C2120 1.574 . S
C2128 H2123 0.949 . S
C2128 C2134 1.368 . S
C2129 C2113 1.349 . S
C2129 H2121 0.950 . S
C2129 C2127 1.327 . S
C2130 C2118 1.349 . S
C2130 H2124 0.950 . S
C2130 C2131 1.327 . S
C2131 H2125 0.950 . S
C2131 C2130 1.327 . S
C2131 C2135 1.429 . S
C2132 C2115 1.574 . S
C2132 H2126 0.949 . S
C2132 C2136 1.368 . S
C2133 C2114 1.429 . S
C2133 C2127 1.429 . S
C2133 C2134 1.523 . S
C2134 C2115 1.368 . S
C2134 C2128 1.368 . S
C2134 C2133 1.523 . S
C2135 C2119 1.429 . S
C2135 C2131 1.429 . S
C2135 C2136 1.523 . S
C2136 C2120 1.368 . S
C2136 C2132 1.368 . S
C2136 C2135 1.523 . S
H2137 C2112 0.950 . S
H2138 C2114 0.950 . S
H2139 C2115 0.949 . S
H2140 C2117 0.950 . S
H2141 C2119 0.950 . S
C2142 C2143 1.349 . S
C2142 C2144 1.327 . S
C2142 H2167 0.950 . S
C2143 C2142 1.349 . S
C2143 C2159 1.349 . S
C2144 C2142 1.327 . S
C2144 C2163 1.429 . S
C2144 H2168 0.950 . S
C2145 C2162 1.574 . S
C2145 C2164 1.368 . S
C2145 H2169 0.949 . S
H2146 C2150 0.949 . S
C2147 C2148 1.349 . S
C2147 C2149 1.327 . S
C2147 H2170 0.950 . S
C2148 C2147 1.349 . S
C2148 C2160 1.349 . S
C2149 C2147 1.327 . S
C2149 C2165 1.429 . S
C2149 H2171 0.950 . S
C2150 H2146 0.949 . S
C2150 C2158 1.574 . S
C2150 C2166 1.368 . S
H2151 C2159 0.950 . S
H2152 C2157 0.950 . S
H2153 C2158 0.949 . S
H2154 C2160 0.950 . S
H2155 C2161 0.950 . S
H2156 C2162 0.949 . S
C2157 H2152 0.950 . S
C2157 C2159 1.327 . S
C2157 C2163 1.429 . S
C2158 C2150 1.574 . S
C2158 H2153 0.949 . S
C2158 C2164 1.368 . S
C2159 C2143 1.349 . S
C2159 H2151 0.950 . S
C2159 C2157 1.327 . S
C2160 C2148 1.349 . S
C2160 H2154 0.950 . S
C2160 C2161 1.327 . S
C2161 H2155 0.950 . S
C2161 C2160 1.327 . S
C2161 C2165 1.429 . S
C2162 C2145 1.574 . S
C2162 H2156 0.949 . S
C2162 C2166 1.368 . S
C2163 C2144 1.429 . S
C2163 C2157 1.429 . S
C2163 C2164 1.523 . S
C2164 C2145 1.368 . S
C2164 C2158 1.368 . S
C2164 C2163 1.523 . S
C2165 C2149 1.429 . S
C2165 C2161 1.429 . S
C2165 C2166 1.523 . S
C2166 C2150 1.368 . S
C2166 C2162 1.368 . S
C2166 C2165 1.523 . S
H2167 C2142 0.950 . S
H2168 C2144 0.950 . S
H2169 C2145 0.949 . S
H2170 C2147 0.950 . S
H2171 C2149 0.950 . S
C2172 C2173 1.349 . S
C2172 C2174 1.327 . S
C2172 H2197 0.950 . S
C2173 C2172 1.349 . S
C2173 C2189 1.349 . S
C2174 C2172 1.327 . S
C2174 C2193 1.429 . S
C2174 H2198 0.950 . S
C2175 C2192 1.574 . S
C2175 C2194 1.368 . S
C2175 H2199 0.949 . S
H2176 C2180 0.949 . S
C2177 C2178 1.349 . S
C2177 C2179 1.327 . S
C2177 H2200 0.950 . S
C2178 C2177 1.349 . S
C2178 C2190 1.349 . S
C2179 C2177 1.327 . S
C2179 C2195 1.429 . S
C2179 H2201 0.950 . S
C2180 H2176 0.949 . S
C2180 C2188 1.574 . S
C2180 C2196 1.368 . S
H2181 C2189 0.950 . S
H2182 C2187 0.950 . S
H2183 C2188 0.949 . S
H2184 C2190 0.950 . S
H2185 C2191 0.950 . S
H2186 C2192 0.949 . S
C2187 H2182 0.950 . S
C2187 C2189 1.327 . S
C2187 C2193 1.429 . S
C2188 C2180 1.574 . S
C2188 H2183 0.949 . S
C2188 C2194 1.368 . S
C2189 C2173 1.349 . S
C2189 H2181 0.950 . S
C2189 C2187 1.327 . S
C2190 C2178 1.349 . S
C2190 H2184 0.950 . S
C2190 C2191 1.327 . S
C2191 H2185 0.950 . S
C2191 C2190 1.327 . S
C2191 C2195 1.429 . S
C2192 C2175 1.574 . S
C2192 H2186 0.949 . S
C2192 C2196 1.368 . S
C2193 C2174 1.429 . S
C2193 C2187 1.429 . S
C2193 C2194 1.523 . S
C2194 C2175 1.368 . S
C2194 C2188 1.368 . S
C2194 C2193 1.523 . S
C2195 C2179 1.429 . S
C2195 C2191 1.429 . S
C2195 C2196 1.523 . S
C2196 C2180 1.368 . S
C2196 C2192 1.368 . S
C2196 C2195 1.523 . S
H2197 C2172 0.950 . S
H2198 C2174 0.950 . S
H2199 C2175 0.949 . S
H2200 C2177 0.950 . S
H2201 C2179 0.950 . S
C2202 C2203 1.349 . S
C2202 C2204 1.327 . S
C2202 H2227 0.950 . S
C2203 C2202 1.349 . S
C2203 C2219 1.349 . S
C2204 C2202 1.327 . S
C2204 C2223 1.429 . S
C2204 H2228 0.950 . S
C2205 C2222 1.574 . S
C2205 C2224 1.368 . S
C2205 H2229 0.949 . S
H2206 C2210 0.949 . S
C2207 C2208 1.349 . S
C2207 C2209 1.327 . S
C2207 H2230 0.950 . S
C2208 C2207 1.349 . S
C2208 C2220 1.349 . S
C2209 C2207 1.327 . S
C2209 C2225 1.429 . S
C2209 H2231 0.950 . S
C2210 H2206 0.949 . S
C2210 C2218 1.574 . S
C2210 C2226 1.368 . S
H2211 C2219 0.950 . S
H2212 C2217 0.950 . S
H2213 C2218 0.949 . S
H2214 C2220 0.950 . S
H2215 C2221 0.950 . S
H2216 C2222 0.949 . S
C2217 H2212 0.950 . S
C2217 C2219 1.327 . S
C2217 C2223 1.429 . S
C2218 C2210 1.574 . S
C2218 H2213 0.949 . S
C2218 C2224 1.368 . S
C2219 C2203 1.349 . S
C2219 H2211 0.950 . S
C2219 C2217 1.327 . S
C2220 C2208 1.349 . S
C2220 H2214 0.950 . S
C2220 C2221 1.327 . S
C2221 H2215 0.950 . S
C2221 C2220 1.327 . S
C2221 C2225 1.429 . S
C2222 C2205 1.574 . S
C2222 H2216 0.949 . S
C2222 C2226 1.368 . S
C2223 C2204 1.429 . S
C2223 C2217 1.429 . S
C2223 C2224 1.523 . S
C2224 C2205 1.368 . S
C2224 C2218 1.368 . S
C2224 C2223 1.523 . S
C2225 C2209 1.429 . S
C2225 C2221 1.429 . S
C2225 C2226 1.523 . S
C2226 C2210 1.368 . S
C2226 C2222 1.368 . S
C2226 C2225 1.523 . S
H2227 C2202 0.950 . S
H2228 C2204 0.950 . S
H2229 C2205 0.949 . S
H2230 C2207 0.950 . S
H2231 C2209 0.950 . S
C2232 C2233 1.349 . S
C2232 C2234 1.327 . S
C2232 H2257 0.950 . S
C2233 C2232 1.349 . S
C2233 C2249 1.349 . S
C2234 C2232 1.327 . S
C2234 C2253 1.429 . S
C2234 H2258 0.950 . S
C2235 C2252 1.574 . S
C2235 C2254 1.368 . S
C2235 H2259 0.949 . S
H2236 C2240 0.949 . S
C2237 C2238 1.349 . S
C2237 C2239 1.327 . S
C2237 H2260 0.950 . S
C2238 C2237 1.349 . S
C2238 C2250 1.349 . S
C2239 C2237 1.327 . S
C2239 C2255 1.429 . S
C2239 H2261 0.950 . S
C2240 H2236 0.949 . S
C2240 C2248 1.574 . S
C2240 C2256 1.368 . S
H2241 C2249 0.950 . S
H2242 C2247 0.950 . S
H2243 C2248 0.949 . S
H2244 C2250 0.950 . S
H2245 C2251 0.950 . S
H2246 C2252 0.949 . S
C2247 H2242 0.950 . S
C2247 C2249 1.327 . S
C2247 C2253 1.429 . S
C2248 C2240 1.574 . S
C2248 H2243 0.949 . S
C2248 C2254 1.368 . S
C2249 C2233 1.349 . S
C2249 H2241 0.950 . S
C2249 C2247 1.327 . S
C2250 C2238 1.349 . S
C2250 H2244 0.950 . S
C2250 C2251 1.327 . S
C2251 H2245 0.950 . S
C2251 C2250 1.327 . S
C2251 C2255 1.429 . S
C2252 C2235 1.574 . S
C2252 H2246 0.949 . S
C2252 C2256 1.368 . S
C2253 C2234 1.429 . S
C2253 C2247 1.429 . S
C2253 C2254 1.523 . S
C2254 C2235 1.368 . S
C2254 C2248 1.368 . S
C2254 C2253 1.523 . S
C2255 C2239 1.429 . S
C2255 C2251 1.429 . S
C2255 C2256 1.523 . S
C2256 C2240 1.368 . S
C2256 C2252 1.368 . S
C2256 C2255 1.523 . S
H2257 C2232 0.950 . S
H2258 C2234 0.950 . S
H2259 C2235 0.949 . S
H2260 C2237 0.950 . S
H2261 C2239 0.950 . S
C2262 C2263 1.349 . S
C2262 C2264 1.327 . S
C2262 H2287 0.950 . S
C2263 C2262 1.349 . S
C2263 C2279 1.349 . S
C2264 C2262 1.327 . S
C2264 C2283 1.429 . S
C2264 H2288 0.950 . S
C2265 C2282 1.574 . S
C2265 C2284 1.368 . S
C2265 H2289 0.949 . S
H2266 C2270 0.949 . S
C2267 C2268 1.349 . S
C2267 C2269 1.327 . S
C2267 H2290 0.950 . S
C2268 C2267 1.349 . S
C2268 C2280 1.349 . S
C2269 C2267 1.327 . S
C2269 C2285 1.429 . S
C2269 H2291 0.950 . S
C2270 H2266 0.949 . S
C2270 C2278 1.574 . S
C2270 C2286 1.368 . S
H2271 C2279 0.950 . S
H2272 C2277 0.950 . S
H2273 C2278 0.949 . S
H2274 C2280 0.950 . S
H2275 C2281 0.950 . S
H2276 C2282 0.949 . S
C2277 H2272 0.950 . S
C2277 C2279 1.327 . S
C2277 C2283 1.429 . S
C2278 C2270 1.574 . S
C2278 H2273 0.949 . S
C2278 C2284 1.368 . S
C2279 C2263 1.349 . S
C2279 H2271 0.950 . S
C2279 C2277 1.327 . S
C2280 C2268 1.349 . S
C2280 H2274 0.950 . S
C2280 C2281 1.327 . S
C2281 H2275 0.950 . S
C2281 C2280 1.327 . S
C2281 C2285 1.429 . S
C2282 C2265 1.574 . S
C2282 H2276 0.949 . S
C2282 C2286 1.368 . S
C2283 C2264 1.429 . S
C2283 C2277 1.429 . S
C2283 C2284 1.523 . S
C2284 C2265 1.368 . S
C2284 C2278 1.368 . S
C2284 C2283 1.523 . S
C2285 C2269 1.429 . S
C2285 C2281 1.429 . S
C2285 C2286 1.523 . S
C2286 C2270 1.368 . S
C2286 C2282 1.368 . S
C2286 C2285 1.523 . S
H2287 C2262 0.950 . S
H2288 C2264 0.950 . S
H2289 C2265 0.949 . S
H2290 C2267 0.950 . S
H2291 C2269 0.950 . S
C2292 C2293 1.349 . S
C2292 C2294 1.327 . S
C2292 H2317 0.950 . S
C2293 C2292 1.349 . S
C2293 C2309 1.349 . S
C2294 C2292 1.327 . S
C2294 C2313 1.429 . S
C2294 H2318 0.950 . S
C2295 C2312 1.574 . S
C2295 C2314 1.368 . S
C2295 H2319 0.949 . S
H2296 C2300 0.949 . S
C2297 C2298 1.349 . S
C2297 C2299 1.327 . S
C2297 H2320 0.950 . S
C2298 C2297 1.349 . S
C2298 C2310 1.349 . S
C2299 C2297 1.327 . S
C2299 C2315 1.429 . S
C2299 H2321 0.950 . S
C2300 H2296 0.949 . S
C2300 C2308 1.574 . S
C2300 C2316 1.368 . S
H2301 C2309 0.950 . S
H2302 C2307 0.950 . S
H2303 C2308 0.949 . S
H2304 C2310 0.950 . S
H2305 C2311 0.950 . S
H2306 C2312 0.949 . S
C2307 H2302 0.950 . S
C2307 C2309 1.327 . S
C2307 C2313 1.429 . S
C2308 C2300 1.574 . S
C2308 H2303 0.949 . S
C2308 C2314 1.368 . S
C2309 C2293 1.349 . S
C2309 H2301 0.950 . S
C2309 C2307 1.327 . S
C2310 C2298 1.349 . S
C2310 H2304 0.950 . S
C2310 C2311 1.327 . S
C2311 H2305 0.950 . S
C2311 C2310 1.327 . S
C2311 C2315 1.429 . S
C2312 C2295 1.574 . S
C2312 H2306 0.949 . S
C2312 C2316 1.368 . S
C2313 C2294 1.429 . S
C2313 C2307 1.429 . S
C2313 C2314 1.523 . S
C2314 C2295 1.368 . S
C2314 C2308 1.368 . S
C2314 C2313 1.523 . S
C2315 C2299 1.429 . S
C2315 C2311 1.429 . S
C2315 C2316 1.523 . S
C2316 C2300 1.368 . S
C2316 C2312 1.368 . S
C2316 C2315 1.523 . S
H2317 C2292 0.950 . S
H2318 C2294 0.950 . S
H2319 C2295 0.949 . S
H2320 C2297 0.950 . S
H2321 C2299 0.950 . S
C2322 C2323 1.349 . S
C2322 C2324 1.327 . S
C2322 H2347 0.950 . S
C2323 C2322 1.349 . S
C2323 C2339 1.349 . S
C2324 C2322 1.327 . S
C2324 C2343 1.429 . S
C2324 H2348 0.950 . S
C2325 C2342 1.574 . S
C2325 C2344 1.368 . S
C2325 H2349 0.949 . S
H2326 C2330 0.949 . S
C2327 C2328 1.349 . S
C2327 C2329 1.327 . S
C2327 H2350 0.950 . S
C2328 C2327 1.349 . S
C2328 C2340 1.349 . S
C2329 C2327 1.327 . S
C2329 C2345 1.429 . S
C2329 H2351 0.950 . S
C2330 H2326 0.949 . S
C2330 C2338 1.574 . S
C2330 C2346 1.368 . S
H2331 C2339 0.950 . S
H2332 C2337 0.950 . S
H2333 C2338 0.949 . S
H2334 C2340 0.950 . S
H2335 C2341 0.950 . S
H2336 C2342 0.949 . S
C2337 H2332 0.950 . S
C2337 C2339 1.327 . S
C2337 C2343 1.429 . S
C2338 C2330 1.574 . S
C2338 H2333 0.949 . S
C2338 C2344 1.368 . S
C2339 C2323 1.349 . S
C2339 H2331 0.950 . S
C2339 C2337 1.327 . S
C2340 C2328 1.349 . S
C2340 H2334 0.950 . S
C2340 C2341 1.327 . S
C2341 H2335 0.950 . S
C2341 C2340 1.327 . S
C2341 C2345 1.429 . S
C2342 C2325 1.574 . S
C2342 H2336 0.949 . S
C2342 C2346 1.368 . S
C2343 C2324 1.429 . S
C2343 C2337 1.429 . S
C2343 C2344 1.523 . S
C2344 C2325 1.368 . S
C2344 C2338 1.368 . S
C2344 C2343 1.523 . S
C2345 C2329 1.429 . S
C2345 C2341 1.429 . S
C2345 C2346 1.523 . S
C2346 C2330 1.368 . S
C2346 C2342 1.368 . S
C2346 C2345 1.523 . S
H2347 C2322 0.950 . S
H2348 C2324 0.950 . S
H2349 C2325 0.949 . S
H2350 C2327 0.950 . S
H2351 C2329 0.950 . S
C2352 C2353 1.349 . S
C2352 C2354 1.327 . S
C2352 H2377 0.950 . S
C2353 C2352 1.349 . S
C2353 C2369 1.349 . S
C2354 C2352 1.327 . S
C2354 C2373 1.429 . S
C2354 H2378 0.950 . S
C2355 C2372 1.574 . S
C2355 C2374 1.368 . S
C2355 H2379 0.949 . S
H2356 C2360 0.949 . S
C2357 C2358 1.349 . S
C2357 C2359 1.327 . S
C2357 H2380 0.950 . S
C2358 C2357 1.349 . S
C2358 C2370 1.349 . S
C2359 C2357 1.327 . S
C2359 C2375 1.429 . S
C2359 H2381 0.950 . S
C2360 H2356 0.949 . S
C2360 C2368 1.574 . S
C2360 C2376 1.368 . S
H2361 C2369 0.950 . S
H2362 C2367 0.950 . S
H2363 C2368 0.949 . S
H2364 C2370 0.950 . S
H2365 C2371 0.950 . S
H2366 C2372 0.949 . S
C2367 H2362 0.950 . S
C2367 C2369 1.327 . S
C2367 C2373 1.429 . S
C2368 C2360 1.574 . S
C2368 H2363 0.949 . S
C2368 C2374 1.368 . S
C2369 C2353 1.349 . S
C2369 H2361 0.950 . S
C2369 C2367 1.327 . S
C2370 C2358 1.349 . S
C2370 H2364 0.950 . S
C2370 C2371 1.327 . S
C2371 H2365 0.950 . S
C2371 C2370 1.327 . S
C2371 C2375 1.429 . S
C2372 C2355 1.574 . S
C2372 H2366 0.949 . S
C2372 C2376 1.368 . S
C2373 C2354 1.429 . S
C2373 C2367 1.429 . S
C2373 C2374 1.523 . S
C2374 C2355 1.368 . S
C2374 C2368 1.368 . S
C2374 C2373 1.523 . S
C2375 C2359 1.429 . S
C2375 C2371 1.429 . S
C2375 C2376 1.523 . S
C2376 C2360 1.368 . S
C2376 C2372 1.368 . S
C2376 C2375 1.523 . S
H2377 C2352 0.950 . S
H2378 C2354 0.950 . S
H2379 C2355 0.949 . S
H2380 C2357 0.950 . S
H2381 C2359 0.950 . S
C2382 C2383 1.349 . S
C2382 C2384 1.327 . S
C2382 H2407 0.950 . S
C2383 C2382 1.349 . S
C2383 C2399 1.349 . S
C2384 C2382 1.327 . S
C2384 C2403 1.429 . S
C2384 H2408 0.950 . S
C2385 C2402 1.574 . S
C2385 C2404 1.368 . S
C2385 H2409 0.949 . S
H2386 C2390 0.949 . S
C2387 C2388 1.349 . S
C2387 C2389 1.327 . S
C2387 H2410 0.950 . S
C2388 C2387 1.349 . S
C2388 C2400 1.349 . S
C2389 C2387 1.327 . S
C2389 C2405 1.429 . S
C2389 H2411 0.950 . S
C2390 H2386 0.949 . S
C2390 C2398 1.574 . S
C2390 C2406 1.368 . S
H2391 C2399 0.950 . S
H2392 C2397 0.950 . S
H2393 C2398 0.949 . S
H2394 C2400 0.950 . S
H2395 C2401 0.950 . S
H2396 C2402 0.949 . S
C2397 H2392 0.950 . S
C2397 C2399 1.327 . S
C2397 C2403 1.429 . S
C2398 C2390 1.574 . S
C2398 H2393 0.949 . S
C2398 C2404 1.368 . S
C2399 C2383 1.349 . S
C2399 H2391 0.950 . S
C2399 C2397 1.327 . S
C2400 C2388 1.349 . S
C2400 H2394 0.950 . S
C2400 C2401 1.327 . S
C2401 H2395 0.950 . S
C2401 C2400 1.327 . S
C2401 C2405 1.429 . S
C2402 C2385 1.574 . S
C2402 H2396 0.949 . S
C2402 C2406 1.368 . S
C2403 C2384 1.429 . S
C2403 C2397 1.429 . S
C2403 C2404 1.523 . S
C2404 C2385 1.368 . S
C2404 C2398 1.368 . S
C2404 C2403 1.523 . S
C2405 C2389 1.429 . S
C2405 C2401 1.429 . S
C2405 C2406 1.523 . S
C2406 C2390 1.368 . S
C2406 C2402 1.368 . S
C2406 C2405 1.523 . S
H2407 C2382 0.950 . S
H2408 C2384 0.950 . S
H2409 C2385 0.949 . S
H2410 C2387 0.950 . S
H2411 C2389 0.950 . S
C2412 C2413 1.349 . S
C2412 C2414 1.327 . S
C2412 H2437 0.950 . S
C2413 C2412 1.349 . S
C2413 C2429 1.349 . S
C2414 C2412 1.327 . S
C2414 C2433 1.429 . S
C2414 H2438 0.950 . S
C2415 C2432 1.574 . S
C2415 C2434 1.368 . S
C2415 H2439 0.949 . S
H2416 C2420 0.949 . S
C2417 C2418 1.349 . S
C2417 C2419 1.327 . S
C2417 H2440 0.950 . S
C2418 C2417 1.349 . S
C2418 C2430 1.349 . S
C2419 C2417 1.327 . S
C2419 C2435 1.429 . S
C2419 H2441 0.950 . S
C2420 H2416 0.949 . S
C2420 C2428 1.574 . S
C2420 C2436 1.368 . S
H2421 C2429 0.950 . S
H2422 C2427 0.950 . S
H2423 C2428 0.949 . S
H2424 C2430 0.950 . S
H2425 C2431 0.950 . S
H2426 C2432 0.949 . S
C2427 H2422 0.950 . S
C2427 C2429 1.327 . S
C2427 C2433 1.429 . S
C2428 C2420 1.574 . S
C2428 H2423 0.949 . S
C2428 C2434 1.368 . S
C2429 C2413 1.349 . S
C2429 H2421 0.950 . S
C2429 C2427 1.327 . S
C2430 C2418 1.349 . S
C2430 H2424 0.950 . S
C2430 C2431 1.327 . S
C2431 H2425 0.950 . S
C2431 C2430 1.327 . S
C2431 C2435 1.429 . S
C2432 C2415 1.574 . S
C2432 H2426 0.949 . S
C2432 C2436 1.368 . S
C2433 C2414 1.429 . S
C2433 C2427 1.429 . S
C2433 C2434 1.523 . S
C2434 C2415 1.368 . S
C2434 C2428 1.368 . S
C2434 C2433 1.523 . S
C2435 C2419 1.429 . S
C2435 C2431 1.429 . S
C2435 C2436 1.523 . S
C2436 C2420 1.368 . S
C2436 C2432 1.368 . S
C2436 C2435 1.523 . S
H2437 C2412 0.950 . S
H2438 C2414 0.950 . S
H2439 C2415 0.949 . S
H2440 C2417 0.950 . S
H2441 C2419 0.950 . S
C2442 C2443 1.349 . S
C2442 C2444 1.327 . S
C2442 H2467 0.950 . S
C2443 C2442 1.349 . S
C2443 C2459 1.349 . S
C2444 C2442 1.327 . S
C2444 C2463 1.429 . S
C2444 H2468 0.950 . S
C2445 C2462 1.574 . S
C2445 C2464 1.368 . S
C2445 H2469 0.949 . S
H2446 C2450 0.949 . S
C2447 C2448 1.349 . S
C2447 C2449 1.327 . S
C2447 H2470 0.950 . S
C2448 C2447 1.349 . S
C2448 C2460 1.349 . S
C2449 C2447 1.327 . S
C2449 C2465 1.429 . S
C2449 H2471 0.950 . S
C2450 H2446 0.949 . S
C2450 C2458 1.574 . S
C2450 C2466 1.368 . S
H2451 C2459 0.950 . S
H2452 C2457 0.950 . S
H2453 C2458 0.949 . S
H2454 C2460 0.950 . S
H2455 C2461 0.950 . S
H2456 C2462 0.949 . S
C2457 H2452 0.950 . S
C2457 C2459 1.327 . S
C2457 C2463 1.429 . S
C2458 C2450 1.574 . S
C2458 H2453 0.949 . S
C2458 C2464 1.368 . S
C2459 C2443 1.349 . S
C2459 H2451 0.950 . S
C2459 C2457 1.327 . S
C2460 C2448 1.349 . S
C2460 H2454 0.950 . S
C2460 C2461 1.327 . S
C2461 H2455 0.950 . S
C2461 C2460 1.327 . S
C2461 C2465 1.429 . S
C2462 C2445 1.574 . S
C2462 H2456 0.949 . S
C2462 C2466 1.368 . S
C2463 C2444 1.429 . S
C2463 C2457 1.429 . S
C2463 C2464 1.523 . S
C2464 C2445 1.368 . S
C2464 C2458 1.368 . S
C2464 C2463 1.523 . S
C2465 C2449 1.429 . S
C2465 C2461 1.429 . S
C2465 C2466 1.523 . S
C2466 C2450 1.368 . S
C2466 C2462 1.368 . S
C2466 C2465 1.523 . S
H2467 C2442 0.950 . S
H2468 C2444 0.950 . S
H2469 C2445 0.949 . S
H2470 C2447 0.950 . S
H2471 C2449 0.950 . S
C2472 C2473 1.349 . S
C2472 C2474 1.327 . S
C2472 H2497 0.950 . S
C2473 C2472 1.349 . S
C2473 C2489 1.349 . S
C2474 C2472 1.327 . S
C2474 C2493 1.429 . S
C2474 H2498 0.950 . S
C2475 C2492 1.574 . S
C2475 C2494 1.368 . S
C2475 H2499 0.949 . S
H2476 C2480 0.949 . S
C2477 C2478 1.349 . S
C2477 C2479 1.327 . S
C2477 H2500 0.950 . S
C2478 C2477 1.349 . S
C2478 C2490 1.349 . S
C2479 C2477 1.327 . S
C2479 C2495 1.429 . S
C2479 H2501 0.950 . S
C2480 H2476 0.949 . S
C2480 C2488 1.574 . S
C2480 C2496 1.368 . S
H2481 C2489 0.950 . S
H2482 C2487 0.950 . S
H2483 C2488 0.949 . S
H2484 C2490 0.950 . S
H2485 C2491 0.950 . S
H2486 C2492 0.949 . S
C2487 H2482 0.950 . S
C2487 C2489 1.327 . S
C2487 C2493 1.429 . S
C2488 C2480 1.574 . S
C2488 H2483 0.949 . S
C2488 C2494 1.368 . S
C2489 C2473 1.349 . S
C2489 H2481 0.950 . S
C2489 C2487 1.327 . S
C2490 C2478 1.349 . S
C2490 H2484 0.950 . S
C2490 C2491 1.327 . S
C2491 H2485 0.950 . S
C2491 C2490 1.327 . S
C2491 C2495 1.429 . S
C2492 C2475 1.574 . S
C2492 H2486 0.949 . S
C2492 C2496 1.368 . S
C2493 C2474 1.429 . S
C2493 C2487 1.429 . S
C2493 C2494 1.523 . S
C2494 C2475 1.368 . S
C2494 C2488 1.368 . S
C2494 C2493 1.523 . S
C2495 C2479 1.429 . S
C2495 C2491 1.429 . S
C2495 C2496 1.523 . S
C2496 C2480 1.368 . S
C2496 C2492 1.368 . S
C2496 C2495 1.523 . S
H2497 C2472 0.950 . S
H2498 C2474 0.950 . S
H2499 C2475 0.949 . S
H2500 C2477 0.950 . S
H2501 C2479 0.950 . S
C2502 C2503 1.349 . S
C2502 C2504 1.327 . S
C2502 H2527 0.950 . S
C2503 C2502 1.349 . S
C2503 C2519 1.349 . S
C2504 C2502 1.327 . S
C2504 C2523 1.429 . S
C2504 H2528 0.950 . S
C2505 C2522 1.574 . S
C2505 C2524 1.368 . S
C2505 H2529 0.949 . S
H2506 C2510 0.949 . S
C2507 C2508 1.349 . S
C2507 C2509 1.327 . S
C2507 H2530 0.950 . S
C2508 C2507 1.349 . S
C2508 C2520 1.349 . S
C2509 C2507 1.327 . S
C2509 C2525 1.429 . S
C2509 H2531 0.950 . S
C2510 H2506 0.949 . S
C2510 C2518 1.574 . S
C2510 C2526 1.368 . S
H2511 C2519 0.950 . S
H2512 C2517 0.950 . S
H2513 C2518 0.949 . S
H2514 C2520 0.950 . S
H2515 C2521 0.950 . S
H2516 C2522 0.949 . S
C2517 H2512 0.950 . S
C2517 C2519 1.327 . S
C2517 C2523 1.429 . S
C2518 C2510 1.574 . S
C2518 H2513 0.949 . S
C2518 C2524 1.368 . S
C2519 C2503 1.349 . S
C2519 H2511 0.950 . S
C2519 C2517 1.327 . S
C2520 C2508 1.349 . S
C2520 H2514 0.950 . S
C2520 C2521 1.327 . S
C2521 H2515 0.950 . S
C2521 C2520 1.327 . S
C2521 C2525 1.429 . S
C2522 C2505 1.574 . S
C2522 H2516 0.949 . S
C2522 C2526 1.368 . S
C2523 C2504 1.429 . S
C2523 C2517 1.429 . S
C2523 C2524 1.523 . S
C2524 C2505 1.368 . S
C2524 C2518 1.368 . S
C2524 C2523 1.523 . S
C2525 C2509 1.429 . S
C2525 C2521 1.429 . S
C2525 C2526 1.523 . S
C2526 C2510 1.368 . S
C2526 C2522 1.368 . S
C2526 C2525 1.523 . S
H2527 C2502 0.950 . S
H2528 C2504 0.950 . S
H2529 C2505 0.949 . S
H2530 C2507 0.950 . S
H2531 C2509 0.950 . S
C2532 C2533 1.349 . S
C2532 C2534 1.327 . S
C2532 H2557 0.950 . S
C2533 C2532 1.349 . S
C2533 C2549 1.349 . S
C2534 C2532 1.327 . S
C2534 C2553 1.429 . S
C2534 H2558 0.950 . S
C2535 C2552 1.574 . S
C2535 C2554 1.368 . S
C2535 H2559 0.949 . S
H2536 C2540 0.949 . S
C2537 C2538 1.349 . S
C2537 C2539 1.327 . S
C2537 H2560 0.950 . S
C2538 C2537 1.349 . S
C2538 C2550 1.349 . S
C2539 C2537 1.327 . S
C2539 C2555 1.429 . S
C2539 H2561 0.950 . S
C2540 H2536 0.949 . S
C2540 C2548 1.574 . S
C2540 C2556 1.368 . S
H2541 C2549 0.950 . S
H2542 C2547 0.950 . S
H2543 C2548 0.949 . S
H2544 C2550 0.950 . S
H2545 C2551 0.950 . S
H2546 C2552 0.949 . S
C2547 H2542 0.950 . S
C2547 C2549 1.327 . S
C2547 C2553 1.429 . S
C2548 C2540 1.574 . S
C2548 H2543 0.949 . S
C2548 C2554 1.368 . S
C2549 C2533 1.349 . S
C2549 H2541 0.950 . S
C2549 C2547 1.327 . S
C2550 C2538 1.349 . S
C2550 H2544 0.950 . S
C2550 C2551 1.327 . S
C2551 H2545 0.950 . S
C2551 C2550 1.327 . S
C2551 C2555 1.429 . S
C2552 C2535 1.574 . S
C2552 H2546 0.949 . S
C2552 C2556 1.368 . S
C2553 C2534 1.429 . S
C2553 C2547 1.429 . S
C2553 C2554 1.523 . S
C2554 C2535 1.368 . S
C2554 C2548 1.368 . S
C2554 C2553 1.523 . S
C2555 C2539 1.429 . S
C2555 C2551 1.429 . S
C2555 C2556 1.523 . S
C2556 C2540 1.368 . S
C2556 C2552 1.368 . S
C2556 C2555 1.523 . S
H2557 C2532 0.950 . S
H2558 C2534 0.950 . S
H2559 C2535 0.949 . S
H2560 C2537 0.950 . S
H2561 C2539 0.950 . S
C2562 C2563 1.349 . S
C2562 C2564 1.327 . S
C2562 H2587 0.950 . S
C2563 C2562 1.349 . S
C2563 C2579 1.349 . S
C2564 C2562 1.327 . S
C2564 C2583 1.429 . S
C2564 H2588 0.950 . S
C2565 C2582 1.574 . S
C2565 C2584 1.368 . S
C2565 H2589 0.949 . S
H2566 C2570 0.949 . S
C2567 C2568 1.349 . S
C2567 C2569 1.327 . S
C2567 H2590 0.950 . S
C2568 C2567 1.349 . S
C2568 C2580 1.349 . S
C2569 C2567 1.327 . S
C2569 C2585 1.429 . S
C2569 H2591 0.950 . S
C2570 H2566 0.949 . S
C2570 C2578 1.574 . S
C2570 C2586 1.368 . S
H2571 C2579 0.950 . S
H2572 C2577 0.950 . S
H2573 C2578 0.949 . S
H2574 C2580 0.950 . S
H2575 C2581 0.950 . S
H2576 C2582 0.949 . S
C2577 H2572 0.950 . S
C2577 C2579 1.327 . S
C2577 C2583 1.429 . S
C2578 C2570 1.574 . S
C2578 H2573 0.949 . S
C2578 C2584 1.368 . S
C2579 C2563 1.349 . S
C2579 H2571 0.950 . S
C2579 C2577 1.327 . S
C2580 C2568 1.349 . S
C2580 H2574 0.950 . S
C2580 C2581 1.327 . S
C2581 H2575 0.950 . S
C2581 C2580 1.327 . S
C2581 C2585 1.429 . S
C2582 C2565 1.574 . S
C2582 H2576 0.949 . S
C2582 C2586 1.368 . S
C2583 C2564 1.429 . S
C2583 C2577 1.429 . S
C2583 C2584 1.523 . S
C2584 C2565 1.368 . S
C2584 C2578 1.368 . S
C2584 C2583 1.523 . S
C2585 C2569 1.429 . S
C2585 C2581 1.429 . S
C2585 C2586 1.523 . S
C2586 C2570 1.368 . S
C2586 C2582 1.368 . S
C2586 C2585 1.523 . S
H2587 C2562 0.950 . S
H2588 C2564 0.950 . S
H2589 C2565 0.949 . S
H2590 C2567 0.950 . S
H2591 C2569 0.950 . S
C2592 C2593 1.349 . S
C2592 C2594 1.327 . S
C2592 H2617 0.950 . S
C2593 C2592 1.349 . S
C2593 C2609 1.349 . S
C2594 C2592 1.327 . S
C2594 C2613 1.429 . S
C2594 H2618 0.950 . S
C2595 C2612 1.574 . S
C2595 C2614 1.368 . S
C2595 H2619 0.949 . S
H2596 C2600 0.949 . S
C2597 C2598 1.349 . S
C2597 C2599 1.327 . S
C2597 H2620 0.950 . S
C2598 C2597 1.349 . S
C2598 C2610 1.349 . S
C2599 C2597 1.327 . S
C2599 C2615 1.429 . S
C2599 H2621 0.950 . S
C2600 H2596 0.949 . S
C2600 C2608 1.574 . S
C2600 C2616 1.368 . S
H2601 C2609 0.950 . S
H2602 C2607 0.950 . S
H2603 C2608 0.949 . S
H2604 C2610 0.950 . S
H2605 C2611 0.950 . S
H2606 C2612 0.949 . S
C2607 H2602 0.950 . S
C2607 C2609 1.327 . S
C2607 C2613 1.429 . S
C2608 C2600 1.574 . S
C2608 H2603 0.949 . S
C2608 C2614 1.368 . S
C2609 C2593 1.349 . S
C2609 H2601 0.950 . S
C2609 C2607 1.327 . S
C2610 C2598 1.349 . S
C2610 H2604 0.950 . S
C2610 C2611 1.327 . S
C2611 H2605 0.950 . S
C2611 C2610 1.327 . S
C2611 C2615 1.429 . S
C2612 C2595 1.574 . S
C2612 H2606 0.949 . S
C2612 C2616 1.368 . S
C2613 C2594 1.429 . S
C2613 C2607 1.429 . S
C2613 C2614 1.523 . S
C2614 C2595 1.368 . S
C2614 C2608 1.368 . S
C2614 C2613 1.523 . S
C2615 C2599 1.429 . S
C2615 C2611 1.429 . S
C2615 C2616 1.523 . S
C2616 C2600 1.368 . S
C2616 C2612 1.368 . S
C2616 C2615 1.523 . S
H2617 C2592 0.950 . S
H2618 C2594 0.950 . S
H2619 C2595 0.949 . S
H2620 C2597 0.950 . S
H2621 C2599 0.950 . S
C2622 C2623 1.349 . S
C2622 C2624 1.327 . S
C2622 H2647 0.950 . S
C2623 C2622 1.349 . S
C2623 C2639 1.349 . S
C2624 C2622 1.327 . S
C2624 C2643 1.429 . S
C2624 H2648 0.950 . S
C2625 C2642 1.574 . S
C2625 C2644 1.368 . S
C2625 H2649 0.949 . S
H2626 C2630 0.949 . S
C2627 C2628 1.349 . S
C2627 C2629 1.327 . S
C2627 H2650 0.950 . S
C2628 C2627 1.349 . S
C2628 C2640 1.349 . S
C2629 C2627 1.327 . S
C2629 C2645 1.429 . S
C2629 H2651 0.950 . S
C2630 H2626 0.949 . S
C2630 C2638 1.574 . S
C2630 C2646 1.368 . S
H2631 C2639 0.950 . S
H2632 C2637 0.950 . S
H2633 C2638 0.949 . S
H2634 C2640 0.950 . S
H2635 C2641 0.950 . S
H2636 C2642 0.949 . S
C2637 H2632 0.950 . S
C2637 C2639 1.327 . S
C2637 C2643 1.429 . S
C2638 C2630 1.574 . S
C2638 H2633 0.949 . S
C2638 C2644 1.368 . S
C2639 C2623 1.349 . S
C2639 H2631 0.950 . S
C2639 C2637 1.327 . S
C2640 C2628 1.349 . S
C2640 H2634 0.950 . S
C2640 C2641 1.327 . S
C2641 H2635 0.950 . S
C2641 C2640 1.327 . S
C2641 C2645 1.429 . S
C2642 C2625 1.574 . S
C2642 H2636 0.949 . S
C2642 C2646 1.368 . S
C2643 C2624 1.429 . S
C2643 C2637 1.429 . S
C2643 C2644 1.523 . S
C2644 C2625 1.368 . S
C2644 C2638 1.368 . S
C2644 C2643 1.523 . S
C2645 C2629 1.429 . S
C2645 C2641 1.429 . S
C2645 C2646 1.523 . S
C2646 C2630 1.368 . S
C2646 C2642 1.368 . S
C2646 C2645 1.523 . S
H2647 C2622 0.950 . S
H2648 C2624 0.950 . S
H2649 C2625 0.949 . S
H2650 C2627 0.950 . S
H2651 C2629 0.950 . S
C2652 C2653 1.349 . S
C2652 C2654 1.327 . S
C2652 H2677 0.950 . S
C2653 C2652 1.349 . S
C2653 C2669 1.349 . S
C2654 C2652 1.327 . S
C2654 C2673 1.429 . S
C2654 H2678 0.950 . S
C2655 C2672 1.574 . S
C2655 C2674 1.368 . S
C2655 H2679 0.949 . S
H2656 C2660 0.949 . S
C2657 C2658 1.349 . S
C2657 C2659 1.327 . S
C2657 H2680 0.950 . S
C2658 C2657 1.349 . S
C2658 C2670 1.349 . S
C2659 C2657 1.327 . S
C2659 C2675 1.429 . S
C2659 H2681 0.950 . S
C2660 H2656 0.949 . S
C2660 C2668 1.574 . S
C2660 C2676 1.368 . S
H2661 C2669 0.950 . S
H2662 C2667 0.950 . S
H2663 C2668 0.949 . S
H2664 C2670 0.950 . S
H2665 C2671 0.950 . S
H2666 C2672 0.949 . S
C2667 H2662 0.950 . S
C2667 C2669 1.327 . S
C2667 C2673 1.429 . S
C2668 C2660 1.574 . S
C2668 H2663 0.949 . S
C2668 C2674 1.368 . S
C2669 C2653 1.349 . S
C2669 H2661 0.950 . S
C2669 C2667 1.327 . S
C2670 C2658 1.349 . S
C2670 H2664 0.950 . S
C2670 C2671 1.327 . S
C2671 H2665 0.950 . S
C2671 C2670 1.327 . S
C2671 C2675 1.429 . S
C2672 C2655 1.574 . S
C2672 H2666 0.949 . S
C2672 C2676 1.368 . S
C2673 C2654 1.429 . S
C2673 C2667 1.429 . S
C2673 C2674 1.523 . S
C2674 C2655 1.368 . S
C2674 C2668 1.368 . S
C2674 C2673 1.523 . S
C2675 C2659 1.429 . S
C2675 C2671 1.429 . S
C2675 C2676 1.523 . S
C2676 C2660 1.368 . S
C2676 C2672 1.368 . S
C2676 C2675 1.523 . S
H2677 C2652 0.950 . S
H2678 C2654 0.950 . S
H2679 C2655 0.949 . S
H2680 C2657 0.950 . S
H2681 C2659 0.950 . S
C2682 C2683 1.349 . S
C2682 C2684 1.327 . S
C2682 H2707 0.950 . S
C2683 C2682 1.349 . S
C2683 C2699 1.349 . S
C2684 C2682 1.327 . S
C2684 C2703 1.429 . S
C2684 H2708 0.950 . S
C2685 C2702 1.574 . S
C2685 C2704 1.368 . S
C2685 H2709 0.949 . S
H2686 C2690 0.949 . S
C2687 C2688 1.349 . S
C2687 C2689 1.327 . S
C2687 H2710 0.950 . S
C2688 C2687 1.349 . S
C2688 C2700 1.349 . S
C2689 C2687 1.327 . S
C2689 C2705 1.429 . S
C2689 H2711 0.950 . S
C2690 H2686 0.949 . S
C2690 C2698 1.574 . S
C2690 C2706 1.368 . S
H2691 C2699 0.950 . S
H2692 C2697 0.950 . S
H2693 C2698 0.949 . S
H2694 C2700 0.950 . S
H2695 C2701 0.950 . S
H2696 C2702 0.949 . S
C2697 H2692 0.950 . S
C2697 C2699 1.327 . S
C2697 C2703 1.429 . S
C2698 C2690 1.574 . S
C2698 H2693 0.949 . S
C2698 C2704 1.368 . S
C2699 C2683 1.349 . S
C2699 H2691 0.950 . S
C2699 C2697 1.327 . S
C2700 C2688 1.349 . S
C2700 H2694 0.950 . S
C2700 C2701 1.327 . S
C2701 H2695 0.950 . S
C2701 C2700 1.327 . S
C2701 C2705 1.429 . S
C2702 C2685 1.574 . S
C2702 H2696 0.949 . S
C2702 C2706 1.368 . S
C2703 C2684 1.429 . S
C2703 C2697 1.429 . S
C2703 C2704 1.523 . S
C2704 C2685 1.368 . S
C2704 C2698 1.368 . S
C2704 C2703 1.523 . S
C2705 C2689 1.429 . S
C2705 C2701 1.429 . S
C2705 C2706 1.523 . S
C2706 C2690 1.368 . S
C2706 C2702 1.368 . S
C2706 C2705 1.523 . S
H2707 C2682 0.950 . S
H2708 C2684 0.950 . S
H2709 C2685 0.949 . S
H2710 C2687 0.950 . S
H2711 C2689 0.950 . S
C2712 C2713 1.349 . S
C2712 C2714 1.327 . S
C2712 H2737 0.950 . S
C2713 C2712 1.349 . S
C2713 C2729 1.349 . S
C2714 C2712 1.327 . S
C2714 C2733 1.429 . S
C2714 H2738 0.950 . S
C2715 C2732 1.574 . S
C2715 C2734 1.368 . S
C2715 H2739 0.949 . S
H2716 C2720 0.949 . S
C2717 C2718 1.349 . S
C2717 C2719 1.327 . S
C2717 H2740 0.950 . S
C2718 C2717 1.349 . S
C2718 C2730 1.349 . S
C2719 C2717 1.327 . S
C2719 C2735 1.429 . S
C2719 H2741 0.950 . S
C2720 H2716 0.949 . S
C2720 C2728 1.574 . S
C2720 C2736 1.368 . S
H2721 C2729 0.950 . S
H2722 C2727 0.950 . S
H2723 C2728 0.949 . S
H2724 C2730 0.950 . S
H2725 C2731 0.950 . S
H2726 C2732 0.949 . S
C2727 H2722 0.950 . S
C2727 C2729 1.327 . S
C2727 C2733 1.429 . S
C2728 C2720 1.574 . S
C2728 H2723 0.949 . S
C2728 C2734 1.368 . S
C2729 C2713 1.349 . S
C2729 H2721 0.950 . S
C2729 C2727 1.327 . S
C2730 C2718 1.349 . S
C2730 H2724 0.950 . S
C2730 C2731 1.327 . S
C2731 H2725 0.950 . S
C2731 C2730 1.327 . S
C2731 C2735 1.429 . S
C2732 C2715 1.574 . S
C2732 H2726 0.949 . S
C2732 C2736 1.368 . S
C2733 C2714 1.429 . S
C2733 C2727 1.429 . S
C2733 C2734 1.523 . S
C2734 C2715 1.368 . S
C2734 C2728 1.368 . S
C2734 C2733 1.523 . S
C2735 C2719 1.429 . S
C2735 C2731 1.429 . S
C2735 C2736 1.523 . S
C2736 C2720 1.368 . S
C2736 C2732 1.368 . S
C2736 C2735 1.523 . S
H2737 C2712 0.950 . S
H2738 C2714 0.950 . S
H2739 C2715 0.949 . S
H2740 C2717 0.950 . S
H2741 C2719 0.950 . S
C2742 C2743 1.349 . S
C2742 C2744 1.327 . S
C2742 H2767 0.950 . S
C2743 C2742 1.349 . S
C2743 C2759 1.349 . S
C2744 C2742 1.327 . S
C2744 C2763 1.429 . S
C2744 H2768 0.950 . S
C2745 C2762 1.574 . S
C2745 C2764 1.368 . S
C2745 H2769 0.949 . S
H2746 C2750 0.949 . S
C2747 C2748 1.349 . S
C2747 C2749 1.327 . S
C2747 H2770 0.950 . S
C2748 C2747 1.349 . S
C2748 C2760 1.349 . S
C2749 C2747 1.327 . S
C2749 C2765 1.429 . S
C2749 H2771 0.950 . S
C2750 H2746 0.949 . S
C2750 C2758 1.574 . S
C2750 C2766 1.368 . S
H2751 C2759 0.950 . S
H2752 C2757 0.950 . S
H2753 C2758 0.949 . S
H2754 C2760 0.950 . S
H2755 C2761 0.950 . S
H2756 C2762 0.949 . S
C2757 H2752 0.950 . S
C2757 C2759 1.327 . S
C2757 C2763 1.429 . S
C2758 C2750 1.574 . S
C2758 H2753 0.949 . S
C2758 C2764 1.368 . S
C2759 C2743 1.349 . S
C2759 H2751 0.950 . S
C2759 C2757 1.327 . S
C2760 C2748 1.349 . S
C2760 H2754 0.950 . S
C2760 C2761 1.327 . S
C2761 H2755 0.950 . S
C2761 C2760 1.327 . S
C2761 C2765 1.429 . S
C2762 C2745 1.574 . S
C2762 H2756 0.949 . S
C2762 C2766 1.368 . S
C2763 C2744 1.429 . S
C2763 C2757 1.429 . S
C2763 C2764 1.523 . S
C2764 C2745 1.368 . S
C2764 C2758 1.368 . S
C2764 C2763 1.523 . S
C2765 C2749 1.429 . S
C2765 C2761 1.429 . S
C2765 C2766 1.523 . S
C2766 C2750 1.368 . S
C2766 C2762 1.368 . S
C2766 C2765 1.523 . S
H2767 C2742 0.950 . S
H2768 C2744 0.950 . S
H2769 C2745 0.949 . S
H2770 C2747 0.950 . S
H2771 C2749 0.950 . S
C2772 C2773 1.349 . S
C2772 C2774 1.327 . S
C2772 H2797 0.950 . S
C2773 C2772 1.349 . S
C2773 C2789 1.349 . S
C2774 C2772 1.327 . S
C2774 C2793 1.429 . S
C2774 H2798 0.950 . S
C2775 C2792 1.574 . S
C2775 C2794 1.368 . S
C2775 H2799 0.949 . S
H2776 C2780 0.949 . S
C2777 C2778 1.349 . S
C2777 C2779 1.327 . S
C2777 H2800 0.950 . S
C2778 C2777 1.349 . S
C2778 C2790 1.349 . S
C2779 C2777 1.327 . S
C2779 C2795 1.429 . S
C2779 H2801 0.950 . S
C2780 H2776 0.949 . S
C2780 C2788 1.574 . S
C2780 C2796 1.368 . S
H2781 C2789 0.950 . S
H2782 C2787 0.950 . S
H2783 C2788 0.949 . S
H2784 C2790 0.950 . S
H2785 C2791 0.950 . S
H2786 C2792 0.949 . S
C2787 H2782 0.950 . S
C2787 C2789 1.327 . S
C2787 C2793 1.429 . S
C2788 C2780 1.574 . S
C2788 H2783 0.949 . S
C2788 C2794 1.368 . S
C2789 C2773 1.349 . S
C2789 H2781 0.950 . S
C2789 C2787 1.327 . S
C2790 C2778 1.349 . S
C2790 H2784 0.950 . S
C2790 C2791 1.327 . S
C2791 H2785 0.950 . S
C2791 C2790 1.327 . S
C2791 C2795 1.429 . S
C2792 C2775 1.574 . S
C2792 H2786 0.949 . S
C2792 C2796 1.368 . S
C2793 C2774 1.429 . S
C2793 C2787 1.429 . S
C2793 C2794 1.523 . S
C2794 C2775 1.368 . S
C2794 C2788 1.368 . S
C2794 C2793 1.523 . S
C2795 C2779 1.429 . S
C2795 C2791 1.429 . S
C2795 C2796 1.523 . S
C2796 C2780 1.368 . S
C2796 C2792 1.368 . S
C2796 C2795 1.523 . S
H2797 C2772 0.950 . S
H2798 C2774 0.950 . S
H2799 C2775 0.949 . S
H2800 C2777 0.950 . S
H2801 C2779 0.950 . S
C2802 C2803 1.349 . S
C2802 C2804 1.327 . S
C2802 H2827 0.950 . S
C2803 C2802 1.349 . S
C2803 C2819 1.349 . S
C2804 C2802 1.327 . S
C2804 C2823 1.429 . S
C2804 H2828 0.950 . S
C2805 C2822 1.574 . S
C2805 C2824 1.368 . S
C2805 H2829 0.949 . S
H2806 C2810 0.949 . S
C2807 C2808 1.349 . S
C2807 C2809 1.327 . S
C2807 H2830 0.950 . S
C2808 C2807 1.349 . S
C2808 C2820 1.349 . S
C2809 C2807 1.327 . S
C2809 C2825 1.429 . S
C2809 H2831 0.950 . S
C2810 H2806 0.949 . S
C2810 C2818 1.574 . S
C2810 C2826 1.368 . S
H2811 C2819 0.950 . S
H2812 C2817 0.950 . S
H2813 C2818 0.949 . S
H2814 C2820 0.950 . S
H2815 C2821 0.950 . S
H2816 C2822 0.949 . S
C2817 H2812 0.950 . S
C2817 C2819 1.327 . S
C2817 C2823 1.429 . S
C2818 C2810 1.574 . S
C2818 H2813 0.949 . S
C2818 C2824 1.368 . S
C2819 C2803 1.349 . S
C2819 H2811 0.950 . S
C2819 C2817 1.327 . S
C2820 C2808 1.349 . S
C2820 H2814 0.950 . S
C2820 C2821 1.327 . S
C2821 H2815 0.950 . S
C2821 C2820 1.327 . S
C2821 C2825 1.429 . S
C2822 C2805 1.574 . S
C2822 H2816 0.949 . S
C2822 C2826 1.368 . S
C2823 C2804 1.429 . S
C2823 C2817 1.429 . S
C2823 C2824 1.523 . S
C2824 C2805 1.368 . S
C2824 C2818 1.368 . S
C2824 C2823 1.523 . S
C2825 C2809 1.429 . S
C2825 C2821 1.429 . S
C2825 C2826 1.523 . S
C2826 C2810 1.368 . S
C2826 C2822 1.368 . S
C2826 C2825 1.523 . S
H2827 C2802 0.950 . S
H2828 C2804 0.950 . S
H2829 C2805 0.949 . S
H2830 C2807 0.950 . S
H2831 C2809 0.950 . S
C2832 C2833 1.349 . S
C2832 C2834 1.327 . S
C2832 H2857 0.950 . S
C2833 C2832 1.349 . S
C2833 C2849 1.349 . S
C2834 C2832 1.327 . S
C2834 C2853 1.429 . S
C2834 H2858 0.950 . S
C2835 C2852 1.574 . S
C2835 C2854 1.368 . S
C2835 H2859 0.949 . S
H2836 C2840 0.949 . S
C2837 C2838 1.349 . S
C2837 C2839 1.327 . S
C2837 H2860 0.950 . S
C2838 C2837 1.349 . S
C2838 C2850 1.349 . S
C2839 C2837 1.327 . S
C2839 C2855 1.429 . S
C2839 H2861 0.950 . S
C2840 H2836 0.949 . S
C2840 C2848 1.574 . S
C2840 C2856 1.368 . S
H2841 C2849 0.950 . S
H2842 C2847 0.950 . S
H2843 C2848 0.949 . S
H2844 C2850 0.950 . S
H2845 C2851 0.950 . S
H2846 C2852 0.949 . S
C2847 H2842 0.950 . S
C2847 C2849 1.327 . S
C2847 C2853 1.429 . S
C2848 C2840 1.574 . S
C2848 H2843 0.949 . S
C2848 C2854 1.368 . S
C2849 C2833 1.349 . S
C2849 H2841 0.950 . S
C2849 C2847 1.327 . S
C2850 C2838 1.349 . S
C2850 H2844 0.950 . S
C2850 C2851 1.327 . S
C2851 H2845 0.950 . S
C2851 C2850 1.327 . S
C2851 C2855 1.429 . S
C2852 C2835 1.574 . S
C2852 H2846 0.949 . S
C2852 C2856 1.368 . S
C2853 C2834 1.429 . S
C2853 C2847 1.429 . S
C2853 C2854 1.523 . S
C2854 C2835 1.368 . S
C2854 C2848 1.368 . S
C2854 C2853 1.523 . S
C2855 C2839 1.429 . S
C2855 C2851 1.429 . S
C2855 C2856 1.523 . S
C2856 C2840 1.368 . S
C2856 C2852 1.368 . S
C2856 C2855 1.523 . S
H2857 C2832 0.950 . S
H2858 C2834 0.950 . S
H2859 C2835 0.949 . S
H2860 C2837 0.950 . S
H2861 C2839 0.950 . S
C2862 C2863 1.349 . S
C2862 C2864 1.327 . S
C2862 H2887 0.950 . S
C2863 C2862 1.349 . S
C2863 C2879 1.349 . S
C2864 C2862 1.327 . S
C2864 C2883 1.429 . S
C2864 H2888 0.950 . S
C2865 C2882 1.574 . S
C2865 C2884 1.368 . S
C2865 H2889 0.949 . S
H2866 C2870 0.949 . S
C2867 C2868 1.349 . S
C2867 C2869 1.327 . S
C2867 H2890 0.950 . S
C2868 C2867 1.349 . S
C2868 C2880 1.349 . S
C2869 C2867 1.327 . S
C2869 C2885 1.429 . S
C2869 H2891 0.950 . S
C2870 H2866 0.949 . S
C2870 C2878 1.574 . S
C2870 C2886 1.368 . S
H2871 C2879 0.950 . S
H2872 C2877 0.950 . S
H2873 C2878 0.949 . S
H2874 C2880 0.950 . S
H2875 C2881 0.950 . S
H2876 C2882 0.949 . S
C2877 H2872 0.950 . S
C2877 C2879 1.327 . S
C2877 C2883 1.429 . S
C2878 C2870 1.574 . S
C2878 H2873 0.949 . S
C2878 C2884 1.368 . S
C2879 C2863 1.349 . S
C2879 H2871 0.950 . S
C2879 C2877 1.327 . S
C2880 C2868 1.349 . S
C2880 H2874 0.950 . S
C2880 C2881 1.327 . S
C2881 H2875 0.950 . S
C2881 C2880 1.327 . S
C2881 C2885 1.429 . S
C2882 C2865 1.574 . S
C2882 H2876 0.949 . S
C2882 C2886 1.368 . S
C2883 C2864 1.429 . S
C2883 C2877 1.429 . S
C2883 C2884 1.523 . S
C2884 C2865 1.368 . S
C2884 C2878 1.368 . S
C2884 C2883 1.523 . S
C2885 C2869 1.429 . S
C2885 C2881 1.429 . S
C2885 C2886 1.523 . S
C2886 C2870 1.368 . S
C2886 C2882 1.368 . S
C2886 C2885 1.523 . S
H2887 C2862 0.950 . S
H2888 C2864 0.950 . S
H2889 C2865 0.949 . S
H2890 C2867 0.950 . S
H2891 C2869 0.950 . S
C2892 C2893 1.349 . S
C2892 C2894 1.327 . S
C2892 H2917 0.950 . S
C2893 C2892 1.349 . S
C2893 C2909 1.349 . S
C2894 C2892 1.327 . S
C2894 C2913 1.429 . S
C2894 H2918 0.950 . S
C2895 C2912 1.574 . S
C2895 C2914 1.368 . S
C2895 H2919 0.949 . S
H2896 C2900 0.949 . S
C2897 C2898 1.349 . S
C2897 C2899 1.327 . S
C2897 H2920 0.950 . S
C2898 C2897 1.349 . S
C2898 C2910 1.349 . S
C2899 C2897 1.327 . S
C2899 C2915 1.429 . S
C2899 H2921 0.950 . S
C2900 H2896 0.949 . S
C2900 C2908 1.574 . S
C2900 C2916 1.368 . S
H2901 C2909 0.950 . S
H2902 C2907 0.950 . S
H2903 C2908 0.949 . S
H2904 C2910 0.950 . S
H2905 C2911 0.950 . S
H2906 C2912 0.949 . S
C2907 H2902 0.950 . S
C2907 C2909 1.327 . S
C2907 C2913 1.429 . S
C2908 C2900 1.574 . S
C2908 H2903 0.949 . S
C2908 C2914 1.368 . S
C2909 C2893 1.349 . S
C2909 H2901 0.950 . S
C2909 C2907 1.327 . S
C2910 C2898 1.349 . S
C2910 H2904 0.950 . S
C2910 C2911 1.327 . S
C2911 H2905 0.950 . S
C2911 C2910 1.327 . S
C2911 C2915 1.429 . S
C2912 C2895 1.574 . S
C2912 H2906 0.949 . S
C2912 C2916 1.368 . S
C2913 C2894 1.429 . S
C2913 C2907 1.429 . S
C2913 C2914 1.523 . S
C2914 C2895 1.368 . S
C2914 C2908 1.368 . S
C2914 C2913 1.523 . S
C2915 C2899 1.429 . S
C2915 C2911 1.429 . S
C2915 C2916 1.523 . S
C2916 C2900 1.368 . S
C2916 C2912 1.368 . S
C2916 C2915 1.523 . S
H2917 C2892 0.950 . S
H2918 C2894 0.950 . S
H2919 C2895 0.949 . S
H2920 C2897 0.950 . S
H2921 C2899 0.950 . S
C2922 C2923 1.349 . S
C2922 C2924 1.327 . S
C2922 H2947 0.950 . S
C2923 C2922 1.349 . S
C2923 C2939 1.349 . S
C2924 C2922 1.327 . S
C2924 C2943 1.429 . S
C2924 H2948 0.950 . S
C2925 C2942 1.574 . S
C2925 C2944 1.368 . S
C2925 H2949 0.949 . S
H2926 C2930 0.949 . S
C2927 C2928 1.349 . S
C2927 C2929 1.327 . S
C2927 H2950 0.950 . S
C2928 C2927 1.349 . S
C2928 C2940 1.349 . S
C2929 C2927 1.327 . S
C2929 C2945 1.429 . S
C2929 H2951 0.950 . S
C2930 H2926 0.949 . S
C2930 C2938 1.574 . S
C2930 C2946 1.368 . S
H2931 C2939 0.950 . S
H2932 C2937 0.950 . S
H2933 C2938 0.949 . S
H2934 C2940 0.950 . S
H2935 C2941 0.950 . S
H2936 C2942 0.949 . S
C2937 H2932 0.950 . S
C2937 C2939 1.327 . S
C2937 C2943 1.429 . S
C2938 C2930 1.574 . S
C2938 H2933 0.949 . S
C2938 C2944 1.368 . S
C2939 C2923 1.349 . S
C2939 H2931 0.950 . S
C2939 C2937 1.327 . S
C2940 C2928 1.349 . S
C2940 H2934 0.950 . S
C2940 C2941 1.327 . S
C2941 H2935 0.950 . S
C2941 C2940 1.327 . S
C2941 C2945 1.429 . S
C2942 C2925 1.574 . S
C2942 H2936 0.949 . S
C2942 C2946 1.368 . S
C2943 C2924 1.429 . S
C2943 C2937 1.429 . S
C2943 C2944 1.523 . S
C2944 C2925 1.368 . S
C2944 C2938 1.368 . S
C2944 C2943 1.523 . S
C2945 C2929 1.429 . S
C2945 C2941 1.429 . S
C2945 C2946 1.523 . S
C2946 C2930 1.368 . S
C2946 C2942 1.368 . S
C2946 C2945 1.523 . S
H2947 C2922 0.950 . S
H2948 C2924 0.950 . S
H2949 C2925 0.949 . S
H2950 C2927 0.950 . S
H2951 C2929 0.950 . S
C2952 C2953 1.349 . S
C2952 C2954 1.327 . S
C2952 H2977 0.950 . S
C2953 C2952 1.349 . S
C2953 C2969 1.349 . S
C2954 C2952 1.327 . S
C2954 C2973 1.429 . S
C2954 H2978 0.950 . S
C2955 C2972 1.574 . S
C2955 C2974 1.368 . S
C2955 H2979 0.949 . S
H2956 C2960 0.949 . S
C2957 C2958 1.349 . S
C2957 C2959 1.327 . S
C2957 H2980 0.950 . S
C2958 C2957 1.349 . S
C2958 C2970 1.349 . S
C2959 C2957 1.327 . S
C2959 C2975 1.429 . S
C2959 H2981 0.950 . S
C2960 H2956 0.949 . S
C2960 C2968 1.574 . S
C2960 C2976 1.368 . S
H2961 C2969 0.950 . S
H2962 C2967 0.950 . S
H2963 C2968 0.949 . S
H2964 C2970 0.950 . S
H2965 C2971 0.950 . S
H2966 C2972 0.949 . S
C2967 H2962 0.950 . S
C2967 C2969 1.327 . S
C2967 C2973 1.429 . S
C2968 C2960 1.574 . S
C2968 H2963 0.949 . S
C2968 C2974 1.368 . S
C2969 C2953 1.349 . S
C2969 H2961 0.950 . S
C2969 C2967 1.327 . S
C2970 C2958 1.349 . S
C2970 H2964 0.950 . S
C2970 C2971 1.327 . S
C2971 H2965 0.950 . S
C2971 C2970 1.327 . S
C2971 C2975 1.429 . S
C2972 C2955 1.574 . S
C2972 H2966 0.949 . S
C2972 C2976 1.368 . S
C2973 C2954 1.429 . S
C2973 C2967 1.429 . S
C2973 C2974 1.523 . S
C2974 C2955 1.368 . S
C2974 C2968 1.368 . S
C2974 C2973 1.523 . S
C2975 C2959 1.429 . S
C2975 C2971 1.429 . S
C2975 C2976 1.523 . S
C2976 C2960 1.368 . S
C2976 C2972 1.368 . S
C2976 C2975 1.523 . S
H2977 C2952 0.950 . S
H2978 C2954 0.950 . S
H2979 C2955 0.949 . S
H2980 C2957 0.950 . S
H2981 C2959 0.950 . S
C2982 C2983 1.349 . S
C2982 C2984 1.327 . S
C2982 H3007 0.950 . S
C2983 C2982 1.349 . S
C2983 C2999 1.349 . S
C2984 C2982 1.327 . S
C2984 C3003 1.429 . S
C2984 H3008 0.950 . S
C2985 C3002 1.574 . S
C2985 C3004 1.368 . S
C2985 H3009 0.949 . S
H2986 C2990 0.949 . S
C2987 C2988 1.349 . S
C2987 C2989 1.327 . S
C2987 H3010 0.950 . S
C2988 C2987 1.349 . S
C2988 C3000 1.349 . S
C2989 C2987 1.327 . S
C2989 C3005 1.429 . S
C2989 H3011 0.950 . S
C2990 H2986 0.949 . S
C2990 C2998 1.574 . S
C2990 C3006 1.368 . S
H2991 C2999 0.950 . S
H2992 C2997 0.950 . S
H2993 C2998 0.949 . S
H2994 C3000 0.950 . S
H2995 C3001 0.950 . S
H2996 C3002 0.949 . S
C2997 H2992 0.950 . S
C2997 C2999 1.327 . S
C2997 C3003 1.429 . S
C2998 C2990 1.574 . S
C2998 H2993 0.949 . S
C2998 C3004 1.368 . S
C2999 C2983 1.349 . S
C2999 H2991 0.950 . S
C2999 C2997 1.327 . S
C3000 C2988 1.349 . S
C3000 H2994 0.950 . S
C3000 C3001 1.327 . S
C3001 H2995 0.950 . S
C3001 C3000 1.327 . S
C3001 C3005 1.429 . S
C3002 C2985 1.574 . S
C3002 H2996 0.949 . S
C3002 C3006 1.368 . S
C3003 C2984 1.429 . S
C3003 C2997 1.429 . S
C3003 C3004 1.523 . S
C3004 C2985 1.368 . S
C3004 C2998 1.368 . S
C3004 C3003 1.523 . S
C3005 C2989 1.429 . S
C3005 C3001 1.429 . S
C3005 C3006 1.523 . S
C3006 C2990 1.368 . S
C3006 C3002 1.368 . S
C3006 C3005 1.523 . S
H3007 C2982 0.950 . S
H3008 C2984 0.950 . S
H3009 C2985 0.949 . S
H3010 C2987 0.950 . S
H3011 C2989 0.950 . S
C3012 C3013 1.349 . S
C3012 C3014 1.327 . S
C3012 H3037 0.950 . S
C3013 C3012 1.349 . S
C3013 C3029 1.349 . S
C3014 C3012 1.327 . S
C3014 C3033 1.429 . S
C3014 H3038 0.950 . S
C3015 C3032 1.574 . S
C3015 C3034 1.368 . S
C3015 H3039 0.949 . S
H3016 C3020 0.949 . S
C3017 C3018 1.349 . S
C3017 C3019 1.327 . S
C3017 H3040 0.950 . S
C3018 C3017 1.349 . S
C3018 C3030 1.349 . S
C3019 C3017 1.327 . S
C3019 C3035 1.429 . S
C3019 H3041 0.950 . S
C3020 H3016 0.949 . S
C3020 C3028 1.574 . S
C3020 C3036 1.368 . S
H3021 C3029 0.950 . S
H3022 C3027 0.950 . S
H3023 C3028 0.949 . S
H3024 C3030 0.950 . S
H3025 C3031 0.950 . S
H3026 C3032 0.949 . S
C3027 H3022 0.950 . S
C3027 C3029 1.327 . S
C3027 C3033 1.429 . S
C3028 C3020 1.574 . S
C3028 H3023 0.949 . S
C3028 C3034 1.368 . S
C3029 C3013 1.349 . S
C3029 H3021 0.950 . S
C3029 C3027 1.327 . S
C3030 C3018 1.349 . S
C3030 H3024 0.950 . S
C3030 C3031 1.327 . S
C3031 H3025 0.950 . S
C3031 C3030 1.327 . S
C3031 C3035 1.429 . S
C3032 C3015 1.574 . S
C3032 H3026 0.949 . S
C3032 C3036 1.368 . S
C3033 C3014 1.429 . S
C3033 C3027 1.429 . S
C3033 C3034 1.523 . S
C3034 C3015 1.368 . S
C3034 C3028 1.368 . S
C3034 C3033 1.523 . S
C3035 C3019 1.429 . S
C3035 C3031 1.429 . S
C3035 C3036 1.523 . S
C3036 C3020 1.368 . S
C3036 C3032 1.368 . S
C3036 C3035 1.523 . S
H3037 C3012 0.950 . S
H3038 C3014 0.950 . S
H3039 C3015 0.949 . S
H3040 C3017 0.950 . S
H3041 C3019 0.950 . S
C3042 C3043 1.349 . S
C3042 C3044 1.327 . S
C3042 H3067 0.950 . S
C3043 C3042 1.349 . S
C3043 C3059 1.349 . S
C3044 C3042 1.327 . S
C3044 C3063 1.429 . S
C3044 H3068 0.950 . S
C3045 C3062 1.574 . S
C3045 C3064 1.368 . S
C3045 H3069 0.949 . S
H3046 C3050 0.949 . S
C3047 C3048 1.349 . S
C3047 C3049 1.327 . S
C3047 H3070 0.950 . S
C3048 C3047 1.349 . S
C3048 C3060 1.349 . S
C3049 C3047 1.327 . S
C3049 C3065 1.429 . S
C3049 H3071 0.950 . S
C3050 H3046 0.949 . S
C3050 C3058 1.574 . S
C3050 C3066 1.368 . S
H3051 C3059 0.950 . S
H3052 C3057 0.950 . S
H3053 C3058 0.949 . S
H3054 C3060 0.950 . S
H3055 C3061 0.950 . S
H3056 C3062 0.949 . S
C3057 H3052 0.950 . S
C3057 C3059 1.327 . S
C3057 C3063 1.429 . S
C3058 C3050 1.574 . S
C3058 H3053 0.949 . S
C3058 C3064 1.368 . S
C3059 C3043 1.349 . S
C3059 H3051 0.950 . S
C3059 C3057 1.327 . S
C3060 C3048 1.349 . S
C3060 H3054 0.950 . S
C3060 C3061 1.327 . S
C3061 H3055 0.950 . S
C3061 C3060 1.327 . S
C3061 C3065 1.429 . S
C3062 C3045 1.574 . S
C3062 H3056 0.949 . S
C3062 C3066 1.368 . S
C3063 C3044 1.429 . S
C3063 C3057 1.429 . S
C3063 C3064 1.523 . S
C3064 C3045 1.368 . S
C3064 C3058 1.368 . S
C3064 C3063 1.523 . S
C3065 C3049 1.429 . S
C3065 C3061 1.429 . S
C3065 C3066 1.523 . S
C3066 C3050 1.368 . S
C3066 C3062 1.368 . S
C3066 C3065 1.523 . S
H3067 C3042 0.950 . S
H3068 C3044 0.950 . S
H3069 C3045 0.949 . S
H3070 C3047 0.950 . S
H3071 C3049 0.950 . S
C3072 C3073 1.349 . S
C3072 C3074 1.327 . S
C3072 H3097 0.950 . S
C3073 C3072 1.349 . S
C3073 C3089 1.349 . S
C3074 C3072 1.327 . S
C3074 C3093 1.429 . S
C3074 H3098 0.950 . S
C3075 C3092 1.574 . S
C3075 C3094 1.368 . S
C3075 H3099 0.949 . S
H3076 C3080 0.949 . S
C3077 C3078 1.349 . S
C3077 C3079 1.327 . S
C3077 H3100 0.950 . S
C3078 C3077 1.349 . S
C3078 C3090 1.349 . S
C3079 C3077 1.327 . S
C3079 C3095 1.429 . S
C3079 H3101 0.950 . S
C3080 H3076 0.949 . S
C3080 C3088 1.574 . S
C3080 C3096 1.368 . S
H3081 C3089 0.950 . S
H3082 C3087 0.950 . S
H3083 C3088 0.949 . S
H3084 C3090 0.950 . S
H3085 C3091 0.950 . S
H3086 C3092 0.949 . S
C3087 H3082 0.950 . S
C3087 C3089 1.327 . S
C3087 C3093 1.429 . S
C3088 C3080 1.574 . S
C3088 H3083 0.949 . S
C3088 C3094 1.368 . S
C3089 C3073 1.349 . S
C3089 H3081 0.950 . S
C3089 C3087 1.327 . S
C3090 C3078 1.349 . S
C3090 H3084 0.950 . S
C3090 C3091 1.327 . S
C3091 H3085 0.950 . S
C3091 C3090 1.327 . S
C3091 C3095 1.429 . S
C3092 C3075 1.574 . S
C3092 H3086 0.949 . S
C3092 C3096 1.368 . S
C3093 C3074 1.429 . S
C3093 C3087 1.429 . S
C3093 C3094 1.523 . S
C3094 C3075 1.368 . S
C3094 C3088 1.368 . S
C3094 C3093 1.523 . S
C3095 C3079 1.429 . S
C3095 C3091 1.429 . S
C3095 C3096 1.523 . S
C3096 C3080 1.368 . S
C3096 C3092 1.368 . S
C3096 C3095 1.523 . S
H3097 C3072 0.950 . S
H3098 C3074 0.950 . S
H3099 C3075 0.949 . S
H3100 C3077 0.950 . S
H3101 C3079 0.950 . S
C3102 C3103 1.349 . S
C3102 C3104 1.327 . S
C3102 H3127 0.950 . S
C3103 C3102 1.349 . S
C3103 C3119 1.349 . S
C3104 C3102 1.327 . S
C3104 C3123 1.429 . S
C3104 H3128 0.950 . S
C3105 C3122 1.574 . S
C3105 C3124 1.368 . S
C3105 H3129 0.949 . S
H3106 C3110 0.949 . S
C3107 C3108 1.349 . S
C3107 C3109 1.327 . S
C3107 H3130 0.950 . S
C3108 C3107 1.349 . S
C3108 C3120 1.349 . S
C3109 C3107 1.327 . S
C3109 C3125 1.429 . S
C3109 H3131 0.950 . S
C3110 H3106 0.949 . S
C3110 C3118 1.574 . S
C3110 C3126 1.368 . S
H3111 C3119 0.950 . S
H3112 C3117 0.950 . S
H3113 C3118 0.949 . S
H3114 C3120 0.950 . S
H3115 C3121 0.950 . S
H3116 C3122 0.949 . S
C3117 H3112 0.950 . S
C3117 C3119 1.327 . S
C3117 C3123 1.429 . S
C3118 C3110 1.574 . S
C3118 H3113 0.949 . S
C3118 C3124 1.368 . S
C3119 C3103 1.349 . S
C3119 H3111 0.950 . S
C3119 C3117 1.327 . S
C3120 C3108 1.349 . S
C3120 H3114 0.950 . S
C3120 C3121 1.327 . S
C3121 H3115 0.950 . S
C3121 C3120 1.327 . S
C3121 C3125 1.429 . S
C3122 C3105 1.574 . S
C3122 H3116 0.949 . S
C3122 C3126 1.368 . S
C3123 C3104 1.429 . S
C3123 C3117 1.429 . S
C3123 C3124 1.523 . S
C3124 C3105 1.368 . S
C3124 C3118 1.368 . S
C3124 C3123 1.523 . S
C3125 C3109 1.429 . S
C3125 C3121 1.429 . S
C3125 C3126 1.523 . S
C3126 C3110 1.368 . S
C3126 C3122 1.368 . S
C3126 C3125 1.523 . S
H3127 C3102 0.950 . S
H3128 C3104 0.950 . S
H3129 C3105 0.949 . S
H3130 C3107 0.950 . S
H3131 C3109 0.950 . S
C3132 C3133 1.349 . S
C3132 C3134 1.327 . S
C3132 H3157 0.950 . S
C3133 C3132 1.349 . S
C3133 C3149 1.349 . S
C3134 C3132 1.327 . S
C3134 C3153 1.429 . S
C3134 H3158 0.950 . S
C3135 C3152 1.574 . S
C3135 C3154 1.368 . S
C3135 H3159 0.949 . S
H3136 C3140 0.949 . S
C3137 C3138 1.349 . S
C3137 C3139 1.327 . S
C3137 H3160 0.950 . S
C3138 C3137 1.349 . S
C3138 C3150 1.349 . S
C3139 C3137 1.327 . S
C3139 C3155 1.429 . S
C3139 H3161 0.950 . S
C3140 H3136 0.949 . S
C3140 C3148 1.574 . S
C3140 C3156 1.368 . S
H3141 C3149 0.950 . S
H3142 C3147 0.950 . S
H3143 C3148 0.949 . S
H3144 C3150 0.950 . S
H3145 C3151 0.950 . S
H3146 C3152 0.949 . S
C3147 H3142 0.950 . S
C3147 C3149 1.327 . S
C3147 C3153 1.429 . S
C3148 C3140 1.574 . S
C3148 H3143 0.949 . S
C3148 C3154 1.368 . S
C3149 C3133 1.349 . S
C3149 H3141 0.950 . S
C3149 C3147 1.327 . S
C3150 C3138 1.349 . S
C3150 H3144 0.950 . S
C3150 C3151 1.327 . S
C3151 H3145 0.950 . S
C3151 C3150 1.327 . S
C3151 C3155 1.429 . S
C3152 C3135 1.574 . S
C3152 H3146 0.949 . S
C3152 C3156 1.368 . S
C3153 C3134 1.429 . S
C3153 C3147 1.429 . S
C3153 C3154 1.523 . S
C3154 C3135 1.368 . S
C3154 C3148 1.368 . S
C3154 C3153 1.523 . S
C3155 C3139 1.429 . S
C3155 C3151 1.429 . S
C3155 C3156 1.523 . S
C3156 C3140 1.368 . S
C3156 C3152 1.368 . S
C3156 C3155 1.523 . S
H3157 C3132 0.950 . S
H3158 C3134 0.950 . S
H3159 C3135 0.949 . S
H3160 C3137 0.950 . S
H3161 C3139 0.950 . S
C3162 C3163 1.349 . S
C3162 C3164 1.327 . S
C3162 H3187 0.950 . S
C3163 C3162 1.349 . S
C3163 C3179 1.349 . S
C3164 C3162 1.327 . S
C3164 C3183 1.429 . S
C3164 H3188 0.950 . S
C3165 C3182 1.574 . S
C3165 C3184 1.368 . S
C3165 H3189 0.949 . S
H3166 C3170 0.949 . S
C3167 C3168 1.349 . S
C3167 C3169 1.327 . S
C3167 H3190 0.950 . S
C3168 C3167 1.349 . S
C3168 C3180 1.349 . S
C3169 C3167 1.327 . S
C3169 C3185 1.429 . S
C3169 H3191 0.950 . S
C3170 H3166 0.949 . S
C3170 C3178 1.574 . S
C3170 C3186 1.368 . S
H3171 C3179 0.950 . S
H3172 C3177 0.950 . S
H3173 C3178 0.949 . S
H3174 C3180 0.950 . S
H3175 C3181 0.950 . S
H3176 C3182 0.949 . S
C3177 H3172 0.950 . S
C3177 C3179 1.327 . S
C3177 C3183 1.429 . S
C3178 C3170 1.574 . S
C3178 H3173 0.949 . S
C3178 C3184 1.368 . S
C3179 C3163 1.349 . S
C3179 H3171 0.950 . S
C3179 C3177 1.327 . S
C3180 C3168 1.349 . S
C3180 H3174 0.950 . S
C3180 C3181 1.327 . S
C3181 H3175 0.950 . S
C3181 C3180 1.327 . S
C3181 C3185 1.429 . S
C3182 C3165 1.574 . S
C3182 H3176 0.949 . S
C3182 C3186 1.368 . S
C3183 C3164 1.429 . S
C3183 C3177 1.429 . S
C3183 C3184 1.523 . S
C3184 C3165 1.368 . S
C3184 C3178 1.368 . S
C3184 C3183 1.523 . S
C3185 C3169 1.429 . S
C3185 C3181 1.429 . S
C3185 C3186 1.523 . S
C3186 C3170 1.368 . S
C3186 C3182 1.368 . S
C3186 C3185 1.523 . S
H3187 C3162 0.950 . S
H3188 C3164 0.950 . S
H3189 C3165 0.949 . S
H3190 C3167 0.950 . S
H3191 C3169 0.950 . S
C3192 C3193 1.349 . S
C3192 C3194 1.327 . S
C3192 H3217 0.950 . S
C3193 C3192 1.349 . S
C3193 C3209 1.349 . S
C3194 C3192 1.327 . S
C3194 C3213 1.429 . S
C3194 H3218 0.950 . S
C3195 C3212 1.574 . S
C3195 C3214 1.368 . S
C3195 H3219 0.949 . S
H3196 C3200 0.949 . S
C3197 C3198 1.349 . S
C3197 C3199 1.327 . S
C3197 H3220 0.950 . S
C3198 C3197 1.349 . S
C3198 C3210 1.349 . S
C3199 C3197 1.327 . S
C3199 C3215 1.429 . S
C3199 H3221 0.950 . S
C3200 H3196 0.949 . S
C3200 C3208 1.574 . S
C3200 C3216 1.368 . S
H3201 C3209 0.950 . S
H3202 C3207 0.950 . S
H3203 C3208 0.949 . S
H3204 C3210 0.950 . S
H3205 C3211 0.950 . S
H3206 C3212 0.949 . S
C3207 H3202 0.950 . S
C3207 C3209 1.327 . S
C3207 C3213 1.429 . S
C3208 C3200 1.574 . S
C3208 H3203 0.949 . S
C3208 C3214 1.368 . S
C3209 C3193 1.349 . S
C3209 H3201 0.950 . S
C3209 C3207 1.327 . S
C3210 C3198 1.349 . S
C3210 H3204 0.950 . S
C3210 C3211 1.327 . S
C3211 H3205 0.950 . S
C3211 C3210 1.327 . S
C3211 C3215 1.429 . S
C3212 C3195 1.574 . S
C3212 H3206 0.949 . S
C3212 C3216 1.368 . S
C3213 C3194 1.429 . S
C3213 C3207 1.429 . S
C3213 C3214 1.523 . S
C3214 C3195 1.368 . S
C3214 C3208 1.368 . S
C3214 C3213 1.523 . S
C3215 C3199 1.429 . S
C3215 C3211 1.429 . S
C3215 C3216 1.523 . S
C3216 C3200 1.368 . S
C3216 C3212 1.368 . S
C3216 C3215 1.523 . S
H3217 C3192 0.950 . S
H3218 C3194 0.950 . S
H3219 C3195 0.949 . S
H3220 C3197 0.950 . S
H3221 C3199 0.950 . S
C3222 C3223 1.349 . S
C3222 C3224 1.327 . S
C3222 H3247 0.950 . S
C3223 C3222 1.349 . S
C3223 C3239 1.349 . S
C3224 C3222 1.327 . S
C3224 C3243 1.429 . S
C3224 H3248 0.950 . S
C3225 C3242 1.574 . S
C3225 C3244 1.368 . S
C3225 H3249 0.949 . S
H3226 C3230 0.949 . S
C3227 C3228 1.349 . S
C3227 C3229 1.327 . S
C3227 H3250 0.950 . S
C3228 C3227 1.349 . S
C3228 C3240 1.349 . S
C3229 C3227 1.327 . S
C3229 C3245 1.429 . S
C3229 H3251 0.950 . S
C3230 H3226 0.949 . S
C3230 C3238 1.574 . S
C3230 C3246 1.368 . S
H3231 C3239 0.950 . S
H3232 C3237 0.950 . S
H3233 C3238 0.949 . S
H3234 C3240 0.950 . S
H3235 C3241 0.950 . S
H3236 C3242 0.949 . S
C3237 H3232 0.950 . S
C3237 C3239 1.327 . S
C3237 C3243 1.429 . S
C3238 C3230 1.574 . S
C3238 H3233 0.949 . S
C3238 C3244 1.368 . S
C3239 C3223 1.349 . S
C3239 H3231 0.950 . S
C3239 C3237 1.327 . S
C3240 C3228 1.349 . S
C3240 H3234 0.950 . S
C3240 C3241 1.327 . S
C3241 H3235 0.950 . S
C3241 C3240 1.327 . S
C3241 C3245 1.429 . S
C3242 C3225 1.574 . S
C3242 H3236 0.949 . S
C3242 C3246 1.368 . S
C3243 C3224 1.429 . S
C3243 C3237 1.429 . S
C3243 C3244 1.523 . S
C3244 C3225 1.368 . S
C3244 C3238 1.368 . S
C3244 C3243 1.523 . S
C3245 C3229 1.429 . S
C3245 C3241 1.429 . S
C3245 C3246 1.523 . S
C3246 C3230 1.368 . S
C3246 C3242 1.368 . S
C3246 C3245 1.523 . S
H3247 C3222 0.950 . S
H3248 C3224 0.950 . S
H3249 C3225 0.949 . S
H3250 C3227 0.950 . S
H3251 C3229 0.950 . S
C3252 C3253 1.349 . S
C3252 C3254 1.327 . S
C3252 H3277 0.950 . S
C3253 C3252 1.349 . S
C3253 C3269 1.349 . S
C3254 C3252 1.327 . S
C3254 C3273 1.429 . S
C3254 H3278 0.950 . S
C3255 C3272 1.574 . S
C3255 C3274 1.368 . S
C3255 H3279 0.949 . S
H3256 C3260 0.949 . S
C3257 C3258 1.349 . S
C3257 C3259 1.327 . S
C3257 H3280 0.950 . S
C3258 C3257 1.349 . S
C3258 C3270 1.349 . S
C3259 C3257 1.327 . S
C3259 C3275 1.429 . S
C3259 H3281 0.950 . S
C3260 H3256 0.949 . S
C3260 C3268 1.574 . S
C3260 C3276 1.368 . S
H3261 C3269 0.950 . S
H3262 C3267 0.950 . S
H3263 C3268 0.949 . S
H3264 C3270 0.950 . S
H3265 C3271 0.950 . S
H3266 C3272 0.949 . S
C3267 H3262 0.950 . S
C3267 C3269 1.327 . S
C3267 C3273 1.429 . S
C3268 C3260 1.574 . S
C3268 H3263 0.949 . S
C3268 C3274 1.368 . S
C3269 C3253 1.349 . S
C3269 H3261 0.950 . S
C3269 C3267 1.327 . S
C3270 C3258 1.349 . S
C3270 H3264 0.950 . S
C3270 C3271 1.327 . S
C3271 H3265 0.950 . S
C3271 C3270 1.327 . S
C3271 C3275 1.429 . S
C3272 C3255 1.574 . S
C3272 H3266 0.949 . S
C3272 C3276 1.368 . S
C3273 C3254 1.429 . S
C3273 C3267 1.429 . S
C3273 C3274 1.523 . S
C3274 C3255 1.368 . S
C3274 C3268 1.368 . S
C3274 C3273 1.523 . S
C3275 C3259 1.429 . S
C3275 C3271 1.429 . S
C3275 C3276 1.523 . S
C3276 C3260 1.368 . S
C3276 C3272 1.368 . S
C3276 C3275 1.523 . S
H3277 C3252 0.950 . S
H3278 C3254 0.950 . S
H3279 C3255 0.949 . S
H3280 C3257 0.950 . S
H3281 C3259 0.950 . S
C3282 C3283 1.349 . S
C3282 C3284 1.327 . S
C3282 H3307 0.950 . S
C3283 C3282 1.349 . S
C3283 C3299 1.349 . S
C3284 C3282 1.327 . S
C3284 C3303 1.429 . S
C3284 H3308 0.950 . S
C3285 C3302 1.574 . S
C3285 C3304 1.368 . S
C3285 H3309 0.949 . S
H3286 C3290 0.949 . S
C3287 C3288 1.349 . S
C3287 C3289 1.327 . S
C3287 H3310 0.950 . S
C3288 C3287 1.349 . S
C3288 C3300 1.349 . S
C3289 C3287 1.327 . S
C3289 C3305 1.429 . S
C3289 H3311 0.950 . S
C3290 H3286 0.949 . S
C3290 C3298 1.574 . S
C3290 C3306 1.368 . S
H3291 C3299 0.950 . S
H3292 C3297 0.950 . S
H3293 C3298 0.949 . S
H3294 C3300 0.950 . S
H3295 C3301 0.950 . S
H3296 C3302 0.949 . S
C3297 H3292 0.950 . S
C3297 C3299 1.327 . S
C3297 C3303 1.429 . S
C3298 C3290 1.574 . S
C3298 H3293 0.949 . S
C3298 C3304 1.368 . S
C3299 C3283 1.349 . S
C3299 H3291 0.950 . S
C3299 C3297 1.327 . S
C3300 C3288 1.349 . S
C3300 H3294 0.950 . S
C3300 C3301 1.327 . S
C3301 H3295 0.950 . S
C3301 C3300 1.327 . S
C3301 C3305 1.429 . S
C3302 C3285 1.574 . S
C3302 H3296 0.949 . S
C3302 C3306 1.368 . S
C3303 C3284 1.429 . S
C3303 C3297 1.429 . S
C3303 C3304 1.523 . S
C3304 C3285 1.368 . S
C3304 C3298 1.368 . S
C3304 C3303 1.523 . S
C3305 C3289 1.429 . S
C3305 C3301 1.429 . S
C3305 C3306 1.523 . S
C3306 C3290 1.368 . S
C3306 C3302 1.368 . S
C3306 C3305 1.523 . S
H3307 C3282 0.950 . S
H3308 C3284 0.950 . S
H3309 C3285 0.949 . S
H3310 C3287 0.950 . S
H3311 C3289 0.950 . S
C3312 C3313 1.349 . S
C3312 C3314 1.327 . S
C3312 H3337 0.950 . S
C3313 C3312 1.349 . S
C3313 C3329 1.349 . S
C3314 C3312 1.327 . S
C3314 C3333 1.429 . S
C3314 H3338 0.950 . S
C3315 C3332 1.574 . S
C3315 C3334 1.368 . S
C3315 H3339 0.949 . S
H3316 C3320 0.949 . S
C3317 C3318 1.349 . S
C3317 C3319 1.327 . S
C3317 H3340 0.950 . S
C3318 C3317 1.349 . S
C3318 C3330 1.349 . S
C3319 C3317 1.327 . S
C3319 C3335 1.429 . S
C3319 H3341 0.950 . S
C3320 H3316 0.949 . S
C3320 C3328 1.574 . S
C3320 C3336 1.368 . S
H3321 C3329 0.950 . S
H3322 C3327 0.950 . S
H3323 C3328 0.949 . S
H3324 C3330 0.950 . S
H3325 C3331 0.950 . S
H3326 C3332 0.949 . S
C3327 H3322 0.950 . S
C3327 C3329 1.327 . S
C3327 C3333 1.429 . S
C3328 C3320 1.574 . S
C3328 H3323 0.949 . S
C3328 C3334 1.368 . S
C3329 C3313 1.349 . S
C3329 H3321 0.950 . S
C3329 C3327 1.327 . S
C3330 C3318 1.349 . S
C3330 H3324 0.950 . S
C3330 C3331 1.327 . S
C3331 H3325 0.950 . S
C3331 C3330 1.327 . S
C3331 C3335 1.429 . S
C3332 C3315 1.574 . S
C3332 H3326 0.949 . S
C3332 C3336 1.368 . S
C3333 C3314 1.429 . S
C3333 C3327 1.429 . S
C3333 C3334 1.523 . S
C3334 C3315 1.368 . S
C3334 C3328 1.368 . S
C3334 C3333 1.523 . S
C3335 C3319 1.429 . S
C3335 C3331 1.429 . S
C3335 C3336 1.523 . S
C3336 C3320 1.368 . S
C3336 C3332 1.368 . S
C3336 C3335 1.523 . S
H3337 C3312 0.950 . S
H3338 C3314 0.950 . S
H3339 C3315 0.949 . S
H3340 C3317 0.950 . S
H3341 C3319 0.950 . S
C3342 C3343 1.349 . S
C3342 C3344 1.327 . S
C3342 H3367 0.950 . S
C3343 C3342 1.349 . S
C3343 C3359 1.349 . S
C3344 C3342 1.327 . S
C3344 C3363 1.429 . S
C3344 H3368 0.950 . S
C3345 C3362 1.574 . S
C3345 C3364 1.368 . S
C3345 H3369 0.949 . S
H3346 C3350 0.949 . S
C3347 C3348 1.349 . S
C3347 C3349 1.327 . S
C3347 H3370 0.950 . S
C3348 C3347 1.349 . S
C3348 C3360 1.349 . S
C3349 C3347 1.327 . S
C3349 C3365 1.429 . S
C3349 H3371 0.950 . S
C3350 H3346 0.949 . S
C3350 C3358 1.574 . S
C3350 C3366 1.368 . S
H3351 C3359 0.950 . S
H3352 C3357 0.950 . S
H3353 C3358 0.949 . S
H3354 C3360 0.950 . S
H3355 C3361 0.950 . S
H3356 C3362 0.949 . S
C3357 H3352 0.950 . S
C3357 C3359 1.327 . S
C3357 C3363 1.429 . S
C3358 C3350 1.574 . S
C3358 H3353 0.949 . S
C3358 C3364 1.368 . S
C3359 C3343 1.349 . S
C3359 H3351 0.950 . S
C3359 C3357 1.327 . S
C3360 C3348 1.349 . S
C3360 H3354 0.950 . S
C3360 C3361 1.327 . S
C3361 H3355 0.950 . S
C3361 C3360 1.327 . S
C3361 C3365 1.429 . S
C3362 C3345 1.574 . S
C3362 H3356 0.949 . S
C3362 C3366 1.368 . S
C3363 C3344 1.429 . S
C3363 C3357 1.429 . S
C3363 C3364 1.523 . S
C3364 C3345 1.368 . S
C3364 C3358 1.368 . S
C3364 C3363 1.523 . S
C3365 C3349 1.429 . S
C3365 C3361 1.429 . S
C3365 C3366 1.523 . S
C3366 C3350 1.368 . S
C3366 C3362 1.368 . S
C3366 C3365 1.523 . S
H3367 C3342 0.950 . S
H3368 C3344 0.950 . S
H3369 C3345 0.949 . S
H3370 C3347 0.950 . S
H3371 C3349 0.950 . S
C3372 C3373 1.349 . S
C3372 C3374 1.327 . S
C3372 H3397 0.950 . S
C3373 C3372 1.349 . S
C3373 C3389 1.349 . S
C3374 C3372 1.327 . S
C3374 C3393 1.429 . S
C3374 H3398 0.950 . S
C3375 C3392 1.574 . S
C3375 C3394 1.368 . S
C3375 H3399 0.949 . S
H3376 C3380 0.949 . S
C3377 C3378 1.349 . S
C3377 C3379 1.327 . S
C3377 H3400 0.950 . S
C3378 C3377 1.349 . S
C3378 C3390 1.349 . S
C3379 C3377 1.327 . S
C3379 C3395 1.429 . S
C3379 H3401 0.950 . S
C3380 H3376 0.949 . S
C3380 C3388 1.574 . S
C3380 C3396 1.368 . S
H3381 C3389 0.950 . S
H3382 C3387 0.950 . S
H3383 C3388 0.949 . S
H3384 C3390 0.950 . S
H3385 C3391 0.950 . S
H3386 C3392 0.949 . S
C3387 H3382 0.950 . S
C3387 C3389 1.327 . S
C3387 C3393 1.429 . S
C3388 C3380 1.574 . S
C3388 H3383 0.949 . S
C3388 C3394 1.368 . S
C3389 C3373 1.349 . S
C3389 H3381 0.950 . S
C3389 C3387 1.327 . S
C3390 C3378 1.349 . S
C3390 H3384 0.950 . S
C3390 C3391 1.327 . S
C3391 H3385 0.950 . S
C3391 C3390 1.327 . S
C3391 C3395 1.429 . S
C3392 C3375 1.574 . S
C3392 H3386 0.949 . S
C3392 C3396 1.368 . S
C3393 C3374 1.429 . S
C3393 C3387 1.429 . S
C3393 C3394 1.523 . S
C3394 C3375 1.368 . S
C3394 C3388 1.368 . S
C3394 C3393 1.523 . S
C3395 C3379 1.429 . S
C3395 C3391 1.429 . S
C3395 C3396 1.523 . S
C3396 C3380 1.368 . S
C3396 C3392 1.368 . S
C3396 C3395 1.523 . S
H3397 C3372 0.950 . S
H3398 C3374 0.950 . S
H3399 C3375 0.949 . S
H3400 C3377 0.950 . S
H3401 C3379 0.950 . S
C3402 C3403 1.349 . S
C3402 C3404 1.327 . S
C3402 H3427 0.950 . S
C3403 C3402 1.349 . S
C3403 C3419 1.349 . S
C3404 C3402 1.327 . S
C3404 C3423 1.429 . S
C3404 H3428 0.950 . S
C3405 C3422 1.574 . S
C3405 C3424 1.368 . S
C3405 H3429 0.949 . S
H3406 C3410 0.949 . S
C3407 C3408 1.349 . S
C3407 C3409 1.327 . S
C3407 H3430 0.950 . S
C3408 C3407 1.349 . S
C3408 C3420 1.349 . S
C3409 C3407 1.327 . S
C3409 C3425 1.429 . S
C3409 H3431 0.950 . S
C3410 H3406 0.949 . S
C3410 C3418 1.574 . S
C3410 C3426 1.368 . S
H3411 C3419 0.950 . S
H3412 C3417 0.950 . S
H3413 C3418 0.949 . S
H3414 C3420 0.950 . S
H3415 C3421 0.950 . S
H3416 C3422 0.949 . S
C3417 H3412 0.950 . S
C3417 C3419 1.327 . S
C3417 C3423 1.429 . S
C3418 C3410 1.574 . S
C3418 H3413 0.949 . S
C3418 C3424 1.368 . S
C3419 C3403 1.349 . S
C3419 H3411 0.950 . S
C3419 C3417 1.327 . S
C3420 C3408 1.349 . S
C3420 H3414 0.950 . S
C3420 C3421 1.327 . S
C3421 H3415 0.950 . S
C3421 C3420 1.327 . S
C3421 C3425 1.429 . S
C3422 C3405 1.574 . S
C3422 H3416 0.949 . S
C3422 C3426 1.368 . S
C3423 C3404 1.429 . S
C3423 C3417 1.429 . S
C3423 C3424 1.523 . S
C3424 C3405 1.368 . S
C3424 C3418 1.368 . S
C3424 C3423 1.523 . S
C3425 C3409 1.429 . S
C3425 C3421 1.429 . S
C3425 C3426 1.523 . S
C3426 C3410 1.368 . S
C3426 C3422 1.368 . S
C3426 C3425 1.523 . S
H3427 C3402 0.950 . S
H3428 C3404 0.950 . S
H3429 C3405 0.949 . S
H3430 C3407 0.950 . S
H3431 C3409 0.950 . S
C3432 C3433 1.349 . S
C3432 C3434 1.327 . S
C3432 H3457 0.950 . S
C3433 C3432 1.349 . S
C3433 C3449 1.349 . S
C3434 C3432 1.327 . S
C3434 C3453 1.429 . S
C3434 H3458 0.950 . S
C3435 C3452 1.574 . S
C3435 C3454 1.368 . S
C3435 H3459 0.949 . S
H3436 C3440 0.949 . S
C3437 C3438 1.349 . S
C3437 C3439 1.327 . S
C3437 H3460 0.950 . S
C3438 C3437 1.349 . S
C3438 C3450 1.349 . S
C3439 C3437 1.327 . S
C3439 C3455 1.429 . S
C3439 H3461 0.950 . S
C3440 H3436 0.949 . S
C3440 C3448 1.574 . S
C3440 C3456 1.368 . S
H3441 C3449 0.950 . S
H3442 C3447 0.950 . S
H3443 C3448 0.949 . S
H3444 C3450 0.950 . S
H3445 C3451 0.950 . S
H3446 C3452 0.949 . S
C3447 H3442 0.950 . S
C3447 C3449 1.327 . S
C3447 C3453 1.429 . S
C3448 C3440 1.574 . S
C3448 H3443 0.949 . S
C3448 C3454 1.368 . S
C3449 C3433 1.349 . S
C3449 H3441 0.950 . S
C3449 C3447 1.327 . S
C3450 C3438 1.349 . S
C3450 H3444 0.950 . S
C3450 C3451 1.327 . S
C3451 H3445 0.950 . S
C3451 C3450 1.327 . S
C3451 C3455 1.429 . S
C3452 C3435 1.574 . S
C3452 H3446 0.949 . S
C3452 C3456 1.368 . S
C3453 C3434 1.429 . S
C3453 C3447 1.429 . S
C3453 C3454 1.523 . S
C3454 C3435 1.368 . S
C3454 C3448 1.368 . S
C3454 C3453 1.523 . S
C3455 C3439 1.429 . S
C3455 C3451 1.429 . S
C3455 C3456 1.523 . S
C3456 C3440 1.368 . S
C3456 C3452 1.368 . S
C3456 C3455 1.523 . S
H3457 C3432 0.950 . S
H3458 C3434 0.950 . S
H3459 C3435 0.949 . S
H3460 C3437 0.950 . S
H3461 C3439 0.950 . S
C3462 C3463 1.349 . S
C3462 C3464 1.327 . S
C3462 H3487 0.950 . S
C3463 C3462 1.349 . S
C3463 C3479 1.349 . S
C3464 C3462 1.327 . S
C3464 C3483 1.429 . S
C3464 H3488 0.950 . S
C3465 C3482 1.574 . S
C3465 C3484 1.368 . S
C3465 H3489 0.949 . S
H3466 C3470 0.949 . S
C3467 C3468 1.349 . S
C3467 C3469 1.327 . S
C3467 H3490 0.950 . S
C3468 C3467 1.349 . S
C3468 C3480 1.349 . S
C3469 C3467 1.327 . S
C3469 C3485 1.429 . S
C3469 H3491 0.950 . S
C3470 H3466 0.949 . S
C3470 C3478 1.574 . S
C3470 C3486 1.368 . S
H3471 C3479 0.950 . S
H3472 C3477 0.950 . S
H3473 C3478 0.949 . S
H3474 C3480 0.950 . S
H3475 C3481 0.950 . S
H3476 C3482 0.949 . S
C3477 H3472 0.950 . S
C3477 C3479 1.327 . S
C3477 C3483 1.429 . S
C3478 C3470 1.574 . S
C3478 H3473 0.949 . S
C3478 C3484 1.368 . S
C3479 C3463 1.349 . S
C3479 H3471 0.950 . S
C3479 C3477 1.327 . S
C3480 C3468 1.349 . S
C3480 H3474 0.950 . S
C3480 C3481 1.327 . S
C3481 H3475 0.950 . S
C3481 C3480 1.327 . S
C3481 C3485 1.429 . S
C3482 C3465 1.574 . S
C3482 H3476 0.949 . S
C3482 C3486 1.368 . S
C3483 C3464 1.429 . S
C3483 C3477 1.429 . S
C3483 C3484 1.523 . S
C3484 C3465 1.368 . S
C3484 C3478 1.368 . S
C3484 C3483 1.523 . S
C3485 C3469 1.429 . S
C3485 C3481 1.429 . S
C3485 C3486 1.523 . S
C3486 C3470 1.368 . S
C3486 C3482 1.368 . S
C3486 C3485 1.523 . S
H3487 C3462 0.950 . S
H3488 C3464 0.950 . S
H3489 C3465 0.949 . S
H3490 C3467 0.950 . S
H3491 C3469 0.950 . S
C3492 C3493 1.349 . S
C3492 C3494 1.327 . S
C3492 H3517 0.950 . S
C3493 C3492 1.349 . S
C3493 C3509 1.349 . S
C3494 C3492 1.327 . S
C3494 C3513 1.429 . S
C3494 H3518 0.950 . S
C3495 C3512 1.574 . S
C3495 C3514 1.368 . S
C3495 H3519 0.949 . S
H3496 C3500 0.949 . S
C3497 C3498 1.349 . S
C3497 C3499 1.327 . S
C3497 H3520 0.950 . S
C3498 C3497 1.349 . S
C3498 C3510 1.349 . S
C3499 C3497 1.327 . S
C3499 C3515 1.429 . S
C3499 H3521 0.950 . S
C3500 H3496 0.949 . S
C3500 C3508 1.574 . S
C3500 C3516 1.368 . S
H3501 C3509 0.950 . S
H3502 C3507 0.950 . S
H3503 C3508 0.949 . S
H3504 C3510 0.950 . S
H3505 C3511 0.950 . S
H3506 C3512 0.949 . S
C3507 H3502 0.950 . S
C3507 C3509 1.327 . S
C3507 C3513 1.429 . S
C3508 C3500 1.574 . S
C3508 H3503 0.949 . S
C3508 C3514 1.368 . S
C3509 C3493 1.349 . S
C3509 H3501 0.950 . S
C3509 C3507 1.327 . S
C3510 C3498 1.349 . S
C3510 H3504 0.950 . S
C3510 C3511 1.327 . S
C3511 H3505 0.950 . S
C3511 C3510 1.327 . S
C3511 C3515 1.429 . S
C3512 C3495 1.574 . S
C3512 H3506 0.949 . S
C3512 C3516 1.368 . S
C3513 C3494 1.429 . S
C3513 C3507 1.429 . S
C3513 C3514 1.523 . S
C3514 C3495 1.368 . S
C3514 C3508 1.368 . S
C3514 C3513 1.523 . S
C3515 C3499 1.429 . S
C3515 C3511 1.429 . S
C3515 C3516 1.523 . S
C3516 C3500 1.368 . S
C3516 C3512 1.368 . S
C3516 C3515 1.523 . S
H3517 C3492 0.950 . S
H3518 C3494 0.950 . S
H3519 C3495 0.949 . S
H3520 C3497 0.950 . S
H3521 C3499 0.950 . S
C3522 C3523 1.349 . S
C3522 C3524 1.327 . S
C3522 H3547 0.950 . S
C3523 C3522 1.349 . S
C3523 C3539 1.349 . S
C3524 C3522 1.327 . S
C3524 C3543 1.429 . S
C3524 H3548 0.950 . S
C3525 C3542 1.574 . S
C3525 C3544 1.368 . S
C3525 H3549 0.949 . S
H3526 C3530 0.949 . S
C3527 C3528 1.349 . S
C3527 C3529 1.327 . S
C3527 H3550 0.950 . S
C3528 C3527 1.349 . S
C3528 C3540 1.349 . S
C3529 C3527 1.327 . S
C3529 C3545 1.429 . S
C3529 H3551 0.950 . S
C3530 H3526 0.949 . S
C3530 C3538 1.574 . S
C3530 C3546 1.368 . S
H3531 C3539 0.950 . S
H3532 C3537 0.950 . S
H3533 C3538 0.949 . S
H3534 C3540 0.950 . S
H3535 C3541 0.950 . S
H3536 C3542 0.949 . S
C3537 H3532 0.950 . S
C3537 C3539 1.327 . S
C3537 C3543 1.429 . S
C3538 C3530 1.574 . S
C3538 H3533 0.949 . S
C3538 C3544 1.368 . S
C3539 C3523 1.349 . S
C3539 H3531 0.950 . S
C3539 C3537 1.327 . S
C3540 C3528 1.349 . S
C3540 H3534 0.950 . S
C3540 C3541 1.327 . S
C3541 H3535 0.950 . S
C3541 C3540 1.327 . S
C3541 C3545 1.429 . S
C3542 C3525 1.574 . S
C3542 H3536 0.949 . S
C3542 C3546 1.368 . S
C3543 C3524 1.429 . S
C3543 C3537 1.429 . S
C3543 C3544 1.523 . S
C3544 C3525 1.368 . S
C3544 C3538 1.368 . S
C3544 C3543 1.523 . S
C3545 C3529 1.429 . S
C3545 C3541 1.429 . S
C3545 C3546 1.523 . S
C3546 C3530 1.368 . S
C3546 C3542 1.368 . S
C3546 C3545 1.523 . S
H3547 C3522 0.950 . S
H3548 C3524 0.950 . S
H3549 C3525 0.949 . S
H3550 C3527 0.950 . S
H3551 C3529 0.950 . S
C673 C224 1.399 . S
C678 C0 1.374 . S
C703 C671 1.446 . S
C708 C26 1.416 . S
C733 C40 1.396 . S
C738 C642 1.419 . S
C763 C55 1.348 . S
C768 C656 1.368 . S
C793 C251 1.459 . S
C798 C68 1.434 . S
C823 C71 1.454 . S
C828 C253 1.480 . S
C853 C97 1.451 . S
C858 C266 1.479 . S
C883 C617 1.405 . S
C888 C99 1.385 . S
C913 C112 1.374 . S
C918 C13 1.398 . S
C943 C15 1.456 . S
C948 C138 1.436 . S
C973 C29 1.370 . S
C978 C141 1.342 . S
C1003 C42 1.477 . S
C1008 C167 1.458 . S
C1033 C57 1.419 . S
C1038 C169 1.394 . S
C1063 C194 1.361 . S
C1068 C82 1.382 . S
C1093 C84 1.391 . S
C1098 C197 1.364 . S
C1123 C223 1.385 . S
C1128 C110 1.404 . S
C1153 C237 1.372 . S
C1158 C125 1.398 . S
C1183 C180 1.370 . S
C1188 C238 1.344 . S
C1213 C264 1.346 . S
C1218 C183 1.369 . S
C1243 C279 1.397 . S
C1248 C208 1.427 . S
C1273 C547 1.427 . S
C1278 C292 1.397 . S
C1303 C307 1.364 . S
C1308 C476 1.391 . S
C1333 C502 1.446 . S
C1338 C309 1.418 . S
C1363 C463 1.477 . S
C1368 C323 1.458 . S
C1393 C572 1.447 . S
C1398 C349 1.418 . S
C1423 C363 1.363 . S
C1428 C334 1.382 . S
C1453 C376 1.399 . S
C1458 C294 1.427 . S
C1483 C391 1.434 . S
C1488 C320 1.459 . S
C1513 C392 1.366 . S
C1518 C575 1.391 . S
C1543 C589 1.351 . S
C1548 C407 1.322 . S
C1573 C433 1.342 . S
C1578 C602 1.370 . S
C1603 C281 1.427 . S
C1608 C434 1.397 . S
C1633 C336 1.447 . S
C1638 C448 1.420 . S
C1663 C474 1.346 . S
C1668 C350 1.368 . S
C1693 C489 1.451 . S
C1698 C365 1.478 . S
C1723 C491 1.326 . S
C1728 C378 1.346 . S
C1753 C505 1.397 . S
C1758 C405 1.427 . S
C1783 C519 1.418 . S
C1788 C418 1.446 . S
C1813 C420 1.460 . S
C1818 C532 1.434 . S
C1843 C447 1.427 . S
C1848 C558 1.397 . S
C1873 C461 1.447 . S
C1878 C561 1.418 . S
C1903 C516 1.479 . S
C1908 C586 1.453 . S
C1933 C530 1.456 . S
C1938 C600 1.436 . S
C1963 C615 1.394 . S
C1968 C545 1.419 . S
C1993 C628 1.383 . S
C1998 C210 1.404 . S
C2023 C631 1.432 . S
C2028 C152 1.460 . S
C2053 C154 1.383 . S
C2058 C645 1.364 . S
C2083 C658 1.324 . S
C2088 C127 1.347 . S
C2113 C12 1.543 . S
C2118 C390 1.512 . S
C2143 C348 1.773 . S
C2148 C14 1.803 . S
C2173 C28 1.484 . S
C2178 C362 1.454 . S
C2203 C43 1.785 . S
C2208 C377 1.753 . S
C2233 C56 1.611 . S
C2238 C70 1.578 . S
C2263 C96 1.910 . S
C2268 C83 1.941 . S
C2293 C85 1.552 . S
C2298 C98 1.520 . S
C2323 C111 1.922 . S
C2328 C69 1.899 . S
C2353 C124 1.543 . S
C2358 C601 1.514 . S
C2383 C126 1.868 . S
C2388 C614 1.847 . S
C2413 C153 1.771 . S
C2418 C293 1.740 . S
C2443 C155 1.936 . S
C2448 C587 1.913 . S
C2473 C181 1.484 . S
C2478 C644 1.454 . S
C2503 C236 1.826 . S
C2508 C182 1.858 . S
C2533 C209 1.712 . S
C2538 C659 1.682 . S
C2563 C630 1.896 . S
C2568 C211 1.927 . S
C2593 C139 1.520 . S
C2598 C225 1.537 . S
C2623 C250 1.771 . S
C2628 C559 1.740 . S
C2653 C252 1.785 . S
C2658 C504 1.755 . S
C2683 C518 1.791 . S
C2688 C267 1.825 . S
C2713 C280 1.730 . S
C2718 C196 1.699 . S
C2743 C490 1.680 . S
C2748 C295 1.712 . S
C2773 C449 1.770 . S
C2778 C321 1.802 . S
C2803 C488 1.910 . S
C2808 C335 1.941 . S
C2833 C337 1.768 . S
C2838 C54 1.735 . S
C2863 C351 1.853 . S
C2868 C1 1.830 . S
C2893 C27 1.794 . S
C2898 C364 1.825 . S
C2923 C379 1.868 . S
C2928 C41 1.844 . S
C2953 C404 1.712 . S
C2958 C406 1.680 . S
C2983 C432 1.682 . S
C2988 C419 1.712 . S
C3013 C435 1.740 . S
C3018 C421 1.771 . S
C3043 C446 1.730 . S
C3048 C393 1.697 . S
C3073 C265 1.737 . S
C3078 C460 1.768 . S
C3103 C462 1.785 . S
C3108 C278 1.755 . S
C3133 C477 1.552 . S
C3138 C629 1.522 . S
C3163 C503 1.712 . S
C3168 C239 1.680 . S
C3193 C517 1.825 . S
C3198 C308 1.791 . S
C3223 C531 1.802 . S
C3228 C560 1.773 . S
C3253 C322 1.584 . S
C3258 C544 1.605 . S
C3283 C546 1.730 . S
C3288 C306 1.699 . S
C3313 C475 1.737 . S
C3318 C573 1.768 . S
C3343 C222 1.525 . S
C3348 C574 1.545 . S
C3373 C168 1.841 . S
C3378 C588 1.873 . S
C3403 C603 1.484 . S
C3408 C195 1.456 . S
C3433 C616 1.922 . S
C3438 C533 1.899 . S
C3463 C166 1.584 . S
C3468 C643 1.605 . S
C3493 C657 1.853 . S
C3498 C113 1.830 . S
C3523 C140 1.682 . S
C3528 C670 1.713 . S
