# Generated by pormake.
# Topology uom, (4)-cn, num edge types: 1
# Building blocks:
#     Node 0, Type 0, BuildingBlock: KOZSID_clean_sbu_0, # of connection points: 4
#     Node 1, Type 0, BuildingBlock: KOZSID_clean_sbu_0, # of connection points: 4
#     Node 2, Type 0, BuildingBlock: KOZSID_clean_sbu_0, # of connection points: 4
#     Node 3, Type 0, BuildingBlock: KOZSID_clean_sbu_0, # of connection points: 4
#     Node 4, Type 0, BuildingBlock: KOZSID_clean_sbu_0, # of connection points: 4
#     Node 5, Type 0, BuildingBlock: KOZSID_clean_sbu_0, # of connection points: 4
#     Edge 6, Type (0, 0), BuildingBlock: ZUJKAS_clean_linker_0, # of connection points: 2
#     Edge 7, Type (0, 0), BuildingBlock: ZUJKAS_clean_linker_0, # of connection points: 2
#     Edge 8, Type (0, 0), BuildingBlock: ZUJKAS_clean_linker_0, # of connection points: 2
#     Edge 9, Type (0, 0), BuildingBlock: ZUJKAS_clean_linker_0, # of connection points: 2
#     Edge 10, Type (0, 0), BuildingBlock: ZUJKAS_clean_linker_0, # of connection points: 2
#     Edge 11, Type (0, 0), BuildingBlock: ZUJKAS_clean_linker_0, # of connection points: 2
#     Edge 12, Type (0, 0), BuildingBlock: ZUJKAS_clean_linker_0, # of connection points: 2
#     Edge 13, Type (0, 0), BuildingBlock: ZUJKAS_clean_linker_0, # of connection points: 2
#     Edge 14, Type (0, 0), BuildingBlock: ZUJKAS_clean_linker_0, # of connection points: 2
#     Edge 15, Type (0, 0), BuildingBlock: ZUJKAS_clean_linker_0, # of connection points: 2
#     Edge 16, Type (0, 0), BuildingBlock: ZUJKAS_clean_linker_0, # of connection points: 2
#     Edge 17, Type (0, 0), BuildingBlock: ZUJKAS_clean_linker_0, # of connection points: 2
# Relax obj value: 0.145
# Max RMSD: 0.171
# Mean RMSD: 0.171
data_MOF--net-uom--node1-KOZSID_clean_sbu_0--edge1-ZUJKAS_clean_linker_0
_symmetry_space_group_name_H-M    P1
_symmetry_Int_Tables_number       1
_symmetry_cell_setting            triclinic
loop_
_symmetry_equiv_pos_as_xyz
'x, y, z'
_cell_length_a     46.644783
_cell_length_b     46.634378
_cell_length_c     53.995449
_cell_angle_alpha  90.003305
_cell_angle_beta   89.998298
_cell_angle_gamma 119.9313
loop_
_atom_site_label
_atom_site_type_symbol
_atom_site_fract_x
_atom_site_fract_y
_atom_site_fract_z
_atom_type_partial_charge
C0 C 0.34685 0.12801 0.08463 0.0
C1 C 0.33816 0.10759 0.10529 0.0
C2 C 0.33632 0.0786 0.09773 0.0
C3 C 0.34352 0.0826 0.07289 0.0
N4 N 0.34942 0.1122 0.06437 0.0
Co5 Co 0.3593 0.12729 0.02948 0.0
N6 N 0.34123 0.08152 0.01706 0.0
C7 C 0.33708 0.05541 0.03044 0.0
C8 C 0.32391 0.02679 0.01671 0.0
C9 C 0.31962 0.03563 0.9933 0.0
C10 C 0.33031 0.06922 0.9941 0.0
N11 N 0.36905 0.14226 0.99456 0.0
C12 C 0.35549 0.12504 0.97343 0.0
C13 C 0.36818 0.14556 0.95291 0.0
C14 C 0.39084 0.17637 0.96165 0.0
C15 C 0.39057 0.17314 0.98695 0.0
N16 N 0.37759 0.17312 0.04183 0.0
C17 C 0.39868 0.20073 0.02941 0.0
C18 C 0.40801 0.22902 0.04287 0.0
C19 C 0.39192 0.21847 0.06515 0.0
C20 C 0.37344 0.18417 0.06402 0.0
N21 N 0.40284 0.13126 0.03256 0.0
C22 C 0.46261 0.13154 0.03817 0.0
C23 C 0.44401 0.11972 0.01639 0.0
C24 C 0.4143 0.11973 0.01398 0.0
C25 C 0.45118 0.14436 0.05675 0.0
C26 C 0.42131 0.14408 0.05355 0.0
N27 N 0.31587 0.12291 0.02618 0.0
C28 C 0.28091 0.14165 0.00847 0.0
C29 C 0.25301 0.1113 0.01426 0.0
C30 C 0.25703 0.08771 0.02737 0.0
C31 C 0.28864 0.09413 0.03337 0.0
C32 C 0.31225 0.14695 0.01458 0.0
H33 H 0.2911 0.07523 0.04297 0.0
H34 H 0.33357 0.16993 0.00908 0.0
H35 H 0.40026 0.10978 0.9972 0.0
H36 H 0.4128 0.15356 0.0683 0.0
C37 C 0.33925 0.0575 0.05636 0.0
C38 C 0.3547 0.16286 0.08502 0.0
C39 C 0.33184 0.08918 0.97252 0.0
C40 C 0.40454 0.19925 1.00407 0.0
H41 H 0.33354 0.11284 0.12389 0.0
H42 H 0.32913 0.05672 0.10882 0.0
H43 H 0.31675 0.00214 0.02318 0.0
H44 H 0.30975 0.01927 0.9775 0.0
H45 H 0.36165 0.13923 0.93368 0.0
H46 H 0.40446 0.1988 0.9509 0.0
H47 H 0.42374 0.25435 0.03693 0.0
H48 H 0.3939 0.23421 0.08055 0.0
H49 H 0.45222 0.11029 1.00128 0.0
H50 H 0.46465 0.15366 0.07394 0.0
H51 H 0.27861 0.16058 0.99853 0.0
H52 H 0.23588 0.06429 0.03272 0.0
C53 C 0.31502 0.34477 0.41986 0.0
C54 C 0.32362 0.33371 0.44092 0.0
C55 C 0.34783 0.32675 0.43393 0.0
C56 C 0.35271 0.33395 0.40909 0.0
N57 N 0.33292 0.3448 0.40008 0.0
Co58 Co 0.33223 0.35826 0.36538 0.0
N59 N 0.35368 0.33355 0.3532 0.0
C60 C 0.37178 0.32435 0.36696 0.0
C61 C 0.38421 0.30814 0.35332 0.0
C62 C 0.37329 0.30726 0.32955 0.0
C63 C 0.35458 0.3229 0.33004 0.0
N64 N 0.33126 0.37132 0.33055 0.0
C65 C 0.33305 0.35686 0.30922 0.0
C66 C 0.32923 0.37283 0.28885 0.0
C67 C 0.32578 0.3985 0.29787 0.0
C68 C 0.32728 0.39668 0.32318 0.0
N69 N 0.31118 0.38336 0.3777 0.0
C70 C 0.30985 0.40783 0.36551 0.0
C71 C 0.29339 0.42045 0.37862 0.0
C72 C 0.284 0.40291 0.4004 0.0
C73 C 0.29542 0.38055 0.39943 0.0
N74 N 0.37577 0.39736 0.36994 0.0
C75 C 0.43948 0.45168 0.37713 0.0
C76 C 0.43024 0.43469 0.35442 0.0
C77 C 0.39871 0.40737 0.35142 0.0
C78 C 0.41549 0.441 0.39594 0.0
C79 C 0.38376 0.41438 0.3918 0.0
N80 N 0.28907 0.3194 0.36077 0.0
C81 C 0.23395 0.29405 0.3444 0.0
C82 C 0.22846 0.26294 0.35169 0.0
C83 C 0.25369 0.2607 0.36398 0.0
C84 C 0.28379 0.28922 0.36834 0.0
C85 C 0.26442 0.32202 0.34922 0.0
H86 H 0.30302 0.28682 0.3775 0.0
H87 H 0.26819 0.34572 0.34332 0.0
H88 H 0.393 0.39424 0.33406 0.0
H89 H 0.36585 0.40723 0.40651 0.0
C90 C 0.37124 0.3259 0.39293 0.0
C91 C 0.29232 0.35807 0.41971 0.0
C92 C 0.34005 0.3293 0.30801 0.0
C93 C 0.31846 0.41354 0.34036 0.0
H94 H 0.31375 0.33137 0.45942 0.0
H95 H 0.35963 0.31662 0.44544 0.0
H96 H 0.39838 0.29709 0.35998 0.0
H97 H 0.37861 0.29651 0.31368 0.0
H98 H 0.32863 0.36658 0.26951 0.0
H99 H 0.32093 0.41531 0.28724 0.0
H100 H 0.28747 0.43903 0.37259 0.0
H101 H 0.27019 0.40612 0.41518 0.0
H102 H 0.44702 0.44219 0.33885 0.0
H103 H 0.42102 0.45257 0.414 0.0
H104 H 0.21486 0.29678 0.33511 0.0
H105 H 0.2505 0.23701 0.36969 0.0
C106 C 0.07099 0.31777 0.75478 0.0
C107 C 0.08984 0.32595 0.77623 0.0
C108 C 0.12128 0.35009 0.76984 0.0
C109 C 0.1199 0.35532 0.74493 0.0
N110 N 0.08959 0.33582 0.73534 0.0
Co111 Co 0.0767 0.33565 0.70039 0.0
N112 N 0.12321 0.35674 0.6891 0.0
C113 C 0.15012 0.37419 0.70334 0.0
C114 C 0.17911 0.38596 0.69024 0.0
C115 C 0.16969 0.37529 0.66633 0.0
C116 C 0.13537 0.35746 0.66619 0.0
N117 N 0.06395 0.33564 0.66538 0.0
C118 C 0.08093 0.338 0.64437 0.0
C119 C 0.06235 0.33579 0.62362 0.0
C120 C 0.03305 0.33244 0.63213 0.0
C121 C 0.03519 0.33258 0.65751 0.0
N122 N 0.03019 0.31459 0.71175 0.0
C123 C 0.00495 0.31386 0.69916 0.0
C124 C 0.97548 0.29739 0.71177 0.0
C125 C 0.98281 0.28737 0.73365 0.0
C126 C 0.01647 0.29835 0.73317 0.0
N127 N 0.0813 0.37925 0.70501 0.0
C128 C 0.08903 0.44216 0.71169 0.0
C129 C 0.10119 0.43467 0.69042 0.0
C130 C 0.09706 0.40316 0.68743 0.0
C131 C 0.07265 0.41737 0.72948 0.0
C132 C 0.06908 0.38611 0.72581 0.0
N133 N 0.07223 0.29241 0.69566 0.0
C134 C 0.04332 0.23804 0.67789 0.0
C135 C 0.06852 0.23214 0.68564 0.0
C136 C 0.09522 0.2567 0.69901 0.0
C137 C 0.09657 0.28663 0.70384 0.0
C138 C 0.04558 0.26833 0.68319 0.0
H139 H 0.11767 0.30538 0.71375 0.0
H140 H 0.02606 0.27248 0.67685 0.0
H141 H 0.10671 0.39818 0.67085 0.0
H142 H 0.05657 0.36755 0.73987 0.0
C143 C 0.14713 0.37356 0.72925 0.0
C144 C 0.03512 0.29484 0.75378 0.0
C145 C 0.11504 0.34384 0.6438 0.0
C146 C 0.00887 0.32342 0.67416 0.0
H147 H 0.08168 0.31575 0.79457 0.0
H148 H 0.1428 0.36149 0.78175 0.0
H149 H 0.2041 0.39949 0.69737 0.0
H150 H 0.18615 0.38022 0.65077 0.0
H151 H 0.06901 0.33627 0.60438 0.0
H152 H 0.01208 0.32865 0.62108 0.0
H153 H 0.9513 0.29205 0.70542 0.0
H154 H 0.96542 0.27362 0.74824 0.0
H155 H 0.11351 0.45291 0.67598 0.0
H156 H 0.06306 0.42217 0.74628 0.0
H157 H 0.02207 0.21945 0.66781 0.0
H158 H 0.11537 0.25318 0.70513 0.0
C159 C 0.85176 0.06998 0.08782 0.0
C160 C 0.86293 0.08827 0.10951 0.0
C161 C 0.87184 0.12031 0.10351 0.0
C162 C 0.86556 0.11981 0.0786 0.0
N163 N 0.8534 0.08948 0.06866 0.0
Co164 Co 0.8407 0.0777 0.03358 0.0
N165 N 0.86835 0.12423 0.02279 0.0
C166 C 0.87906 0.15107 0.03736 0.0
C167 C 0.89757 0.18012 0.0246 0.0
C168 C 0.89832 0.17085 1.00055 0.0
C169 C 0.88023 0.13653 0.99999 0.0
N170 N 0.82796 0.06602 0.99844 0.0
C171 C 0.84311 0.0831 0.9776 0.0
C172 C 0.82618 0.06549 0.95667 0.0
C173 C 0.79935 0.0367 0.96488 0.0
C174 C 0.8014 0.03817 0.99028 0.0
N175 N 0.81304 0.03118 0.04448 0.0
C176 C 0.78805 0.00691 0.03157 0.0
C177 C 0.77399 0.977 0.04364 0.0
C178 C 0.79116 0.98299 0.0655 0.0
C179 C 0.81472 0.0164 0.06564 0.0
N180 N 0.80328 0.08496 0.0382 0.0
C181 C 0.75058 0.09676 0.04493 0.0
C182 C 0.7705 0.10818 0.02374 0.0
C183 C 0.79663 0.10206 0.02075 0.0
C184 C 0.75746 0.079 0.0626 0.0
C185 C 0.78389 0.07337 0.05889 0.0
N186 N 0.87792 0.0706 0.02889 0.0
C187 C 0.90086 0.03896 0.01166 0.0
C188 C 0.93224 0.06243 0.02025 0.0
C189 C 0.93579 0.0898 0.03353 0.0
C190 C 0.90835 0.09341 0.03764 0.0
C191 C 0.87396 0.04345 0.01628 0.0
H192 H 0.91182 0.11495 0.04759 0.0
H193 H 0.85002 0.02515 0.00943 0.0
H194 H 0.8115 0.11126 1.00426 0.0
H195 H 0.78877 0.05981 0.07285 0.0
C196 C 0.87619 0.14761 0.06323 0.0
C197 C 0.83731 0.03389 0.08638 0.0
C198 C 0.87238 0.11654 0.97731 0.0
C199 C 0.78309 0.01181 1.00663 0.0
H200 H 0.86428 0.07936 0.12773 0.0
H201 H 0.88282 0.14159 0.11568 0.0
H202 H 0.91008 0.205 0.03201 0.0
H203 H 0.9105 0.18741 0.98517 0.0
H204 H 0.83254 0.07254 0.9375 0.0
H205 H 0.78144 0.01646 0.95363 0.0
H206 H 0.75471 0.95332 0.03687 0.0
H207 H 0.78689 0.96476 0.07956 0.0
H208 H 0.76575 0.12146 0.00936 0.0
H209 H 0.74285 0.06989 0.07934 0.0
H210 H 0.89711 0.01731 1.00153 0.0
H211 H 0.95974 0.10874 0.0402 0.0
C212 C 0.8809 0.84977 0.41642 0.0
C213 C 0.86927 0.85806 0.43734 0.0
C214 C 0.84214 0.86013 0.43005 0.0
C215 C 0.83876 0.85323 0.40514 0.0
N216 N 0.8623 0.84727 0.39635 0.0
Co217 Co 0.86653 0.83644 0.36152 0.0
N218 N 0.83871 0.85446 0.34932 0.0
C219 C 0.81713 0.85902 0.36287 0.0
C220 C 0.80169 0.8723 0.34922 0.0
C221 C 0.81445 0.87624 0.3257 0.0
C222 C 0.8371 0.86521 0.32636 0.0
N223 N 0.87095 0.82599 0.32664 0.0
C224 C 0.86695 0.83936 0.30553 0.0
C225 C 0.87371 0.82594 0.28493 0.0
C226 C 0.88187 0.80321 0.29363 0.0
C227 C 0.87981 0.80408 0.31899 0.0
N228 N 0.89401 0.81799 0.37369 0.0
C229 C 0.90018 0.7966 0.3613 0.0
C230 C 0.91958 0.78761 0.37458 0.0
C231 C 0.92575 0.80425 0.39669 0.0
C232 C 0.90978 0.82261 0.39565 0.0
N233 N 0.8269 0.7931 0.3653 0.0
C234 C 0.76658 0.73428 0.37219 0.0
C235 C 0.77454 0.75103 0.34939 0.0
C236 C 0.80431 0.78055 0.34653 0.0
C237 C 0.79055 0.74707 0.39103 0.0
C238 C 0.82069 0.776 0.38703 0.0
N239 N 0.90561 0.87961 0.35754 0.0
C240 C 0.95897 0.91373 0.33919 0.0
C241 C 0.95695 0.94196 0.34477 0.0
C242 C 0.9297 0.93854 0.35805 0.0
C243 C 0.90444 0.90716 0.36446 0.0
C244 C 0.93291 0.88267 0.34573 0.0
H245 H 0.88336 0.90513 0.37421 0.0
H246 H 0.93426 0.86109 0.34042 0.0
H247 H 0.80868 0.79358 0.32921 0.0
H248 H 0.83853 0.78507 0.40187 0.0
C249 C 0.81756 0.85728 0.38883 0.0
C250 C 0.90786 0.84195 0.41646 0.0
C251 C 0.85535 0.86348 0.30478 0.0
C252 C 0.89223 0.79025 0.33605 0.0
H253 H 0.87914 0.86198 0.45594 0.0
H254 H 0.82741 0.86702 0.44141 0.0
H255 H 0.78455 0.87986 0.35581 0.0
H256 H 0.808 0.88621 0.30993 0.0
H257 H 0.87308 0.83202 0.26568 0.0
H258 H 0.89002 0.78908 0.28279 0.0
H259 H 0.92912 0.77182 0.36861 0.0
H260 H 0.94011 0.80283 0.4119 0.0
H261 H 0.75786 0.74188 0.33375 0.0
H262 H 0.78599 0.73562 0.40911 0.0
H263 H 0.97991 0.91556 0.32912 0.0
H264 H 0.92778 0.95996 0.36325 0.0
C265 C 0.12899 0.88253 0.7506 0.0
C266 C 0.10927 0.87257 0.77168 0.0
C267 C 0.07929 0.84622 0.7649 0.0
C268 C 0.08208 0.84169 0.74009 0.0
N269 N 0.11188 0.86381 0.73085 0.0
Co270 Co 0.12573 0.86658 0.69582 0.0
N271 N 0.07933 0.84024 0.6843 0.0
C272 C 0.0531 0.82007 0.69833 0.0
C273 C 0.024 0.80571 0.68516 0.0
C274 C 0.03264 0.81764 0.66142 0.0
C275 C 0.06664 0.83865 0.66146 0.0
N276 N 0.13941 0.86932 0.66079 0.0
C277 C 0.12176 0.86556 0.63991 0.0
C278 C 0.14086 0.87007 0.61902 0.0
C279 C 0.17153 0.87694 0.62732 0.0
C280 C 0.16944 0.87619 0.65275 0.0
N281 N 0.17215 0.89271 0.70721 0.0
C282 C 0.19887 0.89713 0.69448 0.0
C283 C 0.22784 0.91567 0.70729 0.0
C284 C 0.21866 0.92312 0.72948 0.0
C285 C 0.18446 0.90875 0.72896 0.0
N286 N 0.12747 0.8259 0.6999 0.0
C287 C 0.12723 0.76629 0.70616 0.0
C288 C 0.11412 0.77223 0.68471 0.0
C289 C 0.11448 0.80209 0.68195 0.0
C290 C 0.14085 0.79103 0.7243 0.0
C291 C 0.14083 0.82069 0.72078 0.0
N292 N 0.12372 0.9068 0.69147 0.0
C293 C 0.1446 0.95974 0.67193 0.0
C294 C 0.11515 0.95934 0.67753 0.0
C295 C 0.09098 0.93324 0.69152 0.0
C296 C 0.09592 0.90738 0.69855 0.0
C297 C 0.14837 0.93308 0.67905 0.0
H298 H 0.07662 0.88716 0.70882 0.0
H299 H 0.17059 0.93307 0.67361 0.0
H300 H 0.1038 0.80572 0.66537 0.0
H301 H 0.15138 0.83928 0.73505 0.0
C302 C 0.05596 0.82111 0.72423 0.0
C303 C 0.16432 0.90813 0.75018 0.0
C304 C 0.08653 0.85572 0.63954 0.0
C305 C 0.19612 0.88809 0.66938 0.0
H306 H 0.11569 0.8831 0.79006 0.0
H307 H 0.05763 0.83291 0.77649 0.0
H308 H -0.00075 0.78994 0.69221 0.0
H309 H 0.01583 0.81178 0.64598 0.0
H310 H 0.1334 0.86859 0.59986 0.0
H311 H 0.19316 0.8833 0.61615 0.0
H312 H 0.25275 0.9237 0.701 0.0
H313 H 0.2352 0.93711 0.74444 0.0
H314 H 0.10293 0.75364 0.67036 0.0
H315 H 0.15156 0.78758 0.74104 0.0
H316 H 0.16394 0.97981 0.66136 0.0
H317 H 0.06826 0.93266 0.69673 0.0
H318 H 0.38376 0.16848 0.13032 0.0
H319 H 0.37845 0.19487 0.16788 0.0
H320 H 0.31599 0.22323 0.12844 0.0
H321 H 0.31957 0.19478 0.09134 0.0
H322 H 0.39705 0.25487 0.17868 0.0
H323 H 0.26092 0.18667 0.18848 0.0
H324 H 0.28201 0.17436 0.16665 0.0
H325 H 0.27352 0.20705 0.15909 0.0
C326 C 0.36807 0.17947 0.12993 0.0
C327 C 0.35102 0.17845 0.10818 0.0
C328 C 0.36535 0.19495 0.15134 0.0
C329 C 0.34606 0.21046 0.15144 0.0
C330 C 0.32996 0.21044 0.12936 0.0
H331 H 0.3755 0.35711 0.26541 0.0
H332 H 0.37573 0.32899 0.2272 0.0
C333 C 0.33221 0.19441 0.10805 0.0
C334 C 0.34409 0.22771 0.1743 0.0
H335 H 0.29029 0.2349 0.21349 0.0
C336 C 0.37362 0.25029 0.18631 0.0
C337 C 0.31361 0.22157 0.18473 0.0
C338 C 0.28074 0.19583 0.17423 0.0
C339 C 0.37362 0.26692 0.20809 0.0
C340 C 0.34323 0.26202 0.21782 0.0
C341 C 0.31367 0.23918 0.20598 0.0
C342 C 0.34151 0.27964 0.24053 0.0
C343 C 0.40626 0.28874 0.2208 0.0
C344 C 0.32097 0.26173 0.26052 0.0
C345 C 0.31988 0.27801 0.28205 0.0
C346 C 0.33921 0.31259 0.28411 0.0
C347 C 0.35962 0.33054 0.26413 0.0
C348 C 0.36028 0.31434 0.24243 0.0
H349 H 0.42485 0.28138 0.216 0.0
H350 H 0.41618 0.31468 0.2146 0.0
H351 H 0.40344 0.28781 0.24125 0.0
H352 H 0.30618 0.235 0.25967 0.0
H353 H 0.30429 0.26354 0.29732 0.0
H354 H 0.23494 0.30504 0.43596 0.0
H355 H 0.20359 0.3008 0.47377 0.0
H356 H 0.2758 0.40129 0.49274 0.0
H357 H 0.30725 0.40528 0.45512 0.0
H358 H 0.25887 0.35852 0.5327 0.0
H359 H 0.14592 0.34279 0.48599 0.0
H360 H 0.15818 0.31348 0.4767 0.0
H361 H 0.18447 0.35663 0.46977 0.0
C362 C 0.24388 0.3262 0.4482 0.0
C363 C 0.2731 0.35566 0.4425 0.0
C364 C 0.22594 0.32386 0.46971 0.0
C365 C 0.23694 0.35094 0.48596 0.0
C366 C 0.2666 0.38015 0.48046 0.0
H367 H 0.12975 0.38498 0.60381 0.0
H368 H 0.15886 0.38569 0.56569 0.0
C369 C 0.28448 0.38249 0.45895 0.0
C370 C 0.21799 0.34878 0.50889 0.0
H371 H 0.14338 0.33663 0.52965 0.0
C372 C 0.2336 0.35369 0.53201 0.0
C373 C 0.18511 0.34288 0.50807 0.0
C374 C 0.16744 0.33893 0.48382 0.0
C375 C 0.21725 0.35257 0.55424 0.0
C376 C 0.18413 0.34595 0.55345 0.0
C377 C 0.16861 0.34137 0.53032 0.0
C378 C 0.16555 0.34467 0.57637 0.0
C379 C 0.23586 0.35927 0.57836 0.0
C380 C 0.15916 0.32113 0.595 0.0
C381 C 0.14232 0.32059 0.61669 0.0
C382 C 0.1312 0.34331 0.62006 0.0
C383 C 0.13745 0.36675 0.60142 0.0
C384 C 0.1542 0.36724 0.57971 0.0
H385 H 0.26303 0.37178 0.57538 0.0
H386 H 0.23031 0.37489 0.59075 0.0
H387 H 0.22813 0.33545 0.58793 0.0
H388 H 0.16722 0.30316 0.59277 0.0
H389 H 0.13805 0.3025 0.63092 0.0
H390 H 0.84704 0.13617 0.93955 0.0
H391 H 0.87471 0.16481 0.90115 0.0
H392 H 0.96275 0.16349 0.9237 0.0
H393 H 0.93502 0.13503 0.96227 0.0
H394 H 0.97662 0.22429 0.90607 0.0
H395 H 0.8945 0.12677 0.83996 0.0
H396 H 0.8727 0.13912 0.86085 0.0
H397 H 0.89433 0.11915 0.87276 0.0
C398 C 0.87213 0.1416 0.93606 0.0
C399 C 0.88872 0.13279 0.95353 0.0
C400 C 0.88792 0.1579 0.91411 0.0
C401 C 0.92066 0.16575 0.90918 0.0
C402 C 0.93742 0.15744 0.92691 0.0
H403 H 0.02371 0.23354 0.76681 0.0
H404 H 0.99652 0.20198 0.80456 0.0
C405 C 0.92159 0.14113 0.94887 0.0
C406 C 0.93773 0.18361 0.88597 0.0
H407 H 0.93217 0.17942 0.82271 0.0
C408 C 0.96694 0.21438 0.88786 0.0
C409 C 0.92544 0.1706 0.86211 0.0
C410 C 0.89521 0.13695 0.8587 0.0
C411 C 0.98369 0.23275 0.86668 0.0
C412 C 0.97072 0.2203 0.84285 0.0
C413 C 0.94195 0.18918 0.84093 0.0
C414 C 0.98671 0.23919 0.81975 0.0
C415 C 0.01542 0.26518 0.86999 0.0
C416 C 0.98983 0.27038 0.81549 0.0
C417 C 0.0052 0.28825 0.79394 0.0
C418 C 0.01758 0.27521 0.77618 0.0
C419 C 0.01421 0.24396 0.78024 0.0
C420 C -0.00128 0.22599 0.80177 0.0
H421 H 0.02651 0.26701 0.88855 0.0
H422 H 0.03384 0.26841 0.85562 0.0
H423 H 0.01018 0.28583 0.86819 0.0
H424 H 0.98031 0.28089 0.82882 0.0
H425 H 0.00764 0.31238 0.79117 0.0
H426 H 0.78921 0.99677 0.12021 0.0
H427 H 0.7939 0.96817 0.15684 0.0
H428 H 0.89622 0.00284 0.13912 0.0
H429 H 0.89122 0.03087 0.10214 0.0
H430 H 0.86318 0.937 0.15265 0.0
H431 H 0.83982 0.0111 0.22148 0.0
H432 H 0.80763 0.99184 0.19875 0.0
H433 H 0.84848 0.02298 0.18934 0.0
C434 C 0.81256 0.99793 0.12406 0.0
C435 C 0.83972 0.01553 0.1082 0.0
C436 C 0.81536 0.98192 0.14513 0.0
C437 C 0.84556 0.98363 0.15102 0.0
C438 C 0.87268 0.00114 0.13506 0.0
H439 H 0.89134 0.92947 0.29519 0.0
H440 H 0.89058 0.95889 0.2576 0.0
C441 C 0.86985 0.01713 0.11395 0.0
C442 C 0.84874 0.96697 0.17366 0.0
H443 H 0.83969 0.96312 0.23668 0.0
C444 C 0.85816 0.94282 0.17103 0.0
C445 C 0.84273 0.97483 0.19776 0.0
C446 C 0.83442 0.00183 0.20211 0.0
C447 C 0.86096 0.92586 0.19166 0.0
C448 C 0.85365 0.93279 0.21565 0.0
C449 C 0.84498 0.95748 0.21833 0.0
C450 C 0.85482 0.91476 0.23819 0.0
C451 C 0.87226 0.90103 0.18756 0.0
C452 C 0.83477 0.88018 0.24004 0.0
C453 C 0.83534 0.86343 0.26144 0.0
C454 C 0.85596 0.8809 0.28144 0.0
C455 C 0.87564 0.91546 0.27982 0.0
C456 C 0.87512 0.93223 0.2584 0.0
H457 H 0.88581 0.90546 0.16977 0.0
H458 H 0.88856 0.90181 0.20285 0.0
H459 H 0.85033 0.8758 0.18688 0.0
H460 H 0.81819 0.86617 0.22509 0.0
H461 H 0.81927 0.83687 0.26255 0.0
H462 H 0.08073 0.90653 0.62015 0.0
H463 H 0.0521 0.90658 0.58187 0.0
H464 H 0.02652 0.80544 0.56799 0.0
H465 H 0.05563 0.80571 0.60603 0.0
H466 H 0.04811 0.84337 0.52588 0.0
H467 H 0.95241 0.86165 0.57246 0.0
H468 H 0.99411 0.89295 0.57947 0.0
H469 H 0.97926 0.851 0.58924 0.0
C470 C 0.06901 0.88442 0.6088 0.0
C471 C 0.0701 0.85605 0.61597 0.0
C472 C 0.05246 0.88434 0.58706 0.0
C473 C 0.03656 0.8558 0.57218 0.0
C474 C 0.03839 0.82769 0.57916 0.0
H475 H 0.88548 0.80701 0.45957 0.0
H476 H 0.91748 0.81121 0.49689 0.0
C477 C 0.05494 0.8278 0.60086 0.0
C478 C 0.01806 0.85509 0.54934 0.0
H479 H 0.9532 0.86332 0.52859 0.0
C480 C 0.02738 0.84778 0.52648 0.0
C481 C 0.99068 0.86038 0.55008 0.0
C482 C 0.97824 0.86663 0.57413 0.0
C483 C 0.01034 0.84587 0.50443 0.0
C484 C 0.98345 0.85194 0.50508 0.0
C485 C 0.97397 0.859 0.52797 0.0
C486 C 0.96412 0.84997 0.48241 0.0
C487 C 0.02076 0.83648 0.48074 0.0
C488 C 0.97946 0.87057 0.46186 0.0
C489 C 0.96113 0.8682 0.44056 0.0
C490 C 0.92704 0.84552 0.43954 0.0
C491 C 0.91164 0.82506 0.46009 0.0
C492 C 0.92994 0.82741 0.48136 0.0
H493 H 0.03567 0.82436 0.48441 0.0
H494 H -0.00108 0.8195 0.46943 0.0
H495 H 0.03619 0.85915 0.46971 0.0
H496 H 0.00562 0.88857 0.46229 0.0
H497 H 0.97355 0.88404 0.42486 0.0
H498 H 0.26556 0.05369 0.96376 0.0
H499 H 0.2371 0.02301 0.92612 0.0
H500 H 0.33151 0.05598 0.8909 0.0
H501 H 0.35977 0.08515 0.92888 0.0
H502 H 0.2353 0.04131 0.87985 0.0
H503 H 0.2889 0.95894 0.87855 0.0
H504 H 0.29365 0.98508 0.90464 0.0
H505 H 0.32018 0.00178 0.878 0.0
C506 C 0.28011 0.05432 0.94791 0.0
C507 C 0.31482 0.07224 0.94904 0.0
C508 C 0.26389 0.03684 0.9264 0.0
C509 C 0.28204 0.03668 0.90562 0.0
C510 C 0.3168 0.05499 0.90673 0.0
H511 H 0.19693 0.97518 0.75647 0.0
H512 H 0.2258 0.00696 0.79361 0.0
C513 C 0.333 0.07215 0.92831 0.0
C514 C 0.26463 0.01757 0.88284 0.0
H515 H 0.2601 0.95913 0.8422 0.0
C516 C 0.24066 0.02324 0.87169 0.0
C517 C 0.27107 0.99351 0.87227 0.0
C518 C 0.29458 0.98418 0.88412 0.0
C519 C 0.22338 0.00599 0.85027 0.0
C520 C 0.23085 0.98295 0.8391 0.0
C521 C 0.25454 0.97701 0.85043 0.0
C522 C 0.21375 0.96396 0.81618 0.0
C523 C 0.19663 0.01203 0.84029 0.0
C524 C 0.1985 0.92924 0.81591 0.0
C525 C 0.18262 0.91119 0.79455 0.0
C526 C 0.18113 0.92738 0.77304 0.0
C527 C 0.19703 0.96209 0.77302 0.0
C528 C 0.2133 0.98021 0.79432 0.0
H529 H 0.18718 0.02212 0.85478 0.0
H530 H 0.20696 0.03045 0.82509 0.0
H531 H 0.17551 0.98892 0.83287 0.0
H532 H 0.19876 0.91599 0.83231 0.0
H533 H 0.17143 0.88451 0.79483 0.0
H534 H 0.22478 0.1496 0.02099 0.0
H535 H 0.16714 0.13405 0.01295 0.0
H536 H 0.14894 0.04108 0.98207 0.0
H537 H 0.20645 0.0563 0.9905 0.0
H538 H 0.1267 0.11462 0.97076 0.0
H539 H 0.08463 0.01335 0.0404 0.0
H540 H 0.12749 0.04472 0.03706 0.0
H541 H 0.10854 0.01158 0.01498 0.0
C542 C 0.20856 0.1261 0.01215 0.0
C543 C 0.21967 0.10387 1.00672 0.0
C544 C 0.17575 0.11726 0.00755 0.0
C545 C 0.15379 0.0862 0.99734 0.0
C546 C 0.16542 0.06485 0.99044 0.0
H547 H 0.94911 0.04538 0.97642 0.0
H548 H 0.00043 0.04507 0.96705 0.0
C549 C 0.19812 0.07353 0.99527 0.0
C550 C 0.11828 0.07541 0.99593 0.0
H551 H 0.04428 0.02325 0.02324 0.0
C552 C 0.10847 0.09432 0.98187 0.0
C553 C 0.09481 0.04897 0.01063 0.0
C554 C 0.10428 0.02857 0.02679 0.0
C555 C 0.07599 0.0885 0.98305 0.0
C556 C 0.05283 0.06277 0.99838 0.0
C557 C 0.06221 0.04278 0.01141 0.0
C558 C 0.0204 0.05938 1.00404 0.0
C559 C 0.06725 0.1112 0.96917 0.0
C560 C 0.01435 0.06629 0.02812 0.0
C561 C 0.98514 0.06616 0.03356 0.0
C562 C 0.96149 0.05911 0.01498 0.0
C563 C 0.96694 0.05079 0.99109 0.0
C564 C 0.99627 0.05089 0.98565 0.0
H565 H 0.08936 0.13277 0.96101 0.0
H566 H 0.0499 0.09726 0.95391 0.0
H567 H 0.05472 0.12045 0.98165 0.0
H568 H 0.03271 0.07274 0.04256 0.0
H569 H 0.9813 0.07212 0.05221 0.0
H570 H 0.02341 0.96909 0.35073 0.0
H571 H 0.06595 0.02647 0.34255 0.0
H572 H 0.99178 0.04634 0.31272 0.0
H573 H 0.94904 0.98904 0.32119 0.0
H574 H 0.08668 0.06783 0.30018 0.0
H575 H 0.02956 0.109 0.37235 0.0
H576 H 0.01789 0.06615 0.36833 0.0
H577 H 0.00336 0.08561 0.34698 0.0
C578 C 0.01635 0.98559 0.34203 0.0
C579 C 0.98305 0.97503 0.33696 0.0
C580 C 0.04057 0.01824 0.33735 0.0
C581 C 0.03177 0.04059 0.32743 0.0
C582 C -0.00117 0.0295 0.32081 0.0
H583 H 0.1936 0.24643 0.30833 0.0
H584 H 0.14275 0.19453 0.29877 0.0
C585 C 0.97456 0.99694 0.32569 0.0
C586 C 0.05669 0.076 0.32635 0.0
H587 H 0.07977 0.14934 0.35528 0.0
C588 C 0.08505 0.08589 0.31186 0.0
C589 C 0.0543 0.09921 0.34181 0.0
C590 C 0.02481 0.08958 0.35842 0.0
C591 C 0.11189 0.11822 0.31327 0.0
C592 C 0.10989 0.14106 0.32936 0.0
C593 C 0.08091 0.13162 0.34289 0.0
C594 C 0.13908 0.17326 0.33505 0.0
C595 C 0.14291 0.12717 0.29877 0.0
C596 C 0.15301 0.17855 0.35877 0.0
C597 C 0.18168 0.20804 0.36431 0.0
C598 C 0.19682 0.23274 0.34621 0.0
C599 C 0.18226 0.2278 0.32264 0.0
C600 C 0.15349 0.19817 0.31709 0.0
H601 H 0.14185 0.1053 0.28965 0.0
H602 H 0.14636 0.14543 0.28422 0.0
H603 H 0.16488 0.13878 0.3111 0.0
H604 H 0.14203 0.15953 0.37286 0.0
H605 H 0.19214 0.21144 0.38272 0.0
H606 H 0.08236 0.19427 0.71615 0.0
H607 H 0.08462 0.14462 0.70533 0.0
H608 H 0.05395 0.14916 0.63074 0.0
H609 H 0.05251 0.19961 0.64127 0.0
H610 H 0.03314 0.08369 0.68603 0.0
H611 H 0.1417 0.14704 0.62282 0.0
H612 H 0.13081 0.1696 0.64443 0.0
H613 H 0.10663 0.15233 0.61694 0.0
C614 C 0.07622 0.18477 0.69742 0.0
C615 C 0.06751 0.20085 0.67949 0.0
C616 C 0.07732 0.15637 0.69132 0.0
C617 C 0.06978 0.14361 0.66721 0.0
C618 C 0.06021 0.159 0.64936 0.0
H619 H 0.0616 0.95253 0.65254 0.0
H620 H 0.0484 0.99609 0.64321 0.0
C621 C 0.0591 0.18753 0.65547 0.0
C622 C 0.07262 0.1144 0.66109 0.0
H623 H 0.12303 0.09133 0.63232 0.0
C624 C 0.05234 0.08501 0.67394 0.0
C625 C 0.09789 0.11663 0.64539 0.0
C626 C 0.12072 0.14808 0.63164 0.0
C627 C 0.05782 0.05818 0.67262 0.0
C628 C 0.08382 0.06074 0.65755 0.0
C629 C 0.10303 0.08955 0.64368 0.0
C630 C 0.09395 0.0355 0.65857 0.0
C631 C 0.03719 0.02826 0.68865 0.0
C632 C 0.12468 0.04372 0.66899 0.0
C633 C 0.13238 0.01904 0.67409 0.0
C634 C 0.10929 0.98589 0.66896 0.0
C635 C 0.07945 0.97797 0.65706 0.0
C636 C 0.07193 0.00271 0.65171 0.0
H637 H 0.02235 0.0329 0.7025 0.0
H638 H 0.01985 0.0073 0.67679 0.0
H639 H 0.05314 0.02067 0.69865 0.0
H640 H 0.14196 0.06898 0.67437 0.0
H641 H 0.15553 0.02561 0.68322 0.0
H642 H 0.74948 0.15363 0.03469 0.0
H643 H 0.70228 0.16272 0.03716 0.0
H644 H 0.64141 0.06372 0.06522 0.0
H645 H 0.68837 0.05418 0.06247 0.0
H646 H 0.64228 0.12466 0.01143 0.0
H647 H 0.6225 0.12175 0.11305 0.0
H648 H 0.6608 0.12836 0.09958 0.0
H649 H 0.62551 0.0874 0.10104 0.0
C650 C 0.72607 0.13378 0.04142 0.0
C651 C 0.72263 0.1031 0.04826 0.0
C652 C 0.69922 0.13911 0.04297 0.0
C653 C 0.66852 0.11402 0.05161 0.0
C654 C 0.66511 0.08362 0.05897 0.0
H655 H 0.47322 0.08112 0.0247 0.0
H656 H 0.52413 0.07874 0.0286 0.0
C657 C 0.69196 0.07822 0.05737 0.0
C658 C 0.63948 0.1188 0.05107 0.0
H659 H 0.58003 0.11988 0.08733 0.0
C660 C 0.62881 0.12386 0.02803 0.0
C661 C 0.62217 0.11798 0.0728 0.0
C662 C 0.63341 0.11387 0.09808 0.0
C663 C 0.60069 0.12724 0.02606 0.0
C664 C 0.58273 0.12529 0.04767 0.0
C665 C 0.59385 0.12114 0.07081 0.0
C666 C 0.55174 0.12651 0.04633 0.0
C667 C 0.59025 0.13275 1.00088 0.0
C668 C 0.55038 0.15395 0.05544 0.0
C669 C 0.52137 0.1556 0.05301 0.0
C670 C 0.49326 0.12969 0.04155 0.0
C671 C 0.49462 0.10186 0.03308 0.0
C672 C 0.5236 0.10033 0.03542 0.0
H673 H 0.61034 0.14053 0.98697 0.0
H674 H 0.56864 0.10936 0.99439 0.0
H675 H 0.5827 0.15186 1.00183 0.0
H676 H 0.57195 0.17437 0.06395 0.0
H677 H 0.52122 0.17746 0.05959 0.0
H678 H 0.70743 0.71853 0.34955 0.0
H679 H 0.65393 0.67005 0.35547 0.0
H680 H 0.69394 0.63577 0.41283 0.0
H681 H 0.74892 0.68189 0.40456 0.0
H682 H 0.65452 0.58644 0.38961 0.0
H683 H 0.58765 0.6539 0.40525 0.0
H684 H 0.60648 0.66532 0.37535 0.0
H685 H 0.63206 0.6752 0.40271 0.0
C686 C 0.70546 0.70048 0.36302 0.0
C687 C 0.73319 0.70462 0.37645 0.0
C688 C 0.67427 0.67301 0.36692 0.0
C689 C 0.66937 0.64971 0.38527 0.0
C690 C 0.69683 0.65358 0.39876 0.0
H691 H 0.46042 0.50509 0.40893 0.0
H692 H 0.51631 0.55004 0.4158 0.0
C693 C 0.7284 0.68044 0.3942 0.0
C694 C 0.63592 0.62053 0.38935 0.0
H695 H 0.55408 0.59723 0.3908 0.0
C696 C 0.63262 0.58891 0.39038 0.0
C697 C 0.60717 0.62342 0.39127 0.0
C698 C 0.60865 0.65637 0.39391 0.0
C699 C 0.60146 0.56024 0.39195 0.0
C700 C 0.5726 0.56305 0.39077 0.0
C701 C 0.57598 0.59472 0.39107 0.0
C702 C 0.53883 0.53376 0.38821 0.0
C703 C 0.60015 0.52746 0.39523 0.0
C704 C 0.53248 0.50922 0.37054 0.0
C705 C 0.50067 0.4823 0.36751 0.0
C706 C 0.4738 0.47997 0.38112 0.0
C707 C 0.48018 0.50512 0.39843 0.0
C708 C 0.5123 0.53135 0.40217 0.0
H709 H 0.62181 0.53054 0.406 0.0
H710 H 0.57729 0.50913 0.40492 0.0
H711 H 0.60123 0.5175 0.3768 0.0
H712 H 0.55204 0.51095 0.35876 0.0
H713 H 0.49746 0.46342 0.35438 0.0
H714 H 0.11079 0.72848 0.74816 0.0
H715 H 0.10501 0.67359 0.75287 0.0
H716 H 0.13423 0.67638 0.67673 0.0
H717 H 0.14027 0.73125 0.67191 0.0
H718 H 0.07532 0.6186 0.69 0.0
H719 H 0.17729 0.64712 0.7564 0.0
H720 H 0.14897 0.66084 0.76534 0.0
H721 H 0.17497 0.67878 0.73873 0.0
C722 C 0.11656 0.71764 0.73257 0.0
C723 C 0.12592 0.73413 0.70964 0.0
C724 C 0.11323 0.68631 0.73528 0.0
C725 C 0.11943 0.67112 0.71519 0.0
C726 C 0.12931 0.68774 0.69244 0.0
H727 H 0.14412 0.50166 0.70208 0.0
H728 H 0.15002 0.55668 0.70484 0.0
C729 C 0.13262 0.71899 0.6897 0.0
C730 C 0.11407 0.6372 0.71733 0.0
H731 H 0.14249 0.59085 0.7458 0.0
C732 C 0.08989 0.61245 0.70226 0.0
C733 C 0.1333 0.62945 0.73326 0.0
C734 C 0.1603 0.65543 0.74925 0.0
C735 C 0.08458 0.58011 0.70248 0.0
C736 C 0.10368 0.57229 0.7185 0.0
C737 C 0.12772 0.59696 0.73372 0.0
C738 C 0.10041 0.5391 0.7185 0.0
C739 C 0.05933 0.55484 0.68503 0.0
C740 C 0.07074 0.51112 0.72574 0.0
C741 C 0.06719 0.47961 0.72401 0.0
C742 C 0.09331 0.47564 0.71506 0.0
C743 C 0.12336 0.50388 0.70862 0.0
C744 C 0.12687 0.53532 0.71037 0.0
H745 H 0.05175 0.56654 0.67045 0.0
H746 H 0.06919 0.54019 0.67594 0.0
H747 H 0.03694 0.53752 0.69566 0.0
H748 H 0.05019 0.51364 0.73237 0.0
H749 H 0.04371 0.45833 0.72901 0.0
loop_
_geom_bond_atom_site_label_1
_geom_bond_atom_site_label_2
_geom_bond_distance
_geom_bond_site_symmetry_2
_ccdc_geom_bond_type
C0 C1 1.443 . S
C0 N4 1.376 . S
C0 C38 1.389 . S
C1 C0 1.443 . S
C1 C2 1.340 . S
C1 H41 0.951 . S
C2 C1 1.340 . S
C2 C3 1.439 . S
C2 H42 0.950 . S
C3 C2 1.439 . S
C3 N4 1.374 . S
C3 C37 1.395 . S
N4 C0 1.376 . S
N4 C3 1.374 . S
N4 Co5 2.008 . S
Co5 N4 2.008 . S
Co5 N6 1.995 . S
Co5 N11 2.008 1_554 S
Co5 N16 1.995 . S
Co5 N21 2.282 . S
Co5 N27 2.282 . S
N6 Co5 1.995 . S
N6 C7 1.376 . S
N6 C10 1.383 1_554 S
C7 N6 1.376 . S
C7 C8 1.446 . S
C7 C37 1.391 . S
C8 C7 1.446 . S
C8 C9 1.339 1_554 S
C8 H43 0.949 . S
C9 C8 1.339 1_556 S
C9 C10 1.439 . S
C9 H44 0.950 . S
C10 N6 1.383 1_556 S
C10 C9 1.439 . S
C10 C39 1.392 . S
N11 Co5 2.008 1_556 S
N11 C12 1.376 . S
N11 C15 1.374 . S
C12 N11 1.376 . S
C12 C13 1.443 . S
C12 C39 1.389 . S
C13 C12 1.443 . S
C13 C14 1.340 . S
C13 H45 0.951 . S
C14 C13 1.340 . S
C14 C15 1.439 . S
C14 H46 0.950 . S
C15 N11 1.374 . S
C15 C14 1.439 . S
C15 C40 1.395 . S
N16 Co5 1.995 . S
N16 C17 1.376 . S
N16 C20 1.383 . S
C17 N16 1.376 . S
C17 C18 1.446 . S
C17 C40 1.391 1_554 S
C18 C17 1.446 . S
C18 C19 1.339 . S
C18 H47 0.949 . S
C19 C18 1.339 . S
C19 C20 1.439 . S
C19 H48 0.950 . S
C20 N16 1.383 . S
C20 C19 1.439 . S
C20 C38 1.392 . S
N21 Co5 2.282 . S
N21 C24 1.332 . S
N21 C26 1.332 . S
C22 C23 1.386 . S
C22 C25 1.388 . S
C23 C22 1.386 . S
C23 C24 1.382 . S
C23 H49 0.950 . S
C24 N21 1.332 . S
C24 C23 1.382 . S
C24 H35 0.952 . S
C25 C22 1.388 . S
C25 C26 1.382 . S
C25 H50 0.950 . S
C26 N21 1.332 . S
C26 C25 1.382 . S
C26 H36 0.948 . S
N27 Co5 2.282 . S
N27 C31 1.332 . S
N27 C32 1.332 . S
C28 C29 1.388 . S
C28 C32 1.382 . S
C28 H51 0.950 . S
C29 C28 1.388 . S
C29 C30 1.386 . S
C30 C29 1.386 . S
C30 C31 1.382 . S
C30 H52 0.950 . S
C31 N27 1.332 . S
C31 C30 1.382 . S
C31 H33 0.952 . S
C32 N27 1.332 . S
C32 C28 1.382 . S
C32 H34 0.948 . S
H33 C31 0.952 . S
H34 C32 0.948 . S
H35 C24 0.952 . S
H36 C26 0.948 . S
C37 C3 1.395 . S
C37 C7 1.391 . S
C38 C0 1.389 . S
C38 C20 1.392 . S
C39 C10 1.392 . S
C39 C12 1.389 . S
C40 C15 1.395 . S
C40 C17 1.391 1_556 S
H41 C1 0.951 . S
H42 C2 0.950 . S
H43 C8 0.949 . S
H44 C9 0.950 . S
H45 C13 0.951 . S
H46 C14 0.950 . S
H47 C18 0.949 . S
H48 C19 0.950 . S
H49 C23 0.950 . S
H50 C25 0.950 . S
H51 C28 0.950 . S
H52 C30 0.950 . S
C53 C54 1.443 . S
C53 N57 1.376 . S
C53 C91 1.389 . S
C54 C53 1.443 . S
C54 C55 1.340 . S
C54 H94 0.951 . S
C55 C54 1.340 . S
C55 C56 1.439 . S
C55 H95 0.950 . S
C56 C55 1.439 . S
C56 N57 1.374 . S
C56 C90 1.395 . S
N57 C53 1.376 . S
N57 C56 1.374 . S
N57 Co58 2.008 . S
Co58 N57 2.008 . S
Co58 N59 1.995 . S
Co58 N64 2.008 . S
Co58 N69 1.995 . S
Co58 N74 2.282 . S
Co58 N80 2.282 . S
N59 Co58 1.995 . S
N59 C60 1.376 . S
N59 C63 1.383 . S
C60 N59 1.376 . S
C60 C61 1.446 . S
C60 C90 1.391 . S
C61 C60 1.446 . S
C61 C62 1.339 . S
C61 H96 0.949 . S
C62 C61 1.339 . S
C62 C63 1.439 . S
C62 H97 0.950 . S
C63 N59 1.383 . S
C63 C62 1.439 . S
C63 C92 1.392 . S
N64 Co58 2.008 . S
N64 C65 1.376 . S
N64 C68 1.374 . S
C65 N64 1.376 . S
C65 C66 1.443 . S
C65 C92 1.389 . S
C66 C65 1.443 . S
C66 C67 1.340 . S
C66 H98 0.951 . S
C67 C66 1.340 . S
C67 C68 1.439 . S
C67 H99 0.950 . S
C68 N64 1.374 . S
C68 C67 1.439 . S
C68 C93 1.395 . S
N69 Co58 1.995 . S
N69 C70 1.376 . S
N69 C73 1.383 . S
C70 N69 1.376 . S
C70 C71 1.446 . S
C70 C93 1.391 . S
C71 C70 1.446 . S
C71 C72 1.339 . S
C71 H100 0.949 . S
C72 C71 1.339 . S
C72 C73 1.439 . S
C72 H101 0.950 . S
C73 N69 1.383 . S
C73 C72 1.439 . S
C73 C91 1.392 . S
N74 Co58 2.282 . S
N74 C77 1.332 . S
N74 C79 1.332 . S
C75 C76 1.386 . S
C75 C78 1.388 . S
C76 C75 1.386 . S
C76 C77 1.382 . S
C76 H102 0.950 . S
C77 N74 1.332 . S
C77 C76 1.382 . S
C77 H88 0.952 . S
C78 C75 1.388 . S
C78 C79 1.382 . S
C78 H103 0.950 . S
C79 N74 1.332 . S
C79 C78 1.382 . S
C79 H89 0.948 . S
N80 Co58 2.282 . S
N80 C84 1.332 . S
N80 C85 1.332 . S
C81 C82 1.388 . S
C81 C85 1.382 . S
C81 H104 0.950 . S
C82 C81 1.388 . S
C82 C83 1.386 . S
C83 C82 1.386 . S
C83 C84 1.382 . S
C83 H105 0.950 . S
C84 N80 1.332 . S
C84 C83 1.382 . S
C84 H86 0.952 . S
C85 N80 1.332 . S
C85 C81 1.382 . S
C85 H87 0.948 . S
H86 C84 0.952 . S
H87 C85 0.948 . S
H88 C77 0.952 . S
H89 C79 0.948 . S
C90 C56 1.395 . S
C90 C60 1.391 . S
C91 C53 1.389 . S
C91 C73 1.392 . S
C92 C63 1.392 . S
C92 C65 1.389 . S
C93 C68 1.395 . S
C93 C70 1.391 . S
H94 C54 0.951 . S
H95 C55 0.950 . S
H96 C61 0.949 . S
H97 C62 0.950 . S
H98 C66 0.951 . S
H99 C67 0.950 . S
H100 C71 0.949 . S
H101 C72 0.950 . S
H102 C76 0.950 . S
H103 C78 0.950 . S
H104 C81 0.950 . S
H105 C83 0.950 . S
C106 C107 1.443 . S
C106 N110 1.376 . S
C106 C144 1.389 1_455 S
C107 C106 1.443 . S
C107 C108 1.340 . S
C107 H147 0.951 . S
C108 C107 1.340 . S
C108 C109 1.439 . S
C108 H148 0.950 . S
C109 C108 1.439 . S
C109 N110 1.374 . S
C109 C143 1.395 . S
N110 C106 1.376 . S
N110 C109 1.374 . S
N110 Co111 2.008 . S
Co111 N110 2.008 . S
Co111 N112 1.995 . S
Co111 N117 2.008 . S
Co111 N122 1.995 1_455 S
Co111 N127 2.282 . S
Co111 N133 2.282 . S
N112 Co111 1.995 . S
N112 C113 1.376 . S
N112 C116 1.383 . S
C113 N112 1.376 . S
C113 C114 1.446 . S
C113 C143 1.391 . S
C114 C113 1.446 . S
C114 C115 1.339 . S
C114 H149 0.949 . S
C115 C114 1.339 . S
C115 C116 1.439 . S
C115 H150 0.950 . S
C116 N112 1.383 . S
C116 C115 1.439 . S
C116 C145 1.392 . S
N117 Co111 2.008 . S
N117 C118 1.376 . S
N117 C121 1.374 1_455 S
C118 N117 1.376 . S
C118 C119 1.443 . S
C118 C145 1.389 . S
C119 C118 1.443 . S
C119 C120 1.340 1_455 S
C119 H151 0.951 . S
C120 C119 1.340 1_655 S
C120 C121 1.439 . S
C120 H152 0.950 . S
C121 N117 1.374 1_655 S
C121 C120 1.439 . S
C121 C146 1.395 . S
N122 Co111 1.995 1_655 S
N122 C123 1.376 . S
N122 C126 1.383 . S
C123 N122 1.376 . S
C123 C124 1.446 . S
C123 C146 1.391 . S
C124 C123 1.446 . S
C124 C125 1.339 . S
C124 H153 0.949 . S
C125 C124 1.339 . S
C125 C126 1.439 . S
C125 H154 0.950 . S
C126 N122 1.383 . S
C126 C125 1.439 . S
C126 C144 1.392 . S
N127 Co111 2.282 . S
N127 C130 1.332 1_455 S
N127 C132 1.332 . S
C128 C129 1.386 1_455 S
C128 C131 1.388 . S
C129 C128 1.386 1_655 S
C129 C130 1.382 . S
C129 H155 0.950 . S
C130 N127 1.332 1_655 S
C130 C129 1.382 . S
C130 H141 0.952 . S
C131 C128 1.388 . S
C131 C132 1.382 . S
C131 H156 0.950 . S
C132 N127 1.332 . S
C132 C131 1.382 . S
C132 H142 0.948 . S
N133 Co111 2.282 . S
N133 C137 1.332 . S
N133 C138 1.332 1_455 S
C134 C135 1.388 1_655 S
C134 C138 1.382 . S
C134 H157 0.950 . S
C135 C134 1.388 1_455 S
C135 C136 1.386 . S
C136 C135 1.386 . S
C136 C137 1.382 . S
C136 H158 0.950 . S
C137 N133 1.332 . S
C137 C136 1.382 . S
C137 H139 0.952 . S
C138 N133 1.332 1_655 S
C138 C134 1.382 . S
C138 H140 0.948 . S
H139 C137 0.952 . S
H140 C138 0.948 . S
H141 C130 0.952 . S
H142 C132 0.948 . S
C143 C109 1.395 . S
C143 C113 1.391 . S
C144 C106 1.389 1_655 S
C144 C126 1.392 . S
C145 C116 1.392 . S
C145 C118 1.389 . S
C146 C121 1.395 . S
C146 C123 1.391 . S
H147 C107 0.951 . S
H148 C108 0.950 . S
H149 C114 0.949 . S
H150 C115 0.950 . S
H151 C119 0.951 . S
H152 C120 0.950 . S
H153 C124 0.949 . S
H154 C125 0.950 . S
H155 C129 0.950 . S
H156 C131 0.950 . S
H157 C134 0.950 . S
H158 C136 0.950 . S
C159 C160 1.443 . S
C159 N163 1.376 . S
C159 C197 1.389 1_545 S
C160 C159 1.443 . S
C160 C161 1.340 . S
C160 H200 0.951 . S
C161 C160 1.340 . S
C161 C162 1.439 . S
C161 H201 0.950 . S
C162 C161 1.439 . S
C162 N163 1.374 . S
C162 C196 1.395 . S
N163 C159 1.376 . S
N163 C162 1.374 . S
N163 Co164 2.008 . S
Co164 N163 2.008 . S
Co164 N165 1.995 . S
Co164 N170 2.008 1_554 S
Co164 N175 1.995 1_545 S
Co164 N180 2.282 . S
Co164 N186 2.282 . S
N165 Co164 1.995 . S
N165 C166 1.376 . S
N165 C169 1.383 1_554 S
C166 N165 1.376 . S
C166 C167 1.446 . S
C166 C196 1.391 . S
C167 C166 1.446 . S
C167 C168 1.339 1_554 S
C167 H202 0.949 . S
C168 C167 1.339 1_556 S
C168 C169 1.439 . S
C168 H203 0.950 . S
C169 N165 1.383 1_556 S
C169 C168 1.439 . S
C169 C198 1.392 . S
N170 Co164 2.008 1_556 S
N170 C171 1.376 . S
N170 C174 1.374 1_545 S
C171 N170 1.376 . S
C171 C172 1.443 . S
C171 C198 1.389 . S
C172 C171 1.443 . S
C172 C173 1.340 1_545 S
C172 H204 0.951 . S
C173 C172 1.340 1_565 S
C173 C174 1.439 . S
C173 H205 0.950 . S
C174 N170 1.374 1_565 S
C174 C173 1.439 . S
C174 C199 1.395 . S
N175 Co164 1.995 1_565 S
N175 C176 1.376 . S
N175 C179 1.383 . S
C176 N175 1.376 . S
C176 C177 1.446 . S
C176 C199 1.391 1_554 S
C177 C176 1.446 . S
C177 C178 1.339 . S
C177 H206 0.949 . S
C178 C177 1.339 . S
C178 C179 1.439 . S
C178 H207 0.950 . S
C179 N175 1.383 . S
C179 C178 1.439 . S
C179 C197 1.392 . S
N180 Co164 2.282 . S
N180 C183 1.332 1_545 S
N180 C185 1.332 . S
C181 C182 1.386 1_545 S
C181 C184 1.388 . S
C182 C181 1.386 1_565 S
C182 C183 1.382 . S
C182 H208 0.950 . S
C183 N180 1.332 1_565 S
C183 C182 1.382 . S
C183 H194 0.952 . S
C184 C181 1.388 . S
C184 C185 1.382 . S
C184 H209 0.950 . S
C185 N180 1.332 . S
C185 C184 1.382 . S
C185 H195 0.948 . S
N186 Co164 2.282 . S
N186 C190 1.332 . S
N186 C191 1.332 1_545 S
C187 C188 1.388 1_565 S
C187 C191 1.382 . S
C187 H210 0.950 . S
C188 C187 1.388 1_545 S
C188 C189 1.386 . S
C189 C188 1.386 . S
C189 C190 1.382 . S
C189 H211 0.950 . S
C190 N186 1.332 . S
C190 C189 1.382 . S
C190 H192 0.952 . S
C191 N186 1.332 1_565 S
C191 C187 1.382 . S
C191 H193 0.948 . S
H192 C190 0.952 . S
H193 C191 0.948 . S
H194 C183 0.952 . S
H195 C185 0.948 . S
C196 C162 1.395 . S
C196 C166 1.391 . S
C197 C159 1.389 1_565 S
C197 C179 1.392 . S
C198 C169 1.392 . S
C198 C171 1.389 . S
C199 C174 1.395 . S
C199 C176 1.391 1_556 S
H200 C160 0.951 . S
H201 C161 0.950 . S
H202 C167 0.949 . S
H203 C168 0.950 . S
H204 C172 0.951 . S
H205 C173 0.950 . S
H206 C177 0.949 . S
H207 C178 0.950 . S
H208 C182 0.950 . S
H209 C184 0.950 . S
H210 C187 0.950 . S
H211 C189 0.950 . S
C212 C213 1.443 . S
C212 N216 1.376 . S
C212 C250 1.389 . S
C213 C212 1.443 . S
C213 C214 1.340 . S
C213 H253 0.951 . S
C214 C213 1.340 . S
C214 C215 1.439 . S
C214 H254 0.950 . S
C215 C214 1.439 . S
C215 N216 1.374 . S
C215 C249 1.395 . S
N216 C212 1.376 . S
N216 C215 1.374 . S
N216 Co217 2.008 . S
Co217 N216 2.008 . S
Co217 N218 1.995 . S
Co217 N223 2.008 . S
Co217 N228 1.995 . S
Co217 N233 2.282 . S
Co217 N239 2.282 . S
N218 Co217 1.995 . S
N218 C219 1.376 . S
N218 C222 1.383 . S
C219 N218 1.376 . S
C219 C220 1.446 . S
C219 C249 1.391 . S
C220 C219 1.446 . S
C220 C221 1.339 . S
C220 H255 0.949 . S
C221 C220 1.339 . S
C221 C222 1.439 . S
C221 H256 0.950 . S
C222 N218 1.383 . S
C222 C221 1.439 . S
C222 C251 1.392 . S
N223 Co217 2.008 . S
N223 C224 1.376 . S
N223 C227 1.374 . S
C224 N223 1.376 . S
C224 C225 1.443 . S
C224 C251 1.389 . S
C225 C224 1.443 . S
C225 C226 1.340 . S
C225 H257 0.951 . S
C226 C225 1.340 . S
C226 C227 1.439 . S
C226 H258 0.950 . S
C227 N223 1.374 . S
C227 C226 1.439 . S
C227 C252 1.395 . S
N228 Co217 1.995 . S
N228 C229 1.376 . S
N228 C232 1.383 . S
C229 N228 1.376 . S
C229 C230 1.446 . S
C229 C252 1.391 . S
C230 C229 1.446 . S
C230 C231 1.339 . S
C230 H259 0.949 . S
C231 C230 1.339 . S
C231 C232 1.439 . S
C231 H260 0.950 . S
C232 N228 1.383 . S
C232 C231 1.439 . S
C232 C250 1.392 . S
N233 Co217 2.282 . S
N233 C236 1.332 . S
N233 C238 1.332 . S
C234 C235 1.386 . S
C234 C237 1.388 . S
C235 C234 1.386 . S
C235 C236 1.382 . S
C235 H261 0.950 . S
C236 N233 1.332 . S
C236 C235 1.382 . S
C236 H247 0.952 . S
C237 C234 1.388 . S
C237 C238 1.382 . S
C237 H262 0.950 . S
C238 N233 1.332 . S
C238 C237 1.382 . S
C238 H248 0.948 . S
N239 Co217 2.282 . S
N239 C243 1.332 . S
N239 C244 1.332 . S
C240 C241 1.388 . S
C240 C244 1.382 1_455 S
C240 H263 0.950 . S
C241 C240 1.388 . S
C241 C242 1.386 1_455 S
C242 C241 1.386 1_655 S
C242 C243 1.382 . S
C242 H264 0.950 . S
C243 N239 1.332 . S
C243 C242 1.382 . S
C243 H245 0.952 . S
C244 N239 1.332 . S
C244 C240 1.382 1_655 S
C244 H246 0.948 . S
H245 C243 0.952 . S
H246 C244 0.948 . S
H247 C236 0.952 . S
H248 C238 0.948 . S
C249 C215 1.395 . S
C249 C219 1.391 . S
C250 C212 1.389 . S
C250 C232 1.392 . S
C251 C222 1.392 . S
C251 C224 1.389 . S
C252 C227 1.395 . S
C252 C229 1.391 . S
H253 C213 0.951 . S
H254 C214 0.950 . S
H255 C220 0.949 . S
H256 C221 0.950 . S
H257 C225 0.951 . S
H258 C226 0.950 . S
H259 C230 0.949 . S
H260 C231 0.950 . S
H261 C235 0.950 . S
H262 C237 0.950 . S
H263 C240 0.950 . S
H264 C242 0.950 . S
C265 C266 1.443 . S
C265 N269 1.376 . S
C265 C303 1.389 . S
C266 C265 1.443 . S
C266 C267 1.340 . S
C266 H306 0.951 . S
C267 C266 1.340 . S
C267 C268 1.439 . S
C267 H307 0.950 . S
C268 C267 1.439 . S
C268 N269 1.374 . S
C268 C302 1.395 . S
N269 C265 1.376 . S
N269 C268 1.374 . S
N269 Co270 2.008 . S
Co270 N269 2.008 . S
Co270 N271 1.995 . S
Co270 N276 2.008 . S
Co270 N281 1.995 . S
Co270 N286 2.282 . S
Co270 N292 2.282 . S
N271 Co270 1.995 . S
N271 C272 1.376 . S
N271 C275 1.383 . S
C272 N271 1.376 . S
C272 C273 1.446 . S
C272 C302 1.391 . S
C273 C272 1.446 . S
C273 C274 1.339 . S
C273 H308 0.949 . S
C274 C273 1.339 . S
C274 C275 1.439 . S
C274 H309 0.950 . S
C275 N271 1.383 . S
C275 C274 1.439 . S
C275 C304 1.392 . S
N276 Co270 2.008 . S
N276 C277 1.376 . S
N276 C280 1.374 . S
C277 N276 1.376 . S
C277 C278 1.443 . S
C277 C304 1.389 . S
C278 C277 1.443 . S
C278 C279 1.340 . S
C278 H310 0.951 . S
C279 C278 1.340 . S
C279 C280 1.439 . S
C279 H311 0.950 . S
C280 N276 1.374 . S
C280 C279 1.439 . S
C280 C305 1.395 . S
N281 Co270 1.995 . S
N281 C282 1.376 . S
N281 C285 1.383 . S
C282 N281 1.376 . S
C282 C283 1.446 . S
C282 C305 1.391 . S
C283 C282 1.446 . S
C283 C284 1.339 . S
C283 H312 0.949 . S
C284 C283 1.339 . S
C284 C285 1.439 . S
C284 H313 0.950 . S
C285 N281 1.383 . S
C285 C284 1.439 . S
C285 C303 1.392 . S
N286 Co270 2.282 . S
N286 C289 1.332 . S
N286 C291 1.332 . S
C287 C288 1.386 . S
C287 C290 1.388 . S
C288 C287 1.386 . S
C288 C289 1.382 . S
C288 H314 0.950 . S
C289 N286 1.332 . S
C289 C288 1.382 . S
C289 H300 0.952 . S
C290 C287 1.388 . S
C290 C291 1.382 . S
C290 H315 0.950 . S
C291 N286 1.332 . S
C291 C290 1.382 . S
C291 H301 0.948 . S
N292 Co270 2.282 . S
N292 C296 1.332 . S
N292 C297 1.332 . S
C293 C294 1.388 . S
C293 C297 1.382 1_545 S
C293 H316 0.950 . S
C294 C293 1.388 . S
C294 C295 1.386 1_545 S
C295 C294 1.386 1_565 S
C295 C296 1.382 . S
C295 H317 0.950 . S
C296 N292 1.332 . S
C296 C295 1.382 . S
C296 H298 0.952 . S
C297 N292 1.332 . S
C297 C293 1.382 1_565 S
C297 H299 0.948 . S
H298 C296 0.952 . S
H299 C297 0.948 . S
H300 C289 0.952 . S
H301 C291 0.948 . S
C302 C268 1.395 . S
C302 C272 1.391 . S
C303 C265 1.389 . S
C303 C285 1.392 . S
C304 C275 1.392 . S
C304 C277 1.389 . S
C305 C280 1.395 . S
C305 C282 1.391 . S
H306 C266 0.951 . S
H307 C267 0.950 . S
H308 C273 0.949 . S
H309 C274 0.950 . S
H310 C278 0.951 . S
H311 C279 0.950 . S
H312 C283 0.949 . S
H313 C284 0.950 . S
H314 C288 0.950 . S
H315 C290 0.950 . S
H316 C293 0.950 . S
H317 C295 0.950 . S
H318 C326 0.929 . S
H319 C328 0.930 . S
H320 C330 0.930 . S
H321 C333 0.929 . S
H322 C336 0.930 . S
H323 C338 0.960 . S
H324 C338 0.960 . S
H325 C338 0.960 . S
C326 H318 0.929 . S
C326 C327 1.377 . S
C326 C328 1.384 . S
C327 C326 1.377 . S
C327 C333 1.390 . S
C328 H319 0.930 . S
C328 C326 1.384 . S
C328 C329 1.372 . S
C329 C328 1.372 . S
C329 C330 1.400 . S
C329 C334 1.490 . S
C330 H320 0.930 . S
C330 C329 1.400 . S
C330 C333 1.386 . S
H331 C347 0.930 . S
H332 C348 0.931 . S
C333 H321 0.929 . S
C333 C327 1.390 . S
C333 C330 1.386 . S
C334 C329 1.490 . S
C334 C336 1.395 . S
C334 C337 1.403 . S
H335 C341 0.930 . S
C336 H322 0.930 . S
C336 C334 1.395 . S
C336 C339 1.403 . S
C337 C334 1.403 . S
C337 C338 1.524 . S
C337 C341 1.400 . S
C338 H323 0.960 . S
C338 H324 0.960 . S
C338 H325 0.960 . S
C338 C337 1.524 . S
C339 C336 1.403 . S
C339 C340 1.392 . S
C339 C343 1.495 . S
C340 C339 1.392 . S
C340 C341 1.385 . S
C340 C342 1.478 . S
C341 H335 0.930 . S
C341 C337 1.400 . S
C341 C340 1.385 . S
C342 C340 1.478 . S
C342 C344 1.381 . S
C342 C348 1.383 . S
C343 C339 1.495 . S
C343 H349 0.959 . S
C343 H350 0.961 . S
C343 H351 0.960 . S
C344 C342 1.381 . S
C344 C345 1.394 . S
C344 H352 0.930 . S
C345 C344 1.394 . S
C345 C346 1.383 . S
C345 H353 0.929 . S
C346 C345 1.383 . S
C346 C347 1.377 . S
C347 H331 0.930 . S
C347 C346 1.377 . S
C347 C348 1.379 . S
C348 H332 0.931 . S
C348 C342 1.383 . S
C348 C347 1.379 . S
H349 C343 0.959 . S
H350 C343 0.961 . S
H351 C343 0.960 . S
H352 C344 0.930 . S
H353 C345 0.929 . S
H354 C362 0.929 . S
H355 C364 0.930 . S
H356 C366 0.930 . S
H357 C369 0.929 . S
H358 C372 0.930 . S
H359 C374 0.960 . S
H360 C374 0.960 . S
H361 C374 0.960 . S
C362 H354 0.929 . S
C362 C363 1.377 . S
C362 C364 1.384 . S
C363 C362 1.377 . S
C363 C369 1.390 . S
C364 H355 0.930 . S
C364 C362 1.384 . S
C364 C365 1.372 . S
C365 C364 1.372 . S
C365 C366 1.400 . S
C365 C370 1.490 . S
C366 H356 0.930 . S
C366 C365 1.400 . S
C366 C369 1.386 . S
H367 C383 0.930 . S
H368 C384 0.931 . S
C369 H357 0.929 . S
C369 C363 1.390 . S
C369 C366 1.386 . S
C370 C365 1.490 . S
C370 C372 1.395 . S
C370 C373 1.403 . S
H371 C377 0.930 . S
C372 H358 0.930 . S
C372 C370 1.395 . S
C372 C375 1.403 . S
C373 C370 1.403 . S
C373 C374 1.524 . S
C373 C377 1.400 . S
C374 H359 0.960 . S
C374 H360 0.960 . S
C374 H361 0.960 . S
C374 C373 1.524 . S
C375 C372 1.403 . S
C375 C376 1.392 . S
C375 C379 1.495 . S
C376 C375 1.392 . S
C376 C377 1.385 . S
C376 C378 1.478 . S
C377 H371 0.930 . S
C377 C373 1.400 . S
C377 C376 1.385 . S
C378 C376 1.478 . S
C378 C380 1.381 . S
C378 C384 1.383 . S
C379 C375 1.495 . S
C379 H385 0.959 . S
C379 H386 0.961 . S
C379 H387 0.960 . S
C380 C378 1.381 . S
C380 C381 1.394 . S
C380 H388 0.930 . S
C381 C380 1.394 . S
C381 C382 1.383 . S
C381 H389 0.929 . S
C382 C381 1.383 . S
C382 C383 1.377 . S
C383 H367 0.930 . S
C383 C382 1.377 . S
C383 C384 1.379 . S
C384 H368 0.931 . S
C384 C378 1.383 . S
C384 C383 1.379 . S
H385 C379 0.959 . S
H386 C379 0.961 . S
H387 C379 0.960 . S
H388 C380 0.930 . S
H389 C381 0.929 . S
H390 C398 0.929 . S
H391 C400 0.930 . S
H392 C402 0.930 . S
H393 C405 0.929 . S
H394 C408 0.930 . S
H395 C410 0.960 . S
H396 C410 0.960 . S
H397 C410 0.960 . S
C398 H390 0.929 . S
C398 C399 1.377 . S
C398 C400 1.384 . S
C399 C398 1.377 . S
C399 C405 1.390 . S
C400 H391 0.930 . S
C400 C398 1.384 . S
C400 C401 1.372 . S
C401 C400 1.372 . S
C401 C402 1.400 . S
C401 C406 1.490 . S
C402 H392 0.930 . S
C402 C401 1.400 . S
C402 C405 1.386 . S
H403 C419 0.930 . S
H404 C420 0.931 . S
C405 H393 0.929 . S
C405 C399 1.390 . S
C405 C402 1.386 . S
C406 C401 1.490 . S
C406 C408 1.395 . S
C406 C409 1.403 . S
H407 C413 0.930 . S
C408 H394 0.930 . S
C408 C406 1.395 . S
C408 C411 1.403 . S
C409 C406 1.403 . S
C409 C410 1.524 . S
C409 C413 1.400 . S
C410 H395 0.960 . S
C410 H396 0.960 . S
C410 H397 0.960 . S
C410 C409 1.524 . S
C411 C408 1.403 . S
C411 C412 1.392 . S
C411 C415 1.495 . S
C412 C411 1.392 . S
C412 C413 1.385 . S
C412 C414 1.478 . S
C413 H407 0.930 . S
C413 C409 1.400 . S
C413 C412 1.385 . S
C414 C412 1.478 . S
C414 C416 1.381 . S
C414 C420 1.383 . S
C415 C411 1.495 . S
C415 H421 0.959 . S
C415 H422 0.961 . S
C415 H423 0.960 . S
C416 C414 1.381 . S
C416 C417 1.394 . S
C416 H424 0.930 . S
C417 C416 1.394 . S
C417 C418 1.383 . S
C417 H425 0.929 . S
C418 C417 1.383 . S
C418 C419 1.377 . S
C419 H403 0.930 . S
C419 C418 1.377 . S
C419 C420 1.379 . S
C420 H404 0.931 . S
C420 C414 1.383 . S
C420 C419 1.379 . S
H421 C415 0.959 . S
H422 C415 0.961 . S
H423 C415 0.960 . S
H424 C416 0.930 . S
H425 C417 0.929 . S
H426 C434 0.929 . S
H427 C436 0.930 . S
H428 C438 0.930 . S
H429 C441 0.929 1_545 S
H430 C444 0.930 . S
H431 C446 0.960 . S
H432 C446 0.960 . S
H433 C446 0.960 . S
C434 H426 0.929 . S
C434 C435 1.377 . S
C434 C436 1.384 . S
C435 C434 1.377 . S
C435 C441 1.390 . S
C436 H427 0.930 . S
C436 C434 1.384 . S
C436 C437 1.372 . S
C437 C436 1.372 . S
C437 C438 1.400 . S
C437 C442 1.490 . S
C438 H428 0.930 . S
C438 C437 1.400 . S
C438 C441 1.386 . S
H439 C455 0.930 . S
H440 C456 0.931 . S
C441 H429 0.929 1_565 S
C441 C435 1.390 . S
C441 C438 1.386 . S
C442 C437 1.490 . S
C442 C444 1.395 . S
C442 C445 1.403 . S
H443 C449 0.930 . S
C444 H430 0.930 . S
C444 C442 1.395 . S
C444 C447 1.403 . S
C445 C442 1.403 . S
C445 C446 1.524 . S
C445 C449 1.400 . S
C446 H431 0.960 . S
C446 H432 0.960 . S
C446 H433 0.960 . S
C446 C445 1.524 . S
C447 C444 1.403 . S
C447 C448 1.392 . S
C447 C451 1.495 . S
C448 C447 1.392 . S
C448 C449 1.385 . S
C448 C450 1.478 . S
C449 H443 0.930 . S
C449 C445 1.400 . S
C449 C448 1.385 . S
C450 C448 1.478 . S
C450 C452 1.381 . S
C450 C456 1.383 . S
C451 C447 1.495 . S
C451 H457 0.959 . S
C451 H458 0.961 . S
C451 H459 0.960 . S
C452 C450 1.381 . S
C452 C453 1.394 . S
C452 H460 0.930 . S
C453 C452 1.394 . S
C453 C454 1.383 . S
C453 H461 0.929 . S
C454 C453 1.383 . S
C454 C455 1.377 . S
C455 H439 0.930 . S
C455 C454 1.377 . S
C455 C456 1.379 . S
C456 H440 0.931 . S
C456 C450 1.383 . S
C456 C455 1.379 . S
H457 C451 0.959 . S
H458 C451 0.961 . S
H459 C451 0.960 . S
H460 C452 0.930 . S
H461 C453 0.929 . S
H462 C470 0.929 . S
H463 C472 0.930 . S
H464 C474 0.930 . S
H465 C477 0.929 . S
H466 C480 0.930 . S
H467 C482 0.960 . S
H468 C482 0.960 . S
H469 C482 0.960 . S
C470 H462 0.929 . S
C470 C471 1.377 . S
C470 C472 1.384 . S
C471 C470 1.377 . S
C471 C477 1.390 . S
C472 H463 0.930 . S
C472 C470 1.384 . S
C472 C473 1.372 . S
C473 C472 1.372 . S
C473 C474 1.400 . S
C473 C478 1.490 . S
C474 H464 0.930 . S
C474 C473 1.400 . S
C474 C477 1.386 . S
H475 C491 0.930 . S
H476 C492 0.931 . S
C477 H465 0.929 . S
C477 C471 1.390 . S
C477 C474 1.386 . S
C478 C473 1.490 . S
C478 C480 1.395 . S
C478 C481 1.403 . S
H479 C485 0.930 1_655 S
C480 H466 0.930 . S
C480 C478 1.395 . S
C480 C483 1.403 . S
C481 C478 1.403 . S
C481 C482 1.524 . S
C481 C485 1.400 . S
C482 H467 0.960 . S
C482 H468 0.960 . S
C482 H469 0.960 . S
C482 C481 1.524 . S
C483 C480 1.403 . S
C483 C484 1.392 . S
C483 C487 1.495 . S
C484 C483 1.392 . S
C484 C485 1.385 . S
C484 C486 1.487 . S
C485 H479 0.930 1_455 S
C485 C481 1.400 . S
C485 C484 1.385 . S
C486 C484 1.487 . S
C486 C488 1.382 . S
C486 C492 1.371 1_455 S
C487 C483 1.495 . S
C487 H493 0.959 . S
C487 H494 0.961 . S
C487 H495 0.960 . S
C488 C486 1.382 . S
C488 C489 1.394 1_455 S
C488 H496 0.930 . S
C489 C488 1.394 1_655 S
C489 C490 1.383 . S
C489 H497 0.930 . S
C490 C489 1.383 . S
C490 C491 1.377 . S
C491 H475 0.930 . S
C491 C490 1.377 . S
C491 C492 1.379 . S
C492 H476 0.931 . S
C492 C486 1.371 1_655 S
C492 C491 1.379 . S
H493 C487 0.959 . S
H494 C487 0.961 . S
H495 C487 0.960 . S
H496 C488 0.930 . S
H497 C489 0.930 . S
H498 C506 0.929 . S
H499 C508 0.930 . S
H500 C510 0.930 . S
H501 C513 0.929 . S
H502 C516 0.930 . S
H503 C518 0.960 . S
H504 C518 0.960 . S
H505 C518 0.960 . S
C506 H498 0.929 . S
C506 C507 1.377 . S
C506 C508 1.384 . S
C507 C506 1.377 . S
C507 C513 1.390 . S
C508 H499 0.930 . S
C508 C506 1.384 . S
C508 C509 1.372 . S
C509 C508 1.372 . S
C509 C510 1.400 . S
C509 C514 1.490 . S
C510 H500 0.930 . S
C510 C509 1.400 . S
C510 C513 1.386 . S
H511 C527 0.932 . S
H512 C528 0.931 . S
C513 H501 0.929 . S
C513 C507 1.390 . S
C513 C510 1.386 . S
C514 C509 1.490 . S
C514 C516 1.395 . S
C514 C517 1.403 . S
H515 C521 0.930 . S
C516 H502 0.930 . S
C516 C514 1.395 . S
C516 C519 1.403 . S
C517 C514 1.403 . S
C517 C518 1.524 . S
C517 C521 1.400 . S
C518 H503 0.960 . S
C518 H504 0.960 . S
C518 H505 0.960 . S
C518 C517 1.524 . S
C519 C516 1.403 . S
C519 C520 1.392 . S
C519 C523 1.495 . S
C520 C519 1.392 . S
C520 C521 1.385 . S
C520 C522 1.478 1_545 S
C521 H515 0.930 . S
C521 C517 1.400 . S
C521 C520 1.385 . S
C522 C520 1.478 1_565 S
C522 C524 1.381 . S
C522 C528 1.383 1_565 S
C523 C519 1.495 . S
C523 H529 0.959 . S
C523 H530 0.961 . S
C523 H531 0.960 1_545 S
C524 C522 1.381 . S
C524 C525 1.394 . S
C524 H532 0.930 . S
C525 C524 1.394 . S
C525 C526 1.383 . S
C525 H533 0.929 . S
C526 C525 1.383 . S
C526 C527 1.377 . S
C527 H511 0.932 . S
C527 C526 1.377 . S
C527 C528 1.379 1_565 S
C528 H512 0.931 . S
C528 C522 1.383 1_545 S
C528 C527 1.379 1_545 S
H529 C523 0.959 . S
H530 C523 0.961 . S
H531 C523 0.960 1_565 S
H532 C524 0.930 . S
H533 C525 0.929 . S
H534 C542 0.929 . S
H535 C544 0.930 . S
H536 C546 0.930 . S
H537 C549 0.929 . S
H538 C552 0.930 . S
H539 C554 0.960 . S
H540 C554 0.960 . S
H541 C554 0.960 . S
C542 H534 0.929 . S
C542 C543 1.377 . S
C542 C544 1.384 . S
C543 C542 1.377 . S
C543 C549 1.390 . S
C544 H535 0.930 . S
C544 C542 1.384 . S
C544 C545 1.372 . S
C545 C544 1.372 . S
C545 C546 1.400 . S
C545 C550 1.490 . S
C546 H536 0.930 . S
C546 C545 1.400 . S
C546 C549 1.386 . S
H547 C563 0.930 1_565 S
H548 C564 0.931 . S
C549 H537 0.929 . S
C549 C543 1.390 . S
C549 C546 1.386 . S
C550 C545 1.490 . S
C550 C552 1.395 . S
C550 C553 1.403 . S
H551 C557 0.930 . S
C552 H538 0.930 . S
C552 C550 1.395 . S
C552 C555 1.403 . S
C553 C550 1.403 . S
C553 C554 1.524 . S
C553 C557 1.400 . S
C554 H539 0.960 . S
C554 H540 0.960 . S
C554 H541 0.960 . S
C554 C553 1.524 . S
C555 C552 1.403 . S
C555 C556 1.392 . S
C555 C559 1.495 1_554 S
C556 C555 1.392 . S
C556 C557 1.385 . S
C556 C558 1.478 . S
C557 H551 0.930 . S
C557 C553 1.400 . S
C557 C556 1.385 . S
C558 C556 1.478 . S
C558 C560 1.381 . S
C558 C564 1.383 . S
C559 C555 1.495 1_556 S
C559 H565 0.959 . S
C559 H566 0.961 . S
C559 H567 0.960 1_556 S
C560 C558 1.381 . S
C560 C561 1.394 1_455 S
C560 H568 0.930 . S
C561 C560 1.394 1_655 S
C561 C562 1.383 . S
C561 H569 0.929 . S
C562 C561 1.383 . S
C562 C563 1.377 . S
C563 H547 0.930 1_545 S
C563 C562 1.377 . S
C563 C564 1.379 1_655 S
C564 H548 0.931 . S
C564 C558 1.383 . S
C564 C563 1.379 1_455 S
H565 C559 0.959 . S
H566 C559 0.961 . S
H567 C559 0.960 1_554 S
H568 C560 0.930 . S
H569 C561 0.929 . S
H570 C578 0.929 . S
H571 C580 0.930 . S
H572 C582 0.930 . S
H573 C585 0.929 1_655 S
H574 C588 0.930 . S
H575 C590 0.960 . S
H576 C590 0.960 . S
H577 C590 0.960 . S
C578 H570 0.929 . S
C578 C579 1.377 . S
C578 C580 1.384 1_565 S
C579 C578 1.377 . S
C579 C585 1.390 . S
C580 H571 0.930 . S
C580 C578 1.384 1_545 S
C580 C581 1.372 . S
C581 C580 1.372 . S
C581 C582 1.400 . S
C581 C586 1.490 . S
C582 H572 0.930 . S
C582 C581 1.400 . S
C582 C585 1.386 1_545 S
H583 C599 0.930 . S
H584 C600 0.931 . S
C585 H573 0.929 1_455 S
C585 C579 1.390 . S
C585 C582 1.386 1_565 S
C586 C581 1.490 . S
C586 C588 1.395 . S
C586 C589 1.403 . S
H587 C593 0.930 . S
C588 H574 0.930 . S
C588 C586 1.395 . S
C588 C591 1.403 . S
C589 C586 1.403 . S
C589 C590 1.524 . S
C589 C593 1.400 . S
C590 H575 0.960 . S
C590 H576 0.960 . S
C590 H577 0.960 . S
C590 C589 1.524 . S
C591 C588 1.403 . S
C591 C592 1.392 . S
C591 C595 1.495 . S
C592 C591 1.392 . S
C592 C593 1.385 . S
C592 C594 1.478 . S
C593 H587 0.930 . S
C593 C589 1.400 . S
C593 C592 1.385 . S
C594 C592 1.478 . S
C594 C596 1.381 . S
C594 C600 1.383 . S
C595 C591 1.495 . S
C595 H601 0.959 . S
C595 H602 0.961 . S
C595 H603 0.960 . S
C596 C594 1.381 . S
C596 C597 1.394 . S
C596 H604 0.930 . S
C597 C596 1.394 . S
C597 C598 1.383 . S
C597 H605 0.929 . S
C598 C597 1.383 . S
C598 C599 1.377 . S
C599 H583 0.930 . S
C599 C598 1.377 . S
C599 C600 1.379 . S
C600 H584 0.931 . S
C600 C594 1.383 . S
C600 C599 1.379 . S
H601 C595 0.959 . S
H602 C595 0.961 . S
H603 C595 0.960 . S
H604 C596 0.930 . S
H605 C597 0.929 . S
H606 C614 0.929 . S
H607 C616 0.930 . S
H608 C618 0.930 . S
H609 C621 0.929 1_655 S
H610 C624 0.930 . S
H611 C626 0.960 . S
H612 C626 0.960 . S
H613 C626 0.960 . S
C614 H606 0.929 . S
C614 C615 1.377 . S
C614 C616 1.384 . S
C615 C614 1.377 . S
C615 C621 1.390 . S
C616 H607 0.930 . S
C616 C614 1.384 . S
C616 C617 1.372 . S
C617 C616 1.372 . S
C617 C618 1.400 . S
C617 C622 1.490 . S
C618 H608 0.930 . S
C618 C617 1.400 . S
C618 C621 1.386 . S
H619 C635 0.930 1_565 S
H620 C636 0.931 . S
C621 H609 0.929 1_455 S
C621 C615 1.390 . S
C621 C618 1.386 . S
C622 C617 1.490 . S
C622 C624 1.395 . S
C622 C625 1.403 . S
H623 C629 0.930 . S
C624 H610 0.930 . S
C624 C622 1.395 . S
C624 C627 1.403 . S
C625 C622 1.403 . S
C625 C626 1.524 . S
C625 C629 1.400 . S
C626 H611 0.960 . S
C626 H612 0.960 . S
C626 H613 0.960 . S
C626 C625 1.524 . S
C627 C624 1.403 . S
C627 C628 1.392 . S
C627 C631 1.495 . S
C628 C627 1.392 . S
C628 C629 1.385 . S
C628 C630 1.478 . S
C629 H623 0.930 . S
C629 C625 1.400 . S
C629 C628 1.385 . S
C630 C628 1.478 . S
C630 C632 1.381 . S
C630 C636 1.383 . S
C631 C627 1.495 . S
C631 H637 0.959 . S
C631 H638 0.961 . S
C631 H639 0.960 . S
C632 C630 1.381 . S
C632 C633 1.394 . S
C632 H640 0.930 . S
C633 C632 1.394 . S
C633 C634 1.383 . S
C633 H641 0.929 . S
C634 C633 1.383 . S
C634 C635 1.377 . S
C635 H619 0.930 1_545 S
C635 C634 1.377 . S
C635 C636 1.379 . S
C636 H620 0.931 . S
C636 C630 1.383 . S
C636 C635 1.379 . S
H637 C631 0.959 . S
H638 C631 0.961 . S
H639 C631 0.960 . S
H640 C632 0.930 . S
H641 C633 0.929 . S
H642 C650 0.929 . S
H643 C652 0.930 . S
H644 C654 0.930 . S
H645 C657 0.929 1_565 S
H646 C660 0.930 . S
H647 C662 0.960 . S
H648 C662 0.960 . S
H649 C662 0.960 . S
C650 H642 0.929 . S
C650 C651 1.377 . S
C650 C652 1.384 . S
C651 C650 1.377 . S
C651 C657 1.390 . S
C652 H643 0.930 . S
C652 C650 1.384 . S
C652 C653 1.372 . S
C653 C652 1.372 . S
C653 C654 1.400 . S
C653 C658 1.490 . S
C654 H644 0.930 . S
C654 C653 1.400 . S
C654 C657 1.386 . S
H655 C671 0.930 . S
H656 C672 0.931 . S
C657 H645 0.929 1_545 S
C657 C651 1.390 . S
C657 C654 1.386 . S
C658 C653 1.490 . S
C658 C660 1.395 1_554 S
C658 C661 1.403 . S
H659 C665 0.930 . S
C660 H646 0.930 . S
C660 C658 1.395 1_556 S
C660 C663 1.403 . S
C661 C658 1.403 . S
C661 C662 1.524 . S
C661 C665 1.400 . S
C662 H647 0.960 . S
C662 H648 0.960 . S
C662 H649 0.960 . S
C662 C661 1.524 . S
C663 C660 1.403 . S
C663 C664 1.392 1_556 S
C663 C667 1.495 . S
C664 C663 1.392 1_554 S
C664 C665 1.385 . S
C664 C666 1.478 . S
C665 H659 0.930 . S
C665 C661 1.400 . S
C665 C664 1.385 . S
C666 C664 1.478 . S
C666 C668 1.381 . S
C666 C672 1.383 . S
C667 C663 1.495 . S
C667 H673 0.959 . S
C667 H674 0.961 . S
C667 H675 0.960 . S
C668 C666 1.381 . S
C668 C669 1.394 . S
C668 H676 0.930 . S
C669 C668 1.394 . S
C669 C670 1.383 . S
C669 H677 0.929 . S
C670 C669 1.383 . S
C670 C671 1.377 . S
C671 H655 0.930 . S
C671 C670 1.377 . S
C671 C672 1.379 . S
C672 H656 0.931 . S
C672 C666 1.383 . S
C672 C671 1.379 . S
H673 C667 0.959 . S
H674 C667 0.961 . S
H675 C667 0.960 . S
H676 C668 0.930 . S
H677 C669 0.929 . S
H678 C686 0.929 . S
H679 C688 0.930 . S
H680 C690 0.930 . S
H681 C693 0.929 . S
H682 C696 0.930 . S
H683 C698 0.960 . S
H684 C698 0.960 . S
H685 C698 0.960 . S
C686 H678 0.929 . S
C686 C687 1.377 . S
C686 C688 1.384 . S
C687 C686 1.377 . S
C687 C693 1.390 . S
C688 H679 0.930 . S
C688 C686 1.384 . S
C688 C689 1.372 . S
C689 C688 1.372 . S
C689 C690 1.400 . S
C689 C694 1.490 . S
C690 H680 0.930 . S
C690 C689 1.400 . S
C690 C693 1.386 . S
H691 C707 0.930 . S
H692 C708 0.931 . S
C693 H681 0.929 . S
C693 C687 1.390 . S
C693 C690 1.386 . S
C694 C689 1.490 . S
C694 C696 1.395 . S
C694 C697 1.403 . S
H695 C701 0.930 . S
C696 H682 0.930 . S
C696 C694 1.395 . S
C696 C699 1.403 . S
C697 C694 1.403 . S
C697 C698 1.524 . S
C697 C701 1.400 . S
C698 H683 0.960 . S
C698 H684 0.960 . S
C698 H685 0.960 . S
C698 C697 1.524 . S
C699 C696 1.403 . S
C699 C700 1.392 . S
C699 C703 1.495 . S
C700 C699 1.392 . S
C700 C701 1.385 . S
C700 C702 1.478 . S
C701 H695 0.930 . S
C701 C697 1.400 . S
C701 C700 1.385 . S
C702 C700 1.478 . S
C702 C704 1.381 . S
C702 C708 1.383 . S
C703 C699 1.495 . S
C703 H709 0.959 . S
C703 H710 0.961 . S
C703 H711 0.960 . S
C704 C702 1.381 . S
C704 C705 1.394 . S
C704 H712 0.930 . S
C705 C704 1.394 . S
C705 C706 1.383 . S
C705 H713 0.929 . S
C706 C705 1.383 . S
C706 C707 1.377 . S
C707 H691 0.930 . S
C707 C706 1.377 . S
C707 C708 1.379 . S
C708 H692 0.931 . S
C708 C702 1.383 . S
C708 C707 1.379 . S
H709 C703 0.959 . S
H710 C703 0.961 . S
H711 C703 0.960 . S
H712 C704 0.930 . S
H713 C705 0.929 . S
H714 C722 0.929 . S
H715 C724 0.930 . S
H716 C726 0.930 . S
H717 C729 0.929 . S
H718 C732 0.930 . S
H719 C734 0.960 . S
H720 C734 0.960 . S
H721 C734 0.960 . S
C722 H714 0.929 . S
C722 C723 1.377 . S
C722 C724 1.384 . S
C723 C722 1.377 . S
C723 C729 1.390 . S
C724 H715 0.930 . S
C724 C722 1.384 . S
C724 C725 1.372 . S
C725 C724 1.372 . S
C725 C726 1.400 . S
C725 C730 1.490 . S
C726 H716 0.930 . S
C726 C725 1.400 . S
C726 C729 1.386 . S
H727 C743 0.930 . S
H728 C744 0.931 . S
C729 H717 0.929 . S
C729 C723 1.390 . S
C729 C726 1.386 . S
C730 C725 1.490 . S
C730 C732 1.395 . S
C730 C733 1.403 . S
H731 C737 0.930 . S
C732 H718 0.930 . S
C732 C730 1.395 . S
C732 C735 1.403 . S
C733 C730 1.403 . S
C733 C734 1.524 . S
C733 C737 1.400 . S
C734 H719 0.960 . S
C734 H720 0.960 . S
C734 H721 0.960 . S
C734 C733 1.524 . S
C735 C732 1.403 . S
C735 C736 1.392 . S
C735 C739 1.495 . S
C736 C735 1.392 . S
C736 C737 1.385 . S
C736 C738 1.478 . S
C737 H731 0.930 . S
C737 C733 1.400 . S
C737 C736 1.385 . S
C738 C736 1.478 . S
C738 C740 1.381 . S
C738 C744 1.383 . S
C739 C735 1.495 . S
C739 H745 0.959 . S
C739 H746 0.961 . S
C739 H747 0.960 . S
C740 C738 1.381 . S
C740 C741 1.394 . S
C740 H748 0.930 . S
C741 C740 1.394 . S
C741 C742 1.383 . S
C741 H749 0.929 . S
C742 C741 1.383 . S
C742 C743 1.377 . S
C743 H727 0.930 . S
C743 C742 1.377 . S
C743 C744 1.379 . S
C744 H728 0.931 . S
C744 C738 1.383 . S
C744 C743 1.379 . S
H745 C739 0.959 . S
H746 C739 0.961 . S
H747 C739 0.960 . S
H748 C740 0.930 . S
H749 C741 0.929 . S
C327 C38 1.949 . S
C346 C92 1.907 . S
C363 C91 1.948 . S
C382 C145 1.892 . S
C399 C198 1.906 . S
C418 C144 1.945 . S
C435 C197 1.951 . S
C454 C251 1.902 . S
C471 C304 1.900 . S
C490 C250 1.945 . S
C507 C39 1.904 . S
C526 C303 1.942 . S
C543 C29 1.422 . S
C562 C188 1.390 . S
C579 C241 1.422 . S
C598 C82 1.393 . S
C615 C135 1.413 . S
C634 C294 1.421 . S
C651 C181 1.951 . S
C670 C22 1.960 . S
C687 C234 1.954 . S
C706 C75 1.934 . S
C723 C287 1.953 . S
C742 C128 1.966 . S
