# Generated by pormake.
# Topology wgm, (5)-cn, num edge types: 1
# Building blocks:
#     Node 0, Type 0, BuildingBlock: XOMCOT_clean_sbu_1, # of connection points: 5
#     Node 1, Type 0, BuildingBlock: XOMCOT_clean_sbu_1, # of connection points: 5
#     Node 2, Type 0, BuildingBlock: XOMCOT_clean_sbu_1, # of connection points: 5
#     Node 3, Type 0, BuildingBlock: XOMCOT_clean_sbu_1, # of connection points: 5
#     Node 4, Type 0, BuildingBlock: XOMCOT_clean_sbu_1, # of connection points: 5
#     Node 5, Type 0, BuildingBlock: XOMCOT_clean_sbu_1, # of connection points: 5
#     Node 6, Type 0, BuildingBlock: XOMCOT_clean_sbu_1, # of connection points: 5
#     Node 7, Type 0, BuildingBlock: XOMCOT_clean_sbu_1, # of connection points: 5
#     Node 8, Type 0, BuildingBlock: XOMCOT_clean_sbu_1, # of connection points: 5
#     Node 9, Type 0, BuildingBlock: XOMCOT_clean_sbu_1, # of connection points: 5
#     Node 10, Type 0, BuildingBlock: XOMCOT_clean_sbu_1, # of connection points: 5
#     Node 11, Type 0, BuildingBlock: XOMCOT_clean_sbu_1, # of connection points: 5
#     Node 12, Type 0, BuildingBlock: XOMCOT_clean_sbu_1, # of connection points: 5
#     Node 13, Type 0, BuildingBlock: XOMCOT_clean_sbu_1, # of connection points: 5
#     Node 14, Type 0, BuildingBlock: XOMCOT_clean_sbu_1, # of connection points: 5
#     Node 15, Type 0, BuildingBlock: XOMCOT_clean_sbu_1, # of connection points: 5
#     Node 16, Type 0, BuildingBlock: XOMCOT_clean_sbu_1, # of connection points: 5
#     Node 17, Type 0, BuildingBlock: XOMCOT_clean_sbu_1, # of connection points: 5
#     Node 18, Type 0, BuildingBlock: XOMCOT_clean_sbu_1, # of connection points: 5
#     Node 19, Type 0, BuildingBlock: XOMCOT_clean_sbu_1, # of connection points: 5
#     Node 20, Type 0, BuildingBlock: XOMCOT_clean_sbu_1, # of connection points: 5
#     Node 21, Type 0, BuildingBlock: XOMCOT_clean_sbu_1, # of connection points: 5
#     Node 22, Type 0, BuildingBlock: XOMCOT_clean_sbu_1, # of connection points: 5
#     Node 23, Type 0, BuildingBlock: XOMCOT_clean_sbu_1, # of connection points: 5
#     Node 24, Type 0, BuildingBlock: XOMCOT_clean_sbu_1, # of connection points: 5
#     Node 25, Type 0, BuildingBlock: XOMCOT_clean_sbu_1, # of connection points: 5
#     Node 26, Type 0, BuildingBlock: XOMCOT_clean_sbu_1, # of connection points: 5
#     Node 27, Type 0, BuildingBlock: XOMCOT_clean_sbu_1, # of connection points: 5
#     Node 28, Type 0, BuildingBlock: XOMCOT_clean_sbu_1, # of connection points: 5
#     Node 29, Type 0, BuildingBlock: XOMCOT_clean_sbu_1, # of connection points: 5
#     Node 30, Type 0, BuildingBlock: XOMCOT_clean_sbu_1, # of connection points: 5
#     Node 31, Type 0, BuildingBlock: XOMCOT_clean_sbu_1, # of connection points: 5
#     Edge 32, Type (0, 0), BuildingBlock: AJUNOK_clean_linker_0, # of connection points: 2
#     Edge 33, Type (0, 0), BuildingBlock: AJUNOK_clean_linker_0, # of connection points: 2
#     Edge 34, Type (0, 0), BuildingBlock: AJUNOK_clean_linker_0, # of connection points: 2
#     Edge 35, Type (0, 0), BuildingBlock: AJUNOK_clean_linker_0, # of connection points: 2
#     Edge 36, Type (0, 0), BuildingBlock: AJUNOK_clean_linker_0, # of connection points: 2
#     Edge 37, Type (0, 0), BuildingBlock: AJUNOK_clean_linker_0, # of connection points: 2
#     Edge 38, Type (0, 0), BuildingBlock: AJUNOK_clean_linker_0, # of connection points: 2
#     Edge 39, Type (0, 0), BuildingBlock: AJUNOK_clean_linker_0, # of connection points: 2
#     Edge 40, Type (0, 0), BuildingBlock: AJUNOK_clean_linker_0, # of connection points: 2
#     Edge 41, Type (0, 0), BuildingBlock: AJUNOK_clean_linker_0, # of connection points: 2
#     Edge 42, Type (0, 0), BuildingBlock: AJUNOK_clean_linker_0, # of connection points: 2
#     Edge 43, Type (0, 0), BuildingBlock: AJUNOK_clean_linker_0, # of connection points: 2
#     Edge 44, Type (0, 0), BuildingBlock: AJUNOK_clean_linker_0, # of connection points: 2
#     Edge 45, Type (0, 0), BuildingBlock: AJUNOK_clean_linker_0, # of connection points: 2
#     Edge 46, Type (0, 0), BuildingBlock: AJUNOK_clean_linker_0, # of connection points: 2
#     Edge 47, Type (0, 0), BuildingBlock: AJUNOK_clean_linker_0, # of connection points: 2
#     Edge 48, Type (0, 0), BuildingBlock: AJUNOK_clean_linker_0, # of connection points: 2
#     Edge 49, Type (0, 0), BuildingBlock: AJUNOK_clean_linker_0, # of connection points: 2
#     Edge 50, Type (0, 0), BuildingBlock: AJUNOK_clean_linker_0, # of connection points: 2
#     Edge 51, Type (0, 0), BuildingBlock: AJUNOK_clean_linker_0, # of connection points: 2
#     Edge 52, Type (0, 0), BuildingBlock: AJUNOK_clean_linker_0, # of connection points: 2
#     Edge 53, Type (0, 0), BuildingBlock: AJUNOK_clean_linker_0, # of connection points: 2
#     Edge 54, Type (0, 0), BuildingBlock: AJUNOK_clean_linker_0, # of connection points: 2
#     Edge 55, Type (0, 0), BuildingBlock: AJUNOK_clean_linker_0, # of connection points: 2
#     Edge 56, Type (0, 0), BuildingBlock: AJUNOK_clean_linker_0, # of connection points: 2
#     Edge 57, Type (0, 0), BuildingBlock: AJUNOK_clean_linker_0, # of connection points: 2
#     Edge 58, Type (0, 0), BuildingBlock: AJUNOK_clean_linker_0, # of connection points: 2
#     Edge 59, Type (0, 0), BuildingBlock: AJUNOK_clean_linker_0, # of connection points: 2
#     Edge 60, Type (0, 0), BuildingBlock: AJUNOK_clean_linker_0, # of connection points: 2
#     Edge 61, Type (0, 0), BuildingBlock: AJUNOK_clean_linker_0, # of connection points: 2
#     Edge 62, Type (0, 0), BuildingBlock: AJUNOK_clean_linker_0, # of connection points: 2
#     Edge 63, Type (0, 0), BuildingBlock: AJUNOK_clean_linker_0, # of connection points: 2
#     Edge 64, Type (0, 0), BuildingBlock: AJUNOK_clean_linker_0, # of connection points: 2
#     Edge 65, Type (0, 0), BuildingBlock: AJUNOK_clean_linker_0, # of connection points: 2
#     Edge 66, Type (0, 0), BuildingBlock: AJUNOK_clean_linker_0, # of connection points: 2
#     Edge 67, Type (0, 0), BuildingBlock: AJUNOK_clean_linker_0, # of connection points: 2
#     Edge 68, Type (0, 0), BuildingBlock: AJUNOK_clean_linker_0, # of connection points: 2
#     Edge 69, Type (0, 0), BuildingBlock: AJUNOK_clean_linker_0, # of connection points: 2
#     Edge 70, Type (0, 0), BuildingBlock: AJUNOK_clean_linker_0, # of connection points: 2
#     Edge 71, Type (0, 0), BuildingBlock: AJUNOK_clean_linker_0, # of connection points: 2
#     Edge 72, Type (0, 0), BuildingBlock: AJUNOK_clean_linker_0, # of connection points: 2
#     Edge 73, Type (0, 0), BuildingBlock: AJUNOK_clean_linker_0, # of connection points: 2
#     Edge 74, Type (0, 0), BuildingBlock: AJUNOK_clean_linker_0, # of connection points: 2
#     Edge 75, Type (0, 0), BuildingBlock: AJUNOK_clean_linker_0, # of connection points: 2
#     Edge 76, Type (0, 0), BuildingBlock: AJUNOK_clean_linker_0, # of connection points: 2
#     Edge 77, Type (0, 0), BuildingBlock: AJUNOK_clean_linker_0, # of connection points: 2
#     Edge 78, Type (0, 0), BuildingBlock: AJUNOK_clean_linker_0, # of connection points: 2
#     Edge 79, Type (0, 0), BuildingBlock: AJUNOK_clean_linker_0, # of connection points: 2
#     Edge 80, Type (0, 0), BuildingBlock: AJUNOK_clean_linker_0, # of connection points: 2
#     Edge 81, Type (0, 0), BuildingBlock: AJUNOK_clean_linker_0, # of connection points: 2
#     Edge 82, Type (0, 0), BuildingBlock: AJUNOK_clean_linker_0, # of connection points: 2
#     Edge 83, Type (0, 0), BuildingBlock: AJUNOK_clean_linker_0, # of connection points: 2
#     Edge 84, Type (0, 0), BuildingBlock: AJUNOK_clean_linker_0, # of connection points: 2
#     Edge 85, Type (0, 0), BuildingBlock: AJUNOK_clean_linker_0, # of connection points: 2
#     Edge 86, Type (0, 0), BuildingBlock: AJUNOK_clean_linker_0, # of connection points: 2
#     Edge 87, Type (0, 0), BuildingBlock: AJUNOK_clean_linker_0, # of connection points: 2
#     Edge 88, Type (0, 0), BuildingBlock: AJUNOK_clean_linker_0, # of connection points: 2
#     Edge 89, Type (0, 0), BuildingBlock: AJUNOK_clean_linker_0, # of connection points: 2
#     Edge 90, Type (0, 0), BuildingBlock: AJUNOK_clean_linker_0, # of connection points: 2
#     Edge 91, Type (0, 0), BuildingBlock: AJUNOK_clean_linker_0, # of connection points: 2
#     Edge 92, Type (0, 0), BuildingBlock: AJUNOK_clean_linker_0, # of connection points: 2
#     Edge 93, Type (0, 0), BuildingBlock: AJUNOK_clean_linker_0, # of connection points: 2
#     Edge 94, Type (0, 0), BuildingBlock: AJUNOK_clean_linker_0, # of connection points: 2
#     Edge 95, Type (0, 0), BuildingBlock: AJUNOK_clean_linker_0, # of connection points: 2
#     Edge 96, Type (0, 0), BuildingBlock: AJUNOK_clean_linker_0, # of connection points: 2
#     Edge 97, Type (0, 0), BuildingBlock: AJUNOK_clean_linker_0, # of connection points: 2
#     Edge 98, Type (0, 0), BuildingBlock: AJUNOK_clean_linker_0, # of connection points: 2
#     Edge 99, Type (0, 0), BuildingBlock: AJUNOK_clean_linker_0, # of connection points: 2
#     Edge 100, Type (0, 0), BuildingBlock: AJUNOK_clean_linker_0, # of connection points: 2
#     Edge 101, Type (0, 0), BuildingBlock: AJUNOK_clean_linker_0, # of connection points: 2
#     Edge 102, Type (0, 0), BuildingBlock: AJUNOK_clean_linker_0, # of connection points: 2
#     Edge 103, Type (0, 0), BuildingBlock: AJUNOK_clean_linker_0, # of connection points: 2
#     Edge 104, Type (0, 0), BuildingBlock: AJUNOK_clean_linker_0, # of connection points: 2
#     Edge 105, Type (0, 0), BuildingBlock: AJUNOK_clean_linker_0, # of connection points: 2
#     Edge 106, Type (0, 0), BuildingBlock: AJUNOK_clean_linker_0, # of connection points: 2
#     Edge 107, Type (0, 0), BuildingBlock: AJUNOK_clean_linker_0, # of connection points: 2
#     Edge 108, Type (0, 0), BuildingBlock: AJUNOK_clean_linker_0, # of connection points: 2
#     Edge 109, Type (0, 0), BuildingBlock: AJUNOK_clean_linker_0, # of connection points: 2
#     Edge 110, Type (0, 0), BuildingBlock: AJUNOK_clean_linker_0, # of connection points: 2
#     Edge 111, Type (0, 0), BuildingBlock: AJUNOK_clean_linker_0, # of connection points: 2
# Relax obj value: 0.182
# Max RMSD: 0.173
# Mean RMSD: 0.173
data_MOF--net-wgm--node1-XOMCOT_clean_sbu_1--edge1-AJUNOK_clean_linker_0
_symmetry_space_group_name_H-M    P1
_symmetry_Int_Tables_number       1
_symmetry_cell_setting            triclinic
loop_
_symmetry_equiv_pos_as_xyz
'x, y, z'
_cell_length_a     34.573418
_cell_length_b     34.554279
_cell_length_c     59.224542
_cell_angle_alpha  90.110141
_cell_angle_beta   89.7311
_cell_angle_gamma 90.041479
loop_
_atom_site_label
_atom_site_type_symbol
_atom_site_fract_x
_atom_site_fract_y
_atom_site_fract_z
_atom_type_partial_charge
C0 C 0.22307 0.11126 0.36357 0.0
C1 C 0.22565 0.0785 0.3504 0.0
N2 N 0.2192 0.08842 0.32881 0.0
N3 N 0.21474 0.14217 0.35054 0.0
C4 C 0.2127 0.12725 0.32926 0.0
H5 H 0.2263 0.11241 0.38172 0.0
Co6 Co 0.20234 0.19178 0.36331 0.0
C7 C 0.24116 0.2484 0.33365 0.0
O8 O 0.25314 0.26386 0.35264 0.0
N9 N 0.18577 0.23981 0.37653 0.0
C10 C 0.15719 0.2975 0.38028 0.0
C11 C 0.17222 0.27102 0.36527 0.0
C12 C 0.17535 0.24713 0.39832 0.0
N13 N 0.15963 0.28264 0.40116 0.0
O14 O 0.14898 0.18404 0.35505 0.0
H15 H 0.17174 0.27405 0.34713 0.0
H16 H 0.1786 0.22647 0.4119 0.0
O17 O 0.21815 0.21889 0.33446 0.0
C18 C 0.13549 0.16351 0.37127 0.0
O19 O 0.15943 0.152 0.38704 0.0
N20 N 0.25493 0.19705 0.37405 0.0
C21 C 0.326 0.18447 0.39498 0.0
C22 C 0.32001 0.17233 0.37266 0.0
C23 C 0.28465 0.18016 0.36221 0.0
C24 C 0.26283 0.21332 0.39461 0.0
C25 C 0.29862 0.20894 0.40479 0.0
H26 H 0.28026 0.16965 0.34523 0.0
H27 H 0.24167 0.22819 0.40432 0.0
H28 H 0.20541 0.14421 0.31454 0.0
H29 H 0.23186 0.04948 0.35622 0.0
H30 H 0.14547 0.32565 0.37617 0.0
H31 H 0.34096 0.15433 0.36396 0.0
H32 H 0.30313 0.2213 0.4214 0.0
C33 C 0.19023 0.97598 0.61237 0.0
C34 C 0.22401 0.98136 0.60053 0.0
N35 N 0.21796 0.97272 0.57862 0.0
N36 N 0.16216 0.96367 0.59836 0.0
C37 C 0.18011 0.96144 0.57782 0.0
H38 H 0.18653 0.97982 0.63039 0.0
Co39 Co 0.11274 0.94799 0.61036 0.0
C40 C 0.05478 0.98138 0.57979 0.0
O41 O 0.03614 0.99064 0.5984 0.0
N42 N 0.06599 0.92811 0.62316 0.0
C43 C 1.0115 0.89419 0.6279 0.0
C44 C 0.03623 0.91076 0.61235 0.0
C45 C 0.05999 0.91862 0.64516 0.0
N46 N 0.02642 0.89945 0.6486 0.0
O47 O 0.12473 0.89497 0.60267 0.0
H48 H 0.03296 0.90927 0.59424 0.0
H49 H 0.07982 0.9261 0.65859 0.0
O50 O 0.08611 0.96108 0.58114 0.0
C51 C 0.14475 0.88356 0.61954 0.0
O52 O 0.15387 0.90909 0.6351 0.0
N53 N 0.10267 1.00074 0.62049 0.0
C54 C 0.11175 0.07202 0.64199 0.0
C55 C 0.12599 0.06637 0.62002 0.0
C56 C 0.11967 0.03093 0.60919 0.0
C57 C 0.08291 1.00878 0.64005 0.0
C58 C 0.08609 0.04457 0.65064 0.0
H59 H 0.13182 0.02684 0.59252 0.0
H60 H 0.06553 0.98796 0.64854 0.0
H61 H 0.16592 0.95114 0.56271 0.0
H62 H 0.25143 0.98935 0.60792 0.0
H63 H 0.98417 0.88019 0.62432 0.0
H64 H 0.14463 0.08751 0.61201 0.0
H65 H 0.07158 0.0491 0.66668 0.0
C66 C 0.305 0.94608 0.86579 0.0
C67 C 0.30248 0.97982 0.85366 0.0
N68 N 0.31141 0.97247 0.83185 0.0
N69 N 0.31592 0.91689 0.85207 0.0
C70 C 0.31985 0.93388 0.83146 0.0
H71 H 0.30076 0.94327 0.88382 0.0
Co72 Co 0.32942 0.86689 0.8635 0.0
C73 C 0.28898 0.81127 0.8337 0.0
O74 O 0.27655 0.79655 0.85283 0.0
N75 N 0.3465 0.81791 0.87506 0.0
C76 C 0.373 0.75909 0.87525 0.0
C77 C 0.35781 0.78764 0.86209 0.0
C78 C 0.35898 0.80787 0.89605 0.0
N79 N 0.37423 0.77183 0.89669 0.0
O80 O 0.38253 0.8756 0.85467 0.0
H81 H 0.35716 0.78659 0.84389 0.0
H82 H 0.35877 0.82725 0.91043 0.0
O83 O 0.31232 0.84067 0.83429 0.0
C84 C 0.39546 0.89554 0.87132 0.0
O85 O 0.37097 0.90617 0.88717 0.0
N86 N 0.27805 0.861 0.87528 0.0
C87 C 0.20555 0.8654 0.89649 0.0
C88 C 0.21063 0.87818 0.87414 0.0
C89 C 0.24678 0.87463 0.86364 0.0
C90 C 0.27288 0.84712 0.89662 0.0
C91 C 0.2367 0.84686 0.90689 0.0
H92 H 0.25019 0.88538 0.84661 0.0
H93 H 0.29666 0.8382 0.90673 0.0
H94 H 0.3297 0.91841 0.81662 0.0
H95 H 0.29663 1.00795 0.86089 0.0
H96 H 0.38271 0.73111 0.86929 0.0
H97 H 0.18812 0.89353 0.86527 0.0
H98 H 0.23428 0.8355 0.92386 0.0
C99 C 0.35415 0.06 0.10744 0.0
C100 C 0.32201 0.05552 0.09414 0.0
N101 N 0.32997 0.06986 0.0736 0.0
N102 N 0.38297 0.07677 0.09544 0.0
C103 C 0.36719 0.0825 0.07467 0.0
H104 H 0.35597 0.05224 0.12507 0.0
Co105 Co 0.43089 0.09138 0.10916 0.0
C106 C 0.49332 0.0618 0.07877 0.0
O107 O 0.5132 0.05501 0.09719 0.0
N108 N 0.4777 0.10793 0.12341 0.0
C109 C 0.52892 0.14636 0.12873 0.0
C110 C 0.50121 0.13451 0.11366 0.0
C111 C 0.49228 0.10413 0.14462 0.0
N112 N 0.52307 0.12741 0.1482 0.0
O113 O 0.42196 0.14506 0.10168 0.0
H114 H 0.49769 0.14556 0.09672 0.0
H115 H 0.48028 0.08604 0.15768 0.0
O116 O 0.46004 0.07861 0.08047 0.0
C117 C 0.39811 0.15851 0.11633 0.0
O118 O 0.3798 0.13386 0.1294 0.0
N119 N 0.4368 0.04045 0.11931 0.0
C120 C 0.42599 0.96797 0.13868 0.0
C121 C 0.43476 0.97129 0.11563 0.0
C122 C 0.4391 1.008 0.10611 0.0
C123 C 0.42882 0.03738 0.14175 0.0
C124 C 0.42438 1.00148 0.15191 0.0
H125 H 0.44078 1.01007 0.08797 0.0
H126 H 0.42205 0.06307 0.15141 0.0
H127 H 0.3824 0.09604 0.06076 0.0
H128 H 0.29467 0.04283 0.09919 0.0
H129 H 0.55159 0.16737 0.12568 0.0
H130 H 0.43461 0.94604 0.10476 0.0
H131 H 0.41555 1.00024 0.16948 0.0
C132 C 0.23359 0.95059 0.2217 0.0
C133 C 0.23782 0.98366 0.23428 0.0
N134 N 0.22776 0.97622 0.25588 0.0
N135 N 0.22049 0.92158 0.23486 0.0
C136 C 0.21679 0.93821 0.25567 0.0
H137 H 0.23815 0.94819 0.20366 0.0
Co138 Co 0.20379 0.87369 0.22147 0.0
C139 C 0.23538 0.8116 0.24994 0.0
O140 O 0.2434 0.79481 0.23059 0.0
N141 N 0.1826 0.82902 0.20739 0.0
C142 C 0.14568 0.77705 0.2013 0.0
C143 C 0.16349 0.79949 0.21745 0.0
C144 C 0.17314 0.82534 0.18526 0.0
N145 N 0.15199 0.79329 0.18101 0.0
O146 O 0.1511 0.8859 0.22956 0.0
H147 H 0.1616 0.79494 0.23547 0.0
H148 H 0.18223 0.84559 0.17234 0.0
O149 O 0.21637 0.84386 0.24988 0.0
C150 C 0.13894 0.90872 0.21412 0.0
O151 O 0.16421 0.92241 0.19958 0.0
N152 N 0.25637 0.86297 0.21089 0.0
C153 C 0.32787 0.86829 0.18907 0.0
C154 C 0.32274 0.88409 0.21071 0.0
C155 C 0.28718 0.87954 0.22176 0.0
C156 C 0.26383 0.84168 0.19179 0.0
C157 C 0.29964 0.843 0.18108 0.0
H158 H 0.28386 0.89231 0.2383 0.0
H159 H 0.24277 0.82369 0.18399 0.0
H160 H 0.20514 0.92306 0.27016 0.0
H161 H 0.24552 1.01162 0.22746 0.0
H162 H 0.13014 0.75028 0.20418 0.0
H163 H 0.34455 0.9024 0.21829 0.0
H164 H 0.30375 0.82715 0.16545 0.0
C165 C 0.35674 0.98984 0.47369 0.0
C166 C 0.32474 0.99212 0.48751 0.0
N167 N 0.33343 0.9759 0.50742 0.0
N168 N 0.38608 0.97227 0.48466 0.0
C169 C 0.37086 0.96417 0.50541 0.0
H170 H 0.35789 0.99909 0.45628 0.0
Co171 Co 0.43317 0.95724 0.46965 0.0
C172 C 0.4975 0.98526 0.49886 0.0
O173 O 0.51673 0.99255 0.48016 0.0
N174 N 0.47918 0.94028 0.45421 0.0
C175 C 0.53024 0.90197 0.44792 0.0
C176 C 0.50282 0.91345 0.46341 0.0
C177 C 0.49349 0.9447 0.43287 0.0
N178 N 0.52416 0.92145 0.42869 0.0
O179 O 0.42333 0.90363 0.47711 0.0
H180 H 0.49973 0.90212 0.48034 0.0
H181 H 0.48158 0.96349 0.42019 0.0
O182 O 0.46393 0.96893 0.49764 0.0
C183 C 0.39854 0.89225 0.46251 0.0
O184 O 0.38301 0.91838 0.44927 0.0
N185 N 0.43941 1.00818 0.45963 0.0
C186 C 0.42711 0.08087 0.44099 0.0
C187 C 0.43712 0.07723 0.4638 0.0
C188 C 0.44234 0.0404 0.47296 0.0
C189 C 0.43047 1.01161 0.43737 0.0
C190 C 0.42534 0.04767 0.42754 0.0
H191 H 0.44498 0.03797 0.49104 0.0
H192 H 0.42336 0.98607 0.4277 0.0
H193 H 0.38635 0.94876 0.51843 0.0
H194 H 0.29691 1.00431 0.48317 0.0
H195 H 0.553 0.88097 0.45056 0.0
H196 H 0.43702 0.10225 0.47485 0.0
H197 H 0.41562 0.04919 0.41019 0.0
C198 C 0.31554 0.10118 0.72267 0.0
C199 C 0.3123 0.07005 0.73693 0.0
N200 N 0.32127 0.08169 0.75791 0.0
N201 N 0.32689 0.1328 0.73434 0.0
C202 C 0.32989 0.12001 0.75601 0.0
H203 H 0.31097 0.10048 0.70463 0.0
Co204 Co 0.3395 0.17975 0.71896 0.0
C205 C 0.30857 0.24384 0.74742 0.0
O206 O 0.29741 0.25959 0.72836 0.0
N207 N 0.35397 0.2257 0.70289 0.0
C208 C 0.38765 0.27963 0.69591 0.0
C209 C 0.37721 0.25301 0.71204 0.0
C210 C 0.3513 0.2365 0.68084 0.0
N211 N 0.3714 0.2692 0.67626 0.0
O212 O 0.39354 0.17328 0.7263 0.0
H213 H 0.38715 0.25286 0.72932 0.0
H214 H 0.33665 0.22025 0.66791 0.0
O215 O 0.32711 0.21141 0.74674 0.0
C216 C 0.40679 0.14969 0.71146 0.0
O217 O 0.38219 0.13325 0.69761 0.0
N218 N 0.28816 0.18275 0.70918 0.0
C219 C 0.21564 0.16891 0.69063 0.0
C220 C 0.21917 0.17885 0.7135 0.0
C221 C 0.25593 0.18483 0.72261 0.0
C222 C 0.2849 0.17276 0.68704 0.0
C223 C 0.24897 0.16691 0.67725 0.0
H224 H 0.25841 0.18812 0.74067 0.0
H225 H 0.3105 0.16561 0.67741 0.0
H226 H 0.33942 0.13794 0.76992 0.0
H227 H 0.30409 0.04088 0.73224 0.0
H228 H 0.40613 0.30458 0.69837 0.0
H229 H 0.19411 0.17887 0.72454 0.0
H230 H 0.24762 0.15697 0.6599 0.0
C231 C 0.18081 0.04381 0.97385 0.0
C232 C 0.21423 0.03872 0.98587 0.0
N233 N 0.21102 0.05749 1.00575 0.0
N234 N 0.15579 0.06589 0.98576 0.0
C235 C 0.17527 0.07413 1.00516 0.0
H236 H 0.1761 0.03378 0.9568 0.0
Co237 Co 0.10883 0.08548 0.97289 0.0
C238 C 0.04559 0.06132 1.00421 0.0
O239 O 0.02441 0.0569 0.98602 0.0
N240 N 0.06306 0.10702 0.9597 0.0
C241 C 1.01521 0.15006 0.95621 0.0
C242 C 0.0433 0.13571 0.97021 0.0
C243 C 0.04597 0.10474 0.93904 0.0
N244 N 1.01686 0.13057 0.93659 0.0
O245 O 0.12398 0.13799 0.98017 0.0
H246 H 0.04949 0.14621 0.98703 0.0
H247 H 0.05504 0.08582 0.92556 0.0
O248 O 0.0801 0.07542 1.00214 0.0
C249 C 0.15076 0.14934 0.96667 0.0
O250 O 0.16956 0.12305 0.95498 0.0
N251 N 0.09683 0.03533 0.96282 0.0
C252 C 0.10088 0.96181 0.94366 0.0
C253 C 0.09458 0.96625 0.96691 0.0
C254 C 0.09347 1.00334 0.97627 0.0
C255 C 0.10194 0.03124 0.94014 0.0
C256 C 0.1028 0.99487 0.9301 0.0
H257 H 0.09404 1.00585 0.99442 0.0
H258 H 0.10994 0.05607 0.93011 0.0
H259 H 0.16395 0.09293 1.01825 0.0
H260 H 0.23984 0.02409 0.9797 0.0
H261 H 0.99494 0.17299 0.96018 0.0
H262 H 0.09487 0.94136 0.97801 0.0
H263 H 0.11008 0.99275 0.91233 0.0
C264 C 0.86656 0.88969 0.77344 0.0
C265 C 0.86485 0.91678 0.79043 0.0
N266 N 0.84415 0.94734 0.78324 0.0
N267 N 0.84682 0.9024 0.75531 0.0
C268 C 0.83359 0.9379 0.76185 0.0
H269 H 0.88186 0.86244 0.77419 0.0
Co270 Co 0.84446 0.87354 0.72767 0.0
C271 C 0.83829 0.7948 0.7545 0.0
O272 O 0.87077 0.77675 0.74979 0.0
N273 N 0.84326 0.84617 0.70013 0.0
C274 C 0.84576 0.83933 0.66272 0.0
C275 C 0.84039 0.86496 0.68027 0.0
C276 C 0.85044 0.80892 0.6942 0.0
N277 N 0.85242 0.80405 0.67145 0.0
O278 O 0.89925 0.86452 0.72839 0.0
H279 H 0.83592 0.8958 0.67867 0.0
H280 H 0.85607 0.78615 0.70621 0.0
O281 O 0.83188 0.828 0.74589 0.0
C282 C 0.9176 0.89412 0.72113 0.0
O283 O 0.89908 0.9273 0.72051 0.0
N284 N 0.79189 0.88371 0.72453 0.0
C285 C 0.7197 0.89987 0.70651 0.0
C286 C 0.72731 0.86336 0.71554 0.0
C287 C 0.76387 0.85568 0.72435 0.0
C288 C 0.78456 0.91949 0.71605 0.0
C289 C 0.74839 0.92846 0.70737 0.0
H290 H 0.77013 0.82632 0.72924 0.0
H291 H 0.80785 0.9402 0.71436 0.0
H292 H 0.81626 0.95645 0.75136 0.0
H293 H 0.87842 0.91431 0.80679 0.0
H294 H 0.84493 0.84622 0.64491 0.0
H295 H 0.70594 0.84046 0.7147 0.0
H296 H 0.74382 0.95664 0.69984 0.0
C297 C 0.85331 0.05025 0.46957 0.0
C298 C 0.8209 0.0474 0.48307 0.0
N299 N 0.82985 0.06022 0.50385 0.0
N300 N 0.88304 0.06478 0.48164 0.0
C301 C 0.86777 0.07049 0.50263 0.0
H302 H 0.85477 0.04356 0.45173 0.0
Co303 Co 0.93046 0.08199 0.46806 0.0
C304 C 0.99207 0.0512 0.49718 0.0
O305 O 1.00937 0.04262 0.47804 0.0
N306 N 0.97556 0.10365 0.45415 0.0
C307 C 0.02743 0.14158 0.44985 0.0
C308 C 1.00384 0.12306 0.46514 0.0
C309 C 0.98129 0.11361 0.43215 0.0
N310 N 1.0133 0.13543 0.42907 0.0
O311 O 0.91679 0.13457 0.47578 0.0
H312 H 1.00652 0.12505 0.48327 0.0
H313 H 0.962 0.10551 0.41859 0.0
O314 O 0.95982 0.07019 0.4967 0.0
C315 C 0.89401 0.14479 0.45985 0.0
O316 O 0.88378 0.11849 0.44498 0.0
N317 N 0.94185 0.02959 0.45791 0.0
C318 C 0.93912 0.95585 0.43817 0.0
C319 C 0.9245 0.96215 0.46005 0.0
C320 C 0.9278 0.99878 0.46998 0.0
C321 C 0.96053 1.02226 0.43793 0.0
C322 C 0.96086 0.98552 0.42834 0.0
H323 H 0.91597 1.00281 0.48672 0.0
H324 H 0.97436 0.04426 0.42835 0.0
H325 H 0.88347 0.08384 0.51637 0.0
H326 H 0.7926 0.03738 0.4779 0.0
H327 H 0.05327 0.15804 0.45365 0.0
H328 H 0.90773 0.94042 0.46883 0.0
H329 H 0.97484 0.9816 0.41209 0.0
C330 C 0.74432 0.10597 0.21991 0.0
C331 C 0.74744 0.07326 0.23295 0.0
N332 N 0.7304 0.07975 0.25315 0.0
N333 N 0.72612 0.134 0.23173 0.0
C334 C 0.71747 0.11699 0.25184 0.0
H335 H 0.75439 0.10908 0.20269 0.0
Co336 Co 0.71063 0.18257 0.21902 0.0
C337 C 0.73714 0.2409 0.25178 0.0
O338 O 0.74663 0.2617 0.23407 0.0
N339 N 0.69084 0.22843 0.20564 0.0
C340 C 0.65431 0.28079 0.20023 0.0
C341 C 0.6701 0.25647 0.21608 0.0
C342 C 0.68448 0.23495 0.18332 0.0
N343 N 0.66369 0.26741 0.1796 0.0
O344 O 0.65725 0.1684 0.22404 0.0
H345 H 0.66549 0.25852 0.2341 0.0
H346 H 0.69522 0.21628 0.16999 0.0
O347 O 0.71865 0.20875 0.24899 0.0
C348 C 0.6482 0.14594 0.20766 0.0
O349 O 0.67587 0.13436 0.19396 0.0
N350 N 0.76427 0.1954 0.21163 0.0
C351 C 0.83702 0.18892 0.19176 0.0
C352 C 0.82986 0.17264 0.21307 0.0
C353 C 0.79367 0.17795 0.22325 0.0
C354 C 0.77413 0.21823 0.1936 0.0
C355 C 0.81074 0.21627 0.18383 0.0
H356 H 0.7884 0.16433 0.23936 0.0
H357 H 0.75424 0.23743 0.18575 0.0
H358 H 0.70042 0.13124 0.26474 0.0
H359 H 0.76133 0.04661 0.22779 0.0
H360 H 0.6375 0.30661 0.2036 0.0
H361 H 0.85019 0.15295 0.2208 0.0
H362 H 0.81665 0.23278 0.16867 0.0
C363 C 0.68924 0.98839 0.96955 0.0
C364 C 0.72131 0.9919 0.98301 0.0
N365 N 0.71329 0.97742 1.00366 0.0
N366 N 0.66025 0.97183 0.98132 0.0
C367 C 0.67568 0.96547 1.00211 0.0
H368 H 0.68771 0.996 0.95188 0.0
Co369 Co 0.61339 0.95559 0.96723 0.0
C370 C 0.54929 0.98021 0.99756 0.0
O371 O 0.53047 0.98745 0.97883 0.0
N372 N 0.56739 0.93688 0.95264 0.0
C373 C 0.51885 0.89512 0.94741 0.0
C374 C 0.54612 0.90843 0.96229 0.0
C375 C 0.55195 0.94019 0.93158 0.0
N376 N 0.52272 0.91483 0.92801 0.0
O377 O 0.62651 0.90206 0.97315 0.0
H378 H 0.55087 0.89721 0.97908 0.0
H379 H 0.5625 0.95928 0.91857 0.0
O380 O 0.58333 0.96481 0.99621 0.0
C381 C 0.64537 0.89371 0.95507 0.0
O382 O 0.65367 0.92193 0.94102 0.0
N383 N 0.60428 1.00684 0.95827 0.0
C384 C 0.607 0.08134 0.94037 0.0
C385 C 0.60148 0.07569 0.96361 0.0
C386 C 0.60109 0.03814 0.97233 0.0
C387 C 0.61016 1.01208 0.93575 0.0
C388 C 0.61055 0.04889 0.92635 0.0
H389 H 0.60114 0.03461 0.99043 0.0
H390 H 0.61794 0.98772 0.92525 0.0
H391 H 0.65957 0.95182 1.01559 0.0
H392 H 0.74905 1.00295 0.97748 0.0
H393 H 0.49772 0.87262 0.9506 0.0
H394 H 0.6006 0.1001 0.97511 0.0
H395 H 0.61754 0.05192 0.90859 0.0
C396 C 0.79 0.11249 0.87014 0.0
C397 C 0.78883 0.07749 0.85918 0.0
N398 N 0.809 0.08026 0.8397 0.0
N399 N 0.81007 0.13819 0.8576 0.0
C400 C 0.82163 0.11757 0.83916 0.0
H401 H 0.77799 0.11857 0.88667 0.0
Co402 Co 0.82475 0.18818 0.86842 0.0
C403 C 0.79442 0.2414 0.83385 0.0
O404 O 0.78272 0.26236 0.85112 0.0
N405 N 0.84323 0.23631 0.87999 0.0
C406 C 0.87482 0.29245 0.88293 0.0
C407 C 0.85988 0.26551 0.86823 0.0
C408 C 0.85177 0.24493 0.90184 0.0
N409 N 0.86975 0.27938 0.90406 0.0
O410 O 0.87828 0.17526 0.86315 0.0
H411 H 0.86215 0.26693 0.85006 0.0
H412 H 0.84502 0.22622 0.91596 0.0
O413 O 0.81514 0.21096 0.83753 0.0
C414 C 0.88822 0.15438 0.87999 0.0
O415 O 0.86143 0.14404 0.89458 0.0
N416 N 0.77145 0.19939 0.87619 0.0
C417 C 0.69675 0.19304 0.89406 0.0
C418 C 0.7051 0.1796 0.87216 0.0
C419 C 0.74226 0.18461 0.86318 0.0
C420 C 0.76199 0.21729 0.89607 0.0
C421 C 0.72455 0.21606 0.90468 0.0
H422 H 0.7485 0.1724 0.84674 0.0
H423 H 0.7831 0.23049 0.90658 0.0
H424 H 0.84102 0.12902 0.82643 0.0
H425 H 0.77505 0.05151 0.86549 0.0
H426 H 0.88813 0.31978 0.87848 0.0
H427 H 0.6849 0.16188 0.86285 0.0
H428 H 0.71894 0.22899 0.92105 0.0
C429 C 0.69573 0.05872 0.61281 0.0
C430 C 0.72821 0.05505 0.59954 0.0
N431 N 0.71924 0.06364 0.57796 0.0
N432 N 0.66549 0.06944 0.6 0.0
C433 C 0.68069 0.07237 0.5788 0.0
H434 H 0.69441 0.05461 0.63089 0.0
Co435 Co 0.6169 0.08428 0.61311 0.0
C436 C 0.55687 0.05951 0.58115 0.0
O437 O 0.53739 0.05083 0.59949 0.0
N438 N 0.57088 0.10409 0.62688 0.0
C439 C 0.52144 0.1446 0.63233 0.0
C440 C 0.54579 0.12824 0.61657 0.0
C441 C 0.56241 0.10839 0.64921 0.0
N442 N 0.5319 0.13201 0.65285 0.0
O443 O 0.63215 0.13812 0.60939 0.0
H444 H 0.54604 0.1348 0.59873 0.0
H445 H 0.57853 0.0946 0.66261 0.0
O446 O 0.58989 0.07688 0.58307 0.0
C447 C 0.64723 0.14412 0.62891 0.0
O448 O 0.65065 0.11421 0.64244 0.0
N449 N 0.60424 0.0302 0.62014 0.0
C450 C 0.61291 0.96124 0.64372 0.0
C451 C 0.63234 0.96685 0.62314 0.0
C452 C 0.62605 1.00093 0.61102 0.0
C453 C 0.57877 1.02062 0.63707 0.0
C454 C 0.5825 0.98622 0.649 0.0
H455 H 0.64207 1.00487 0.59554 0.0
H456 H 0.55588 0.03934 0.64234 0.0
H457 H 0.66362 0.08103 0.56445 0.0
H458 H 0.75669 0.04782 0.60571 0.0
H459 H 0.49755 0.16396 0.62895 0.0
H460 H 0.65515 0.94758 0.61759 0.0
H461 H 0.56462 0.98149 0.66382 0.0
C462 C 0.75412 0.93847 0.35647 0.0
C463 C 0.75674 0.97102 0.34327 0.0
N464 N 0.73467 0.96599 0.32482 0.0
N465 N 0.73092 0.91215 0.34646 0.0
C466 C 0.71964 0.92978 0.32702 0.0
H467 H 0.76738 0.93494 0.37282 0.0
Co468 Co 0.71365 0.86543 0.36063 0.0
C469 C 0.73842 0.80207 0.32971 0.0
O470 O 0.74499 0.78214 0.34816 0.0
N471 N 0.6943 0.81946 0.37512 0.0
C472 C 0.65315 0.77026 0.3803 0.0
C473 C 0.66642 0.79768 0.36537 0.0
C474 C 0.69739 0.80407 0.39624 0.0
N475 N 0.67249 0.77445 0.39975 0.0
O476 O 0.66041 0.87883 0.35416 0.0
H477 H 0.65553 0.8022 0.34848 0.0
H478 H 0.7162 0.81469 0.40931 0.0
O479 O 0.72336 0.83612 0.33154 0.0
C480 C 0.65105 0.90348 0.36946 0.0
O481 O 0.6787 0.91743 0.38228 0.0
N482 N 0.76443 0.85567 0.3701 0.0
C483 C 0.83773 0.85957 0.3893 0.0
C484 C 0.83353 0.85309 0.36605 0.0
C485 C 0.7965 0.85186 0.35666 0.0
C486 C 0.76833 0.86228 0.39262 0.0
C487 C 0.8045 0.86309 0.40269 0.0
H488 H 0.79403 0.85128 0.33851 0.0
H489 H 0.74338 0.87068 0.40251 0.0
H490 H 0.69941 0.91707 0.31525 0.0
H491 H 0.7735 0.99666 0.3471 0.0
H492 H 0.63092 0.74886 0.37714 0.0
H493 H 0.8586 0.85233 0.35502 0.0
H494 H 0.80644 0.87078 0.4204 0.0
C495 C 0.84462 0.97905 0.11223 0.0
C496 C 0.81275 0.98198 0.09851 0.0
N497 N 0.82338 0.97279 0.07732 0.0
N498 N 0.87566 0.96799 0.09992 0.0
C499 C 0.86178 0.9645 0.07852 0.0
H500 H 0.84477 0.98314 0.13033 0.0
Co501 Co 0.92248 0.9531 0.11421 0.0
C502 C 0.98736 0.97924 0.08469 0.0
O503 O 1.00559 0.98651 0.10363 0.0
N504 N 0.96835 0.93571 0.12927 0.0
C505 C 1.01805 0.8961 0.13589 0.0
C506 C 0.99073 0.9073 0.12046 0.0
C507 C 0.98299 0.94103 0.15036 0.0
N508 N 1.01319 0.91733 0.15472 0.0
O509 O 0.91095 0.89959 0.10745 0.0
H510 H 0.98688 0.89482 0.10386 0.0
H511 H 0.97134 0.96064 0.1628 0.0
O512 O 0.95336 0.96359 0.08563 0.0
C513 C 0.8935 0.88868 0.12551 0.0
O514 O 0.88752 0.91423 0.14159 0.0
N515 N 0.92963 1.00442 0.12366 0.0
C516 C 0.9235 0.07847 0.14196 0.0
C517 C 0.93195 0.07341 0.11897 0.0
C518 C 0.9338 0.03603 0.10999 0.0
C519 C 0.92112 1.00914 0.14595 0.0
C520 C 0.91898 0.04575 0.15558 0.0
H521 H 0.93573 0.03291 0.09189 0.0
H522 H 0.91309 0.98437 0.15602 0.0
H523 H 0.87888 0.95424 0.06437 0.0
H524 H 0.78368 0.98957 0.10378 0.0
H525 H 0.04002 0.87415 0.13342 0.0
H526 H 0.93405 0.09807 0.10777 0.0
H527 H 0.91028 0.04841 0.17312 0.0
C528 C 0.77974 0.6063 0.85935 0.0
C529 C 0.78008 0.57226 0.84737 0.0
N530 N 0.75027 0.5723 0.83277 0.0
N531 N 0.75054 0.62901 0.85215 0.0
C532 C 0.73314 0.6074 0.83587 0.0
H533 H 0.79971 0.61365 0.87267 0.0
Co534 Co 0.73723 0.67878 0.86432 0.0
C535 C 0.73212 0.72711 0.82173 0.0
O536 O 0.69908 0.74312 0.82753 0.0
N537 N 0.72456 0.72775 0.87671 0.0
C538 C 0.72907 0.78999 0.88621 0.0
C539 C 0.74221 0.76165 0.87179 0.0
C540 C 0.70121 0.73623 0.89455 0.0
N541 N 0.70358 0.77393 0.90059 0.0
O542 O 0.68296 0.66872 0.85938 0.0
H543 H 0.76435 0.76536 0.85902 0.0
H544 H 0.68371 0.71505 0.90333 0.0
O545 O 0.74684 0.7013 0.83444 0.0
C546 C 0.67207 0.64432 0.87439 0.0
O547 O 0.69861 0.62853 0.88723 0.0
N548 N 0.78841 0.68777 0.87202 0.0
C549 C 0.8619 0.69066 0.89053 0.0
C550 C 0.85688 0.69387 0.86707 0.0
C551 C 0.81959 0.69234 0.85804 0.0
C552 C 0.79268 0.68726 0.89482 0.0
C553 C 0.82907 0.6891 0.90446 0.0
H554 H 0.81617 0.69224 0.83993 0.0
H555 H 0.7676 0.6832 0.90555 0.0
H556 H 0.70769 0.61691 0.82688 0.0
H557 H 0.80137 0.54963 0.84922 0.0
H558 H 0.73777 0.8201 0.88631 0.0
H559 H 0.88161 0.69445 0.85578 0.0
H560 H 0.83144 0.68529 0.92255 0.0
C561 C 0.69759 0.47624 0.11018 0.0
C562 C 0.7297 0.4803 0.09661 0.0
N563 N 0.71881 0.47635 0.07497 0.0
N564 N 0.66602 0.46968 0.09736 0.0
C565 C 0.67999 0.46986 0.07581 0.0
H566 H 0.69736 0.47737 0.12843 0.0
Co567 Co 0.61751 0.45471 0.11049 0.0
C568 C 0.55778 0.48614 0.07997 0.0
O569 O 0.53741 0.49289 0.09826 0.0
N570 N 0.57196 0.43479 0.12412 0.0
C571 C 0.51957 0.39834 0.12956 0.0
C572 C 0.54386 0.41441 0.11367 0.0
C573 C 0.5654 0.42834 0.14645 0.0
N574 N 0.53298 0.40739 0.15019 0.0
O575 O 0.62867 0.40167 0.10249 0.0
H576 H 0.54168 0.4105 0.09561 0.0
H577 H 0.58386 0.43931 0.15973 0.0
O578 O 0.59018 0.46789 0.08161 0.0
C579 C 0.64842 0.38849 0.11902 0.0
O580 O 0.65962 0.4129 0.13469 0.0
N581 N 0.60729 0.50786 0.12121 0.0
C582 C 0.61266 0.57246 0.14927 0.0
C583 C 0.63597 0.56954 0.12994 0.0
C584 C 0.63176 0.53763 0.11562 0.0
C585 C 0.57899 0.51555 0.13698 0.0
C586 C 0.58123 0.54751 0.15122 0.0
H587 H 0.65042 0.53624 0.10104 0.0
H588 H 0.55442 0.49721 0.13949 0.0
H589 H 0.6625 0.46367 0.06113 0.0
H590 H 0.75901 0.48552 0.10223 0.0
H591 H 0.49363 0.38175 0.12623 0.0
H592 H 0.65949 0.58963 0.12692 0.0
H593 H 0.56043 0.55068 0.16484 0.0
C594 C 0.77638 0.42988 0.35591 0.0
C595 C 0.77409 0.46175 0.34208 0.0
N596 N 0.80408 0.46091 0.32757 0.0
N597 N 0.80744 0.40814 0.35013 0.0
C598 C 0.82392 0.42825 0.33282 0.0
H599 H 0.75727 0.42425 0.37 0.0
Co600 Co 0.8269 0.36323 0.36565 0.0
C601 C 0.80805 0.2968 0.33551 0.0
O602 O 0.8021 0.27636 0.35388 0.0
N603 N 0.84808 0.31943 0.38108 0.0
C604 C 0.89104 0.27239 0.38734 0.0
C605 C 0.87754 0.29879 0.37199 0.0
C606 C 0.84408 0.30428 0.4022 0.0
N607 N 0.87019 0.27609 0.40638 0.0
O608 O 0.87949 0.37872 0.35895 0.0
H609 H 0.88902 0.3031 0.35516 0.0
H610 H 0.82324 0.3137 0.41463 0.0
O611 O 0.82009 0.33199 0.33737 0.0
C612 C 0.88809 0.40564 0.37296 0.0
O613 O 0.85984 0.42134 0.38473 0.0
N614 N 0.77661 0.35104 0.37521 0.0
C615 C 0.70283 0.35622 0.39385 0.0
C616 C 0.70781 0.34455 0.37133 0.0
C617 C 0.74511 0.34283 0.36213 0.0
C618 C 0.772 0.36083 0.39732 0.0
C619 C 0.73554 0.36249 0.40716 0.0
H620 H 0.74792 0.33909 0.34413 0.0
H621 H 0.79656 0.37117 0.40682 0.0
H622 H 0.85072 0.41981 0.32469 0.0
H623 H 0.75321 0.48498 0.34348 0.0
H624 H 0.91403 0.25161 0.38465 0.0
H625 H 0.68307 0.34093 0.36037 0.0
H626 H 0.73288 0.37328 0.42429 0.0
C627 C 0.8422 0.57367 0.61302 0.0
C628 C 0.81032 0.56977 0.59933 0.0
N629 N 0.82137 0.57599 0.57786 0.0
N630 N 0.8737 0.58232 0.6004 0.0
C631 C 0.85989 0.58373 0.5789 0.0
H632 H 0.84228 0.57087 0.6312 0.0
Co633 Co 0.92219 0.59712 0.61356 0.0
C634 C 0.98231 0.57194 0.58093 0.0
O635 O 1.00364 0.56545 0.59876 0.0
N636 N 0.96794 0.61698 0.62728 0.0
C637 C 1.01861 0.65579 0.63284 0.0
C638 C 0.99338 0.6411 0.61711 0.0
C639 C 0.97687 0.61989 0.64957 0.0
N640 N 1.00851 0.64205 0.65327 0.0
O641 O 0.90727 0.65085 0.60946 0.0
H642 H 0.99312 0.64832 0.59935 0.0
H643 H 0.96065 0.60558 0.66283 0.0
O644 O 0.94928 0.58905 0.58347 0.0
C645 C 0.89066 0.65782 0.62852 0.0
O646 O 0.88713 0.62891 0.64278 0.0
N647 N 0.93485 0.543 0.62089 0.0
C648 C 0.92942 0.47513 0.64595 0.0
C649 C 0.9069 0.47999 0.62657 0.0
C650 C 0.91121 0.5136 0.61372 0.0
C651 C 0.96294 0.53371 0.63629 0.0
C652 C 0.96067 0.50001 0.64907 0.0
H653 H 0.89296 0.51665 0.59915 0.0
H654 H 0.98708 0.55213 0.63968 0.0
H655 H 0.87722 0.59179 0.56442 0.0
H656 H 0.78116 0.5629 0.60473 0.0
H657 H 0.04309 0.67451 0.62946 0.0
H658 H 0.88368 0.46011 0.62254 0.0
H659 H 0.98106 0.49545 0.66264 0.0
C660 C 0.65889 0.41619 0.75269 0.0
C661 C 0.6624 0.44572 0.76807 0.0
N662 N 0.69999 0.45042 0.7727 0.0
N663 N 0.69425 0.40222 0.74692 0.0
C664 C 0.71874 0.42339 0.76013 0.0
H665 H 0.6316 0.40666 0.74594 0.0
Co666 Co 0.70424 0.36566 0.72255 0.0
C667 C 0.72584 0.29028 0.74772 0.0
O668 O 0.73044 0.26937 0.72941 0.0
N669 N 0.71271 0.33119 0.69785 0.0
C670 C 0.72723 0.31132 0.6629 0.0
C671 C 0.73454 0.3386 0.67935 0.0
C672 C 0.69181 0.29957 0.69187 0.0
N673 N 0.69998 0.2869 0.67071 0.0
O674 O 0.64963 0.35449 0.71994 0.0
H675 H 0.75353 0.36324 0.67744 0.0
H676 H 0.66992 0.28677 0.70264 0.0
O677 O 0.71438 0.32554 0.74602 0.0
C678 C 0.63823 0.3789 0.70511 0.0
O679 O 0.66295 0.4051 0.69795 0.0
N680 N 0.75652 0.37928 0.72215 0.0
C681 C 0.82953 0.40309 0.70835 0.0
C682 C 0.82413 0.36589 0.71703 0.0
C683 C 0.78719 0.35451 0.72405 0.0
C684 C 0.76176 0.41586 0.71421 0.0
C685 C 0.79816 0.42862 0.70761 0.0
H686 H 0.78314 0.32494 0.72904 0.0
H687 H 0.73702 0.43452 0.71179 0.0
H688 H 0.74987 0.42036 0.75993 0.0
H689 H 0.63909 0.46289 0.77512 0.0
H690 H 0.74103 0.30969 0.64649 0.0
H691 H 0.84772 0.34528 0.71725 0.0
H692 H 0.80118 0.45725 0.70037 0.0
C693 C 0.85811 0.49682 0.96818 0.0
C694 C 0.8241 0.5 0.98018 0.0
N695 N 0.83036 0.48948 1.00182 0.0
N696 N 0.88635 0.48401 0.98184 0.0
C697 C 0.86854 0.47957 1.00221 0.0
H698 H 0.8616 0.50159 0.95024 0.0
Co699 Co 0.93565 0.46685 0.97102 0.0
C700 C 0.99077 0.49998 1.00339 0.0
O701 O 1.01181 0.50696 0.98533 0.0
N702 N 0.98287 0.44525 0.9597 0.0
C703 C 0.03651 0.40941 0.95741 0.0
C704 C 1.01082 0.4275 0.97179 0.0
C705 C 0.99089 0.43457 0.93804 0.0
N706 N 0.02402 0.41419 0.93616 0.0
O707 O 0.92074 0.41431 0.97815 0.0
H708 H 1.012 0.42662 0.99002 0.0
H709 H 0.97267 0.44162 0.92381 0.0
O710 O 0.95959 0.47967 1.00127 0.0
C711 C 0.90239 0.40449 0.96027 0.0
O712 O 0.89738 0.43071 0.94451 0.0
N713 N 0.94859 0.5191 0.9612 0.0
C714 C 0.95339 0.5931 0.94195 0.0
C715 C 0.9336 0.58721 0.96244 0.0
C716 C 0.93288 0.55035 0.97219 0.0
C717 C 0.97125 0.52578 0.94257 0.0
C718 C 0.97531 0.5625 0.93338 0.0
H719 H 0.91738 0.54677 0.98791 0.0
H720 H 0.98587 0.5034 0.93373 0.0
H721 H 0.88309 0.46792 1.01683 0.0
H722 H 0.79647 0.50716 0.97286 0.0
H723 H 0.06261 0.39422 0.96217 0.0
H724 H 0.9162 0.60975 0.97007 0.0
H725 H 0.99263 0.5659 0.91822 0.0
C726 C 0.88719 0.61863 0.24449 0.0
C727 C 0.88616 0.58897 0.25981 0.0
N728 N 0.85036 0.58659 0.26867 0.0
N729 N 0.85216 0.63584 0.2432 0.0
C730 C 0.83047 0.61585 0.2586 0.0
H731 H 0.91219 0.62561 0.23435 0.0
Co732 Co 0.83831 0.67417 0.22072 0.0
C733 C 0.8224 0.74849 0.24846 0.0
O734 O 0.82363 0.77201 0.23112 0.0
N735 N 0.82556 0.71058 0.19736 0.0
C736 C 0.80301 0.73096 0.16415 0.0
C737 C 0.79869 0.70441 0.18122 0.0
C738 C 0.8466 0.74078 0.18911 0.0
N739 N 0.83317 0.75406 0.16907 0.0
O740 O 0.89269 0.68523 0.21521 0.0
H741 H 0.77881 0.68029 0.18084 0.0
H742 H 0.87229 0.7519 0.19724 0.0
O743 O 0.83083 0.71257 0.24564 0.0
C744 C 0.9 0.66586 0.19714 0.0
O745 O 0.87173 0.64528 0.18842 0.0
N746 N 0.78627 0.66042 0.22339 0.0
C747 C 0.7113 0.63788 0.21353 0.0
C748 C 0.71842 0.67474 0.22234 0.0
C749 C 0.75636 0.68546 0.2274 0.0
C750 C 0.77937 0.62385 0.21584 0.0
C751 C 0.74197 0.61171 0.21122 0.0
H752 H 0.76164 0.71503 0.23216 0.0
H753 H 0.80336 0.60491 0.21188 0.0
H754 H 0.80037 0.62214 0.26196 0.0
H755 H 0.90978 0.56934 0.26326 0.0
H756 H 0.78669 0.73142 0.14862 0.0
H757 H 0.69538 0.69585 0.22374 0.0
H758 H 0.73758 0.58332 0.20385 0.0
C759 C 0.68967 0.55422 0.46888 0.0
C760 C 0.72218 0.55058 0.48198 0.0
N761 N 0.71408 0.56287 0.50313 0.0
N762 N 0.6605 0.56904 0.48133 0.0
C763 C 0.67637 0.57437 0.50214 0.0
H764 H 0.68782 0.54795 0.45101 0.0
Co765 Co 0.61246 0.58569 0.4684 0.0
C766 C 0.55243 0.55587 0.49937 0.0
O767 O 0.53324 0.5478 0.48086 0.0
N768 N 0.56676 0.60679 0.45514 0.0
C769 C 0.51419 0.64369 0.45124 0.0
C770 C 0.53882 0.62648 0.46637 0.0
C771 C 0.55987 0.61542 0.4331 0.0
N772 N 0.52721 0.63636 0.43026 0.0
O773 O 0.62678 0.63878 0.47471 0.0
H774 H 0.537 0.62942 0.48451 0.0
H775 H 0.57855 0.60652 0.41932 0.0
O776 O 0.5846 0.57493 0.49786 0.0
C777 C 0.64926 0.6483 0.45832 0.0
O778 O 0.65968 0.62125 0.44394 0.0
N779 N 0.60028 0.53276 0.45939 0.0
C780 C 0.6032 0.45914 0.43985 0.0
C781 C 0.6192 0.46579 0.46124 0.0
C782 C 0.61594 0.50245 0.47113 0.0
C783 C 0.57927 0.52447 0.44043 0.0
C784 C 0.57913 0.48762 0.43096 0.0
H785 H 0.62896 0.50691 0.48746 0.0
H786 H 0.5631 0.54571 0.43163 0.0
H787 H 0.66083 0.58748 0.51608 0.0
H788 H 0.75022 0.54161 0.47577 0.0
H789 H 0.48838 0.66004 0.45534 0.0
H790 H 0.63674 0.44415 0.46951 0.0
H791 H 0.56314 0.48273 0.41553 0.0
C792 C 0.32411 0.44706 0.21679 0.0
C793 C 0.32046 0.48046 0.22919 0.0
N794 N 0.3243 0.47203 0.25129 0.0
N795 N 0.33062 0.41683 0.23062 0.0
C796 C 0.33113 0.43309 0.25164 0.0
H797 H 0.3229 0.44502 0.19858 0.0
Co798 Co 0.34251 0.36667 0.21822 0.0
C799 C 0.30491 0.31063 0.24886 0.0
O800 O 0.29381 0.29284 0.2304 0.0
N801 N 0.35912 0.31907 0.20517 0.0
C802 C 0.39036 0.26309 0.20067 0.0
C803 C 0.375 0.28871 0.21611 0.0
C804 C 0.36781 0.31221 0.18309 0.0
N805 N 0.38545 0.27773 0.17987 0.0
O806 O 0.39594 0.3742 0.22633 0.0
H807 H 0.37665 0.28583 0.23425 0.0
H808 H 0.3609 0.33207 0.16958 0.0
O809 O 0.32717 0.34056 0.24722 0.0
C810 C 0.41044 0.39299 0.20972 0.0
O811 O 0.38706 0.40497 0.1938 0.0
N812 N 0.28927 0.36054 0.2075 0.0
C813 C 0.2251 0.37643 0.18094 0.0
C814 C 0.22897 0.39384 0.20221 0.0
C815 C 0.2606 0.38416 0.2157 0.0
C816 C 0.28046 0.33731 0.18941 0.0
C817 C 0.24853 0.34476 0.17592 0.0
H818 H 0.26346 0.39867 0.23174 0.0
H819 H 0.29785 0.31321 0.18451 0.0
H820 H 0.33701 0.41683 0.26683 0.0
H821 H 0.31702 0.50906 0.22212 0.0
H822 H 0.40371 0.23552 0.20442 0.0
H823 H 0.21004 0.41714 0.20752 0.0
H824 H 0.24436 0.32808 0.16061 0.0
C825 C 0.37468 0.5438 0.97434 0.0
C826 C 0.3424 0.54174 0.98795 0.0
N827 N 0.34452 0.5699 1.00359 0.0
N828 N 0.39797 0.57285 0.98139 0.0
C829 C 0.37838 0.58844 0.99923 0.0
H830 H 0.37971 0.52606 0.95959 0.0
Co831 Co 0.44471 0.59088 0.96703 0.0
C832 C 0.50741 0.56676 0.99808 0.0
O833 O 0.52915 0.56117 0.98012 0.0
N834 N 0.49112 0.61039 0.95325 0.0
C835 C 0.54014 0.65201 0.94894 0.0
C836 C 0.51056 0.64018 0.96283 0.0
C837 C 0.51056 0.6042 0.93349 0.0
N838 N 0.53989 0.62963 0.9304 0.0
O839 O 0.43087 0.64427 0.97387 0.0
H840 H 0.50336 0.65301 0.97898 0.0
H841 H 0.50305 0.58266 0.92106 0.0
O842 O 0.4733 0.58123 0.99571 0.0
C843 C 0.40203 0.65634 0.96226 0.0
O844 O 0.37909 0.63049 0.9531 0.0
N845 N 0.45501 0.54046 0.95697 0.0
C846 C 0.44637 0.46805 0.93698 0.0
C847 C 0.45541 0.47122 0.95999 0.0
C848 C 0.45921 0.50787 0.9698 0.0
C849 C 0.44745 0.53757 0.9345 0.0
C850 C 0.44415 0.50174 0.92402 0.0
H851 H 0.46111 0.50968 0.98794 0.0
H852 H 0.44037 0.56333 0.92503 0.0
H853 H 0.38805 0.6138 1.00836 0.0
H854 H 0.31803 0.52245 0.98567 0.0
H855 H 0.56047 0.67516 0.95226 0.0
H856 H 0.45562 0.44582 0.97068 0.0
H857 H 0.43525 0.50065 0.90651 0.0
C858 C 0.22293 0.59547 0.72286 0.0
C859 C 0.22509 0.56379 0.73682 0.0
N860 N 0.21761 0.57524 0.75811 0.0
N861 N 0.21388 0.62732 0.73502 0.0
C862 C 0.21083 0.614 0.75662 0.0
H863 H 0.2273 0.59529 0.70476 0.0
Co864 Co 0.20361 0.67586 0.72041 0.0
C865 C 0.23852 0.73533 0.74985 0.0
O866 O 0.25277 0.74992 0.73112 0.0
N867 N 0.18896 0.72224 0.70518 0.0
C868 C 0.15987 0.77873 0.69859 0.0
C869 C 0.17341 0.75412 0.71494 0.0
C870 C 0.18132 0.72716 0.68283 0.0
N871 N 0.16488 0.76174 0.67841 0.0
O872 O 0.14926 0.66994 0.72707 0.0
H873 H 0.17069 0.75892 0.7329 0.0
H874 H 0.18795 0.70584 0.66996 0.0
O875 O 0.2159 0.70556 0.74876 0.0
C876 C 0.13503 0.64806 0.71176 0.0
O877 O 0.1589 0.63126 0.69751 0.0
N878 N 0.25784 0.68016 0.71161 0.0
C879 C 0.33225 0.66836 0.69385 0.0
C880 C 0.32245 0.65479 0.71546 0.0
C881 C 0.28571 0.6626 0.72442 0.0
C882 C 0.26902 0.69748 0.69186 0.0
C883 C 0.30619 0.69317 0.68322 0.0
H884 H 0.2791 0.65181 0.74108 0.0
H885 H 0.24981 0.71397 0.68178 0.0
H886 H 0.20284 0.63204 0.77084 0.0
H887 H 0.23193 0.53446 0.73173 0.0
H888 H 0.14767 0.80724 0.70127 0.0
H889 H 0.34142 0.63587 0.72479 0.0
H890 H 0.31312 0.70641 0.66713 0.0
C891 C 0.17739 0.50801 0.47542 0.0
C892 C 0.20929 0.51251 0.48882 0.0
N893 N 0.20526 0.48984 0.50708 0.0
N894 N 0.15209 0.48318 0.48517 0.0
C895 C 0.1703 0.47222 0.50453 0.0
H896 H 0.17384 0.52132 0.4591 0.0
Co897 Co 0.10564 0.46513 0.47067 0.0
C898 C 0.04011 0.49304 0.49918 0.0
O899 O 1.02172 0.49865 0.48011 0.0
N900 N 0.06037 0.44551 0.45607 0.0
C901 C 1.0105 0.40529 0.45087 0.0
C902 C 0.0382 0.41776 0.46578 0.0
C903 C 0.04482 0.44958 0.43513 0.0
N904 N 1.01491 0.42522 0.43162 0.0
O905 O 0.11688 0.41224 0.47928 0.0
H906 H 0.04234 0.40668 0.48266 0.0
H907 H 0.05514 0.46908 0.42227 0.0
O908 O 0.07424 0.47778 0.49857 0.0
C909 C 0.14547 0.39771 0.46833 0.0
O910 O 0.17061 0.42145 0.45911 0.0
N911 N 0.09743 0.51505 0.45931 0.0
C912 C 0.10763 0.58639 0.43848 0.0
C913 C 0.09671 0.58443 0.46128 0.0
C914 C 0.09263 0.5483 0.47158 0.0
C915 C 0.10671 0.51682 0.43698 0.0
C916 C 0.11087 0.55209 0.42607 0.0
H917 H 0.08953 0.54745 0.4897 0.0
H918 H 0.11486 0.49067 0.4281 0.0
H919 H 0.15848 0.45135 0.51629 0.0
H920 H 0.23431 0.53029 0.48507 0.0
H921 H 0.98859 0.3835 0.45396 0.0
H922 H 0.09536 0.61039 0.47154 0.0
H923 H 0.1211 0.55234 0.40875 0.0
C924 C 0.31654 0.60512 0.35988 0.0
C925 C 0.31506 0.57262 0.34645 0.0
N926 N 0.32368 0.58287 0.32513 0.0
N927 N 0.32621 0.63627 0.34731 0.0
C928 C 0.33039 0.62169 0.32603 0.0
H929 H 0.31174 0.6059 0.37794 0.0
Co930 Co 0.33827 0.6851 0.36116 0.0
C931 C 0.30468 0.74484 0.33163 0.0
O932 O 0.29426 0.76188 0.35053 0.0
N933 N 0.35511 0.73126 0.37567 0.0
C934 C 0.38814 0.78575 0.38179 0.0
C935 C 0.37329 0.76139 0.36562 0.0
C936 C 0.36222 0.73675 0.39802 0.0
N937 N 0.38106 0.77021 0.40216 0.0
O938 O 0.39227 0.6767 0.35424 0.0
H939 H 0.37664 0.76504 0.34759 0.0
H940 H 0.35324 0.71674 0.41109 0.0
O941 O 0.32568 0.71389 0.3325 0.0
C942 C 0.40525 0.6557 0.3703 0.0
O943 O 0.38046 0.64191 0.38509 0.0
N944 N 0.28426 0.69203 0.37033 0.0
C945 C 0.21103 0.6837 0.38991 0.0
C946 C 0.21927 0.66688 0.36888 0.0
C947 C 0.2556 0.67276 0.35896 0.0
C948 C 0.27376 0.71362 0.38883 0.0
C949 C 0.23716 0.71064 0.39845 0.0
H950 H 0.26107 0.65944 0.34277 0.0
H951 H 0.29281 0.73337 0.39691 0.0
H952 H 0.33965 0.63879 0.3117 0.0
H953 H 0.30827 0.54352 0.35195 0.0
H954 H 0.40248 0.81317 0.37888 0.0
H955 H 0.19916 0.64713 0.36093 0.0
H956 H 0.23066 0.72696 0.41364 0.0
C957 C 0.14687 0.63239 0.05787 0.0
C958 C 0.1778 0.63028 0.04313 0.0
N959 N 0.20622 0.60974 0.05292 0.0
N960 N 0.15549 0.61342 0.07708 0.0
C961 C 0.192 0.59996 0.07353 0.0
H962 H 0.11993 0.64739 0.05489 0.0
Co963 Co 0.12343 0.61117 0.1033 0.0
C964 C 0.0476 0.57767 0.08537 0.0
O965 O 0.03821 0.56334 0.10517 0.0
N966 N 0.0923 0.61039 0.12996 0.0
C967 C 0.07596 0.61071 0.16649 0.0
C968 C 0.10374 0.60036 0.15095 0.0
C969 C 0.0575 0.62769 0.13347 0.0
N970 N 0.04696 0.62837 0.15556 0.0
O971 O 0.11398 0.66622 0.102 0.0
H972 H 0.13129 0.58799 0.15529 0.0
H973 H 0.0409 0.64104 0.12014 0.0
O974 O 0.07865 0.59802 0.08346 0.0
C975 C 0.14347 0.68362 0.11016 0.0
O976 O 0.17546 0.66354 0.11253 0.0
N977 N 0.13617 0.55887 0.10678 0.0
C978 C 0.1587 0.48694 0.12236 0.0
C979 C 0.131 0.48963 0.10534 0.0
C980 C 0.1207 0.52625 0.09728 0.0
C981 C 0.166 0.55601 0.12156 0.0
C982 C 0.17743 0.52033 0.12985 0.0
H983 H 0.10051 0.52779 0.08359 0.0
H984 H 0.17983 0.58203 0.12774 0.0
H985 H 0.20839 0.58428 0.08602 0.0
H986 H 0.1792 0.64273 1.02638 0.0
H987 H 0.07719 0.6056 0.18449 0.0
H988 H 0.11738 0.46392 0.09854 0.0
H989 H 0.19993 0.5189 0.1425 0.0
C990 C 0.23193 0.44172 0.86732 0.0
C991 C 0.23367 0.47531 0.85497 0.0
N992 N 0.22644 0.4672 0.83308 0.0
N993 N 0.22307 0.41179 0.8537 0.0
C994 C 0.21962 0.42824 0.83289 0.0
H995 H 0.23565 0.43942 0.88539 0.0
Co996 Co 0.2127 0.36116 0.86562 0.0
C997 C 0.25018 0.30762 0.83331 0.0
O998 O 0.26411 0.29089 0.85144 0.0
N999 N 0.19859 0.31152 0.87802 0.0
C1000 C 0.17059 0.25323 0.88026 0.0
C1001 C 0.18453 0.28131 0.86597 0.0
C1002 C 0.18987 0.30172 0.89975 0.0
N1003 N 0.17427 0.26593 0.90157 0.0
O1004 O 0.15843 0.36813 0.85925 0.0
H1005 H 0.18234 0.28028 0.8478 0.0
H1006 H 0.19253 0.3213 0.91394 0.0
O1007 O 0.22658 0.33641 0.83565 0.0
C1008 C 0.14623 0.38602 0.87688 0.0
O1009 O 0.17152 0.39595 0.89231 0.0
N1010 N 0.26587 0.35682 0.8747 0.0
C1011 C 0.33993 0.36758 0.89279 0.0
C1012 C 0.33157 0.37917 0.8706 0.0
C1013 C 0.29475 0.37239 0.86165 0.0
C1014 C 0.27466 0.34329 0.89569 0.0
C1015 C 0.3117 0.34649 0.90447 0.0
H1016 H 0.28867 0.38261 0.8448 0.0
H1017 H 0.25309 0.33226 0.9068 0.0
H1018 H 0.21161 0.412 0.818 0.0
H1019 H 0.23801 0.50376 0.86212 0.0
H1020 H 0.158 0.22581 0.87532 0.0
H1021 H 0.35184 0.39605 0.86075 0.0
H1022 H 0.31689 0.33581 0.92137 0.0
C1023 C 0.35575 0.4963 0.60607 0.0
C1024 C 0.32371 0.50396 0.59325 0.0
N1025 N 0.32582 0.48296 0.57416 0.0
N1026 N 0.37917 0.47111 0.5951 0.0
C1027 C 0.35975 0.4632 0.57562 0.0
H1028 H 0.36073 0.50766 0.6228 0.0
Co1029 Co 0.42486 0.44858 0.60813 0.0
C1030 C 0.49046 0.4767 0.57975 0.0
O1031 O 0.50927 0.48029 0.59886 0.0
N1032 N 0.4694 0.42431 0.62095 0.0
C1033 C 0.51895 0.38288 0.62221 0.0
C1034 C 0.49139 0.39949 0.60872 0.0
C1035 C 0.48421 0.42153 0.64214 0.0
N1036 N 0.51421 0.39643 0.64332 0.0
O1037 O 0.40959 0.39747 0.59795 0.0
H1038 H 0.48735 0.39344 0.59097 0.0
H1039 H 0.47315 0.43659 0.65674 0.0
O1040 O 0.45584 0.46244 0.58014 0.0
C1041 C 0.38049 0.38459 0.60919 0.0
O1042 O 0.35784 0.40974 0.61933 0.0
N1043 N 0.43688 0.49668 0.62127 0.0
C1044 C 0.43179 0.56641 0.64478 0.0
C1045 C 0.44005 0.5661 0.62157 0.0
C1046 C 0.44177 0.53087 0.60999 0.0
C1047 C 0.42986 0.49673 0.64391 0.0
C1048 C 0.42829 0.53111 0.65611 0.0
H1049 H 0.44294 0.53161 0.59179 0.0
H1050 H 0.42076 0.47036 0.65211 0.0
H1051 H 0.36995 0.44292 0.56299 0.0
H1052 H 0.29991 0.52273 0.59793 0.0
H1053 H 0.54125 0.36296 0.61673 0.0
H1054 H 0.44121 0.59288 0.61211 0.0
H1055 H 0.41955 0.53011 0.6737 0.0
C1056 C 0.11797 0.32647 0.42355 0.0
C1057 C 0.1512 0.30314 0.42192 0.0
C1058 C 0.11349 0.35365 0.44104 0.0
C1059 C 0.1425 0.35928 0.45732 0.0
H1060 H 0.09646 0.32552 0.41033 0.0
H1061 H 0.08911 0.37311 0.44028 0.0
S1062 S 0.2339 0.30386 0.46151 0.0
N1063 N 0.21216 0.2853 0.43918 0.0
N1064 N 0.20448 0.33754 0.47148 0.0
C1065 C 0.17469 0.33445 0.45671 0.0
C1066 C 0.17885 0.3061 0.43918 0.0
C1067 C 1.00163 0.92561 0.68459 0.0
C1068 C 1.00618 0.89415 0.66975 0.0
C1069 C 0.97537 0.92393 0.70272 0.0
C1070 C 0.95315 0.89048 0.707 0.0
H1071 H 1.01632 0.95267 0.68115 0.0
H1072 H 0.97066 0.94994 0.7126 0.0
S1073 S 0.96075 0.79754 0.67581 0.0
N1074 N 0.99025 0.82705 0.66215 0.0
N1075 N 0.94231 0.82309 0.69685 0.0
C1076 C 0.96049 0.85751 0.69365 0.0
C1077 C 0.9865 0.85961 0.6748 0.0
C1078 C 0.37464 0.72158 0.9531 0.0
C1079 C 0.4039 0.69367 0.95007 0.0
C1080 C 0.36716 0.74973 0.9364 0.0
C1081 C 0.38804 0.75011 0.91589 0.0
H1082 H 0.35559 0.71986 0.96764 0.0
H1083 H 0.34286 0.7691 0.93872 0.0
S1084 S 0.46753 0.68356 0.89988 0.0
N1085 N 0.45378 0.66896 0.92515 0.0
N1086 N 0.44076 0.72176 0.89437 0.0
C1087 C 0.41881 0.7239 0.91342 0.0
C1088 C 0.4264 0.69565 0.93032 0.0
C1089 C 0.59854 0.10299 0.19087 0.0
C1090 C 0.60803 0.13958 0.19989 0.0
C1091 C 0.56812 0.09843 0.17542 0.0
C1092 C 0.54672 0.13047 0.16809 0.0
H1093 H 0.61679 0.07825 0.19437 0.0
H1094 H 0.5635 0.07039 0.1677 0.0
S1095 S 0.55582 0.23118 0.1889 0.0
N1096 N 0.59005 0.20738 0.20243 0.0
N1097 N 0.53366 0.19893 0.17287 0.0
C1098 C 0.55371 0.16651 0.17831 0.0
C1099 C 0.58412 0.17102 0.19443 0.0
C1100 C 0.17533 0.74099 0.1274 0.0
C1101 C 0.14074 0.72077 0.12288 0.0
C1102 C 0.1779 0.76757 0.14528 0.0
C1103 C 0.14609 0.77465 0.1595 0.0
H1104 H 0.20154 0.73401 0.11815 0.0
H1105 H 0.2058 0.78012 0.14918 0.0
S1106 S 0.04674 0.73694 0.1519 0.0
N1107 N 0.07208 0.71573 0.13164 0.0
N1108 N 0.07748 0.76472 0.16577 0.0
C1109 C 0.11042 0.75784 0.15386 0.0
C1110 C 0.10754 0.73129 0.13532 0.0
C1111 C 0.57129 0.95104 0.40264 0.0
C1112 C 0.54814 0.91937 0.40874 0.0
C1113 C 0.60218 0.9466 0.38733 0.0
C1114 C 0.61074 0.91045 0.37732 0.0
H1115 H 0.56755 0.9785 0.41122 0.0
H1116 H 0.62148 0.97093 0.38473 0.0
S1117 S 0.55354 0.82053 0.38461 0.0
N1118 N 0.53219 0.8522 0.40148 0.0
N1119 N 0.58954 0.84397 0.37228 0.0
C1120 C 0.58506 0.8797 0.38147 0.0
C1121 C 0.55404 0.88409 0.39739 0.0
C1122 C 0.41082 0.3055 0.64847 0.0
C1123 C 0.37493 0.28979 0.65512 0.0
C1124 C 0.4136 0.33237 0.63072 0.0
C1125 C 0.38043 0.3453 0.61931 0.0
H1126 H 0.43662 0.29864 0.65792 0.0
H1127 H 0.44127 0.34584 0.62759 0.0
S1128 S 0.28039 0.30949 0.62832 0.0
N1129 N 0.30629 0.28573 0.64712 0.0
N1130 N 0.31126 0.33707 0.6143 0.0
C1131 C 0.34496 0.32727 0.62452 0.0
C1132 C 0.34223 0.2994 0.64232 0.0
C1133 C 0.94945 0.17969 0.89597 0.0
C1134 C 0.92876 0.1483 0.88689 0.0
C1135 C 0.98006 0.17365 0.91115 0.0
C1136 C 0.99133 0.13604 0.91758 0.0
H1137 H 0.93961 0.20902 0.89305 0.0
H1138 H 0.99363 0.19858 0.9189 0.0
S1139 S 0.94856 0.04435 0.89684 0.0
N1140 N 0.92327 0.07848 0.88417 0.0
N1141 N 0.98127 0.06713 0.91218 0.0
C1142 C 0.97289 0.10452 0.90717 0.0
C1143 C 0.94144 0.11069 0.89198 0.0
C1144 C 0.84512 0.73352 0.66678 0.0
C1145 C 0.86048 0.76868 0.65911 0.0
C1146 C 0.85345 0.69857 0.65576 0.0
C1147 C 0.87814 0.69682 0.63668 0.0
H1148 H 0.82651 0.73302 0.68154 0.0
H1149 H 0.84101 0.6724 0.66274 0.0
S1150 S 0.92625 0.78091 0.60977 0.0
N1151 N 0.90116 0.79997 0.63084 0.0
N1152 N 0.91768 0.73387 0.61053 0.0
C1153 C 0.89313 0.73189 0.62845 0.0
C1154 C 0.88414 0.76785 0.63956 0.0
C1155 C 0.04959 0.11408 0.39546 0.0
C1156 C 0.03334 0.14423 0.40831 0.0
C1157 C 0.0797 0.12138 0.37996 0.0
C1158 C 0.09391 0.15914 0.37645 0.0
H1159 H 0.04191 0.08437 0.39919 0.0
H1160 H 0.09471 0.09691 0.37254 0.0
S1161 S 0.05612 0.24842 0.40311 0.0
N1162 N 0.03016 0.21337 0.41453 0.0
N1163 N 0.08557 0.22731 0.38483 0.0
C1164 C 0.07456 0.18981 0.38719 0.0
C1165 C 0.04465 0.18228 0.40335 0.0
C1166 C 0.62131 0.30381 0.15379 0.0
C1167 C 0.65776 0.28787 0.15867 0.0
C1168 C 0.61702 0.33256 0.13722 0.0
C1169 C 0.64924 0.34723 0.12541 0.0
H1170 H 0.59651 0.29612 0.16405 0.0
H1171 H 0.58914 0.34648 0.13562 0.0
S1172 S 0.75015 0.31236 0.13019 0.0
N1173 N 0.72578 0.28573 0.14851 0.0
N1174 N 0.71803 0.34106 0.11821 0.0
C1175 C 0.68514 0.32916 0.12875 0.0
C1176 C 0.68936 0.29921 0.14522 0.0
C1177 C 0.4496 0.93743 0.88339 0.0
C1178 C 0.43689 0.9003 0.87678 0.0
C1179 C 0.48038 0.94231 0.89861 0.0
C1180 C 0.49887 0.91017 0.9082 0.0
H1181 H 0.43322 0.96274 0.87844 0.0
H1182 H 0.48727 0.97117 0.90452 0.0
S1183 S 0.48097 0.8073 0.8938 0.0
N1184 N 0.44895 0.83127 0.87866 0.0
N1185 N 0.50587 0.8403 0.90775 0.0
C1186 C 0.48883 0.87315 0.90018 0.0
C1187 C 0.45814 0.86827 0.88428 0.0
C1188 C 0.84575 0.32964 0.92969 0.0
C1189 C 0.87428 0.30236 0.92415 0.0
C1190 C 0.85356 0.36016 0.94464 0.0
C1191 C 0.89024 0.36459 0.95457 0.0
H1192 H 0.81837 0.3292 0.92087 0.0
H1193 H 0.83195 0.38264 0.94665 0.0
S1194 S 0.97232 0.29642 0.94861 0.0
N1195 N 0.93859 0.27823 0.93197 0.0
N1196 N 0.95357 0.33585 0.96014 0.0
C1197 C 0.91765 0.33514 0.95099 0.0
C1198 C 0.90965 0.30402 0.93565 0.0
C1199 C 0.49353 0.1053 0.68426 0.0
C1200 C 0.50997 0.13745 0.67337 0.0
C1201 C 0.46284 0.1099 0.69969 0.0
C1202 C 0.44816 0.14683 0.70513 0.0
H1203 H 0.50175 0.07635 0.67911 0.0
H1204 H 0.44804 0.08422 0.7057 0.0
S1205 S 0.48685 0.24034 0.68449 0.0
N1206 N 0.51325 0.20741 0.67129 0.0
N1207 N 0.45665 0.21615 0.70093 0.0
C1208 C 0.46764 0.17924 0.69641 0.0
C1209 C 0.49821 0.17453 0.68028 0.0
C1210 C 0.69384 0.69808 0.44281 0.0
C1211 C 0.65669 0.68873 0.45116 0.0
C1212 C 0.69954 0.72867 0.42747 0.0
C1213 C 0.66814 0.75038 0.41952 0.0
H1214 H 0.71818 0.67955 0.44669 0.0
H1215 H 0.72806 0.73316 0.4203 0.0
S1216 S 0.56625 0.74109 0.43822 0.0
N1217 N 0.58901 0.7068 0.45225 0.0
N1218 N 0.59951 0.76349 0.42299 0.0
C1219 C 0.6315 0.74339 0.42907 0.0
C1220 C 0.62585 0.71284 0.44507 0.0
C1221 C 0.05037 0.87957 0.18271 0.0
C1222 C 0.03708 0.91555 0.17467 0.0
C1223 C 0.08007 0.87728 0.19883 0.0
C1224 C 0.098 0.91092 0.20715 0.0
H1225 H 0.03929 0.853 0.17547 0.0
H1226 H 0.09166 0.84908 0.20295 0.0
S1227 S 0.07117 1.01199 0.19346 0.0
N1228 N 0.04149 0.98541 0.1781 0.0
N1229 N 0.09789 0.9811 0.20783 0.0
C1230 C 0.08276 0.94693 0.20066 0.0
C1231 C 0.05219 0.94928 0.18454 0.0
C1232 C 0.69805 0.80246 0.93882 0.0
C1233 C 0.68191 0.79482 0.91746 0.0
C1234 C 0.68273 0.83166 0.95301 0.0
C1235 C 0.65074 0.85392 0.94624 0.0
H1236 H 0.72441 0.7879 0.94373 0.0
H1237 H 0.69814 0.83922 0.96828 0.0
S1238 S 0.59819 0.8445 0.89205 0.0
N1239 N 0.63239 0.81127 0.89053 0.0
N1240 N 0.60275 0.86485 0.91715 0.0
C1241 C 0.63301 0.84448 0.92558 0.0
C1242 C 0.64887 0.81535 0.91116 0.0
C1243 C 0.46627 0.36065 0.19194 0.0
C1244 C 0.45196 0.39288 0.2039 0.0
C1245 C 0.49571 0.36481 0.17565 0.0
C1246 C 0.5124 0.40116 0.17112 0.0
H1247 H 0.45156 0.33304 0.19317 0.0
H1248 H 0.50334 0.34012 0.16526 0.0
S1249 S 0.48938 0.49318 0.20038 0.0
N1250 N 0.45962 0.46129 0.21188 0.0
N1251 N 0.51591 0.46881 0.18196 0.0
C1252 C 0.5015 0.43257 0.18483 0.0
C1253 C 0.47104 0.42847 0.20108 0.0
C1254 C 0.84828 0.19293 0.44436 0.0
C1255 C 0.88458 0.18546 0.45425 0.0
C1256 C 0.84241 0.2252 0.43042 0.0
C1257 C 0.87277 0.25088 0.42565 0.0
H1258 H 0.82523 0.17178 0.44579 0.0
H1259 H 0.81514 0.2281 0.42166 0.0
S1260 S 0.97059 0.24914 0.45083 0.0
N1261 N 0.9493 0.21004 0.46107 0.0
N1262 N 0.93835 0.27041 0.4345 0.0
C1263 C 0.90789 0.24602 0.43717 0.0
C1264 C 0.91373 0.21344 0.45167 0.0
C1265 C 0.04926 0.68091 0.67899 0.0
C1266 C 0.0315 0.64541 0.6735 0.0
C1267 C 0.07976 0.68283 0.69462 0.0
C1268 C 0.09393 0.64917 0.70505 0.0
H1269 H 0.04125 0.70687 0.66994 0.0
H1270 H 0.09491 0.71006 0.69668 0.0
S1271 S 0.05467 0.54999 0.69851 0.0
N1272 N 0.02767 0.57669 0.68169 0.0
N1273 N 0.08555 0.58014 0.71047 0.0
C1274 C 0.07425 0.61421 0.70117 0.0
C1275 C 0.04285 0.61234 0.68556 0.0
C1276 C 0.67555 0.22001 0.67225 0.0
C1277 C 0.68433 0.25302 0.65951 0.0
C1278 C 0.66281 0.18587 0.66197 0.0
C1279 C 0.65797 0.1828 0.63834 0.0
H1280 H 0.67968 0.22011 0.69036 0.0
H1281 H 0.65715 0.16138 0.67289 0.0
S1282 S 0.67274 0.26239 0.59737 0.0
N1283 N 0.68416 0.28179 0.62199 0.0
N1284 N 0.66036 0.21707 0.60263 0.0
C1285 C 0.66503 0.21607 0.62536 0.0
C1286 C 0.6783 0.25118 0.63592 0.0
C1287 C 0.09022 0.42746 0.88656 0.0
C1288 C 0.10508 0.38987 0.88334 0.0
C1289 C 0.06057 0.43483 0.90238 0.0
C1290 C 0.04557 0.40498 0.91595 0.0
H1291 H 0.10414 0.45185 0.87839 0.0
H1292 H 0.05196 0.46448 0.90557 0.0
S1293 S 0.07083 0.30127 0.91225 0.0
N1294 N 0.09897 0.32204 0.89317 0.0
N1295 N 0.04472 0.33631 0.92357 0.0
C1296 C 0.05796 0.36708 0.91165 0.0
C1297 C 0.08727 0.35941 0.89512 0.0
C1298 C 0.88907 0.79232 0.1546 0.0
C1299 C 0.84898 0.78471 0.15503 0.0
C1300 C 0.9044 0.82387 0.14242 0.0
C1301 C 0.88033 0.84877 0.13002 0.0
H1302 H 0.90862 0.77447 0.16427 0.0
H1303 H 0.93496 0.83034 0.14395 0.0
S1304 S 0.77383 0.84189 0.12528 0.0
N1305 N 0.78578 0.805 0.1415 0.0
N1306 N 0.81486 0.86363 0.11866 0.0
C1307 C 0.84061 0.84063 0.12954 0.0
C1308 C 0.82488 0.80876 0.14197 0.0
C1309 C 0.45988 0.68616 0.39027 0.0
C1310 C 0.44628 0.6551 0.37712 0.0
C1311 C 0.48896 0.6807 0.40649 0.0
C1312 C 0.50624 0.64425 0.40973 0.0
H1313 H 0.44501 0.71373 0.38989 0.0
H1314 H 0.49589 0.70437 0.41774 0.0
S1315 S 0.48433 0.55491 0.37755 0.0
N1316 N 0.45453 0.58757 0.36706 0.0
N1317 N 0.51035 0.57774 0.39675 0.0
C1318 C 0.49571 0.61407 0.39505 0.0
C1319 C 0.46547 0.61941 0.37892 0.0
C1320 C 0.42756 0.23746 0.15559 0.0
C1321 C 0.3924 0.25717 0.15898 0.0
C1322 C 0.43143 0.20904 0.13868 0.0
C1323 C 0.40002 0.19875 0.12485 0.0
H1324 H 0.45131 0.24215 0.16715 0.0
H1325 H 0.45775 0.19215 0.1382 0.0
S1326 S 0.30307 0.24437 0.1255 0.0
N1327 N 0.32698 0.26721 0.14561 0.0
N1328 N 0.33376 0.21284 0.11448 0.0
C1329 C 0.3658 0.22042 0.12692 0.0
C1330 C 0.3621 0.24989 0.14383 0.0
C1331 C 0.61977 0.60312 0.89029 0.0
C1332 C 0.63131 0.63941 0.88168 0.0
C1333 C 0.58771 0.59949 0.90482 0.0
C1334 C 0.56676 0.63221 0.91175 0.0
H1335 H 0.63737 0.57774 0.88708 0.0
H1336 H 0.58123 0.5715 0.91211 0.0
S1337 S 0.58113 0.73262 0.89147 0.0
N1338 N 0.61553 0.70765 0.87861 0.0
N1339 N 0.55691 0.70124 0.90704 0.0
C1340 C 0.57616 0.66811 0.90197 0.0
C1341 C 0.60794 0.67158 0.88656 0.0
C1342 C 0.19377 0.80345 0.64957 0.0
C1343 C 0.16212 0.78151 0.65713 0.0
C1344 C 0.18884 0.83348 0.63392 0.0
C1345 C 0.15208 0.84256 0.62524 0.0
H1346 H 0.22167 0.79991 0.65754 0.0
H1347 H 0.21317 0.85243 0.63053 0.0
S1348 S 0.06173 0.78801 0.63623 0.0
N1349 N 0.0942 0.76666 0.65236 0.0
N1350 N 0.0848 0.82291 0.62265 0.0
C1351 C 0.12119 0.81772 0.6306 0.0
C1352 C 0.12621 0.78733 0.64676 0.0
C1353 C 0.93625 0.44922 0.39093 0.0
C1354 C 0.92807 0.41293 0.38106 0.0
C1355 C 0.96703 0.45402 0.40608 0.0
C1356 C 0.99029 0.42253 0.41217 0.0
H1357 H 0.91688 0.47341 0.38828 0.0
H1358 H 0.97069 0.48162 0.41449 0.0
S1359 S 0.98596 0.32357 0.38833 0.0
N1360 N 0.95011 0.34671 0.37591 0.0
N1361 N 1.00677 0.35543 0.4052 0.0
C1362 C 0.98475 0.38711 0.40102 0.0
C1363 C 0.95402 0.38244 0.38514 0.0
C1364 C 0.35209 0.8102 0.43195 0.0
C1365 C 0.38442 0.79062 0.42323 0.0
C1366 C 0.35646 0.84017 0.44779 0.0
C1367 C 0.39328 0.85132 0.45562 0.0
H1368 H 0.32379 0.80487 0.42482 0.0
H1369 H 0.33126 0.85728 0.45219 0.0
S1370 S 0.48582 0.8032 0.44131 0.0
N1371 N 0.4535 0.78036 0.42571 0.0
N1372 N 0.46168 0.8357 0.45619 0.0
C1373 C 0.42513 0.82861 0.44909 0.0
C1374 C 0.42074 0.79862 0.43257 0.0
C1375 C 0.94103 0.6483 0.16393 0.0
C1376 C 0.93884 0.66282 0.18622 0.0
C1377 C 0.97644 0.63873 0.15375 0.0
C1378 C 1.01141 0.643 0.1654 0.0
H1379 H 0.91492 0.64302 0.15436 0.0
H1380 H 0.97623 0.6262 0.13698 0.0
S1381 S 0.02265 0.68564 0.22268 0.0
N1382 N 0.97539 0.68501 0.21867 0.0
N1383 N 0.04221 0.66742 0.19948 0.0
C1384 C 1.01004 0.6598 0.18717 0.0
C1385 C 0.97376 0.66975 0.19755 0.0
C1386 C 0.12279 0.19543 0.93955 0.0
C1387 C 0.15034 0.18835 0.95646 0.0
C1388 C 0.12983 0.22245 0.92232 0.0
C1389 C 0.16407 0.24451 0.92171 0.0
H1390 H 0.09749 0.17711 0.93819 0.0
H1391 H 0.10934 0.22446 0.90862 0.0
S1392 S 0.24409 0.23906 0.96296 0.0
N1393 N 0.21249 0.20661 0.972 0.0
N1394 N 0.22465 0.25916 0.94041 0.0
C1395 C 0.19041 0.23996 0.93952 0.0
C1396 C 0.18378 0.21149 0.95669 0.0
C1397 C 0.55028 0.41932 0.67667 0.0
C1398 C 0.53899 0.38881 0.66242 0.0
C1399 C 0.58015 0.41451 0.69239 0.0
C1400 C 0.59931 0.37883 0.69484 0.0
H1401 H 0.53802 0.44789 0.67449 0.0
H1402 H 0.5901 0.43966 0.70167 0.0
S1403 S 0.57703 0.28836 0.66389 0.0
N1404 N 0.54642 0.32041 0.65356 0.0
N1405 N 0.60232 0.31155 0.68326 0.0
C1406 C 0.58607 0.34723 0.68213 0.0
C1407 C 0.556 0.3522 0.66584 0.0
C1408 C 0.19703 0.02809 0.30986 0.0
C1409 C 0.21984 0.06196 0.30976 0.0
C1410 C 0.19979 1.00019 0.29242 0.0
C1411 C 0.22616 1.00448 0.27431 0.0
H1412 H 0.17679 1.02324 0.32357 0.0
H1413 H 0.18089 0.97526 0.29309 0.0
S1414 S 0.29628 0.08593 0.2682 0.0
N1415 N 0.27115 0.09711 0.29106 0.0
N1416 N 0.27838 0.04445 0.2591 0.0
C1417 C 0.25006 0.0379 0.27459 0.0
C1418 C 0.24641 0.0666 0.29206 0.0
C1419 C 0.2462 0.94713 0.54252 0.0
C1420 C 0.24718 0.9736 0.5607 0.0
C1421 C 0.27531 0.94692 0.52561 0.0
C1422 C 0.30694 0.97267 0.52636 0.0
H1423 H 0.2229 0.92629 0.54138 0.0
H1424 H 0.27293 0.92673 0.51168 0.0
S1425 S 0.32165 0.05047 0.56839 0.0
N1426 N 0.28156 0.02873 0.57681 0.0
N1427 N 0.33615 0.02686 0.54562 0.0
C1428 C 0.30811 0.99945 0.5441 0.0
C1429 C 0.27838 1.00024 0.5611 0.0
C1430 C 0.34217 1.02169 0.77726 0.0
C1431 C 0.32141 0.05678 0.77757 0.0
C1432 C 0.33896 0.99451 0.79494 0.0
C1433 C 0.31415 1.00078 0.81358 0.0
H1434 H 0.36089 1.01512 0.76305 0.0
H1435 H 0.35614 0.96841 0.79393 0.0
S1436 S 0.25017 0.08681 0.82093 0.0
N1437 N 0.27405 0.0957 0.7973 0.0
N1438 N 0.26608 0.04454 0.82993 0.0
C1439 C 0.29262 0.03575 0.81374 0.0
C1440 C 0.29671 0.06368 0.79594 0.0
C1441 C 0.27688 0.0989 0.05115 0.0
C1442 C 0.30356 0.06874 0.05474 0.0
C1443 C 0.24647 0.09512 1.03535 0.0
C1444 C 0.24136 0.06083 1.02269 0.0
H1445 H 0.27908 0.12522 0.06101 0.0
H1446 H 0.22695 0.11924 1.03298 0.0
S1447 S 0.30193 0.97224 1.02768 0.0
N1448 N 0.32196 1.00324 0.04536 0.0
N1449 N 0.26504 0.99528 1.01627 0.0
C1450 C 0.26781 0.03034 1.02655 0.0
C1451 C 0.29871 0.03448 0.04243 0.0
C1452 C 0.83007 0.97816 0.82017 0.0
C1453 C 0.83472 0.98151 0.79661 0.0
C1454 C 0.82225 1.01041 0.83388 0.0
C1455 C 0.81854 0.04795 0.82485 0.0
H1456 H 0.83221 0.95013 0.82819 0.0
H1457 H 0.81943 1.00574 0.85187 0.0
S1458 S 0.82846 0.07325 0.76421 0.0
N1459 N 0.83569 0.02599 0.76482 0.0
N1460 N 0.82015 0.08653 0.79061 0.0
C1461 C 0.82322 0.05199 0.80131 0.0
C1462 C 0.83126 1.01887 0.78722 0.0
C1463 C 0.80957 0.04317 0.54279 0.0
C1464 C 0.80311 0.06351 0.5227 0.0
C1465 C 0.7819 0.04296 0.56037 0.0
C1466 C 0.74661 0.06377 0.55897 0.0
H1467 H 0.83574 0.02627 0.54462 0.0
H1468 H 0.78827 0.02563 0.57506 0.0
S1469 S 0.71756 0.1241 0.5099 0.0
N1470 N 0.75973 0.10571 0.50228 0.0
N1471 N 0.7086 0.10715 0.53545 0.0
C1472 C 0.74038 0.08496 0.53891 0.0
C1473 C 0.76836 0.08443 0.52084 0.0
C1474 C 0.72886 1.01134 0.26684 0.0
C1475 C 0.72702 0.05158 0.27146 0.0
C1476 C 0.7296 0.98343 0.28421 0.0
C1477 C 0.72869 0.99435 0.30707 0.0
H1478 H 0.73022 1.00108 0.2496 0.0
H1479 H 0.73238 0.95317 0.27972 0.0
S1480 S 0.71855 0.09472 0.32881 0.0
N1481 N 0.72093 0.09999 0.30114 0.0
N1482 N 0.72156 0.04775 0.33345 0.0
C1483 C 0.72474 0.03411 0.312 0.0
C1484 C 0.72398 0.06258 0.29434 0.0
C1485 C 0.77387 0.99929 1.02284 0.0
C1486 C 0.74081 0.97492 1.02237 0.0
C1487 C 0.80165 0.99721 1.04017 0.0
C1488 C 0.79755 0.97111 0.05812 0.0
H1489 H 0.77823 1.02092 1.00991 0.0
H1490 H 0.82588 1.01709 1.03995 0.0
S1491 S 0.71851 0.89964 0.06538 0.0
N1492 N 0.70758 0.92216 0.04167 0.0
N1493 N 0.75881 0.9199 0.07451 0.0
C1494 C 0.76509 0.94654 0.05807 0.0
C1495 C 0.73702 0.94805 1.04022 0.0
C1496 C 0.71825 0.54931 0.79759 0.0
C1497 C 0.73898 0.54116 0.81748 0.0
C1498 C 0.7066 0.51965 0.78274 0.0
C1499 C 0.71576 0.4806 0.78685 0.0
H1500 H 0.71089 0.57886 0.79341 0.0
H1501 H 0.69004 0.5272 0.76791 0.0
S1502 S 0.76663 0.44234 0.8368 0.0
N1503 N 0.76566 0.48962 0.84092 0.0
N1504 N 0.74526 0.4349 0.81231 0.0
C1505 C 0.73651 0.47182 0.8064 0.0
C1506 C 0.74774 0.50178 0.82185 0.0
C1507 C 0.80733 0.46081 1.03823 0.0
C1508 C 0.80149 0.48616 1.01989 0.0
C1509 C 0.77981 0.45704 0.05576 0.0
C1510 C 0.74472 0.47778 0.05564 0.0
H1511 H 0.83334 0.44353 1.03913 0.0
H1512 H 0.78603 0.43768 0.06964 0.0
S1513 S 0.71538 0.55001 1.01301 0.0
N1514 N 0.75792 0.53452 1.004 0.0
N1515 N 0.70608 0.52551 1.03632 0.0
C1516 C 0.73817 0.50298 1.03755 0.0
C1517 C 0.76649 0.50764 1.01989 0.0
C1518 C 0.86388 0.53767 0.29842 0.0
C1519 C 0.83718 0.55626 0.284 0.0
C1520 C 0.85321 0.50605 0.31207 0.0
C1521 C 0.81516 0.49182 0.31229 0.0
H1522 H 0.89349 0.54767 0.29927 0.0
H1523 H 0.87474 0.49315 0.32293 0.0
S1524 S 0.734 0.52828 0.27751 0.0
N1525 N 0.77081 0.55633 0.27047 0.0
N1526 N 0.75067 0.49805 0.29672 0.0
C1527 C 0.78798 0.51008 0.29822 0.0
C1528 C 0.79893 0.54199 0.28401 0.0
C1529 C 0.73632 0.5938 0.5391 0.0
C1530 C 0.7413 0.56579 0.52192 0.0
C1531 C 0.76298 0.59759 0.55701 0.0
C1532 C 0.79625 0.57415 0.55834 0.0
H1533 H 0.71179 0.61319 0.53869 0.0
H1534 H 0.75762 0.61909 0.56998 0.0
S1535 S 0.82135 0.49361 0.51977 0.0
N1536 N 0.78111 0.5116 0.50917 0.0
N1537 N 0.8314 0.52046 0.54207 0.0
C1538 C 0.80153 0.54593 0.5416 0.0
C1539 C 0.7741 0.54135 0.52363 0.0
C1540 C 0.34583 0.5213 0.3074 0.0
C1541 C 0.32536 0.55655 0.30599 0.0
C1542 C 0.34519 0.49375 0.28971 0.0
C1543 C 0.32349 0.4999 0.26992 0.0
H1544 H 0.3626 0.51506 0.32235 0.0
H1545 H 0.36215 0.46763 0.29149 0.0
S1546 S 0.26037 0.58541 0.25953 0.0
N1547 N 0.28076 0.59484 0.28409 0.0
N1548 N 0.27774 0.54308 0.25141 0.0
C1549 C 0.30187 0.53471 0.26876 0.0
C1550 C 0.30327 0.56296 0.28658 0.0
C1551 C 0.29806 0.61874 1.01818 0.0
C1552 C 0.31335 0.58102 1.01871 0.0
C1553 C 0.26365 0.62815 1.02986 0.0
C1554 C 0.24356 0.60047 0.04294 0.0
H1555 H 0.31176 0.64056 1.00775 0.0
H1556 H 0.25226 0.6572 1.02836 0.0
S1557 S 0.27306 0.49825 0.05096 0.0
N1558 N 0.30667 0.51631 1.03406 0.0
N1559 N 0.24277 0.5341 0.05634 0.0
C1560 C 0.25957 0.56314 0.04438 0.0
C1561 C 0.29417 0.5534 1.03217 0.0
C1562 C 0.19908 0.51373 0.77711 0.0
C1563 C 0.21774 0.55005 0.77775 0.0
C1564 C 0.20193 0.48703 0.79508 0.0
C1565 C 0.22424 0.49501 0.81445 0.0
H1566 H 0.18208 0.50588 0.76249 0.0
H1567 H 0.18634 0.45998 0.79374 0.0
S1568 S 0.28254 0.58477 0.82303 0.0
N1569 N 0.26073 0.59188 0.79866 0.0
N1570 N 0.26808 0.54179 0.83182 0.0
C1571 C 0.24382 0.53118 0.81494 0.0
C1572 C 0.24007 0.55858 0.79681 0.0
C1573 C 0.28162 0.51872 0.5491 0.0
C1574 C 0.29675 0.48318 0.55656 0.0
C1575 C 0.25124 0.52039 0.53346 0.0
C1576 C 0.23381 0.48662 0.52487 0.0
H1577 H 0.29362 0.54558 0.5554 0.0
H1578 H 0.24118 0.5485 0.52798 0.0
S1579 S 0.26184 0.38609 0.53925 0.0
N1580 N 0.29161 0.41319 0.55431 0.0
N1581 N 0.23407 0.41634 0.52504 0.0
C1582 C 0.24825 0.45077 0.53234 0.0
C1583 C 0.27984 0.44905 0.54808 0.0
C1584 C 0.41805 0.13245 0.41197 0.0
C1585 C 0.40734 0.11584 0.43273 0.0
C1586 C 0.3928 0.1573 0.40049 0.0
C1587 C 0.35584 0.16576 0.40928 0.0
H1588 H 0.44504 0.12424 0.40392 0.0
H1589 H 0.40142 0.16823 0.3841 0.0
S1590 S 0.31467 0.12917 0.46341 0.0
N1591 N 0.35848 0.11052 0.46209 0.0
N1592 N 0.31042 0.15562 0.44042 0.0
C1593 C 0.34579 0.15068 0.43067 0.0
C1594 C 0.37174 0.12611 0.44243 0.0
C1595 C 0.16508 0.1623 0.66089 0.0
C1596 C 0.18008 0.15078 0.68185 0.0
C1597 C 0.13991 0.13815 0.6488 0.0
C1598 C 0.12943 0.10146 0.65715 0.0
H1599 H 0.17496 0.18891 0.65312 0.0
H1600 H 0.13054 0.14724 0.63221 0.0
S1601 S 0.16001 0.05908 0.71201 0.0
N1602 N 0.18093 0.10194 0.71119 0.0
N1603 N 0.13498 0.05592 0.68845 0.0
C1604 C 0.14237 0.09093 0.67889 0.0
C1605 C 0.16738 0.11579 0.69125 0.0
C1606 C 0.15331 0.91402 0.94481 0.0
C1607 C 0.1187 0.92605 0.93482 0.0
C1608 C 0.17972 0.89141 0.93289 0.0
C1609 C 0.17233 0.87904 0.91059 0.0
H1610 H 0.16225 0.92577 0.96095 0.0
H1611 H 0.20762 0.88713 0.94069 0.0
S1612 S 0.08031 0.89363 0.87967 0.0
N1613 N 0.07471 0.91852 0.90331 0.0
N1614 N 0.12351 0.87338 0.88119 0.0
C1615 C 0.13535 0.88649 0.90166 0.0
C1616 C 0.1087 0.91054 0.91371 0.0
C1617 C 0.39469 0.89405 0.18151 0.0
C1618 C 0.35775 0.88404 0.17346 0.0
C1619 C 0.41926 0.91818 0.16894 0.0
C1620 C 0.40786 0.93262 0.14781 0.0
H1621 H 0.40363 0.8853 0.19824 0.0
H1622 H 0.44603 0.92796 0.17649 0.0
S1623 S 0.31581 0.9127 0.11816 0.0
N1624 N 0.3123 0.8888 0.14215 0.0
N1625 N 0.35898 0.93291 0.11853 0.0
C1626 C 0.37268 0.92 0.13866 0.0
C1627 C 0.34745 0.89601 0.1515 0.0
C1628 C 0.63613 0.9554 0.68317 0.0
C1629 C 0.63071 0.93778 0.66189 0.0
C1630 C 0.66254 0.94062 0.69864 0.0
C1631 C 0.6843 0.90757 0.69353 0.0
H1632 H 0.62268 0.98288 0.68719 0.0
H1633 H 0.66812 0.95682 0.71398 0.0
S1634 S 0.67561 0.84617 0.64241 0.0
N1635 N 0.64478 0.88193 0.63821 0.0
N1636 N 0.69524 0.8544 0.66734 0.0
C1637 C 0.67638 0.88729 0.67348 0.0
C1638 C 0.6494 0.90239 0.65762 0.0
C1639 C 0.89022 0.9077 0.3888 0.0
C1640 C 0.87448 0.8743 0.39859 0.0
C1641 C 0.91441 0.93201 0.40113 0.0
C1642 C 0.92442 0.92365 0.42371 0.0
H1643 H 0.88033 0.91759 0.37246 0.0
H1644 H 0.92182 0.95942 0.39344 0.0
S1645 S 0.89997 0.83313 0.45427 0.0
N1646 N 0.87633 0.82967 0.43016 0.0
N1647 N 0.92389 0.8745 0.45316 0.0
C1648 C 0.91324 0.88742 0.43245 0.0
C1649 C 0.88784 0.86292 0.41993 0.0
C1650 C 0.9009 0.15646 0.18439 0.0
C1651 C 0.86563 0.17085 0.17611 0.0
C1652 C 0.92246 0.12927 0.17203 0.0
C1653 C 0.9097 0.11599 0.15087 0.0
H1654 H 0.91047 0.16406 0.20122 0.0
H1655 H 0.94761 0.11632 0.17981 0.0
S1656 S 0.82204 0.14766 0.12028 0.0
N1657 N 0.82101 0.17198 0.14425 0.0
N1658 N 0.86211 0.12192 0.1211 0.0
C1659 C 0.87679 0.13305 0.14138 0.0
C1660 C 0.85458 0.16028 0.15398 0.0
C1661 C 0.6519 0.13675 0.94186 0.0
C1662 C 0.61998 0.11921 0.93154 0.0
C1663 C 0.67432 0.16379 0.9303 0.0
C1664 C 0.66553 0.17488 0.90795 0.0
H1665 H 0.66227 0.12655 0.95803 0.0
H1666 H 0.70089 0.1728 0.93834 0.0
S1667 S 0.57789 0.14557 0.87625 0.0
N1668 N 0.57585 0.11998 0.89977 0.0
N1669 N 0.61724 0.17251 0.87816 0.0
C1670 C 0.63056 0.1614 0.89869 0.0
C1671 C 0.60795 0.1332 0.91045 0.0
C1672 C 0.93696 0.61854 0.90386 0.0
C1673 C 0.94374 0.62622 0.92693 0.0
C1674 C 0.91527 0.64372 0.89066 0.0
C1675 C 0.89898 0.67724 0.90008 0.0
H1676 H 0.94434 0.5909 0.89638 0.0
H1677 H 0.90699 0.63399 0.87396 0.0
S1678 S 0.91982 0.71766 0.95673 0.0
N1679 N 0.94181 0.67521 0.95651 0.0
N1680 N 0.89955 0.72221 0.93166 0.0
C1681 C 0.9108 0.68849 0.92181 0.0
C1682 C 0.93337 0.66292 0.9353 0.0
C1683 C 0.64173 0.63238 0.16584 0.0
C1684 C 0.62598 0.59524 0.16897 0.0
C1685 C 0.6657 0.64898 0.18221 0.0
C1686 C 0.67476 0.62874 0.20207 0.0
H1687 H 0.63814 0.64723 0.14989 0.0
H1688 H 0.68045 0.6758 0.17822 0.0
S1689 S 0.63567 0.53415 0.22025 0.0
N1690 N 0.61693 0.54129 0.19502 0.0
N1691 N 0.66195 0.57295 0.22563 0.0
C1692 C 0.65569 0.59387 0.20658 0.0
C1693 C 0.63124 0.57695 0.19003 0.0
C1694 C 0.62749 0.39102 0.4348 0.0
C1695 C 0.61776 0.42703 0.42528 0.0
C1696 C 0.65161 0.36495 0.42325 0.0
C1697 C 0.66619 0.37375 0.40166 0.0
H1698 H 0.61886 0.38419 0.45194 0.0
H1699 H 0.66163 0.33937 0.43201 0.0
S1700 S 0.64576 0.46147 0.3679 0.0
N1701 N 0.62217 0.46815 0.39184 0.0
N1702 N 0.66588 0.41845 0.37013 0.0
C1703 C 0.65318 0.40744 0.39094 0.0
C1704 C 0.62937 0.43433 0.40276 0.0
C1705 C 0.89899 0.41399 0.6602 0.0
C1706 C 0.91511 0.45058 0.66473 0.0
C1707 C 0.87454 0.39594 0.67593 0.0
C1708 C 0.86541 0.41409 0.69653 0.0
H1709 H 0.90285 0.4007 0.64377 0.0
H1710 H 0.8598 0.36956 0.67102 0.0
S1711 S 0.90461 0.50653 0.71811 0.0
N1712 N 0.9238 0.5018 0.69269 0.0
N1713 N 0.878 0.46742 0.72203 0.0
C1714 C 0.88445 0.44844 0.70224 0.0
C1715 C 0.90936 0.46682 0.68637 0.0
C1716 C 0.14964 0.43887 0.15283 0.0
C1717 C 0.16886 0.45003 0.13293 0.0
C1718 C 0.16635 0.41206 0.16759 0.0
C1719 C 0.20281 0.39582 0.16287 0.0
H1720 H 0.12311 0.45324 0.15786 0.0
H1721 H 0.15187 0.40595 0.18345 0.0
S1722 S 0.26283 0.41405 0.11167 0.0
N1723 N 0.22408 0.44123 0.10823 0.0
N1724 N 0.25614 0.39119 0.13582 0.0
C1725 C 0.22074 0.40475 0.14204 0.0
C1726 C 0.20359 0.4319 0.1271 0.0
C1727 C 0.39369 0.42027 0.93903 0.0
C1728 C 0.42744 0.43288 0.92811 0.0
C1729 C 0.36703 0.39685 0.92792 0.0
C1730 C 0.37325 0.38425 0.9055 0.0
H1731 H 0.38579 0.43173 0.95547 0.0
H1732 H 0.33988 0.39155 0.93655 0.0
S1733 S 0.46202 0.40218 0.87156 0.0
N1734 N 0.46888 0.42696 0.8951 0.0
N1735 N 0.41959 0.38066 0.87443 0.0
C1736 C 0.40907 0.39323 0.89532 0.0
C1737 C 0.43599 0.41797 0.90658 0.0
C1738 C 0.35755 0.64171 0.65752 0.0
C1739 C 0.3644 0.65082 0.68041 0.0
C1740 C 0.3824 0.61774 0.64534 0.0
C1741 C 0.41492 0.60118 0.65552 0.0
H1742 H 0.33109 0.65033 0.64925 0.0
H1743 H 0.37388 0.60919 0.62845 0.0
S1744 S 0.45091 0.62168 0.71314 0.0
N1745 N 0.41032 0.64669 0.7114 0.0
N1746 N 0.45619 0.59958 0.68855 0.0
C1747 C 0.42425 0.61248 0.67764 0.0
C1748 C 0.39918 0.6377 0.69006 0.0
C1749 C 0.14379 0.65745 0.39527 0.0
C1750 C 0.17969 0.6681 0.40453 0.0
C1751 C 0.11781 0.63416 0.40743 0.0
C1752 C 0.12676 0.62117 0.42928 0.0
H1753 H 0.13679 0.66512 0.37805 0.0
H1754 H 0.09192 0.62387 0.39909 0.0
S1755 S 0.21555 0.64283 0.46179 0.0
N1756 N 0.22167 0.66527 0.43749 0.0
N1757 N 0.17245 0.62262 0.46027 0.0
C1758 C 0.16095 0.63429 0.43942 0.0
C1759 C 0.18757 0.65747 0.42704 0.0
C1760 C 0.27093 0.25913 0.27164 0.0
C1761 C 0.28989 0.29548 0.27093 0.0
C1762 C 0.25443 0.24442 0.29167 0.0
C1763 C 0.25605 0.26536 0.31199 0.0
H1764 H 0.2688 0.24157 0.25654 0.0
H1765 H 0.24086 0.21616 0.29126 0.0
S1766 S 0.30046 0.36297 0.31922 0.0
N1767 N 0.30805 0.35243 0.29238 0.0
N1768 N 0.27715 0.32545 0.32987 0.0
C1769 C 0.27455 0.30202 0.31147 0.0
C1770 C 0.29145 0.31685 0.29107 0.0
C1771 C 1.00147 1.01259 0.55742 0.0
C1772 C 0.03953 0.99749 0.5581 0.0
C1773 C 0.98662 0.03094 0.53809 0.0
C1774 C 1.00914 0.03519 0.51846 0.0
H1775 H 0.98268 1.01022 0.57204 0.0
H1776 H 0.95703 0.04123 0.53844 0.0
S1777 S 0.11142 1.00283 0.51162 0.0
N1778 N 0.09972 0.9894 0.53749 0.0
N1779 N 0.07246 0.0238 0.50127 0.0
C1780 C 0.04749 1.02061 0.51897 0.0
C1781 C 0.06247 1.00177 0.53867 0.0
C1782 C 0.28058 0.80945 0.79123 0.0
C1783 C 0.2768 0.79137 0.81233 0.0
C1784 C 0.26741 0.79132 0.77135 0.0
C1785 C 0.24981 0.75427 0.77161 0.0
H1786 H 0.29341 0.83799 0.79005 0.0
H1787 H 0.2711 0.8067 0.75557 0.0
S1788 S 0.23496 0.69318 0.82225 0.0
N1789 N 0.25533 0.733 0.83203 0.0
N1790 N 0.23071 0.69976 0.79479 0.0
C1791 C 0.2461 0.73576 0.79253 0.0
C1792 C 0.25959 0.75403 0.81279 0.0
C1793 C 0.54561 0.02968 0.05551 0.0
C1794 C 0.50685 0.0425 0.0574 0.0
C1795 C 0.5589 1.00821 1.03672 0.0
C1796 C 0.534 0.99832 1.0189 0.0
H1797 H 0.56613 0.03634 0.06872 0.0
H1798 H 0.58914 1.00011 1.03595 0.0
S1799 S 0.42902 1.02211 1.01613 0.0
N1800 N 0.4434 0.04192 1.04004 0.0
N1801 N 0.46783 1.00163 1.00499 0.0
C1802 C 0.49494 1.01035 1.02076 0.0
C1803 C 0.48154 0.03242 1.03984 0.0
C1804 C 0.25458 0.81475 0.2911 0.0
C1805 C 0.25169 0.79362 0.2709 0.0
C1806 C 0.27274 0.79897 0.31025 0.0
C1807 C 0.28902 0.76135 0.31016 0.0
H1808 H 0.24322 0.84391 0.29209 0.0
H1809 H 0.27393 0.81666 0.32535 0.0
S1810 S 0.28808 0.69312 0.26185 0.0
N1811 N 0.26603 0.7321 0.25228 0.0
N1812 N 0.30007 0.70319 0.28814 0.0
C1813 C 0.28629 0.73986 0.29013 0.0
C1814 C 0.26763 0.75575 0.27062 0.0
C1815 C 0.56561 0.03462 0.54109 0.0
C1816 C 0.54116 0.04421 0.5593 0.0
C1817 C 0.55135 1.01478 0.52197 0.0
C1818 C 0.51212 1.00331 0.52025 0.0
H1819 H 0.59615 0.04149 0.54186 0.0
H1820 H 0.57145 1.00812 0.50844 0.0
S1821 S 0.43531 0.02427 0.56244 0.0
N1822 N 0.4749 0.0428 0.57357 0.0
N1823 N 0.44885 1.00521 0.5381 0.0
C1824 C 0.48731 1.01336 0.53815 0.0
C1825 C 0.50162 0.0339 0.55746 0.0
C1826 C 0.28188 0.25571 0.80982 0.0
C1827 C 0.26327 0.29216 0.81086 0.0
C1828 C 0.29704 0.24067 0.78953 0.0
C1829 C 0.29447 0.26134 0.76919 0.0
H1830 H 0.28485 0.23831 0.82491 0.0
H1831 H 0.3105 0.21238 0.78981 0.0
S1832 S 0.24987 0.35887 0.76262 0.0
N1833 N 0.24398 0.34883 0.78966 0.0
N1834 N 0.27236 0.32114 0.75156 0.0
C1835 C 0.2761 0.29803 0.76997 0.0
C1836 C 0.26051 0.31322 0.79071 0.0
C1837 C 0.97875 1.00795 0.04568 0.0
C1838 C 1.00322 0.99756 0.06356 0.0
C1839 C 0.99259 0.02955 1.02711 0.0
C1840 C 0.03158 0.04192 1.02545 0.0
H1841 H 0.9484 1.00017 0.04622 0.0
H1842 H 0.9723 0.03659 1.01387 0.0
S1843 S 0.10832 1.02051 0.06717 0.0
N1844 N 0.06911 1.00023 0.07793 0.0
N1845 N 0.09465 0.0406 0.04324 0.0
C1846 C 0.05644 0.03138 0.04312 0.0
C1847 C 0.04243 1.00928 0.06201 0.0
C1848 C 0.81258 0.73861 0.77753 0.0
C1849 C 0.80966 0.77766 0.77087 0.0
C1850 C 0.78675 0.72224 0.79337 0.0
C1851 C 0.75652 0.74402 0.80319 0.0
H1852 H 0.83525 0.72046 0.77059 0.0
H1853 H 0.79077 0.69226 0.79811 0.0
S1854 S 0.73694 0.84807 0.7925 0.0
N1855 N 0.77455 0.83806 0.77628 0.0
N1856 N 0.7258 0.80717 0.80533 0.0
C1857 C 0.75298 0.78298 0.79654 0.0
C1858 C 0.77955 0.79979 0.78063 0.0
C1859 C 0.77909 0.30733 0.29698 0.0
C1860 C 0.79184 0.28172 0.31379 0.0
C1861 C 0.75997 0.29376 0.27757 0.0
C1862 C 0.75249 0.25399 0.27407 0.0
H1863 H 0.78326 0.33823 0.29896 0.0
H1864 H 0.75111 0.31478 0.26507 0.0
S1865 S 0.78287 0.17454 0.31197 0.0
N1866 N 0.79733 0.21423 0.32501 0.0
N1867 N 0.76149 0.18905 0.28859 0.0
C1868 C 0.76536 0.22802 0.29062 0.0
C1869 C 0.78502 0.24179 0.31038 0.0
C1870 C 0.76535 0.29058 0.8079 0.0
C1871 C 0.77989 0.25276 0.811 0.0
C1872 C 0.74732 0.30198 0.78777 0.0
C1873 C 0.74274 0.27617 0.76957 0.0
H1874 H 0.76764 0.31184 0.8213 0.0
H1875 H 0.73717 0.33155 0.7865 0.0
S1876 S 0.77501 0.17337 0.76891 0.0
N1877 N 0.78803 0.18928 0.79406 0.0
N1878 N 0.75434 0.21041 0.75616 0.0
C1879 C 0.75728 0.23816 0.77234 0.0
C1880 C 0.77582 0.22658 0.79297 0.0
C1881 C 0.76882 0.81365 0.29115 0.0
C1882 C 0.75676 0.78782 0.30816 0.0
C1883 C 0.79077 0.80089 0.27235 0.0
C1884 C 0.80183 0.7617 0.26963 0.0
H1885 H 0.76214 0.84418 0.29262 0.0
H1886 H 0.79915 0.82212 0.25982 0.0
S1887 S 0.77557 0.68178 0.30875 0.0
N1888 N 0.75619 0.72064 0.32042 0.0
N1889 N 0.79729 0.69705 0.28556 0.0
C1890 C 0.78942 0.73555 0.28642 0.0
C1891 C 0.76697 0.74847 0.30545 0.0
C1892 C 0.55843 0.53552 1.02225 0.0
C1893 C 0.51969 0.54785 1.01961 0.0
C1894 C 0.57045 0.51423 1.04125 0.0
C1895 C 0.54421 0.50421 0.05848 0.0
H1896 H 0.57987 0.54233 1.00946 0.0
H1897 H 0.60067 0.50638 0.04266 0.0
S1898 S 0.43891 0.52694 0.05923 0.0
N1899 N 0.45493 0.54681 1.03566 0.0
N1900 N 0.47704 0.50685 0.07109 0.0
C1901 C 0.50524 0.51583 0.05589 0.0
C1902 C 0.49312 0.53765 1.03662 0.0
C1903 C 0.04809 0.51939 0.53872 0.0
C1904 C 0.02416 0.51199 0.52011 0.0
C1905 C 0.03447 0.54009 0.55765 0.0
C1906 C 0.99615 0.55446 0.55907 0.0
H1907 H 0.07785 0.50961 0.53861 0.0
H1908 H 0.05442 0.54456 0.57146 0.0
S1909 S 0.92126 0.54268 0.51499 0.0
N1910 N 0.95967 0.52073 0.50438 0.0
N1911 N 0.93452 0.5593 0.53993 0.0
C1912 C 0.97192 0.54743 0.54055 0.0
C1913 C 0.98574 0.52628 0.52119 0.0
C1914 C 0.04876 0.56368 0.04372 0.0
C1915 C 0.02952 0.5605 0.06459 0.0
C1916 C 0.03594 0.54368 1.02452 0.0
C1917 C 1.00289 0.51951 1.02493 0.0
H1918 H 0.07482 0.58091 0.04221 0.0
H1919 H 0.05261 0.54731 1.00915 0.0
S1920 S 0.93999 0.50315 0.07492 0.0
N1921 N 0.97423 0.53237 0.08429 0.0
N1922 N 0.94996 0.49528 0.04799 0.0
C1923 C 0.98255 0.51684 0.0455 0.0
C1924 C 0.99584 0.53716 0.06528 0.0
C1925 C 0.4985 0.52564 0.52193 0.0
C1926 C 0.53735 0.53855 0.52089 0.0
C1927 C 0.48381 0.50494 0.54057 0.0
C1928 C 0.50724 0.49597 0.55916 0.0
H1929 H 0.47905 0.53133 0.50805 0.0
H1930 H 0.45368 0.49631 0.54046 0.0
S1931 S 0.6115 0.52177 0.56477 0.0
N1932 N 0.59908 0.54 0.5401 0.0
N1933 N 0.57203 0.50128 0.57507 0.0
C1934 C 0.54626 0.50869 0.55837 0.0
C1935 C 0.56111 0.52994 0.53935 0.0
loop_
_geom_bond_atom_site_label_1
_geom_bond_atom_site_label_2
_geom_bond_distance
_geom_bond_site_symmetry_2
_ccdc_geom_bond_type
C0 C1 1.351 . S
C0 N3 1.368 . S
C0 H5 0.931 . S
C1 C0 1.351 . S
C1 N2 1.373 . S
C1 H29 0.930 . S
N2 C1 1.373 . S
N2 C4 1.340 . S
N3 C0 1.368 . S
N3 C4 1.321 . S
N3 Co6 2.135 . S
C4 N2 1.340 . S
C4 N3 1.321 . S
C4 H28 0.930 . S
H5 C0 0.931 . S
Co6 N3 2.135 . S
Co6 N9 2.121 . S
Co6 O14 2.055 . S
Co6 O17 2.039 . S
Co6 N20 2.140 . S
C7 O8 1.227 . S
C7 O17 1.265 . S
O8 C7 1.227 . S
N9 Co6 2.121 . S
N9 C11 1.375 . S
N9 C12 1.313 . S
C10 C11 1.338 . S
C10 N13 1.377 . S
C10 H30 0.930 . S
C11 N9 1.375 . S
C11 C10 1.338 . S
C11 H15 0.931 . S
C12 N9 1.313 . S
C12 N13 1.344 . S
C12 H16 0.930 . S
N13 C10 1.377 . S
N13 C12 1.344 . S
O14 Co6 2.055 . S
O14 C18 1.253 . S
H15 C11 0.931 . S
H16 C12 0.930 . S
O17 Co6 2.039 . S
O17 C7 1.265 . S
C18 O14 1.253 . S
C18 O19 1.227 . S
O19 C18 1.227 . S
N20 Co6 2.140 . S
N20 C23 1.346 . S
N20 C24 1.345 . S
C21 C22 1.387 . S
C21 C25 1.391 . S
C22 C21 1.387 . S
C22 C23 1.369 . S
C22 H31 0.929 . S
C23 N20 1.346 . S
C23 C22 1.369 . S
C23 H26 0.928 . S
C24 N20 1.345 . S
C24 C25 1.371 . S
C24 H27 0.931 . S
C25 C21 1.391 . S
C25 C24 1.371 . S
C25 H32 0.930 . S
H26 C23 0.928 . S
H27 C24 0.931 . S
H28 C4 0.930 . S
H29 C1 0.930 . S
H30 C10 0.930 . S
H31 C22 0.929 . S
H32 C25 0.930 . S
C33 C34 1.351 . S
C33 N36 1.368 . S
C33 H38 0.931 . S
C34 C33 1.351 . S
C34 N35 1.373 . S
C34 H62 0.930 . S
N35 C34 1.373 . S
N35 C37 1.340 . S
N36 C33 1.368 . S
N36 C37 1.321 . S
N36 Co39 2.135 . S
C37 N35 1.340 . S
C37 N36 1.321 . S
C37 H61 0.930 . S
H38 C33 0.931 . S
Co39 N36 2.135 . S
Co39 N42 2.121 . S
Co39 O47 2.055 . S
Co39 O50 2.039 . S
Co39 N53 2.140 . S
C40 O41 1.227 . S
C40 O50 1.265 . S
O41 C40 1.227 . S
N42 Co39 2.121 . S
N42 C44 1.375 . S
N42 C45 1.313 . S
C43 C44 1.338 1_655 S
C43 N46 1.377 . S
C43 H63 0.930 . S
C44 N42 1.375 . S
C44 C43 1.338 1_455 S
C44 H48 0.931 . S
C45 N42 1.313 . S
C45 N46 1.344 1_455 S
C45 H49 0.930 . S
N46 C43 1.377 . S
N46 C45 1.344 1_655 S
O47 Co39 2.055 . S
O47 C51 1.253 . S
H48 C44 0.931 . S
H49 C45 0.930 . S
O50 Co39 2.039 . S
O50 C40 1.265 . S
C51 O47 1.253 . S
C51 O52 1.227 . S
O52 C51 1.227 . S
N53 Co39 2.140 . S
N53 C56 1.346 . S
N53 C57 1.345 . S
C54 C55 1.387 . S
C54 C58 1.391 1_545 S
C55 C54 1.387 . S
C55 C56 1.369 1_545 S
C55 H64 0.929 . S
C56 N53 1.346 . S
C56 C55 1.369 1_565 S
C56 H59 0.928 . S
C57 N53 1.345 . S
C57 C58 1.371 . S
C57 H60 0.931 . S
C58 C54 1.391 1_565 S
C58 C57 1.371 . S
C58 H65 0.930 . S
H59 C56 0.928 . S
H60 C57 0.931 . S
H61 C37 0.930 . S
H62 C34 0.930 . S
H63 C43 0.930 . S
H64 C55 0.929 . S
H65 C58 0.930 . S
C66 C67 1.351 . S
C66 N69 1.368 . S
C66 H71 0.931 . S
C67 C66 1.351 . S
C67 N68 1.373 . S
C67 H95 0.930 . S
N68 C67 1.373 . S
N68 C70 1.340 . S
N69 C66 1.368 . S
N69 C70 1.321 . S
N69 Co72 2.135 . S
C70 N68 1.340 . S
C70 N69 1.321 . S
C70 H94 0.930 . S
H71 C66 0.931 . S
Co72 N69 2.135 . S
Co72 N75 2.121 . S
Co72 O80 2.055 . S
Co72 O83 2.039 . S
Co72 N86 2.140 . S
C73 O74 1.227 . S
C73 O83 1.265 . S
O74 C73 1.227 . S
N75 Co72 2.121 . S
N75 C77 1.375 . S
N75 C78 1.313 . S
C76 C77 1.338 . S
C76 N79 1.377 . S
C76 H96 0.930 . S
C77 N75 1.375 . S
C77 C76 1.338 . S
C77 H81 0.931 . S
C78 N75 1.313 . S
C78 N79 1.344 . S
C78 H82 0.930 . S
N79 C76 1.377 . S
N79 C78 1.344 . S
O80 Co72 2.055 . S
O80 C84 1.253 . S
H81 C77 0.931 . S
H82 C78 0.930 . S
O83 Co72 2.039 . S
O83 C73 1.265 . S
C84 O80 1.253 . S
C84 O85 1.227 . S
O85 C84 1.227 . S
N86 Co72 2.140 . S
N86 C89 1.346 . S
N86 C90 1.345 . S
C87 C88 1.387 . S
C87 C91 1.391 . S
C88 C87 1.387 . S
C88 C89 1.369 . S
C88 H97 0.929 . S
C89 N86 1.346 . S
C89 C88 1.369 . S
C89 H92 0.928 . S
C90 N86 1.345 . S
C90 C91 1.371 . S
C90 H93 0.931 . S
C91 C87 1.391 . S
C91 C90 1.371 . S
C91 H98 0.930 . S
H92 C89 0.928 . S
H93 C90 0.931 . S
H94 C70 0.930 . S
H95 C67 0.930 . S
H96 C76 0.930 . S
H97 C88 0.929 . S
H98 C91 0.930 . S
C99 C100 1.351 . S
C99 N102 1.368 . S
C99 H104 0.931 . S
C100 C99 1.351 . S
C100 N101 1.373 . S
C100 H128 0.930 . S
N101 C100 1.373 . S
N101 C103 1.340 . S
N102 C99 1.368 . S
N102 C103 1.321 . S
N102 Co105 2.135 . S
C103 N101 1.340 . S
C103 N102 1.321 . S
C103 H127 0.930 . S
H104 C99 0.931 . S
Co105 N102 2.135 . S
Co105 N108 2.121 . S
Co105 O113 2.055 . S
Co105 O116 2.039 . S
Co105 N119 2.140 . S
C106 O107 1.227 . S
C106 O116 1.265 . S
O107 C106 1.227 . S
N108 Co105 2.121 . S
N108 C110 1.375 . S
N108 C111 1.313 . S
C109 C110 1.338 . S
C109 N112 1.377 . S
C109 H129 0.930 . S
C110 N108 1.375 . S
C110 C109 1.338 . S
C110 H114 0.931 . S
C111 N108 1.313 . S
C111 N112 1.344 . S
C111 H115 0.930 . S
N112 C109 1.377 . S
N112 C111 1.344 . S
O113 Co105 2.055 . S
O113 C117 1.253 . S
H114 C110 0.931 . S
H115 C111 0.930 . S
O116 Co105 2.039 . S
O116 C106 1.265 . S
C117 O113 1.253 . S
C117 O118 1.227 . S
O118 C117 1.227 . S
N119 Co105 2.140 . S
N119 C122 1.346 . S
N119 C123 1.345 . S
C120 C121 1.387 . S
C120 C124 1.391 1_565 S
C121 C120 1.387 . S
C121 C122 1.369 1_565 S
C121 H130 0.929 . S
C122 N119 1.346 . S
C122 C121 1.369 1_545 S
C122 H125 0.928 . S
C123 N119 1.345 . S
C123 C124 1.371 . S
C123 H126 0.931 . S
C124 C120 1.391 1_545 S
C124 C123 1.371 . S
C124 H131 0.930 . S
H125 C122 0.928 . S
H126 C123 0.931 . S
H127 C103 0.930 . S
H128 C100 0.930 . S
H129 C109 0.930 . S
H130 C121 0.929 . S
H131 C124 0.930 . S
C132 C133 1.351 . S
C132 N135 1.368 . S
C132 H137 0.931 . S
C133 C132 1.351 . S
C133 N134 1.373 . S
C133 H161 0.930 . S
N134 C133 1.373 . S
N134 C136 1.340 . S
N135 C132 1.368 . S
N135 C136 1.321 . S
N135 Co138 2.135 . S
C136 N134 1.340 . S
C136 N135 1.321 . S
C136 H160 0.930 . S
H137 C132 0.931 . S
Co138 N135 2.135 . S
Co138 N141 2.121 . S
Co138 O146 2.055 . S
Co138 O149 2.039 . S
Co138 N152 2.140 . S
C139 O140 1.227 . S
C139 O149 1.265 . S
O140 C139 1.227 . S
N141 Co138 2.121 . S
N141 C143 1.375 . S
N141 C144 1.313 . S
C142 C143 1.338 . S
C142 N145 1.377 . S
C142 H162 0.930 . S
C143 N141 1.375 . S
C143 C142 1.338 . S
C143 H147 0.931 . S
C144 N141 1.313 . S
C144 N145 1.344 . S
C144 H148 0.930 . S
N145 C142 1.377 . S
N145 C144 1.344 . S
O146 Co138 2.055 . S
O146 C150 1.253 . S
H147 C143 0.931 . S
H148 C144 0.930 . S
O149 Co138 2.039 . S
O149 C139 1.265 . S
C150 O146 1.253 . S
C150 O151 1.227 . S
O151 C150 1.227 . S
N152 Co138 2.140 . S
N152 C155 1.346 . S
N152 C156 1.345 . S
C153 C154 1.387 . S
C153 C157 1.391 . S
C154 C153 1.387 . S
C154 C155 1.369 . S
C154 H163 0.929 . S
C155 N152 1.346 . S
C155 C154 1.369 . S
C155 H158 0.928 . S
C156 N152 1.345 . S
C156 C157 1.371 . S
C156 H159 0.931 . S
C157 C153 1.391 . S
C157 C156 1.371 . S
C157 H164 0.930 . S
H158 C155 0.928 . S
H159 C156 0.931 . S
H160 C136 0.930 . S
H161 C133 0.930 . S
H162 C142 0.930 . S
H163 C154 0.929 . S
H164 C157 0.930 . S
C165 C166 1.351 . S
C165 N168 1.368 . S
C165 H170 0.931 . S
C166 C165 1.351 . S
C166 N167 1.373 . S
C166 H194 0.930 . S
N167 C166 1.373 . S
N167 C169 1.340 . S
N168 C165 1.368 . S
N168 C169 1.321 . S
N168 Co171 2.135 . S
C169 N167 1.340 . S
C169 N168 1.321 . S
C169 H193 0.930 . S
H170 C165 0.931 . S
Co171 N168 2.135 . S
Co171 N174 2.121 . S
Co171 O179 2.055 . S
Co171 O182 2.039 . S
Co171 N185 2.140 . S
C172 O173 1.227 . S
C172 O182 1.265 . S
O173 C172 1.227 . S
N174 Co171 2.121 . S
N174 C176 1.375 . S
N174 C177 1.313 . S
C175 C176 1.338 . S
C175 N178 1.377 . S
C175 H195 0.930 . S
C176 N174 1.375 . S
C176 C175 1.338 . S
C176 H180 0.931 . S
C177 N174 1.313 . S
C177 N178 1.344 . S
C177 H181 0.930 . S
N178 C175 1.377 . S
N178 C177 1.344 . S
O179 Co171 2.055 . S
O179 C183 1.253 . S
H180 C176 0.931 . S
H181 C177 0.930 . S
O182 Co171 2.039 . S
O182 C172 1.265 . S
C183 O179 1.253 . S
C183 O184 1.227 . S
O184 C183 1.227 . S
N185 Co171 2.140 . S
N185 C188 1.346 . S
N185 C189 1.345 . S
C186 C187 1.387 . S
C186 C190 1.391 1_545 S
C187 C186 1.387 . S
C187 C188 1.369 1_545 S
C187 H196 0.929 . S
C188 N185 1.346 . S
C188 C187 1.369 1_565 S
C188 H191 0.928 . S
C189 N185 1.345 . S
C189 C190 1.371 . S
C189 H192 0.931 . S
C190 C186 1.391 1_565 S
C190 C189 1.371 . S
C190 H197 0.930 . S
H191 C188 0.928 . S
H192 C189 0.931 . S
H193 C169 0.930 . S
H194 C166 0.930 . S
H195 C175 0.930 . S
H196 C187 0.929 . S
H197 C190 0.930 . S
C198 C199 1.351 . S
C198 N201 1.368 . S
C198 H203 0.931 . S
C199 C198 1.351 . S
C199 N200 1.373 . S
C199 H227 0.930 . S
N200 C199 1.373 . S
N200 C202 1.340 . S
N201 C198 1.368 . S
N201 C202 1.321 . S
N201 Co204 2.135 . S
C202 N200 1.340 . S
C202 N201 1.321 . S
C202 H226 0.930 . S
H203 C198 0.931 . S
Co204 N201 2.135 . S
Co204 N207 2.121 . S
Co204 O212 2.055 . S
Co204 O215 2.039 . S
Co204 N218 2.140 . S
C205 O206 1.227 . S
C205 O215 1.265 . S
O206 C205 1.227 . S
N207 Co204 2.121 . S
N207 C209 1.375 . S
N207 C210 1.313 . S
C208 C209 1.338 . S
C208 N211 1.377 . S
C208 H228 0.930 . S
C209 N207 1.375 . S
C209 C208 1.338 . S
C209 H213 0.931 . S
C210 N207 1.313 . S
C210 N211 1.344 . S
C210 H214 0.930 . S
N211 C208 1.377 . S
N211 C210 1.344 . S
O212 Co204 2.055 . S
O212 C216 1.253 . S
H213 C209 0.931 . S
H214 C210 0.930 . S
O215 Co204 2.039 . S
O215 C205 1.265 . S
C216 O212 1.253 . S
C216 O217 1.227 . S
O217 C216 1.227 . S
N218 Co204 2.140 . S
N218 C221 1.346 . S
N218 C222 1.345 . S
C219 C220 1.387 . S
C219 C223 1.391 . S
C220 C219 1.387 . S
C220 C221 1.369 . S
C220 H229 0.929 . S
C221 N218 1.346 . S
C221 C220 1.369 . S
C221 H224 0.928 . S
C222 N218 1.345 . S
C222 C223 1.371 . S
C222 H225 0.931 . S
C223 C219 1.391 . S
C223 C222 1.371 . S
C223 H230 0.930 . S
H224 C221 0.928 . S
H225 C222 0.931 . S
H226 C202 0.930 . S
H227 C199 0.930 . S
H228 C208 0.930 . S
H229 C220 0.929 . S
H230 C223 0.930 . S
C231 C232 1.351 . S
C231 N234 1.368 . S
C231 H236 0.931 . S
C232 C231 1.351 . S
C232 N233 1.373 . S
C232 H260 0.930 . S
N233 C232 1.373 . S
N233 C235 1.340 . S
N234 C231 1.368 . S
N234 C235 1.321 . S
N234 Co237 2.135 . S
C235 N233 1.340 . S
C235 N234 1.321 . S
C235 H259 0.930 . S
H236 C231 0.931 . S
Co237 N234 2.135 . S
Co237 N240 2.121 . S
Co237 O245 2.055 . S
Co237 O248 2.039 . S
Co237 N251 2.140 . S
C238 O239 1.227 . S
C238 O248 1.265 . S
O239 C238 1.227 . S
N240 Co237 2.121 . S
N240 C242 1.375 . S
N240 C243 1.313 . S
C241 C242 1.338 1_655 S
C241 N244 1.377 . S
C241 H261 0.930 . S
C242 N240 1.375 . S
C242 C241 1.338 1_455 S
C242 H246 0.931 . S
C243 N240 1.313 . S
C243 N244 1.344 1_455 S
C243 H247 0.930 . S
N244 C241 1.377 . S
N244 C243 1.344 1_655 S
O245 Co237 2.055 . S
O245 C249 1.253 . S
H246 C242 0.931 . S
H247 C243 0.930 . S
O248 Co237 2.039 . S
O248 C238 1.265 . S
C249 O245 1.253 . S
C249 O250 1.227 . S
O250 C249 1.227 . S
N251 Co237 2.140 . S
N251 C254 1.346 . S
N251 C255 1.345 . S
C252 C253 1.387 . S
C252 C256 1.391 1_565 S
C253 C252 1.387 . S
C253 C254 1.369 1_565 S
C253 H262 0.929 . S
C254 N251 1.346 . S
C254 C253 1.369 1_545 S
C254 H257 0.928 . S
C255 N251 1.345 . S
C255 C256 1.371 . S
C255 H258 0.931 . S
C256 C252 1.391 1_545 S
C256 C255 1.371 . S
C256 H263 0.930 . S
H257 C254 0.928 . S
H258 C255 0.931 . S
H259 C235 0.930 . S
H260 C232 0.930 . S
H261 C241 0.930 . S
H262 C253 0.929 . S
H263 C256 0.930 . S
C264 C265 1.351 . S
C264 N267 1.368 . S
C264 H269 0.931 . S
C265 C264 1.351 . S
C265 N266 1.373 . S
C265 H293 0.930 . S
N266 C265 1.373 . S
N266 C268 1.340 . S
N267 C264 1.368 . S
N267 C268 1.321 . S
N267 Co270 2.135 . S
C268 N266 1.340 . S
C268 N267 1.321 . S
C268 H292 0.930 . S
H269 C264 0.931 . S
Co270 N267 2.135 . S
Co270 N273 2.121 . S
Co270 O278 2.055 . S
Co270 O281 2.039 . S
Co270 N284 2.140 . S
C271 O272 1.227 . S
C271 O281 1.265 . S
O272 C271 1.227 . S
N273 Co270 2.121 . S
N273 C275 1.375 . S
N273 C276 1.313 . S
C274 C275 1.338 . S
C274 N277 1.377 . S
C274 H294 0.930 . S
C275 N273 1.375 . S
C275 C274 1.338 . S
C275 H279 0.931 . S
C276 N273 1.313 . S
C276 N277 1.344 . S
C276 H280 0.930 . S
N277 C274 1.377 . S
N277 C276 1.344 . S
O278 Co270 2.055 . S
O278 C282 1.253 . S
H279 C275 0.931 . S
H280 C276 0.930 . S
O281 Co270 2.039 . S
O281 C271 1.265 . S
C282 O278 1.253 . S
C282 O283 1.227 . S
O283 C282 1.227 . S
N284 Co270 2.140 . S
N284 C287 1.346 . S
N284 C288 1.345 . S
C285 C286 1.387 . S
C285 C289 1.391 . S
C286 C285 1.387 . S
C286 C287 1.369 . S
C286 H295 0.929 . S
C287 N284 1.346 . S
C287 C286 1.369 . S
C287 H290 0.928 . S
C288 N284 1.345 . S
C288 C289 1.371 . S
C288 H291 0.931 . S
C289 C285 1.391 . S
C289 C288 1.371 . S
C289 H296 0.930 . S
H290 C287 0.928 . S
H291 C288 0.931 . S
H292 C268 0.930 . S
H293 C265 0.930 . S
H294 C274 0.930 . S
H295 C286 0.929 . S
H296 C289 0.930 . S
C297 C298 1.351 . S
C297 N300 1.368 . S
C297 H302 0.931 . S
C298 C297 1.351 . S
C298 N299 1.373 . S
C298 H326 0.930 . S
N299 C298 1.373 . S
N299 C301 1.340 . S
N300 C297 1.368 . S
N300 C301 1.321 . S
N300 Co303 2.135 . S
C301 N299 1.340 . S
C301 N300 1.321 . S
C301 H325 0.930 . S
H302 C297 0.931 . S
Co303 N300 2.135 . S
Co303 N306 2.121 . S
Co303 O311 2.055 . S
Co303 O314 2.039 . S
Co303 N317 2.140 . S
C304 O305 1.227 . S
C304 O314 1.265 . S
O305 C304 1.227 . S
N306 Co303 2.121 . S
N306 C308 1.375 . S
N306 C309 1.313 . S
C307 C308 1.338 1_455 S
C307 N310 1.377 . S
C307 H327 0.930 . S
C308 N306 1.375 . S
C308 C307 1.338 1_655 S
C308 H312 0.931 . S
C309 N306 1.313 . S
C309 N310 1.344 1_655 S
C309 H313 0.930 . S
N310 C307 1.377 . S
N310 C309 1.344 1_455 S
O311 Co303 2.055 . S
O311 C315 1.253 . S
H312 C308 0.931 . S
H313 C309 0.930 . S
O314 Co303 2.039 . S
O314 C304 1.265 . S
C315 O311 1.253 . S
C315 O316 1.227 . S
O316 C315 1.227 . S
N317 Co303 2.140 . S
N317 C320 1.346 . S
N317 C321 1.345 . S
C318 C319 1.387 . S
C318 C322 1.391 1_565 S
C319 C318 1.387 . S
C319 C320 1.369 1_565 S
C319 H328 0.929 . S
C320 N317 1.346 . S
C320 C319 1.369 1_545 S
C320 H323 0.928 . S
C321 N317 1.345 . S
C321 C322 1.371 . S
C321 H324 0.931 . S
C322 C318 1.391 1_545 S
C322 C321 1.371 . S
C322 H329 0.930 . S
H323 C320 0.928 . S
H324 C321 0.931 . S
H325 C301 0.930 . S
H326 C298 0.930 . S
H327 C307 0.930 . S
H328 C319 0.929 . S
H329 C322 0.930 . S
C330 C331 1.351 . S
C330 N333 1.368 . S
C330 H335 0.931 . S
C331 C330 1.351 . S
C331 N332 1.373 . S
C331 H359 0.930 . S
N332 C331 1.373 . S
N332 C334 1.340 . S
N333 C330 1.368 . S
N333 C334 1.321 . S
N333 Co336 2.135 . S
C334 N332 1.340 . S
C334 N333 1.321 . S
C334 H358 0.930 . S
H335 C330 0.931 . S
Co336 N333 2.135 . S
Co336 N339 2.121 . S
Co336 O344 2.055 . S
Co336 O347 2.039 . S
Co336 N350 2.140 . S
C337 O338 1.227 . S
C337 O347 1.265 . S
O338 C337 1.227 . S
N339 Co336 2.121 . S
N339 C341 1.375 . S
N339 C342 1.313 . S
C340 C341 1.338 . S
C340 N343 1.377 . S
C340 H360 0.930 . S
C341 N339 1.375 . S
C341 C340 1.338 . S
C341 H345 0.931 . S
C342 N339 1.313 . S
C342 N343 1.344 . S
C342 H346 0.930 . S
N343 C340 1.377 . S
N343 C342 1.344 . S
O344 Co336 2.055 . S
O344 C348 1.253 . S
H345 C341 0.931 . S
H346 C342 0.930 . S
O347 Co336 2.039 . S
O347 C337 1.265 . S
C348 O344 1.253 . S
C348 O349 1.227 . S
O349 C348 1.227 . S
N350 Co336 2.140 . S
N350 C353 1.346 . S
N350 C354 1.345 . S
C351 C352 1.387 . S
C351 C355 1.391 . S
C352 C351 1.387 . S
C352 C353 1.369 . S
C352 H361 0.929 . S
C353 N350 1.346 . S
C353 C352 1.369 . S
C353 H356 0.928 . S
C354 N350 1.345 . S
C354 C355 1.371 . S
C354 H357 0.931 . S
C355 C351 1.391 . S
C355 C354 1.371 . S
C355 H362 0.930 . S
H356 C353 0.928 . S
H357 C354 0.931 . S
H358 C334 0.930 . S
H359 C331 0.930 . S
H360 C340 0.930 . S
H361 C352 0.929 . S
H362 C355 0.930 . S
C363 C364 1.351 . S
C363 N366 1.368 . S
C363 H368 0.931 . S
C364 C363 1.351 . S
C364 N365 1.373 . S
C364 H392 0.930 . S
N365 C364 1.373 . S
N365 C367 1.340 . S
N366 C363 1.368 . S
N366 C367 1.321 . S
N366 Co369 2.135 . S
C367 N365 1.340 . S
C367 N366 1.321 . S
C367 H391 0.930 . S
H368 C363 0.931 . S
Co369 N366 2.135 . S
Co369 N372 2.121 . S
Co369 O377 2.055 . S
Co369 O380 2.039 . S
Co369 N383 2.140 . S
C370 O371 1.227 . S
C370 O380 1.265 . S
O371 C370 1.227 . S
N372 Co369 2.121 . S
N372 C374 1.375 . S
N372 C375 1.313 . S
C373 C374 1.338 . S
C373 N376 1.377 . S
C373 H393 0.930 . S
C374 N372 1.375 . S
C374 C373 1.338 . S
C374 H378 0.931 . S
C375 N372 1.313 . S
C375 N376 1.344 . S
C375 H379 0.930 . S
N376 C373 1.377 . S
N376 C375 1.344 . S
O377 Co369 2.055 . S
O377 C381 1.253 . S
H378 C374 0.931 . S
H379 C375 0.930 . S
O380 Co369 2.039 . S
O380 C370 1.265 . S
C381 O377 1.253 . S
C381 O382 1.227 . S
O382 C381 1.227 . S
N383 Co369 2.140 . S
N383 C386 1.346 . S
N383 C387 1.345 . S
C384 C385 1.387 . S
C384 C388 1.391 1_545 S
C385 C384 1.387 . S
C385 C386 1.369 1_545 S
C385 H394 0.929 . S
C386 N383 1.346 . S
C386 C385 1.369 1_565 S
C386 H389 0.928 . S
C387 N383 1.345 . S
C387 C388 1.371 . S
C387 H390 0.931 . S
C388 C384 1.391 1_565 S
C388 C387 1.371 . S
C388 H395 0.930 . S
H389 C386 0.928 . S
H390 C387 0.931 . S
H391 C367 0.930 . S
H392 C364 0.930 . S
H393 C373 0.930 . S
H394 C385 0.929 . S
H395 C388 0.930 . S
C396 C397 1.351 . S
C396 N399 1.368 . S
C396 H401 0.931 . S
C397 C396 1.351 . S
C397 N398 1.373 . S
C397 H425 0.930 . S
N398 C397 1.373 . S
N398 C400 1.340 . S
N399 C396 1.368 . S
N399 C400 1.321 . S
N399 Co402 2.135 . S
C400 N398 1.340 . S
C400 N399 1.321 . S
C400 H424 0.930 . S
H401 C396 0.931 . S
Co402 N399 2.135 . S
Co402 N405 2.121 . S
Co402 O410 2.055 . S
Co402 O413 2.039 . S
Co402 N416 2.140 . S
C403 O404 1.227 . S
C403 O413 1.265 . S
O404 C403 1.227 . S
N405 Co402 2.121 . S
N405 C407 1.375 . S
N405 C408 1.313 . S
C406 C407 1.338 . S
C406 N409 1.377 . S
C406 H426 0.930 . S
C407 N405 1.375 . S
C407 C406 1.338 . S
C407 H411 0.931 . S
C408 N405 1.313 . S
C408 N409 1.344 . S
C408 H412 0.930 . S
N409 C406 1.377 . S
N409 C408 1.344 . S
O410 Co402 2.055 . S
O410 C414 1.253 . S
H411 C407 0.931 . S
H412 C408 0.930 . S
O413 Co402 2.039 . S
O413 C403 1.265 . S
C414 O410 1.253 . S
C414 O415 1.227 . S
O415 C414 1.227 . S
N416 Co402 2.140 . S
N416 C419 1.346 . S
N416 C420 1.345 . S
C417 C418 1.387 . S
C417 C421 1.391 . S
C418 C417 1.387 . S
C418 C419 1.369 . S
C418 H427 0.929 . S
C419 N416 1.346 . S
C419 C418 1.369 . S
C419 H422 0.928 . S
C420 N416 1.345 . S
C420 C421 1.371 . S
C420 H423 0.931 . S
C421 C417 1.391 . S
C421 C420 1.371 . S
C421 H428 0.930 . S
H422 C419 0.928 . S
H423 C420 0.931 . S
H424 C400 0.930 . S
H425 C397 0.930 . S
H426 C406 0.930 . S
H427 C418 0.929 . S
H428 C421 0.930 . S
C429 C430 1.351 . S
C429 N432 1.368 . S
C429 H434 0.931 . S
C430 C429 1.351 . S
C430 N431 1.373 . S
C430 H458 0.930 . S
N431 C430 1.373 . S
N431 C433 1.340 . S
N432 C429 1.368 . S
N432 C433 1.321 . S
N432 Co435 2.135 . S
C433 N431 1.340 . S
C433 N432 1.321 . S
C433 H457 0.930 . S
H434 C429 0.931 . S
Co435 N432 2.135 . S
Co435 N438 2.121 . S
Co435 O443 2.055 . S
Co435 O446 2.039 . S
Co435 N449 2.140 . S
C436 O437 1.227 . S
C436 O446 1.265 . S
O437 C436 1.227 . S
N438 Co435 2.121 . S
N438 C440 1.375 . S
N438 C441 1.313 . S
C439 C440 1.338 . S
C439 N442 1.377 . S
C439 H459 0.930 . S
C440 N438 1.375 . S
C440 C439 1.338 . S
C440 H444 0.931 . S
C441 N438 1.313 . S
C441 N442 1.344 . S
C441 H445 0.930 . S
N442 C439 1.377 . S
N442 C441 1.344 . S
O443 Co435 2.055 . S
O443 C447 1.253 . S
H444 C440 0.931 . S
H445 C441 0.930 . S
O446 Co435 2.039 . S
O446 C436 1.265 . S
C447 O443 1.253 . S
C447 O448 1.227 . S
O448 C447 1.227 . S
N449 Co435 2.140 . S
N449 C452 1.346 . S
N449 C453 1.345 . S
C450 C451 1.387 . S
C450 C454 1.391 1_565 S
C451 C450 1.387 . S
C451 C452 1.369 1_565 S
C451 H460 0.929 . S
C452 N449 1.346 . S
C452 C451 1.369 1_545 S
C452 H455 0.928 . S
C453 N449 1.345 . S
C453 C454 1.371 . S
C453 H456 0.931 . S
C454 C450 1.391 1_545 S
C454 C453 1.371 . S
C454 H461 0.930 . S
H455 C452 0.928 . S
H456 C453 0.931 . S
H457 C433 0.930 . S
H458 C430 0.930 . S
H459 C439 0.930 . S
H460 C451 0.929 . S
H461 C454 0.930 . S
C462 C463 1.351 . S
C462 N465 1.368 . S
C462 H467 0.931 . S
C463 C462 1.351 . S
C463 N464 1.373 . S
C463 H491 0.930 . S
N464 C463 1.373 . S
N464 C466 1.340 . S
N465 C462 1.368 . S
N465 C466 1.321 . S
N465 Co468 2.135 . S
C466 N464 1.340 . S
C466 N465 1.321 . S
C466 H490 0.930 . S
H467 C462 0.931 . S
Co468 N465 2.135 . S
Co468 N471 2.121 . S
Co468 O476 2.055 . S
Co468 O479 2.039 . S
Co468 N482 2.140 . S
C469 O470 1.227 . S
C469 O479 1.265 . S
O470 C469 1.227 . S
N471 Co468 2.121 . S
N471 C473 1.375 . S
N471 C474 1.313 . S
C472 C473 1.338 . S
C472 N475 1.377 . S
C472 H492 0.930 . S
C473 N471 1.375 . S
C473 C472 1.338 . S
C473 H477 0.931 . S
C474 N471 1.313 . S
C474 N475 1.344 . S
C474 H478 0.930 . S
N475 C472 1.377 . S
N475 C474 1.344 . S
O476 Co468 2.055 . S
O476 C480 1.253 . S
H477 C473 0.931 . S
H478 C474 0.930 . S
O479 Co468 2.039 . S
O479 C469 1.265 . S
C480 O476 1.253 . S
C480 O481 1.227 . S
O481 C480 1.227 . S
N482 Co468 2.140 . S
N482 C485 1.346 . S
N482 C486 1.345 . S
C483 C484 1.387 . S
C483 C487 1.391 . S
C484 C483 1.387 . S
C484 C485 1.369 . S
C484 H493 0.929 . S
C485 N482 1.346 . S
C485 C484 1.369 . S
C485 H488 0.928 . S
C486 N482 1.345 . S
C486 C487 1.371 . S
C486 H489 0.931 . S
C487 C483 1.391 . S
C487 C486 1.371 . S
C487 H494 0.930 . S
H488 C485 0.928 . S
H489 C486 0.931 . S
H490 C466 0.930 . S
H491 C463 0.930 . S
H492 C472 0.930 . S
H493 C484 0.929 . S
H494 C487 0.930 . S
C495 C496 1.351 . S
C495 N498 1.368 . S
C495 H500 0.931 . S
C496 C495 1.351 . S
C496 N497 1.373 . S
C496 H524 0.930 . S
N497 C496 1.373 . S
N497 C499 1.340 . S
N498 C495 1.368 . S
N498 C499 1.321 . S
N498 Co501 2.135 . S
C499 N497 1.340 . S
C499 N498 1.321 . S
C499 H523 0.930 . S
H500 C495 0.931 . S
Co501 N498 2.135 . S
Co501 N504 2.121 . S
Co501 O509 2.055 . S
Co501 O512 2.039 . S
Co501 N515 2.140 . S
C502 O503 1.227 . S
C502 O512 1.265 . S
O503 C502 1.227 . S
N504 Co501 2.121 . S
N504 C506 1.375 . S
N504 C507 1.313 . S
C505 C506 1.338 1_455 S
C505 N508 1.377 . S
C505 H525 0.930 . S
C506 N504 1.375 . S
C506 C505 1.338 1_655 S
C506 H510 0.931 . S
C507 N504 1.313 . S
C507 N508 1.344 1_655 S
C507 H511 0.930 . S
N508 C505 1.377 . S
N508 C507 1.344 1_455 S
O509 Co501 2.055 . S
O509 C513 1.253 . S
H510 C506 0.931 . S
H511 C507 0.930 . S
O512 Co501 2.039 . S
O512 C502 1.265 . S
C513 O509 1.253 . S
C513 O514 1.227 . S
O514 C513 1.227 . S
N515 Co501 2.140 . S
N515 C518 1.346 . S
N515 C519 1.345 . S
C516 C517 1.387 . S
C516 C520 1.391 1_545 S
C517 C516 1.387 . S
C517 C518 1.369 1_545 S
C517 H526 0.929 . S
C518 N515 1.346 . S
C518 C517 1.369 1_565 S
C518 H521 0.928 . S
C519 N515 1.345 . S
C519 C520 1.371 . S
C519 H522 0.931 . S
C520 C516 1.391 1_565 S
C520 C519 1.371 . S
C520 H527 0.930 . S
H521 C518 0.928 . S
H522 C519 0.931 . S
H523 C499 0.930 . S
H524 C496 0.930 . S
H525 C505 0.930 . S
H526 C517 0.929 . S
H527 C520 0.930 . S
C528 C529 1.351 . S
C528 N531 1.368 . S
C528 H533 0.931 . S
C529 C528 1.351 . S
C529 N530 1.373 . S
C529 H557 0.930 . S
N530 C529 1.373 . S
N530 C532 1.340 . S
N531 C528 1.368 . S
N531 C532 1.321 . S
N531 Co534 2.135 . S
C532 N530 1.340 . S
C532 N531 1.321 . S
C532 H556 0.930 . S
H533 C528 0.931 . S
Co534 N531 2.135 . S
Co534 N537 2.121 . S
Co534 O542 2.055 . S
Co534 O545 2.039 . S
Co534 N548 2.140 . S
C535 O536 1.227 . S
C535 O545 1.265 . S
O536 C535 1.227 . S
N537 Co534 2.121 . S
N537 C539 1.375 . S
N537 C540 1.313 . S
C538 C539 1.338 . S
C538 N541 1.377 . S
C538 H558 0.930 . S
C539 N537 1.375 . S
C539 C538 1.338 . S
C539 H543 0.931 . S
C540 N537 1.313 . S
C540 N541 1.344 . S
C540 H544 0.930 . S
N541 C538 1.377 . S
N541 C540 1.344 . S
O542 Co534 2.055 . S
O542 C546 1.253 . S
H543 C539 0.931 . S
H544 C540 0.930 . S
O545 Co534 2.039 . S
O545 C535 1.265 . S
C546 O542 1.253 . S
C546 O547 1.227 . S
O547 C546 1.227 . S
N548 Co534 2.140 . S
N548 C551 1.346 . S
N548 C552 1.345 . S
C549 C550 1.387 . S
C549 C553 1.391 . S
C550 C549 1.387 . S
C550 C551 1.369 . S
C550 H559 0.929 . S
C551 N548 1.346 . S
C551 C550 1.369 . S
C551 H554 0.928 . S
C552 N548 1.345 . S
C552 C553 1.371 . S
C552 H555 0.931 . S
C553 C549 1.391 . S
C553 C552 1.371 . S
C553 H560 0.930 . S
H554 C551 0.928 . S
H555 C552 0.931 . S
H556 C532 0.930 . S
H557 C529 0.930 . S
H558 C538 0.930 . S
H559 C550 0.929 . S
H560 C553 0.930 . S
C561 C562 1.351 . S
C561 N564 1.368 . S
C561 H566 0.931 . S
C562 C561 1.351 . S
C562 N563 1.373 . S
C562 H590 0.930 . S
N563 C562 1.373 . S
N563 C565 1.340 . S
N564 C561 1.368 . S
N564 C565 1.321 . S
N564 Co567 2.135 . S
C565 N563 1.340 . S
C565 N564 1.321 . S
C565 H589 0.930 . S
H566 C561 0.931 . S
Co567 N564 2.135 . S
Co567 N570 2.121 . S
Co567 O575 2.055 . S
Co567 O578 2.039 . S
Co567 N581 2.140 . S
C568 O569 1.227 . S
C568 O578 1.265 . S
O569 C568 1.227 . S
N570 Co567 2.121 . S
N570 C572 1.375 . S
N570 C573 1.313 . S
C571 C572 1.338 . S
C571 N574 1.377 . S
C571 H591 0.930 . S
C572 N570 1.375 . S
C572 C571 1.338 . S
C572 H576 0.931 . S
C573 N570 1.313 . S
C573 N574 1.344 . S
C573 H577 0.930 . S
N574 C571 1.377 . S
N574 C573 1.344 . S
O575 Co567 2.055 . S
O575 C579 1.253 . S
H576 C572 0.931 . S
H577 C573 0.930 . S
O578 Co567 2.039 . S
O578 C568 1.265 . S
C579 O575 1.253 . S
C579 O580 1.227 . S
O580 C579 1.227 . S
N581 Co567 2.140 . S
N581 C584 1.346 . S
N581 C585 1.345 . S
C582 C583 1.387 . S
C582 C586 1.391 . S
C583 C582 1.387 . S
C583 C584 1.369 . S
C583 H592 0.929 . S
C584 N581 1.346 . S
C584 C583 1.369 . S
C584 H587 0.928 . S
C585 N581 1.345 . S
C585 C586 1.371 . S
C585 H588 0.931 . S
C586 C582 1.391 . S
C586 C585 1.371 . S
C586 H593 0.930 . S
H587 C584 0.928 . S
H588 C585 0.931 . S
H589 C565 0.930 . S
H590 C562 0.930 . S
H591 C571 0.930 . S
H592 C583 0.929 . S
H593 C586 0.930 . S
C594 C595 1.351 . S
C594 N597 1.368 . S
C594 H599 0.931 . S
C595 C594 1.351 . S
C595 N596 1.373 . S
C595 H623 0.930 . S
N596 C595 1.373 . S
N596 C598 1.340 . S
N597 C594 1.368 . S
N597 C598 1.321 . S
N597 Co600 2.135 . S
C598 N596 1.340 . S
C598 N597 1.321 . S
C598 H622 0.930 . S
H599 C594 0.931 . S
Co600 N597 2.135 . S
Co600 N603 2.121 . S
Co600 O608 2.055 . S
Co600 O611 2.039 . S
Co600 N614 2.140 . S
C601 O602 1.227 . S
C601 O611 1.265 . S
O602 C601 1.227 . S
N603 Co600 2.121 . S
N603 C605 1.375 . S
N603 C606 1.313 . S
C604 C605 1.338 . S
C604 N607 1.377 . S
C604 H624 0.930 . S
C605 N603 1.375 . S
C605 C604 1.338 . S
C605 H609 0.931 . S
C606 N603 1.313 . S
C606 N607 1.344 . S
C606 H610 0.930 . S
N607 C604 1.377 . S
N607 C606 1.344 . S
O608 Co600 2.055 . S
O608 C612 1.253 . S
H609 C605 0.931 . S
H610 C606 0.930 . S
O611 Co600 2.039 . S
O611 C601 1.265 . S
C612 O608 1.253 . S
C612 O613 1.227 . S
O613 C612 1.227 . S
N614 Co600 2.140 . S
N614 C617 1.346 . S
N614 C618 1.345 . S
C615 C616 1.387 . S
C615 C619 1.391 . S
C616 C615 1.387 . S
C616 C617 1.369 . S
C616 H625 0.929 . S
C617 N614 1.346 . S
C617 C616 1.369 . S
C617 H620 0.928 . S
C618 N614 1.345 . S
C618 C619 1.371 . S
C618 H621 0.931 . S
C619 C615 1.391 . S
C619 C618 1.371 . S
C619 H626 0.930 . S
H620 C617 0.928 . S
H621 C618 0.931 . S
H622 C598 0.930 . S
H623 C595 0.930 . S
H624 C604 0.930 . S
H625 C616 0.929 . S
H626 C619 0.930 . S
C627 C628 1.351 . S
C627 N630 1.368 . S
C627 H632 0.931 . S
C628 C627 1.351 . S
C628 N629 1.373 . S
C628 H656 0.930 . S
N629 C628 1.373 . S
N629 C631 1.340 . S
N630 C627 1.368 . S
N630 C631 1.321 . S
N630 Co633 2.135 . S
C631 N629 1.340 . S
C631 N630 1.321 . S
C631 H655 0.930 . S
H632 C627 0.931 . S
Co633 N630 2.135 . S
Co633 N636 2.121 . S
Co633 O641 2.055 . S
Co633 O644 2.039 . S
Co633 N647 2.140 . S
C634 O635 1.227 . S
C634 O644 1.265 . S
O635 C634 1.227 . S
N636 Co633 2.121 . S
N636 C638 1.375 . S
N636 C639 1.313 . S
C637 C638 1.338 1_455 S
C637 N640 1.377 . S
C637 H657 0.930 . S
C638 N636 1.375 . S
C638 C637 1.338 1_655 S
C638 H642 0.931 . S
C639 N636 1.313 . S
C639 N640 1.344 1_655 S
C639 H643 0.930 . S
N640 C637 1.377 . S
N640 C639 1.344 1_455 S
O641 Co633 2.055 . S
O641 C645 1.253 . S
H642 C638 0.931 . S
H643 C639 0.930 . S
O644 Co633 2.039 . S
O644 C634 1.265 . S
C645 O641 1.253 . S
C645 O646 1.227 . S
O646 C645 1.227 . S
N647 Co633 2.140 . S
N647 C650 1.346 . S
N647 C651 1.345 . S
C648 C649 1.387 . S
C648 C652 1.391 . S
C649 C648 1.387 . S
C649 C650 1.369 . S
C649 H658 0.929 . S
C650 N647 1.346 . S
C650 C649 1.369 . S
C650 H653 0.928 . S
C651 N647 1.345 . S
C651 C652 1.371 . S
C651 H654 0.931 . S
C652 C648 1.391 . S
C652 C651 1.371 . S
C652 H659 0.930 . S
H653 C650 0.928 . S
H654 C651 0.931 . S
H655 C631 0.930 . S
H656 C628 0.930 . S
H657 C637 0.930 . S
H658 C649 0.929 . S
H659 C652 0.930 . S
C660 C661 1.351 . S
C660 N663 1.368 . S
C660 H665 0.931 . S
C661 C660 1.351 . S
C661 N662 1.373 . S
C661 H689 0.930 . S
N662 C661 1.373 . S
N662 C664 1.340 . S
N663 C660 1.368 . S
N663 C664 1.321 . S
N663 Co666 2.135 . S
C664 N662 1.340 . S
C664 N663 1.321 . S
C664 H688 0.930 . S
H665 C660 0.931 . S
Co666 N663 2.135 . S
Co666 N669 2.121 . S
Co666 O674 2.055 . S
Co666 O677 2.039 . S
Co666 N680 2.140 . S
C667 O668 1.227 . S
C667 O677 1.265 . S
O668 C667 1.227 . S
N669 Co666 2.121 . S
N669 C671 1.375 . S
N669 C672 1.313 . S
C670 C671 1.338 . S
C670 N673 1.377 . S
C670 H690 0.930 . S
C671 N669 1.375 . S
C671 C670 1.338 . S
C671 H675 0.931 . S
C672 N669 1.313 . S
C672 N673 1.344 . S
C672 H676 0.930 . S
N673 C670 1.377 . S
N673 C672 1.344 . S
O674 Co666 2.055 . S
O674 C678 1.253 . S
H675 C671 0.931 . S
H676 C672 0.930 . S
O677 Co666 2.039 . S
O677 C667 1.265 . S
C678 O674 1.253 . S
C678 O679 1.227 . S
O679 C678 1.227 . S
N680 Co666 2.140 . S
N680 C683 1.346 . S
N680 C684 1.345 . S
C681 C682 1.387 . S
C681 C685 1.391 . S
C682 C681 1.387 . S
C682 C683 1.369 . S
C682 H691 0.929 . S
C683 N680 1.346 . S
C683 C682 1.369 . S
C683 H686 0.928 . S
C684 N680 1.345 . S
C684 C685 1.371 . S
C684 H687 0.931 . S
C685 C681 1.391 . S
C685 C684 1.371 . S
C685 H692 0.930 . S
H686 C683 0.928 . S
H687 C684 0.931 . S
H688 C664 0.930 . S
H689 C661 0.930 . S
H690 C670 0.930 . S
H691 C682 0.929 . S
H692 C685 0.930 . S
C693 C694 1.351 . S
C693 N696 1.368 . S
C693 H698 0.931 . S
C694 C693 1.351 . S
C694 N695 1.373 . S
C694 H722 0.930 . S
N695 C694 1.373 . S
N695 C697 1.340 . S
N696 C693 1.368 . S
N696 C697 1.321 . S
N696 Co699 2.135 . S
C697 N695 1.340 . S
C697 N696 1.321 . S
C697 H721 0.930 . S
H698 C693 0.931 . S
Co699 N696 2.135 . S
Co699 N702 2.121 . S
Co699 O707 2.055 . S
Co699 O710 2.039 . S
Co699 N713 2.140 . S
C700 O701 1.227 . S
C700 O710 1.265 . S
O701 C700 1.227 . S
N702 Co699 2.121 . S
N702 C704 1.375 . S
N702 C705 1.313 . S
C703 C704 1.338 1_455 S
C703 N706 1.377 . S
C703 H723 0.930 . S
C704 N702 1.375 . S
C704 C703 1.338 1_655 S
C704 H708 0.931 . S
C705 N702 1.313 . S
C705 N706 1.344 1_655 S
C705 H709 0.930 . S
N706 C703 1.377 . S
N706 C705 1.344 1_455 S
O707 Co699 2.055 . S
O707 C711 1.253 . S
H708 C704 0.931 . S
H709 C705 0.930 . S
O710 Co699 2.039 . S
O710 C700 1.265 . S
C711 O707 1.253 . S
C711 O712 1.227 . S
O712 C711 1.227 . S
N713 Co699 2.140 . S
N713 C716 1.346 . S
N713 C717 1.345 . S
C714 C715 1.387 . S
C714 C718 1.391 . S
C715 C714 1.387 . S
C715 C716 1.369 . S
C715 H724 0.929 . S
C716 N713 1.346 . S
C716 C715 1.369 . S
C716 H719 0.928 . S
C717 N713 1.345 . S
C717 C718 1.371 . S
C717 H720 0.931 . S
C718 C714 1.391 . S
C718 C717 1.371 . S
C718 H725 0.930 . S
H719 C716 0.928 . S
H720 C717 0.931 . S
H721 C697 0.930 . S
H722 C694 0.930 . S
H723 C703 0.930 . S
H724 C715 0.929 . S
H725 C718 0.930 . S
C726 C727 1.351 . S
C726 N729 1.368 . S
C726 H731 0.931 . S
C727 C726 1.351 . S
C727 N728 1.373 . S
C727 H755 0.930 . S
N728 C727 1.373 . S
N728 C730 1.340 . S
N729 C726 1.368 . S
N729 C730 1.321 . S
N729 Co732 2.135 . S
C730 N728 1.340 . S
C730 N729 1.321 . S
C730 H754 0.930 . S
H731 C726 0.931 . S
Co732 N729 2.135 . S
Co732 N735 2.121 . S
Co732 O740 2.055 . S
Co732 O743 2.039 . S
Co732 N746 2.140 . S
C733 O734 1.227 . S
C733 O743 1.265 . S
O734 C733 1.227 . S
N735 Co732 2.121 . S
N735 C737 1.375 . S
N735 C738 1.313 . S
C736 C737 1.338 . S
C736 N739 1.377 . S
C736 H756 0.930 . S
C737 N735 1.375 . S
C737 C736 1.338 . S
C737 H741 0.931 . S
C738 N735 1.313 . S
C738 N739 1.344 . S
C738 H742 0.930 . S
N739 C736 1.377 . S
N739 C738 1.344 . S
O740 Co732 2.055 . S
O740 C744 1.253 . S
H741 C737 0.931 . S
H742 C738 0.930 . S
O743 Co732 2.039 . S
O743 C733 1.265 . S
C744 O740 1.253 . S
C744 O745 1.227 . S
O745 C744 1.227 . S
N746 Co732 2.140 . S
N746 C749 1.346 . S
N746 C750 1.345 . S
C747 C748 1.387 . S
C747 C751 1.391 . S
C748 C747 1.387 . S
C748 C749 1.369 . S
C748 H757 0.929 . S
C749 N746 1.346 . S
C749 C748 1.369 . S
C749 H752 0.928 . S
C750 N746 1.345 . S
C750 C751 1.371 . S
C750 H753 0.931 . S
C751 C747 1.391 . S
C751 C750 1.371 . S
C751 H758 0.930 . S
H752 C749 0.928 . S
H753 C750 0.931 . S
H754 C730 0.930 . S
H755 C727 0.930 . S
H756 C736 0.930 . S
H757 C748 0.929 . S
H758 C751 0.930 . S
C759 C760 1.351 . S
C759 N762 1.368 . S
C759 H764 0.931 . S
C760 C759 1.351 . S
C760 N761 1.373 . S
C760 H788 0.930 . S
N761 C760 1.373 . S
N761 C763 1.340 . S
N762 C759 1.368 . S
N762 C763 1.321 . S
N762 Co765 2.135 . S
C763 N761 1.340 . S
C763 N762 1.321 . S
C763 H787 0.930 . S
H764 C759 0.931 . S
Co765 N762 2.135 . S
Co765 N768 2.121 . S
Co765 O773 2.055 . S
Co765 O776 2.039 . S
Co765 N779 2.140 . S
C766 O767 1.227 . S
C766 O776 1.265 . S
O767 C766 1.227 . S
N768 Co765 2.121 . S
N768 C770 1.375 . S
N768 C771 1.313 . S
C769 C770 1.338 . S
C769 N772 1.377 . S
C769 H789 0.930 . S
C770 N768 1.375 . S
C770 C769 1.338 . S
C770 H774 0.931 . S
C771 N768 1.313 . S
C771 N772 1.344 . S
C771 H775 0.930 . S
N772 C769 1.377 . S
N772 C771 1.344 . S
O773 Co765 2.055 . S
O773 C777 1.253 . S
H774 C770 0.931 . S
H775 C771 0.930 . S
O776 Co765 2.039 . S
O776 C766 1.265 . S
C777 O773 1.253 . S
C777 O778 1.227 . S
O778 C777 1.227 . S
N779 Co765 2.140 . S
N779 C782 1.346 . S
N779 C783 1.345 . S
C780 C781 1.387 . S
C780 C784 1.391 . S
C781 C780 1.387 . S
C781 C782 1.369 . S
C781 H790 0.929 . S
C782 N779 1.346 . S
C782 C781 1.369 . S
C782 H785 0.928 . S
C783 N779 1.345 . S
C783 C784 1.371 . S
C783 H786 0.931 . S
C784 C780 1.391 . S
C784 C783 1.371 . S
C784 H791 0.930 . S
H785 C782 0.928 . S
H786 C783 0.931 . S
H787 C763 0.930 . S
H788 C760 0.930 . S
H789 C769 0.930 . S
H790 C781 0.929 . S
H791 C784 0.930 . S
C792 C793 1.351 . S
C792 N795 1.368 . S
C792 H797 0.931 . S
C793 C792 1.351 . S
C793 N794 1.373 . S
C793 H821 0.930 . S
N794 C793 1.373 . S
N794 C796 1.340 . S
N795 C792 1.368 . S
N795 C796 1.321 . S
N795 Co798 2.135 . S
C796 N794 1.340 . S
C796 N795 1.321 . S
C796 H820 0.930 . S
H797 C792 0.931 . S
Co798 N795 2.135 . S
Co798 N801 2.121 . S
Co798 O806 2.055 . S
Co798 O809 2.039 . S
Co798 N812 2.140 . S
C799 O800 1.227 . S
C799 O809 1.265 . S
O800 C799 1.227 . S
N801 Co798 2.121 . S
N801 C803 1.375 . S
N801 C804 1.313 . S
C802 C803 1.338 . S
C802 N805 1.377 . S
C802 H822 0.930 . S
C803 N801 1.375 . S
C803 C802 1.338 . S
C803 H807 0.931 . S
C804 N801 1.313 . S
C804 N805 1.344 . S
C804 H808 0.930 . S
N805 C802 1.377 . S
N805 C804 1.344 . S
O806 Co798 2.055 . S
O806 C810 1.253 . S
H807 C803 0.931 . S
H808 C804 0.930 . S
O809 Co798 2.039 . S
O809 C799 1.265 . S
C810 O806 1.253 . S
C810 O811 1.227 . S
O811 C810 1.227 . S
N812 Co798 2.140 . S
N812 C815 1.346 . S
N812 C816 1.345 . S
C813 C814 1.387 . S
C813 C817 1.391 . S
C814 C813 1.387 . S
C814 C815 1.369 . S
C814 H823 0.929 . S
C815 N812 1.346 . S
C815 C814 1.369 . S
C815 H818 0.928 . S
C816 N812 1.345 . S
C816 C817 1.371 . S
C816 H819 0.931 . S
C817 C813 1.391 . S
C817 C816 1.371 . S
C817 H824 0.930 . S
H818 C815 0.928 . S
H819 C816 0.931 . S
H820 C796 0.930 . S
H821 C793 0.930 . S
H822 C802 0.930 . S
H823 C814 0.929 . S
H824 C817 0.930 . S
C825 C826 1.351 . S
C825 N828 1.368 . S
C825 H830 0.931 . S
C826 C825 1.351 . S
C826 N827 1.373 . S
C826 H854 0.930 . S
N827 C826 1.373 . S
N827 C829 1.340 . S
N828 C825 1.368 . S
N828 C829 1.321 . S
N828 Co831 2.135 . S
C829 N827 1.340 . S
C829 N828 1.321 . S
C829 H853 0.930 . S
H830 C825 0.931 . S
Co831 N828 2.135 . S
Co831 N834 2.121 . S
Co831 O839 2.055 . S
Co831 O842 2.039 . S
Co831 N845 2.140 . S
C832 O833 1.227 . S
C832 O842 1.265 . S
O833 C832 1.227 . S
N834 Co831 2.121 . S
N834 C836 1.375 . S
N834 C837 1.313 . S
C835 C836 1.338 . S
C835 N838 1.377 . S
C835 H855 0.930 . S
C836 N834 1.375 . S
C836 C835 1.338 . S
C836 H840 0.931 . S
C837 N834 1.313 . S
C837 N838 1.344 . S
C837 H841 0.930 . S
N838 C835 1.377 . S
N838 C837 1.344 . S
O839 Co831 2.055 . S
O839 C843 1.253 . S
H840 C836 0.931 . S
H841 C837 0.930 . S
O842 Co831 2.039 . S
O842 C832 1.265 . S
C843 O839 1.253 . S
C843 O844 1.227 . S
O844 C843 1.227 . S
N845 Co831 2.140 . S
N845 C848 1.346 . S
N845 C849 1.345 . S
C846 C847 1.387 . S
C846 C850 1.391 . S
C847 C846 1.387 . S
C847 C848 1.369 . S
C847 H856 0.929 . S
C848 N845 1.346 . S
C848 C847 1.369 . S
C848 H851 0.928 . S
C849 N845 1.345 . S
C849 C850 1.371 . S
C849 H852 0.931 . S
C850 C846 1.391 . S
C850 C849 1.371 . S
C850 H857 0.930 . S
H851 C848 0.928 . S
H852 C849 0.931 . S
H853 C829 0.930 . S
H854 C826 0.930 . S
H855 C835 0.930 . S
H856 C847 0.929 . S
H857 C850 0.930 . S
C858 C859 1.351 . S
C858 N861 1.368 . S
C858 H863 0.931 . S
C859 C858 1.351 . S
C859 N860 1.373 . S
C859 H887 0.930 . S
N860 C859 1.373 . S
N860 C862 1.340 . S
N861 C858 1.368 . S
N861 C862 1.321 . S
N861 Co864 2.135 . S
C862 N860 1.340 . S
C862 N861 1.321 . S
C862 H886 0.930 . S
H863 C858 0.931 . S
Co864 N861 2.135 . S
Co864 N867 2.121 . S
Co864 O872 2.055 . S
Co864 O875 2.039 . S
Co864 N878 2.140 . S
C865 O866 1.227 . S
C865 O875 1.265 . S
O866 C865 1.227 . S
N867 Co864 2.121 . S
N867 C869 1.375 . S
N867 C870 1.313 . S
C868 C869 1.338 . S
C868 N871 1.377 . S
C868 H888 0.930 . S
C869 N867 1.375 . S
C869 C868 1.338 . S
C869 H873 0.931 . S
C870 N867 1.313 . S
C870 N871 1.344 . S
C870 H874 0.930 . S
N871 C868 1.377 . S
N871 C870 1.344 . S
O872 Co864 2.055 . S
O872 C876 1.253 . S
H873 C869 0.931 . S
H874 C870 0.930 . S
O875 Co864 2.039 . S
O875 C865 1.265 . S
C876 O872 1.253 . S
C876 O877 1.227 . S
O877 C876 1.227 . S
N878 Co864 2.140 . S
N878 C881 1.346 . S
N878 C882 1.345 . S
C879 C880 1.387 . S
C879 C883 1.391 . S
C880 C879 1.387 . S
C880 C881 1.369 . S
C880 H889 0.929 . S
C881 N878 1.346 . S
C881 C880 1.369 . S
C881 H884 0.928 . S
C882 N878 1.345 . S
C882 C883 1.371 . S
C882 H885 0.931 . S
C883 C879 1.391 . S
C883 C882 1.371 . S
C883 H890 0.930 . S
H884 C881 0.928 . S
H885 C882 0.931 . S
H886 C862 0.930 . S
H887 C859 0.930 . S
H888 C868 0.930 . S
H889 C880 0.929 . S
H890 C883 0.930 . S
C891 C892 1.351 . S
C891 N894 1.368 . S
C891 H896 0.931 . S
C892 C891 1.351 . S
C892 N893 1.373 . S
C892 H920 0.930 . S
N893 C892 1.373 . S
N893 C895 1.340 . S
N894 C891 1.368 . S
N894 C895 1.321 . S
N894 Co897 2.135 . S
C895 N893 1.340 . S
C895 N894 1.321 . S
C895 H919 0.930 . S
H896 C891 0.931 . S
Co897 N894 2.135 . S
Co897 N900 2.121 . S
Co897 O905 2.055 . S
Co897 O908 2.039 . S
Co897 N911 2.140 . S
C898 O899 1.227 . S
C898 O908 1.265 . S
O899 C898 1.227 . S
N900 Co897 2.121 . S
N900 C902 1.375 . S
N900 C903 1.313 . S
C901 C902 1.338 1_655 S
C901 N904 1.377 . S
C901 H921 0.930 . S
C902 N900 1.375 . S
C902 C901 1.338 1_455 S
C902 H906 0.931 . S
C903 N900 1.313 . S
C903 N904 1.344 1_455 S
C903 H907 0.930 . S
N904 C901 1.377 . S
N904 C903 1.344 1_655 S
O905 Co897 2.055 . S
O905 C909 1.253 . S
H906 C902 0.931 . S
H907 C903 0.930 . S
O908 Co897 2.039 . S
O908 C898 1.265 . S
C909 O905 1.253 . S
C909 O910 1.227 . S
O910 C909 1.227 . S
N911 Co897 2.140 . S
N911 C914 1.346 . S
N911 C915 1.345 . S
C912 C913 1.387 . S
C912 C916 1.391 . S
C913 C912 1.387 . S
C913 C914 1.369 . S
C913 H922 0.929 . S
C914 N911 1.346 . S
C914 C913 1.369 . S
C914 H917 0.928 . S
C915 N911 1.345 . S
C915 C916 1.371 . S
C915 H918 0.931 . S
C916 C912 1.391 . S
C916 C915 1.371 . S
C916 H923 0.930 . S
H917 C914 0.928 . S
H918 C915 0.931 . S
H919 C895 0.930 . S
H920 C892 0.930 . S
H921 C901 0.930 . S
H922 C913 0.929 . S
H923 C916 0.930 . S
C924 C925 1.351 . S
C924 N927 1.368 . S
C924 H929 0.931 . S
C925 C924 1.351 . S
C925 N926 1.373 . S
C925 H953 0.930 . S
N926 C925 1.373 . S
N926 C928 1.340 . S
N927 C924 1.368 . S
N927 C928 1.321 . S
N927 Co930 2.135 . S
C928 N926 1.340 . S
C928 N927 1.321 . S
C928 H952 0.930 . S
H929 C924 0.931 . S
Co930 N927 2.135 . S
Co930 N933 2.121 . S
Co930 O938 2.055 . S
Co930 O941 2.039 . S
Co930 N944 2.140 . S
C931 O932 1.227 . S
C931 O941 1.265 . S
O932 C931 1.227 . S
N933 Co930 2.121 . S
N933 C935 1.375 . S
N933 C936 1.313 . S
C934 C935 1.338 . S
C934 N937 1.377 . S
C934 H954 0.930 . S
C935 N933 1.375 . S
C935 C934 1.338 . S
C935 H939 0.931 . S
C936 N933 1.313 . S
C936 N937 1.344 . S
C936 H940 0.930 . S
N937 C934 1.377 . S
N937 C936 1.344 . S
O938 Co930 2.055 . S
O938 C942 1.253 . S
H939 C935 0.931 . S
H940 C936 0.930 . S
O941 Co930 2.039 . S
O941 C931 1.265 . S
C942 O938 1.253 . S
C942 O943 1.227 . S
O943 C942 1.227 . S
N944 Co930 2.140 . S
N944 C947 1.346 . S
N944 C948 1.345 . S
C945 C946 1.387 . S
C945 C949 1.391 . S
C946 C945 1.387 . S
C946 C947 1.369 . S
C946 H955 0.929 . S
C947 N944 1.346 . S
C947 C946 1.369 . S
C947 H950 0.928 . S
C948 N944 1.345 . S
C948 C949 1.371 . S
C948 H951 0.931 . S
C949 C945 1.391 . S
C949 C948 1.371 . S
C949 H956 0.930 . S
H950 C947 0.928 . S
H951 C948 0.931 . S
H952 C928 0.930 . S
H953 C925 0.930 . S
H954 C934 0.930 . S
H955 C946 0.929 . S
H956 C949 0.930 . S
C957 C958 1.351 . S
C957 N960 1.368 . S
C957 H962 0.931 . S
C958 C957 1.351 . S
C958 N959 1.373 . S
C958 H986 0.930 . S
N959 C958 1.373 . S
N959 C961 1.340 . S
N960 C957 1.368 . S
N960 C961 1.321 . S
N960 Co963 2.135 . S
C961 N959 1.340 . S
C961 N960 1.321 . S
C961 H985 0.930 . S
H962 C957 0.931 . S
Co963 N960 2.135 . S
Co963 N966 2.121 . S
Co963 O971 2.055 . S
Co963 O974 2.039 . S
Co963 N977 2.140 . S
C964 O965 1.227 . S
C964 O974 1.265 . S
O965 C964 1.227 . S
N966 Co963 2.121 . S
N966 C968 1.375 . S
N966 C969 1.313 . S
C967 C968 1.338 1_655 S
C967 N970 1.377 . S
C967 H987 0.930 . S
C968 N966 1.375 . S
C968 C967 1.338 1_455 S
C968 H972 0.931 . S
C969 N966 1.313 . S
C969 N970 1.344 1_455 S
C969 H973 0.930 . S
N970 C967 1.377 . S
N970 C969 1.344 1_655 S
O971 Co963 2.055 . S
O971 C975 1.253 . S
H972 C968 0.931 . S
H973 C969 0.930 . S
O974 Co963 2.039 . S
O974 C964 1.265 . S
C975 O971 1.253 . S
C975 O976 1.227 . S
O976 C975 1.227 . S
N977 Co963 2.140 . S
N977 C980 1.346 . S
N977 C981 1.345 . S
C978 C979 1.387 . S
C978 C982 1.391 . S
C979 C978 1.387 . S
C979 C980 1.369 . S
C979 H988 0.929 . S
C980 N977 1.346 . S
C980 C979 1.369 . S
C980 H983 0.928 . S
C981 N977 1.345 . S
C981 C982 1.371 . S
C981 H984 0.931 . S
C982 C978 1.391 . S
C982 C981 1.371 . S
C982 H989 0.930 . S
H983 C980 0.928 . S
H984 C981 0.931 . S
H985 C961 0.930 . S
H986 C958 0.930 . S
H987 C967 0.930 . S
H988 C979 0.929 . S
H989 C982 0.930 . S
C990 C991 1.351 . S
C990 N993 1.368 . S
C990 H995 0.931 . S
C991 C990 1.351 . S
C991 N992 1.373 . S
C991 H1019 0.930 . S
N992 C991 1.373 . S
N992 C994 1.340 . S
N993 C990 1.368 . S
N993 C994 1.321 . S
N993 Co996 2.135 . S
C994 N992 1.340 . S
C994 N993 1.321 . S
C994 H1018 0.930 . S
H995 C990 0.931 . S
Co996 N993 2.135 . S
Co996 N999 2.121 . S
Co996 O1004 2.055 . S
Co996 O1007 2.039 . S
Co996 N1010 2.140 . S
C997 O998 1.227 . S
C997 O1007 1.265 . S
O998 C997 1.227 . S
N999 Co996 2.121 . S
N999 C1001 1.375 . S
N999 C1002 1.313 . S
C1000 C1001 1.338 . S
C1000 N1003 1.377 . S
C1000 H1020 0.930 . S
C1001 N999 1.375 . S
C1001 C1000 1.338 . S
C1001 H1005 0.931 . S
C1002 N999 1.313 . S
C1002 N1003 1.344 . S
C1002 H1006 0.930 . S
N1003 C1000 1.377 . S
N1003 C1002 1.344 . S
O1004 Co996 2.055 . S
O1004 C1008 1.253 . S
H1005 C1001 0.931 . S
H1006 C1002 0.930 . S
O1007 Co996 2.039 . S
O1007 C997 1.265 . S
C1008 O1004 1.253 . S
C1008 O1009 1.227 . S
O1009 C1008 1.227 . S
N1010 Co996 2.140 . S
N1010 C1013 1.346 . S
N1010 C1014 1.345 . S
C1011 C1012 1.387 . S
C1011 C1015 1.391 . S
C1012 C1011 1.387 . S
C1012 C1013 1.369 . S
C1012 H1021 0.929 . S
C1013 N1010 1.346 . S
C1013 C1012 1.369 . S
C1013 H1016 0.928 . S
C1014 N1010 1.345 . S
C1014 C1015 1.371 . S
C1014 H1017 0.931 . S
C1015 C1011 1.391 . S
C1015 C1014 1.371 . S
C1015 H1022 0.930 . S
H1016 C1013 0.928 . S
H1017 C1014 0.931 . S
H1018 C994 0.930 . S
H1019 C991 0.930 . S
H1020 C1000 0.930 . S
H1021 C1012 0.929 . S
H1022 C1015 0.930 . S
C1023 C1024 1.351 . S
C1023 N1026 1.368 . S
C1023 H1028 0.931 . S
C1024 C1023 1.351 . S
C1024 N1025 1.373 . S
C1024 H1052 0.930 . S
N1025 C1024 1.373 . S
N1025 C1027 1.340 . S
N1026 C1023 1.368 . S
N1026 C1027 1.321 . S
N1026 Co1029 2.135 . S
C1027 N1025 1.340 . S
C1027 N1026 1.321 . S
C1027 H1051 0.930 . S
H1028 C1023 0.931 . S
Co1029 N1026 2.135 . S
Co1029 N1032 2.121 . S
Co1029 O1037 2.055 . S
Co1029 O1040 2.039 . S
Co1029 N1043 2.140 . S
C1030 O1031 1.227 . S
C1030 O1040 1.265 . S
O1031 C1030 1.227 . S
N1032 Co1029 2.121 . S
N1032 C1034 1.375 . S
N1032 C1035 1.313 . S
C1033 C1034 1.338 . S
C1033 N1036 1.377 . S
C1033 H1053 0.930 . S
C1034 N1032 1.375 . S
C1034 C1033 1.338 . S
C1034 H1038 0.931 . S
C1035 N1032 1.313 . S
C1035 N1036 1.344 . S
C1035 H1039 0.930 . S
N1036 C1033 1.377 . S
N1036 C1035 1.344 . S
O1037 Co1029 2.055 . S
O1037 C1041 1.253 . S
H1038 C1034 0.931 . S
H1039 C1035 0.930 . S
O1040 Co1029 2.039 . S
O1040 C1030 1.265 . S
C1041 O1037 1.253 . S
C1041 O1042 1.227 . S
O1042 C1041 1.227 . S
N1043 Co1029 2.140 . S
N1043 C1046 1.346 . S
N1043 C1047 1.345 . S
C1044 C1045 1.387 . S
C1044 C1048 1.391 . S
C1045 C1044 1.387 . S
C1045 C1046 1.369 . S
C1045 H1054 0.929 . S
C1046 N1043 1.346 . S
C1046 C1045 1.369 . S
C1046 H1049 0.928 . S
C1047 N1043 1.345 . S
C1047 C1048 1.371 . S
C1047 H1050 0.931 . S
C1048 C1044 1.391 . S
C1048 C1047 1.371 . S
C1048 H1055 0.930 . S
H1049 C1046 0.928 . S
H1050 C1047 0.931 . S
H1051 C1027 0.930 . S
H1052 C1024 0.930 . S
H1053 C1033 0.930 . S
H1054 C1045 0.929 . S
H1055 C1048 0.930 . S
C1056 C1057 1.369 . S
C1056 C1058 1.419 . S
C1056 H1060 0.930 . S
C1057 C1056 1.369 . S
C1057 C1066 1.429 . S
C1058 C1056 1.419 . S
C1058 C1059 1.363 . S
C1058 H1061 0.929 . S
C1059 C1058 1.363 . S
C1059 C1065 1.428 . S
H1060 C1056 0.930 . S
H1061 C1058 0.929 . S
S1062 N1063 1.613 . S
S1062 N1064 1.610 . S
N1063 S1062 1.613 . S
N1063 C1066 1.350 . S
N1064 S1062 1.610 . S
N1064 C1065 1.351 . S
C1065 C1059 1.428 . S
C1065 N1064 1.351 . S
C1065 C1066 1.434 . S
C1066 C1057 1.429 . S
C1066 N1063 1.350 . S
C1066 C1065 1.434 . S
C1067 C1068 1.369 . S
C1067 C1069 1.419 . S
C1067 H1071 0.930 1_655 S
C1068 C1067 1.369 . S
C1068 C1077 1.429 . S
C1069 C1067 1.419 . S
C1069 C1070 1.363 . S
C1069 H1072 0.929 . S
C1070 C1069 1.363 . S
C1070 C1076 1.428 . S
H1071 C1067 0.930 1_455 S
H1072 C1069 0.929 . S
S1073 N1074 1.613 . S
S1073 N1075 1.610 . S
N1074 S1073 1.613 . S
N1074 C1077 1.350 . S
N1075 S1073 1.610 . S
N1075 C1076 1.351 . S
C1076 C1070 1.428 . S
C1076 N1075 1.351 . S
C1076 C1077 1.434 . S
C1077 C1068 1.429 . S
C1077 N1074 1.350 . S
C1077 C1076 1.434 . S
C1078 C1079 1.369 . S
C1078 C1080 1.419 . S
C1078 H1082 0.930 . S
C1079 C1078 1.369 . S
C1079 C1088 1.429 . S
C1080 C1078 1.419 . S
C1080 C1081 1.363 . S
C1080 H1083 0.929 . S
C1081 C1080 1.363 . S
C1081 C1087 1.428 . S
H1082 C1078 0.930 . S
H1083 C1080 0.929 . S
S1084 N1085 1.613 . S
S1084 N1086 1.610 . S
N1085 S1084 1.613 . S
N1085 C1088 1.350 . S
N1086 S1084 1.610 . S
N1086 C1087 1.351 . S
C1087 C1081 1.428 . S
C1087 N1086 1.351 . S
C1087 C1088 1.434 . S
C1088 C1079 1.429 . S
C1088 N1085 1.350 . S
C1088 C1087 1.434 . S
C1089 C1090 1.369 . S
C1089 C1091 1.419 . S
C1089 H1093 0.930 . S
C1090 C1089 1.369 . S
C1090 C1099 1.429 . S
C1091 C1089 1.419 . S
C1091 C1092 1.363 . S
C1091 H1094 0.929 . S
C1092 C1091 1.363 . S
C1092 C1098 1.428 . S
H1093 C1089 0.930 . S
H1094 C1091 0.929 . S
S1095 N1096 1.613 . S
S1095 N1097 1.610 . S
N1096 S1095 1.613 . S
N1096 C1099 1.350 . S
N1097 S1095 1.610 . S
N1097 C1098 1.351 . S
C1098 C1092 1.428 . S
C1098 N1097 1.351 . S
C1098 C1099 1.434 . S
C1099 C1090 1.429 . S
C1099 N1096 1.350 . S
C1099 C1098 1.434 . S
C1100 C1101 1.369 . S
C1100 C1102 1.419 . S
C1100 H1104 0.930 . S
C1101 C1100 1.369 . S
C1101 C1110 1.429 . S
C1102 C1100 1.419 . S
C1102 C1103 1.363 . S
C1102 H1105 0.929 . S
C1103 C1102 1.363 . S
C1103 C1109 1.428 . S
H1104 C1100 0.930 . S
H1105 C1102 0.929 . S
S1106 N1107 1.613 . S
S1106 N1108 1.610 . S
N1107 S1106 1.613 . S
N1107 C1110 1.350 . S
N1108 S1106 1.610 . S
N1108 C1109 1.351 . S
C1109 C1103 1.428 . S
C1109 N1108 1.351 . S
C1109 C1110 1.434 . S
C1110 C1101 1.429 . S
C1110 N1107 1.350 . S
C1110 C1109 1.434 . S
C1111 C1112 1.369 . S
C1111 C1113 1.419 . S
C1111 H1115 0.930 . S
C1112 C1111 1.369 . S
C1112 C1121 1.429 . S
C1113 C1111 1.419 . S
C1113 C1114 1.363 . S
C1113 H1116 0.929 . S
C1114 C1113 1.363 . S
C1114 C1120 1.428 . S
H1115 C1111 0.930 . S
H1116 C1113 0.929 . S
S1117 N1118 1.613 . S
S1117 N1119 1.610 . S
N1118 S1117 1.613 . S
N1118 C1121 1.350 . S
N1119 S1117 1.610 . S
N1119 C1120 1.351 . S
C1120 C1114 1.428 . S
C1120 N1119 1.351 . S
C1120 C1121 1.434 . S
C1121 C1112 1.429 . S
C1121 N1118 1.350 . S
C1121 C1120 1.434 . S
C1122 C1123 1.369 . S
C1122 C1124 1.419 . S
C1122 H1126 0.930 . S
C1123 C1122 1.369 . S
C1123 C1132 1.429 . S
C1124 C1122 1.419 . S
C1124 C1125 1.363 . S
C1124 H1127 0.929 . S
C1125 C1124 1.363 . S
C1125 C1131 1.428 . S
H1126 C1122 0.930 . S
H1127 C1124 0.929 . S
S1128 N1129 1.613 . S
S1128 N1130 1.610 . S
N1129 S1128 1.613 . S
N1129 C1132 1.350 . S
N1130 S1128 1.610 . S
N1130 C1131 1.351 . S
C1131 C1125 1.428 . S
C1131 N1130 1.351 . S
C1131 C1132 1.434 . S
C1132 C1123 1.429 . S
C1132 N1129 1.350 . S
C1132 C1131 1.434 . S
C1133 C1134 1.369 . S
C1133 C1135 1.419 . S
C1133 H1137 0.930 . S
C1134 C1133 1.369 . S
C1134 C1143 1.429 . S
C1135 C1133 1.419 . S
C1135 C1136 1.363 . S
C1135 H1138 0.929 . S
C1136 C1135 1.363 . S
C1136 C1142 1.428 . S
H1137 C1133 0.930 . S
H1138 C1135 0.929 . S
S1139 N1140 1.613 1_455 S
S1139 N1141 1.610 . S
N1140 S1139 1.613 1_655 S
N1140 C1143 1.350 . S
N1141 S1139 1.610 . S
N1141 C1142 1.351 1_455 S
C1142 C1136 1.428 . S
C1142 N1141 1.351 1_655 S
C1142 C1143 1.434 . S
C1143 C1134 1.429 . S
C1143 N1140 1.350 . S
C1143 C1142 1.434 . S
C1144 C1145 1.369 . S
C1144 C1146 1.419 . S
C1144 H1148 0.930 . S
C1145 C1144 1.369 . S
C1145 C1154 1.429 . S
C1146 C1144 1.419 . S
C1146 C1147 1.363 . S
C1146 H1149 0.929 . S
C1147 C1146 1.363 . S
C1147 C1153 1.428 . S
H1148 C1144 0.930 . S
H1149 C1146 0.929 . S
S1150 N1151 1.613 . S
S1150 N1152 1.610 . S
N1151 S1150 1.613 . S
N1151 C1154 1.350 . S
N1152 S1150 1.610 . S
N1152 C1153 1.351 . S
C1153 C1147 1.428 . S
C1153 N1152 1.351 . S
C1153 C1154 1.434 . S
C1154 C1145 1.429 . S
C1154 N1151 1.350 . S
C1154 C1153 1.434 . S
C1155 C1156 1.369 . S
C1155 C1157 1.419 . S
C1155 H1159 0.930 . S
C1156 C1155 1.369 . S
C1156 C1165 1.429 . S
C1157 C1155 1.419 . S
C1157 C1158 1.363 . S
C1157 H1160 0.929 . S
C1158 C1157 1.363 . S
C1158 C1164 1.428 . S
H1159 C1155 0.930 . S
H1160 C1157 0.929 . S
S1161 N1162 1.613 . S
S1161 N1163 1.610 1_655 S
N1162 S1161 1.613 . S
N1162 C1165 1.350 1_655 S
N1163 S1161 1.610 1_455 S
N1163 C1164 1.351 . S
C1164 C1158 1.428 . S
C1164 N1163 1.351 . S
C1164 C1165 1.434 . S
C1165 C1156 1.429 . S
C1165 N1162 1.350 1_455 S
C1165 C1164 1.434 . S
C1166 C1167 1.369 . S
C1166 C1168 1.419 . S
C1166 H1170 0.930 . S
C1167 C1166 1.369 . S
C1167 C1176 1.429 . S
C1168 C1166 1.419 . S
C1168 C1169 1.363 . S
C1168 H1171 0.929 . S
C1169 C1168 1.363 . S
C1169 C1175 1.428 . S
H1170 C1166 0.930 . S
H1171 C1168 0.929 . S
S1172 N1173 1.613 . S
S1172 N1174 1.610 . S
N1173 S1172 1.613 . S
N1173 C1176 1.350 . S
N1174 S1172 1.610 . S
N1174 C1175 1.351 . S
C1175 C1169 1.428 . S
C1175 N1174 1.351 . S
C1175 C1176 1.434 . S
C1176 C1167 1.429 . S
C1176 N1173 1.350 . S
C1176 C1175 1.434 . S
C1177 C1178 1.369 . S
C1177 C1179 1.419 . S
C1177 H1181 0.930 . S
C1178 C1177 1.369 . S
C1178 C1187 1.429 . S
C1179 C1177 1.419 . S
C1179 C1180 1.363 . S
C1179 H1182 0.929 . S
C1180 C1179 1.363 . S
C1180 C1186 1.428 . S
H1181 C1177 0.930 . S
H1182 C1179 0.929 . S
S1183 N1184 1.613 . S
S1183 N1185 1.610 . S
N1184 S1183 1.613 . S
N1184 C1187 1.350 . S
N1185 S1183 1.610 . S
N1185 C1186 1.351 . S
C1186 C1180 1.428 . S
C1186 N1185 1.351 . S
C1186 C1187 1.434 . S
C1187 C1178 1.429 . S
C1187 N1184 1.350 . S
C1187 C1186 1.434 . S
C1188 C1189 1.369 . S
C1188 C1190 1.419 . S
C1188 H1192 0.930 . S
C1189 C1188 1.369 . S
C1189 C1198 1.429 . S
C1190 C1188 1.419 . S
C1190 C1191 1.363 . S
C1190 H1193 0.929 . S
C1191 C1190 1.363 . S
C1191 C1197 1.428 . S
H1192 C1188 0.930 . S
H1193 C1190 0.929 . S
S1194 N1195 1.613 . S
S1194 N1196 1.610 . S
N1195 S1194 1.613 . S
N1195 C1198 1.350 . S
N1196 S1194 1.610 . S
N1196 C1197 1.351 . S
C1197 C1191 1.428 . S
C1197 N1196 1.351 . S
C1197 C1198 1.434 . S
C1198 C1189 1.429 . S
C1198 N1195 1.350 . S
C1198 C1197 1.434 . S
C1199 C1200 1.369 . S
C1199 C1201 1.419 . S
C1199 H1203 0.930 . S
C1200 C1199 1.369 . S
C1200 C1209 1.429 . S
C1201 C1199 1.419 . S
C1201 C1202 1.363 . S
C1201 H1204 0.929 . S
C1202 C1201 1.363 . S
C1202 C1208 1.428 . S
H1203 C1199 0.930 . S
H1204 C1201 0.929 . S
S1205 N1206 1.613 . S
S1205 N1207 1.610 . S
N1206 S1205 1.613 . S
N1206 C1209 1.350 . S
N1207 S1205 1.610 . S
N1207 C1208 1.351 . S
C1208 C1202 1.428 . S
C1208 N1207 1.351 . S
C1208 C1209 1.434 . S
C1209 C1200 1.429 . S
C1209 N1206 1.350 . S
C1209 C1208 1.434 . S
C1210 C1211 1.369 . S
C1210 C1212 1.419 . S
C1210 H1214 0.930 . S
C1211 C1210 1.369 . S
C1211 C1220 1.429 . S
C1212 C1210 1.419 . S
C1212 C1213 1.363 . S
C1212 H1215 0.929 . S
C1213 C1212 1.363 . S
C1213 C1219 1.428 . S
H1214 C1210 0.930 . S
H1215 C1212 0.929 . S
S1216 N1217 1.613 . S
S1216 N1218 1.610 . S
N1217 S1216 1.613 . S
N1217 C1220 1.350 . S
N1218 S1216 1.610 . S
N1218 C1219 1.351 . S
C1219 C1213 1.428 . S
C1219 N1218 1.351 . S
C1219 C1220 1.434 . S
C1220 C1211 1.429 . S
C1220 N1217 1.350 . S
C1220 C1219 1.434 . S
C1221 C1222 1.369 . S
C1221 C1223 1.419 . S
C1221 H1225 0.930 1_455 S
C1222 C1221 1.369 . S
C1222 C1231 1.429 . S
C1223 C1221 1.419 . S
C1223 C1224 1.363 . S
C1223 H1226 0.929 . S
C1224 C1223 1.363 . S
C1224 C1230 1.428 . S
H1225 C1221 0.930 1_655 S
H1226 C1223 0.929 . S
S1227 N1228 1.613 . S
S1227 N1229 1.610 . S
N1228 S1227 1.613 . S
N1228 C1231 1.350 . S
N1229 S1227 1.610 . S
N1229 C1230 1.351 . S
C1230 C1224 1.428 . S
C1230 N1229 1.351 . S
C1230 C1231 1.434 . S
C1231 C1222 1.429 . S
C1231 N1228 1.350 . S
C1231 C1230 1.434 . S
C1232 C1233 1.369 . S
C1232 C1234 1.419 . S
C1232 H1236 0.930 . S
C1233 C1232 1.369 . S
C1233 C1242 1.429 . S
C1234 C1232 1.419 . S
C1234 C1235 1.363 . S
C1234 H1237 0.929 . S
C1235 C1234 1.363 . S
C1235 C1241 1.428 . S
H1236 C1232 0.930 . S
H1237 C1234 0.929 . S
S1238 N1239 1.613 . S
S1238 N1240 1.610 . S
N1239 S1238 1.613 . S
N1239 C1242 1.350 . S
N1240 S1238 1.610 . S
N1240 C1241 1.351 . S
C1241 C1235 1.428 . S
C1241 N1240 1.351 . S
C1241 C1242 1.434 . S
C1242 C1233 1.429 . S
C1242 N1239 1.350 . S
C1242 C1241 1.434 . S
C1243 C1244 1.369 . S
C1243 C1245 1.419 . S
C1243 H1247 0.930 . S
C1244 C1243 1.369 . S
C1244 C1253 1.429 . S
C1245 C1243 1.419 . S
C1245 C1246 1.363 . S
C1245 H1248 0.929 . S
C1246 C1245 1.363 . S
C1246 C1252 1.428 . S
H1247 C1243 0.930 . S
H1248 C1245 0.929 . S
S1249 N1250 1.613 . S
S1249 N1251 1.610 . S
N1250 S1249 1.613 . S
N1250 C1253 1.350 . S
N1251 S1249 1.610 . S
N1251 C1252 1.351 . S
C1252 C1246 1.428 . S
C1252 N1251 1.351 . S
C1252 C1253 1.434 . S
C1253 C1244 1.429 . S
C1253 N1250 1.350 . S
C1253 C1252 1.434 . S
C1254 C1255 1.369 . S
C1254 C1256 1.419 . S
C1254 H1258 0.930 . S
C1255 C1254 1.369 . S
C1255 C1264 1.429 . S
C1256 C1254 1.419 . S
C1256 C1257 1.363 . S
C1256 H1259 0.929 . S
C1257 C1256 1.363 . S
C1257 C1263 1.428 . S
H1258 C1254 0.930 . S
H1259 C1256 0.929 . S
S1260 N1261 1.613 . S
S1260 N1262 1.610 . S
N1261 S1260 1.613 . S
N1261 C1264 1.350 . S
N1262 S1260 1.610 . S
N1262 C1263 1.351 . S
C1263 C1257 1.428 . S
C1263 N1262 1.351 . S
C1263 C1264 1.434 . S
C1264 C1255 1.429 . S
C1264 N1261 1.350 . S
C1264 C1263 1.434 . S
C1265 C1266 1.369 . S
C1265 C1267 1.419 . S
C1265 H1269 0.930 1_455 S
C1266 C1265 1.369 . S
C1266 C1275 1.429 . S
C1267 C1265 1.419 . S
C1267 C1268 1.363 . S
C1267 H1270 0.929 . S
C1268 C1267 1.363 . S
C1268 C1274 1.428 . S
H1269 C1265 0.930 1_655 S
H1270 C1267 0.929 . S
S1271 N1272 1.613 . S
S1271 N1273 1.610 . S
N1272 S1271 1.613 . S
N1272 C1275 1.350 . S
N1273 S1271 1.610 . S
N1273 C1274 1.351 . S
C1274 C1268 1.428 . S
C1274 N1273 1.351 . S
C1274 C1275 1.434 . S
C1275 C1266 1.429 . S
C1275 N1272 1.350 . S
C1275 C1274 1.434 . S
C1276 C1277 1.369 . S
C1276 C1278 1.419 . S
C1276 H1280 0.930 . S
C1277 C1276 1.369 . S
C1277 C1286 1.429 . S
C1278 C1276 1.419 . S
C1278 C1279 1.363 . S
C1278 H1281 0.929 . S
C1279 C1278 1.363 . S
C1279 C1285 1.428 . S
H1280 C1276 0.930 . S
H1281 C1278 0.929 . S
S1282 N1283 1.613 . S
S1282 N1284 1.610 . S
N1283 S1282 1.613 . S
N1283 C1286 1.350 . S
N1284 S1282 1.610 . S
N1284 C1285 1.351 . S
C1285 C1279 1.428 . S
C1285 N1284 1.351 . S
C1285 C1286 1.434 . S
C1286 C1277 1.429 . S
C1286 N1283 1.350 . S
C1286 C1285 1.434 . S
C1287 C1288 1.369 . S
C1287 C1289 1.419 . S
C1287 H1291 0.930 . S
C1288 C1287 1.369 . S
C1288 C1297 1.429 . S
C1289 C1287 1.419 . S
C1289 C1290 1.363 . S
C1289 H1292 0.929 1_455 S
C1290 C1289 1.363 . S
C1290 C1296 1.428 . S
H1291 C1287 0.930 . S
H1292 C1289 0.929 1_655 S
S1293 N1294 1.613 . S
S1293 N1295 1.610 . S
N1294 S1293 1.613 . S
N1294 C1297 1.350 . S
N1295 S1293 1.610 . S
N1295 C1296 1.351 . S
C1296 C1290 1.428 . S
C1296 N1295 1.351 . S
C1296 C1297 1.434 . S
C1297 C1288 1.429 . S
C1297 N1294 1.350 . S
C1297 C1296 1.434 . S
C1298 C1299 1.369 . S
C1298 C1300 1.419 . S
C1298 H1302 0.930 . S
C1299 C1298 1.369 . S
C1299 C1308 1.429 . S
C1300 C1298 1.419 . S
C1300 C1301 1.363 . S
C1300 H1303 0.929 . S
C1301 C1300 1.363 . S
C1301 C1307 1.428 . S
H1302 C1298 0.930 . S
H1303 C1300 0.929 . S
S1304 N1305 1.613 . S
S1304 N1306 1.610 . S
N1305 S1304 1.613 . S
N1305 C1308 1.350 . S
N1306 S1304 1.610 . S
N1306 C1307 1.351 . S
C1307 C1301 1.428 . S
C1307 N1306 1.351 . S
C1307 C1308 1.434 . S
C1308 C1299 1.429 . S
C1308 N1305 1.350 . S
C1308 C1307 1.434 . S
C1309 C1310 1.369 . S
C1309 C1311 1.419 . S
C1309 H1313 0.930 . S
C1310 C1309 1.369 . S
C1310 C1319 1.429 . S
C1311 C1309 1.419 . S
C1311 C1312 1.363 . S
C1311 H1314 0.929 . S
C1312 C1311 1.363 . S
C1312 C1318 1.428 . S
H1313 C1309 0.930 . S
H1314 C1311 0.929 . S
S1315 N1316 1.613 . S
S1315 N1317 1.610 . S
N1316 S1315 1.613 . S
N1316 C1319 1.350 . S
N1317 S1315 1.610 . S
N1317 C1318 1.351 . S
C1318 C1312 1.428 . S
C1318 N1317 1.351 . S
C1318 C1319 1.434 . S
C1319 C1310 1.429 . S
C1319 N1316 1.350 . S
C1319 C1318 1.434 . S
C1320 C1321 1.369 . S
C1320 C1322 1.419 . S
C1320 H1324 0.930 . S
C1321 C1320 1.369 . S
C1321 C1330 1.429 . S
C1322 C1320 1.419 . S
C1322 C1323 1.363 . S
C1322 H1325 0.929 . S
C1323 C1322 1.363 . S
C1323 C1329 1.428 . S
H1324 C1320 0.930 . S
H1325 C1322 0.929 . S
S1326 N1327 1.613 . S
S1326 N1328 1.610 . S
N1327 S1326 1.613 . S
N1327 C1330 1.350 . S
N1328 S1326 1.610 . S
N1328 C1329 1.351 . S
C1329 C1323 1.428 . S
C1329 N1328 1.351 . S
C1329 C1330 1.434 . S
C1330 C1321 1.429 . S
C1330 N1327 1.350 . S
C1330 C1329 1.434 . S
C1331 C1332 1.369 . S
C1331 C1333 1.419 . S
C1331 H1335 0.930 . S
C1332 C1331 1.369 . S
C1332 C1341 1.429 . S
C1333 C1331 1.419 . S
C1333 C1334 1.363 . S
C1333 H1336 0.929 . S
C1334 C1333 1.363 . S
C1334 C1340 1.428 . S
H1335 C1331 0.930 . S
H1336 C1333 0.929 . S
S1337 N1338 1.613 . S
S1337 N1339 1.610 . S
N1338 S1337 1.613 . S
N1338 C1341 1.350 . S
N1339 S1337 1.610 . S
N1339 C1340 1.351 . S
C1340 C1334 1.428 . S
C1340 N1339 1.351 . S
C1340 C1341 1.434 . S
C1341 C1332 1.429 . S
C1341 N1338 1.350 . S
C1341 C1340 1.434 . S
C1342 C1343 1.369 . S
C1342 C1344 1.419 . S
C1342 H1346 0.930 . S
C1343 C1342 1.369 . S
C1343 C1352 1.429 . S
C1344 C1342 1.419 . S
C1344 C1345 1.363 . S
C1344 H1347 0.929 . S
C1345 C1344 1.363 . S
C1345 C1351 1.428 . S
H1346 C1342 0.930 . S
H1347 C1344 0.929 . S
S1348 N1349 1.613 . S
S1348 N1350 1.610 . S
N1349 S1348 1.613 . S
N1349 C1352 1.350 . S
N1350 S1348 1.610 . S
N1350 C1351 1.351 . S
C1351 C1345 1.428 . S
C1351 N1350 1.351 . S
C1351 C1352 1.434 . S
C1352 C1343 1.429 . S
C1352 N1349 1.350 . S
C1352 C1351 1.434 . S
C1353 C1354 1.369 . S
C1353 C1355 1.419 . S
C1353 H1357 0.930 . S
C1354 C1353 1.369 . S
C1354 C1363 1.429 . S
C1355 C1353 1.419 . S
C1355 C1356 1.363 . S
C1355 H1358 0.929 . S
C1356 C1355 1.363 . S
C1356 C1362 1.428 . S
H1357 C1353 0.930 . S
H1358 C1355 0.929 . S
S1359 N1360 1.613 1_455 S
S1359 N1361 1.610 . S
N1360 S1359 1.613 1_655 S
N1360 C1363 1.350 . S
N1361 S1359 1.610 . S
N1361 C1362 1.351 1_455 S
C1362 C1356 1.428 . S
C1362 N1361 1.351 1_655 S
C1362 C1363 1.434 . S
C1363 C1354 1.429 . S
C1363 N1360 1.350 . S
C1363 C1362 1.434 . S
C1364 C1365 1.369 . S
C1364 C1366 1.419 . S
C1364 H1368 0.930 . S
C1365 C1364 1.369 . S
C1365 C1374 1.429 . S
C1366 C1364 1.419 . S
C1366 C1367 1.363 . S
C1366 H1369 0.929 . S
C1367 C1366 1.363 . S
C1367 C1373 1.428 . S
H1368 C1364 0.930 . S
H1369 C1366 0.929 . S
S1370 N1371 1.613 . S
S1370 N1372 1.610 . S
N1371 S1370 1.613 . S
N1371 C1374 1.350 . S
N1372 S1370 1.610 . S
N1372 C1373 1.351 . S
C1373 C1367 1.428 . S
C1373 N1372 1.351 . S
C1373 C1374 1.434 . S
C1374 C1365 1.429 . S
C1374 N1371 1.350 . S
C1374 C1373 1.434 . S
C1375 C1376 1.369 . S
C1375 C1377 1.419 . S
C1375 H1379 0.930 . S
C1376 C1375 1.369 . S
C1376 C1385 1.429 . S
C1377 C1375 1.419 . S
C1377 C1378 1.363 . S
C1377 H1380 0.929 . S
C1378 C1377 1.363 . S
C1378 C1384 1.428 . S
H1379 C1375 0.930 . S
H1380 C1377 0.929 . S
S1381 N1382 1.613 1_455 S
S1381 N1383 1.610 . S
N1382 S1381 1.613 1_655 S
N1382 C1385 1.350 . S
N1383 S1381 1.610 . S
N1383 C1384 1.351 1_455 S
C1384 C1378 1.428 . S
C1384 N1383 1.351 1_655 S
C1384 C1385 1.434 . S
C1385 C1376 1.429 . S
C1385 N1382 1.350 . S
C1385 C1384 1.434 . S
C1386 C1387 1.369 . S
C1386 C1388 1.419 . S
C1386 H1390 0.930 . S
C1387 C1386 1.369 . S
C1387 C1396 1.429 . S
C1388 C1386 1.419 . S
C1388 C1389 1.363 . S
C1388 H1391 0.929 . S
C1389 C1388 1.363 . S
C1389 C1395 1.428 . S
H1390 C1386 0.930 . S
H1391 C1388 0.929 . S
S1392 N1393 1.613 . S
S1392 N1394 1.610 . S
N1393 S1392 1.613 . S
N1393 C1396 1.350 . S
N1394 S1392 1.610 . S
N1394 C1395 1.351 . S
C1395 C1389 1.428 . S
C1395 N1394 1.351 . S
C1395 C1396 1.434 . S
C1396 C1387 1.429 . S
C1396 N1393 1.350 . S
C1396 C1395 1.434 . S
C1397 C1398 1.369 . S
C1397 C1399 1.419 . S
C1397 H1401 0.930 . S
C1398 C1397 1.369 . S
C1398 C1407 1.429 . S
C1399 C1397 1.419 . S
C1399 C1400 1.363 . S
C1399 H1402 0.929 . S
C1400 C1399 1.363 . S
C1400 C1406 1.428 . S
H1401 C1397 0.930 . S
H1402 C1399 0.929 . S
S1403 N1404 1.613 . S
S1403 N1405 1.610 . S
N1404 S1403 1.613 . S
N1404 C1407 1.350 . S
N1405 S1403 1.610 . S
N1405 C1406 1.351 . S
C1406 C1400 1.428 . S
C1406 N1405 1.351 . S
C1406 C1407 1.434 . S
C1407 C1398 1.429 . S
C1407 N1404 1.350 . S
C1407 C1406 1.434 . S
C1408 C1409 1.369 . S
C1408 C1410 1.419 1_545 S
C1408 H1412 0.930 . S
C1409 C1408 1.369 . S
C1409 C1418 1.429 . S
C1410 C1408 1.419 1_565 S
C1410 C1411 1.363 . S
C1410 H1413 0.929 . S
C1411 C1410 1.363 . S
C1411 C1417 1.428 . S
H1412 C1408 0.930 . S
H1413 C1410 0.929 . S
S1414 N1415 1.613 . S
S1414 N1416 1.610 1_545 S
N1415 S1414 1.613 . S
N1415 C1418 1.350 . S
N1416 S1414 1.610 1_565 S
N1416 C1417 1.351 . S
C1417 C1411 1.428 . S
C1417 N1416 1.351 . S
C1417 C1418 1.434 1_565 S
C1418 C1409 1.429 . S
C1418 N1415 1.350 . S
C1418 C1417 1.434 1_545 S
C1419 C1420 1.369 . S
C1419 C1421 1.419 . S
C1419 H1423 0.930 . S
C1420 C1419 1.369 . S
C1420 C1429 1.429 . S
C1421 C1419 1.419 . S
C1421 C1422 1.363 . S
C1421 H1424 0.929 . S
C1422 C1421 1.363 . S
C1422 C1428 1.428 . S
H1423 C1419 0.930 . S
H1424 C1421 0.929 . S
S1425 N1426 1.613 1_545 S
S1425 N1427 1.610 1_545 S
N1426 S1425 1.613 1_565 S
N1426 C1429 1.350 . S
N1427 S1425 1.610 1_565 S
N1427 C1428 1.351 . S
C1428 C1422 1.428 . S
C1428 N1427 1.351 . S
C1428 C1429 1.434 . S
C1429 C1420 1.429 . S
C1429 N1426 1.350 . S
C1429 C1428 1.434 . S
C1430 C1431 1.369 . S
C1430 C1432 1.419 1_545 S
C1430 H1434 0.930 . S
C1431 C1430 1.369 . S
C1431 C1440 1.429 . S
C1432 C1430 1.419 1_565 S
C1432 C1433 1.363 . S
C1432 H1435 0.929 . S
C1433 C1432 1.363 . S
C1433 C1439 1.428 . S
H1434 C1430 0.930 . S
H1435 C1432 0.929 . S
S1436 N1437 1.613 . S
S1436 N1438 1.610 1_545 S
N1437 S1436 1.613 . S
N1437 C1440 1.350 . S
N1438 S1436 1.610 1_565 S
N1438 C1439 1.351 . S
C1439 C1433 1.428 . S
C1439 N1438 1.351 . S
C1439 C1440 1.434 1_565 S
C1440 C1431 1.429 . S
C1440 N1437 1.350 . S
C1440 C1439 1.434 1_545 S
C1441 C1442 1.369 . S
C1441 C1443 1.419 1_554 S
C1441 H1445 0.930 . S
C1442 C1441 1.369 . S
C1442 C1451 1.429 . S
C1443 C1441 1.419 1_556 S
C1443 C1444 1.363 . S
C1443 H1446 0.929 . S
C1444 C1443 1.363 . S
C1444 C1450 1.428 . S
H1445 C1441 0.930 . S
H1446 C1443 0.929 . S
S1447 N1448 1.602 1_556 S
S1447 N1449 1.625 . S
N1448 S1447 1.602 1_554 S
N1448 C1451 1.347 1_565 S
N1449 S1447 1.625 . S
N1449 C1450 1.348 1_565 S
C1450 C1444 1.428 . S
C1450 N1449 1.348 1_545 S
C1450 C1451 1.434 1_556 S
C1451 C1442 1.429 . S
C1451 N1448 1.347 1_545 S
C1451 C1450 1.434 1_554 S
C1452 C1453 1.369 . S
C1452 C1454 1.419 1_565 S
C1452 H1456 0.930 . S
C1453 C1452 1.369 . S
C1453 C1462 1.429 . S
C1454 C1452 1.419 1_545 S
C1454 C1455 1.363 . S
C1454 H1457 0.929 . S
C1455 C1454 1.363 . S
C1455 C1461 1.428 . S
H1456 C1452 0.930 . S
H1457 C1454 0.929 . S
S1458 N1459 1.613 . S
S1458 N1460 1.610 . S
N1459 S1458 1.613 . S
N1459 C1462 1.350 1_545 S
N1460 S1458 1.610 . S
N1460 C1461 1.351 . S
C1461 C1455 1.428 . S
C1461 N1460 1.351 . S
C1461 C1462 1.434 1_545 S
C1462 C1453 1.429 . S
C1462 N1459 1.350 1_565 S
C1462 C1461 1.434 1_565 S
C1463 C1464 1.369 . S
C1463 C1465 1.419 . S
C1463 H1467 0.930 . S
C1464 C1463 1.369 . S
C1464 C1473 1.429 . S
C1465 C1463 1.419 . S
C1465 C1466 1.363 . S
C1465 H1468 0.929 . S
C1466 C1465 1.363 . S
C1466 C1472 1.428 . S
H1467 C1463 0.930 . S
H1468 C1465 0.929 . S
S1469 N1470 1.613 . S
S1469 N1471 1.610 . S
N1470 S1469 1.613 . S
N1470 C1473 1.350 . S
N1471 S1469 1.610 . S
N1471 C1472 1.351 . S
C1472 C1466 1.428 . S
C1472 N1471 1.351 . S
C1472 C1473 1.434 . S
C1473 C1464 1.429 . S
C1473 N1470 1.350 . S
C1473 C1472 1.434 . S
C1474 C1475 1.369 . S
C1474 C1476 1.419 1_545 S
C1474 H1478 0.930 . S
C1475 C1474 1.369 . S
C1475 C1484 1.429 . S
C1476 C1474 1.419 1_565 S
C1476 C1477 1.363 . S
C1476 H1479 0.929 . S
C1477 C1476 1.363 . S
C1477 C1483 1.428 . S
H1478 C1474 0.930 . S
H1479 C1476 0.929 . S
S1480 N1481 1.613 . S
S1480 N1482 1.610 1_545 S
N1481 S1480 1.613 . S
N1481 C1484 1.350 . S
N1482 S1480 1.610 1_565 S
N1482 C1483 1.351 . S
C1483 C1477 1.428 . S
C1483 N1482 1.351 . S
C1483 C1484 1.434 1_565 S
C1484 C1475 1.429 . S
C1484 N1481 1.350 . S
C1484 C1483 1.434 1_545 S
C1485 C1486 1.369 . S
C1485 C1487 1.419 . S
C1485 H1489 0.930 . S
C1486 C1485 1.369 . S
C1486 C1495 1.429 1_556 S
C1487 C1485 1.419 . S
C1487 C1488 1.363 1_556 S
C1487 H1490 0.929 . S
C1488 C1487 1.363 1_554 S
C1488 C1494 1.428 . S
H1489 C1485 0.930 . S
H1490 C1487 0.929 . S
S1491 N1492 1.613 . S
S1491 N1493 1.610 . S
N1492 S1491 1.613 . S
N1492 C1495 1.350 . S
N1493 S1491 1.610 . S
N1493 C1494 1.351 . S
C1494 C1488 1.428 . S
C1494 N1493 1.351 . S
C1494 C1495 1.434 . S
C1495 C1486 1.429 1_554 S
C1495 N1492 1.350 . S
C1495 C1494 1.434 . S
C1496 C1497 1.369 . S
C1496 C1498 1.419 . S
C1496 H1500 0.930 . S
C1497 C1496 1.369 . S
C1497 C1506 1.429 . S
C1498 C1496 1.419 . S
C1498 C1499 1.363 . S
C1498 H1501 0.929 . S
C1499 C1498 1.363 . S
C1499 C1505 1.428 . S
H1500 C1496 0.930 . S
H1501 C1498 0.929 . S
S1502 N1503 1.613 . S
S1502 N1504 1.610 . S
N1503 S1502 1.613 . S
N1503 C1506 1.350 . S
N1504 S1502 1.610 . S
N1504 C1505 1.351 . S
C1505 C1499 1.428 . S
C1505 N1504 1.351 . S
C1505 C1506 1.434 . S
C1506 C1497 1.429 . S
C1506 N1503 1.350 . S
C1506 C1505 1.434 . S
C1507 C1508 1.369 1_554 S
C1507 C1509 1.419 . S
C1507 H1511 0.930 . S
C1508 C1507 1.369 1_556 S
C1508 C1517 1.429 . S
C1509 C1507 1.419 . S
C1509 C1510 1.363 . S
C1509 H1512 0.929 . S
C1510 C1509 1.363 . S
C1510 C1516 1.428 1_554 S
H1511 C1507 0.930 . S
H1512 C1509 0.929 . S
S1513 N1514 1.613 . S
S1513 N1515 1.610 . S
N1514 S1513 1.613 . S
N1514 C1517 1.350 . S
N1515 S1513 1.610 . S
N1515 C1516 1.351 . S
C1516 C1510 1.428 1_556 S
C1516 N1515 1.351 . S
C1516 C1517 1.434 . S
C1517 C1508 1.429 . S
C1517 N1514 1.350 . S
C1517 C1516 1.434 . S
C1518 C1519 1.369 . S
C1518 C1520 1.419 . S
C1518 H1522 0.930 . S
C1519 C1518 1.369 . S
C1519 C1528 1.429 . S
C1520 C1518 1.419 . S
C1520 C1521 1.363 . S
C1520 H1523 0.929 . S
C1521 C1520 1.363 . S
C1521 C1527 1.428 . S
H1522 C1518 0.930 . S
H1523 C1520 0.929 . S
S1524 N1525 1.613 . S
S1524 N1526 1.610 . S
N1525 S1524 1.613 . S
N1525 C1528 1.350 . S
N1526 S1524 1.610 . S
N1526 C1527 1.351 . S
C1527 C1521 1.428 . S
C1527 N1526 1.351 . S
C1527 C1528 1.434 . S
C1528 C1519 1.429 . S
C1528 N1525 1.350 . S
C1528 C1527 1.434 . S
C1529 C1530 1.369 . S
C1529 C1531 1.419 . S
C1529 H1533 0.930 . S
C1530 C1529 1.369 . S
C1530 C1539 1.429 . S
C1531 C1529 1.419 . S
C1531 C1532 1.363 . S
C1531 H1534 0.929 . S
C1532 C1531 1.363 . S
C1532 C1538 1.428 . S
H1533 C1529 0.930 . S
H1534 C1531 0.929 . S
S1535 N1536 1.613 . S
S1535 N1537 1.610 . S
N1536 S1535 1.613 . S
N1536 C1539 1.350 . S
N1537 S1535 1.610 . S
N1537 C1538 1.351 . S
C1538 C1532 1.428 . S
C1538 N1537 1.351 . S
C1538 C1539 1.434 . S
C1539 C1530 1.429 . S
C1539 N1536 1.350 . S
C1539 C1538 1.434 . S
C1540 C1541 1.369 . S
C1540 C1542 1.419 . S
C1540 H1544 0.930 . S
C1541 C1540 1.369 . S
C1541 C1550 1.429 . S
C1542 C1540 1.419 . S
C1542 C1543 1.363 . S
C1542 H1545 0.929 . S
C1543 C1542 1.363 . S
C1543 C1549 1.428 . S
H1544 C1540 0.930 . S
H1545 C1542 0.929 . S
S1546 N1547 1.613 . S
S1546 N1548 1.610 . S
N1547 S1546 1.613 . S
N1547 C1550 1.350 . S
N1548 S1546 1.610 . S
N1548 C1549 1.351 . S
C1549 C1543 1.428 . S
C1549 N1548 1.351 . S
C1549 C1550 1.434 . S
C1550 C1541 1.429 . S
C1550 N1547 1.350 . S
C1550 C1549 1.434 . S
C1551 C1552 1.369 1_554 S
C1551 C1553 1.419 . S
C1551 H1555 0.930 . S
C1552 C1551 1.369 1_556 S
C1552 C1561 1.429 . S
C1553 C1551 1.419 . S
C1553 C1554 1.363 . S
C1553 H1556 0.929 . S
C1554 C1553 1.363 . S
C1554 C1560 1.428 1_554 S
H1555 C1551 0.930 . S
H1556 C1553 0.929 . S
S1557 N1558 1.613 . S
S1557 N1559 1.610 . S
N1558 S1557 1.613 . S
N1558 C1561 1.350 . S
N1559 S1557 1.610 . S
N1559 C1560 1.351 . S
C1560 C1554 1.428 1_556 S
C1560 N1559 1.351 . S
C1560 C1561 1.434 . S
C1561 C1552 1.429 . S
C1561 N1558 1.350 . S
C1561 C1560 1.434 . S
C1562 C1563 1.369 . S
C1562 C1564 1.419 . S
C1562 H1566 0.930 . S
C1563 C1562 1.369 . S
C1563 C1572 1.429 . S
C1564 C1562 1.419 . S
C1564 C1565 1.363 . S
C1564 H1567 0.929 . S
C1565 C1564 1.363 . S
C1565 C1571 1.428 . S
H1566 C1562 0.930 . S
H1567 C1564 0.929 . S
S1568 N1569 1.613 . S
S1568 N1570 1.610 . S
N1569 S1568 1.613 . S
N1569 C1572 1.350 . S
N1570 S1568 1.610 . S
N1570 C1571 1.351 . S
C1571 C1565 1.428 . S
C1571 N1570 1.351 . S
C1571 C1572 1.434 . S
C1572 C1563 1.429 . S
C1572 N1569 1.350 . S
C1572 C1571 1.434 . S
C1573 C1574 1.369 . S
C1573 C1575 1.419 . S
C1573 H1577 0.930 . S
C1574 C1573 1.369 . S
C1574 C1583 1.429 . S
C1575 C1573 1.419 . S
C1575 C1576 1.363 . S
C1575 H1578 0.929 . S
C1576 C1575 1.363 . S
C1576 C1582 1.428 . S
H1577 C1573 0.930 . S
H1578 C1575 0.929 . S
S1579 N1580 1.613 . S
S1579 N1581 1.610 . S
N1580 S1579 1.613 . S
N1580 C1583 1.350 . S
N1581 S1579 1.610 . S
N1581 C1582 1.351 . S
C1582 C1576 1.428 . S
C1582 N1581 1.351 . S
C1582 C1583 1.434 . S
C1583 C1574 1.429 . S
C1583 N1580 1.350 . S
C1583 C1582 1.434 . S
C1584 C1585 1.369 . S
C1584 C1586 1.419 . S
C1584 H1588 0.930 . S
C1585 C1584 1.369 . S
C1585 C1594 1.429 . S
C1586 C1584 1.419 . S
C1586 C1587 1.363 . S
C1586 H1589 0.929 . S
C1587 C1586 1.363 . S
C1587 C1593 1.428 . S
H1588 C1584 0.930 . S
H1589 C1586 0.929 . S
S1590 N1591 1.613 . S
S1590 N1592 1.610 . S
N1591 S1590 1.613 . S
N1591 C1594 1.350 . S
N1592 S1590 1.610 . S
N1592 C1593 1.351 . S
C1593 C1587 1.428 . S
C1593 N1592 1.351 . S
C1593 C1594 1.434 . S
C1594 C1585 1.429 . S
C1594 N1591 1.350 . S
C1594 C1593 1.434 . S
C1595 C1596 1.369 . S
C1595 C1597 1.419 . S
C1595 H1599 0.930 . S
C1596 C1595 1.369 . S
C1596 C1605 1.429 . S
C1597 C1595 1.419 . S
C1597 C1598 1.363 . S
C1597 H1600 0.929 . S
C1598 C1597 1.363 . S
C1598 C1604 1.428 . S
H1599 C1595 0.930 . S
H1600 C1597 0.929 . S
S1601 N1602 1.613 1_565 S
S1601 N1603 1.610 . S
N1602 S1601 1.613 1_545 S
N1602 C1605 1.350 . S
N1603 S1601 1.610 . S
N1603 C1604 1.351 1_565 S
C1604 C1598 1.428 . S
C1604 N1603 1.351 1_545 S
C1604 C1605 1.434 . S
C1605 C1596 1.429 . S
C1605 N1602 1.350 . S
C1605 C1604 1.434 . S
C1606 C1607 1.369 . S
C1606 C1608 1.419 . S
C1606 H1610 0.930 . S
C1607 C1606 1.369 . S
C1607 C1616 1.429 . S
C1608 C1606 1.419 . S
C1608 C1609 1.363 . S
C1608 H1611 0.929 . S
C1609 C1608 1.363 . S
C1609 C1615 1.428 . S
H1610 C1606 0.930 . S
H1611 C1608 0.929 . S
S1612 N1613 1.613 . S
S1612 N1614 1.610 . S
N1613 S1612 1.613 . S
N1613 C1616 1.350 . S
N1614 S1612 1.610 . S
N1614 C1615 1.351 . S
C1615 C1609 1.428 . S
C1615 N1614 1.351 . S
C1615 C1616 1.434 . S
C1616 C1607 1.429 . S
C1616 N1613 1.350 . S
C1616 C1615 1.434 . S
C1617 C1618 1.369 . S
C1617 C1619 1.419 . S
C1617 H1621 0.930 . S
C1618 C1617 1.369 . S
C1618 C1627 1.429 . S
C1619 C1617 1.419 . S
C1619 C1620 1.363 . S
C1619 H1622 0.929 . S
C1620 C1619 1.363 . S
C1620 C1626 1.428 . S
H1621 C1617 0.930 . S
H1622 C1619 0.929 . S
S1623 N1624 1.613 . S
S1623 N1625 1.610 . S
N1624 S1623 1.613 . S
N1624 C1627 1.350 . S
N1625 S1623 1.610 . S
N1625 C1626 1.351 . S
C1626 C1620 1.428 . S
C1626 N1625 1.351 . S
C1626 C1627 1.434 . S
C1627 C1618 1.429 . S
C1627 N1624 1.350 . S
C1627 C1626 1.434 . S
C1628 C1629 1.369 . S
C1628 C1630 1.419 . S
C1628 H1632 0.930 . S
C1629 C1628 1.369 . S
C1629 C1638 1.429 . S
C1630 C1628 1.419 . S
C1630 C1631 1.363 . S
C1630 H1633 0.929 . S
C1631 C1630 1.363 . S
C1631 C1637 1.428 . S
H1632 C1628 0.930 . S
H1633 C1630 0.929 . S
S1634 N1635 1.613 . S
S1634 N1636 1.610 . S
N1635 S1634 1.613 . S
N1635 C1638 1.350 . S
N1636 S1634 1.610 . S
N1636 C1637 1.351 . S
C1637 C1631 1.428 . S
C1637 N1636 1.351 . S
C1637 C1638 1.434 . S
C1638 C1629 1.429 . S
C1638 N1635 1.350 . S
C1638 C1637 1.434 . S
C1639 C1640 1.369 . S
C1639 C1641 1.419 . S
C1639 H1643 0.930 . S
C1640 C1639 1.369 . S
C1640 C1649 1.429 . S
C1641 C1639 1.419 . S
C1641 C1642 1.363 . S
C1641 H1644 0.929 . S
C1642 C1641 1.363 . S
C1642 C1648 1.428 . S
H1643 C1639 0.930 . S
H1644 C1641 0.929 . S
S1645 N1646 1.613 . S
S1645 N1647 1.610 . S
N1646 S1645 1.613 . S
N1646 C1649 1.350 . S
N1647 S1645 1.610 . S
N1647 C1648 1.351 . S
C1648 C1642 1.428 . S
C1648 N1647 1.351 . S
C1648 C1649 1.434 . S
C1649 C1640 1.429 . S
C1649 N1646 1.350 . S
C1649 C1648 1.434 . S
C1650 C1651 1.369 . S
C1650 C1652 1.419 . S
C1650 H1654 0.930 . S
C1651 C1650 1.369 . S
C1651 C1660 1.429 . S
C1652 C1650 1.419 . S
C1652 C1653 1.363 . S
C1652 H1655 0.929 . S
C1653 C1652 1.363 . S
C1653 C1659 1.428 . S
H1654 C1650 0.930 . S
H1655 C1652 0.929 . S
S1656 N1657 1.613 . S
S1656 N1658 1.610 . S
N1657 S1656 1.613 . S
N1657 C1660 1.350 . S
N1658 S1656 1.610 . S
N1658 C1659 1.351 . S
C1659 C1653 1.428 . S
C1659 N1658 1.351 . S
C1659 C1660 1.434 . S
C1660 C1651 1.429 . S
C1660 N1657 1.350 . S
C1660 C1659 1.434 . S
C1661 C1662 1.369 . S
C1661 C1663 1.419 . S
C1661 H1665 0.930 . S
C1662 C1661 1.369 . S
C1662 C1671 1.429 . S
C1663 C1661 1.419 . S
C1663 C1664 1.363 . S
C1663 H1666 0.929 . S
C1664 C1663 1.363 . S
C1664 C1670 1.428 . S
H1665 C1661 0.930 . S
H1666 C1663 0.929 . S
S1667 N1668 1.613 . S
S1667 N1669 1.610 . S
N1668 S1667 1.613 . S
N1668 C1671 1.350 . S
N1669 S1667 1.610 . S
N1669 C1670 1.351 . S
C1670 C1664 1.428 . S
C1670 N1669 1.351 . S
C1670 C1671 1.434 . S
C1671 C1662 1.429 . S
C1671 N1668 1.350 . S
C1671 C1670 1.434 . S
C1672 C1673 1.369 . S
C1672 C1674 1.419 . S
C1672 H1676 0.930 . S
C1673 C1672 1.369 . S
C1673 C1682 1.429 . S
C1674 C1672 1.419 . S
C1674 C1675 1.363 . S
C1674 H1677 0.929 . S
C1675 C1674 1.363 . S
C1675 C1681 1.428 . S
H1676 C1672 0.930 . S
H1677 C1674 0.929 . S
S1678 N1679 1.613 . S
S1678 N1680 1.610 . S
N1679 S1678 1.613 . S
N1679 C1682 1.350 . S
N1680 S1678 1.610 . S
N1680 C1681 1.351 . S
C1681 C1675 1.428 . S
C1681 N1680 1.351 . S
C1681 C1682 1.434 . S
C1682 C1673 1.429 . S
C1682 N1679 1.350 . S
C1682 C1681 1.434 . S
C1683 C1684 1.369 . S
C1683 C1685 1.419 . S
C1683 H1687 0.930 . S
C1684 C1683 1.369 . S
C1684 C1693 1.429 . S
C1685 C1683 1.419 . S
C1685 C1686 1.363 . S
C1685 H1688 0.929 . S
C1686 C1685 1.363 . S
C1686 C1692 1.428 . S
H1687 C1683 0.930 . S
H1688 C1685 0.929 . S
S1689 N1690 1.613 . S
S1689 N1691 1.610 . S
N1690 S1689 1.613 . S
N1690 C1693 1.350 . S
N1691 S1689 1.610 . S
N1691 C1692 1.351 . S
C1692 C1686 1.428 . S
C1692 N1691 1.351 . S
C1692 C1693 1.434 . S
C1693 C1684 1.429 . S
C1693 N1690 1.350 . S
C1693 C1692 1.434 . S
C1694 C1695 1.369 . S
C1694 C1696 1.419 . S
C1694 H1698 0.930 . S
C1695 C1694 1.369 . S
C1695 C1704 1.429 . S
C1696 C1694 1.419 . S
C1696 C1697 1.363 . S
C1696 H1699 0.929 . S
C1697 C1696 1.363 . S
C1697 C1703 1.428 . S
H1698 C1694 0.930 . S
H1699 C1696 0.929 . S
S1700 N1701 1.613 . S
S1700 N1702 1.610 . S
N1701 S1700 1.613 . S
N1701 C1704 1.350 . S
N1702 S1700 1.610 . S
N1702 C1703 1.351 . S
C1703 C1697 1.428 . S
C1703 N1702 1.351 . S
C1703 C1704 1.434 . S
C1704 C1695 1.429 . S
C1704 N1701 1.350 . S
C1704 C1703 1.434 . S
C1705 C1706 1.369 . S
C1705 C1707 1.419 . S
C1705 H1709 0.930 . S
C1706 C1705 1.369 . S
C1706 C1715 1.429 . S
C1707 C1705 1.419 . S
C1707 C1708 1.363 . S
C1707 H1710 0.929 . S
C1708 C1707 1.363 . S
C1708 C1714 1.428 . S
H1709 C1705 0.930 . S
H1710 C1707 0.929 . S
S1711 N1712 1.613 . S
S1711 N1713 1.610 . S
N1712 S1711 1.613 . S
N1712 C1715 1.350 . S
N1713 S1711 1.610 . S
N1713 C1714 1.351 . S
C1714 C1708 1.428 . S
C1714 N1713 1.351 . S
C1714 C1715 1.434 . S
C1715 C1706 1.429 . S
C1715 N1712 1.350 . S
C1715 C1714 1.434 . S
C1716 C1717 1.369 . S
C1716 C1718 1.419 . S
C1716 H1720 0.930 . S
C1717 C1716 1.369 . S
C1717 C1726 1.429 . S
C1718 C1716 1.419 . S
C1718 C1719 1.363 . S
C1718 H1721 0.929 . S
C1719 C1718 1.363 . S
C1719 C1725 1.428 . S
H1720 C1716 0.930 . S
H1721 C1718 0.929 . S
S1722 N1723 1.613 . S
S1722 N1724 1.610 . S
N1723 S1722 1.613 . S
N1723 C1726 1.350 . S
N1724 S1722 1.610 . S
N1724 C1725 1.351 . S
C1725 C1719 1.428 . S
C1725 N1724 1.351 . S
C1725 C1726 1.434 . S
C1726 C1717 1.429 . S
C1726 N1723 1.350 . S
C1726 C1725 1.434 . S
C1727 C1728 1.369 . S
C1727 C1729 1.419 . S
C1727 H1731 0.930 . S
C1728 C1727 1.369 . S
C1728 C1737 1.429 . S
C1729 C1727 1.419 . S
C1729 C1730 1.363 . S
C1729 H1732 0.929 . S
C1730 C1729 1.363 . S
C1730 C1736 1.428 . S
H1731 C1727 0.930 . S
H1732 C1729 0.929 . S
S1733 N1734 1.613 . S
S1733 N1735 1.610 . S
N1734 S1733 1.613 . S
N1734 C1737 1.350 . S
N1735 S1733 1.610 . S
N1735 C1736 1.351 . S
C1736 C1730 1.428 . S
C1736 N1735 1.351 . S
C1736 C1737 1.434 . S
C1737 C1728 1.429 . S
C1737 N1734 1.350 . S
C1737 C1736 1.434 . S
C1738 C1739 1.369 . S
C1738 C1740 1.419 . S
C1738 H1742 0.930 . S
C1739 C1738 1.369 . S
C1739 C1748 1.429 . S
C1740 C1738 1.419 . S
C1740 C1741 1.363 . S
C1740 H1743 0.929 . S
C1741 C1740 1.363 . S
C1741 C1747 1.428 . S
H1742 C1738 0.930 . S
H1743 C1740 0.929 . S
S1744 N1745 1.613 . S
S1744 N1746 1.610 . S
N1745 S1744 1.613 . S
N1745 C1748 1.350 . S
N1746 S1744 1.610 . S
N1746 C1747 1.351 . S
C1747 C1741 1.428 . S
C1747 N1746 1.351 . S
C1747 C1748 1.434 . S
C1748 C1739 1.429 . S
C1748 N1745 1.350 . S
C1748 C1747 1.434 . S
C1749 C1750 1.369 . S
C1749 C1751 1.419 . S
C1749 H1753 0.930 . S
C1750 C1749 1.369 . S
C1750 C1759 1.429 . S
C1751 C1749 1.419 . S
C1751 C1752 1.363 . S
C1751 H1754 0.929 . S
C1752 C1751 1.363 . S
C1752 C1758 1.428 . S
H1753 C1749 0.930 . S
H1754 C1751 0.929 . S
S1755 N1756 1.613 . S
S1755 N1757 1.610 . S
N1756 S1755 1.613 . S
N1756 C1759 1.350 . S
N1757 S1755 1.610 . S
N1757 C1758 1.351 . S
C1758 C1752 1.428 . S
C1758 N1757 1.351 . S
C1758 C1759 1.434 . S
C1759 C1750 1.429 . S
C1759 N1756 1.350 . S
C1759 C1758 1.434 . S
C1760 C1761 1.369 . S
C1760 C1762 1.419 . S
C1760 H1764 0.930 . S
C1761 C1760 1.369 . S
C1761 C1770 1.429 . S
C1762 C1760 1.419 . S
C1762 C1763 1.363 . S
C1762 H1765 0.929 . S
C1763 C1762 1.363 . S
C1763 C1769 1.428 . S
H1764 C1760 0.930 . S
H1765 C1762 0.929 . S
S1766 N1767 1.613 . S
S1766 N1768 1.610 . S
N1767 S1766 1.613 . S
N1767 C1770 1.350 . S
N1768 S1766 1.610 . S
N1768 C1769 1.351 . S
C1769 C1763 1.428 . S
C1769 N1768 1.351 . S
C1769 C1770 1.434 . S
C1770 C1761 1.429 . S
C1770 N1767 1.350 . S
C1770 C1769 1.434 . S
C1771 C1772 1.369 1_545 S
C1771 C1773 1.419 . S
C1771 H1775 0.930 . S
C1772 C1771 1.369 1_565 S
C1772 C1781 1.429 1_455 S
C1773 C1771 1.419 . S
C1773 C1774 1.363 1_455 S
C1773 H1776 0.929 . S
C1774 C1773 1.363 1_655 S
C1774 C1780 1.428 1_545 S
H1775 C1771 0.930 . S
H1776 C1773 0.929 . S
S1777 N1778 1.613 . S
S1777 N1779 1.610 . S
N1778 S1777 1.613 . S
N1778 C1781 1.350 . S
N1779 S1777 1.610 . S
N1779 C1780 1.351 . S
C1780 C1774 1.428 1_565 S
C1780 N1779 1.351 . S
C1780 C1781 1.434 . S
C1781 C1772 1.429 1_655 S
C1781 N1778 1.350 . S
C1781 C1780 1.434 . S
C1782 C1783 1.369 . S
C1782 C1784 1.419 . S
C1782 H1786 0.930 . S
C1783 C1782 1.369 . S
C1783 C1792 1.429 . S
C1784 C1782 1.419 . S
C1784 C1785 1.363 . S
C1784 H1787 0.929 . S
C1785 C1784 1.363 . S
C1785 C1791 1.428 . S
H1786 C1782 0.930 . S
H1787 C1784 0.929 . S
S1788 N1789 1.613 . S
S1788 N1790 1.610 . S
N1789 S1788 1.613 . S
N1789 C1792 1.350 . S
N1790 S1788 1.610 . S
N1790 C1791 1.351 . S
C1791 C1785 1.428 . S
C1791 N1790 1.351 . S
C1791 C1792 1.434 . S
C1792 C1783 1.429 . S
C1792 N1789 1.350 . S
C1792 C1791 1.434 . S
C1793 C1794 1.383 1_565 S
C1793 C1795 1.405 1_554 S
C1793 H1797 0.930 . S
C1794 C1793 1.383 1_545 S
C1794 C1803 1.429 . S
C1795 C1793 1.405 1_556 S
C1795 C1796 1.363 . S
C1795 H1798 0.929 . S
C1796 C1795 1.363 . S
C1796 C1802 1.430 1_565 S
H1797 C1793 0.930 . S
H1798 C1795 0.929 . S
S1799 N1800 1.613 . S
S1799 N1801 1.610 . S
N1800 S1799 1.613 . S
N1800 C1803 1.350 . S
N1801 S1799 1.610 . S
N1801 C1802 1.351 1_554 S
C1802 C1796 1.430 1_545 S
C1802 N1801 1.351 1_556 S
C1802 C1803 1.432 1_556 S
C1803 C1794 1.429 . S
C1803 N1800 1.350 . S
C1803 C1802 1.432 1_554 S
C1804 C1805 1.369 . S
C1804 C1806 1.419 . S
C1804 H1808 0.930 . S
C1805 C1804 1.369 . S
C1805 C1814 1.429 . S
C1806 C1804 1.419 . S
C1806 C1807 1.363 . S
C1806 H1809 0.929 . S
C1807 C1806 1.363 . S
C1807 C1813 1.428 . S
H1808 C1804 0.930 . S
H1809 C1806 0.929 . S
S1810 N1811 1.613 . S
S1810 N1812 1.610 . S
N1811 S1810 1.613 . S
N1811 C1814 1.350 . S
N1812 S1810 1.610 . S
N1812 C1813 1.351 . S
C1813 C1807 1.428 . S
C1813 N1812 1.351 . S
C1813 C1814 1.434 . S
C1814 C1805 1.429 . S
C1814 N1811 1.350 . S
C1814 C1813 1.434 . S
C1815 C1816 1.369 . S
C1815 C1817 1.419 1_545 S
C1815 H1819 0.930 . S
C1816 C1815 1.369 . S
C1816 C1825 1.429 . S
C1817 C1815 1.419 1_565 S
C1817 C1818 1.363 . S
C1817 H1820 0.929 . S
C1818 C1817 1.363 . S
C1818 C1824 1.428 . S
H1819 C1815 0.930 . S
H1820 C1817 0.929 . S
S1821 N1822 1.615 1_565 S
S1821 N1823 1.610 . S
N1822 S1821 1.615 1_545 S
N1822 C1825 1.350 . S
N1823 S1821 1.610 . S
N1823 C1824 1.351 . S
C1824 C1818 1.428 . S
C1824 N1823 1.351 . S
C1824 C1825 1.434 1_565 S
C1825 C1816 1.429 . S
C1825 N1822 1.350 . S
C1825 C1824 1.434 1_545 S
C1826 C1827 1.369 . S
C1826 C1828 1.419 . S
C1826 H1830 0.930 . S
C1827 C1826 1.369 . S
C1827 C1836 1.429 . S
C1828 C1826 1.419 . S
C1828 C1829 1.363 . S
C1828 H1831 0.929 . S
C1829 C1828 1.363 . S
C1829 C1835 1.428 . S
H1830 C1826 0.930 . S
H1831 C1828 0.929 . S
S1832 N1833 1.613 . S
S1832 N1834 1.610 . S
N1833 S1832 1.613 . S
N1833 C1836 1.350 . S
N1834 S1832 1.610 . S
N1834 C1835 1.351 . S
C1835 C1829 1.428 . S
C1835 N1834 1.351 . S
C1835 C1836 1.434 . S
C1836 C1827 1.429 . S
C1836 N1833 1.350 . S
C1836 C1835 1.434 . S
C1837 C1838 1.369 1_455 S
C1837 C1839 1.419 1_554 S
C1837 H1841 0.930 . S
C1838 C1837 1.369 1_655 S
C1838 C1847 1.429 1_565 S
C1839 C1837 1.419 1_556 S
C1839 C1840 1.363 1_565 S
C1839 H1842 0.929 . S
C1840 C1839 1.363 1_545 S
C1840 C1846 1.428 1_455 S
H1841 C1837 0.930 . S
H1842 C1839 0.929 . S
S1843 N1844 1.613 . S
S1843 N1845 1.610 1_554 S
N1844 S1843 1.613 . S
N1844 C1847 1.350 . S
N1845 S1843 1.610 1_556 S
N1845 C1846 1.351 . S
C1846 C1840 1.428 1_655 S
C1846 N1845 1.351 . S
C1846 C1847 1.434 1_556 S
C1847 C1838 1.429 1_545 S
C1847 N1844 1.350 . S
C1847 C1846 1.434 1_554 S
C1848 C1849 1.369 . S
C1848 C1850 1.419 . S
C1848 H1852 0.930 . S
C1849 C1848 1.369 . S
C1849 C1858 1.429 . S
C1850 C1848 1.419 . S
C1850 C1851 1.363 . S
C1850 H1853 0.929 . S
C1851 C1850 1.363 . S
C1851 C1857 1.428 . S
H1852 C1848 0.930 . S
H1853 C1850 0.929 . S
S1854 N1855 1.613 . S
S1854 N1856 1.610 . S
N1855 S1854 1.613 . S
N1855 C1858 1.350 . S
N1856 S1854 1.610 . S
N1856 C1857 1.351 . S
C1857 C1851 1.428 . S
C1857 N1856 1.351 . S
C1857 C1858 1.434 . S
C1858 C1849 1.429 . S
C1858 N1855 1.350 . S
C1858 C1857 1.434 . S
C1859 C1860 1.369 . S
C1859 C1861 1.419 . S
C1859 H1863 0.930 . S
C1860 C1859 1.369 . S
C1860 C1869 1.429 . S
C1861 C1859 1.419 . S
C1861 C1862 1.363 . S
C1861 H1864 0.929 . S
C1862 C1861 1.363 . S
C1862 C1868 1.428 . S
H1863 C1859 0.930 . S
H1864 C1861 0.929 . S
S1865 N1866 1.613 . S
S1865 N1867 1.610 . S
N1866 S1865 1.613 . S
N1866 C1869 1.350 . S
N1867 S1865 1.610 . S
N1867 C1868 1.351 . S
C1868 C1862 1.428 . S
C1868 N1867 1.351 . S
C1868 C1869 1.434 . S
C1869 C1860 1.429 . S
C1869 N1866 1.350 . S
C1869 C1868 1.434 . S
C1870 C1871 1.369 . S
C1870 C1872 1.419 . S
C1870 H1874 0.930 . S
C1871 C1870 1.369 . S
C1871 C1880 1.429 . S
C1872 C1870 1.419 . S
C1872 C1873 1.363 . S
C1872 H1875 0.929 . S
C1873 C1872 1.363 . S
C1873 C1879 1.428 . S
H1874 C1870 0.930 . S
H1875 C1872 0.929 . S
S1876 N1877 1.613 . S
S1876 N1878 1.610 . S
N1877 S1876 1.613 . S
N1877 C1880 1.350 . S
N1878 S1876 1.610 . S
N1878 C1879 1.351 . S
C1879 C1873 1.428 . S
C1879 N1878 1.351 . S
C1879 C1880 1.434 . S
C1880 C1871 1.429 . S
C1880 N1877 1.350 . S
C1880 C1879 1.434 . S
C1881 C1882 1.369 . S
C1881 C1883 1.419 . S
C1881 H1885 0.930 . S
C1882 C1881 1.369 . S
C1882 C1891 1.429 . S
C1883 C1881 1.419 . S
C1883 C1884 1.363 . S
C1883 H1886 0.929 . S
C1884 C1883 1.363 . S
C1884 C1890 1.428 . S
H1885 C1881 0.930 . S
H1886 C1883 0.929 . S
S1887 N1888 1.613 . S
S1887 N1889 1.610 . S
N1888 S1887 1.613 . S
N1888 C1891 1.350 . S
N1889 S1887 1.610 . S
N1889 C1890 1.351 . S
C1890 C1884 1.428 . S
C1890 N1889 1.351 . S
C1890 C1891 1.434 . S
C1891 C1882 1.429 . S
C1891 N1888 1.350 . S
C1891 C1890 1.434 . S
C1892 C1893 1.369 . S
C1892 C1894 1.419 1_556 S
C1892 H1896 0.930 . S
C1893 C1892 1.369 . S
C1893 C1902 1.429 . S
C1894 C1892 1.419 1_554 S
C1894 C1895 1.363 . S
C1894 H1897 0.929 . S
C1895 C1894 1.363 . S
C1895 C1901 1.428 . S
H1896 C1892 0.930 . S
H1897 C1894 0.929 . S
S1898 N1899 1.613 1_554 S
S1898 N1900 1.610 . S
N1899 S1898 1.613 1_556 S
N1899 C1902 1.350 . S
N1900 S1898 1.610 . S
N1900 C1901 1.351 . S
C1901 C1895 1.428 . S
C1901 N1900 1.351 . S
C1901 C1902 1.434 1_554 S
C1902 C1893 1.429 . S
C1902 N1899 1.350 . S
C1902 C1901 1.434 1_556 S
C1903 C1904 1.369 . S
C1903 C1905 1.419 . S
C1903 H1907 0.930 . S
C1904 C1903 1.369 . S
C1904 C1913 1.429 1_455 S
C1905 C1903 1.419 . S
C1905 C1906 1.363 1_455 S
C1905 H1908 0.929 . S
C1906 C1905 1.363 1_655 S
C1906 C1912 1.428 . S
H1907 C1903 0.930 . S
H1908 C1905 0.929 . S
S1909 N1910 1.613 . S
S1909 N1911 1.610 . S
N1910 S1909 1.613 . S
N1910 C1913 1.350 . S
N1911 S1909 1.610 . S
N1911 C1912 1.351 . S
C1912 C1906 1.428 . S
C1912 N1911 1.351 . S
C1912 C1913 1.434 . S
C1913 C1904 1.429 1_655 S
C1913 N1910 1.350 . S
C1913 C1912 1.434 . S
C1914 C1915 1.369 1_556 S
C1914 C1916 1.419 . S
C1914 H1918 0.930 . S
C1915 C1914 1.369 1_554 S
C1915 C1924 1.429 1_455 S
C1916 C1914 1.419 . S
C1916 C1917 1.363 1_455 S
C1916 H1919 0.929 . S
C1917 C1916 1.363 1_655 S
C1917 C1923 1.428 1_556 S
H1918 C1914 0.930 . S
H1919 C1916 0.929 . S
S1920 N1921 1.613 . S
S1920 N1922 1.610 . S
N1921 S1920 1.613 . S
N1921 C1924 1.350 . S
N1922 S1920 1.610 . S
N1922 C1923 1.351 . S
C1923 C1917 1.428 1_554 S
C1923 N1922 1.351 . S
C1923 C1924 1.434 . S
C1924 C1915 1.429 1_655 S
C1924 N1921 1.350 . S
C1924 C1923 1.434 . S
C1925 C1926 1.369 . S
C1925 C1927 1.419 . S
C1925 H1929 0.930 . S
C1926 C1925 1.369 . S
C1926 C1935 1.429 . S
C1927 C1925 1.419 . S
C1927 C1928 1.363 . S
C1927 H1930 0.929 . S
C1928 C1927 1.363 . S
C1928 C1934 1.428 . S
H1929 C1925 0.930 . S
H1930 C1927 0.929 . S
S1931 N1932 1.613 . S
S1931 N1933 1.610 . S
N1932 S1931 1.613 . S
N1932 C1935 1.350 . S
N1933 S1931 1.610 . S
N1933 C1934 1.351 . S
C1934 C1928 1.428 . S
C1934 N1933 1.351 . S
C1934 C1935 1.434 . S
C1935 C1926 1.429 . S
C1935 N1932 1.350 . S
C1935 C1934 1.434 . S
C1057 N13 1.436 . S
C1059 C909 1.381 . S
C1068 N46 1.433 . S
C1070 C282 1.380 . S
C1079 C843 1.389 . S
C1081 N79 1.436 . S
C1090 C348 1.387 . S
C1092 N112 1.434 . S
C1101 C975 1.381 . S
C1103 N145 1.434 . S
C1112 N178 1.435 . S
C1114 C480 1.388 . S
C1123 N211 1.437 . S
C1125 C1041 1.384 . S
C1134 C414 1.386 . S
C1136 N244 1.437 . S
C1145 N277 1.436 . S
C1147 C645 1.382 . S
C1156 N310 1.436 . S
C1158 C18 1.388 . S
C1167 N343 1.435 . S
C1169 C579 1.381 . S
C1178 C84 1.383 . S
C1180 N376 1.434 . S
C1189 N409 1.433 . S
C1191 C711 1.381 . S
C1200 N442 1.433 . S
C1202 C216 1.384 . S
C1211 C777 1.381 . S
C1213 N475 1.433 . S
C1222 N508 1.434 . S
C1224 C150 1.380 . S
C1233 N541 1.433 . S
C1235 C381 1.385 . S
C1244 C810 1.384 . S
C1246 N574 1.437 . S
C1255 C315 1.388 . S
C1257 N607 1.435 . S
C1266 N640 1.434 . S
C1268 C876 1.380 . S
C1277 N673 1.435 . S
C1279 C447 1.380 . S
C1288 C1008 1.382 . S
C1290 N706 1.433 . S
C1299 N739 1.435 . S
C1301 C513 1.380 . S
C1310 C942 1.385 . S
C1312 N772 1.437 . S
C1321 N805 1.436 . S
C1323 C117 1.383 . S
C1332 C546 1.380 . S
C1334 N838 1.433 . S
C1343 N871 1.433 . S
C1345 C51 1.381 . S
C1354 C612 1.389 . S
C1356 N904 1.436 . S
C1365 N937 1.437 . S
C1367 C183 1.388 . S
C1376 C744 1.389 . S
C1378 N970 1.437 . S
C1387 C249 1.384 . S
C1389 N1003 1.436 . S
C1398 N1036 1.433 . S
C1400 C678 1.383 . S
C1409 N2 1.526 . S
C1411 N134 1.523 . S
C1420 N35 1.525 . S
C1422 N167 1.524 . S
C1431 N200 1.526 . S
C1433 N68 1.523 . S
C1442 N101 1.526 . S
C1444 N233 1.523 . S
C1453 N266 1.517 . S
C1455 N398 1.524 . S
C1464 N299 1.517 . S
C1466 N431 1.521 . S
C1475 N332 1.525 . S
C1477 N464 1.518 . S
C1486 N365 1.524 . S
C1488 N497 1.518 . S
C1497 N530 1.517 . S
C1499 N662 1.523 . S
C1508 N695 1.521 . S
C1510 N563 1.526 . S
C1519 N728 1.526 . S
C1521 N596 1.519 . S
C1530 N761 1.523 . S
C1532 N629 1.525 . S
C1541 N926 1.525 . S
C1543 N794 1.524 . S
C1552 N827 1.518 . S
C1554 N959 1.525 . S
C1563 N860 1.526 . S
C1565 N992 1.519 . S
C1574 N1025 1.518 . S
C1576 N893 1.520 . S
C1585 C186 0.904 . S
C1587 C21 0.905 . S
C1596 C219 0.905 . S
C1598 C54 0.905 . S
C1607 C252 0.911 . S
C1609 C87 0.910 . S
C1618 C153 0.905 . S
C1620 C120 0.906 . S
C1629 C450 0.911 . S
C1631 C285 0.910 . S
C1640 C483 0.910 . S
C1642 C318 0.910 . S
C1651 C351 0.904 . S
C1653 C516 0.905 . S
C1662 C384 0.911 . S
C1664 C417 0.910 . S
C1673 C714 0.909 . S
C1675 C549 0.909 . S
C1684 C582 0.908 . S
C1686 C747 0.908 . S
C1695 C780 0.906 . S
C1697 C615 0.906 . S
C1706 C648 0.907 . S
C1708 C681 0.907 . S
C1717 C978 0.907 . S
C1719 C813 0.907 . S
C1728 C846 0.910 . S
C1730 C1011 0.910 . S
C1739 C879 0.911 . S
C1741 C1044 0.910 . S
C1750 C945 0.905 . S
C1752 C912 0.906 . S
C1761 C799 1.896 . S
C1763 C7 1.892 . S
C1772 C40 1.896 . S
C1774 C304 1.892 . S
C1783 C73 1.894 . S
C1785 C865 1.893 . S
C1794 C106 1.895 . S
C1796 C370 1.892 . S
C1805 C139 1.891 . S
C1807 C931 1.895 . S
C1816 C436 1.892 . S
C1818 C172 1.894 . S
C1827 C997 1.896 . S
C1829 C205 1.892 . S
C1838 C502 1.892 . S
C1840 C238 1.895 . S
C1849 C271 1.895 . S
C1851 C535 1.892 . S
C1860 C601 1.892 . S
C1862 C337 1.895 . S
C1871 C403 1.895 . S
C1873 C667 1.892 . S
C1882 C469 1.893 . S
C1884 C733 1.894 . S
C1893 C832 1.896 . S
C1895 C568 1.892 . S
C1904 C898 1.892 . S
C1906 C634 1.895 . S
C1915 C964 1.892 . S
C1917 C700 1.895 . S
C1926 C766 1.894 . S
C1928 C1030 1.893 . S
